3q32_ligand
                    3D
 Schrodinger Suite 2020-3.
 60 64  0  0  1  0            999 V2000
   -2.7510   42.7110    6.0000 C   0  0  0  0  0  0
   -3.7070   42.8030    4.9510 C   0  0  0  0  0  0
   -1.1580   49.1080   -3.8780 C   0  0  0  0  0  0
    0.3390   50.5360   -2.6200 C   0  0  0  0  0  0
   -5.0660   44.7730   -0.0490 C   0  0  0  0  0  0
   -1.6480   43.4700    5.6280 C   0  0  0  0  0  0
    0.9040   48.1990   -2.9760 C   0  0  0  0  0  0
   -0.8400   50.3780   -3.3560 C   0  0  0  0  0  0
   -0.2690   48.0290   -3.7050 C   0  0  0  0  0  0
    1.2070   49.4570   -2.4240 C   0  0  0  0  0  0
   -3.1230   43.5510    3.9450 C   0  0  0  0  0  0
   -6.1110   44.7360   -0.9670 C   0  0  0  0  0  0
   -5.5060   43.9340    1.0080 C   0  0  0  0  0  0
   -3.5460   43.9190    2.6250 C   0  0  0  0  0  0
   -1.4840   45.0600    2.4260 C   0  0  0  0  0  0
    2.1950   46.7040   -1.4210 C   0  0  0  0  0  0
    0.6150   46.2740    1.9270 C   0  0  0  0  0  0
   -1.2240   46.2260    0.2590 C   0  0  0  0  0  0
    1.6500   45.9720    0.8540 C   0  0  0  0  0  0
   -0.2180   46.0370   -0.8700 C   0  0  0  0  0  0
   -6.3420   45.3320   -2.3060 C   0  0  0  0  0  0
   -1.5520   52.4150   -4.4590 C   0  0  0  0  0  0
    1.8020   47.0030   -2.8420 C   0  0  0  0  0  0
   -6.7280   43.4460    0.7890 N   0  3  0  0  0  0
   -2.7610   44.7310    1.9770 N   0  0  0  0  0  0
   -1.0010   44.6640    3.5980 N   0  0  0  0  0  0
   -7.0350   43.8770   -0.4490 N   0  3  0  0  0  0
   -1.8700   43.9600    4.3680 N   0  0  0  0  0  0
   -0.7020   45.7470    1.5440 N   0  0  0  0  0  0
    1.2130   46.2720   -0.5270 N   0  0  0  0  0  0
   -4.8110   43.6440    2.1800 N   0  0  0  0  0  0
    3.3770   46.8710   -1.1030 O   0  0  0  0  0  0
   -1.7030   51.4370   -3.4420 O   0  0  0  0  0  0
   -0.5080   46.8080   -4.2080 F   0  0  0  0  0  0
    2.3330   49.6760   -1.7400 F   0  0  0  0  0  0
   -2.8630   42.1479    6.9266 H   0  0  0  0  0  0
   -4.7065   42.3682    4.9417 H   0  0  0  0  0  0
   -2.0940   48.9604   -4.4168 H   0  0  0  0  0  0
    0.5836   51.5095   -2.1951 H   0  0  0  0  0  0
   -4.1695   45.3744   -0.2601 H   0  0  0  0  0  0
   -0.7593   43.6453    6.2342 H   0  0  0  0  0  0
    0.9221   45.8070    2.8744 H   0  0  0  0  0  0
    0.5354   47.3626    2.0637 H   0  0  0  0  0  0
   -1.4634   47.2947    0.3617 H   0  0  0  0  0  0
   -2.1420   45.6650    0.0299 H   0  0  0  0  0  0
    2.5546   46.5700    1.0385 H   0  0  0  0  0  0
    1.9055   44.9024    0.8817 H   0  0  0  0  0  0
   -0.2736   45.0031   -1.2414 H   0  0  0  0  0  0
   -0.4506   46.7337   -1.6888 H   0  0  0  0  0  0
   -5.5021   45.9944   -2.5623 H   0  0  0  0  0  0
   -7.2761   45.9127   -2.2926 H   0  0  0  0  0  0
   -6.4191   44.5307   -3.0556 H   0  0  0  0  0  0
   -2.3394   53.1761   -4.3555 H   0  0  0  0  0  0
   -1.6340   51.9343   -5.4450 H   0  0  0  0  0  0
   -0.5656   52.8927   -4.3648 H   0  0  0  0  0  0
    1.2889   46.1133   -3.2359 H   0  0  0  0  0  0
    2.7279   47.1741   -3.4107 H   0  0  0  0  0  0
   -5.3007   43.0737    2.9831 H   0  0  0  0  0  0
   -7.9572   43.5312   -0.9388 H   0  0  0  0  0  0
   -7.2263   42.8432    1.5625 H   0  0  0  0  0  0
  1  2  1  0  0  0
  1  6  2  0  0  0
  1 36  1  0  0  0
  2 11  2  0  0  0
  2 37  1  0  0  0
  3  8  2  0  0  0
  3  9  1  0  0  0
  3 38  1  0  0  0
  4  8  1  0  0  0
  4 10  2  0  0  0
  4 39  1  0  0  0
  5 12  2  0  0  0
  5 13  1  0  0  0
  5 40  1  0  0  0
  6 28  1  0  0  0
  6 41  1  0  0  0
  7  9  2  0  0  0
  7 10  1  0  0  0
  7 23  1  0  0  0
  8 33  1  0  0  0
  9 34  1  0  0  0
 10 35  1  0  0  0
 11 14  1  0  0  0
 11 28  1  0  0  0
 12 21  1  0  0  0
 12 27  1  0  0  0
 13 24  2  0  0  0
 13 31  1  0  0  0
 14 25  2  0  0  0
 14 31  1  0  0  0
 15 25  1  0  0  0
 15 26  2  0  0  0
 15 29  1  0  0  0
 16 23  1  0  0  0
 16 30  1  0  0  0
 16 32  2  0  0  0
 17 19  1  0  0  0
 17 29  1  0  0  0
 17 42  1  0  0  0
 17 43  1  0  0  0
 18 20  1  0  0  0
 18 29  1  0  0  0
 18 44  1  0  0  0
 18 45  1  0  0  0
 19 30  1  0  0  0
 19 46  1  0  0  0
 19 47  1  0  0  0
 20 30  1  0  0  0
 20 48  1  0  0  0
 20 49  1  0  0  0
 21 50  1  0  0  0
 21 51  1  0  0  0
 21 52  1  0  0  0
 22 33  1  0  0  0
 22 53  1  0  0  0
 22 54  1  0  0  0
 22 55  1  0  0  0
 23 56  1  0  0  0
 23 57  1  0  0  0
 24 27  1  0  0  0
 24 60  1  0  0  0
 26 28  1  0  0  0
 27 59  1  0  0  0
 31 58  1  0  0  0
M  CHG  2  24   1  27   1
M  END
> <s_m_source_file>
../3q32_ligand.sdf

> <i_m_source_file_index>
1

> <s_epik_input>
W0NIM11jMVtjSF1jKG5bbkhdMSlbTkhdYzJuYyhubihjMjMpW2NIXVtjSF1bY0hdMylONFtDSDJdW0NIMl1OKFtDSDJdW0NIMl00KUMoPU8pW0NIMl1jNWMoRilbY0hdYyhbY0hdYzVGKU9bQ0gzXQ==

> <s_epik_cmdline>
J2VwaWtfYXBwJywgJy1pbWFlJywgJ2xpZ2FuZF9wcm8ubWFlJywgJy1vbWFlJywgJ2xpZ2FuZF9wcmVwLm1hZScsICctbXMnLCAnMScsICctcGgnLCAnNycsICctcGh0JywgJzAuNScsICctbnQn

> <r_epik_Ionization_Penalty>
  0.1020

> <r_epik_Ionization_Penalty_Charging>
  0.0996

> <r_epik_Ionization_Penalty_Neutral>
  0.0024

> <r_epik_State_Penalty>
  0.0896

> <r_epik_Charging_Adjusted_Penalty>
0.189205078922553

> <i_epik_Tot_Q>
2

> <i_epik_Tot_abs_Q>
2

> <s_epik_Chemistry_Notes>
This compound has an imine and may undergo hydrolysis.

$$$$
