3q3k_ligand
                    3D
 Schrodinger Suite 2020-3.
 51 55  0  0  1  0            999 V2000
    8.5570    8.9150   25.0360 C   0  0  0  0  0  0
    8.6980    8.2650   26.2130 N   0  0  0  0  0  0
    7.1400   10.1380   23.8020 O   0  0  0  0  0  0
   14.4530    8.0710   26.5830 Cl  0  0  0  0  0  0
    7.2930    9.1640   24.5110 C   0  0  0  0  0  0
    9.8070    9.2460   24.4410 C   0  0  0  0  0  0
   10.7330    8.7470   25.3790 C   0  0  0  0  0  0
   10.0350    8.1310   26.4750 C   0  0  0  0  0  0
   12.1370    8.7290   25.4250 C   0  0  0  0  0  0
   10.6660    7.5510   27.5800 C   0  0  0  0  0  0
   12.0600    7.5390   27.6190 C   0  0  0  0  0  0
   12.7450    8.1330   26.5130 C   0  0  0  0  0  0
    2.2570    8.5100   24.2770 C   0  0  0  0  0  0
    3.0110    7.7990   23.3630 C   0  0  0  0  0  0
    2.8670    9.1280   25.3670 C   0  0  0  0  0  0
    4.2400    9.0340   25.5460 C   0  0  0  0  0  0
    5.1970    5.6790   22.5080 C   0  0  0  0  0  0
    4.6440    4.8300   23.1890 O   0  0  0  0  0  0
    5.0100    8.3340   24.6290 C   0  0  0  0  0  0
    6.3520    8.2360   24.8190 N   0  0  0  0  0  0
    4.3800    7.7060   23.5390 C   0  0  0  0  0  0
    5.1010    7.0080   22.6330 N   0  0  0  0  0  0
    6.1090    5.1310   21.4330 C   0  0  0  0  0  0
    6.8340    5.8200   20.5270 N   0  0  0  0  0  0
    6.3210    3.4160   21.2990 S   0  0  0  0  0  0
    7.4230    3.6550   19.9670 C   0  0  0  0  0  0
    8.8080    2.9640   18.0860 N   0  0  1  0  0  0
    8.0850    2.5300   19.2460 C   0  0  0  0  0  0
    9.2330    4.3140   17.8450 C   0  0  0  0  0  0
    8.4910    5.4480   18.5630 C   0  0  0  0  0  0
    7.6100    4.9420   19.6600 C   0  0  0  0  0  0
    9.6050    1.9240   17.4550 C   0  0  0  0  0  0
   10.1638    9.7424   23.5265 H   0  0  0  0  0  0
   12.7504    9.1719   24.6265 H   0  0  0  0  0  0
   10.0641    7.1180   28.3925 H   0  0  0  0  0  0
   12.6028    7.0970   28.4545 H   0  0  0  0  0  0
    1.1779    8.5880   24.1445 H   0  0  0  0  0  0
    2.5317    7.3160   22.5115 H   0  0  0  0  0  0
    2.2634    9.6874   26.0817 H   0  0  0  0  0  0
    4.7124    9.5094   26.4056 H   0  0  0  0  0  0
    6.6504    7.2803   25.2747 H   0  0  0  0  0  0
    5.6518    7.6663   21.9451 H   0  0  0  0  0  0
    8.7976    2.0316   19.9197 H   0  0  0  0  0  0
    7.3241    1.8069   18.9172 H   0  0  0  0  0  0
   10.2843    4.4271   18.1481 H   0  0  0  0  0  0
    9.1335    4.5441   16.7739 H   0  0  0  0  0  0
    9.2212    6.1422   19.0045 H   0  0  0  0  0  0
    7.8611    5.9887   17.8413 H   0  0  0  0  0  0
    9.1881    0.9381   17.7084 H   0  0  0  0  0  0
   10.6422    1.9873   17.8158 H   0  0  0  0  0  0
    9.5875    2.0601   16.3636 H   0  0  0  0  0  0
  1  2  2  0  0  0
  1  5  1  0  0  0
  1  6  1  0  0  0
  2  8  1  0  0  0
  3  5  2  0  0  0
  4 12  1  0  0  0
  5 20  1  0  0  0
  6  7  2  0  0  0
  6 33  1  0  0  0
  7  8  1  0  0  0
  7  9  1  0  0  0
  8 10  2  0  0  0
  9 12  2  0  0  0
  9 34  1  0  0  0
 10 11  1  0  0  0
 10 35  1  0  0  0
 11 12  1  0  0  0
 11 36  1  0  0  0
 13 14  2  0  0  0
 13 15  1  0  0  0
 13 37  1  0  0  0
 14 21  1  0  0  0
 14 38  1  0  0  0
 15 16  2  0  0  0
 15 39  1  0  0  0
 16 19  1  0  0  0
 16 40  1  0  0  0
 17 18  2  0  0  0
 17 22  1  0  0  0
 17 23  1  0  0  0
 19 20  1  0  0  0
 19 21  2  0  0  0
 20 41  1  0  0  0
 21 22  1  0  0  0
 22 42  1  0  0  0
 23 24  2  0  0  0
 23 25  1  0  0  0
 24 31  1  0  0  0
 25 26  1  0  0  0
 26 28  1  0  0  0
 26 31  2  0  0  0
 27 28  1  0  0  0
 27 29  1  0  0  0
 27 32  1  0  0  0
 28 43  1  0  0  0
 28 44  1  0  0  0
 29 30  1  0  0  0
 29 45  1  0  0  0
 29 46  1  0  0  0
 30 31  1  0  0  0
 30 47  1  0  0  0
 30 48  1  0  0  0
 32 49  1  0  0  0
 32 50  1  0  0  0
 32 51  1  0  0  0
M  END
> <s_m_source_file>
../3q3k_ligand.sdf

> <i_m_source_file_index>
1

> <s_epik_input>
Q2xDKD1bQ0hdMSlbQ0gyXVtDSF09QyhDMTIpTj1DKFtDSF09MilDKD1PKVtOSF1jM1tjSF1bY0hdW2NIXVtjSF1jM1tOSF1DKD1PKWMoczQpbmMoYzQ1KVtDSDJdW0NIMl1bTkBIK10oW0NIMl01KVtDSDNd

> <s_epik_cmdline>
J2VwaWtfYXBwJywgJy1pbWFlJywgJ2xpZ2FuZF9wcm8ubWFlJywgJy1vbWFlJywgJ2xpZ2FuZF9wcmVwLm1hZScsICctbXMnLCAnMScsICctcGgnLCAnNycsICctcGh0JywgJzAuNScsICctbnQn

> <r_epik_Ionization_Penalty>
  0.2401

> <r_epik_Ionization_Penalty_Charging>
  0.0000

> <r_epik_Ionization_Penalty_Neutral>
  0.2401

> <r_epik_State_Penalty>
  0.2309

> <r_epik_Charging_Adjusted_Penalty>
0.230908979395978

> <i_epik_Tot_Q>
0

> <i_epik_Tot_abs_Q>
0

> <s_epik_Chemistry_Notes>
This compound has an imine and may undergo hydrolysis.

$$$$
