3q3t_ligand
                    3D
 Schrodinger Suite 2020-3.
 76 79  0  0  1  0            999 V2000
   31.1750   -8.8950  -11.7870 C   0  0  0  0  0  0
   30.8990   -7.8080  -10.9530 C   0  0  0  0  0  0
   31.2940  -10.1550  -11.2310 C   0  0  0  0  0  0
   30.7110   -7.9480   -9.5790 C   0  0  0  0  0  0
   31.1040  -10.3190   -9.8500 C   0  0  0  0  0  0
   30.8150   -9.2150   -9.0290 C   0  0  0  0  0  0
   26.1160  -10.6720  -11.0730 C   0  0  0  0  0  0
   25.8160  -11.7320  -10.5630 O   0  0  0  0  0  0
   26.2820  -10.6500  -12.4560 N   0  0  0  0  0  0
   28.1400  -12.0150  -13.4030 C   0  0  0  0  0  0
   28.4500  -10.7570  -14.2290 C   0  0  0  0  0  0
   28.3950   -9.5270  -13.3300 C   0  0  2  0  0  0
   26.9360   -9.3990  -12.9620 C   0  0  0  0  0  0
   26.6640  -11.9720  -13.0430 C   0  0  0  0  0  0
   28.9720   -8.2640  -14.0070 C   0  0  2  0  0  0
   28.2980   -8.1370  -15.2600 O   0  0  0  0  0  0
   30.4710   -8.4240  -14.2400 C   0  0  0  0  0  0
   30.9230   -8.3120  -15.5630 C   0  0  0  0  0  0
   31.4210   -8.7160  -13.2470 C   0  0  0  0  0  0
   32.2520   -8.4540  -15.9370 C   0  0  0  0  0  0
   32.7600   -8.8600  -13.6230 C   0  0  0  0  0  0
   33.1790   -8.7350  -14.9500 C   0  0  0  0  0  0
   28.6820   -6.9280  -13.3140 C   0  0  0  0  0  0
   29.4470   -5.7800  -13.9850 C   0  0  0  0  0  0
   29.1030   -4.4460  -13.3550 C   0  0  0  0  0  0
   27.6300   -4.1270  -13.5990 C   0  0  0  0  0  0
   27.3820   -2.7410  -13.3620 O   0  0  0  0  0  0
   26.0030   -2.3890  -13.5200 C   0  0  0  0  0  0
   27.4560   -8.9920   -9.5520 C   0  0  0  0  0  0
   27.0040   -8.1330   -8.3780 C   0  0  1  0  0  0
   25.4820   -8.1440   -8.3510 C   0  0  1  0  0  0
   25.1560   -9.4170   -9.0750 C   0  0  0  0  0  0
   26.1510   -9.3870  -10.2320 C   0  0  2  0  0  0
   27.4990   -8.6730   -7.1270 O   0  0  0  0  0  0
   24.9070   -8.1620   -6.9790 N   0  3  0  0  0  0
   30.8281   -6.8135  -11.3935 H   0  0  0  0  0  0
   31.5331  -11.0131  -11.8591 H   0  0  0  0  0  0
   30.4880   -7.0833   -8.9539 H   0  0  0  0  0  0
   31.1814  -11.3130   -9.4094 H   0  0  0  0  0  0
   30.6725   -9.3563   -7.9576 H   0  0  0  0  0  0
   28.3641  -12.9107  -14.0010 H   0  0  0  0  0  0
   28.7579  -12.0176  -12.4930 H   0  0  0  0  0  0
   29.4553  -10.8444  -14.6669 H   0  0  0  0  0  0
   27.7071  -10.6545  -15.0338 H   0  0  0  0  0  0
   29.0127   -9.6472  -12.4278 H   0  0  0  0  0  0
   26.4177   -9.0556  -13.8694 H   0  0  0  0  0  0
   26.8798   -8.6177  -12.1897 H   0  0  0  0  0  0
   26.4599  -12.7697  -12.3137 H   0  0  0  0  0  0
   26.0773  -12.1511  -13.9561 H   0  0  0  0  0  0
   28.3298   -8.9613  -15.9877 H   0  0  0  0  0  0
   30.1893   -8.1016  -16.3412 H   0  0  0  0  0  0
   32.5562   -8.3472  -16.9782 H   0  0  0  0  0  0
   33.5022   -9.0771  -12.8548 H   0  0  0  0  0  0
   34.2313   -8.8584  -15.2060 H   0  0  0  0  0  0
   27.6047   -6.7125  -13.3694 H   0  0  0  0  0  0
   28.9903   -6.9872  -12.2598 H   0  0  0  0  0  0
   30.5288   -5.9485  -13.8782 H   0  0  0  0  0  0
   29.1858   -5.7401  -15.0528 H   0  0  0  0  0  0
   29.2918   -4.4923  -12.2723 H   0  0  0  0  0  0
   29.7261   -3.6576  -13.8025 H   0  0  0  0  0  0
   27.3705   -4.3670  -14.6407 H   0  0  0  0  0  0
   27.0074   -4.7265  -12.9186 H   0  0  0  0  0  0
   25.8744   -1.3140  -13.3256 H   0  0  0  0  0  0
   25.3936   -2.9657  -12.8087 H   0  0  0  0  0  0
   25.6818   -2.6169  -14.5471 H   0  0  0  0  0  0
   28.1072   -8.3989  -10.2110 H   0  0  0  0  0  0
   28.0113   -9.8639   -9.1760 H   0  0  0  0  0  0
   27.4184   -7.1168   -8.4530 H   0  0  0  0  0  0
   25.0419   -7.2370   -8.7911 H   0  0  0  0  0  0
   25.3061  -10.2719   -8.3992 H   0  0  0  0  0  0
   24.1076   -9.3918   -9.4071 H   0  0  0  0  0  0
   25.9323   -8.6555  -11.0239 H   0  0  0  0  0  0
   28.5822   -8.7493   -6.9512 H   0  0  0  0  0  0
   25.1561   -7.2221   -6.4647 H   0  0  0  0  0  0
   25.3260   -9.0097   -6.4170 H   0  0  0  0  0  0
   23.8138   -8.2676   -7.0410 H   0  0  0  0  0  0
  1  2  2  0  0  0
  1  3  1  0  0  0
  1 19  1  0  0  0
  2  4  1  0  0  0
  2 36  1  0  0  0
  3  5  2  0  0  0
  3 37  1  0  0  0
  4  6  2  0  0  0
  4 38  1  0  0  0
  5  6  1  0  0  0
  5 39  1  0  0  0
  6 40  1  0  0  0
  7  8  2  0  0  0
  7  9  1  0  0  0
  7 33  1  0  0  0
  9 13  1  0  0  0
  9 14  1  0  0  0
 10 11  1  0  0  0
 10 14  1  0  0  0
 10 41  1  0  0  0
 10 42  1  0  0  0
 11 12  1  0  0  0
 11 43  1  0  0  0
 11 44  1  0  0  0
 12 13  1  0  0  0
 12 15  1  0  0  0
 12 45  1  0  0  0
 13 46  1  0  0  0
 13 47  1  0  0  0
 14 48  1  0  0  0
 14 49  1  0  0  0
 15 16  1  0  0  0
 15 17  1  0  0  0
 15 23  1  0  0  0
 16 50  1  0  0  0
 17 18  2  0  0  0
 17 19  1  0  0  0
 18 20  1  0  0  0
 18 51  1  0  0  0
 19 21  2  0  0  0
 20 22  2  0  0  0
 20 52  1  0  0  0
 21 22  1  0  0  0
 21 53  1  0  0  0
 22 54  1  0  0  0
 23 24  1  0  0  0
 23 55  1  0  0  0
 23 56  1  0  0  0
 24 25  1  0  0  0
 24 57  1  0  0  0
 24 58  1  0  0  0
 25 26  1  0  0  0
 25 59  1  0  0  0
 25 60  1  0  0  0
 26 27  1  0  0  0
 26 61  1  0  0  0
 26 62  1  0  0  0
 27 28  1  0  0  0
 28 63  1  0  0  0
 28 64  1  0  0  0
 28 65  1  0  0  0
 29 30  1  0  0  0
 29 33  1  0  0  0
 29 66  1  0  0  0
 29 67  1  0  0  0
 30 31  1  0  0  0
 30 34  1  0  0  0
 30 68  1  0  0  0
 31 32  1  0  0  0
 31 35  1  0  0  0
 31 69  1  0  0  0
 32 33  1  0  0  0
 32 70  1  0  0  0
 32 71  1  0  0  0
 33 72  1  0  0  0
 34 73  1  0  0  0
 35 74  1  0  0  0
 35 75  1  0  0  0
 35 76  1  0  0  0
M  CHG  1  35   1
M  END
> <s_m_source_file>
../3q3t_ligand.sdf

> <i_m_source_file_index>
1

> <s_epik_input>
W2NIXTFbY0hdW2NIXVtjSF1bY0hdYzEtYzJbY0hdW2NIXVtjSF1bY0hdYzJbQ0BdKFtPSF0pKFtDSDJdW0NIMl1bQ0gyXVtDSDJdT1tDSDNdKVtDQEhdKFtDSDJdW0NIMl1bQ0gyXTMpW0NIMl1OM0MoPU8pW0NASF0oW0NIMl1bQ0BASF00W09IXSlbQ0gyXVtDQEhdNFtOSDMrXQ==

> <s_epik_cmdline>
J2VwaWtfYXBwJywgJy1pbWFlJywgJ2xpZ2FuZF9wcm8ubWFlJywgJy1vbWFlJywgJ2xpZ2FuZF9wcmVwLm1hZScsICctbXMnLCAnMScsICctcGgnLCAnNycsICctcGh0JywgJzAuNScsICctbnQn

> <r_epik_Ionization_Penalty>
  0.0181

> <r_epik_Ionization_Penalty_Charging>
  0.0181

> <r_epik_Ionization_Penalty_Neutral>
  0.0000

> <r_epik_State_Penalty>
  0.0144

> <r_epik_Charging_Adjusted_Penalty>
0.03241147704793

> <i_epik_Tot_Q>
1

> <i_epik_Tot_abs_Q>
1

$$$$
