3q43_ligand
                    3D
 Schrodinger Suite 2020-3.
 50 50  0  0  1  0            999 V2000
   12.7870    9.3880   19.3530 C   0  0  0  0  0  0
   11.7900   12.7360   12.2200 N   0  3  0  0  0  0
   12.4990   10.7280   18.9290 O   0  0  0  0  0  0
   12.7980   11.1710   17.6370 C   0  0  0  0  0  0
   16.0230   10.9360   10.6630 N   0  0  0  0  0  0
   13.3370   12.3110   10.0810 O   0  0  0  0  0  0
   12.7540   12.5200   17.3410 C   0  0  0  0  0  0
   14.6360    9.8690   11.9850 O   0  0  0  0  0  0
   13.0520   13.0070   16.0490 C   0  0  0  0  0  0
   18.7290    8.9920   12.1680 O   0  0  0  0  0  0
   13.4110   12.1250   15.0400 C   0  0  0  0  0  0
   17.6760   10.8660   12.7480 O   0  5  0  0  0  0
   13.7440   12.6920   13.6700 C   0  0  0  0  0  0
   13.0500   12.0360   12.4850 C   0  0  2  0  0  0
   14.0170   12.1470   11.3230 C   0  0  1  0  0  0
   14.9110   10.8990   11.3390 C   0  0  0  0  0  0
   16.8830    9.7510   10.7440 C   0  0  1  0  0  0
   17.7300    9.6240    9.4720 C   0  0  0  0  0  0
   16.9920    9.0190    8.2750 C   0  0  0  0  0  0
   16.4860    7.5980    8.5350 C   0  0  0  0  0  0
   17.9590    9.0950    7.1010 C   0  0  0  0  0  0
   17.8150    9.8280   11.9350 C   0  0  0  0  0  0
   13.4760   10.7600   15.3290 C   0  0  0  0  0  0
   13.1640   10.2960   16.6280 C   0  0  0  0  0  0
   12.4710    9.2584   20.3986 H   0  0  0  0  0  0
   13.8680    9.2018   19.2708 H   0  0  0  0  0  0
   12.2428    8.6765   18.7146 H   0  0  0  0  0  0
   11.1217   12.6289   13.0871 H   0  0  0  0  0  0
   11.3094   12.3020   11.3308 H   0  0  0  0  0  0
   11.9932   13.8025   12.0432 H   0  0  0  0  0  0
   16.3303   11.7979   10.0525 H   0  0  0  0  0  0
   12.6617   13.1665    9.9325 H   0  0  0  0  0  0
   12.4822   13.2268   18.1250 H   0  0  0  0  0  0
   12.9999   14.0764   15.8446 H   0  0  0  0  0  0
   13.4640   13.7552   13.6353 H   0  0  0  0  0  0
   14.8234   12.5908   13.4837 H   0  0  0  0  0  0
   12.7636   10.9881   12.6579 H   0  0  0  0  0  0
   14.6028   13.0767   11.3728 H   0  0  0  0  0  0
   16.1950    8.9013   10.8653 H   0  0  0  0  0  0
   18.0783   10.6204    9.1624 H   0  0  0  0  0  0
   18.5977    8.9782    9.6722 H   0  0  0  0  0  0
   16.0743    9.5854    8.0584 H   0  0  0  0  0  0
   15.7945    7.6058    9.3904 H   0  0  0  0  0  0
   17.3389    6.9403    8.7589 H   0  0  0  0  0  0
   15.9610    7.2267    7.6425 H   0  0  0  0  0  0
   18.2871   10.1358    6.9630 H   0  0  0  0  0  0
   17.4552    8.7452    6.1878 H   0  0  0  0  0  0
   18.8331    8.4588    7.3042 H   0  0  0  0  0  0
   13.7673   10.0521   14.5530 H   0  0  0  0  0  0
   13.2126    9.2278   16.8393 H   0  0  0  0  0  0
  1  3  1  0  0  0
  1 25  1  0  0  0
  1 26  1  0  0  0
  1 27  1  0  0  0
  2 14  1  0  0  0
  2 28  1  0  0  0
  2 29  1  0  0  0
  2 30  1  0  0  0
  3  4  1  0  0  0
  4  7  2  0  0  0
  4 24  1  0  0  0
  5 16  1  0  0  0
  5 17  1  0  0  0
  5 31  1  0  0  0
  6 15  1  0  0  0
  6 32  1  0  0  0
  7  9  1  0  0  0
  7 33  1  0  0  0
  8 16  2  0  0  0
  9 11  2  0  0  0
  9 34  1  0  0  0
 10 22  2  0  0  0
 11 13  1  0  0  0
 11 23  1  0  0  0
 12 22  1  0  0  0
 13 14  1  0  0  0
 13 35  1  0  0  0
 13 36  1  0  0  0
 14 15  1  0  0  0
 14 37  1  0  0  0
 15 16  1  0  0  0
 15 38  1  0  0  0
 17 18  1  0  0  0
 17 22  1  0  0  0
 17 39  1  0  0  0
 18 19  1  0  0  0
 18 40  1  0  0  0
 18 41  1  0  0  0
 19 20  1  0  0  0
 19 21  1  0  0  0
 19 42  1  0  0  0
 20 43  1  0  0  0
 20 44  1  0  0  0
 20 45  1  0  0  0
 21 46  1  0  0  0
 21 47  1  0  0  0
 21 48  1  0  0  0
 23 24  2  0  0  0
 23 49  1  0  0  0
 24 50  1  0  0  0
M  CHG  2   2   1  12  -1
M  END
> <s_m_source_file>
../3q43_ligand.sdf

> <i_m_source_file_index>
1

> <s_epik_input>
W0NIM11PYzFbY0hdW2NIXWMoW2NIXVtjSF0xKVtDSDJdW0NAQEhdKFtOSDMrXSlbQ0BIXShbT0hdKUMoPU8pW05IXVtDQEhdKEMoPU8pW09IXSlbQ0gyXVtDSF0oW0NIM10pW0NIM10=

> <s_epik_cmdline>
J2VwaWtfYXBwJywgJy1pbWFlJywgJ2xpZ2FuZF9wcm8ubWFlJywgJy1vbWFlJywgJ2xpZ2FuZF9wcmVwLm1hZScsICctbXMnLCAnMScsICctcGgnLCAnNycsICctcGh0JywgJzAuNScsICctbnQn

> <r_lp_tautomer_probability>
1

> <r_epik_Ionization_Penalty>
  0.0352

> <r_epik_Ionization_Penalty_Charging>
  0.0351

> <r_epik_Ionization_Penalty_Neutral>
  0.0000

> <r_epik_State_Penalty>
  0.0291

> <r_epik_Charging_Adjusted_Penalty>
0.0642799853861943

> <i_epik_Tot_Q>
0

> <i_epik_Tot_abs_Q>
2

$$$$
