3q44_ligand
                    3D
 Schrodinger Suite 2020-3.
 60 61  0  0  1  0            999 V2000
   17.2420    9.0780    7.0360 C   0  0  0  0  0  0
   15.4250   10.7780   10.5820 N   0  0  0  0  0  0
   13.9390    9.6190   11.7240 O   0  0  0  0  0  0
   16.3420    9.0290    8.2410 C   0  0  0  0  0  0
   11.2460   12.7430   11.9840 N   0  3  0  0  0  0
   12.8170   12.1970    9.8930 O   0  0  0  0  0  0
   15.8120    7.6000    8.4500 C   0  0  0  0  0  0
   12.1540   10.1800   18.6040 O   0  0  0  0  0  0
   17.1690    9.5400    9.4170 C   0  0  0  0  0  0
   17.1020   10.7430   12.6490 O   0  0  0  0  0  0
   16.3490    9.6640   10.6690 C   0  0  1  0  0  0
   18.0750    8.8160   12.1410 O   0  5  0  0  0  0
   14.2660   10.6850   11.1690 C   0  0  0  0  0  0
   13.4490   11.9820   11.1860 C   0  0  2  0  0  0
   12.4360   11.9060   12.3170 C   0  0  1  0  0  0
   13.1310   12.5110   13.5140 C   0  0  0  0  0  0
   12.8380   11.8650   14.8410 C   0  0  0  0  0  0
   13.2690   10.5600   15.1310 C   0  0  0  0  0  0
   13.0230   10.0080   16.3840 C   0  0  0  0  0  0
   12.3690   10.7420   17.3480 C   0  0  0  0  0  0
   11.0280   10.4060   19.4460 C   0  0  0  0  0  0
   11.1280    9.4110   20.5780 C   0  0  0  0  0  0
   10.8140    9.7900   21.8870 C   0  0  0  0  0  0
   10.9110    8.8660   22.9270 C   0  0  0  0  0  0
   11.3270    7.5620   22.6600 C   0  0  0  0  0  0
   11.6540    7.1620   21.3580 C   0  0  0  0  0  0
   11.5460    8.1020   20.3210 C   0  0  0  0  0  0
   11.9620   12.0370   17.0600 C   0  0  0  0  0  0
   12.1930   12.6210   15.8070 C   0  0  0  0  0  0
   17.2050    9.7750   11.8940 C   0  0  0  0  0  0
   16.6930    8.7180    6.1534 H   0  0  0  0  0  0
   18.1200    8.4380    7.2079 H   0  0  0  0  0  0
   17.5709   10.1138    6.8659 H   0  0  0  0  0  0
   15.7071   11.6844   10.0263 H   0  0  0  0  0  0
   15.4584    9.6705    8.1081 H   0  0  0  0  0  0
   10.7286   12.3146   11.1130 H   0  0  0  0  0  0
   11.5720   13.7671   11.7497 H   0  0  0  0  0  0
   10.5604   12.7642   12.8439 H   0  0  0  0  0  0
   13.4336   12.2721    8.9851 H   0  0  0  0  0  0
   15.2271    7.2936    7.5702 H   0  0  0  0  0  0
   15.1712    7.5737    9.3437 H   0  0  0  0  0  0
   16.6588    6.9111    8.5855 H   0  0  0  0  0  0
   17.9953    8.8414    9.6152 H   0  0  0  0  0  0
   17.5777   10.5320    9.1743 H   0  0  0  0  0  0
   15.7308    8.7590   10.7627 H   0  0  0  0  0  0
   14.0838   12.8698   11.3232 H   0  0  0  0  0  0
   12.0856   10.8791   12.4976 H   0  0  0  0  0  0
   14.2205   12.4470   13.3764 H   0  0  0  0  0  0
   12.8355   13.5657   13.6152 H   0  0  0  0  0  0
   13.7964    9.9796   14.3740 H   0  0  0  0  0  0
   13.3490    8.9913   16.6033 H   0  0  0  0  0  0
   11.0564   11.4375   19.8272 H   0  0  0  0  0  0
   10.1032   10.2531   18.8704 H   0  0  0  0  0  0
   10.4925   10.8105   22.0950 H   0  0  0  0  0  0
   10.6623    9.1623   23.9460 H   0  0  0  0  0  0
   11.3988    6.8435   23.4765 H   0  0  0  0  0  0
   11.9849    6.1436   21.1546 H   0  0  0  0  0  0
   11.7916    7.8070   19.3008 H   0  0  0  0  0  0
   11.4491   12.6153   17.8285 H   0  0  0  0  0  0
   11.8740   13.6421   15.5980 H   0  0  0  0  0  0
  1  4  1  0  0  0
  1 31  1  0  0  0
  1 32  1  0  0  0
  1 33  1  0  0  0
  2 11  1  0  0  0
  2 13  1  0  0  0
  2 34  1  0  0  0
  3 13  2  0  0  0
  4  7  1  0  0  0
  4  9  1  0  0  0
  4 35  1  0  0  0
  5 15  1  0  0  0
  5 36  1  0  0  0
  5 37  1  0  0  0
  5 38  1  0  0  0
  6 14  1  0  0  0
  6 39  1  0  0  0
  7 40  1  0  0  0
  7 41  1  0  0  0
  7 42  1  0  0  0
  8 20  1  0  0  0
  8 21  1  0  0  0
  9 11  1  0  0  0
  9 43  1  0  0  0
  9 44  1  0  0  0
 10 30  2  0  0  0
 11 30  1  0  0  0
 11 45  1  0  0  0
 12 30  1  0  0  0
 13 14  1  0  0  0
 14 15  1  0  0  0
 14 46  1  0  0  0
 15 16  1  0  0  0
 15 47  1  0  0  0
 16 17  1  0  0  0
 16 48  1  0  0  0
 16 49  1  0  0  0
 17 18  2  0  0  0
 17 29  1  0  0  0
 18 19  1  0  0  0
 18 50  1  0  0  0
 19 20  2  0  0  0
 19 51  1  0  0  0
 20 28  1  0  0  0
 21 22  1  0  0  0
 21 52  1  0  0  0
 21 53  1  0  0  0
 22 23  2  0  0  0
 22 27  1  0  0  0
 23 24  1  0  0  0
 23 54  1  0  0  0
 24 25  2  0  0  0
 24 55  1  0  0  0
 25 26  1  0  0  0
 25 56  1  0  0  0
 26 27  2  0  0  0
 26 57  1  0  0  0
 27 58  1  0  0  0
 28 29  2  0  0  0
 28 59  1  0  0  0
 29 60  1  0  0  0
M  CHG  2   5   1  12  -1
M  END
> <s_m_source_file>
../3q44_ligand.sdf

> <i_m_source_file_index>
1

> <s_epik_input>
W0NIM11bQ0hdKFtDSDNdKVtDSDJdW0NAQEhdKEMoPU8pW09IXSlbTkhdQyg9TylbQ0BASF0oW09IXSlbQ0BIXShbTkgzK10pW0NIMl1jMVtjSF1bY0hdYyhbY0hdW2NIXTEpT1tDSDJdYzJbY0hdW2NIXVtjSF1bY0hdW2NIXTI=

> <s_epik_cmdline>
J2VwaWtfYXBwJywgJy1pbWFlJywgJ2xpZ2FuZF9wcm8ubWFlJywgJy1vbWFlJywgJ2xpZ2FuZF9wcmVwLm1hZScsICctbXMnLCAnMScsICctcGgnLCAnNycsICctcGh0JywgJzAuNScsICctbnQn

> <r_lp_tautomer_probability>
1

> <r_epik_Ionization_Penalty>
  0.0352

> <r_epik_Ionization_Penalty_Charging>
  0.0351

> <r_epik_Ionization_Penalty_Neutral>
  0.0000

> <r_epik_State_Penalty>
  0.0291

> <r_epik_Charging_Adjusted_Penalty>
0.0642799853861943

> <i_epik_Tot_Q>
0

> <i_epik_Tot_abs_Q>
2

$$$$
