3q4b_ligand
                    3D
 Schrodinger Suite 2020-3.
 78 80  0  0  1  0            999 V2000
   25.3160   -9.1970   -6.3710 C   0  0  0  0  0  0
   25.5350   -8.0720   -7.2880 N   0  3  0  0  0  0
   25.4310  -11.2350  -11.1690 O   0  0  0  0  0  0
   26.2920   -8.4090   -8.5250 C   0  0  2  0  0  0
   26.0060   -9.1650  -10.8360 N   0  0  0  0  0  0
   29.2030   -7.1570  -13.4380 O   0  0  0  0  0  0
   25.5220   -9.3270   -9.4650 C   0  0  0  0  0  0
   26.3380  -10.1480  -12.9240 N   0  0  0  0  0  0
   27.8540   -2.6940  -13.6150 O   0  0  0  0  0  0
   25.9080  -10.2030  -11.6500 C   0  0  0  0  0  0
   27.8940   -4.7900  -12.5890 N   0  0  0  0  0  0
   25.8550   -3.6220  -12.8980 O   0  0  0  0  0  0
   26.9440   -8.9620  -13.5810 C   0  0  0  0  0  0
   28.4120   -9.3260  -13.8840 C   0  0  1  0  0  0
   28.4600  -10.5760  -14.8020 C   0  0  0  0  0  0
   27.6300  -11.7620  -14.2580 C   0  0  0  0  0  0
   26.2140  -11.3350  -13.7920 C   0  0  0  0  0  0
   29.1870   -8.1430  -14.4660 C   0  0  2  0  0  0
   27.6450   -8.9850   -8.1350 C   0  0  0  0  0  0
   28.7560   -8.7410   -9.1500 C   0  0  2  0  0  0
   29.8010   -9.8440   -8.9650 C   0  0  0  0  0  0
   30.8880   -9.6470   -9.8890 O   0  0  0  0  0  0
   31.6330   -8.4820   -9.5280 C   0  0  0  0  0  0
   30.7260   -7.2610   -9.6420 C   0  0  0  0  0  0
   29.4490   -7.4190   -8.8580 C   0  0  0  0  0  0
   29.5600   -5.8650  -13.9650 C   0  0  0  0  0  0
   29.3540   -4.8960  -12.7960 C   0  0  0  0  0  0
   27.2840   -3.6700  -13.0510 C   0  0  0  0  0  0
   30.6190   -8.4440  -14.7940 C   0  0  0  0  0  0
   31.5410   -8.7370  -13.7920 C   0  0  0  0  0  0
   32.8580   -9.0120  -14.1170 C   0  0  0  0  0  0
   33.3250   -8.9860  -15.4220 C   0  0  0  0  0  0
   32.3940   -8.6870  -16.4120 C   0  0  0  0  0  0
   31.0580   -8.4410  -16.1090 C   0  0  0  0  0  0
   25.1110   -2.6210  -13.6230 C   0  0  0  0  0  0
   33.9910   -9.4230  -12.8060 Cl  0  0  0  0  0  0
   24.7518   -8.8498   -5.4929 H   0  0  0  0  0  0
   26.2868   -9.6003   -6.0471 H   0  0  0  0  0  0
   24.7454   -9.9839   -6.8859 H   0  0  0  0  0  0
   24.5642   -7.6687   -7.6119 H   0  0  0  0  0  0
   26.1056   -7.2850   -6.7732 H   0  0  0  0  0  0
   26.4331   -7.4710   -9.0820 H   0  0  0  0  0  0
   26.4334   -8.2041  -11.1585 H   0  0  0  0  0  0
   25.6635  -10.3725   -9.1539 H   0  0  0  0  0  0
   24.4518   -9.0752   -9.4283 H   0  0  0  0  0  0
   27.3506   -5.5992  -12.0792 H   0  0  0  0  0  0
   26.3969   -8.7371  -14.5084 H   0  0  0  0  0  0
   26.8868   -8.0979  -12.9028 H   0  0  0  0  0  0
   28.9218   -9.5607  -12.9379 H   0  0  0  0  0  0
   28.0608  -10.3179  -15.7940 H   0  0  0  0  0  0
   29.5009  -10.9170  -14.9030 H   0  0  0  0  0  0
   27.5117  -12.5192  -15.0471 H   0  0  0  0  0  0
   28.1487  -12.2080  -13.3966 H   0  0  0  0  0  0
   25.7440  -12.1541  -13.2280 H   0  0  0  0  0  0
   25.5927  -11.0874  -14.6653 H   0  0  0  0  0  0
   28.7035   -7.7852  -15.3870 H   0  0  0  0  0  0
   27.9754   -8.5355   -7.1869 H   0  0  0  0  0  0
   27.5583  -10.0748   -8.0135 H   0  0  0  0  0  0
   28.3299   -8.7240  -10.1640 H   0  0  0  0  0  0
   30.1885   -9.8130   -7.9360 H   0  0  0  0  0  0
   29.3373  -10.8237   -9.1528 H   0  0  0  0  0  0
   31.9927   -8.5828   -8.4934 H   0  0  0  0  0  0
   32.4923   -8.3716  -10.2058 H   0  0  0  0  0  0
   31.2532   -6.3754   -9.2576 H   0  0  0  0  0  0
   30.4592   -7.0996  -10.6969 H   0  0  0  0  0  0
   28.7796   -6.5876   -9.1238 H   0  0  0  0  0  0
   29.6959   -7.3630   -7.7875 H   0  0  0  0  0  0
   30.6074   -5.8826  -14.3007 H   0  0  0  0  0  0
   28.9063   -5.6227  -14.8159 H   0  0  0  0  0  0
   29.7639   -3.9029  -13.0323 H   0  0  0  0  0  0
   29.8273   -5.2795  -11.8801 H   0  0  0  0  0  0
   31.2245   -8.7498  -12.7490 H   0  0  0  0  0  0
   34.3689   -9.1895  -15.6606 H   0  0  0  0  0  0
   32.7193   -8.6443  -17.4514 H   0  0  0  0  0  0
   30.3497   -8.2440  -16.9138 H   0  0  0  0  0  0
   24.0399   -2.7232  -13.3944 H   0  0  0  0  0  0
   25.2700   -2.7566  -14.7030 H   0  0  0  0  0  0
   25.4558   -1.6200  -13.3244 H   0  0  0  0  0  0
  1  2  1  0  0  0
  1 37  1  0  0  0
  1 38  1  0  0  0
  1 39  1  0  0  0
  2  4  1  0  0  0
  2 40  1  0  0  0
  2 41  1  0  0  0
  3 10  2  0  0  0
  4  7  1  0  0  0
  4 19  1  0  0  0
  4 42  1  0  0  0
  5  7  1  0  0  0
  5 10  1  0  0  0
  5 43  1  0  0  0
  6 18  1  0  0  0
  6 26  1  0  0  0
  7 44  1  0  0  0
  7 45  1  0  0  0
  8 10  1  0  0  0
  8 13  1  0  0  0
  8 17  1  0  0  0
  9 28  2  0  0  0
 11 27  1  0  0  0
 11 28  1  0  0  0
 11 46  1  0  0  0
 12 28  1  0  0  0
 12 35  1  0  0  0
 13 14  1  0  0  0
 13 47  1  0  0  0
 13 48  1  0  0  0
 14 15  1  0  0  0
 14 18  1  0  0  0
 14 49  1  0  0  0
 15 16  1  0  0  0
 15 50  1  0  0  0
 15 51  1  0  0  0
 16 17  1  0  0  0
 16 52  1  0  0  0
 16 53  1  0  0  0
 17 54  1  0  0  0
 17 55  1  0  0  0
 18 29  1  0  0  0
 18 56  1  0  0  0
 19 20  1  0  0  0
 19 57  1  0  0  0
 19 58  1  0  0  0
 20 21  1  0  0  0
 20 25  1  0  0  0
 20 59  1  0  0  0
 21 22  1  0  0  0
 21 60  1  0  0  0
 21 61  1  0  0  0
 22 23  1  0  0  0
 23 24  1  0  0  0
 23 62  1  0  0  0
 23 63  1  0  0  0
 24 25  1  0  0  0
 24 64  1  0  0  0
 24 65  1  0  0  0
 25 66  1  0  0  0
 25 67  1  0  0  0
 26 27  1  0  0  0
 26 68  1  0  0  0
 26 69  1  0  0  0
 27 70  1  0  0  0
 27 71  1  0  0  0
 29 30  2  0  0  0
 29 34  1  0  0  0
 30 31  1  0  0  0
 30 72  1  0  0  0
 31 32  2  0  0  0
 31 36  1  0  0  0
 32 33  1  0  0  0
 32 73  1  0  0  0
 33 34  2  0  0  0
 33 74  1  0  0  0
 34 75  1  0  0  0
 35 76  1  0  0  0
 35 77  1  0  0  0
 35 78  1  0  0  0
M  CHG  1   2   1
M  END
> <s_m_source_file>
../3q4b_ligand.sdf

> <i_m_source_file_index>
1

> <s_epik_input>
W0NIMl0xW0NIMl1bQ0gyXU9bQ0gyXVtDQEhdMVtDSDJdW0NASF0oW05IMitdW0NIM10pW0NIMl1bTkhdQyg9TylOMltDSDJdW0NAQEhdKFtDSDJdW0NIMl1bQ0gyXTIpW0NASF0oYzNbY0hdYyhDbClbY0hdW2NIXVtjSF0zKU9bQ0gyXVtDSDJdW05IXUMoPU8pT1tDSDNd

> <s_epik_cmdline>
J2VwaWtfYXBwJywgJy1pbWFlJywgJ2xpZ2FuZF9wcm8ubWFlJywgJy1vbWFlJywgJ2xpZ2FuZF9wcmVwLm1hZScsICctbXMnLCAnMScsICctcGgnLCAnNycsICctcGh0JywgJzAuNScsICctbnQn

> <r_lp_tautomer_probability>
1

> <r_epik_Ionization_Penalty>
  0.0008

> <r_epik_Ionization_Penalty_Charging>
  0.0008

> <r_epik_Ionization_Penalty_Neutral>
  0.0000

> <r_epik_State_Penalty>
 -0.0000

> <r_epik_Charging_Adjusted_Penalty>
0.000792395200182744

> <i_epik_Tot_Q>
1

> <i_epik_Tot_abs_Q>
1

> <s_epik_Chemistry_Notes>
This compound has an ester and may undergo hydrolysis at high or low pH.

$$$$
