3q4c_ligand
                    3D
 Schrodinger Suite 2020-3.
 44 54  0  0  1  0            999 V2000
  -20.3540   12.1760   -0.1010 O   0  0  0  0  0  0
  -13.0590    9.8510   -1.6000 Cl  0  0  0  0  0  0
  -16.0220   10.9670    0.3480 C   0  0  0  0  0  0
  -14.9000   11.7210    0.0210 N   0  0  0  0  0  0
  -20.0580    7.9660    1.6330 O   0  0  0  0  0  0
  -15.4080   12.9740   -0.4950 C   0  0  0  0  0  0
  -10.1500    8.3500    1.2960 O   0  0  0  0  0  0
  -14.7250   14.1570   -1.0000 C   0  0  0  0  0  0
   -9.3480    9.8100   -0.1180 O   0  5  0  0  0  0
  -15.5360   15.2670   -1.4510 C   0  0  0  0  0  0
  -16.9780   15.2100   -1.4040 C   0  0  0  0  0  0
  -17.6640   14.0290   -0.9010 C   0  0  0  0  0  0
  -16.8710   12.9070   -0.4460 C   0  0  0  0  0  0
  -17.2590   11.6310    0.0880 C   0  0  0  0  0  0
  -18.4620   10.8120    0.4410 C   0  0  0  0  0  0
  -19.8440   11.0860    0.3430 C   0  0  0  0  0  0
  -20.5970   10.0450    0.7810 N   0  0  0  0  0  0
  -19.6970    9.1040    1.1600 C   0  0  0  0  0  0
  -18.3540    9.4820    0.9880 C   0  0  0  0  0  0
  -17.0410    8.8480    1.2360 C   0  0  0  0  0  0
  -16.7520    7.5300    1.7760 C   0  0  0  0  0  0
  -15.3760    7.0940    1.9370 C   0  0  0  0  0  0
  -14.2660    7.9450    1.5710 C   0  0  0  0  0  0
  -14.5260    9.2510    1.0420 N   0  0  0  0  0  0
  -15.8590    9.6570    0.8880 C   0  0  0  0  0  0
  -15.0940    5.7310    2.4940 C   0  0  0  0  0  0
  -11.3770   10.3930    1.2350 C   0  0  0  0  0  0
  -11.4920   11.6880    0.6580 C   0  0  0  0  0  0
  -12.5130   12.5520    1.0420 C   0  0  0  0  0  0
  -13.4610   12.1470    2.0160 C   0  0  0  0  0  0
  -13.3600   10.8920    2.6070 C   0  0  0  0  0  0
  -12.3290   10.0060    2.2170 C   0  0  0  0  0  0
  -10.2680    9.4700    0.8090 C   0  0  0  0  0  0
  -13.3560   10.6710    0.4310 Ru  0  0  0  0  0  0
  -13.6367   14.2047   -1.0370 H   0  0  0  0  0  0
  -15.0489   16.1638   -1.8337 H   0  0  0  0  0  0
  -17.5610   16.0635   -1.7501 H   0  0  0  0  0  0
  -18.7528   13.9903   -0.8676 H   0  0  0  0  0  0
  -21.6947   10.1147    0.7640 H   0  0  0  0  0  0
  -17.5777    6.8623    2.0630 H   0  0  0  0  0  0
  -13.2409    7.5963    1.6963 H   0  0  0  0  0  0
  -16.0435    5.2223    2.7168 H   0  0  0  0  0  0
  -14.5040    5.8271    3.4174 H   0  0  0  0  0  0
  -14.5276    5.1435    1.7564 H   0  0  0  0  0  0
  1 16  2  0  0  0
  2 34  1  0  0  0
  3  4  1  0  0  0
  3 14  2  0  0  0
  3 25  1  0  0  0
  4  6  1  0  0  0
  4 34  1  0  0  0
  5 18  2  0  0  0
  6  8  2  0  0  0
  6 13  1  0  0  0
  7 33  2  0  0  0
  8 10  1  0  0  0
  8 35  1  0  0  0
  9 33  1  0  0  0
 10 11  2  0  0  0
 10 36  1  0  0  0
 11 12  1  0  0  0
 11 37  1  0  0  0
 12 13  2  0  0  0
 12 38  1  0  0  0
 13 14  1  0  0  0
 14 15  1  0  0  0
 15 16  1  0  0  0
 15 19  2  0  0  0
 16 17  1  0  0  0
 17 18  1  0  0  0
 17 39  1  0  0  0
 18 19  1  0  0  0
 19 20  1  0  0  0
 20 21  1  0  0  0
 20 25  2  0  0  0
 21 22  2  0  0  0
 21 40  1  0  0  0
 22 23  1  0  0  0
 22 26  1  0  0  0
 23 24  1  0  0  0
 23 41  1  0  0  0
 24 25  1  0  0  0
 24 34  1  0  0  0
 26 42  1  0  0  0
 26 43  1  0  0  0
 26 44  1  0  0  0
 27 28  2  0  0  0
 27 32  1  0  0  0
 27 33  1  0  0  0
 28 29  1  0  0  0
 28 34  1  0  0  0
 29 30  2  0  0  0
 29 34  1  0  0  0
 30 31  1  0  0  0
 30 34  1  0  0  0
 31 32  2  0  0  0
 31 34  1  0  0  0
 32 34  1  0  0  0
M  CHG  1   9  -1
M  END
> <s_m_source_file>
../3q4c_ligand.sdf

> <i_m_source_file_index>
1

> <s_epik_input>
W0NIXTE9QyhbQ0gzXSlbQ0gyXU4yYzNjMWMoQyg9TylbTkhdQzQ9TyljNGMoYzVjNltjSF1bY0hdW2NIXVtjSF01KWMzbjZbUnVdMTI3ODkoQ2wpQzJDNz1DOEM5PUMxQz0yQyg9TylbT0hd

> <s_epik_cmdline>
J2VwaWtfYXBwJywgJy1pbWFlJywgJ2xpZ2FuZF9wcm8ubWFlJywgJy1vbWFlJywgJ2xpZ2FuZF9wcmVwLm1hZScsICctbXMnLCAnMScsICctcGgnLCAnNycsICctcGh0JywgJzAuNScsICctbnQn

> <r_lp_tautomer_probability>
1

> <r_epik_Ionization_Penalty>
  0.0018

> <r_epik_Ionization_Penalty_Charging>
  0.0000

> <r_epik_Ionization_Penalty_Neutral>
  0.0018

> <r_epik_State_Penalty>
 -0.0000

> <r_epik_Charging_Adjusted_Penalty>
8.66642721431599e-10

> <i_epik_Tot_Q>
-1

> <i_epik_Tot_abs_Q>
1

$$$$
