3q4j_ligand
                    3D
 Schrodinger Suite 2020-3.
 94 94  0  0  1  0            999 V2000
   27.1780   49.6790   67.4180 C   0  0  0  0  0  0
   26.6190   48.8100   68.1080 O   0  0  0  0  0  0
   28.1850   50.6380   68.0250 C   0  0  0  0  0  0
   26.9200   49.8710   66.1040 N   0  0  0  0  0  0
   25.9590   49.1140   65.3140 C   0  0  2  0  0  0
   26.2190   47.6110   65.2690 C   0  0  0  0  0  0
   27.2240   47.1570   64.7220 O   0  0  0  0  0  0
   25.7420   49.7260   63.9080 C   0  0  0  0  0  0
   24.5930   49.0880   63.0860 C   0  0  0  0  0  0
   23.2240   49.0570   63.7610 C   0  0  0  0  0  0
   22.6090   48.0050   63.9270 O   0  0  0  0  0  0
   22.7100   50.1950   64.1700 N   0  0  0  0  0  0
   25.2800   46.8390   65.8460 N   0  0  0  0  0  0
   25.3450   45.3760   65.8500 C   0  0  2  0  0  0
   24.7600   44.8160   64.5350 C   0  0  0  0  0  0
   23.9810   45.4930   63.8450 O   0  0  0  0  0  0
   24.6510   44.7670   67.1010 C   0  0  0  0  0  0
   25.2030   45.1880   68.4770 C   0  0  0  0  0  0
   24.1350   45.0690   69.5710 C   0  0  0  0  0  0
   26.4460   44.4100   68.8260 C   0  0  0  0  0  0
   25.1640   43.5940   64.1820 N   0  0  0  0  0  0
   24.6990   42.9610   62.9530 C   0  0  2  0  0  0
   23.6650   41.8710   63.2040 C   0  0  0  0  0  0
   23.7300   41.1920   64.2390 O   0  0  0  0  0  0
   25.8910   42.4410   62.1440 C   0  0  0  0  0  0
   26.5490   43.5130   61.2990 C   0  0  0  0  0  0
   27.2030   44.4100   61.8830 O   0  0  0  0  0  0
   26.3860   43.4720   60.0500 O   0  5  0  0  0  0
   22.6960   41.7180   62.2640 N   0  0  0  0  0  0
   21.6510   40.6810   62.3320 C   0  0  2  0  0  0
   22.2330   39.2920   62.0870 C   0  0  0  0  0  0
   21.6930   38.3120   62.5900 O   0  0  0  0  0  0
   20.5430   40.9210   61.2930 C   0  0  0  0  0  0
   19.5180   41.9850   61.5760 C   0  0  0  0  0  0
   18.6070   42.1230   60.4100 C   0  0  0  0  0  0
   18.7340   41.6990   62.8480 C   0  0  0  0  0  0
   23.2910   39.2180   61.2610 N   0  0  0  0  0  0
   23.9930   38.0050   60.8400 C   0  0  2  0  0  0
   25.4020   38.3620   60.3080 C   0  0  0  0  0  0
   25.6360   39.5490   59.9690 O   0  5  0  0  0  0
   23.1660   37.2470   59.7680 C   0  0  0  0  0  0
   22.6560   38.1220   58.6500 C   0  0  0  0  0  0
   23.4500   38.3990   57.5440 C   0  0  0  0  0  0
   21.3880   38.6910   58.7140 C   0  0  0  0  0  0
   22.9960   39.2540   56.5370 C   0  0  0  0  0  0
   20.9410   39.5540   57.7170 C   0  0  0  0  0  0
   21.7430   39.8230   56.6300 C   0  0  0  0  0  0
   26.2610   37.4540   60.2120 O   0  0  0  0  0  0
   28.3233   50.3989   69.0898 H   0  0  0  0  0  0
   27.8152   51.6692   67.9258 H   0  0  0  0  0  0
   29.1465   50.5411   67.4995 H   0  0  0  0  0  0
   27.5066   50.6744   65.6345 H   0  0  0  0  0  0
   25.0459   49.2359   65.9152 H   0  0  0  0  0  0
   25.5029   50.7952   64.0064 H   0  0  0  0  0  0
   26.6588   49.6087   63.3116 H   0  0  0  0  0  0
   24.4584   49.6474   62.1485 H   0  0  0  0  0  0
   24.8437   48.0419   62.8560 H   0  0  0  0  0  0
   23.2631   51.1339   64.0197 H   0  0  0  0  0  0
   21.7266   50.2088   64.6627 H   0  0  0  0  0  0
   24.4364   47.3534   66.3294 H   0  0  0  0  0  0
   26.4183   45.1412   65.9043 H   0  0  0  0  0  0
   23.5889   45.0531   67.1067 H   0  0  0  0  0  0
   24.7353   43.6707   67.0698 H   0  0  0  0  0  0
   25.5052   46.2443   68.4233 H   0  0  0  0  0  0
   23.2463   45.6485   69.2804 H   0  0  0  0  0  0
   24.5348   45.4609   70.5179 H   0  0  0  0  0  0
   23.8579   44.0123   69.6994 H   0  0  0  0  0  0
   27.1859   44.5199   68.0195 H   0  0  0  0  0  0
   26.1911   43.3468   68.9474 H   0  0  0  0  0  0
   26.8680   44.7955   69.7658 H   0  0  0  0  0  0
   25.8646   43.0629   64.8432 H   0  0  0  0  0  0
   24.1872   43.7636   62.4018 H   0  0  0  0  0  0
   26.6534   42.0424   62.8294 H   0  0  0  0  0  0
   25.5540   41.6428   61.4663 H   0  0  0  0  0  0
   22.7189   42.4212   61.4184 H   0  0  0  0  0  0
   21.2580   40.7658   63.3559 H   0  0  0  0  0  0
   20.9964   41.2132   60.3343 H   0  0  0  0  0  0
   19.9614   39.9973   61.1571 H   0  0  0  0  0  0
   20.0459   42.9399   61.7155 H   0  0  0  0  0  0
   19.1979   42.3289   59.5054 H   0  0  0  0  0  0
   17.9072   42.9529   60.5877 H   0  0  0  0  0  0
   18.0416   41.1893   60.2740 H   0  0  0  0  0  0
   19.4304   41.6016   63.6939 H   0  0  0  0  0  0
   18.1695   40.7625   62.7280 H   0  0  0  0  0  0
   18.0352   42.5261   63.0418 H   0  0  0  0  0  0
   23.6216   40.2005   60.8931 H   0  0  0  0  0  0
   24.0847   37.3847   61.7438 H   0  0  0  0  0  0
   23.7896   36.4659   59.3085 H   0  0  0  0  0  0
   22.2882   36.7837   60.2421 H   0  0  0  0  0  0
   24.4373   37.9445   57.4613 H   0  0  0  0  0  0
   20.7359   38.4581   59.5558 H   0  0  0  0  0  0
   23.6314   39.4713   55.6784 H   0  0  0  0  0  0
   19.9571   40.0164   57.7966 H   0  0  0  0  0  0
   21.3869   40.4866   55.8420 H   0  0  0  0  0  0
  1  2  2  0  0  0
  1  3  1  0  0  0
  1  4  1  0  0  0
  3 49  1  0  0  0
  3 50  1  0  0  0
  3 51  1  0  0  0
  4  5  1  0  0  0
  4 52  1  0  0  0
  5  6  1  0  0  0
  5  8  1  0  0  0
  5 53  1  0  0  0
  6  7  2  0  0  0
  6 13  1  0  0  0
  8  9  1  0  0  0
  8 54  1  0  0  0
  8 55  1  0  0  0
  9 10  1  0  0  0
  9 56  1  0  0  0
  9 57  1  0  0  0
 10 11  2  0  0  0
 10 12  1  0  0  0
 12 58  1  0  0  0
 12 59  1  0  0  0
 13 14  1  0  0  0
 13 60  1  0  0  0
 14 15  1  0  0  0
 14 17  1  0  0  0
 14 61  1  0  0  0
 15 16  2  0  0  0
 15 21  1  0  0  0
 17 18  1  0  0  0
 17 62  1  0  0  0
 17 63  1  0  0  0
 18 19  1  0  0  0
 18 20  1  0  0  0
 18 64  1  0  0  0
 19 65  1  0  0  0
 19 66  1  0  0  0
 19 67  1  0  0  0
 20 68  1  0  0  0
 20 69  1  0  0  0
 20 70  1  0  0  0
 21 22  1  0  0  0
 21 71  1  0  0  0
 22 23  1  0  0  0
 22 25  1  0  0  0
 22 72  1  0  0  0
 23 24  2  0  0  0
 23 29  1  0  0  0
 25 26  1  0  0  0
 25 73  1  0  0  0
 25 74  1  0  0  0
 26 27  2  0  0  0
 26 28  1  0  0  0
 29 30  1  0  0  0
 29 75  1  0  0  0
 30 31  1  0  0  0
 30 33  1  0  0  0
 30 76  1  0  0  0
 31 32  2  0  0  0
 31 37  1  0  0  0
 33 34  1  0  0  0
 33 77  1  0  0  0
 33 78  1  0  0  0
 34 35  1  0  0  0
 34 36  1  0  0  0
 34 79  1  0  0  0
 35 80  1  0  0  0
 35 81  1  0  0  0
 35 82  1  0  0  0
 36 83  1  0  0  0
 36 84  1  0  0  0
 36 85  1  0  0  0
 37 38  1  0  0  0
 37 86  1  0  0  0
 38 39  1  0  0  0
 38 41  1  0  0  0
 38 87  1  0  0  0
 39 40  1  0  0  0
 39 48  2  0  0  0
 41 42  1  0  0  0
 41 88  1  0  0  0
 41 89  1  0  0  0
 42 43  2  0  0  0
 42 44  1  0  0  0
 43 45  1  0  0  0
 43 90  1  0  0  0
 44 46  2  0  0  0
 44 91  1  0  0  0
 45 47  2  0  0  0
 45 92  1  0  0  0
 46 47  1  0  0  0
 46 93  1  0  0  0
 47 94  1  0  0  0
M  CHG  2  28  -1  40  -1
M  END
> <s_m_source_file>
../3q4j_ligand.sdf

> <i_m_source_file_index>
1

> <s_epik_input>
Tz1DKFtOSDJdKVtDSDJdW0NIMl1bQ0BIXShbTkhdQyg9TylbQ0gzXSlDKD1PKVtOSF1bQ0BASF0oW0NIMl1bQ0hdKFtDSDNdKVtDSDNdKUMoPU8pW05IXVtDQEBIXShbQ0gyXUMoPU8pW09IXSlDKD1PKVtOSF1bQ0BASF0oW0NIMl1bQ0hdKFtDSDNdKVtDSDNdKUMoPU8pW05IXVtDQEhdKEMoPU8pW09IXSlbQ0gyXWMxW2NIXVtjSF1bY0hdW2NIXVtjSF0x

> <s_epik_cmdline>
J2VwaWtfYXBwJywgJy1pbWFlJywgJ2xpZ2FuZF9wcm8ubWFlJywgJy1vbWFlJywgJ2xpZ2FuZF9wcmVwLm1hZScsICctbXMnLCAnMScsICctcGgnLCAnNycsICctcGh0JywgJzAuNScsICctbnQn

> <r_lp_tautomer_probability>
1

> <r_epik_Ionization_Penalty>
  0.0039

> <r_epik_Ionization_Penalty_Charging>
  0.0039

> <r_epik_Ionization_Penalty_Neutral>
  0.0000

> <r_epik_State_Penalty>
 -0.0000

> <r_epik_Charging_Adjusted_Penalty>
0.00391124392582218

> <i_epik_Tot_Q>
-2

> <i_epik_Tot_abs_Q>
2

$$$$
