3q4k_ligand
                    3D
 Schrodinger Suite 2020-3.
101102  0  0  1  0            999 V2000
  -14.6280    0.7040   29.5910 C   0  0  0  0  0  0
  -14.2210    1.1360   30.6670 O   0  0  0  0  0  0
  -15.6120   -0.4540   29.5240 C   0  0  0  0  0  0
  -14.2920    1.4010   28.3590 N   0  0  0  0  0  0
  -13.4240    2.6990   28.4120 C   0  0  2  0  0  0
  -13.7780    3.7900   29.5590 C   0  0  0  0  0  0
  -14.8300    4.4420   29.4880 O   0  0  0  0  0  0
  -13.1420    3.3980   26.9930 C   0  0  0  0  0  0
  -11.8620    4.2520   26.9860 C   0  0  0  0  0  0
  -10.6090    3.4910   27.3500 C   0  0  0  0  0  0
  -10.4260    2.4110   26.8090 O   0  0  0  0  0  0
   -9.7920    3.8930   28.4630 N   0  0  0  0  0  0
  -12.6870    4.1470   30.4880 N   0  0  0  0  0  0
  -12.5140    5.5080   30.9640 C   0  0  2  0  0  0
  -11.6360    6.3000   29.9950 C   0  0  0  0  0  0
  -10.8440    5.7190   29.2630 O   0  0  0  0  0  0
  -11.8260    5.5160   32.3740 C   0  0  0  0  0  0
  -12.4620    4.8000   33.6320 C   0  0  0  0  0  0
  -13.8920    4.4310   33.3980 C   0  0  0  0  0  0
  -14.4870    3.7990   34.6180 C   0  0  0  0  0  0
  -13.6650    2.7300   35.2760 C   0  0  0  0  0  0
  -12.1760    2.8540   35.2080 C   0  0  0  0  0  0
  -11.6110    3.6590   34.0760 C   0  0  0  0  0  0
  -11.9840    7.6290   29.4880 N   0  0  0  0  0  0
  -12.5500    8.8300   30.3010 C   0  0  2  0  0  0
  -11.4740    9.7290   31.1200 C   0  0  0  0  0  0
  -11.3770    9.6970   32.3470 O   0  0  0  0  0  0
  -14.0290    8.5460   30.9090 C   0  0  0  0  0  0
  -15.0120    8.7270   29.7520 C   0  0  0  0  0  0
  -16.1820    8.1140   29.7650 O   0  0  0  0  0  0
  -14.4180    9.2870   28.6680 O   0  5  0  0  0  0
  -10.5600   10.5390   30.2690 N   0  0  0  0  0  0
   -9.6240   11.5710   30.7690 C   0  0  2  0  0  0
  -10.2690   12.9140   31.0930 C   0  0  0  0  0  0
   -9.7030   13.6710   31.8820 O   0  0  0  0  0  0
   -8.4650   11.7900   29.7540 C   0  0  0  0  0  0
   -7.4890   10.6630   29.5420 C   0  0  0  0  0  0
   -6.7480   10.7530   28.2420 C   0  0  0  0  0  0
   -6.6370   10.3430   30.7520 C   0  0  0  0  0  0
  -11.5140   13.3520   30.3990 N   0  0  0  0  0  0
  -12.0850   14.7350   30.6220 C   0  0  2  0  0  0
  -13.5940   14.7310   30.7560 C   0  0  0  0  0  0
  -14.2000   15.4400   31.8100 O   0  0  0  0  0  0
  -14.3620   13.9820   29.8280 O   0  5  0  0  0  0
  -11.6400   15.8170   29.6120 C   0  0  0  0  0  0
  -10.1850   15.7110   29.1350 C   0  0  0  0  0  0
   -9.9090   15.2100   27.8630 C   0  0  0  0  0  0
   -9.1610   16.0820   29.9950 C   0  0  0  0  0  0
   -8.5920   15.0880   27.4550 C   0  0  0  0  0  0
   -7.8420   15.9600   29.5930 C   0  0  0  0  0  0
   -7.5720   15.4590   28.3240 C   0  0  0  0  0  0
   -5.9310   15.2880   27.8290 Cl  0  0  0  0  0  0
  -15.7577   -0.8701   30.5318 H   0  0  0  0  0  0
  -15.2146   -1.2348   28.8589 H   0  0  0  0  0  0
  -16.5752   -0.0945   29.1329 H   0  0  0  0  0  0
  -14.6475    1.0162   27.3918 H   0  0  0  0  0  0
  -12.4922    2.2113   28.7342 H   0  0  0  0  0  0
  -13.0312    2.6245   26.2188 H   0  0  0  0  0  0
  -13.9841    4.0570   26.7350 H   0  0  0  0  0  0
  -11.7055    4.6699   25.9806 H   0  0  0  0  0  0
  -11.9643    5.0720   27.7120 H   0  0  0  0  0  0
   -9.9613    4.8666   28.9462 H   0  0  0  0  0  0
   -8.9978    3.2269   28.8312 H   0  0  0  0  0  0
  -11.9973    3.3566   30.8192 H   0  0  0  0  0  0
  -13.5341    5.9188   30.9896 H   0  0  0  0  0  0
  -10.8361    5.0418   32.3017 H   0  0  0  0  0  0
  -11.7109    6.5538   32.7200 H   0  0  0  0  0  0
  -12.5096    5.4637   34.5080 H   0  0  0  0  0  0
  -14.4682    5.3349   33.1512 H   0  0  0  0  0  0
  -13.9546    3.7170   32.5635 H   0  0  0  0  0  0
  -14.6546    4.5692   35.3852 H   0  0  0  0  0  0
  -15.4457    3.3275   34.3562 H   0  0  0  0  0  0
  -13.9020    2.6940   36.3496 H   0  0  0  0  0  0
  -13.8939    1.7568   34.8171 H   0  0  0  0  0  0
  -11.8058    3.3341   36.1258 H   0  0  0  0  0  0
  -11.7288    1.8537   35.1115 H   0  0  0  0  0  0
  -11.4628    2.9637   33.2366 H   0  0  0  0  0  0
  -10.6356    4.0389   34.4140 H   0  0  0  0  0  0
  -11.8049    7.7318   28.4076 H   0  0  0  0  0  0
  -12.7575    9.5758   29.5195 H   0  0  0  0  0  0
  -14.0716    7.5210   31.3060 H   0  0  0  0  0  0
  -14.2364    9.2616   31.7183 H   0  0  0  0  0  0
  -10.6159   10.3227   29.1919 H   0  0  0  0  0  0
   -9.2852   11.1455   31.7251 H   0  0  0  0  0  0
   -8.8839   11.9965   28.7581 H   0  0  0  0  0  0
   -7.8506   12.6432   30.0774 H   0  0  0  0  0  0
   -8.1085    9.7623   29.4195 H   0  0  0  0  0  0
   -7.4548   10.9880   27.4326 H   0  0  0  0  0  0
   -6.2572    9.7912   28.0324 H   0  0  0  0  0  0
   -5.9883   11.5458   28.3071 H   0  0  0  0  0  0
   -7.2738   10.3003   31.6479 H   0  0  0  0  0  0
   -5.8747   11.1255   30.8809 H   0  0  0  0  0  0
   -6.1435    9.3708   30.6062 H   0  0  0  0  0  0
  -12.0183   12.6523   29.7163 H   0  0  0  0  0  0
  -11.6486   15.0050   31.5949 H   0  0  0  0  0  0
  -12.2686   15.7584   28.7112 H   0  0  0  0  0  0
  -11.7466   16.8117   30.0695 H   0  0  0  0  0  0
  -10.7214   14.9178   27.1976 H   0  0  0  0  0  0
   -9.3952   16.4693   30.9866 H   0  0  0  0  0  0
   -8.3568   14.7048   26.4621 H   0  0  0  0  0  0
   -7.0297   16.2513   30.2589 H   0  0  0  0  0  0
  1  2  2  0  0  0
  1  3  1  0  0  0
  1  4  1  0  0  0
  3 53  1  0  0  0
  3 54  1  0  0  0
  3 55  1  0  0  0
  4  5  1  0  0  0
  4 56  1  0  0  0
  5  6  1  0  0  0
  5  8  1  0  0  0
  5 57  1  0  0  0
  6  7  2  0  0  0
  6 13  1  0  0  0
  8  9  1  0  0  0
  8 58  1  0  0  0
  8 59  1  0  0  0
  9 10  1  0  0  0
  9 60  1  0  0  0
  9 61  1  0  0  0
 10 11  2  0  0  0
 10 12  1  0  0  0
 12 62  1  0  0  0
 12 63  1  0  0  0
 13 14  1  0  0  0
 13 64  1  0  0  0
 14 15  1  0  0  0
 14 17  1  0  0  0
 14 65  1  0  0  0
 15 16  2  0  0  0
 15 24  1  0  0  0
 17 18  1  0  0  0
 17 66  1  0  0  0
 17 67  1  0  0  0
 18 19  1  0  0  0
 18 23  1  0  0  0
 18 68  1  0  0  0
 19 20  1  0  0  0
 19 69  1  0  0  0
 19 70  1  0  0  0
 20 21  1  0  0  0
 20 71  1  0  0  0
 20 72  1  0  0  0
 21 22  1  0  0  0
 21 73  1  0  0  0
 21 74  1  0  0  0
 22 23  1  0  0  0
 22 75  1  0  0  0
 22 76  1  0  0  0
 23 77  1  0  0  0
 23 78  1  0  0  0
 24 25  1  0  0  0
 24 79  1  0  0  0
 25 26  1  0  0  0
 25 28  1  0  0  0
 25 80  1  0  0  0
 26 27  2  0  0  0
 26 32  1  0  0  0
 28 29  1  0  0  0
 28 81  1  0  0  0
 28 82  1  0  0  0
 29 30  2  0  0  0
 29 31  1  0  0  0
 32 33  1  0  0  0
 32 83  1  0  0  0
 33 34  1  0  0  0
 33 36  1  0  0  0
 33 84  1  0  0  0
 34 35  2  0  0  0
 34 40  1  0  0  0
 36 37  1  0  0  0
 36 85  1  0  0  0
 36 86  1  0  0  0
 37 38  1  0  0  0
 37 39  1  0  0  0
 37 87  1  0  0  0
 38 88  1  0  0  0
 38 89  1  0  0  0
 38 90  1  0  0  0
 39 91  1  0  0  0
 39 92  1  0  0  0
 39 93  1  0  0  0
 40 41  1  0  0  0
 40 94  1  0  0  0
 41 42  1  0  0  0
 41 45  1  0  0  0
 41 95  1  0  0  0
 42 43  2  0  0  0
 42 44  1  0  0  0
 45 46  1  0  0  0
 45 96  1  0  0  0
 45 97  1  0  0  0
 46 47  2  0  0  0
 46 48  1  0  0  0
 47 49  1  0  0  0
 47 98  1  0  0  0
 48 50  2  0  0  0
 48 99  1  0  0  0
 49 51  2  0  0  0
 49100  1  0  0  0
 50 51  1  0  0  0
 50101  1  0  0  0
 51 52  1  0  0  0
M  CHG  2  31  -1  44  -1
M  END
> <s_m_source_file>
../3q4k_ligand.sdf

> <i_m_source_file_index>
1

> <s_epik_input>
Tz1DKFtOSDJdKVtDSDJdW0NIMl1bQ0BIXShbTkhdQyg9TylbQ0gzXSlDKD1PKVtOSF1bQ0BASF0oW0NIMl1bQ0hdMVtDSDJdW0NIMl1bQ0gyXVtDSDJdW0NIMl0xKUMoPU8pW05IXVtDQEBIXShbQ0gyXUMoPU8pW09IXSlDKD1PKVtOSF1bQ0BASF0oW0NIMl1bQ0hdKFtDSDNdKVtDSDNdKUMoPU8pW05IXVtDQEhdKEMoPU8pW09IXSlbQ0gyXWMyW2NIXVtjSF1jKENsKVtjSF1bY0hdMg==

> <s_epik_cmdline>
J2VwaWtfYXBwJywgJy1pbWFlJywgJ2xpZ2FuZF9wcm8ubWFlJywgJy1vbWFlJywgJ2xpZ2FuZF9wcmVwLm1hZScsICctbXMnLCAnMScsICctcGgnLCAnNycsICctcGh0JywgJzAuNScsICctbnQn

> <r_lp_tautomer_probability>
1

> <r_epik_Ionization_Penalty>
  0.0039

> <r_epik_Ionization_Penalty_Charging>
  0.0039

> <r_epik_Ionization_Penalty_Neutral>
  0.0000

> <r_epik_State_Penalty>
 -0.0000

> <r_epik_Charging_Adjusted_Penalty>
0.00387674509591763

> <i_epik_Tot_Q>
-2

> <i_epik_Tot_abs_Q>
2

$$$$
