3q4l_ligand
                    3D
 Schrodinger Suite 2020-3.
101102  0  0  1  0            999 V2000
  -14.1480    1.3680   29.3780 C   0  0  0  0  0  0
  -13.8350    1.7130   30.5020 O   0  0  0  0  0  0
  -15.0350    0.1340   29.1410 C   0  0  0  0  0  0
  -13.7460    1.9570   28.2900 N   0  0  0  0  0  0
  -12.8730    3.1000   28.1150 C   0  0  2  0  0  0
  -13.2830    4.3490   28.8530 C   0  0  0  0  0  0
  -14.3300    4.8210   28.6220 O   0  0  0  0  0  0
  -12.6170    3.4430   26.6590 C   0  0  0  0  0  0
  -11.4700    4.5020   26.4580 C   0  0  0  0  0  0
  -10.0870    4.2180   27.0960 C   0  0  0  0  0  0
   -9.4950    4.9160   28.0050 O   0  0  0  0  0  0
   -9.5140    3.2310   26.6660 N   0  0  0  0  0  0
  -12.3480    4.7830   29.7100 N   0  0  0  0  0  0
  -12.5000    6.0040   30.5480 C   0  0  2  0  0  0
  -11.8780    7.1920   29.7520 C   0  0  0  0  0  0
  -10.9840    7.0690   28.8690 O   0  0  0  0  0  0
  -11.7390    5.8300   31.8890 C   0  0  0  0  0  0
  -12.2650    4.5590   32.6500 C   0  0  0  0  0  0
  -11.3230    4.2060   33.8350 C   0  0  0  0  0  0
  -11.9110    3.0200   34.5140 C   0  0  0  0  0  0
  -13.0670    3.5880   35.2950 C   0  0  0  0  0  0
  -14.2140    3.9640   34.3020 C   0  0  0  0  0  0
  -13.8080    4.6540   32.9620 C   0  0  0  0  0  0
  -12.4060    8.3340   30.1450 N   0  0  0  0  0  0
  -12.0540    9.6700   29.6290 C   0  0  2  0  0  0
  -10.9050   10.2380   30.4940 C   0  0  0  0  0  0
  -10.9000   10.0940   31.7060 O   0  0  0  0  0  0
  -13.1940   10.6090   29.7910 C   0  0  0  0  0  0
  -14.3980   10.2330   29.0030 C   0  0  0  0  0  0
  -14.3730    9.3360   28.0840 O   0  5  0  0  0  0
  -15.3980   10.8730   29.3600 O   0  0  0  0  0  0
   -9.9290   10.9170   29.8820 N   0  0  0  0  0  0
   -8.7850   11.7870   30.6060 C   0  0  2  0  0  0
   -9.3350   12.9110   31.3300 C   0  0  0  0  0  0
   -8.8080   13.2710   32.3770 O   0  0  0  0  0  0
   -7.6210   12.2650   29.7260 C   0  0  0  0  0  0
   -6.5990   11.2060   29.2510 C   0  0  0  0  0  0
   -5.8410   11.6220   27.9960 C   0  0  0  0  0  0
   -5.7120   10.6880   30.3700 C   0  0  0  0  0  0
  -10.3310   13.5890   30.7960 N   0  0  0  0  0  0
  -13.3910   14.1040   31.2740 O   0  0  0  0  0  0
   -5.5070   16.5250   27.9660 Cl  0  0  0  0  0  0
   -7.3470   17.1720   29.9840 C   0  0  0  0  0  0
   -8.0880   15.8030   28.0890 C   0  0  0  0  0  0
   -7.8030   15.0450   26.6350 Cl  0  0  0  0  0  0
   -8.6630   17.0200   30.4940 C   0  0  0  0  0  0
   -9.3470   15.6820   28.5740 C   0  0  0  0  0  0
  -11.0910   16.0850   30.2880 C   0  0  0  0  0  0
  -12.3560   14.3430   31.9820 C   0  0  0  0  0  0
   -7.0570   16.5150   28.7460 C   0  0  0  0  0  0
   -9.6720   16.2910   29.7990 C   0  0  0  0  0  0
  -11.0070   14.8330   31.2710 C   0  0  1  0  0  0
  -12.3390   14.1600   33.2540 O   0  5  0  0  0  0
  -15.3274   -0.2988   30.1091 H   0  0  0  0  0  0
  -14.4756   -0.6134   28.5592 H   0  0  0  0  0  0
  -15.9364    0.4317   28.5852 H   0  0  0  0  0  0
  -14.1761    1.4538   27.4115 H   0  0  0  0  0  0
  -11.9659    2.7034   28.5946 H   0  0  0  0  0  0
  -12.3255    2.5332   26.1138 H   0  0  0  0  0  0
  -13.5326    3.8596   26.2140 H   0  0  0  0  0  0
  -11.2661    4.6223   25.3838 H   0  0  0  0  0  0
  -11.7837    5.4673   26.8820 H   0  0  0  0  0  0
   -9.9899    2.6130   25.8904 H   0  0  0  0  0  0
   -8.5212    2.9588   27.0538 H   0  0  0  0  0  0
  -11.4289    4.1822   29.7750 H   0  0  0  0  0  0
  -13.5711    6.1484   30.7525 H   0  0  0  0  0  0
  -10.6642    5.7103   31.6878 H   0  0  0  0  0  0
  -11.8975    6.7181   32.5185 H   0  0  0  0  0  0
  -12.1992    3.6707   32.0046 H   0  0  0  0  0  0
  -10.3187    3.9767   33.4493 H   0  0  0  0  0  0
  -11.2646    5.0612   34.5243 H   0  0  0  0  0  0
  -12.2381    2.2900   33.7590 H   0  0  0  0  0  0
  -11.1550    2.5588   35.1666 H   0  0  0  0  0  0
  -13.4285    2.8372   36.0131 H   0  0  0  0  0  0
  -12.7367    4.4857   35.8382 H   0  0  0  0  0  0
  -14.7574    3.0539   34.0080 H   0  0  0  0  0  0
  -14.9079    4.6634   34.7912 H   0  0  0  0  0  0
  -14.1034    5.7112   33.0325 H   0  0  0  0  0  0
  -14.3759    4.1677   32.1551 H   0  0  0  0  0  0
  -13.1717    8.2310   30.9280 H   0  0  0  0  0  0
  -11.8167    9.5517   28.5614 H   0  0  0  0  0  0
  -13.4937   10.6428   30.8489 H   0  0  0  0  0  0
  -12.8904   11.6143   29.4636 H   0  0  0  0  0  0
   -9.9524   10.8435   28.7847 H   0  0  0  0  0  0
   -8.3228   11.1487   31.3734 H   0  0  0  0  0  0
   -8.0189   12.7165   28.8052 H   0  0  0  0  0  0
   -7.0293   13.0124   30.2749 H   0  0  0  0  0  0
   -7.1743   10.3223   28.9379 H   0  0  0  0  0  0
   -6.5538   11.9827   27.2398 H   0  0  0  0  0  0
   -5.2896   10.7577   27.5973 H   0  0  0  0  0  0
   -5.1326   12.4258   28.2451 H   0  0  0  0  0  0
   -6.3349   10.4114   31.2334 H   0  0  0  0  0  0
   -5.0009   11.4728   30.6673 H   0  0  0  0  0  0
   -5.1579    9.8047   30.0196 H   0  0  0  0  0  0
  -10.6599   13.1058   29.8642 H   0  0  0  0  0  0
   -6.5945   17.7601   30.5093 H   0  0  0  0  0  0
   -8.9111   17.4773   31.4518 H   0  0  0  0  0  0
  -10.0992   15.1192   28.0212 H   0  0  0  0  0  0
  -11.4339   16.9904   30.8102 H   0  0  0  0  0  0
  -11.7493   15.8853   29.4296 H   0  0  0  0  0  0
  -10.2939   15.2871   31.9747 H   0  0  0  0  0  0
  1  2  2  0  0  0
  1  3  1  0  0  0
  1  4  1  0  0  0
  3 54  1  0  0  0
  3 55  1  0  0  0
  3 56  1  0  0  0
  4  5  1  0  0  0
  4 57  1  0  0  0
  5  6  1  0  0  0
  5  8  1  0  0  0
  5 58  1  0  0  0
  6  7  2  0  0  0
  6 13  1  0  0  0
  8  9  1  0  0  0
  8 59  1  0  0  0
  8 60  1  0  0  0
  9 10  1  0  0  0
  9 61  1  0  0  0
  9 62  1  0  0  0
 10 11  2  0  0  0
 10 12  1  0  0  0
 12 63  1  0  0  0
 12 64  1  0  0  0
 13 14  1  0  0  0
 13 65  1  0  0  0
 14 15  1  0  0  0
 14 17  1  0  0  0
 14 66  1  0  0  0
 15 16  2  0  0  0
 15 24  1  0  0  0
 17 18  1  0  0  0
 17 67  1  0  0  0
 17 68  1  0  0  0
 18 19  1  0  0  0
 18 23  1  0  0  0
 18 69  1  0  0  0
 19 20  1  0  0  0
 19 70  1  0  0  0
 19 71  1  0  0  0
 20 21  1  0  0  0
 20 72  1  0  0  0
 20 73  1  0  0  0
 21 22  1  0  0  0
 21 74  1  0  0  0
 21 75  1  0  0  0
 22 23  1  0  0  0
 22 76  1  0  0  0
 22 77  1  0  0  0
 23 78  1  0  0  0
 23 79  1  0  0  0
 24 25  1  0  0  0
 24 80  1  0  0  0
 25 26  1  0  0  0
 25 28  1  0  0  0
 25 81  1  0  0  0
 26 27  2  0  0  0
 26 32  1  0  0  0
 28 29  1  0  0  0
 28 82  1  0  0  0
 28 83  1  0  0  0
 29 30  1  0  0  0
 29 31  2  0  0  0
 32 33  1  0  0  0
 32 84  1  0  0  0
 33 34  1  0  0  0
 33 36  1  0  0  0
 33 85  1  0  0  0
 34 35  2  0  0  0
 34 40  1  0  0  0
 36 37  1  0  0  0
 36 86  1  0  0  0
 36 87  1  0  0  0
 37 38  1  0  0  0
 37 39  1  0  0  0
 37 88  1  0  0  0
 38 89  1  0  0  0
 38 90  1  0  0  0
 38 91  1  0  0  0
 39 92  1  0  0  0
 39 93  1  0  0  0
 39 94  1  0  0  0
 40 52  1  0  0  0
 40 95  1  0  0  0
 41 49  2  0  0  0
 42 50  1  0  0  0
 43 46  2  0  0  0
 43 50  1  0  0  0
 43 96  1  0  0  0
 44 45  1  0  0  0
 44 47  1  0  0  0
 44 50  2  0  0  0
 46 51  1  0  0  0
 46 97  1  0  0  0
 47 51  2  0  0  0
 47 98  1  0  0  0
 48 51  1  0  0  0
 48 52  1  0  0  0
 48 99  1  0  0  0
 48100  1  0  0  0
 49 52  1  0  0  0
 49 53  1  0  0  0
 52101  1  0  0  0
M  CHG  2  30  -1  53  -1
M  END
> <s_m_source_file>
../3q4l_ligand.sdf

> <i_m_source_file_index>
1

> <s_epik_input>
Tz1DKFtOSDJdKVtDSDJdW0NIMl1bQ0BIXShbTkhdQyg9TylbQ0gzXSlDKD1PKVtOSF1bQ0BASF0oW0NIMl1bQ0hdMVtDSDJdW0NIMl1bQ0gyXVtDSDJdW0NIMl0xKUMoPU8pW05IXVtDQEBIXShbQ0gyXUMoPU8pW09IXSlDKD1PKVtOSF1bQ0BASF0oW0NIMl1bQ0hdKFtDSDNdKVtDSDNdKUMoPU8pW05IXVtDQEhdKEMoPU8pW09IXSlbQ0gyXWMoW2NIXWMyQ2wpW2NIXVtjSF1jMkNs

> <s_epik_cmdline>
J2VwaWtfYXBwJywgJy1pbWFlJywgJ2xpZ2FuZF9wcm8ubWFlJywgJy1vbWFlJywgJ2xpZ2FuZF9wcmVwLm1hZScsICctbXMnLCAnMScsICctcGgnLCAnNycsICctcGh0JywgJzAuNScsICctbnQn

> <r_lp_tautomer_probability>
1

> <r_epik_Ionization_Penalty>
  0.0038

> <r_epik_Ionization_Penalty_Charging>
  0.0038

> <r_epik_Ionization_Penalty_Neutral>
  0.0000

> <r_epik_State_Penalty>
 -0.0000

> <r_epik_Charging_Adjusted_Penalty>
0.00383443595434272

> <i_epik_Tot_Q>
-2

> <i_epik_Tot_abs_Q>
2

$$$$
