3q5h_ligand
                    3D
 Schrodinger Suite 2020-3.
 78 80  0  0  1  0            999 V2000
   29.3250   -8.1790  -14.4320 C   0  0  2  0  0  0
   28.0580   -4.7840  -12.6560 N   0  0  0  0  0  0
   31.0520   -9.9120  -10.0740 O   0  0  0  0  0  0
   25.5970   -2.3910  -13.6530 C   0  0  0  0  0  0
   26.1080   -3.5270  -12.9560 O   0  0  0  0  0  0
   30.7050   -8.5840  -14.7400 C   0  0  0  0  0  0
   29.5180   -7.1390  -13.4800 O   0  0  0  0  0  0
   31.6370   -8.8650  -13.7180 C   0  0  0  0  0  0
   31.0880   -8.6270  -16.0780 C   0  0  0  0  0  0
   32.9420   -9.1790  -14.0670 C   0  0  0  0  0  0
   32.3930   -8.9560  -16.4020 C   0  0  0  0  0  0
   33.3200   -9.2400  -15.4040 C   0  0  0  0  0  0
   27.5340   -3.6600  -13.0580 C   0  0  0  0  0  0
   34.1620   -9.6080  -12.8200 Cl  0  0  0  0  0  0
   26.7500   -9.1000   -9.3050 C   0  0  2  0  0  0
   25.3610   -8.7490   -8.7700 C   0  0  0  0  0  0
   27.8460   -8.1340   -8.8950 C   0  0  0  0  0  0
   25.3620   -8.3010   -7.3510 N   0  3  0  0  0  0
   28.2100   -2.7530  -13.5180 O   0  0  0  0  0  0
   29.1960   -8.3850   -9.5840 C   0  0  1  0  0  0
   30.2060   -7.4120   -8.9690 C   0  0  0  0  0  0
   31.6230   -7.6980   -9.5030 C   0  0  0  0  0  0
   32.0760   -9.1720   -9.4930 C   0  0  0  0  0  0
   29.7630   -9.7850   -9.3930 C   0  0  0  0  0  0
   26.7750   -9.1200  -10.7390 N   0  0  0  0  0  0
   26.4560  -10.1950  -11.4480 C   0  0  0  0  0  0
   26.0930  -11.2620  -10.8930 O   0  0  0  0  0  0
   26.5650  -10.0780  -12.7750 N   0  0  0  0  0  0
   27.6880  -11.6930  -14.1880 C   0  0  0  0  0  0
   28.5430  -10.5400  -14.6900 C   0  0  0  0  0  0
   28.5380   -9.2900  -13.7570 C   0  0  2  0  0  0
   27.0590   -8.8830  -13.4760 C   0  0  0  0  0  0
   26.2840  -11.1890  -13.6740 C   0  0  0  0  0  0
   25.5810   -9.3180   -6.3310 C   0  0  0  0  0  0
   29.7150   -5.8290  -14.0100 C   0  0  0  0  0  0
   29.4820   -4.9310  -12.7790 C   0  0  0  0  0  0
   28.7872   -7.8533  -15.3346 H   0  0  0  0  0  0
   27.4549   -5.6023  -12.2358 H   0  0  0  0  0  0
   24.5042   -2.3491  -13.5344 H   0  0  0  0  0  0
   25.8470   -2.4732  -14.7211 H   0  0  0  0  0  0
   26.0460   -1.4754  -13.2407 H   0  0  0  0  0  0
   31.3358   -8.8357  -12.6708 H   0  0  0  0  0  0
   30.3663   -8.4035  -16.8637 H   0  0  0  0  0  0
   32.6970   -8.9929  -17.4481 H   0  0  0  0  0  0
   34.3420   -9.5102  -15.6699 H   0  0  0  0  0  0
   26.9588  -10.1106   -8.9240 H   0  0  0  0  0  0
   24.9322   -7.9332   -9.3705 H   0  0  0  0  0  0
   24.7094   -9.6329   -8.8338 H   0  0  0  0  0  0
   27.5419   -7.1069   -9.1450 H   0  0  0  0  0  0
   28.0171   -8.2121   -7.8112 H   0  0  0  0  0  0
   26.1600   -7.5589   -7.2014 H   0  0  0  0  0  0
   24.3895   -7.8475   -7.1090 H   0  0  0  0  0  0
   29.0320   -8.2578  -10.6642 H   0  0  0  0  0  0
   29.9269   -6.3804   -9.2297 H   0  0  0  0  0  0
   30.2061   -7.5265   -7.8750 H   0  0  0  0  0  0
   31.6937   -7.3684  -10.5501 H   0  0  0  0  0  0
   32.3606   -7.1522   -8.8963 H   0  0  0  0  0  0
   32.2427   -9.5219   -8.4636 H   0  0  0  0  0  0
   32.9987   -9.3005  -10.0779 H   0  0  0  0  0  0
   29.0551  -10.5174   -9.8084 H   0  0  0  0  0  0
   29.8964   -9.9733   -8.3175 H   0  0  0  0  0  0
   27.0677   -8.2181  -11.2966 H   0  0  0  0  0  0
   27.5230  -12.4101  -15.0056 H   0  0  0  0  0  0
   28.2032  -12.1968  -13.3568 H   0  0  0  0  0  0
   29.5879  -10.8712  -14.7817 H   0  0  0  0  0  0
   28.1749  -10.2115  -15.6731 H   0  0  0  0  0  0
   29.0358   -9.4842  -12.7955 H   0  0  0  0  0  0
   26.4673   -8.7229  -14.3894 H   0  0  0  0  0  0
   26.9630   -8.0063  -12.8186 H   0  0  0  0  0  0
   25.7531  -11.9802  -13.1243 H   0  0  0  0  0  0
   25.6573  -10.8373  -14.5068 H   0  0  0  0  0  0
   25.5567   -8.8503   -5.3357 H   0  0  0  0  0  0
   26.5611   -9.7915   -6.4898 H   0  0  0  0  0  0
   24.7906  -10.0801   -6.3974 H   0  0  0  0  0  0
   30.7357   -5.7456  -14.4116 H   0  0  0  0  0  0
   28.9881   -5.6460  -14.8151 H   0  0  0  0  0  0
   29.9421   -3.9415  -12.9175 H   0  0  0  0  0  0
   29.8827   -5.3972  -11.8668 H   0  0  0  0  0  0
  1  6  1  0  0  0
  1  7  1  0  0  0
  1 31  1  0  0  0
  1 37  1  0  0  0
  2 13  1  0  0  0
  2 36  1  0  0  0
  2 38  1  0  0  0
  3 23  1  0  0  0
  3 24  1  0  0  0
  4  5  1  0  0  0
  4 39  1  0  0  0
  4 40  1  0  0  0
  4 41  1  0  0  0
  5 13  1  0  0  0
  6  8  2  0  0  0
  6  9  1  0  0  0
  7 35  1  0  0  0
  8 10  1  0  0  0
  8 42  1  0  0  0
  9 11  2  0  0  0
  9 43  1  0  0  0
 10 12  2  0  0  0
 10 14  1  0  0  0
 11 12  1  0  0  0
 11 44  1  0  0  0
 12 45  1  0  0  0
 13 19  2  0  0  0
 15 16  1  0  0  0
 15 17  1  0  0  0
 15 25  1  0  0  0
 15 46  1  0  0  0
 16 18  1  0  0  0
 16 47  1  0  0  0
 16 48  1  0  0  0
 17 20  1  0  0  0
 17 49  1  0  0  0
 17 50  1  0  0  0
 18 34  1  0  0  0
 18 51  1  0  0  0
 18 52  1  0  0  0
 20 21  1  0  0  0
 20 24  1  0  0  0
 20 53  1  0  0  0
 21 22  1  0  0  0
 21 54  1  0  0  0
 21 55  1  0  0  0
 22 23  1  0  0  0
 22 56  1  0  0  0
 22 57  1  0  0  0
 23 58  1  0  0  0
 23 59  1  0  0  0
 24 60  1  0  0  0
 24 61  1  0  0  0
 25 26  1  0  0  0
 25 62  1  0  0  0
 26 27  2  0  0  0
 26 28  1  0  0  0
 28 32  1  0  0  0
 28 33  1  0  0  0
 29 30  1  0  0  0
 29 33  1  0  0  0
 29 63  1  0  0  0
 29 64  1  0  0  0
 30 31  1  0  0  0
 30 65  1  0  0  0
 30 66  1  0  0  0
 31 32  1  0  0  0
 31 67  1  0  0  0
 32 68  1  0  0  0
 32 69  1  0  0  0
 33 70  1  0  0  0
 33 71  1  0  0  0
 34 72  1  0  0  0
 34 73  1  0  0  0
 34 74  1  0  0  0
 35 36  1  0  0  0
 35 75  1  0  0  0
 35 76  1  0  0  0
 36 77  1  0  0  0
 36 78  1  0  0  0
M  CHG  1  18   1
M  END
> <s_m_source_file>
../3q5h_ligand.sdf

> <i_m_source_file_index>
1

> <s_epik_input>
W0NIM11PQyg9TylbTkhdW0NIMl1bQ0gyXU9bQ0BASF0oYzFbY0hdYyhDbClbY0hdW2NIXVtjSF0xKVtDQEhdKFtDSDJdW0NIMl1bQ0gyXTIpW0NIMl1OMkMoPU8pW05IXVtDQEhdKFtDSDJdW05IMitdW0NIM10pW0NIMl1bQ0BIXTNbQ0gyXVtDSDJdW0NIMl1PW0NIMl0z

> <s_epik_cmdline>
J2VwaWtfYXBwJywgJy1pbWFlJywgJ2xpZ2FuZF9wcm8ubWFlJywgJy1vbWFlJywgJ2xpZ2FuZF9wcmVwLm1hZScsICctbXMnLCAnMScsICctcGgnLCAnNycsICctcGh0JywgJzAuNScsICctbnQn

> <r_lp_tautomer_probability>
1

> <r_epik_Ionization_Penalty>
  0.0009

> <r_epik_Ionization_Penalty_Charging>
  0.0009

> <r_epik_Ionization_Penalty_Neutral>
  0.0000

> <r_epik_State_Penalty>
 -0.0000

> <r_epik_Charging_Adjusted_Penalty>
0.000868262674034732

> <i_epik_Tot_Q>
1

> <i_epik_Tot_abs_Q>
1

> <s_epik_Chemistry_Notes>
This compound has an ester and may undergo hydrolysis at high or low pH.

$$$$
