3q5u_ligand
                    3D
 Schrodinger Suite 2020-3.
143144  0  0  1  0            999 V2000
   80.7290   50.5170   32.6220 N   0  3  0  0  0  0
   79.9820   49.9460   33.7300 C   0  0  0  0  0  0
   80.6730   48.7480   34.3610 C   0  0  0  0  0  0
   81.4820   48.0750   33.7150 O   0  0  0  0  0  0
   80.3670   48.4820   35.6300 N   0  0  0  0  0  0
   79.4610   49.3200   36.4130 C   0  0  2  0  0  0
   80.2390   50.5120   36.9710 C   0  0  0  0  0  0
   81.2660   50.3330   37.6360 O   0  0  0  0  0  0
   78.8410   48.5120   37.5600 C   0  0  0  0  0  0
   78.3270   47.2670   37.1050 O   0  0  0  0  0  0
   79.7510   51.7240   36.7020 N   0  0  0  0  0  0
   80.5000   52.9400   37.0340 C   0  0  2  0  0  0
   79.9070   53.8110   38.1470 C   0  0  0  0  0  0
   78.8720   54.4650   37.9640 O   0  0  0  0  0  0
   80.7500   53.8200   35.7820 C   0  0  2  0  0  0
   81.5370   53.0300   34.7280 C   0  0  0  0  0  0
   81.4840   55.1090   36.1680 C   0  0  0  0  0  0
   82.0920   53.8740   33.5840 C   0  0  0  0  0  0
   80.6310   53.9090   39.2430 N   0  0  0  0  0  0
   80.4060   54.9450   40.2490 C   0  0  2  0  0  0
   80.7920   56.3370   39.7710 C   0  0  0  0  0  0
   81.8900   56.5610   39.3490 O   0  0  0  0  0  0
   81.0930   54.5800   41.5870 C   0  0  2  0  0  0
   80.7130   53.1680   41.9800 C   0  0  0  0  0  0
   80.6730   55.4800   42.7080 C   0  0  0  0  0  0
   79.5850   53.1180   42.8790 C   0  0  0  0  0  0
   79.8610   57.2550   39.9090 N   0  0  0  0  0  0
   80.1500   58.6490   39.7630 C   0  0  2  0  0  0
   79.8140   59.3810   41.0280 C   0  0  0  0  0  0
   78.6930   59.3810   41.4400 O   0  0  0  0  0  0
   79.3550   59.1730   38.5910 C   0  0  0  0  0  0
   79.8070   58.5620   37.3030 C   0  0  0  0  0  0
   78.8360   58.8120   36.2230 C   0  0  0  0  0  0
   77.4890   58.5860   36.6830 N   0  0  0  0  0  0
   76.5550   59.4990   36.6360 C   0  0  0  0  0  0
   76.8440   60.6690   36.1600 N   0  3  0  0  0  0
   75.3490   59.2540   37.0720 N   0  0  0  0  0  0
   80.8130   60.0050   41.6340 N   0  0  0  0  0  0
   80.6480   61.1220   42.5480 C   0  0  2  0  0  0
   80.3970   62.4630   41.8420 C   0  0  0  0  0  0
   80.6560   62.5790   40.6730 O   0  0  0  0  0  0
   81.8470   61.1660   43.4810 C   0  0  0  0  0  0
   82.4660   59.8190   43.7700 C   0  0  0  0  0  0
   83.1220   59.7870   45.1270 C   0  0  0  0  0  0
   83.4960   58.3970   45.5350 C   0  0  0  0  0  0
   83.3880   58.1420   46.9850 N   0  3  0  0  0  0
   79.7910   63.4310   42.5200 N   0  0  0  0  0  0
   80.4390   64.5790   43.1680 C   0  0  2  0  0  0
   79.3270   65.3010   43.8800 C   0  0  0  0  0  0
   78.3650   64.7050   44.2520 O   0  0  0  0  0  0
   81.1430   65.5910   42.2520 C   0  0  0  0  0  0
   80.8030   65.6790   40.7800 C   0  0  0  0  0  0
   81.1300   64.7860   39.8140 C   0  0  0  0  0  0
   80.1590   66.7700   40.1050 C   0  0  0  0  0  0
   80.6980   65.2220   38.5940 N   0  3  0  0  0  0
   80.1040   66.4440   38.7470 C   0  0  0  0  0  0
   79.6180   67.9850   40.5230 C   0  0  0  0  0  0
   79.5190   67.2850   37.8030 C   0  0  0  0  0  0
   79.0420   68.8050   39.5990 C   0  0  0  0  0  0
   78.9920   68.4580   38.2560 C   0  0  0  0  0  0
   79.4640   66.6020   44.0810 N   0  0  0  0  0  0
   78.2670   67.3860   43.8850 C   0  0  2  0  0  0
   78.2410   68.6550   44.6890 C   0  0  0  0  0  0
   78.2802   69.7764   44.1159 O   0  0  0  0  0  0
   77.0500   66.5700   44.2080 C   0  0  0  0  0  0
   75.8420   67.1310   43.5800 C   0  0  0  0  0  0
   74.9660   66.4150   43.1510 O   0  0  0  0  0  0
   75.7960   68.4300   43.4910 N   0  0  0  0  0  0
   78.1795   68.5973   45.9462 O   0  5  0  0  0  0
   80.1774   51.3758   32.2118 H   0  0  0  0  0  0
   80.8600   49.7569   31.8377 H   0  0  0  0  0  0
   81.7150   50.8505   32.9778 H   0  0  0  0  0  0
   79.8510   50.7061   34.5143 H   0  0  0  0  0  0
   78.9960   49.6125   33.3743 H   0  0  0  0  0  0
   80.8254   47.5922   36.0861 H   0  0  0  0  0  0
   78.6698   49.6576   35.7274 H   0  0  0  0  0  0
   79.6069   48.3130   38.3241 H   0  0  0  0  0  0
   78.0161   49.0852   38.0083 H   0  0  0  0  0  0
   77.8504   46.5759   37.8158 H   0  0  0  0  0  0
   78.7648   51.7997   36.2208 H   0  0  0  0  0  0
   81.4211   52.4887   37.4313 H   0  0  0  0  0  0
   79.7856   54.1091   35.3389 H   0  0  0  0  0  0
   82.3962   52.5364   35.2057 H   0  0  0  0  0  0
   80.8829   52.2703   34.2752 H   0  0  0  0  0  0
   80.8975   55.6528   36.9231 H   0  0  0  0  0  0
   81.6093   55.7407   35.2762 H   0  0  0  0  0  0
   82.4720   54.8585   36.5816 H   0  0  0  0  0  0
   82.6376   53.2265   32.8819 H   0  0  0  0  0  0
   82.7759   54.6350   33.9881 H   0  0  0  0  0  0
   81.2626   54.3689   33.0576 H   0  0  0  0  0  0
   81.4325   53.1692   39.3851 H   0  0  0  0  0  0
   79.3129   54.9526   40.3720 H   0  0  0  0  0  0
   82.1801   54.6875   41.4583 H   0  0  0  0  0  0
   80.4482   52.5953   41.0789 H   0  0  0  0  0  0
   81.5638   52.6860   42.4838 H   0  0  0  0  0  0
   80.9327   56.5198   42.4603 H   0  0  0  0  0  0
   81.1918   55.1824   43.6312 H   0  0  0  0  0  0
   79.5860   55.3988   42.8558 H   0  0  0  0  0  0
   79.3592   52.0701   43.1260 H   0  0  0  0  0  0
   78.7102   53.5775   42.3956 H   0  0  0  0  0  0
   79.8259   53.6683   43.8005 H   0  0  0  0  0  0
   78.8374   56.9271   40.1429 H   0  0  0  0  0  0
   81.2298   58.7539   39.5813 H   0  0  0  0  0  0
   78.2907   58.9347   38.7340 H   0  0  0  0  0  0
   79.4804   60.2636   38.5211 H   0  0  0  0  0  0
   80.7748   58.9957   37.0112 H   0  0  0  0  0  0
   79.9161   57.4750   37.4312 H   0  0  0  0  0  0
   78.9246   59.8548   35.8844 H   0  0  0  0  0  0
   79.0414   58.1345   35.3811 H   0  0  0  0  0  0
   77.2065   57.6073   37.0981 H   0  0  0  0  0  0
   77.8594   60.8776   35.7921 H   0  0  0  0  0  0
   75.1015   58.2615   37.4765 H   0  0  0  0  0  0
   74.5805   60.0401   37.0348 H   0  0  0  0  0  0
   81.8198   59.6249   41.4061 H   0  0  0  0  0  0
   79.7310   60.9012   43.1140 H   0  0  0  0  0  0
   82.6351   61.7911   43.0359 H   0  0  0  0  0  0
   81.5434   61.5924   44.4484 H   0  0  0  0  0  0
   81.6860   59.0439   43.7440 H   0  0  0  0  0  0
   83.2299   59.5960   43.0106 H   0  0  0  0  0  0
   84.0370   60.3972   45.1064 H   0  0  0  0  0  0
   82.4286   60.1913   45.8791 H   0  0  0  0  0  0
   82.8353   57.6765   45.0307 H   0  0  0  0  0  0
   84.5398   58.1994   45.2496 H   0  0  0  0  0  0
   83.6795   57.1028   47.1972 H   0  0  0  0  0  0
   82.3497   58.3052   47.3096 H   0  0  0  0  0  0
   84.0543   58.8280   47.5285 H   0  0  0  0  0  0
   78.6984   63.3148   42.5717 H   0  0  0  0  0  0
   81.2249   64.1429   43.8021 H   0  0  0  0  0  0
   80.9546   66.6107   42.6190 H   0  0  0  0  0  0
   82.2254   65.3952   42.2528 H   0  0  0  0  0  0
   81.6702   63.8646   40.0769 H   0  0  0  0  0  0
   79.6551   68.2749   41.5731 H   0  0  0  0  0  0
   79.4841   67.0167   36.7471 H   0  0  0  0  0  0
   78.6116   69.7531   39.9215 H   0  0  0  0  0  0
   78.5206   69.1389   37.5473 H   0  0  0  0  0  0
   80.4019   67.0948   44.3767 H   0  0  0  0  0  0
   78.3041   67.6528   42.8185 H   0  0  0  0  0  0
   77.1889   65.5429   43.8396 H   0  0  0  0  0  0
   76.8994   66.5516   45.2975 H   0  0  0  0  0  0
   76.6177   69.0385   43.8966 H   0  0  0  0  0  0
   74.9354   68.9182   43.0103 H   0  0  0  0  0  0
   80.8585   64.6018   37.6998 H   0  0  0  0  0  0
   76.0739   61.4536   36.1238 H   0  0  0  0  0  0
  1  2  1  0  0  0
  1 70  1  0  0  0
  1 71  1  0  0  0
  1 72  1  0  0  0
  2  3  1  0  0  0
  2 73  1  0  0  0
  2 74  1  0  0  0
  3  4  2  0  0  0
  3  5  1  0  0  0
  5  6  1  0  0  0
  5 75  1  0  0  0
  6  7  1  0  0  0
  6  9  1  0  0  0
  6 76  1  0  0  0
  7  8  2  0  0  0
  7 11  1  0  0  0
  9 10  1  0  0  0
  9 77  1  0  0  0
  9 78  1  0  0  0
 10 79  1  0  0  0
 11 12  1  0  0  0
 11 80  1  0  0  0
 12 13  1  0  0  0
 12 15  1  0  0  0
 12 81  1  0  0  0
 13 14  2  0  0  0
 13 19  1  0  0  0
 15 16  1  0  0  0
 15 17  1  0  0  0
 15 82  1  0  0  0
 16 18  1  0  0  0
 16 83  1  0  0  0
 16 84  1  0  0  0
 17 85  1  0  0  0
 17 86  1  0  0  0
 17 87  1  0  0  0
 18 88  1  0  0  0
 18 89  1  0  0  0
 18 90  1  0  0  0
 19 20  1  0  0  0
 19 91  1  0  0  0
 20 21  1  0  0  0
 20 23  1  0  0  0
 20 92  1  0  0  0
 21 22  2  0  0  0
 21 27  1  0  0  0
 23 24  1  0  0  0
 23 25  1  0  0  0
 23 93  1  0  0  0
 24 26  1  0  0  0
 24 94  1  0  0  0
 24 95  1  0  0  0
 25 96  1  0  0  0
 25 97  1  0  0  0
 25 98  1  0  0  0
 26 99  1  0  0  0
 26100  1  0  0  0
 26101  1  0  0  0
 27 28  1  0  0  0
 27102  1  0  0  0
 28 29  1  0  0  0
 28 31  1  0  0  0
 28103  1  0  0  0
 29 30  2  0  0  0
 29 38  1  0  0  0
 31 32  1  0  0  0
 31104  1  0  0  0
 31105  1  0  0  0
 32 33  1  0  0  0
 32106  1  0  0  0
 32107  1  0  0  0
 33 34  1  0  0  0
 33108  1  0  0  0
 33109  1  0  0  0
 34 35  1  0  0  0
 34110  1  0  0  0
 35 36  2  0  0  0
 35 37  1  0  0  0
 36111  1  0  0  0
 36143  1  0  0  0
 37112  1  0  0  0
 37113  1  0  0  0
 38 39  1  0  0  0
 38114  1  0  0  0
 39 40  1  0  0  0
 39 42  1  0  0  0
 39115  1  0  0  0
 40 41  2  0  0  0
 40 47  1  0  0  0
 42 43  1  0  0  0
 42116  1  0  0  0
 42117  1  0  0  0
 43 44  1  0  0  0
 43118  1  0  0  0
 43119  1  0  0  0
 44 45  1  0  0  0
 44120  1  0  0  0
 44121  1  0  0  0
 45 46  1  0  0  0
 45122  1  0  0  0
 45123  1  0  0  0
 46124  1  0  0  0
 46125  1  0  0  0
 46126  1  0  0  0
 47 48  1  0  0  0
 47127  1  0  0  0
 48 49  1  0  0  0
 48 51  1  0  0  0
 48128  1  0  0  0
 49 50  2  0  0  0
 49 61  1  0  0  0
 51 52  1  0  0  0
 51129  1  0  0  0
 51130  1  0  0  0
 52 53  2  0  0  0
 52 54  1  0  0  0
 53 55  1  0  0  0
 53131  1  0  0  0
 54 56  2  0  0  0
 54 57  1  0  0  0
 55 56  1  0  0  0
 55142  1  0  0  0
 56 58  1  0  0  0
 57 59  2  0  0  0
 57132  1  0  0  0
 58 60  2  0  0  0
 58133  1  0  0  0
 59 60  1  0  0  0
 59134  1  0  0  0
 60135  1  0  0  0
 61 62  1  0  0  0
 61136  1  0  0  0
 62 63  1  0  0  0
 62 65  1  0  0  0
 62137  1  0  0  0
 63 64  2  0  0  0
 63 69  1  0  0  0
 65 66  1  0  0  0
 65138  1  0  0  0
 65139  1  0  0  0
 66 67  2  0  0  0
 66 68  1  0  0  0
 68140  1  0  0  0
 68141  1  0  0  0
M  CHG  5   1   1  36   1  46   1  55   1  69  -1
M  END
> <s_m_source_file>
../3q5u_ligand.sdf

> <i_m_source_file_index>
1

> <s_epik_input>
W05IMytdW0NIMl1DKD1PKVtOSF1bQ0BASF0oW0NIMl1bT0hdKUMoPU8pW05IXVtDQEBIXShbQ0BASF0oW0NIM10pW0NIMl1bQ0gzXSlDKD1PKVtOSF1bQ0BASF0oW0NAQEhdKFtDSDNdKVtDSDJdW0NIM10pQyg9TylbTkhdW0NAQEhdKFtDSDJdW0NIMl1bQ0gyXVtOSF0vQyg9TlxbSF0pW05IMl0pQyg9TylbTkhdW0NAQEhdKFtDSDJdW0NIMl1bQ0gyXVtDSDJdW05IMytdKUMoPU8pW05IXVtDQEhdKEMoPU8pW05IXVtDQEhdKEMoPU8pW09IXSlbQ0gyXUMoPU8pW05IMl0pW0NIMl1jMVtjSF1bbkhdYyhjMTIpW2NIXVtjSF1bY0hdW2NIXTI=

> <s_epik_cmdline>
J2VwaWtfYXBwJywgJy1pbWFlJywgJ2xpZ2FuZF9wcm8ubWFlJywgJy1vbWFlJywgJ2xpZ2FuZF9wcmVwLm1hZScsICctbXMnLCAnMScsICctcGgnLCAnNycsICctcGh0JywgJzAuNScsICctbnQn

> <r_epik_Ionization_Penalty>
  0.1353

> <r_epik_Ionization_Penalty_Charging>
  0.1353

> <r_epik_Ionization_Penalty_Neutral>
  0.0000

> <r_epik_State_Penalty>
  0.1240

> <r_epik_Charging_Adjusted_Penalty>
0.259276528145682

> <i_epik_Tot_Q>
3

> <i_epik_Tot_abs_Q>
5

> <s_epik_Chemistry_Notes>
This compound has an imine and may undergo hydrolysis.

$$$$
