3q6k_ligand
                    3D
 Schrodinger Suite 2020-3.
 25 26  0  0  1  0            999 V2000
   38.6400   12.6350  -27.9670 O   0  0  0  0  0  0
   38.1740   13.3240  -26.8940 C   0  0  0  0  0  0
   37.0700   14.1810  -27.0860 C   0  0  0  0  0  0
   36.5820   14.9050  -25.9910 C   0  0  0  0  0  0
   37.2280   14.7180  -24.7550 C   0  0  0  0  0  0
   37.0460   15.2160  -23.4990 N   0  0  0  0  0  0
   37.9730   14.6990  -22.6410 C   0  0  0  0  0  0
   38.7860   13.8310  -23.3540 C   0  0  3  0  0  0
   38.3160   13.8390  -24.6830 C   0  0  0  0  0  0
   38.7520   13.1750  -25.7280 C   0  0  0  0  0  0
   39.9250   13.0510  -22.7470 C   0  0  0  0  0  0
   41.2510   13.5550  -23.2970 C   0  0  0  0  0  0
   42.0970   12.4390  -23.6520 N   0  3  0  0  0  0
   38.1593   12.7555  -28.9490 H   0  0  0  0  0  0
   36.6058   14.2778  -28.0675 H   0  0  0  0  0  0
   35.7365   15.5854  -26.0921 H   0  0  0  0  0  0
   37.9712   14.9998  -21.5829 H   0  0  0  0  0  0
   39.5989   12.4965  -25.6250 H   0  0  0  0  0  0
   39.9146   13.1773  -21.6543 H   0  0  0  0  0  0
   39.8121   11.9850  -22.9940 H   0  0  0  0  0  0
   41.0676   14.1681  -24.1917 H   0  0  0  0  0  0
   41.7573   14.1634  -22.5331 H   0  0  0  0  0  0
   43.0521   12.8144  -24.0481 H   0  0  0  0  0  0
   41.5966   11.8288  -24.4184 H   0  0  0  0  0  0
   42.2864   11.8241  -22.7598 H   0  0  0  0  0  0
  1  2  1  0  0  0
  1 14  1  0  0  0
  2  3  2  0  0  0
  2 10  1  0  0  0
  3  4  1  0  0  0
  3 15  1  0  0  0
  4  5  2  0  0  0
  4 16  1  0  0  0
  5  6  1  0  0  0
  5  9  1  0  0  0
  6  7  2  0  0  0
  7  8  1  0  0  0
  7 17  1  0  0  0
  8  9  1  0  0  0
  8 11  1  0  0  0
  9 10  2  0  0  0
 10 18  1  0  0  0
 11 12  1  0  0  0
 11 19  1  0  0  0
 11 20  1  0  0  0
 12 13  1  0  0  0
 12 21  1  0  0  0
 12 22  1  0  0  0
 13 23  1  0  0  0
 13 24  1  0  0  0
 13 25  1  0  0  0
M  CHG  1  13   1
M  END
> <s_m_source_file>
../3q6k_ligand.sdf

> <i_m_source_file_index>
1

> <s_epik_input>
W2NIXTFbY0hdYyhbT0hdKVtjSF1jKGMxMilbQ0hdKFtDSF09TjIpW0NIMl1bQ0gyXVtOSDMrXQ==

> <s_epik_cmdline>
J2VwaWtfYXBwJywgJy1pbWFlJywgJ2xpZ2FuZF9wcm8ubWFlJywgJy1vbWFlJywgJ2xpZ2FuZF9wcmVwLm1hZScsICctbXMnLCAnMScsICctcGgnLCAnNycsICctcGh0JywgJzAuNScsICctbnQn

> <r_lp_tautomer_probability>
1

> <r_epik_Ionization_Penalty>
  0.0357

> <r_epik_Ionization_Penalty_Charging>
  0.0017

> <r_epik_Ionization_Penalty_Neutral>
  0.0341

> <r_epik_State_Penalty>
 -0.0000

> <r_epik_Charging_Adjusted_Penalty>
0.00165985898237849

> <i_epik_Tot_Q>
1

> <i_epik_Tot_abs_Q>
1

> <s_epik_Chemistry_Notes>
This compound has an imine and may undergo hydrolysis.

$$$$
