3q6s_ligand
                    3D
 Schrodinger Suite 2020-3.
281282  0  0  1  0            999 V2000
   -3.3150   38.6330    4.2160 N   0  3  0  0  0  0
   -2.5980   38.4990    5.4690 C   0  0  2  0  0  0
   -1.9010   37.1610    5.4940 C   0  0  0  0  0  0
   -2.5400   36.1230    5.3730 O   0  0  0  0  0  0
   -3.5580   38.5720    6.6600 C   0  0  2  0  0  0
   -4.2750   39.8060    6.6090 O   0  0  0  0  0  0
   -2.7950   38.4860    7.9720 C   0  0  0  0  0  0
   -0.5820   37.1760    5.6280 N   0  0  0  0  0  0
    0.1550   35.9330    5.7160 C   0  0  2  0  0  0
   -0.0080   35.3900    7.1330 C   0  0  0  0  0  0
    0.2500   36.1020    8.1130 O   0  0  0  0  0  0
    1.6310   36.1610    5.4140 C   0  0  0  0  0  0
    2.4440   34.8700    5.4820 C   0  0  0  0  0  0
    3.0440   34.5470    6.5110 O   0  0  0  0  0  0
    2.4610   34.1280    4.3840 N   0  0  0  0  0  0
   -0.4370   34.1350    7.2460 N   0  0  0  0  0  0
   -0.6640   33.5460    8.5750 C   0  0  2  0  0  0
    0.1000   32.2340    8.7740 C   0  0  0  0  0  0
    0.4750   31.5370    7.8180 O   0  0  0  0  0  0
   -2.1690   33.3250    8.8710 C   0  0  0  0  0  0
   -2.9260   34.6510    8.8430 C   0  0  0  0  0  0
   -2.7950   32.3290    7.8930 C   0  0  0  0  0  0
    0.3080   31.8900   10.0290 N   0  0  0  0  0  0
    0.9680   30.6520   10.3780 C   0  0  2  0  0  0
    0.0840   30.0010   11.4470 C   0  0  0  0  0  0
   -0.3700   30.6990   12.3530 O   0  0  0  0  0  0
    2.3800   30.9940   10.8930 C   0  0  0  0  0  0
    3.0920   29.8320   11.2730 O   0  0  0  0  0  0
   -0.2100   28.6980   11.3080 N   0  0  0  0  0  0
   -1.0970   27.9930   12.2480 C   0  0  2  0  0  0
   -0.2920   27.1070   13.1870 C   0  0  0  0  0  0
    0.7370   26.5240   12.7760 O   0  0  0  0  0  0
   -2.1040   27.1150   11.5050 C   0  0  0  0  0  0
   -3.0030   27.7490   10.4540 C   0  0  0  0  0  0
   -3.9740   26.7100    9.9080 C   0  0  0  0  0  0
   -3.7480   28.8940   11.0590 C   0  0  0  0  0  0
   -0.7560   26.9820   14.4310 N   0  0  0  0  0  0
   -0.1160   26.0840   15.3760 C   0  0  2  0  0  0
   -1.1780   25.2730   16.1200 C   0  0  0  0  0  0
   -2.2710   25.7870   16.4020 O   0  0  0  0  0  0
    0.7950   26.8660   16.3150 C   0  0  0  0  0  0
    0.0820   27.9080   17.1140 C   0  0  0  0  0  0
   -0.4220   27.6100   18.3870 C   0  0  0  0  0  0
   -0.0850   29.2130   16.6190 C   0  0  0  0  0  0
   -1.0800   28.5590   19.1540 C   0  0  0  0  0  0
   -0.7520   30.1910   17.3900 C   0  0  0  0  0  0
   -1.2410   29.8420   18.6610 C   0  0  0  0  0  0
   -1.8980   30.7600   19.4380 O   0  0  0  0  0  0
   -0.8890   23.9970   16.3740 N   0  0  0  0  0  0
   -1.8260   23.0650   17.0050 C   0  0  2  0  0  0
   -1.9740   23.3270   18.5190 C   0  0  0  0  0  0
   -0.9870   23.5600   19.2500 O   0  0  0  0  0  0
   -1.1840   21.6930   16.7570 C   0  0  0  0  0  0
    0.2960   21.9790   16.6470 C   0  0  0  0  0  0
    0.3820   23.3340   15.9900 C   0  0  0  0  0  0
   -3.2210   23.2460   18.9720 N   0  0  0  0  0  0
   -3.5630   23.4540   20.3620 C   0  0  2  0  0  0
   -4.5860   22.3890   20.7310 C   0  0  0  0  0  0
   -5.3860   21.9730   19.8920 O   0  0  0  0  0  0
   -4.1550   24.8600   20.5620 C   0  0  0  0  0  0
   -4.8580   24.9560   21.8710 C   0  0  0  0  0  0
   -3.0620   25.9310   20.4530 C   0  0  0  0  0  0
   -4.5640   21.9270   21.9710 N   0  0  0  0  0  0
   -5.5790   20.9930   22.4200 C   0  0  2  0  0  0
   -6.4840   21.6780   23.4620 C   0  0  0  0  0  0
   -6.0250   21.9810   24.5280 O   0  0  0  0  0  0
   -4.9290   19.7450   23.0570 C   0  0  0  0  0  0
   -6.0030   18.7280   23.3870 C   0  0  0  0  0  0
   -3.9240   19.1170   22.0910 C   0  0  0  0  0  0
   -7.7600   21.8970   23.1590 N   0  0  0  0  0  0
   -8.6250   22.6720   24.0570 C   0  0  2  0  0  0
   -9.3580   21.7790   25.0360 C   0  0  0  0  0  0
  -10.1130   20.8880   24.6300 O   0  0  0  0  0  0
   -9.6260   23.4900   23.2150 C   0  0  0  0  0  0
   -8.8730   24.4670   22.3250 C   0  0  0  0  0  0
   -9.7860   25.4940   21.7010 C   0  0  0  0  0  0
  -10.7590   26.1390   22.7320 C   0  0  0  0  0  0
  -10.0670   27.3380   23.3790 N   0  3  0  0  0  0
   -9.1350   21.9950   26.3360 N   0  0  0  0  0  0
   -9.7360   21.1130   27.3290 C   0  0  2  0  0  0
  -10.5690   21.9490   28.2960 C   0  0  0  0  0  0
  -10.1210   22.9930   28.7520 O   0  0  0  0  0  0
   -8.6640   20.3930   28.1740 C   0  0  2  0  0  0
   -7.5950   19.7740   27.2800 C   0  0  0  0  0  0
   -9.3300   19.3260   29.0970 C   0  0  0  0  0  0
   -8.0350   18.4780   26.5660 C   0  0  0  0  0  0
  -11.7700   21.4800   28.6090 N   0  0  0  0  0  0
  -12.5530   22.0900   29.6920 C   0  0  2  0  0  0
  -11.9950   21.6290   31.0580 C   0  0  0  0  0  0
  -11.9500   20.4100   31.3380 O   0  0  0  0  0  0
  -13.9940   21.6470   29.5800 C   0  0  0  0  0  0
  -14.9210   22.4240   30.4850 C   0  0  0  0  0  0
  -16.0380   21.5290   30.9160 C   0  0  0  0  0  0
  -16.9420   22.1950   31.8520 N   0  0  0  0  0  0
  -18.1390   21.7210   32.1820 C   0  0  0  0  0  0
  -18.5680   20.5790   31.6400 N   0  0  0  0  0  0
  -18.9090   22.3890   33.0400 N   0  0  0  0  0  0
  -11.5300   22.5640   31.8670 N   0  0  0  0  0  0
  -11.1490   22.2120   33.2360 C   0  0  2  0  0  0
  -12.3790   21.7690   34.0570 C   0  0  0  0  0  0
  -13.2650   22.5770   34.3080 O   0  0  0  0  0  0
  -10.4220   23.3750   33.9200 C   0  0  0  0  0  0
   -9.9470   23.0420   35.3340 C   0  0  0  0  0  0
   -9.1460   24.1790   35.9730 C   0  0  0  0  0  0
   -7.8110   24.2770   35.3860 N   0  0  0  0  0  0
   -7.4230   25.2330   34.5500 C   0  0  0  0  0  0
   -8.2600   26.2120   34.2240 N   0  0  0  0  0  0
   -6.1800   25.2340   34.0720 N   0  0  0  0  0  0
  -12.4430   20.4920   34.4410 N   0  0  0  0  0  0
  -13.5040   19.9940   35.3560 C   0  0  2  0  0  0
  -13.2020   20.2290   36.8390 C   0  0  0  0  0  0
  -12.1520   20.7610   37.1870 O   0  0  0  0  0  0
  -13.7490   18.4960   35.1670 C   0  0  0  0  0  0
  -14.4100   17.9930   33.8750 C   0  0  0  0  0  0
  -14.5130   16.4710   33.9010 C   0  0  0  0  0  0
  -15.7880   18.6130   33.6480 C   0  0  0  0  0  0
  -14.1230   19.8090   37.7130 N   0  0  0  0  0  0
  -13.9240   19.9020   39.1680 C   0  0  2  0  0  0
  -13.4750   18.5650   39.7590 C   0  0  0  0  0  0
  -13.5120   17.5420   39.0720 O   0  0  0  0  0  0
  -15.1950   20.3760   39.8850 C   0  0  0  0  0  0
  -15.9920   19.2690   40.2670 O   0  0  0  0  0  0
  -13.0660   18.5950   41.0310 N   0  0  0  0  0  0
  -12.5280   17.4300   41.7540 C   0  0  2  0  0  0
  -11.1180   17.0320   41.3000 C   0  0  0  0  0  0
  -10.1698   17.8617   41.2980 O   0  0  0  0  0  0
  -13.4770   16.2280   41.6770 C   0  0  0  0  0  0
  -14.6090   16.1110   42.6980 C   0  0  0  0  0  0
  -15.5820   17.2860   42.6330 C   0  0  0  0  0  0
  -15.3400   14.8050   42.4720 C   0  0  0  0  0  0
  -10.9033   15.8497   40.9209 O   0  0  0  0  0  0
   -2.6037   38.5772    3.3788 H   0  0  0  0  0  0
   -3.8339   39.6026    4.1924 H   0  0  0  0  0  0
   -4.0514   37.8208    4.1263 H   0  0  0  0  0  0
   -1.8779   39.3301    5.4962 H   0  0  0  0  0  0
   -4.3088   37.7697    6.6078 H   0  0  0  0  0  0
   -4.8898   40.0489    5.7298 H   0  0  0  0  0  0
   -2.2421   37.5360    8.0130 H   0  0  0  0  0  0
   -3.5035   38.5344    8.8120 H   0  0  0  0  0  0
   -2.0873   39.3254    8.0403 H   0  0  0  0  0  0
   -0.0477   38.1365    5.6723 H   0  0  0  0  0  0
   -0.2676   35.2521    4.9625 H   0  0  0  0  0  0
    1.7380   36.5774    4.4015 H   0  0  0  0  0  0
    2.0505   36.8661    6.1467 H   0  0  0  0  0  0
    1.9108   34.4562    3.4898 H   0  0  0  0  0  0
    3.0253   33.1839    4.3669 H   0  0  0  0  0  0
   -0.6218   33.5378    6.3409 H   0  0  0  0  0  0
   -0.2484   34.3093    9.2493 H   0  0  0  0  0  0
   -2.2636   32.8979    9.8803 H   0  0  0  0  0  0
   -2.4620   35.3531    9.5514 H   0  0  0  0  0  0
   -3.9744   34.4808    9.1290 H   0  0  0  0  0  0
   -2.8868   35.0742    7.8284 H   0  0  0  0  0  0
   -2.2371   31.3816    7.9272 H   0  0  0  0  0  0
   -2.7552   32.7414    6.8740 H   0  0  0  0  0  0
   -3.8428   32.1479    8.1746 H   0  0  0  0  0  0
   -0.0350   32.5726   10.8205 H   0  0  0  0  0  0
    1.0616   29.9931    9.5021 H   0  0  0  0  0  0
    2.9461   31.5038   10.0996 H   0  0  0  0  0  0
    2.3008   31.6544   11.7691 H   0  0  0  0  0  0
    4.1175   29.9178   11.6617 H   0  0  0  0  0  0
    0.2345   28.1565   10.4599 H   0  0  0  0  0  0
   -1.6116   28.7885   12.8069 H   0  0  0  0  0  0
   -1.5690   26.3193   10.9658 H   0  0  0  0  0  0
   -2.8005   26.6642   12.2272 H   0  0  0  0  0  0
   -2.3941   28.1425    9.6267 H   0  0  0  0  0  0
   -3.4086   25.8757    9.4671 H   0  0  0  0  0  0
   -4.6087   27.1709    9.1368 H   0  0  0  0  0  0
   -4.6058   26.3332   10.7258 H   0  0  0  0  0  0
   -3.0319   29.6331   11.4474 H   0  0  0  0  0  0
   -4.3789   28.5271   11.8820 H   0  0  0  0  0  0
   -4.3818   29.3648   10.2930 H   0  0  0  0  0  0
   -1.6341   27.5689   14.7382 H   0  0  0  0  0  0
    0.5110   25.3951   14.7910 H   0  0  0  0  0  0
    1.2682   26.1741   17.0273 H   0  0  0  0  0  0
    1.5728   27.3779   15.7293 H   0  0  0  0  0  0
   -0.2931   26.6037   18.7854 H   0  0  0  0  0  0
    0.3027   29.4721   15.6338 H   0  0  0  0  0  0
   -1.4678   28.2965   20.1383 H   0  0  0  0  0  0
   -0.8856   31.2019   17.0048 H   0  0  0  0  0  0
   -2.2747   30.4715   20.4304 H   0  0  0  0  0  0
   -2.8250   23.1893   16.5617 H   0  0  0  0  0  0
   -1.4101   21.0245   17.6008 H   0  0  0  0  0  0
   -1.5876   21.2616   15.8291 H   0  0  0  0  0  0
    0.7439   21.9850   17.6517 H   0  0  0  0  0  0
    0.7757   21.1998   16.0364 H   0  0  0  0  0  0
    0.4411   23.2613   14.8940 H   0  0  0  0  0  0
    1.2313   23.9243   16.3646 H   0  0  0  0  0  0
   -4.0085   23.0099   18.2412 H   0  0  0  0  0  0
   -2.6421   23.3578   20.9559 H   0  0  0  0  0  0
   -4.9148   25.0449   19.7883 H   0  0  0  0  0  0
   -5.6359   24.1803   21.9272 H   0  0  0  0  0  0
   -5.3225   25.9486   21.9658 H   0  0  0  0  0  0
   -4.1350   24.8101   22.6870 H   0  0  0  0  0  0
   -2.5568   25.8416   19.4800 H   0  0  0  0  0  0
   -2.3290   25.7904   21.2611 H   0  0  0  0  0  0
   -3.5166   26.9289   20.5398 H   0  0  0  0  0  0
   -3.7727   22.2534   22.6619 H   0  0  0  0  0  0
   -6.1391   20.7196   21.5136 H   0  0  0  0  0  0
   -4.4069   20.0333   23.9813 H   0  0  0  0  0  0
   -6.7294   19.1743   24.0821 H   0  0  0  0  0  0
   -5.5414   17.8462   23.8553 H   0  0  0  0  0  0
   -6.5177   18.4254   22.4631 H   0  0  0  0  0  0
   -3.1416   19.8509   21.8476 H   0  0  0  0  0  0
   -4.4418   18.8138   21.1691 H   0  0  0  0  0  0
   -3.4656   18.2346   22.5613 H   0  0  0  0  0  0
   -8.1655   21.4889   22.2214 H   0  0  0  0  0  0
   -7.9585   23.3240   24.6407 H   0  0  0  0  0  0
  -10.2194   22.8091   22.5871 H   0  0  0  0  0  0
  -10.2964   24.0497   23.8838 H   0  0  0  0  0  0
   -8.1184   25.0001   22.9220 H   0  0  0  0  0  0
   -8.3758   23.9154   21.5135 H   0  0  0  0  0  0
   -9.1826   26.2998   21.2576 H   0  0  0  0  0  0
  -10.3932   25.0170   20.9176 H   0  0  0  0  0  0
  -11.6729   26.4695   22.2166 H   0  0  0  0  0  0
  -11.0200   25.3988   23.5027 H   0  0  0  0  0  0
  -10.7453   27.8023   24.1100 H   0  0  0  0  0  0
   -9.8052   28.0728   22.6034 H   0  0  0  0  0  0
   -9.1524   27.0020   23.8894 H   0  0  0  0  0  0
   -8.5009   22.8343   26.6578 H   0  0  0  0  0  0
  -10.3359   20.4003   26.7441 H   0  0  0  0  0  0
   -8.1496   21.1358   28.8014 H   0  0  0  0  0  0
   -7.3114   20.4921   26.4965 H   0  0  0  0  0  0
   -6.7111   19.5234   27.8850 H   0  0  0  0  0  0
  -10.0931   19.8093   29.7248 H   0  0  0  0  0  0
   -8.5638   18.8671   29.7391 H   0  0  0  0  0  0
   -9.8026   18.5493   28.4778 H   0  0  0  0  0  0
   -7.2078   18.1020   25.9461 H   0  0  0  0  0  0
   -8.9055   18.6887   25.9273 H   0  0  0  0  0  0
   -8.3052   17.7199   27.3159 H   0  0  0  0  0  0
  -12.1783   20.6260   28.0488 H   0  0  0  0  0  0
  -12.4810   23.1807   29.5688 H   0  0  0  0  0  0
  -14.3413   21.7869   28.5457 H   0  0  0  0  0  0
  -14.0732   20.5843   29.8528 H   0  0  0  0  0  0
  -14.3640   22.7748   31.3663 H   0  0  0  0  0  0
  -15.3264   23.2888   29.9393 H   0  0  0  0  0  0
  -16.6209   21.2202   30.0357 H   0  0  0  0  0  0
  -15.6240   20.6389   31.4122 H   0  0  0  0  0  0
  -16.6435   23.1419   32.3255 H   0  0  0  0  0  0
  -17.9281   20.0316   30.9322 H   0  0  0  0  0  0
  -19.5614   20.1853   31.9012 H   0  0  0  0  0  0
  -18.5504   23.3296   33.4836 H   0  0  0  0  0  0
  -11.4283   23.6020   31.5174 H   0  0  0  0  0  0
  -10.4525   21.3674   33.1288 H   0  0  0  0  0  0
   -9.5363   23.6519   33.3293 H   0  0  0  0  0  0
  -11.0991   24.2389   33.9925 H   0  0  0  0  0  0
  -10.8178   22.8422   35.9757 H   0  0  0  0  0  0
   -9.3017   22.1517   35.3039 H   0  0  0  0  0  0
   -9.6712   25.1322   35.8134 H   0  0  0  0  0  0
   -9.0429   23.9934   37.0523 H   0  0  0  0  0  0
   -7.0464   23.5247   35.6298 H   0  0  0  0  0  0
   -9.2869   26.2119   34.6184 H   0  0  0  0  0  0
   -5.4865   24.4238   34.3415 H   0  0  0  0  0  0
   -5.8468   26.0450   33.4077 H   0  0  0  0  0  0
  -11.6779   19.8006   34.0582 H   0  0  0  0  0  0
  -14.3782   20.5922   35.0596 H   0  0  0  0  0  0
  -12.7893   17.9598   35.2058 H   0  0  0  0  0  0
  -14.4072   18.1282   35.9679 H   0  0  0  0  0  0
  -13.7757   18.3017   33.0310 H   0  0  0  0  0  0
  -13.5149   16.0387   34.0650 H   0  0  0  0  0  0
  -14.9139   16.1142   32.9408 H   0  0  0  0  0  0
  -15.1845   16.1628   34.7160 H   0  0  0  0  0  0
  -15.6986   19.7092   33.6316 H   0  0  0  0  0  0
  -16.4639   18.3123   34.4621 H   0  0  0  0  0  0
  -16.1934   18.2637   32.6869 H   0  0  0  0  0  0
  -15.0541   19.3826   37.3114 H   0  0  0  0  0  0
  -13.1254   20.6497   39.2830 H   0  0  0  0  0  0
  -14.9179   20.9440   40.7853 H   0  0  0  0  0  0
  -15.7782   21.0199   39.2102 H   0  0  0  0  0  0
  -16.9434   19.4322   40.7945 H   0  0  0  0  0  0
  -13.1506   19.5668   41.5394 H   0  0  0  0  0  0
  -12.4643   17.7899   42.7915 H   0  0  0  0  0  0
  -13.9843   16.2233   40.7010 H   0  0  0  0  0  0
  -12.9014   15.2982   41.7956 H   0  0  0  0  0  0
  -14.1694   16.1218   43.7063 H   0  0  0  0  0  0
  -15.0342   18.2253   42.7992 H   0  0  0  0  0  0
  -16.3517   17.1680   43.4099 H   0  0  0  0  0  0
  -16.0610   17.3111   41.6431 H   0  0  0  0  0  0
  -14.6246   13.9709   42.5222 H   0  0  0  0  0  0
  -15.8179   14.8190   41.4814 H   0  0  0  0  0  0
  -16.1087   14.6760   43.2482 H   0  0  0  0  0  0
   -9.8966   15.5515   40.5929 H   0  0  0  0  0  0
  1  2  1  0  0  0
  1132  1  0  0  0
  1133  1  0  0  0
  1134  1  0  0  0
  2  3  1  0  0  0
  2  5  1  0  0  0
  2135  1  0  0  0
  3  4  2  0  0  0
  3  8  1  0  0  0
  5  6  1  0  0  0
  5  7  1  0  0  0
  5136  1  0  0  0
  6137  1  0  0  0
  7138  1  0  0  0
  7139  1  0  0  0
  7140  1  0  0  0
  8  9  1  0  0  0
  8141  1  0  0  0
  9 10  1  0  0  0
  9 12  1  0  0  0
  9142  1  0  0  0
 10 11  2  0  0  0
 10 16  1  0  0  0
 12 13  1  0  0  0
 12143  1  0  0  0
 12144  1  0  0  0
 13 14  2  0  0  0
 13 15  1  0  0  0
 15145  1  0  0  0
 15146  1  0  0  0
 16 17  1  0  0  0
 16147  1  0  0  0
 17 18  1  0  0  0
 17 20  1  0  0  0
 17148  1  0  0  0
 18 19  2  0  0  0
 18 23  1  0  0  0
 20 21  1  0  0  0
 20 22  1  0  0  0
 20149  1  0  0  0
 21150  1  0  0  0
 21151  1  0  0  0
 21152  1  0  0  0
 22153  1  0  0  0
 22154  1  0  0  0
 22155  1  0  0  0
 23 24  1  0  0  0
 23156  1  0  0  0
 24 25  1  0  0  0
 24 27  1  0  0  0
 24157  1  0  0  0
 25 26  2  0  0  0
 25 29  1  0  0  0
 27 28  1  0  0  0
 27158  1  0  0  0
 27159  1  0  0  0
 28160  1  0  0  0
 29 30  1  0  0  0
 29161  1  0  0  0
 30 31  1  0  0  0
 30 33  1  0  0  0
 30162  1  0  0  0
 31 32  2  0  0  0
 31 37  1  0  0  0
 33 34  1  0  0  0
 33163  1  0  0  0
 33164  1  0  0  0
 34 35  1  0  0  0
 34 36  1  0  0  0
 34165  1  0  0  0
 35166  1  0  0  0
 35167  1  0  0  0
 35168  1  0  0  0
 36169  1  0  0  0
 36170  1  0  0  0
 36171  1  0  0  0
 37 38  1  0  0  0
 37172  1  0  0  0
 38 39  1  0  0  0
 38 41  1  0  0  0
 38173  1  0  0  0
 39 40  2  0  0  0
 39 49  1  0  0  0
 41 42  1  0  0  0
 41174  1  0  0  0
 41175  1  0  0  0
 42 43  2  0  0  0
 42 44  1  0  0  0
 43 45  1  0  0  0
 43176  1  0  0  0
 44 46  2  0  0  0
 44177  1  0  0  0
 45 47  2  0  0  0
 45178  1  0  0  0
 46 47  1  0  0  0
 46179  1  0  0  0
 47 48  1  0  0  0
 48180  1  0  0  0
 49 50  1  0  0  0
 49 55  1  0  0  0
 50 51  1  0  0  0
 50 53  1  0  0  0
 50181  1  0  0  0
 51 52  2  0  0  0
 51 56  1  0  0  0
 53 54  1  0  0  0
 53182  1  0  0  0
 53183  1  0  0  0
 54 55  1  0  0  0
 54184  1  0  0  0
 54185  1  0  0  0
 55186  1  0  0  0
 55187  1  0  0  0
 56 57  1  0  0  0
 56188  1  0  0  0
 57 58  1  0  0  0
 57 60  1  0  0  0
 57189  1  0  0  0
 58 59  2  0  0  0
 58 63  1  0  0  0
 60 61  1  0  0  0
 60 62  1  0  0  0
 60190  1  0  0  0
 61191  1  0  0  0
 61192  1  0  0  0
 61193  1  0  0  0
 62194  1  0  0  0
 62195  1  0  0  0
 62196  1  0  0  0
 63 64  1  0  0  0
 63197  1  0  0  0
 64 65  1  0  0  0
 64 67  1  0  0  0
 64198  1  0  0  0
 65 66  2  0  0  0
 65 70  1  0  0  0
 67 68  1  0  0  0
 67 69  1  0  0  0
 67199  1  0  0  0
 68200  1  0  0  0
 68201  1  0  0  0
 68202  1  0  0  0
 69203  1  0  0  0
 69204  1  0  0  0
 69205  1  0  0  0
 70 71  1  0  0  0
 70206  1  0  0  0
 71 72  1  0  0  0
 71 74  1  0  0  0
 71207  1  0  0  0
 72 73  2  0  0  0
 72 79  1  0  0  0
 74 75  1  0  0  0
 74208  1  0  0  0
 74209  1  0  0  0
 75 76  1  0  0  0
 75210  1  0  0  0
 75211  1  0  0  0
 76 77  1  0  0  0
 76212  1  0  0  0
 76213  1  0  0  0
 77 78  1  0  0  0
 77214  1  0  0  0
 77215  1  0  0  0
 78216  1  0  0  0
 78217  1  0  0  0
 78218  1  0  0  0
 79 80  1  0  0  0
 79219  1  0  0  0
 80 81  1  0  0  0
 80 83  1  0  0  0
 80220  1  0  0  0
 81 82  2  0  0  0
 81 87  1  0  0  0
 83 84  1  0  0  0
 83 85  1  0  0  0
 83221  1  0  0  0
 84 86  1  0  0  0
 84222  1  0  0  0
 84223  1  0  0  0
 85224  1  0  0  0
 85225  1  0  0  0
 85226  1  0  0  0
 86227  1  0  0  0
 86228  1  0  0  0
 86229  1  0  0  0
 87 88  1  0  0  0
 87230  1  0  0  0
 88 89  1  0  0  0
 88 91  1  0  0  0
 88231  1  0  0  0
 89 90  2  0  0  0
 89 98  1  0  0  0
 91 92  1  0  0  0
 91232  1  0  0  0
 91233  1  0  0  0
 92 93  1  0  0  0
 92234  1  0  0  0
 92235  1  0  0  0
 93 94  1  0  0  0
 93236  1  0  0  0
 93237  1  0  0  0
 94 95  1  0  0  0
 94238  1  0  0  0
 95 96  1  0  0  0
 95 97  2  0  0  0
 96239  1  0  0  0
 96240  1  0  0  0
 97241  1  0  0  0
 98 99  1  0  0  0
 98242  1  0  0  0
 99100  1  0  0  0
 99102  1  0  0  0
 99243  1  0  0  0
100101  2  0  0  0
100109  1  0  0  0
102103  1  0  0  0
102244  1  0  0  0
102245  1  0  0  0
103104  1  0  0  0
103246  1  0  0  0
103247  1  0  0  0
104105  1  0  0  0
104248  1  0  0  0
104249  1  0  0  0
105106  1  0  0  0
105250  1  0  0  0
106107  2  0  0  0
106108  1  0  0  0
107251  1  0  0  0
108252  1  0  0  0
108253  1  0  0  0
109110  1  0  0  0
109254  1  0  0  0
110111  1  0  0  0
110113  1  0  0  0
110255  1  0  0  0
111112  2  0  0  0
111117  1  0  0  0
113114  1  0  0  0
113256  1  0  0  0
113257  1  0  0  0
114115  1  0  0  0
114116  1  0  0  0
114258  1  0  0  0
115259  1  0  0  0
115260  1  0  0  0
115261  1  0  0  0
116262  1  0  0  0
116263  1  0  0  0
116264  1  0  0  0
117118  1  0  0  0
117265  1  0  0  0
118119  1  0  0  0
118121  1  0  0  0
118266  1  0  0  0
119120  2  0  0  0
119123  1  0  0  0
121122  1  0  0  0
121267  1  0  0  0
121268  1  0  0  0
122269  1  0  0  0
123124  1  0  0  0
123270  1  0  0  0
124125  1  0  0  0
124127  1  0  0  0
124271  1  0  0  0
125126  2  0  0  0
125131  1  0  0  0
127128  1  0  0  0
127272  1  0  0  0
127273  1  0  0  0
128129  1  0  0  0
128130  1  0  0  0
128274  1  0  0  0
129275  1  0  0  0
129276  1  0  0  0
129277  1  0  0  0
130278  1  0  0  0
130279  1  0  0  0
130280  1  0  0  0
131281  1  0  0  0
M  CHG  2   1   1  78   1
M  END
> <s_m_source_file>
../3q6s_ligand.sdf

> <i_m_source_file_index>
1

> <s_epik_input>
W09IXVtDQEhdKFtDSDNdKVtDQEhdKFtOSDMrXSlDKD1PKVtOSF1bQ0BASF0oW0NIMl1DKD1PKVtOSDJdKUMoPU8pW05IXVtDQEBIXShbQ0hdKFtDSDNdKVtDSDNdKUMoPU8pW05IXVtDQEBIXShbQ0gyXVtPSF0pQyg9TylbTkhdW0NAQEhdKFtDSDJdW0NIXShbQ0gzXSlbQ0gzXSlDKD1PKVtOSF1bQ0BASF0oW0NIMl1jMVtjSF1bY0hdYyhbT0hdKVtjSF1bY0hdMSlDKD1PKU4yW0NAQEhdKFtDSDJdW0NIMl1bQ0gyXTIpQyg9TylbTkhdW0NAQEhdKFtDSF0oW0NIM10pW0NIM10pQyg9TylbTkhdW0NAQEhdKFtDSF0oW0NIM10pW0NIM10pQyg9TylbTkhdW0NAQEhdKFtDSDJdW0NIMl1bQ0gyXVtDSDJdW05IMytdKUMoPU8pW05IXVtDQEBIXShbQ0BASF0oW0NIM10pW0NIMl1bQ0gzXSlDKD1PKVtOSF1bQ0BASF0oW0NIMl1bQ0gyXVtDSDJdW05IXS9DKFtOSDJdKT1OXFtIXSlDKD1PKVtOSF1bQ0BASF0oW0NIMl1bQ0gyXVtDSDJdW05IXS9DKD1OXFtIXSlbTkgyXSlDKD1PKVtOSF1bQ0BASF0oW0NIMl1bQ0hdKFtDSDNdKVtDSDNdKUMoPU8pW05IXVtDQEBIXShbQ0gyXVtPSF0pQyg9TylbTkhdW0NASF0oQyg9TylbT0hdKVtDSDJdW0NIXShbQ0gzXSlbQ0gzXQ==

> <s_epik_cmdline>
J2VwaWtfYXBwJywgJy1pbWFlJywgJ2xpZ2FuZF9wcm8ubWFlJywgJy1vbWFlJywgJ2xpZ2FuZF9wcmVwLm1hZScsICctbXMnLCAnMScsICctcGgnLCAnNycsICctcGh0JywgJzAuNScsICctbnQn

> <s_epik_pKa_notes>
Molecule size exceeds maximum supported for generating protonation states

> <s_epik_Chemistry_Notes>
This compound has an imine and may undergo hydrolysis.

$$$$
