3q6w_ligand
                    3D
 Schrodinger Suite 2020-3.
 70 75  0  0  1  0            999 V2000
   -5.6000   -7.0780  -15.2230 C   0  0  0  0  0  0
   -6.3860   -8.6130  -16.8900 N   0  0  0  0  0  0
   -4.8230   -6.1970  -13.2410 O   0  0  0  0  0  0
   -6.6170   -7.7750  -15.8560 C   0  0  0  0  0  0
   -8.0340   -7.7080  -15.5540 C   0  0  0  0  0  0
   -8.7110   -6.7540  -14.8890 C   0  0  0  0  0  0
   -8.3180   -5.5750  -14.1670 C   0  0  0  0  0  0
   -6.9250   -5.3440  -13.7590 C   0  0  0  0  0  0
   -5.7460   -6.2180  -14.0470 C   0  0  0  0  0  0
   -4.3010   -7.2240  -15.6800 C   0  0  0  0  0  0
   -4.0510   -8.0540  -16.7550 C   0  0  0  0  0  0
   -5.1190   -8.7360  -17.3050 C   0  0  0  0  0  0
   -9.2330   -4.6700  -13.7780 C   0  0  0  0  0  0
   -8.8940   -3.5000  -12.9990 C   0  0  0  0  0  0
   -7.6390   -3.2650  -12.5840 C   0  0  0  0  0  0
   -6.5570   -4.1940  -12.8960 C   0  0  0  0  0  0
   -2.7090   -8.1840  -17.2860 C   0  0  0  0  0  0
   -7.1680   -2.1060  -11.7920 C   0  0  0  0  0  0
   -6.5250   -1.0660  -12.6940 C   0  0  0  0  0  0
   -5.0890   -1.3600  -13.0670 C   0  0  0  0  0  0
   -4.6470   -0.4730  -14.0310 N   0  0  0  0  0  0
   -4.4020   -2.2610  -12.5900 O   0  0  0  0  0  0
   -2.3800   -8.8230  -18.4630 C   0  0  0  0  0  0
   -1.0300   -8.6380  -18.6100 N   0  0  0  0  0  0
   -0.4660   -7.9000  -17.6450 N   0  0  0  0  0  0
   -1.4950   -7.6230  -16.8230 C   0  0  0  0  0  0
   -0.2020   -9.1230  -19.7070 C   0  0  0  0  0  0
    0.9190  -10.0110  -19.1880 C   0  0  0  0  0  0
    1.9230  -10.3500  -20.2840 C   0  0  0  0  0  0
    2.4250   -9.0730  -20.8470 N   0  3  0  0  0  0
    1.3480   -8.2810  -21.5000 C   0  0  0  0  0  0
    0.3670   -7.9060  -20.4130 C   0  0  0  0  0  0
   -3.2680   -0.4040  -14.4410 C   0  0  0  0  0  0
   -2.4670    0.5750  -13.6300 C   0  0  0  0  0  0
   -1.6360    1.3800  -14.3100 N   0  0  0  0  0  0
   -0.9210    2.2550  -13.5880 C   0  0  0  0  0  0
   -0.9860    2.3730  -12.2150 C   0  0  0  0  0  0
   -1.8470    1.5330  -11.5390 C   0  0  0  0  0  0
   -2.5960    0.6230  -12.2570 C   0  0  0  0  0  0
   -8.6322   -8.5446  -15.9150 H   0  0  0  0  0  0
   -9.7899   -6.9087  -14.9003 H   0  0  0  0  0  0
   -3.4839   -6.6891  -15.1960 H   0  0  0  0  0  0
   -4.9171   -9.4186  -18.1305 H   0  0  0  0  0  0
  -10.2740   -4.8248  -14.0618 H   0  0  0  0  0  0
   -9.6791   -2.7891  -12.7415 H   0  0  0  0  0  0
   -5.5440   -4.0522  -12.5194 H   0  0  0  0  0  0
   -8.0212   -1.6467  -11.2713 H   0  0  0  0  0  0
   -6.4262   -2.4438  -11.0533 H   0  0  0  0  0  0
   -7.0914   -0.9957  -13.6343 H   0  0  0  0  0  0
   -6.5303   -0.0889  -12.1888 H   0  0  0  0  0  0
   -5.3911    0.1953  -14.4890 H   0  0  0  0  0  0
   -3.0506   -9.3605  -19.1334 H   0  0  0  0  0  0
   -1.4042   -7.0361  -15.9090 H   0  0  0  0  0  0
   -0.8364   -9.7221  -20.3768 H   0  0  0  0  0  0
    1.4526   -9.4921  -18.3781 H   0  0  0  0  0  0
    0.4947  -10.9506  -18.8044 H   0  0  0  0  0  0
    2.7525  -10.9308  -19.8544 H   0  0  0  0  0  0
    1.4261  -10.9434  -21.0657 H   0  0  0  0  0  0
    2.8563   -8.4613  -20.0409 H   0  0  0  0  0  0
    3.1977   -9.2833  -21.6011 H   0  0  0  0  0  0
    1.7826   -7.3826  -21.9626 H   0  0  0  0  0  0
    0.8608   -8.8926  -22.2737 H   0  0  0  0  0  0
   -0.4513   -7.3340  -20.8748 H   0  0  0  0  0  0
    0.8921   -7.2713  -19.6840 H   0  0  0  0  0  0
   -2.8020   -1.3940  -14.3282 H   0  0  0  0  0  0
   -3.2138   -0.0911  -15.4942 H   0  0  0  0  0  0
   -0.2416    2.9188  -14.1228 H   0  0  0  0  0  0
   -0.3782    3.1046  -11.6826 H   0  0  0  0  0  0
   -1.9343    1.5874  -10.4539 H   0  0  0  0  0  0
   -3.2825   -0.0510  -11.7447 H   0  0  0  0  0  0
  1  4  2  0  0  0
  1  9  1  0  0  0
  1 10  1  0  0  0
  2  4  1  0  0  0
  2 12  2  0  0  0
  3  9  2  0  0  0
  4  5  1  0  0  0
  5  6  2  0  0  0
  5 40  1  0  0  0
  6  7  1  0  0  0
  6 41  1  0  0  0
  7  8  2  0  0  0
  7 13  1  0  0  0
  8  9  1  0  0  0
  8 16  1  0  0  0
 10 11  2  0  0  0
 10 42  1  0  0  0
 11 12  1  0  0  0
 11 17  1  0  0  0
 12 43  1  0  0  0
 13 14  2  0  0  0
 13 44  1  0  0  0
 14 15  1  0  0  0
 14 45  1  0  0  0
 15 16  2  0  0  0
 15 18  1  0  0  0
 16 46  1  0  0  0
 17 23  2  0  0  0
 17 26  1  0  0  0
 18 19  1  0  0  0
 18 47  1  0  0  0
 18 48  1  0  0  0
 19 20  1  0  0  0
 19 49  1  0  0  0
 19 50  1  0  0  0
 20 21  1  0  0  0
 20 22  2  0  0  0
 21 33  1  0  0  0
 21 51  1  0  0  0
 23 24  1  0  0  0
 23 52  1  0  0  0
 24 25  1  0  0  0
 24 27  1  0  0  0
 25 26  2  0  0  0
 26 53  1  0  0  0
 27 28  1  0  0  0
 27 32  1  0  0  0
 27 54  1  0  0  0
 28 29  1  0  0  0
 28 55  1  0  0  0
 28 56  1  0  0  0
 29 30  1  0  0  0
 29 57  1  0  0  0
 29 58  1  0  0  0
 30 31  1  0  0  0
 30 59  1  0  0  0
 30 60  1  0  0  0
 31 32  1  0  0  0
 31 61  1  0  0  0
 31 62  1  0  0  0
 32 63  1  0  0  0
 32 64  1  0  0  0
 33 34  1  0  0  0
 33 65  1  0  0  0
 33 66  1  0  0  0
 34 35  2  0  0  0
 34 39  1  0  0  0
 35 36  1  0  0  0
 36 37  2  0  0  0
 36 67  1  0  0  0
 37 38  1  0  0  0
 37 68  1  0  0  0
 38 39  2  0  0  0
 38 69  1  0  0  0
 39 70  1  0  0  0
M  CHG  1  30   1
M  END
> <s_m_source_file>
../3q6w_ligand.sdf

> <i_m_source_file_index>
1

> <s_epik_input>
W0NIMl0xW0NIMl1bTkgyK11bQ0gyXVtDSDJdW0NIXTFuKG5bY0hdMilbY0hdYzItYyhbY0hdMylbY0hdbmMoYzM0KVtjSF1bY0hdYzVjKGM0PU8pW2NIXWMoW2NIXVtjSF01KVtDSDJdW0NIMl1DKD1PKVtOSF1bQ0gyXWM2bltjSF1bY0hdW2NIXVtjSF02

> <s_epik_cmdline>
J2VwaWtfYXBwJywgJy1pbWFlJywgJ2xpZ2FuZF9wcm8ubWFlJywgJy1vbWFlJywgJ2xpZ2FuZF9wcmVwLm1hZScsICctbXMnLCAnMScsICctcGgnLCAnNycsICctcGh0JywgJzAuNScsICctbnQn

> <r_lp_tautomer_probability>
1

> <r_epik_Ionization_Penalty>
  0.0139

> <r_epik_Ionization_Penalty_Charging>
  0.0019

> <r_epik_Ionization_Penalty_Neutral>
  0.0120

> <r_epik_State_Penalty>
  0.0083

> <r_epik_Charging_Adjusted_Penalty>
0.0101803967351454

> <i_epik_Tot_Q>
1

> <i_epik_Tot_abs_Q>
1

$$$$
