3q6z_ligand
                    3D
 Schrodinger Suite 2020-3.
 57 60  0  0  1  0            999 V2000
   18.0150   25.5180   15.6540 N   0  0  0  0  0  0
   17.9270   24.4720   16.4920 C   0  0  0  0  0  0
   17.0890   23.4510   16.2850 N   0  0  0  0  0  0
   16.2890   23.4600   15.2090 C   0  0  0  0  0  0
   16.3360   24.5230   14.2850 C   0  0  0  0  0  0
   17.2510   25.5890   14.5370 C   0  0  0  0  0  0
   17.4000   26.6520   13.7260 N   0  0  0  0  0  0
   15.4300   24.2200   13.3120 N   0  0  0  0  0  0
   14.8540   23.0470   13.6260 C   0  0  0  0  0  0
   15.3810   22.5840   14.7770 N   0  0  0  0  0  0
   15.0320   21.3330   15.5130 C   0  0  1  0  0  0
   13.6880   20.9140   14.9430 C   0  0  2  0  0  0
   12.6590   21.6580   15.6060 O   0  0  0  0  0  0
   13.6520   19.4450   15.3210 C   0  0  2  0  0  0
   13.2640   19.3480   16.6760 O   0  0  0  0  0  0
   15.9240   20.2410   15.2660 O   0  0  0  0  0  0
   15.1200   19.0080   15.1460 C   0  0  2  0  0  0
   15.4020   18.3070   13.7740 C   0  0  0  0  0  0
   14.7700   19.0290   12.6870 O   0  0  0  0  0  0
   15.4290   19.2230   11.2560 P   0  0  2  0  0  0
   16.6810   19.9870   11.4840 O   0  0  0  0  0  0
   14.4720   19.8250   10.2880 O   0  5  0  0  0  0
   15.8680   17.5870   10.8840 O   0  0  0  0  0  0
   15.1420   16.4690    9.8170 P   0  0  2  0  0  0
   13.7660   16.7060   10.3370 O   0  0  0  0  0  0
   16.0510   15.3940   10.3620 O   0  5  0  0  0  0
   15.6730   17.3990    8.6690 O   0  0  0  0  0  0
   16.8150   17.0280    7.9370 C   0  0  0  0  0  0
   16.6290   19.2720    7.3780 O   0  0  0  0  0  0
   17.1240   20.7250    5.7280 O   0  0  0  0  0  0
   17.6910   20.1980    6.9610 C   0  0  2  0  0  0
   19.9810   19.8330    5.9950 O   0  0  0  0  0  0
   18.9150   19.2790    6.8060 C   0  0  2  0  0  0
   17.9780   18.5080    4.6610 O   0  0  0  0  0  0
   18.2350   18.1310    6.0500 C   0  0  2  0  0  0
   16.8990   17.9980    6.7850 C   0  0  1  0  0  0
   18.5643   24.4549   17.3761 H   0  0  0  0  0  0
   18.1246   27.4399   13.9795 H   0  0  0  0  0  0
   16.7973   26.7333   12.8094 H   0  0  0  0  0  0
   14.0813   22.5480   13.0412 H   0  0  0  0  0  0
   15.1038   21.5142   16.5956 H   0  0  0  0  0  0
   13.5035   21.1164   13.8776 H   0  0  0  0  0  0
   12.5612   22.7393   15.4292 H   0  0  0  0  0  0
   12.9135   18.8262   14.7903 H   0  0  0  0  0  0
   12.2423   19.6231   16.9766 H   0  0  0  0  0  0
   15.4005   18.2966   15.9367 H   0  0  0  0  0  0
   16.4868   18.2750   13.5948 H   0  0  0  0  0  0
   15.0038   17.2819   13.7973 H   0  0  0  0  0  0
   17.7029   17.0978    8.5825 H   0  0  0  0  0  0
   16.7017   15.9938    7.5799 H   0  0  0  0  0  0
   16.2476   21.3887    5.7653 H   0  0  0  0  0  0
   17.9552   21.0577    7.5944 H   0  0  0  0  0  0
   20.5838   20.6704    6.3763 H   0  0  0  0  0  0
   19.4657   19.0654    7.7339 H   0  0  0  0  0  0
   18.8182   18.6529    3.9660 H   0  0  0  0  0  0
   18.8372   17.2129    5.9827 H   0  0  0  0  0  0
   16.1666   17.6721    6.0317 H   0  0  0  0  0  0
  1  2  1  0  0  0
  1  6  2  0  0  0
  2  3  2  0  0  0
  2 37  1  0  0  0
  3  4  1  0  0  0
  4  5  2  0  0  0
  4 10  1  0  0  0
  5  6  1  0  0  0
  5  8  1  0  0  0
  6  7  1  0  0  0
  7 38  1  0  0  0
  7 39  1  0  0  0
  8  9  2  0  0  0
  9 10  1  0  0  0
  9 40  1  0  0  0
 10 11  1  0  0  0
 11 12  1  0  0  0
 11 16  1  0  0  0
 11 41  1  0  0  0
 12 13  1  0  0  0
 12 14  1  0  0  0
 12 42  1  0  0  0
 13 43  1  0  0  0
 14 15  1  0  0  0
 14 17  1  0  0  0
 14 44  1  0  0  0
 15 45  1  0  0  0
 16 17  1  0  0  0
 17 18  1  0  0  0
 17 46  1  0  0  0
 18 19  1  0  0  0
 18 47  1  0  0  0
 18 48  1  0  0  0
 19 20  1  0  0  0
 20 21  2  0  0  0
 20 22  1  0  0  0
 20 23  1  0  0  0
 23 24  1  0  0  0
 24 25  2  0  0  0
 24 26  1  0  0  0
 24 27  1  0  0  0
 27 28  1  0  0  0
 28 36  1  0  0  0
 28 49  1  0  0  0
 28 50  1  0  0  0
 29 31  1  0  0  0
 29 36  1  0  0  0
 30 31  1  0  0  0
 30 51  1  0  0  0
 31 33  1  0  0  0
 31 52  1  0  0  0
 32 33  1  0  0  0
 32 53  1  0  0  0
 33 35  1  0  0  0
 33 54  1  0  0  0
 34 35  1  0  0  0
 34 55  1  0  0  0
 35 36  1  0  0  0
 35 56  1  0  0  0
 36 57  1  0  0  0
M  CHG  2  22  -1  26  -1
M  END
> <s_m_source_file>
../3q6z_ligand.sdf

> <i_m_source_file_index>
1

> <s_epik_input>
bjFbY0hdbmMoW05IMl0pYyhjMTIpbltjSF1uMltDQEhdM1tDQEhdKFtPSF0pW0NASF0oW09IXSlbQ0BIXShPMylbQ0gyXU9bUEBdKD1PKShbT0hdKU9bUEBdKD1PKShbT0hdKU9bQ0gyXVtDQEBIXShPW0NAQEhdNFtPSF0pW0NAQEhdKFtPSF0pW0NASF00W09IXQ==

> <s_epik_cmdline>
J2VwaWtfYXBwJywgJy1pbWFlJywgJ2xpZ2FuZF9wcm8ubWFlJywgJy1vbWFlJywgJ2xpZ2FuZF9wcmVwLm1hZScsICctbXMnLCAnMScsICctcGgnLCAnNycsICctcGh0JywgJzAuNScsICctbnQn

> <r_lp_tautomer_probability>
1

> <r_epik_Ionization_Penalty>
  0.0012

> <r_epik_Ionization_Penalty_Charging>
  0.0006

> <r_epik_Ionization_Penalty_Neutral>
  0.0006

> <r_epik_State_Penalty>
 -0.0000

> <r_epik_Charging_Adjusted_Penalty>
0.000554568258717467

> <i_epik_Tot_Q>
-2

> <i_epik_Tot_abs_Q>
2

> <s_epik_Chemistry_Notes>
This compound contains an acetal/aminal-like group ( X-CH(R)-Y where X, Y are N, S, or O) that may be acid/base labile, releasing an aldehyde.

$$$$
