3q72_ligand
                    3D
 Schrodinger Suite 2020-3.
 46 48  0  0  1  0            999 V2000
   -5.1250   -3.0910   -0.9780 P   0  0  0  0  0  0
   -4.1650   -2.8370    0.1660 O   0  5  0  0  0  0
   -6.5440   -3.2810   -0.5090 O   0  0  0  0  0  0
   -4.5360   -4.2360   -1.7610 O   0  0  0  0  0  0
   -5.1500   -1.8640   -2.0010 N   0  0  1  0  0  0
   -3.8800   -1.1130   -2.6210 P   0  0  1  0  0  0
   -3.3110   -0.1630   -1.6390 O   0  5  0  0  0  0
   -2.9370   -2.1020   -3.1550 O   0  0  0  0  0  0
   -4.4050   -0.2300   -3.7510 O   0  0  0  0  0  0
   -4.4130   -0.5120   -5.2550 P   0  0  2  0  0  0
   -4.9390   -1.8740   -5.4650 O   0  5  0  0  0  0
   -3.1260   -0.1570   -5.8690 O   0  0  0  0  0  0
   -5.4510    0.4920   -5.8510 O   0  0  0  0  0  0
   -6.7550    0.5460   -5.3190 C   0  0  0  0  0  0
   -7.6960    1.1200   -6.3600 C   0  0  1  0  0  0
   -7.4160    2.5390   -6.5210 O   0  0  0  0  0  0
   -7.5410    0.4870   -7.7330 C   0  0  1  0  0  0
   -8.8370    0.1900   -8.2500 O   0  0  0  0  0  0
   -6.7480    1.5250   -8.5480 C   0  0  1  0  0  0
   -7.0940    1.6180   -9.9230 O   0  0  0  0  0  0
   -7.0780    2.8470   -7.8580 C   0  0  2  0  0  0
   -5.9770    3.8120   -7.8500 N   0  0  0  0  0  0
   -4.7150    3.6330   -7.3470 C   0  0  0  0  0  0
   -3.9520    4.6770   -7.4890 N   0  0  0  0  0  0
   -4.7520    5.6080   -8.1280 C   0  0  0  0  0  0
   -4.4670    6.9310   -8.5420 C   0  0  0  0  0  0
   -3.4180    7.5670   -8.4240 O   0  0  0  0  0  0
   -5.5530    7.5240   -9.1600 N   0  3  0  0  0  0
   -6.7670    6.9130   -9.3520 C   0  0  0  0  0  0
   -7.7060    7.6380   -9.9710 N   0  0  0  0  0  0
   -7.0500    5.6800   -8.9630 N   0  0  0  0  0  0
   -6.0000    5.0860   -8.3600 C   0  0  0  0  0  0
   -4.4046   -5.2185   -1.2840 H   0  0  0  0  0  0
   -5.6709   -2.1650   -2.9219 H   0  0  0  0  0  0
   -7.0818   -0.4682   -5.0458 H   0  0  0  0  0  0
   -6.7599    1.1862   -4.4245 H   0  0  0  0  0  0
   -8.7208    0.9621   -5.9928 H   0  0  0  0  0  0
   -7.0661   -0.5047   -7.7626 H   0  0  0  0  0  0
   -9.4799   -0.5401   -7.7365 H   0  0  0  0  0  0
   -5.6864    1.2526   -8.6419 H   0  0  0  0  0  0
   -6.9295    0.7595  -10.5908 H   0  0  0  0  0  0
   -7.9145    3.3559   -8.3593 H   0  0  0  0  0  0
   -4.3835    2.7081   -6.8750 H   0  0  0  0  0  0
   -7.4817    8.6639  -10.2986 H   0  0  0  0  0  0
   -8.7022    7.2081  -10.1523 H   0  0  0  0  0  0
   -5.4764    8.5547   -9.5364 H   0  0  0  0  0  0
  1  2  1  0  0  0
  1  3  2  0  0  0
  1  4  1  0  0  0
  1  5  1  0  0  0
  4 33  1  0  0  0
  5  6  1  0  0  0
  5 34  1  0  0  0
  6  7  1  0  0  0
  6  8  2  0  0  0
  6  9  1  0  0  0
  9 10  1  0  0  0
 10 11  1  0  0  0
 10 12  2  0  0  0
 10 13  1  0  0  0
 13 14  1  0  0  0
 14 15  1  0  0  0
 14 35  1  0  0  0
 14 36  1  0  0  0
 15 16  1  0  0  0
 15 17  1  0  0  0
 15 37  1  0  0  0
 16 21  1  0  0  0
 17 18  1  0  0  0
 17 19  1  0  0  0
 17 38  1  0  0  0
 18 39  1  0  0  0
 19 20  1  0  0  0
 19 21  1  0  0  0
 19 40  1  0  0  0
 20 41  1  0  0  0
 21 22  1  0  0  0
 21 42  1  0  0  0
 22 23  1  0  0  0
 22 32  1  0  0  0
 23 24  2  0  0  0
 23 43  1  0  0  0
 24 25  1  0  0  0
 25 26  1  0  0  0
 25 32  2  0  0  0
 26 27  2  0  0  0
 26 28  1  0  0  0
 28 29  1  0  0  0
 28 46  1  0  0  0
 29 30  1  0  0  0
 29 31  2  0  0  0
 30 44  1  0  0  0
 30 45  1  0  0  0
 31 32  1  0  0  0
M  CHG  4   2  -1   7  -1  11  -1  28   1
M  END
> <s_m_source_file>
../3q72_ligand.sdf

> <i_m_source_file_index>
1

> <s_epik_input>
W09IXVAoPU8pKFtPSF0pW05IXVtQQF0oPU8pKFtPSF0pT1tQQEBdKD1PKShbT0hdKU9bQ0gyXVtDQEhdMU9bQ0BIXShbQ0BIXShbT0hdKVtDQEBIXTFbT0hdKW4oW2NIXW4yKWMoYzIzKVtuSF1jKD1OXFtIXSlcW25IXWMzPU8=

> <s_epik_cmdline>
J2VwaWtfYXBwJywgJy1pbWFlJywgJ2xpZ2FuZF9wcm8ubWFlJywgJy1vbWFlJywgJ2xpZ2FuZF9wcmVwLm1hZScsICctbXMnLCAnMScsICctcGgnLCAnNycsICctcGh0JywgJzAuNScsICctbnQn

> <r_lp_tautomer_probability>
1

> <r_epik_Ionization_Penalty>
  2.8872

> <r_epik_Ionization_Penalty_Charging>
  2.3888

> <r_epik_Ionization_Penalty_Neutral>
  0.4985

> <r_epik_State_Penalty>
 -0.0000

> <r_epik_Charging_Adjusted_Penalty>
2.3887781483746

> <i_epik_Tot_Q>
-2

> <i_epik_Tot_abs_Q>
4

> <s_epik_Chemistry_Notes>
This compound has an imine and may undergo hydrolysis. This compound contains an acetal/aminal-like group ( X-CH(R)-Y where X, Y are N, S, or O) that may be acid/base labile, releasing an aldehyde.

$$$$
