3q7p_ligand
                    3D
 Schrodinger Suite 2020-3.
 46 48  0  0  1  0            999 V2000
   -5.4190   -2.4040    1.2440 P   0  0  0  0  0  0
   -4.7080   -2.0810   -0.0550 O   0  5  0  0  0  0
   -6.6960   -3.1790    1.0720 O   0  0  0  0  0  0
   -5.5480   -1.1020    2.0010 O   0  0  0  0  0  0
   -4.4770   -3.3270    2.1350 N   0  0  1  0  0  0
   -3.1280   -2.7640    2.7450 P   0  0  1  0  0  0
   -2.0440   -2.8330    1.7440 O   0  0  0  0  0  0
   -3.4530   -1.4500    3.3450 O   0  5  0  0  0  0
   -2.6560   -3.7040    3.8500 O   0  0  0  0  0  0
   -2.9570   -3.5330    5.3390 P   0  0  2  0  0  0
   -4.4110   -3.2810    5.4800 O   0  5  0  0  0  0
   -2.0110   -2.5700    5.9380 O   0  0  0  0  0  0
   -2.6720   -4.9390    5.9940 O   0  0  0  0  0  0
   -3.1800   -6.1440    5.4230 C   0  0  0  0  0  0
   -3.1010   -7.2710    6.4410 C   0  0  1  0  0  0
   -1.7240   -7.7360    6.5650 O   0  0  0  0  0  0
   -3.5370   -6.8880    7.8540 C   0  0  1  0  0  0
   -4.1600   -7.9970    8.4870 O   0  0  0  0  0  0
   -2.2140   -6.5550    8.5370 C   0  0  1  0  0  0
   -2.2460   -6.7750    9.9310 O   0  0  0  0  0  0
   -1.2560   -7.5460    7.8900 C   0  0  2  0  0  0
    0.1290   -7.0710    7.8670 N   0  0  0  0  0  0
    0.5760   -5.8510    7.4180 C   0  0  0  0  0  0
    1.8670   -5.6920    7.5480 N   0  0  0  0  0  0
    2.3130   -6.8740    8.1260 C   0  0  0  0  0  0
    3.6240   -7.2850    8.4990 C   0  0  0  0  0  0
    4.6980   -6.6790    8.3760 O   0  0  0  0  0  0
    3.6290   -8.5570    9.0580 N   0  3  0  0  0  0
    2.5100   -9.3250    9.2510 C   0  0  0  0  0  0
    2.7180  -10.5130    9.8350 N   0  0  0  0  0  0
    1.2820   -8.9670    8.8850 N   0  0  0  0  0  0
    1.2520   -7.7330    8.3300 C   0  0  0  0  0  0
   -6.1577   -0.2843    1.5890 H   0  0  0  0  0  0
   -5.0331   -3.6739    3.0184 H   0  0  0  0  0  0
   -4.2287   -5.9954    5.1262 H   0  0  0  0  0  0
   -2.5829   -6.4108    4.5385 H   0  0  0  0  0  0
   -3.7546   -8.0634    6.0475 H   0  0  0  0  0  0
   -4.3056   -6.1038    7.9196 H   0  0  0  0  0  0
   -5.1268   -8.3695    8.1174 H   0  0  0  0  0  0
   -1.9403   -5.4905    8.4929 H   0  0  0  0  0  0
   -2.8864   -6.1510   10.5717 H   0  0  0  0  0  0
   -1.2250   -8.5097    8.4194 H   0  0  0  0  0  0
   -0.0813   -5.0911    6.9953 H   0  0  0  0  0  0
    3.7341  -10.8071   10.1369 H   0  0  0  0  0  0
    1.8727  -11.1941   10.0125 H   0  0  0  0  0  0
    4.5770   -9.0125    9.3801 H   0  0  0  0  0  0
  1  2  1  0  0  0
  1  3  2  0  0  0
  1  4  1  0  0  0
  1  5  1  0  0  0
  4 33  1  0  0  0
  5  6  1  0  0  0
  5 34  1  0  0  0
  6  7  2  0  0  0
  6  8  1  0  0  0
  6  9  1  0  0  0
  9 10  1  0  0  0
 10 11  1  0  0  0
 10 12  2  0  0  0
 10 13  1  0  0  0
 13 14  1  0  0  0
 14 15  1  0  0  0
 14 35  1  0  0  0
 14 36  1  0  0  0
 15 16  1  0  0  0
 15 17  1  0  0  0
 15 37  1  0  0  0
 16 21  1  0  0  0
 17 18  1  0  0  0
 17 19  1  0  0  0
 17 38  1  0  0  0
 18 39  1  0  0  0
 19 20  1  0  0  0
 19 21  1  0  0  0
 19 40  1  0  0  0
 20 41  1  0  0  0
 21 22  1  0  0  0
 21 42  1  0  0  0
 22 23  1  0  0  0
 22 32  1  0  0  0
 23 24  2  0  0  0
 23 43  1  0  0  0
 24 25  1  0  0  0
 25 26  1  0  0  0
 25 32  2  0  0  0
 26 27  2  0  0  0
 26 28  1  0  0  0
 28 29  1  0  0  0
 28 46  1  0  0  0
 29 30  1  0  0  0
 29 31  2  0  0  0
 30 44  1  0  0  0
 30 45  1  0  0  0
 31 32  1  0  0  0
M  CHG  4   2  -1   8  -1  11  -1  28   1
M  END
> <s_m_source_file>
../3q7p_ligand.sdf

> <i_m_source_file_index>
1

> <s_epik_input>
W09IXVAoPU8pKFtPSF0pW05IXVtQQEBdKD1PKShbT0hdKU9bUEBAXSg9TykoW09IXSlPW0NIMl1bQ0BIXTFPW0NASF0oW0NASF0oW09IXSlbQ0BASF0xW09IXSluKFtjSF1uMiljKGMyMylbbkhdYyg9TlxbSF0pXFtuSF1jMz1P

> <s_epik_cmdline>
J2VwaWtfYXBwJywgJy1pbWFlJywgJ2xpZ2FuZF9wcm8ubWFlJywgJy1vbWFlJywgJ2xpZ2FuZF9wcmVwLm1hZScsICctbXMnLCAnMScsICctcGgnLCAnNycsICctcGh0JywgJzAuNScsICctbnQn

> <r_lp_tautomer_probability>
1

> <r_epik_Ionization_Penalty>
  2.8872

> <r_epik_Ionization_Penalty_Charging>
  2.3888

> <r_epik_Ionization_Penalty_Neutral>
  0.4985

> <r_epik_State_Penalty>
 -0.0000

> <r_epik_Charging_Adjusted_Penalty>
2.3887781483746

> <i_epik_Tot_Q>
-2

> <i_epik_Tot_abs_Q>
4

> <s_epik_Chemistry_Notes>
This compound has an imine and may undergo hydrolysis. This compound contains an acetal/aminal-like group ( X-CH(R)-Y where X, Y are N, S, or O) that may be acid/base labile, releasing an aldehyde.

$$$$
