3q7q_ligand
                    3D
 Schrodinger Suite 2020-3.
 46 48  0  0  1  0            999 V2000
   -4.3560  -16.0850    1.3970 P   0  0  0  0  0  0
   -3.8420  -16.0280   -0.0230 O   0  5  0  0  0  0
   -5.5150  -17.0220    1.6390 O   0  0  0  0  0  0
   -4.6200  -14.6500    1.7440 O   0  0  0  0  0  0
   -3.2080  -16.6010    2.3660 N   0  0  1  0  0  0
   -2.0110  -15.7160    2.9180 P   0  0  1  0  0  0
   -0.9220  -15.6540    1.9160 O   0  5  0  0  0  0
   -2.5470  -14.4370    3.4370 O   0  0  0  0  0  0
   -1.4510  -16.4650    4.1160 O   0  0  0  0  0  0
   -1.8920  -16.1360    5.5330 P   0  0  2  0  0  0
   -3.3660  -16.0170    5.5190 O   0  5  0  0  0  0
   -1.1170  -15.0010    6.0720 O   0  0  0  0  0  0
   -1.5460  -17.4090    6.3920 O   0  0  0  0  0  0
   -2.0170  -18.6720    5.9580 C   0  0  0  0  0  0
   -1.8550  -19.7210    7.0420 C   0  0  1  0  0  0
   -0.4510  -20.0430    7.1910 O   0  0  0  0  0  0
   -2.3420  -19.3130    8.4280 C   0  0  1  0  0  0
   -2.9020  -20.4330    9.0940 O   0  0  0  0  0  0
   -1.0680  -18.8660    9.1290 C   0  0  1  0  0  0
   -1.1580  -19.0340   10.5320 O   0  0  0  0  0  0
   -0.0630  -19.8440    8.5350 C   0  0  2  0  0  0
    1.3110  -19.3540    8.5370 N   0  0  0  0  0  0
    1.7860  -18.1880    7.9890 C   0  0  0  0  0  0
    3.0720  -18.0340    8.1510 N   0  0  0  0  0  0
    3.4740  -19.1690    8.8470 C   0  0  0  0  0  0
    4.7510  -19.5660    9.3090 C   0  0  0  0  0  0
    5.8290  -18.9690    9.1930 O   0  0  0  0  0  0
    4.7020  -20.7950    9.9640 N   0  3  0  0  0  0
    3.5630  -21.5430   10.1540 C   0  0  0  0  0  0
    3.7040  -22.7000   10.8130 N   0  0  0  0  0  0
    2.3620  -21.1850    9.7300 N   0  0  0  0  0  0
    2.3960  -19.9910    9.0900 C   0  0  0  0  0  0
   -6.4561  -16.8871    1.0857 H   0  0  0  0  0  0
   -3.6549  -16.9631    3.3036 H   0  0  0  0  0  0
   -3.0836  -18.5966    5.6997 H   0  0  0  0  0  0
   -1.4472  -18.9915    5.0730 H   0  0  0  0  0  0
   -2.4334  -20.5905    6.6965 H   0  0  0  0  0  0
   -3.1595  -18.5772    8.4409 H   0  0  0  0  0  0
   -3.8307  -20.8880    8.7192 H   0  0  0  0  0  0
   -0.8267  -17.7953    9.0564 H   0  0  0  0  0  0
   -1.8419  -18.4031   11.1187 H   0  0  0  0  0  0
   -0.0488  -20.7915    9.0935 H   0  0  0  0  0  0
    1.1543  -17.4656    7.4721 H   0  0  0  0  0  0
    4.6962  -23.0113   11.1717 H   0  0  0  0  0  0
    2.8277  -23.3393   10.9956 H   0  0  0  0  0  0
    5.6219  -21.2360   10.3754 H   0  0  0  0  0  0
  1  2  1  0  0  0
  1  3  1  0  0  0
  1  4  2  0  0  0
  1  5  1  0  0  0
  3 33  1  0  0  0
  5  6  1  0  0  0
  5 34  1  0  0  0
  6  7  1  0  0  0
  6  8  2  0  0  0
  6  9  1  0  0  0
  9 10  1  0  0  0
 10 11  1  0  0  0
 10 12  2  0  0  0
 10 13  1  0  0  0
 13 14  1  0  0  0
 14 15  1  0  0  0
 14 35  1  0  0  0
 14 36  1  0  0  0
 15 16  1  0  0  0
 15 17  1  0  0  0
 15 37  1  0  0  0
 16 21  1  0  0  0
 17 18  1  0  0  0
 17 19  1  0  0  0
 17 38  1  0  0  0
 18 39  1  0  0  0
 19 20  1  0  0  0
 19 21  1  0  0  0
 19 40  1  0  0  0
 20 41  1  0  0  0
 21 22  1  0  0  0
 21 42  1  0  0  0
 22 23  1  0  0  0
 22 32  1  0  0  0
 23 24  2  0  0  0
 23 43  1  0  0  0
 24 25  1  0  0  0
 25 26  1  0  0  0
 25 32  2  0  0  0
 26 27  2  0  0  0
 26 28  1  0  0  0
 28 29  1  0  0  0
 28 46  1  0  0  0
 29 30  1  0  0  0
 29 31  2  0  0  0
 30 44  1  0  0  0
 30 45  1  0  0  0
 31 32  1  0  0  0
M  CHG  4   2  -1   7  -1  11  -1  28   1
M  END
> <s_m_source_file>
../3q7q_ligand.sdf

> <i_m_source_file_index>
1

> <s_epik_input>
W09IXVAoPU8pKFtPSF0pW05IXVtQQF0oPU8pKFtPSF0pT1tQQEBdKD1PKShbT0hdKU9bQ0gyXVtDQEhdMU9bQ0BIXShbQ0BIXShbT0hdKVtDQEBIXTFbT0hdKW4oW2NIXW4yKWMoYzIzKVtuSF1jKD1OXFtIXSlcW25IXWMzPU8=

> <s_epik_cmdline>
J2VwaWtfYXBwJywgJy1pbWFlJywgJ2xpZ2FuZF9wcm8ubWFlJywgJy1vbWFlJywgJ2xpZ2FuZF9wcmVwLm1hZScsICctbXMnLCAnMScsICctcGgnLCAnNycsICctcGh0JywgJzAuNScsICctbnQn

> <r_lp_tautomer_probability>
1

> <r_epik_Ionization_Penalty>
  2.8872

> <r_epik_Ionization_Penalty_Charging>
  2.3888

> <r_epik_Ionization_Penalty_Neutral>
  0.4985

> <r_epik_State_Penalty>
 -0.0000

> <r_epik_Charging_Adjusted_Penalty>
2.3887781483746

> <i_epik_Tot_Q>
-2

> <i_epik_Tot_abs_Q>
4

> <s_epik_Chemistry_Notes>
This compound has an imine and may undergo hydrolysis. This compound contains an acetal/aminal-like group ( X-CH(R)-Y where X, Y are N, S, or O) that may be acid/base labile, releasing an aldehyde.

$$$$
