3q8d_ligand
                    3D
 Schrodinger Suite 2020-3.
 56 57  0  0  1  0            999 V2000
   31.4110   13.4070   68.4060 N   0  3  0  0  0  0
   31.9180   12.1680   67.7420 C   0  0  2  0  0  0
   32.1570   12.3200   66.2270 C   0  0  0  0  0  0
   32.8550   11.5000   65.6270 O   0  0  0  0  0  0
   31.0200   10.9360   68.0660 C   0  0  2  0  0  0
   31.8720    9.6810   68.2950 C   0  0  0  0  0  0
   29.9570   10.7150   66.9910 C   0  0  0  0  0  0
   31.1790    8.6090   69.1170 C   0  0  0  0  0  0
   31.6760   13.4260   65.6270 N   0  0  0  0  0  0
   31.9810   13.6520   64.2200 C   0  0  2  0  0  0
   32.8240   14.8990   64.0040 C   0  0  0  0  0  0
   34.0260   14.8120   63.7590 O   0  0  0  0  0  0
   30.5990   13.9000   63.6230 C   0  0  0  0  0  0
   29.8800   14.6410   64.7090 C   0  0  0  0  0  0
   30.4800   14.1870   66.0340 C   0  0  0  0  0  0
   32.1430   16.0280   63.8820 N   0  0  0  0  0  0
   32.5700   17.0450   62.9400 C   0  0  2  0  0  0
   33.3560   18.1480   63.6280 C   0  0  0  0  0  0
   32.9240   19.2940   63.7030 O   0  0  0  0  0  0
   31.3800   17.6010   62.1500 C   0  0  0  0  0  0
   30.4840   18.5070   62.9440 C   0  0  0  0  0  0
   30.8110   19.8390   63.1220 C   0  0  0  0  0  0
   29.2420   18.0660   63.3690 C   0  0  0  0  0  0
   29.9670   20.6910   63.8040 C   0  0  0  0  0  0
   28.3790   18.9170   64.0340 C   0  0  0  0  0  0
   28.7520   20.2300   64.2670 C   0  0  0  0  0  0
   34.4590   17.9050   64.1100 O   0  5  0  0  0  0
   32.0682   14.2526   68.1550 H   0  0  0  0  0  0
   31.4015   13.2610   69.4962 H   0  0  0  0  0  0
   30.3902   13.6193   68.0555 H   0  0  0  0  0  0
   32.9127   12.0324   68.1916 H   0  0  0  0  0  0
   30.4718   11.1307   68.9996 H   0  0  0  0  0  0
   32.1305    9.2313   67.3250 H   0  0  0  0  0  0
   32.7936    9.9559   68.8289 H   0  0  0  0  0  0
   29.3713   11.6368   66.8596 H   0  0  0  0  0  0
   29.2891    9.8968   67.2985 H   0  0  0  0  0  0
   30.4454   10.4523   66.0410 H   0  0  0  0  0  0
   31.8512    7.7465   69.2361 H   0  0  0  0  0  0
   30.2603    8.2896   68.6032 H   0  0  0  0  0  0
   30.9234    9.0142   70.1072 H   0  0  0  0  0  0
   32.5486   12.7986   63.8205 H   0  0  0  0  0  0
   30.6983   14.4955   62.7035 H   0  0  0  0  0  0
   30.1235   12.9367   63.3865 H   0  0  0  0  0  0
   30.0209   15.7230   64.5699 H   0  0  0  0  0  0
   28.8070   14.4026   64.6672 H   0  0  0  0  0  0
   29.8015   13.5298   66.5977 H   0  0  0  0  0  0
   30.7822   15.0331   66.6687 H   0  0  0  0  0  0
   31.2483   16.1922   64.5006 H   0  0  0  0  0  0
   33.2498   16.5198   62.2529 H   0  0  0  0  0  0
   31.7489   18.1825   61.2923 H   0  0  0  0  0  0
   30.7587   16.7684   61.7885 H   0  0  0  0  0  0
   31.7485   20.2209   62.7179 H   0  0  0  0  0  0
   28.9414   17.0360   63.1770 H   0  0  0  0  0  0
   30.2597   21.7267   63.9767 H   0  0  0  0  0  0
   27.4084   18.5557   64.3737 H   0  0  0  0  0  0
   28.0872   20.8977   64.8149 H   0  0  0  0  0  0
  1  2  1  0  0  0
  1 28  1  0  0  0
  1 29  1  0  0  0
  1 30  1  0  0  0
  2  3  1  0  0  0
  2  5  1  0  0  0
  2 31  1  0  0  0
  3  4  2  0  0  0
  3  9  1  0  0  0
  5  6  1  0  0  0
  5  7  1  0  0  0
  5 32  1  0  0  0
  6  8  1  0  0  0
  6 33  1  0  0  0
  6 34  1  0  0  0
  7 35  1  0  0  0
  7 36  1  0  0  0
  7 37  1  0  0  0
  8 38  1  0  0  0
  8 39  1  0  0  0
  8 40  1  0  0  0
  9 10  1  0  0  0
  9 15  1  0  0  0
 10 11  1  0  0  0
 10 13  1  0  0  0
 10 41  1  0  0  0
 11 12  2  0  0  0
 11 16  1  0  0  0
 13 14  1  0  0  0
 13 42  1  0  0  0
 13 43  1  0  0  0
 14 15  1  0  0  0
 14 44  1  0  0  0
 14 45  1  0  0  0
 15 46  1  0  0  0
 15 47  1  0  0  0
 16 17  1  0  0  0
 16 48  1  0  0  0
 17 18  1  0  0  0
 17 20  1  0  0  0
 17 49  1  0  0  0
 18 19  2  0  0  0
 18 27  1  0  0  0
 20 21  1  0  0  0
 20 50  1  0  0  0
 20 51  1  0  0  0
 21 22  2  0  0  0
 21 23  1  0  0  0
 22 24  1  0  0  0
 22 52  1  0  0  0
 23 25  2  0  0  0
 23 53  1  0  0  0
 24 26  2  0  0  0
 24 54  1  0  0  0
 25 26  1  0  0  0
 25 55  1  0  0  0
 26 56  1  0  0  0
M  CHG  2   1   1  27  -1
M  END
> <s_m_source_file>
../3q8d_ligand.sdf

> <i_m_source_file_index>
1

> <s_epik_input>
W0NIM11bQ0gyXVtDQEhdKFtDSDNdKVtDQEhdKFtOSDMrXSlDKD1PKU4xW0NAQEhdKFtDSDJdW0NIMl1bQ0gyXTEpQyg9TylbTkhdW0NASF0oQyg9TylbT0hdKVtDSDJdYzJbY0hdW2NIXVtjSF1bY0hdW2NIXTI=

> <s_epik_cmdline>
J2VwaWtfYXBwJywgJy1pbWFlJywgJ2xpZ2FuZF9wcm8ubWFlJywgJy1vbWFlJywgJ2xpZ2FuZF9wcmVwLm1hZScsICctbXMnLCAnMScsICctcGgnLCAnNycsICctcGh0JywgJzAuNScsICctbnQn

> <r_epik_Ionization_Penalty>
  0.0825

> <r_epik_Ionization_Penalty_Charging>
  0.0825

> <r_epik_Ionization_Penalty_Neutral>
  0.0000

> <r_epik_State_Penalty>
  0.0730

> <r_epik_Charging_Adjusted_Penalty>
0.155447322778368

> <i_epik_Tot_Q>
0

> <i_epik_Tot_abs_Q>
2

$$$$
