3q8h_ligand
                    3D
 Schrodinger Suite 2020-3.
 42 45  0  0  1  0            999 V2000
   10.6920  -27.1610  -24.5350 N   0  3  0  0  0  0
   11.0360  -26.9040  -25.8430 C   0  0  0  0  0  0
   10.2600  -27.1390  -26.7480 O   0  0  0  0  0  0
   12.2360  -26.4210  -26.0890 N   0  0  0  0  0  0
   13.0950  -26.1120  -25.1480 C   0  0  0  0  0  0
   14.2700  -25.5920  -25.4710 N   0  0  0  0  0  0
   12.7640  -26.3610  -23.8510 C   0  0  0  0  0  0
   11.5310  -26.8870  -23.5870 C   0  0  0  0  0  0
    9.3860  -27.7050  -24.2080 C   0  0  1  0  0  0
    9.4830  -28.9540  -23.3940 C   0  0  2  0  0  0
    9.5410  -30.0190  -24.2760 O   0  0  0  0  0  0
    8.1980  -28.9620  -22.6810 C   0  0  2  0  0  0
    7.3840  -29.5820  -23.6310 O   0  0  0  0  0  0
    6.4790  -27.6040  -19.4730 C   0  0  0  0  0  0
    5.5470  -27.1500  -20.0290 O   0  5  0  0  0  0
    6.3720  -28.0510  -18.1080 C   0  0  0  0  0  0
    5.0490  -28.1900  -17.4690 N   0  3  0  0  0  0
    5.3360  -28.5610  -16.2540 C   0  0  3  0  0  0
    6.6620  -28.7440  -16.0020 N   0  0  0  0  0  0
    7.3070  -28.3970  -17.1470 C   0  0  0  0  0  0
    3.9810  -28.7860  -15.3700 S   0  0  0  0  0  0
    2.9000  -28.2730  -16.6470 C   0  0  0  0  0  0
    3.6970  -27.9800  -17.7810 C   0  0  0  0  0  0
    7.8330  -27.4890  -22.5570 C   0  0  2  0  0  0
    8.7800  -26.8110  -23.3340 O   0  0  0  0  0  0
    7.9070  -26.8340  -21.2020 C   0  0  0  0  0  0
    7.6440  -27.6660  -20.0620 N   0  0  0  0  0  0
   14.5150  -25.3996  -26.5260 H   0  0  0  0  0  0
   13.4646  -26.1462  -23.0441 H   0  0  0  0  0  0
   11.2463  -27.0809  -22.5529 H   0  0  0  0  0  0
    8.8341  -27.8359  -25.1505 H   0  0  0  0  0  0
   10.3612  -29.0707  -22.7420 H   0  0  0  0  0  0
   10.4358  -30.1702  -24.8976 H   0  0  0  0  0  0
    8.1320  -29.4981  -21.7228 H   0  0  0  0  0  0
    7.5110  -30.6526  -23.8495 H   0  0  0  0  0  0
    8.4059  -28.4241  -17.1891 H   0  0  0  0  0  0
    1.8074  -28.1556  -16.6974 H   0  0  0  0  0  0
    3.2224  -27.6455  -18.7152 H   0  0  0  0  0  0
    6.7924  -27.3839  -22.8978 H   0  0  0  0  0  0
    8.9174  -26.4282  -21.0456 H   0  0  0  0  0  0
    7.1717  -26.0176  -21.1487 H   0  0  0  0  0  0
   15.0005  -25.3527  -24.6842 H   0  0  0  0  0  0
  1  2  1  0  0  0
  1  8  2  0  0  0
  1  9  1  0  0  0
  2  3  2  0  0  0
  2  4  1  0  0  0
  4  5  1  0  0  0
  5  6  1  0  0  0
  5  7  2  0  0  0
  6 28  1  0  0  0
  6 42  1  0  0  0
  7  8  1  0  0  0
  7 29  1  0  0  0
  8 30  1  0  0  0
  9 10  1  0  0  0
  9 25  1  0  0  0
  9 31  1  0  0  0
 10 11  1  0  0  0
 10 12  1  0  0  0
 10 32  1  0  0  0
 11 33  1  0  0  0
 12 13  1  0  0  0
 12 24  1  0  0  0
 12 34  1  0  0  0
 13 35  1  0  0  0
 14 15  1  0  0  0
 14 16  1  0  0  0
 14 27  2  0  0  0
 16 17  2  0  0  0
 16 20  1  0  0  0
 17 18  1  0  0  0
 17 23  1  0  0  0
 18 19  1  0  0  0
 18 21  1  0  0  0
 19 20  2  0  0  0
 20 36  1  0  0  0
 21 22  1  0  0  0
 22 23  2  0  0  0
 22 37  1  0  0  0
 23 38  1  0  0  0
 24 25  1  0  0  0
 24 26  1  0  0  0
 24 39  1  0  0  0
 26 27  1  0  0  0
 26 40  1  0  0  0
 26 41  1  0  0  0
M  CHG  3   1   1  15  -1  17   1
M  END
> <s_m_source_file>
../3q8h_ligand.sdf

> <i_m_source_file_index>
1

> <s_epik_input>
W2NIXTFbY0hdYyg9TlxbSF0pXFtuSF1jKD1PKW4xW0NASF0yW0NASF0oW09IXSlbQ0BIXShbT0hdKVtDQEhdKE8yKVtDSDJdW05IXUMoPU8pQz0zW0NIXT1OW0NIXShbTitdMzQpU1tDSF09W0NIXTQ=

> <s_epik_cmdline>
J2VwaWtfYXBwJywgJy1pbWFlJywgJ2xpZ2FuZF9wcm8ubWFlJywgJy1vbWFlJywgJ2xpZ2FuZF9wcmVwLm1hZScsICctbXMnLCAnMScsICctcGgnLCAnNycsICctcGh0JywgJzAuNScsICctbnQn

> <r_epik_Ionization_Penalty>
  0.2519

> <r_epik_Ionization_Penalty_Charging>
  0.2508

> <r_epik_Ionization_Penalty_Neutral>
  0.0011

> <r_epik_State_Penalty>
  0.2422

> <r_epik_Charging_Adjusted_Penalty>
0.493020305072277

> <i_epik_Tot_Q>
1

> <i_epik_Tot_abs_Q>
3

> <s_epik_Chemistry_Notes>
This compound has an imine and may undergo hydrolysis. This compound contains an acetal/aminal-like group ( X-CH(R)-Y where X, Y are N, S, or O) that may be acid/base labile, releasing an aldehyde.

$$$$
