3q92_ligand
                    3D
 Schrodinger Suite 2020-3.
 57 61  0  0  1  0            999 V2000
   -2.4940   -1.2620   13.8960 C   0  0  0  0  0  0
   -1.7020   -0.7660   15.4560 S   0  0  0  0  0  0
   -2.5530    0.6420   16.1390 C   0  0  0  0  0  0
   -2.6350    1.8780   15.4880 C   0  0  0  0  0  0
   -3.3550    2.9310   16.0630 C   0  0  0  0  0  0
   -3.9840    2.7400   17.2910 C   0  0  0  0  0  0
   -3.9040    1.4930   17.9390 C   0  0  0  0  0  0
   -3.1960    0.3970   17.3820 C   0  0  0  0  0  0
   -3.0770   -0.9290   17.9860 N   0  0  0  0  0  0
   -4.0070   -1.4650   18.9240 C   0  0  0  0  0  0
   -5.0250   -0.6370   19.3860 N   0  0  0  0  0  0
   -5.9910   -1.1520   20.3210 C   0  0  0  0  0  0
   -5.9550   -2.4490   20.7840 N   0  0  0  0  0  0
   -4.9490   -3.2670   20.3290 C   0  0  0  0  0  0
   -4.8620   -4.7170   20.8050 C   0  0  0  0  0  0
   -3.8430   -5.4760   20.3270 N   0  0  0  0  0  0
   -2.9340   -4.9030   19.4220 C   0  0  0  0  0  0
   -2.9300   -3.6680   18.9510 N   0  0  0  0  0  0
   -3.9550   -2.8410   19.4140 C   0  0  0  0  0  0
   -5.8700   -5.0990   21.6990 N   0  0  0  0  0  0
   -5.9430   -6.4490   22.2750 C   0  0  0  0  0  0
   -6.0710   -7.7640   21.5430 C   0  0  0  0  0  0
   -7.2060   -8.0690   20.5550 C   0  0  0  0  0  0
   -7.2170   -8.7060   21.9160 C   0  0  0  0  0  0
   -7.0770   -0.3340   20.8260 N   0  0  0  0  0  0
   -7.2300    1.0830   20.3950 C   0  0  0  0  0  0
   -8.6850    1.6130   20.3350 C   0  0  0  0  0  0
   -9.4350    1.3120   21.5640 N   0  3  0  0  0  0
   -9.4990   -0.1300   21.8350 C   0  0  0  0  0  0
   -8.1120   -0.8360   21.7950 C   0  0  0  0  0  0
   -1.9662   -2.1314   13.4771 H   0  0  0  0  0  0
   -2.4505   -0.4272   13.1811 H   0  0  0  0  0  0
   -3.5444   -1.5274   14.0863 H   0  0  0  0  0  0
   -2.1362    2.0210   14.5295 H   0  0  0  0  0  0
   -3.4231    3.8926   15.5543 H   0  0  0  0  0  0
   -4.5391    3.5576   17.7510 H   0  0  0  0  0  0
   -4.4022    1.3653   18.9000 H   0  0  0  0  0  0
   -2.2298   -1.5793   17.7226 H   0  0  0  0  0  0
   -2.1365   -5.5550   19.0655 H   0  0  0  0  0  0
   -6.6251   -4.3453   21.9667 H   0  0  0  0  0  0
   -5.0307   -6.6496   22.8558 H   0  0  0  0  0  0
   -6.8205   -6.5193   22.9346 H   0  0  0  0  0  0
   -4.9732   -7.7987   21.4833 H   0  0  0  0  0  0
   -7.7227   -7.1347   20.2904 H   0  0  0  0  0  0
   -6.7880   -8.5268   19.6463 H   0  0  0  0  0  0
   -6.8118   -9.7014   22.1507 H   0  0  0  0  0  0
   -7.7466   -8.3092   22.7947 H   0  0  0  0  0  0
   -6.6912    1.7392   21.0944 H   0  0  0  0  0  0
   -6.8150    1.2055   19.3837 H   0  0  0  0  0  0
   -8.6723    2.7046   20.2003 H   0  0  0  0  0  0
   -9.2110    1.1454   19.4897 H   0  0  0  0  0  0
   -8.9463    1.7995   22.4205 H   0  0  0  0  0  0
  -10.4643    1.6876   21.4667 H   0  0  0  0  0  0
   -9.9225   -0.2964   22.8365 H   0  0  0  0  0  0
  -10.1362   -0.6167   21.0819 H   0  0  0  0  0  0
   -8.3401   -1.8893   21.5747 H   0  0  0  0  0  0
   -7.7251   -0.7515   22.8212 H   0  0  0  0  0  0
  1  2  1  0  0  0
  1 31  1  0  0  0
  1 32  1  0  0  0
  1 33  1  0  0  0
  2  3  1  0  0  0
  3  4  2  0  0  0
  3  8  1  0  0  0
  4  5  1  0  0  0
  4 34  1  0  0  0
  5  6  2  0  0  0
  5 35  1  0  0  0
  6  7  1  0  0  0
  6 36  1  0  0  0
  7  8  2  0  0  0
  7 37  1  0  0  0
  8  9  1  0  0  0
  9 10  1  0  0  0
  9 38  1  0  0  0
 10 11  2  0  0  0
 10 19  1  0  0  0
 11 12  1  0  0  0
 12 13  2  0  0  0
 12 25  1  0  0  0
 13 14  1  0  0  0
 14 15  1  0  0  0
 14 19  2  0  0  0
 15 16  2  0  0  0
 15 20  1  0  0  0
 16 17  1  0  0  0
 17 18  2  0  0  0
 17 39  1  0  0  0
 18 19  1  0  0  0
 20 21  1  0  0  0
 20 40  1  0  0  0
 21 22  1  0  0  0
 21 41  1  0  0  0
 21 42  1  0  0  0
 22 23  1  0  0  0
 22 24  1  0  0  0
 22 43  1  0  0  0
 23 24  1  0  0  0
 23 44  1  0  0  0
 23 45  1  0  0  0
 24 46  1  0  0  0
 24 47  1  0  0  0
 25 26  1  0  0  0
 25 30  1  0  0  0
 26 27  1  0  0  0
 26 48  1  0  0  0
 26 49  1  0  0  0
 27 28  1  0  0  0
 27 50  1  0  0  0
 27 51  1  0  0  0
 28 29  1  0  0  0
 28 52  1  0  0  0
 28 53  1  0  0  0
 29 30  1  0  0  0
 29 54  1  0  0  0
 29 55  1  0  0  0
 30 56  1  0  0  0
 30 57  1  0  0  0
M  CHG  1  28   1
M  END
> <s_m_source_file>
../3q92_ligand.sdf

> <i_m_source_file_index>
1

> <s_epik_input>
W0NIM11TYzFbY0hdW2NIXVtjSF1bY0hdYzFbTkhdYyhuYyhuMilOM1tDSDJdW0NIMl1bTkgyK11bQ0gyXVtDSDJdMyljKGMyNCluW2NIXW5jNFtOSF1bQ0gyXVtDSF01W0NIMl1bQ0gyXTU=

> <s_epik_cmdline>
J2VwaWtfYXBwJywgJy1pbWFlJywgJ2xpZ2FuZF9wcm8ubWFlJywgJy1vbWFlJywgJ2xpZ2FuZF9wcmVwLm1hZScsICctbXMnLCAnMScsICctcGgnLCAnNycsICctcGh0JywgJzAuNScsICctbnQn

> <r_epik_Ionization_Penalty>
  0.0271

> <r_epik_Ionization_Penalty_Charging>
  0.0271

> <r_epik_Ionization_Penalty_Neutral>
  0.0000

> <r_epik_State_Penalty>
  0.0221

> <r_epik_Charging_Adjusted_Penalty>
0.0491775313057457

> <i_epik_Tot_Q>
1

> <i_epik_Tot_abs_Q>
1

$$$$
