3q96_ligand
                    3D
 Schrodinger Suite 2020-3.
 69 73  0  0  1  0            999 V2000
   21.2410   -8.7270  -11.2920 C   0  0  0  0  0  0
   22.3680   -7.9840  -10.9290 C   0  0  0  0  0  0
   23.5180   -8.6280  -10.4670 C   0  0  0  0  0  0
   18.9570  -10.3740  -11.6970 C   0  0  0  0  0  0
   19.9690   -8.0270  -11.8030 C   0  0  0  0  0  0
   24.1770   -5.3590  -11.7430 C   0  0  0  0  0  0
   25.3410   -3.9740  -10.1300 C   0  0  0  0  0  0
   23.4270   -5.2750   -9.4480 C   0  0  0  0  0  0
   25.6150   -2.7940   -7.4800 C   0  0  1  0  0  0
   24.5490   -3.8890   -7.6780 C   0  0  0  0  0  0
   26.0590   -2.7520   -6.0190 C   0  0  0  0  0  0
   27.0820   -2.1650   -3.4050 C   0  0  0  0  0  0
   27.5500   -0.4540   -1.7680 C   0  0  0  0  0  0
   26.1000    2.2630   -1.3720 N   0  3  0  0  0  0
   27.2500    2.0160   -2.2500 C   0  0  0  0  0  0
   28.5300    2.2890   -1.4540 C   0  0  0  0  0  0
   27.1690    2.9480   -3.4640 C   0  0  0  0  0  0
   27.1910    0.5350   -2.6780 C   0  0  0  0  0  0
   26.7670    0.1520   -3.9540 C   0  0  0  0  0  0
   27.4980   -1.7920   -2.1370 C   0  0  0  0  0  0
   27.8880   -2.8710   -1.1490 C   0  0  0  0  0  0
   28.2630   -2.2920   -0.0090 F   0  0  0  0  0  0
   26.8270   -3.6610   -0.9560 F   0  0  0  0  0  0
   28.9040   -3.5720   -1.6520 F   0  0  0  0  0  0
   26.7140   -1.1950   -4.3260 C   0  0  0  0  0  0
   26.3110   -1.5200   -5.5610 N   0  0  0  0  0  0
   26.1720   -3.7920   -5.3720 O   0  0  0  0  0  0
   26.8460   -3.0280   -8.3630 C   0  0  0  0  0  0
   26.4830   -3.0000   -9.8480 C   0  0  0  0  0  0
   24.4520   -4.3780   -9.1310 C   0  0  0  0  0  0
   25.1990   -4.4670  -11.4270 C   0  0  0  0  0  0
   23.2950   -5.7770  -10.7450 C   0  0  0  0  0  0
   22.2730   -6.6300  -11.0490 O   0  0  0  0  0  0
   23.5290  -10.0160  -10.3800 C   0  0  0  0  0  0
   22.4580  -10.7110  -10.7270 N   0  0  0  0  0  0
   21.3360  -10.1170  -11.1740 C   0  0  0  0  0  0
   18.7060   -8.8590  -11.5750 C   0  0  0  0  0  0
   18.0150  -11.1220  -11.9670 O   0  0  0  0  0  0
   20.2430  -10.9230  -11.5090 N   0  0  0  0  0  0
   24.3959   -8.0500  -10.1782 H   0  0  0  0  0  0
   19.8412   -7.0692  -11.2773 H   0  0  0  0  0  0
   20.0608   -7.8427  -12.8836 H   0  0  0  0  0  0
   24.0667   -5.7282  -12.7626 H   0  0  0  0  0  0
   22.7239   -5.5856   -8.6752 H   0  0  0  0  0  0
   25.1604   -1.8333   -7.7636 H   0  0  0  0  0  0
   24.7945   -4.7576   -7.0493 H   0  0  0  0  0  0
   23.5623   -3.4962   -7.3916 H   0  0  0  0  0  0
   27.0439   -3.2194   -3.6785 H   0  0  0  0  0  0
   27.8726   -0.1785   -0.7639 H   0  0  0  0  0  0
   26.1075    3.3131   -1.0446 H   0  0  0  0  0  0
   26.1617    1.6045   -0.4931 H   0  0  0  0  0  0
   25.1690    2.0565   -1.9203 H   0  0  0  0  0  0
   28.5578    3.3476   -1.1562 H   0  0  0  0  0  0
   29.4060    2.0607   -2.0788 H   0  0  0  0  0  0
   28.5452    1.6547   -0.5554 H   0  0  0  0  0  0
   27.2135    3.9941   -3.1268 H   0  0  0  0  0  0
   26.2225    2.7745   -3.9970 H   0  0  0  0  0  0
   28.0129    2.7443   -4.1395 H   0  0  0  0  0  0
   26.4723    0.9173   -4.6720 H   0  0  0  0  0  0
   26.1907   -0.6512   -6.2248 H   0  0  0  0  0  0
   27.5898   -2.2406   -8.1713 H   0  0  0  0  0  0
   27.2833   -4.0100   -8.1297 H   0  0  0  0  0  0
   27.3646   -3.2875  -10.4397 H   0  0  0  0  0  0
   26.1727   -1.9813  -10.1237 H   0  0  0  0  0  0
   25.8963   -4.1504  -12.2027 H   0  0  0  0  0  0
   24.4213  -10.5320  -10.0254 H   0  0  0  0  0  0
   17.9610   -8.5494  -12.3228 H   0  0  0  0  0  0
   18.3308   -8.6295  -10.5668 H   0  0  0  0  0  0
   20.4014  -12.0053  -11.6255 H   0  0  0  0  0  0
  1  2  2  0  0  0
  1  5  1  0  0  0
  1 36  1  0  0  0
  2  3  1  0  0  0
  2 33  1  0  0  0
  3 34  2  0  0  0
  3 40  1  0  0  0
  4 37  1  0  0  0
  4 38  2  0  0  0
  4 39  1  0  0  0
  5 37  1  0  0  0
  5 41  1  0  0  0
  5 42  1  0  0  0
  6 31  2  0  0  0
  6 32  1  0  0  0
  6 43  1  0  0  0
  7 29  1  0  0  0
  7 30  2  0  0  0
  7 31  1  0  0  0
  8 30  1  0  0  0
  8 32  2  0  0  0
  8 44  1  0  0  0
  9 10  1  0  0  0
  9 11  1  0  0  0
  9 28  1  0  0  0
  9 45  1  0  0  0
 10 30  1  0  0  0
 10 46  1  0  0  0
 10 47  1  0  0  0
 11 26  1  0  0  0
 11 27  2  0  0  0
 12 20  2  0  0  0
 12 25  1  0  0  0
 12 48  1  0  0  0
 13 18  2  0  0  0
 13 20  1  0  0  0
 13 49  1  0  0  0
 14 15  1  0  0  0
 14 50  1  0  0  0
 14 51  1  0  0  0
 14 52  1  0  0  0
 15 16  1  0  0  0
 15 17  1  0  0  0
 15 18  1  0  0  0
 16 53  1  0  0  0
 16 54  1  0  0  0
 16 55  1  0  0  0
 17 56  1  0  0  0
 17 57  1  0  0  0
 17 58  1  0  0  0
 18 19  1  0  0  0
 19 25  2  0  0  0
 19 59  1  0  0  0
 20 21  1  0  0  0
 21 22  1  0  0  0
 21 23  1  0  0  0
 21 24  1  0  0  0
 25 26  1  0  0  0
 26 60  1  0  0  0
 28 29  1  0  0  0
 28 61  1  0  0  0
 28 62  1  0  0  0
 29 63  1  0  0  0
 29 64  1  0  0  0
 31 65  1  0  0  0
 32 33  1  0  0  0
 34 35  1  0  0  0
 34 66  1  0  0  0
 35 36  2  0  0  0
 36 39  1  0  0  0
 37 67  1  0  0  0
 37 68  1  0  0  0
 39 69  1  0  0  0
M  CHG  1  14   1
M  END
> <s_m_source_file>
../3q96_ligand.sdf

> <i_m_source_file_index>
1

> <s_epik_input>
W0NIMl0xW0NIMl1DKD1PKVtOSF1jKGMxMiluW2NIXVtjSF1jMk9jKFtjSF1bY0hdMylbY0hdYyhjMzQpW0NIMl1bQ0BIXShbQ0gyXVtDSDJdNClDKD1PKVtOSF1jKFtjSF01KVtjSF1jKEMoRikoRilGKVtjSF1jNUMoW05IMytdKShbQ0gzXSlbQ0gzXQ==

> <s_epik_cmdline>
J2VwaWtfYXBwJywgJy1pbWFlJywgJ2xpZ2FuZF9wcm8ubWFlJywgJy1vbWFlJywgJ2xpZ2FuZF9wcmVwLm1hZScsICctbXMnLCAnMScsICctcGgnLCAnNycsICctcGh0JywgJzAuNScsICctbnQn

> <r_lp_tautomer_probability>
1

> <r_epik_Ionization_Penalty>
  0.0772

> <r_epik_Ionization_Penalty_Charging>
  0.0355

> <r_epik_Ionization_Penalty_Neutral>
  0.0417

> <r_epik_State_Penalty>
 -0.0000

> <r_epik_Charging_Adjusted_Penalty>
0.0354554762256209

> <i_epik_Tot_Q>
1

> <i_epik_Tot_abs_Q>
1

$$$$
