3qa2_ligand
                    3D
 Schrodinger Suite 2020-3.
 56 60  0  0  1  0            999 V2000
   -3.1160   -1.2070   15.1500 C   0  0  0  0  0  0
   -3.5590    0.1010   15.8150 C   0  0  0  0  0  0
   -3.6990    1.3200   15.0640 C   0  0  0  0  0  0
   -4.1370    2.5280   15.7130 C   0  0  0  0  0  0
   -4.4450    2.5520   17.1240 C   0  0  0  0  0  0
   -4.2990    1.3390   17.8910 C   0  0  0  0  0  0
   -3.8580    0.1340   17.2350 C   0  0  0  0  0  0
   -3.6890   -1.0890   17.9940 N   0  0  0  0  0  0
   -4.7160   -1.4480   18.9630 C   0  0  0  0  0  0
   -5.6900   -0.5610   19.4160 N   0  0  0  0  0  0
   -6.5990   -1.0300   20.3620 C   0  0  0  0  0  0
   -6.5780   -2.3320   20.8810 N   0  0  0  0  0  0
   -5.5920   -3.1930   20.4090 C   0  0  0  0  0  0
   -5.4730   -4.5800   20.8730 C   0  0  0  0  0  0
   -4.5040   -5.4020   20.4090 N   0  0  0  0  0  0
   -3.6090   -4.9130   19.4590 C   0  0  0  0  0  0
   -3.6240   -3.6390   18.9460 N   0  0  0  0  0  0
   -4.6100   -2.8240   19.4340 C   0  0  0  0  0  0
   -6.4280   -5.0560   21.8830 N   0  0  0  0  0  0
   -6.2970   -6.4340   22.3590 C   0  0  0  0  0  0
   -7.4260   -7.2430   21.6970 C   0  0  0  0  0  0
   -8.3340   -7.9530   22.7030 C   0  0  0  0  0  0
   -7.3360   -8.7620   21.8590 C   0  0  0  0  0  0
   -7.6680   -0.1330   20.9150 N   0  0  0  0  0  0
   -7.7120    1.2700   20.6420 C   0  0  0  0  0  0
   -9.1700    1.6040   20.2560 C   0  0  0  0  0  0
  -10.1080    1.2270   21.4050 N   0  3  0  0  0  0
   -9.9360   -0.2610   21.7310 C   0  0  0  0  0  0
   -8.4520   -0.5570   22.0390 C   0  0  0  0  0  0
   -2.9374   -1.0316   14.0789 H   0  0  0  0  0  0
   -3.9039   -1.9650   15.2711 H   0  0  0  0  0  0
   -2.1888   -1.5630   15.6229 H   0  0  0  0  0  0
   -3.4722    1.3290   13.9979 H   0  0  0  0  0  0
   -4.2382    3.4423   15.1283 H   0  0  0  0  0  0
   -4.7823    3.4719   17.6016 H   0  0  0  0  0  0
   -4.5205    1.3339   18.9582 H   0  0  0  0  0  0
   -2.8024   -1.7194   17.8311 H   0  0  0  0  0  0
   -2.8387   -5.5932   19.0956 H   0  0  0  0  0  0
   -7.2243   -4.4100   22.2811 H   0  0  0  0  0  0
   -5.3122   -6.8297   22.0700 H   0  0  0  0  0  0
   -6.3931   -6.4542   23.4546 H   0  0  0  0  0  0
   -7.5724   -6.5746   20.8357 H   0  0  0  0  0  0
   -8.1381   -7.5629   23.7127 H   0  0  0  0  0  0
   -9.3863   -7.7728   22.4381 H   0  0  0  0  0  0
   -7.5668   -9.2474   20.8993 H   0  0  0  0  0  0
   -6.3187   -9.0375   22.1739 H   0  0  0  0  0  0
   -7.4082    1.8280   21.5400 H   0  0  0  0  0  0
   -7.0256    1.5043   19.8150 H   0  0  0  0  0  0
   -9.2578    2.6815   20.0526 H   0  0  0  0  0  0
   -9.4501    1.0370   19.3560 H   0  0  0  0  0  0
   -9.8619    1.8294   22.2919 H   0  0  0  0  0  0
  -11.1490    1.4211   21.1073 H   0  0  0  0  0  0
  -10.5490   -0.5175   22.6076 H   0  0  0  0  0  0
  -10.2575   -0.8647   20.8695 H   0  0  0  0  0  0
   -8.3073   -1.6353   22.2011 H   0  0  0  0  0  0
   -8.1347   -0.0055   22.9363 H   0  0  0  0  0  0
  1  2  1  0  0  0
  1 30  1  0  0  0
  1 31  1  0  0  0
  1 32  1  0  0  0
  2  3  2  0  0  0
  2  7  1  0  0  0
  3  4  1  0  0  0
  3 33  1  0  0  0
  4  5  2  0  0  0
  4 34  1  0  0  0
  5  6  1  0  0  0
  5 35  1  0  0  0
  6  7  2  0  0  0
  6 36  1  0  0  0
  7  8  1  0  0  0
  8  9  1  0  0  0
  8 37  1  0  0  0
  9 10  2  0  0  0
  9 18  1  0  0  0
 10 11  1  0  0  0
 11 12  2  0  0  0
 11 24  1  0  0  0
 12 13  1  0  0  0
 13 14  1  0  0  0
 13 18  2  0  0  0
 14 15  2  0  0  0
 14 19  1  0  0  0
 15 16  1  0  0  0
 16 17  2  0  0  0
 16 38  1  0  0  0
 17 18  1  0  0  0
 19 20  1  0  0  0
 19 39  1  0  0  0
 20 21  1  0  0  0
 20 40  1  0  0  0
 20 41  1  0  0  0
 21 22  1  0  0  0
 21 23  1  0  0  0
 21 42  1  0  0  0
 22 23  1  0  0  0
 22 43  1  0  0  0
 22 44  1  0  0  0
 23 45  1  0  0  0
 23 46  1  0  0  0
 24 25  1  0  0  0
 24 29  1  0  0  0
 25 26  1  0  0  0
 25 47  1  0  0  0
 25 48  1  0  0  0
 26 27  1  0  0  0
 26 49  1  0  0  0
 26 50  1  0  0  0
 27 28  1  0  0  0
 27 51  1  0  0  0
 27 52  1  0  0  0
 28 29  1  0  0  0
 28 53  1  0  0  0
 28 54  1  0  0  0
 29 55  1  0  0  0
 29 56  1  0  0  0
M  CHG  1  27   1
M  END
> <s_m_source_file>
../3qa2_ligand.sdf

> <i_m_source_file_index>
1

> <s_epik_input>
W0NIM11jMVtjSF1bY0hdW2NIXVtjSF1jMVtOSF1jKG5jKG4yKU4zW0NIMl1bQ0gyXVtOSDIrXVtDSDJdW0NIMl0zKWMoYzI0KW5bY0hdbmM0W05IXVtDSDJdW0NIXTVbQ0gyXVtDSDJdNQ==

> <s_epik_cmdline>
J2VwaWtfYXBwJywgJy1pbWFlJywgJ2xpZ2FuZF9wcm8ubWFlJywgJy1vbWFlJywgJ2xpZ2FuZF9wcmVwLm1hZScsICctbXMnLCAnMScsICctcGgnLCAnNycsICctcGh0JywgJzAuNScsICctbnQn

> <r_epik_Ionization_Penalty>
  0.0271

> <r_epik_Ionization_Penalty_Charging>
  0.0271

> <r_epik_Ionization_Penalty_Neutral>
  0.0000

> <r_epik_State_Penalty>
  0.0221

> <r_epik_Charging_Adjusted_Penalty>
0.0491775313057457

> <i_epik_Tot_Q>
1

> <i_epik_Tot_abs_Q>
1

$$$$
