3qai_ligand
                    3D
 Schrodinger Suite 2020-3.
 58 63  0  0  1  0            999 V2000
   -2.7790   -1.1480   13.6760 C   0  0  0  0  0  0
   -1.9960   -0.8440   15.3130 S   0  0  0  0  0  0
   -2.7570    0.5800   16.0730 C   0  0  0  0  0  0
   -2.8040    1.7910   15.4040 C   0  0  0  0  0  0
   -3.4320    2.9080   15.9690 C   0  0  0  0  0  0
   -4.0100    2.7730   17.2200 C   0  0  0  0  0  0
   -3.9690    1.5420   17.9030 C   0  0  0  0  0  0
   -3.3580    0.3900   17.3540 C   0  0  0  0  0  0
   -3.1740   -0.9250   17.9200 N   0  0  0  0  0  0
   -4.1570   -1.5200   18.8140 C   0  0  0  0  0  0
   -5.1910   -0.7810   19.2370 N   0  0  0  0  0  0
   -6.1800   -1.3870   20.0790 C   0  0  0  0  0  0
   -6.1370   -2.6820   20.4960 N   0  0  0  0  0  0
   -5.0590   -3.4430   20.0640 C   0  0  0  0  0  0
   -4.9730   -4.8760   20.4930 C   0  0  0  0  0  0
   -3.9170   -5.6320   20.0800 N   0  0  0  0  0  0
   -2.9910   -4.9900   19.2610 C   0  0  0  0  0  0
   -2.9830   -3.7230   18.8170 N   0  0  0  0  0  0
   -4.0480   -2.9340   19.2350 C   0  0  0  0  0  0
   -5.9900   -5.2690   21.3250 N   0  0  0  0  0  0
   -6.2080   -6.6770   21.7550 C   0  0  0  0  0  0
   -6.1350   -7.8710   20.8400 C   0  0  0  0  0  0
   -7.3910   -8.4730   20.1840 C   0  0  0  0  0  0
   -6.7090   -9.2250   21.3050 C   0  0  0  0  0  0
   -7.2560   -0.6010   20.6170 N   0  0  0  0  0  0
   -8.4850   -0.9880   21.4310 C   0  0  0  0  0  0
   -8.9610    0.4870   21.3580 C   0  0  0  0  0  0
   -9.2230    1.0490   22.7920 C   0  0  0  0  0  0
  -10.6880    1.0870   22.4560 N   0  3  0  0  0  0
  -10.3290    1.1370   20.9910 C   0  0  0  0  0  0
   -7.7990    0.7920   20.3650 C   0  0  0  0  0  0
   -2.3127   -2.0253   13.2038 H   0  0  0  0  0  0
   -2.6378   -0.2669   13.0327 H   0  0  0  0  0  0
   -3.8546   -1.3335   13.8128 H   0  0  0  0  0  0
   -2.3439    1.8767   14.4196 H   0  0  0  0  0  0
   -3.4649    3.8592   15.4377 H   0  0  0  0  0  0
   -4.5023    3.6291   17.6814 H   0  0  0  0  0  0
   -4.4247    1.4743   18.8908 H   0  0  0  0  0  0
   -2.2717   -1.5062   17.6790 H   0  0  0  0  0  0
   -2.1524   -5.6046   18.9336 H   0  0  0  0  0  0
   -6.6655   -4.4755   21.6772 H   0  0  0  0  0  0
   -5.4678   -6.9445   22.5235 H   0  0  0  0  0  0
   -7.2214   -6.7809   22.1701 H   0  0  0  0  0  0
   -5.1721   -7.4854   20.4737 H   0  0  0  0  0  0
   -8.2376   -7.7821   20.3104 H   0  0  0  0  0  0
   -7.2043   -8.6318   19.1117 H   0  0  0  0  0  0
   -5.9511  -10.0106   21.1693 H   0  0  0  0  0  0
   -6.9844   -9.1609   22.3680 H   0  0  0  0  0  0
   -9.0589   -1.7529   20.8873 H   0  0  0  0  0  0
   -8.1682   -1.3904   22.4045 H   0  0  0  0  0  0
   -8.8692    0.3243   23.5401 H   0  0  0  0  0  0
   -8.6830    1.9990   22.9178 H   0  0  0  0  0  0
  -11.1769    0.1815   22.8447 H   0  0  0  0  0  0
  -11.1462    1.9762   22.9135 H   0  0  0  0  0  0
  -10.1553    2.1160   20.5204 H   0  0  0  0  0  0
  -10.8690    0.4838   20.2898 H   0  0  0  0  0  0
   -7.0436    1.5377   20.6535 H   0  0  0  0  0  0
   -8.0368    0.9052   19.2970 H   0  0  0  0  0  0
  1  2  1  0  0  0
  1 32  1  0  0  0
  1 33  1  0  0  0
  1 34  1  0  0  0
  2  3  1  0  0  0
  3  4  2  0  0  0
  3  8  1  0  0  0
  4  5  1  0  0  0
  4 35  1  0  0  0
  5  6  2  0  0  0
  5 36  1  0  0  0
  6  7  1  0  0  0
  6 37  1  0  0  0
  7  8  2  0  0  0
  7 38  1  0  0  0
  8  9  1  0  0  0
  9 10  1  0  0  0
  9 39  1  0  0  0
 10 11  2  0  0  0
 10 19  1  0  0  0
 11 12  1  0  0  0
 12 13  2  0  0  0
 12 25  1  0  0  0
 13 14  1  0  0  0
 14 15  1  0  0  0
 14 19  2  0  0  0
 15 16  2  0  0  0
 15 20  1  0  0  0
 16 17  1  0  0  0
 17 18  2  0  0  0
 17 40  1  0  0  0
 18 19  1  0  0  0
 20 21  1  0  0  0
 20 41  1  0  0  0
 21 22  1  0  0  0
 21 42  1  0  0  0
 21 43  1  0  0  0
 22 23  1  0  0  0
 22 24  1  0  0  0
 22 44  1  0  0  0
 23 24  1  0  0  0
 23 45  1  0  0  0
 23 46  1  0  0  0
 24 47  1  0  0  0
 24 48  1  0  0  0
 25 26  1  0  0  0
 25 31  1  0  0  0
 26 27  1  0  0  0
 26 49  1  0  0  0
 26 50  1  0  0  0
 27 28  1  0  0  0
 27 30  1  0  0  0
 27 31  1  0  0  0
 28 29  1  0  0  0
 28 51  1  0  0  0
 28 52  1  0  0  0
 29 30  1  0  0  0
 29 53  1  0  0  0
 29 54  1  0  0  0
 30 55  1  0  0  0
 30 56  1  0  0  0
 31 57  1  0  0  0
 31 58  1  0  0  0
M  CHG  1  29   1
M  END
> <s_m_source_file>
../3qai_ligand.sdf

> <i_m_source_file_index>
1

> <s_epik_input>
W0NIM11TYzFbY0hdW2NIXVtjSF1bY0hdYzFbTkhdYyhuYyhuMilOKFtDSDJdMylbQ0gyXUMzNFtDSDJdW05IMitdW0NIMl00KWMoYzI1KW5bY0hdbmM1W05IXVtDSDJdW0NIXTZbQ0gyXVtDSDJdNg==

> <s_epik_cmdline>
J2VwaWtfYXBwJywgJy1pbWFlJywgJ2xpZ2FuZF9wcm8ubWFlJywgJy1vbWFlJywgJ2xpZ2FuZF9wcmVwLm1hZScsICctbXMnLCAnMScsICctcGgnLCAnNycsICctcGh0JywgJzAuNScsICctbnQn

> <r_lp_tautomer_probability>
1

> <r_epik_Ionization_Penalty>
  0.0004

> <r_epik_Ionization_Penalty_Charging>
  0.0004

> <r_epik_Ionization_Penalty_Neutral>
  0.0000

> <r_epik_State_Penalty>
 -0.0000

> <r_epik_Charging_Adjusted_Penalty>
0.00040202528292654

> <i_epik_Tot_Q>
1

> <i_epik_Tot_abs_Q>
1

$$$$
