3qaq_ligand
                    3D
 Schrodinger Suite 2020-3.
 41 44  0  0  1  0            999 V2000
   20.3970   14.0490   23.0470 N   0  0  0  0  0  0
   20.2340   12.1550   24.3750 N   0  0  0  0  0  0
   22.1760   15.7900   21.6010 C   0  0  0  0  0  0
   23.2830   16.2140   20.8610 C   0  0  0  0  0  0
   23.7070   14.2600   21.6470 C   0  0  0  0  0  0
   21.0600   16.6290   21.7100 C   0  0  0  0  0  0
   21.0540   17.8810   21.0840 C   0  0  0  0  0  0
   23.2800   17.4610   20.2380 C   0  0  0  0  0  0
   25.6350   12.8340   21.7330 C   0  0  0  0  0  0
   27.6630   12.9220   20.4020 C   0  0  0  0  0  0
   27.6600   11.7850   22.5250 C   0  0  0  0  0  0
   15.0740   14.6290   24.1580 N   0  0  0  0  0  0
   16.2130   14.5800   23.9760 C   0  0  0  0  0  0
   17.6660   14.6930   23.6930 C   0  0  0  0  0  0
   18.3610   13.4400   24.0530 N   0  0  0  0  0  0
   19.6590   13.2290   23.8190 C   0  0  0  0  0  0
   21.5120   11.9010   24.1730 C   0  0  0  0  0  0
   22.2390   12.7000   23.4180 N   0  0  0  0  0  0
   21.7020   13.7880   22.8390 C   0  0  0  0  0  0
   22.4770   14.5750   22.0710 N   0  0  0  0  0  0
   22.1670   18.2940   20.3490 C   0  0  0  0  0  0
   24.1990   15.2530   20.9100 N   0  0  0  0  0  0
   24.3370   13.1060   21.9270 N   0  0  0  0  0  0
   26.3140   12.1020   22.7020 C   0  0  0  0  0  0
   26.3160   13.2310   20.5790 C   0  0  0  0  0  0
   28.3360   12.1950   21.3780 C   0  0  0  0  0  0
   28.3210   11.0800   23.4800 O   0  0  0  0  0  0
   20.1922   16.3057   22.2849 H   0  0  0  0  0  0
   20.1835   18.5313   21.1700 H   0  0  0  0  0  0
   24.1479   17.7852   19.6638 H   0  0  0  0  0  0
   28.1865   13.2483   19.5034 H   0  0  0  0  0  0
   17.8165   14.8904   22.6214 H   0  0  0  0  0  0
   18.0910   15.5196   24.2814 H   0  0  0  0  0  0
   17.8066   12.6236   24.5389 H   0  0  0  0  0  0
   21.9698   11.0253   24.6330 H   0  0  0  0  0  0
   22.1660   19.2688   19.8613 H   0  0  0  0  0  0
   23.7768   12.2650   22.3616 H   0  0  0  0  0  0
   25.7923   11.7756   23.6017 H   0  0  0  0  0  0
   25.7864   13.7897   19.8073 H   0  0  0  0  0  0
   29.3891   11.9468   21.2459 H   0  0  0  0  0  0
   27.7921   10.7537   24.3877 H   0  0  0  0  0  0
  1 16  2  0  0  0
  1 19  1  0  0  0
  2 16  1  0  0  0
  2 17  2  0  0  0
  3  4  2  0  0  0
  3  6  1  0  0  0
  3 20  1  0  0  0
  4  8  1  0  0  0
  4 22  1  0  0  0
  5 20  1  0  0  0
  5 22  2  0  0  0
  5 23  1  0  0  0
  6  7  2  0  0  0
  6 28  1  0  0  0
  7 21  1  0  0  0
  7 29  1  0  0  0
  8 21  2  0  0  0
  8 30  1  0  0  0
  9 23  1  0  0  0
  9 24  2  0  0  0
  9 25  1  0  0  0
 10 25  2  0  0  0
 10 26  1  0  0  0
 10 31  1  0  0  0
 11 24  1  0  0  0
 11 26  2  0  0  0
 11 27  1  0  0  0
 12 13  3  0  0  0
 13 14  1  0  0  0
 14 15  1  0  0  0
 14 32  1  0  0  0
 14 33  1  0  0  0
 15 16  1  0  0  0
 15 34  1  0  0  0
 17 18  1  0  0  0
 17 35  1  0  0  0
 18 19  2  0  0  0
 19 20  1  0  0  0
 21 36  1  0  0  0
 23 37  1  0  0  0
 24 38  1  0  0  0
 25 39  1  0  0  0
 26 40  1  0  0  0
 27 41  1  0  0  0
M  END
> <s_m_source_file>
../3qaq_ligand.sdf

> <i_m_source_file_index>
1

> <s_epik_input>
TiNDW0NIMl1bTkhdYzFuYyhuW2NIXW4xKS1uMmMobmMoYzIzKVtjSF1bY0hdW2NIXVtjSF0zKVtOSF1jNFtjSF1jKFtPSF0pW2NIXVtjSF1bY0hdNA==

> <s_epik_cmdline>
J2VwaWtfYXBwJywgJy1pbWFlJywgJ2xpZ2FuZF9wcm8ubWFlJywgJy1vbWFlJywgJ2xpZ2FuZF9wcmVwLm1hZScsICctbXMnLCAnMScsICctcGgnLCAnNycsICctcGh0JywgJzAuNScsICctbnQn

> <r_epik_Ionization_Penalty>
  0.0679

> <r_epik_Ionization_Penalty_Charging>
  0.0000

> <r_epik_Ionization_Penalty_Neutral>
  0.0679

> <r_epik_State_Penalty>
  0.0584

> <r_epik_Charging_Adjusted_Penalty>
0.0584389359436542

> <i_epik_Tot_Q>
0

> <i_epik_Tot_abs_Q>
0

$$$$
