3qar_ligand
                    3D
 Schrodinger Suite 2020-3.
 37 40  0  0  1  0            999 V2000
   19.6800   12.2810   24.2590 N   0  0  0  0  0  0
   21.7330   12.9740   23.4020 N   0  0  0  0  0  0
   21.5510   15.9450   21.4520 C   0  0  0  0  0  0
   22.6370   16.3970   20.7010 C   0  0  0  0  0  0
   23.1240   14.4510   21.4780 C   0  0  0  0  0  0
   20.4100   16.7490   21.5800 C   0  0  0  0  0  0
   20.3610   18.0010   20.9600 C   0  0  0  0  0  0
   22.5920   17.6500   20.0840 C   0  0  0  0  0  0
   25.7040   11.9970   22.1020 C   0  0  0  0  0  0
   26.9300   12.0110   21.5910 C   0  0  0  0  0  0
   26.9940   13.0170   20.7180 N   0  3  0  0  0  0
   25.9040   13.5980   20.6700 N   0  0  0  0  0  0
   25.0650   13.0040   21.5160 C   0  0  0  0  0  0
   23.7770   13.3100   21.7590 N   0  0  0  0  0  0
   23.5790   15.4570   20.7380 N   0  3  0  0  0  0
   21.4560   18.4520   20.2110 C   0  0  0  0  0  0
   21.8910   14.7400   21.9130 N   0  0  0  0  0  0
   21.1380   13.9390   22.6850 C   0  0  0  0  0  0
   19.8010   14.0720   22.7650 N   0  0  0  0  0  0
   21.0080   12.1550   24.1790 C   0  0  0  0  0  0
   21.6990   11.0710   24.9810 C   0  0  0  0  0  0
   19.0790   13.2460   23.5510 C   0  0  0  0  0  0
   17.7640   13.3650   23.6380 N   0  0  0  0  0  0
   19.5594   16.3974   22.1640 H   0  0  0  0  0  0
   19.4728   18.6251   21.0590 H   0  0  0  0  0  0
   23.4445   18.0017   19.5030 H   0  0  0  0  0  0
   25.4288   11.2395   22.8506 H   0  0  0  0  0  0
   27.6703   11.2656   21.9171 H   0  0  0  0  0  0
   21.4210   19.4284   19.7277 H   0  0  0  0  0  0
   20.9497   10.5040   25.5529 H   0  0  0  0  0  0
   22.4189   11.5304   25.6744 H   0  0  0  0  0  0
   22.2301   10.3917   24.2980 H   0  0  0  0  0  0
   17.1915   12.6829   24.2837 H   0  0  0  0  0  0
   17.2433   14.1461   23.0646 H   0  0  0  0  0  0
   27.8289   13.3614   20.0901 H   0  0  0  0  0  0
   25.7679   14.4573   19.9968 H   0  0  0  0  0  0
   24.5289   15.6089   20.2044 H   0  0  0  0  0  0
  1 20  2  0  0  0
  1 22  1  0  0  0
  2 18  2  0  0  0
  2 20  1  0  0  0
  3  4  2  0  0  0
  3  6  1  0  0  0
  3 17  1  0  0  0
  4  8  1  0  0  0
  4 15  1  0  0  0
  5 14  1  0  0  0
  5 15  2  0  0  0
  5 17  1  0  0  0
  6  7  2  0  0  0
  6 24  1  0  0  0
  7 16  1  0  0  0
  7 25  1  0  0  0
  8 16  2  0  0  0
  8 26  1  0  0  0
  9 10  2  0  0  0
  9 13  1  0  0  0
  9 27  1  0  0  0
 10 11  1  0  0  0
 10 28  1  0  0  0
 11 12  1  0  0  0
 11 35  1  0  0  0
 12 13  1  0  0  0
 12 36  1  0  0  0
 13 14  2  0  0  0
 15 37  1  0  0  0
 16 29  1  0  0  0
 17 18  1  0  0  0
 18 19  1  0  0  0
 19 22  2  0  0  0
 20 21  1  0  0  0
 21 30  1  0  0  0
 21 31  1  0  0  0
 21 32  1  0  0  0
 22 23  1  0  0  0
 23 33  1  0  0  0
 23 34  1  0  0  0
M  CHG  2  11   1  15   1
M  END
> <s_m_source_file>
../3qar_ligand.sdf

> <i_m_source_file_index>
1

> <s_epik_input>
bjFjKFtOSDJdKW5jKFtDSDNdKW5jMS1uMmMoW05IXWMzW2NIXVtjSF1bbkhdbjMpbmMoYzI0KVtjSF1bY0hdW2NIXVtjSF00

> <s_epik_cmdline>
J2VwaWtfYXBwJywgJy1pbWFlJywgJ2xpZ2FuZF9wcm8ubWFlJywgJy1vbWFlJywgJ2xpZ2FuZF9wcmVwLm1hZScsICctbXMnLCAnMScsICctcGgnLCAnNycsICctcGh0JywgJzAuNScsICctbnQn

> <r_epik_Ionization_Penalty>
  0.0022

> <r_epik_Ionization_Penalty_Charging>
  0.0021

> <r_epik_Ionization_Penalty_Neutral>
  0.0000

> <r_epik_State_Penalty>
  0.0560

> <r_epik_Charging_Adjusted_Penalty>
0.058127928467014

> <i_epik_Tot_Q>
2

> <i_epik_Tot_abs_Q>
2

> <s_epik_Chemistry_Notes>
This compound has an imine and may undergo hydrolysis.

$$$$
