3qbc_ligand
                    3D
 Schrodinger Suite 2020-3.
 14 15  0  0  1  0            999 V2000
    0.7840   -1.6030   11.1050 O   0  0  0  0  0  0
    1.4320   -2.1050   12.0240 C   0  0  0  0  0  0
    1.5760   -1.5410   13.3630 C   0  0  0  0  0  0
    1.0910   -0.3620   13.9010 N   0  0  0  0  0  0
    2.0960   -3.3220   11.9820 N   0  0  0  0  0  0
    2.8220   -3.9250   13.0040 C   0  0  0  0  0  0
    3.4010   -5.1210   12.7400 N   0  0  0  0  0  0
    2.9280   -3.4320   14.2030 N   0  0  0  0  0  0
    2.2940   -2.2300   14.2640 C   0  0  0  0  0  0
    2.2610   -1.4570   15.4320 N   0  0  0  0  0  0
    1.5130   -0.3840   15.1440 C   0  0  3  0  0  0
    1.1930    0.8130   16.3880 S   0  5  0  0  0  0
    3.3252   -5.5586   11.7336 H   0  0  0  0  0  0
    3.4725   -3.9882   14.9802 H   0  0  0  0  0  0
  1  2  2  0  0  0
  2  3  1  0  0  0
  2  5  1  0  0  0
  3  4  2  0  0  0
  3  9  1  0  0  0
  4 11  1  0  0  0
  5  6  1  0  0  0
  6  7  2  0  0  0
  6  8  1  0  0  0
  7 13  1  0  0  0
  8  9  1  0  0  0
  8 14  1  0  0  0
  9 10  2  0  0  0
 10 11  1  0  0  0
 11 12  1  0  0  0
M  CHG  1  12  -1
M  END
> <s_m_source_file>
../3qbc_ligand.sdf

> <i_m_source_file_index>
1

> <s_epik_input>
Tz1jMVtuSF0vYyg9TlxbSF0pW25IXWMoYzE9Mik9TltDSF0oTjIpW1NIXQ==

> <s_epik_cmdline>
J2VwaWtfYXBwJywgJy1pbWFlJywgJ2xpZ2FuZF9wcm8ubWFlJywgJy1vbWFlJywgJ2xpZ2FuZF9wcmVwLm1hZScsICctbXMnLCAnMScsICctcGgnLCAnNycsICctcGh0JywgJzAuNScsICctbnQn

> <r_epik_Ionization_Penalty>
  0.4051

> <r_epik_Ionization_Penalty_Charging>
  0.0000

> <r_epik_Ionization_Penalty_Neutral>
  0.4051

> <r_epik_State_Penalty>
  0.4046

> <r_epik_Charging_Adjusted_Penalty>
0.404574985535257

> <i_epik_Tot_Q>
-1

> <i_epik_Tot_abs_Q>
1

> <s_epik_Chemistry_Notes>
This compound has an imine and may undergo hydrolysis.

$$$$
