3qbh_ligand
                    3D
 Schrodinger Suite 2020-3.
 79 82  0  0  1  0            999 V2000
   28.7780    5.2150   14.3000 S   0  0  0  0  0  0
   29.5930    3.6230   14.1070 C   0  0  0  0  0  0
   30.9700    3.8330   13.4070 C   0  0  1  0  0  0
   31.9250    4.7850   14.1980 C   0  0  2  0  0  0
   31.3680    6.2090   14.5170 C   0  0  1  0  0  0
   29.9880    6.1180   15.2500 C   0  0  0  0  0  0
   32.3940    7.0700   15.3420 C   0  0  0  0  0  0
   31.8020    8.3860   15.8730 C   0  0  0  0  0  0
   31.5160    8.5250   17.2550 C   0  0  0  0  0  0
   30.9550    9.7160   17.7760 C   0  0  0  0  0  0
   30.6770   10.7830   16.8740 C   0  0  0  0  0  0
   30.9710   10.6570   15.4960 C   0  0  0  0  0  0
   31.5340    9.4630   14.9910 C   0  0  0  0  0  0
   30.1060   11.9770   17.3100 O   0  0  0  0  0  0
   30.6650    9.8190   19.2910 C   0  0  0  0  0  0
   29.3520    9.1360   19.7770 C   0  0  2  0  0  0
   29.2380    7.6830   19.6880 N   0  0  0  0  0  0
   28.1800    7.2680   18.9400 C   0  0  0  0  0  0
   27.5250    8.3320   18.4570 O   0  0  0  0  0  0
   28.0520    9.5350   19.0420 C   0  0  0  0  0  0
   27.8220    6.1280   18.6920 O   0  0  0  0  0  0
   30.1620    6.7260   20.3190 C   0  0  0  0  0  0
   30.2440    6.7890   21.8660 C   0  0  0  0  0  0
   31.1530    5.6460   22.3960 C   0  0  0  0  0  0
   33.1640    4.8650   13.4740 O   0  0  0  0  0  0
   31.6490    2.5440   13.0870 N   0  3  0  0  0  0
   31.0770    1.6410   12.0330 C   0  0  0  0  0  0
   30.9750    2.3530   10.6680 C   0  0  0  0  0  0
   32.1410    2.7400    9.9650 C   0  0  0  0  0  0
   32.0660    3.3980    8.7080 C   0  0  0  0  0  0
   30.7890    3.6680    8.1630 C   0  0  0  0  0  0
   29.6130    3.2880    8.8530 C   0  0  0  0  0  0
   29.7040    2.6300   10.1050 C   0  0  0  0  0  0
   33.3530    3.8070    7.9570 C   0  0  0  0  0  0
   33.9860    5.0620    8.6140 C   0  0  0  0  0  0
   34.4040    2.6810    7.7570 C   0  0  0  0  0  0
   27.5960    4.9960   15.1010 O   0  0  0  0  0  0
   28.6370    5.8460   13.0000 O   0  0  0  0  0  0
   29.7477    3.1679   15.0964 H   0  0  0  0  0  0
   28.9642    2.9612   13.4933 H   0  0  0  0  0  0
   30.7555    4.2896   12.4295 H   0  0  0  0  0  0
   32.1482    4.3336   15.1760 H   0  0  0  0  0  0
   31.2103    6.7172   13.5543 H   0  0  0  0  0  0
   29.6265    7.1419   15.4256 H   0  0  0  0  0  0
   30.1466    5.6146   16.2151 H   0  0  0  0  0  0
   32.7433    6.4918   16.2102 H   0  0  0  0  0  0
   33.2522    7.3284   14.7042 H   0  0  0  0  0  0
   31.7327    7.6974   17.9305 H   0  0  0  0  0  0
   30.7621   11.4858   14.8196 H   0  0  0  0  0  0
   31.7609    9.3708   13.9289 H   0  0  0  0  0  0
   29.8626   12.1140   18.3739 H   0  0  0  0  0  0
   31.4838    9.3472   19.8539 H   0  0  0  0  0  0
   30.5854   10.8779   19.5779 H   0  0  0  0  0  0
   29.4334    9.4349   20.8325 H   0  0  0  0  0  0
   27.3406    9.9649   19.7625 H   0  0  0  0  0  0
   28.2832   10.2797   18.2661 H   0  0  0  0  0  0
   29.8545    5.7000   20.0686 H   0  0  0  0  0  0
   31.1827    6.9035   19.9492 H   0  0  0  0  0  0
   30.6653    7.7581   22.1717 H   0  0  0  0  0  0
   29.2359    6.6769   22.2915 H   0  0  0  0  0  0
   31.2054    5.6983   23.4935 H   0  0  0  0  0  0
   32.1633    5.7559   21.9750 H   0  0  0  0  0  0
   30.7338    4.6746   22.0948 H   0  0  0  0  0  0
   33.6858    3.9445   13.1733 H   0  0  0  0  0  0
   32.6732    2.7454   12.7400 H   0  0  0  0  0  0
   31.6844    1.9145   13.9884 H   0  0  0  0  0  0
   31.7231    0.7584   11.9163 H   0  0  0  0  0  0
   30.0685    1.3201   12.3330 H   0  0  0  0  0  0
   33.1187    2.5284   10.3979 H   0  0  0  0  0  0
   30.7096    4.1743    7.2010 H   0  0  0  0  0  0
   28.6355    3.5018    8.4207 H   0  0  0  0  0  0
   28.7973    2.3372   10.6345 H   0  0  0  0  0  0
   33.0176    4.0436    6.9364 H   0  0  0  0  0  0
   33.2161    5.8374    8.7406 H   0  0  0  0  0  0
   34.7910    5.4462    7.9703 H   0  0  0  0  0  0
   34.3997    4.7921    9.5969 H   0  0  0  0  0  0
   33.9227    1.8088    7.2905 H   0  0  0  0  0  0
   34.8212    2.3913    8.7327 H   0  0  0  0  0  0
   35.2125    3.0455    7.1062 H   0  0  0  0  0  0
  1  2  1  0  0  0
  1  6  1  0  0  0
  1 37  2  0  0  0
  1 38  2  0  0  0
  2  3  1  0  0  0
  2 39  1  0  0  0
  2 40  1  0  0  0
  3  4  1  0  0  0
  3 26  1  0  0  0
  3 41  1  0  0  0
  4  5  1  0  0  0
  4 25  1  0  0  0
  4 42  1  0  0  0
  5  6  1  0  0  0
  5  7  1  0  0  0
  5 43  1  0  0  0
  6 44  1  0  0  0
  6 45  1  0  0  0
  7  8  1  0  0  0
  7 46  1  0  0  0
  7 47  1  0  0  0
  8  9  2  0  0  0
  8 13  1  0  0  0
  9 10  1  0  0  0
  9 48  1  0  0  0
 10 11  2  0  0  0
 10 15  1  0  0  0
 11 12  1  0  0  0
 11 14  1  0  0  0
 12 13  2  0  0  0
 12 49  1  0  0  0
 13 50  1  0  0  0
 14 51  1  0  0  0
 15 16  1  0  0  0
 15 52  1  0  0  0
 15 53  1  0  0  0
 16 17  1  0  0  0
 16 20  1  0  0  0
 16 54  1  0  0  0
 17 18  1  0  0  0
 17 22  1  0  0  0
 18 19  1  0  0  0
 18 21  2  0  0  0
 19 20  1  0  0  0
 20 55  1  0  0  0
 20 56  1  0  0  0
 22 23  1  0  0  0
 22 57  1  0  0  0
 22 58  1  0  0  0
 23 24  1  0  0  0
 23 59  1  0  0  0
 23 60  1  0  0  0
 24 61  1  0  0  0
 24 62  1  0  0  0
 24 63  1  0  0  0
 25 64  1  0  0  0
 26 27  1  0  0  0
 26 65  1  0  0  0
 26 66  1  0  0  0
 27 28  1  0  0  0
 27 67  1  0  0  0
 27 68  1  0  0  0
 28 29  2  0  0  0
 28 33  1  0  0  0
 29 30  1  0  0  0
 29 69  1  0  0  0
 30 31  2  0  0  0
 30 34  1  0  0  0
 31 32  1  0  0  0
 31 70  1  0  0  0
 32 33  2  0  0  0
 32 71  1  0  0  0
 33 72  1  0  0  0
 34 35  1  0  0  0
 34 36  1  0  0  0
 34 73  1  0  0  0
 35 74  1  0  0  0
 35 75  1  0  0  0
 35 76  1  0  0  0
 36 77  1  0  0  0
 36 78  1  0  0  0
 36 79  1  0  0  0
M  CHG  1  26   1
M  END
> <s_m_source_file>
../3qbh_ligand.sdf

> <i_m_source_file_index>
1

> <s_epik_input>
W2NIXTFbY0hdW2NIXWMoW0NIXShbQ0gzXSlbQ0gzXSlbY0hdYzFbQ0gyXVtOSDIrXVtDQEBIXShbQ0gyXVMyKD1PKT1PKVtDQEBIXShbT0hdKVtDQEBIXShbQ0gyXTIpW0NIMl1jM1tjSF1jKGMoW09IXSlbY0hdW2NIXTMpW0NIMl1bQ0BASF00TihDKD1PKU9bQ0gyXTQpW0NIMl1bQ0gyXVtDSDNd

> <s_epik_cmdline>
J2VwaWtfYXBwJywgJy1pbWFlJywgJ2xpZ2FuZF9wcm8ubWFlJywgJy1vbWFlJywgJ2xpZ2FuZF9wcmVwLm1hZScsICctbXMnLCAnMScsICctcGgnLCAnNycsICctcGh0JywgJzAuNScsICctbnQn

> <r_lp_tautomer_probability>
0.999999999997365

> <r_epik_Ionization_Penalty>
  0.1244

> <r_epik_Ionization_Penalty_Charging>
  0.1240

> <r_epik_Ionization_Penalty_Neutral>
  0.0003

> <r_epik_State_Penalty>
  0.1135

> <r_epik_Charging_Adjusted_Penalty>
0.237557418679174

> <i_epik_Tot_Q>
1

> <i_epik_Tot_abs_Q>
1

> <s_epik_Chemistry_Notes>
This compound has an ester and may undergo hydrolysis at high or low pH.

$$$$
