3qbn_ligand
                    3D
 Schrodinger Suite 2020-3.
 42 44  0  0  1  0            999 V2000
   -2.9690   33.1570   -7.6050 N   0  0  0  0  0  0
   -3.0740   33.2420   -6.2690 C   0  0  0  0  0  0
   -3.7000   32.2570   -5.6190 N   0  0  0  0  0  0
   -4.1990   31.1730   -6.2340 C   0  0  0  0  0  0
   -4.0650   31.0860   -7.6210 C   0  0  0  0  0  0
   -3.4350   32.1260   -8.2770 C   0  0  0  0  0  0
   -0.0660   37.9720    3.4700 C   0  0  0  0  0  0
   -2.3920   33.7190   -3.2560 C   0  0  0  0  0  0
   -1.1750   35.5660   -4.1970 C   0  0  0  0  0  0
   -1.8240   33.9850   -2.0000 C   0  0  0  0  0  0
   -0.6110   35.8380   -2.9450 C   0  0  0  0  0  0
    0.2520   36.7890    1.3290 C   0  0  0  0  0  0
   -0.6030   36.6340    0.0210 C   0  0  0  0  0  0
   -4.8530   29.8900   -2.9030 C   0  0  0  0  0  0
   -6.2380   29.4750   -3.4620 C   0  0  0  0  0  0
   -2.5850   34.3330   -5.6250 N   0  0  0  0  0  0
   -4.8030   30.2280   -5.4750 N   0  0  0  0  0  0
   -0.5190   36.8900    2.5900 O   0  0  0  0  0  0
   -0.3630   35.3140   -0.5980 O   0  0  0  0  0  0
   -2.0700   34.5030   -4.3760 C   0  0  0  0  0  0
   -0.9350   35.0580   -1.8300 C   0  0  0  0  0  0
   -5.4570   30.5970   -4.1500 C   0  0  0  0  0  0
   -4.6620   29.7490   -8.5480 Cl  0  0  0  0  0  0
   -3.3230   32.0922   -9.3607 H   0  0  0  0  0  0
   -0.6817   37.9854    4.3815 H   0  0  0  0  0  0
   -0.1637   38.9349    2.9473 H   0  0  0  0  0  0
    0.9872   37.8073    3.7413 H   0  0  0  0  0  0
   -3.0934   32.8916   -3.3636 H   0  0  0  0  0  0
   -0.9128   36.1933   -5.0490 H   0  0  0  0  0  0
   -2.0757   33.3524   -1.1488 H   0  0  0  0  0  0
    0.0886   36.6670   -2.8378 H   0  0  0  0  0  0
    0.9134   35.9171    1.4401 H   0  0  0  0  0  0
    0.8592   37.7039    1.2639 H   0  0  0  0  0  0
   -1.6710   36.7248    0.2682 H   0  0  0  0  0  0
   -0.3241   37.4213   -0.6948 H   0  0  0  0  0  0
   -4.9649   30.2336   -1.8640 H   0  0  0  0  0  0
   -4.1720   29.0266   -2.9323 H   0  0  0  0  0  0
   -6.2122   28.4153   -3.7558 H   0  0  0  0  0  0
   -7.0051   29.6222   -2.6875 H   0  0  0  0  0  0
   -2.5623   35.3079   -6.1340 H   0  0  0  0  0  0
   -4.8182   29.1850   -5.8242 H   0  0  0  0  0  0
   -5.6822   31.6345   -4.4379 H   0  0  0  0  0  0
  1  2  2  0  0  0
  1  6  1  0  0  0
  2  3  1  0  0  0
  2 16  1  0  0  0
  3  4  2  0  0  0
  4  5  1  0  0  0
  4 17  1  0  0  0
  5  6  2  0  0  0
  5 23  1  0  0  0
  6 24  1  0  0  0
  7 18  1  0  0  0
  7 25  1  0  0  0
  7 26  1  0  0  0
  7 27  1  0  0  0
  8 10  2  0  0  0
  8 20  1  0  0  0
  8 28  1  0  0  0
  9 11  1  0  0  0
  9 20  2  0  0  0
  9 29  1  0  0  0
 10 21  1  0  0  0
 10 30  1  0  0  0
 11 21  2  0  0  0
 11 31  1  0  0  0
 12 13  1  0  0  0
 12 18  1  0  0  0
 12 32  1  0  0  0
 12 33  1  0  0  0
 13 19  1  0  0  0
 13 34  1  0  0  0
 13 35  1  0  0  0
 14 15  1  0  0  0
 14 22  1  0  0  0
 14 36  1  0  0  0
 14 37  1  0  0  0
 15 22  1  0  0  0
 15 38  1  0  0  0
 15 39  1  0  0  0
 16 20  1  0  0  0
 16 40  1  0  0  0
 17 22  1  0  0  0
 17 41  1  0  0  0
 19 21  1  0  0  0
 22 42  1  0  0  0
M  END
> <s_m_source_file>
../3qbn_ligand.sdf

> <i_m_source_file_index>
1

> <s_epik_input>
W0NIMl0xW0NIMl1bQ0hdMVtOSF1jKG4yKWMoQ2wpW2NIXW5jMltOSF1jM1tjSF1bY0hdYyhbY0hdW2NIXTMpT1tDSDJdW0NIMl1PW0NIM10=

> <s_epik_cmdline>
J2VwaWtfYXBwJywgJy1pbWFlJywgJ2xpZ2FuZF9wcm8ubWFlJywgJy1vbWFlJywgJ2xpZ2FuZF9wcmVwLm1hZScsICctbXMnLCAnMScsICctcGgnLCAnNycsICctcGh0JywgJzAuNScsICctbnQn

> <r_lp_tautomer_probability>
1

> <r_epik_Ionization_Penalty>
  0.0014

> <r_epik_Ionization_Penalty_Charging>
  0.0000

> <r_epik_Ionization_Penalty_Neutral>
  0.0014

> <r_epik_State_Penalty>
 -0.0000

> <r_epik_Charging_Adjusted_Penalty>
0

> <i_epik_Tot_Q>
0

> <i_epik_Tot_abs_Q>
0

$$$$
