3qc4_ligand
                    3D
 Schrodinger Suite 2020-3.
 60 64  0  0  1  0            999 V2000
   15.1040   32.2130   21.3850 C   0  0  0  0  0  0
    9.3500   26.8700   21.0990 F   0  0  0  0  0  0
   14.0790   30.4490   19.9550 N   0  0  0  0  0  0
   12.7870   31.7070   21.3690 O   0  0  0  0  0  0
   16.3270   31.8230   20.8310 C   0  0  0  0  0  0
   16.4100   30.7950   19.8680 C   0  0  0  0  0  0
   15.2760   30.0900   19.4440 C   0  0  0  0  0  0
   13.9160   31.4820   20.9020 C   0  0  0  0  0  0
   12.8390   29.7900   19.5990 C   0  0  0  0  0  0
   12.4340   28.6350   20.4750 C   0  0  0  0  0  0
   13.3400   27.9010   21.1950 C   0  0  0  0  0  0
   12.8800   26.8140   21.9490 C   0  0  0  0  0  0
   11.5200   26.4690   21.9060 C   0  0  0  0  0  0
   10.6250   27.2250   21.1580 C   0  0  0  0  0  0
   11.1080   28.3010   20.4300 C   0  0  0  0  0  0
   11.0800   25.4540   22.5830 F   0  0  0  0  0  0
    9.4790   38.4850   20.5180 C   0  0  0  0  0  0
   10.5200   37.9790   19.6730 C   0  0  0  0  0  0
   11.4910   37.1220   20.1710 C   0  0  0  0  0  0
   11.4200   36.7650   21.5310 C   0  0  0  0  0  0
   10.4010   37.2690   22.3970 C   0  0  0  0  0  0
    9.4190   38.0880   21.8700 C   0  0  0  0  0  0
    8.6630   39.2490   19.7670 N   0  0  0  0  0  0
   10.3010   38.4830   18.4520 N   0  0  0  0  0  0
   12.4010   35.9890   22.0850 O   0  0  0  0  0  0
   12.3490   35.5610   23.4590 C   0  0  0  0  0  0
   13.6550   34.8420   23.7440 C   0  0  1  0  0  0
   13.9030   34.5440   25.2180 C   0  0  0  0  0  0
   13.7810   35.5490   26.1840 C   0  0  0  0  0  0
   14.0380   35.3110   27.5270 C   0  0  0  0  0  0
   14.4520   34.0380   27.9440 C   0  0  0  0  0  0
   14.6060   33.0290   27.0170 C   0  0  0  0  0  0
   14.3230   33.2860   25.6520 C   0  0  0  0  0  0
    9.2350   39.2320   18.5280 C   0  0  0  0  0  0
    8.7620   39.8480   17.4850 O   0  0  0  0  0  0
   13.7890   33.6610   22.8960 N   0  0  0  0  0  0
   14.9860   33.3020   22.4220 C   0  0  0  0  0  0
   16.0530   33.7950   22.8130 O   0  0  0  0  0  0
   17.2396   32.3258   21.1511 H   0  0  0  0  0  0
   17.3815   30.5429   19.4430 H   0  0  0  0  0  0
   15.3576   29.2763   18.7234 H   0  0  0  0  0  0
   12.0124   30.5144   19.6452 H   0  0  0  0  0  0
   12.9174   29.3878   18.5782 H   0  0  0  0  0  0
   14.3991   28.1584   21.1811 H   0  0  0  0  0  0
   13.5728   26.2403   22.5646 H   0  0  0  0  0  0
   10.4246   28.8870   19.8155 H   0  0  0  0  0  0
   12.2838   36.7373   19.5295 H   0  0  0  0  0  0
   10.3978   37.0120   23.4563 H   0  0  0  0  0  0
    8.5973   38.4272   22.5007 H   0  0  0  0  0  0
    7.7719   39.7100   20.2180 H   0  0  0  0  0  0
   10.9774   38.2289   17.6226 H   0  0  0  0  0  0
   12.2357   36.4387   24.1124 H   0  0  0  0  0  0
   11.4924   34.8856   23.6005 H   0  0  0  0  0  0
   14.4720   35.5140   23.4425 H   0  0  0  0  0  0
   13.4752   36.5478   25.8727 H   0  0  0  0  0  0
   13.9182   36.1123   28.2562 H   0  0  0  0  0  0
   14.6516   33.8465   28.9983 H   0  0  0  0  0  0
   14.9428   32.0412   27.3314 H   0  0  0  0  0  0
   14.4361   32.4823   24.9244 H   0  0  0  0  0  0
   12.9019   33.0613   22.6440 H   0  0  0  0  0  0
  1  5  2  0  0  0
  1  8  1  0  0  0
  1 37  1  0  0  0
  2 14  1  0  0  0
  3  7  1  0  0  0
  3  8  1  0  0  0
  3  9  1  0  0  0
  4  8  2  0  0  0
  5  6  1  0  0  0
  5 39  1  0  0  0
  6  7  2  0  0  0
  6 40  1  0  0  0
  7 41  1  0  0  0
  9 10  1  0  0  0
  9 42  1  0  0  0
  9 43  1  0  0  0
 10 11  2  0  0  0
 10 15  1  0  0  0
 11 12  1  0  0  0
 11 44  1  0  0  0
 12 13  2  0  0  0
 12 45  1  0  0  0
 13 14  1  0  0  0
 13 16  1  0  0  0
 14 15  2  0  0  0
 15 46  1  0  0  0
 17 18  2  0  0  0
 17 22  1  0  0  0
 17 23  1  0  0  0
 18 19  1  0  0  0
 18 24  1  0  0  0
 19 20  2  0  0  0
 19 47  1  0  0  0
 20 21  1  0  0  0
 20 25  1  0  0  0
 21 22  2  0  0  0
 21 48  1  0  0  0
 22 49  1  0  0  0
 23 34  1  0  0  0
 23 50  1  0  0  0
 24 34  1  0  0  0
 24 51  1  0  0  0
 25 26  1  0  0  0
 26 27  1  0  0  0
 26 52  1  0  0  0
 26 53  1  0  0  0
 27 28  1  0  0  0
 27 36  1  0  0  0
 27 54  1  0  0  0
 28 29  2  0  0  0
 28 33  1  0  0  0
 29 30  1  0  0  0
 29 55  1  0  0  0
 30 31  2  0  0  0
 30 56  1  0  0  0
 31 32  1  0  0  0
 31 57  1  0  0  0
 32 33  2  0  0  0
 32 58  1  0  0  0
 33 59  1  0  0  0
 34 35  2  0  0  0
 36 37  1  0  0  0
 36 60  1  0  0  0
 37 38  2  0  0  0
M  END
> <s_m_source_file>
../3qc4_ligand.sdf

> <i_m_source_file_index>
1

> <s_epik_input>
W25IXTFjKD1PKVtuSF1jKGMxMilbY0hdYyhbY0hdW2NIXTIpT1tDSDJdW0NAQEhdKGMzW2NIXVtjSF1bY0hdW2NIXVtjSF0zKVtOSF1DKD1PKWM0W2NIXVtjSF1bY0hdbihjND1PKVtDSDJdYzVbY0hdW2NIXWMoRiljKEYpW2NIXTU=

> <s_epik_cmdline>
J2VwaWtfYXBwJywgJy1pbWFlJywgJ2xpZ2FuZF9wcm8ubWFlJywgJy1vbWFlJywgJ2xpZ2FuZF9wcmVwLm1hZScsICctbXMnLCAnMScsICctcGgnLCAnNycsICctcGh0JywgJzAuNScsICctbnQn

> <r_lp_tautomer_probability>
1

> <r_epik_Ionization_Penalty>
  0.0000

> <r_epik_Ionization_Penalty_Charging>
  0.0000

> <r_epik_Ionization_Penalty_Neutral>
  0.0000

> <r_epik_State_Penalty>
 -0.0000

> <r_epik_Charging_Adjusted_Penalty>
1.07604213501094e-05

> <i_epik_Tot_Q>
0

> <i_epik_Tot_abs_Q>
0

$$$$
