3qce_ligand
                    3D
 Schrodinger Suite 2020-3.
 25 26  0  0  1  0            999 V2000
   34.0480   54.6640   79.0750 C   0  0  0  0  0  0
   34.5230   53.3640   78.5930 C   0  0  0  0  0  0
   33.5910   56.0440   78.0990 S   0  0  0  0  0  0
   34.1320   54.4270   80.3690 C   0  0  0  0  0  0
   34.9730   52.2960   79.9730 S   0  0  0  0  0  0
   34.6050   52.9900   77.1630 C   0  0  0  0  0  0
   32.7530   57.1120   79.2960 C   0  0  0  0  0  0
   34.4870   53.4840   81.2210 C   0  0  0  0  0  0
   34.9220   51.8130   76.8930 O   0  5  0  0  0  0
   34.3580   53.8380   76.2810 O   0  0  0  0  0  0
   31.9300   58.1840   78.5920 C   0  0  0  0  0  0
   30.5250   57.9400   78.4440 C   0  0  0  0  0  0
   32.5720   59.4090   78.1670 C   0  0  0  0  0  0
   29.7780   59.0270   77.9090 C   0  0  0  0  0  0
   31.8180   60.4720   77.5810 C   0  0  0  0  0  0
   30.4180   60.2370   77.4840 C   0  0  0  0  0  0
   28.0580   58.9890   77.8950 Cl  0  0  0  0  0  0
   29.3780   61.4820   76.8620 Cl  0  0  0  0  0  0
   33.7950   55.3048   80.9204 H   0  0  0  0  0  0
   32.0806   56.5056   79.9206 H   0  0  0  0  0  0
   33.5010   57.6051   79.9342 H   0  0  0  0  0  0
   34.4850   53.4426   82.3102 H   0  0  0  0  0  0
   30.0631   56.9923   78.7207 H   0  0  0  0  0  0
   33.6483   59.5229   78.2959 H   0  0  0  0  0  0
   32.2814   61.3954   77.2337 H   0  0  0  0  0  0
  1  2  2  0  0  0
  1  3  1  0  0  0
  1  4  1  0  0  0
  2  5  1  0  0  0
  2  6  1  0  0  0
  3  7  1  0  0  0
  4  8  2  0  0  0
  4 19  1  0  0  0
  5  8  1  0  0  0
  6  9  1  0  0  0
  6 10  2  0  0  0
  7 11  1  0  0  0
  7 20  1  0  0  0
  7 21  1  0  0  0
  8 22  1  0  0  0
 11 12  2  0  0  0
 11 13  1  0  0  0
 12 14  1  0  0  0
 12 23  1  0  0  0
 13 15  2  0  0  0
 13 24  1  0  0  0
 14 16  2  0  0  0
 14 17  1  0  0  0
 15 16  1  0  0  0
 15 25  1  0  0  0
 16 18  1  0  0  0
M  CHG  1   9  -1
M  END
> <s_m_source_file>
../3qce_ligand.sdf

> <i_m_source_file_index>
1

> <s_epik_input>
W2NIXTFbY0hdc2MoQyg9TylbT0hdKWMxU1tDSDJdYzJbY0hdYyhDbCljKENsKVtjSF1bY0hdMg==

> <s_epik_cmdline>
J2VwaWtfYXBwJywgJy1pbWFlJywgJ2xpZ2FuZF9wcm8ubWFlJywgJy1vbWFlJywgJ2xpZ2FuZF9wcmVwLm1hZScsICctbXMnLCAnMScsICctcGgnLCAnNycsICctcGh0JywgJzAuNScsICctbnQn

> <r_lp_tautomer_probability>
1

> <r_epik_Ionization_Penalty>
  0.0001

> <r_epik_Ionization_Penalty_Charging>
  0.0001

> <r_epik_Ionization_Penalty_Neutral>
  0.0000

> <r_epik_State_Penalty>
 -0.0000

> <r_epik_Charging_Adjusted_Penalty>
7.69731825368139e-05

> <i_epik_Tot_Q>
-1

> <i_epik_Tot_abs_Q>
1

$$$$
