3qch_ligand
                    3D
 Schrodinger Suite 2020-3.
 32 33  0  0  1  0            999 V2000
   20.0320   30.3370   62.5530 C   0  0  0  0  0  0
   19.0920   29.7120   63.2730 C   0  0  0  0  0  0
   19.4850   30.0290   64.6420 C   0  0  0  0  0  0
   21.0150   30.9450   64.6100 S   0  0  0  0  0  0
   21.1100   31.0380   62.8920 C   0  0  0  0  0  0
   19.7010   30.2280   60.7600 S   0  0  0  0  0  0
   18.1670   29.3100   60.8110 C   0  0  0  0  0  0
   17.7130   28.8820   59.4560 C   0  0  0  0  0  0
   17.9540   27.5090   59.0970 C   0  0  0  0  0  0
   16.5780   29.4700   57.3220 C   0  0  0  0  0  0
   17.0470   29.8470   58.6150 C   0  0  0  0  0  0
   17.4690   27.1320   57.8090 C   0  0  0  0  0  0
   16.7910   28.1000   56.9680 C   0  0  0  0  0  0
   16.1760   27.5490   55.4670 Cl  0  0  0  0  0  0
   17.7090   25.5130   57.2200 Cl  0  0  0  0  0  0
   22.1450   31.7440   62.1110 C   0  0  0  0  0  0
   23.0550   32.4750   62.7770 N   0  0  0  0  0  0
   22.1410   31.6480   60.8930 O   0  5  0  0  0  0
   24.3760   33.1540   62.0040 S   0  0  0  0  0  0
   25.6370   31.8930   61.7600 C   0  0  0  0  0  0
   23.9620   33.6310   60.6940 O   0  0  0  0  0  0
   24.9370   34.1120   62.9360 O   0  0  0  0  0  0
   18.2475   29.1173   62.9248 H   0  0  0  0  0  0
   18.9326   29.7508   65.5395 H   0  0  0  0  0  0
   18.3004   28.4069   61.4247 H   0  0  0  0  0  0
   17.3781   29.9384   61.2500 H   0  0  0  0  0  0
   18.4675   26.8110   59.7582 H   0  0  0  0  0  0
   16.0910   30.1766   56.6499 H   0  0  0  0  0  0
   16.9019   30.8676   58.9691 H   0  0  0  0  0  0
   25.2648   31.1335   61.0567 H   0  0  0  0  0  0
   25.8709   31.4171   62.7237 H   0  0  0  0  0  0
   26.5459   32.3578   61.3504 H   0  0  0  0  0  0
  1  2  1  0  0  0
  1  5  2  0  0  0
  1  6  1  0  0  0
  2  3  2  0  0  0
  2 23  1  0  0  0
  3  4  1  0  0  0
  3 24  1  0  0  0
  4  5  1  0  0  0
  5 16  1  0  0  0
  6  7  1  0  0  0
  7  8  1  0  0  0
  7 25  1  0  0  0
  7 26  1  0  0  0
  8  9  2  0  0  0
  8 11  1  0  0  0
  9 12  1  0  0  0
  9 27  1  0  0  0
 10 11  2  0  0  0
 10 13  1  0  0  0
 10 28  1  0  0  0
 11 29  1  0  0  0
 12 13  2  0  0  0
 12 15  1  0  0  0
 13 14  1  0  0  0
 16 17  2  0  0  0
 16 18  1  0  0  0
 17 19  1  0  0  0
 19 20  1  0  0  0
 19 21  2  0  0  0
 19 22  2  0  0  0
 20 30  1  0  0  0
 20 31  1  0  0  0
 20 32  1  0  0  0
M  CHG  1  18  -1
M  END
> <s_m_source_file>
../3qch_ligand.sdf

> <i_m_source_file_index>
1

> <s_epik_input>
W0NIM11TKD1PKSg9TylbTkhdQyg9TyljMXNbY0hdW2NIXWMxU1tDSDJdYzJbY0hdYyhDbCljKENsKVtjSF1bY0hdMg==

> <s_epik_cmdline>
J2VwaWtfYXBwJywgJy1pbWFlJywgJ2xpZ2FuZF9wcm8ubWFlJywgJy1vbWFlJywgJ2xpZ2FuZF9wcmVwLm1hZScsICctbXMnLCAnMScsICctcGgnLCAnNycsICctcGh0JywgJzAuNScsICctbnQn

> <r_lp_tautomer_probability>
1

> <r_epik_Ionization_Penalty>
  0.0013

> <r_epik_Ionization_Penalty_Charging>
  0.0013

> <r_epik_Ionization_Penalty_Neutral>
  0.0000

> <r_epik_State_Penalty>
 -0.0000

> <r_epik_Charging_Adjusted_Penalty>
0.00134326753543978

> <i_epik_Tot_Q>
-1

> <i_epik_Tot_abs_Q>
1

$$$$
