3qcj_ligand
                    3D
 Schrodinger Suite 2020-3.
 45 47  0  0  1  0            999 V2000
   19.9920   29.9670   62.0000 C   0  0  0  0  0  0
   21.9840   31.4990   61.7360 C   0  0  0  0  0  0
   22.6960   32.3920   62.4200 N   0  0  0  0  0  0
   19.6480   29.6980   60.3490 S   0  0  0  0  0  0
   17.9580   29.0710   60.4460 C   0  0  0  0  0  0
   17.5400   28.5720   59.0830 C   0  0  0  0  0  0
   16.8850   29.4980   58.2090 C   0  0  0  0  0  0
   16.4440   29.0990   56.9100 C   0  0  0  0  0  0
   16.7030   27.7340   56.5640 C   0  0  0  0  0  0
   17.3640   26.7950   57.4210 C   0  0  0  0  0  0
   17.8030   27.1880   58.7120 C   0  0  0  0  0  0
   16.1480   27.1840   55.0320 Cl  0  0  0  0  0  0
   17.6260   25.1760   56.8270 Cl  0  0  0  0  0  0
   22.0430   31.2720   60.5350 O   0  5  0  0  0  0
   23.7770   33.3380   61.7590 S   0  0  0  0  0  0
   24.0770   34.2810   62.7960 O   0  0  0  0  0  0
   23.2390   33.8310   60.5120 O   0  0  0  0  0  0
   21.0510   30.7660   62.5450 C   0  0  0  0  0  0
   19.4580   29.5790   63.1320 C   0  0  0  0  0  0
   19.5810   29.7160   64.4350 C   0  0  0  0  0  0
   21.0070   30.7640   64.3070 S   0  0  0  0  0  0
   25.2850   32.5450   61.5070 C   0  0  0  0  0  0
   26.2660   32.8250   62.5120 C   0  0  0  0  0  0
   27.5570   32.2670   62.4140 C   0  0  0  0  0  0
   27.8060   31.4170   61.2640 C   0  0  0  0  0  0
   26.7800   31.1420   60.2490 C   0  0  0  0  0  0
   25.4610   31.7230   60.3610 C   0  0  0  0  0  0
   29.0860   30.8410   61.1170 O   0  0  0  0  0  0
   30.1680   31.3400   61.9480 C   0  0  0  0  0  0
   27.0440   30.2730   59.0800 C   0  0  0  0  0  0
   28.2280   30.1740   58.6940 O   0  0  0  0  0  0
   26.0930   29.6790   58.5200 O   0  5  0  0  0  0
   17.9140   28.2463   61.1726 H   0  0  0  0  0  0
   17.2849   29.8794   60.7677 H   0  0  0  0  0  0
   16.7203   30.5234   58.5400 H   0  0  0  0  0  0
   15.9441   29.7872   56.2284 H   0  0  0  0  0  0
   18.3071   26.4954   59.3860 H   0  0  0  0  0  0
   18.6224   28.9115   62.9213 H   0  0  0  0  0  0
   19.0148   29.3281   65.2818 H   0  0  0  0  0  0
   26.0143   33.4703   63.3537 H   0  0  0  0  0  0
   28.3262   32.4632   63.1610 H   0  0  0  0  0  0
   24.6711   31.5462   59.6309 H   0  0  0  0  0  0
   31.0927   30.7920   61.7140 H   0  0  0  0  0  0
   29.9134   31.1939   63.0081 H   0  0  0  0  0  0
   30.3172   32.4119   61.7511 H   0  0  0  0  0  0
  1  4  1  0  0  0
  1 18  2  0  0  0
  1 19  1  0  0  0
  2  3  2  0  0  0
  2 14  1  0  0  0
  2 18  1  0  0  0
  3 15  1  0  0  0
  4  5  1  0  0  0
  5  6  1  0  0  0
  5 33  1  0  0  0
  5 34  1  0  0  0
  6  7  2  0  0  0
  6 11  1  0  0  0
  7  8  1  0  0  0
  7 35  1  0  0  0
  8  9  2  0  0  0
  8 36  1  0  0  0
  9 10  1  0  0  0
  9 12  1  0  0  0
 10 11  2  0  0  0
 10 13  1  0  0  0
 11 37  1  0  0  0
 15 16  2  0  0  0
 15 17  2  0  0  0
 15 22  1  0  0  0
 18 21  1  0  0  0
 19 20  2  0  0  0
 19 38  1  0  0  0
 20 21  1  0  0  0
 20 39  1  0  0  0
 22 23  2  0  0  0
 22 27  1  0  0  0
 23 24  1  0  0  0
 23 40  1  0  0  0
 24 25  2  0  0  0
 24 41  1  0  0  0
 25 26  1  0  0  0
 25 28  1  0  0  0
 26 27  2  0  0  0
 26 30  1  0  0  0
 27 42  1  0  0  0
 28 29  1  0  0  0
 29 43  1  0  0  0
 29 44  1  0  0  0
 29 45  1  0  0  0
 30 31  2  0  0  0
 30 32  1  0  0  0
M  CHG  2  14  -1  32  -1
M  END
> <s_m_source_file>
../3qcj_ligand.sdf

> <i_m_source_file_index>
1

> <s_epik_input>
W2NIXTFjKENsKWMoQ2wpW2NIXVtjSF1jMVtDSDJdU2MyYyhzW2NIXVtjSF0yKUMoPU8pW05IXVMoPU8pKD1PKWMzW2NIXVtjSF1jKE9bQ0gzXSljKFtjSF0zKUMoPU8pW09IXQ==

> <s_epik_cmdline>
J2VwaWtfYXBwJywgJy1pbWFlJywgJ2xpZ2FuZF9wcm8ubWFlJywgJy1vbWFlJywgJ2xpZ2FuZF9wcmVwLm1hZScsICctbXMnLCAnMScsICctcGgnLCAnNycsICctcGh0JywgJzAuNScsICctbnQn

> <r_lp_tautomer_probability>
1

> <r_epik_Ionization_Penalty>
  0.0026

> <r_epik_Ionization_Penalty_Charging>
  0.0026

> <r_epik_Ionization_Penalty_Neutral>
  0.0000

> <r_epik_State_Penalty>
 -0.0000

> <r_epik_Charging_Adjusted_Penalty>
0.00259498178283606

> <i_epik_Tot_Q>
-2

> <i_epik_Tot_abs_Q>
2

$$$$
