3qck_ligand
                    3D
 Schrodinger Suite 2020-3.
 28 29  0  0  1  0            999 V2000
   19.7460   30.0560   62.1540 C   0  0  0  0  0  0
   19.3910   29.6850   60.4550 S   0  0  0  0  0  0
   17.6880   29.0240   60.4900 C   0  0  0  0  0  0
   17.3360   28.4890   59.1230 C   0  0  0  0  0  0
   17.7080   27.1330   58.7830 C   0  0  0  0  0  0
   16.3100   28.9590   56.9020 C   0  0  0  0  0  0
   16.6590   29.3800   58.2170 C   0  0  0  0  0  0
   17.3540   26.7160   57.4770 C   0  0  0  0  0  0
   16.6590   27.6070   56.5860 C   0  0  0  0  0  0
   16.1570   26.9960   55.0690 Cl  0  0  0  0  0  0
   17.7110   25.1090   56.9360 Cl  0  0  0  0  0  0
   18.9160   29.5590   63.2290 C   0  0  0  0  0  0
   19.3230   29.8680   64.5720 C   0  0  0  0  0  0
   20.5140   30.6520   64.8220 C   0  0  0  0  0  0
   21.3400   31.1460   63.7550 C   0  0  0  0  0  0
   20.9190   30.8290   62.4150 C   0  0  0  0  0  0
   21.7200   31.2920   61.3110 C   0  0  0  0  0  0
   22.9540   31.1600   61.4000 O   0  5  0  0  0  0
   21.1760   31.8290   60.3300 O   0  0  0  0  0  0
   17.6243   28.2140   61.2315 H   0  0  0  0  0  0
   16.9884   29.8275   60.7637 H   0  0  0  0  0  0
   18.2251   26.4776   59.4838 H   0  0  0  0  0  0
   15.8139   29.6174   56.1889 H   0  0  0  0  0  0
   16.4103   30.3903   58.5419 H   0  0  0  0  0  0
   18.0184   28.9739   63.0287 H   0  0  0  0  0  0
   18.7285   29.5081   65.4117 H   0  0  0  0  0  0
   20.7930   30.8746   65.8519 H   0  0  0  0  0  0
   22.2390   31.7306   63.9500 H   0  0  0  0  0  0
  1  2  1  0  0  0
  1 12  2  0  0  0
  1 16  1  0  0  0
  2  3  1  0  0  0
  3  4  1  0  0  0
  3 20  1  0  0  0
  3 21  1  0  0  0
  4  5  2  0  0  0
  4  7  1  0  0  0
  5  8  1  0  0  0
  5 22  1  0  0  0
  6  7  2  0  0  0
  6  9  1  0  0  0
  6 23  1  0  0  0
  7 24  1  0  0  0
  8  9  2  0  0  0
  8 11  1  0  0  0
  9 10  1  0  0  0
 12 13  1  0  0  0
 12 25  1  0  0  0
 13 14  2  0  0  0
 13 26  1  0  0  0
 14 15  1  0  0  0
 14 27  1  0  0  0
 15 16  2  0  0  0
 15 28  1  0  0  0
 16 17  1  0  0  0
 17 18  1  0  0  0
 17 19  2  0  0  0
M  CHG  1  18  -1
M  END
> <s_m_source_file>
../3qck_ligand.sdf

> <i_m_source_file_index>
1

> <s_epik_input>
W09IXUMoPU8pYzFbY0hdW2NIXVtjSF1bY0hdYzFTW0NIMl1jMltjSF1jKENsKWMoQ2wpW2NIXVtjSF0y

> <s_epik_cmdline>
J2VwaWtfYXBwJywgJy1pbWFlJywgJ2xpZ2FuZF9wcm8ubWFlJywgJy1vbWFlJywgJ2xpZ2FuZF9wcmVwLm1hZScsICctbXMnLCAnMScsICctcGgnLCAnNycsICctcGh0JywgJzAuNScsICctbnQn

> <r_lp_tautomer_probability>
1

> <r_epik_Ionization_Penalty>
  0.0003

> <r_epik_Ionization_Penalty_Charging>
  0.0003

> <r_epik_Ionization_Penalty_Neutral>
  0.0000

> <r_epik_State_Penalty>
 -0.0000

> <r_epik_Charging_Adjusted_Penalty>
0.000311442537962379

> <i_epik_Tot_Q>
-1

> <i_epik_Tot_abs_Q>
1

$$$$
