3qcl_ligand
                    3D
 Schrodinger Suite 2020-3.
 37 38  0  0  1  0            999 V2000
   19.3360   29.9610   64.2700 C   0  0  0  0  0  0
   20.4670   30.7760   64.4730 C   0  0  0  0  0  0
   21.2710   31.2380   63.4020 C   0  0  0  0  0  0
   20.9600   30.8090   62.1100 C   0  0  0  0  0  0
   19.8330   29.9670   61.9060 C   0  0  0  0  0  0
   19.0340   29.5040   62.9870 C   0  0  0  0  0  0
   18.5630   29.5160   65.3870 C   0  0  0  0  0  0
   17.9250   29.1510   66.3110 C   0  0  0  0  0  0
   17.1900   28.6850   67.4770 C   0  0  0  0  0  0
   19.4700   29.4100   60.2920 S   0  0  0  0  0  0
   17.8080   28.8400   60.3770 C   0  0  0  0  0  0
   17.4500   28.3610   59.0380 C   0  0  0  0  0  0
   16.8230   29.2360   58.1630 C   0  0  0  0  0  0
   16.4710   28.8280   56.8860 C   0  0  0  0  0  0
   16.7070   27.5170   56.5260 C   0  0  0  0  0  0
   17.3590   26.6300   57.4380 C   0  0  0  0  0  0
   17.7340   27.0380   58.7120 C   0  0  0  0  0  0
   17.6470   25.0090   56.9560 Cl  0  0  0  0  0  0
   16.1670   26.9140   54.9830 Cl  0  0  0  0  0  0
   21.7170   31.2900   60.9710 C   0  0  0  0  0  0
   21.1390   32.0830   60.2530 O   0  0  0  0  0  0
   22.9320   30.8950   60.7190 O   0  5  0  0  0  0
   18.1550   28.3240   68.5620 C   0  0  0  0  0  0
   18.2660   29.4230   69.4930 O   0  0  0  0  0  0
   20.7331   31.0614   65.4908 H   0  0  0  0  0  0
   22.1099   31.9103   63.5816 H   0  0  0  0  0  0
   18.2091   28.8118   62.8182 H   0  0  0  0  0  0
   16.5207   29.4828   67.8315 H   0  0  0  0  0  0
   16.5948   27.8006   67.2059 H   0  0  0  0  0  0
   17.7369   28.0256   61.1130 H   0  0  0  0  0  0
   17.1514   29.6682   60.6820 H   0  0  0  0  0  0
   16.6049   30.2549   58.4830 H   0  0  0  0  0  0
   16.0182   29.5266   56.1824 H   0  0  0  0  0  0
   18.2217   26.3622   59.4145 H   0  0  0  0  0  0
   17.7938   27.4300   69.0914 H   0  0  0  0  0  0
   19.1411   28.1157   68.1213 H   0  0  0  0  0  0
   18.9340   29.3414   70.3631 H   0  0  0  0  0  0
  1  2  2  0  0  0
  1  6  1  0  0  0
  1  7  1  0  0  0
  2  3  1  0  0  0
  2 25  1  0  0  0
  3  4  2  0  0  0
  3 26  1  0  0  0
  4  5  1  0  0  0
  4 20  1  0  0  0
  5  6  2  0  0  0
  5 10  1  0  0  0
  6 27  1  0  0  0
  7  8  3  0  0  0
  8  9  1  0  0  0
  9 23  1  0  0  0
  9 28  1  0  0  0
  9 29  1  0  0  0
 10 11  1  0  0  0
 11 12  1  0  0  0
 11 30  1  0  0  0
 11 31  1  0  0  0
 12 13  2  0  0  0
 12 17  1  0  0  0
 13 14  1  0  0  0
 13 32  1  0  0  0
 14 15  2  0  0  0
 14 33  1  0  0  0
 15 16  1  0  0  0
 15 19  1  0  0  0
 16 17  2  0  0  0
 16 18  1  0  0  0
 17 34  1  0  0  0
 20 21  2  0  0  0
 20 22  1  0  0  0
 23 24  1  0  0  0
 23 35  1  0  0  0
 23 36  1  0  0  0
 24 37  1  0  0  0
M  CHG  1  22  -1
M  END
> <s_m_source_file>
../3qcl_ligand.sdf

> <i_m_source_file_index>
1

> <s_epik_input>
W09IXVtDSDJdW0NIMl1DI0NjMVtjSF1bY0hdYyhDKD1PKVtPSF0pYyhbY0hdMSlTW0NIMl1jMltjSF1bY0hdYyhDbCljKENsKVtjSF0y

> <s_epik_cmdline>
J2VwaWtfYXBwJywgJy1pbWFlJywgJ2xpZ2FuZF9wcm8ubWFlJywgJy1vbWFlJywgJ2xpZ2FuZF9wcmVwLm1hZScsICctbXMnLCAnMScsICctcGgnLCAnNycsICctcGh0JywgJzAuNScsICctbnQn

> <r_lp_tautomer_probability>
1

> <r_epik_Ionization_Penalty>
  0.0002

> <r_epik_Ionization_Penalty_Charging>
  0.0002

> <r_epik_Ionization_Penalty_Neutral>
  0.0000

> <r_epik_State_Penalty>
 -0.0000

> <r_epik_Charging_Adjusted_Penalty>
0.000235995288984312

> <i_epik_Tot_Q>
-1

> <i_epik_Tot_abs_Q>
1

$$$$
