3qcq_ligand
                    3D
 Schrodinger Suite 2020-3.
 35 37  0  0  1  0            999 V2000
  -40.6490   16.4720   12.7400 C   0  0  0  0  0  0
  -41.8220   17.1280   12.4460 C   0  0  0  0  0  0
  -42.9400   15.1320   11.7670 C   0  0  0  0  0  0
  -44.4240   18.5120   12.0030 C   0  0  0  0  0  0
  -40.6310   15.0970   12.5430 C   0  0  0  0  0  0
  -42.9450   16.4960   11.9600 C   0  0  0  0  0  0
  -41.7720   14.4790   12.0740 C   0  0  0  0  0  0
  -44.1550   17.2140   11.6230 C   0  0  0  0  0  0
  -45.6480   19.0320   11.6260 C   0  0  0  0  0  0
  -39.6760   14.0500   12.7090 C   0  0  0  0  0  0
  -46.1940   17.0560   10.6050 C   0  0  0  0  0  0
  -45.0440   20.8470   14.1490 C   0  0  0  0  0  0
  -44.8700   20.9790   12.6560 C   0  0  0  0  0  0
  -45.0280   16.4850   10.9230 N   0  0  0  0  0  0
  -46.5350   18.3100   10.9300 N   0  0  0  0  0  0
  -40.1960   12.8660   12.3590 N   0  0  0  0  0  0
  -41.4570   13.1520   11.9840 N   0  3  0  0  0  0
  -38.4090   14.2590   13.1660 N   0  0  0  0  0  0
  -47.0980   16.2830    9.8740 N   0  0  0  0  0  0
  -45.9880   20.3460   11.9780 N   0  0  0  0  0  0
  -39.7742   17.0064   13.1104 H   0  0  0  0  0  0
  -41.8648   18.2053   12.6062 H   0  0  0  0  0  0
  -43.8146   14.6008   11.3915 H   0  0  0  0  0  0
  -43.7054   19.1002   12.5737 H   0  0  0  0  0  0
  -44.1967   21.3268   14.6607 H   0  0  0  0  0  0
  -45.0812   19.7818   14.4210 H   0  0  0  0  0  0
  -45.9810   21.3362   14.4536 H   0  0  0  0  0  0
  -44.8328   22.0442   12.3840 H   0  0  0  0  0  0
  -43.9330   20.4899   12.3514 H   0  0  0  0  0  0
  -38.0792   15.2754   13.4272 H   0  0  0  0  0  0
  -37.7163   13.4113   13.2736 H   0  0  0  0  0  0
  -46.8396   15.2506    9.5958 H   0  0  0  0  0  0
  -48.0686   16.7063    9.5763 H   0  0  0  0  0  0
  -46.9209   20.9057   11.8153 H   0  0  0  0  0  0
  -42.1260   12.3472   11.6451 H   0  0  0  0  0  0
  1  2  2  0  0  0
  1  5  1  0  0  0
  1 21  1  0  0  0
  2  6  1  0  0  0
  2 22  1  0  0  0
  3  6  2  0  0  0
  3  7  1  0  0  0
  3 23  1  0  0  0
  4  8  2  0  0  0
  4  9  1  0  0  0
  4 24  1  0  0  0
  5  7  2  0  0  0
  5 10  1  0  0  0
  6  8  1  0  0  0
  7 17  1  0  0  0
  8 14  1  0  0  0
  9 15  2  0  0  0
  9 20  1  0  0  0
 10 16  2  0  0  0
 10 18  1  0  0  0
 11 14  2  0  0  0
 11 15  1  0  0  0
 11 19  1  0  0  0
 12 13  1  0  0  0
 12 25  1  0  0  0
 12 26  1  0  0  0
 12 27  1  0  0  0
 13 20  1  0  0  0
 13 28  1  0  0  0
 13 29  1  0  0  0
 16 17  1  0  0  0
 17 35  1  0  0  0
 18 30  1  0  0  0
 18 31  1  0  0  0
 19 32  1  0  0  0
 19 33  1  0  0  0
 20 34  1  0  0  0
M  CHG  1  17   1
M  END
> <s_m_source_file>
../3qcq_ligand.sdf

> <i_m_source_file_index>
1

> <s_epik_input>
W05IMl1jMW5bbkhdYyhjMTIpW2NIXWMoW2NIXVtjSF0yKS1jM1tjSF1jKG5jKG4zKVtOSDJdKVtOSF1bQ0gyXVtDSDNd

> <s_epik_cmdline>
J2VwaWtfYXBwJywgJy1pbWFlJywgJ2xpZ2FuZF9wcm8ubWFlJywgJy1vbWFlJywgJ2xpZ2FuZF9wcmVwLm1hZScsICctbXMnLCAnMScsICctcGgnLCAnNycsICctcGh0JywgJzAuNScsICctbnQn

> <r_epik_Ionization_Penalty>
  0.2828

> <r_epik_Ionization_Penalty_Charging>
  0.0000

> <r_epik_Ionization_Penalty_Neutral>
  0.2828

> <r_epik_State_Penalty>
  0.2415

> <r_epik_Charging_Adjusted_Penalty>
0.241530340844046

> <i_epik_Tot_Q>
1

> <i_epik_Tot_abs_Q>
1

> <s_epik_Chemistry_Notes>
This compound has an imine and may undergo hydrolysis.

$$$$
