3qcs_ligand
                    3D
 Schrodinger Suite 2020-3.
 40 43  0  0  1  0            999 V2000
  -40.8520   16.4420   12.8550 C   0  0  0  0  0  0
  -42.0130   17.1260   12.5620 C   0  0  0  0  0  0
  -43.1360   15.1680   11.7880 C   0  0  0  0  0  0
  -44.6080   18.5260   12.1850 C   0  0  0  0  0  0
  -40.8490   15.0810   12.6040 C   0  0  0  0  0  0
  -43.1310   16.5230   12.0350 C   0  0  0  0  0  0
  -41.9800   14.4920   12.0880 C   0  0  0  0  0  0
  -44.3330   17.2600   11.7230 C   0  0  0  0  0  0
  -45.8210   19.0770   11.8310 C   0  0  0  0  0  0
  -39.9130   14.0190   12.7480 C   0  0  0  0  0  0
  -46.3500   17.1830   10.6660 C   0  0  0  0  0  0
  -44.9590   21.0230   12.8250 C   0  0  0  0  0  0
  -47.0900   21.0210   11.4150 C   0  0  0  0  0  0
  -44.8290   22.4510   12.3540 C   0  0  0  0  0  0
  -46.7030   22.4450   11.1100 C   0  0  0  0  0  0
  -45.1980   16.5800   10.9680 N   0  0  0  0  0  0
  -46.6970   18.4100   11.0720 N   0  0  0  0  0  0
  -40.4280   12.8530   12.3470 N   0  0  0  0  0  0
  -41.6720   13.1670   11.9540 N   0  3  0  0  0  0
  -46.1430   20.3610   12.3020 N   0  0  0  0  0  0
  -38.6640   14.2090   13.2340 N   0  0  0  0  0  0
  -47.2480   16.4620    9.8770 N   0  0  0  0  0  0
  -46.1250   23.0140   12.2780 O   0  0  0  0  0  0
  -39.9784   16.9490   13.2647 H   0  0  0  0  0  0
  -42.0462   18.1978   12.7578 H   0  0  0  0  0  0
  -44.0092   14.6610   11.3773 H   0  0  0  0  0  0
  -43.8964   19.0709   12.8053 H   0  0  0  0  0  0
  -44.0808   20.4474   12.4973 H   0  0  0  0  0  0
  -45.0214   21.0033   13.9231 H   0  0  0  0  0  0
  -48.0761   21.0054   11.9021 H   0  0  0  0  0  0
  -47.1342   20.4445   10.4792 H   0  0  0  0  0  0
  -44.2130   23.0178   13.0676 H   0  0  0  0  0  0
  -44.3517   22.4683   11.3631 H   0  0  0  0  0  0
  -45.9750   22.4585   10.2854 H   0  0  0  0  0  0
  -47.5982   23.0138   10.8182 H   0  0  0  0  0  0
  -38.3389   15.2152   13.5370 H   0  0  0  0  0  0
  -37.9741   13.3572   13.3260 H   0  0  0  0  0  0
  -46.9868   15.4513    9.5302 H   0  0  0  0  0  0
  -48.2168   16.9046    9.6020 H   0  0  0  0  0  0
  -42.3404   12.3841   11.5664 H   0  0  0  0  0  0
  1  2  2  0  0  0
  1  5  1  0  0  0
  1 24  1  0  0  0
  2  6  1  0  0  0
  2 25  1  0  0  0
  3  6  2  0  0  0
  3  7  1  0  0  0
  3 26  1  0  0  0
  4  8  2  0  0  0
  4  9  1  0  0  0
  4 27  1  0  0  0
  5  7  2  0  0  0
  5 10  1  0  0  0
  6  8  1  0  0  0
  7 19  1  0  0  0
  8 16  1  0  0  0
  9 17  2  0  0  0
  9 20  1  0  0  0
 10 18  2  0  0  0
 10 21  1  0  0  0
 11 16  2  0  0  0
 11 17  1  0  0  0
 11 22  1  0  0  0
 12 14  1  0  0  0
 12 20  1  0  0  0
 12 28  1  0  0  0
 12 29  1  0  0  0
 13 15  1  0  0  0
 13 20  1  0  0  0
 13 30  1  0  0  0
 13 31  1  0  0  0
 14 23  1  0  0  0
 14 32  1  0  0  0
 14 33  1  0  0  0
 15 23  1  0  0  0
 15 34  1  0  0  0
 15 35  1  0  0  0
 18 19  1  0  0  0
 19 40  1  0  0  0
 21 36  1  0  0  0
 21 37  1  0  0  0
 22 38  1  0  0  0
 22 39  1  0  0  0
M  CHG  1  19   1
M  END
> <s_m_source_file>
../3qcs_ligand.sdf

> <i_m_source_file_index>
1

> <s_epik_input>
W05IMl1jMW5bbkhdYyhjMTIpW2NIXWMoW2NIXVtjSF0yKS1jM1tjSF1jKG5jKG4zKVtOSDJdKU40W0NIMl1bQ0gyXU9bQ0gyXVtDSDJdNA==

> <s_epik_cmdline>
J2VwaWtfYXBwJywgJy1pbWFlJywgJ2xpZ2FuZF9wcm8ubWFlJywgJy1vbWFlJywgJ2xpZ2FuZF9wcmVwLm1hZScsICctbXMnLCAnMScsICctcGgnLCAnNycsICctcGh0JywgJzAuNScsICctbnQn

> <r_epik_Ionization_Penalty>
  0.0154

> <r_epik_Ionization_Penalty_Charging>
  0.0000

> <r_epik_Ionization_Penalty_Neutral>
  0.0154

> <r_epik_State_Penalty>
  0.0119

> <r_epik_Charging_Adjusted_Penalty>
0.0119346012820342

> <i_epik_Tot_Q>
1

> <i_epik_Tot_abs_Q>
1

> <s_epik_Chemistry_Notes>
This compound has an imine and may undergo hydrolysis.

$$$$
