3qcx_ligand
                    3D
 Schrodinger Suite 2020-3.
 43 46  0  0  1  0            999 V2000
  -40.6850   16.4550   12.9350 C   0  0  0  0  0  0
  -41.8750   17.0930   12.6120 C   0  0  0  0  0  0
  -42.9100   15.0750   11.8780 C   0  0  0  0  0  0
  -44.3540   18.4770   11.8950 C   0  0  0  0  0  0
  -40.6150   15.0770   12.7190 C   0  0  0  0  0  0
  -42.9720   16.4350   12.0800 C   0  0  0  0  0  0
  -41.7370   14.4430   12.2140 C   0  0  0  0  0  0
  -44.1880   17.1330   11.6770 C   0  0  0  0  0  0
  -45.5240   19.0700   11.4710 C   0  0  0  0  0  0
  -39.6520   14.0240   12.8860 C   0  0  0  0  0  0
  -46.2580   17.0720   10.6730 C   0  0  0  0  0  0
  -47.0610   20.9290   11.7300 C   0  0  0  0  0  0
  -46.9770   22.3920   11.3480 C   0  0  0  0  0  0
  -44.7440   22.5510   12.1170 C   0  0  0  0  0  0
  -44.7480   21.1090   12.5730 C   0  0  1  0  0  0
  -45.2040   21.0400   14.0050 C   0  0  0  0  0  0
  -45.1440   16.4210   11.0680 N   0  0  0  0  0  0
  -46.4790   18.3740   10.8450 N   0  0  0  0  0  0
  -40.1520   12.8400   12.5000 N   0  0  0  0  0  0
  -41.4040   13.1190   12.0980 N   0  3  0  0  0  0
  -45.6910   20.4680   11.6540 N   0  0  0  0  0  0
  -38.3840   14.1870   13.3820 N   0  0  0  0  0  0
  -47.2810   16.3820   10.0280 N   0  0  0  0  0  0
  -46.0780   23.0730   12.2250 O   0  0  0  0  0  0
  -39.8382   17.0081   13.3414 H   0  0  0  0  0  0
  -41.9500   18.1664   12.7858 H   0  0  0  0  0  0
  -43.7558   14.5225   11.4687 H   0  0  0  0  0  0
  -43.5797   19.0619   12.3914 H   0  0  0  0  0  0
  -47.4730   20.8384   12.7459 H   0  0  0  0  0  0
  -47.7157   20.4018   11.0205 H   0  0  0  0  0  0
  -46.6119   22.4806   10.3141 H   0  0  0  0  0  0
  -47.9746   22.8490   11.4250 H   0  0  0  0  0  0
  -44.0622   23.1347   12.7529 H   0  0  0  0  0  0
  -44.4059   22.6041   11.0716 H   0  0  0  0  0  0
  -43.7746   20.5982   12.5332 H   0  0  0  0  0  0
  -44.4625   21.5341   14.6501 H   0  0  0  0  0  0
  -45.3085   19.9872   14.3062 H   0  0  0  0  0  0
  -46.1743   21.5483   14.1057 H   0  0  0  0  0  0
  -38.0346   15.1863   13.6810 H   0  0  0  0  0  0
  -37.7162   13.3185   13.4809 H   0  0  0  0  0  0
  -47.1845   15.3019    9.8431 H   0  0  0  0  0  0
  -48.1857   16.9169    9.7033 H   0  0  0  0  0  0
  -42.0525   12.3147   11.7205 H   0  0  0  0  0  0
  1  2  2  0  0  0
  1  5  1  0  0  0
  1 25  1  0  0  0
  2  6  1  0  0  0
  2 26  1  0  0  0
  3  6  2  0  0  0
  3  7  1  0  0  0
  3 27  1  0  0  0
  4  8  2  0  0  0
  4  9  1  0  0  0
  4 28  1  0  0  0
  5  7  2  0  0  0
  5 10  1  0  0  0
  6  8  1  0  0  0
  7 20  1  0  0  0
  8 17  1  0  0  0
  9 18  2  0  0  0
  9 21  1  0  0  0
 10 19  2  0  0  0
 10 22  1  0  0  0
 11 17  2  0  0  0
 11 18  1  0  0  0
 11 23  1  0  0  0
 12 13  1  0  0  0
 12 21  1  0  0  0
 12 29  1  0  0  0
 12 30  1  0  0  0
 13 24  1  0  0  0
 13 31  1  0  0  0
 13 32  1  0  0  0
 14 15  1  0  0  0
 14 24  1  0  0  0
 14 33  1  0  0  0
 14 34  1  0  0  0
 15 16  1  0  0  0
 15 21  1  0  0  0
 15 35  1  0  0  0
 16 36  1  0  0  0
 16 37  1  0  0  0
 16 38  1  0  0  0
 19 20  1  0  0  0
 20 43  1  0  0  0
 22 39  1  0  0  0
 22 40  1  0  0  0
 23 41  1  0  0  0
 23 42  1  0  0  0
M  CHG  1  20   1
M  END
> <s_m_source_file>
../3qcx_ligand.sdf

> <i_m_source_file_index>
1

> <s_epik_input>
W05IMl1jMW5bbkhdYyhjMTIpW2NIXWMoW2NIXVtjSF0yKS1jM1tjSF1jKG5jKG4zKVtOSDJdKU40W0NIMl1bQ0gyXU9bQ0gyXVtDQEhdNFtDSDNd

> <s_epik_cmdline>
J2VwaWtfYXBwJywgJy1pbWFlJywgJ2xpZ2FuZF9wcm8ubWFlJywgJy1vbWFlJywgJ2xpZ2FuZF9wcmVwLm1hZScsICctbXMnLCAnMScsICctcGgnLCAnNycsICctcGh0JywgJzAuNScsICctbnQn

> <r_epik_Ionization_Penalty>
  0.0155

> <r_epik_Ionization_Penalty_Charging>
  0.0000

> <r_epik_Ionization_Penalty_Neutral>
  0.0155

> <r_epik_State_Penalty>
  0.0120

> <r_epik_Charging_Adjusted_Penalty>
0.0119995913411335

> <i_epik_Tot_Q>
1

> <i_epik_Tot_abs_Q>
1

> <s_epik_Chemistry_Notes>
This compound has an imine and may undergo hydrolysis.

$$$$
