3qd0_ligand
                    3D
 Schrodinger Suite 2020-3.
 59 63  0  0  1  0            999 V2000
  -52.8550   24.7130    9.1690 C   0  0  0  0  0  0
  -52.2490   23.8000    8.3290 C   0  0  0  0  0  0
  -52.1820   25.1640   10.2880 C   0  0  0  0  0  0
  -40.8020   16.4820   13.0440 C   0  0  0  0  0  0
  -42.0000   17.0910   12.7040 C   0  0  0  0  0  0
  -50.9790   23.3360    8.6110 C   0  0  0  0  0  0
  -50.9130   24.7030   10.5740 C   0  0  0  0  0  0
  -43.0190   15.0870   11.9110 C   0  0  0  0  0  0
  -44.5490   18.5190   12.0560 C   0  0  0  0  0  0
  -40.7190   15.1080   12.7980 C   0  0  0  0  0  0
  -43.1010   16.4520   12.1410 C   0  0  0  0  0  0
  -41.8260   14.4760   12.2570 C   0  0  0  0  0  0
  -50.3160   23.7840    9.7340 C   0  0  0  0  0  0
  -44.3320   17.1860   11.7520 C   0  0  0  0  0  0
  -45.7500   19.1170   11.6860 C   0  0  0  0  0  0
  -39.7370   14.0810   12.9550 C   0  0  0  0  0  0
  -46.4210   17.1120   10.7650 C   0  0  0  0  0  0
  -48.5250   23.1180   11.2570 C   0  0  0  0  0  0
  -46.3510   23.2490   12.3950 C   0  0  0  0  0  0
  -44.9820   22.6120   12.6350 C   0  0  0  0  0  0
  -47.3210   21.0520   11.8320 C   0  0  0  0  0  0
  -47.1510   22.4810   11.3360 C   0  0  1  0  0  0
  -45.0930   21.1290   12.9980 C   0  0  1  0  0  0
  -45.5760   20.9800   14.4180 C   0  0  0  0  0  0
  -45.2770   16.4850   11.1050 N   0  0  0  0  0  0
  -46.6810   18.4020   11.0390 N   0  0  0  0  0  0
  -40.2110   12.8990   12.5270 N   0  0  0  0  0  0
  -41.4590   13.1680   12.1200 N   0  3  0  0  0  0
  -45.9620   20.5170   11.9760 N   0  0  0  0  0  0
  -38.4790   14.2720   13.4660 N   0  0  0  0  0  0
  -47.4170   16.3900   10.0880 N   0  0  0  0  0  0
  -49.0260   23.2960    9.9890 N   0  0  0  0  0  0
  -49.1330   23.4090   12.2650 O   0  0  0  0  0  0
  -53.8592   25.0760    8.9504 H   0  0  0  0  0  0
  -52.7736   23.4449    7.4420 H   0  0  0  0  0  0
  -52.6565   25.8888   10.9495 H   0  0  0  0  0  0
  -39.9732   17.0415   13.4777 H   0  0  0  0  0  0
  -42.0872   18.1608   12.8936 H   0  0  0  0  0  0
  -50.5012   22.6162    7.9463 H   0  0  0  0  0  0
  -50.3853   25.0621   11.4575 H   0  0  0  0  0  0
  -43.8487   14.5257   11.4812 H   0  0  0  0  0  0
  -43.7863   19.0949   12.5803 H   0  0  0  0  0  0
  -46.9253   23.2482   13.3332 H   0  0  0  0  0  0
  -46.2179   24.2841   12.0475 H   0  0  0  0  0  0
  -44.3731   22.6969   11.7228 H   0  0  0  0  0  0
  -44.4763   23.1305   13.4629 H   0  0  0  0  0  0
  -47.8522   21.0590   12.7952 H   0  0  0  0  0  0
  -47.9020   20.4754   11.0971 H   0  0  0  0  0  0
  -46.6559   22.4970   10.3538 H   0  0  0  0  0  0
  -44.1425   20.5760   12.9712 H   0  0  0  0  0  0
  -44.8637   21.4667   15.1005 H   0  0  0  0  0  0
  -45.6528   19.9118   14.6690 H   0  0  0  0  0  0
  -46.5639   21.4528   14.5208 H   0  0  0  0  0  0
  -38.1655   15.2735   13.7957 H   0  0  0  0  0  0
  -37.7833   13.4237   13.5462 H   0  0  0  0  0  0
  -47.2554   15.3308    9.8392 H   0  0  0  0  0  0
  -48.3588   16.8836    9.8064 H   0  0  0  0  0  0
  -48.3613   23.0350    9.1523 H   0  0  0  0  0  0
  -42.0916   12.3633   11.7171 H   0  0  0  0  0  0
  1  2  2  0  0  0
  1  3  1  0  0  0
  1 34  1  0  0  0
  2  6  1  0  0  0
  2 35  1  0  0  0
  3  7  2  0  0  0
  3 36  1  0  0  0
  4  5  2  0  0  0
  4 10  1  0  0  0
  4 37  1  0  0  0
  5 11  1  0  0  0
  5 38  1  0  0  0
  6 13  2  0  0  0
  6 39  1  0  0  0
  7 13  1  0  0  0
  7 40  1  0  0  0
  8 11  2  0  0  0
  8 12  1  0  0  0
  8 41  1  0  0  0
  9 14  2  0  0  0
  9 15  1  0  0  0
  9 42  1  0  0  0
 10 12  2  0  0  0
 10 16  1  0  0  0
 11 14  1  0  0  0
 12 28  1  0  0  0
 13 32  1  0  0  0
 14 25  1  0  0  0
 15 26  2  0  0  0
 15 29  1  0  0  0
 16 27  2  0  0  0
 16 30  1  0  0  0
 17 25  2  0  0  0
 17 26  1  0  0  0
 17 31  1  0  0  0
 18 22  1  0  0  0
 18 32  1  0  0  0
 18 33  2  0  0  0
 19 20  1  0  0  0
 19 22  1  0  0  0
 19 43  1  0  0  0
 19 44  1  0  0  0
 20 23  1  0  0  0
 20 45  1  0  0  0
 20 46  1  0  0  0
 21 22  1  0  0  0
 21 29  1  0  0  0
 21 47  1  0  0  0
 21 48  1  0  0  0
 22 49  1  0  0  0
 23 24  1  0  0  0
 23 29  1  0  0  0
 23 50  1  0  0  0
 24 51  1  0  0  0
 24 52  1  0  0  0
 24 53  1  0  0  0
 27 28  1  0  0  0
 28 59  1  0  0  0
 30 54  1  0  0  0
 30 55  1  0  0  0
 31 56  1  0  0  0
 31 57  1  0  0  0
 32 58  1  0  0  0
M  CHG  1  28   1
M  END
> <s_m_source_file>
../3qd0_ligand.sdf

> <i_m_source_file_index>
1

> <s_epik_input>
W2NIXTFbY0hdW2NIXVtjSF1bY0hdYzFbTkhdQyg9TylbQ0BIXTJbQ0gyXVtDSDJdW0NAQEhdKFtDSDNdKU4oW0NIMl0yKWMobmMobjMpW05IMl0pW2NIXWMzLWMoW2NIXVtjSF00KVtjSF1jKGM0NSlbbkhdbmM1W05IMl0=

> <s_epik_cmdline>
J2VwaWtfYXBwJywgJy1pbWFlJywgJ2xpZ2FuZF9wcm8ubWFlJywgJy1vbWFlJywgJ2xpZ2FuZF9wcmVwLm1hZScsICctbXMnLCAnMScsICctcGgnLCAnNycsICctcGh0JywgJzAuNScsICctbnQn

> <r_epik_Ionization_Penalty>
  0.1004

> <r_epik_Ionization_Penalty_Charging>
  0.0000

> <r_epik_Ionization_Penalty_Neutral>
  0.1004

> <r_epik_State_Penalty>
  0.0899

> <r_epik_Charging_Adjusted_Penalty>
0.0899081885012635

> <i_epik_Tot_Q>
1

> <i_epik_Tot_abs_Q>
1

> <s_epik_Chemistry_Notes>
This compound has an imine and may undergo hydrolysis.

$$$$
