3qd3_ligand
                    3D
 Schrodinger Suite 2020-3.
 62 65  0  0  1  0            999 V2000
  -40.6660   16.4550   12.7750 C   0  0  0  0  0  0
  -41.8590   17.0570   12.4210 C   0  0  0  0  0  0
  -42.8460   15.0070   11.6940 C   0  0  0  0  0  0
  -44.4420   18.3530   11.9070 C   0  0  0  0  0  0
  -40.5730   15.0820   12.5770 C   0  0  0  0  0  0
  -42.9360   16.3710   11.8880 C   0  0  0  0  0  0
  -41.6550   14.4070   12.0490 C   0  0  0  0  0  0
  -44.1760   17.0560   11.5220 C   0  0  0  0  0  0
  -45.6630   18.8970   11.5510 C   0  0  0  0  0  0
  -39.5730   14.0880   12.7780 C   0  0  0  0  0  0
  -46.2440   16.9380   10.5330 C   0  0  0  0  0  0
  -50.2420   21.6380   12.2420 C   0  0  0  0  0  0
  -46.8400   22.4720   13.1470 C   0  0  0  0  0  0
  -45.6190   21.7220   13.6720 C   0  0  0  0  0  0
  -47.0210   20.9300   11.2520 C   0  0  0  0  0  0
  -47.7830   21.5260   12.4210 C   0  0  2  0  0  0
  -44.9120   20.9990   12.5490 C   0  0  2  0  0  0
  -44.3720   22.0000   11.5600 C   0  0  0  0  0  0
  -52.8060   21.8810   13.4010 C   0  0  0  0  0  0
  -53.3910   23.2460   11.4280 C   0  0  0  0  0  0
  -52.8950   20.8590   11.1140 C   0  0  0  0  0  0
  -52.5490   22.0890   11.9220 C   0  0  0  0  0  0
  -45.0780   16.3410   10.8320 N   0  0  0  0  0  0
  -46.5750   18.1870   10.8750 N   0  0  0  0  0  0
  -40.0080   12.8800   12.3970 N   0  0  0  0  0  0
  -41.2670   13.0950   11.9680 N   0  3  0  0  0  0
  -45.9870   20.2100   11.9740 N   0  0  0  0  0  0
  -38.3390   14.3720   13.2870 N   0  0  0  0  0  0
  -47.2060   16.2170    9.8180 N   0  0  0  0  0  0
  -49.0020   22.2040   12.0420 N   0  0  0  0  0  0
  -50.4770   20.5740   12.7930 O   0  0  0  0  0  0
  -51.1890   22.4510   11.7000 O   0  0  0  0  0  0
  -39.8376   17.0294   13.1896 H   0  0  0  0  0  0
  -41.9568   18.1323   12.5701 H   0  0  0  0  0  0
  -43.6749   14.4323   11.2808 H   0  0  0  0  0  0
  -43.7129   18.9316   12.4742 H   0  0  0  0  0  0
  -47.3778   22.9320   13.9891 H   0  0  0  0  0  0
  -46.5157   23.2561   12.4470 H   0  0  0  0  0  0
  -44.9194   22.4361   14.1308 H   0  0  0  0  0  0
  -45.9368   20.9852   14.4244 H   0  0  0  0  0  0
  -47.6928   20.2844   10.6673 H   0  0  0  0  0  0
  -46.6407   21.7393   10.6113 H   0  0  0  0  0  0
  -48.1640   20.7201   13.0654 H   0  0  0  0  0  0
  -44.0665   20.3625   12.8492 H   0  0  0  0  0  0
  -43.5618   22.5780   12.0286 H   0  0  0  0  0  0
  -45.1780   22.6821   11.2515 H   0  0  0  0  0  0
  -43.9821   21.4705   10.6782 H   0  0  0  0  0  0
  -53.8590   21.6025   13.5545 H   0  0  0  0  0  0
  -52.5899   22.8122   13.9452 H   0  0  0  0  0  0
  -52.1556   21.0773   13.7767 H   0  0  0  0  0  0
  -54.4559   23.0148   11.5780 H   0  0  0  0  0  0
  -53.1983   23.4088   10.3573 H   0  0  0  0  0  0
  -53.1305   24.1551   11.9898 H   0  0  0  0  0  0
  -53.9460   20.5873   11.2917 H   0  0  0  0  0  0
  -52.2444   20.0257   11.4179 H   0  0  0  0  0  0
  -52.7463   21.0691   10.0445 H   0  0  0  0  0  0
  -38.0847   15.4044   13.5691 H   0  0  0  0  0  0
  -37.5987   13.5686   13.4152 H   0  0  0  0  0  0
  -46.9983   15.1831    9.5051 H   0  0  0  0  0  0
  -48.1703   16.6839    9.5686 H   0  0  0  0  0  0
  -48.9559   23.2010   11.5795 H   0  0  0  0  0  0
  -41.8736   12.2545   11.5997 H   0  0  0  0  0  0
  1  2  2  0  0  0
  1  5  1  0  0  0
  1 33  1  0  0  0
  2  6  1  0  0  0
  2 34  1  0  0  0
  3  6  2  0  0  0
  3  7  1  0  0  0
  3 35  1  0  0  0
  4  8  2  0  0  0
  4  9  1  0  0  0
  4 36  1  0  0  0
  5  7  2  0  0  0
  5 10  1  0  0  0
  6  8  1  0  0  0
  7 26  1  0  0  0
  8 23  1  0  0  0
  9 24  2  0  0  0
  9 27  1  0  0  0
 10 25  2  0  0  0
 10 28  1  0  0  0
 11 23  2  0  0  0
 11 24  1  0  0  0
 11 29  1  0  0  0
 12 30  1  0  0  0
 12 31  2  0  0  0
 12 32  1  0  0  0
 13 14  1  0  0  0
 13 16  1  0  0  0
 13 37  1  0  0  0
 13 38  1  0  0  0
 14 17  1  0  0  0
 14 39  1  0  0  0
 14 40  1  0  0  0
 15 16  1  0  0  0
 15 27  1  0  0  0
 15 41  1  0  0  0
 15 42  1  0  0  0
 16 30  1  0  0  0
 16 43  1  0  0  0
 17 18  1  0  0  0
 17 27  1  0  0  0
 17 44  1  0  0  0
 18 45  1  0  0  0
 18 46  1  0  0  0
 18 47  1  0  0  0
 19 22  1  0  0  0
 19 48  1  0  0  0
 19 49  1  0  0  0
 19 50  1  0  0  0
 20 22  1  0  0  0
 20 51  1  0  0  0
 20 52  1  0  0  0
 20 53  1  0  0  0
 21 22  1  0  0  0
 21 54  1  0  0  0
 21 55  1  0  0  0
 21 56  1  0  0  0
 22 32  1  0  0  0
 25 26  1  0  0  0
 26 62  1  0  0  0
 28 57  1  0  0  0
 28 58  1  0  0  0
 29 59  1  0  0  0
 29 60  1  0  0  0
 30 61  1  0  0  0
M  CHG  1  26   1
M  END
> <s_m_source_file>
../3qd3_ligand.sdf

> <i_m_source_file_index>
1

> <s_epik_input>
W05IMl1jMW5bbkhdYyhjMTIpW2NIXWMoW2NIXVtjSF0yKS1jM1tjSF1jKG5jKG4zKVtOSDJdKU4oW0NIMl00KVtDQEBIXShbQ0gzXSlbQ0gyXVtDSDJdW0NASF00W05IXUMoPU8pT0MoW0NIM10pKFtDSDNdKVtDSDNd

> <s_epik_cmdline>
J2VwaWtfYXBwJywgJy1pbWFlJywgJ2xpZ2FuZF9wcm8ubWFlJywgJy1vbWFlJywgJ2xpZ2FuZF9wcmVwLm1hZScsICctbXMnLCAnMScsICctcGgnLCAnNycsICctcGh0JywgJzAuNScsICctbnQn

> <r_epik_Ionization_Penalty>
  0.1348

> <r_epik_Ionization_Penalty_Charging>
  0.0000

> <r_epik_Ionization_Penalty_Neutral>
  0.1348

> <r_epik_State_Penalty>
  0.1234

> <r_epik_Charging_Adjusted_Penalty>
0.123422772708381

> <i_epik_Tot_Q>
1

> <i_epik_Tot_abs_Q>
1

> <s_epik_Chemistry_Notes>
This compound has an ester and may undergo hydrolysis at high or low pH. This compound has an imine and may undergo hydrolysis.

$$$$
