3qd4_ligand
                    3D
 Schrodinger Suite 2020-3.
 62 65  0  0  1  0            999 V2000
  -41.1240   16.4690   12.9480 C   0  0  0  0  0  0
  -42.2820   17.1410   12.6000 C   0  0  0  0  0  0
  -43.3400   15.1520   11.8220 C   0  0  0  0  0  0
  -44.8070   18.5420   11.8730 C   0  0  0  0  0  0
  -41.0830   15.0980   12.7240 C   0  0  0  0  0  0
  -43.3760   16.5110   12.0360 C   0  0  0  0  0  0
  -42.1900   14.4870   12.1790 C   0  0  0  0  0  0
  -44.5840   17.2070   11.6270 C   0  0  0  0  0  0
  -46.0200   19.0500   11.4440 C   0  0  0  0  0  0
  -40.1420   14.0330   12.9060 C   0  0  0  0  0  0
  -46.6500   17.0150   10.6290 C   0  0  0  0  0  0
  -50.4740   21.7030   12.3330 C   0  0  0  0  0  0
  -47.0460   22.5690   13.0400 C   0  0  0  0  0  0
  -45.1710   21.2820   11.9550 C   0  0  0  0  0  0
  -47.4620   21.0020   11.0990 C   0  0  0  0  0  0
  -45.6510   21.9650   13.2290 C   0  0  2  0  0  0
  -48.0390   21.6270   12.3570 C   0  0  2  0  0  0
  -45.6720   20.9480   14.3450 C   0  0  0  0  0  0
  -53.1510   22.1240   13.4730 C   0  0  0  0  0  0
  -53.5610   23.2920   11.3170 C   0  0  0  0  0  0
  -53.1920   20.8780   11.2950 C   0  0  0  0  0  0
  -52.8070   22.1660   11.9910 C   0  0  0  0  0  0
  -45.4950   16.4440   11.0000 N   0  0  0  0  0  0
  -46.9520   18.3010   10.8420 N   0  0  0  0  0  0
  -40.6410   12.8620   12.4980 N   0  0  0  0  0  0
  -41.8770   13.1570   12.0670 N   0  3  0  0  0  0
  -46.3020   20.4020   11.7270 N   0  0  0  0  0  0
  -38.8970   14.1940   13.4270 N   0  0  0  0  0  0
  -47.6110   16.2260    9.9840 N   0  0  0  0  0  0
  -49.2690   22.3130   12.0960 N   0  0  0  0  0  0
  -50.6600   20.6440   12.9150 O   0  0  0  0  0  0
  -51.4270   22.4970   11.7890 O   0  0  0  0  0  0
  -40.2743   16.9958   13.3823 H   0  0  0  0  0  0
  -42.3344   18.2150   12.7784 H   0  0  0  0  0  0
  -44.1886   14.6239   11.3871 H   0  0  0  0  0  0
  -44.0688   19.1650   12.3780 H   0  0  0  0  0  0
  -47.4676   22.8322   14.0213 H   0  0  0  0  0  0
  -46.9729   23.4732   12.4179 H   0  0  0  0  0  0
  -45.0173   22.0369   11.1698 H   0  0  0  0  0  0
  -44.2228   20.7609   12.1532 H   0  0  0  0  0  0
  -48.1891   20.2939   10.6747 H   0  0  0  0  0  0
  -47.2463   21.7909   10.3634 H   0  0  0  0  0  0
  -44.9565   22.7782   13.4865 H   0  0  0  0  0  0
  -48.3162   20.8093   13.0386 H   0  0  0  0  0  0
  -46.0173   21.4284   15.2724 H   0  0  0  0  0  0
  -44.6586   20.5472   14.4949 H   0  0  0  0  0  0
  -46.3554   20.1276   14.0806 H   0  0  0  0  0  0
  -54.2138   21.8682   13.5956 H   0  0  0  0  0  0
  -52.9567   23.1090   13.9225 H   0  0  0  0  0  0
  -52.5311   21.3645   13.9719 H   0  0  0  0  0  0
  -54.6429   23.1227   11.4212 H   0  0  0  0  0  0
  -53.2959   23.3236   10.2499 H   0  0  0  0  0  0
  -53.2922   24.2480   11.7901 H   0  0  0  0  0  0
  -54.2558   20.6662   11.4780 H   0  0  0  0  0  0
  -52.5808   20.0521   11.6878 H   0  0  0  0  0  0
  -53.0191   20.9799   10.2135 H   0  0  0  0  0  0
  -38.5570   15.1919   13.7410 H   0  0  0  0  0  0
  -38.2294   13.3264   13.5346 H   0  0  0  0  0  0
  -47.4078   15.1630    9.7871 H   0  0  0  0  0  0
  -48.5689   16.6694    9.6744 H   0  0  0  0  0  0
  -49.2532   23.3397   11.7014 H   0  0  0  0  0  0
  -42.5266   12.3615   11.6730 H   0  0  0  0  0  0
  1  2  2  0  0  0
  1  5  1  0  0  0
  1 33  1  0  0  0
  2  6  1  0  0  0
  2 34  1  0  0  0
  3  6  2  0  0  0
  3  7  1  0  0  0
  3 35  1  0  0  0
  4  8  2  0  0  0
  4  9  1  0  0  0
  4 36  1  0  0  0
  5  7  2  0  0  0
  5 10  1  0  0  0
  6  8  1  0  0  0
  7 26  1  0  0  0
  8 23  1  0  0  0
  9 24  2  0  0  0
  9 27  1  0  0  0
 10 25  2  0  0  0
 10 28  1  0  0  0
 11 23  2  0  0  0
 11 24  1  0  0  0
 11 29  1  0  0  0
 12 30  1  0  0  0
 12 31  2  0  0  0
 12 32  1  0  0  0
 13 16  1  0  0  0
 13 17  1  0  0  0
 13 37  1  0  0  0
 13 38  1  0  0  0
 14 16  1  0  0  0
 14 27  1  0  0  0
 14 39  1  0  0  0
 14 40  1  0  0  0
 15 17  1  0  0  0
 15 27  1  0  0  0
 15 41  1  0  0  0
 15 42  1  0  0  0
 16 18  1  0  0  0
 16 43  1  0  0  0
 17 30  1  0  0  0
 17 44  1  0  0  0
 18 45  1  0  0  0
 18 46  1  0  0  0
 18 47  1  0  0  0
 19 22  1  0  0  0
 19 48  1  0  0  0
 19 49  1  0  0  0
 19 50  1  0  0  0
 20 22  1  0  0  0
 20 51  1  0  0  0
 20 52  1  0  0  0
 20 53  1  0  0  0
 21 22  1  0  0  0
 21 54  1  0  0  0
 21 55  1  0  0  0
 21 56  1  0  0  0
 22 32  1  0  0  0
 25 26  1  0  0  0
 26 62  1  0  0  0
 28 57  1  0  0  0
 28 58  1  0  0  0
 29 59  1  0  0  0
 29 60  1  0  0  0
 30 61  1  0  0  0
M  CHG  1  26   1
M  END
> <s_m_source_file>
../3qd4_ligand.sdf

> <i_m_source_file_index>
1

> <s_epik_input>
W05IMl1jMW5bbkhdYyhjMTIpW2NIXWMoW2NIXVtjSF0yKS1jM1tjSF1jKG5jKG4zKVtOSDJdKU4oW0NIMl00KVtDSDJdW0NAQEhdKFtDSDJdW0NASF00W0NIM10pW05IXUMoPU8pT0MoW0NIM10pKFtDSDNdKVtDSDNd

> <s_epik_cmdline>
J2VwaWtfYXBwJywgJy1pbWFlJywgJ2xpZ2FuZF9wcm8ubWFlJywgJy1vbWFlJywgJ2xpZ2FuZF9wcmVwLm1hZScsICctbXMnLCAnMScsICctcGgnLCAnNycsICctcGh0JywgJzAuNScsICctbnQn

> <r_epik_Ionization_Penalty>
  0.1398

> <r_epik_Ionization_Penalty_Charging>
  0.0000

> <r_epik_Ionization_Penalty_Neutral>
  0.1398

> <r_epik_State_Penalty>
  0.1284

> <r_epik_Charging_Adjusted_Penalty>
0.128419045875073

> <i_epik_Tot_Q>
1

> <i_epik_Tot_abs_Q>
1

> <s_epik_Chemistry_Notes>
This compound has an ester and may undergo hydrolysis at high or low pH. This compound has an imine and may undergo hydrolysis.

$$$$
