3qdd_ligand
                    3D
 Schrodinger Suite 2020-3.
 37 39  0  0  1  0            999 V2000
    1.5940   34.8750   25.7580 N   0  0  0  0  0  0
    1.3230   34.2990   24.6010 C   0  0  0  0  0  0
    2.3430   33.8000   23.9490 N   0  0  0  0  0  0
    0.0960   34.2200   24.0790 N   0  0  0  0  0  0
   -0.9480   34.7420   24.7590 C   0  0  0  0  0  0
   -0.7210   35.3390   26.0190 C   0  0  0  0  0  0
    0.5780   35.3890   26.4700 C   0  0  0  0  0  0
    0.9770   36.1350   28.0080 Cl  0  0  0  0  0  0
   -1.9240   35.8120   26.4480 N   0  0  0  0  0  0
   -2.8620   35.4420   25.5740 C   0  0  0  0  0  0
   -2.2570   34.8210   24.5490 N   0  0  0  0  0  0
   -4.5440   29.4950   26.3880 C   0  0  0  0  0  0
   -7.1600   30.5510   24.7860 C   0  0  0  0  0  0
   -2.2590   31.3860   24.3800 C   0  0  0  0  0  0
   -6.2670   32.7750   23.9830 C   0  0  0  0  0  0
   -2.9480   34.2740   23.3670 C   0  0  0  0  0  0
   -5.2630   33.6260   23.6720 N   0  0  0  0  0  0
   -4.4450   29.7890   25.0020 O   0  0  0  0  0  0
   -6.0190   31.4930   24.4680 C   0  0  0  0  0  0
   -3.6860   31.9250   24.2390 C   0  0  0  0  0  0
   -3.9870   33.2430   23.7850 C   0  0  0  0  0  0
   -4.7130   31.0540   24.5460 C   0  0  0  0  0  0
    3.3542   33.8641   24.3773 H   0  0  0  0  0  0
    2.1887   33.3167   22.9730 H   0  0  0  0  0  0
   -3.9336   35.6141   25.6748 H   0  0  0  0  0  0
   -4.2932   28.4374   26.5573 H   0  0  0  0  0  0
   -5.5711   29.6878   26.7312 H   0  0  0  0  0  0
   -3.8443   30.1321   26.9488 H   0  0  0  0  0  0
   -8.1167   31.0810   24.6682 H   0  0  0  0  0  0
   -7.0634   30.1947   25.8222 H   0  0  0  0  0  0
   -7.1292   29.6927   24.0988 H   0  0  0  0  0  0
   -1.5410   32.1735   24.1074 H   0  0  0  0  0  0
   -2.1260   30.5216   23.7128 H   0  0  0  0  0  0
   -2.0854   31.0759   25.4210 H   0  0  0  0  0  0
   -7.2986   33.1012   23.8505 H   0  0  0  0  0  0
   -3.4515   35.0892   22.8267 H   0  0  0  0  0  0
   -2.2144   33.7926   22.7035 H   0  0  0  0  0  0
  1  2  1  0  0  0
  1  7  2  0  0  0
  2  3  1  0  0  0
  2  4  2  0  0  0
  3 23  1  0  0  0
  3 24  1  0  0  0
  4  5  1  0  0  0
  5  6  2  0  0  0
  5 11  1  0  0  0
  6  7  1  0  0  0
  6  9  1  0  0  0
  7  8  1  0  0  0
  9 10  2  0  0  0
 10 11  1  0  0  0
 10 25  1  0  0  0
 11 16  1  0  0  0
 12 18  1  0  0  0
 12 26  1  0  0  0
 12 27  1  0  0  0
 12 28  1  0  0  0
 13 19  1  0  0  0
 13 29  1  0  0  0
 13 30  1  0  0  0
 13 31  1  0  0  0
 14 20  1  0  0  0
 14 32  1  0  0  0
 14 33  1  0  0  0
 14 34  1  0  0  0
 15 17  2  0  0  0
 15 19  1  0  0  0
 15 35  1  0  0  0
 16 21  1  0  0  0
 16 36  1  0  0  0
 16 37  1  0  0  0
 17 21  1  0  0  0
 18 22  1  0  0  0
 19 22  2  0  0  0
 20 21  2  0  0  0
 20 22  1  0  0  0
M  END
> <s_m_source_file>
../3qdd_ligand.sdf

> <i_m_source_file_index>
1

> <s_epik_input>
W05IMl1jKG4xKW5jKENsKWMoYzEyKW5bY0hdbjJbQ0gyXWMobltjSF1jM1tDSDNdKWMoW0NIM10pYzNPW0NIM10=

> <s_epik_cmdline>
J2VwaWtfYXBwJywgJy1pbWFlJywgJ2xpZ2FuZF9wcm8ubWFlJywgJy1vbWFlJywgJ2xpZ2FuZF9wcmVwLm1hZScsICctbXMnLCAnMScsICctcGgnLCAnNycsICctcGh0JywgJzAuNScsICctbnQn

> <r_epik_Ionization_Penalty>
  0.0524

> <r_epik_Ionization_Penalty_Charging>
  0.0000

> <r_epik_Ionization_Penalty_Neutral>
  0.0524

> <r_epik_State_Penalty>
  0.0449

> <r_epik_Charging_Adjusted_Penalty>
0.0449157432519858

> <i_epik_Tot_Q>
0

> <i_epik_Tot_abs_Q>
0

$$$$
