3qel_ligand
                    3D
 Schrodinger Suite 2020-3.
 49 51  0  0  1  0            999 V2000
   80.4990    1.0220  -32.1880 C   0  0  0  0  0  0
   86.1030    6.6010  -31.8820 N   0  0  1  0  0  0
   85.8250    9.4300  -32.0130 O   0  0  0  0  0  0
   90.3220   10.1020  -30.7460 C   0  0  0  0  0  0
   91.8370   11.8350  -31.6200 O   0  0  0  0  0  0
   89.8100   11.3520  -32.6850 C   0  0  0  0  0  0
   82.3370    2.8190  -31.0800 C   0  0  0  0  0  0
   81.0490    3.2530  -31.3780 C   0  0  0  0  0  0
   80.1200    2.3640  -31.9320 C   0  0  0  0  0  0
   83.2980    3.7680  -30.4370 C   0  0  0  0  0  0
   84.5530    4.2650  -31.2710 C   0  0  1  0  0  0
   84.1340    5.1320  -32.3440 C   0  0  0  0  0  0
   81.7840    0.5860  -31.8850 C   0  0  0  0  0  0
   82.7080    1.4760  -31.3200 C   0  0  0  0  0  0
   85.2520    5.9610  -32.9120 C   0  0  0  0  0  0
   86.4740    5.7800  -30.7630 C   0  0  0  0  0  0
   85.3560    4.9570  -30.2410 C   0  0  0  0  0  0
   87.0920    7.4840  -32.5220 C   0  0  2  0  0  0
   86.9410    8.9080  -32.0930 C   0  0  0  0  0  0
   88.2560    9.6610  -31.8720 C   0  0  0  0  0  0
   89.1030    9.3780  -30.8670 C   0  0  0  0  0  0
   90.6370   11.0920  -31.6860 C   0  0  0  0  0  0
   88.5940   10.6190  -32.7980 C   0  0  0  0  0  0
   86.9830    7.5240  -33.9870 C   0  0  0  0  0  0
   79.7797    0.3289  -32.6243 H   0  0  0  0  0  0
   91.0073    9.8874  -29.9260 H   0  0  0  0  0  0
   92.5535   11.6513  -30.8058 H   0  0  0  0  0  0
   90.0572   12.1215  -33.4163 H   0  0  0  0  0  0
   80.7630    4.2860  -31.1800 H   0  0  0  0  0  0
   79.1103    2.7020  -32.1653 H   0  0  0  0  0  0
   82.7690    4.6900  -30.1542 H   0  0  0  0  0  0
   83.7280    3.3016  -29.5383 H   0  0  0  0  0  0
   85.1575    3.5280  -31.8200 H   0  0  0  0  0  0
   83.7214    4.5267  -33.1646 H   0  0  0  0  0  0
   83.3629    5.8247  -31.9758 H   0  0  0  0  0  0
   82.0723   -0.4457  -32.0864 H   0  0  0  0  0  0
   83.7110    1.1331  -31.0661 H   0  0  0  0  0  0
   84.7952    6.7368  -33.5440 H   0  0  0  0  0  0
   85.8680    5.2961  -33.5352 H   0  0  0  0  0  0
   87.2784    5.0925  -31.0634 H   0  0  0  0  0  0
   86.8263    6.4192  -29.9400 H   0  0  0  0  0  0
   84.7086    5.6352  -29.6658 H   0  0  0  0  0  0
   85.8024    4.2141  -29.5637 H   0  0  0  0  0  0
   88.0506    7.0381  -32.2181 H   0  0  0  0  0  0
   88.8569    8.5969  -30.1476 H   0  0  0  0  0  0
   87.9212   10.8208  -33.6315 H   0  0  0  0  0  0
   87.0842    6.5055  -34.3901 H   0  0  0  0  0  0
   87.7804    8.1614  -34.3967 H   0  0  0  0  0  0
   86.0029    7.9350  -34.2706 H   0  0  0  0  0  0
  1  9  2  0  0  0
  1 13  1  0  0  0
  1 25  1  0  0  0
  2 15  1  0  0  0
  2 16  1  0  0  0
  2 18  1  0  0  0
  3 19  2  0  0  0
  4 21  2  0  0  0
  4 22  1  0  0  0
  4 26  1  0  0  0
  5 22  1  0  0  0
  5 27  1  0  0  0
  6 22  2  0  0  0
  6 23  1  0  0  0
  6 28  1  0  0  0
  7  8  2  0  0  0
  7 10  1  0  0  0
  7 14  1  0  0  0
  8  9  1  0  0  0
  8 29  1  0  0  0
  9 30  1  0  0  0
 10 11  1  0  0  0
 10 31  1  0  0  0
 10 32  1  0  0  0
 11 12  1  0  0  0
 11 17  1  0  0  0
 11 33  1  0  0  0
 12 15  1  0  0  0
 12 34  1  0  0  0
 12 35  1  0  0  0
 13 14  2  0  0  0
 13 36  1  0  0  0
 14 37  1  0  0  0
 15 38  1  0  0  0
 15 39  1  0  0  0
 16 17  1  0  0  0
 16 40  1  0  0  0
 16 41  1  0  0  0
 17 42  1  0  0  0
 17 43  1  0  0  0
 18 19  1  0  0  0
 18 24  1  0  0  0
 18 44  1  0  0  0
 19 20  1  0  0  0
 20 21  1  0  0  0
 20 23  2  0  0  0
 21 45  1  0  0  0
 23 46  1  0  0  0
 24 47  1  0  0  0
 24 48  1  0  0  0
 24 49  1  0  0  0
M  END
> <s_m_source_file>
../3qel_ligand.sdf

> <i_m_source_file_index>
1

> <s_epik_input>
W2NIXTFbY0hdW2NIXVtjSF1bY0hdYzFbQ0gyXVtDQEhdKFtDSDJdW0NIMl0yKVtDSDJdW0NIMl1bTkBASCtdMltDQEBIXShbQ0gzXSlDKD1PKWMzW2NIXVtjSF1jKFtPSF0pW2NIXVtjSF0z

> <s_epik_cmdline>
J2VwaWtfYXBwJywgJy1pbWFlJywgJ2xpZ2FuZF9wcm8ubWFlJywgJy1vbWFlJywgJ2xpZ2FuZF9wcmVwLm1hZScsICctbXMnLCAnMScsICctcGgnLCAnNycsICctcGh0JywgJzAuNScsICctbnQn

> <r_lp_tautomer_probability>
0.99990000499975

> <r_epik_Ionization_Penalty>
  0.3320

> <r_epik_Ionization_Penalty_Charging>
  0.0000

> <r_epik_Ionization_Penalty_Neutral>
  0.3320

> <r_epik_State_Penalty>
  0.3197

> <r_epik_Charging_Adjusted_Penalty>
0.319741659341148

> <i_epik_Tot_Q>
0

> <i_epik_Tot_abs_Q>
0

$$$$
