3qem_ligand
                    3D
 Schrodinger Suite 2020-3.
 55 57  0  0  1  0            999 V2000
   90.3090    9.4610  -32.0140 C   0  0  0  0  0  0
   85.7180    6.4090  -32.3030 N   0  3  2  0  0  0
   92.0740   12.7470  -31.8080 O   0  0  0  0  0  0
   80.5040    3.1050  -31.3310 C   0  0  0  0  0  0
   87.9650    9.0930  -34.7650 O   0  0  0  0  0  0
   81.8930    2.9090  -31.1000 C   0  0  0  0  0  0
   82.4780    1.6770  -31.3330 C   0  0  0  0  0  0
   81.6890    0.6110  -31.8060 C   0  0  0  0  0  0
   80.3040    0.8100  -32.0490 C   0  0  0  0  0  0
   79.7150    2.0390  -31.8150 C   0  0  0  0  0  0
   82.7440    4.0560  -30.5850 C   0  0  0  0  0  0
   84.0680    4.2060  -31.4010 C   0  0  2  0  0  0
   84.9880    4.8830  -30.5240 C   0  0  0  0  0  0
   86.1390    5.5770  -31.1970 C   0  0  0  0  0  0
   84.9960    5.6140  -33.2550 C   0  0  0  0  0  0
   83.8010    4.9540  -32.6460 C   0  0  0  0  0  0
   86.3600    7.3130  -33.2510 C   0  0  0  0  0  0
   87.2370    8.3710  -32.6290 C   0  0  1  0  0  0
   88.4050    8.6430  -33.5170 C   0  0  2  0  0  0
   89.3760    9.7090  -33.0300 C   0  0  0  0  0  0
   86.3920    9.6320  -32.3450 C   0  0  0  0  0  0
   89.3610   10.9500  -33.6230 C   0  0  0  0  0  0
   90.2480   11.9630  -33.2210 C   0  0  0  0  0  0
   91.1630   11.7190  -32.2190 C   0  0  0  0  0  0
   91.1760   10.4590  -31.6210 C   0  0  0  0  0  0
   90.3493    8.4823  -31.5359 H   0  0  0  0  0  0
   85.3851    7.1149  -31.5278 H   0  0  0  0  0  0
   92.0457   13.7335  -32.2939 H   0  0  0  0  0  0
   80.0493    4.0760  -31.1349 H   0  0  0  0  0  0
   87.2434    8.4959  -35.3418 H   0  0  0  0  0  0
   83.5430    1.5325  -31.1515 H   0  0  0  0  0  0
   82.1403   -0.3649  -31.9853 H   0  0  0  0  0  0
   79.6986   -0.0152  -32.4241 H   0  0  0  0  0  0
   78.6510    2.1835  -32.0026 H   0  0  0  0  0  0
   82.1794    4.9966  -30.6659 H   0  0  0  0  0  0
   83.0053    3.8747  -29.5320 H   0  0  0  0  0  0
   84.5572    3.2765  -31.7276 H   0  0  0  0  0  0
   84.4509    5.6569  -29.9559 H   0  0  0  0  0  0
   85.4310    4.1571  -29.8263 H   0  0  0  0  0  0
   86.8318    4.8046  -31.5622 H   0  0  0  0  0  0
   86.6460    6.1976  -30.4435 H   0  0  0  0  0  0
   84.6502    6.2541  -34.0800 H   0  0  0  0  0  0
   85.6557    4.8285  -33.6521 H   0  0  0  0  0  0
   83.3980    4.2687  -33.4062 H   0  0  0  0  0  0
   83.0692    5.7504  -32.4455 H   0  0  0  0  0  0
   87.0000    6.7345  -33.9334 H   0  0  0  0  0  0
   85.5902    7.8430  -33.8312 H   0  0  0  0  0  0
   87.6641    8.0048  -31.6838 H   0  0  0  0  0  0
   88.9043    7.6679  -33.6165 H   0  0  0  0  0  0
   85.5498    9.3687  -31.6882 H   0  0  0  0  0  0
   86.0058   10.0356  -33.2926 H   0  0  0  0  0  0
   87.0186   10.3898  -31.8519 H   0  0  0  0  0  0
   88.6465   11.1518  -34.4210 H   0  0  0  0  0  0
   90.2127   12.9410  -33.7010 H   0  0  0  0  0  0
   91.8899   10.2578  -30.8223 H   0  0  0  0  0  0
  1 20  2  0  0  0
  1 25  1  0  0  0
  1 26  1  0  0  0
  2 14  1  0  0  0
  2 15  1  0  0  0
  2 17  1  0  0  0
  2 27  1  0  0  0
  3 24  1  0  0  0
  3 28  1  0  0  0
  4  6  2  0  0  0
  4 10  1  0  0  0
  4 29  1  0  0  0
  5 19  1  0  0  0
  5 30  1  0  0  0
  6  7  1  0  0  0
  6 11  1  0  0  0
  7  8  2  0  0  0
  7 31  1  0  0  0
  8  9  1  0  0  0
  8 32  1  0  0  0
  9 10  2  0  0  0
  9 33  1  0  0  0
 10 34  1  0  0  0
 11 12  1  0  0  0
 11 35  1  0  0  0
 11 36  1  0  0  0
 12 13  1  0  0  0
 12 16  1  0  0  0
 12 37  1  0  0  0
 13 14  1  0  0  0
 13 38  1  0  0  0
 13 39  1  0  0  0
 14 40  1  0  0  0
 14 41  1  0  0  0
 15 16  1  0  0  0
 15 42  1  0  0  0
 15 43  1  0  0  0
 16 44  1  0  0  0
 16 45  1  0  0  0
 17 18  1  0  0  0
 17 46  1  0  0  0
 17 47  1  0  0  0
 18 19  1  0  0  0
 18 21  1  0  0  0
 18 48  1  0  0  0
 19 20  1  0  0  0
 19 49  1  0  0  0
 20 22  1  0  0  0
 21 50  1  0  0  0
 21 51  1  0  0  0
 21 52  1  0  0  0
 22 23  2  0  0  0
 22 53  1  0  0  0
 23 24  1  0  0  0
 23 54  1  0  0  0
 24 25  2  0  0  0
 25 55  1  0  0  0
M  CHG  1   2   1
M  END
> <s_m_source_file>
../3qem_ligand.sdf

> <i_m_source_file_index>
1

> <s_epik_input>
W2NIXTFbY0hdYyhbT0hdKVtjSF1bY0hdYzFbQ0BIXShbT0hdKVtDQEBIXShbQ0gzXSlbQ0gyXVtOQEBIK10yW0NIMl1bQ0gyXVtDQEhdKFtDSDJdW0NIMl0yKVtDSDJdYzNbY0hdW2NIXVtjSF1bY0hdW2NIXTM=

> <s_epik_cmdline>
J2VwaWtfYXBwJywgJy1pbWFlJywgJ2xpZ2FuZF9wcm8ubWFlJywgJy1vbWFlJywgJ2xpZ2FuZF9wcmVwLm1hZScsICctbXMnLCAnMScsICctcGgnLCAnNycsICctcGh0JywgJzAuNScsICctbnQn

> <r_lp_tautomer_probability>
1

> <r_epik_Ionization_Penalty>
  0.0037

> <r_epik_Ionization_Penalty_Charging>
  0.0026

> <r_epik_Ionization_Penalty_Neutral>
  0.0010

> <r_epik_State_Penalty>
 -0.0000

> <r_epik_Charging_Adjusted_Penalty>
0.00263961348943188

> <i_epik_Tot_Q>
1

> <i_epik_Tot_abs_Q>
1

$$$$
