3qfy_ligand
                    3D
 Schrodinger Suite 2020-3.
 24 24  0  0  1  0            999 V2000
   12.8150   42.3740   86.0380 O   0  0  0  0  0  0
   11.6720   42.8820   85.3420 C   0  0  1  0  0  0
   12.1580   44.1980   84.7560 C   0  0  2  0  0  0
   12.5540   45.0020   85.8530 O   0  0  0  0  0  0
   11.0630   44.8920   83.9300 C   0  0  0  0  0  0
   10.5560   43.9510   82.8790 N   0  3  0  0  0  0
   10.0680   42.6610   83.4050 C   0  0  0  0  0  0
   11.1830   41.9710   84.1970 C   0  0  2  0  0  0
   10.7160   40.5520   84.6230 C   0  0  0  0  0  0
    9.4040   40.5890   85.1810 O   0  0  0  0  0  0
   13.2480   42.9434   86.8737 H   0  0  0  0  0  0
   10.8594   42.9554   86.0798 H   0  0  0  0  0  0
   13.0425   44.0622   84.1163 H   0  0  0  0  0  0
   13.3324   44.6454   86.5436 H   0  0  0  0  0  0
   10.2338   45.1832   84.5916 H   0  0  0  0  0  0
   11.4799   45.7887   83.4483 H   0  0  0  0  0  0
    9.7172   44.4183   82.3423 H   0  0  0  0  0  0
   11.3649   43.7242   82.1688 H   0  0  0  0  0  0
    9.2065   42.8369   84.0660 H   0  0  0  0  0  0
    9.7623   42.0158   82.5682 H   0  0  0  0  0  0
   12.0706   41.8232   83.5644 H   0  0  0  0  0  0
   10.7060   39.8902   83.7444 H   0  0  0  0  0  0
   11.4079   40.1494   85.3775 H   0  0  0  0  0  0
    8.9294   39.6609   85.5323 H   0  0  0  0  0  0
  1  2  1  0  0  0
  1 11  1  0  0  0
  2  3  1  0  0  0
  2  8  1  0  0  0
  2 12  1  0  0  0
  3  4  1  0  0  0
  3  5  1  0  0  0
  3 13  1  0  0  0
  4 14  1  0  0  0
  5  6  1  0  0  0
  5 15  1  0  0  0
  5 16  1  0  0  0
  6  7  1  0  0  0
  6 17  1  0  0  0
  6 18  1  0  0  0
  7  8  1  0  0  0
  7 19  1  0  0  0
  7 20  1  0  0  0
  8  9  1  0  0  0
  8 21  1  0  0  0
  9 10  1  0  0  0
  9 22  1  0  0  0
  9 23  1  0  0  0
 10 24  1  0  0  0
M  CHG  1   6   1
M  END
> <s_m_source_file>
../3qfy_ligand.sdf

> <i_m_source_file_index>
1

> <s_epik_input>
W09IXVtDQEhdMVtDQEhdKFtPSF0pW0NIMl1bTkgyK11bQ0gyXVtDQEBIXTFbQ0gyXVtPSF0=

> <s_epik_cmdline>
J2VwaWtfYXBwJywgJy1pbWFlJywgJ2xpZ2FuZF9wcm8ubWFlJywgJy1vbWFlJywgJ2xpZ2FuZF9wcmVwLm1hZScsICctbXMnLCAnMScsICctcGgnLCAnNycsICctcGh0JywgJzAuNScsICctbnQn

> <r_lp_tautomer_probability>
1

> <r_epik_Ionization_Penalty>
  0.0059

> <r_epik_Ionization_Penalty_Charging>
  0.0059

> <r_epik_Ionization_Penalty_Neutral>
  0.0000

> <r_epik_State_Penalty>
 -0.0000

> <r_epik_Charging_Adjusted_Penalty>
0.00587481957384862

> <i_epik_Tot_Q>
1

> <i_epik_Tot_abs_Q>
1

$$$$
