3qg6_ligand
                    3D
 Schrodinger Suite 2020-3.
114116  0  0  1  0            999 V2000
    9.9890  -12.0320  -46.1550 N   0  3  0  0  0  0
   10.4590  -12.3480  -44.8160 C   0  0  2  0  0  0
   11.0390  -11.1600  -44.0830 C   0  0  0  0  0  0
   12.1260  -10.7080  -44.4010 O   0  0  0  0  0  0
   11.4730  -13.4790  -44.9020 C   0  0  0  0  0  0
   11.4920  -14.1650  -43.6480 O   0  0  0  0  0  0
   10.3120  -10.6420  -43.0860 N   0  0  0  0  0  0
   10.7180   -9.4910  -42.2780 C   0  0  2  0  0  0
   12.0490   -9.6360  -41.5770 C   0  0  0  0  0  0
   12.8490   -8.7210  -41.6220 O   0  0  0  0  0  0
    9.6400   -9.1860  -41.2420 C   0  0  2  0  0  0
    9.3010  -10.3590  -40.4890 O   0  0  0  0  0  0
    8.4000   -8.6320  -41.9300 C   0  0  0  0  0  0
   12.2640  -10.7760  -40.9210 N   0  0  0  0  0  0
   13.4820  -11.1050  -40.2050 C   0  0  2  0  0  0
   14.2150  -12.1470  -41.0080 C   0  0  0  0  0  0
   13.7420  -13.2680  -41.1290 O   0  0  0  0  0  0
   13.0610  -11.5740  -38.8220 C   0  0  0  0  0  0
   14.4170  -12.0090  -37.7790 S   0  0  0  0  0  0
   15.3580  -11.7550  -41.5910 N   0  0  0  0  0  0
   16.1550  -12.6020  -42.4710 C   0  0  2  0  0  0
   17.0340  -13.6650  -41.8650 C   0  0  0  0  0  0
   17.1230  -14.7570  -42.4220 O   0  0  0  0  0  0
   17.0170  -11.6570  -43.3110 C   0  0  0  0  0  0
   17.7050  -12.3220  -44.4860 C   0  0  0  0  0  0
   16.9840  -12.9720  -45.4820 C   0  0  0  0  0  0
   19.0900  -12.2670  -44.5660 C   0  0  0  0  0  0
   17.6590  -13.5660  -46.5550 C   0  0  0  0  0  0
   19.7710  -12.8520  -45.6240 C   0  0  0  0  0  0
   19.0600  -13.5060  -46.6260 C   0  0  0  0  0  0
   19.7440  -14.0610  -47.6740 O   0  0  0  0  0  0
   17.7010  -13.3420  -40.7510 N   0  0  0  0  0  0
   18.6330  -14.2370  -40.0800 C   0  0  2  0  0  0
   18.1120  -14.7200  -38.7580 C   0  0  0  0  0  0
   17.4880  -15.7680  -38.7400 O   0  0  0  0  0  0
   19.9560  -13.4680  -40.0350 C   0  0  0  0  0  0
   21.0650  -14.1540  -39.2680 C   0  0  0  0  0  0
   21.4040  -15.4780  -39.5440 C   0  0  0  0  0  0
   21.7540  -13.4510  -38.2740 C   0  0  0  0  0  0
   22.4380  -16.0950  -38.8310 C   0  0  0  0  0  0
   22.7860  -14.0720  -37.5640 C   0  0  0  0  0  0
   23.1280  -15.3990  -37.8400 C   0  0  0  0  0  0
   18.3660  -13.9990  -37.6670 N   0  0  0  0  0  0
   17.8780  -14.3710  -36.3410 C   0  0  2  0  0  0
   16.9600  -13.3220  -35.7600 C   0  0  0  0  0  0
   16.2300  -13.6310  -34.8400 O   0  0  0  0  0  0
   18.9800  -14.7820  -35.3690 C   0  0  2  0  0  0
   19.9020  -13.6350  -34.9570 C   0  0  0  0  0  0
   19.7390  -15.9620  -35.9530 C   0  0  0  0  0  0
   20.9810  -14.1290  -34.0130 C   0  0  0  0  0  0
   16.9560  -12.0990  -36.2840 N   0  0  0  0  0  0
   16.0350  -11.0810  -35.8070 C   0  0  2  0  0  0
   15.0620  -10.7250  -36.9220 C   0  0  0  0  0  0
   14.7310   -9.5750  -37.1880 O   0  0  0  0  0  0
   16.7580   -9.9080  -35.1640 C   0  0  0  0  0  0
   17.4310  -10.3790  -33.8790 C   0  0  0  0  0  0
   18.1900   -8.9790  -33.1140 S   0  0  0  0  0  0
   19.3350   -9.5230  -31.8810 C   0  0  0  0  0  0
    9.2548  -11.2146  -46.1025 H   0  0  0  0  0  0
    9.5164  -12.9215  -46.5971 H   0  0  0  0  0  0
   10.8402  -11.7209  -46.7784 H   0  0  0  0  0  0
    9.5576  -12.6471  -44.2610 H   0  0  0  0  0  0
   11.1822  -14.1718  -45.7054 H   0  0  0  0  0  0
   12.4682  -13.0635  -45.1185 H   0  0  0  0  0  0
   12.1643  -15.0231  -43.5006 H   0  0  0  0  0  0
    9.3513  -11.1405  -42.8895 H   0  0  0  0  0  0
   10.8411   -8.6935  -43.0256 H   0  0  0  0  0  0
   10.0251   -8.4757  -40.4956 H   0  0  0  0  0  0
   10.0788  -10.8939  -39.9243 H   0  0  0  0  0  0
    8.6699   -7.7335  -42.5043 H   0  0  0  0  0  0
    7.6465   -8.3704  -41.1725 H   0  0  0  0  0  0
    7.9877   -9.3919  -42.6102 H   0  0  0  0  0  0
   11.4313  -11.4942  -40.9488 H   0  0  0  0  0  0
   14.1484  -10.2356  -40.1050 H   0  0  0  0  0  0
   12.5028  -10.7719  -38.3170 H   0  0  0  0  0  0
   12.4206  -12.4635  -38.9156 H   0  0  0  0  0  0
   15.6854  -10.7281  -41.3714 H   0  0  0  0  0  0
   15.3895  -13.1932  -42.9949 H   0  0  0  0  0  0
   16.3879  -10.8522  -43.7191 H   0  0  0  0  0  0
   17.8057  -11.2216  -42.6798 H   0  0  0  0  0  0
   15.8964  -13.0188  -45.4273 H   0  0  0  0  0  0
   19.6519  -11.7556  -43.7844 H   0  0  0  0  0  0
   17.0960  -14.0760  -47.3367 H   0  0  0  0  0  0
   20.8588  -12.7996  -45.6702 H   0  0  0  0  0  0
   19.1969  -14.5813  -48.4740 H   0  0  0  0  0  0
   17.5133  -12.3375  -40.3439 H   0  0  0  0  0  0
   18.7369  -15.1804  -40.6360 H   0  0  0  0  0  0
   20.3269  -13.3163  -41.0594 H   0  0  0  0  0  0
   19.7964  -12.4915  -39.5545 H   0  0  0  0  0  0
   20.8650  -16.0311  -40.3132 H   0  0  0  0  0  0
   21.4860  -12.4179  -38.0528 H   0  0  0  0  0  0
   22.7059  -17.1281  -39.0524 H   0  0  0  0  0  0
   23.3249  -13.5203  -36.7937 H   0  0  0  0  0  0
   23.9289  -15.8862  -37.2839 H   0  0  0  0  0  0
   18.9709  -13.0892  -37.7952 H   0  0  0  0  0  0
   17.2791  -15.2712  -36.5433 H   0  0  0  0  0  0
   18.5035  -15.0931  -34.4276 H   0  0  0  0  0  0
   20.3795  -13.2090  -35.8517 H   0  0  0  0  0  0
   19.3141  -12.8562  -34.4492 H   0  0  0  0  0  0
   19.0280  -16.7541  -36.2306 H   0  0  0  0  0  0
   20.4461  -16.3496  -35.2049 H   0  0  0  0  0  0
   20.2922  -15.6363  -36.8463 H   0  0  0  0  0  0
   21.6325  -13.2893  -33.7293 H   0  0  0  0  0  0
   21.5794  -14.9044  -34.5137 H   0  0  0  0  0  0
   20.5138  -14.5516  -33.1113 H   0  0  0  0  0  0
   17.6654  -11.8642  -37.0913 H   0  0  0  0  0  0
   15.4536  -11.5237  -34.9848 H   0  0  0  0  0  0
   17.5178   -9.5203  -35.8586 H   0  0  0  0  0  0
   16.0336   -9.1133  -34.9321 H   0  0  0  0  0  0
   16.6760  -10.8151  -33.2083 H   0  0  0  0  0  0
   18.1900  -11.1380  -34.1195 H   0  0  0  0  0  0
   19.8057   -8.6492  -31.4067 H   0  0  0  0  0  0
   20.1097  -10.1474  -32.3500 H   0  0  0  0  0  0
   18.8018  -10.1108  -31.1193 H   0  0  0  0  0  0
  1  2  1  0  0  0
  1 59  1  0  0  0
  1 60  1  0  0  0
  1 61  1  0  0  0
  2  3  1  0  0  0
  2  5  1  0  0  0
  2 62  1  0  0  0
  3  4  2  0  0  0
  3  7  1  0  0  0
  5  6  1  0  0  0
  5 63  1  0  0  0
  5 64  1  0  0  0
  6 65  1  0  0  0
  7  8  1  0  0  0
  7 66  1  0  0  0
  8  9  1  0  0  0
  8 11  1  0  0  0
  8 67  1  0  0  0
  9 10  2  0  0  0
  9 14  1  0  0  0
 11 12  1  0  0  0
 11 13  1  0  0  0
 11 68  1  0  0  0
 12 69  1  0  0  0
 13 70  1  0  0  0
 13 71  1  0  0  0
 13 72  1  0  0  0
 14 15  1  0  0  0
 14 73  1  0  0  0
 15 16  1  0  0  0
 15 18  1  0  0  0
 15 74  1  0  0  0
 16 17  2  0  0  0
 16 20  1  0  0  0
 18 19  1  0  0  0
 18 75  1  0  0  0
 18 76  1  0  0  0
 19 53  1  0  0  0
 20 21  1  0  0  0
 20 77  1  0  0  0
 21 22  1  0  0  0
 21 24  1  0  0  0
 21 78  1  0  0  0
 22 23  2  0  0  0
 22 32  1  0  0  0
 24 25  1  0  0  0
 24 79  1  0  0  0
 24 80  1  0  0  0
 25 26  2  0  0  0
 25 27  1  0  0  0
 26 28  1  0  0  0
 26 81  1  0  0  0
 27 29  2  0  0  0
 27 82  1  0  0  0
 28 30  2  0  0  0
 28 83  1  0  0  0
 29 30  1  0  0  0
 29 84  1  0  0  0
 30 31  1  0  0  0
 31 85  1  0  0  0
 32 33  1  0  0  0
 32 86  1  0  0  0
 33 34  1  0  0  0
 33 36  1  0  0  0
 33 87  1  0  0  0
 34 35  2  0  0  0
 34 43  1  0  0  0
 36 37  1  0  0  0
 36 88  1  0  0  0
 36 89  1  0  0  0
 37 38  2  0  0  0
 37 39  1  0  0  0
 38 40  1  0  0  0
 38 90  1  0  0  0
 39 41  2  0  0  0
 39 91  1  0  0  0
 40 42  2  0  0  0
 40 92  1  0  0  0
 41 42  1  0  0  0
 41 93  1  0  0  0
 42 94  1  0  0  0
 43 44  1  0  0  0
 43 95  1  0  0  0
 44 45  1  0  0  0
 44 47  1  0  0  0
 44 96  1  0  0  0
 45 46  2  0  0  0
 45 51  1  0  0  0
 47 48  1  0  0  0
 47 49  1  0  0  0
 47 97  1  0  0  0
 48 50  1  0  0  0
 48 98  1  0  0  0
 48 99  1  0  0  0
 49100  1  0  0  0
 49101  1  0  0  0
 49102  1  0  0  0
 50103  1  0  0  0
 50104  1  0  0  0
 50105  1  0  0  0
 51 52  1  0  0  0
 51106  1  0  0  0
 52 53  1  0  0  0
 52 55  1  0  0  0
 52107  1  0  0  0
 53 54  2  0  0  0
 55 56  1  0  0  0
 55108  1  0  0  0
 55109  1  0  0  0
 56 57  1  0  0  0
 56110  1  0  0  0
 56111  1  0  0  0
 57 58  1  0  0  0
 58112  1  0  0  0
 58113  1  0  0  0
 58114  1  0  0  0
M  CHG  1   1   1
M  END
> <s_m_source_file>
../3qg6_ligand.sdf

> <i_m_source_file_index>
1

> <s_epik_input>
W09IXVtDSDJdW0NASF0oW05IMytdKUMoPU8pW05IXVtDQEBIXShbQ0BIXShbT0hdKVtDSDNdKUMoPU8pW05IXVtDQEBIXTFDKD1PKVtOSF1bQ0BASF0oW0NIMl1jMltjSF1bY0hdYyhbT0hdKVtjSF1bY0hdMilDKD1PKVtOSF1bQ0BASF0oW0NIMl1jM1tjSF1bY0hdW2NIXVtjSF1bY0hdMylDKD1PKVtOSF1bQ0BASF0oW0NAQEhdKFtDSDNdKVtDSDJdW0NIM10pQyg9TylbTkhdW0NASF0oQyg9TylTW0NIMl0xKVtDSDJdW0NIMl1TW0NIM10=

> <s_epik_cmdline>
J2VwaWtfYXBwJywgJy1pbWFlJywgJ2xpZ2FuZF9wcm8ubWFlJywgJy1vbWFlJywgJ2xpZ2FuZF9wcmVwLm1hZScsICctbXMnLCAnMScsICctcGgnLCAnNycsICctcGh0JywgJzAuNScsICctbnQn

> <r_lp_tautomer_probability>
0.999999999997365

> <r_epik_Ionization_Penalty>
  0.1542

> <r_epik_Ionization_Penalty_Charging>
  0.1533

> <r_epik_Ionization_Penalty_Neutral>
  0.0009

> <r_epik_State_Penalty>
  0.1426

> <r_epik_Charging_Adjusted_Penalty>
0.295948886705158

> <i_epik_Tot_Q>
1

> <i_epik_Tot_abs_Q>
1

$$$$
