3qgw_ligand
                    3D
 Schrodinger Suite 2020-3.
 35 37  0  0  1  0            999 V2000
   34.3620   50.8050   14.6030 C   0  0  0  0  0  0
   43.1850   52.1670   13.4250 N   0  0  0  0  0  0
   36.0470   48.7250   10.5880 O   0  0  0  0  0  0
   34.2000   51.5540   15.8710 C   0  0  0  0  0  0
   35.8810   50.0640   12.9120 N   0  0  0  0  0  0
   36.6430   51.4450   14.6700 O   0  0  0  0  0  0
   32.8650   51.6010   16.4970 C   0  0  0  0  0  0
   38.3170   48.9990   10.2600 N   0  0  0  0  0  0
   31.7140   50.9270   15.8440 C   0  0  0  0  0  0
   31.8710   50.2000   14.5630 C   0  0  0  0  0  0
   33.1990   50.1200   13.9350 C   0  0  0  0  0  0
   35.7760   50.8160   14.0640 C   0  0  0  0  0  0
   39.5590   49.5830   10.6660 C   0  0  0  0  0  0
   39.4920   50.3340   11.9270 C   0  0  0  0  0  0
   38.2560   50.5210   12.7100 C   0  0  0  0  0  0
   37.0710   49.9500   12.2630 C   0  0  0  0  0  0
   37.0940   49.1770   10.9950 C   0  0  0  0  0  0
   41.9380   52.7170   13.9240 C   0  0  0  0  0  0
   43.3610   51.1020   12.4820 C   0  0  0  0  0  0
   42.1480   50.5060   11.9680 C   0  0  0  0  0  0
   40.7840   51.0280   12.4450 C   0  0  0  0  0  0
   40.6940   52.1460   13.4350 C   0  0  0  0  0  0
   35.0489   52.0594   16.3314 H   0  0  0  0  0  0
   32.7234   52.1306   17.4391 H   0  0  0  0  0  0
   38.2703   48.3831    9.3498 H   0  0  0  0  0  0
   30.7330   50.9681   16.3173 H   0  0  0  0  0  0
   31.0099   49.7283   14.0896 H   0  0  0  0  0  0
   33.3388   49.5741   13.0019 H   0  0  0  0  0  0
   40.5112   49.5081   10.1204 H   0  0  0  0  0  0
   38.3943   50.1042   13.7185 H   0  0  0  0  0  0
   38.0283   51.5946   12.7850 H   0  0  0  0  0  0
   41.9345   53.5347   14.6447 H   0  0  0  0  0  0
   44.3490   50.7621   12.1713 H   0  0  0  0  0  0
   42.2010   49.6910   11.2462 H   0  0  0  0  0  0
   39.7290   52.5194   13.7777 H   0  0  0  0  0  0
  1  4  2  0  0  0
  1 11  1  0  0  0
  1 12  1  0  0  0
  2 18  2  0  0  0
  2 19  1  0  0  0
  3 17  2  0  0  0
  4  7  1  0  0  0
  4 23  1  0  0  0
  5 12  1  0  0  0
  5 16  2  0  0  0
  6 12  2  0  0  0
  7  9  2  0  0  0
  7 24  1  0  0  0
  8 13  1  0  0  0
  8 17  1  0  0  0
  8 25  1  0  0  0
  9 10  1  0  0  0
  9 26  1  0  0  0
 10 11  2  0  0  0
 10 27  1  0  0  0
 11 28  1  0  0  0
 13 14  2  0  0  0
 13 29  1  0  0  0
 14 15  1  0  0  0
 14 21  1  0  0  0
 15 16  1  0  0  0
 15 30  1  0  0  0
 15 31  1  0  0  0
 16 17  1  0  0  0
 18 22  1  0  0  0
 18 32  1  0  0  0
 19 20  2  0  0  0
 19 33  1  0  0  0
 20 21  1  0  0  0
 20 34  1  0  0  0
 21 22  2  0  0  0
 22 35  1  0  0  0
M  END
> <s_m_source_file>
../3qgw_ligand.sdf

> <i_m_source_file_index>
1

> <s_epik_input>
W2NIXTFbY0hdW2NIXVtjSF1bY0hdYzFDKD1PKS9OPUMoXFtDSDJdMilDKD1PKVtOSF1bQ0hdPUMyYzNbY0hdW2NIXW5bY0hdW2NIXTM=

> <s_epik_cmdline>
J2VwaWtfYXBwJywgJy1pbWFlJywgJ2xpZ2FuZF9wcm8ubWFlJywgJy1vbWFlJywgJ2xpZ2FuZF9wcmVwLm1hZScsICctbXMnLCAnMScsICctcGgnLCAnNycsICctcGh0JywgJzAuNScsICctbnQn

> <r_lp_tautomer_probability>
1

> <r_epik_Ionization_Penalty>
  0.0045

> <r_epik_Ionization_Penalty_Charging>
  0.0000

> <r_epik_Ionization_Penalty_Neutral>
  0.0045

> <r_epik_State_Penalty>
 -0.0000

> <r_epik_Charging_Adjusted_Penalty>
0

> <i_epik_Tot_Q>
0

> <i_epik_Tot_abs_Q>
0

> <s_epik_Chemistry_Notes>
This compound has an imine and may undergo hydrolysis.

$$$$
