3qi1_ligand
                    3D
 Schrodinger Suite 2020-3.
 75 78  0  0  1  0            999 V2000
    4.7970   14.7730  -13.3930 C   0  0  0  0  0  0
    4.2110   13.5420  -13.0750 C   0  0  0  0  0  0
    4.9710   12.3710  -13.1780 C   0  0  0  0  0  0
    6.3070   12.4130  -13.5780 C   0  0  0  0  0  0
    6.9010   13.6130  -13.8820 C   0  0  0  0  0  0
    6.1480   14.7680  -13.7620 C   0  0  0  0  0  0
    6.7640   15.9010  -14.0600 F   0  0  0  0  0  0
    7.0320   11.2940  -13.6740 F   0  0  0  0  0  0
    2.7600   13.4490  -12.5890 C   0  0  0  0  0  0
    2.6430   14.2730  -11.2960 C   0  0  1  0  0  0
    1.2550   14.2230  -10.6820 C   0  0  1  0  0  0
    1.1110   15.1180   -9.4720 C   0  0  0  0  0  0
   -0.3040   15.1370   -9.0640 N   0  3  0  0  0  0
   -0.7650   16.2590   -8.2730 C   0  0  2  0  0  0
   -0.3960   17.6300   -8.8040 C   0  0  0  0  0  0
    0.1700   18.6920   -7.9210 C   0  0  0  0  0  0
    0.3560   18.3570   -6.6090 O   0  0  0  0  0  0
   -0.3390   17.2890   -5.9910 C   0  0  2  0  0  0
   -0.1850   16.0580   -6.8700 C   0  0  0  0  0  0
   -0.5870   17.9560  -10.1270 C   0  0  0  0  0  0
   -0.2940   19.2090  -10.6280 C   0  0  0  0  0  0
    0.2860   20.2020   -9.8140 C   0  0  0  0  0  0
    0.5230   19.9820   -8.4360 C   0  0  0  0  0  0
   -0.5780   19.3680  -12.1280 C   0  0  0  0  0  0
   -1.8210   20.1890  -12.4860 C   0  0  0  0  0  0
   -1.7610   20.5230  -13.9960 C   0  0  0  0  0  0
   -1.8910   21.5070  -11.7260 C   0  0  0  0  0  0
   -3.0590   19.3540  -12.1280 C   0  0  0  0  0  0
   -1.7770   17.6960   -5.6800 C   0  0  0  0  0  0
   -1.8370   18.9600   -4.8330 C   0  0  0  0  0  0
   -1.9860   17.5950   -4.1660 C   0  0  0  0  0  0
    0.3090   14.5410  -11.6920 O   0  0  0  0  0  0
    3.5440   13.8110  -10.2720 N   0  0  0  0  0  0
    4.3300   14.6870   -9.6470 C   0  0  0  0  0  0
    5.3510   14.0890   -8.7020 C   0  0  0  0  0  0
    4.2350   15.9010   -9.8770 O   0  0  0  0  0  0
    4.2240   15.6994  -13.3549 H   0  0  0  0  0  0
    4.5118   11.4111  -12.9420 H   0  0  0  0  0  0
    7.9397   13.6549  -14.2097 H   0  0  0  0  0  0
    2.0882   13.8528  -13.3608 H   0  0  0  0  0  0
    2.5050   12.3967  -12.3951 H   0  0  0  0  0  0
    2.9279   15.3017  -11.5617 H   0  0  0  0  0  0
    1.0143   13.2030  -10.3477 H   0  0  0  0  0  0
    1.7311   14.7278   -8.6515 H   0  0  0  0  0  0
    1.4397   16.1361   -9.7278 H   0  0  0  0  0  0
   -0.9437   15.1344   -9.9589 H   0  0  0  0  0  0
   -0.5220   14.2474   -8.4549 H   0  0  0  0  0  0
   -1.8626   16.2216   -8.3361 H   0  0  0  0  0  0
    0.1422   17.0897   -5.0221 H   0  0  0  0  0  0
   -0.7030   15.2232   -6.3753 H   0  0  0  0  0  0
    0.8884   15.8299   -6.9462 H   0  0  0  0  0  0
   -0.9835   17.1987  -10.8033 H   0  0  0  0  0  0
    0.5582   21.1608  -10.2552 H   0  0  0  0  0  0
    0.9524   20.7549   -7.7985 H   0  0  0  0  0  0
    0.2729   19.8707  -12.6110 H   0  0  0  0  0  0
   -0.7230   18.3761  -12.5809 H   0  0  0  0  0  0
   -0.8608   21.1199  -14.2040 H   0  0  0  0  0  0
   -2.6553   21.0969  -14.2804 H   0  0  0  0  0  0
   -1.7243   19.5896  -14.5768 H   0  0  0  0  0  0
   -1.0103   22.1188  -11.9711 H   0  0  0  0  0  0
   -1.9086   21.3062  -10.6446 H   0  0  0  0  0  0
   -2.8047   22.0479  -12.0134 H   0  0  0  0  0  0
   -3.0247   18.3969  -12.6691 H   0  0  0  0  0  0
   -3.9676   19.9044  -12.4136 H   0  0  0  0  0  0
   -3.0715   19.1626  -11.0448 H   0  0  0  0  0  0
   -2.2959   17.3604   -6.5900 H   0  0  0  0  0  0
   -0.8923   19.5143   -4.9342 H   0  0  0  0  0  0
   -2.6708   19.5910   -5.1745 H   0  0  0  0  0  0
   -2.9426   17.0922   -3.9607 H   0  0  0  0  0  0
   -1.1641   17.0155   -3.7202 H   0  0  0  0  0  0
    0.2957   13.9705  -12.6324 H   0  0  0  0  0  0
    3.5794   12.7429  -10.0116 H   0  0  0  0  0  0
    5.2280   12.9963   -8.6730 H   0  0  0  0  0  0
    5.2027   14.5016   -7.6932 H   0  0  0  0  0  0
    6.3640   14.3348   -9.0534 H   0  0  0  0  0  0
  1  2  2  0  0  0
  1  6  1  0  0  0
  1 37  1  0  0  0
  2  3  1  0  0  0
  2  9  1  0  0  0
  3  4  2  0  0  0
  3 38  1  0  0  0
  4  5  1  0  0  0
  4  8  1  0  0  0
  5  6  2  0  0  0
  5 39  1  0  0  0
  6  7  1  0  0  0
  9 10  1  0  0  0
  9 40  1  0  0  0
  9 41  1  0  0  0
 10 11  1  0  0  0
 10 33  1  0  0  0
 10 42  1  0  0  0
 11 12  1  0  0  0
 11 32  1  0  0  0
 11 43  1  0  0  0
 12 13  1  0  0  0
 12 44  1  0  0  0
 12 45  1  0  0  0
 13 14  1  0  0  0
 13 46  1  0  0  0
 13 47  1  0  0  0
 14 15  1  0  0  0
 14 19  1  0  0  0
 14 48  1  0  0  0
 15 16  2  0  0  0
 15 20  1  0  0  0
 16 17  1  0  0  0
 16 23  1  0  0  0
 17 18  1  0  0  0
 18 19  1  0  0  0
 18 29  1  0  0  0
 18 49  1  0  0  0
 19 50  1  0  0  0
 19 51  1  0  0  0
 20 21  2  0  0  0
 20 52  1  0  0  0
 21 22  1  0  0  0
 21 24  1  0  0  0
 22 23  2  0  0  0
 22 53  1  0  0  0
 23 54  1  0  0  0
 24 25  1  0  0  0
 24 55  1  0  0  0
 24 56  1  0  0  0
 25 26  1  0  0  0
 25 27  1  0  0  0
 25 28  1  0  0  0
 26 57  1  0  0  0
 26 58  1  0  0  0
 26 59  1  0  0  0
 27 60  1  0  0  0
 27 61  1  0  0  0
 27 62  1  0  0  0
 28 63  1  0  0  0
 28 64  1  0  0  0
 28 65  1  0  0  0
 29 30  1  0  0  0
 29 31  1  0  0  0
 29 66  1  0  0  0
 30 31  1  0  0  0
 30 67  1  0  0  0
 30 68  1  0  0  0
 31 69  1  0  0  0
 31 70  1  0  0  0
 32 71  1  0  0  0
 33 34  1  0  0  0
 33 72  1  0  0  0
 34 35  1  0  0  0
 34 36  2  0  0  0
 35 73  1  0  0  0
 35 74  1  0  0  0
 35 75  1  0  0  0
M  CHG  1  13   1
M  END
> <s_m_source_file>
../3qi1_ligand.sdf

> <i_m_source_file_index>
1

> <s_epik_input>
W2NIXTFjKEYpW2NIXWMoRilbY0hdYzFbQ0gyXVtDQEhdKFtOSF1DKD1PKVtDSDNdKVtDQEhdKFtPSF0pW0NIMl1bTkgyK11bQ0BIXTJbQ0gyXVtDQEhdKFtDSF0zW0NIMl1bQ0gyXTMpT2MoYzI0KVtjSF1bY0hdYyhbY0hdNClbQ0gyXUMoW0NIM10pKFtDSDNdKVtDSDNd

> <s_epik_cmdline>
J2VwaWtfYXBwJywgJy1pbWFlJywgJ2xpZ2FuZF9wcm8ubWFlJywgJy1vbWFlJywgJ2xpZ2FuZF9wcmVwLm1hZScsICctbXMnLCAnMScsICctcGgnLCAnNycsICctcGh0JywgJzAuNScsICctbnQn

> <r_lp_tautomer_probability>
1

> <r_epik_Ionization_Penalty>
  0.0184

> <r_epik_Ionization_Penalty_Charging>
  0.0184

> <r_epik_Ionization_Penalty_Neutral>
  0.0000

> <r_epik_State_Penalty>
  0.0147

> <r_epik_Charging_Adjusted_Penalty>
0.0330787132727469

> <i_epik_Tot_Q>
1

> <i_epik_Tot_abs_Q>
1

$$$$
