3qi3_ligand
                    3D
 Schrodinger Suite 2020-3.
 39 41  0  0  1  0            999 V2000
   77.7530   49.8720   40.4330 C   0  0  0  0  0  0
   78.3200   49.7770   39.1670 C   0  0  0  0  0  0
   79.5860   50.2980   38.9240 C   0  0  0  0  0  0
   80.2840   50.9180   39.9550 C   0  0  0  0  0  0
   71.9380   55.1500   41.7410 F   0  0  0  0  0  0
   79.7160   51.0130   41.2200 C   0  0  0  0  0  0
   72.7550   54.3990   39.8150 F   0  0  0  0  0  0
   78.4500   50.4900   41.4690 C   0  0  0  0  0  0
   73.4750   56.3280   40.6490 F   0  0  0  0  0  0
   77.9510   50.5690   42.7180 N   0  0  0  0  0  0
   78.5600   50.1790   43.7440 N   0  0  0  0  0  0
   77.8850   50.4810   44.8730 C   0  0  0  0  0  0
   76.7880   51.1600   43.0810 C   0  0  0  0  0  0
   76.7260   51.1280   44.4660 C   0  0  0  0  0  0
   75.7800   51.7450   42.3810 N   0  0  0  0  0  0
   74.7170   52.3010   43.0270 C   0  0  0  0  0  0
   74.6420   52.2830   44.3870 N   0  0  0  0  0  0
   75.6460   51.6990   45.1290 C   0  0  0  0  0  0
   75.6080   51.7390   46.3590 O   0  0  0  0  0  0
   73.6240   52.9930   42.2320 C   0  0  0  0  0  0
   74.1510   54.3360   41.7200 C   0  0  1  0  0  0
   75.3300   54.0870   40.7780 C   0  0  0  0  0  0
   73.0470   55.0730   40.9590 C   0  0  0  0  0  0
   76.1860   49.2170   40.6950 C   0  0  0  0  0  0
   77.7694   49.2917   38.3611 H   0  0  0  0  0  0
   80.0290   50.2210   37.9311 H   0  0  0  0  0  0
   81.2765   51.3294   39.7709 H   0  0  0  0  0  0
   80.2666   51.5012   42.0241 H   0  0  0  0  0  0
   78.1883   50.2615   45.8967 H   0  0  0  0  0  0
   73.7783   52.7354   44.8962 H   0  0  0  0  0  0
   73.3337   52.3604   41.3803 H   0  0  0  0  0  0
   72.7502   53.1606   42.8789 H   0  0  0  0  0  0
   74.4751   54.9490   42.5739 H   0  0  0  0  0  0
   76.1270   53.5571   41.3203 H   0  0  0  0  0  0
   75.7145   55.0495   40.4095 H   0  0  0  0  0  0
   74.9964   53.4753   39.9268 H   0  0  0  0  0  0
   75.8112   48.7773   39.7590 H   0  0  0  0  0  0
   75.5049   50.0159   41.0233 H   0  0  0  0  0  0
   76.2389   48.4386   41.4704 H   0  0  0  0  0  0
  1  2  2  0  0  0
  1  8  1  0  0  0
  1 24  1  0  0  0
  2  3  1  0  0  0
  2 25  1  0  0  0
  3  4  2  0  0  0
  3 26  1  0  0  0
  4  6  1  0  0  0
  4 27  1  0  0  0
  5 23  1  0  0  0
  6  8  2  0  0  0
  6 28  1  0  0  0
  7 23  1  0  0  0
  8 10  1  0  0  0
  9 23  1  0  0  0
 10 11  1  0  0  0
 10 13  1  0  0  0
 11 12  2  0  0  0
 12 14  1  0  0  0
 12 29  1  0  0  0
 13 14  2  0  0  0
 13 15  1  0  0  0
 14 18  1  0  0  0
 15 16  2  0  0  0
 16 17  1  0  0  0
 16 20  1  0  0  0
 17 18  1  0  0  0
 17 30  1  0  0  0
 18 19  2  0  0  0
 20 21  1  0  0  0
 20 31  1  0  0  0
 20 32  1  0  0  0
 21 22  1  0  0  0
 21 23  1  0  0  0
 21 33  1  0  0  0
 22 34  1  0  0  0
 22 35  1  0  0  0
 22 36  1  0  0  0
 24 37  1  0  0  0
 24 38  1  0  0  0
 24 39  1  0  0  0
M  END
> <s_m_source_file>
../3qi3_ligand.sdf

> <i_m_source_file_index>
1

> <s_epik_input>
W0NIM11jMVtjSF1bY0hdW2NIXVtjSF1jMS1uMm5bY0hdYyhjMjMpYyg9TylbbkhdYyhuMylbQ0gyXVtDQEBIXShbQ0gzXSlDKEYpKEYpRg==

> <s_epik_cmdline>
J2VwaWtfYXBwJywgJy1pbWFlJywgJ2xpZ2FuZF9wcm8ubWFlJywgJy1vbWFlJywgJ2xpZ2FuZF9wcmVwLm1hZScsICctbXMnLCAnMScsICctcGgnLCAnNycsICctcGh0JywgJzAuNScsICctbnQn

> <r_lp_tautomer_probability>
1

> <r_epik_Ionization_Penalty>
  0.0024

> <r_epik_Ionization_Penalty_Charging>
  0.0024

> <r_epik_Ionization_Penalty_Neutral>
  0.0000

> <r_epik_State_Penalty>
 -0.0000

> <r_epik_Charging_Adjusted_Penalty>
0.00236636817021033

> <i_epik_Tot_Q>
0

> <i_epik_Tot_abs_Q>
0

$$$$
