3qi4_ligand
                    3D
 Schrodinger Suite 2020-3.
 30 31  0  0  1  0            999 V2000
   74.1120   52.5470   40.8180 N   0  0  0  0  0  0
   73.3110   53.2280   41.7030 C   0  0  0  0  0  0
   73.7130   53.1470   42.9480 N   0  3  0  0  0  0
   74.8550   52.3610   42.8780 C   0  0  0  0  0  0
   75.1160   51.9860   41.5720 C   0  0  0  0  0  0
   76.1500   51.2380   41.1220 N   0  0  0  0  0  0
   77.0050   50.8120   42.0950 C   0  0  0  0  0  0
   76.8240   51.1420   43.4490 N   0  0  0  0  0  0
   75.7510   51.9140   43.8410 C   0  0  0  0  0  0
   75.5810   52.1990   45.0320 O   0  0  0  0  0  0
   77.9680   50.1260   41.7710 O   0  0  0  0  0  0
   77.7840   50.6720   44.4460 C   0  0  0  0  0  0
   76.3850   50.9560   39.7010 C   0  0  0  0  0  0
   75.0870   50.5550   38.9930 C   0  0  0  0  0  0
   75.4040   49.4240   38.0140 C   0  0  0  0  0  0
   74.4950   51.7320   38.2220 C   0  0  0  0  0  0
   72.4273   53.7723   41.3385 H   0  0  0  0  0  0
   78.5647   50.0759   43.9508 H   0  0  0  0  0  0
   77.2649   50.0504   45.1904 H   0  0  0  0  0  0
   78.2449   51.5360   44.9471 H   0  0  0  0  0  0
   76.7887   51.8542   39.2108 H   0  0  0  0  0  0
   77.1060   50.1307   39.6053 H   0  0  0  0  0  0
   74.3501   50.2330   39.7436 H   0  0  0  0  0  0
   75.8312   48.5723   38.5636 H   0  0  0  0  0  0
   76.1288   49.7786   37.2664 H   0  0  0  0  0  0
   74.4801   49.1075   37.5078 H   0  0  0  0  0  0
   74.2646   52.5495   38.9210 H   0  0  0  0  0  0
   73.5726   51.4118   37.7154 H   0  0  0  0  0  0
   75.2212   52.0828   37.4740 H   0  0  0  0  0  0
   73.1465   53.6541   43.7430 H   0  0  0  0  0  0
  1  2  2  0  0  0
  1  5  1  0  0  0
  2  3  1  0  0  0
  2 17  1  0  0  0
  3  4  1  0  0  0
  3 30  1  0  0  0
  4  5  2  0  0  0
  4  9  1  0  0  0
  5  6  1  0  0  0
  6  7  1  0  0  0
  6 13  1  0  0  0
  7  8  1  0  0  0
  7 11  2  0  0  0
  8  9  1  0  0  0
  8 12  1  0  0  0
  9 10  2  0  0  0
 12 18  1  0  0  0
 12 19  1  0  0  0
 12 20  1  0  0  0
 13 14  1  0  0  0
 13 21  1  0  0  0
 13 22  1  0  0  0
 14 15  1  0  0  0
 14 16  1  0  0  0
 14 23  1  0  0  0
 15 24  1  0  0  0
 15 25  1  0  0  0
 15 26  1  0  0  0
 16 27  1  0  0  0
 16 28  1  0  0  0
 16 29  1  0  0  0
M  CHG  1   3   1
M  END
> <s_m_source_file>
../3qi4_ligand.sdf

> <i_m_source_file_index>
1

> <s_epik_input>
W25IXTFbY0hdbmMoYzEyKW4oYyg9TyluKGMyPU8pW0NIM10pW0NIMl1bQ0hdKFtDSDNdKVtDSDNd

> <s_epik_cmdline>
J2VwaWtfYXBwJywgJy1pbWFlJywgJ2xpZ2FuZF9wcm8ubWFlJywgJy1vbWFlJywgJ2xpZ2FuZF9wcmVwLm1hZScsICctbXMnLCAnMScsICctcGgnLCAnNycsICctcGh0JywgJzAuNScsICctbnQn

> <r_lp_tautomer_probability>
1

> <r_epik_Ionization_Penalty>
  0.0000

> <r_epik_Ionization_Penalty_Charging>
  0.0000

> <r_epik_Ionization_Penalty_Neutral>
  0.0000

> <r_epik_State_Penalty>
 -0.0000

> <r_epik_Charging_Adjusted_Penalty>
2.54524996633124e-08

> <i_epik_Tot_Q>
1

> <i_epik_Tot_abs_Q>
1

> <s_epik_Chemistry_Notes>
This compound has an imine and may undergo hydrolysis.

$$$$
