3qiz_ligand
                    3D
 Schrodinger Suite 2020-3.
 62 63  0  0  1  0            999 V2000
  -11.6740   33.3320  -15.0120 O   0  0  0  0  0  0
  -10.4880   33.6850  -15.4160 N   0  0  0  0  0  0
  -10.2110   35.0390  -15.7730 C   0  0  0  0  0  0
  -11.0030   35.9550  -15.7270 O   0  0  0  0  0  0
   -8.8520   35.4810  -16.2400 C   0  0  2  0  0  0
   -8.5370   36.8630  -15.6940 C   0  0  0  0  0  0
   -8.6640   37.0080  -14.1110 C   0  0  2  0  0  0
   -7.9880   38.3530  -13.6500 C   0  0  0  0  0  0
   -8.7030   39.5010  -13.6470 C   0  0  0  0  0  0
   -8.0490   40.6790  -13.2930 C   0  0  0  0  0  0
   -9.2730   35.6540  -17.6910 C   0  0  0  0  0  0
   -8.1770   35.8080  -13.3500 O   0  0  0  0  0  0
   -6.6320   38.3040  -13.3510 C   0  0  0  0  0  0
   -5.9900   39.4800  -12.9870 C   0  0  0  0  0  0
   -6.6920   40.6430  -12.9700 C   0  0  0  0  0  0
   -6.0660   41.7740  -12.6300 F   0  0  0  0  0  0
   -8.2810   35.6040  -18.8230 C   0  0  0  0  0  0
   -8.6440   35.6210  -12.0360 C   0  0  0  0  0  0
   -8.9950   34.4310  -20.7560 C   0  0  0  0  0  0
   -8.8520   35.7620  -20.1710 N   0  3  1  0  0  0
  -10.1720   36.4230  -20.1210 C   0  0  0  0  0  0
  -10.2770   37.9470  -20.1560 C   0  0  0  0  0  0
   -9.0290   38.7560  -19.9300 C   0  0  0  0  0  0
   -9.0740   40.1600  -19.3070 C   0  0  0  0  0  0
   -9.2950   41.2970  -20.1160 C   0  0  0  0  0  0
   -9.2890   42.5730  -19.5620 C   0  0  0  0  0  0
   -9.5420   43.7880  -20.4330 C   0  0  0  0  0  0
   -8.8320   40.3270  -17.9390 C   0  0  0  0  0  0
   -8.8240   41.6100  -17.3730 C   0  0  0  0  0  0
   -9.0550   42.7410  -18.1770 C   0  0  0  0  0  0
   -9.0330   43.9610  -17.6250 F   0  0  0  0  0  0
   -7.9999   34.8337  -15.9852 H   0  0  0  0  0  0
   -7.5024   37.1324  -15.9528 H   0  0  0  0  0  0
   -9.2280   37.5973  -16.1338 H   0  0  0  0  0  0
   -9.7233   37.0080  -13.8146 H   0  0  0  0  0  0
   -9.7599   39.5044  -13.9137 H   0  0  0  0  0  0
   -8.5938   41.6228  -13.2685 H   0  0  0  0  0  0
   -9.9918   34.8662  -17.9606 H   0  0  0  0  0  0
   -9.7434   36.6398  -17.8213 H   0  0  0  0  0  0
   -6.0843   37.3629  -13.4011 H   0  0  0  0  0  0
   -4.9338   39.4703  -12.7177 H   0  0  0  0  0  0
   -7.5442   36.4115  -18.7007 H   0  0  0  0  0  0
   -7.7650   34.6326  -18.8157 H   0  0  0  0  0  0
   -8.2002   34.7064  -11.6158 H   0  0  0  0  0  0
   -9.7398   35.5255  -12.0464 H   0  0  0  0  0  0
   -8.3571   36.4849  -11.4185 H   0  0  0  0  0  0
   -8.0118   33.9392  -20.7930 H   0  0  0  0  0  0
   -9.3991   34.5200  -21.7752 H   0  0  0  0  0  0
   -9.6818   33.8317  -20.1402 H   0  0  0  0  0  0
   -8.1816   36.3843  -20.7820 H   0  0  0  0  0  0
  -10.7767   36.0998  -20.9812 H   0  0  0  0  0  0
  -10.6850   36.1473  -19.1878 H   0  0  0  0  0  0
  -10.6450   38.2666  -21.1421 H   0  0  0  0  0  0
  -10.9762   38.2844  -19.3767 H   0  0  0  0  0  0
   -8.3541   38.2083  -19.2558 H   0  0  0  0  0  0
   -8.5249   38.9290  -20.8923 H   0  0  0  0  0  0
   -9.4719   41.1732  -21.1844 H   0  0  0  0  0  0
   -9.7020   43.4668  -21.4728 H   0  0  0  0  0  0
   -8.6723   44.4600  -20.3865 H   0  0  0  0  0  0
  -10.4352   44.3187  -20.0715 H   0  0  0  0  0  0
   -8.6488   39.4557  -17.3103 H   0  0  0  0  0  0
   -8.6381   41.7314  -16.3059 H   0  0  0  0  0  0
  1  2  2  0  0  0
  2  3  1  0  0  0
  3  4  2  0  0  0
  3  5  1  0  0  0
  5  6  1  0  0  0
  5 11  1  0  0  0
  5 32  1  0  0  0
  6  7  1  0  0  0
  6 33  1  0  0  0
  6 34  1  0  0  0
  7  8  1  0  0  0
  7 12  1  0  0  0
  7 35  1  0  0  0
  8  9  2  0  0  0
  8 13  1  0  0  0
  9 10  1  0  0  0
  9 36  1  0  0  0
 10 15  2  0  0  0
 10 37  1  0  0  0
 11 17  1  0  0  0
 11 38  1  0  0  0
 11 39  1  0  0  0
 12 18  1  0  0  0
 13 14  2  0  0  0
 13 40  1  0  0  0
 14 15  1  0  0  0
 14 41  1  0  0  0
 15 16  1  0  0  0
 17 20  1  0  0  0
 17 42  1  0  0  0
 17 43  1  0  0  0
 18 44  1  0  0  0
 18 45  1  0  0  0
 18 46  1  0  0  0
 19 20  1  0  0  0
 19 47  1  0  0  0
 19 48  1  0  0  0
 19 49  1  0  0  0
 20 21  1  0  0  0
 20 50  1  0  0  0
 21 22  1  0  0  0
 21 51  1  0  0  0
 21 52  1  0  0  0
 22 23  1  0  0  0
 22 53  1  0  0  0
 22 54  1  0  0  0
 23 24  1  0  0  0
 23 55  1  0  0  0
 23 56  1  0  0  0
 24 25  2  0  0  0
 24 28  1  0  0  0
 25 26  1  0  0  0
 25 57  1  0  0  0
 26 27  1  0  0  0
 26 30  2  0  0  0
 27 58  1  0  0  0
 27 59  1  0  0  0
 27 60  1  0  0  0
 28 29  2  0  0  0
 28 61  1  0  0  0
 29 30  1  0  0  0
 29 62  1  0  0  0
 30 31  1  0  0  0
M  CHG  1  20   1
M  END
> <s_m_source_file>
../3qiz_ligand.sdf

> <i_m_source_file_index>
1

> <s_epik_input>
W2NIXTFbY0hdYyhGKVtjSF1bY0hdYzFbQ0BIXShPW0NIM10pW0NIMl1bQ0BASF0oQyg9TylOPU8pW0NIMl1bQ0gyXVtOQEBIK10oW0NIM10pW0NIMl1bQ0gyXVtDSDJdYzJbY0hdYyhbQ0gzXSljKEYpW2NIXVtjSF0y

> <s_epik_cmdline>
J2VwaWtfYXBwJywgJy1pbWFlJywgJ2xpZ2FuZF9wcm8ubWFlJywgJy1vbWFlJywgJ2xpZ2FuZF9wcmVwLm1hZScsICctbXMnLCAnMScsICctcGgnLCAnNycsICctcGh0JywgJzAuNScsICctbnQn

> <r_lp_tautomer_probability>
1

> <r_epik_Ionization_Penalty>
  0.0089

> <r_epik_Ionization_Penalty_Charging>
  0.0089

> <r_epik_Ionization_Penalty_Neutral>
  0.0000

> <r_epik_State_Penalty>
 -0.0000

> <r_epik_Charging_Adjusted_Penalty>
0.00891925448040864

> <i_epik_Tot_Q>
1

> <i_epik_Tot_abs_Q>
1

$$$$
