3qj9_ligand
                    3D
 Schrodinger Suite 2020-3.
 58 63  0  0  1  0            999 V2000
  -17.2830    0.2050   -4.8380 N   0  0  0  0  0  0
  -15.5840   -1.4580   -4.9530 N   0  0  0  0  0  0
  -16.6030   -0.7910   -4.2350 C   0  0  0  0  0  0
  -18.9330    1.9020   -4.8700 C   0  0  0  0  0  0
  -18.9550    2.1340   -6.1850 C   0  0  0  0  0  0
  -20.1810    3.6830   -5.1950 C   0  0  0  0  0  0
  -19.7090    3.2060   -6.4240 C   0  0  0  0  0  0
  -20.8750    4.9840   -7.5680 C   0  0  0  0  0  0
  -14.6900   -2.4490   -4.2810 C   0  0  0  0  0  0
  -12.9920   -1.9500   -6.1070 C   0  0  0  0  0  0
  -15.3820   -1.1500   -6.4000 C   0  0  0  0  0  0
  -11.2260   -5.0730   -3.6660 C   0  0  0  0  0  0
  -10.8020   -6.3770   -3.9260 C   0  0  0  0  0  0
  -11.2750   -7.0510   -5.0520 C   0  0  0  0  0  0
  -12.5880   -5.1210   -5.6600 C   0  0  0  0  0  0
   -8.6270   -3.9570   -1.8220 C   0  0  0  0  0  0
  -10.0430   -4.4620   -1.5500 C   0  0  0  0  0  0
  -10.9440   -4.2040   -2.6950 N   0  0  0  0  0  0
  -11.6230   -3.0820   -2.9170 C   0  0  0  0  0  0
  -11.5970   -2.0750   -2.2080 O   0  0  0  0  0  0
  -12.1650   -6.4190   -5.9240 C   0  0  0  0  0  0
  -12.1190   -4.4410   -4.5330 C   0  0  0  0  0  0
  -12.3360   -3.2160   -4.0340 N   0  0  0  0  0  0
  -13.2120   -2.1490   -4.5870 C   0  0  2  0  0  0
  -13.9010   -0.8590   -6.6870 C   0  0  0  0  0  0
  -16.9000   -1.1330   -2.9620 N   0  0  0  0  0  0
  -17.8570   -0.5040   -2.2890 C   0  0  0  0  0  0
  -18.5730    0.5280   -2.8930 C   0  0  0  0  0  0
  -18.2590    0.8770   -4.2030 C   0  0  0  0  0  0
  -20.0550    3.8580   -7.6110 C   0  0  0  0  0  0
  -21.3470    5.4560   -6.3420 C   0  0  0  0  0  0
  -21.0050    4.8100   -5.1520 C   0  0  0  0  0  0
  -19.6870    2.8550   -4.2220 O   0  0  0  0  0  0
  -18.4392    1.5418   -6.9409 H   0  0  0  0  0  0
  -21.1476    5.4958   -8.4910 H   0  0  0  0  0  0
  -14.8429   -2.4018   -3.1927 H   0  0  0  0  0  0
  -14.9279   -3.4608   -4.6412 H   0  0  0  0  0  0
  -11.9477   -1.6576   -6.2911 H   0  0  0  0  0  0
  -13.2080   -2.8905   -6.6350 H   0  0  0  0  0  0
  -15.7008   -2.0108   -7.0061 H   0  0  0  0  0  0
  -15.9789   -0.2676   -6.6739 H   0  0  0  0  0  0
  -10.1021   -6.8682   -3.2500 H   0  0  0  0  0  0
  -10.9498   -8.0720   -5.2518 H   0  0  0  0  0  0
  -13.2892   -4.6313   -6.3358 H   0  0  0  0  0  0
   -7.9893   -4.1665   -0.9505 H   0  0  0  0  0  0
   -8.6533   -2.8726   -2.0050 H   0  0  0  0  0  0
   -8.2189   -4.4683   -2.7063 H   0  0  0  0  0  0
  -10.0167   -5.5464   -1.3670 H   0  0  0  0  0  0
  -10.4511   -3.9507   -0.6657 H   0  0  0  0  0  0
  -12.5269   -6.9422   -6.8091 H   0  0  0  0  0  0
  -12.9109   -1.2282   -4.0659 H   0  0  0  0  0  0
  -13.6429    0.1109   -6.2368 H   0  0  0  0  0  0
  -13.7611   -0.8062   -7.7768 H   0  0  0  0  0  0
  -18.0826   -0.7953   -1.2632 H   0  0  0  0  0  0
  -19.3616    1.0502   -2.3512 H   0  0  0  0  0  0
  -19.6848    3.4871   -8.5668 H   0  0  0  0  0  0
  -21.9884    6.3369   -6.3132 H   0  0  0  0  0  0
  -21.3779    5.1821   -4.1978 H   0  0  0  0  0  0
  1  3  2  0  0  0
  1 29  1  0  0  0
  2  3  1  0  0  0
  2  9  1  0  0  0
  2 11  1  0  0  0
  3 26  1  0  0  0
  4  5  2  0  0  0
  4 29  1  0  0  0
  4 33  1  0  0  0
  5  7  1  0  0  0
  5 34  1  0  0  0
  6  7  2  0  0  0
  6 32  1  0  0  0
  6 33  1  0  0  0
  7 30  1  0  0  0
  8 30  2  0  0  0
  8 31  1  0  0  0
  8 35  1  0  0  0
  9 24  1  0  0  0
  9 36  1  0  0  0
  9 37  1  0  0  0
 10 24  1  0  0  0
 10 25  1  0  0  0
 10 38  1  0  0  0
 10 39  1  0  0  0
 11 25  1  0  0  0
 11 40  1  0  0  0
 11 41  1  0  0  0
 12 13  2  0  0  0
 12 18  1  0  0  0
 12 22  1  0  0  0
 13 14  1  0  0  0
 13 42  1  0  0  0
 14 21  2  0  0  0
 14 43  1  0  0  0
 15 21  1  0  0  0
 15 22  2  0  0  0
 15 44  1  0  0  0
 16 17  1  0  0  0
 16 45  1  0  0  0
 16 46  1  0  0  0
 16 47  1  0  0  0
 17 18  1  0  0  0
 17 48  1  0  0  0
 17 49  1  0  0  0
 18 19  1  0  0  0
 19 20  2  0  0  0
 19 23  1  0  0  0
 21 50  1  0  0  0
 22 23  1  0  0  0
 23 24  1  0  0  0
 24 51  1  0  0  0
 25 52  1  0  0  0
 25 53  1  0  0  0
 26 27  2  0  0  0
 27 28  1  0  0  0
 27 54  1  0  0  0
 28 29  2  0  0  0
 28 55  1  0  0  0
 30 56  1  0  0  0
 31 32  2  0  0  0
 31 57  1  0  0  0
 32 58  1  0  0  0
M  END
> <s_m_source_file>
../3qj9_ligand.sdf

> <i_m_source_file_index>
1

> <s_epik_input>
W2NIXTFbY0hdW2NIXVtjSF1jKGMxMilbY0hdYyhvMiktYyhbY0hdW2NIXW4zKW5jM040W0NIMl1bQ0BIXShbQ0gyXVtDSDJdW0NIMl00KW4oYyg9TyluNVtDSDJdW0NIM10pYyhjNTYpW2NIXVtjSF1bY0hdW2NIXTY=

> <s_epik_cmdline>
J2VwaWtfYXBwJywgJy1pbWFlJywgJ2xpZ2FuZF9wcm8ubWFlJywgJy1vbWFlJywgJ2xpZ2FuZF9wcmVwLm1hZScsICctbXMnLCAnMScsICctcGgnLCAnNycsICctcGh0JywgJzAuNScsICctbnQn

> <r_lp_tautomer_probability>
1

> <r_epik_Ionization_Penalty>
  0.0002

> <r_epik_Ionization_Penalty_Charging>
  0.0000

> <r_epik_Ionization_Penalty_Neutral>
  0.0002

> <r_epik_State_Penalty>
 -0.0000

> <r_epik_Charging_Adjusted_Penalty>
2.92107438938578e-09

> <i_epik_Tot_Q>
0

> <i_epik_Tot_abs_Q>
0

$$$$
