3qk0_ligand
                    3D
 Schrodinger Suite 2020-3.
 44 47  0  0  1  0            999 V2000
   20.5040   12.7750   23.9330 C   0  0  0  0  0  0
   20.8980   13.7940   23.0430 C   0  0  0  0  0  0
   22.2000   13.8610   22.5390 C   0  0  0  0  0  0
   18.5130   13.8730   23.8250 C   0  0  0  0  0  0
   14.9600   14.9730   24.0960 C   0  0  0  0  0  0
   24.7190   13.3920   21.1370 C   0  0  0  0  0  0
   27.0310   12.8050   21.4400 C   0  0  0  0  0  0
   26.2920   16.9900   19.8950 C   0  0  0  0  0  0
   24.8110   18.6810   20.7830 C   0  0  0  0  0  0
   16.4010   15.0090   23.5690 C   0  0  0  0  0  0
   16.7240   15.8470   22.7240 O   0  0  0  0  0  0
   17.2130   14.0850   24.1100 N   0  0  0  0  0  0
   19.2140   12.8500   24.3290 N   0  0  0  0  0  0
   19.5410   14.7620   22.8010 S   0  0  0  0  0  0
   21.4560   11.8320   24.2970 C   0  0  0  0  0  0
   22.7530   11.8970   23.7970 C   0  0  0  0  0  0
   23.1440   12.9110   22.9240 C   0  0  0  0  0  0
   24.4500   12.9100   22.4210 C   0  0  0  0  0  0
   25.5050   12.3630   23.1530 C   0  0  0  0  0  0
   26.7380   12.3320   22.6660 N   0  0  0  0  0  0
   28.6700   12.7250   20.8740 Cl  0  0  0  0  0  0
   26.0260   13.3570   20.6360 C   0  0  0  0  0  0
   26.3440   13.8160   19.4130 N   0  5  0  0  0  0
   25.4320   14.8280   18.5050 S   0  0  0  0  0  0
   24.1030   14.2050   18.1750 O   0  0  0  0  0  0
   26.1760   15.1370   17.2390 O   0  0  0  0  0  0
   25.1850   16.3140   19.3770 C   0  0  0  0  0  0
   26.1040   18.1790   20.6000 C   0  0  0  0  0  0
   24.6350   19.8290   21.4660 F   0  0  0  0  0  0
   23.7020   18.0040   20.2650 C   0  0  0  0  0  0
   23.8900   16.8140   19.5570 C   0  0  0  0  0  0
   22.4766   14.6553   21.8457 H   0  0  0  0  0  0
   14.3692   15.7584   23.6020 H   0  0  0  0  0  0
   14.9626   15.1448   25.1825 H   0  0  0  0  0  0
   14.5155   13.9900   23.8812 H   0  0  0  0  0  0
   23.9115   13.7951   20.5258 H   0  0  0  0  0  0
   27.2959   16.5913   19.7494 H   0  0  0  0  0  0
   16.7061   13.4623   24.8618 H   0  0  0  0  0  0
   21.1838   11.0303   24.9834 H   0  0  0  0  0  0
   23.4782   11.1394   24.0941 H   0  0  0  0  0  0
   25.3116   11.9533   24.1444 H   0  0  0  0  0  0
   26.9615   18.7150   21.0068 H   0  0  0  0  0  0
   22.6980   18.4019   20.4126 H   0  0  0  0  0  0
   23.0335   16.2784   19.1474 H   0  0  0  0  0  0
  1  2  2  0  0  0
  1 13  1  0  0  0
  1 15  1  0  0  0
  2  3  1  0  0  0
  2 14  1  0  0  0
  3 17  2  0  0  0
  3 32  1  0  0  0
  4 12  1  0  0  0
  4 13  2  0  0  0
  4 14  1  0  0  0
  5 10  1  0  0  0
  5 33  1  0  0  0
  5 34  1  0  0  0
  5 35  1  0  0  0
  6 18  2  0  0  0
  6 22  1  0  0  0
  6 36  1  0  0  0
  7 20  1  0  0  0
  7 21  1  0  0  0
  7 22  2  0  0  0
  8 27  2  0  0  0
  8 28  1  0  0  0
  8 37  1  0  0  0
  9 28  2  0  0  0
  9 29  1  0  0  0
  9 30  1  0  0  0
 10 11  2  0  0  0
 10 12  1  0  0  0
 12 38  1  0  0  0
 15 16  2  0  0  0
 15 39  1  0  0  0
 16 17  1  0  0  0
 16 40  1  0  0  0
 17 18  1  0  0  0
 18 19  1  0  0  0
 19 20  2  0  0  0
 19 41  1  0  0  0
 22 23  1  0  0  0
 23 24  1  0  0  0
 24 25  2  0  0  0
 24 26  2  0  0  0
 24 27  1  0  0  0
 27 31  1  0  0  0
 28 42  1  0  0  0
 30 31  2  0  0  0
 30 43  1  0  0  0
 31 44  1  0  0  0
M  CHG  1  23  -1
M  END
> <s_m_source_file>
../3qk0_ligand.sdf

> <i_m_source_file_index>
1

> <s_epik_input>
W0NIM11DKD1PKVtOSF1jKG4xKXNjKGMxMilbY0hdYyhbY0hdW2NIXTIpLWMoW2NIXW5jM0NsKVtjSF1jM1tOSF1TKD1PKSg9TyljKFtjSF1bY0hdNClbY0hdW2NIXWM0Rg==

> <s_epik_cmdline>
J2VwaWtfYXBwJywgJy1pbWFlJywgJ2xpZ2FuZF9wcm8ubWFlJywgJy1vbWFlJywgJ2xpZ2FuZF9wcmVwLm1hZScsICctbXMnLCAnMScsICctcGgnLCAnNycsICctcGh0JywgJzAuNScsICctbnQn

> <r_epik_Ionization_Penalty>
  0.1570

> <r_epik_Ionization_Penalty_Charging>
  0.1546

> <r_epik_Ionization_Penalty_Neutral>
  0.0024

> <r_epik_State_Penalty>
  0.1439

> <r_epik_Charging_Adjusted_Penalty>
0.298441776467992

> <i_epik_Tot_Q>
-1

> <i_epik_Tot_abs_Q>
1

$$$$
