3qk5_ligand
                    3D
 Schrodinger Suite 2020-3.
 58 63  0  0  1  0            999 V2000
  -10.8370   -6.8350   -4.3690 N   0  0  0  0  0  0
  -15.3230   -1.5840   -4.7880 N   0  0  0  0  0  0
  -12.0070   -4.8020   -4.7260 C   0  0  0  0  0  0
  -12.5040   -5.2980   -5.9340 C   0  0  0  0  0  0
  -11.4030   -3.6950   -2.8810 C   0  0  0  0  0  0
  -12.1490   -3.5990   -4.0430 C   0  0  0  0  0  0
  -12.9840   -2.3760   -4.4740 C   0  0  2  0  0  0
  -15.1200   -1.1980   -6.2190 C   0  0  0  0  0  0
  -11.2820   -2.5930   -1.8220 C   0  0  0  0  0  0
  -18.0070    0.6900   -3.9510 C   0  0  0  0  0  0
  -17.5050   -0.6530   -2.0420 C   0  0  0  0  0  0
  -20.0780    3.4560   -5.0740 C   0  0  0  0  0  0
  -19.5980    3.2240   -6.3830 C   0  0  0  0  0  0
  -20.9920    4.4990   -4.8860 C   0  0  0  0  0  0
  -20.9300    5.0440   -7.2430 C   0  0  0  0  0  0
   -9.9390   -5.4250   -1.7860 C   0  0  0  0  0  0
  -19.5690    2.6040   -4.1520 C   0  0  0  0  0  0
  -21.4190    5.2870   -5.9580 C   0  0  0  0  0  0
  -20.0160    4.0130   -7.4580 C   0  0  0  0  0  0
  -18.5250    1.9280   -6.2820 S   0  0  0  0  0  0
  -18.7050    1.6890   -4.6200 C   0  0  0  0  0  0
  -17.0400    0.0330   -4.6130 N   0  0  0  0  0  0
  -18.2690    0.3590   -2.6260 C   0  0  0  0  0  0
  -16.5590   -1.2700   -2.7410 N   0  0  0  0  0  0
  -16.3180   -0.9380   -4.0280 C   0  0  0  0  0  0
  -14.4700   -2.6480   -4.1950 C   0  0  0  0  0  0
  -13.6350   -0.9040   -6.4780 C   0  0  0  0  0  0
  -12.7470   -2.0450   -5.9670 C   0  0  0  0  0  0
  -12.1400   -6.5770   -6.3340 C   0  0  0  0  0  0
  -11.2970   -7.3260   -5.5140 C   0  0  0  0  0  0
  -11.1620   -5.5960   -3.9480 C   0  0  0  0  0  0
  -10.8210   -4.9000   -2.8560 N   0  0  0  0  0  0
   -8.7510   -4.5830   -1.5700 C   0  0  0  0  0  0
   -7.8280   -3.9350   -1.4090 N   0  0  0  0  0  0
  -13.1661   -4.6914   -6.5518 H   0  0  0  0  0  0
  -12.6727   -1.5006   -3.8851 H   0  0  0  0  0  0
  -15.4448   -2.0225   -6.8708 H   0  0  0  0  0  0
  -15.7116   -0.2982   -6.4436 H   0  0  0  0  0  0
  -11.8781   -1.7214   -2.1301 H   0  0  0  0  0  0
  -10.2273   -2.2980   -1.7187 H   0  0  0  0  0  0
  -11.6537   -2.9690   -0.8574 H   0  0  0  0  0  0
  -17.6860   -0.9386   -1.0058 H   0  0  0  0  0  0
  -21.3773    4.7001   -3.8864 H   0  0  0  0  0  0
  -21.2627    5.6603   -8.0782 H   0  0  0  0  0  0
  -10.4979   -5.4707   -0.8397 H   0  0  0  0  0  0
   -9.5940   -6.4337   -2.0572 H   0  0  0  0  0  0
  -19.8431    2.6578   -3.0984 H   0  0  0  0  0  0
  -22.1345    6.0921   -5.7909 H   0  0  0  0  0  0
  -19.6296    3.8235   -8.4594 H   0  0  0  0  0  0
  -19.0464    0.8735   -2.0612 H   0  0  0  0  0  0
  -14.6261   -2.6790   -3.1066 H   0  0  0  0  0  0
  -14.7402   -3.6206   -4.6320 H   0  0  0  0  0  0
  -13.4677   -0.7860   -7.5588 H   0  0  0  0  0  0
  -13.3488    0.0229   -5.9593 H   0  0  0  0  0  0
  -11.6994   -1.7435   -6.1139 H   0  0  0  0  0  0
  -12.9618   -2.9339   -6.5783 H   0  0  0  0  0  0
  -12.5074   -6.9888   -7.2740 H   0  0  0  0  0  0
  -11.0104   -8.3327   -5.8182 H   0  0  0  0  0  0
  1 30  1  0  0  0
  1 31  2  0  0  0
  2  8  1  0  0  0
  2 25  1  0  0  0
  2 26  1  0  0  0
  3  4  2  0  0  0
  3  6  1  0  0  0
  3 31  1  0  0  0
  4 29  1  0  0  0
  4 35  1  0  0  0
  5  6  2  0  0  0
  5  9  1  0  0  0
  5 32  1  0  0  0
  6  7  1  0  0  0
  7 26  1  0  0  0
  7 28  1  0  0  0
  7 36  1  0  0  0
  8 27  1  0  0  0
  8 37  1  0  0  0
  8 38  1  0  0  0
  9 39  1  0  0  0
  9 40  1  0  0  0
  9 41  1  0  0  0
 10 21  1  0  0  0
 10 22  2  0  0  0
 10 23  1  0  0  0
 11 23  2  0  0  0
 11 24  1  0  0  0
 11 42  1  0  0  0
 12 13  2  0  0  0
 12 14  1  0  0  0
 12 17  1  0  0  0
 13 19  1  0  0  0
 13 20  1  0  0  0
 14 18  2  0  0  0
 14 43  1  0  0  0
 15 18  1  0  0  0
 15 19  2  0  0  0
 15 44  1  0  0  0
 16 32  1  0  0  0
 16 33  1  0  0  0
 16 45  1  0  0  0
 16 46  1  0  0  0
 17 21  2  0  0  0
 17 47  1  0  0  0
 18 48  1  0  0  0
 19 49  1  0  0  0
 20 21  1  0  0  0
 22 25  1  0  0  0
 23 50  1  0  0  0
 24 25  2  0  0  0
 26 51  1  0  0  0
 26 52  1  0  0  0
 27 28  1  0  0  0
 27 53  1  0  0  0
 27 54  1  0  0  0
 28 55  1  0  0  0
 28 56  1  0  0  0
 29 30  2  0  0  0
 29 57  1  0  0  0
 30 58  1  0  0  0
 31 32  1  0  0  0
 33 34  3  0  0  0
M  END
> <s_m_source_file>
../3qk5_ligand.sdf

> <i_m_source_file_index>
1

> <s_epik_input>
W2NIXTFbY0hdW2NIXW5jKGMxMiluKFtDSDJdQyNOKWMoW0NIM10pYzJbQ0BIXShbQ0gyXTMpW0NIMl1bQ0gyXVtDSDJdTjNjKG5bY0hdW2NIXTQpbmM0LWMoW2NIXTUpc2MoYzU2KVtjSF1bY0hdW2NIXVtjSF02

> <s_epik_cmdline>
J2VwaWtfYXBwJywgJy1pbWFlJywgJ2xpZ2FuZF9wcm8ubWFlJywgJy1vbWFlJywgJ2xpZ2FuZF9wcmVwLm1hZScsICctbXMnLCAnMScsICctcGgnLCAnNycsICctcGh0JywgJzAuNScsICctbnQn

> <r_lp_tautomer_probability>
1

> <r_epik_Ionization_Penalty>
  0.0035

> <r_epik_Ionization_Penalty_Charging>
  0.0000

> <r_epik_Ionization_Penalty_Neutral>
  0.0035

> <r_epik_State_Penalty>
 -0.0000

> <r_epik_Charging_Adjusted_Penalty>
0

> <i_epik_Tot_Q>
0

> <i_epik_Tot_abs_Q>
0

$$$$
