3qkk_ligand
                    3D
 Schrodinger Suite 2020-3.
 77 80  0  0  1  0            999 V2000
   24.7570    6.2360    7.7600 C   0  0  0  0  0  0
   24.3380    4.9520    8.1740 C   0  0  0  0  0  0
   25.1200    4.2430    9.1050 C   0  0  0  0  0  0
   26.2970    4.8260    9.6130 C   0  0  0  0  0  0
   26.7170    6.1140    9.1930 C   0  0  0  0  0  0
   25.9470    6.8290    8.2470 C   0  0  0  0  0  0
   27.0350    4.1350   10.5320 O   0  0  0  0  0  0
   27.7460    4.8610   11.5220 C   0  0  2  0  0  0
   28.7060    5.8210   10.7800 C   0  0  0  0  0  0
   27.9650    6.6790    9.7610 C   0  0  0  0  0  0
   28.6050    3.8830   12.3530 C   0  0  0  0  0  0
   27.8180    3.0240   13.2980 N   0  3  2  0  0  0
   26.8650    3.7760   14.1620 C   0  0  0  0  0  0
   25.9260    4.7360   13.3740 C   0  0  0  0  0  0
   26.7200    5.6300   12.4060 C   0  0  0  0  0  0
   23.9560    6.9010    6.8730 O   0  0  0  0  0  0
   28.4820    7.7300    9.4160 O   0  0  0  0  0  0
   28.6990    2.1160   14.0680 C   0  0  0  0  0  0
   29.4430    1.0710   13.2160 C   0  0  2  0  0  0
   28.5690    0.5520   12.2220 O   0  0  0  0  0  0
   29.9590   -0.0870   14.0930 C   0  0  0  0  0  0
   31.1240   -0.7900   13.4820 N   0  0  3  0  0  0
   30.8000   -2.0240   12.7110 C   0  0  0  0  0  0
   30.4220   -3.1840   13.6670 C   0  0  0  0  0  0
   32.5740    1.5190   12.6520 C   0  0  0  0  0  0
   32.6510    2.6960   13.4420 C   0  0  0  0  0  0
   32.5150    3.9600   12.8400 C   0  0  0  0  0  0
   32.3000    4.0450   11.4480 C   0  0  0  0  0  0
   32.2160    2.8830   10.6490 C   0  0  0  0  0  0
   32.3480    1.6190   11.2540 C   0  0  0  0  0  0
   32.2530    0.3860   10.3620 C   0  0  0  0  0  0
   32.8650    2.6340   14.9490 C   0  0  0  0  0  0
   32.7350   -0.1170   13.4810 S   0  0  0  0  0  0
   33.1400    0.1300   14.8650 O   0  0  0  0  0  0
   33.5950   -1.0000   12.6950 O   0  0  0  0  0  0
   30.3860   -4.4050   12.9410 O   0  0  0  0  0  0
   30.3510   -6.7710   12.9130 C   0  0  0  0  0  0
   30.5770   -5.5280   13.7770 C   0  0  0  0  0  0
   23.4210    4.5160    7.7776 H   0  0  0  0  0  0
   24.8163    3.2482    9.4310 H   0  0  0  0  0  0
   26.2620    7.8134    7.9008 H   0  0  0  0  0  0
   29.1921    6.4879   11.5073 H   0  0  0  0  0  0
   29.4720    5.2361   10.2498 H   0  0  0  0  0  0
   29.1473    3.2058   11.6768 H   0  0  0  0  0  0
   29.3262    4.4517   12.9583 H   0  0  0  0  0  0
   27.1715    2.3884   12.6750 H   0  0  0  0  0  0
   26.2244    3.0660   14.7057 H   0  0  0  0  0  0
   27.4277    4.3880   14.8823 H   0  0  0  0  0  0
   25.2040    4.1457   12.7907 H   0  0  0  0  0  0
   25.3851    5.3821   14.0811 H   0  0  0  0  0  0
   27.2491    6.3764   13.0167 H   0  0  0  0  0  0
   25.9874    6.1369   11.7608 H   0  0  0  0  0  0
   23.0343    6.4283    6.5029 H   0  0  0  0  0  0
   29.4660    2.7059   14.5912 H   0  0  0  0  0  0
   28.0993    1.5597   14.8035 H   0  0  0  0  0  0
   30.2689    1.5447   12.6651 H   0  0  0  0  0  0
   28.0974    1.2304   11.4958 H   0  0  0  0  0  0
   30.2750    0.3061   15.0706 H   0  0  0  0  0  0
   29.1555   -0.8244   14.2367 H   0  0  0  0  0  0
   29.9510   -1.8250   12.0404 H   0  0  0  0  0  0
   31.6748   -2.3247   12.1157 H   0  0  0  0  0  0
   31.1711   -3.2569   14.4692 H   0  0  0  0  0  0
   29.4323   -2.9896   14.1060 H   0  0  0  0  0  0
   32.5752    4.8658   13.4434 H   0  0  0  0  0  0
   32.1969    5.0245   10.9810 H   0  0  0  0  0  0
   32.0506    2.9645    9.5747 H   0  0  0  0  0  0
   32.3746   -0.5197   10.9743 H   0  0  0  0  0  0
   33.0456    0.4227    9.6001 H   0  0  0  0  0  0
   31.2703    0.3656    9.8681 H   0  0  0  0  0  0
   32.9520    1.5837   15.2641 H   0  0  0  0  0  0
   32.0100    3.1005   15.4602 H   0  0  0  0  0  0
   33.7875    3.1730   15.2108 H   0  0  0  0  0  0
   30.4901   -7.6738   13.5259 H   0  0  0  0  0  0
   31.0727   -6.7766   12.0828 H   0  0  0  0  0  0
   29.3278   -6.7559   12.5094 H   0  0  0  0  0  0
   31.6004   -5.5151   14.1802 H   0  0  0  0  0  0
   29.8556   -5.4944   14.6067 H   0  0  0  0  0  0
  1  2  2  0  0  0
  1  6  1  0  0  0
  1 16  1  0  0  0
  2  3  1  0  0  0
  2 39  1  0  0  0
  3  4  2  0  0  0
  3 40  1  0  0  0
  4  5  1  0  0  0
  4  7  1  0  0  0
  5  6  2  0  0  0
  5 10  1  0  0  0
  6 41  1  0  0  0
  7  8  1  0  0  0
  8  9  1  0  0  0
  8 11  1  0  0  0
  8 15  1  0  0  0
  9 10  1  0  0  0
  9 42  1  0  0  0
  9 43  1  0  0  0
 10 17  2  0  0  0
 11 12  1  0  0  0
 11 44  1  0  0  0
 11 45  1  0  0  0
 12 13  1  0  0  0
 12 18  1  0  0  0
 12 46  1  0  0  0
 13 14  1  0  0  0
 13 47  1  0  0  0
 13 48  1  0  0  0
 14 15  1  0  0  0
 14 49  1  0  0  0
 14 50  1  0  0  0
 15 51  1  0  0  0
 15 52  1  0  0  0
 16 53  1  0  0  0
 18 19  1  0  0  0
 18 54  1  0  0  0
 18 55  1  0  0  0
 19 20  1  0  0  0
 19 21  1  0  0  0
 19 56  1  0  0  0
 20 57  1  0  0  0
 21 22  1  0  0  0
 21 58  1  0  0  0
 21 59  1  0  0  0
 22 23  1  0  0  0
 22 33  1  0  0  0
 23 24  1  0  0  0
 23 60  1  0  0  0
 23 61  1  0  0  0
 24 36  1  0  0  0
 24 62  1  0  0  0
 24 63  1  0  0  0
 25 26  2  0  0  0
 25 30  1  0  0  0
 25 33  1  0  0  0
 26 27  1  0  0  0
 26 32  1  0  0  0
 27 28  2  0  0  0
 27 64  1  0  0  0
 28 29  1  0  0  0
 28 65  1  0  0  0
 29 30  2  0  0  0
 29 66  1  0  0  0
 30 31  1  0  0  0
 31 67  1  0  0  0
 31 68  1  0  0  0
 31 69  1  0  0  0
 32 70  1  0  0  0
 32 71  1  0  0  0
 32 72  1  0  0  0
 33 34  2  0  0  0
 33 35  2  0  0  0
 36 38  1  0  0  0
 37 38  1  0  0  0
 37 73  1  0  0  0
 37 74  1  0  0  0
 37 75  1  0  0  0
 38 76  1  0  0  0
 38 77  1  0  0  0
M  CHG  1  12   1
M  END
> <s_m_source_file>
../3qkk_ligand.sdf

> <i_m_source_file_index>
1

> <s_epik_input>
W2NIXTFbY0hdYyhbT0hdKVtjSF1jKEMoPU8pW0NIMl0yKWMxT1tDQEBdMjNbQ0gyXVtOQEgrXShbQ0gyXVtDSDJdW0NIMl0zKVtDSDJdW0NASF0oW09IXSlbQ0gyXU4oW0NIMl1bQ0gyXU9bQ0gyXVtDSDNdKVMoPU8pKD1PKWM0YyhbQ0gzXSlbY0hdW2NIXVtjSF1jNFtDSDNd

> <s_epik_cmdline>
J2VwaWtfYXBwJywgJy1pbWFlJywgJ2xpZ2FuZF9wcm8ubWFlJywgJy1vbWFlJywgJ2xpZ2FuZF9wcmVwLm1hZScsICctbXMnLCAnMScsICctcGgnLCAnNycsICctcGh0JywgJzAuNScsICctbnQn

> <r_lp_tautomer_probability>
0.99995

> <r_epik_Ionization_Penalty>
  0.0186

> <r_epik_Ionization_Penalty_Charging>
  0.0172

> <r_epik_Ionization_Penalty_Neutral>
  0.0014

> <r_epik_State_Penalty>
  0.0136

> <r_epik_Charging_Adjusted_Penalty>
0.0308368527352812

> <i_epik_Tot_Q>
1

> <i_epik_Tot_abs_Q>
1

$$$$
