3qkl_ligand
                    3D
 Schrodinger Suite 2020-3.
 79 83  0  0  1  0            999 V2000
   -6.8730   -2.2620   17.8320 C   0  0  1  0  0  0
   -6.1470   -2.9440   19.0350 C   0  0  0  0  0  0
   -5.6490   -1.9180   20.0990 C   0  0  0  0  0  0
   -6.8070   -0.9570   20.4900 C   0  0  0  0  0  0
   -8.0290   -1.3610   18.3140 C   0  0  0  0  0  0
   -5.9520   -1.3970   17.1260 O   0  0  0  0  0  0
   -4.8340   -1.9690   16.5330 C   0  0  0  0  0  0
   -4.8660   -3.3400   16.1460 C   0  0  0  0  0  0
   -6.1240   -4.1970   16.3720 C   0  0  0  0  0  0
   -7.3510   -3.3450   16.8090 C   0  0  0  0  0  0
   -3.6760   -1.1620   16.3210 C   0  0  0  0  0  0
   -2.5020   -1.6930   15.7320 C   0  0  0  0  0  0
   -2.5620   -3.0650   15.3660 C   0  0  0  0  0  0
   -3.6860   -3.8680   15.5580 C   0  0  0  0  0  0
   -1.5980   -3.8520   14.7850 N   0  0  0  0  0  0
   -2.1160   -5.1280   14.6240 N   0  0  0  0  0  0
   -3.3720   -5.1780   15.0690 C   0  0  0  0  0  0
   -8.6080    0.5890   19.7720 C   0  0  0  0  0  0
   -9.1600    1.4730   18.6220 C   0  0  1  0  0  0
   -9.9630    2.6730   19.2040 C   0  0  0  0  0  0
   -8.0240    1.8840   17.8270 O   0  0  0  0  0  0
  -10.9950    3.3480   18.3300 N   0  0  2  0  0  0
  -10.9560    4.8280   18.5770 C   0  0  0  0  0  0
   -9.7970    5.5800   17.8760 C   0  0  0  0  0  0
  -12.1460    0.8980   17.4030 C   0  0  0  0  0  0
  -11.5710    0.7980   16.1050 C   0  0  0  0  0  0
  -11.2030   -0.4610   15.5840 C   0  0  0  0  0  0
  -11.4040   -1.6210   16.3610 C   0  0  0  0  0  0
  -11.9770   -1.5360   17.6490 C   0  0  0  0  0  0
  -12.3450   -0.2800   18.1770 C   0  0  0  0  0  0
  -12.9430   -0.2650   19.5720 C   0  0  0  0  0  0
  -11.3260    2.0280   15.2460 C   0  0  0  0  0  0
  -10.3090    6.6490   17.0650 O   0  0  0  0  0  0
   -9.3030    8.8780   17.0950 C   0  0  0  0  0  0
  -10.3710    7.9320   17.6980 C   0  0  0  0  0  0
  -12.5860    2.5750   18.0320 S   0  0  0  0  0  0
  -13.2550    2.5020   19.3480 O   0  0  0  0  0  0
  -13.3110    3.3220   16.9940 O   0  0  0  0  0  0
   -7.5360   -0.3480   19.3180 N   0  3  1  0  0  0
   -6.8386   -3.6382   19.5348 H   0  0  0  0  0  0
   -5.2715   -3.4996   18.6678 H   0  0  0  0  0  0
   -5.3060   -2.4562   20.9949 H   0  0  0  0  0  0
   -4.8165   -1.3322   19.6820 H   0  0  0  0  0  0
   -7.5544   -1.5054   21.0821 H   0  0  0  0  0  0
   -6.4066   -0.1237   21.0861 H   0  0  0  0  0  0
   -8.4607   -0.8272   17.4545 H   0  0  0  0  0  0
   -8.8043   -1.9812   18.7875 H   0  0  0  0  0  0
   -6.3862   -4.7166   15.4386 H   0  0  0  0  0  0
   -5.9263   -4.9377   17.1609 H   0  0  0  0  0  0
   -8.1037   -3.9913   17.2841 H   0  0  0  0  0  0
   -7.7934   -2.8507   15.9316 H   0  0  0  0  0  0
   -3.6953   -0.1137   16.6189 H   0  0  0  0  0  0
   -1.6099   -1.0881   15.5699 H   0  0  0  0  0  0
   -4.0313   -6.0460   15.0622 H   0  0  0  0  0  0
   -8.1824    1.2318   20.5567 H   0  0  0  0  0  0
   -9.4247   -0.0143   20.1952 H   0  0  0  0  0  0
   -9.8179    0.9326   17.9255 H   0  0  0  0  0  0
  -10.5223    2.3437   20.0921 H   0  0  0  0  0  0
   -9.2676    3.4773   19.4861 H   0  0  0  0  0  0
   -7.3764    1.1270   17.3605 H   0  0  0  0  0  0
  -11.8900    5.2845   18.2174 H   0  0  0  0  0  0
  -10.8469    5.0171   19.6551 H   0  0  0  0  0  0
   -9.1203    5.9997   18.6348 H   0  0  0  0  0  0
   -9.2404    4.8803   17.2352 H   0  0  0  0  0  0
  -10.7665   -0.5364   14.5881 H   0  0  0  0  0  0
  -11.1140   -2.5934   15.9630 H   0  0  0  0  0  0
  -12.1351   -2.4410   18.2356 H   0  0  0  0  0  0
  -13.1822    0.7701   19.8573 H   0  0  0  0  0  0
  -12.2187   -0.6840   20.2859 H   0  0  0  0  0  0
  -13.8615   -0.8702   19.5837 H   0  0  0  0  0  0
  -11.6628    2.9253   15.7859 H   0  0  0  0  0  0
  -11.8864    1.9349   14.3040 H   0  0  0  0  0  0
  -10.2515    2.1138   15.0265 H   0  0  0  0  0  0
   -9.3611    9.8590   17.5893 H   0  0  0  0  0  0
   -9.4869    8.9990   16.0172 H   0  0  0  0  0  0
   -8.3026    8.4478   17.2503 H   0  0  0  0  0  0
  -11.3683    8.3695   17.5430 H   0  0  0  0  0  0
  -10.1840    7.8184   18.7760 H   0  0  0  0  0  0
   -6.7985    0.2563   18.7693 H   0  0  0  0  0  0
  1  2  1  0  0  0
  1  5  1  0  0  0
  1  6  1  0  0  0
  1 10  1  0  0  0
  2  3  1  0  0  0
  2 40  1  0  0  0
  2 41  1  0  0  0
  3  4  1  0  0  0
  3 42  1  0  0  0
  3 43  1  0  0  0
  4 39  1  0  0  0
  4 44  1  0  0  0
  4 45  1  0  0  0
  5 39  1  0  0  0
  5 46  1  0  0  0
  5 47  1  0  0  0
  6  7  1  0  0  0
  7  8  2  0  0  0
  7 11  1  0  0  0
  8  9  1  0  0  0
  8 14  1  0  0  0
  9 10  1  0  0  0
  9 48  1  0  0  0
  9 49  1  0  0  0
 10 50  1  0  0  0
 10 51  1  0  0  0
 11 12  2  0  0  0
 11 52  1  0  0  0
 12 13  1  0  0  0
 12 53  1  0  0  0
 13 14  2  0  0  0
 13 15  1  0  0  0
 14 17  1  0  0  0
 15 16  2  0  0  0
 16 17  1  0  0  0
 17 54  1  0  0  0
 18 19  1  0  0  0
 18 39  1  0  0  0
 18 55  1  0  0  0
 18 56  1  0  0  0
 19 20  1  0  0  0
 19 21  1  0  0  0
 19 57  1  0  0  0
 20 22  1  0  0  0
 20 58  1  0  0  0
 20 59  1  0  0  0
 21 60  1  0  0  0
 22 23  1  0  0  0
 22 36  1  0  0  0
 23 24  1  0  0  0
 23 61  1  0  0  0
 23 62  1  0  0  0
 24 33  1  0  0  0
 24 63  1  0  0  0
 24 64  1  0  0  0
 25 26  2  0  0  0
 25 30  1  0  0  0
 25 36  1  0  0  0
 26 27  1  0  0  0
 26 32  1  0  0  0
 27 28  2  0  0  0
 27 65  1  0  0  0
 28 29  1  0  0  0
 28 66  1  0  0  0
 29 30  2  0  0  0
 29 67  1  0  0  0
 30 31  1  0  0  0
 31 68  1  0  0  0
 31 69  1  0  0  0
 31 70  1  0  0  0
 32 71  1  0  0  0
 32 72  1  0  0  0
 32 73  1  0  0  0
 33 35  1  0  0  0
 34 35  1  0  0  0
 34 74  1  0  0  0
 34 75  1  0  0  0
 34 76  1  0  0  0
 35 77  1  0  0  0
 35 78  1  0  0  0
 36 37  2  0  0  0
 36 38  2  0  0  0
 39 79  1  0  0  0
M  CHG  1  39   1
M  END
> <s_m_source_file>
../3qkl_ligand.sdf

> <i_m_source_file_index>
1

> <s_epik_input>
W0NIMl0xTj1OYyhbY0hdW2NIXTIpYzFjKFtDSDJdW0NIMl0zKWMyT1tDQF0zNFtDSDJdW0NIMl1bQ0gyXVtOQEBIK10oW0NIMl00KVtDSDJdW0NASF0oW09IXSlbQ0gyXU4oW0NIMl1bQ0gyXU9bQ0gyXVtDSDNdKVMoPU8pKD1PKWM1YyhbQ0gzXSlbY0hdW2NIXVtjSF1jNVtDSDNd

> <s_epik_cmdline>
J2VwaWtfYXBwJywgJy1pbWFlJywgJ2xpZ2FuZF9wcm8ubWFlJywgJy1vbWFlJywgJ2xpZ2FuZF9wcmVwLm1hZScsICctbXMnLCAnMScsICctcGgnLCAnNycsICctcGh0JywgJzAuNScsICctbnQn

> <r_lp_tautomer_probability>
1

> <r_epik_Ionization_Penalty>
  0.0069

> <r_epik_Ionization_Penalty_Charging>
  0.0069

> <r_epik_Ionization_Penalty_Neutral>
  0.0000

> <r_epik_State_Penalty>
 -0.0000

> <r_epik_Charging_Adjusted_Penalty>
0.00693111280342867

> <i_epik_Tot_Q>
1

> <i_epik_Tot_abs_Q>
1

$$$$
