3qkm_ligand
                    3D
 Schrodinger Suite 2020-3.
 85 89  0  0  1  0            999 V2000
   28.1440    2.6070   13.9550 C   0  0  0  0  0  0
   28.7290    1.4580   13.1180 C   0  0  1  0  0  0
   29.2960    0.4010   14.0890 C   0  0  0  0  0  0
   27.7160    0.8850   12.3060 O   0  0  0  0  0  0
   30.3940   -0.4390   13.5300 N   0  0  3  0  0  0
   29.9610   -1.7740   13.0410 C   0  0  0  0  0  0
   29.8030   -2.7930   14.1840 C   0  0  0  0  0  0
   31.8910    1.5200   12.2860 C   0  0  0  0  0  0
   31.9800    2.8620   12.7530 C   0  0  0  0  0  0
   31.8310    3.9340   11.8430 C   0  0  0  0  0  0
   31.5720    3.6740   10.4790 C   0  0  0  0  0  0
   31.4810    2.3470   10.0100 C   0  0  0  0  0  0
   31.6350    1.2690   10.9090 C   0  0  0  0  0  0
   31.5140   -0.1360   10.3330 C   0  0  0  0  0  0
   32.2380    3.2180   14.2130 C   0  0  0  0  0  0
   27.5100    5.5110   11.4420 C   0  0  2  0  0  0
   26.7490    6.4200   12.4430 C   0  0  0  0  0  0
   25.8360    5.6190   13.3960 C   0  0  0  0  0  0
   26.6680    4.5480   14.1260 C   0  0  0  0  0  0
   27.3920    3.6380   13.1940 N   0  3  1  0  0  0
   28.2150    4.3440   12.1660 C   0  0  0  0  0  0
   28.5280    6.3550   10.6620 C   0  0  0  0  0  0
   27.7820    6.8470    9.4080 C   0  0  0  0  0  0
   26.5950    5.9900    9.2660 N   0  0  0  0  0  0
   26.5820    4.9830   10.3430 C   0  0  0  0  0  0
   25.5190    6.3000    8.4820 C   0  0  0  0  0  0
   24.4000    5.4620    8.2230 C   0  0  0  0  0  0
   23.3660    5.9490    7.3850 C   0  0  0  0  0  0
   23.4640    7.1790    6.8560 N   0  0  0  0  0  0
   24.5460    7.9220    7.1380 C   0  0  0  0  0  0
   25.5620    7.5260    7.9230 N   0  0  0  0  0  0
   24.2810    4.1620    8.7710 C   0  0  0  0  0  0
   23.1460    3.3610    8.4880 C   0  0  0  0  0  0
   22.1210    3.8530    7.6460 C   0  0  0  0  0  0
   22.2340    5.1500    7.0960 C   0  0  0  0  0  0
   29.9950   -4.0900   13.6540 O   0  0  0  0  0  0
   29.7780   -6.4560   13.9040 C   0  0  0  0  0  0
   29.7720   -5.0980   14.6270 C   0  0  0  0  0  0
   32.0670    0.1130   13.4460 S   0  0  0  0  0  0
   32.4400    0.5790   14.7880 O   0  0  0  0  0  0
   32.8890   -0.9520   12.8530 O   0  0  0  0  0  0
   27.4432    2.1992   14.6984 H   0  0  0  0  0  0
   28.9586    3.1365   14.4708 H   0  0  0  0  0  0
   29.4790    1.8079   12.3934 H   0  0  0  0  0  0
   29.7032    0.9022   14.9795 H   0  0  0  0  0  0
   28.4932   -0.2877   14.3908 H   0  0  0  0  0  0
   27.2009    1.5000   11.5534 H   0  0  0  0  0  0
   28.9905   -1.6808   12.5317 H   0  0  0  0  0  0
   30.7087   -2.1666   12.3362 H   0  0  0  0  0  0
   30.5527   -2.5895   14.9628 H   0  0  0  0  0  0
   28.7944   -2.7075   14.6146 H   0  0  0  0  0  0
   31.9161    4.9622   12.1945 H   0  0  0  0  0  0
   31.4417    4.5040    9.7846 H   0  0  0  0  0  0
   31.2919    2.1536    8.9541 H   0  0  0  0  0  0
   31.6539   -0.8747   11.1359 H   0  0  0  0  0  0
   32.2836   -0.2833    9.5610 H   0  0  0  0  0  0
   30.5171   -0.2645    9.8862 H   0  0  0  0  0  0
   32.3327    2.2952   14.8042 H   0  0  0  0  0  0
   31.3989    3.8159   14.5984 H   0  0  0  0  0  0
   33.1684    3.7997   14.2896 H   0  0  0  0  0  0
   27.4730    6.9761   13.0567 H   0  0  0  0  0  0
   26.1180    7.1294   11.8875 H   0  0  0  0  0  0
   25.3881    6.3008   14.1339 H   0  0  0  0  0  0
   25.0386    5.1312   12.8161 H   0  0  0  0  0  0
   27.4179    5.0383   14.7641 H   0  0  0  0  0  0
   26.0046    3.9297   14.7486 H   0  0  0  0  0  0
   26.6299    3.1141   12.5984 H   0  0  0  0  0  0
   28.5141    3.5831   11.4301 H   0  0  0  0  0  0
   29.1075    4.7212   12.6868 H   0  0  0  0  0  0
   28.8615    7.1968   11.2866 H   0  0  0  0  0  0
   29.3937    5.7311   10.3949 H   0  0  0  0  0  0
   27.4932    7.8998    9.5427 H   0  0  0  0  0  0
   28.4397    6.7565    8.5310 H   0  0  0  0  0  0
   26.9569    4.0144    9.9806 H   0  0  0  0  0  0
   25.5680    4.8548   10.7496 H   0  0  0  0  0  0
   24.6045    8.9178    6.6987 H   0  0  0  0  0  0
   25.0690    3.7736    9.4162 H   0  0  0  0  0  0
   23.0629    2.3638    8.9201 H   0  0  0  0  0  0
   21.2504    3.2362    7.4231 H   0  0  0  0  0  0
   21.4474    5.5360    6.4476 H   0  0  0  0  0  0
   29.6070   -7.2608   14.6341 H   0  0  0  0  0  0
   30.7513   -6.6062   13.4139 H   0  0  0  0  0  0
   28.9800   -6.4719   13.1471 H   0  0  0  0  0  0
   30.5719   -5.0628   15.3813 H   0  0  0  0  0  0
   28.8006   -4.9286   15.1145 H   0  0  0  0  0  0
  1  2  1  0  0  0
  1 20  1  0  0  0
  1 42  1  0  0  0
  1 43  1  0  0  0
  2  3  1  0  0  0
  2  4  1  0  0  0
  2 44  1  0  0  0
  3  5  1  0  0  0
  3 45  1  0  0  0
  3 46  1  0  0  0
  4 47  1  0  0  0
  5  6  1  0  0  0
  5 39  1  0  0  0
  6  7  1  0  0  0
  6 48  1  0  0  0
  6 49  1  0  0  0
  7 36  1  0  0  0
  7 50  1  0  0  0
  7 51  1  0  0  0
  8  9  2  0  0  0
  8 13  1  0  0  0
  8 39  1  0  0  0
  9 10  1  0  0  0
  9 15  1  0  0  0
 10 11  2  0  0  0
 10 52  1  0  0  0
 11 12  1  0  0  0
 11 53  1  0  0  0
 12 13  2  0  0  0
 12 54  1  0  0  0
 13 14  1  0  0  0
 14 55  1  0  0  0
 14 56  1  0  0  0
 14 57  1  0  0  0
 15 58  1  0  0  0
 15 59  1  0  0  0
 15 60  1  0  0  0
 16 17  1  0  0  0
 16 21  1  0  0  0
 16 22  1  0  0  0
 16 25  1  0  0  0
 17 18  1  0  0  0
 17 61  1  0  0  0
 17 62  1  0  0  0
 18 19  1  0  0  0
 18 63  1  0  0  0
 18 64  1  0  0  0
 19 20  1  0  0  0
 19 65  1  0  0  0
 19 66  1  0  0  0
 20 21  1  0  0  0
 20 67  1  0  0  0
 21 68  1  0  0  0
 21 69  1  0  0  0
 22 23  1  0  0  0
 22 70  1  0  0  0
 22 71  1  0  0  0
 23 24  1  0  0  0
 23 72  1  0  0  0
 23 73  1  0  0  0
 24 25  1  0  0  0
 24 26  1  0  0  0
 25 74  1  0  0  0
 25 75  1  0  0  0
 26 27  2  0  0  0
 26 31  1  0  0  0
 27 28  1  0  0  0
 27 32  1  0  0  0
 28 29  2  0  0  0
 28 35  1  0  0  0
 29 30  1  0  0  0
 30 31  2  0  0  0
 30 76  1  0  0  0
 32 33  2  0  0  0
 32 77  1  0  0  0
 33 34  1  0  0  0
 33 78  1  0  0  0
 34 35  2  0  0  0
 34 79  1  0  0  0
 35 80  1  0  0  0
 36 38  1  0  0  0
 37 38  1  0  0  0
 37 81  1  0  0  0
 37 82  1  0  0  0
 37 83  1  0  0  0
 38 84  1  0  0  0
 38 85  1  0  0  0
 39 40  2  0  0  0
 39 41  2  0  0  0
M  CHG  1  20   1
M  END
> <s_m_source_file>
../3qkm_ligand.sdf

> <i_m_source_file_index>
1

> <s_epik_input>
W0NIM11jMVtjSF1bY0hdW2NIXWMoW0NIM10pYzFTKD1PKSg9TylOKFtDSDJdW0NIMl1PW0NIMl1bQ0gzXSlbQ0gyXVtDQEBIXShbT0hdKVtDSDJdW05ASCtdKFtDSDJdMilbQ0gyXVtDSDJdW0NIMl1bQ0BAXTIzW0NIMl1bQ0gyXU4oW0NIMl0zKWM0bltjSF1uYyhjNDUpW2NIXVtjSF1bY0hdW2NIXTU=

> <s_epik_cmdline>
J2VwaWtfYXBwJywgJy1pbWFlJywgJ2xpZ2FuZF9wcm8ubWFlJywgJy1vbWFlJywgJ2xpZ2FuZF9wcmVwLm1hZScsICctbXMnLCAnMScsICctcGgnLCAnNycsICctcGh0JywgJzAuNScsICctbnQn

> <r_lp_tautomer_probability>
1

> <r_epik_Ionization_Penalty>
  0.0538

> <r_epik_Ionization_Penalty_Charging>
  0.0097

> <r_epik_Ionization_Penalty_Neutral>
  0.0441

> <r_epik_State_Penalty>
 -0.0000

> <r_epik_Charging_Adjusted_Penalty>
0.00973158471059576

> <i_epik_Tot_Q>
1

> <i_epik_Tot_abs_Q>
1

$$$$
