3qkv_ligand
                    3D
 Schrodinger Suite 2020-3.
 34 36  0  0  1  0            999 V2000
   -2.2010  -19.6830  -37.2060 N   0  0  3  0  0  0
   -7.0320  -21.4780  -37.9420 C   0  0  0  0  0  0
   -4.6070  -19.5130  -37.3100 C   0  0  0  0  0  0
   -3.4080  -21.7350  -37.5130 C   0  0  0  0  0  0
   -2.3670  -20.8010  -38.1320 C   0  0  0  0  0  0
   -6.4960  -21.0950  -35.5160 C   0  0  0  0  0  0
   -7.9390  -21.6690  -38.9830 C   0  0  0  0  0  0
   -9.3070  -21.6830  -38.7150 C   0  0  0  0  0  0
  -11.6210  -21.5330  -37.0460 Br  0  0  0  0  0  0
   -9.7650  -21.5100  -37.4080 C   0  0  0  0  0  0
   -7.4880  -21.3060  -36.6400 C   0  0  0  0  0  0
   -8.8550  -21.3190  -36.3690 C   0  0  0  0  0  0
   -5.6840  -21.4630  -38.2050 O   0  0  0  0  0  0
   -4.7370  -21.0380  -37.2210 C   0  0  2  0  0  0
   -5.1580  -21.4350  -35.9070 O   0  0  0  0  0  0
   -3.3450  -18.9650  -36.6490 C   0  0  0  0  0  0
   -0.8590  -19.2640  -36.8270 C   0  0  0  0  0  0
   -0.6240  -19.5970  -35.4530 O   0  0  0  0  0  0
   -4.5819  -19.2082  -38.3666 H   0  0  0  0  0  0
   -5.4678  -19.0420  -36.8129 H   0  0  0  0  0  0
   -3.6114  -22.5665  -38.2038 H   0  0  0  0  0  0
   -3.0238  -22.1337  -36.5625 H   0  0  0  0  0  0
   -2.7112  -20.4225  -39.1058 H   0  0  0  0  0  0
   -1.4044  -21.3179  -38.2591 H   0  0  0  0  0  0
   -6.5061  -20.0380  -35.2117 H   0  0  0  0  0  0
   -6.7735  -21.7260  -34.6588 H   0  0  0  0  0  0
   -7.5800  -21.8069  -40.0029 H   0  0  0  0  0  0
  -10.0195  -21.8292  -39.5268 H   0  0  0  0  0  0
   -9.2115  -21.1803  -35.3483 H   0  0  0  0  0  0
   -3.3839  -19.1246  -35.5613 H   0  0  0  0  0  0
   -3.2406  -17.8902  -36.8583 H   0  0  0  0  0  0
   -0.1216  -19.7791  -37.4602 H   0  0  0  0  0  0
   -0.7625  -18.1766  -36.9622 H   0  0  0  0  0  0
    0.3423  -19.3556  -34.9861 H   0  0  0  0  0  0
  1  5  1  0  0  0
  1 16  1  0  0  0
  1 17  1  0  0  0
  2  7  2  0  0  0
  2 11  1  0  0  0
  2 13  1  0  0  0
  3 14  1  0  0  0
  3 16  1  0  0  0
  3 19  1  0  0  0
  3 20  1  0  0  0
  4  5  1  0  0  0
  4 14  1  0  0  0
  4 21  1  0  0  0
  4 22  1  0  0  0
  5 23  1  0  0  0
  5 24  1  0  0  0
  6 11  1  0  0  0
  6 15  1  0  0  0
  6 25  1  0  0  0
  6 26  1  0  0  0
  7  8  1  0  0  0
  7 27  1  0  0  0
  8 10  2  0  0  0
  8 28  1  0  0  0
  9 10  1  0  0  0
 10 12  1  0  0  0
 11 12  2  0  0  0
 12 29  1  0  0  0
 13 14  1  0  0  0
 14 15  1  0  0  0
 16 30  1  0  0  0
 16 31  1  0  0  0
 17 18  1  0  0  0
 17 32  1  0  0  0
 17 33  1  0  0  0
 18 34  1  0  0  0
M  END
> <s_m_source_file>
../3qkv_ligand.sdf

> <i_m_source_file_index>
1

> <s_epik_input>
W0NIMl0xW0NIMl1bTkBASCtdKFtDSDJdW09IXSlbQ0gyXVtDSDJdW0NAQF0xMk9jM2MoW0NIMl1PMilbY0hdYyhCcilbY0hdW2NIXTM=

> <s_epik_cmdline>
J2VwaWtfYXBwJywgJy1pbWFlJywgJ2xpZ2FuZF9wcm8ubWFlJywgJy1vbWFlJywgJ2xpZ2FuZF9wcmVwLm1hZScsICctbXMnLCAnMScsICctcGgnLCAnNycsICctcGh0JywgJzAuNScsICctbnQn

> <r_lp_tautomer_probability>
1

> <r_epik_Ionization_Penalty>
  0.0709

> <r_epik_Ionization_Penalty_Charging>
  0.0000

> <r_epik_Ionization_Penalty_Neutral>
  0.0709

> <r_epik_State_Penalty>
 -0.0000

> <r_epik_Charging_Adjusted_Penalty>
0

> <i_epik_Tot_Q>
0

> <i_epik_Tot_abs_Q>
0

> <s_epik_Chemistry_Notes>
This compound contains an acetal/aminal-like group ( X-CH(R)-Y where X, Y are N, S, or O) that may be acid/base labile, releasing an aldehyde.

$$$$
