3qlb_ligand
                    3D
 Schrodinger Suite 2020-3.
 36 38  0  0  1  0            999 V2000
   61.8300  -14.4480  -12.8980 C   0  0  0  0  0  0
   62.4640  -16.5700  -10.8520 N   0  0  0  0  0  0
   60.7560  -15.2430  -12.6900 O   0  0  0  0  0  0
   64.9450  -15.9100  -10.6590 S   0  0  0  0  0  0
   61.6710  -13.3830  -13.7650 C   0  0  0  0  0  0
   60.8640  -17.9100   -9.8810 N   0  0  1  0  0  0
   62.3670  -19.6210   -8.4230 S   0  0  0  0  0  0
   62.7240  -12.5190  -13.9940 C   0  0  0  0  0  0
   63.9320  -12.7270  -13.3510 C   0  0  0  0  0  0
   64.0900  -13.7930  -12.4750 C   0  0  0  0  0  0
   63.0420  -14.6680  -12.2400 C   0  0  0  0  0  0
   63.3200  -15.7260  -11.3110 C   0  0  0  0  0  0
   64.5370  -17.4960   -9.9030 C   0  0  0  0  0  0
   63.0650  -17.7110  -10.2540 C   0  0  1  0  0  0
   62.0930  -17.9520   -9.1010 C   0  0  1  0  0  0
   61.3870  -20.3650   -9.7450 C   0  0  0  0  0  0
   60.5270  -19.2660  -10.4100 C   0  0  2  0  0  0
   59.7310  -17.3780   -9.1130 C   0  0  0  0  0  0
   60.9850  -19.1900  -11.8040 C   0  0  0  0  0  0
   61.5020  -20.2270  -12.4630 O   0  0  0  0  0  0
   60.8630  -17.8760  -12.3420 O   0  5  0  0  0  0
   59.8141  -15.0454  -13.2226 H   0  0  0  0  0  0
   60.7247  -13.2278  -14.2618 H   0  0  0  0  0  0
   62.6022  -11.6868  -14.6715 H   0  0  0  0  0  0
   64.7607  -12.0577  -13.5289 H   0  0  0  0  0  0
   65.0340  -13.9436  -11.9724 H   0  0  0  0  0  0
   65.1812  -18.2806  -10.3266 H   0  0  0  0  0  0
   64.6978  -17.4365   -8.8165 H   0  0  0  0  0  0
   63.1421  -18.5626  -10.9460 H   0  0  0  0  0  0
   62.0830  -17.1366   -8.3627 H   0  0  0  0  0  0
   62.0589  -20.8138  -10.4914 H   0  0  0  0  0  0
   60.7344  -21.1439   -9.3238 H   0  0  0  0  0  0
   59.4561  -19.4815  -10.2806 H   0  0  0  0  0  0
   59.9861  -16.3801   -8.7268 H   0  0  0  0  0  0
   59.5099  -18.0513   -8.2717 H   0  0  0  0  0  0
   58.8483  -17.3042   -9.7653 H   0  0  0  0  0  0
  1  3  1  0  0  0
  1  5  2  0  0  0
  1 11  1  0  0  0
  2 12  2  0  0  0
  2 14  1  0  0  0
  3 22  1  0  0  0
  4 12  1  0  0  0
  4 13  1  0  0  0
  5  8  1  0  0  0
  5 23  1  0  0  0
  6 15  1  0  0  0
  6 17  1  0  0  0
  6 18  1  0  0  0
  7 15  1  0  0  0
  7 16  1  0  0  0
  8  9  2  0  0  0
  8 24  1  0  0  0
  9 10  1  0  0  0
  9 25  1  0  0  0
 10 11  2  0  0  0
 10 26  1  0  0  0
 11 12  1  0  0  0
 13 14  1  0  0  0
 13 27  1  0  0  0
 13 28  1  0  0  0
 14 15  1  0  0  0
 14 29  1  0  0  0
 15 30  1  0  0  0
 16 17  1  0  0  0
 16 31  1  0  0  0
 16 32  1  0  0  0
 17 19  1  0  0  0
 17 33  1  0  0  0
 18 34  1  0  0  0
 18 35  1  0  0  0
 18 36  1  0  0  0
 19 20  2  0  0  0
 19 21  1  0  0  0
M  CHG  1  21  -1
M  END
> <i_m_stars>
0

> <s_m_entry_id>
20

> <s_m_entry_name>
Structure20

> <s_pdb_PDB_TITLE>
3qlb_protein

> <s_pdb_PDB_format_version>
3.0

> <s_m_Source_Path>
/disk1/aquila/PDBbind2020/fail/3qlb

> <s_m_Source_File>
3qlb_protein.pdb

> <i_m_Source_File_Index>
1

> <s_ppw_entry_id_backup>
18

> <b_ppw_prepared>
1

> <s_ppw_prepared_with_version>
2020-2

> <b_ppw_assigned_bond_orders>
1

> <b_ppw_added_hydrogens>
1

> <b_ppw_treated_metals>
1

> <b_ppw_created_disulfur>
1

> <s_ppw_het_states>
eJztVz1PwzAQ/StWVprgu3O+2o2JFTGiDlXpRGkZyoCq/nf8leYlAYWhlQAl0+Xp4nv2u2fHx4SSuXqyD2nR5Uzp5Uz5uIK4bmPSEBPEDLFAbCDOIS4ghroEdcnWTWnp3hp6kRk3zCJkE6kLOZ4EnCNdAuqRdR+SIVQCJAEyAJkA5S2vBiogK/IC9g3k2VuszIpK20+OJzvv5iV5PKwOG/W22a22h4+5T1Iv69X29nW/Xaj79G6/e1br/fvuMFd6oR7mds0Sv2ZjmqZ0BVFTmlTtqKozHST1QV9OC+oxOSVx4yTcOpVBMIYFYBCMQTAGwRgEY3Ahg14MejG4X6CuQKMI1BWoK1BXoK5AXYG6AnUF6hpft2kZDsozyNxAptUhQgItw0F5x5x7EPQHyzmrD2HF0AwMXeRWNk66DxVDCD8shh9GKAcoNBZDr7k4SkQgV5w2g2q9CfmZdKctMiAhQ/YSeVUABRJOL+5CRkcP1FlROFf6nS13L1S3z9AVLv9bV7B3xQ1scn07nON/bAfYQic//DU/2F0/d8eb84Nktanpy5MhH/FA+kMPpKjbZILJBL/CBJSVuaZgAs7Y1LVuHx4awuWPGYIvdyjgok9+mPxwdT9wpkuJfqCs5qKCf6Rq6AeXP+IHHW4O0t4cDDV/0ssLXE10azfj++VSA99wd2S53MjuNnX6BENGpLE=

> <i_pdb_PDB_Model>
1

> <s_m_source_file>
../3qlb_ligand.sdf

> <i_m_source_file_index>
1

> <s_epik_input>
W09IXWMxW2NIXVtjSF1bY0hdW2NIXWMxQzI9TltDQEBIXShbQ0gyXVMyKVtDQEBIXShOM1tDSDNdKVNbQ0gyXVtDQEBIXTNDKD1PKVtPLV0=

> <s_epik_cmdline>
J2VwaWtfYXBwJywgJy1pbWFlJywgJ2xpZ2FuZF9wcm8ubWFlJywgJy1vbWFlJywgJ2xpZ2FuZF9wcmVwLm1hZScsICctbXMnLCAnMScsICctcGgnLCAnNycsICctcGh0JywgJzAuNScsICctbnQn

> <r_lp_tautomer_probability>
1

> <r_epik_Ionization_Penalty>
  0.0644

> <r_epik_Ionization_Penalty_Charging>
  0.0001

> <r_epik_Ionization_Penalty_Neutral>
  0.0643

> <r_epik_State_Penalty>
 -0.0000

> <r_epik_Charging_Adjusted_Penalty>
8.33124226828965e-05

> <i_epik_Tot_Q>
-1

> <i_epik_Tot_abs_Q>
1

> <s_epik_Chemistry_Notes>
This compound has an imine and may undergo hydrolysis. This compound contains an acetal/aminal-like group ( X-CH(R)-Y where X, Y are N, S, or O) that may be acid/base labile, releasing an aldehyde.

$$$$
