3qlm_ligand
                    3D
 Schrodinger Suite 2020-3.
 49 48  0  0  1  0            999 V2000
  -30.8270   17.1690  -12.8580 C   0  0  0  0  0  0
  -30.8180   15.9720  -13.2610 O   0  5  0  0  0  0
  -29.8330   17.9370  -12.7330 O   0  0  0  0  0  0
  -32.1850   17.7510  -12.4930 C   0  0  0  0  0  0
  -32.5680   17.3070  -11.1040 C   0  0  0  0  0  0
  -33.0890   18.5130  -10.3500 C   0  0  0  0  0  0
  -32.2670   18.7500   -9.0620 C   0  0  0  0  0  0
  -32.6850   17.7560   -7.9530 C   0  0  0  0  0  0
  -33.9560   18.2000   -7.2040 C   0  0  0  0  0  0
  -35.1320   17.1750   -7.2810 C   0  0  0  0  0  0
  -36.0860   17.2120   -8.5370 C   0  0  0  0  0  0
  -36.7300   18.5670   -8.8890 C   0  0  0  0  0  0
  -38.2380   18.4120   -8.9770 C   0  0  0  0  0  0
  -38.8060   17.6600   -7.7780 C   0  0  0  0  0  0
  -38.0720   17.9210   -6.4440 C   0  0  0  0  0  0
  -37.1820   19.1790   -6.4310 C   0  0  0  0  0  0
  -35.9150   18.9940   -5.6210 C   0  0  0  0  0  0
  -36.1760   18.2440   -4.3320 C   0  0  0  0  0  0
  -32.1337   18.8493  -12.5248 H   0  0  0  0  0  0
  -32.9401   17.3983  -13.2110 H   0  0  0  0  0  0
  -33.3485   16.5345  -11.1682 H   0  0  0  0  0  0
  -31.6848   16.8944  -10.5943 H   0  0  0  0  0  0
  -33.0137   19.4054  -10.9887 H   0  0  0  0  0  0
  -34.1409   18.3469  -10.0746 H   0  0  0  0  0  0
  -31.1976   18.6104   -9.2786 H   0  0  0  0  0  0
  -32.4373   19.7753   -8.7018 H   0  0  0  0  0  0
  -32.8844   16.7708   -8.3998 H   0  0  0  0  0  0
  -31.8736   17.6668   -7.2157 H   0  0  0  0  0  0
  -33.7221   18.3451   -6.1390 H   0  0  0  0  0  0
  -34.3219   19.1453   -7.6311 H   0  0  0  0  0  0
  -34.7282   16.1519   -7.2668 H   0  0  0  0  0  0
  -35.7998   17.3176   -6.4186 H   0  0  0  0  0  0
  -35.5239   16.9110   -9.4334 H   0  0  0  0  0  0
  -36.9253   16.5184   -8.3805 H   0  0  0  0  0  0
  -36.4848   19.3031   -8.1092 H   0  0  0  0  0  0
  -36.3430   18.9163   -9.8576 H   0  0  0  0  0  0
  -38.7073   19.4062   -9.0126 H   0  0  0  0  0  0
  -38.4965   17.8517   -9.8877 H   0  0  0  0  0  0
  -39.8554   17.9524   -7.6254 H   0  0  0  0  0  0
  -38.7504   16.5773   -7.9643 H   0  0  0  0  0  0
  -38.8099   18.0466   -5.6380 H   0  0  0  0  0  0
  -37.4177   17.0676   -6.2124 H   0  0  0  0  0  0
  -36.8885   19.4311   -7.4607 H   0  0  0  0  0  0
  -37.7409   20.0191   -5.9930 H   0  0  0  0  0  0
  -35.1830   18.4227   -6.2107 H   0  0  0  0  0  0
  -35.4942   19.9785   -5.3685 H   0  0  0  0  0  0
  -35.2336   18.1315   -3.7760 H   0  0  0  0  0  0
  -36.5864   17.2499   -4.5629 H   0  0  0  0  0  0
  -36.8977   18.8057   -3.7207 H   0  0  0  0  0  0
  1  2  1  0  0  0
  1  3  2  0  0  0
  1  4  1  0  0  0
  4  5  1  0  0  0
  4 19  1  0  0  0
  4 20  1  0  0  0
  5  6  1  0  0  0
  5 21  1  0  0  0
  5 22  1  0  0  0
  6  7  1  0  0  0
  6 23  1  0  0  0
  6 24  1  0  0  0
  7  8  1  0  0  0
  7 25  1  0  0  0
  7 26  1  0  0  0
  8  9  1  0  0  0
  8 27  1  0  0  0
  8 28  1  0  0  0
  9 10  1  0  0  0
  9 29  1  0  0  0
  9 30  1  0  0  0
 10 11  1  0  0  0
 10 31  1  0  0  0
 10 32  1  0  0  0
 11 12  1  0  0  0
 11 33  1  0  0  0
 11 34  1  0  0  0
 12 13  1  0  0  0
 12 35  1  0  0  0
 12 36  1  0  0  0
 13 14  1  0  0  0
 13 37  1  0  0  0
 13 38  1  0  0  0
 14 15  1  0  0  0
 14 39  1  0  0  0
 14 40  1  0  0  0
 15 16  1  0  0  0
 15 41  1  0  0  0
 15 42  1  0  0  0
 16 17  1  0  0  0
 16 43  1  0  0  0
 16 44  1  0  0  0
 17 18  1  0  0  0
 17 45  1  0  0  0
 17 46  1  0  0  0
 18 47  1  0  0  0
 18 48  1  0  0  0
 18 49  1  0  0  0
M  CHG  1   2  -1
M  END
> <s_m_source_file>
../3qlm_ligand.sdf

> <i_m_source_file_index>
1

> <s_epik_input>
W09IXUMoPU8pW0NIMl1bQ0gyXVtDSDJdW0NIMl1bQ0gyXVtDSDJdW0NIMl1bQ0gyXVtDSDJdW0NIMl1bQ0gyXVtDSDJdW0NIMl1bQ0gyXVtDSDNd

> <s_epik_cmdline>
J2VwaWtfYXBwJywgJy1pbWFlJywgJ2xpZ2FuZF9wcm8ubWFlJywgJy1vbWFlJywgJ2xpZ2FuZF9wcmVwLm1hZScsICctbXMnLCAnMScsICctcGgnLCAnNycsICctcGh0JywgJzAuNScsICctbnQn

> <r_lp_tautomer_probability>
1

> <r_epik_Ionization_Penalty>
  0.0049

> <r_epik_Ionization_Penalty_Charging>
  0.0049

> <r_epik_Ionization_Penalty_Neutral>
  0.0000

> <r_epik_State_Penalty>
 -0.0000

> <r_epik_Charging_Adjusted_Penalty>
0.00486649495677768

> <i_epik_Tot_Q>
-1

> <i_epik_Tot_abs_Q>
1

$$$$
