3qn7_ligand
                    3D
 Schrodinger Suite 2020-3.
243246  0  0  1  0            999 V2000
  -49.2430   18.7480   -0.3500 N   0  3  0  0  0  0
  -49.2040   19.8910   -1.3080 C   0  0  2  0  0  0
  -48.9630   21.2220   -0.5820 C   0  0  0  0  0  0
  -48.4410   22.1750   -1.1760 O   0  0  0  0  0  0
  -50.4990   19.9470   -2.1440 C   0  0  0  0  0  0
  -49.3150   21.2560    0.7090 N   0  0  0  0  0  0
  -49.3820   22.4950    1.5250 C   0  0  2  0  0  0
  -50.2280   23.6180    0.8980 C   0  0  0  0  0  0
  -51.3300   23.3670    0.3870 O   0  0  0  0  0  0
  -47.9900   23.0010    1.9180 C   0  0  0  0  0  0
  -47.2400   22.1000    3.2800 S   0  0  0  0  0  0
  -49.7230   24.8500    0.9760 N   0  0  0  0  0  0
  -50.3380   26.0120    0.3270 C   0  0  2  0  0  0
  -49.2530   26.7960   -0.4250 C   0  0  0  0  0  0
  -49.5160   27.8370   -1.0560 O   0  0  0  0  0  0
  -51.0440   26.9090    1.3700 C   0  0  0  0  0  0
  -50.1440   27.4410    2.3380 O   0  0  0  0  0  0
  -48.0410   26.2490   -0.4070 N   0  0  0  0  0  0
  -46.8820   27.0950   -0.3570 C   0  0  2  0  0  0
  -46.2000   27.5870   -1.6370 C   0  0  0  0  0  0
  -46.4620   27.1370   -2.7700 O   0  0  0  0  0  0
  -45.8730   26.5430    0.6550 C   0  0  0  0  0  0
  -45.9430   27.2870    1.9900 C   0  0  0  0  0  0
  -46.3670   26.3810    3.1430 C   0  0  0  0  0  0
  -45.3660   25.3460    3.4000 N   0  0  0  0  0  0
  -44.9380   24.9780    4.6080 C   0  0  0  0  0  0
  -45.4060   25.5690    5.7010 N   0  0  0  0  0  0
  -44.0120   24.0300    4.7270 N   0  0  0  0  0  0
  -45.3560   28.5800   -1.3800 N   0  0  0  0  0  0
  -44.4780   29.2350   -2.3270 C   0  0  2  0  0  0
  -43.0920   28.6970   -2.0100 C   0  0  0  0  0  0
  -42.0740   29.3480   -2.2570 O   0  0  0  0  0  0
  -44.4970   30.7470   -2.0570 C   0  0  0  0  0  0
  -45.8690   31.3780   -2.1380 C   0  0  0  0  0  0
  -46.2650   32.0740   -3.2790 C   0  0  0  0  0  0
  -46.7780   31.2720   -1.0800 C   0  0  0  0  0  0
  -47.5120   32.6420   -3.3790 C   0  0  0  0  0  0
  -48.0520   31.8440   -1.1760 C   0  0  0  0  0  0
  -48.4000   32.5320   -2.3270 C   0  0  0  0  0  0
  -49.6430   33.1140   -2.4420 O   0  0  0  0  0  0
  -43.0770   27.4980   -1.4350 N   0  0  0  0  0  0
  -41.8580   26.8910   -0.9500 C   0  0  2  0  0  0
  -41.0580   26.3510   -2.1380 C   0  0  0  0  0  0
  -41.5770   25.6170   -2.9940 O   0  0  0  0  0  0
  -42.1660   25.7710    0.0550 C   0  0  0  0  0  0
  -40.9450   24.9280    0.5690 C   0  0  0  0  0  0
  -41.2980   24.1220    1.8470 C   0  0  0  0  0  0
  -41.8850   24.7220    2.7820 O   0  0  0  0  0  0
  -40.9950   22.8990    1.9280 O   0  0  0  0  0  0
  -39.7830   26.7180   -2.1290 N   0  0  0  0  0  0
  -38.8160   26.2120   -3.0720 C   0  0  2  0  0  0
  -38.5750   24.7130   -2.8570 C   0  0  0  0  0  0
  -38.2970   24.2760   -1.7080 O   0  0  0  0  0  0
  -37.4900   27.0180   -2.9670 C   0  0  0  0  0  0
  -36.4620   26.4460   -3.9000 C   0  0  0  0  0  0
  -37.7100   28.4650   -3.2410 C   0  0  0  0  0  0
  -38.6460   23.9300   -3.9470 N   0  0  0  0  0  0
  -38.1980   22.5240   -3.9790 C   0  0  2  0  0  0
  -38.6900   21.8040   -2.6770 C   0  0  0  0  0  0
  -37.9090   21.2810   -1.8560 O   0  0  0  0  0  0
  -36.6600   22.4470   -4.1150 C   0  0  0  0  0  0
  -36.1110   21.0090   -4.2200 C   0  0  0  0  0  0
  -36.8400   20.0500   -4.6070 O   0  0  0  0  0  0
  -34.8980   20.8290   -3.9640 O   0  0  0  0  0  0
  -40.0040   21.8050   -2.5040 N   0  0  0  0  0  0
  -40.6020   21.3200   -1.2750 C   0  0  2  0  0  0
  -40.3560   19.8540   -0.9390 C   0  0  0  0  0  0
  -40.5370   19.4700    0.2230 O   0  0  0  0  0  0
  -42.0830   21.6450   -1.3310 C   0  0  0  0  0  0
  -42.8880   20.4980   -2.4620 S   0  0  0  0  0  0
  -39.9850   19.0060   -1.9190 N   0  0  0  0  0  0
  -39.5360   17.6340   -1.6180 C   0  0  2  0  0  0
  -38.0300   17.3680   -1.8120 C   0  0  0  0  0  0
  -37.6310   16.2090   -2.0220 O   0  0  0  0  0  0
  -40.3070   16.5750   -2.3800 C   0  0  0  0  0  0
  -41.8330   16.5640   -2.1360 C   0  0  0  0  0  0
  -42.5660   15.5280   -3.0620 C   0  0  0  0  0  0
  -44.0070   15.6140   -2.7780 N   0  0  0  0  0  0
  -44.6050   14.9460   -1.7910 C   0  0  0  0  0  0
  -43.9310   14.0770   -1.0410 N   0  0  0  0  0  0
  -45.8800   15.1240   -1.5760 N   0  0  0  0  0  0
  -37.2210   18.4240   -1.7470 N   0  0  0  0  0  0
  -35.7400   18.2980   -1.8320 C   0  0  0  0  0  0
  -35.0980   17.8940   -0.5310 C   0  0  0  0  0  0
  -35.7610   17.9550    0.4980 O   0  0  0  0  0  0
  -33.8050   17.5100   -0.5520 N   0  0  0  0  0  0
  -33.0370   17.2190    0.6820 C   0  0  2  0  0  0
  -33.1320   18.3750    1.6560 C   0  0  0  0  0  0
  -32.8400   19.4890    1.2960 O   0  0  0  0  0  0
  -31.5700   16.8490    0.3720 C   0  0  0  0  0  0
  -30.8870   17.6310   -0.7100 C   0  0  0  0  0  0
  -29.5960   16.9270   -1.1710 C   0  0  0  0  0  0
  -28.8340   16.3060   -0.0730 N   0  0  0  0  0  0
  -27.5820   15.8620   -0.2060 C   0  0  0  0  0  0
  -26.9740   15.9660   -1.3870 N   0  0  0  0  0  0
  -26.9430   15.2930    0.8270 N   0  0  0  0  0  0
  -33.6000   18.1670    2.8790 N   0  0  0  0  0  0
  -34.1310   19.3620    3.5590 C   0  0  0  0  0  0
  -34.6690   19.3020    4.9550 C   0  0  0  0  0  0
  -33.9340   18.9190    5.8570 O   0  0  0  0  0  0
  -35.9520   19.6030    5.1920 N   0  0  0  0  0  0
  -37.0810   19.7230    4.2440 C   0  0  2  0  0  0
  -38.1170   18.7220    4.6730 C   0  0  0  0  0  0
  -37.8610   17.5140    4.6580 O   0  0  0  0  0  0
  -36.7250   19.4700    2.7820 C   0  0  0  0  0  0
  -37.9040   19.1400    2.0270 O   0  0  0  0  0  0
  -39.2910   19.2330    5.0240 N   0  0  0  0  0  0
  -40.4060   18.4260    5.5300 C   0  0  2  0  0  0
  -40.7190   17.1470    4.7180 C   0  0  0  0  0  0
  -40.8330   16.0760    5.3000 O   0  0  0  0  0  0
  -41.6620   19.2990    5.7000 C   0  0  0  0  0  0
  -40.8270   17.2450    3.3890 N   0  0  0  0  0  0
  -41.1820   16.0730    2.5640 C   0  0  2  0  0  0
  -40.0350   15.5080    1.7280 C   0  0  0  0  0  0
  -40.2428   14.5717    0.9109 O   0  0  0  0  0  0
  -42.3800   16.3790    1.6720 C   0  0  0  0  0  0
  -43.7520   17.0830    2.5740 S   0  0  0  0  0  0
  -44.8110   20.2300   -0.5930 C   0  0  0  0  0  0
  -44.6780   18.8630   -0.3580 C   0  0  0  0  0  0
  -44.8450   18.3580    0.9320 C   0  0  0  0  0  0
  -45.1370   19.2320    1.9920 C   0  0  0  0  0  0
  -45.2660   20.6010    1.7610 C   0  0  0  0  0  0
  -45.1020   21.1060    0.4590 C   0  0  0  0  0  0
  -44.6210   20.7630   -2.0340 C   0  0  0  0  0  0
  -44.7320   16.9820    1.1510 C   0  0  0  0  0  0
  -45.5660   21.5280    2.9560 C   0  0  0  0  0  0
  -38.8743   15.9811    1.8563 O   0  0  0  0  0  0
  -48.3113   18.7275    0.2344 H   0  0  0  0  0  0
  -49.3468   17.8056   -0.9077 H   0  0  0  0  0  0
  -50.0996   18.8682    0.3296 H   0  0  0  0  0  0
  -48.3481   19.6999   -1.9720 H   0  0  0  0  0  0
  -50.6487   18.9835   -2.6531 H   0  0  0  0  0  0
  -50.4176   20.7487   -2.8928 H   0  0  0  0  0  0
  -51.3542   20.1488   -1.4822 H   0  0  0  0  0  0
  -49.5640   20.2850    1.1619 H   0  0  0  0  0  0
  -49.9101   22.1590    2.4296 H   0  0  0  0  0  0
  -47.3108   22.9113    1.0574 H   0  0  0  0  0  0
  -48.0562   24.0553    2.2246 H   0  0  0  0  0  0
  -48.8000   24.9717    1.5618 H   0  0  0  0  0  0
  -51.0853   25.6218   -0.3797 H   0  0  0  0  0  0
  -51.5272   27.7548    0.8590 H   0  0  0  0  0  0
  -51.8043   26.3209    1.9048 H   0  0  0  0  0  0
  -50.5203   28.0965    3.1372 H   0  0  0  0  0  0
  -47.9232   25.1556   -0.4302 H   0  0  0  0  0  0
  -47.4151   28.0029   -0.0383 H   0  0  0  0  0  0
  -46.0843   25.4796    0.8407 H   0  0  0  0  0  0
  -44.8547   26.6497    0.2530 H   0  0  0  0  0  0
  -44.9529   27.7010    2.2313 H   0  0  0  0  0  0
  -46.6744   28.1052    1.9159 H   0  0  0  0  0  0
  -46.4911   26.9826    4.0555 H   0  0  0  0  0  0
  -47.3203   25.8921    2.8937 H   0  0  0  0  0  0
  -44.9059   24.8052    2.5599 H   0  0  0  0  0  0
  -46.1717   26.3542    5.6167 H   0  0  0  0  0  0
  -43.6158   23.5324    3.8295 H   0  0  0  0  0  0
  -43.6426   23.7439    5.7228 H   0  0  0  0  0  0
  -45.3648   28.8982   -0.3271 H   0  0  0  0  0  0
  -44.8057   29.0212   -3.3551 H   0  0  0  0  0  0
  -44.1123   30.9437   -1.0454 H   0  0  0  0  0  0
  -43.8637   31.2595   -2.7961 H   0  0  0  0  0  0
  -45.5685   32.1699   -4.1120 H   0  0  0  0  0  0
  -46.4918   30.7394   -0.1731 H   0  0  0  0  0  0
  -47.7991   33.1769   -4.2843 H   0  0  0  0  0  0
  -48.7621   31.7492   -0.3545 H   0  0  0  0  0  0
  -49.9125   33.6588   -3.3588 H   0  0  0  0  0  0
  -44.0344   26.9658   -1.3341 H   0  0  0  0  0  0
  -41.3040   27.6934   -0.4409 H   0  0  0  0  0  0
  -42.6301   26.2026    0.9541 H   0  0  0  0  0  0
  -42.8565   25.0473   -0.4027 H   0  0  0  0  0  0
  -40.6347   24.2182   -0.2120 H   0  0  0  0  0  0
  -40.1081   25.6015    0.8058 H   0  0  0  0  0  0
  -41.2460   22.3291    2.8347 H   0  0  0  0  0  0
  -39.4745   27.4407   -1.3592 H   0  0  0  0  0  0
  -39.2838   26.3578   -4.0568 H   0  0  0  0  0  0
  -37.0865   26.9643   -1.9451 H   0  0  0  0  0  0
  -36.3183   25.3784   -3.6772 H   0  0  0  0  0  0
  -35.5093   26.9797   -3.7675 H   0  0  0  0  0  0
  -36.8053   26.5609   -4.9387 H   0  0  0  0  0  0
  -38.4658   28.8591   -2.5456 H   0  0  0  0  0  0
  -38.0614   28.5930   -4.2755 H   0  0  0  0  0  0
  -36.7654   29.0118   -3.1043 H   0  0  0  0  0  0
  -39.0672   24.3938   -4.8512 H   0  0  0  0  0  0
  -38.6452   22.0686   -4.8749 H   0  0  0  0  0  0
  -36.3450   22.9820   -5.0230 H   0  0  0  0  0  0
  -36.1904   22.9105   -3.2348 H   0  0  0  0  0  0
  -36.4233   19.0341   -4.6728 H   0  0  0  0  0  0
  -40.6437   22.1833   -3.3150 H   0  0  0  0  0  0
  -40.0703   21.8676   -0.4829 H   0  0  0  0  0  0
  -42.5187   21.5443   -0.3260 H   0  0  0  0  0  0
  -42.2188   22.6766   -1.6878 H   0  0  0  0  0  0
  -40.0223   19.3563   -2.9611 H   0  0  0  0  0  0
  -39.7799   17.5939   -0.5461 H   0  0  0  0  0  0
  -40.1651   16.7245   -3.4605 H   0  0  0  0  0  0
  -39.9387   15.5780   -2.0963 H   0  0  0  0  0  0
  -42.0350   16.2938   -1.0890 H   0  0  0  0  0  0
  -42.2446   17.5629   -2.3428 H   0  0  0  0  0  0
  -42.3688   15.7743   -4.1158 H   0  0  0  0  0  0
  -42.1937   14.5157   -2.8462 H   0  0  0  0  0  0
  -44.6520   16.2558   -3.3960 H   0  0  0  0  0  0
  -42.8561   13.9192   -1.2136 H   0  0  0  0  0  0
  -44.4489   13.5167   -0.2486 H   0  0  0  0  0  0
  -46.4466   15.8396   -2.1899 H   0  0  0  0  0  0
  -37.6826   19.4151   -1.6262 H   0  0  0  0  0  0
  -35.4793   17.5346   -2.5798 H   0  0  0  0  0  0
  -35.3062   19.2645   -2.1281 H   0  0  0  0  0  0
  -33.3218   17.4157   -1.5357 H   0  0  0  0  0  0
  -33.5255   16.3479    1.1430 H   0  0  0  0  0  0
  -30.9571   16.9931    1.2740 H   0  0  0  0  0  0
  -31.5161   15.7966    0.0564 H   0  0  0  0  0  0
  -31.5619   17.7295   -1.5730 H   0  0  0  0  0  0
  -30.6272   18.6307   -0.3317 H   0  0  0  0  0  0
  -29.8483   16.1297   -1.8857 H   0  0  0  0  0  0
  -28.9329   17.6582   -1.6565 H   0  0  0  0  0  0
  -29.2949   16.1889    0.9189 H   0  0  0  0  0  0
  -27.4964   16.4323   -2.2354 H   0  0  0  0  0  0
  -27.4433   15.2062    1.8028 H   0  0  0  0  0  0
  -25.9187   14.9132    0.6983 H   0  0  0  0  0  0
  -33.6120   17.1927    3.3896 H   0  0  0  0  0  0
  -33.3412   20.1243    3.6308 H   0  0  0  0  0  0
  -34.9782   19.7647    2.9845 H   0  0  0  0  0  0
  -36.1157   19.7722    6.2665 H   0  0  0  0  0  0
  -37.4221   20.7668    4.3086 H   0  0  0  0  0  0
  -36.2679   20.3744    2.3541 H   0  0  0  0  0  0
  -36.0133   18.6338    2.7173 H   0  0  0  0  0  0
  -37.8261   18.9268    0.9507 H   0  0  0  0  0  0
  -39.4037   20.3221    4.9187 H   0  0  0  0  0  0
  -40.0213   18.0862    6.5029 H   0  0  0  0  0  0
  -41.4076   20.1984    6.2800 H   0  0  0  0  0  0
  -42.4369   18.7270    6.2314 H   0  0  0  0  0  0
  -42.0392   19.5955    4.7101 H   0  0  0  0  0  0
  -40.6464   18.2194    2.9115 H   0  0  0  0  0  0
  -41.4354   15.3119    3.3167 H   0  0  0  0  0  0
  -42.0840   17.0988    0.8947 H   0  0  0  0  0  0
  -42.7306   15.4505    1.1976 H   0  0  0  0  0  0
  -44.4436   18.1885   -1.1815 H   0  0  0  0  0  0
  -45.2634   18.8380    3.0004 H   0  0  0  0  0  0
  -45.2011   22.1749    0.2699 H   0  0  0  0  0  0
  -44.8516   21.8372   -2.0871 H   0  0  0  0  0  0
  -45.2612   20.2152   -2.7411 H   0  0  0  0  0  0
  -44.1918   16.4230    0.3727 H   0  0  0  0  0  0
  -45.6722   16.4632    1.3893 H   0  0  0  0  0  0
  -44.9100   22.3936    2.7817 H   0  0  0  0  0  0
  -45.1990   20.9584    3.8225 H   0  0  0  0  0  0
  -38.0461   15.5767    1.2559 H   0  0  0  0  0  0
  1  2  1  0  0  0
  1128  1  0  0  0
  1129  1  0  0  0
  1130  1  0  0  0
  2  3  1  0  0  0
  2  5  1  0  0  0
  2131  1  0  0  0
  3  4  2  0  0  0
  3  6  1  0  0  0
  5132  1  0  0  0
  5133  1  0  0  0
  5134  1  0  0  0
  6  7  1  0  0  0
  6135  1  0  0  0
  7  8  1  0  0  0
  7 10  1  0  0  0
  7136  1  0  0  0
  8  9  2  0  0  0
  8 12  1  0  0  0
 10 11  1  0  0  0
 10137  1  0  0  0
 10138  1  0  0  0
 11126  1  0  0  0
 12 13  1  0  0  0
 12139  1  0  0  0
 13 14  1  0  0  0
 13 16  1  0  0  0
 13140  1  0  0  0
 14 15  2  0  0  0
 14 18  1  0  0  0
 16 17  1  0  0  0
 16141  1  0  0  0
 16142  1  0  0  0
 17143  1  0  0  0
 18 19  1  0  0  0
 18144  1  0  0  0
 19 20  1  0  0  0
 19 22  1  0  0  0
 19145  1  0  0  0
 20 21  2  0  0  0
 20 29  1  0  0  0
 22 23  1  0  0  0
 22146  1  0  0  0
 22147  1  0  0  0
 23 24  1  0  0  0
 23148  1  0  0  0
 23149  1  0  0  0
 24 25  1  0  0  0
 24150  1  0  0  0
 24151  1  0  0  0
 25 26  1  0  0  0
 25152  1  0  0  0
 26 27  2  0  0  0
 26 28  1  0  0  0
 27153  1  0  0  0
 28154  1  0  0  0
 28155  1  0  0  0
 29 30  1  0  0  0
 29156  1  0  0  0
 30 31  1  0  0  0
 30 33  1  0  0  0
 30157  1  0  0  0
 31 32  2  0  0  0
 31 41  1  0  0  0
 33 34  1  0  0  0
 33158  1  0  0  0
 33159  1  0  0  0
 34 35  2  0  0  0
 34 36  1  0  0  0
 35 37  1  0  0  0
 35160  1  0  0  0
 36 38  2  0  0  0
 36161  1  0  0  0
 37 39  2  0  0  0
 37162  1  0  0  0
 38 39  1  0  0  0
 38163  1  0  0  0
 39 40  1  0  0  0
 40164  1  0  0  0
 41 42  1  0  0  0
 41165  1  0  0  0
 42 43  1  0  0  0
 42 45  1  0  0  0
 42166  1  0  0  0
 43 44  2  0  0  0
 43 50  1  0  0  0
 45 46  1  0  0  0
 45167  1  0  0  0
 45168  1  0  0  0
 46 47  1  0  0  0
 46169  1  0  0  0
 46170  1  0  0  0
 47 48  2  0  0  0
 47 49  1  0  0  0
 49171  1  0  0  0
 50 51  1  0  0  0
 50172  1  0  0  0
 51 52  1  0  0  0
 51 54  1  0  0  0
 51173  1  0  0  0
 52 53  2  0  0  0
 52 57  1  0  0  0
 54 55  1  0  0  0
 54 56  1  0  0  0
 54174  1  0  0  0
 55175  1  0  0  0
 55176  1  0  0  0
 55177  1  0  0  0
 56178  1  0  0  0
 56179  1  0  0  0
 56180  1  0  0  0
 57 58  1  0  0  0
 57181  1  0  0  0
 58 59  1  0  0  0
 58 61  1  0  0  0
 58182  1  0  0  0
 59 60  2  0  0  0
 59 65  1  0  0  0
 61 62  1  0  0  0
 61183  1  0  0  0
 61184  1  0  0  0
 62 63  1  0  0  0
 62 64  2  0  0  0
 63185  1  0  0  0
 65 66  1  0  0  0
 65186  1  0  0  0
 66 67  1  0  0  0
 66 69  1  0  0  0
 66187  1  0  0  0
 67 68  2  0  0  0
 67 71  1  0  0  0
 69 70  1  0  0  0
 69188  1  0  0  0
 69189  1  0  0  0
 70124  1  0  0  0
 71 72  1  0  0  0
 71190  1  0  0  0
 72 73  1  0  0  0
 72 75  1  0  0  0
 72191  1  0  0  0
 73 74  2  0  0  0
 73 82  1  0  0  0
 75 76  1  0  0  0
 75192  1  0  0  0
 75193  1  0  0  0
 76 77  1  0  0  0
 76194  1  0  0  0
 76195  1  0  0  0
 77 78  1  0  0  0
 77196  1  0  0  0
 77197  1  0  0  0
 78 79  1  0  0  0
 78198  1  0  0  0
 79 80  1  0  0  0
 79 81  2  0  0  0
 80199  1  0  0  0
 80200  1  0  0  0
 81201  1  0  0  0
 82 83  1  0  0  0
 82202  1  0  0  0
 83 84  1  0  0  0
 83203  1  0  0  0
 83204  1  0  0  0
 84 85  2  0  0  0
 84 86  1  0  0  0
 86 87  1  0  0  0
 86205  1  0  0  0
 87 88  1  0  0  0
 87 90  1  0  0  0
 87206  1  0  0  0
 88 89  2  0  0  0
 88 97  1  0  0  0
 90 91  1  0  0  0
 90207  1  0  0  0
 90208  1  0  0  0
 91 92  1  0  0  0
 91209  1  0  0  0
 91210  1  0  0  0
 92 93  1  0  0  0
 92211  1  0  0  0
 92212  1  0  0  0
 93 94  1  0  0  0
 93213  1  0  0  0
 94 95  2  0  0  0
 94 96  1  0  0  0
 95214  1  0  0  0
 96215  1  0  0  0
 96216  1  0  0  0
 97 98  1  0  0  0
 97217  1  0  0  0
 98 99  1  0  0  0
 98218  1  0  0  0
 98219  1  0  0  0
 99100  2  0  0  0
 99101  1  0  0  0
101102  1  0  0  0
101220  1  0  0  0
102103  1  0  0  0
102105  1  0  0  0
102221  1  0  0  0
103104  2  0  0  0
103107  1  0  0  0
105106  1  0  0  0
105222  1  0  0  0
105223  1  0  0  0
106224  1  0  0  0
107108  1  0  0  0
107225  1  0  0  0
108109  1  0  0  0
108111  1  0  0  0
108226  1  0  0  0
109110  2  0  0  0
109112  1  0  0  0
111227  1  0  0  0
111228  1  0  0  0
111229  1  0  0  0
112113  1  0  0  0
112230  1  0  0  0
113114  1  0  0  0
113116  1  0  0  0
113231  1  0  0  0
114115  2  0  0  0
114127  1  0  0  0
116117  1  0  0  0
116232  1  0  0  0
116233  1  0  0  0
117125  1  0  0  0
118119  2  0  0  0
118123  1  0  0  0
118124  1  0  0  0
119120  1  0  0  0
119234  1  0  0  0
120121  2  0  0  0
120125  1  0  0  0
121122  1  0  0  0
121235  1  0  0  0
122123  2  0  0  0
122126  1  0  0  0
123236  1  0  0  0
124237  1  0  0  0
124238  1  0  0  0
125239  1  0  0  0
125240  1  0  0  0
126241  1  0  0  0
126242  1  0  0  0
127243  1  0  0  0
M  CHG  1   1   1
M  END
> <s_m_source_file>
../3qn7_ligand.sdf

> <i_m_source_file_index>
1

> <s_epik_input>
W09IXUMoPU8pW0NIMl1bQ0BASF0oQyg9TylbTkhdW0NASF0xMilbTkhdQyg9TylbQ0BIXShbQ0hdKFtDSDNdKVtDSDNdKVtOSF1DKD1PKVtDQEhdKFtDSDJdW0NIMl1DKD1PKVtPSF0pW05IXUMoPU8pW0NASF0oW0NIMl1jM1tjSF1bY0hdYyhbT0hdKVtjSF1bY0hdMylbTkhdQyg9TylbQ0BIXShbQ0gyXVtDSDJdW0NIMl1bTkhdL0MoPU5cW0hdKVtOSDJdKVtOSF1DKD1PKVtDQEhdKFtDSDJdW09IXSlbTkhdQyg9TylbQ0BASF0oW05IXUMoPU8pW0NAQEhdKFtOSDMrXSlbQ0gzXSlbQ0gyXVNbQ0gyXWM0W2NIXWMoW2NIXWMoW2NIXTQpW0NIMl1TW0NIMl0yKVtDSDJdU1tDSDJdW0NAQEhdKEMoPU8pW09IXSlbTkhdQyg9TylbQ0BIXShbQ0gzXSlbTkhdQyg9TylbQ0BIXShbQ0gyXVtPSF0pW05IXUMoPU8pW0NIMl1bTkhdQyg9TylbQ0BIXShbQ0gyXVtDSDJdW0NIMl1bTkhdL0MoPU5cW0hdKVtOSDJdKVtOSF1DKD1PKVtDSDJdW05IXUMoPU8pW0NAQEhdKFtOSF1DMT1PKVtDSDJdW0NIMl1bQ0gyXVtOSF0vQyhbTkgyXSk9TlxbSF0=

> <s_epik_cmdline>
J2VwaWtfYXBwJywgJy1pbWFlJywgJ2xpZ2FuZF9wcm8ubWFlJywgJy1vbWFlJywgJ2xpZ2FuZF9wcmVwLm1hZScsICctbXMnLCAnMScsICctcGgnLCAnNycsICctcGh0JywgJzAuNScsICctbnQn

> <s_epik_pKa_notes>
Molecule size exceeds maximum supported for generating protonation states

> <s_epik_Chemistry_Notes>
This compound has an imine and may undergo hydrolysis.

$$$$
