3qnd_ligand
                    3D
 Schrodinger Suite 2020-3.
 39 39  0  0  1  0            999 V2000
   36.0910    4.9630  -19.9490 C   0  0  0  0  0  0
   35.7190    3.5640  -20.4050 C   0  0  2  0  0  0
   34.4880    3.0670  -19.6340 C   0  0  0  0  0  0
   33.2080    3.7490  -20.1130 C   0  0  1  0  0  0
   33.0390    3.5420  -21.6140 C   0  0  2  0  0  0
   34.2770    4.0890  -22.3350 C   0  0  2  0  0  0
   34.2320    3.9000  -23.8550 C   0  0  1  0  0  0
   35.4770    4.4760  -24.5390 C   0  0  1  0  0  0
   35.2980    4.5770  -26.0520 C   0  0  0  0  0  0
   30.6670    3.6170  -22.3050 C   0  0  0  0  0  0
   29.5870    4.5230  -22.8140 C   0  0  0  0  0  0
   31.8430    4.2150  -22.0970 N   0  0  0  0  0  0
   36.3290    5.8450  -20.8060 O   0  0  0  0  0  0
   36.1570    5.1910  -18.7180 O   0  5  0  0  0  0
   36.8280    2.7060  -20.1210 O   0  0  0  0  0  0
   32.0770    3.2410  -19.3980 O   0  0  0  0  0  0
   35.4850    3.5010  -21.8240 O   0  0  0  0  0  0
   34.1030    2.5070  -24.1790 O   0  0  0  0  0  0
   35.7810    5.7740  -24.0060 O   0  0  0  0  0  0
   34.4720    5.7050  -26.3760 O   0  0  0  0  0  0
   30.4560    2.4310  -22.1000 O   0  0  0  0  0  0
   34.3775    1.9823  -19.7795 H   0  0  0  0  0  0
   34.6148    3.2822  -18.5627 H   0  0  0  0  0  0
   33.2234    4.8233  -19.8769 H   0  0  0  0  0  0
   32.8814    2.4762  -21.8358 H   0  0  0  0  0  0
   34.3378    5.1622  -22.1015 H   0  0  0  0  0  0
   33.3300    4.3879  -24.2528 H   0  0  0  0  0  0
   36.3440    3.8389  -24.3099 H   0  0  0  0  0  0
   36.2810    4.6999  -26.5301 H   0  0  0  0  0  0
   34.8201    3.6598  -26.4267 H   0  0  0  0  0  0
   29.9864    5.5416  -22.9281 H   0  0  0  0  0  0
   28.7512    4.5349  -22.0990 H   0  0  0  0  0  0
   29.2308    4.1575  -23.7884 H   0  0  0  0  0  0
   31.8693    5.2923  -22.3178 H   0  0  0  0  0  0
   37.1881    2.5965  -19.0874 H   0  0  0  0  0  0
   32.0422    3.3130  -18.3009 H   0  0  0  0  0  0
   33.2625    1.9238  -23.7747 H   0  0  0  0  0  0
   35.9447    5.9004  -22.9256 H   0  0  0  0  0  0
   34.2369    5.9308  -27.4266 H   0  0  0  0  0  0
  1  2  1  0  0  0
  1 13  2  0  0  0
  1 14  1  0  0  0
  2  3  1  0  0  0
  2 15  1  0  0  0
  2 17  1  0  0  0
  3  4  1  0  0  0
  3 22  1  0  0  0
  3 23  1  0  0  0
  4  5  1  0  0  0
  4 16  1  0  0  0
  4 24  1  0  0  0
  5  6  1  0  0  0
  5 12  1  0  0  0
  5 25  1  0  0  0
  6  7  1  0  0  0
  6 17  1  0  0  0
  6 26  1  0  0  0
  7  8  1  0  0  0
  7 18  1  0  0  0
  7 27  1  0  0  0
  8  9  1  0  0  0
  8 19  1  0  0  0
  8 28  1  0  0  0
  9 20  1  0  0  0
  9 29  1  0  0  0
  9 30  1  0  0  0
 10 11  1  0  0  0
 10 12  1  0  0  0
 10 21  2  0  0  0
 11 31  1  0  0  0
 11 32  1  0  0  0
 11 33  1  0  0  0
 12 34  1  0  0  0
 15 35  1  0  0  0
 16 36  1  0  0  0
 18 37  1  0  0  0
 19 38  1  0  0  0
 20 39  1  0  0  0
M  CHG  1  14  -1
M  END
> <s_m_source_file>
../3qnd_ligand.sdf

> <i_m_source_file_index>
1

> <s_epik_input>
Tz1DKFtPSF0pW0NAQF0xKFtPSF0pW0NIMl1bQ0BIXShbT0hdKVtDQEBIXShbTkhdQyg9TylbQ0gzXSlbQ0BASF0oTzEpW0NASF0oW09IXSlbQ0BIXShbT0hdKVtDSDJdW09IXQ==

> <s_epik_cmdline>
J2VwaWtfYXBwJywgJy1pbWFlJywgJ2xpZ2FuZF9wcm8ubWFlJywgJy1vbWFlJywgJ2xpZ2FuZF9wcmVwLm1hZScsICctbXMnLCAnMScsICctcGgnLCAnNycsICctcGh0JywgJzAuNScsICctbnQn

> <r_lp_tautomer_probability>
1

> <r_epik_Ionization_Penalty>
  0.0000

> <r_epik_Ionization_Penalty_Charging>
  0.0000

> <r_epik_Ionization_Penalty_Neutral>
  0.0000

> <r_epik_State_Penalty>
 -0.0000

> <r_epik_Charging_Adjusted_Penalty>
2.59170082529691e-05

> <i_epik_Tot_Q>
-1

> <i_epik_Tot_abs_Q>
1

$$$$
