3qnj_ligand
                    3D
 Schrodinger Suite 2020-3.
145149  0  0  1  0            999 V2000
   -8.6030  -29.1640    2.4430 N   0  3  0  0  0  0
   -8.9380  -30.0320    1.2750 C   0  0  2  0  0  0
   -7.6510  -30.4960    0.5240 C   0  0  0  0  0  0
   -6.7040  -29.7020    0.3560 O   0  0  0  0  0  0
   -9.9750  -29.3370    0.3400 C   0  0  0  0  0  0
   -9.4440  -28.7880   -1.0240 C   0  0  0  0  0  0
  -10.5980  -28.3650   -1.9610 C   0  0  0  0  0  0
  -10.0860  -28.0100   -3.3700 C   0  0  0  0  0  0
  -11.1850  -27.7090   -4.3400 N   0  3  0  0  0  0
   -7.6150  -31.7890    0.1090 N   0  0  0  0  0  0
   -6.5080  -32.4210   -0.6350 C   0  0  2  0  0  0
   -5.8960  -31.5760   -1.7700 C   0  0  0  0  0  0
   -6.6240  -31.0540   -2.5940 O   0  0  0  0  0  0
   -7.1520  -33.6890   -1.1880 C   0  0  0  0  0  0
   -8.1530  -34.0750   -0.1140 C   0  0  0  0  0  0
   -8.6160  -32.7920    0.5450 C   0  0  0  0  0  0
   -4.5610  -31.4120   -1.7880 N   0  0  0  0  0  0
   -3.8890  -30.8330   -2.9530 C   0  0  2  0  0  0
   -3.7580  -31.8460   -4.0990 C   0  0  0  0  0  0
   -4.0180  -33.0750   -3.9840 O   0  0  0  0  0  0
   -2.5010  -30.4300   -2.4110 C   0  0  0  0  0  0
   -2.6280  -30.3970   -0.9620 C   0  0  0  0  0  0
   -3.6150  -31.5450   -0.6670 C   0  0  0  0  0  0
   -3.4210  -31.3030   -5.2360 N   0  0  0  0  0  0
   -3.5090  -32.0480   -6.4470 C   0  0  2  0  0  0
   -2.0950  -32.5060   -6.8540 C   0  0  0  0  0  0
   -1.1200  -31.7590   -6.7530 O   0  0  0  0  0  0
   -4.1250  -31.1060   -7.4480 C   0  0  0  0  0  0
   -5.5340  -30.6810   -7.0930 C   0  0  0  0  0  0
   -6.5830  -31.5850   -7.1640 C   0  0  0  0  0  0
   -5.8280  -29.3600   -6.7450 C   0  0  0  0  0  0
   -7.9110  -31.1960   -6.8540 C   0  0  0  0  0  0
   -7.1370  -28.9580   -6.4180 C   0  0  0  0  0  0
   -8.1740  -29.8840   -6.4740 C   0  0  0  0  0  0
   -9.4940  -29.5150   -6.1800 O   0  0  0  0  0  0
   -1.9490  -33.7120   -7.3420 N   0  0  0  0  0  0
   -0.6440  -34.0950   -7.8340 C   0  0  2  0  0  0
   -0.4530  -33.4910   -9.2170 C   0  0  0  0  0  0
   -1.3930  -32.9290   -9.7290 O   0  0  0  0  0  0
   -0.5470  -35.5830   -7.8620 C   0  0  0  0  0  0
   -0.5830  -35.9910   -6.4170 C   0  0  0  0  0  0
   -0.8730  -37.4990   -6.4080 C   0  0  0  0  0  0
    0.7230  -35.6930   -5.7810 C   0  0  0  0  0  0
    0.7690  -33.5250   -9.7880 N   0  0  0  0  0  0
    0.8140  -32.9590  -11.1400 C   0  0  2  0  0  0
   -0.2770  -33.6230  -11.9610 C   0  0  0  0  0  0
   -0.8940  -34.5800  -11.5080 O   0  0  0  0  0  0
    2.1820  -33.3830  -11.6630 C   0  0  0  0  0  0
    3.0200  -33.4270  -10.4030 C   0  0  0  0  0  0
    2.1150  -33.8170   -9.2690 C   0  0  0  0  0  0
   -0.5350  -33.1080  -13.1470 N   0  0  0  0  0  0
   -1.4090  -33.8350  -14.0290 C   0  0  2  0  0  0
   -0.5570  -34.3270  -15.2220 C   0  0  0  0  0  0
    0.6480  -34.0520  -15.2370 O   0  0  0  0  0  0
   -2.6430  -32.9900  -14.3620 C   0  0  0  0  0  0
   -2.3700  -31.9320  -15.3420 C   0  0  0  0  0  0
   -3.2140  -30.7430  -15.0660 C   0  0  0  0  0  0
   -2.3470  -29.5910  -15.1130 N   0  0  0  0  0  0
   -2.7250  -28.3790  -15.4620 C   0  0  0  0  0  0
   -3.9990  -28.1450  -15.7950 N   0  0  0  0  0  0
   -1.8160  -27.4020  -15.4470 N   0  3  0  0  0  0
   -1.1530  -35.0890  -16.1780 N   0  0  0  0  0  0
   -0.3650  -35.7320  -17.2560 C   0  0  2  0  0  0
    0.4580  -34.7500  -18.1160 C   0  0  0  0  0  0
    1.1930  -35.1830  -19.0260 O   0  0  0  0  0  0
   -1.4330  -36.4350  -18.1250 C   0  0  0  0  0  0
   -2.6410  -36.5530  -17.2810 C   0  0  0  0  0  0
   -2.5880  -35.4490  -16.2540 C   0  0  0  0  0  0
    0.3875  -33.5108  -17.8990 O   0  5  0  0  0  0
   -7.8714  -29.6779    3.0839 H   0  0  0  0  0  0
   -9.5161  -28.9584    3.0208 H   0  0  0  0  0  0
   -8.1747  -28.2163    2.0846 H   0  0  0  0  0  0
   -9.4152  -30.9285    1.6976 H   0  0  0  0  0  0
  -10.7716  -30.0502    0.0818 H   0  0  0  0  0  0
  -10.4123  -28.4704    0.8575 H   0  0  0  0  0  0
   -8.8069  -27.9098   -0.8427 H   0  0  0  0  0  0
   -8.8570  -29.5687   -1.5299 H   0  0  0  0  0  0
  -11.3180  -29.1916   -2.0521 H   0  0  0  0  0  0
  -11.1043  -27.4821   -1.5437 H   0  0  0  0  0  0
   -9.4416  -27.1203   -3.3126 H   0  0  0  0  0  0
   -9.5093  -28.8550   -3.7743 H   0  0  0  0  0  0
  -10.7515  -27.4648   -5.3210 H   0  0  0  0  0  0
  -11.7718  -26.8531   -3.9752 H   0  0  0  0  0  0
  -11.8395  -28.5878   -4.4368 H   0  0  0  0  0  0
   -5.6694  -32.5749    0.0600 H   0  0  0  0  0  0
   -7.6357  -33.4649   -2.1502 H   0  0  0  0  0  0
   -6.3795  -34.4579   -1.3363 H   0  0  0  0  0  0
   -9.0011  -34.6019   -0.5756 H   0  0  0  0  0  0
   -7.6672  -34.7347    0.6200 H   0  0  0  0  0  0
   -8.6102  -32.8625    1.6427 H   0  0  0  0  0  0
   -9.6154  -32.4855    0.2025 H   0  0  0  0  0  0
   -4.4847  -29.9967   -3.3476 H   0  0  0  0  0  0
   -1.7541  -31.1732   -2.7269 H   0  0  0  0  0  0
   -2.2253  -29.4417   -2.8076 H   0  0  0  0  0  0
   -1.6418  -30.5621   -0.5037 H   0  0  0  0  0  0
   -3.0177  -29.4167   -0.6503 H   0  0  0  0  0  0
   -4.1539  -31.4225    0.2841 H   0  0  0  0  0  0
   -3.1474  -32.5402   -0.6979 H   0  0  0  0  0  0
   -3.0667  -30.2618   -5.2553 H   0  0  0  0  0  0
   -4.1469  -32.9329   -6.3052 H   0  0  0  0  0  0
   -3.5143  -30.1937   -7.5169 H   0  0  0  0  0  0
   -4.1675  -31.5940   -8.4329 H   0  0  0  0  0  0
   -6.3832  -32.6138   -7.4637 H   0  0  0  0  0  0
   -5.0248  -28.6233   -6.7263 H   0  0  0  0  0  0
   -8.7220  -31.9218   -6.9132 H   0  0  0  0  0  0
   -7.3368  -27.9279   -6.1228 H   0  0  0  0  0  0
  -10.2986  -30.2634   -6.2305 H   0  0  0  0  0  0
   -2.7842  -34.4266   -7.3843 H   0  0  0  0  0  0
    0.1225  -33.7174   -7.1413 H   0  0  0  0  0  0
   -1.3970  -35.9953   -8.4254 H   0  0  0  0  0  0
    0.3939  -35.8800   -8.3483 H   0  0  0  0  0  0
   -1.3315  -35.4203   -5.8478 H   0  0  0  0  0  0
   -1.8459  -37.6881   -6.8852 H   0  0  0  0  0  0
   -0.8972  -37.8615   -5.3697 H   0  0  0  0  0  0
   -0.0836  -38.0275   -6.9626 H   0  0  0  0  0  0
    0.9022  -34.6079   -5.8025 H   0  0  0  0  0  0
    1.5246  -36.2080   -6.3308 H   0  0  0  0  0  0
    0.7110  -36.0420   -4.7379 H   0  0  0  0  0  0
    0.6612  -31.8697  -11.1453 H   0  0  0  0  0  0
    2.0991  -34.3641  -12.1534 H   0  0  0  0  0  0
    2.5436  -32.6397  -12.3888 H   0  0  0  0  0  0
    3.8246  -34.1673  -10.5235 H   0  0  0  0  0  0
    3.4588  -32.4351  -10.2197 H   0  0  0  0  0  0
    2.2966  -33.2191   -8.3637 H   0  0  0  0  0  0
    2.1891  -34.8866   -9.0230 H   0  0  0  0  0  0
   -0.1019  -32.1495  -13.4690 H   0  0  0  0  0  0
   -1.8098  -34.7148  -13.5044 H   0  0  0  0  0  0
   -3.4282  -33.6368  -14.7805 H   0  0  0  0  0  0
   -3.0150  -32.5074  -13.4462 H   0  0  0  0  0  0
   -1.3107  -31.6416  -15.2826 H   0  0  0  0  0  0
   -2.5923  -32.3028  -16.3535 H   0  0  0  0  0  0
   -4.0024  -30.6678  -15.8294 H   0  0  0  0  0  0
   -3.6745  -30.8429  -14.0720 H   0  0  0  0  0  0
   -1.2848  -29.6907  -14.8449 H   0  0  0  0  0  0
   -4.7269  -28.9697  -15.7988 H   0  0  0  0  0  0
   -4.3189  -27.1278  -16.0651 H   0  0  0  0  0  0
   -0.7750  -27.6235  -15.1690 H   0  0  0  0  0  0
    0.3777  -36.3949  -16.7880 H   0  0  0  0  0  0
   -1.6342  -35.8287  -19.0205 H   0  0  0  0  0  0
   -1.0645  -37.4260  -18.4284 H   0  0  0  0  0  0
   -3.5384  -36.4505  -17.9089 H   0  0  0  0  0  0
   -2.6490  -37.5361  -16.7877 H   0  0  0  0  0  0
   -2.9337  -35.7881  -15.2663 H   0  0  0  0  0  0
   -3.1708  -34.5692  -16.5643 H   0  0  0  0  0  0
   -2.1077  -26.3752  -15.7126 H   0  0  0  0  0  0
  1  2  1  0  0  0
  1 70  1  0  0  0
  1 71  1  0  0  0
  1 72  1  0  0  0
  2  3  1  0  0  0
  2  5  1  0  0  0
  2 73  1  0  0  0
  3  4  2  0  0  0
  3 10  1  0  0  0
  5  6  1  0  0  0
  5 74  1  0  0  0
  5 75  1  0  0  0
  6  7  1  0  0  0
  6 76  1  0  0  0
  6 77  1  0  0  0
  7  8  1  0  0  0
  7 78  1  0  0  0
  7 79  1  0  0  0
  8  9  1  0  0  0
  8 80  1  0  0  0
  8 81  1  0  0  0
  9 82  1  0  0  0
  9 83  1  0  0  0
  9 84  1  0  0  0
 10 11  1  0  0  0
 10 16  1  0  0  0
 11 12  1  0  0  0
 11 14  1  0  0  0
 11 85  1  0  0  0
 12 13  2  0  0  0
 12 17  1  0  0  0
 14 15  1  0  0  0
 14 86  1  0  0  0
 14 87  1  0  0  0
 15 16  1  0  0  0
 15 88  1  0  0  0
 15 89  1  0  0  0
 16 90  1  0  0  0
 16 91  1  0  0  0
 17 18  1  0  0  0
 17 23  1  0  0  0
 18 19  1  0  0  0
 18 21  1  0  0  0
 18 92  1  0  0  0
 19 20  2  0  0  0
 19 24  1  0  0  0
 21 22  1  0  0  0
 21 93  1  0  0  0
 21 94  1  0  0  0
 22 23  1  0  0  0
 22 95  1  0  0  0
 22 96  1  0  0  0
 23 97  1  0  0  0
 23 98  1  0  0  0
 24 25  1  0  0  0
 24 99  1  0  0  0
 25 26  1  0  0  0
 25 28  1  0  0  0
 25100  1  0  0  0
 26 27  2  0  0  0
 26 36  1  0  0  0
 28 29  1  0  0  0
 28101  1  0  0  0
 28102  1  0  0  0
 29 30  2  0  0  0
 29 31  1  0  0  0
 30 32  1  0  0  0
 30103  1  0  0  0
 31 33  2  0  0  0
 31104  1  0  0  0
 32 34  2  0  0  0
 32105  1  0  0  0
 33 34  1  0  0  0
 33106  1  0  0  0
 34 35  1  0  0  0
 35107  1  0  0  0
 36 37  1  0  0  0
 36108  1  0  0  0
 37 38  1  0  0  0
 37 40  1  0  0  0
 37109  1  0  0  0
 38 39  2  0  0  0
 38 44  1  0  0  0
 40 41  1  0  0  0
 40110  1  0  0  0
 40111  1  0  0  0
 41 42  1  0  0  0
 41 43  1  0  0  0
 41112  1  0  0  0
 42113  1  0  0  0
 42114  1  0  0  0
 42115  1  0  0  0
 43116  1  0  0  0
 43117  1  0  0  0
 43118  1  0  0  0
 44 45  1  0  0  0
 44 50  1  0  0  0
 45 46  1  0  0  0
 45 48  1  0  0  0
 45119  1  0  0  0
 46 47  2  0  0  0
 46 51  1  0  0  0
 48 49  1  0  0  0
 48120  1  0  0  0
 48121  1  0  0  0
 49 50  1  0  0  0
 49122  1  0  0  0
 49123  1  0  0  0
 50124  1  0  0  0
 50125  1  0  0  0
 51 52  1  0  0  0
 51126  1  0  0  0
 52 53  1  0  0  0
 52 55  1  0  0  0
 52127  1  0  0  0
 53 54  2  0  0  0
 53 62  1  0  0  0
 55 56  1  0  0  0
 55128  1  0  0  0
 55129  1  0  0  0
 56 57  1  0  0  0
 56130  1  0  0  0
 56131  1  0  0  0
 57 58  1  0  0  0
 57132  1  0  0  0
 57133  1  0  0  0
 58 59  1  0  0  0
 58134  1  0  0  0
 59 60  1  0  0  0
 59 61  2  0  0  0
 60135  1  0  0  0
 60136  1  0  0  0
 61137  1  0  0  0
 61145  1  0  0  0
 62 63  1  0  0  0
 62 68  1  0  0  0
 63 64  1  0  0  0
 63 66  1  0  0  0
 63138  1  0  0  0
 64 65  2  0  0  0
 64 69  1  0  0  0
 66 67  1  0  0  0
 66139  1  0  0  0
 66140  1  0  0  0
 67 68  1  0  0  0
 67141  1  0  0  0
 67142  1  0  0  0
 68143  1  0  0  0
 68144  1  0  0  0
M  CHG  4   1   1   9   1  61   1  69  -1
M  END
> <s_m_source_file>
../3qnj_ligand.sdf

> <i_m_source_file_index>
1

> <s_epik_input>
W05IMytdW0NIMl1bQ0gyXVtDSDJdW0NIMl1bQ0BIXShbTkgzK10pQyg9TylOMVtDQEBIXShbQ0gyXVtDSDJdW0NIMl0xKUMoPU8pTjJbQ0BASF0oW0NIMl1bQ0gyXVtDSDJdMilDKD1PKVtOSF1bQ0BASF0oW0NIMl1jM1tjSF1bY0hdYyhbT0hdKVtjSF1bY0hdMylDKD1PKVtOSF1bQ0BASF0oW0NIMl1bQ0hdKFtDSDNdKVtDSDNdKUMoPU8pTjRbQ0BASF0oW0NIMl1bQ0gyXVtDSDJdNClDKD1PKVtOSF1bQ0BIXShDKD1PKU41W0NASF0oQyg9TylbT0hdKVtDSDJdW0NIMl1bQ0gyXTUpW0NIMl1bQ0gyXVtDSDJdW05IXS9DKFtOSDJdKT1OXFtIXQ==

> <s_epik_cmdline>
J2VwaWtfYXBwJywgJy1pbWFlJywgJ2xpZ2FuZF9wcm8ubWFlJywgJy1vbWFlJywgJ2xpZ2FuZF9wcmVwLm1hZScsICctbXMnLCAnMScsICctcGgnLCAnNycsICctcGh0JywgJzAuNScsICctbnQn

> <r_lp_tautomer_probability>
0.999999999997365

> <r_epik_Ionization_Penalty>
  0.1146

> <r_epik_Ionization_Penalty_Charging>
  0.1137

> <r_epik_Ionization_Penalty_Neutral>
  0.0009

> <r_epik_State_Penalty>
  0.1025

> <r_epik_Charging_Adjusted_Penalty>
0.216178771471169

> <i_epik_Tot_Q>
2

> <i_epik_Tot_abs_Q>
4

> <s_epik_Chemistry_Notes>
This compound has an imine and may undergo hydrolysis.

$$$$
