3qo2_ligand
                    3D
 Schrodinger Suite 2020-3.
226225  0  0  1  0            999 V2000
   39.4620   20.2870   -5.9610 N   0  3  0  0  0  0
   39.9210   20.1810   -4.5810 C   0  0  2  0  0  0
   41.1630   19.2920   -4.4420 C   0  0  0  0  0  0
   41.0870   18.1970   -3.8810 O   0  0  0  0  0  0
   38.7950   19.6630   -3.6910 C   0  0  0  0  0  0
   42.3060   19.7610   -4.9410 N   0  0  0  0  0  0
   42.4100   21.0550   -5.6110 C   0  0  2  0  0  0
   42.0870   20.9240   -7.1040 C   0  0  0  0  0  0
   41.2330   21.6400   -7.6380 O   0  0  0  0  0  0
   43.8050   21.6340   -5.4100 C   0  0  0  0  0  0
   42.7800   20.0030   -7.7680 N   0  0  0  0  0  0
   42.4970   19.6580   -9.1570 C   0  0  2  0  0  0
   41.6030   18.4180   -9.1940 C   0  0  0  0  0  0
   41.3800   17.7750   -8.1650 O   0  0  0  0  0  0
   43.8010   19.4150   -9.9510 C   0  0  2  0  0  0
   44.5680   20.6250   -9.9720 O   0  0  0  0  0  0
   43.5060   19.0000  -11.3820 C   0  0  0  0  0  0
   41.0760   18.0990  -10.3710 N   0  0  0  0  0  0
   40.1620   16.9800  -10.5150 C   0  0  2  0  0  0
   40.9500   15.6800  -10.4130 C   0  0  0  0  0  0
   41.8920   15.4640  -11.1720 O   0  0  0  0  0  0
   39.4280   17.0710  -11.8530 C   0  0  0  0  0  0
   38.8880   18.4630  -12.1600 C   0  0  0  0  0  0
   38.1290   19.0280  -10.9620 C   0  0  0  0  0  0
   38.6720   20.3950  -10.5220 C   0  0  0  0  0  0
   38.3440   21.4810  -11.4880 N   0  3  0  0  0  0
   40.5760   14.8280   -9.4600 N   0  0  0  0  0  0
   41.2690   13.5650   -9.2450 C   0  0  2  0  0  0
   40.5240   12.4310   -9.9440 C   0  0  0  0  0  0
   39.4730   11.9880   -9.4790 O   0  0  0  0  0  0
   41.3880   13.2770   -7.7480 C   0  0  0  0  0  0
   42.1480   14.3340   -6.9740 C   0  0  0  0  0  0
   43.5570   14.4950   -7.4800 C   0  0  0  0  0  0
   44.3220   13.5300   -7.5450 O   0  0  0  0  0  0
   43.9080   15.7160   -7.8640 N   0  0  0  0  0  0
   41.0630   11.9670  -11.0660 N   0  0  0  0  0  0
   40.4050   10.9190  -11.8430 C   0  0  2  0  0  0
   41.3290    9.7260  -12.1580 C   0  0  0  0  0  0
   42.5390    9.7970  -11.9620 O   0  0  0  0  0  0
   39.7490   11.4900  -13.1430 C   0  0  2  0  0  0
   40.7590   11.8320  -14.1000 O   0  0  0  0  0  0
   38.8900   12.7310  -12.8270 C   0  0  0  0  0  0
   40.7390    8.6390  -12.6500 N   0  0  0  0  0  0
   41.4290    7.3610  -12.7960 C   0  0  2  0  0  0
   40.5740    6.3890  -13.5900 C   0  0  0  0  0  0
   39.3410    6.4970  -13.5820 O   0  0  0  0  0  0
   41.7200    6.7720  -11.4190 C   0  0  0  0  0  0
   41.2160    5.4310  -14.2650 N   0  0  0  0  0  0
   40.5120    4.3960  -15.0090 C   0  0  2  0  0  0
   39.9480    3.3530  -14.0240 C   0  0  0  0  0  0
   40.6410    2.9340  -13.1140 O   0  0  0  0  0  0
   41.4880    3.7630  -16.0130 C   0  0  0  0  0  0
   40.8520    3.1890  -17.2810 C   0  0  0  0  0  0
   41.8950    3.0030  -18.3790 C   0  0  0  0  0  0
   42.4120    4.2820  -18.8640 N   0  0  0  0  0  0
   41.9740    4.8930  -19.9620 C   0  0  0  0  0  0
   41.0130    4.3420  -20.6880 N   0  0  0  0  0  0
   42.4990    6.0510  -20.3390 N   0  0  0  0  0  0
   38.7020    2.9390  -14.2040 N   0  0  0  0  0  0
   38.0990    1.9770  -13.3010 C   0  0  1  0  0  0
   36.7240    2.4890  -12.9020 C   0  0  0  0  0  0
   35.8630    1.3640  -12.2450 C   0  0  0  0  0  0
   34.8090    1.9250  -11.2990 C   0  0  0  0  0  0
   33.6230    2.4750  -12.0780 C   0  0  0  0  0  0
   32.5640    2.9810  -11.2240 N   0  3  0  0  0  0
   38.1170    0.5840  -13.9450 C   0  0  0  0  0  0
   37.7500    0.4320  -15.1230 O   0  0  0  0  0  0
   32.3240    2.0660  -10.1090 C   0  0  0  0  0  0
   31.3170    3.0610  -11.9580 C   0  0  0  0  0  0
   32.9160    4.2970  -10.7500 C   0  0  0  0  0  0
   38.5400   -0.4210  -13.1950 N   0  0  0  0  0  0
   38.6460   -1.7860  -13.7140 C   0  0  2  0  0  0
   37.3330   -2.5530  -13.6320 C   0  0  0  0  0  0
   36.6880   -2.5910  -12.5950 O   0  0  0  0  0  0
   39.7440   -2.5600  -12.9850 C   0  0  0  0  0  0
   41.0160   -2.0080  -13.2890 O   0  0  0  0  0  0
   36.9590   -3.1800  -14.7400 N   0  0  0  0  0  0
   35.7220   -3.9280  -14.8310 C   0  0  2  0  0  0
   35.9870   -5.4330  -14.9280 C   0  0  0  0  0  0
   35.0980   -6.2470  -14.6820 O   0  0  0  0  0  0
   34.8950   -3.4270  -16.0240 C   0  0  2  0  0  0
   35.7460   -3.3000  -17.1650 O   0  0  0  0  0  0
   34.3530   -2.0540  -15.7140 C   0  0  0  0  0  0
   37.2180   -5.8060  -15.2600 N   0  0  0  0  0  0
   37.5830   -7.2120  -15.3130 C   0  0  0  0  0  0
   38.3560   -7.6470  -14.0830 C   0  0  0  0  0  0
   38.3170   -6.9800  -13.0580 O   0  0  0  0  0  0
   39.0620   -8.7670  -14.1820 N   0  0  0  0  0  0
   39.8840   -9.2480  -13.0910 C   0  0  0  0  0  0
   40.0660  -10.7450  -13.1750 C   0  0  0  0  0  0
   39.3270  -11.4240  -13.8710 O   0  0  0  0  0  0
   41.0530  -11.2650  -12.4620 N   0  0  0  0  0  0
   41.3510  -12.6940  -12.4870 C   0  0  2  0  0  0
   40.0890  -13.5530  -12.4010 C   0  0  0  0  0  0
   39.2330  -13.3130  -11.5650 O   0  0  0  0  0  0
   42.2790  -13.0500  -11.3210 C   0  0  0  0  0  0
   41.6060  -12.9210   -9.9510 C   0  0  0  0  0  0
   42.4850  -13.4390   -8.8050 C   0  0  0  0  0  0
   41.9120  -13.0710   -7.4190 C   0  0  0  0  0  0
   40.5710  -13.6800   -7.1220 N   0  3  0  0  0  0
   39.9700  -14.5550  -13.2650 N   0  0  0  0  0  0
   38.9390  -15.5650  -13.0810 C   0  0  2  0  0  0
   39.4740  -16.6940  -12.2170 C   0  0  0  0  0  0
   39.0250  -16.8880  -11.0900 O   0  0  0  0  0  0
   38.4640  -16.1030  -14.3980 C   0  0  0  0  0  0
   40.3878  -17.4393  -12.6608 O   0  0  0  0  0  0
   40.2815   20.6610   -6.5923 H   0  0  0  0  0  0
   38.6123   20.9837   -6.0123 H   0  0  0  0  0  0
   39.1459   19.2962   -6.3194 H   0  0  0  0  0  0
   40.1923   21.2102   -4.3033 H   0  0  0  0  0  0
   37.9126   20.3104   -3.8019 H   0  0  0  0  0  0
   39.1248   19.6692   -2.6416 H   0  0  0  0  0  0
   38.5359   18.6360   -3.9879 H   0  0  0  0  0  0
   43.1972   19.1257   -4.8304 H   0  0  0  0  0  0
   41.6644   21.7066   -5.1319 H   0  0  0  0  0  0
   44.0151   21.7190   -4.3336 H   0  0  0  0  0  0
   43.8589   22.6299   -5.8739 H   0  0  0  0  0  0
   44.5480   20.9710   -5.8774 H   0  0  0  0  0  0
   43.5933   19.4944   -7.2297 H   0  0  0  0  0  0
   41.9693   20.5246   -9.5819 H   0  0  0  0  0  0
   44.4177   18.6457   -9.4633 H   0  0  0  0  0  0
   44.8850   21.0917   -9.0277 H   0  0  0  0  0  0
   42.9168   18.0711  -11.3803 H   0  0  0  0  0  0
   44.4521   18.8332  -11.9178 H   0  0  0  0  0  0
   42.9354   19.7952  -11.8841 H   0  0  0  0  0  0
   41.3466   18.7046  -11.2485 H   0  0  0  0  0  0
   39.4337   17.0477   -9.6934 H   0  0  0  0  0  0
   40.1153   16.7986  -12.6675 H   0  0  0  0  0  0
   38.5719   16.3803  -11.8493 H   0  0  0  0  0  0
   39.7244   19.1363  -12.3987 H   0  0  0  0  0  0
   38.2036   18.4095  -13.0195 H   0  0  0  0  0  0
   37.0680   19.1510  -11.2250 H   0  0  0  0  0  0
   38.2182   18.3358  -10.1118 H   0  0  0  0  0  0
   38.2368   20.6664   -9.5489 H   0  0  0  0  0  0
   39.7671   20.3429  -10.4322 H   0  0  0  0  0  0
   38.7561   22.4333  -11.1229 H   0  0  0  0  0  0
   37.2517   21.5675  -11.5855 H   0  0  0  0  0  0
   38.7820   21.2439  -12.4688 H   0  0  0  0  0  0
   39.7188   15.0998   -8.8265 H   0  0  0  0  0  0
   42.2690   13.6856   -9.6870 H   0  0  0  0  0  0
   40.3828   13.2121   -7.3061 H   0  0  0  0  0  0
   41.9163   12.3238   -7.5988 H   0  0  0  0  0  0
   41.6337   15.3014   -7.0726 H   0  0  0  0  0  0
   42.1934   14.0494   -5.9124 H   0  0  0  0  0  0
   43.1891   16.5449   -7.7863 H   0  0  0  0  0  0
   44.9178   15.8990   -8.2599 H   0  0  0  0  0  0
   42.0213   12.3854  -11.4075 H   0  0  0  0  0  0
   39.6331   10.5639  -11.1444 H   0  0  0  0  0  0
   39.1378   10.7236  -13.6421 H   0  0  0  0  0  0
   41.4697   11.0673  -14.4466 H   0  0  0  0  0  0
   38.1162   12.4639  -12.0922 H   0  0  0  0  0  0
   38.4110   13.0900  -13.7499 H   0  0  0  0  0  0
   39.5301   13.5243  -12.4136 H   0  0  0  0  0  0
   39.6856    8.7330  -12.9526 H   0  0  0  0  0  0
   42.3624    7.5716  -13.3386 H   0  0  0  0  0  0
   42.3393    7.4752  -10.8429 H   0  0  0  0  0  0
   42.2575    5.8192  -11.5339 H   0  0  0  0  0  0
   40.7730    6.5970  -10.8875 H   0  0  0  0  0  0
   42.3158    5.4425  -14.2452 H   0  0  0  0  0  0
   39.6809    4.8733  -15.5489 H   0  0  0  0  0  0
   42.2134    4.5198  -16.3461 H   0  0  0  0  0  0
   42.0217    2.9308  -15.5307 H   0  0  0  0  0  0
   40.3999    2.2121  -17.0545 H   0  0  0  0  0  0
   40.0749    3.8771  -17.6452 H   0  0  0  0  0  0
   42.7394    2.4170  -17.9871 H   0  0  0  0  0  0
   41.4422    2.4707  -19.2285 H   0  0  0  0  0  0
   43.2116    4.7971  -18.3115 H   0  0  0  0  0  0
   40.5734    3.3816  -20.3806 H   0  0  0  0  0  0
   43.2974    6.5138  -19.7404 H   0  0  0  0  0  0
   42.1361    6.5487  -21.2503 H   0  0  0  0  0  0
   38.1238    3.3349  -15.0519 H   0  0  0  0  0  0
   38.7018    1.9122  -12.3832 H   0  0  0  0  0  0
   36.8343    3.3103  -12.1786 H   0  0  0  0  0  0
   36.1958    2.8552  -13.7947 H   0  0  0  0  0  0
   35.3476    0.7911  -13.0300 H   0  0  0  0  0  0
   36.5159    0.6916  -11.6692 H   0  0  0  0  0  0
   34.4549    1.1269  -10.6299 H   0  0  0  0  0  0
   35.2481    2.7370  -10.7008 H   0  0  0  0  0  0
   33.9579    3.3039  -12.7189 H   0  0  0  0  0  0
   33.1938    1.6783  -12.7033 H   0  0  0  0  0  0
   32.0583    1.0729  -10.5003 H   0  0  0  0  0  0
   31.4987    2.4495   -9.4911 H   0  0  0  0  0  0
   33.2345    1.9873   -9.4968 H   0  0  0  0  0  0
   31.0416    2.0606  -12.3230 H   0  0  0  0  0  0
   31.4377    3.7428  -12.8127 H   0  0  0  0  0  0
   30.5252    3.4404  -11.2953 H   0  0  0  0  0  0
   33.8622    4.2446  -10.1914 H   0  0  0  0  0  0
   32.1208    4.6738  -10.0899 H   0  0  0  0  0  0
   33.0334    4.9762  -11.6073 H   0  0  0  0  0  0
   38.8162   -0.2061  -12.1521 H   0  0  0  0  0  0
   38.9020   -1.6457  -14.7746 H   0  0  0  0  0  0
   39.5755   -2.5008  -11.8996 H   0  0  0  0  0  0
   39.7229   -3.6130  -13.3024 H   0  0  0  0  0  0
   41.9244   -2.4440  -12.8479 H   0  0  0  0  0  0
   37.6285   -3.1163  -15.6104 H   0  0  0  0  0  0
   35.1915   -3.7268  -13.8886 H   0  0  0  0  0  0
   34.0917   -4.1335  -16.2800 H   0  0  0  0  0  0
   36.2555   -4.1857  -17.5725 H   0  0  0  0  0  0
   33.6904   -2.1106  -14.8378 H   0  0  0  0  0  0
   33.7858   -1.6798  -16.5790 H   0  0  0  0  0  0
   35.1875   -1.3703  -15.4991 H   0  0  0  0  0  0
   37.9655   -5.0344  -15.4966 H   0  0  0  0  0  0
   36.6721   -7.8250  -15.3798 H   0  0  0  0  0  0
   38.2132   -7.3942  -16.1960 H   0  0  0  0  0  0
   39.0111   -9.3335  -15.1235 H   0  0  0  0  0  0
   40.8726   -8.7678  -13.1374 H   0  0  0  0  0  0
   39.4020   -9.0030  -12.1331 H   0  0  0  0  0  0
   41.6559  -10.5883  -11.8387 H   0  0  0  0  0  0
   41.8335  -12.8574  -13.4619 H   0  0  0  0  0  0
   42.6183  -14.0910  -11.4271 H   0  0  0  0  0  0
   43.1499  -12.3781  -11.3272 H   0  0  0  0  0  0
   41.3823  -11.8628   -9.7506 H   0  0  0  0  0  0
   40.6712  -13.5008   -9.9456 H   0  0  0  0  0  0
   42.5574  -14.5350   -8.8650 H   0  0  0  0  0  0
   43.4903  -13.0001   -8.8868 H   0  0  0  0  0  0
   42.6019  -13.4144   -6.6341 H   0  0  0  0  0  0
   41.7919  -11.9798   -7.3498 H   0  0  0  0  0  0
   40.2400  -13.3673   -6.1207 H   0  0  0  0  0  0
   40.6507  -14.7766   -7.1560 H   0  0  0  0  0  0
   39.8406  -13.3420   -7.8718 H   0  0  0  0  0  0
   40.6557  -14.6189  -14.1228 H   0  0  0  0  0  0
   38.0962  -15.0575  -12.5889 H   0  0  0  0  0  0
   38.0793  -15.2770  -15.0142 H   0  0  0  0  0  0
   37.6626  -16.8368  -14.2268 H   0  0  0  0  0  0
   39.3017  -16.5897  -14.9189 H   0  0  0  0  0  0
   40.7794  -18.2586  -12.0400 H   0  0  0  0  0  0
  1  2  1  0  0  0
  1107  1  0  0  0
  1108  1  0  0  0
  1109  1  0  0  0
  2  3  1  0  0  0
  2  5  1  0  0  0
  2110  1  0  0  0
  3  4  2  0  0  0
  3  6  1  0  0  0
  5111  1  0  0  0
  5112  1  0  0  0
  5113  1  0  0  0
  6  7  1  0  0  0
  6114  1  0  0  0
  7  8  1  0  0  0
  7 10  1  0  0  0
  7115  1  0  0  0
  8  9  2  0  0  0
  8 11  1  0  0  0
 10116  1  0  0  0
 10117  1  0  0  0
 10118  1  0  0  0
 11 12  1  0  0  0
 11119  1  0  0  0
 12 13  1  0  0  0
 12 15  1  0  0  0
 12120  1  0  0  0
 13 14  2  0  0  0
 13 18  1  0  0  0
 15 16  1  0  0  0
 15 17  1  0  0  0
 15121  1  0  0  0
 16122  1  0  0  0
 17123  1  0  0  0
 17124  1  0  0  0
 17125  1  0  0  0
 18 19  1  0  0  0
 18126  1  0  0  0
 19 20  1  0  0  0
 19 22  1  0  0  0
 19127  1  0  0  0
 20 21  2  0  0  0
 20 27  1  0  0  0
 22 23  1  0  0  0
 22128  1  0  0  0
 22129  1  0  0  0
 23 24  1  0  0  0
 23130  1  0  0  0
 23131  1  0  0  0
 24 25  1  0  0  0
 24132  1  0  0  0
 24133  1  0  0  0
 25 26  1  0  0  0
 25134  1  0  0  0
 25135  1  0  0  0
 26136  1  0  0  0
 26137  1  0  0  0
 26138  1  0  0  0
 27 28  1  0  0  0
 27139  1  0  0  0
 28 29  1  0  0  0
 28 31  1  0  0  0
 28140  1  0  0  0
 29 30  2  0  0  0
 29 36  1  0  0  0
 31 32  1  0  0  0
 31141  1  0  0  0
 31142  1  0  0  0
 32 33  1  0  0  0
 32143  1  0  0  0
 32144  1  0  0  0
 33 34  2  0  0  0
 33 35  1  0  0  0
 35145  1  0  0  0
 35146  1  0  0  0
 36 37  1  0  0  0
 36147  1  0  0  0
 37 38  1  0  0  0
 37 40  1  0  0  0
 37148  1  0  0  0
 38 39  2  0  0  0
 38 43  1  0  0  0
 40 41  1  0  0  0
 40 42  1  0  0  0
 40149  1  0  0  0
 41150  1  0  0  0
 42151  1  0  0  0
 42152  1  0  0  0
 42153  1  0  0  0
 43 44  1  0  0  0
 43154  1  0  0  0
 44 45  1  0  0  0
 44 47  1  0  0  0
 44155  1  0  0  0
 45 46  2  0  0  0
 45 48  1  0  0  0
 47156  1  0  0  0
 47157  1  0  0  0
 47158  1  0  0  0
 48 49  1  0  0  0
 48159  1  0  0  0
 49 50  1  0  0  0
 49 52  1  0  0  0
 49160  1  0  0  0
 50 51  2  0  0  0
 50 59  1  0  0  0
 52 53  1  0  0  0
 52161  1  0  0  0
 52162  1  0  0  0
 53 54  1  0  0  0
 53163  1  0  0  0
 53164  1  0  0  0
 54 55  1  0  0  0
 54165  1  0  0  0
 54166  1  0  0  0
 55 56  1  0  0  0
 55167  1  0  0  0
 56 57  2  0  0  0
 56 58  1  0  0  0
 57168  1  0  0  0
 58169  1  0  0  0
 58170  1  0  0  0
 59 60  1  0  0  0
 59171  1  0  0  0
 60 61  1  0  0  0
 60 66  1  0  0  0
 60172  1  0  0  0
 61 62  1  0  0  0
 61173  1  0  0  0
 61174  1  0  0  0
 62 63  1  0  0  0
 62175  1  0  0  0
 62176  1  0  0  0
 63 64  1  0  0  0
 63177  1  0  0  0
 63178  1  0  0  0
 64 65  1  0  0  0
 64179  1  0  0  0
 64180  1  0  0  0
 65 68  1  0  0  0
 65 69  1  0  0  0
 65 70  1  0  0  0
 66 67  2  0  0  0
 66 71  1  0  0  0
 68181  1  0  0  0
 68182  1  0  0  0
 68183  1  0  0  0
 69184  1  0  0  0
 69185  1  0  0  0
 69186  1  0  0  0
 70187  1  0  0  0
 70188  1  0  0  0
 70189  1  0  0  0
 71 72  1  0  0  0
 71190  1  0  0  0
 72 73  1  0  0  0
 72 75  1  0  0  0
 72191  1  0  0  0
 73 74  2  0  0  0
 73 77  1  0  0  0
 75 76  1  0  0  0
 75192  1  0  0  0
 75193  1  0  0  0
 76194  1  0  0  0
 77 78  1  0  0  0
 77195  1  0  0  0
 78 79  1  0  0  0
 78 81  1  0  0  0
 78196  1  0  0  0
 79 80  2  0  0  0
 79 84  1  0  0  0
 81 82  1  0  0  0
 81 83  1  0  0  0
 81197  1  0  0  0
 82198  1  0  0  0
 83199  1  0  0  0
 83200  1  0  0  0
 83201  1  0  0  0
 84 85  1  0  0  0
 84202  1  0  0  0
 85 86  1  0  0  0
 85203  1  0  0  0
 85204  1  0  0  0
 86 87  2  0  0  0
 86 88  1  0  0  0
 88 89  1  0  0  0
 88205  1  0  0  0
 89 90  1  0  0  0
 89206  1  0  0  0
 89207  1  0  0  0
 90 91  2  0  0  0
 90 92  1  0  0  0
 92 93  1  0  0  0
 92208  1  0  0  0
 93 94  1  0  0  0
 93 96  1  0  0  0
 93209  1  0  0  0
 94 95  2  0  0  0
 94101  1  0  0  0
 96 97  1  0  0  0
 96210  1  0  0  0
 96211  1  0  0  0
 97 98  1  0  0  0
 97212  1  0  0  0
 97213  1  0  0  0
 98 99  1  0  0  0
 98214  1  0  0  0
 98215  1  0  0  0
 99100  1  0  0  0
 99216  1  0  0  0
 99217  1  0  0  0
100218  1  0  0  0
100219  1  0  0  0
100220  1  0  0  0
101102  1  0  0  0
101221  1  0  0  0
102103  1  0  0  0
102105  1  0  0  0
102222  1  0  0  0
103104  2  0  0  0
103106  1  0  0  0
105223  1  0  0  0
105224  1  0  0  0
105225  1  0  0  0
106226  1  0  0  0
M  CHG  4   1   1  26   1  65   1 100   1
M  END
> <s_m_source_file>
../3qo2_ligand.sdf

> <i_m_source_file_index>
1

> <s_epik_input>
W05IMytdW0NAQEhdKFtDSDNdKUMoPU8pW05IXVtDQEBIXShbQ0gzXSlDKD1PKVtOSF1bQ0BASF0oW0NASF0oW09IXSlbQ0gzXSlDKD1PKVtOSF1bQ0BASF0oW0NIMl1bQ0gyXVtDSDJdW0NIMl1bTkgzK10pQyg9TylbTkhdW0NAQEhdKFtDSDJdW0NIMl1DKD1PKVtOSDJdKUMoPU8pW05IXVtDQEBIXShbQ0BIXShbT0hdKVtDSDNdKUMoPU8pW05IXVtDQEBIXShbQ0gzXSlDKD1PKVtOSF1bQ0BASF0oW0NIMl1bQ0gyXVtDSDJdW05IXS9DKD1OXFtIXSlbTkgyXSlDKD1PKVtOSF1bQ0BASF0oW0NIMl1bQ0gyXVtDSDJdW0NIMl1bTitdKFtDSDNdKShbQ0gzXSlbQ0gzXSlDKD1PKVtOSF1bQ0BASF0oW0NIMl1bT0hdKUMoPU8pW05IXVtDQEBIXShbQ0BIXShbT0hdKVtDSDNdKUMoPU8pW05IXVtDSDJdQyg9TylbTkhdW0NIMl1DKD1PKVtOSF1bQ0BIXShDKD1PKVtOSF1bQ0BASF0oW0NIM10pQyg9TylbT0hdKVtDSDJdW0NIMl1bQ0gyXVtDSDJdW05IMytd

> <s_epik_cmdline>
J2VwaWtfYXBwJywgJy1pbWFlJywgJ2xpZ2FuZF9wcm8ubWFlJywgJy1vbWFlJywgJ2xpZ2FuZF9wcmVwLm1hZScsICctbXMnLCAnMScsICctcGgnLCAnNycsICctcGh0JywgJzAuNScsICctbnQn

> <s_epik_pKa_notes>
Molecule size exceeds maximum supported for generating protonation states

> <s_epik_Chemistry_Notes>
This compound has an imine and may undergo hydrolysis.

$$$$
