3qo3_ligand
                    3D
 Schrodinger Suite 2020-3.
 43 45  0  0  1  0            999 V2000
  -41.5660  -15.0600  -21.6770 P   0  0  0  0  0  0
  -42.6320  -16.1620  -21.5600 O   0  5  0  0  0  0
  -40.2720  -15.5530  -22.2790 O   0  5  0  0  0  0
  -42.0970  -13.7920  -22.3010 O   0  0  0  0  0  0
  -41.5790  -15.5960  -18.9640 P   0  0  1  0  0  0
  -43.0320  -15.3430  -18.6270 O   0  0  0  0  0  0
  -41.0840  -16.9770  -19.3430 O   0  5  0  0  0  0
  -41.1810  -14.6250  -20.1730 O   0  0  0  0  0  0
  -39.9800  -16.1070  -16.7890 P   0  0  1  0  0  0
  -39.8680  -15.4670  -15.4090 O   0  0  0  0  0  0
  -40.6630  -17.4810  -16.9280 O   0  5  0  0  0  0
  -40.6910  -15.0360  -17.7530 O   0  0  0  0  0  0
  -38.4850  -16.2400  -17.4120 O   0  0  0  0  0  0
  -38.1610  -15.7850  -18.7440 C   0  0  0  0  0  0
  -37.1700  -14.6290  -18.6670 C   0  0  1  0  0  0
  -37.6680  -13.4960  -19.3900 O   0  0  0  0  0  0
  -36.9470  -14.1850  -17.2300 C   0  0  1  0  0  0
  -35.5400  -14.1920  -16.9490 O   0  0  0  0  0  0
  -37.5060  -12.7780  -17.1610 C   0  0  1  0  0  0
  -36.6710  -11.9180  -16.3820 O   0  0  0  0  0  0
  -37.5680  -12.3080  -18.6060 C   0  0  2  0  0  0
  -38.7640  -11.4580  -18.8130 N   0  0  0  0  0  0
  -40.0270  -11.8090  -18.5050 C   0  0  0  0  0  0
  -40.9010  -10.8190  -18.8060 N   0  0  0  0  0  0
  -40.1900   -9.8030  -19.3230 C   0  0  0  0  0  0
  -40.5020   -8.4540  -19.8480 C   0  0  0  0  0  0
  -41.7800   -7.9980  -19.8760 N   0  0  0  0  0  0
  -39.4710   -7.7000  -20.2970 N   0  0  0  0  0  0
  -38.2010   -8.1470  -20.2710 C   0  0  0  0  0  0
  -37.8450   -9.3630  -19.8080 N   0  0  0  0  0  0
  -38.7780  -10.2250  -19.3280 C   0  0  0  0  0  0
  -37.7126  -16.6115  -19.3148 H   0  0  0  0  0  0
  -39.0776  -15.4457  -19.2487 H   0  0  0  0  0  0
  -36.2281  -14.9422  -19.1409 H   0  0  0  0  0  0
  -37.3830  -14.8519  -16.4717 H   0  0  0  0  0  0
  -34.9818  -15.1398  -16.9591 H   0  0  0  0  0  0
  -38.4679  -12.7224  -16.6302 H   0  0  0  0  0  0
  -36.5199  -12.1202  -15.3114 H   0  0  0  0  0  0
  -36.6884  -11.7321  -18.9296 H   0  0  0  0  0  0
  -40.3098  -12.7672  -18.0692 H   0  0  0  0  0  0
  -42.5985   -8.6321  -19.5046 H   0  0  0  0  0  0
  -41.9973   -6.9943  -20.2701 H   0  0  0  0  0  0
  -37.4165   -7.4892  -20.6451 H   0  0  0  0  0  0
  1  2  1  0  0  0
  1  3  1  0  0  0
  1  4  2  0  0  0
  1  8  1  0  0  0
  5  6  2  0  0  0
  5  7  1  0  0  0
  5  8  1  0  0  0
  5 12  1  0  0  0
  9 10  2  0  0  0
  9 11  1  0  0  0
  9 12  1  0  0  0
  9 13  1  0  0  0
 13 14  1  0  0  0
 14 15  1  0  0  0
 14 32  1  0  0  0
 14 33  1  0  0  0
 15 16  1  0  0  0
 15 17  1  0  0  0
 15 34  1  0  0  0
 16 21  1  0  0  0
 17 18  1  0  0  0
 17 19  1  0  0  0
 17 35  1  0  0  0
 18 36  1  0  0  0
 19 20  1  0  0  0
 19 21  1  0  0  0
 19 37  1  0  0  0
 20 38  1  0  0  0
 21 22  1  0  0  0
 21 39  1  0  0  0
 22 23  1  0  0  0
 22 31  1  0  0  0
 23 24  2  0  0  0
 23 40  1  0  0  0
 24 25  1  0  0  0
 25 26  2  0  0  0
 25 31  1  0  0  0
 26 27  1  0  0  0
 26 28  1  0  0  0
 27 41  1  0  0  0
 27 42  1  0  0  0
 28 29  2  0  0  0
 29 30  1  0  0  0
 29 43  1  0  0  0
 30 31  2  0  0  0
M  CHG  4   2  -1   3  -1   7  -1  11  -1
M  END
> <s_m_source_file>
../3qo3_ligand.sdf

> <i_m_source_file_index>
1

> <s_epik_input>
W09IXVAoPU8pKFtPSF0pT1tQQEBdKD1PKShbT0hdKU9bUEBAXSg9TykoW09IXSlPW0NIMl1bQ0BIXTFPW0NASF0oW0NASF0oW09IXSlbQ0BASF0xW09IXSluKFtjSF1uMiljKGMyMyluW2NIXW5jM1tOSDJd

> <s_epik_cmdline>
J2VwaWtfYXBwJywgJy1pbWFlJywgJ2xpZ2FuZF9wcm8ubWFlJywgJy1vbWFlJywgJ2xpZ2FuZF9wcmVwLm1hZScsICctbXMnLCAnMScsICctcGgnLCAnNycsICctcGh0JywgJzAuNScsICctbnQn

> <r_lp_tautomer_probability>
0.999997216410988

> <r_epik_Ionization_Penalty>
  0.0818

> <r_epik_Ionization_Penalty_Charging>
  0.0813

> <r_epik_Ionization_Penalty_Neutral>
  0.0004

> <r_epik_State_Penalty>
  0.0708

> <r_epik_Charging_Adjusted_Penalty>
0.152157994418768

> <i_epik_Tot_Q>
-4

> <i_epik_Tot_abs_Q>
4

> <s_epik_Chemistry_Notes>
This compound contains an acetal/aminal-like group ( X-CH(R)-Y where X, Y are N, S, or O) that may be acid/base labile, releasing an aldehyde.

$$$$
