3qo9_ligand
                    3D
 Schrodinger Suite 2020-3.
 81 83  0  0  1  0            999 V2000
   46.8950  -30.8140   41.9960 C   0  0  0  0  0  0
   47.9920  -31.6330   41.8070 N   0  0  0  0  0  0
   45.9050  -31.2230   42.8290 O   0  0  0  0  0  0
   53.2030  -29.2090   36.3860 S   0  0  0  0  0  0
   46.8030  -29.5720   41.3130 C   0  0  0  0  0  0
   49.0060  -30.0530   40.3050 N   0  0  0  0  0  0
   50.0890  -32.1120   40.8640 O   0  0  0  0  0  0
   47.9010  -29.2210   40.4780 C   0  0  0  0  0  0
   50.7710  -28.4880   40.0020 O   0  0  0  0  0  0
   49.0400  -31.2710   40.9920 C   0  0  0  0  0  0
   52.3280  -29.3920   37.7470 O   0  0  0  0  0  0
   45.7150  -28.7370   41.4820 C   0  0  0  0  0  0
   50.0250  -30.5430   37.1850 O   0  0  0  0  0  0
   50.1800  -29.6530   39.4480 C   0  0  2  0  0  0
   49.5040  -26.3140   40.1590 O   0  0  0  0  0  0
   51.1470  -27.6230   38.9500 C   0  0  1  0  0  0
   54.5810  -28.6830   36.6830 O   0  0  0  0  0  0
   51.1750  -28.5040   37.6950 C   0  0  2  0  0  0
   53.3370  -30.4900   35.5890 O   0  0  0  0  0  0
   49.9190  -29.3490   37.9390 C   0  0  1  0  0  0
   50.1360  -26.4360   38.9180 C   0  0  0  0  0  0
   51.1970  -27.7110   36.3750 C   0  0  0  0  0  0
   52.3410  -28.0660   35.5660 C   0  0  0  0  0  0
   48.8750  -32.7670   35.8170 C   0  0  0  0  0  0
   47.0820  -30.5930   37.1000 C   0  0  0  0  0  0
   48.7420  -29.9140   34.6440 C   0  0  0  0  0  0
   47.6430  -33.2420   35.0420 C   0  0  0  0  0  0
   50.1370  -32.9840   34.9570 C   0  0  0  0  0  0
   49.0070  -33.5810   37.1240 C   0  0  0  0  0  0
   48.3750  -23.5990   39.8710 C   0  0  0  0  0  0
   46.8200  -26.0880   38.8940 C   0  0  0  0  0  0
   47.3410  -25.7180   41.8360 C   0  0  0  0  0  0
   47.0980  -22.8350   40.2580 C   0  0  0  0  0  0
   49.5310  -23.1170   40.7820 C   0  0  0  0  0  0
   48.7200  -23.3110   38.4010 C   0  0  0  0  0  0
   48.7160  -30.9080   36.2280 Si  0  0  0  0  0  0
   48.0820  -25.4650   40.1410 Si  0  0  0  0  0  0
   50.2520  -26.7490   35.9600 N   0  0  0  0  0  0
   48.0454  -32.6069   42.3156 H   0  0  0  0  0  0
   47.8769  -28.2655   39.9540 H   0  0  0  0  0  0
   44.9933  -29.2088   42.1650 H   0  0  0  0  0  0
   45.2354  -28.5581   40.5084 H   0  0  0  0  0  0
   46.0502  -27.7795   41.9071 H   0  0  0  0  0  0
   50.8599  -30.5141   39.5269 H   0  0  0  0  0  0
   52.1515  -27.2098   39.1237 H   0  0  0  0  0  0
   48.9394  -28.9549   37.6306 H   0  0  0  0  0  0
   49.3819  -26.6233   38.1394 H   0  0  0  0  0  0
   50.6765  -25.5058   38.6888 H   0  0  0  0  0  0
   52.4955  -27.5830   34.5898 H   0  0  0  0  0  0
   47.0484  -31.1704   38.0356 H   0  0  0  0  0  0
   46.2525  -30.9033   36.4476 H   0  0  0  0  0  0
   46.9884  -29.5208   37.3273 H   0  0  0  0  0  0
   49.6930  -30.0861   34.1187 H   0  0  0  0  0  0
   48.6421  -28.8444   34.8807 H   0  0  0  0  0  0
   47.9061  -30.2269   34.0010 H   0  0  0  0  0  0
   47.7454  -34.3126   34.8110 H   0  0  0  0  0  0
   47.5565  -32.6715   34.1055 H   0  0  0  0  0  0
   46.7420  -33.0832   35.6527 H   0  0  0  0  0  0
   50.2367  -34.0525   34.7153 H   0  0  0  0  0  0
   51.0236  -32.6502   35.5161 H   0  0  0  0  0  0
   50.0506  -32.4040   34.0263 H   0  0  0  0  0  0
   49.0982  -34.6502   36.8824 H   0  0  0  0  0  0
   48.1150  -33.4208   37.7474 H   0  0  0  0  0  0
   49.9017  -33.2514   37.6725 H   0  0  0  0  0  0
   47.2156  -25.9582   37.8759 H   0  0  0  0  0  0
   45.8864  -25.5161   39.0003 H   0  0  0  0  0  0
   46.6198  -27.1541   39.0764 H   0  0  0  0  0  0
   48.0481  -25.3658   42.6015 H   0  0  0  0  0  0
   47.1359  -26.7876   41.9906 H   0  0  0  0  0  0
   46.4025  -25.1496   41.9144 H   0  0  0  0  0  0
   47.2555  -21.7570   40.1062 H   0  0  0  0  0  0
   46.8628  -23.0259   41.3155 H   0  0  0  0  0  0
   46.2622  -23.1756   39.6292 H   0  0  0  0  0  0
   49.6978  -22.0412   40.6244 H   0  0  0  0  0  0
   50.4486  -23.6706   40.5338 H   0  0  0  0  0  0
   49.2676  -23.2969   41.8347 H   0  0  0  0  0  0
   48.8847  -22.2316   38.2677 H   0  0  0  0  0  0
   47.8888  -23.6372   37.7586 H   0  0  0  0  0  0
   49.6334  -23.8581   38.1248 H   0  0  0  0  0  0
   49.3944  -26.5066   36.6048 H   0  0  0  0  0  0
   50.3728  -26.2414   34.9916 H   0  0  0  0  0  0
  1  2  1  0  0  0
  1  3  2  0  0  0
  1  5  1  0  0  0
  2 10  1  0  0  0
  2 39  1  0  0  0
  4 11  1  0  0  0
  4 17  2  0  0  0
  4 19  2  0  0  0
  4 23  1  0  0  0
  5  8  2  0  0  0
  5 12  1  0  0  0
  6  8  1  0  0  0
  6 10  1  0  0  0
  6 14  1  0  0  0
  7 10  2  0  0  0
  8 40  1  0  0  0
  9 14  1  0  0  0
  9 16  1  0  0  0
 11 18  1  0  0  0
 12 41  1  0  0  0
 12 42  1  0  0  0
 12 43  1  0  0  0
 13 20  1  0  0  0
 13 36  1  0  0  0
 14 20  1  0  0  0
 14 44  1  0  0  0
 15 21  1  0  0  0
 15 37  1  0  0  0
 16 18  1  0  0  0
 16 21  1  0  0  0
 16 45  1  0  0  0
 18 20  1  0  0  0
 18 22  1  0  0  0
 20 46  1  0  0  0
 21 47  1  0  0  0
 21 48  1  0  0  0
 22 23  2  0  0  0
 22 38  1  0  0  0
 23 49  1  0  0  0
 24 27  1  0  0  0
 24 28  1  0  0  0
 24 29  1  0  0  0
 24 36  1  0  0  0
 25 36  1  0  0  0
 25 50  1  0  0  0
 25 51  1  0  0  0
 25 52  1  0  0  0
 26 36  1  0  0  0
 26 53  1  0  0  0
 26 54  1  0  0  0
 26 55  1  0  0  0
 27 56  1  0  0  0
 27 57  1  0  0  0
 27 58  1  0  0  0
 28 59  1  0  0  0
 28 60  1  0  0  0
 28 61  1  0  0  0
 29 62  1  0  0  0
 29 63  1  0  0  0
 29 64  1  0  0  0
 30 33  1  0  0  0
 30 34  1  0  0  0
 30 35  1  0  0  0
 30 37  1  0  0  0
 31 37  1  0  0  0
 31 65  1  0  0  0
 31 66  1  0  0  0
 31 67  1  0  0  0
 32 37  1  0  0  0
 32 68  1  0  0  0
 32 69  1  0  0  0
 32 70  1  0  0  0
 33 71  1  0  0  0
 33 72  1  0  0  0
 33 73  1  0  0  0
 34 74  1  0  0  0
 34 75  1  0  0  0
 34 76  1  0  0  0
 35 77  1  0  0  0
 35 78  1  0  0  0
 35 79  1  0  0  0
 38 80  1  0  0  0
 38 81  1  0  0  0
M  END
> <s_m_source_file>
../3qo9_ligand.sdf

> <i_m_source_file_index>
1

> <s_epik_input>
Tz1jMVtuSF1jKD1PKW4oW2NIXWMxW0NIM10pW0NAQEhdKFtDQEBIXTJPW1NpXShbQ0gzXSkoW0NIM10pQyhbQ0gzXSkoW0NIM10pW0NIM10pT1tDQEhdKFtDSDJdT1tTaV0oW0NIM10pKFtDSDNdKUMoW0NIM10pKFtDSDNdKVtDSDNdKVtDQEBdMjNPUyg9TykoPU8pW0NIXT1DM1tOSDJd

> <s_epik_cmdline>
J2VwaWtfYXBwJywgJy1pbWFlJywgJ2xpZ2FuZF9wcm8ubWFlJywgJy1vbWFlJywgJ2xpZ2FuZF9wcmVwLm1hZScsICctbXMnLCAnMScsICctcGgnLCAnNycsICctcGh0JywgJzAuNScsICctbnQn

> <r_lp_tautomer_probability>
1

> <r_epik_Ionization_Penalty>
  0.0014

> <r_epik_Ionization_Penalty_Charging>
  0.0014

> <r_epik_Ionization_Penalty_Neutral>
  0.0000

> <r_epik_State_Penalty>
 -0.0000

> <r_epik_Charging_Adjusted_Penalty>
0.00137548881871508

> <i_epik_Tot_Q>
0

> <i_epik_Tot_abs_Q>
0

> <s_epik_Chemistry_Notes>
This compound contains an acetal/aminal-like group ( X-CH(R)-Y where X, Y are N, S, or O) that may be acid/base labile, releasing an aldehyde.

$$$$
