3qpo_ligand
                    3D
 Schrodinger Suite 2020-3.
 61 65  0  0  1  0            999 V2000
   13.1690   16.4320   42.1420 C   0  0  0  0  0  0
   12.4320   17.3330   41.3490 C   0  0  0  0  0  0
   11.9290   18.4820   41.9120 C   0  0  0  0  0  0
   13.3120   16.6670   43.5110 C   0  0  0  0  0  0
   12.7880   17.8270   44.0910 C   0  0  0  0  0  0
   12.0820   18.7650   43.2950 C   0  0  0  0  0  0
   11.5600   19.9440   43.9330 C   0  0  0  0  0  0
   11.7470   20.0680   45.2400 N   0  0  0  0  0  0
   12.4120   19.1520   45.9350 C   0  0  0  0  0  0
   12.9200   18.0700   45.3980 N   0  0  0  0  0  0
   13.6280   15.2960   41.4970 O   0  0  0  0  0  0
   12.3290   17.0530   39.9930 O   0  0  0  0  0  0
   14.8030   14.7260   42.0350 C   0  0  0  0  0  0
   10.8840   20.9220   43.2030 N   0  0  0  0  0  0
   10.1170   21.9150   43.9790 C   0  0  0  0  0  0
    9.3490   22.9130   43.0750 C   0  0  0  0  0  0
   10.0930   23.3570   41.7820 C   0  0  0  0  0  0
   11.0560   22.2560   41.2570 C   0  0  2  0  0  0
   11.8680   21.6710   42.4040 C   0  0  0  0  0  0
   11.9380   22.7210   40.1130 C   0  0  0  0  0  0
   11.9250   21.9650   38.9460 C   0  0  0  0  0  0
   12.6800   22.3590   37.8800 C   0  0  0  0  0  0
   13.4520   23.5150   37.9570 C   0  0  0  0  0  0
   13.4720   24.2740   39.0980 C   0  0  0  0  0  0
   12.7050   23.8780   40.1860 C   0  0  0  0  0  0
   11.0080   17.0670   39.4450 C   0  0  0  0  0  0
   11.1970   17.9070   38.2010 C   0  0  0  0  0  0
   10.0260   18.0390   37.2730 C   0  0  0  0  0  0
    9.3800   16.9720   36.8700 N   0  0  0  0  0  0
    8.3490   17.0350   36.0360 C   0  0  0  0  0  0
    7.8830   18.2390   35.5140 C   0  0  0  0  0  0
    8.5740   19.3990   35.9240 C   0  0  0  0  0  0
    9.6570   19.2870   36.8000 C   0  0  0  0  0  0
   11.3988   19.1945   41.2801 H   0  0  0  0  0  0
   13.8360   15.9409   44.1325 H   0  0  0  0  0  0
   12.5417   19.3082   47.0059 H   0  0  0  0  0  0
   15.0784   13.8349   41.4519 H   0  0  0  0  0  0
   14.6250   14.4386   43.0818 H   0  0  0  0  0  0
   15.6205   15.4606   41.9903 H   0  0  0  0  0  0
    9.3812   21.3970   44.6117 H   0  0  0  0  0  0
   10.8037   22.4939   44.6141 H   0  0  0  0  0  0
    8.4030   22.4575   42.7471 H   0  0  0  0  0  0
    9.1366   23.8319   43.6411 H   0  0  0  0  0  0
    9.3584   23.5754   40.9929 H   0  0  0  0  0  0
   10.6854   24.2599   41.9915 H   0  0  0  0  0  0
   10.4525   21.4462   40.8211 H   0  0  0  0  0  0
   12.3252   22.4546   43.0260 H   0  0  0  0  0  0
   12.6493   20.9841   42.0466 H   0  0  0  0  0  0
   11.3156   21.0635   38.8832 H   0  0  0  0  0  0
   12.6787   21.7667   36.9650 H   0  0  0  0  0  0
   14.0489   23.8207   37.0977 H   0  0  0  0  0  0
   14.0815   25.1761   39.1508 H   0  0  0  0  0  0
   12.7045   24.4750   41.0980 H   0  0  0  0  0  0
   10.6906   16.0366   39.2268 H   0  0  0  0  0  0
   10.3149   17.5183   40.1702 H   0  0  0  0  0  0
   11.4580   18.9359   38.4895 H   0  0  0  0  0  0
   12.0066   17.4809   37.5903 H   0  0  0  0  0  0
    7.8487   16.1100   35.7492 H   0  0  0  0  0  0
    7.0355   18.2827   34.8299 H   0  0  0  0  0  0
    8.2643   20.3783   35.5590 H   0  0  0  0  0  0
   10.2074   20.1757   37.1088 H   0  0  0  0  0  0
  1  2  2  0  0  0
  1  4  1  0  0  0
  1 11  1  0  0  0
  2  3  1  0  0  0
  2 12  1  0  0  0
  3  6  2  0  0  0
  3 34  1  0  0  0
  4  5  2  0  0  0
  4 35  1  0  0  0
  5  6  1  0  0  0
  5 10  1  0  0  0
  6  7  1  0  0  0
  7  8  2  0  0  0
  7 14  1  0  0  0
  8  9  1  0  0  0
  9 10  2  0  0  0
  9 36  1  0  0  0
 11 13  1  0  0  0
 12 26  1  0  0  0
 13 37  1  0  0  0
 13 38  1  0  0  0
 13 39  1  0  0  0
 14 15  1  0  0  0
 14 19  1  0  0  0
 15 16  1  0  0  0
 15 40  1  0  0  0
 15 41  1  0  0  0
 16 17  1  0  0  0
 16 42  1  0  0  0
 16 43  1  0  0  0
 17 18  1  0  0  0
 17 44  1  0  0  0
 17 45  1  0  0  0
 18 19  1  0  0  0
 18 20  1  0  0  0
 18 46  1  0  0  0
 19 47  1  0  0  0
 19 48  1  0  0  0
 20 21  2  0  0  0
 20 25  1  0  0  0
 21 22  1  0  0  0
 21 49  1  0  0  0
 22 23  2  0  0  0
 22 50  1  0  0  0
 23 24  1  0  0  0
 23 51  1  0  0  0
 24 25  2  0  0  0
 24 52  1  0  0  0
 25 53  1  0  0  0
 26 27  1  0  0  0
 26 54  1  0  0  0
 26 55  1  0  0  0
 27 28  1  0  0  0
 27 56  1  0  0  0
 27 57  1  0  0  0
 28 29  2  0  0  0
 28 33  1  0  0  0
 29 30  1  0  0  0
 30 31  2  0  0  0
 30 58  1  0  0  0
 31 32  1  0  0  0
 31 59  1  0  0  0
 32 33  2  0  0  0
 32 60  1  0  0  0
 33 61  1  0  0  0
M  END
> <s_m_source_file>
../3qpo_ligand.sdf

> <i_m_source_file_index>
1

> <s_epik_input>
W2NIXTFbY0hdW2NIXVtjSF1uYzFbQ0gyXVtDSDJdT2MoYyhbY0hdMilPW0NIM10pW2NIXWMoYzIzKWMobltjSF1uMylONFtDSDJdW0NIMl1bQ0gyXVtDQEhdKFtDSDJdNCljNVtjSF1bY0hdW2NIXVtjSF1bY0hdNQ==

> <s_epik_cmdline>
J2VwaWtfYXBwJywgJy1pbWFlJywgJ2xpZ2FuZF9wcm8ubWFlJywgJy1vbWFlJywgJ2xpZ2FuZF9wcmVwLm1hZScsICctbXMnLCAnMScsICctcGgnLCAnNycsICctcGh0JywgJzAuNScsICctbnQn

> <r_lp_tautomer_probability>
1

> <r_epik_Ionization_Penalty>
  0.1137

> <r_epik_Ionization_Penalty_Charging>
  0.0000

> <r_epik_Ionization_Penalty_Neutral>
  0.1137

> <r_epik_State_Penalty>
 -0.0000

> <r_epik_Charging_Adjusted_Penalty>
0

> <i_epik_Tot_Q>
0

> <i_epik_Tot_abs_Q>
0

$$$$
