3qpp_ligand
                    3D
 Schrodinger Suite 2020-3.
 67 72  0  0  1  0            999 V2000
   13.3440   16.3370   43.1300 C   0  0  0  0  0  0
   12.5170   17.2500   42.4480 C   0  0  0  0  0  0
   11.9910   18.3470   43.0870 C   0  0  0  0  0  0
   13.6090   16.5220   44.4870 C   0  0  0  0  0  0
   13.0600   17.6450   45.1520 C   0  0  0  0  0  0
   12.2500   18.5890   44.4550 C   0  0  0  0  0  0
   11.7260   19.7290   45.1680 C   0  0  0  0  0  0
   12.0130   19.8130   46.4680 N   0  0  0  0  0  0
   12.7880   18.9180   47.0730 C   0  0  0  0  0  0
   13.2930   17.8720   46.4570 N   0  0  0  0  0  0
   10.9600   20.7050   44.5330 N   0  0  0  0  0  0
   10.4520   21.7460   45.4610 C   0  0  0  0  0  0
    9.6970   22.8710   44.7100 C   0  0  0  0  0  0
   10.5130   23.4610   43.5380 C   0  0  0  0  0  0
   11.1370   22.3210   42.6890 C   0  0  2  0  0  0
   11.9090   21.4080   43.6400 C   0  0  0  0  0  0
   11.9990   22.7890   41.5220 C   0  0  0  0  0  0
   12.0320   22.0340   40.3500 C   0  0  0  0  0  0
   12.7970   22.4470   39.2680 C   0  0  0  0  0  0
   13.5470   23.6150   39.3470 C   0  0  0  0  0  0
   13.5180   24.3780   40.5030 C   0  0  0  0  0  0
   12.7550   23.9670   41.5930 C   0  0  0  0  0  0
   13.8080   15.2720   42.4170 O   0  0  0  0  0  0
   12.2970   17.0210   41.1120 O   0  0  0  0  0  0
   15.0430   14.7340   42.9090 C   0  0  0  0  0  0
   10.9870   17.3770   40.6780 C   0  0  0  0  0  0
   11.2640   17.8040   39.2400 C   0  0  0  0  0  0
   10.0790   18.0490   38.3350 C   0  0  0  0  0  0
    9.3810   17.0310   37.9040 N   0  0  0  0  0  0
    8.7350   19.5860   37.0920 C   0  0  0  0  0  0
    9.7850   19.3510   37.9440 C   0  0  0  0  0  0
    7.9690   18.4810   36.6440 C   0  0  0  0  0  0
    8.3280   17.1780   37.0990 C   0  0  0  0  0  0
    7.5920   16.0560   36.6790 C   0  0  0  0  0  0
    6.5460   16.2320   35.8270 C   0  0  0  0  0  0
    6.1710   17.5100   35.3820 C   0  0  0  0  0  0
    6.8640   18.6290   35.7720 C   0  0  0  0  0  0
   11.3635   19.0422   42.5293 H   0  0  0  0  0  0
   14.2315   15.8102   45.0292 H   0  0  0  0  0  0
   13.0155   19.0581   48.1298 H   0  0  0  0  0  0
    9.7588   21.2879   46.1819 H   0  0  0  0  0  0
   11.2962   22.1991   46.0013 H   0  0  0  0  0  0
    8.7586   22.4712   44.2982 H   0  0  0  0  0  0
    9.4713   23.6905   45.4082 H   0  0  0  0  0  0
    9.8523   24.0648   42.8986 H   0  0  0  0  0  0
   11.3190   24.0956   43.9352 H   0  0  0  0  0  0
   10.3318   21.7669   42.1844 H   0  0  0  0  0  0
   12.6023   22.0117   44.2441 H   0  0  0  0  0  0
   12.4786   20.6699   43.0563 H   0  0  0  0  0  0
   11.4529   21.1130   40.2832 H   0  0  0  0  0  0
   12.8098   21.8538   38.3536 H   0  0  0  0  0  0
   14.1571   23.9300   38.5004 H   0  0  0  0  0  0
   14.0936   25.3019   40.5594 H   0  0  0  0  0  0
   12.7457   24.5638   42.5050 H   0  0  0  0  0  0
   15.3475   13.8827   42.2825 H   0  0  0  0  0  0
   14.9079   14.3956   43.9469 H   0  0  0  0  0  0
   15.8208   15.5111   42.8750 H   0  0  0  0  0  0
   10.3244   16.5025   40.7568 H   0  0  0  0  0  0
   10.5992   18.1891   41.3106 H   0  0  0  0  0  0
   11.8254   18.7500   39.2401 H   0  0  0  0  0  0
   11.8555   17.0267   38.7341 H   0  0  0  0  0  0
    8.4959   20.5987   36.7675 H   0  0  0  0  0  0
   10.3864   20.1818   38.3130 H   0  0  0  0  0  0
    7.8559   15.0588   37.0312 H   0  0  0  0  0  0
    5.9869   15.3621   35.4823 H   0  0  0  0  0  0
    5.3150   17.6153   34.7155 H   0  0  0  0  0  0
    6.5680   19.6157   35.4158 H   0  0  0  0  0  0
  1  2  2  0  0  0
  1  4  1  0  0  0
  1 23  1  0  0  0
  2  3  1  0  0  0
  2 24  1  0  0  0
  3  6  2  0  0  0
  3 38  1  0  0  0
  4  5  2  0  0  0
  4 39  1  0  0  0
  5  6  1  0  0  0
  5 10  1  0  0  0
  6  7  1  0  0  0
  7  8  2  0  0  0
  7 11  1  0  0  0
  8  9  1  0  0  0
  9 10  2  0  0  0
  9 40  1  0  0  0
 11 12  1  0  0  0
 11 16  1  0  0  0
 12 13  1  0  0  0
 12 41  1  0  0  0
 12 42  1  0  0  0
 13 14  1  0  0  0
 13 43  1  0  0  0
 13 44  1  0  0  0
 14 15  1  0  0  0
 14 45  1  0  0  0
 14 46  1  0  0  0
 15 16  1  0  0  0
 15 17  1  0  0  0
 15 47  1  0  0  0
 16 48  1  0  0  0
 16 49  1  0  0  0
 17 18  2  0  0  0
 17 22  1  0  0  0
 18 19  1  0  0  0
 18 50  1  0  0  0
 19 20  2  0  0  0
 19 51  1  0  0  0
 20 21  1  0  0  0
 20 52  1  0  0  0
 21 22  2  0  0  0
 21 53  1  0  0  0
 22 54  1  0  0  0
 23 25  1  0  0  0
 24 26  1  0  0  0
 25 55  1  0  0  0
 25 56  1  0  0  0
 25 57  1  0  0  0
 26 27  1  0  0  0
 26 58  1  0  0  0
 26 59  1  0  0  0
 27 28  1  0  0  0
 27 60  1  0  0  0
 27 61  1  0  0  0
 28 29  2  0  0  0
 28 31  1  0  0  0
 29 33  1  0  0  0
 30 31  2  0  0  0
 30 32  1  0  0  0
 30 62  1  0  0  0
 31 63  1  0  0  0
 32 33  2  0  0  0
 32 37  1  0  0  0
 33 34  1  0  0  0
 34 35  2  0  0  0
 34 64  1  0  0  0
 35 36  1  0  0  0
 35 65  1  0  0  0
 36 37  2  0  0  0
 36 66  1  0  0  0
 37 67  1  0  0  0
M  END
> <s_m_source_file>
../3qpp_ligand.sdf

> <i_m_source_file_index>
1

> <s_epik_input>
W2NIXTFbY0hdW2NIXVtjSF1jKGMxMiluYyhbY0hdW2NIXTIpW0NIMl1bQ0gyXU9jKGMoW2NIXTMpT1tDSDNdKVtjSF1jKGMzNCljKG5bY0hdbjQpTjVbQ0gyXVtDSDJdW0NIMl1bQ0BIXShbQ0gyXTUpYzZbY0hdW2NIXVtjSF1bY0hdW2NIXTY=

> <s_epik_cmdline>
J2VwaWtfYXBwJywgJy1pbWFlJywgJ2xpZ2FuZF9wcm8ubWFlJywgJy1vbWFlJywgJ2xpZ2FuZF9wcmVwLm1hZScsICctbXMnLCAnMScsICctcGgnLCAnNycsICctcGh0JywgJzAuNScsICctbnQn

> <r_lp_tautomer_probability>
1

> <r_epik_Ionization_Penalty>
  0.1245

> <r_epik_Ionization_Penalty_Charging>
  0.0000

> <r_epik_Ionization_Penalty_Neutral>
  0.1245

> <r_epik_State_Penalty>
 -0.0000

> <r_epik_Charging_Adjusted_Penalty>
0

> <i_epik_Tot_Q>
0

> <i_epik_Tot_abs_Q>
0

$$$$
