3qps_ligand
                    3D
 Schrodinger Suite 2020-3.
 68 71  0  0  1  0            999 V2000
   -9.1180   -4.9580  -15.7460 C   0  0  0  0  0  0
   -8.2860   -5.6610  -16.8050 C   0  0  0  0  0  0
   -7.2720   -4.6610  -17.3140 C   0  0  1  0  0  0
   -7.9710   -3.6980  -18.1100 O   0  0  0  0  0  0
   -6.6010   -3.9660  -16.1290 C   0  0  0  0  0  0
   -6.8370   -4.5940  -14.7470 C   0  0  1  0  0  0
   -6.2040   -3.6960  -13.6790 C   0  0  0  0  0  0
   -6.7590   -3.9900  -12.2840 C   0  0  1  0  0  0
   -6.0120   -3.2840  -11.2890 O   0  0  0  0  0  0
   -8.2580   -3.6680  -12.2110 C   0  0  2  0  0  0
   -8.8440   -3.6850  -13.6210 C   0  0  1  0  0  0
   -8.3170   -4.8480  -14.4560 C   0  0  1  0  0  0
  -10.3690   -3.6570  -13.5620 C   0  0  0  0  0  0
  -10.9200   -2.4050  -12.8490 C   0  0  2  0  0  0
  -11.0300   -1.2660  -13.7330 O   0  0  0  0  0  0
  -10.1630   -2.1130  -11.5290 C   0  0  1  0  0  0
   -8.6500   -2.3080  -11.6260 C   0  0  1  0  0  0
   -8.2090   -1.9310  -10.2170 C   0  0  0  0  0  0
   -9.1180   -0.7250   -9.9060 C   0  0  0  0  0  0
  -10.2240   -0.6910  -10.9690 C   0  0  2  0  0  0
  -10.6920   -3.0470  -10.4390 C   0  0  0  0  0  0
   -8.4690   -6.1720  -13.7020 C   0  0  0  0  0  0
  -11.5820   -0.2880  -10.3820 C   0  0  2  0  0  0
  -12.4040    0.5580  -11.3600 C   0  0  0  0  0  0
  -11.4270    0.4360   -9.0430 C   0  0  0  0  0  0
  -11.8010    1.9220   -9.1080 C   0  0  0  0  0  0
   -9.6140    2.7860   -8.7310 O   0  5  0  0  0  0
  -10.6220    2.8000   -9.4860 C   0  0  0  0  0  0
  -10.9130    3.8180  -10.1540 O   0  0  0  0  0  0
   -9.3839   -3.9503  -16.0979 H   0  0  0  0  0  0
  -10.0356   -5.5347  -15.5581 H   0  0  0  0  0  0
   -7.7814   -6.5301  -16.3576 H   0  0  0  0  0  0
   -8.9410   -5.9978  -17.6220 H   0  0  0  0  0  0
   -6.5203   -5.1357  -17.9618 H   0  0  0  0  0  0
   -8.5162   -4.0197  -19.0096 H   0  0  0  0  0  0
   -5.5109   -3.9611  -16.2761 H   0  0  0  0  0  0
   -6.9659   -2.9308  -16.0564 H   0  0  0  0  0  0
   -6.3608   -5.5854  -14.7291 H   0  0  0  0  0  0
   -5.1166   -3.8610  -13.6588 H   0  0  0  0  0  0
   -6.4106   -2.6420  -13.9167 H   0  0  0  0  0  0
   -6.6015   -5.0468  -12.0226 H   0  0  0  0  0  0
   -4.9222   -3.4172  -11.2219 H   0  0  0  0  0  0
   -8.6516   -4.4393  -11.5326 H   0  0  0  0  0  0
   -8.5082   -2.7738  -14.1377 H   0  0  0  0  0  0
  -10.7757   -3.6663  -14.5840 H   0  0  0  0  0  0
  -10.7311   -4.5401  -13.0152 H   0  0  0  0  0  0
  -11.9805   -2.5635  -12.6038 H   0  0  0  0  0  0
  -11.5495   -1.3664  -14.6974 H   0  0  0  0  0  0
   -8.1118   -1.6843  -12.3549 H   0  0  0  0  0  0
   -8.3766   -2.7819   -9.5404 H   0  0  0  0  0  0
   -7.1396   -1.6733  -10.2241 H   0  0  0  0  0  0
   -9.5538   -0.8434   -8.9030 H   0  0  0  0  0  0
   -8.5243    0.2003   -9.9409 H   0  0  0  0  0  0
  -10.0865    0.0673  -11.7539 H   0  0  0  0  0  0
  -10.6656   -4.0853  -10.8013 H   0  0  0  0  0  0
  -11.7276   -2.7714  -10.1909 H   0  0  0  0  0  0
  -10.0631   -2.9559   -9.5411 H   0  0  0  0  0  0
   -8.0830   -6.9939  -14.3229 H   0  0  0  0  0  0
   -9.5320   -6.3478  -13.4805 H   0  0  0  0  0  0
   -7.9012   -6.1254  -12.7610 H   0  0  0  0  0  0
  -12.1348   -1.2216  -10.2012 H   0  0  0  0  0  0
  -12.5039    0.0211  -12.3149 H   0  0  0  0  0  0
  -11.8957    1.5185  -11.5308 H   0  0  0  0  0  0
  -13.4024    0.7417  -10.9364 H   0  0  0  0  0  0
  -12.0786   -0.0364   -8.2932 H   0  0  0  0  0  0
  -10.3802    0.3728   -8.7110 H   0  0  0  0  0  0
  -12.5890    2.0691   -9.8612 H   0  0  0  0  0  0
  -12.1678    2.2512   -8.1246 H   0  0  0  0  0  0
  1  2  1  0  0  0
  1 12  1  0  0  0
  1 30  1  0  0  0
  1 31  1  0  0  0
  2  3  1  0  0  0
  2 32  1  0  0  0
  2 33  1  0  0  0
  3  4  1  0  0  0
  3  5  1  0  0  0
  3 34  1  0  0  0
  4 35  1  0  0  0
  5  6  1  0  0  0
  5 36  1  0  0  0
  5 37  1  0  0  0
  6  7  1  0  0  0
  6 12  1  0  0  0
  6 38  1  0  0  0
  7  8  1  0  0  0
  7 39  1  0  0  0
  7 40  1  0  0  0
  8  9  1  0  0  0
  8 10  1  0  0  0
  8 41  1  0  0  0
  9 42  1  0  0  0
 10 11  1  0  0  0
 10 17  1  0  0  0
 10 43  1  0  0  0
 11 12  1  0  0  0
 11 13  1  0  0  0
 11 44  1  0  0  0
 12 22  1  0  0  0
 13 14  1  0  0  0
 13 45  1  0  0  0
 13 46  1  0  0  0
 14 15  1  0  0  0
 14 16  1  0  0  0
 14 47  1  0  0  0
 15 48  1  0  0  0
 16 17  1  0  0  0
 16 20  1  0  0  0
 16 21  1  0  0  0
 17 18  1  0  0  0
 17 49  1  0  0  0
 18 19  1  0  0  0
 18 50  1  0  0  0
 18 51  1  0  0  0
 19 20  1  0  0  0
 19 52  1  0  0  0
 19 53  1  0  0  0
 20 23  1  0  0  0
 20 54  1  0  0  0
 21 55  1  0  0  0
 21 56  1  0  0  0
 21 57  1  0  0  0
 22 58  1  0  0  0
 22 59  1  0  0  0
 22 60  1  0  0  0
 23 24  1  0  0  0
 23 25  1  0  0  0
 23 61  1  0  0  0
 24 62  1  0  0  0
 24 63  1  0  0  0
 24 64  1  0  0  0
 25 26  1  0  0  0
 25 65  1  0  0  0
 25 66  1  0  0  0
 26 28  1  0  0  0
 26 67  1  0  0  0
 26 68  1  0  0  0
 27 28  1  0  0  0
 28 29  2  0  0  0
M  CHG  1  27  -1
M  END
> <s_m_source_file>
../3qps_ligand.sdf

> <i_m_source_file_index>
1

> <s_epik_input>
W0NIMl0xW0NIMl1bQ0BASF0oW09IXSlbQ0gyXVtDQEhdKFtDQF0xMltDSDNdKVtDSDJdW0NAQEhdKFtPSF0pW0NAQEhdM1tDQEBIXTJbQ0gyXVtDQEhdKFtPSF0pW0NAQF00KFtDSDNdKVtDQEhdM1tDSDJdW0NIMl1bQ0BASF00W0NASF0oW0NIM10pW0NIMl1bQ0gyXUMoPU8pW09IXQ==

> <s_epik_cmdline>
J2VwaWtfYXBwJywgJy1pbWFlJywgJ2xpZ2FuZF9wcm8ubWFlJywgJy1vbWFlJywgJ2xpZ2FuZF9wcmVwLm1hZScsICctbXMnLCAnMScsICctcGgnLCAnNycsICctcGh0JywgJzAuNScsICctbnQn

> <r_lp_tautomer_probability>
1

> <r_epik_Ionization_Penalty>
  0.0058

> <r_epik_Ionization_Penalty_Charging>
  0.0057

> <r_epik_Ionization_Penalty_Neutral>
  0.0000

> <r_epik_State_Penalty>
 -0.0000

> <r_epik_Charging_Adjusted_Penalty>
0.00574675711951362

> <i_epik_Tot_Q>
-1

> <i_epik_Tot_abs_Q>
1

$$$$
