3qqu_ligand
                    3D
 Schrodinger Suite 2020-3.
 56 60  0  0  1  0            999 V2000
  -10.8970    0.4580   -0.1090 C   0  0  0  0  0  0
  -12.0770   -7.0030   -4.9250 N   0  0  0  0  0  0
  -12.3850   -9.7470   -4.7760 O   0  0  0  0  0  0
  -11.0240   -9.2930   -4.8170 C   0  0  0  0  0  0
  -10.8840   -1.6950    0.9790 N   0  0  0  0  0  0
  -10.1160   -6.0660   -3.0510 O   0  0  0  0  0  0
  -10.8440   -7.7950   -5.0610 C   0  0  0  0  0  0
  -10.1440   -4.8490    2.5880 N   0  0  0  0  0  0
  -11.4550   -0.8790   -2.4930 C   0  0  0  0  0  0
  -11.3450    0.4690   -2.4230 N   0  0  0  0  0  0
  -13.3580   -7.6820   -5.1880 C   0  0  0  0  0  0
  -11.2910   -1.5730   -1.3760 N   0  0  0  0  0  0
  -13.1970   -9.1000   -5.7170 C   0  0  0  0  0  0
  -11.7160   -1.5240   -3.6850 N   0  0  0  0  0  0
  -12.1830   -6.4200   -0.2960 C   0  0  0  0  0  0
  -12.0310   -7.8500    0.0270 C   0  0  0  0  0  0
  -11.2670   -8.2940    1.1980 C   0  0  0  0  0  0
  -10.6540   -7.2940    2.0570 C   0  0  0  0  0  0
  -12.8030   -3.3480   -4.8760 C   0  0  0  0  0  0
  -11.7920   -2.8770   -3.9570 C   0  0  0  0  0  0
  -10.8890   -3.7970   -3.3570 C   0  0  0  0  0  0
  -10.9920   -5.1790   -3.6680 C   0  0  0  0  0  0
  -12.0040   -5.6550   -4.5920 C   0  0  0  0  0  0
  -12.9320   -4.7390   -5.2120 C   0  0  0  0  0  0
   -8.7650   -5.6890   -2.6990 C   0  0  0  0  0  0
  -10.9010   -3.0590    1.2020 C   0  0  0  0  0  0
  -11.5700   -4.0450    0.3540 C   0  0  0  0  0  0
  -11.5570   -5.4330    0.5670 C   0  0  0  0  0  0
  -10.7700   -5.8500    1.7840 C   0  0  0  0  0  0
  -10.1740   -3.5090    2.3560 C   0  0  0  0  0  0
  -11.0780    1.1590   -1.3060 C   0  0  0  0  0  0
  -11.0190   -0.9590   -0.1910 C   0  0  0  0  0  0
  -10.6759    0.9655    0.8300 H   0  0  0  0  0  0
  -10.5345   -9.5146   -3.8572 H   0  0  0  0  0  0
  -10.4898   -9.8085   -5.6287 H   0  0  0  0  0  0
  -10.7441   -1.0017    1.8214 H   0  0  0  0  0  0
  -10.4463   -7.6821   -6.0804 H   0  0  0  0  0  0
  -10.0980   -7.4397   -4.3349 H   0  0  0  0  0  0
  -13.9390   -7.7426   -4.2559 H   0  0  0  0  0  0
  -13.9270   -7.1136   -5.9384 H   0  0  0  0  0  0
  -12.7021   -9.1135   -6.6993 H   0  0  0  0  0  0
  -14.1638   -9.6201   -5.7863 H   0  0  0  0  0  0
  -11.9012   -0.9389   -4.5979 H   0  0  0  0  0  0
  -12.7563   -6.1077   -1.1689 H   0  0  0  0  0  0
  -12.4968   -8.5944   -0.6188 H   0  0  0  0  0  0
  -11.1607   -9.3558    1.4203 H   0  0  0  0  0  0
  -10.0908   -7.6224    2.9305 H   0  0  0  0  0  0
  -13.4864   -2.6283   -5.3266 H   0  0  0  0  0  0
  -10.1245   -3.4448   -2.6645 H   0  0  0  0  0  0
  -13.6975   -5.0877   -5.9052 H   0  0  0  0  0  0
   -8.2579   -6.5424   -2.2250 H   0  0  0  0  0  0
   -8.7916   -4.8424   -1.9972 H   0  0  0  0  0  0
   -8.2179   -5.3955   -3.6070 H   0  0  0  0  0  0
  -12.1212   -3.6739   -0.5100 H   0  0  0  0  0  0
   -9.6677   -2.8064    3.0179 H   0  0  0  0  0  0
  -11.0032    2.2462   -1.3295 H   0  0  0  0  0  0
  1 31  2  0  0  0
  1 32  1  0  0  0
  1 33  1  0  0  0
  2  7  1  0  0  0
  2 11  1  0  0  0
  2 23  1  0  0  0
  3  4  1  0  0  0
  3 13  1  0  0  0
  4  7  1  0  0  0
  4 34  1  0  0  0
  4 35  1  0  0  0
  5 26  1  0  0  0
  5 32  1  0  0  0
  5 36  1  0  0  0
  6 22  1  0  0  0
  6 25  1  0  0  0
  7 37  1  0  0  0
  7 38  1  0  0  0
  8 29  2  0  0  0
  8 30  1  0  0  0
  9 10  2  0  0  0
  9 12  1  0  0  0
  9 14  1  0  0  0
 10 31  1  0  0  0
 11 13  1  0  0  0
 11 39  1  0  0  0
 11 40  1  0  0  0
 12 32  2  0  0  0
 13 41  1  0  0  0
 13 42  1  0  0  0
 14 20  1  0  0  0
 14 43  1  0  0  0
 15 16  2  0  0  0
 15 28  1  0  0  0
 15 44  1  0  0  0
 16 17  1  0  0  0
 16 45  1  0  0  0
 17 18  2  0  0  0
 17 46  1  0  0  0
 18 29  1  0  0  0
 18 47  1  0  0  0
 19 20  2  0  0  0
 19 24  1  0  0  0
 19 48  1  0  0  0
 20 21  1  0  0  0
 21 22  2  0  0  0
 21 49  1  0  0  0
 22 23  1  0  0  0
 23 24  2  0  0  0
 24 50  1  0  0  0
 25 51  1  0  0  0
 25 52  1  0  0  0
 25 53  1  0  0  0
 26 27  1  0  0  0
 26 30  2  0  0  0
 27 28  2  0  0  0
 27 54  1  0  0  0
 28 29  1  0  0  0
 30 55  1  0  0  0
 31 56  1  0  0  0
M  END
> <s_m_source_file>
../3qqu_ligand.sdf

> <i_m_source_file_index>
1

> <s_epik_input>
W2NIXTFbY0hdW2NIXVtjSF1jKGMxMiluW2NIXWMoW2NIXTIpW05IXWMobjMpW2NIXVtjSF1uYzNbTkhdYzRbY0hdW2NIXWMoYyhbY0hdNClPW0NIM10pTjVbQ0gyXVtDSDJdT1tDSDJdW0NIMl01

> <s_epik_cmdline>
J2VwaWtfYXBwJywgJy1pbWFlJywgJ2xpZ2FuZF9wcm8ubWFlJywgJy1vbWFlJywgJ2xpZ2FuZF9wcmVwLm1hZScsICctbXMnLCAnMScsICctcGgnLCAnNycsICctcGh0JywgJzAuNScsICctbnQn

> <r_lp_tautomer_probability>
0.999999624730965

> <r_epik_Ionization_Penalty>
  0.0336

> <r_epik_Ionization_Penalty_Charging>
  0.0000

> <r_epik_Ionization_Penalty_Neutral>
  0.0336

> <r_epik_State_Penalty>
  0.0216

> <r_epik_Charging_Adjusted_Penalty>
0.0216193509228533

> <i_epik_Tot_Q>
0

> <i_epik_Tot_abs_Q>
0

$$$$
