3qrk_ligand
                    3D
 Schrodinger Suite 2020-3.
 59 62  0  0  1  0            999 V2000
   14.9470   19.0200   10.0590 C   0  0  0  0  0  0
   17.7130   21.3490   10.7340 N   0  0  0  0  0  0
   17.1350   23.2510   11.7860 O   0  0  0  0  0  0
   14.6680   17.2210   10.1100 Cl  0  0  0  0  0  0
   16.1680   19.5970   10.3900 C   0  0  0  0  0  0
   19.2890   22.6580   11.7670 N   0  0  0  0  0  0
   25.4680   23.0550    5.9730 O   0  0  0  0  0  0
   17.4920   18.5770   10.9160 Cl  0  0  0  0  0  0
   13.9350   19.8900    9.6660 C   0  0  0  0  0  0
   21.1730   25.2170   13.3410 N   0  0  0  0  0  0
   23.5810   22.2420    5.2240 O   0  5  0  0  0  0
   14.1880   21.2720    9.6200 C   0  0  0  0  0  0
   20.9340   24.1130   12.5100 N   0  0  0  0  0  0
   15.4290   21.8190    9.9590 C   0  0  0  0  0  0
   25.3330   22.3630    8.3570 N   0  3  0  0  0  0
   16.4540   20.9600   10.3540 C   0  0  0  0  0  0
   18.0070   22.4460   11.4540 C   0  0  0  0  0  0
   19.6480   23.7270   12.4920 C   0  0  0  0  0  0
   18.9570   24.5630   13.3760 C   0  0  0  0  0  0
   19.9350   25.4480   13.8450 C   0  0  0  0  0  0
   19.6340   26.5720   14.8150 C   0  0  0  0  0  0
   19.2420   25.9950   16.1710 C   0  0  0  0  0  0
   18.5110   27.4320   14.2460 C   0  0  0  0  0  0
   20.8250   27.4900   15.0040 C   0  0  0  0  0  0
   23.1560   23.3090   12.4830 C   0  0  0  0  0  0
   21.9680   23.6200   11.8240 C   0  0  0  0  0  0
   21.9810   23.4440   10.4340 C   0  0  0  0  0  0
   24.2650   22.8560   11.8090 C   0  0  0  0  0  0
   24.2290   22.6790   10.4430 C   0  0  0  0  0  0
   23.0840   22.9830    9.7330 C   0  0  0  0  0  0
   25.4720   22.1510    9.7820 C   0  0  0  0  0  0
   24.1270   22.0680    7.6050 C   0  0  1  0  0  0
   22.9550   22.8240    8.2280 C   0  0  0  0  0  0
   24.3850   22.4700    6.1670 C   0  0  0  0  0  0
   18.5856   20.7432   10.4482 H   0  0  0  0  0  0
   20.0617   21.9517   11.4291 H   0  0  0  0  0  0
   12.9527   19.5027    9.3956 H   0  0  0  0  0  0
   13.3867   21.9420    9.3084 H   0  0  0  0  0  0
   15.5922   22.8958    9.9154 H   0  0  0  0  0  0
   25.4850   23.4282    8.1282 H   0  0  0  0  0  0
   26.0834   21.7624    7.8220 H   0  0  0  0  0  0
   17.8997   24.5322   13.6391 H   0  0  0  0  0  0
   18.3776   25.3258   16.0487 H   0  0  0  0  0  0
   18.9774   26.8144   16.8555 H   0  0  0  0  0  0
   20.0883   25.4285   16.5869 H   0  0  0  0  0  0
   17.6170   26.8106   14.0888 H   0  0  0  0  0  0
   18.8305   27.8642   13.2863 H   0  0  0  0  0  0
   18.2753   28.2416   14.9524 H   0  0  0  0  0  0
   21.6686   26.9162   15.4151 H   0  0  0  0  0  0
   20.5578   28.2987   15.7001 H   0  0  0  0  0  0
   21.1130   27.9214   14.0340 H   0  0  0  0  0  0
   23.2072   23.4286   13.5652 H   0  0  0  0  0  0
   21.0762   23.6821    9.8748 H   0  0  0  0  0  0
   25.1797   22.6352   12.3592 H   0  0  0  0  0  0
   25.5863   21.0756    9.9833 H   0  0  0  0  0  0
   26.3591   22.6888   10.1479 H   0  0  0  0  0  0
   23.9105   20.9905    7.6517 H   0  0  0  0  0  0
   22.0361   22.2658    7.9957 H   0  0  0  0  0  0
   22.9097   23.8170    7.7569 H   0  0  0  0  0  0
  1  4  1  0  0  0
  1  5  2  0  0  0
  1  9  1  0  0  0
  2 16  1  0  0  0
  2 17  1  0  0  0
  2 35  1  0  0  0
  3 17  2  0  0  0
  5  8  1  0  0  0
  5 16  1  0  0  0
  6 17  1  0  0  0
  6 18  1  0  0  0
  6 36  1  0  0  0
  7 34  2  0  0  0
  9 12  2  0  0  0
  9 37  1  0  0  0
 10 13  1  0  0  0
 10 20  2  0  0  0
 11 34  1  0  0  0
 12 14  1  0  0  0
 12 38  1  0  0  0
 13 18  1  0  0  0
 13 26  1  0  0  0
 14 16  2  0  0  0
 14 39  1  0  0  0
 15 31  1  0  0  0
 15 32  1  0  0  0
 15 40  1  0  0  0
 15 41  1  0  0  0
 18 19  2  0  0  0
 19 20  1  0  0  0
 19 42  1  0  0  0
 20 21  1  0  0  0
 21 22  1  0  0  0
 21 23  1  0  0  0
 21 24  1  0  0  0
 22 43  1  0  0  0
 22 44  1  0  0  0
 22 45  1  0  0  0
 23 46  1  0  0  0
 23 47  1  0  0  0
 23 48  1  0  0  0
 24 49  1  0  0  0
 24 50  1  0  0  0
 24 51  1  0  0  0
 25 26  2  0  0  0
 25 28  1  0  0  0
 25 52  1  0  0  0
 26 27  1  0  0  0
 27 30  2  0  0  0
 27 53  1  0  0  0
 28 29  2  0  0  0
 28 54  1  0  0  0
 29 30  1  0  0  0
 29 31  1  0  0  0
 30 33  1  0  0  0
 31 55  1  0  0  0
 31 56  1  0  0  0
 32 33  1  0  0  0
 32 34  1  0  0  0
 32 57  1  0  0  0
 33 58  1  0  0  0
 33 59  1  0  0  0
M  CHG  2  11  -1  15   1
M  END
> <s_m_source_file>
../3qrk_ligand.sdf

> <i_m_source_file_index>
1

> <s_epik_input>
Q2xjMWMoQ2wpYyhbY0hdW2NIXVtjSF0xKVtOSF1DKD1PKVtOSF1jMltjSF1jKEMoW0NIM10pKFtDSDNdKVtDSDNdKW5uMi1jKFtjSF1bY0hdMylbY0hdYyhjMzQpW0NIMl1bQ0BIXShbTkgyK11bQ0gyXTQpQyg9TylbT0hd

> <s_epik_cmdline>
J2VwaWtfYXBwJywgJy1pbWFlJywgJ2xpZ2FuZF9wcm8ubWFlJywgJy1vbWFlJywgJ2xpZ2FuZF9wcmVwLm1hZScsICctbXMnLCAnMScsICctcGgnLCAnNycsICctcGh0JywgJzAuNScsICctbnQn

> <r_lp_tautomer_probability>
1

> <r_epik_Ionization_Penalty>
  0.0151

> <r_epik_Ionization_Penalty_Charging>
  0.0151

> <r_epik_Ionization_Penalty_Neutral>
  0.0000

> <r_epik_State_Penalty>
  0.0118

> <r_epik_Charging_Adjusted_Penalty>
0.0268976549020259

> <i_epik_Tot_Q>
0

> <i_epik_Tot_abs_Q>
2

$$$$
