3qs1_ligand
                    3D
 Schrodinger Suite 2020-3.
 86 90  0  0  1  0            999 V2000
   28.5280   -9.3920    5.4040 N   0  0  0  0  0  0
   27.1050   -9.3590    5.1740 C   0  0  1  0  0  0
   26.4820   -7.1280    4.8490 O   0  0  0  0  0  0
   26.6110   -8.8180    6.4830 C   0  0  0  0  0  0
   24.6260   -8.1800    3.7310 O   0  0  0  0  0  0
   26.7490   -9.9230    7.4770 C   0  0  0  0  0  0
   27.5400   -9.7200    8.5940 C   0  0  0  0  0  0
   27.6630  -10.7760    9.4900 C   0  0  0  0  0  0
   27.0230  -12.0090    9.2890 C   0  0  0  0  0  0
   26.2410  -12.2000    8.1690 C   0  0  0  0  0  0
   26.1060  -11.1540    7.2540 C   0  0  0  0  0  0
   26.8630   -8.3050    4.1510 C   0  0  2  0  0  0
   25.6600   -8.6800    3.3770 C   0  0  0  0  0  0
   22.7290  -11.2970    2.3470 N   0  0  0  0  0  0
   20.3950  -11.4020    2.0880 O   0  0  0  0  0  0
   22.2390  -12.6000    2.7870 C   0  0  1  0  0  0
   21.9910  -12.6520    4.2410 C   0  0  0  0  0  0
   22.8860  -12.2670    5.2690 C   0  0  0  0  0  0
   22.5000  -12.3570    6.6050 C   0  0  0  0  0  0
   20.8230  -12.7470    2.2600 C   0  0  1  0  0  0
   20.7400  -13.1300    4.5220 C   0  0  0  0  0  0
   20.3310  -13.2160    5.8540 C   0  0  0  0  0  0
   21.2100  -12.8280    6.8790 C   0  0  0  0  0  0
   19.9440  -13.4530    3.2930 C   0  0  0  0  0  0
   35.6540   -9.1960    6.4880 C   0  0  0  0  0  0
   28.5210  -11.5000    4.7240 O   0  0  0  0  0  0
   35.1240   -8.6250    5.3630 C   0  0  0  0  0  0
   31.4350   -9.4070    5.7420 O   0  0  0  0  0  0
   33.7520   -8.6890    5.1180 C   0  0  0  0  0  0
   33.3390   -8.0120    3.8320 C   0  0  0  0  0  0
   32.6130  -10.6470    8.1890 C   0  0  0  0  0  0
   32.8370   -9.3490    5.9850 C   0  0  0  0  0  0
   33.4190   -9.9210    7.1360 C   0  0  0  0  0  0
   34.7940   -9.8360    7.3650 C   0  0  0  0  0  0
   29.1760  -10.5310    5.1600 C   0  0  0  0  0  0
   30.7000  -10.6160    5.4420 C   0  0  0  0  0  0
   26.9640  -10.1850    1.8880 C   0  0  0  0  0  0
   25.7550   -9.5310    2.3720 N   0  0  0  0  0  0
   24.7520  -12.0550    2.2050 O   0  0  0  0  0  0
   26.5730  -10.6960    0.2830 S   0  0  0  0  0  0
   25.0570   -9.8080    0.1470 C   0  0  0  0  0  0
   24.1620  -10.3470   -0.9860 C   0  0  0  0  0  0
   25.3390   -8.3460   -0.1640 C   0  0  0  0  0  0
   24.5660   -9.8620    1.6130 C   0  0  1  0  0  0
   24.0040  -11.1560    2.0800 C   0  0  0  0  0  0
   29.0469   -8.4939    5.7703 H   0  0  0  0  0  0
   26.6811  -10.3228    4.8556 H   0  0  0  0  0  0
   27.2004   -6.6259    5.5137 H   0  0  0  0  0  0
   27.2197   -7.9492    6.7738 H   0  0  0  0  0  0
   25.5598   -8.5111    6.3796 H   0  0  0  0  0  0
   28.0465   -8.7700    8.7647 H   0  0  0  0  0  0
   28.2780  -10.6417   10.3798 H   0  0  0  0  0  0
   27.1436  -12.8127   10.0154 H   0  0  0  0  0  0
   25.7368  -13.1517    8.0010 H   0  0  0  0  0  0
   25.4977  -11.2924    6.3601 H   0  0  0  0  0  0
   27.7514   -8.1382    3.5241 H   0  0  0  0  0  0
   22.0311  -10.4530    2.2443 H   0  0  0  0  0  0
   20.9185  -10.7447    1.3781 H   0  0  0  0  0  0
   23.0061  -13.3213    2.4688 H   0  0  0  0  0  0
   23.8799  -11.8991    5.0143 H   0  0  0  0  0  0
   23.1785  -12.0708    7.4086 H   0  0  0  0  0  0
   20.7480  -13.2878    1.3050 H   0  0  0  0  0  0
   19.3339  -13.5826    6.0977 H   0  0  0  0  0  0
   20.8790  -12.8954    7.9153 H   0  0  0  0  0  0
   18.9340  -13.0176    3.2738 H   0  0  0  0  0  0
   19.8858  -14.5250    3.0536 H   0  0  0  0  0  0
   36.7243   -9.1484    6.6886 H   0  0  0  0  0  0
   35.7777   -8.1171    4.6540 H   0  0  0  0  0  0
   34.2248   -7.5780    3.3452 H   0  0  0  0  0  0
   32.6147   -7.2144    4.0538 H   0  0  0  0  0  0
   32.8768   -8.7508    3.1608 H   0  0  0  0  0  0
   31.5513  -10.6494    7.9011 H   0  0  0  0  0  0
   32.7295  -10.1366    9.1564 H   0  0  0  0  0  0
   32.9718  -11.6832    8.2756 H   0  0  0  0  0  0
   35.2053  -10.2898    8.2667 H   0  0  0  0  0  0
   31.1179  -11.0845    4.5387 H   0  0  0  0  0  0
   30.7813  -11.3141    6.2882 H   0  0  0  0  0  0
   27.7977   -9.4674    1.8968 H   0  0  0  0  0  0
   27.2065  -11.0367    2.5405 H   0  0  0  0  0  0
   24.6771  -10.2239   -1.9501 H   0  0  0  0  0  0
   23.2147   -9.7881   -1.0023 H   0  0  0  0  0  0
   23.9555  -11.4137   -0.8141 H   0  0  0  0  0  0
   25.6931   -8.2535   -1.2013 H   0  0  0  0  0  0
   26.1110   -7.9675    0.5221 H   0  0  0  0  0  0
   24.4168   -7.7598   -0.0377 H   0  0  0  0  0  0
   23.7241   -9.1775    1.7937 H   0  0  0  0  0  0
  1  2  1  0  0  0
  1 35  1  0  0  0
  1 46  1  0  0  0
  2  4  1  0  0  0
  2 12  1  0  0  0
  2 47  1  0  0  0
  3 12  1  0  0  0
  3 48  1  0  0  0
  4  6  1  0  0  0
  4 49  1  0  0  0
  4 50  1  0  0  0
  5 13  2  0  0  0
  6  7  2  0  0  0
  6 11  1  0  0  0
  7  8  1  0  0  0
  7 51  1  0  0  0
  8  9  2  0  0  0
  8 52  1  0  0  0
  9 10  1  0  0  0
  9 53  1  0  0  0
 10 11  2  0  0  0
 10 54  1  0  0  0
 11 55  1  0  0  0
 12 13  1  0  0  0
 12 56  1  0  0  0
 13 38  1  0  0  0
 14 16  1  0  0  0
 14 45  1  0  0  0
 14 57  1  0  0  0
 15 20  1  0  0  0
 15 58  1  0  0  0
 16 17  1  0  0  0
 16 20  1  0  0  0
 16 59  1  0  0  0
 17 18  2  0  0  0
 17 21  1  0  0  0
 18 19  1  0  0  0
 18 60  1  0  0  0
 19 23  2  0  0  0
 19 61  1  0  0  0
 20 24  1  0  0  0
 20 62  1  0  0  0
 21 22  2  0  0  0
 21 24  1  0  0  0
 22 23  1  0  0  0
 22 63  1  0  0  0
 23 64  1  0  0  0
 24 65  1  0  0  0
 24 66  1  0  0  0
 25 27  2  0  0  0
 25 34  1  0  0  0
 25 67  1  0  0  0
 26 35  2  0  0  0
 27 29  1  0  0  0
 27 68  1  0  0  0
 28 32  1  0  0  0
 28 36  1  0  0  0
 29 30  1  0  0  0
 29 32  2  0  0  0
 30 69  1  0  0  0
 30 70  1  0  0  0
 30 71  1  0  0  0
 31 33  1  0  0  0
 31 72  1  0  0  0
 31 73  1  0  0  0
 31 74  1  0  0  0
 32 33  1  0  0  0
 33 34  2  0  0  0
 34 75  1  0  0  0
 35 36  1  0  0  0
 36 76  1  0  0  0
 36 77  1  0  0  0
 37 38  1  0  0  0
 37 40  1  0  0  0
 37 78  1  0  0  0
 37 79  1  0  0  0
 38 44  1  0  0  0
 39 45  2  0  0  0
 40 41  1  0  0  0
 41 42  1  0  0  0
 41 43  1  0  0  0
 41 44  1  0  0  0
 42 80  1  0  0  0
 42 81  1  0  0  0
 42 82  1  0  0  0
 43 83  1  0  0  0
 43 84  1  0  0  0
 43 85  1  0  0  0
 44 45  1  0  0  0
 44 86  1  0  0  0
M  END
> <s_m_source_file>
../3qs1_ligand.sdf

> <i_m_source_file_index>
1

> <s_epik_input>
W0NIM11jMVtjSF1bY0hdW2NIXWMoW0NIM10pYzFPW0NIMl1DKD1PKVtOSF1bQ0BASF0oW0NIMl1jMltjSF1bY0hdW2NIXVtjSF1bY0hdMilbQ0BIXShbT0hdKUMoPU8pTihbQ0gyXVNDMyhbQ0gzXSlbQ0gzXSlbQ0BASF0zQyg9TylbTkhdW0NAQEhdNFtDQEhdKFtPSF0pW0NIMl1jKGM0NSlbY0hdW2NIXVtjSF1bY0hdNQ==

> <s_epik_cmdline>
J2VwaWtfYXBwJywgJy1pbWFlJywgJ2xpZ2FuZF9wcm8ubWFlJywgJy1vbWFlJywgJ2xpZ2FuZF9wcmVwLm1hZScsICctbXMnLCAnMScsICctcGgnLCAnNycsICctcGh0JywgJzAuNScsICctbnQn

> <r_lp_tautomer_probability>
1

> <r_epik_Ionization_Penalty>
  0.0036

> <r_epik_Ionization_Penalty_Charging>
  0.0000

> <r_epik_Ionization_Penalty_Neutral>
  0.0036

> <r_epik_State_Penalty>
 -0.0000

> <r_epik_Charging_Adjusted_Penalty>
0

> <i_epik_Tot_Q>
0

> <i_epik_Tot_abs_Q>
0

> <s_epik_Chemistry_Notes>
This compound contains an acetal/aminal-like group ( X-CH(R)-Y where X, Y are N, S, or O) that may be acid/base labile, releasing an aldehyde.

$$$$
