3qs4_ligand
                    3D
 Schrodinger Suite 2020-3.
 27 28  0  0  1  0            999 V2000
  -25.9110   -4.1100  -19.2820 N   0  3  0  0  0  0
  -26.7070   -5.3330  -19.3020 C   0  0  2  0  0  0
  -26.2980   -6.2810  -18.1820 C   0  0  0  0  0  0
  -26.8820   -7.3490  -18.0050 O   0  5  0  0  0  0
  -26.5790   -6.0350  -20.6550 C   0  0  0  0  0  0
  -26.9740   -5.1790  -21.8120 C   0  0  0  0  0  0
  -26.1750   -4.7670  -22.8390 C   0  0  0  0  0  0
  -28.2670   -4.6160  -22.0570 C   0  0  0  0  0  0
  -26.8940   -3.9880  -23.7130 N   0  3  0  0  0  0
  -28.1810   -3.8780  -23.2540 C   0  0  0  0  0  0
  -29.4910   -4.6650  -21.3810 C   0  0  0  0  0  0
  -29.2720   -3.1960  -23.7900 C   0  0  0  0  0  0
  -30.5710   -3.9870  -21.9140 C   0  0  0  0  0  0
  -30.4550   -3.2630  -23.1060 C   0  0  0  0  0  0
  -25.3770   -5.9990  -17.4220 O   0  0  0  0  0  0
  -26.0158   -3.6203  -18.3026 H   0  0  0  0  0  0
  -26.2636   -3.4301  -20.0715 H   0  0  0  0  0  0
  -24.8536   -4.3578  -19.4568 H   0  0  0  0  0  0
  -27.7426   -5.0013  -19.1365 H   0  0  0  0  0  0
  -25.5336   -6.3388  -20.8130 H   0  0  0  0  0  0
  -27.2255   -6.9249  -20.6690 H   0  0  0  0  0  0
  -25.1183   -5.0709  -22.8697 H   0  0  0  0  0  0
  -29.5908   -5.2268  -20.4523 H   0  0  0  0  0  0
  -29.1860   -2.6311  -24.7182 H   0  0  0  0  0  0
  -31.5300   -4.0167  -21.3968 H   0  0  0  0  0  0
  -31.3273   -2.7404  -23.4985 H   0  0  0  0  0  0
  -26.4071   -3.5721  -24.6074 H   0  0  0  0  0  0
  1  2  1  0  0  0
  1 16  1  0  0  0
  1 17  1  0  0  0
  1 18  1  0  0  0
  2  3  1  0  0  0
  2  5  1  0  0  0
  2 19  1  0  0  0
  3  4  1  0  0  0
  3 15  2  0  0  0
  5  6  1  0  0  0
  5 20  1  0  0  0
  5 21  1  0  0  0
  6  7  2  0  0  0
  6  8  1  0  0  0
  7  9  1  0  0  0
  7 22  1  0  0  0
  8 10  2  0  0  0
  8 11  1  0  0  0
  9 10  1  0  0  0
  9 27  1  0  0  0
 10 12  1  0  0  0
 11 13  2  0  0  0
 11 23  1  0  0  0
 12 14  2  0  0  0
 12 24  1  0  0  0
 13 14  1  0  0  0
 13 25  1  0  0  0
 14 26  1  0  0  0
M  CHG  3   1   1   4  -1   9   1
M  END
> <s_m_source_file>
../3qs4_ligand.sdf

> <i_m_source_file_index>
1

> <s_epik_input>
W09IXUMoPU8pW0NAQEhdKFtOSDMrXSlbQ0gyXWMxW2NIXVtuSF1jKGMxMilbY0hdW2NIXVtjSF1bY0hdMg==

> <s_epik_cmdline>
J2VwaWtfYXBwJywgJy1pbWFlJywgJ2xpZ2FuZF9wcm8ubWFlJywgJy1vbWFlJywgJ2xpZ2FuZF9wcmVwLm1hZScsICctbXMnLCAnMScsICctcGgnLCAnNycsICctcGh0JywgJzAuNScsICctbnQn

> <r_lp_tautomer_probability>
1

> <r_epik_Ionization_Penalty>
  0.0030

> <r_epik_Ionization_Penalty_Charging>
  0.0030

> <r_epik_Ionization_Penalty_Neutral>
  0.0000

> <r_epik_State_Penalty>
 -0.0000

> <r_epik_Charging_Adjusted_Penalty>
0.00304110655313935

> <i_epik_Tot_Q>
1

> <i_epik_Tot_abs_Q>
3

$$$$
