3qs5_ligand
                    3D
 Schrodinger Suite 2020-3.
 27 28  0  0  1  0            999 V2000
   26.4420   30.7550   19.7450 N   0  3  0  0  0  0
   27.7060   30.0770   19.4680 C   0  0  2  0  0  0
   27.5120   28.9250   18.4660 C   0  0  0  0  0  0
   28.3750   28.1000   18.1390 O   0  5  0  0  0  0
   28.3190   29.5820   20.7760 C   0  0  0  0  0  0
   28.2090   30.5620   21.8910 C   0  0  0  0  0  0
   27.6010   30.3700   23.0960 C   0  0  0  0  0  0
   28.7330   31.8890   21.9100 C   0  0  0  0  0  0
   27.7170   31.4990   23.8680 N   0  3  0  0  0  0
   28.4090   32.4480   23.1610 C   0  0  0  0  0  0
   29.4460   32.6610   20.9880 C   0  0  0  0  0  0
   28.7750   33.7460   23.5130 C   0  0  0  0  0  0
   29.8090   33.9470   21.3380 C   0  0  0  0  0  0
   29.4730   34.4780   22.5890 C   0  0  0  0  0  0
   26.4200   28.7930   17.9420 O   0  0  0  0  0  0
   26.0023   31.1107   18.8015 H   0  0  0  0  0  0
   26.6236   31.6116   20.4108 H   0  0  0  0  0  0
   25.7484   30.0532   20.2312 H   0  0  0  0  0  0
   28.3644   30.8321   19.0137 H   0  0  0  0  0  0
   27.8084   28.6614   21.0949 H   0  0  0  0  0  0
   29.3885   29.3743   20.6242 H   0  0  0  0  0  0
   27.1145   29.4091   23.3197 H   0  0  0  0  0  0
   29.7105   32.2558   20.0113 H   0  0  0  0  0  0
   28.5158   34.1627   24.4863 H   0  0  0  0  0  0
   30.3663   34.5585   20.6284 H   0  0  0  0  0  0
   29.7735   35.4969   22.8334 H   0  0  0  0  0  0
   27.2829   31.5213   24.8785 H   0  0  0  0  0  0
  1  2  1  0  0  0
  1 16  1  0  0  0
  1 17  1  0  0  0
  1 18  1  0  0  0
  2  3  1  0  0  0
  2  5  1  0  0  0
  2 19  1  0  0  0
  3  4  1  0  0  0
  3 15  2  0  0  0
  5  6  1  0  0  0
  5 20  1  0  0  0
  5 21  1  0  0  0
  6  7  2  0  0  0
  6  8  1  0  0  0
  7  9  1  0  0  0
  7 22  1  0  0  0
  8 10  2  0  0  0
  8 11  1  0  0  0
  9 10  1  0  0  0
  9 27  1  0  0  0
 10 12  1  0  0  0
 11 13  2  0  0  0
 11 23  1  0  0  0
 12 14  2  0  0  0
 12 24  1  0  0  0
 13 14  1  0  0  0
 13 25  1  0  0  0
 14 26  1  0  0  0
M  CHG  3   1   1   4  -1   9   1
M  END
> <s_m_source_file>
../3qs5_ligand.sdf

> <i_m_source_file_index>
1

> <s_epik_input>
W09IXUMoPU8pW0NAQEhdKFtOSDMrXSlbQ0gyXWMxW2NIXVtuSF1jKGMxMilbY0hdW2NIXVtjSF1bY0hdMg==

> <s_epik_cmdline>
J2VwaWtfYXBwJywgJy1pbWFlJywgJ2xpZ2FuZF9wcm8ubWFlJywgJy1vbWFlJywgJ2xpZ2FuZF9wcmVwLm1hZScsICctbXMnLCAnMScsICctcGgnLCAnNycsICctcGh0JywgJzAuNScsICctbnQn

> <r_lp_tautomer_probability>
1

> <r_epik_Ionization_Penalty>
  0.0030

> <r_epik_Ionization_Penalty_Charging>
  0.0030

> <r_epik_Ionization_Penalty_Neutral>
  0.0000

> <r_epik_State_Penalty>
 -0.0000

> <r_epik_Charging_Adjusted_Penalty>
0.00304110655313935

> <i_epik_Tot_Q>
1

> <i_epik_Tot_abs_Q>
3

$$$$
