3qs6_ligand
                    3D
 Schrodinger Suite 2020-3.
 27 28  0  0  1  0            999 V2000
   26.9410    0.4010   19.6470 N   0  3  0  0  0  0
   28.0710   -0.3920   19.1920 C   0  0  2  0  0  0
   27.5850   -1.5350   18.3140 C   0  0  0  0  0  0
   28.2950   -2.5170   18.1140 O   0  0  0  0  0  0
   28.8460   -0.9470   20.3860 C   0  0  0  0  0  0
   28.5890   -0.2020   21.6650 C   0  0  0  0  0  0
   27.8860   -0.6470   22.7460 C   0  0  0  0  0  0
   29.0210    1.1250   21.9870 C   0  0  0  0  0  0
   27.8600    0.3160   23.7250 N   0  3  0  0  0  0
   28.5490    1.4150   23.2840 C   0  0  0  0  0  0
   29.7640    2.0960   21.3080 C   0  0  0  0  0  0
   28.7960    2.6330   23.9140 C   0  0  0  0  0  0
   30.0070    3.3040   21.9340 C   0  0  0  0  0  0
   29.5260    3.5620   23.2240 C   0  0  0  0  0  0
   26.4710   -1.5060   17.7930 O   0  5  0  0  0  0
   26.3940    0.7929   18.7768 H   0  0  0  0  0  0
   27.3043    1.2392   20.2597 H   0  0  0  0  0  0
   26.2696   -0.2291   20.2488 H   0  0  0  0  0  0
   28.7062    0.2916   18.6096 H   0  0  0  0  0  0
   28.5606   -1.9962   20.5527 H   0  0  0  0  0  0
   29.9253   -0.8886   20.1818 H   0  0  0  0  0  0
   27.4408   -1.6528   22.7365 H   0  0  0  0  0  0
   30.1440    1.9038   20.3046 H   0  0  0  0  0  0
   28.4223    2.8377   24.9173 H   0  0  0  0  0  0
   30.5833    4.0696   21.4146 H   0  0  0  0  0  0
   29.7381    4.5249   23.6888 H   0  0  0  0  0  0
   27.3371    0.1224   24.6732 H   0  0  0  0  0  0
  1  2  1  0  0  0
  1 16  1  0  0  0
  1 17  1  0  0  0
  1 18  1  0  0  0
  2  3  1  0  0  0
  2  5  1  0  0  0
  2 19  1  0  0  0
  3  4  2  0  0  0
  3 15  1  0  0  0
  5  6  1  0  0  0
  5 20  1  0  0  0
  5 21  1  0  0  0
  6  7  2  0  0  0
  6  8  1  0  0  0
  7  9  1  0  0  0
  7 22  1  0  0  0
  8 10  2  0  0  0
  8 11  1  0  0  0
  9 10  1  0  0  0
  9 27  1  0  0  0
 10 12  1  0  0  0
 11 13  2  0  0  0
 11 23  1  0  0  0
 12 14  2  0  0  0
 12 24  1  0  0  0
 13 14  1  0  0  0
 13 25  1  0  0  0
 14 26  1  0  0  0
M  CHG  3   1   1   9   1  15  -1
M  END
> <s_m_source_file>
../3qs6_ligand.sdf

> <i_m_source_file_index>
1

> <s_epik_input>
Tz1DKFtPSF0pW0NAQEhdKFtOSDMrXSlbQ0gyXWMxW2NIXVtuSF1jKGMxMilbY0hdW2NIXVtjSF1bY0hdMg==

> <s_epik_cmdline>
J2VwaWtfYXBwJywgJy1pbWFlJywgJ2xpZ2FuZF9wcm8ubWFlJywgJy1vbWFlJywgJ2xpZ2FuZF9wcmVwLm1hZScsICctbXMnLCAnMScsICctcGgnLCAnNycsICctcGh0JywgJzAuNScsICctbnQn

> <r_lp_tautomer_probability>
1

> <r_epik_Ionization_Penalty>
  0.0030

> <r_epik_Ionization_Penalty_Charging>
  0.0030

> <r_epik_Ionization_Penalty_Neutral>
  0.0000

> <r_epik_State_Penalty>
 -0.0000

> <r_epik_Charging_Adjusted_Penalty>
0.00304110655313935

> <i_epik_Tot_Q>
1

> <i_epik_Tot_abs_Q>
3

$$$$
