3qs8_ligand
                    3D
 Schrodinger Suite 2020-3.
 27 28  0  0  1  0            999 V2000
    8.5540  -14.9310   31.5700 O   0  0  0  0  0  0
    7.2890  -13.7400   32.9410 O   0  5  0  0  0  0
    5.7190   -8.2500   34.4620 C   0  0  0  0  0  0
    4.7230   -9.2210   34.5730 C   0  0  0  0  0  0
    6.7370   -8.3650   33.5110 C   0  0  0  0  0  0
    7.6960  -10.9970   28.6520 C   0  0  0  0  0  0
    8.6520  -12.0120   28.6460 C   0  0  0  0  0  0
    4.7570  -10.3320   33.7200 C   0  0  0  0  0  0
    6.7710   -9.4620   32.6550 C   0  0  0  0  0  0
    6.7840  -10.9110   29.7020 C   0  0  0  0  0  0
    8.7010  -12.9570   29.6690 C   0  0  0  0  0  0
    5.7350  -11.7000   31.8600 C   0  0  0  0  0  0
    7.8730  -13.9230   31.8360 C   0  0  0  0  0  0
    5.7750  -10.4540   32.7610 C   0  0  0  0  0  0
    6.8160  -11.8320   30.7530 C   0  0  0  0  0  0
    7.7830  -12.8610   30.7200 C   0  0  0  0  0  0
    5.7029   -7.3873   35.1281 H   0  0  0  0  0  0
    3.9296   -9.1166   35.3130 H   0  0  0  0  0  0
    7.5050   -7.5948   33.4397 H   0  0  0  0  0  0
    7.6622  -10.2730   27.8378 H   0  0  0  0  0  0
    9.3716  -12.0671   27.8291 H   0  0  0  0  0  0
    3.9912  -11.1034   33.8012 H   0  0  0  0  0  0
    7.5607   -9.5533   31.9093 H   0  0  0  0  0  0
    6.0374  -10.1168   29.7038 H   0  0  0  0  0  0
    9.4415  -13.7567   29.6505 H   0  0  0  0  0  0
    5.8462  -12.6031   32.4781 H   0  0  0  0  0  0
    4.7734  -11.7365   31.3271 H   0  0  0  0  0  0
  1 13  2  0  0  0
  2 13  1  0  0  0
  3  4  2  0  0  0
  3  5  1  0  0  0
  3 17  1  0  0  0
  4  8  1  0  0  0
  4 18  1  0  0  0
  5  9  2  0  0  0
  5 19  1  0  0  0
  6  7  2  0  0  0
  6 10  1  0  0  0
  6 20  1  0  0  0
  7 11  1  0  0  0
  7 21  1  0  0  0
  8 14  2  0  0  0
  8 22  1  0  0  0
  9 14  1  0  0  0
  9 23  1  0  0  0
 10 15  2  0  0  0
 10 24  1  0  0  0
 11 16  2  0  0  0
 11 25  1  0  0  0
 12 14  1  0  0  0
 12 15  1  0  0  0
 12 26  1  0  0  0
 12 27  1  0  0  0
 13 16  1  0  0  0
 15 16  1  0  0  0
M  CHG  1   2  -1
M  END
> <s_m_source_file>
../3qs8_ligand.sdf

> <i_m_source_file_index>
1

> <s_epik_input>
Tz1DKFtPSF0pYzFbY0hdW2NIXVtjSF1bY0hdYzFbQ0gyXWMyW2NIXVtjSF1bY0hdW2NIXVtjSF0y

> <s_epik_cmdline>
J2VwaWtfYXBwJywgJy1pbWFlJywgJ2xpZ2FuZF9wcm8ubWFlJywgJy1vbWFlJywgJ2xpZ2FuZF9wcmVwLm1hZScsICctbXMnLCAnMScsICctcGgnLCAnNycsICctcGh0JywgJzAuNScsICctbnQn

> <r_lp_tautomer_probability>
1

> <r_epik_Ionization_Penalty>
  0.0003

> <r_epik_Ionization_Penalty_Charging>
  0.0003

> <r_epik_Ionization_Penalty_Neutral>
  0.0000

> <r_epik_State_Penalty>
 -0.0000

> <r_epik_Charging_Adjusted_Penalty>
0.000328028457997907

> <i_epik_Tot_Q>
-1

> <i_epik_Tot_abs_Q>
1

$$$$
