3qsb_ligand
                    3D
 Schrodinger Suite 2020-3.
 58 60  0  0  1  0            999 V2000
   50.4550    8.2090   43.8450 C   0  0  0  0  0  0
   49.5510    7.3670   44.3680 F   0  0  0  0  0  0
   50.7110    9.4000   44.5190 C   0  0  0  0  0  0
   51.6430   10.2900   43.9530 C   0  0  0  0  0  0
   52.3340    9.9810   42.7820 C   0  0  0  0  0  0
   52.0140    8.7780   42.0800 C   0  0  0  0  0  0
   51.0790    7.9170   42.6170 C   0  0  0  0  0  0
   53.2660   10.8910   42.2780 C   0  0  0  0  0  0
   53.4980   12.1260   42.9320 C   0  0  0  0  0  0
   54.4070   13.0430   42.3870 C   0  0  0  0  0  0
   55.1410   12.7630   41.2400 C   0  0  0  0  0  0
   54.9090   11.5510   40.5880 C   0  0  0  0  0  0
   53.9690   10.6240   41.1120 C   0  0  0  0  0  0
   56.1600   13.7540   40.6840 C   0  0  0  0  0  0
   57.4210   13.7230   41.4180 O   0  0  0  0  0  0
   58.1890   14.8600   41.3690 N   0  0  0  0  0  0
   58.7630   15.3080   42.4050 C   0  0  0  0  0  0
   58.6470   14.6530   43.7710 C   0  0  1  0  0  0
   57.2810   14.7900   44.4230 C   0  0  0  0  0  0
   56.4650   15.6300   44.0210 O   0  5  0  0  0  0
   57.0520   13.9240   45.6450 C   0  0  2  0  0  0
   57.6800   12.4990   45.5550 C   0  0  0  0  0  0
   59.1720   12.6450   45.3700 C   0  0  0  0  0  0
   59.4410   13.4150   44.0900 C   0  0  0  0  0  0
   60.4190   13.1410   43.4290 O   0  0  0  0  0  0
   55.6470   13.7970   46.1280 C   0  0  0  0  0  0
   54.5470   13.6580   46.5480 N   0  0  0  0  0  0
   57.3820   11.7960   46.8740 C   0  0  0  0  0  0
   57.1400   11.6230   44.3940 C   0  0  0  0  0  0
   59.5060   16.6200   42.2990 C   0  0  0  0  0  0
   60.8690   16.6040   41.6300 C   0  0  0  0  0  0
   61.4430   18.0040   41.7420 C   0  0  0  0  0  0
   50.2056    9.6358   45.4555 H   0  0  0  0  0  0
   51.8294   11.2457   44.4429 H   0  0  0  0  0  0
   52.5017    8.5439   41.1337 H   0  0  0  0  0  0
   50.8208    7.0013   42.0851 H   0  0  0  0  0  0
   52.9711   12.3624   43.8564 H   0  0  0  0  0  0
   54.5428   14.0066   42.8781 H   0  0  0  0  0  0
   55.4516   11.3148   39.6726 H   0  0  0  0  0  0
   53.7965    9.6841   40.5876 H   0  0  0  0  0  0
   56.3721   13.5106   39.6325 H   0  0  0  0  0  0
   55.7531   14.7739   40.7494 H   0  0  0  0  0  0
   57.5512   14.5489   46.4002 H   0  0  0  0  0  0
   59.5959   13.1906   46.2259 H   0  0  0  0  0  0
   59.6328   11.6482   45.3059 H   0  0  0  0  0  0
   57.7595   12.4059   47.7080 H   0  0  0  0  0  0
   57.8760   10.8132   46.8854 H   0  0  0  0  0  0
   56.2955   11.6615   46.9805 H   0  0  0  0  0  0
   57.3479   12.1180   43.4339 H   0  0  0  0  0  0
   56.0544   11.4891   44.5100 H   0  0  0  0  0  0
   57.6349   10.6408   44.4150 H   0  0  0  0  0  0
   58.9060   17.3352   41.7173 H   0  0  0  0  0  0
   59.6825   17.0239   43.3068 H   0  0  0  0  0  0
   61.5193   15.8782   42.1401 H   0  0  0  0  0  0
   60.7560   16.3164   40.5743 H   0  0  0  0  0  0
   62.4346   18.0328   41.2666 H   0  0  0  0  0  0
   61.5370   18.2779   42.8032 H   0  0  0  0  0  0
   60.7736   18.7162   41.2374 H   0  0  0  0  0  0
  1  2  1  0  0  0
  1  3  2  0  0  0
  1  7  1  0  0  0
  3  4  1  0  0  0
  3 33  1  0  0  0
  4  5  2  0  0  0
  4 34  1  0  0  0
  5  6  1  0  0  0
  5  8  1  0  0  0
  6  7  2  0  0  0
  6 35  1  0  0  0
  7 36  1  0  0  0
  8  9  2  0  0  0
  8 13  1  0  0  0
  9 10  1  0  0  0
  9 37  1  0  0  0
 10 11  2  0  0  0
 10 38  1  0  0  0
 11 12  1  0  0  0
 11 14  1  0  0  0
 12 13  2  0  0  0
 12 39  1  0  0  0
 13 40  1  0  0  0
 14 15  1  0  0  0
 14 41  1  0  0  0
 14 42  1  0  0  0
 15 16  1  0  0  0
 16 17  2  0  0  0
 17 18  1  0  0  0
 17 30  1  0  0  0
 18 19  2  0  0  0
 18 24  1  0  0  0
 19 20  1  0  0  0
 19 21  1  0  0  0
 21 22  1  0  0  0
 21 26  1  0  0  0
 21 43  1  0  0  0
 22 23  1  0  0  0
 22 28  1  0  0  0
 22 29  1  0  0  0
 23 24  1  0  0  0
 23 44  1  0  0  0
 23 45  1  0  0  0
 24 25  2  0  0  0
 26 27  3  0  0  0
 28 46  1  0  0  0
 28 47  1  0  0  0
 28 48  1  0  0  0
 29 49  1  0  0  0
 29 50  1  0  0  0
 29 51  1  0  0  0
 30 31  1  0  0  0
 30 52  1  0  0  0
 30 53  1  0  0  0
 31 32  1  0  0  0
 31 54  1  0  0  0
 31 55  1  0  0  0
 32 56  1  0  0  0
 32 57  1  0  0  0
 32 58  1  0  0  0
M  CHG  1  20  -1
M  END
> <s_m_source_file>
../3qsb_ligand.sdf

> <i_m_source_file_index>
1

> <s_epik_input>
RmMxW2NIXVtjSF1jKFtjSF1bY0hdMSktYzJbY0hdW2NIXWMoW2NIXVtjSF0yKVtDSDJdTy9OPUMoW0NIMl1bQ0gyXVtDSDNdKVxbQ0BIXShDKD1PKVtDSDJdMylDKD1PKVtDQEBIXShDI04pQzMoW0NIM10pW0NIM10=

> <s_epik_cmdline>
J2VwaWtfYXBwJywgJy1pbWFlJywgJ2xpZ2FuZF9wcm8ubWFlJywgJy1vbWFlJywgJ2xpZ2FuZF9wcmVwLm1hZScsICctbXMnLCAnMScsICctcGgnLCAnNycsICctcGh0JywgJzAuNScsICctbnQn

> <r_lp_tautomer_probability>
1

> <r_epik_Ionization_Penalty>
  0.0083

> <r_epik_Ionization_Penalty_Charging>
  0.0083

> <r_epik_Ionization_Penalty_Neutral>
  0.0000

> <r_epik_State_Penalty>
 -0.0000

> <r_epik_Charging_Adjusted_Penalty>
0.00825109013159013

> <i_epik_Tot_Q>
-1

> <i_epik_Tot_abs_Q>
1

> <s_epik_Chemistry_Notes>
This compound has an imine and may undergo hydrolysis.

$$$$
