3qsd_ligand
                    3D
 Schrodinger Suite 2020-3.
 57 57  0  0  1  0            999 V2000
   19.0750    7.7230   19.2750 C   0  0  0  0  0  0
   18.6270    9.1290   19.5670 C   0  0  0  0  0  0
   19.6940    9.9450   20.2700 C   0  0  0  0  0  0
   19.2620   11.3560   20.4030 N   0  0  0  0  0  0
   18.5250   11.8080   21.4210 C   0  0  0  0  0  0
   18.1870   11.0440   22.3640 O   0  0  0  0  0  0
   18.1510   13.2470   21.5440 C   0  0  1  0  0  0
   19.3680   14.0110   21.4040 O   0  0  0  0  0  0
   17.2300   13.6960   20.3770 C   0  0  0  0  0  0
   16.7930   15.0690   20.7430 C   0  0  0  0  0  0
   16.0510   15.3340   21.6950 O   0  0  0  0  0  0
   17.3580   16.0080   19.9970 N   0  0  0  0  0  0
   17.3340   17.4030   20.3540 C   0  0  2  0  0  0
   16.0280   18.1060   20.2290 C   0  0  0  0  0  0
   15.1980   17.6910   19.4260 O   0  0  0  0  0  0
   18.4160   18.1550   19.4680 C   0  0  2  0  0  0
   18.0910   18.0060   17.9750 C   0  0  0  0  0  0
   19.8320   17.6150   19.8570 C   0  0  0  0  0  0
   18.9170   19.0120   17.1900 C   0  0  0  0  0  0
   15.8680   19.1840   20.9930 N   0  0  0  0  0  0
   14.7080   20.0170   20.7880 C   0  0  2  0  0  0
   14.9710   20.9790   19.6030 C   0  0  0  0  0  0
   16.1240   21.0770   19.0430 O   0  5  0  0  0  0
   14.6410   20.8760   22.0290 C   0  0  0  0  0  0
   16.0750   20.9470   22.4740 C   0  0  0  0  0  0
   16.7690   19.6830   22.0280 C   0  0  0  0  0  0
   14.0340   21.7120   19.2100 O   0  0  0  0  0  0
   18.2656    7.1784   18.7667 H   0  0  0  0  0  0
   19.3236    7.2141   20.2180 H   0  0  0  0  0  0
   19.9633    7.7484   18.6268 H   0  0  0  0  0  0
   18.3784    9.6379   18.6240 H   0  0  0  0  0  0
   17.7386    9.1036   20.2152 H   0  0  0  0  0  0
   19.8724    9.5292   21.2726 H   0  0  0  0  0  0
   20.6262    9.9094   19.6872 H   0  0  0  0  0  0
   19.5482   12.0932   19.6384 H   0  0  0  0  0  0
   17.6890   13.4028   22.5300 H   0  0  0  0  0  0
   20.1902   13.8720   22.1213 H   0  0  0  0  0  0
   17.7997   13.6872   19.4361 H   0  0  0  0  0  0
   16.3777   13.0054   20.2960 H   0  0  0  0  0  0
   17.8595   15.6854   19.0727 H   0  0  0  0  0  0
   17.4930   17.3553   21.4414 H   0  0  0  0  0  0
   18.4092   19.2426   19.6325 H   0  0  0  0  0  0
   18.3366   16.9854   17.6464 H   0  0  0  0  0  0
   17.0198   18.1959   17.8122 H   0  0  0  0  0  0
   19.9939   17.7544   20.9361 H   0  0  0  0  0  0
   20.6014   18.1663   19.2965 H   0  0  0  0  0  0
   19.8963   16.5446   19.6119 H   0  0  0  0  0  0
   18.6919   18.9141   16.1177 H   0  0  0  0  0  0
   19.9868   18.8197   17.3592 H   0  0  0  0  0  0
   18.6700   20.0302   17.5250 H   0  0  0  0  0  0
   13.8295   19.3769   20.6189 H   0  0  0  0  0  0
   14.2308   21.8632   21.7699 H   0  0  0  0  0  0
   13.9918   20.3934   22.7744 H   0  0  0  0  0  0
   16.5572   21.8245   22.0185 H   0  0  0  0  0  0
   16.1150   21.0343   23.5698 H   0  0  0  0  0  0
   16.8559   18.9353   22.8301 H   0  0  0  0  0  0
   17.7613   19.8695   21.5915 H   0  0  0  0  0  0
  1  2  1  0  0  0
  1 28  1  0  0  0
  1 29  1  0  0  0
  1 30  1  0  0  0
  2  3  1  0  0  0
  2 31  1  0  0  0
  2 32  1  0  0  0
  3  4  1  0  0  0
  3 33  1  0  0  0
  3 34  1  0  0  0
  4  5  1  0  0  0
  4 35  1  0  0  0
  5  6  2  0  0  0
  5  7  1  0  0  0
  7  8  1  0  0  0
  7  9  1  0  0  0
  7 36  1  0  0  0
  8 37  1  0  0  0
  9 10  1  0  0  0
  9 38  1  0  0  0
  9 39  1  0  0  0
 10 11  2  0  0  0
 10 12  1  0  0  0
 12 13  1  0  0  0
 12 40  1  0  0  0
 13 14  1  0  0  0
 13 16  1  0  0  0
 13 41  1  0  0  0
 14 15  2  0  0  0
 14 20  1  0  0  0
 16 17  1  0  0  0
 16 18  1  0  0  0
 16 42  1  0  0  0
 17 19  1  0  0  0
 17 43  1  0  0  0
 17 44  1  0  0  0
 18 45  1  0  0  0
 18 46  1  0  0  0
 18 47  1  0  0  0
 19 48  1  0  0  0
 19 49  1  0  0  0
 19 50  1  0  0  0
 20 21  1  0  0  0
 20 26  1  0  0  0
 21 22  1  0  0  0
 21 24  1  0  0  0
 21 51  1  0  0  0
 22 23  1  0  0  0
 22 27  2  0  0  0
 24 25  1  0  0  0
 24 52  1  0  0  0
 24 53  1  0  0  0
 25 26  1  0  0  0
 25 54  1  0  0  0
 25 55  1  0  0  0
 26 56  1  0  0  0
 26 57  1  0  0  0
M  CHG  1  23  -1
M  END
> <s_m_source_file>
../3qsd_ligand.sdf

> <i_m_source_file_index>
1

> <s_epik_input>
W0NIM11bQ0gyXVtDSDJdW05IXUMoPU8pW0NAQEhdKFtPSF0pW0NIMl1DKD1PKVtOSF1bQ0BASF0oW0NAQEhdKFtDSDNdKVtDSDJdW0NIM10pQyg9TylOMVtDQEhdKEMoPU8pW09IXSlbQ0gyXVtDSDJdW0NIMl0x

> <s_epik_cmdline>
J2VwaWtfYXBwJywgJy1pbWFlJywgJ2xpZ2FuZF9wcm8ubWFlJywgJy1vbWFlJywgJ2xpZ2FuZF9wcmVwLm1hZScsICctbXMnLCAnMScsICctcGgnLCAnNycsICctcGh0JywgJzAuNScsICctbnQn

> <r_lp_tautomer_probability>
1

> <r_epik_Ionization_Penalty>
  0.0004

> <r_epik_Ionization_Penalty_Charging>
  0.0004

> <r_epik_Ionization_Penalty_Neutral>
  0.0000

> <r_epik_State_Penalty>
 -0.0000

> <r_epik_Charging_Adjusted_Penalty>
0.000379361280764294

> <i_epik_Tot_Q>
-1

> <i_epik_Tot_abs_Q>
1

$$$$
