3qt7_ligand
                    3D
 Schrodinger Suite 2020-3.
 28 27  0  0  1  0            999 V2000
   16.7630  -23.6440  -18.3890 O   0  5  0  0  0  0
   15.9520  -14.5410  -20.0410 O   0  0  0  0  0  0
   17.9760  -18.6900  -19.5180 O   0  5  0  0  0  0
   15.8770  -23.2580  -16.4250 O   0  0  0  0  0  0
   15.0760  -23.1430  -20.5210 O   0  0  0  0  0  0
   17.4640  -15.5300  -18.4030 O   0  5  0  0  0  0
   18.0800  -15.6950  -20.8110 O   0  5  0  0  0  0
   16.7890  -18.5750  -21.7230 O   0  0  0  0  0  0
   12.5020  -22.7510  -21.4000 F   0  0  0  0  0  0
   12.8150  -23.2140  -20.1750 C   0  0  0  0  0  0
   15.5000  -20.6620  -19.7490 C   0  0  0  0  0  0
   14.1600  -21.3100  -19.4600 C   0  0  0  0  0  0
   14.3400  -23.4040  -18.2220 C   0  0  0  0  0  0
   15.5530  -19.3010  -19.5710 O   0  0  0  0  0  0
   16.1140  -16.9620  -19.8450 O   0  0  0  0  0  0
   15.7370  -23.4360  -17.6580 C   0  0  0  0  0  0
   14.1090  -22.7790  -19.5890 C   0  0  2  0  0  0
   16.9380  -15.6560  -19.8100 P   0  0  0  0  0  0
   16.6630  -18.3750  -20.2240 P   0  0  1  0  0  0
   15.0216  -22.7567  -21.5495 H   0  0  0  0  0  0
   12.0471  -22.8946  -19.4551 H   0  0  0  0  0  0
   12.8607  -24.3128  -20.1989 H   0  0  0  0  0  0
   16.2652  -21.0903  -19.0849 H   0  0  0  0  0  0
   15.7786  -20.8474  -20.7969 H   0  0  0  0  0  0
   13.8589  -21.0842  -18.4264 H   0  0  0  0  0  0
   13.4047  -20.9166  -20.1562 H   0  0  0  0  0  0
   13.9614  -24.4319  -18.3220 H   0  0  0  0  0  0
   13.6844  -22.8360  -17.5456 H   0  0  0  0  0  0
  1 16  1  0  0  0
  2 18  2  0  0  0
  3 19  1  0  0  0
  4 16  2  0  0  0
  5 17  1  0  0  0
  5 20  1  0  0  0
  6 18  1  0  0  0
  7 18  1  0  0  0
  8 19  2  0  0  0
  9 10  1  0  0  0
 10 17  1  0  0  0
 10 21  1  0  0  0
 10 22  1  0  0  0
 11 12  1  0  0  0
 11 14  1  0  0  0
 11 23  1  0  0  0
 11 24  1  0  0  0
 12 17  1  0  0  0
 12 25  1  0  0  0
 12 26  1  0  0  0
 13 16  1  0  0  0
 13 17  1  0  0  0
 13 27  1  0  0  0
 13 28  1  0  0  0
 14 19  1  0  0  0
 15 18  1  0  0  0
 15 19  1  0  0  0
M  CHG  4   1  -1   3  -1   6  -1   7  -1
M  END
> <s_m_source_file>
../3qt7_ligand.sdf

> <i_m_source_file_index>
1

> <s_epik_input>
W09IXUMoPU8pW0NIMl1bQ0BAXShbT0hdKShbQ0gyXUYpW0NIMl1bQ0gyXU9bUEBdKD1PKShbT0hdKU9QKD1PKShbT0hdKVtPSF0=

> <s_epik_cmdline>
J2VwaWtfYXBwJywgJy1pbWFlJywgJ2xpZ2FuZF9wcm8ubWFlJywgJy1vbWFlJywgJ2xpZ2FuZF9wcmVwLm1hZScsICctbXMnLCAnMScsICctcGgnLCAnNycsICctcGh0JywgJzAuNScsICctbnQn

> <r_epik_Ionization_Penalty>
  0.0883

> <r_epik_Ionization_Penalty_Charging>
  0.0883

> <r_epik_Ionization_Penalty_Neutral>
  0.0000

> <r_epik_State_Penalty>
  0.0757

> <r_epik_Charging_Adjusted_Penalty>
0.163990899422427

> <i_epik_Tot_Q>
-4

> <i_epik_Tot_abs_Q>
4

$$$$
