3qtf_ligand
                    3D
 Schrodinger Suite 2020-3.
 63 66  0  0  1  0            999 V2000
   40.9670    9.5160   23.0940 C   0  0  0  0  0  0
   39.8260   10.3680   23.5450 C   0  0  0  0  0  0
   38.4780    9.9980   23.6320 C   0  0  0  0  0  0
   37.7700   11.1130   24.0970 N   0  0  0  0  0  0
   38.6560   12.1500   24.2970 C   0  0  0  0  0  0
   39.9260   11.7080   24.0140 C   0  0  0  0  0  0
   41.0750   12.5990   24.1560 C   0  0  0  0  0  0
   42.2250   12.1610   24.1540 O   0  0  0  0  0  0
   40.8080   14.0170   24.6660 C   0  0  0  0  0  0
   39.5280   14.1530   25.5310 C   0  0  0  0  0  0
   38.3090   13.5110   24.8140 C   0  0  0  0  0  0
   39.2290   15.6360   25.8520 C   0  0  0  0  0  0
   39.7600   13.4120   26.8590 C   0  0  0  0  0  0
   36.3830   11.2190   24.3390 C   0  0  0  0  0  0
   35.5670   12.1320   23.6770 C   0  0  0  0  0  0
   34.1870   12.0850   23.9000 C   0  0  0  0  0  0
   33.6230   11.1340   24.7800 C   0  0  0  0  0  0
   34.4490   10.2110   25.4670 C   0  0  0  0  0  0
   35.8280   10.3190   25.2510 C   0  0  0  0  0  0
   33.9420    9.2800   26.3700 N   0  0  0  0  0  0
   34.7250    8.3350   27.1730 C   0  0  2  0  0  0
   35.1630    7.1110   26.3490 C   0  0  0  0  0  0
   35.7730    7.4700   25.0270 N   0  3  0  0  0  0
   36.9200    6.6230   24.5420 C   0  0  0  0  0  0
   38.1060    7.4870   24.1080 C   0  0  0  0  0  0
   37.8270    8.7010   23.2000 C   0  0  0  0  0  0
   33.8410    7.8840   28.3480 C   0  0  0  0  0  0
   32.1520   11.1360   25.0010 C   0  0  0  0  0  0
   31.6910   10.6610   26.0290 O   0  0  0  0  0  0
   31.3740   11.7050   24.0170 N   0  0  0  0  0  0
   40.5891    8.5295   22.7873 H   0  0  0  0  0  0
   41.6825    9.3939   23.9205 H   0  0  0  0  0  0
   41.4696    9.9972   22.2420 H   0  0  0  0  0  0
   41.6531   14.3484   25.2872 H   0  0  0  0  0  0
   40.6924   14.6987   23.8105 H   0  0  0  0  0  0
   38.0095   14.1565   23.9752 H   0  0  0  0  0  0
   37.4775   13.4304   25.5297 H   0  0  0  0  0  0
   39.0593   16.1869   24.9151 H   0  0  0  0  0  0
   40.0846   16.0753   26.3859 H   0  0  0  0  0  0
   38.3305   15.7006   26.4833 H   0  0  0  0  0  0
   39.9750   12.3527   26.6551 H   0  0  0  0  0  0
   38.8584   13.4894   27.4844 H   0  0  0  0  0  0
   40.6125   13.8641   27.3871 H   0  0  0  0  0  0
   35.9952   12.8693   22.9979 H   0  0  0  0  0  0
   33.5363   12.7931   23.3869 H   0  0  0  0  0  0
   36.4971    9.6728   25.8191 H   0  0  0  0  0  0
   32.8452    9.2948   26.4524 H   0  0  0  0  0  0
   35.6267    8.8706   27.5046 H   0  0  0  0  0  0
   35.9130    6.5380   26.9140 H   0  0  0  0  0  0
   34.2898    6.4732   26.1474 H   0  0  0  0  0  0
   35.0074    7.4038   24.2399 H   0  0  0  0  0  0
   36.1658    8.4965   25.0711 H   0  0  0  0  0  0
   37.2512    5.9560   25.3516 H   0  0  0  0  0  0
   36.5929    6.0208   23.6815 H   0  0  0  0  0  0
   38.6002    7.9047   24.9975 H   0  0  0  0  0  0
   38.8228    6.8702   23.5460 H   0  0  0  0  0  0
   36.7347    8.8286   23.1778 H   0  0  0  0  0  0
   38.1846    8.4277   22.1963 H   0  0  0  0  0  0
   33.5316    8.7630   28.9325 H   0  0  0  0  0  0
   34.4096    7.1970   28.9920 H   0  0  0  0  0  0
   32.9496    7.3695   27.9598 H   0  0  0  0  0  0
   31.8454   12.1168   23.1125 H   0  0  0  0  0  0
   30.2813   11.7476   24.1357 H   0  0  0  0  0  0
  1  2  1  0  0  0
  1 31  1  0  0  0
  1 32  1  0  0  0
  1 33  1  0  0  0
  2  3  2  0  0  0
  2  6  1  0  0  0
  3  4  1  0  0  0
  3 26  1  0  0  0
  4  5  1  0  0  0
  4 14  1  0  0  0
  5  6  2  0  0  0
  5 11  1  0  0  0
  6  7  1  0  0  0
  7  8  2  0  0  0
  7  9  1  0  0  0
  9 10  1  0  0  0
  9 34  1  0  0  0
  9 35  1  0  0  0
 10 11  1  0  0  0
 10 12  1  0  0  0
 10 13  1  0  0  0
 11 36  1  0  0  0
 11 37  1  0  0  0
 12 38  1  0  0  0
 12 39  1  0  0  0
 12 40  1  0  0  0
 13 41  1  0  0  0
 13 42  1  0  0  0
 13 43  1  0  0  0
 14 15  2  0  0  0
 14 19  1  0  0  0
 15 16  1  0  0  0
 15 44  1  0  0  0
 16 17  2  0  0  0
 16 45  1  0  0  0
 17 18  1  0  0  0
 17 28  1  0  0  0
 18 19  2  0  0  0
 18 20  1  0  0  0
 19 46  1  0  0  0
 20 21  1  0  0  0
 20 47  1  0  0  0
 21 22  1  0  0  0
 21 27  1  0  0  0
 21 48  1  0  0  0
 22 23  1  0  0  0
 22 49  1  0  0  0
 22 50  1  0  0  0
 23 24  1  0  0  0
 23 51  1  0  0  0
 23 52  1  0  0  0
 24 25  1  0  0  0
 24 53  1  0  0  0
 24 54  1  0  0  0
 25 26  1  0  0  0
 25 55  1  0  0  0
 25 56  1  0  0  0
 26 57  1  0  0  0
 26 58  1  0  0  0
 27 59  1  0  0  0
 27 60  1  0  0  0
 27 61  1  0  0  0
 28 29  2  0  0  0
 28 30  1  0  0  0
 30 62  1  0  0  0
 30 63  1  0  0  0
M  CHG  1  23   1
M  END
> <s_m_source_file>
../3qtf_ligand.sdf

> <i_m_source_file_index>
1

> <s_epik_input>
W0NIMl0xQyhbQ0gzXSkoW0NIM10pW0NIMl1DKD1PKWMoYzJbQ0gzXSljMW4oYzIzKWM0W2NIXVtjSF1jKEMoPU8pW05IMl0pYyhbY0hdNClbTkhdW0NAQEhdKFtDSDNdKVtDSDJdW05IMitdW0NIMl1bQ0gyXVtDSDJdMw==

> <s_epik_cmdline>
J2VwaWtfYXBwJywgJy1pbWFlJywgJ2xpZ2FuZF9wcm8ubWFlJywgJy1vbWFlJywgJ2xpZ2FuZF9wcmVwLm1hZScsICctbXMnLCAnMScsICctcGgnLCAnNycsICctcGh0JywgJzAuNScsICctbnQn

> <r_lp_tautomer_probability>
1

> <r_epik_Ionization_Penalty>
  0.0016

> <r_epik_Ionization_Penalty_Charging>
  0.0016

> <r_epik_Ionization_Penalty_Neutral>
  0.0000

> <r_epik_State_Penalty>
 -0.0000

> <r_epik_Charging_Adjusted_Penalty>
0.00155488056243079

> <i_epik_Tot_Q>
1

> <i_epik_Tot_abs_Q>
1

$$$$
