3qti_ligand
                    3D
 Schrodinger Suite 2020-3.
 42 46  0  0  1  0            999 V2000
   12.8950   26.7010  -15.7680 C   0  0  0  0  0  0
   12.2710   27.4330  -14.8030 N   0  0  0  0  0  0
   12.2100   25.6260  -16.3870 C   0  0  0  0  0  0
   16.2280   22.6330  -17.6010 N   0  0  0  0  0  0
   12.8310   24.8610  -17.4040 C   0  0  0  0  0  0
   17.1110   23.5310  -17.0700 N   0  0  0  0  0  0
   14.1710   25.1290  -17.7900 C   0  0  0  0  0  0
   20.1790   25.8430  -15.3800 N   0  0  0  0  0  0
   14.8480   24.3290  -18.8940 C   0  0  0  0  0  0
   20.7550   24.8170  -14.7140 N   0  0  0  0  0  0
   15.1780   22.9410  -18.4430 C   0  0  0  0  0  0
   15.1800   20.6930  -18.0700 N   0  0  0  0  0  0
   18.0450   22.9740  -16.2770 C   0  0  0  0  0  0
   19.0320   23.9190  -15.7360 C   0  0  0  0  0  0
   19.1550   25.3070  -16.0280 C   0  0  0  0  0  0
   20.0930   23.6300  -14.9220 C   0  0  0  0  0  0
   21.9520   25.0550  -13.9380 C   0  0  0  0  0  0
   18.1130   21.5670  -16.0080 C   0  0  0  0  0  0
   17.1980   20.7030  -16.5620 C   0  0  0  0  0  0
   16.1870   21.2340  -17.4020 C   0  0  0  0  0  0
   14.5490   21.7550  -18.7070 C   0  0  0  0  0  0
   14.8910   26.1790  -17.1570 C   0  0  0  0  0  0
   14.2540   26.9650  -16.1600 C   0  0  0  0  0  0
   14.9670   27.9880  -15.4960 C   0  0  0  0  0  0
   14.3150   28.7300  -14.4810 C   0  0  0  0  0  0
   12.9660   28.4180  -14.1810 C   0  0  0  0  0  0
   11.1932   25.3852  -16.0767 H   0  0  0  0  0  0
   12.2765   24.0607  -17.8940 H   0  0  0  0  0  0
   14.1766   24.2620  -19.7627 H   0  0  0  0  0  0
   15.7816   24.8298  -19.1899 H   0  0  0  0  0  0
   18.4933   25.8569  -16.6972 H   0  0  0  0  0  0
   20.3603   22.6533  -14.5187 H   0  0  0  0  0  0
   22.2116   26.1230  -13.9827 H   0  0  0  0  0  0
   22.7800   24.4588  -14.3491 H   0  0  0  0  0  0
   21.7747   24.7642  -12.8921 H   0  0  0  0  0  0
   18.8974   21.1789  -15.3583 H   0  0  0  0  0  0
   17.2489   19.6331  -16.3597 H   0  0  0  0  0  0
   13.6651   21.6556  -19.3370 H   0  0  0  0  0  0
   15.9256   26.3796  -17.4352 H   0  0  0  0  0  0
   16.0023   28.2028  -15.7606 H   0  0  0  0  0  0
   14.8380   29.5213  -13.9441 H   0  0  0  0  0  0
   12.4603   28.9997  -13.4103 H   0  0  0  0  0  0
  1  2  2  0  0  0
  1  3  1  0  0  0
  1 23  1  0  0  0
  2 26  1  0  0  0
  3  5  2  0  0  0
  3 27  1  0  0  0
  4  6  1  0  0  0
  4 11  1  0  0  0
  4 20  1  0  0  0
  5  7  1  0  0  0
  5 28  1  0  0  0
  6 13  2  0  0  0
  7  9  1  0  0  0
  7 22  2  0  0  0
  8 10  1  0  0  0
  8 15  2  0  0  0
  9 11  1  0  0  0
  9 29  1  0  0  0
  9 30  1  0  0  0
 10 16  1  0  0  0
 10 17  1  0  0  0
 11 21  2  0  0  0
 12 20  2  0  0  0
 12 21  1  0  0  0
 13 14  1  0  0  0
 13 18  1  0  0  0
 14 15  1  0  0  0
 14 16  2  0  0  0
 15 31  1  0  0  0
 16 32  1  0  0  0
 17 33  1  0  0  0
 17 34  1  0  0  0
 17 35  1  0  0  0
 18 19  2  0  0  0
 18 36  1  0  0  0
 19 20  1  0  0  0
 19 37  1  0  0  0
 21 38  1  0  0  0
 22 23  1  0  0  0
 22 39  1  0  0  0
 23 24  2  0  0  0
 24 25  1  0  0  0
 24 40  1  0  0  0
 25 26  2  0  0  0
 25 41  1  0  0  0
 26 42  1  0  0  0
M  END
> <s_m_source_file>
../3qti_ligand.sdf

> <i_m_source_file_index>
1

> <s_epik_input>
bjFbY0hdW2NIXVtjSF1jKGMxMilbY0hdYyhbY0hdW2NIXTIpW0NIMl1jM1tjSF1uYyhuMzQpW2NIXVtjSF1jKG40KS1jKFtjSF01KVtjSF1ubjVbQ0gzXQ==

> <s_epik_cmdline>
J2VwaWtfYXBwJywgJy1pbWFlJywgJ2xpZ2FuZF9wcm8ubWFlJywgJy1vbWFlJywgJ2xpZ2FuZF9wcmVwLm1hZScsICctbXMnLCAnMScsICctcGgnLCAnNycsICctcGh0JywgJzAuNScsICctbnQn

> <r_lp_tautomer_probability>
1

> <r_epik_Ionization_Penalty>
  0.0091

> <r_epik_Ionization_Penalty_Charging>
  0.0000

> <r_epik_Ionization_Penalty_Neutral>
  0.0091

> <r_epik_State_Penalty>
 -0.0000

> <r_epik_Charging_Adjusted_Penalty>
0

> <i_epik_Tot_Q>
0

> <i_epik_Tot_abs_Q>
0

$$$$
