3qto_ligand
                    3D
 Schrodinger Suite 2020-3.
 55 57  0  0  1  0            999 V2000
   16.2450  -16.0150   22.9050 N   0  3  0  0  0  0
   17.5270  -15.3320   22.9680 C   0  0  1  0  0  0
   17.3150  -13.9460   22.4080 C   0  0  0  0  0  0
   16.4100  -13.2450   22.8480 O   0  0  0  0  0  0
   17.9810  -15.3150   24.4320 C   0  0  0  0  0  0
   19.3940  -14.7950   24.5660 C   0  0  0  0  0  0
   19.6390  -13.7000   25.3810 C   0  0  0  0  0  0
   20.4430  -15.4020   23.8780 C   0  0  0  0  0  0
   20.9260  -13.2020   25.5000 C   0  0  0  0  0  0
   21.7350  -14.9070   24.0050 C   0  0  0  0  0  0
   21.9760  -13.8030   24.8140 C   0  0  0  0  0  0
   18.1100  -13.5150   21.4340 N   0  0  0  0  0  0
   17.9050  -12.1760   20.8580 C   0  0  2  0  0  0
   16.5020  -12.0120   20.3250 C   0  0  0  0  0  0
   15.9740  -12.8780   19.6250 O   0  0  0  0  0  0
   18.9370  -12.0970   19.7400 C   0  0  0  0  0  0
   19.9880  -13.1470   20.0810 C   0  0  0  0  0  0
   19.2240  -14.2400   20.8090 C   0  0  0  0  0  0
   14.4710  -10.6000   20.2420 C   0  0  0  0  0  0
   13.4610  -11.2050   21.1990 C   0  0  0  0  0  0
   12.8040  -10.4460   22.1600 C   0  0  0  0  0  0
   11.2320  -10.1850   24.0120 C   0  0  0  0  0  0
   11.6370  -12.3130   22.9410 C   0  0  0  0  0  0
   12.2650  -13.1190   22.0010 C   0  0  0  0  0  0
   13.1920  -12.5690   21.1300 C   0  0  0  0  0  0
   15.8480  -10.9030   20.6690 N   0  0  0  0  0  0
   11.9160  -11.0010   22.9970 N   0  0  0  0  0  0
   15.8947  -16.0417   21.8626 H   0  0  0  0  0  0
   15.5122  -15.4772   23.5245 H   0  0  0  0  0  0
   16.3583  -17.0428   23.2803 H   0  0  0  0  0  0
   18.2801  -15.8534   22.3590 H   0  0  0  0  0  0
   17.3131  -14.6642   25.0155 H   0  0  0  0  0  0
   17.9452  -16.3363   24.8389 H   0  0  0  0  0  0
   18.8200  -13.2320   25.9271 H   0  0  0  0  0  0
   20.2499  -16.2648   23.2405 H   0  0  0  0  0  0
   21.1166  -12.3358   26.1337 H   0  0  0  0  0  0
   22.5575  -15.3834   23.4715 H   0  0  0  0  0  0
   22.9874  -13.4083   24.9108 H   0  0  0  0  0  0
   18.0233  -11.3952   21.6238 H   0  0  0  0  0  0
   18.4514  -12.3127   18.7769 H   0  0  0  0  0  0
   19.3720  -11.0870   19.7132 H   0  0  0  0  0  0
   20.4481  -13.5198   19.1540 H   0  0  0  0  0  0
   20.7624  -12.6968   20.7194 H   0  0  0  0  0  0
   19.8280  -14.7269   21.5888 H   0  0  0  0  0  0
   18.8264  -15.0028   20.1234 H   0  0  0  0  0  0
   14.3146  -11.0130   19.2345 H   0  0  0  0  0  0
   14.3418   -9.5080   20.2147 H   0  0  0  0  0  0
   13.0088   -9.3685   22.2444 H   0  0  0  0  0  0
   11.5661   -9.1403   23.9286 H   0  0  0  0  0  0
   11.4735  -10.5684   25.0143 H   0  0  0  0  0  0
   10.1449  -10.2362   23.8520 H   0  0  0  0  0  0
   10.9163  -12.7461   23.6346 H   0  0  0  0  0  0
   12.0282  -14.1918   21.9466 H   0  0  0  0  0  0
   13.7045  -13.2087   20.3964 H   0  0  0  0  0  0
   16.3942  -10.1938   21.3083 H   0  0  0  0  0  0
  1  2  1  0  0  0
  1 28  1  0  0  0
  1 29  1  0  0  0
  1 30  1  0  0  0
  2  3  1  0  0  0
  2  5  1  0  0  0
  2 31  1  0  0  0
  3  4  2  0  0  0
  3 12  1  0  0  0
  5  6  1  0  0  0
  5 32  1  0  0  0
  5 33  1  0  0  0
  6  7  2  0  0  0
  6  8  1  0  0  0
  7  9  1  0  0  0
  7 34  1  0  0  0
  8 10  2  0  0  0
  8 35  1  0  0  0
  9 11  2  0  0  0
  9 36  1  0  0  0
 10 11  1  0  0  0
 10 37  1  0  0  0
 11 38  1  0  0  0
 12 13  1  0  0  0
 12 18  1  0  0  0
 13 14  1  0  0  0
 13 16  1  0  0  0
 13 39  1  0  0  0
 14 15  2  0  0  0
 14 26  1  0  0  0
 16 17  1  0  0  0
 16 40  1  0  0  0
 16 41  1  0  0  0
 17 18  1  0  0  0
 17 42  1  0  0  0
 17 43  1  0  0  0
 18 44  1  0  0  0
 18 45  1  0  0  0
 19 20  1  0  0  0
 19 26  1  0  0  0
 19 46  1  0  0  0
 19 47  1  0  0  0
 20 21  2  0  0  0
 20 25  1  0  0  0
 21 27  1  0  0  0
 21 48  1  0  0  0
 22 27  1  0  0  0
 22 49  1  0  0  0
 22 50  1  0  0  0
 22 51  1  0  0  0
 23 24  1  0  0  0
 23 27  1  0  0  0
 23 52  1  0  0  0
 24 25  2  0  0  0
 24 53  1  0  0  0
 25 54  1  0  0  0
 26 55  1  0  0  0
M  CHG  1   1   1
M  END
> <s_m_source_file>
../3qto_ligand.sdf

> <i_m_source_file_index>
1

> <s_epik_input>
W2NIXTFbY0hdW2NIXVtjSF1bY0hdYzFbQ0gyXVtDQEBIXShbTkgzK10pQyg9TylOMltDQEBIXShbQ0gyXVtDSDJdW0NIMl0yKUMoPU8pW05IXVtDSDJdQzM9W0NIXU4oW0NIM10pW0NIMl1bQ0hdPVtDSF0z

> <s_epik_cmdline>
J2VwaWtfYXBwJywgJy1pbWFlJywgJ2xpZ2FuZF9wcm8ubWFlJywgJy1vbWFlJywgJ2xpZ2FuZF9wcmVwLm1hZScsICctbXMnLCAnMScsICctcGgnLCAnNycsICctcGh0JywgJzAuNScsICctbnQn

> <r_epik_Ionization_Penalty>
  0.1805

> <r_epik_Ionization_Penalty_Charging>
  0.1805

> <r_epik_Ionization_Penalty_Neutral>
  0.0000

> <r_epik_State_Penalty>
  0.1700

> <r_epik_Charging_Adjusted_Penalty>
0.350449203061821

> <i_epik_Tot_Q>
1

> <i_epik_Tot_abs_Q>
1

$$$$
