3qtq_ligand
                    3D
 Schrodinger Suite 2020-3.
 34 35  0  0  1  0            999 V2000
  -65.3260  -82.0010  -86.0600 N   0  0  0  0  0  0
  -66.3280  -81.1600  -86.4100 C   0  0  0  0  0  0
  -66.7390  -81.0890  -87.6840 N   0  0  0  0  0  0
  -66.8490  -80.4050  -85.3510 C   0  0  0  0  0  0
  -67.8690  -79.4570  -85.4530 C   0  0  1  0  0  0
  -68.3940  -78.6320  -84.3090 C   0  0  0  0  0  0
  -69.7890  -78.4780  -84.0780 C   0  0  0  0  0  0
  -70.2250  -77.7000  -83.0130 N   0  0  0  0  0  0
  -69.3510  -77.0550  -82.1470 C   0  0  0  0  0  0
  -67.9590  -77.1720  -82.3370 C   0  0  0  0  0  0
  -67.4870  -77.9640  -83.4260 C   0  0  0  0  0  0
  -68.4480  -79.2160  -86.6480 O   0  0  0  0  0  0
  -66.0340  -80.8100  -83.8760 S   0  0  0  0  0  0
  -65.0590  -81.9250  -84.7510 C   0  0  0  0  0  0
  -64.0840  -82.6850  -84.1970 N   0  0  0  0  0  0
  -63.7740  -82.5690  -82.7760 C   0  0  0  0  0  0
  -62.4100  -81.9760  -82.5800 C   0  0  0  0  0  0
  -62.1950  -80.5310  -82.5310 C   0  0  0  0  0  0
  -66.2687  -81.7233  -88.4498 H   0  0  0  0  0  0
  -67.5466  -80.3965  -87.9636 H   0  0  0  0  0  0
  -68.6145  -80.2355  -85.2337 H   0  0  0  0  0  0
  -70.5109  -78.9670  -84.7321 H   0  0  0  0  0  0
  -69.7410  -76.4592  -81.3217 H   0  0  0  0  0  0
  -67.2602  -76.6696  -81.6682 H   0  0  0  0  0  0
  -66.4137  -78.0623  -83.5888 H   0  0  0  0  0  0
  -68.1246  -79.7748  -87.5386 H   0  0  0  0  0  0
  -63.5245  -83.3931  -84.8260 H   0  0  0  0  0  0
  -64.5178  -81.9203  -82.2902 H   0  0  0  0  0  0
  -63.7990  -83.5663  -82.3126 H   0  0  0  0  0  0
  -61.9954  -82.3193  -81.6207 H   0  0  0  0  0  0
  -61.7500  -82.2954  -83.4000 H   0  0  0  0  0  0
  -61.1251  -80.3244  -82.3807 H   0  0  0  0  0  0
  -62.7717  -80.1025  -81.6980 H   0  0  0  0  0  0
  -62.5264  -80.0787  -83.4774 H   0  0  0  0  0  0
  1  2  1  0  0  0
  1 14  2  0  0  0
  2  3  1  0  0  0
  2  4  2  0  0  0
  3 19  1  0  0  0
  3 20  1  0  0  0
  4  5  1  0  0  0
  4 13  1  0  0  0
  5  6  1  0  0  0
  5 12  1  0  0  0
  5 21  1  0  0  0
  6  7  2  0  0  0
  6 11  1  0  0  0
  7  8  1  0  0  0
  7 22  1  0  0  0
  8  9  2  0  0  0
  9 10  1  0  0  0
  9 23  1  0  0  0
 10 11  2  0  0  0
 10 24  1  0  0  0
 11 25  1  0  0  0
 12 26  1  0  0  0
 13 14  1  0  0  0
 14 15  1  0  0  0
 15 16  1  0  0  0
 15 27  1  0  0  0
 16 17  1  0  0  0
 16 28  1  0  0  0
 16 29  1  0  0  0
 17 18  1  0  0  0
 17 30  1  0  0  0
 17 31  1  0  0  0
 18 32  1  0  0  0
 18 33  1  0  0  0
 18 34  1  0  0  0
M  END
> <s_m_source_file>
../3qtq_ligand.sdf

> <i_m_source_file_index>
1

> <s_epik_input>
W0NIM11bQ0gyXVtDSDJdW05IXWMobmMxW05IMl0pc2MxW0NIXShbT0hdKWMyW2NIXW5bY0hdW2NIXVtjSF0y

> <s_epik_cmdline>
J2VwaWtfYXBwJywgJy1pbWFlJywgJ2xpZ2FuZF9wcm8ubWFlJywgJy1vbWFlJywgJ2xpZ2FuZF9wcmVwLm1hZScsICctbXMnLCAnMScsICctcGgnLCAnNycsICctcGh0JywgJzAuNScsICctbnQn

> <r_epik_Ionization_Penalty>
  0.2231

> <r_epik_Ionization_Penalty_Charging>
  0.0000

> <r_epik_Ionization_Penalty_Neutral>
  0.2231

> <r_epik_State_Penalty>
  0.2084

> <r_epik_Charging_Adjusted_Penalty>
0.208373595626595

> <i_epik_Tot_Q>
0

> <i_epik_Tot_abs_Q>
0

$$$$
