3qtr_ligand
                    3D
 Schrodinger Suite 2020-3.
 36 38  0  0  1  0            999 V2000
   91.7380   81.8750  -51.0020 N   0  0  0  0  0  0
   92.8210   81.1210  -51.3000 C   0  0  0  0  0  0
   93.3290   81.1370  -52.5370 N   0  0  0  0  0  0
   93.3100   80.3550  -50.2310 C   0  0  0  0  0  0
   94.4160   79.4660  -50.2440 C   0  0  1  0  0  0
   94.8760   78.6390  -49.0580 C   0  0  0  0  0  0
   93.9210   77.8670  -48.2200 C   0  0  0  0  0  0
   94.3930   77.1080  -47.1180 C   0  0  0  0  0  0
   95.7650   77.0490  -46.7690 C   0  0  0  0  0  0
   96.7440   77.7800  -47.5560 C   0  0  0  0  0  0
   96.3040   78.5690  -48.6940 C   0  0  0  0  0  0
   95.1300   79.3060  -51.3820 O   0  0  0  0  0  0
   92.3400   80.6440  -48.8520 S   0  0  0  0  0  0
   91.3620   81.7220  -49.7370 C   0  0  0  0  0  0
   90.2650   82.4100  -49.2730 N   0  0  0  0  0  0
   89.6400   82.4060  -48.0430 C   0  0  0  0  0  0
   88.4920   83.3120  -47.8780 C   0  0  0  0  0  0
   87.7790   83.3710  -46.6240 C   0  0  0  0  0  0
   88.1790   82.5310  -45.5010 C   0  0  0  0  0  0
   89.3060   81.6140  -45.6160 C   0  0  0  0  0  0
   90.0320   81.5460  -46.8650 C   0  0  0  0  0  0
   92.8739   81.7733  -53.3103 H   0  0  0  0  0  0
   94.2020   80.5139  -52.7812 H   0  0  0  0  0  0
   95.0786   80.2857  -49.9294 H   0  0  0  0  0  0
   92.8562   77.8841  -48.4526 H   0  0  0  0  0  0
   93.6740   76.5500  -46.5181 H   0  0  0  0  0  0
   96.0855   76.4566  -45.9120 H   0  0  0  0  0  0
   97.8012   77.7367  -47.2943 H   0  0  0  0  0  0
   97.0379   79.1158  -49.2860 H   0  0  0  0  0  0
   94.8583   79.8711  -52.2858 H   0  0  0  0  0  0
   89.7327   83.1080  -49.9359 H   0  0  0  0  0  0
   88.1776   83.9434  -48.7090 H   0  0  0  0  0  0
   86.9333   84.0501  -46.5155 H   0  0  0  0  0  0
   87.6275   82.5898  -44.5627 H   0  0  0  0  0  0
   89.5976   80.9882  -44.7725 H   0  0  0  0  0  0
   90.8761   80.8627  -46.9577 H   0  0  0  0  0  0
  1  2  1  0  0  0
  1 14  2  0  0  0
  2  3  1  0  0  0
  2  4  2  0  0  0
  3 22  1  0  0  0
  3 23  1  0  0  0
  4  5  1  0  0  0
  4 13  1  0  0  0
  5  6  1  0  0  0
  5 12  1  0  0  0
  5 24  1  0  0  0
  6  7  2  0  0  0
  6 11  1  0  0  0
  7  8  1  0  0  0
  7 25  1  0  0  0
  8  9  2  0  0  0
  8 26  1  0  0  0
  9 10  1  0  0  0
  9 27  1  0  0  0
 10 11  2  0  0  0
 10 28  1  0  0  0
 11 29  1  0  0  0
 12 30  1  0  0  0
 13 14  1  0  0  0
 14 15  1  0  0  0
 15 16  1  0  0  0
 15 31  1  0  0  0
 16 17  2  0  0  0
 16 21  1  0  0  0
 17 18  1  0  0  0
 17 32  1  0  0  0
 18 19  2  0  0  0
 18 33  1  0  0  0
 19 20  1  0  0  0
 19 34  1  0  0  0
 20 21  2  0  0  0
 20 35  1  0  0  0
 21 36  1  0  0  0
M  END
> <s_m_source_file>
../3qtr_ligand.sdf

> <i_m_source_file_index>
1

> <s_epik_input>
W2NIXTFbY0hdW2NIXVtjSF1bY0hdYzFbTkhdYyhuYzJbTkgyXSlzYzJbQ0hdKFtPSF0pYzNbY0hdW2NIXVtjSF1bY0hdW2NIXTM=

> <s_epik_cmdline>
J2VwaWtfYXBwJywgJy1pbWFlJywgJ2xpZ2FuZF9wcm8ubWFlJywgJy1vbWFlJywgJ2xpZ2FuZF9wcmVwLm1hZScsICctbXMnLCAnMScsICctcGgnLCAnNycsICctcGh0JywgJzAuNScsICctbnQn

> <r_epik_Ionization_Penalty>
  0.0123

> <r_epik_Ionization_Penalty_Charging>
  0.0000

> <r_epik_Ionization_Penalty_Neutral>
  0.0123

> <r_epik_State_Penalty>
  0.0072

> <r_epik_Charging_Adjusted_Penalty>
0.00717305597959786

> <i_epik_Tot_Q>
0

> <i_epik_Tot_abs_Q>
0

$$$$
