3qts_ligand
                    3D
 Schrodinger Suite 2020-3.
 40 42  0  0  1  0            999 V2000
   94.6970   77.1150  -45.9280 C   0  0  0  0  0  0
   91.5880   81.7670  -51.0210 N   0  0  0  0  0  0
   91.9990   80.7250  -48.6970 S   0  0  0  0  0  0
   94.6490   78.6040  -45.9850 C   0  0  0  0  0  0
   93.1730   80.5960  -52.3660 N   0  0  0  0  0  0
   94.4070   79.2600  -47.2610 C   0  0  0  0  0  0
   90.1470   82.6800  -49.3430 N   0  0  0  0  0  0
   94.6470   78.7150  -50.9120 O   0  0  0  0  0  0
   94.2590   76.9840  -48.4130 C   0  0  0  0  0  0
   94.5010   76.3100  -47.1560 C   0  0  0  0  0  0
   94.8310   79.4290  -44.8390 O   0  0  0  0  0  0
   95.0620   79.0020  -43.5900 C   0  0  0  0  0  0
   94.2060   78.4580  -48.5010 C   0  0  0  0  0  0
   93.9560   79.1040  -49.8330 C   0  0  3  0  0  0
   92.9190   80.1850  -49.9980 C   0  0  0  0  0  0
   92.5840   80.8460  -51.1720 C   0  0  0  0  0  0
   91.1660   81.8130  -49.7360 C   0  0  0  0  0  0
   89.3870   82.6670  -48.1580 C   0  0  0  0  0  0
   89.5380   81.6480  -47.0320 C   0  0  0  0  0  0
   88.7290   81.7050  -45.8450 C   0  0  0  0  0  0
   87.7360   82.7710  -45.7110 C   0  0  0  0  0  0
   87.5680   83.7710  -46.7920 C   0  0  0  0  0  0
   88.3730   83.7200  -47.9870 C   0  0  0  0  0  0
   94.8775   76.6153  -44.9763 H   0  0  0  0  0  0
   92.8617   81.1552  -53.2606 H   0  0  0  0  0  0
   93.9625   79.8338  -52.4409 H   0  0  0  0  0  0
   94.3724   80.3483  -47.3105 H   0  0  0  0  0  0
   89.8458   83.5087  -50.0007 H   0  0  0  0  0  0
   95.4103   77.9281  -50.8220 H   0  0  0  0  0  0
   94.1124   76.3910  -49.3157 H   0  0  0  0  0  0
   94.5387   75.2215  -47.1130 H   0  0  0  0  0  0
   95.1592   79.8679  -42.9186 H   0  0  0  0  0  0
   95.9924   78.4156  -43.5692 H   0  0  0  0  0  0
   94.2240   78.3720  -43.2570 H   0  0  0  0  0  0
   93.1862   78.3500  -50.0542 H   0  0  0  0  0  0
   90.2796   80.8552  -47.1305 H   0  0  0  0  0  0
   88.8538   80.9640  -45.0555 H   0  0  0  0  0  0
   87.1186   82.8299  -44.8146 H   0  0  0  0  0  0
   86.8228   84.5588  -46.6816 H   0  0  0  0  0  0
   88.2297   84.4660  -48.7687 H   0  0  0  0  0  0
  1  4  2  0  0  0
  1 10  1  0  0  0
  1 24  1  0  0  0
  2 16  1  0  0  0
  2 17  2  0  0  0
  3 15  1  0  0  0
  3 17  1  0  0  0
  4  6  1  0  0  0
  4 11  1  0  0  0
  5 16  1  0  0  0
  5 25  1  0  0  0
  5 26  1  0  0  0
  6 13  2  0  0  0
  6 27  1  0  0  0
  7 17  1  0  0  0
  7 18  1  0  0  0
  7 28  1  0  0  0
  8 14  1  0  0  0
  8 29  1  0  0  0
  9 10  2  0  0  0
  9 13  1  0  0  0
  9 30  1  0  0  0
 10 31  1  0  0  0
 11 12  1  0  0  0
 12 32  1  0  0  0
 12 33  1  0  0  0
 12 34  1  0  0  0
 13 14  1  0  0  0
 14 15  1  0  0  0
 14 35  1  0  0  0
 15 16  2  0  0  0
 18 19  2  0  0  0
 18 23  1  0  0  0
 19 20  1  0  0  0
 19 36  1  0  0  0
 20 21  2  0  0  0
 20 37  1  0  0  0
 21 22  1  0  0  0
 21 38  1  0  0  0
 22 23  2  0  0  0
 22 39  1  0  0  0
 23 40  1  0  0  0
M  END
> <s_m_source_file>
../3qts_ligand.sdf

> <i_m_source_file_index>
1

> <s_epik_input>
W0NIM11PYzFbY0hdW2NIXVtjSF1jKFtjSF0xKVtDSF0oW09IXSljMnNjKG5jMltOSDJdKVtOSF1jM1tjSF1bY0hdW2NIXVtjSF1bY0hdMw==

> <s_epik_cmdline>
J2VwaWtfYXBwJywgJy1pbWFlJywgJ2xpZ2FuZF9wcm8ubWFlJywgJy1vbWFlJywgJ2xpZ2FuZF9wcmVwLm1hZScsICctbXMnLCAnMScsICctcGgnLCAnNycsICctcGh0JywgJzAuNScsICctbnQn

> <r_lp_tautomer_probability>
1

> <r_epik_Ionization_Penalty>
  0.0123

> <r_epik_Ionization_Penalty_Charging>
  0.0000

> <r_epik_Ionization_Penalty_Neutral>
  0.0123

> <r_epik_State_Penalty>
  0.0072

> <r_epik_Charging_Adjusted_Penalty>
0.00717305597959786

> <i_epik_Tot_Q>
0

> <i_epik_Tot_abs_Q>
0

$$$$
