3qtu_ligand
                    3D
 Schrodinger Suite 2020-3.
 44 46  0  0  1  0            999 V2000
  119.0990   10.0720  -50.8930 N   0  0  0  0  0  0
  117.9680   10.7430  -49.0780 N   0  0  0  0  0  0
  120.5090    9.1440  -52.4730 N   0  0  0  0  0  0
  115.1730    8.9970  -43.2680 N   0  0  0  0  0  0
  124.0330    2.7550  -46.2640 N   0  0  0  0  0  0
  120.7350    8.5230  -50.2260 C   0  0  0  0  0  0
  120.1350    9.2420  -51.2580 C   0  0  0  0  0  0
  118.8990   10.0100  -49.6080 C   0  0  0  0  0  0
  117.2200   10.5150  -48.0490 C   0  0  0  0  0  0
  121.7910    7.6170  -50.3730 C   0  0  0  0  0  0
  122.2480    6.8630  -49.3100 C   0  0  0  0  0  0
  116.2110   11.4830  -47.7490 C   0  0  0  0  0  0
  115.3520   11.2960  -46.6460 C   0  0  0  0  0  0
  115.4980   10.1370  -45.8330 C   0  0  0  0  0  0
  116.4910    9.1800  -46.1170 C   0  0  0  0  0  0
  117.3480    9.3610  -47.2110 C   0  0  0  0  0  0
  123.6470    6.8180  -49.0270 C   0  0  0  0  0  0
  124.1200    6.0500  -47.9410 C   0  0  0  0  0  0
  123.2100    5.3230  -47.1270 C   0  0  0  0  0  0
  121.8210    5.3550  -47.3940 C   0  0  0  0  0  0
  121.3390    6.1220  -48.4860 C   0  0  0  0  0  0
  122.3110    7.4670  -51.4650 O   0  0  0  0  0  0
  113.2990    9.1170  -44.9710 O   0  0  0  0  0  0
  113.9530   11.1630  -43.9800 O   0  0  0  0  0  0
  125.1160    4.9040  -45.3710 O   0  0  0  0  0  0
  122.8970    4.4110  -44.6600 O   0  0  0  0  0  0
  119.9550    8.9300  -48.7470 S   0  0  0  0  0  0
  114.4140    9.8830  -44.4770 S   0  0  0  0  0  0
  123.8310    4.3560  -45.7570 S   0  0  0  0  0  0
  117.7216   11.7212  -49.5167 H   0  0  0  0  0  0
  120.0040    9.7325  -53.2531 H   0  0  0  0  0  0
  121.3367    8.4709  -52.7411 H   0  0  0  0  0  0
  114.4767    8.8498  -42.4293 H   0  0  0  0  0  0
  116.0609    9.5427  -42.9160 H   0  0  0  0  0  0
  124.4151    2.1510  -45.4278 H   0  0  0  0  0  0
  124.7499    2.7221  -47.0977 H   0  0  0  0  0  0
  116.1053   12.3689  -48.3752 H   0  0  0  0  0  0
  114.5823   12.0334  -46.4180 H   0  0  0  0  0  0
  116.5933    8.2976  -45.4854 H   0  0  0  0  0  0
  118.1168    8.6187  -47.4253 H   0  0  0  0  0  0
  124.3481    7.3754  -49.6482 H   0  0  0  0  0  0
  125.1880    6.0145  -47.7259 H   0  0  0  0  0  0
  121.1274    4.7954  -46.7664 H   0  0  0  0  0  0
  120.2705    6.1479  -48.6997 H   0  0  0  0  0  0
  1  7  1  0  0  0
  1  8  2  0  0  0
  2  8  1  0  0  0
  2  9  1  0  0  0
  2 30  1  0  0  0
  3  7  1  0  0  0
  3 31  1  0  0  0
  3 32  1  0  0  0
  4 28  1  0  0  0
  4 33  1  0  0  0
  4 34  1  0  0  0
  5 29  1  0  0  0
  5 35  1  0  0  0
  5 36  1  0  0  0
  6  7  2  0  0  0
  6 10  1  0  0  0
  6 27  1  0  0  0
  8 27  1  0  0  0
  9 12  2  0  0  0
  9 16  1  0  0  0
 10 11  1  0  0  0
 10 22  2  0  0  0
 11 17  2  0  0  0
 11 21  1  0  0  0
 12 13  1  0  0  0
 12 37  1  0  0  0
 13 14  2  0  0  0
 13 38  1  0  0  0
 14 15  1  0  0  0
 14 28  1  0  0  0
 15 16  2  0  0  0
 15 39  1  0  0  0
 16 40  1  0  0  0
 17 18  1  0  0  0
 17 41  1  0  0  0
 18 19  2  0  0  0
 18 42  1  0  0  0
 19 20  1  0  0  0
 19 29  1  0  0  0
 20 21  2  0  0  0
 20 43  1  0  0  0
 21 44  1  0  0  0
 23 28  2  0  0  0
 24 28  2  0  0  0
 25 29  2  0  0  0
 26 29  2  0  0  0
M  END
> <s_m_source_file>
../3qtu_ligand.sdf

> <i_m_source_file_index>
1

> <s_epik_input>
W05IMl1TKD1PKSg9TyljKFtjSF1bY0hdMSlbY0hdW2NIXWMxW05IXWMoczIpbmMoW05IMl0pYzJDKD1PKWMzW2NIXVtjSF1jKFtjSF1bY0hdMylTKD1PKSg9TylbTkgyXQ==

> <s_epik_cmdline>
J2VwaWtfYXBwJywgJy1pbWFlJywgJ2xpZ2FuZF9wcm8ubWFlJywgJy1vbWFlJywgJ2xpZ2FuZF9wcmVwLm1hZScsICctbXMnLCAnMScsICctcGgnLCAnNycsICctcGh0JywgJzAuNScsICctbnQn

> <r_lp_tautomer_probability>
1

> <r_epik_Ionization_Penalty>
  0.0047

> <r_epik_Ionization_Penalty_Charging>
  0.0000

> <r_epik_Ionization_Penalty_Neutral>
  0.0047

> <r_epik_State_Penalty>
 -0.0000

> <r_epik_Charging_Adjusted_Penalty>
0

> <i_epik_Tot_Q>
0

> <i_epik_Tot_abs_Q>
0

$$$$
