3qtv_ligand
                    3D
 Schrodinger Suite 2020-3.
 55 57  0  0  1  0            999 V2000
   16.3240  -15.5750   23.1220 N   0  3  0  0  0  0
   17.5740  -14.8360   23.1290 C   0  0  1  0  0  0
   17.3340  -13.4700   22.5350 C   0  0  0  0  0  0
   16.4020  -12.7660   22.9200 O   0  0  0  0  0  0
   18.0670  -14.7750   24.5810 C   0  0  0  0  0  0
   19.4860  -14.2600   24.6610 C   0  0  0  0  0  0
   19.7430  -13.0940   25.3650 C   0  0  0  0  0  0
   20.5370  -14.9340   24.0400 C   0  0  0  0  0  0
   21.0300  -12.5830   25.4470 C   0  0  0  0  0  0
   21.8300  -14.4270   24.1340 C   0  0  0  0  0  0
   22.0810  -13.2550   24.8330 C   0  0  0  0  0  0
   18.1550  -13.0590   21.5740 N   0  0  0  0  0  0
   17.9440  -11.7490   20.9560 C   0  0  2  0  0  0
   16.5540  -11.6290   20.3890 C   0  0  0  0  0  0
   16.0470  -12.5660   19.7770 O   0  0  0  0  0  0
   18.9730  -11.7000   19.8310 C   0  0  0  0  0  0
   20.0360  -12.7230   20.2060 C   0  0  0  0  0  0
   19.2970  -13.7850   21.0070 C   0  0  0  0  0  0
   15.9050  -10.4820   20.5940 N   0  0  0  0  0  0
   14.5420  -10.2290   20.0990 C   0  0  0  0  0  0
   13.5360  -10.4590   21.2090 C   0  0  0  0  0  0
   13.2030   -9.4420   22.1000 C   0  0  0  0  0  0
   12.2790   -9.6970   23.1090 C   0  0  0  0  0  0
   11.7190  -10.9100   23.2440 N   0  0  0  0  0  0
   10.7470  -11.1450   24.3190 C   0  0  0  0  0  0
   12.0350  -11.9080   22.4010 C   0  0  0  0  0  0
   12.9460  -11.7040   21.3730 C   0  0  0  0  0  0
   15.9411  -15.6380   22.0927 H   0  0  0  0  0  0
   15.5887  -15.0577   23.7558 H   0  0  0  0  0  0
   16.4954  -16.5891   23.5122 H   0  0  0  0  0  0
   18.3148  -15.3472   22.4967 H   0  0  0  0  0  0
   17.4183  -14.1016   25.1605 H   0  0  0  0  0  0
   18.0362  -15.7825   25.0213 H   0  0  0  0  0  0
   18.9240  -12.5723   25.8601 H   0  0  0  0  0  0
   20.3472  -15.8523   23.4843 H   0  0  0  0  0  0
   21.2168  -11.6573   25.9912 H   0  0  0  0  0  0
   22.6533  -14.9559   23.6538 H   0  0  0  0  0  0
   23.0960  -12.8635   24.9004 H   0  0  0  0  0  0
   18.0488  -10.9517   21.7065 H   0  0  0  0  0  0
   18.4870  -11.9569   18.8782 H   0  0  0  0  0  0
   19.3964  -10.6869   19.7652 H   0  0  0  0  0  0
   20.4810  -13.1415   19.2912 H   0  0  0  0  0  0
   20.8193  -12.2352   20.8048 H   0  0  0  0  0  0
   19.9113  -14.1960   21.8217 H   0  0  0  0  0  0
   18.9313  -14.6064   20.3734 H   0  0  0  0  0  0
   16.4366   -9.7050   21.1630 H   0  0  0  0  0  0
   14.4655   -9.1882   19.7514 H   0  0  0  0  0  0
   14.3224  -10.9113   19.2646 H   0  0  0  0  0  0
   13.6688   -8.4504   22.0018 H   0  0  0  0  0  0
   12.0057   -8.8998   23.8003 H   0  0  0  0  0  0
   10.6157  -10.2220   24.9028 H   0  0  0  0  0  0
   11.1148  -11.9460   24.9772 H   0  0  0  0  0  0
    9.7824  -11.4431   23.8824 H   0  0  0  0  0  0
   11.5644  -12.8937   22.5313 H   0  0  0  0  0  0
   13.1988  -12.5287   20.6904 H   0  0  0  0  0  0
  1  2  1  0  0  0
  1 28  1  0  0  0
  1 29  1  0  0  0
  1 30  1  0  0  0
  2  3  1  0  0  0
  2  5  1  0  0  0
  2 31  1  0  0  0
  3  4  2  0  0  0
  3 12  1  0  0  0
  5  6  1  0  0  0
  5 32  1  0  0  0
  5 33  1  0  0  0
  6  7  2  0  0  0
  6  8  1  0  0  0
  7  9  1  0  0  0
  7 34  1  0  0  0
  8 10  2  0  0  0
  8 35  1  0  0  0
  9 11  2  0  0  0
  9 36  1  0  0  0
 10 11  1  0  0  0
 10 37  1  0  0  0
 11 38  1  0  0  0
 12 13  1  0  0  0
 12 18  1  0  0  0
 13 14  1  0  0  0
 13 16  1  0  0  0
 13 39  1  0  0  0
 14 15  2  0  0  0
 14 19  1  0  0  0
 16 17  1  0  0  0
 16 40  1  0  0  0
 16 41  1  0  0  0
 17 18  1  0  0  0
 17 42  1  0  0  0
 17 43  1  0  0  0
 18 44  1  0  0  0
 18 45  1  0  0  0
 19 20  1  0  0  0
 19 46  1  0  0  0
 20 21  1  0  0  0
 20 47  1  0  0  0
 20 48  1  0  0  0
 21 22  2  0  0  0
 21 27  1  0  0  0
 22 23  1  0  0  0
 22 49  1  0  0  0
 23 24  1  0  0  0
 23 50  1  0  0  0
 24 25  1  0  0  0
 24 26  1  0  0  0
 25 51  1  0  0  0
 25 52  1  0  0  0
 25 53  1  0  0  0
 26 27  2  0  0  0
 26 54  1  0  0  0
 27 55  1  0  0  0
M  CHG  1   1   1
M  END
> <s_m_source_file>
../3qtv_ligand.sdf

> <i_m_source_file_index>
1

> <s_epik_input>
W2NIXTFbY0hdW2NIXVtjSF1bY0hdYzFbQ0gyXVtDQEBIXShbTkgzK10pQyg9TylOMltDQEBIXShbQ0gyXVtDSDJdW0NIMl0yKUMoPU8pW05IXVtDSDJdQzM9W0NIXVtDSDJdTihbQ0gzXSlbQ0hdPVtDSF0z

> <s_epik_cmdline>
J2VwaWtfYXBwJywgJy1pbWFlJywgJ2xpZ2FuZF9wcm8ubWFlJywgJy1vbWFlJywgJ2xpZ2FuZF9wcmVwLm1hZScsICctbXMnLCAnMScsICctcGgnLCAnNycsICctcGh0JywgJzAuNScsICctbnQn

> <r_epik_Ionization_Penalty>
  0.1805

> <r_epik_Ionization_Penalty_Charging>
  0.1805

> <r_epik_Ionization_Penalty_Neutral>
  0.0000

> <r_epik_State_Penalty>
  0.1700

> <r_epik_Charging_Adjusted_Penalty>
0.350449203061821

> <i_epik_Tot_Q>
1

> <i_epik_Tot_abs_Q>
1

$$$$
