3qtx_ligand
                    3D
 Schrodinger Suite 2020-3.
 43 45  0  0  1  0            999 V2000
  -11.9140  -82.0730  -86.7360 N   0  0  0  0  0  0
  -12.9810  -81.3120  -87.0170 C   0  0  0  0  0  0
  -13.5540  -81.3820  -88.2410 N   0  0  0  0  0  0
  -13.3910  -80.4840  -85.9640 C   0  0  0  0  0  0
  -14.4480  -79.5900  -85.9840 C   0  0  1  0  0  0
  -14.8280  -78.7200  -84.8240 C   0  0  0  0  0  0
  -16.1670  -78.7160  -84.3190 C   0  0  0  0  0  0
  -16.5410  -77.8800  -83.1970 C   0  0  0  0  0  0
  -15.5180  -77.0470  -82.6020 C   0  0  0  0  0  0
  -14.1900  -77.0460  -83.1040 C   0  0  0  0  0  0
  -13.8440  -77.8750  -84.2060 C   0  0  0  0  0  0
  -15.2080  -79.4480  -87.1010 O   0  0  0  0  0  0
  -12.3740  -80.7180  -84.5890 S   0  0  0  0  0  0
  -11.4500  -81.8600  -85.5010 C   0  0  0  0  0  0
  -10.3370  -82.5560  -85.0840 N   0  0  0  0  0  0
   -9.6170  -82.3580  -83.9260 C   0  0  0  0  0  0
  -17.7950  -77.8880  -82.7260 N   0  3  0  0  0  0
  -18.7360  -78.6530  -83.2720 O   0  0  0  0  0  0
  -18.1250  -77.1980  -81.7830 O   0  5  0  0  0  0
   -8.4620  -83.1730  -83.7230 C   0  0  0  0  0  0
   -7.6310  -82.9700  -82.5980 C   0  0  0  0  0  0
   -7.9290  -81.9590  -81.6510 C   0  0  0  0  0  0
   -9.0750  -81.1460  -81.8130 C   0  0  0  0  0  0
   -9.9070  -81.3360  -82.9420 C   0  0  0  0  0  0
   -6.8560  -81.7170  -80.3010 S   0  0  0  0  0  0
   -5.4890  -81.0910  -80.9540 O   0  0  0  0  0  0
   -6.5040  -83.0140  -79.6120 O   0  0  0  0  0  0
   -7.3820  -80.6060  -79.3420 N   0  0  0  0  0  0
  -13.1506  -82.0699  -88.9986 H   0  0  0  0  0  0
  -14.4232  -80.7510  -88.4783 H   0  0  0  0  0  0
  -15.1210  -80.3774  -85.6139 H   0  0  0  0  0  0
  -16.9180  -79.3528  -84.7866 H   0  0  0  0  0  0
  -15.7712  -76.4099  -81.7546 H   0  0  0  0  0  0
  -13.4347  -76.4088  -82.6440 H   0  0  0  0  0  0
  -12.8223  -77.8694  -84.5857 H   0  0  0  0  0  0
  -14.9911  -80.0521  -87.9943 H   0  0  0  0  0  0
   -9.9337  -83.3706  -85.7035 H   0  0  0  0  0  0
   -8.2197  -83.9569  -84.4406 H   0  0  0  0  0  0
   -6.7513  -83.5980  -82.4573 H   0  0  0  0  0  0
   -9.3151  -80.3804  -81.0753 H   0  0  0  0  0  0
  -10.7830  -80.7008  -83.0734 H   0  0  0  0  0  0
   -6.6799  -80.4822  -78.5043 H   0  0  0  0  0  0
   -8.3696  -80.8947  -78.9531 H   0  0  0  0  0  0
  1  2  1  0  0  0
  1 14  2  0  0  0
  2  3  1  0  0  0
  2  4  2  0  0  0
  3 29  1  0  0  0
  3 30  1  0  0  0
  4  5  1  0  0  0
  4 13  1  0  0  0
  5  6  1  0  0  0
  5 12  1  0  0  0
  5 31  1  0  0  0
  6  7  2  0  0  0
  6 11  1  0  0  0
  7  8  1  0  0  0
  7 32  1  0  0  0
  8  9  2  0  0  0
  8 17  1  0  0  0
  9 10  1  0  0  0
  9 33  1  0  0  0
 10 11  2  0  0  0
 10 34  1  0  0  0
 11 35  1  0  0  0
 12 36  1  0  0  0
 13 14  1  0  0  0
 14 15  1  0  0  0
 15 16  1  0  0  0
 15 37  1  0  0  0
 16 20  2  0  0  0
 16 24  1  0  0  0
 17 18  2  0  0  0
 17 19  1  0  0  0
 20 21  1  0  0  0
 20 38  1  0  0  0
 21 22  2  0  0  0
 21 39  1  0  0  0
 22 23  1  0  0  0
 22 25  1  0  0  0
 23 24  2  0  0  0
 23 40  1  0  0  0
 24 41  1  0  0  0
 25 26  2  0  0  0
 25 27  2  0  0  0
 25 28  1  0  0  0
 28 42  1  0  0  0
 28 43  1  0  0  0
M  CHG  2  17   1  19  -1
M  END
> <s_m_source_file>
../3qtx_ligand.sdf

> <i_m_source_file_index>
1

> <s_epik_input>
W2NIXTFbY0hdYyhTKD1PKSg9TylbTkgyXSlbY0hdW2NIXWMxW05IXWMobmMyW05IMl0pc2MyW0NIXShbT0hdKWMzW2NIXWMoW04rXSg9TylbTy1dKVtjSF1bY0hdW2NIXTM=

> <s_epik_cmdline>
J2VwaWtfYXBwJywgJy1pbWFlJywgJ2xpZ2FuZF9wcm8ubWFlJywgJy1vbWFlJywgJ2xpZ2FuZF9wcmVwLm1hZScsICctbXMnLCAnMScsICctcGgnLCAnNycsICctcGh0JywgJzAuNScsICctbnQn

> <r_epik_Ionization_Penalty>
  0.0131

> <r_epik_Ionization_Penalty_Charging>
  0.0000

> <r_epik_Ionization_Penalty_Neutral>
  0.0131

> <r_epik_State_Penalty>
  0.0072

> <r_epik_Charging_Adjusted_Penalty>
0.00717305597959786

> <i_epik_Tot_Q>
0

> <i_epik_Tot_abs_Q>
2

$$$$
