3qtz_ligand
                    3D
 Schrodinger Suite 2020-3.
 39 41  0  0  1  0            999 V2000
  -65.0970   25.4400  -86.3070 N   0  0  0  0  0  0
  -63.8670   24.8820  -84.5120 N   0  0  0  0  0  0
  -66.6120   26.2710  -87.8390 N   0  0  0  0  0  0
  -61.1610   26.6900  -78.6330 N   0  0  0  0  0  0
  -66.7520   26.9710  -85.6020 C   0  0  0  0  0  0
  -66.1790   26.2310  -86.6460 C   0  0  0  0  0  0
  -64.8350   25.5600  -85.0270 C   0  0  0  0  0  0
  -63.1480   25.1300  -83.4680 C   0  0  0  0  0  0
  -67.8490   27.8350  -85.7120 C   0  0  0  0  0  0
  -68.2710   28.6270  -84.6410 C   0  0  0  0  0  0
  -67.3390   29.4390  -83.8940 C   0  0  0  0  0  0
  -67.7900   30.2340  -82.8060 C   0  0  0  0  0  0
  -69.1620   30.2390  -82.4450 C   0  0  0  0  0  0
  -70.0920   29.4530  -83.1710 C   0  0  0  0  0  0
  -69.6560   28.6460  -84.2670 C   0  0  0  0  0  0
  -62.1540   24.1610  -83.1280 C   0  0  0  0  0  0
  -61.3110   24.3680  -82.0130 C   0  0  0  0  0  0
  -61.4590   25.5490  -81.2280 C   0  0  0  0  0  0
  -62.4440   26.5120  -81.5470 C   0  0  0  0  0  0
  -63.2860   26.3090  -82.6590 C   0  0  0  0  0  0
  -68.4610   27.8970  -86.7780 O   0  0  0  0  0  0
  -59.2810   26.6190  -80.3400 O   0  0  0  0  0  0
  -59.8810   24.5570  -79.3690 O   0  0  0  0  0  0
  -71.3740   29.4670  -82.8240 F   0  0  0  0  0  0
  -65.8720   26.6380  -84.1570 S   0  0  0  0  0  0
  -60.3810   25.8280  -79.8640 S   0  0  0  0  0  0
  -63.5484   23.9376  -84.9774 H   0  0  0  0  0  0
  -66.1253   25.6699  -88.6212 H   0  0  0  0  0  0
  -67.4738   26.9068  -88.0903 H   0  0  0  0  0  0
  -60.4634   26.8480  -77.7973 H   0  0  0  0  0  0
  -62.0321   26.1183  -78.2804 H   0  0  0  0  0  0
  -66.2836   29.4420  -84.1664 H   0  0  0  0  0  0
  -67.0792   30.8423  -82.2467 H   0  0  0  0  0  0
  -69.5018   30.8485  -81.6076 H   0  0  0  0  0  0
  -70.3770   28.0438  -84.8198 H   0  0  0  0  0  0
  -62.0458   23.2593  -83.7308 H   0  0  0  0  0  0
  -60.5522   23.6293  -81.7546 H   0  0  0  0  0  0
  -62.5517   27.4078  -80.9354 H   0  0  0  0  0  0
  -64.0457   27.0504  -82.9063 H   0  0  0  0  0  0
  1  6  1  0  0  0
  1  7  2  0  0  0
  2  7  1  0  0  0
  2  8  1  0  0  0
  2 27  1  0  0  0
  3  6  1  0  0  0
  3 28  1  0  0  0
  3 29  1  0  0  0
  4 26  1  0  0  0
  4 30  1  0  0  0
  4 31  1  0  0  0
  5  6  2  0  0  0
  5  9  1  0  0  0
  5 25  1  0  0  0
  7 25  1  0  0  0
  8 16  2  0  0  0
  8 20  1  0  0  0
  9 10  1  0  0  0
  9 21  2  0  0  0
 10 11  2  0  0  0
 10 15  1  0  0  0
 11 12  1  0  0  0
 11 32  1  0  0  0
 12 13  2  0  0  0
 12 33  1  0  0  0
 13 14  1  0  0  0
 13 34  1  0  0  0
 14 15  2  0  0  0
 14 24  1  0  0  0
 15 35  1  0  0  0
 16 17  1  0  0  0
 16 36  1  0  0  0
 17 18  2  0  0  0
 17 37  1  0  0  0
 18 19  1  0  0  0
 18 26  1  0  0  0
 19 20  2  0  0  0
 19 38  1  0  0  0
 20 39  1  0  0  0
 22 26  2  0  0  0
 23 26  2  0  0  0
M  END
> <s_m_source_file>
../3qtz_ligand.sdf

> <i_m_source_file_index>
1

> <s_epik_input>
W05IMl1TKD1PKSg9TyljKFtjSF1bY0hdMSlbY0hdW2NIXWMxW05IXWMoczIpbmMoW05IMl0pYzJDKD1PKWMzW2NIXVtjSF1bY0hdYyhGKVtjSF0z

> <s_epik_cmdline>
J2VwaWtfYXBwJywgJy1pbWFlJywgJ2xpZ2FuZF9wcm8ubWFlJywgJy1vbWFlJywgJ2xpZ2FuZF9wcmVwLm1hZScsICctbXMnLCAnMScsICctcGgnLCAnNycsICctcGh0JywgJzAuNScsICctbnQn

> <r_lp_tautomer_probability>
1

> <r_epik_Ionization_Penalty>
  0.0006

> <r_epik_Ionization_Penalty_Charging>
  0.0000

> <r_epik_Ionization_Penalty_Neutral>
  0.0006

> <r_epik_State_Penalty>
 -0.0000

> <r_epik_Charging_Adjusted_Penalty>
0

> <i_epik_Tot_Q>
0

> <i_epik_Tot_abs_Q>
0

$$$$
