3qu0_ligand
                    3D
 Schrodinger Suite 2020-3.
 38 40  0  0  1  0            999 V2000
  -38.6610  -81.9650  -50.6080 N   0  0  0  0  0  0
  -37.3580  -82.5350  -48.8450 N   0  0  0  0  0  0
  -43.4120  -77.5010  -47.6610 N   0  0  0  0  0  0
  -40.1910  -81.1210  -52.1010 N   0  0  0  0  0  0
  -34.6580  -80.8710  -42.8680 N   0  0  0  0  0  0
  -40.2480  -80.3860  -49.8870 C   0  0  0  0  0  0
  -39.7270  -81.1550  -50.9270 C   0  0  0  0  0  0
  -38.3540  -81.8390  -49.3480 C   0  0  0  0  0  0
  -36.6270  -82.2800  -47.7930 C   0  0  0  0  0  0
  -41.3170  -79.4950  -49.9960 C   0  0  0  0  0  0
  -41.6580  -78.6140  -48.9690 C   0  0  0  0  0  0
  -40.6770  -77.9230  -48.1810 C   0  0  0  0  0  0
  -41.0640  -77.0430  -47.1460 C   0  0  0  0  0  0
  -42.4370  -76.8620  -46.9180 C   0  0  0  0  0  0
  -43.0090  -78.3590  -48.6610 C   0  0  0  0  0  0
  -36.6640  -81.0350  -47.0570 C   0  0  0  0  0  0
  -35.8240  -80.8420  -45.9320 C   0  0  0  0  0  0
  -34.9370  -81.8780  -45.5220 C   0  0  0  0  0  0
  -34.8900  -83.1110  -46.2330 C   0  0  0  0  0  0
  -35.7300  -83.3080  -47.3580 C   0  0  0  0  0  0
  -41.9690  -79.4700  -51.0430 O   0  0  0  0  0  0
  -32.7880  -80.7960  -44.5770 O   0  0  0  0  0  0
  -33.3470  -82.9200  -43.7010 O   0  0  0  0  0  0
  -39.3450  -80.7300  -48.4600 S   0  0  0  0  0  0
  -33.8640  -81.6350  -44.1430 S   0  0  0  0  0  0
  -37.0438  -83.4727  -49.3267 H   0  0  0  0  0  0
  -39.7445  -81.7475  -52.8872 H   0  0  0  0  0  0
  -41.0417  -80.4649  -52.3374 H   0  0  0  0  0  0
  -33.9596  -80.7369  -42.0288 H   0  0  0  0  0  0
  -35.5079  -81.4888  -42.5425 H   0  0  0  0  0  0
  -39.6177  -78.0797  -48.3844 H   0  0  0  0  0  0
  -40.3202  -76.5213  -46.5438 H   0  0  0  0  0  0
  -42.7482  -76.1879  -46.1200 H   0  0  0  0  0  0
  -43.7762  -78.8675  -49.2449 H   0  0  0  0  0  0
  -37.3419  -80.2408  -47.3696 H   0  0  0  0  0  0
  -35.8568  -79.9019  -45.3813 H   0  0  0  0  0  0
  -34.2103  -83.9009  -45.9133 H   0  0  0  0  0  0
  -35.6926  -84.2538  -47.8986 H   0  0  0  0  0  0
  1  7  1  0  0  0
  1  8  2  0  0  0
  2  8  1  0  0  0
  2  9  1  0  0  0
  2 26  1  0  0  0
  3 14  2  0  0  0
  3 15  1  0  0  0
  4  7  1  0  0  0
  4 27  1  0  0  0
  4 28  1  0  0  0
  5 25  1  0  0  0
  5 29  1  0  0  0
  5 30  1  0  0  0
  6  7  2  0  0  0
  6 10  1  0  0  0
  6 24  1  0  0  0
  8 24  1  0  0  0
  9 16  2  0  0  0
  9 20  1  0  0  0
 10 11  1  0  0  0
 10 21  2  0  0  0
 11 12  1  0  0  0
 11 15  2  0  0  0
 12 13  2  0  0  0
 12 31  1  0  0  0
 13 14  1  0  0  0
 13 32  1  0  0  0
 14 33  1  0  0  0
 15 34  1  0  0  0
 16 17  1  0  0  0
 16 35  1  0  0  0
 17 18  2  0  0  0
 17 36  1  0  0  0
 18 19  1  0  0  0
 18 25  1  0  0  0
 19 20  2  0  0  0
 19 37  1  0  0  0
 20 38  1  0  0  0
 22 25  2  0  0  0
 23 25  2  0  0  0
M  END
> <s_m_source_file>
../3qu0_ligand.sdf

> <i_m_source_file_index>
1

> <s_epik_input>
W05IMl1TKD1PKSg9TyljKFtjSF1bY0hdMSlbY0hdW2NIXWMxW05IXWMoczIpbmMoW05IMl0pYzJDKD1PKWMzW2NIXVtjSF1bY0hdbltjSF0z

> <s_epik_cmdline>
J2VwaWtfYXBwJywgJy1pbWFlJywgJ2xpZ2FuZF9wcm8ubWFlJywgJy1vbWFlJywgJ2xpZ2FuZF9wcmVwLm1hZScsICctbXMnLCAnMScsICctcGgnLCAnNycsICctcGh0JywgJzAuNScsICctbnQn

> <r_lp_tautomer_probability>
1

> <r_epik_Ionization_Penalty>
  0.0006

> <r_epik_Ionization_Penalty_Charging>
  0.0000

> <r_epik_Ionization_Penalty_Neutral>
  0.0006

> <r_epik_State_Penalty>
 -0.0000

> <r_epik_Charging_Adjusted_Penalty>
0

> <i_epik_Tot_Q>
0

> <i_epik_Tot_abs_Q>
0

$$$$
