3qup_ligand
                    3D
 Schrodinger Suite 2020-3.
 58 63  0  0  1  0            999 V2000
   10.4110   -7.6330   14.6510 C   0  0  1  0  0  0
    9.0600   -7.0270   14.8810 C   0  0  0  0  0  0
   10.1140   -9.1220   14.7860 C   0  0  0  0  0  0
   11.0310   -7.3660   13.2940 C   0  0  0  0  0  0
   11.4010   -7.1810   15.6740 C   0  0  0  0  0  0
    8.1400   -7.9940   15.2020 C   0  0  0  0  0  0
    8.6740   -5.7040   14.8030 C   0  0  0  0  0  0
    8.7300   -9.2630   15.2120 N   0  0  0  0  0  0
   12.4500   -6.9770   13.5480 N   0  0  1  0  0  0
   12.7510   -7.1270   14.9920 C   0  0  0  0  0  0
    6.8250   -7.6850   15.4460 C   0  0  0  0  0  0
    7.3540   -5.3730   15.0490 C   0  0  0  0  0  0
    7.9510  -10.4290   15.1240 C   0  0  0  0  0  0
   13.4640   -7.6100   12.6550 C   0  0  2  0  0  0
    6.4340   -6.3650   15.3650 C   0  0  0  0  0  0
    8.5430  -11.6450   14.6620 C   0  0  0  0  0  0
    6.7560  -10.4270   15.4130 O   0  0  0  0  0  0
   14.8460   -7.0420   12.9640 C   0  0  0  0  0  0
   13.1270   -7.2050   11.2400 C   0  0  0  0  0  0
    9.8320  -12.1490   14.6400 C   0  0  0  0  0  0
    7.7680  -12.6110   14.0910 N   0  0  0  0  0  0
   15.8630   -7.5510   11.9460 C   0  0  0  0  0  0
   14.0820   -7.7900   10.2980 N   0  3  0  0  0  0
    9.8090  -13.4370   14.0360 C   0  0  0  0  0  0
    8.4950  -13.6980   13.6990 C   0  0  0  0  0  0
   15.4130   -7.2160   10.5330 C   0  0  0  0  0  0
   10.7790  -14.3920   13.7520 C   0  0  0  0  0  0
    8.0610  -14.8540   13.0850 C   0  0  0  0  0  0
   10.3600  -15.5620   13.1450 C   0  0  3  0  0  0
    9.0420  -15.7820   12.8190 C   0  0  0  0  0  0
   11.2700  -16.5290   12.8460 F   0  0  0  0  0  0
   10.2665   -9.6158   13.8150 H   0  0  0  0  0  0
   10.7899   -9.5645   15.5325 H   0  0  0  0  0  0
   10.9762   -8.2772   12.6802 H   0  0  0  0  0  0
   10.4833   -6.5536   12.7940 H   0  0  0  0  0  0
   11.1146   -6.1867   16.0472 H   0  0  0  0  0  0
   11.4167   -7.8958   16.5100 H   0  0  0  0  0  0
    9.3997   -4.9307   14.5510 H   0  0  0  0  0  0
   13.3225   -6.2698   15.3774 H   0  0  0  0  0  0
   13.3023   -8.0567   15.1960 H   0  0  0  0  0  0
    6.1064   -8.4649   15.6980 H   0  0  0  0  0  0
    7.0349   -4.3322   14.9949 H   0  0  0  0  0  0
   13.4430   -8.7003   12.7996 H   0  0  0  0  0  0
    5.3938   -6.0975   15.5506 H   0  0  0  0  0  0
   14.8094   -5.9435   12.9189 H   0  0  0  0  0  0
   15.1553   -7.3575   13.9714 H   0  0  0  0  0  0
   12.1158   -7.5575   10.9887 H   0  0  0  0  0  0
   13.1653   -6.1091   11.1533 H   0  0  0  0  0  0
   10.6614  -11.5563   15.0532 H   0  0  0  0  0  0
   16.8378   -7.0769   12.1330 H   0  0  0  0  0  0
   15.9620   -8.6424   12.0408 H   0  0  0  0  0  0
   14.1208   -8.8795   10.4444 H   0  0  0  0  0  0
   13.7635   -7.5695    9.2685 H   0  0  0  0  0  0
   15.3694   -6.1236   10.4114 H   0  0  0  0  0  0
   16.1281   -7.6370    9.8109 H   0  0  0  0  0  0
   11.8311  -14.2008   14.0097 H   0  0  0  0  0  0
    7.0169  -15.0630   12.8092 H   0  0  0  0  0  0
    8.7817  -16.7332   12.3317 H   0  0  0  0  0  0
  1  2  1  0  0  0
  1  3  1  0  0  0
  1  4  1  0  0  0
  1  5  1  0  0  0
  2  6  2  0  0  0
  2  7  1  0  0  0
  3  8  1  0  0  0
  3 32  1  0  0  0
  3 33  1  0  0  0
  4  9  1  0  0  0
  4 34  1  0  0  0
  4 35  1  0  0  0
  5 10  1  0  0  0
  5 36  1  0  0  0
  5 37  1  0  0  0
  6  8  1  0  0  0
  6 11  1  0  0  0
  7 12  2  0  0  0
  7 38  1  0  0  0
  8 13  1  0  0  0
  9 10  1  0  0  0
  9 14  1  0  0  0
 10 39  1  0  0  0
 10 40  1  0  0  0
 11 15  2  0  0  0
 11 41  1  0  0  0
 12 15  1  0  0  0
 12 42  1  0  0  0
 13 16  1  0  0  0
 13 17  2  0  0  0
 14 18  1  0  0  0
 14 19  1  0  0  0
 14 43  1  0  0  0
 15 44  1  0  0  0
 16 20  2  0  0  0
 16 21  1  0  0  0
 18 22  1  0  0  0
 18 45  1  0  0  0
 18 46  1  0  0  0
 19 23  1  0  0  0
 19 47  1  0  0  0
 19 48  1  0  0  0
 20 24  1  0  0  0
 20 49  1  0  0  0
 21 25  2  0  0  0
 22 26  1  0  0  0
 22 50  1  0  0  0
 22 51  1  0  0  0
 23 26  1  0  0  0
 23 52  1  0  0  0
 23 53  1  0  0  0
 24 25  1  0  0  0
 24 27  2  0  0  0
 25 28  1  0  0  0
 26 54  1  0  0  0
 26 55  1  0  0  0
 27 29  1  0  0  0
 27 56  1  0  0  0
 28 30  2  0  0  0
 28 57  1  0  0  0
 29 30  1  0  0  0
 29 31  1  0  0  0
 30 58  1  0  0  0
M  CHG  1  23   1
M  END
> <s_m_source_file>
../3qup_ligand.sdf

> <i_m_source_file_index>
1

> <s_epik_input>
W0NIMl0xW05IMitdW0NIMl1bQ0gyXVtDSDJdW0NASF0xW05ASCtdKFtDSDJdW0NIMl0yKVtDSDJdW0NAXTIzYzRjKFtjSF1bY0hdW2NIXVtjSF00KU4oW0NIMl0zKUMoPU8pQyg9W0NIXTUpTj1DKEM1PTYpW0NIXT1bQ0hdW0NIXShGKVtDSF02

> <s_epik_cmdline>
J2VwaWtfYXBwJywgJy1pbWFlJywgJ2xpZ2FuZF9wcm8ubWFlJywgJy1vbWFlJywgJ2xpZ2FuZF9wcmVwLm1hZScsICctbXMnLCAnMScsICctcGgnLCAnNycsICctcGh0JywgJzAuNScsICctbnQn

> <r_epik_Ionization_Penalty>
  0.0201

> <r_epik_Ionization_Penalty_Charging>
  0.0015

> <r_epik_Ionization_Penalty_Neutral>
  0.0187

> <r_epik_State_Penalty>
  0.0916

> <r_epik_Charging_Adjusted_Penalty>
0.0930471734291463

> <i_epik_Tot_Q>
1

> <i_epik_Tot_abs_Q>
1

> <s_epik_Chemistry_Notes>
This compound has an imine and may undergo hydrolysis.

$$$$
