3qw5_ligand
                    3D
 Schrodinger Suite 2020-3.
 80 80  0  0  1  0            999 V2000
   27.6380   27.5060   52.9170 N   0  3  0  0  0  0
   27.5490   26.0210   52.9390 C   0  0  2  0  0  0
   26.5170   25.5690   53.9700 C   0  0  0  0  0  0
   26.3290   26.2110   55.0020 O   0  0  0  0  0  0
   28.9140   25.4070   53.2840 C   0  0  0  0  0  0
   30.0330   25.7970   52.3260 C   0  0  0  0  0  0
   31.2680   24.9320   52.5370 C   0  0  0  0  0  0
   32.3250   25.2120   51.5640 N   0  0  0  0  0  0
   33.1760   26.2320   51.6460 C   0  0  0  0  0  0
   33.1040   27.0800   52.6620 N   0  3  0  0  0  0
   34.1040   26.4020   50.7100 N   0  0  0  0  0  0
   25.8530   24.4590   53.6690 N   0  0  0  0  0  0
   24.8320   23.8850   54.5350 C   0  0  2  0  0  0
   25.3960   23.2960   55.8210 C   0  0  0  0  0  0
   24.7730   23.3950   56.8750 O   0  0  0  0  0  0
   24.0750   22.7970   53.7740 C   0  0  0  0  0  0
   23.0340   23.2860   52.7890 C   0  0  0  0  0  0
   21.7110   23.4860   53.4980 C   0  0  0  0  0  0
   21.4170   22.3480   54.3680 N   0  0  0  0  0  0
   20.2500   22.1310   54.9640 C   0  0  0  0  0  0
   19.2440   22.9740   54.7870 N   0  3  0  0  0  0
   20.0910   21.0670   55.7400 N   0  0  0  0  0  0
   26.5690   22.6800   55.7200 N   0  0  0  0  0  0
   27.1840   22.0790   56.8910 C   0  0  0  0  0  0
   26.6120   20.7000   57.2150 C   0  0  0  0  0  0
   25.9370   20.0980   56.3480 O   0  0  0  0  0  0
   26.8590   20.2010   58.4350 N   0  0  0  0  0  0
   26.3640   18.8770   58.8290 C   0  0  2  0  0  0
   24.8540   18.8270   59.0820 C   0  0  0  0  0  0
   24.2610   17.7440   58.8590 O   0  0  0  0  0  0
   27.0990   18.3740   60.0640 C   0  0  0  0  0  0
   28.5820   18.2000   59.8580 C   0  0  0  0  0  0
   29.4670   19.2160   60.1960 C   0  0  0  0  0  0
   29.0880   17.0380   59.2880 C   0  0  0  0  0  0
   30.8400   19.0790   59.9670 C   0  0  0  0  0  0
   30.4510   16.8880   59.0530 C   0  0  0  0  0  0
   31.3320   17.9130   59.3940 C   0  0  0  0  0  0
   24.1870   19.9460   59.5490 N   0  0  0  0  0  0
   26.6533   27.9287   52.6687 H   0  0  0  0  0  0
   28.3725   27.8181   52.1599 H   0  0  0  0  0  0
   27.9541   27.8691   53.9061 H   0  0  0  0  0  0
   27.2351   25.7093   51.9319 H   0  0  0  0  0  0
   29.2199   25.7343   54.2886 H   0  0  0  0  0  0
   28.8384   24.3098   53.2631 H   0  0  0  0  0  0
   29.6891   25.6691   51.2890 H   0  0  0  0  0  0
   30.3093   26.8485   52.4936 H   0  0  0  0  0  0
   31.6769   25.1155   53.5416 H   0  0  0  0  0  0
   30.9934   23.8712   52.4410 H   0  0  0  0  0  0
   32.4565   24.5562   50.6907 H   0  0  0  0  0  0
   32.3376   26.9434   53.4392 H   0  0  0  0  0  0
   34.1677   25.7008   49.8649 H   0  0  0  0  0  0
   34.8084   27.2439   50.7804 H   0  0  0  0  0  0
   26.1045   23.9700   52.7163 H   0  0  0  0  0  0
   24.1909   24.7390   54.7990 H   0  0  0  0  0  0
   24.7874   22.1921   53.1939 H   0  0  0  0  0  0
   23.5432   22.1519   54.4889 H   0  0  0  0  0  0
   23.3615   24.2416   52.3537 H   0  0  0  0  0  0
   22.9088   22.5422   51.9883 H   0  0  0  0  0  0
   21.7569   24.3995   54.1090 H   0  0  0  0  0  0
   20.9070   23.5828   52.7536 H   0  0  0  0  0  0
   22.1926   21.5942   54.5686 H   0  0  0  0  0  0
   19.3731   23.8571   54.1440 H   0  0  0  0  0  0
   20.9249   20.3652   55.8888 H   0  0  0  0  0  0
   19.1253   20.8865   56.2348 H   0  0  0  0  0  0
   27.0745   22.6262   54.7445 H   0  0  0  0  0  0
   28.2644   21.9638   56.7193 H   0  0  0  0  0  0
   27.0186   22.7262   57.7650 H   0  0  0  0  0  0
   27.4442   20.8032   59.1455 H   0  0  0  0  0  0
   26.5893   18.2568   57.9489 H   0  0  0  0  0  0
   26.9648   19.0906   60.8877 H   0  0  0  0  0  0
   26.6926   17.3955   60.3594 H   0  0  0  0  0  0
   29.0861   20.1328   60.6460 H   0  0  0  0  0  0
   28.4059   16.2309   59.0207 H   0  0  0  0  0  0
   31.5222   19.8850   60.2374 H   0  0  0  0  0  0
   30.8295   15.9703   58.6029 H   0  0  0  0  0  0
   32.4008   17.8003   59.2121 H   0  0  0  0  0  0
   24.7400   20.8789   59.7333 H   0  0  0  0  0  0
   23.1039   19.9026   59.7359 H   0  0  0  0  0  0
   18.2794   22.7910   55.2830 H   0  0  0  0  0  0
   33.8106   27.9204   52.7281 H   0  0  0  0  0  0
  1  2  1  0  0  0
  1 39  1  0  0  0
  1 40  1  0  0  0
  1 41  1  0  0  0
  2  3  1  0  0  0
  2  5  1  0  0  0
  2 42  1  0  0  0
  3  4  2  0  0  0
  3 12  1  0  0  0
  5  6  1  0  0  0
  5 43  1  0  0  0
  5 44  1  0  0  0
  6  7  1  0  0  0
  6 45  1  0  0  0
  6 46  1  0  0  0
  7  8  1  0  0  0
  7 47  1  0  0  0
  7 48  1  0  0  0
  8  9  1  0  0  0
  8 49  1  0  0  0
  9 10  2  0  0  0
  9 11  1  0  0  0
 10 50  1  0  0  0
 10 80  1  0  0  0
 11 51  1  0  0  0
 11 52  1  0  0  0
 12 13  1  0  0  0
 12 53  1  0  0  0
 13 14  1  0  0  0
 13 16  1  0  0  0
 13 54  1  0  0  0
 14 15  2  0  0  0
 14 23  1  0  0  0
 16 17  1  0  0  0
 16 55  1  0  0  0
 16 56  1  0  0  0
 17 18  1  0  0  0
 17 57  1  0  0  0
 17 58  1  0  0  0
 18 19  1  0  0  0
 18 59  1  0  0  0
 18 60  1  0  0  0
 19 20  1  0  0  0
 19 61  1  0  0  0
 20 21  2  0  0  0
 20 22  1  0  0  0
 21 62  1  0  0  0
 21 79  1  0  0  0
 22 63  1  0  0  0
 22 64  1  0  0  0
 23 24  1  0  0  0
 23 65  1  0  0  0
 24 25  1  0  0  0
 24 66  1  0  0  0
 24 67  1  0  0  0
 25 26  2  0  0  0
 25 27  1  0  0  0
 27 28  1  0  0  0
 27 68  1  0  0  0
 28 29  1  0  0  0
 28 31  1  0  0  0
 28 69  1  0  0  0
 29 30  2  0  0  0
 29 38  1  0  0  0
 31 32  1  0  0  0
 31 70  1  0  0  0
 31 71  1  0  0  0
 32 33  2  0  0  0
 32 34  1  0  0  0
 33 35  1  0  0  0
 33 72  1  0  0  0
 34 36  2  0  0  0
 34 73  1  0  0  0
 35 37  2  0  0  0
 35 74  1  0  0  0
 36 37  1  0  0  0
 36 75  1  0  0  0
 37 76  1  0  0  0
 38 77  1  0  0  0
 38 78  1  0  0  0
M  CHG  3   1   1  10   1  21   1
M  END
> <s_m_source_file>
../3qw5_ligand.sdf

> <i_m_source_file_index>
1

> <s_epik_input>
W0hdL049QyhbTkgyXSlcW05IXVtDSDJdW0NIMl1bQ0gyXVtDQEhdKFtOSDMrXSlDKD1PKVtOSF1bQ0BASF0oW0NIMl1bQ0gyXVtDSDJdW05IXS9DKD1OXFtIXSlbTkgyXSlDKD1PKVtOSF1bQ0gyXUMoPU8pW05IXVtDQEhdKEMoPU8pW05IMl0pW0NIMl1jMVtjSF1bY0hdW2NIXVtjSF1bY0hdMQ==

> <s_epik_cmdline>
J2VwaWtfYXBwJywgJy1pbWFlJywgJ2xpZ2FuZF9wcm8ubWFlJywgJy1vbWFlJywgJ2xpZ2FuZF9wcmVwLm1hZScsICctbXMnLCAnMScsICctcGgnLCAnNycsICctcGh0JywgJzAuNScsICctbnQn

> <r_epik_Ionization_Penalty>
  0.1367

> <r_epik_Ionization_Penalty_Charging>
  0.1367

> <r_epik_Ionization_Penalty_Neutral>
  0.0000

> <r_epik_State_Penalty>
  0.1260

> <r_epik_Charging_Adjusted_Penalty>
0.262682342022815

> <i_epik_Tot_Q>
3

> <i_epik_Tot_abs_Q>
3

> <s_epik_Chemistry_Notes>
This compound has an imine and may undergo hydrolysis.

$$$$
