3qw6_ligand
                    3D
 Schrodinger Suite 2020-3.
 68 68  0  0  1  0            999 V2000
   27.5400   27.5300   53.0280 N   0  3  0  0  0  0
   27.3840   26.0480   53.0320 C   0  0  2  0  0  0
   26.3670   25.6230   54.0870 C   0  0  0  0  0  0
   26.3380   26.1680   55.1890 O   0  0  0  0  0  0
   28.7250   25.3730   53.3220 C   0  0  0  0  0  0
   29.8350   25.7180   52.3420 C   0  0  0  0  0  0
   31.0490   24.8350   52.5940 C   0  0  0  0  0  0
   32.1660   25.1390   51.7020 N   0  0  0  0  0  0
   32.9300   26.2230   51.7990 C   0  0  0  0  0  0
   32.7010   27.1150   52.7540 N   0  3  0  0  0  0
   33.9280   26.4140   50.9440 N   0  0  0  0  0  0
   25.5300   24.6520   53.7370 N   0  0  0  0  0  0
   24.4960   24.1420   54.6360 C   0  0  2  0  0  0
   25.1050   23.4880   55.8780 C   0  0  0  0  0  0
   24.5560   23.5880   56.9780 O   0  0  0  0  0  0
   23.6250   23.1190   53.8990 C   0  0  0  0  0  0
   22.3180   22.8110   54.5960 C   0  0  0  0  0  0
   21.2630   23.7200   54.5650 C   0  0  0  0  0  0
   22.1390   21.6190   55.3000 C   0  0  0  0  0  0
   20.0550   23.4560   55.2170 C   0  0  0  0  0  0
   20.9300   21.3410   55.9610 C   0  0  0  0  0  0
   19.8950   22.2690   55.9120 C   0  0  0  0  0  0
   18.7040   22.0210   56.5580 O   0  0  0  0  0  0
   26.2360   22.8120   55.6970 N   0  0  0  0  0  0
   26.8900   22.1700   56.8240 C   0  0  0  0  0  0
   26.3920   20.7740   57.1510 C   0  0  0  0  0  0
   25.5630   20.2100   56.4320 O   0  0  0  0  0  0
   26.9020   20.2300   58.2550 N   0  0  0  0  0  0
   26.5620   18.8880   58.7280 C   0  0  2  0  0  0
   25.2020   18.8030   59.4110 C   0  0  0  0  0  0
   24.6420   17.6850   59.4460 O   0  0  0  0  0  0
   27.6390   18.3860   59.6970 C   0  0  0  0  0  0
   29.3090   18.3910   59.0130 S   0  0  0  0  0  0
   24.7140   19.9200   59.9720 N   0  0  0  0  0  0
   26.5680   28.0004   52.8183 H   0  0  0  0  0  0
   28.2631   27.8205   52.2516 H   0  0  0  0  0  0
   27.9040   27.8630   54.0112 H   0  0  0  0  0  0
   27.0260   25.7631   52.0317 H   0  0  0  0  0  0
   29.0778   25.6721   54.3200 H   0  0  0  0  0  0
   28.6003   24.2806   53.2894 H   0  0  0  0  0  0
   29.4792   25.5573   51.3136 H   0  0  0  0  0  0
   30.1226   26.7720   52.4700 H   0  0  0  0  0  0
   31.3969   24.9764   53.6279 H   0  0  0  0  0  0
   30.7740   23.7810   52.4405 H   0  0  0  0  0  0
   32.4210   24.4482   50.8848 H   0  0  0  0  0  0
   31.8754   26.9606   53.4643 H   0  0  0  0  0  0
   34.1213   25.6769   50.1507 H   0  0  0  0  0  0
   34.5614   27.3093   51.0291 H   0  0  0  0  0  0
   25.6374   24.2302   52.7268 H   0  0  0  0  0  0
   23.9118   25.0251   54.9341 H   0  0  0  0  0  0
   23.3776   23.5017   52.8978 H   0  0  0  0  0  0
   24.1743   22.1707   53.8036 H   0  0  0  0  0  0
   21.3819   24.6569   54.0209 H   0  0  0  0  0  0
   22.9501   20.8918   55.3378 H   0  0  0  0  0  0
   19.2424   24.1814   55.1785 H   0  0  0  0  0  0
   20.8046   20.4062   56.5073 H   0  0  0  0  0  0
   17.8904   22.7600   56.5144 H   0  0  0  0  0  0
   26.6761   22.7396   54.6915 H   0  0  0  0  0  0
   27.9669   22.0782   56.6194 H   0  0  0  0  0  0
   26.7392   22.7762   57.7294 H   0  0  0  0  0  0
   27.6148   20.8482   58.8204 H   0  0  0  0  0  0
   26.5173   18.2953   57.8024 H   0  0  0  0  0  0
   27.6545   19.0260   60.5915 H   0  0  0  0  0  0
   27.4136   17.3503   59.9911 H   0  0  0  0  0  0
   30.1557   18.0495   59.6266 H   0  0  0  0  0  0
   25.2728   20.8642   59.8936 H   0  0  0  0  0  0
   23.7551   19.8914   60.5103 H   0  0  0  0  0  0
   33.3368   28.0090   52.8355 H   0  0  0  0  0  0
  1  2  1  0  0  0
  1 35  1  0  0  0
  1 36  1  0  0  0
  1 37  1  0  0  0
  2  3  1  0  0  0
  2  5  1  0  0  0
  2 38  1  0  0  0
  3  4  2  0  0  0
  3 12  1  0  0  0
  5  6  1  0  0  0
  5 39  1  0  0  0
  5 40  1  0  0  0
  6  7  1  0  0  0
  6 41  1  0  0  0
  6 42  1  0  0  0
  7  8  1  0  0  0
  7 43  1  0  0  0
  7 44  1  0  0  0
  8  9  1  0  0  0
  8 45  1  0  0  0
  9 10  2  0  0  0
  9 11  1  0  0  0
 10 46  1  0  0  0
 10 68  1  0  0  0
 11 47  1  0  0  0
 11 48  1  0  0  0
 12 13  1  0  0  0
 12 49  1  0  0  0
 13 14  1  0  0  0
 13 16  1  0  0  0
 13 50  1  0  0  0
 14 15  2  0  0  0
 14 24  1  0  0  0
 16 17  1  0  0  0
 16 51  1  0  0  0
 16 52  1  0  0  0
 17 18  2  0  0  0
 17 19  1  0  0  0
 18 20  1  0  0  0
 18 53  1  0  0  0
 19 21  2  0  0  0
 19 54  1  0  0  0
 20 22  2  0  0  0
 20 55  1  0  0  0
 21 22  1  0  0  0
 21 56  1  0  0  0
 22 23  1  0  0  0
 23 57  1  0  0  0
 24 25  1  0  0  0
 24 58  1  0  0  0
 25 26  1  0  0  0
 25 59  1  0  0  0
 25 60  1  0  0  0
 26 27  2  0  0  0
 26 28  1  0  0  0
 28 29  1  0  0  0
 28 61  1  0  0  0
 29 30  1  0  0  0
 29 32  1  0  0  0
 29 62  1  0  0  0
 30 31  2  0  0  0
 30 34  1  0  0  0
 32 33  1  0  0  0
 32 63  1  0  0  0
 32 64  1  0  0  0
 33 65  1  0  0  0
 34 66  1  0  0  0
 34 67  1  0  0  0
M  CHG  2   1   1  10   1
M  END
> <s_m_source_file>
../3qw6_ligand.sdf

> <i_m_source_file_index>
1

> <s_epik_input>
W0hdL049QyhbTkgyXSlcW05IXVtDSDJdW0NIMl1bQ0gyXVtDQEhdKFtOSDMrXSlDKD1PKVtOSF1bQ0BASF0oW0NIMl1jMVtjSF1bY0hdYyhbT0hdKVtjSF1bY0hdMSlDKD1PKVtOSF1bQ0gyXUMoPU8pW05IXVtDQEhdKEMoPU8pW05IMl0pW0NIMl1bU0hd

> <s_epik_cmdline>
J2VwaWtfYXBwJywgJy1pbWFlJywgJ2xpZ2FuZF9wcm8ubWFlJywgJy1vbWFlJywgJ2xpZ2FuZF9wcmVwLm1hZScsICctbXMnLCAnMScsICctcGgnLCAnNycsICctcGh0JywgJzAuNScsICctbnQn

> <r_lp_tautomer_probability>
1

> <r_epik_Ionization_Penalty>
  0.1532

> <r_epik_Ionization_Penalty_Charging>
  0.1428

> <r_epik_Ionization_Penalty_Neutral>
  0.0104

> <r_epik_State_Penalty>
 -0.0000

> <r_epik_Charging_Adjusted_Penalty>
0.142780031473917

> <i_epik_Tot_Q>
2

> <i_epik_Tot_abs_Q>
2

> <s_epik_Chemistry_Notes>
This compound has an imine and may undergo hydrolysis.

$$$$
