3qw7_ligand
                    3D
 Schrodinger Suite 2020-3.
 84 84  0  0  1  0            999 V2000
   27.0900   27.7610   53.0240 N   0  3  0  0  0  0
   27.2360   26.2780   53.0750 C   0  0  2  0  0  0
   26.5420   25.7710   54.3220 C   0  0  0  0  0  0
   26.3240   26.5300   55.2690 O   0  0  0  0  0  0
   28.7040   25.8620   53.1980 C   0  0  0  0  0  0
   29.6660   26.3660   52.1550 C   0  0  0  0  0  0
   30.9650   25.5690   52.2780 C   0  0  0  0  0  0
   32.0310   26.0670   51.4170 N   0  0  0  0  0  0
   32.7520   27.1530   51.6680 C   0  0  0  0  0  0
   32.5270   27.8670   52.7640 N   0  0  0  0  0  0
   33.7050   27.5250   50.8240 N   0  3  0  0  0  0
   26.1890   24.4910   54.3250 N   0  0  0  0  0  0
   25.5920   23.9100   55.5160 C   0  0  2  0  0  0
   26.6830   22.9830   56.0530 C   0  0  0  0  0  0
   27.6390   22.6750   55.3420 O   0  0  0  0  0  0
   24.2840   23.1640   55.1890 C   0  0  0  0  0  0
   24.3950   21.9530   54.2970 C   0  0  0  0  0  0
   23.0250   21.5940   53.6910 C   0  0  0  0  0  0
   21.9400   21.4630   54.6720 N   0  0  0  0  0  0
   20.9670   22.3560   54.8550 C   0  0  0  0  0  0
   20.9240   23.4680   54.1300 N   0  0  0  0  0  0
   20.0200   22.1310   55.7560 N   0  3  0  0  0  0
   26.5670   22.5620   57.3040 N   0  0  0  0  0  0
   27.5840   21.7120   57.9030 C   0  0  2  0  0  0
   27.1110   20.2710   58.0250 C   0  0  0  0  0  0
   27.5070   19.4090   57.2360 O   0  0  0  0  0  0
   27.9630   22.2910   59.2710 C   0  0  0  0  0  0
   29.1650   21.6550   59.8990 C   0  0  0  0  0  0
   30.3870   21.6200   59.2330 C   0  0  0  0  0  0
   29.0780   21.1040   61.1700 C   0  0  0  0  0  0
   31.5100   21.0510   59.8340 C   0  0  0  0  0  0
   30.1920   20.5340   61.7820 C   0  0  0  0  0  0
   31.4100   20.5040   61.1100 C   0  0  0  0  0  0
   26.2640   20.0070   59.0140 N   0  0  0  0  0  0
   25.7450   18.6580   59.2090 C   0  0  2  0  0  0
   24.3760   18.5330   58.5520 C   0  0  0  0  0  0
   23.4990   17.8480   59.1250 O   0  0  0  0  0  0
   25.6240   18.3250   60.7000 C   0  0  0  0  0  0
   27.1990   18.3600   61.5950 S   0  0  0  0  0  0
   24.2830   19.0830   57.2860 N   0  0  0  0  0  0
   26.0250   28.0218   52.9359 H   0  0  0  0  0  0
   27.6368   28.1535   52.1540 H   0  0  0  0  0  0
   27.5005   28.2017   53.9445 H   0  0  0  0  0  0
   26.7945   25.8843   52.1476 H   0  0  0  0  0  0
   29.1069   26.2184   54.1575 H   0  0  0  0  0  0
   28.7794   24.7655   53.1533 H   0  0  0  0  0  0
   29.2295   26.2254   51.1551 H   0  0  0  0  0  0
   29.8614   27.4354   52.3226 H   0  0  0  0  0  0
   31.3276   25.6168   53.3154 H   0  0  0  0  0  0
   30.7793   24.5204   52.0024 H   0  0  0  0  0  0
   32.2829   25.5332   50.4888 H   0  0  0  0  0  0
   31.7376   27.5620   53.4667 H   0  0  0  0  0  0
   33.1300   28.7637   52.9697 H   0  0  0  0  0  0
   33.8948   26.9361   49.9145 H   0  0  0  0  0  0
   26.3469   23.8707   53.4304 H   0  0  0  0  0  0
   25.3163   24.7022   56.2277 H   0  0  0  0  0  0
   23.8238   22.8049   56.1213 H   0  0  0  0  0  0
   23.5903   23.8472   54.6772 H   0  0  0  0  0  0
   25.1006   22.1631   53.4797 H   0  0  0  0  0  0
   24.7586   21.0970   54.8844 H   0  0  0  0  0  0
   22.7213   22.3777   52.9813 H   0  0  0  0  0  0
   23.0979   20.6309   53.1646 H   0  0  0  0  0  0
   21.8909   20.5776   55.3228 H   0  0  0  0  0  0
   21.7036   23.6658   53.3796 H   0  0  0  0  0  0
   20.1088   24.1911   54.2799 H   0  0  0  0  0  0
   20.0447   21.2137   56.3626 H   0  0  0  0  0  0
   25.6869   22.8637   57.8909 H   0  0  0  0  0  0
   28.4421   21.7213   57.2148 H   0  0  0  0  0  0
   28.1845   23.3634   59.1666 H   0  0  0  0  0  0
   27.1254   22.1561   59.9711 H   0  0  0  0  0  0
   30.4672   22.0418   58.2311 H   0  0  0  0  0  0
   28.1239   21.1175   61.6970 H   0  0  0  0  0  0
   32.4633   21.0348   59.3057 H   0  0  0  0  0  0
   30.1098   20.1129   62.7840 H   0  0  0  0  0  0
   32.2834   20.0534   61.5815 H   0  0  0  0  0  0
   25.9547   20.8183   59.6894 H   0  0  0  0  0  0
   26.4743   17.9888   58.7291 H   0  0  0  0  0  0
   24.9590   19.0543   61.1858 H   0  0  0  0  0  0
   25.2071   17.3138   60.8172 H   0  0  0  0  0  0
   27.2249   18.1357   62.6716 H   0  0  0  0  0  0
   25.1190   19.6707   56.8789 H   0  0  0  0  0  0
   23.3731   18.9326   56.6865 H   0  0  0  0  0  0
   19.2099   22.8617   55.8967 H   0  0  0  0  0  0
   34.3056   28.4224   51.0335 H   0  0  0  0  0  0
  1  2  1  0  0  0
  1 41  1  0  0  0
  1 42  1  0  0  0
  1 43  1  0  0  0
  2  3  1  0  0  0
  2  5  1  0  0  0
  2 44  1  0  0  0
  3  4  2  0  0  0
  3 12  1  0  0  0
  5  6  1  0  0  0
  5 45  1  0  0  0
  5 46  1  0  0  0
  6  7  1  0  0  0
  6 47  1  0  0  0
  6 48  1  0  0  0
  7  8  1  0  0  0
  7 49  1  0  0  0
  7 50  1  0  0  0
  8  9  1  0  0  0
  8 51  1  0  0  0
  9 10  1  0  0  0
  9 11  2  0  0  0
 10 52  1  0  0  0
 10 53  1  0  0  0
 11 54  1  0  0  0
 11 84  1  0  0  0
 12 13  1  0  0  0
 12 55  1  0  0  0
 13 14  1  0  0  0
 13 16  1  0  0  0
 13 56  1  0  0  0
 14 15  2  0  0  0
 14 23  1  0  0  0
 16 17  1  0  0  0
 16 57  1  0  0  0
 16 58  1  0  0  0
 17 18  1  0  0  0
 17 59  1  0  0  0
 17 60  1  0  0  0
 18 19  1  0  0  0
 18 61  1  0  0  0
 18 62  1  0  0  0
 19 20  1  0  0  0
 19 63  1  0  0  0
 20 21  1  0  0  0
 20 22  2  0  0  0
 21 64  1  0  0  0
 21 65  1  0  0  0
 22 66  1  0  0  0
 22 83  1  0  0  0
 23 24  1  0  0  0
 23 67  1  0  0  0
 24 25  1  0  0  0
 24 27  1  0  0  0
 24 68  1  0  0  0
 25 26  2  0  0  0
 25 34  1  0  0  0
 27 28  1  0  0  0
 27 69  1  0  0  0
 27 70  1  0  0  0
 28 29  2  0  0  0
 28 30  1  0  0  0
 29 31  1  0  0  0
 29 71  1  0  0  0
 30 32  2  0  0  0
 30 72  1  0  0  0
 31 33  2  0  0  0
 31 73  1  0  0  0
 32 33  1  0  0  0
 32 74  1  0  0  0
 33 75  1  0  0  0
 34 35  1  0  0  0
 34 76  1  0  0  0
 35 36  1  0  0  0
 35 38  1  0  0  0
 35 77  1  0  0  0
 36 37  2  0  0  0
 36 40  1  0  0  0
 38 39  1  0  0  0
 38 78  1  0  0  0
 38 79  1  0  0  0
 39 80  1  0  0  0
 40 81  1  0  0  0
 40 82  1  0  0  0
M  CHG  3   1   1  11   1  22   1
M  END
> <s_m_source_file>
../3qw7_ligand.sdf

> <i_m_source_file_index>
1

> <s_epik_input>
W0hdL049QyhbTkgyXSlcW05IXVtDSDJdW0NIMl1bQ0gyXVtDQEhdKFtOSDMrXSlDKD1PKVtOSF1bQ0BASF0oW0NIMl1bQ0gyXVtDSDJdW05IXS9DKFtOSDJdKT1OXFtIXSlDKD1PKVtOSF1bQ0BIXShDKD1PKVtOSF1bQ0BIXShDKD1PKVtOSDJdKVtDSDJdW1NIXSlbQ0gyXWMxW2NIXVtjSF1bY0hdW2NIXVtjSF0x

> <s_epik_cmdline>
J2VwaWtfYXBwJywgJy1pbWFlJywgJ2xpZ2FuZF9wcm8ubWFlJywgJy1vbWFlJywgJ2xpZ2FuZF9wcmVwLm1hZScsICctbXMnLCAnMScsICctcGgnLCAnNycsICctcGh0JywgJzAuNScsICctbnQn

> <r_lp_tautomer_probability>
1

> <r_epik_Ionization_Penalty>
  0.1463

> <r_epik_Ionization_Penalty_Charging>
  0.1367

> <r_epik_Ionization_Penalty_Neutral>
  0.0096

> <r_epik_State_Penalty>
 -0.0000

> <r_epik_Charging_Adjusted_Penalty>
0.136658755312131

> <i_epik_Tot_Q>
3

> <i_epik_Tot_abs_Q>
3

> <s_epik_Chemistry_Notes>
This compound has an imine and may undergo hydrolysis.

$$$$
