3qw8_ligand
                    3D
 Schrodinger Suite 2020-3.
 58 57  0  0  1  0            999 V2000
   27.5540   27.6480   53.0070 N   0  3  0  0  0  0
   27.5650   26.1600   53.1160 C   0  0  2  0  0  0
   26.5280   25.7090   54.1300 C   0  0  0  0  0  0
   26.3660   26.3350   55.1770 O   0  0  0  0  0  0
   28.9410   25.6650   53.5570 C   0  0  0  0  0  0
   30.2080   25.7940   52.2910 S   0  0  0  0  0  0
   25.8440   24.6130   53.8130 N   0  0  0  0  0  0
   24.7990   24.0540   54.6690 C   0  0  2  0  0  0
   25.3140   23.4530   55.9740 C   0  0  0  0  0  0
   24.6450   23.5280   57.0070 O   0  0  0  0  0  0
   24.0240   22.9850   53.8950 C   0  0  0  0  0  0
   22.8980   23.5200   53.0280 C   0  0  0  0  0  0
   21.6540   23.7800   53.8680 C   0  0  0  0  0  0
   21.3340   22.6250   54.7040 N   0  0  0  0  0  0
   20.2310   22.5010   55.4400 C   0  0  0  0  0  0
   19.3140   23.4570   55.4600 N   0  0  0  0  0  0
   20.0470   21.4130   56.1730 N   0  3  0  0  0  0
   26.4990   22.8550   55.9280 N   0  0  0  0  0  0
   27.0570   22.2410   57.1210 C   0  0  0  0  0  0
   26.5250   20.8360   57.3400 C   0  0  0  0  0  0
   25.8950   20.2650   56.4500 O   0  0  0  0  0  0
   26.7780   20.2840   58.5260 N   0  0  0  0  0  0
   26.3330   18.9340   58.8840 C   0  0  2  0  0  0
   24.8310   18.8810   59.1470 C   0  0  0  0  0  0
   24.2370   17.7940   58.9640 O   0  0  0  0  0  0
   27.0760   18.4310   60.1320 C   0  0  0  0  0  0
   28.8510   18.1220   59.9180 S   0  0  0  0  0  0
   24.1790   19.9700   59.6060 N   0  0  0  0  0  0
   26.5564   27.9850   52.6888 H   0  0  0  0  0  0
   28.3022   27.9669   52.2664 H   0  0  0  0  0  0
   27.7953   28.0891   53.9854 H   0  0  0  0  0  0
   27.3225   25.7592   52.1207 H   0  0  0  0  0  0
   29.2841   26.2556   54.4192 H   0  0  0  0  0  0
   28.8753   24.6045   53.8418 H   0  0  0  0  0  0
   31.2354   25.4646   52.5055 H   0  0  0  0  0  0
   26.0942   24.1242   52.8599 H   0  0  0  0  0  0
   24.1816   24.9278   54.9246 H   0  0  0  0  0  0
   24.7113   22.4460   53.2263 H   0  0  0  0  0  0
   23.5703   22.2761   54.6033 H   0  0  0  0  0  0
   23.2140   24.4625   52.5570 H   0  0  0  0  0  0
   22.6544   22.7838   52.2478 H   0  0  0  0  0  0
   21.8267   24.6493   54.5196 H   0  0  0  0  0  0
   20.7997   23.9825   53.2052 H   0  0  0  0  0  0
   22.0296   21.7744   54.7565 H   0  0  0  0  0  0
   19.4537   24.3659   54.8563 H   0  0  0  0  0  0
   18.4129   23.3419   56.0803 H   0  0  0  0  0  0
   20.8001   20.6113   56.1660 H   0  0  0  0  0  0
   27.0585   22.8258   54.9814 H   0  0  0  0  0  0
   28.1513   22.1827   57.0258 H   0  0  0  0  0  0
   26.7973   22.8475   58.0012 H   0  0  0  0  0  0
   27.3463   20.8860   59.2504 H   0  0  0  0  0  0
   26.5737   18.3252   58.0000 H   0  0  0  0  0  0
   26.9871   19.1757   60.9367 H   0  0  0  0  0  0
   26.6346   17.4793   60.4628 H   0  0  0  0  0  0
   29.4524   17.7604   60.7651 H   0  0  0  0  0  0
   24.7236   20.9135   59.7584 H   0  0  0  0  0  0
   23.1030   19.9140   59.8277 H   0  0  0  0  0  0
   19.1411   21.3113   56.7886 H   0  0  0  0  0  0
  1  2  1  0  0  0
  1 29  1  0  0  0
  1 30  1  0  0  0
  1 31  1  0  0  0
  2  3  1  0  0  0
  2  5  1  0  0  0
  2 32  1  0  0  0
  3  4  2  0  0  0
  3  7  1  0  0  0
  5  6  1  0  0  0
  5 33  1  0  0  0
  5 34  1  0  0  0
  6 35  1  0  0  0
  7  8  1  0  0  0
  7 36  1  0  0  0
  8  9  1  0  0  0
  8 11  1  0  0  0
  8 37  1  0  0  0
  9 10  2  0  0  0
  9 18  1  0  0  0
 11 12  1  0  0  0
 11 38  1  0  0  0
 11 39  1  0  0  0
 12 13  1  0  0  0
 12 40  1  0  0  0
 12 41  1  0  0  0
 13 14  1  0  0  0
 13 42  1  0  0  0
 13 43  1  0  0  0
 14 15  1  0  0  0
 14 44  1  0  0  0
 15 16  1  0  0  0
 15 17  2  0  0  0
 16 45  1  0  0  0
 16 46  1  0  0  0
 17 47  1  0  0  0
 17 58  1  0  0  0
 18 19  1  0  0  0
 18 48  1  0  0  0
 19 20  1  0  0  0
 19 49  1  0  0  0
 19 50  1  0  0  0
 20 21  2  0  0  0
 20 22  1  0  0  0
 22 23  1  0  0  0
 22 51  1  0  0  0
 23 24  1  0  0  0
 23 26  1  0  0  0
 23 52  1  0  0  0
 24 25  2  0  0  0
 24 28  1  0  0  0
 26 27  1  0  0  0
 26 53  1  0  0  0
 26 54  1  0  0  0
 27 55  1  0  0  0
 28 56  1  0  0  0
 28 57  1  0  0  0
M  CHG  2   1   1  17   1
M  END
> <s_m_source_file>
../3qw8_ligand.sdf

> <i_m_source_file_index>
1

> <s_epik_input>
W0hdL049QyhbTkgyXSlcW05IXVtDSDJdW0NIMl1bQ0gyXVtDQEhdKFtOSF1DKD1PKVtDQEBIXShbTkgzK10pW0NIMl1bU0hdKUMoPU8pW05IXVtDSDJdQyg9TylbTkhdW0NASF0oQyg9TylbTkgyXSlbQ0gyXVtTSF0=

> <s_epik_cmdline>
J2VwaWtfYXBwJywgJy1pbWFlJywgJ2xpZ2FuZF9wcm8ubWFlJywgJy1vbWFlJywgJ2xpZ2FuZF9wcmVwLm1hZScsICctbXMnLCAnMScsICctcGgnLCAnNycsICctcGh0JywgJzAuNScsICctbnQn

> <r_epik_Ionization_Penalty>
  0.3807

> <r_epik_Ionization_Penalty_Charging>
  0.3342

> <r_epik_Ionization_Penalty_Neutral>
  0.0466

> <r_epik_State_Penalty>
  0.3294

> <r_epik_Charging_Adjusted_Penalty>
0.663603318566898

> <i_epik_Tot_Q>
2

> <i_epik_Tot_abs_Q>
2

> <s_epik_Chemistry_Notes>
This compound has an imine and may undergo hydrolysis.

$$$$
