3qwc_ligand
                    3D
 Schrodinger Suite 2020-3.
 55 57  0  0  1  0            999 V2000
   16.3970  -15.3470   23.1690 N   0  3  0  0  0  0
   17.6100  -14.5520   23.2980 C   0  0  1  0  0  0
   17.3580  -13.1950   22.6970 C   0  0  0  0  0  0
   16.3610  -12.5520   23.0190 O   0  0  0  0  0  0
   18.0050  -14.4560   24.7780 C   0  0  0  0  0  0
   19.4320  -13.9630   24.9000 C   0  0  0  0  0  0
   20.4820  -14.7060   24.3680 C   0  0  0  0  0  0
   19.6990  -12.7720   25.5610 C   0  0  0  0  0  0
   21.7910  -14.2420   24.4870 C   0  0  0  0  0  0
   21.0030  -12.3100   25.6770 C   0  0  0  0  0  0
   22.0540  -13.0480   25.1400 C   0  0  0  0  0  0
   18.2460  -12.7420   21.8050 N   0  0  0  0  0  0
   18.0340  -11.4370   21.1770 C   0  0  2  0  0  0
   16.7110  -11.4310   20.4770 C   0  0  0  0  0  0
   16.3900  -12.3850   19.7730 O   0  0  0  0  0  0
   19.1650  -11.2950   20.1670 C   0  0  0  0  0  0
   20.2070  -12.3360   20.5570 C   0  0  0  0  0  0
   19.4590  -13.4130   21.3270 C   0  0  0  0  0  0
   14.5970  -10.2330   20.0690 C   0  0  0  0  0  0
   13.6110  -11.0090   20.9210 C   0  0  0  0  0  0
   13.4330  -12.3730   20.7490 C   0  0  0  0  0  0
   12.3950  -14.4910   21.3050 C   0  0  0  0  0  0
   11.8350  -12.4310   22.4530 C   0  0  0  0  0  0
   11.9720  -11.0690   22.6730 C   0  0  0  0  0  0
   12.8680  -10.3690   21.8820 C   0  0  0  0  0  0
   15.9190  -10.3750   20.6700 N   0  0  0  0  0  0
   12.5620  -13.0480   21.5090 N   0  0  0  0  0  0
   13.0960   -8.6210   22.1220 Cl  0  0  0  0  0  0
   16.1145  -15.4154   22.1081 H   0  0  0  0  0  0
   15.5837  -14.8694   23.7350 H   0  0  0  0  0  0
   16.5765  -16.3568   23.5665 H   0  0  0  0  0  0
   18.4145  -15.0467   22.7341 H   0  0  0  0  0  0
   17.3331  -13.7528   25.2919 H   0  0  0  0  0  0
   17.9231  -15.4488   25.2445 H   0  0  0  0  0  0
   20.2810  -15.6488   23.8593 H   0  0  0  0  0  0
   18.8799  -12.1960   25.9916 H   0  0  0  0  0  0
   22.6120  -14.8211   24.0644 H   0  0  0  0  0  0
   21.2039  -11.3689   26.1889 H   0  0  0  0  0  0
   23.0789  -12.6887   25.2326 H   0  0  0  0  0  0
   18.0201  -10.6336   21.9283 H   0  0  0  0  0  0
   18.7775  -11.4797   19.1542 H   0  0  0  0  0  0
   19.5793  -10.2774   20.2211 H   0  0  0  0  0  0
   20.6716  -12.7478   19.6489 H   0  0  0  0  0  0
   20.9795  -11.8651   21.1827 H   0  0  0  0  0  0
   20.0376  -13.7809   22.1871 H   0  0  0  0  0  0
   19.1799  -14.2603   20.6834 H   0  0  0  0  0  0
   14.5980  -10.6398   19.0470 H   0  0  0  0  0  0
   14.3033   -9.1733   20.0416 H   0  0  0  0  0  0
   14.0102  -12.9106   19.9824 H   0  0  0  0  0  0
   13.0634  -14.8271   20.4985 H   0  0  0  0  0  0
   11.3516  -14.7040   21.0292 H   0  0  0  0  0  0
   12.6448  -15.0240   22.2343 H   0  0  0  0  0  0
   11.1297  -13.0062   23.0528 H   0  0  0  0  0  0
   11.3949  -10.5431   23.4478 H   0  0  0  0  0  0
   16.3136   -9.5837   21.3243 H   0  0  0  0  0  0
  1  2  1  0  0  0
  1 29  1  0  0  0
  1 30  1  0  0  0
  1 31  1  0  0  0
  2  3  1  0  0  0
  2  5  1  0  0  0
  2 32  1  0  0  0
  3  4  2  0  0  0
  3 12  1  0  0  0
  5  6  1  0  0  0
  5 33  1  0  0  0
  5 34  1  0  0  0
  6  7  2  0  0  0
  6  8  1  0  0  0
  7  9  1  0  0  0
  7 35  1  0  0  0
  8 10  2  0  0  0
  8 36  1  0  0  0
  9 11  2  0  0  0
  9 37  1  0  0  0
 10 11  1  0  0  0
 10 38  1  0  0  0
 11 39  1  0  0  0
 12 13  1  0  0  0
 12 18  1  0  0  0
 13 14  1  0  0  0
 13 16  1  0  0  0
 13 40  1  0  0  0
 14 15  2  0  0  0
 14 26  1  0  0  0
 16 17  1  0  0  0
 16 41  1  0  0  0
 16 42  1  0  0  0
 17 18  1  0  0  0
 17 43  1  0  0  0
 17 44  1  0  0  0
 18 45  1  0  0  0
 18 46  1  0  0  0
 19 20  1  0  0  0
 19 26  1  0  0  0
 19 47  1  0  0  0
 19 48  1  0  0  0
 20 21  2  0  0  0
 20 25  1  0  0  0
 21 27  1  0  0  0
 21 49  1  0  0  0
 22 27  1  0  0  0
 22 50  1  0  0  0
 22 51  1  0  0  0
 22 52  1  0  0  0
 23 24  1  0  0  0
 23 27  1  0  0  0
 23 53  1  0  0  0
 24 25  2  0  0  0
 24 54  1  0  0  0
 25 28  1  0  0  0
 26 55  1  0  0  0
M  CHG  1   1   1
M  END
> <s_m_source_file>
../3qwc_ligand.sdf

> <i_m_source_file_index>
1

> <s_epik_input>
W2NIXTFbY0hdW2NIXVtjSF1bY0hdYzFbQ0gyXVtDQEBIXShbTkgzK10pQyg9TylOMltDQEBIXShbQ0gyXVtDSDJdW0NIMl0yKUMoPU8pW05IXVtDSDJdQzM9W0NIXU4oW0NIM10pW0NIMl1bQ0hdPUMzQ2w=

> <s_epik_cmdline>
J2VwaWtfYXBwJywgJy1pbWFlJywgJ2xpZ2FuZF9wcm8ubWFlJywgJy1vbWFlJywgJ2xpZ2FuZF9wcmVwLm1hZScsICctbXMnLCAnMScsICctcGgnLCAnNycsICctcGh0JywgJzAuNScsICctbnQn

> <r_epik_Ionization_Penalty>
  0.1805

> <r_epik_Ionization_Penalty_Charging>
  0.1805

> <r_epik_Ionization_Penalty_Neutral>
  0.0000

> <r_epik_State_Penalty>
  0.1700

> <r_epik_Charging_Adjusted_Penalty>
0.350449203061821

> <i_epik_Tot_Q>
1

> <i_epik_Tot_abs_Q>
1

$$$$
