3qx5_ligand
                    3D
 Schrodinger Suite 2020-3.
 55 57  0  0  1  0            999 V2000
   16.4240  -15.5120   23.3060 N   0  3  0  0  0  0
   17.6850  -14.7880   23.3080 C   0  0  1  0  0  0
   17.4080  -13.4370   22.7140 C   0  0  0  0  0  0
   16.4780  -12.7610   23.1340 O   0  0  0  0  0  0
   18.1720  -14.6910   24.7490 C   0  0  0  0  0  0
   19.5740  -14.1400   24.8310 C   0  0  0  0  0  0
   19.7810  -12.9810   25.5680 C   0  0  0  0  0  0
   20.6460  -14.7660   24.1940 C   0  0  0  0  0  0
   21.0550  -12.4410   25.6690 C   0  0  0  0  0  0
   21.9240  -14.2220   24.2990 C   0  0  0  0  0  0
   22.1300  -13.0620   25.0390 C   0  0  0  0  0  0
   18.1760  -13.0170   21.7070 N   0  0  0  0  0  0
   17.8850  -11.7110   21.1120 C   0  0  2  0  0  0
   16.4510  -11.6410   20.6420 C   0  0  0  0  0  0
   15.9570  -12.5680   20.0060 O   0  0  0  0  0  0
   18.8570  -11.6130   19.9430 C   0  0  0  0  0  0
   19.9600  -12.6050   20.2520 C   0  0  0  0  0  0
   19.3160  -13.6980   21.0900 C   0  0  0  0  0  0
   12.2700   -7.5340   24.5420 Cl  0  0  0  0  0  0
   15.7480  -10.5500   20.9450 N   0  0  0  0  0  0
   14.3550  -10.3360   20.5670 C   0  0  0  0  0  0
   13.4280  -10.2790   21.7690 C   0  0  0  0  0  0
   12.7200  -11.3620   22.1460 N   0  0  0  0  0  0
   13.3000   -9.0870   22.4730 C   0  0  0  0  0  0
   12.4470   -9.0340   23.5760 C   0  0  3  0  0  0
   11.7230  -10.1610   23.9420 C   0  0  0  0  0  0
   11.8890  -11.3200   23.2010 C   0  0  0  0  0  0
   12.8480  -12.6260   21.4090 C   0  0  0  0  0  0
   16.0508  -15.5956   22.2746 H   0  0  0  0  0  0
   15.6890  -14.9699   23.9191 H   0  0  0  0  0  0
   16.5783  -16.5182   23.7228 H   0  0  0  0  0  0
   18.4403  -15.3083   22.7007 H   0  0  0  0  0  0
   17.5057  -14.0253   25.3172 H   0  0  0  0  0  0
   18.1671  -15.6916   25.2059 H   0  0  0  0  0  0
   18.9423  -12.4956   26.0671 H   0  0  0  0  0  0
   20.4841  -15.6764   23.6169 H   0  0  0  0  0  0
   21.2146  -11.5283   26.2430 H   0  0  0  0  0  0
   22.7640  -14.7059   23.8006 H   0  0  0  0  0  0
   23.1313  -12.6401   25.1254 H   0  0  0  0  0  0
   18.0061  -10.9054   21.8511 H   0  0  0  0  0  0
   18.3348  -11.8697   19.0095 H   0  0  0  0  0  0
   19.2464  -10.5865   19.8750 H   0  0  0  0  0  0
   20.3630  -13.0098   19.3119 H   0  0  0  0  0  0
   20.7633  -12.0989   20.8075 H   0  0  0  0  0  0
   19.9861  -14.0766   21.8759 H   0  0  0  0  0  0
   18.9545  -14.5389   20.4800 H   0  0  0  0  0  0
   16.2865   -9.7814   21.5188 H   0  0  0  0  0  0
   14.2645   -9.3835   20.0243 H   0  0  0  0  0  0
   14.0199  -11.1600   19.9199 H   0  0  0  0  0  0
   13.8679   -8.1989   22.1587 H   0  0  0  0  0  0
   11.0309  -10.1491   24.7969 H   0  0  0  0  0  0
   11.3346  -12.2305   23.4724 H   0  0  0  0  0  0
   13.5600  -12.4969   20.5805 H   0  0  0  0  0  0
   11.8664  -12.9170   21.0069 H   0  0  0  0  0  0
   13.2135  -13.4107   22.0877 H   0  0  0  0  0  0
  1  2  1  0  0  0
  1 29  1  0  0  0
  1 30  1  0  0  0
  1 31  1  0  0  0
  2  3  1  0  0  0
  2  5  1  0  0  0
  2 32  1  0  0  0
  3  4  2  0  0  0
  3 12  1  0  0  0
  5  6  1  0  0  0
  5 33  1  0  0  0
  5 34  1  0  0  0
  6  7  2  0  0  0
  6  8  1  0  0  0
  7  9  1  0  0  0
  7 35  1  0  0  0
  8 10  2  0  0  0
  8 36  1  0  0  0
  9 11  2  0  0  0
  9 37  1  0  0  0
 10 11  1  0  0  0
 10 38  1  0  0  0
 11 39  1  0  0  0
 12 13  1  0  0  0
 12 18  1  0  0  0
 13 14  1  0  0  0
 13 16  1  0  0  0
 13 40  1  0  0  0
 14 15  2  0  0  0
 14 20  1  0  0  0
 16 17  1  0  0  0
 16 41  1  0  0  0
 16 42  1  0  0  0
 17 18  1  0  0  0
 17 43  1  0  0  0
 17 44  1  0  0  0
 18 45  1  0  0  0
 18 46  1  0  0  0
 19 25  1  0  0  0
 20 21  1  0  0  0
 20 47  1  0  0  0
 21 22  1  0  0  0
 21 48  1  0  0  0
 21 49  1  0  0  0
 22 23  1  0  0  0
 22 24  2  0  0  0
 23 27  1  0  0  0
 23 28  1  0  0  0
 24 25  1  0  0  0
 24 50  1  0  0  0
 25 26  1  0  0  0
 26 27  2  0  0  0
 26 51  1  0  0  0
 27 52  1  0  0  0
 28 53  1  0  0  0
 28 54  1  0  0  0
 28 55  1  0  0  0
M  CHG  1   1   1
M  END
> <s_m_source_file>
../3qx5_ligand.sdf

> <i_m_source_file_index>
1

> <s_epik_input>
W2NIXTFbY0hdW2NIXVtjSF1bY0hdYzFbQ0gyXVtDQEBIXShbTkgzK10pQyg9TylOMltDQEBIXShbQ0gyXVtDSDJdW0NIMl0yKUMoPU8pW05IXVtDSDJdQzM9W0NIXVtDSF0oQ2wpW0NIXT1bQ0hdTjNbQ0gzXQ==

> <s_epik_cmdline>
J2VwaWtfYXBwJywgJy1pbWFlJywgJ2xpZ2FuZF9wcm8ubWFlJywgJy1vbWFlJywgJ2xpZ2FuZF9wcmVwLm1hZScsICctbXMnLCAnMScsICctcGgnLCAnNycsICctcGh0JywgJzAuNScsICctbnQn

> <r_epik_Ionization_Penalty>
  0.1805

> <r_epik_Ionization_Penalty_Charging>
  0.1805

> <r_epik_Ionization_Penalty_Neutral>
  0.0000

> <r_epik_State_Penalty>
  0.1700

> <r_epik_Charging_Adjusted_Penalty>
0.350449203061821

> <i_epik_Tot_Q>
1

> <i_epik_Tot_abs_Q>
1

> <s_epik_Chemistry_Notes>
This compound has an imine and may undergo hydrolysis.

$$$$
