3qx8_ligand
                    3D
 Schrodinger Suite 2020-3.
 78 83  0  0  1  0            999 V2000
   18.9070    3.2180  -21.5640 P   0  0  2  0  0  0
   18.7930    2.0660  -20.6310 O   0  0  0  0  0  0
   17.3990    3.6050  -22.0120 O   0  5  0  0  0  0
   19.8450    2.5750  -22.7780 O   0  0  0  0  0  0
   20.7840    3.6720  -23.6600 P   0  0  1  0  0  0
   22.1650    3.9440  -22.8280 O   0  5  0  0  0  0
   21.1810    2.9790  -24.8780 O   0  0  0  0  0  0
   20.0380    5.1520  -24.2190 O   0  0  0  0  0  0
   21.7570    6.5640  -16.4180 N   0  3  0  0  0  0
   21.9960    6.1530  -15.1430 C   0  0  0  0  0  0
   23.1920    6.4490  -14.7770 N   0  0  0  0  0  0
   23.7540    6.1290  -13.4800 C   0  0  0  0  0  0
   23.8290    7.0750  -15.7970 C   0  0  0  0  0  0
   25.1460    7.6260  -15.9900 C   0  0  0  0  0  0
   25.9880    7.5700  -15.1040 O   0  0  0  0  0  0
   25.4430    8.2060  -17.2040 N   0  0  0  0  0  0
   24.4940    8.2660  -18.2130 C   0  0  0  0  0  0
   24.8170    8.8520  -19.4110 N   0  0  0  0  0  0
   23.2680    7.7570  -18.0450 N   0  0  0  0  0  0
   22.8980    7.1680  -16.8720 C   0  0  0  0  0  0
   19.6040    4.3580  -20.6170 O   0  0  0  0  0  0
   18.5780    4.9700  -19.7760 C   0  0  0  0  0  0
   19.1930    5.6420  -18.5350 C   0  0  1  0  0  0
   20.3870    6.4270  -18.5450 O   0  0  0  0  0  0
   18.2280    6.5000  -17.6540 C   0  0  1  0  0  0
   17.1410    5.7650  -17.0910 O   0  0  0  0  0  0
   19.2330    7.0710  -16.6100 C   0  0  1  0  0  0
   18.8450    6.7680  -15.2620 O   0  0  0  0  0  0
   20.4940    6.3320  -17.1090 C   0  0  2  0  0  0
   19.9990    5.3060  -25.7620 P   0  0  1  0  0  0
   21.4840    4.8760  -26.4930 O   0  5  0  0  0  0
   18.8800    4.5010  -26.3940 O   0  0  0  0  0  0
   20.0730    6.9050  -26.1340 O   0  0  0  0  0  0
   19.6450    7.1640  -27.4930 C   0  0  0  0  0  0
   19.8350    8.6410  -27.6480 C   0  0  1  0  0  0
   21.1630    8.7080  -28.4030 O   0  0  0  0  0  0
   18.9910    9.2920  -28.7080 C   0  0  1  0  0  0
   18.5290   10.4330  -27.9690 O   0  0  0  0  0  0
   19.7610    9.7730  -29.9040 C   0  0  1  0  0  0
   19.3480   11.1070  -30.2490 O   0  0  0  0  0  0
   21.2460    9.7360  -29.5270 C   0  0  2  0  0  0
   21.6880    9.4030  -30.9110 N   0  0  0  0  0  0
   22.0500    8.2050  -31.4520 C   0  0  0  0  0  0
   22.2810    8.3640  -32.7460 N   0  0  0  0  0  0
   22.0780    9.6860  -33.0940 C   0  0  0  0  0  0
   22.1360   10.4660  -34.3280 C   0  0  0  0  0  0
   22.4080    9.9430  -35.4070 O   0  0  0  0  0  0
   21.8710   11.8180  -34.2720 N   0  3  0  0  0  0
   21.5530   12.4150  -33.0690 C   0  0  0  0  0  0
   21.3120   13.7700  -33.0300 N   0  0  0  0  0  0
   21.4720   11.7030  -31.9380 N   0  0  0  0  0  0
   21.7270   10.3620  -31.9140 C   0  0  0  0  0  0
   21.2683    5.6399  -14.5143 H   0  0  0  0  0  0
   22.9948    5.6220  -12.8664 H   0  0  0  0  0  0
   24.0712    7.0556  -12.9792 H   0  0  0  0  0  0
   24.6225    5.4666  -13.6101 H   0  0  0  0  0  0
   25.7496    9.2395  -19.5542 H   0  0  0  0  0  0
   22.5342    7.8086  -18.8629 H   0  0  0  0  0  0
   18.0379    5.7343  -20.3541 H   0  0  0  0  0  0
   17.8711    4.1974  -19.4392 H   0  0  0  0  0  0
   19.5760    4.6784  -18.1678 H   0  0  0  0  0  0
   17.5946    7.2332  -18.1748 H   0  0  0  0  0  0
   16.3779    5.3220  -17.7478 H   0  0  0  0  0  0
   19.3221    8.1595  -16.4784 H   0  0  0  0  0  0
   17.9581    7.2489  -14.8236 H   0  0  0  0  0  0
   20.5991    5.2651  -16.8628 H   0  0  0  0  0  0
   20.2702    6.5873  -28.1905 H   0  0  0  0  0  0
   18.5931    6.8640  -27.6096 H   0  0  0  0  0  0
   19.6601    9.0926  -26.6603 H   0  0  0  0  0  0
   18.2101    8.6338  -29.1167 H   0  0  0  0  0  0
   17.9400   10.2919  -27.0508 H   0  0  0  0  0  0
   19.5403    9.1766  -30.8015 H   0  0  0  0  0  0
   18.3063   11.3013  -30.5440 H   0  0  0  0  0  0
   21.9151   10.5228  -29.1485 H   0  0  0  0  0  0
   22.1356    7.2655  -30.9059 H   0  0  0  0  0  0
   21.3752   14.3666  -33.9520 H   0  0  0  0  0  0
   21.0562   14.2559  -32.0769 H   0  0  0  0  0  0
   21.9126   12.4250  -35.1884 H   0  0  0  0  0  0
  1  2  2  0  0  0
  1  3  1  0  0  0
  1  4  1  0  0  0
  1 21  1  0  0  0
  4  5  1  0  0  0
  5  6  1  0  0  0
  5  7  2  0  0  0
  5  8  1  0  0  0
  8 30  1  0  0  0
  9 10  2  0  0  0
  9 20  1  0  0  0
  9 29  1  0  0  0
 10 11  1  0  0  0
 10 53  1  0  0  0
 11 12  1  0  0  0
 11 13  1  0  0  0
 12 54  1  0  0  0
 12 55  1  0  0  0
 12 56  1  0  0  0
 13 14  1  0  0  0
 13 20  2  0  0  0
 14 15  2  0  0  0
 14 16  1  0  0  0
 16 17  1  0  0  0
 17 18  2  0  0  0
 17 19  1  0  0  0
 18 57  1  0  0  0
 19 20  1  0  0  0
 19 58  1  0  0  0
 21 22  1  0  0  0
 22 23  1  0  0  0
 22 59  1  0  0  0
 22 60  1  0  0  0
 23 24  1  0  0  0
 23 25  1  0  0  0
 23 61  1  0  0  0
 24 29  1  0  0  0
 25 26  1  0  0  0
 25 27  1  0  0  0
 25 62  1  0  0  0
 26 63  1  0  0  0
 27 28  1  0  0  0
 27 29  1  0  0  0
 27 64  1  0  0  0
 28 65  1  0  0  0
 29 66  1  0  0  0
 30 31  1  0  0  0
 30 32  2  0  0  0
 30 33  1  0  0  0
 33 34  1  0  0  0
 34 35  1  0  0  0
 34 67  1  0  0  0
 34 68  1  0  0  0
 35 36  1  0  0  0
 35 37  1  0  0  0
 35 69  1  0  0  0
 36 41  1  0  0  0
 37 38  1  0  0  0
 37 39  1  0  0  0
 37 70  1  0  0  0
 38 71  1  0  0  0
 39 40  1  0  0  0
 39 41  1  0  0  0
 39 72  1  0  0  0
 40 73  1  0  0  0
 41 42  1  0  0  0
 41 74  1  0  0  0
 42 43  1  0  0  0
 42 52  1  0  0  0
 43 44  2  0  0  0
 43 75  1  0  0  0
 44 45  1  0  0  0
 45 46  1  0  0  0
 45 52  2  0  0  0
 46 47  2  0  0  0
 46 48  1  0  0  0
 48 49  1  0  0  0
 48 78  1  0  0  0
 49 50  1  0  0  0
 49 51  2  0  0  0
 50 76  1  0  0  0
 50 77  1  0  0  0
 51 52  1  0  0  0
M  CHG  5   3  -1   6  -1   9   1  31  -1  48   1
M  END
> <s_m_source_file>
../3qx8_ligand.sdf

> <i_m_source_file_index>
1

> <s_epik_input>
Tz1jMVtuSF0vYyg9TlxbSF0pW25IXWMoYzEyKVtuK10oW2NIXW4yW0NIM10pW0NAQEhdKFtDQEhdKFtPSF0pW0NAQEhdM1tPSF0pT1tDQEBIXTNbQ0gyXU9bUEBAXSg9TykoW09IXSlPW1BAXSg9TykoW09IXSlPW1BAXSg9TykoW09IXSlPW0NIMl1bQ0BIXTRPW0NASF0oW0NASF0oW09IXSlbQ0BASF00W09IXSluKFtjSF1uNSljKGM1NilbbkhdYyg9TlxbSF0pXFtuSF1jNj1P

> <s_epik_cmdline>
J2VwaWtfYXBwJywgJy1pbWFlJywgJ2xpZ2FuZF9wcm8ubWFlJywgJy1vbWFlJywgJ2xpZ2FuZF9wcmVwLm1hZScsICctbXMnLCAnMScsICctcGgnLCAnNycsICctcGh0JywgJzAuNScsICctbnQn

> <r_lp_tautomer_probability>
1

> <r_epik_Ionization_Penalty>
  2.8460

> <r_epik_Ionization_Penalty_Charging>
  2.8460

> <r_epik_Ionization_Penalty_Neutral>
  0.0000

> <r_epik_State_Penalty>
 -0.0000

> <r_epik_Charging_Adjusted_Penalty>
2.8459675258544

> <i_epik_Tot_Q>
-1

> <i_epik_Tot_abs_Q>
5

> <s_epik_Chemistry_Notes>
This compound has an imine and may undergo hydrolysis. This compound contains an acetal/aminal-like group ( X-CH(R)-Y where X, Y are N, S, or O) that may be acid/base labile, releasing an aldehyde.

$$$$
