3qxc_ligand
                    3D
 Schrodinger Suite 2020-3.
 43 45  0  0  1  0            999 V2000
    7.8390  -26.9300  -20.9440 P   0  0  0  0  0  0
    8.1880  -26.1910  -19.6830 O   0  5  0  0  0  0
    7.0080  -28.1530  -20.7200 O   0  5  0  0  0  0
    7.3440  -26.0060  -21.9910 O   0  0  0  0  0  0
   10.6460  -26.9610  -21.5630 P   0  0  1  0  0  0
   10.7980  -25.9320  -22.5850 O   0  0  0  0  0  0
   11.0260  -26.6020  -20.1520 O   0  5  0  0  0  0
    9.1610  -27.5540  -21.6020 O   0  0  0  0  0  0
   12.3590  -29.2820  -21.1780 P   0  0  2  0  0  0
   11.4780  -29.8880  -20.1620 O   0  0  0  0  0  0
   13.6390  -28.6670  -20.7530 O   0  5  0  0  0  0
   11.5580  -28.2070  -22.0050 O   0  0  0  0  0  0
   12.7430  -30.3250  -22.3100 O   0  0  0  0  0  0
   11.7330  -31.1480  -22.9620 C   0  0  0  0  0  0
   12.2380  -32.5630  -23.0680 C   0  0  1  0  0  0
   13.3790  -32.5790  -23.9590 O   0  0  0  0  0  0
   12.6790  -33.0960  -21.7430 C   0  0  1  0  0  0
   12.3410  -34.5410  -21.7080 O   0  0  0  0  0  0
   14.1330  -32.9360  -21.7600 C   0  0  1  0  0  0
   14.8220  -33.8810  -20.9130 O   0  0  0  0  0  0
   14.4690  -33.0670  -23.2590 C   0  0  2  0  0  0
   15.6260  -32.1780  -23.5670 N   0  0  0  0  0  0
   15.6130  -30.8330  -23.6250 C   0  0  0  0  0  0
   16.8070  -30.4060  -23.9090 N   0  0  0  0  0  0
   17.6220  -31.4510  -24.1560 C   0  0  0  0  0  0
   18.9990  -31.5660  -24.5440 C   0  0  0  0  0  0
   19.8130  -30.5520  -24.7500 N   0  0  0  0  0  0
   19.4240  -32.8760  -24.6100 N   0  0  0  0  0  0
   18.5880  -33.8760  -24.3790 C   0  0  0  0  0  0
   17.3370  -33.8070  -24.0330 N   0  0  0  0  0  0
   16.8100  -32.5710  -23.9020 C   0  0  0  0  0  0
   10.8069  -31.1306  -22.3687 H   0  0  0  0  0  0
   11.5312  -30.7523  -23.9683 H   0  0  0  0  0  0
   11.4395  -33.2050  -23.4683 H   0  0  0  0  0  0
   12.2296  -32.5953  -20.8728 H   0  0  0  0  0  0
   11.2882  -34.8593  -21.6912 H   0  0  0  0  0  0
   14.4575  -32.0011  -21.2797 H   0  0  0  0  0  0
   14.6520  -33.8713  -19.8263 H   0  0  0  0  0  0
   14.6530  -34.0982  -23.5948 H   0  0  0  0  0  0
   14.7395  -30.2023  -23.4599 H   0  0  0  0  0  0
   19.4341  -29.5212  -24.6881 H   0  0  0  0  0  0
   20.8720  -30.7356  -24.9841 H   0  0  0  0  0  0
   18.9986  -34.8793  -24.4928 H   0  0  0  0  0  0
  1  2  1  0  0  0
  1  3  1  0  0  0
  1  4  2  0  0  0
  1  8  1  0  0  0
  5  6  2  0  0  0
  5  7  1  0  0  0
  5  8  1  0  0  0
  5 12  1  0  0  0
  9 10  2  0  0  0
  9 11  1  0  0  0
  9 12  1  0  0  0
  9 13  1  0  0  0
 13 14  1  0  0  0
 14 15  1  0  0  0
 14 32  1  0  0  0
 14 33  1  0  0  0
 15 16  1  0  0  0
 15 17  1  0  0  0
 15 34  1  0  0  0
 16 21  1  0  0  0
 17 18  1  0  0  0
 17 19  1  0  0  0
 17 35  1  0  0  0
 18 36  1  0  0  0
 19 20  1  0  0  0
 19 21  1  0  0  0
 19 37  1  0  0  0
 20 38  1  0  0  0
 21 22  1  0  0  0
 21 39  1  0  0  0
 22 23  1  0  0  0
 22 31  1  0  0  0
 23 24  2  0  0  0
 23 40  1  0  0  0
 24 25  1  0  0  0
 25 26  2  0  0  0
 25 31  1  0  0  0
 26 27  1  0  0  0
 26 28  1  0  0  0
 27 41  1  0  0  0
 27 42  1  0  0  0
 28 29  2  0  0  0
 29 30  1  0  0  0
 29 43  1  0  0  0
 30 31  2  0  0  0
M  CHG  4   2  -1   3  -1   7  -1  11  -1
M  END
> <s_m_source_file>
../3qxc_ligand.sdf

> <i_m_source_file_index>
1

> <s_epik_input>
W09IXVAoPU8pKFtPSF0pT1tQQEBdKD1PKShbT0hdKU9bUEBdKD1PKShbT0hdKU9bQ0gyXVtDQEhdMU9bQ0BIXShbQ0BIXShbT0hdKVtDQEBIXTFbT0hdKW4oW2NIXW4yKWMoYzIzKW5bY0hdbmMzW05IMl0=

> <s_epik_cmdline>
J2VwaWtfYXBwJywgJy1pbWFlJywgJ2xpZ2FuZF9wcm8ubWFlJywgJy1vbWFlJywgJ2xpZ2FuZF9wcmVwLm1hZScsICctbXMnLCAnMScsICctcGgnLCAnNycsICctcGh0JywgJzAuNScsICctbnQn

> <r_lp_tautomer_probability>
0.999997216410988

> <r_epik_Ionization_Penalty>
  0.0818

> <r_epik_Ionization_Penalty_Charging>
  0.0813

> <r_epik_Ionization_Penalty_Neutral>
  0.0004

> <r_epik_State_Penalty>
  0.0708

> <r_epik_Charging_Adjusted_Penalty>
0.152157994418768

> <i_epik_Tot_Q>
-4

> <i_epik_Tot_abs_Q>
4

> <s_epik_Chemistry_Notes>
This compound contains an acetal/aminal-like group ( X-CH(R)-Y where X, Y are N, S, or O) that may be acid/base labile, releasing an aldehyde.

$$$$
