3qxd_ligand
                    3D
 Schrodinger Suite 2020-3.
234235  0  0  1  0            999 V2000
   39.1210   -0.4340   13.2200 N   0  3  0  0  0  0
   38.4300   -1.2100   14.2530 C   0  0  2  0  0  0
   38.4600   -2.7000   13.9220 C   0  0  0  0  0  0
   37.8390   -3.5000   14.6180 O   0  0  0  0  0  0
   36.9970   -0.6810   14.1830 C   0  0  0  0  0  0
   37.0970    0.6520   13.5510 C   0  0  0  0  0  0
   38.2370    0.5610   12.5890 C   0  0  0  0  0  0
   39.1880   -3.0510   12.8650 N   0  0  0  0  0  0
   39.3510   -4.4400   12.4030 C   0  0  2  0  0  0
   38.0580   -5.1640   11.9920 C   0  0  0  0  0  0
   37.9550   -5.6580   10.8690 O   0  0  0  0  0  0
   40.2000   -5.3130   13.3710 C   0  0  0  0  0  0
   39.4080   -5.7170   14.6090 C   0  0  0  0  0  0
   40.6880   -6.5520   12.6470 C   0  0  0  0  0  0
   37.0800   -5.2380   12.8880 N   0  0  0  0  0  0
   35.8070   -5.8560   12.5360 C   0  0  2  0  0  0
   34.6860   -4.8160   12.4520 C   0  0  0  0  0  0
   33.5050   -5.1660   12.3720 O   0  0  0  0  0  0
   35.4370   -6.9880   13.5090 C   0  0  0  0  0  0
   34.9550   -6.4830   14.7420 O   0  0  0  0  0  0
   35.0490   -3.5360   12.4660 N   0  0  0  0  0  0
   34.0450   -2.4870   12.2960 C   0  0  2  0  0  0
   34.1810   -1.7290   10.9770 C   0  0  0  0  0  0
   35.2470   -1.2070   10.6500 O   0  0  0  0  0  0
   34.0400   -1.5020   13.4700 C   0  0  0  0  0  0
   32.9750   -0.4120   13.3290 C   0  0  0  0  0  0
   32.9800    0.5830   14.4870 C   0  0  0  0  0  0
   34.1770    1.5260   14.4280 C   0  0  0  0  0  0
   34.3030    2.2360   13.1200 N   0  3  0  0  0  0
   33.0810   -1.6740   10.2290 N   0  0  0  0  0  0
   33.0090   -0.8880    9.0020 C   0  0  2  0  0  0
   33.2730    0.5800    9.2990 C   0  0  0  0  0  0
   32.7060    1.1470   10.2380 O   0  0  0  0  0  0
   31.6240   -1.0140    8.3590 C   0  0  0  0  0  0
   31.2810   -2.3950    7.8450 C   0  0  0  0  0  0
   32.2000   -2.8350    6.3610 S   0  0  0  0  0  0
   31.6760   -1.5540    5.2400 C   0  0  0  0  0  0
   34.1230    1.1970    8.4890 N   0  0  0  0  0  0
   34.3620    2.6280    8.5960 C   0  0  2  0  0  0
   33.5260    3.3850    7.5710 C   0  0  0  0  0  0
   33.4050    2.9670    6.4210 O   0  0  0  0  0  0
   35.8430    2.9380    8.3980 C   0  0  0  0  0  0
   36.7160    2.4550    9.5300 C   0  0  0  0  0  0
   38.1830    2.5350    9.1670 C   0  0  0  0  0  0
   39.0240    2.0410   10.2480 N   0  0  0  0  0  0
   40.3350    1.8590   10.1510 C   0  0  0  0  0  0
   40.9640    2.1260    9.0140 N   0  0  0  0  0  0
   41.0150    1.4060   11.1930 N   0  0  0  0  0  0
   32.9540    4.5040    7.9940 N   0  0  0  0  0  0
   32.1650    5.3420    7.1040 C   0  0  2  0  0  0
   32.9890    6.5110    6.5870 C   0  0  0  0  0  0
   33.6470    7.2050    7.3580 O   0  0  0  0  0  0
   30.9370    5.8740    7.8380 C   0  0  0  0  0  0
   30.0070    4.8030    8.3670 C   0  0  0  0  0  0
   28.6940    5.5580    9.3410 S   0  0  0  0  0  0
   28.6320    7.1650    8.5620 C   0  0  0  0  0  0
   32.9560    6.7280    5.2780 N   0  0  0  0  0  0
   33.5520    7.9210    4.7050 C   0  0  2  0  0  0
   32.6530    9.1170    5.0240 C   0  0  0  0  0  0
   31.4380    8.9730    5.1490 O   0  0  0  0  0  0
   33.7270    7.7570    3.2150 C   0  0  0  0  0  0
   33.2570   10.2920    5.1700 N   0  0  0  0  0  0
   32.5250   11.4920    5.5560 C   0  0  2  0  0  0
   32.3900   12.4710    4.3900 C   0  0  0  0  0  0
   33.3740   12.8130    3.7310 O   0  0  0  0  0  0
   33.1920   12.1930    6.7610 C   0  0  2  0  0  0
   33.1140   11.3410    7.9140 O   0  0  0  0  0  0
   32.4950   13.5100    7.0690 C   0  0  0  0  0  0
   31.1560   12.9160    4.1240 N   0  0  0  0  0  0
   30.8960   13.8570    3.0330 C   0  0  2  0  0  0
   31.4070   15.2560    3.3620 C   0  0  0  0  0  0
   31.2660   15.7140    4.4970 O   0  0  0  0  0  0
   29.3700   13.8660    2.9380 C   0  0  0  0  0  0
   28.9020   13.4710    4.2890 C   0  0  0  0  0  0
   29.9220   12.5100    4.8190 C   0  0  0  0  0  0
   31.9960   15.9210    2.3730 N   0  0  0  0  0  0
   32.4350   17.3000    2.5380 C   0  0  2  0  0  0
   31.2560   18.2620    2.4120 C   0  0  0  0  0  0
   30.3420   18.0430    1.6150 O   0  0  0  0  0  0
   33.5080   17.6500    1.5040 C   0  0  0  0  0  0
   34.7780   16.7980    1.5490 C   0  0  0  0  0  0
   35.7760   17.2710    0.5130 C   0  0  0  0  0  0
   35.3970   16.8320    2.9350 C   0  0  0  0  0  0
   31.2780   19.3260    3.2030 N   0  0  0  0  0  0
   30.2460   20.3510    3.1100 C   0  0  2  0  0  0
   30.5970   21.3590    2.0230 C   0  0  0  0  0  0
   31.7740   21.6750    1.7990 O   0  0  0  0  0  0
   30.0560   21.0630    4.4480 C   0  0  0  0  0  0
   28.9970   22.1700    4.4860 C   0  0  0  0  0  0
   27.6070   21.6210    4.1790 C   0  0  0  0  0  0
   29.0100   22.8680    5.8410 C   0  0  0  0  0  0
   29.5690   21.8430    1.3390 N   0  0  0  0  0  0
   29.7450   22.8430    0.3000 C   0  0  2  0  0  0
   29.8040   24.2400    0.9060 C   0  0  0  0  0  0
   29.3000   24.4670    2.0070 O   0  0  0  0  0  0
   28.6010   22.7550   -0.7050 C   0  0  0  0  0  0
   28.5780   21.4560   -1.4850 C   0  0  0  0  0  0
   27.1610   21.3460   -2.5940 S   0  0  0  0  0  0
   27.4710   19.7620   -3.3590 C   0  0  0  0  0  0
   30.4180   25.1710    0.1810 N   0  0  0  0  0  0
   30.5310   26.5530    0.6340 C   0  0  2  0  0  0
   29.1740   27.2430    0.7070 C   0  0  0  0  0  0
   28.3420   27.1120   -0.1950 O   0  0  0  0  0  0
   31.4670   27.3470   -0.2820 C   0  0  0  0  0  0
   31.6580   28.8020    0.1420 C   0  0  0  0  0  0
   32.5520   29.5900   -0.8100 C   0  0  0  0  0  0
   33.1180   29.0390   -1.7590 O   0  0  0  0  0  0
   32.6830   30.8890   -0.5540 N   0  0  0  0  0  0
   28.8968   27.9596    1.7056 O   0  0  0  0  0  0
   39.9711    0.0999   13.6697 H   0  0  0  0  0  0
   39.4876   -1.1124   12.4355 H   0  0  0  0  0  0
   38.9160   -1.0837   15.2317 H   0  0  0  0  0  0
   36.3824   -1.3658   13.5802 H   0  0  0  0  0  0
   36.5811   -0.6132   15.1991 H   0  0  0  0  0  0
   36.1547    0.8837   13.0329 H   0  0  0  0  0  0
   37.2865    1.4111   14.3242 H   0  0  0  0  0  0
   38.7762    1.5135   12.4798 H   0  0  0  0  0  0
   37.9268    0.1995   11.5975 H   0  0  0  0  0  0
   39.6845   -2.2304   12.3264 H   0  0  0  0  0  0
   39.9055   -4.2500   11.4722 H   0  0  0  0  0  0
   41.0693   -4.7324   13.7133 H   0  0  0  0  0  0
   39.0565   -4.8143   15.1301 H   0  0  0  0  0  0
   40.0526   -6.3014   15.2820 H   0  0  0  0  0  0
   38.5433   -6.3268   14.3082 H   0  0  0  0  0  0
   41.2586   -6.2545   11.7549 H   0  0  0  0  0  0
   39.8251   -7.1630   12.3435 H   0  0  0  0  0  0
   41.3344   -7.1376   13.3173 H   0  0  0  0  0  0
   37.2331   -4.8311   13.8984 H   0  0  0  0  0  0
   35.9826   -6.2798   11.5362 H   0  0  0  0  0  0
   34.6517   -7.6145   13.0610 H   0  0  0  0  0  0
   36.3262   -7.6032   13.7109 H   0  0  0  0  0  0
   34.6503   -7.1770   15.5392 H   0  0  0  0  0  0
   36.1066   -3.2677   12.6058 H   0  0  0  0  0  0
   33.1067   -3.0607   12.2753 H   0  0  0  0  0  0
   33.8401   -2.0465   14.4046 H   0  0  0  0  0  0
   35.0197   -1.0062   13.5369 H   0  0  0  0  0  0
   33.1503    0.1542   12.4023 H   0  0  0  0  0  0
   31.9782   -0.8758   13.2924 H   0  0  0  0  0  0
   32.0635    1.1903   14.4525 H   0  0  0  0  0  0
   33.0217    0.0359   15.4404 H   0  0  0  0  0  0
   34.0805    2.2905   15.2130 H   0  0  0  0  0  0
   35.1029    0.9535   14.5857 H   0  0  0  0  0  0
   35.1821    2.8967   13.1447 H   0  0  0  0  0  0
   33.3986    2.8356   12.9397 H   0  0  0  0  0  0
   34.4211    1.4985   12.3124 H   0  0  0  0  0  0
   32.2060   -2.2492   10.5659 H   0  0  0  0  0  0
   33.7895   -1.3017    8.3465 H   0  0  0  0  0  0
   30.8518   -0.7518    9.0972 H   0  0  0  0  0  0
   31.5556   -0.3317    7.4989 H   0  0  0  0  0  0
   31.5135   -3.1422    8.6181 H   0  0  0  0  0  0
   30.2091   -2.4401    7.6021 H   0  0  0  0  0  0
   32.1677   -1.6953    4.2662 H   0  0  0  0  0  0
   31.9519   -0.5717    5.6510 H   0  0  0  0  0  0
   30.5848   -1.6039    5.1105 H   0  0  0  0  0  0
   34.6515    0.6066    7.7260 H   0  0  0  0  0  0
   34.0513    2.9066    9.6138 H   0  0  0  0  0  0
   36.1993    2.4526    7.4774 H   0  0  0  0  0  0
   35.9821    4.0261    8.3163 H   0  0  0  0  0  0
   36.5415    3.0784   10.4193 H   0  0  0  0  0  0
   36.4699    1.4083    9.7620 H   0  0  0  0  0  0
   38.3726    1.9264    8.2705 H   0  0  0  0  0  0
   38.4539    3.5816    8.9637 H   0  0  0  0  0  0
   38.5779    1.7923   11.2222 H   0  0  0  0  0  0
   40.3993    2.5023    8.1483 H   0  0  0  0  0  0
   42.0503    1.9711    8.9369 H   0  0  0  0  0  0
   40.4936    1.1845   12.1359 H   0  0  0  0  0  0
   33.0880    4.7934    9.0468 H   0  0  0  0  0  0
   31.8740    4.6898    6.2674 H   0  0  0  0  0  0
   31.2578    6.4736    8.7026 H   0  0  0  0  0  0
   30.3453    6.5019    7.1556 H   0  0  0  0  0  0
   29.5631    4.2536    7.5237 H   0  0  0  0  0  0
   30.5740    4.1056    9.0011 H   0  0  0  0  0  0
   27.8585    7.7782    9.0474 H   0  0  0  0  0  0
   28.3901    7.0464    7.4955 H   0  0  0  0  0  0
   29.6093    7.6596    8.6636 H   0  0  0  0  0  0
   32.4685    5.9889    4.6253 H   0  0  0  0  0  0
   34.5478    8.0425    5.1561 H   0  0  0  0  0  0
   34.3762    6.8918    3.0151 H   0  0  0  0  0  0
   34.1871    8.6649    2.7977 H   0  0  0  0  0  0
   32.7452    7.5948    2.7462 H   0  0  0  0  0  0
   34.3411   10.3429    4.9905 H   0  0  0  0  0  0
   31.5289   11.1137    5.8294 H   0  0  0  0  0  0
   34.2613   12.3680    6.5712 H   0  0  0  0  0  0
   33.5636   10.3374    7.8877 H   0  0  0  0  0  0
   32.5506   14.1686    6.1897 H   0  0  0  0  0  0
   32.9898   13.9958    7.9229 H   0  0  0  0  0  0
   31.4407   13.3176    7.3170 H   0  0  0  0  0  0
   31.4167   13.5349    2.1192 H   0  0  0  0  0  0
   29.0255   14.8748    2.6667 H   0  0  0  0  0  0
   29.0462   13.1489    2.1693 H   0  0  0  0  0  0
   28.8296   14.3638    4.9275 H   0  0  0  0  0  0
   27.9132   12.9955    4.2101 H   0  0  0  0  0  0
   29.6872   11.4649    4.5688 H   0  0  0  0  0  0
   30.0654   12.6036    5.9056 H   0  0  0  0  0  0
   32.1493   15.4061    1.4131 H   0  0  0  0  0  0
   32.8530   17.3514    3.5542 H   0  0  0  0  0  0
   33.0941   17.5319    0.4917 H   0  0  0  0  0  0
   33.8310   18.6915    1.6489 H   0  0  0  0  0  0
   34.5121   15.7565    1.3153 H   0  0  0  0  0  0
   35.3121   17.2402   -0.4839 H   0  0  0  0  0  0
   36.6584   16.6143    0.5273 H   0  0  0  0  0  0
   36.0825   18.3021    0.7431 H   0  0  0  0  0  0
   34.6598   16.4859    3.6744 H   0  0  0  0  0  0
   35.7019   17.8612    3.1752 H   0  0  0  0  0  0
   36.2778   16.1735    2.9594 H   0  0  0  0  0  0
   32.0906   19.4287    3.9373 H   0  0  0  0  0  0
   29.3237   19.8137    2.8441 H   0  0  0  0  0  0
   29.7556   20.3319    5.2130 H   0  0  0  0  0  0
   31.0012   21.5394    4.7473 H   0  0  0  0  0  0
   29.2420   22.9080    3.7080 H   0  0  0  0  0  0
   27.6182   21.1219    3.1988 H   0  0  0  0  0  0
   26.8819   22.4480    4.1611 H   0  0  0  0  0  0
   27.3188   20.8973    4.9557 H   0  0  0  0  0  0
   30.0190   23.2562    6.0438 H   0  0  0  0  0  0
   28.7286   22.1504    6.6258 H   0  0  0  0  0  0
   28.2917   23.7010    5.8312 H   0  0  0  0  0  0
   28.5626   21.4675    1.5762 H   0  0  0  0  0  0
   30.7033   22.6082   -0.1864 H   0  0  0  0  0  0
   27.6405   22.8373   -0.1753 H   0  0  0  0  0  0
   28.6892   23.5743   -1.4337 H   0  0  0  0  0  0
   29.4917   21.3768   -2.0923 H   0  0  0  0  0  0
   28.5283   20.6088   -0.7851 H   0  0  0  0  0  0
   26.6726   19.5419   -4.0829 H   0  0  0  0  0  0
   27.4913   18.9794   -2.5863 H   0  0  0  0  0  0
   28.4400   19.7893   -3.8789 H   0  0  0  0  0  0
   30.8477   24.8725   -0.7866 H   0  0  0  0  0  0
   30.9490   26.4732    1.6484 H   0  0  0  0  0  0
   32.4610   26.8759   -0.2877 H   0  0  0  0  0  0
   31.0596   27.3559   -1.3037 H   0  0  0  0  0  0
   30.6806   29.3056    0.1749 H   0  0  0  0  0  0
   32.1215   28.8356    1.1390 H   0  0  0  0  0  0
   32.1590   31.3361    0.3036 H   0  0  0  0  0  0
   33.3153   31.5158   -1.1999 H   0  0  0  0  0  0
   27.9202   28.4619    1.7680 H   0  0  0  0  0  0
  1  2  1  0  0  0
  1  7  1  0  0  0
  1110  1  0  0  0
  1111  1  0  0  0
  2  3  1  0  0  0
  2  5  1  0  0  0
  2112  1  0  0  0
  3  4  2  0  0  0
  3  8  1  0  0  0
  5  6  1  0  0  0
  5113  1  0  0  0
  5114  1  0  0  0
  6  7  1  0  0  0
  6115  1  0  0  0
  6116  1  0  0  0
  7117  1  0  0  0
  7118  1  0  0  0
  8  9  1  0  0  0
  8119  1  0  0  0
  9 10  1  0  0  0
  9 12  1  0  0  0
  9120  1  0  0  0
 10 11  2  0  0  0
 10 15  1  0  0  0
 12 13  1  0  0  0
 12 14  1  0  0  0
 12121  1  0  0  0
 13122  1  0  0  0
 13123  1  0  0  0
 13124  1  0  0  0
 14125  1  0  0  0
 14126  1  0  0  0
 14127  1  0  0  0
 15 16  1  0  0  0
 15128  1  0  0  0
 16 17  1  0  0  0
 16 19  1  0  0  0
 16129  1  0  0  0
 17 18  2  0  0  0
 17 21  1  0  0  0
 19 20  1  0  0  0
 19130  1  0  0  0
 19131  1  0  0  0
 20132  1  0  0  0
 21 22  1  0  0  0
 21133  1  0  0  0
 22 23  1  0  0  0
 22 25  1  0  0  0
 22134  1  0  0  0
 23 24  2  0  0  0
 23 30  1  0  0  0
 25 26  1  0  0  0
 25135  1  0  0  0
 25136  1  0  0  0
 26 27  1  0  0  0
 26137  1  0  0  0
 26138  1  0  0  0
 27 28  1  0  0  0
 27139  1  0  0  0
 27140  1  0  0  0
 28 29  1  0  0  0
 28141  1  0  0  0
 28142  1  0  0  0
 29143  1  0  0  0
 29144  1  0  0  0
 29145  1  0  0  0
 30 31  1  0  0  0
 30146  1  0  0  0
 31 32  1  0  0  0
 31 34  1  0  0  0
 31147  1  0  0  0
 32 33  2  0  0  0
 32 38  1  0  0  0
 34 35  1  0  0  0
 34148  1  0  0  0
 34149  1  0  0  0
 35 36  1  0  0  0
 35150  1  0  0  0
 35151  1  0  0  0
 36 37  1  0  0  0
 37152  1  0  0  0
 37153  1  0  0  0
 37154  1  0  0  0
 38 39  1  0  0  0
 38155  1  0  0  0
 39 40  1  0  0  0
 39 42  1  0  0  0
 39156  1  0  0  0
 40 41  2  0  0  0
 40 49  1  0  0  0
 42 43  1  0  0  0
 42157  1  0  0  0
 42158  1  0  0  0
 43 44  1  0  0  0
 43159  1  0  0  0
 43160  1  0  0  0
 44 45  1  0  0  0
 44161  1  0  0  0
 44162  1  0  0  0
 45 46  1  0  0  0
 45163  1  0  0  0
 46 47  1  0  0  0
 46 48  2  0  0  0
 47164  1  0  0  0
 47165  1  0  0  0
 48166  1  0  0  0
 49 50  1  0  0  0
 49167  1  0  0  0
 50 51  1  0  0  0
 50 53  1  0  0  0
 50168  1  0  0  0
 51 52  2  0  0  0
 51 57  1  0  0  0
 53 54  1  0  0  0
 53169  1  0  0  0
 53170  1  0  0  0
 54 55  1  0  0  0
 54171  1  0  0  0
 54172  1  0  0  0
 55 56  1  0  0  0
 56173  1  0  0  0
 56174  1  0  0  0
 56175  1  0  0  0
 57 58  1  0  0  0
 57176  1  0  0  0
 58 59  1  0  0  0
 58 61  1  0  0  0
 58177  1  0  0  0
 59 60  2  0  0  0
 59 62  1  0  0  0
 61178  1  0  0  0
 61179  1  0  0  0
 61180  1  0  0  0
 62 63  1  0  0  0
 62181  1  0  0  0
 63 64  1  0  0  0
 63 66  1  0  0  0
 63182  1  0  0  0
 64 65  2  0  0  0
 64 69  1  0  0  0
 66 67  1  0  0  0
 66 68  1  0  0  0
 66183  1  0  0  0
 67184  1  0  0  0
 68185  1  0  0  0
 68186  1  0  0  0
 68187  1  0  0  0
 69 70  1  0  0  0
 69 75  1  0  0  0
 70 71  1  0  0  0
 70 73  1  0  0  0
 70188  1  0  0  0
 71 72  2  0  0  0
 71 76  1  0  0  0
 73 74  1  0  0  0
 73189  1  0  0  0
 73190  1  0  0  0
 74 75  1  0  0  0
 74191  1  0  0  0
 74192  1  0  0  0
 75193  1  0  0  0
 75194  1  0  0  0
 76 77  1  0  0  0
 76195  1  0  0  0
 77 78  1  0  0  0
 77 80  1  0  0  0
 77196  1  0  0  0
 78 79  2  0  0  0
 78 84  1  0  0  0
 80 81  1  0  0  0
 80197  1  0  0  0
 80198  1  0  0  0
 81 82  1  0  0  0
 81 83  1  0  0  0
 81199  1  0  0  0
 82200  1  0  0  0
 82201  1  0  0  0
 82202  1  0  0  0
 83203  1  0  0  0
 83204  1  0  0  0
 83205  1  0  0  0
 84 85  1  0  0  0
 84206  1  0  0  0
 85 86  1  0  0  0
 85 88  1  0  0  0
 85207  1  0  0  0
 86 87  2  0  0  0
 86 92  1  0  0  0
 88 89  1  0  0  0
 88208  1  0  0  0
 88209  1  0  0  0
 89 90  1  0  0  0
 89 91  1  0  0  0
 89210  1  0  0  0
 90211  1  0  0  0
 90212  1  0  0  0
 90213  1  0  0  0
 91214  1  0  0  0
 91215  1  0  0  0
 91216  1  0  0  0
 92 93  1  0  0  0
 92217  1  0  0  0
 93 94  1  0  0  0
 93 96  1  0  0  0
 93218  1  0  0  0
 94 95  2  0  0  0
 94100  1  0  0  0
 96 97  1  0  0  0
 96219  1  0  0  0
 96220  1  0  0  0
 97 98  1  0  0  0
 97221  1  0  0  0
 97222  1  0  0  0
 98 99  1  0  0  0
 99223  1  0  0  0
 99224  1  0  0  0
 99225  1  0  0  0
100101  1  0  0  0
100226  1  0  0  0
101102  1  0  0  0
101104  1  0  0  0
101227  1  0  0  0
102103  2  0  0  0
102109  1  0  0  0
104105  1  0  0  0
104228  1  0  0  0
104229  1  0  0  0
105106  1  0  0  0
105230  1  0  0  0
105231  1  0  0  0
106107  2  0  0  0
106108  1  0  0  0
108232  1  0  0  0
108233  1  0  0  0
109234  1  0  0  0
M  CHG  2   1   1  29   1
M  END
> <s_m_source_file>
../3qxd_ligand.sdf

> <i_m_source_file_index>
1

> <s_epik_input>
W0NIMl0xW0NIMl1bQ0gyXVtOSDIrXVtDQEBIXTFDKD1PKVtOSF1bQ0BASF0oW0NIXShbQ0gzXSlbQ0gzXSlDKD1PKVtOSF1bQ0BASF0oW0NIMl1bT0hdKUMoPU8pW05IXVtDQEBIXShbQ0gyXVtDSDJdW0NIMl1bQ0gyXVtOSDMrXSlDKD1PKVtOSF1bQ0BASF0oW0NIMl1bQ0gyXVNbQ0gzXSlDKD1PKVtOSF1bQ0BASF0oW0NIMl1bQ0gyXVtDSDJdW05IXS9DKFtOSDJdKT1OXFtIXSlDKD1PKVtOSF1bQ0BASF0oW0NIMl1bQ0gyXVNbQ0gzXSlDKD1PKVtOSF1bQ0BASF0oW0NIM10pQyg9TylbTkhdW0NAQEhdKFtDQEhdKFtPSF0pW0NIM10pQyg9TylOMltDQEBIXShbQ0gyXVtDSDJdW0NIMl0yKUMoPU8pW05IXVtDQEBIXShbQ0gyXVtDSF0oW0NIM10pW0NIM10pQyg9TylbTkhdW0NAQEhdKFtDSDJdW0NIXShbQ0gzXSlbQ0gzXSlDKD1PKVtOSF1bQ0BASF0oW0NIMl1bQ0gyXVNbQ0gzXSlDKD1PKVtOSF1bQ0BIXShDKD1PKVtPSF0pW0NIMl1bQ0gyXUMoPU8pW05IMl0=

> <s_epik_cmdline>
J2VwaWtfYXBwJywgJy1pbWFlJywgJ2xpZ2FuZF9wcm8ubWFlJywgJy1vbWFlJywgJ2xpZ2FuZF9wcmVwLm1hZScsICctbXMnLCAnMScsICctcGgnLCAnNycsICctcGh0JywgJzAuNScsICctbnQn

> <s_epik_pKa_notes>
Molecule size exceeds maximum supported for generating protonation states

> <s_epik_Chemistry_Notes>
This compound has an imine and may undergo hydrolysis.

$$$$
