3qxh_ligand
                    3D
 Schrodinger Suite 2020-3.
 39 41  0  0  1  0            999 V2000
   10.0950  -26.6360  -21.7690 P   0  0  0  0  0  0
   10.4970  -26.2550  -20.3400 O   0  5  0  0  0  0
    8.7250  -27.2420  -21.9080 O   0  0  0  0  0  0
   10.3810  -25.5540  -22.7800 O   0  5  0  0  0  0
   11.8460  -28.9250  -21.3280 P   0  0  1  0  0  0
   13.1810  -28.4680  -20.8340 O   0  5  0  0  0  0
   10.9070  -29.4630  -20.3350 O   0  0  0  0  0  0
   11.1390  -27.7890  -22.1820 O   0  0  0  0  0  0
   12.1960  -30.0090  -22.4490 O   0  0  0  0  0  0
   11.1420  -30.7190  -23.1750 C   0  0  0  0  0  0
   11.5950  -32.1660  -23.3850 C   0  0  1  0  0  0
   12.7790  -32.2120  -24.1910 O   0  0  0  0  0  0
   11.9220  -32.8550  -22.1130 C   0  0  1  0  0  0
   11.5160  -34.2740  -22.2030 O   0  0  0  0  0  0
   13.4050  -32.7030  -21.9950 C   0  0  1  0  0  0
   14.0630  -33.6950  -21.1560 O   0  0  0  0  0  0
   13.8150  -32.7900  -23.4660 C   0  0  2  0  0  0
   15.0370  -32.0060  -23.7310 N   0  0  0  0  0  0
   15.1000  -30.6250  -23.7530 C   0  0  0  0  0  0
   16.3300  -30.2150  -24.0280 N   0  0  0  0  0  0
   17.0910  -31.3290  -24.2410 C   0  0  0  0  0  0
   18.4530  -31.4970  -24.6080 C   0  0  0  0  0  0
   19.2890  -30.5180  -24.7930 N   0  0  0  0  0  0
   18.8380  -32.8190  -24.7310 N   0  0  0  0  0  0
   17.9870  -33.8090  -24.5550 C   0  0  0  0  0  0
   16.6940  -33.7100  -24.1900 N   0  0  0  0  0  0
   16.2370  -32.4400  -24.0660 C   0  0  0  0  0  0
   10.2125  -30.6960  -22.5872 H   0  0  0  0  0  0
   10.9736  -30.2314  -24.1465 H   0  0  0  0  0  0
   10.7887  -32.7086  -23.9002 H   0  0  0  0  0  0
   11.3943  -32.4483  -21.2377 H   0  0  0  0  0  0
   10.4518  -34.5369  -22.2941 H   0  0  0  0  0  0
   13.7093  -31.8003  -21.4450 H   0  0  0  0  0  0
   13.8490  -33.7324  -20.0777 H   0  0  0  0  0  0
   13.9747  -33.8229  -23.8089 H   0  0  0  0  0  0
   14.2534  -29.9635  -23.5692 H   0  0  0  0  0  0
   18.9492  -29.4772  -24.6871 H   0  0  0  0  0  0
   20.3358  -30.7308  -25.0553 H   0  0  0  0  0  0
   18.3699  -34.8157  -24.7226 H   0  0  0  0  0  0
  1  2  1  0  0  0
  1  3  2  0  0  0
  1  4  1  0  0  0
  1  8  1  0  0  0
  5  6  1  0  0  0
  5  7  2  0  0  0
  5  8  1  0  0  0
  5  9  1  0  0  0
  9 10  1  0  0  0
 10 11  1  0  0  0
 10 28  1  0  0  0
 10 29  1  0  0  0
 11 12  1  0  0  0
 11 13  1  0  0  0
 11 30  1  0  0  0
 12 17  1  0  0  0
 13 14  1  0  0  0
 13 15  1  0  0  0
 13 31  1  0  0  0
 14 32  1  0  0  0
 15 16  1  0  0  0
 15 17  1  0  0  0
 15 33  1  0  0  0
 16 34  1  0  0  0
 17 18  1  0  0  0
 17 35  1  0  0  0
 18 19  1  0  0  0
 18 27  1  0  0  0
 19 20  2  0  0  0
 19 36  1  0  0  0
 20 21  1  0  0  0
 21 22  2  0  0  0
 21 27  1  0  0  0
 22 23  1  0  0  0
 22 24  1  0  0  0
 23 37  1  0  0  0
 23 38  1  0  0  0
 24 25  2  0  0  0
 25 26  1  0  0  0
 25 39  1  0  0  0
 26 27  2  0  0  0
M  CHG  3   2  -1   4  -1   6  -1
M  END
> <s_m_source_file>
../3qxh_ligand.sdf

> <i_m_source_file_index>
1

> <s_epik_input>
W09IXVAoPU8pKFtPSF0pT1tQQF0oPU8pKFtPSF0pT1tDSDJdW0NASF0xT1tDQEhdKFtDQEhdKFtPSF0pW0NAQEhdMVtPSF0pbihbY0hdbjIpYyhjMjMpbltjSF1uYzNbTkgyXQ==

> <s_epik_cmdline>
J2VwaWtfYXBwJywgJy1pbWFlJywgJ2xpZ2FuZF9wcm8ubWFlJywgJy1vbWFlJywgJ2xpZ2FuZF9wcmVwLm1hZScsICctbXMnLCAnMScsICctcGgnLCAnNycsICctcGh0JywgJzAuNScsICctbnQn

> <r_lp_tautomer_probability>
0.999997216410988

> <r_epik_Ionization_Penalty>
  0.1037

> <r_epik_Ionization_Penalty_Charging>
  0.1033

> <r_epik_Ionization_Penalty_Neutral>
  0.0004

> <r_epik_State_Penalty>
  0.0922

> <r_epik_Charging_Adjusted_Penalty>
0.19546844050481

> <i_epik_Tot_Q>
-3

> <i_epik_Tot_abs_Q>
3

> <s_epik_Chemistry_Notes>
This compound contains an acetal/aminal-like group ( X-CH(R)-Y where X, Y are N, S, or O) that may be acid/base labile, releasing an aldehyde.

$$$$
