3qxm_ligand
                    3D
 Schrodinger Suite 2020-3.
 36 37  0  0  1  0            999 V2000
    4.0590  -12.0810   24.1730 O   0  5  0  0  0  0
    3.8900  -11.4610   25.2550 C   0  0  0  0  0  0
    4.5110  -11.7730   26.2800 O   0  0  0  0  0  0
    2.8650  -10.3450   25.3810 C   0  0  1  0  0  0
    1.9520  -10.2980   24.2240 N   0  3  0  0  0  0
    2.0630  -10.5450   26.6820 C   0  0  0  0  0  0
    1.2870   -9.2440   27.0790 C   0  0  2  0  0  0
    2.2150   -8.1010   27.2120 C   0  0  0  0  0  0
    1.9770   -6.9820   26.6630 O   0  5  0  0  0  0
    3.2500   -8.2950   27.8880 O   0  0  0  0  0  0
    0.5810   -9.4310   28.4270 C   0  0  0  0  0  0
    0.2610   -8.9520   26.0980 O   0  0  0  0  0  0
   -1.0220   -9.0320   26.6360 C   0  0  1  0  0  0
   -0.8330   -8.8750   28.1530 C   0  0  2  0  0  0
   -0.7530   -7.4480   28.4480 O   0  0  0  0  0  0
   -1.6920   -6.5620   27.8860 C   0  0  0  0  0  0
   -1.7130   -6.5460   26.3430 C   0  0  1  0  0  0
   -0.3840   -6.1290   25.9420 O   0  0  0  0  0  0
   -1.9900   -8.0250   25.9610 C   0  0  1  0  0  0
   -1.8670   -8.1200   24.5330 O   0  0  0  0  0  0
    3.3904   -9.3787   25.3673 H   0  0  0  0  0  0
    2.5352  -10.1551   23.3023 H   0  0  0  0  0  0
    1.2482   -9.4614   24.3460 H   0  0  0  0  0  0
    1.3916  -11.2424   24.1606 H   0  0  0  0  0  0
    1.3347  -11.3575   26.5425 H   0  0  0  0  0  0
    2.7505  -10.8053   27.5003 H   0  0  0  0  0  0
    0.5732  -10.4986   28.6918 H   0  0  0  0  0  0
    1.1166   -8.8647   29.2031 H   0  0  0  0  0  0
   -1.4248  -10.0263   26.3930 H   0  0  0  0  0  0
   -1.6468   -9.3202   28.7442 H   0  0  0  0  0  0
   -2.7032   -6.8413   28.2167 H   0  0  0  0  0  0
   -1.4695   -5.5357   28.2135 H   0  0  0  0  0  0
   -2.4072   -5.8486   25.8513 H   0  0  0  0  0  0
   -0.0442   -5.1031   26.1469 H   0  0  0  0  0  0
   -3.0160   -8.3077   26.2392 H   0  0  0  0  0  0
   -2.0226   -9.0861   24.0306 H   0  0  0  0  0  0
  1  2  1  0  0  0
  2  3  2  0  0  0
  2  4  1  0  0  0
  4  5  1  0  0  0
  4  6  1  0  0  0
  4 21  1  0  0  0
  5 22  1  0  0  0
  5 23  1  0  0  0
  5 24  1  0  0  0
  6  7  1  0  0  0
  6 25  1  0  0  0
  6 26  1  0  0  0
  7  8  1  0  0  0
  7 11  1  0  0  0
  7 12  1  0  0  0
  8  9  1  0  0  0
  8 10  2  0  0  0
 11 14  1  0  0  0
 11 27  1  0  0  0
 11 28  1  0  0  0
 12 13  1  0  0  0
 13 14  1  0  0  0
 13 19  1  0  0  0
 13 29  1  0  0  0
 14 15  1  0  0  0
 14 30  1  0  0  0
 15 16  1  0  0  0
 16 17  1  0  0  0
 16 31  1  0  0  0
 16 32  1  0  0  0
 17 18  1  0  0  0
 17 19  1  0  0  0
 17 33  1  0  0  0
 18 34  1  0  0  0
 19 20  1  0  0  0
 19 35  1  0  0  0
 20 36  1  0  0  0
M  CHG  3   1  -1   5   1   9  -1
M  END
> <s_m_source_file>
../3qxm_ligand.sdf

> <i_m_source_file_index>
1

> <s_epik_input>
W09IXUMoPU8pW0NAQEhdKFtOSDMrXSlbQ0gyXVtDQF0oTzEpKEMoPU8pW09IXSlbQ0gyXVtDQEhdKFtDQEhdMTIpT1tDSDJdW0NAQEhdKFtPSF0pW0NASF0yW09IXQ==

> <s_epik_cmdline>
J2VwaWtfYXBwJywgJy1pbWFlJywgJ2xpZ2FuZF9wcm8ubWFlJywgJy1vbWFlJywgJ2xpZ2FuZF9wcmVwLm1hZScsICctbXMnLCAnMScsICctcGgnLCAnNycsICctcGh0JywgJzAuNScsICctbnQn

> <r_lp_tautomer_probability>
1

> <r_epik_Ionization_Penalty>
  0.0019

> <r_epik_Ionization_Penalty_Charging>
  0.0019

> <r_epik_Ionization_Penalty_Neutral>
  0.0000

> <r_epik_State_Penalty>
 -0.0000

> <r_epik_Charging_Adjusted_Penalty>
0.00185618653145421

> <i_epik_Tot_Q>
-1

> <i_epik_Tot_abs_Q>
3

$$$$
