3qxv_ligand
                    3D
 Schrodinger Suite 2020-3.
 53 55  0  0  1  0            999 V2000
  -15.6020   15.5650  -27.8170 N   0  0  0  0  0  0
  -15.5690   16.7660  -27.1480 C   0  0  0  0  0  0
  -14.4450   17.1250  -26.5150 N   0  0  0  0  0  0
  -16.6700   17.6050  -27.1880 N   0  0  0  0  0  0
  -17.8300   17.2030  -27.8580 C   0  0  0  0  0  0
  -18.8800   18.0280  -27.8940 N   0  0  0  0  0  0
  -17.8650   15.9670  -28.5200 C   0  0  0  0  0  0
  -18.9970   15.5370  -29.1990 N   0  0  0  0  0  0
  -19.0150   14.3040  -29.8070 C   0  0  0  0  0  0
  -17.8700   13.5030  -29.7700 C   0  0  0  0  0  0
  -16.7380   13.9310  -29.1010 N   0  0  0  0  0  0
  -16.7440   15.1490  -28.4670 C   0  0  0  0  0  0
  -20.2580   13.8380  -30.5450 C   0  0  0  0  0  0
  -19.9840   12.6620  -31.3510 N   0  0  0  0  0  0
  -19.4140   12.8830  -32.6860 C   0  0  0  0  0  0
  -22.6070    9.3810  -31.2990 C   0  0  0  0  0  0
  -21.7120    9.5530  -32.3510 C   0  0  0  0  0  0
  -20.8540   10.6420  -32.3520 C   0  0  0  0  0  0
  -20.8760   11.5550  -31.2860 C   0  0  0  0  0  0
  -21.7790   11.3650  -30.2290 C   0  0  0  0  0  0
  -22.4450   10.1400  -30.1380 C   0  0  0  0  0  0
  -23.5350    8.1990  -31.3430 C   0  0  0  0  0  0
  -24.3890    7.9850  -32.4520 O   0  0  0  0  0  0
  -23.5030    7.3440  -30.3470 N   0  0  0  0  0  0
  -22.8890    6.0590  -30.5930 C   0  0  2  0  0  0
  -22.2780    5.5640  -29.3200 C   0  0  0  0  0  0
  -21.5410    6.3200  -28.6410 O   0  5  0  0  0  0
  -22.5350    4.4010  -28.9330 O   0  0  0  0  0  0
  -21.9280    6.1180  -31.7980 C   0  0  0  0  0  0
  -20.4240    6.0680  -31.5290 C   0  0  0  0  0  0
  -19.9930    4.7450  -30.9260 C   0  0  0  0  0  0
  -19.3270    4.7340  -29.8630 O   0  0  0  0  0  0
  -20.3010    3.6470  -31.4540 O   0  5  0  0  0  0
  -13.5825   16.4425  -26.4960 H   0  0  0  0  0  0
  -14.3841   18.1024  -26.0140 H   0  0  0  0  0  0
  -18.8384   18.9943  -27.3701 H   0  0  0  0  0  0
  -19.7862   17.7410  -28.4475 H   0  0  0  0  0  0
  -17.8695   12.5352  -30.2715 H   0  0  0  0  0  0
  -21.0442   13.5878  -29.8174 H   0  0  0  0  0  0
  -20.6137   14.6408  -31.2076 H   0  0  0  0  0  0
  -18.7385   13.7507  -32.6572 H   0  0  0  0  0  0
  -20.2252   13.0735  -33.4041 H   0  0  0  0  0  0
  -18.8513   11.9904  -32.9968 H   0  0  0  0  0  0
  -21.6858    8.8347  -33.1704 H   0  0  0  0  0  0
  -20.1619   10.7893  -33.1811 H   0  0  0  0  0  0
  -21.9565   12.1532  -29.4973 H   0  0  0  0  0  0
  -22.8296    9.7847  -29.1820 H   0  0  0  0  0  0
  -23.9203    7.5734  -29.3554 H   0  0  0  0  0  0
  -23.6885    5.3504  -30.8551 H   0  0  0  0  0  0
  -22.1242    5.2660  -32.4655 H   0  0  0  0  0  0
  -22.0858    7.0579  -32.3472 H   0  0  0  0  0  0
  -19.8778    6.2067  -32.4737 H   0  0  0  0  0  0
  -20.1504    6.8688  -30.8262 H   0  0  0  0  0  0
  1  2  2  0  0  0
  1 12  1  0  0  0
  2  3  1  0  0  0
  2  4  1  0  0  0
  3 34  1  0  0  0
  3 35  1  0  0  0
  4  5  2  0  0  0
  5  6  1  0  0  0
  5  7  1  0  0  0
  6 36  1  0  0  0
  6 37  1  0  0  0
  7  8  1  0  0  0
  7 12  2  0  0  0
  8  9  2  0  0  0
  9 10  1  0  0  0
  9 13  1  0  0  0
 10 11  2  0  0  0
 10 38  1  0  0  0
 11 12  1  0  0  0
 13 14  1  0  0  0
 13 39  1  0  0  0
 13 40  1  0  0  0
 14 15  1  0  0  0
 14 19  1  0  0  0
 15 41  1  0  0  0
 15 42  1  0  0  0
 15 43  1  0  0  0
 16 17  2  0  0  0
 16 21  1  0  0  0
 16 22  1  0  0  0
 17 18  1  0  0  0
 17 44  1  0  0  0
 18 19  2  0  0  0
 18 45  1  0  0  0
 19 20  1  0  0  0
 20 21  2  0  0  0
 20 46  1  0  0  0
 21 47  1  0  0  0
 22 23  2  0  0  0
 22 24  1  0  0  0
 24 25  1  0  0  0
 24 48  1  0  0  0
 25 26  1  0  0  0
 25 29  1  0  0  0
 25 49  1  0  0  0
 26 27  1  0  0  0
 26 28  2  0  0  0
 29 30  1  0  0  0
 29 50  1  0  0  0
 29 51  1  0  0  0
 30 31  1  0  0  0
 30 52  1  0  0  0
 30 53  1  0  0  0
 31 32  2  0  0  0
 31 33  1  0  0  0
M  CHG  2  27  -1  33  -1
M  END
> <s_m_source_file>
../3qxv_ligand.sdf

> <i_m_source_file_index>
1

> <s_epik_input>
W05IMl1jMW5jKFtOSDJdKW5jKGMxMiluW2NIXWMobjIpW0NIMl1OKFtDSDNdKWMoW2NIXVtjSF0zKVtjSF1bY0hdYzNDKD1PKVtOSF1bQ0BIXShDKD1PKVtPSF0pW0NIMl1bQ0gyXUMoPU8pW09IXQ==

> <s_epik_cmdline>
J2VwaWtfYXBwJywgJy1pbWFlJywgJ2xpZ2FuZF9wcm8ubWFlJywgJy1vbWFlJywgJ2xpZ2FuZF9wcmVwLm1hZScsICctbXMnLCAnMScsICctcGgnLCAnNycsICctcGh0JywgJzAuNScsICctbnQn

> <r_epik_Ionization_Penalty>
  0.0825

> <r_epik_Ionization_Penalty_Charging>
  0.0043

> <r_epik_Ionization_Penalty_Neutral>
  0.0782

> <r_epik_State_Penalty>
  0.0653

> <r_epik_Charging_Adjusted_Penalty>
0.0696263758716876

> <i_epik_Tot_Q>
-2

> <i_epik_Tot_abs_Q>
2

$$$$
