3qyy_ligand
                    3D
 Schrodinger Suite 2020-3.
 67 73  0  0  1  0            999 V2000
   66.7230   25.1930   44.4860 P   0  0  1  0  0  0
   66.2450   24.9050   45.8830 O   0  5  0  0  0  0
   65.6480   25.3720   43.4520 O   0  0  0  0  0  0
   67.5990   26.5080   44.4360 O   0  0  0  0  0  0
   68.1470   26.9600   43.1810 C   0  0  0  0  0  0
   68.9550   28.2170   43.4860 C   0  0  1  0  0  0
   68.2450   29.2580   44.1340 O   0  0  0  0  0  0
   70.1490   27.9170   44.3890 C   0  0  1  0  0  0
   71.2480   27.4100   43.6300 O   0  0  0  0  0  0
   70.3720   29.2500   45.0300 C   0  0  1  0  0  0
   71.2830   29.9990   44.2080 O   0  0  0  0  0  0
   69.0220   29.9440   45.1130 C   0  0  2  0  0  0
   68.4190   29.7450   46.4570 N   0  0  0  0  0  0
   67.3260   29.0080   46.7500 C   0  0  0  0  0  0
   67.0370   29.0510   48.0670 N   0  0  0  0  0  0
   67.9450   29.8310   48.6430 C   0  0  0  0  0  0
   68.2160   30.3130   50.0220 C   0  0  0  0  0  0
   67.4710   29.9700   50.9730 O   0  0  0  0  0  0
   69.2770   31.1350   50.2260 N   0  3  0  0  0  0
   70.0970   31.5280   49.2140 C   0  0  0  0  0  0
   71.1320   32.3460   49.4850 N   0  0  0  0  0  0
   69.9040   31.1150   47.9110 N   0  0  0  0  0  0
   68.8640   30.2850   47.5820 C   0  0  0  0  0  0
   72.1450   26.3440   44.4360 P   0  0  2  0  0  0
   72.6260   26.9380   45.7190 O   0  5  0  0  0  0
   73.2460   26.0000   43.4950 O   0  0  0  0  0  0
   71.2940   25.0510   44.7360 O   0  0  0  0  0  0
   70.7590   24.3230   43.6300 C   0  0  0  0  0  0
   69.9580   23.1570   44.1230 C   0  0  1  0  0  0
   70.6760   22.2850   45.0380 O   0  0  0  0  0  0
   68.6810   23.5510   44.8640 C   0  0  1  0  0  0
   67.6180   23.9370   43.9700 O   0  0  0  0  0  0
   68.4010   22.2960   45.6320 C   0  0  1  0  0  0
   67.6190   21.4150   44.8080 O   0  0  0  0  0  0
   69.7570   21.6980   45.9680 C   0  0  2  0  0  0
   70.1000   21.9680   47.3830 N   0  0  0  0  0  0
   70.7470   23.0380   47.9080 C   0  0  0  0  0  0
   70.8700   22.9190   49.2520 N   0  0  0  0  0  0
   70.2950   21.7560   49.6040 C   0  0  0  0  0  0
   70.0610   20.9930   50.8620 C   0  0  0  0  0  0
   70.4460   21.4190   51.9650 O   0  0  0  0  0  0
   69.4090   19.8000   50.7850 N   0  0  0  0  0  0
   68.9650   19.2810   49.5980 C   0  0  0  0  0  0
   68.3210   18.0870   49.5930 N   0  0  0  0  0  0
   69.1510   19.9340   48.4130 N   0  0  0  0  0  0
   69.7960   21.1480   48.3650 C   0  0  0  0  0  0
   68.7894   26.1741   42.7571 H   0  0  0  0  0  0
   67.3274   27.1807   42.4813 H   0  0  0  0  0  0
   69.2120   28.6262   42.4978 H   0  0  0  0  0  0
   70.0567   27.1050   45.1253 H   0  0  0  0  0  0
   70.8465   29.1711   46.0192 H   0  0  0  0  0  0
   72.3068   29.6310   44.0454 H   0  0  0  0  0  0
   69.0426   31.0267   44.9196 H   0  0  0  0  0  0
   66.7491   28.4481   46.0140 H   0  0  0  0  0  0
   71.3068   32.6889   50.5154 H   0  0  0  0  0  0
   70.1094   24.9830   43.0363 H   0  0  0  0  0  0
   71.5825   23.9557   42.9999 H   0  0  0  0  0  0
   69.7641   22.6057   43.1911 H   0  0  0  0  0  0
   68.7283   24.4570   45.4860 H   0  0  0  0  0  0
   67.7891   22.4565   46.5319 H   0  0  0  0  0  0
   66.6115   21.7148   44.4841 H   0  0  0  0  0  0
   69.8276   20.6060   45.8562 H   0  0  0  0  0  0
   71.1186   23.8815   47.3261 H   0  0  0  0  0  0
   68.1714   17.5845   50.4680 H   0  0  0  0  0  0
   68.7826   19.4898   47.4765 H   0  0  0  0  0  0
   71.8025   32.6712   48.6759 H   0  0  0  0  0  0
   69.4981   31.5070   51.2373 H   0  0  0  0  0  0
  1  2  1  0  0  0
  1  3  2  0  0  0
  1  4  1  0  0  0
  1 32  1  0  0  0
  4  5  1  0  0  0
  5  6  1  0  0  0
  5 47  1  0  0  0
  5 48  1  0  0  0
  6  7  1  0  0  0
  6  8  1  0  0  0
  6 49  1  0  0  0
  7 12  1  0  0  0
  8  9  1  0  0  0
  8 10  1  0  0  0
  8 50  1  0  0  0
  9 24  1  0  0  0
 10 11  1  0  0  0
 10 12  1  0  0  0
 10 51  1  0  0  0
 11 52  1  0  0  0
 12 13  1  0  0  0
 12 53  1  0  0  0
 13 14  1  0  0  0
 13 23  1  0  0  0
 14 15  2  0  0  0
 14 54  1  0  0  0
 15 16  1  0  0  0
 16 17  1  0  0  0
 16 23  2  0  0  0
 17 18  2  0  0  0
 17 19  1  0  0  0
 19 20  1  0  0  0
 19 67  1  0  0  0
 20 21  1  0  0  0
 20 22  2  0  0  0
 21 55  1  0  0  0
 21 66  1  0  0  0
 22 23  1  0  0  0
 24 25  1  0  0  0
 24 26  2  0  0  0
 24 27  1  0  0  0
 27 28  1  0  0  0
 28 29  1  0  0  0
 28 56  1  0  0  0
 28 57  1  0  0  0
 29 30  1  0  0  0
 29 31  1  0  0  0
 29 58  1  0  0  0
 30 35  1  0  0  0
 31 32  1  0  0  0
 31 33  1  0  0  0
 31 59  1  0  0  0
 33 34  1  0  0  0
 33 35  1  0  0  0
 33 60  1  0  0  0
 34 61  1  0  0  0
 35 36  1  0  0  0
 35 62  1  0  0  0
 36 37  1  0  0  0
 36 46  1  0  0  0
 37 38  2  0  0  0
 37 63  1  0  0  0
 38 39  1  0  0  0
 39 40  1  0  0  0
 39 46  2  0  0  0
 40 41  2  0  0  0
 40 42  1  0  0  0
 42 43  1  0  0  0
 43 44  2  0  0  0
 43 45  1  0  0  0
 44 64  1  0  0  0
 45 46  1  0  0  0
 45 65  1  0  0  0
M  CHG  3   2  -1  19   1  25  -1
M  END
> <s_m_source_file>
../3qyy_ligand.sdf

> <i_m_source_file_index>
1

> <s_epik_input>
Tz1jMVtuSF0vYyg9TlxbSF0pW25IXWMoYzEyKW4oW2NIXW4yKVtDQEhdKE8zKVtDQEhdKFtPSF0pW0NASF0oT1tQQEBdKD1PKShbT0hdKU9bQ0gyXTQpW0NASF0zW0NIMl1PW1BAXSg9TykoW09IXSlPW0NASF0oW0NAQEhdNDUpW0NAQEhdKFtPSF0pW0NAQEhdKE81KW4oW2NIXW42KWMoYzY3KVtuSF1jKD1OXFtIXSlcW25IXWM3PU8=

> <s_epik_cmdline>
J2VwaWtfYXBwJywgJy1pbWFlJywgJ2xpZ2FuZF9wcm8ubWFlJywgJy1vbWFlJywgJ2xpZ2FuZF9wcmVwLm1hZScsICctbXMnLCAnMScsICctcGgnLCAnNycsICctcGh0JywgJzAuNScsICctbnQn

> <r_epik_Ionization_Penalty>
  3.2341

> <r_epik_Ionization_Penalty_Charging>
  3.2333

> <r_epik_Ionization_Penalty_Neutral>
  0.0007

> <r_epik_State_Penalty>
  0.2212

> <r_epik_Charging_Adjusted_Penalty>
3.45456703105301

> <i_epik_Tot_Q>
-1

> <i_epik_Tot_abs_Q>
3

> <s_epik_Chemistry_Notes>
This compound has an imine and may undergo hydrolysis. This compound contains an acetal/aminal-like group ( X-CH(R)-Y where X, Y are N, S, or O) that may be acid/base labile, releasing an aldehyde.

$$$$
