3qzq_ligand
                    3D
 Schrodinger Suite 2020-3.
 84 86  0  0  1  0            999 V2000
   36.3760   15.3040    7.1090 C   0  0  0  0  0  0
   36.4750   16.0010    5.7470 C   0  0  0  0  0  0
   37.3510   14.7080    7.5520 O   0  0  0  0  0  0
   37.7570   16.8590    5.6370 C   0  0  1  0  0  0
   37.9380   17.7590    4.4210 C   0  0  0  0  0  0
   37.3330   17.1230    3.1760 C   0  0  0  0  0  0
   37.9690   16.0490    2.5710 C   0  0  0  0  0  0
   37.4330   15.4930    1.4010 C   0  0  0  0  0  0
   36.2630   16.0250    0.8520 C   0  0  0  0  0  0
   35.6250   17.1040    1.4530 C   0  0  0  0  0  0
   36.1630   17.6650    2.6220 C   0  0  0  0  0  0
   39.9660   16.7210    6.9490 N   0  0  0  0  0  0
   40.9980   17.2270    7.8950 C   0  0  1  0  0  0
   41.2570   16.5000    9.2180 C   0  0  0  0  0  0
   39.9930   15.9540    9.8350 C   0  0  1  0  0  0
   40.3310   14.9910   10.9210 C   0  0  0  0  0  0
   39.4560   15.2300   12.0110 N   0  0  0  0  0  0
   41.2340   14.1690   10.9270 O   0  0  0  0  0  0
   42.1460   18.1120    7.3800 C   0  0  0  0  0  0
   41.7220   19.1080    6.3250 C   0  0  0  0  0  0
   41.1620   20.3240    7.0480 C   0  0  0  0  0  0
   40.2870   21.0650    6.4830 O   0  0  0  0  0  0
   41.5270   20.5720    8.2190 O   0  0  0  0  0  0
   38.6090   17.2630    6.8440 C   0  0  0  0  0  0
   38.2500   18.2090    7.5130 O   0  0  0  0  0  0
   39.6360   22.0550    7.2180 C   0  0  0  0  0  0
   38.6270   22.7280    6.3240 C   0  0  0  0  0  0
   34.9560   14.8700    7.5630 C   0  0  1  0  0  0
   35.0210   13.5470    8.1840 N   0  0  0  0  0  0
   34.2280   12.4470    7.6590 C   0  0  0  0  0  0
   33.4720   12.5990    6.7210 O   0  0  0  0  0  0
   34.2720   15.8860    8.4780 C   0  0  0  0  0  0
   32.9110   15.3810    8.8780 C   0  0  0  0  0  0
   35.7740   15.4970   -0.2720 F   0  0  0  0  0  0
   35.1110   16.1080    9.6910 C   0  0  0  0  0  0
   38.5220   16.2650   11.6190 C   0  0  0  0  0  0
   39.1780   17.0240   10.4860 C   0  0  0  0  0  0
   34.4140   11.0770    8.2640 C   0  0  0  0  0  0
   33.7060    9.8510    7.8800 C   0  0  0  0  0  0
   34.2570    8.8540    8.7610 C   0  0  0  0  0  0
   35.1600    9.4660    9.5190 O   0  0  0  0  0  0
   35.2610   10.7520    9.2370 N   0  0  0  0  0  0
   33.8850    7.3980    8.7970 C   0  0  0  0  0  0
   36.4945   15.2446    4.9486 H   0  0  0  0  0  0
   35.6045   16.6589    5.6076 H   0  0  0  0  0  0
   38.2830   15.9168    5.4236 H   0  0  0  0  0  0
   37.4408   18.7235    4.6014 H   0  0  0  0  0  0
   39.0109   17.9268    4.2454 H   0  0  0  0  0  0
   38.8817   15.6390    3.0035 H   0  0  0  0  0  0
   37.9272   14.6484    0.9209 H   0  0  0  0  0  0
   34.7122   17.5121    1.0190 H   0  0  0  0  0  0
   35.6750   18.5164    3.0965 H   0  0  0  0  0  0
   40.2028   15.8880    6.2708 H   0  0  0  0  0  0
   40.2195   17.9494    8.1815 H   0  0  0  0  0  0
   41.9409   15.6561    9.0448 H   0  0  0  0  0  0
   41.7105   17.1979    9.9372 H   0  0  0  0  0  0
   39.4222   15.4804    9.0227 H   0  0  0  0  0  0
   39.3930   14.7835   13.0143 H   0  0  0  0  0  0
   42.5716   18.6845    8.2173 H   0  0  0  0  0  0
   42.9268   17.4776    6.9352 H   0  0  0  0  0  0
   42.5932   19.3893    5.7151 H   0  0  0  0  0  0
   40.9542   18.6550    5.6806 H   0  0  0  0  0  0
   39.1281   21.5975    8.0798 H   0  0  0  0  0  0
   40.3719   22.7908    7.5743 H   0  0  0  0  0  0
   38.1031   23.5133    6.8886 H   0  0  0  0  0  0
   37.8987   21.9843    5.9682 H   0  0  0  0  0  0
   39.1426   23.1776    5.4626 H   0  0  0  0  0  0
   34.3044   14.7667    6.6828 H   0  0  0  0  0  0
   35.6729   13.3792    9.0540 H   0  0  0  0  0  0
   34.1519   16.8492    7.9604 H   0  0  0  0  0  0
   32.3002   15.2205    7.9773 H   0  0  0  0  0  0
   32.4208   16.1223    9.5262 H   0  0  0  0  0  0
   33.0178   14.4313    9.4227 H   0  0  0  0  0  0
   36.1024   16.4765    9.3887 H   0  0  0  0  0  0
   35.2232   15.1601   10.2377 H   0  0  0  0  0  0
   34.6262   16.8511   10.3412 H   0  0  0  0  0  0
   37.5794   15.8029   11.2904 H   0  0  0  0  0  0
   38.3269   16.9265   12.4759 H   0  0  0  0  0  0
   39.8411   17.8307   10.8318 H   0  0  0  0  0  0
   38.4566   17.4280    9.7605 H   0  0  0  0  0  0
   32.9441    9.7247    7.1108 H   0  0  0  0  0  0
   33.1052    7.2001    8.0468 H   0  0  0  0  0  0
   33.5054    7.1412    9.7970 H   0  0  0  0  0  0
   34.7722    6.7873    8.5736 H   0  0  0  0  0  0
  1  2  1  0  0  0
  1  3  2  0  0  0
  1 28  1  0  0  0
  2  4  1  0  0  0
  2 44  1  0  0  0
  2 45  1  0  0  0
  4  5  1  0  0  0
  4 24  1  0  0  0
  4 46  1  0  0  0
  5  6  1  0  0  0
  5 47  1  0  0  0
  5 48  1  0  0  0
  6  7  2  0  0  0
  6 11  1  0  0  0
  7  8  1  0  0  0
  7 49  1  0  0  0
  8  9  2  0  0  0
  8 50  1  0  0  0
  9 10  1  0  0  0
  9 34  1  0  0  0
 10 11  2  0  0  0
 10 51  1  0  0  0
 11 52  1  0  0  0
 12 13  1  0  0  0
 12 24  1  0  0  0
 12 53  1  0  0  0
 13 14  1  0  0  0
 13 19  1  0  0  0
 13 54  1  0  0  0
 14 15  1  0  0  0
 14 55  1  0  0  0
 14 56  1  0  0  0
 15 16  1  0  0  0
 15 37  1  0  0  0
 15 57  1  0  0  0
 16 17  1  0  0  0
 16 18  2  0  0  0
 17 36  1  0  0  0
 17 58  1  0  0  0
 19 20  1  0  0  0
 19 59  1  0  0  0
 19 60  1  0  0  0
 20 21  1  0  0  0
 20 61  1  0  0  0
 20 62  1  0  0  0
 21 22  1  0  0  0
 21 23  2  0  0  0
 22 26  1  0  0  0
 24 25  2  0  0  0
 26 27  1  0  0  0
 26 63  1  0  0  0
 26 64  1  0  0  0
 27 65  1  0  0  0
 27 66  1  0  0  0
 27 67  1  0  0  0
 28 29  1  0  0  0
 28 32  1  0  0  0
 28 68  1  0  0  0
 29 30  1  0  0  0
 29 69  1  0  0  0
 30 31  2  0  0  0
 30 38  1  0  0  0
 32 33  1  0  0  0
 32 35  1  0  0  0
 32 70  1  0  0  0
 33 71  1  0  0  0
 33 72  1  0  0  0
 33 73  1  0  0  0
 35 74  1  0  0  0
 35 75  1  0  0  0
 35 76  1  0  0  0
 36 37  1  0  0  0
 36 77  1  0  0  0
 36 78  1  0  0  0
 37 79  1  0  0  0
 37 80  1  0  0  0
 38 39  1  0  0  0
 38 42  2  0  0  0
 39 40  2  0  0  0
 39 81  1  0  0  0
 40 41  1  0  0  0
 40 43  1  0  0  0
 41 42  1  0  0  0
 43 82  1  0  0  0
 43 83  1  0  0  0
 43 84  1  0  0  0
M  END
> <s_m_source_file>
../3qzq_ligand.sdf

> <i_m_source_file_index>
1

> <s_epik_input>
bjFvYyhbQ0gzXSlbY0hdYzFDKD1PKVtOSF1bQ0BASF0oW0NIXShbQ0gzXSlbQ0gzXSlDKD1PKVtDSDJdW0NAQEhdKFtDSDJdYzJbY0hdW2NIXWMoRilbY0hdW2NIXTIpQyg9TylbTkhdW0NAQEhdKFtDSDJdW0NASF0zQyg9TylbTkhdW0NIMl1bQ0gyXTMpW0NIMl1bQ0gyXUMoPU8pT1tDSDJdW0NIM10=

> <s_epik_cmdline>
J2VwaWtfYXBwJywgJy1pbWFlJywgJ2xpZ2FuZF9wcm8ubWFlJywgJy1vbWFlJywgJ2xpZ2FuZF9wcmVwLm1hZScsICctbXMnLCAnMScsICctcGgnLCAnNycsICctcGh0JywgJzAuNScsICctbnQn

> <r_lp_tautomer_probability>
1

> <r_epik_Ionization_Penalty>
  0.0000

> <r_epik_Ionization_Penalty_Charging>
  0.0000

> <r_epik_Ionization_Penalty_Neutral>
  0.0000

> <r_epik_State_Penalty>
 -0.0000

> <r_epik_Charging_Adjusted_Penalty>
0

> <i_epik_Tot_Q>
0

> <i_epik_Tot_abs_Q>
0

> <s_epik_Chemistry_Notes>
This compound has an ester and may undergo hydrolysis at high or low pH.

$$$$
