3qzt_ligand
                    3D
 Schrodinger Suite 2020-3.
110110  0  0  1  0            999 V2000
   31.4150    6.8570    2.8280 N   0  3  0  0  0  0
   30.7300    6.9350    4.1630 C   0  0  0  0  0  0
   31.0360    5.7440    5.0680 C   0  0  0  0  0  0
   30.3880    4.6900    4.9700 O   0  0  0  0  0  0
   32.0310    5.9020    5.9470 N   0  0  0  0  0  0
   32.4270    4.8180    6.8640 C   0  0  2  0  0  0
   32.2500    5.2360    8.3200 C   0  0  0  0  0  0
   32.9080    6.1730    8.8090 O   0  0  0  0  0  0
   33.8620    4.3540    6.5910 C   0  0  0  0  0  0
   24.2460    2.9210   10.3480 O   0  0  0  0  0  0
   24.2960    2.9790   11.5420 C   0  0  0  0  0  0
   23.1190    2.5100   12.3450 C   0  0  0  0  0  0
   25.3540    3.4330   12.1960 N   0  0  0  0  0  0
   26.4660    3.9480   11.3730 C   0  0  0  0  0  0
   27.8380    4.2130   11.9160 C   0  0  0  0  0  0
   28.6590    4.5010   10.6710 C   0  0  0  0  0  0
   29.9930    3.8210   10.7660 C   0  0  0  0  0  0
   31.0410    4.8390   10.3940 C   0  0  2  0  0  0
   31.3480    4.5500    9.0030 N   0  0  0  0  0  0
   32.1600    4.5960   11.3270 C   0  0  0  0  0  0
   32.9900    3.7020   11.1180 O   0  0  0  0  0  0
   32.1940    5.3610   12.3990 N   0  0  0  0  0  0
   33.1730    5.1040   13.4340 C   0  0  2  0  0  0
   32.9130    3.7000   14.0170 C   0  0  0  0  0  0
   31.7700    3.3210   14.2530 O   0  0  0  0  0  0
   33.0720    6.1560   14.5340 C   0  0  0  0  0  0
   34.1430    6.0330   15.6430 C   0  0  0  0  0  0
   33.7290    6.8780   16.8790 C   0  0  0  0  0  0
   33.5110    8.2700   16.4810 N   0  0  0  0  0  0
   34.4980    9.1360   16.2590 C   0  0  0  0  0  0
   35.7620    8.7540   16.4620 N   0  0  0  0  0  0
   34.2330   10.3750   15.8660 N   0  3  0  0  0  0
   34.0110    2.9580   14.1830 N   0  0  0  0  0  0
   34.1780    1.7270   14.9810 C   0  0  2  0  0  0
   33.5260    1.8220   16.3800 C   0  0  0  0  0  0
   33.6670    2.8490   17.0610 O   0  0  0  0  0  0
   35.7050    1.5570   15.1360 C   0  0  0  0  0  0
   36.1870    0.1410   15.2760 C   0  0  0  0  0  0
   37.2830   -0.1890   16.0510 N   0  0  0  0  0  0
   35.7540   -1.0200   14.7250 C   0  0  0  0  0  0
   37.4930   -1.4930   15.9850 C   0  0  0  0  0  0
   36.5780   -2.0210   15.1890 N   0  0  0  0  0  0
   32.8460    0.7400   16.7990 N   0  0  0  0  0  0
   32.1020    0.6270   18.0780 C   0  0  2  0  0  0
   32.8760    1.1120   19.3110 C   0  0  0  0  0  0
   34.0520    0.8040   19.4580 O   0  0  0  0  0  0
   31.6300   -0.8230   18.3110 C   0  0  0  0  0  0
   30.7030   -0.9960   19.5410 C   0  0  0  0  0  0
   30.2550   -2.4480   19.6980 C   0  0  0  0  0  0
   29.3000   -2.6230   20.7950 N   0  0  0  0  0  0
   28.7290   -3.7820   21.1050 C   0  0  0  0  0  0
   29.0090   -4.8780   20.4030 N   0  0  0  0  0  0
   27.8760   -3.8510   22.1200 N   0  3  0  0  0  0
   32.3007    1.8281   20.1734 O   0  5  0  0  0  0
   31.1528    7.7416    2.2291 H   0  0  0  0  0  0
   31.0892    5.9479    2.3013 H   0  0  0  0  0  0
   32.5045    6.8244    2.9763 H   0  0  0  0  0  0
   31.0558    7.8441    4.6897 H   0  0  0  0  0  0
   29.6405    6.9676    4.0148 H   0  0  0  0  0  0
   32.5578    6.8672    5.9764 H   0  0  0  0  0  0
   31.7375    3.9877    6.6512 H   0  0  0  0  0  0
   33.9577    4.0599    5.5354 H   0  0  0  0  0  0
   34.0977    3.4933    7.2342 H   0  0  0  0  0  0
   34.5605    5.1757    6.8075 H   0  0  0  0  0  0
   22.3256    2.1651   11.6656 H   0  0  0  0  0  0
   22.7403    3.3400   12.9596 H   0  0  0  0  0  0
   23.4280    1.6810   12.9987 H   0  0  0  0  0  0
   25.4325    3.4404   13.2932 H   0  0  0  0  0  0
   26.6727    3.2435   10.5539 H   0  0  0  0  0  0
   26.1893    4.9267   10.9539 H   0  0  0  0  0  0
   27.8011    5.0718   12.6023 H   0  0  0  0  0  0
   28.1955    3.3253   12.4584 H   0  0  0  0  0  0
   28.1249    4.1271    9.7850 H   0  0  0  0  0  0
   28.8124    5.5861   10.5758 H   0  0  0  0  0  0
   30.1496    3.4630   11.7942 H   0  0  0  0  0  0
   30.0197    2.9675   10.0725 H   0  0  0  0  0  0
   30.7808    5.9061   10.4532 H   0  0  0  0  0  0
   30.8229    3.7362    8.4815 H   0  0  0  0  0  0
   31.4822    6.1924   12.5094 H   0  0  0  0  0  0
   34.1613    5.1741   12.9561 H   0  0  0  0  0  0
   33.1822    7.1582   14.0941 H   0  0  0  0  0  0
   32.0919    6.0778   15.0273 H   0  0  0  0  0  0
   34.2416    4.9791   15.9422 H   0  0  0  0  0  0
   35.1084    6.3980   15.2625 H   0  0  0  0  0  0
   32.7995    6.4729   17.3054 H   0  0  0  0  0  0
   34.5272    6.8376   17.6348 H   0  0  0  0  0  0
   32.4873    8.6508   16.3501 H   0  0  0  0  0  0
   35.9804    7.7263   16.7879 H   0  0  0  0  0  0
   36.5843    9.4671   16.3033 H   0  0  0  0  0  0
   33.1918   10.6883   15.6992 H   0  0  0  0  0  0
   34.8645    3.3729   13.6267 H   0  0  0  0  0  0
   33.6762    0.9077   14.4452 H   0  0  0  0  0  0
   36.4264    2.3873   15.1484 H   0  0  0  0  0  0
   34.9310   -1.2603   14.0358 H   0  0  0  0  0  0
   38.2844   -2.0390   16.4985 H   0  0  0  0  0  0
   32.8717   -0.1096   16.1008 H   0  0  0  0  0  0
   31.2572    1.3151   17.9270 H   0  0  0  0  0  0
   31.0694   -1.1719   17.4312 H   0  0  0  0  0  0
   32.5038   -1.4720   18.4701 H   0  0  0  0  0  0
   31.2421   -0.6956   20.4516 H   0  0  0  0  0  0
   29.8100   -0.3654   19.4187 H   0  0  0  0  0  0
   29.7707   -2.7847   18.7695 H   0  0  0  0  0  0
   31.1301   -3.0813   19.9056 H   0  0  0  0  0  0
   29.0165   -1.7632   21.4198 H   0  0  0  0  0  0
   29.7150   -4.8264   19.5611 H   0  0  0  0  0  0
   28.5343   -5.8351   20.6649 H   0  0  0  0  0  0
   27.6411   -2.9485   22.7033 H   0  0  0  0  0  0
   35.0544   11.0891   15.7069 H   0  0  0  0  0  0
   27.4042   -4.8107   22.3776 H   0  0  0  0  0  0
   37.8257    0.5956   16.5986 H   0  0  0  0  0  0
  1  2  1  0  0  0
  1 55  1  0  0  0
  1 56  1  0  0  0
  1 57  1  0  0  0
  2  3  1  0  0  0
  2 58  1  0  0  0
  2 59  1  0  0  0
  3  4  2  0  0  0
  3  5  1  0  0  0
  5  6  1  0  0  0
  5 60  1  0  0  0
  6  7  1  0  0  0
  6  9  1  0  0  0
  6 61  1  0  0  0
  7  8  2  0  0  0
  7 19  1  0  0  0
  9 62  1  0  0  0
  9 63  1  0  0  0
  9 64  1  0  0  0
 10 11  2  0  0  0
 11 12  1  0  0  0
 11 13  1  0  0  0
 12 65  1  0  0  0
 12 66  1  0  0  0
 12 67  1  0  0  0
 13 14  1  0  0  0
 13 68  1  0  0  0
 14 15  1  0  0  0
 14 69  1  0  0  0
 14 70  1  0  0  0
 15 16  1  0  0  0
 15 71  1  0  0  0
 15 72  1  0  0  0
 16 17  1  0  0  0
 16 73  1  0  0  0
 16 74  1  0  0  0
 17 18  1  0  0  0
 17 75  1  0  0  0
 17 76  1  0  0  0
 18 19  1  0  0  0
 18 20  1  0  0  0
 18 77  1  0  0  0
 19 78  1  0  0  0
 20 21  2  0  0  0
 20 22  1  0  0  0
 22 23  1  0  0  0
 22 79  1  0  0  0
 23 24  1  0  0  0
 23 26  1  0  0  0
 23 80  1  0  0  0
 24 25  2  0  0  0
 24 33  1  0  0  0
 26 27  1  0  0  0
 26 81  1  0  0  0
 26 82  1  0  0  0
 27 28  1  0  0  0
 27 83  1  0  0  0
 27 84  1  0  0  0
 28 29  1  0  0  0
 28 85  1  0  0  0
 28 86  1  0  0  0
 29 30  1  0  0  0
 29 87  1  0  0  0
 30 31  1  0  0  0
 30 32  2  0  0  0
 31 88  1  0  0  0
 31 89  1  0  0  0
 32 90  1  0  0  0
 32108  1  0  0  0
 33 34  1  0  0  0
 33 91  1  0  0  0
 34 35  1  0  0  0
 34 37  1  0  0  0
 34 92  1  0  0  0
 35 36  2  0  0  0
 35 43  1  0  0  0
 37 38  2  0  0  0
 37 93  1  0  0  0
 38 39  1  0  0  0
 38 40  1  0  0  0
 39 41  1  0  0  0
 39110  1  0  0  0
 40 42  2  0  0  0
 40 94  1  0  0  0
 41 42  1  0  0  0
 41 95  1  0  0  0
 43 44  1  0  0  0
 43 96  1  0  0  0
 44 45  1  0  0  0
 44 47  1  0  0  0
 44 97  1  0  0  0
 45 46  2  0  0  0
 45 54  1  0  0  0
 47 48  1  0  0  0
 47 98  1  0  0  0
 47 99  1  0  0  0
 48 49  1  0  0  0
 48100  1  0  0  0
 48101  1  0  0  0
 49 50  1  0  0  0
 49102  1  0  0  0
 49103  1  0  0  0
 50 51  1  0  0  0
 50104  1  0  0  0
 51 52  1  0  0  0
 51 53  2  0  0  0
 52105  1  0  0  0
 52106  1  0  0  0
 53107  1  0  0  0
 53109  1  0  0  0
M  CHG  4   1   1  32   1  53   1  54  -1
M  END
> <s_m_source_file>
../3qzt_ligand.sdf

> <i_m_source_file_index>
1

> <s_epik_input>
W05IMytdW0NIMl1DKD1PKVtOSF1bQ0BASF0oW0NIM10pQyg9TylbTkhdW0NAQEhdKFtDSDJdW0NIMl1bQ0gyXVtDSDJdW05IXUMoPU8pW0NIM10pQyg9TylbTkhdW0NAQEhdKFtDSDJdW0NIMl1bQ0gyXVtOSF0vQyhbTkgyXSk9TlxbSF0pQyg9TylbTkhdW0NAQEhdKFtDSDJdQzE9TltDSDJdTj1bQ0hdMSlDKD1PKVtOSF1bQ0BIXShDKD1PKVtPSF0pW0NIMl1bQ0gyXVtDSDJdW05IXS9DKFtOSDJdKT1OXFtIXQ==

> <s_epik_cmdline>
J2VwaWtfYXBwJywgJy1pbWFlJywgJ2xpZ2FuZF9wcm8ubWFlJywgJy1vbWFlJywgJ2xpZ2FuZF9wcmVwLm1hZScsICctbXMnLCAnMScsICctcGgnLCAnNycsICctcGh0JywgJzAuNScsICctbnQn

> <r_epik_Ionization_Penalty>
  0.1241

> <r_epik_Ionization_Penalty_Charging>
  0.1240

> <r_epik_Ionization_Penalty_Neutral>
  0.0000

> <r_epik_State_Penalty>
  0.1134

> <r_epik_Charging_Adjusted_Penalty>
0.237468654132211

> <i_epik_Tot_Q>
2

> <i_epik_Tot_abs_Q>
4

> <s_epik_Chemistry_Notes>
This compound has an imine and may undergo hydrolysis.

$$$$
