3qzv_ligand
                    3D
 Schrodinger Suite 2020-3.
 91 90  0  0  1  0            999 V2000
   -4.1410   -2.4300  -13.1970 N   0  3  0  0  0  0
   -3.7410   -1.4480  -12.1590 C   0  0  0  0  0  0
   -4.0770   -1.8590  -10.7400 C   0  0  0  0  0  0
   -5.2390   -1.8170  -10.3390 O   0  0  0  0  0  0
   -3.0500   -2.2320   -9.9760 N   0  0  0  0  0  0
   -3.1980   -2.5380   -8.5480 C   0  0  2  0  0  0
   -3.5750   -1.3210   -7.6910 C   0  0  0  0  0  0
   -4.0530   -1.4860   -6.5650 O   0  0  0  0  0  0
   -1.9290   -3.1960   -7.9870 C   0  0  0  0  0  0
   -2.0210   -4.7070   -7.7590 C   0  0  0  0  0  0
   -1.8140   -5.5100   -9.0400 C   0  0  0  0  0  0
   -1.1590   -6.8620   -8.7590 C   0  0  0  0  0  0
   -1.8360   -7.6330   -7.6830 N   0  3  0  0  0  0
   -3.3720   -0.1140   -8.2240 N   0  0  0  0  0  0
   -3.6400    1.1230   -7.4760 C   0  0  0  0  0  0
   -5.0730    1.6240   -7.5010 C   0  0  0  0  0  0
   -5.8860    1.1590   -8.2980 O   0  0  0  0  0  0
   -5.3840    2.5730   -6.6190 N   0  0  0  0  0  0
   -6.7250    3.1710   -6.5670 C   0  0  2  0  0  0
   -6.9240    4.1320   -7.7360 C   0  0  0  0  0  0
   -8.0540    4.3470   -8.1810 O   0  0  0  0  0  0
   -7.0000    3.8650   -5.2230 C   0  0  0  0  0  0
   -7.2460    2.9650   -4.0000 C   0  0  0  0  0  0
   -7.2000    3.7550   -2.6880 C   0  0  0  0  0  0
   -8.5540    2.1810   -4.1190 C   0  0  0  0  0  0
   -5.8180    4.6740   -8.2420 N   0  0  0  0  0  0
   -5.8310    5.5290   -9.4230 C   0  0  0  0  0  0
   -5.2600    6.9070   -9.1550 C   0  0  0  0  0  0
   -5.2280    7.3730   -8.0120 O   0  0  0  0  0  0
    2.2330    6.0520  -12.1830 O   0  0  0  0  0  0
    2.4390    7.2550  -12.2640 C   0  0  0  0  0  0
    3.6790    7.7730  -12.9650 C   0  0  0  0  0  0
    1.6510    8.1880  -11.7290 N   0  0  0  0  0  0
    0.4500    7.8360  -10.9760 C   0  0  0  0  0  0
   -0.7170    8.6620  -11.4710 C   0  0  0  0  0  0
   -1.9730    8.1890  -10.7610 C   0  0  0  0  0  0
   -3.1430    9.0650  -11.1490 C   0  0  0  0  0  0
   -4.2880    8.9140  -10.1540 C   0  0  2  0  0  0
   -4.8120    7.5570  -10.2250 N   0  0  0  0  0  0
   -5.3770    9.8950  -10.5620 C   0  0  0  0  0  0
   -6.4210    9.4980  -11.0800 O   0  0  0  0  0  0
   -5.2085   11.1284  -10.3674 O   0  5  0  0  0  0
   -3.8591   -2.0494  -14.1898 H   0  0  0  0  0  0
   -5.2298   -2.5817  -13.1580 H   0  0  0  0  0  0
   -3.6306   -3.3868  -13.0126 H   0  0  0  0  0  0
   -2.6522   -1.2963  -12.1980 H   0  0  0  0  0  0
   -4.2513   -0.4911  -12.3434 H   0  0  0  0  0  0
   -2.0626   -2.3068  -10.4551 H   0  0  0  0  0  0
   -4.0437   -3.2414   -8.5399 H   0  0  0  0  0  0
   -1.0939   -3.0361   -8.6849 H   0  0  0  0  0  0
   -1.6836   -2.7479   -7.0128 H   0  0  0  0  0  0
   -1.2493   -5.0168   -7.0390 H   0  0  0  0  0  0
   -3.0154   -4.9580   -7.3613 H   0  0  0  0  0  0
   -2.7866   -5.6896   -9.5214 H   0  0  0  0  0  0
   -1.1643   -4.9460   -9.7254 H   0  0  0  0  0  0
   -1.1817   -7.4770   -9.6707 H   0  0  0  0  0  0
   -0.1155   -6.7063   -8.4477 H   0  0  0  0  0  0
   -1.3147   -8.5902   -7.5342 H   0  0  0  0  0  0
   -2.8802   -7.8250   -7.9709 H   0  0  0  0  0  0
   -1.8140   -7.0542   -6.7478 H   0  0  0  0  0  0
   -2.9924   -0.0619   -9.2551 H   0  0  0  0  0  0
   -3.3898    0.9717   -6.4156 H   0  0  0  0  0  0
   -3.0260    1.9390   -7.8848 H   0  0  0  0  0  0
   -4.6052    2.9071   -5.9177 H   0  0  0  0  0  0
   -7.4198    2.3239   -6.6656 H   0  0  0  0  0  0
   -6.1400    4.4957   -4.9533 H   0  0  0  0  0  0
   -7.9004    4.4908   -5.3109 H   0  0  0  0  0  0
   -6.4252    2.2331   -3.9758 H   0  0  0  0  0  0
   -6.2516    4.3089   -2.6266 H   0  0  0  0  0  0
   -7.2743    3.0599   -1.8387 H   0  0  0  0  0  0
   -8.0410    4.4633   -2.6568 H   0  0  0  0  0  0
   -8.5624    1.6236   -5.0673 H   0  0  0  0  0  0
   -9.4035    2.8795   -4.0967 H   0  0  0  0  0  0
   -8.6367    1.4761   -3.2786 H   0  0  0  0  0  0
   -4.8682    4.4543   -7.7325 H   0  0  0  0  0  0
   -5.2298    5.0645  -10.2185 H   0  0  0  0  0  0
   -6.8663    5.6559   -9.7725 H   0  0  0  0  0  0
    4.2538    6.9257  -13.3671 H   0  0  0  0  0  0
    4.2999    8.3300  -12.2479 H   0  0  0  0  0  0
    3.3832    8.4393  -13.7888 H   0  0  0  0  0  0
    1.9243    9.2447  -11.8660 H   0  0  0  0  0  0
    0.2287    6.7678  -11.1171 H   0  0  0  0  0  0
    0.6148    8.0382   -9.9074 H   0  0  0  0  0  0
   -0.5354    9.7237  -11.2480 H   0  0  0  0  0  0
   -0.8257    8.5289  -12.5575 H   0  0  0  0  0  0
   -2.1870    7.1490  -11.0483 H   0  0  0  0  0  0
   -1.8223    8.2452   -9.6728 H   0  0  0  0  0  0
   -2.8238   10.1176  -11.1641 H   0  0  0  0  0  0
   -3.5018    8.7763  -12.1479 H   0  0  0  0  0  0
   -3.9586    9.0724   -9.1165 H   0  0  0  0  0  0
   -4.8477    7.0310  -11.1904 H   0  0  0  0  0  0
  1  2  1  0  0  0
  1 43  1  0  0  0
  1 44  1  0  0  0
  1 45  1  0  0  0
  2  3  1  0  0  0
  2 46  1  0  0  0
  2 47  1  0  0  0
  3  4  2  0  0  0
  3  5  1  0  0  0
  5  6  1  0  0  0
  5 48  1  0  0  0
  6  7  1  0  0  0
  6  9  1  0  0  0
  6 49  1  0  0  0
  7  8  2  0  0  0
  7 14  1  0  0  0
  9 10  1  0  0  0
  9 50  1  0  0  0
  9 51  1  0  0  0
 10 11  1  0  0  0
 10 52  1  0  0  0
 10 53  1  0  0  0
 11 12  1  0  0  0
 11 54  1  0  0  0
 11 55  1  0  0  0
 12 13  1  0  0  0
 12 56  1  0  0  0
 12 57  1  0  0  0
 13 58  1  0  0  0
 13 59  1  0  0  0
 13 60  1  0  0  0
 14 15  1  0  0  0
 14 61  1  0  0  0
 15 16  1  0  0  0
 15 62  1  0  0  0
 15 63  1  0  0  0
 16 17  2  0  0  0
 16 18  1  0  0  0
 18 19  1  0  0  0
 18 64  1  0  0  0
 19 20  1  0  0  0
 19 22  1  0  0  0
 19 65  1  0  0  0
 20 21  2  0  0  0
 20 26  1  0  0  0
 22 23  1  0  0  0
 22 66  1  0  0  0
 22 67  1  0  0  0
 23 24  1  0  0  0
 23 25  1  0  0  0
 23 68  1  0  0  0
 24 69  1  0  0  0
 24 70  1  0  0  0
 24 71  1  0  0  0
 25 72  1  0  0  0
 25 73  1  0  0  0
 25 74  1  0  0  0
 26 27  1  0  0  0
 26 75  1  0  0  0
 27 28  1  0  0  0
 27 76  1  0  0  0
 27 77  1  0  0  0
 28 29  2  0  0  0
 28 39  1  0  0  0
 30 31  2  0  0  0
 31 32  1  0  0  0
 31 33  1  0  0  0
 32 78  1  0  0  0
 32 79  1  0  0  0
 32 80  1  0  0  0
 33 34  1  0  0  0
 33 81  1  0  0  0
 34 35  1  0  0  0
 34 82  1  0  0  0
 34 83  1  0  0  0
 35 36  1  0  0  0
 35 84  1  0  0  0
 35 85  1  0  0  0
 36 37  1  0  0  0
 36 86  1  0  0  0
 36 87  1  0  0  0
 37 38  1  0  0  0
 37 88  1  0  0  0
 37 89  1  0  0  0
 38 39  1  0  0  0
 38 40  1  0  0  0
 38 90  1  0  0  0
 39 91  1  0  0  0
 40 41  2  0  0  0
 40 42  1  0  0  0
M  CHG  3   1   1  13   1  42  -1
M  END
> <s_m_source_file>
../3qzv_ligand.sdf

> <i_m_source_file_index>
1

> <s_epik_input>
W05IMytdW0NIMl1bQ0gyXVtDSDJdW0NIMl1bQ0BIXShbTkhdQyg9TylbQ0gyXVtOSDMrXSlDKD1PKVtOSF1bQ0gyXUMoPU8pW05IXVtDQEBIXShbQ0gyXVtDSF0oW0NIM10pW0NIM10pQyg9TylbTkhdW0NIMl1DKD1PKVtOSF1bQ0BIXShDKD1PKVtPSF0pW0NIMl1bQ0gyXVtDSDJdW0NIMl1bTkhdQyg9TylbQ0gzXQ==

> <s_epik_cmdline>
J2VwaWtfYXBwJywgJy1pbWFlJywgJ2xpZ2FuZF9wcm8ubWFlJywgJy1vbWFlJywgJ2xpZ2FuZF9wcmVwLm1hZScsICctbXMnLCAnMScsICctcGgnLCAnNycsICctcGh0JywgJzAuNScsICctbnQn

> <r_epik_Ionization_Penalty>
  0.1242

> <r_epik_Ionization_Penalty_Charging>
  0.1242

> <r_epik_Ionization_Penalty_Neutral>
  0.0000

> <r_epik_State_Penalty>
  0.1131

> <r_epik_Charging_Adjusted_Penalty>
0.237319612478032

> <i_epik_Tot_Q>
1

> <i_epik_Tot_abs_Q>
3

$$$$
