3r01_ligand
                    3D
 Schrodinger Suite 2020-3.
 21 22  0  0  1  0            999 V2000
   22.2000   33.4440    0.6570 O   0  0  0  0  0  0
   22.6210   33.1260    1.9110 C   0  0  0  0  0  0
   23.1870   34.2310    2.5160 C   0  0  0  0  0  0
   23.1240   35.2700    1.5600 C   0  0  0  0  0  0
   22.5240   34.7710    0.4300 C   0  0  0  0  0  0
   22.2890   35.5080   -0.7240 C   0  0  0  0  0  0
   22.6670   36.8490   -0.7020 C   0  0  0  0  0  0
   23.2910   37.3540    0.4540 C   0  0  0  0  0  0
   23.5590   36.6820    1.6080 C   0  0  0  0  0  0
   23.7680   39.1750    0.1570 Br  0  0  0  0  0  0
   21.6800   34.9840   -1.8390 O   0  0  0  0  0  0
   21.6890   35.7180   -3.0250 C   0  0  0  0  0  0
   22.4320   31.7800    2.4330 C   0  0  0  0  0  0
   21.8660   30.9710    1.6980 O   0  0  0  0  0  0
   22.8940   31.5170    3.6890 O   0  5  0  0  0  0
   23.5979   34.2897    3.5239 H   0  0  0  0  0  0
   22.4833   37.4932   -1.5619 H   0  0  0  0  0  0
   24.0419   37.1362    2.4732 H   0  0  0  0  0  0
   21.1617   35.1546   -3.8089 H   0  0  0  0  0  0
   22.7284   35.8964   -3.3379 H   0  0  0  0  0  0
   21.1841   36.6818   -2.8635 H   0  0  0  0  0  0
  1  2  1  0  0  0
  1  5  1  0  0  0
  2  3  2  0  0  0
  2 13  1  0  0  0
  3  4  1  0  0  0
  3 16  1  0  0  0
  4  5  2  0  0  0
  4  9  1  0  0  0
  5  6  1  0  0  0
  6  7  2  0  0  0
  6 11  1  0  0  0
  7  8  1  0  0  0
  7 17  1  0  0  0
  8  9  2  0  0  0
  8 10  1  0  0  0
  9 18  1  0  0  0
 11 12  1  0  0  0
 12 19  1  0  0  0
 12 20  1  0  0  0
 12 21  1  0  0  0
 13 14  2  0  0  0
 13 15  1  0  0  0
M  CHG  1  15  -1
M  END
> <s_m_source_file>
../3r01_ligand.sdf

> <i_m_source_file_index>
1

> <s_epik_input>
Tz1DKFtPSF0pYyhbY0hdMSlvYyhjMTIpYyhPW0NIM10pW2NIXWMoQnIpW2NIXTI=

> <s_epik_cmdline>
J2VwaWtfYXBwJywgJy1pbWFlJywgJ2xpZ2FuZF9wcm8ubWFlJywgJy1vbWFlJywgJ2xpZ2FuZF9wcmVwLm1hZScsICctbXMnLCAnMScsICctcGgnLCAnNycsICctcGh0JywgJzAuNScsICctbnQn

> <r_lp_tautomer_probability>
1

> <r_epik_Ionization_Penalty>
  0.0000

> <r_epik_Ionization_Penalty_Charging>
  0.0000

> <r_epik_Ionization_Penalty_Neutral>
  0.0000

> <r_epik_State_Penalty>
 -0.0000

> <r_epik_Charging_Adjusted_Penalty>
2.00959928833542e-05

> <i_epik_Tot_Q>
-1

> <i_epik_Tot_abs_Q>
1

$$$$
