3r02_ligand
                    3D
 Schrodinger Suite 2020-3.
 38 40  0  0  1  0            999 V2000
   20.7180  -38.6020    0.8390 C   0  0  0  0  0  0
   19.0230  -37.5340    2.0420 C   0  0  0  0  0  0
   20.0680  -38.4750    2.0560 C   0  0  0  0  0  0
   18.7520  -36.7700    0.9030 C   0  0  0  0  0  0
   20.4420  -37.9490   -0.3510 C   0  0  0  0  0  0
   19.4000  -36.9570   -0.3280 C   0  0  0  0  0  0
   17.7960  -35.8540    1.0860 O   0  0  0  0  0  0
   18.1690  -37.0070    3.0720 C   0  0  0  0  0  0
   17.4610  -36.0250    2.3810 C   0  0  0  0  0  0
   16.3790  -35.2020    2.8340 C   0  0  0  0  0  0
   15.8860  -34.3610    2.0210 O   0  0  0  0  0  0
   15.8820  -35.4370    4.0440 O   0  5  0  0  0  0
   22.1270  -39.9960    0.6740 Br  0  0  0  0  0  0
   19.7050  -36.5090   -2.8550 C   0  0  1  0  0  0
   19.2250  -37.9060   -3.4430 C   0  0  0  0  0  0
   17.6750  -37.9430   -3.6260 C   0  0  0  0  0  0
   17.1310  -36.8660   -4.6520 C   0  0  2  0  0  0
   17.6660  -35.4520   -4.1710 C   0  0  0  0  0  0
   19.1850  -35.4500   -3.8400 C   0  0  0  0  0  0
   15.6810  -36.9290   -4.9170 N   0  3  0  0  0  0
   19.1320  -36.2350   -1.4740 N   0  0  0  0  0  0
   20.3409  -39.0502    2.9408 H   0  0  0  0  0  0
   20.9903  -38.1767   -1.2651 H   0  0  0  0  0  0
   18.0947  -37.2991    4.1195 H   0  0  0  0  0  0
   20.7960  -36.4646   -2.7218 H   0  0  0  0  0  0
   19.6967  -38.0730   -4.4226 H   0  0  0  0  0  0
   19.5150  -38.7130   -2.7540 H   0  0  0  0  0  0
   17.3733  -38.9330   -3.9987 H   0  0  0  0  0  0
   17.1869  -37.7509   -2.6591 H   0  0  0  0  0  0
   17.4390  -37.0935   -5.6832 H   0  0  0  0  0  0
   17.4985  -34.7077   -4.9634 H   0  0  0  0  0  0
   17.1282  -35.1465   -3.2614 H   0  0  0  0  0  0
   19.3914  -34.4458   -3.4414 H   0  0  0  0  0  0
   19.6910  -35.5709   -4.8092 H   0  0  0  0  0  0
   15.4116  -37.9445   -5.2428 H   0  0  0  0  0  0
   15.4211  -36.2093   -5.7072 H   0  0  0  0  0  0
   15.1293  -36.6802   -3.9985 H   0  0  0  0  0  0
   18.4362  -35.3964   -1.3237 H   0  0  0  0  0  0
  1  3  1  0  0  0
  1  5  2  0  0  0
  1 13  1  0  0  0
  2  3  2  0  0  0
  2  4  1  0  0  0
  2  8  1  0  0  0
  3 22  1  0  0  0
  4  6  2  0  0  0
  4  7  1  0  0  0
  5  6  1  0  0  0
  5 23  1  0  0  0
  6 21  1  0  0  0
  7  9  1  0  0  0
  8  9  2  0  0  0
  8 24  1  0  0  0
  9 10  1  0  0  0
 10 11  2  0  0  0
 10 12  1  0  0  0
 14 15  1  0  0  0
 14 19  1  0  0  0
 14 21  1  0  0  0
 14 25  1  0  0  0
 15 16  1  0  0  0
 15 26  1  0  0  0
 15 27  1  0  0  0
 16 17  1  0  0  0
 16 28  1  0  0  0
 16 29  1  0  0  0
 17 18  1  0  0  0
 17 20  1  0  0  0
 17 30  1  0  0  0
 18 19  1  0  0  0
 18 31  1  0  0  0
 18 32  1  0  0  0
 19 33  1  0  0  0
 19 34  1  0  0  0
 20 35  1  0  0  0
 20 36  1  0  0  0
 20 37  1  0  0  0
 21 38  1  0  0  0
M  CHG  2  12  -1  20   1
M  END
> <s_m_source_file>
../3r02_ligand.sdf

> <i_m_source_file_index>
1

> <s_epik_input>
Tz1DKFtPSF0pYyhbY0hdMSlvYyhjMTIpYyhbY0hdYyhCcilbY0hdMilbTkhdW0NASF0zW0NIMl1bQ0gyXVtDQEBIXShbTkgzK10pW0NIMl1bQ0gyXTM=

> <s_epik_cmdline>
J2VwaWtfYXBwJywgJy1pbWFlJywgJ2xpZ2FuZF9wcm8ubWFlJywgJy1vbWFlJywgJ2xpZ2FuZF9wcmVwLm1hZScsICctbXMnLCAnMScsICctcGgnLCAnNycsICctcGh0JywgJzAuNScsICctbnQn

> <r_lp_tautomer_probability>
1

> <r_epik_Ionization_Penalty>
  0.0003

> <r_epik_Ionization_Penalty_Charging>
  0.0003

> <r_epik_Ionization_Penalty_Neutral>
  0.0001

> <r_epik_State_Penalty>
 -0.0000

> <r_epik_Charging_Adjusted_Penalty>
0.000278151841061198

> <i_epik_Tot_Q>
0

> <i_epik_Tot_abs_Q>
2

$$$$
