3r04_ligand
                    3D
 Schrodinger Suite 2020-3.
 46 49  0  0  1  0            999 V2000
   23.3010  -37.3150   -0.5070 C   0  0  0  0  0  0
   22.7950  -35.0800   -1.0660 C   0  0  0  0  0  0
   22.8000  -36.0590   -0.1130 C   0  0  0  0  0  0
   23.2570  -35.3100   -2.3790 C   0  0  0  0  0  0
   23.7470  -37.5340   -1.8440 C   0  0  0  0  0  0
   23.6990  -36.5730   -2.8450 C   0  0  0  0  0  0
   23.1030  -34.1690   -3.1370 O   0  0  0  0  0  0
   22.3450  -33.6730   -0.9800 C   0  0  0  0  0  0
   22.5470  -33.2420   -2.2520 C   0  0  0  0  0  0
   22.3520  -31.8240   -2.7510 C   0  0  0  0  0  0
   21.8430  -30.9210   -2.0610 O   0  0  0  0  0  0
   23.0210  -31.6630   -3.8860 O   0  5  0  0  0  0
   23.4160  -38.3400    0.5610 C   0  0  0  0  0  0
   23.6140  -39.1170    2.8010 C   0  0  0  0  0  0
   23.4420  -38.0560    1.9100 N   0  0  0  0  0  0
   23.7700  -40.4450    2.3330 C   0  0  0  0  0  0
   23.6450  -39.6670    0.1400 C   0  0  0  0  0  0
   23.7900  -40.7110    1.0140 N   0  0  0  0  0  0
   23.6030  -38.8180    4.1710 N   0  0  0  0  0  0
   23.1970  -37.4220    4.5770 C   0  0  1  0  0  0
   22.7150  -37.4300    6.0660 C   0  0  0  0  0  0
   22.4650  -35.9830    6.5920 C   0  0  0  0  0  0
   23.6900  -35.0520    6.3890 C   0  0  1  0  0  0
   24.1110  -35.0680    4.9040 C   0  0  0  0  0  0
   24.4530  -36.4870    4.4470 C   0  0  0  0  0  0
   23.5430  -33.7360    6.9350 N   0  3  0  0  0  0
   22.4357  -35.8777    0.8982 H   0  0  0  0  0  0
   24.1499  -38.5152   -2.0951 H   0  0  0  0  0  0
   23.9729  -36.7697   -3.8815 H   0  0  0  0  0  0
   21.9543  -33.1264   -0.1217 H   0  0  0  0  0  0
   23.8750  -41.2601    3.0490 H   0  0  0  0  0  0
   23.7094  -39.8702   -0.9290 H   0  0  0  0  0  0
   23.8760  -39.5567    4.9390 H   0  0  0  0  0  0
   22.3794  -37.0971    3.9167 H   0  0  0  0  0  0
   21.7754  -37.9966    6.1442 H   0  0  0  0  0  0
   23.4819  -37.9028    6.6971 H   0  0  0  0  0  0
   21.6127  -35.5401    6.0558 H   0  0  0  0  0  0
   22.2429  -36.0175    7.6688 H   0  0  0  0  0  0
   24.5216  -35.3747    7.0326 H   0  0  0  0  0  0
   23.2855  -34.6872    4.2847 H   0  0  0  0  0  0
   24.9966  -34.4301    4.7670 H   0  0  0  0  0  0
   25.2679  -36.8785    5.0736 H   0  0  0  0  0  0
   24.7801  -36.4562    3.3972 H   0  0  0  0  0  0
   23.2432  -33.8085    7.9909 H   0  0  0  0  0  0
   22.7724  -33.1893    6.3717 H   0  0  0  0  0  0
   24.5005  -33.1996    6.8617 H   0  0  0  0  0  0
  1  3  1  0  0  0
  1  5  2  0  0  0
  1 13  1  0  0  0
  2  3  2  0  0  0
  2  4  1  0  0  0
  2  8  1  0  0  0
  3 27  1  0  0  0
  4  6  2  0  0  0
  4  7  1  0  0  0
  5  6  1  0  0  0
  5 28  1  0  0  0
  6 29  1  0  0  0
  7  9  1  0  0  0
  8  9  2  0  0  0
  8 30  1  0  0  0
  9 10  1  0  0  0
 10 11  2  0  0  0
 10 12  1  0  0  0
 13 15  2  0  0  0
 13 17  1  0  0  0
 14 15  1  0  0  0
 14 16  2  0  0  0
 14 19  1  0  0  0
 16 18  1  0  0  0
 16 31  1  0  0  0
 17 18  2  0  0  0
 17 32  1  0  0  0
 19 20  1  0  0  0
 19 33  1  0  0  0
 20 21  1  0  0  0
 20 25  1  0  0  0
 20 34  1  0  0  0
 21 22  1  0  0  0
 21 35  1  0  0  0
 21 36  1  0  0  0
 22 23  1  0  0  0
 22 37  1  0  0  0
 22 38  1  0  0  0
 23 24  1  0  0  0
 23 26  1  0  0  0
 23 39  1  0  0  0
 24 25  1  0  0  0
 24 40  1  0  0  0
 24 41  1  0  0  0
 25 42  1  0  0  0
 25 43  1  0  0  0
 26 44  1  0  0  0
 26 45  1  0  0  0
 26 46  1  0  0  0
M  CHG  2  12  -1  26   1
M  END
> <s_m_source_file>
../3r04_ligand.sdf

> <i_m_source_file_index>
1

> <s_epik_input>
Tz1DKFtPSF0pYyhbY0hdMSlvYyhjMTIpW2NIXVtjSF1jKFtjSF0yKS1jM25jKFtjSF1uW2NIXTMpW05IXVtDQEhdNFtDSDJdW0NIMl1bQ0BIXShbTkgzK10pW0NIMl1bQ0gyXTQ=

> <s_epik_cmdline>
J2VwaWtfYXBwJywgJy1pbWFlJywgJ2xpZ2FuZF9wcm8ubWFlJywgJy1vbWFlJywgJ2xpZ2FuZF9wcmVwLm1hZScsICctbXMnLCAnMScsICctcGgnLCAnNycsICctcGh0JywgJzAuNScsICctbnQn

> <r_lp_tautomer_probability>
1

> <r_epik_Ionization_Penalty>
  0.0004

> <r_epik_Ionization_Penalty_Charging>
  0.0003

> <r_epik_Ionization_Penalty_Neutral>
  0.0002

> <r_epik_State_Penalty>
 -0.0000

> <r_epik_Charging_Adjusted_Penalty>
0.000280425409066297

> <i_epik_Tot_Q>
0

> <i_epik_Tot_abs_Q>
2

$$$$
