3r0h_ligand
                    3D
 Schrodinger Suite 2020-3.
154156  0  0  1  0            999 V2000
  -12.6390   -5.9970  -14.8020 N   0  3  0  0  0  0
  -11.3890   -5.3330  -15.1230 C   0  0  2  0  0  0
  -11.5270   -3.8270  -14.9370 C   0  0  0  0  0  0
  -12.6440   -3.2960  -14.8100 O   0  0  0  0  0  0
  -10.9720   -5.6500  -16.5420 C   0  0  0  0  0  0
  -10.3770   -3.1540  -14.8990 N   0  0  0  0  0  0
  -10.3310   -1.7100  -14.8750 C   0  0  2  0  0  0
   -9.7700   -1.2280  -16.2120 C   0  0  0  0  0  0
   -8.6700   -1.6200  -16.6290 O   0  0  0  0  0  0
   -9.4850   -1.2350  -13.6990 C   0  0  0  0  0  0
   -9.1400    0.2500  -13.6000 C   0  0  0  0  0  0
  -10.3420    1.0840  -13.1040 C   0  0  0  0  0  0
   -7.9090    0.4050  -12.6970 C   0  0  0  0  0  0
  -10.5550   -0.4080  -16.9010 N   0  0  0  0  0  0
  -10.1970    0.0580  -18.2420 C   0  0  2  0  0  0
  -10.8120    1.4140  -18.3950 C   0  0  0  0  0  0
  -11.9870    1.5810  -18.1100 O   0  0  0  0  0  0
  -10.7570   -0.8510  -19.3310 C   0  0  0  0  0  0
   -9.8990   -2.0220  -19.7390 C   0  0  0  0  0  0
  -10.3720   -2.6070  -21.0810 C   0  0  0  0  0  0
  -11.8170   -2.4320  -21.2580 N   0  0  0  0  0  0
  -12.7490   -3.2700  -20.8060 C   0  0  0  0  0  0
  -12.4060   -4.3800  -20.1540 N   0  0  0  0  0  0
  -14.0310   -2.9910  -21.0090 N   0  0  0  0  0  0
   -9.9900    2.3700  -18.8260 N   0  0  0  0  0  0
  -10.3450    3.7890  -18.9390 C   0  0  2  0  0  0
  -11.0860    4.3460  -17.7170 C   0  0  0  0  0  0
  -12.0910    5.0460  -17.8640 O   0  0  0  0  0  0
  -11.1460    4.0240  -20.2280 C   0  0  0  0  0  0
  -10.5400    3.3080  -21.4190 C   0  0  0  0  0  0
   -9.4100    3.5880  -21.8140 O   0  0  0  0  0  0
  -11.2840    2.3630  -21.9870 N   0  0  0  0  0  0
  -10.6000    4.0160  -16.5180 N   0  0  0  0  0  0
  -11.1530    4.5710  -15.2770 C   0  0  0  0  0  0
  -12.4240    3.9590  -14.7000 C   0  0  0  0  0  0
  -12.9400    4.4350  -13.6750 O   0  0  0  0  0  0
  -12.9360    2.9070  -15.3420 N   0  0  0  0  0  0
  -14.1640    2.2370  -14.8810 C   0  0  2  0  0  0
  -13.9300    0.7410  -14.5980 C   0  0  0  0  0  0
  -12.9870    0.1580  -15.1460 O   0  0  0  0  0  0
  -15.2870    2.4210  -15.9140 C   0  0  0  0  0  0
  -15.9140    3.8290  -15.9820 C   0  0  0  0  0  0
  -17.0780    3.9090  -16.9970 C   0  0  0  0  0  0
  -16.8710    3.8510  -18.2190 O   0  0  0  0  0  0
  -18.3050    4.0400  -16.4820 N   0  0  0  0  0  0
  -14.7750    0.1500  -13.7400 N   0  0  0  0  0  0
  -14.7780   -1.2970  -13.4360 C   0  0  2  0  0  0
  -15.8700   -2.0640  -14.1860 C   0  0  0  0  0  0
  -17.0690   -1.7920  -14.0200 O   0  0  0  0  0  0
  -14.9460   -1.5650  -11.9320 C   0  0  0  0  0  0
  -13.8300   -1.0270  -11.0670 C   0  0  0  0  0  0
  -12.6900   -1.7780  -10.8160 C   0  0  0  0  0  0
  -13.9260    0.2320  -10.4880 C   0  0  0  0  0  0
  -11.6800   -1.2910  -10.0240 C   0  0  0  0  0  0
  -12.9210    0.7300   -9.6980 C   0  0  0  0  0  0
  -11.7990   -0.0290   -9.4680 C   0  0  0  0  0  0
  -10.8050    0.4770   -8.6670 O   0  0  0  0  0  0
  -15.4370   -3.0440  -14.9780 N   0  0  0  0  0  0
  -16.2950   -3.8370  -15.8530 C   0  0  2  0  0  0
  -16.4810   -5.2610  -15.3680 C   0  0  0  0  0  0
  -15.5370   -5.8990  -14.8670 O   0  0  0  0  0  0
  -15.6950   -3.8810  -17.2570 C   0  0  0  0  0  0
  -15.4980   -2.5290  -17.7910 C   0  0  0  0  0  0
  -14.3580   -1.7800  -17.7290 C   0  0  0  0  0  0
  -16.4790   -1.7170  -18.4320 C   0  0  0  0  0  0
  -14.5650   -0.5530  -18.3080 N   0  0  0  0  0  0
  -15.8600   -0.4850  -18.7480 C   0  0  0  0  0  0
  -17.8240   -1.9080  -18.7740 C   0  0  0  0  0  0
  -16.5380    0.5540  -19.4000 C   0  0  0  0  0  0
  -18.5030   -0.8650  -19.4240 C   0  0  0  0  0  0
  -17.8560    0.3480  -19.7220 C   0  0  0  0  0  0
  -17.7060   -5.7510  -15.5260 N   0  0  0  0  0  0
  -18.0160   -7.1610  -15.3410 C   0  0  2  0  0  0
  -18.4360   -7.7500  -16.6930 C   0  0  0  0  0  0
  -18.7720   -6.9650  -17.5940 O   0  0  0  0  0  0
  -19.1150   -7.3940  -14.2680 C   0  0  0  0  0  0
  -18.6640   -6.8870  -12.9020 C   0  0  0  0  0  0
  -20.4350   -6.7510  -14.6750 C   0  0  0  0  0  0
  -18.4220   -8.9810  -16.9200 O   0  0  0  0  0  0
  -12.9272   -5.7561  -13.7681 H   0  0  0  0  0  0
  -12.5128   -7.0850  -14.9034 H   0  0  0  0  0  0
  -13.4244   -5.6531  -15.4912 H   0  0  0  0  0  0
  -10.6430   -5.7363  -14.4224 H   0  0  0  0  0  0
  -10.8764   -6.7393  -16.6614 H   0  0  0  0  0  0
  -10.0048   -5.1715  -16.7555 H   0  0  0  0  0  0
  -11.7315   -5.2697  -17.2410 H   0  0  0  0  0  0
   -9.4426   -3.7343  -14.8860 H   0  0  0  0  0  0
  -11.3583   -1.3424  -14.7354 H   0  0  0  0  0  0
  -10.0043   -1.4653  -12.7571 H   0  0  0  0  0  0
   -8.5121   -1.7481  -13.7163 H   0  0  0  0  0  0
   -8.8964    0.6324  -14.6022 H   0  0  0  0  0  0
  -11.1948    0.9381  -13.7834 H   0  0  0  0  0  0
  -10.0665    2.1488  -13.0847 H   0  0  0  0  0  0
  -10.6206    0.7589  -12.0907 H   0  0  0  0  0  0
   -7.0847   -0.2066  -13.0926 H   0  0  0  0  0  0
   -8.1570    0.0714  -11.6786 H   0  0  0  0  0  0
   -7.6029    1.4613  -12.6726 H   0  0  0  0  0  0
  -11.4968   -0.0789  -16.4376 H   0  0  0  0  0  0
   -9.0994    0.0716  -18.3129 H   0  0  0  0  0  0
  -11.7115   -1.2816  -18.9942 H   0  0  0  0  0  0
  -10.9218   -0.2661  -20.2479 H   0  0  0  0  0  0
   -8.8550   -1.6922  -19.8451 H   0  0  0  0  0  0
   -9.9594   -2.8064  -18.9701 H   0  0  0  0  0  0
   -9.8538   -2.0968  -21.9064 H   0  0  0  0  0  0
  -10.1430   -3.6824  -21.1133 H   0  0  0  0  0  0
  -12.2026   -1.5555  -21.7993 H   0  0  0  0  0  0
  -11.3443   -4.6127  -19.9849 H   0  0  0  0  0  0
  -13.1845   -5.0638  -19.7847 H   0  0  0  0  0  0
  -14.3160   -2.0749  -21.5471 H   0  0  0  0  0  0
   -8.9821    2.0311  -19.1077 H   0  0  0  0  0  0
   -9.3729    4.3025  -18.9767 H   0  0  0  0  0  0
  -12.1732    3.6540  -20.0940 H   0  0  0  0  0  0
  -11.1705    5.1004  -20.4534 H   0  0  0  0  0  0
  -12.2903    2.1475  -21.5984 H   0  0  0  0  0  0
  -10.8930    1.7970  -22.8453 H   0  0  0  0  0  0
   -9.7606    3.3062  -16.4770 H   0  0  0  0  0  0
  -10.4101    4.4786  -14.4710 H   0  0  0  0  0  0
  -11.4000    5.6322  -15.4280 H   0  0  0  0  0  0
  -12.4141    2.5424  -16.2390 H   0  0  0  0  0  0
  -14.4281    2.7372  -13.9376 H   0  0  0  0  0  0
  -14.8974    2.2096  -16.9207 H   0  0  0  0  0  0
  -16.1111    1.7287  -15.6870 H   0  0  0  0  0  0
  -16.3077    4.1032  -14.9922 H   0  0  0  0  0  0
  -15.1479    4.5573  -16.2865 H   0  0  0  0  0  0
  -18.4416    4.0873  -15.3915 H   0  0  0  0  0  0
  -19.1778    4.1005  -17.1488 H   0  0  0  0  0  0
  -15.4992    0.8167  -13.2490 H   0  0  0  0  0  0
  -13.7884   -1.6214  -13.7903 H   0  0  0  0  0  0
  -15.8766   -1.0974  -11.5780 H   0  0  0  0  0  0
  -14.9906   -2.6498  -11.7556 H   0  0  0  0  0  0
  -12.5951   -2.7711  -11.2551 H   0  0  0  0  0  0
  -14.8164    0.8355  -10.6646 H   0  0  0  0  0  0
  -10.7915   -1.8933   -9.8345 H   0  0  0  0  0  0
  -13.0121    1.7219   -9.2554 H   0  0  0  0  0  0
   -9.8999   -0.1169   -8.4721 H   0  0  0  0  0  0
  -14.3552   -3.2401  -14.9436 H   0  0  0  0  0  0
  -17.2662   -3.3216  -15.8194 H   0  0  0  0  0  0
  -14.7209   -4.3910  -17.2236 H   0  0  0  0  0  0
  -16.3727   -4.4286  -17.9284 H   0  0  0  0  0  0
  -13.4190   -2.1091  -17.2839 H   0  0  0  0  0  0
  -18.3314   -2.8441  -18.5410 H   0  0  0  0  0  0
  -16.0369    1.4911  -19.6424 H   0  0  0  0  0  0
  -19.5485   -0.9974  -19.7022 H   0  0  0  0  0  0
  -18.4136    1.1415  -20.2195 H   0  0  0  0  0  0
  -18.5014   -5.0453  -15.8077 H   0  0  0  0  0  0
  -17.0809   -7.6158  -14.9821 H   0  0  0  0  0  0
  -19.2949   -8.4755  -14.1789 H   0  0  0  0  0  0
  -17.7110   -7.3643  -12.6301 H   0  0  0  0  0  0
  -19.4263   -7.1351  -12.1488 H   0  0  0  0  0  0
  -18.5295   -5.7960  -12.9420 H   0  0  0  0  0  0
  -20.7394   -7.1313  -15.6613 H   0  0  0  0  0  0
  -20.3108   -5.6592  -14.7253 H   0  0  0  0  0  0
  -21.2077   -6.9983  -13.9322 H   0  0  0  0  0  0
  -18.7313   -9.3623  -17.9043 H   0  0  0  0  0  0
  1  2  1  0  0  0
  1 80  1  0  0  0
  1 81  1  0  0  0
  1 82  1  0  0  0
  2  3  1  0  0  0
  2  5  1  0  0  0
  2 83  1  0  0  0
  3  4  2  0  0  0
  3  6  1  0  0  0
  5 84  1  0  0  0
  5 85  1  0  0  0
  5 86  1  0  0  0
  6  7  1  0  0  0
  6 87  1  0  0  0
  7  8  1  0  0  0
  7 10  1  0  0  0
  7 88  1  0  0  0
  8  9  2  0  0  0
  8 14  1  0  0  0
 10 11  1  0  0  0
 10 89  1  0  0  0
 10 90  1  0  0  0
 11 12  1  0  0  0
 11 13  1  0  0  0
 11 91  1  0  0  0
 12 92  1  0  0  0
 12 93  1  0  0  0
 12 94  1  0  0  0
 13 95  1  0  0  0
 13 96  1  0  0  0
 13 97  1  0  0  0
 14 15  1  0  0  0
 14 98  1  0  0  0
 15 16  1  0  0  0
 15 18  1  0  0  0
 15 99  1  0  0  0
 16 17  2  0  0  0
 16 25  1  0  0  0
 18 19  1  0  0  0
 18100  1  0  0  0
 18101  1  0  0  0
 19 20  1  0  0  0
 19102  1  0  0  0
 19103  1  0  0  0
 20 21  1  0  0  0
 20104  1  0  0  0
 20105  1  0  0  0
 21 22  1  0  0  0
 21106  1  0  0  0
 22 23  1  0  0  0
 22 24  2  0  0  0
 23107  1  0  0  0
 23108  1  0  0  0
 24109  1  0  0  0
 25 26  1  0  0  0
 25110  1  0  0  0
 26 27  1  0  0  0
 26 29  1  0  0  0
 26111  1  0  0  0
 27 28  2  0  0  0
 27 33  1  0  0  0
 29 30  1  0  0  0
 29112  1  0  0  0
 29113  1  0  0  0
 30 31  2  0  0  0
 30 32  1  0  0  0
 32114  1  0  0  0
 32115  1  0  0  0
 33 34  1  0  0  0
 33116  1  0  0  0
 34 35  1  0  0  0
 34117  1  0  0  0
 34118  1  0  0  0
 35 36  2  0  0  0
 35 37  1  0  0  0
 37 38  1  0  0  0
 37119  1  0  0  0
 38 39  1  0  0  0
 38 41  1  0  0  0
 38120  1  0  0  0
 39 40  2  0  0  0
 39 46  1  0  0  0
 41 42  1  0  0  0
 41121  1  0  0  0
 41122  1  0  0  0
 42 43  1  0  0  0
 42123  1  0  0  0
 42124  1  0  0  0
 43 44  2  0  0  0
 43 45  1  0  0  0
 45125  1  0  0  0
 45126  1  0  0  0
 46 47  1  0  0  0
 46127  1  0  0  0
 47 48  1  0  0  0
 47 50  1  0  0  0
 47128  1  0  0  0
 48 49  2  0  0  0
 48 58  1  0  0  0
 50 51  1  0  0  0
 50129  1  0  0  0
 50130  1  0  0  0
 51 52  2  0  0  0
 51 53  1  0  0  0
 52 54  1  0  0  0
 52131  1  0  0  0
 53 55  2  0  0  0
 53132  1  0  0  0
 54 56  2  0  0  0
 54133  1  0  0  0
 55 56  1  0  0  0
 55134  1  0  0  0
 56 57  1  0  0  0
 57135  1  0  0  0
 58 59  1  0  0  0
 58136  1  0  0  0
 59 60  1  0  0  0
 59 62  1  0  0  0
 59137  1  0  0  0
 60 61  2  0  0  0
 60 72  1  0  0  0
 62 63  1  0  0  0
 62138  1  0  0  0
 62139  1  0  0  0
 63 64  2  0  0  0
 63 65  1  0  0  0
 64 66  1  0  0  0
 64140  1  0  0  0
 65 67  2  0  0  0
 65 68  1  0  0  0
 66 67  1  0  0  0
 67 69  1  0  0  0
 68 70  2  0  0  0
 68141  1  0  0  0
 69 71  2  0  0  0
 69142  1  0  0  0
 70 71  1  0  0  0
 70143  1  0  0  0
 71144  1  0  0  0
 72 73  1  0  0  0
 72145  1  0  0  0
 73 74  1  0  0  0
 73 76  1  0  0  0
 73146  1  0  0  0
 74 75  2  0  0  0
 74 79  1  0  0  0
 76 77  1  0  0  0
 76 78  1  0  0  0
 76147  1  0  0  0
 77148  1  0  0  0
 77149  1  0  0  0
 77150  1  0  0  0
 78151  1  0  0  0
 78152  1  0  0  0
 78153  1  0  0  0
 79154  1  0  0  0
M  CHG  1   1   1
M  END
> <s_m_source_file>
../3r0h_ligand.sdf

> <i_m_source_file_index>
1

> <s_epik_input>
W05IMytdW0NAQEhdKFtDSDNdKUMoPU8pW05IXVtDQEBIXShbQ0gyXVtDSF0oW0NIM10pW0NIM10pQyg9TylbTkhdW0NAQEhdKFtDSDJdW0NIMl1bQ0gyXVtOSF0vQyhbTkgyXSk9TlxbSF0pQyg9TylbTkhdW0NAQEhdKFtDSDJdQyg9TylbTkgyXSlDKD1PKVtOSF1bQ0gyXUMoPU8pW05IXVtDQEBIXShbQ0gyXVtDSDJdQyg9TylbTkgyXSlDKD1PKVtOSF1bQ0BASF0oW0NIMl1jMVtjSF1bY0hdYyhbT0hdKVtjSF1bY0hdMSlDKD1PKVtOSF1bQ0BIXShDKD1PKVtOSF1bQ0BIXShDKD1PKVtPSF0pW0NIXShbQ0gzXSlbQ0gzXSlbQ0gyXWMyW2NIXVtuSF1jKGMyMylbY0hdW2NIXVtjSF1bY0hdMw==

> <s_epik_cmdline>
J2VwaWtfYXBwJywgJy1pbWFlJywgJ2xpZ2FuZF9wcm8ubWFlJywgJy1vbWFlJywgJ2xpZ2FuZF9wcmVwLm1hZScsICctbXMnLCAnMScsICctcGgnLCAnNycsICctcGh0JywgJzAuNScsICctbnQn

> <s_epik_pKa_notes>
Molecule size exceeds maximum supported for generating protonation states

> <s_epik_Chemistry_Notes>
This compound has an imine and may undergo hydrolysis.

$$$$
