3r0i_ligand
                    3D
 Schrodinger Suite 2020-3.
 33 33  0  0  1  0            999 V2000
   11.2810   -2.9760   38.7810 C   0  0  0  0  0  0
   10.5650   -4.1670   38.5060 C   0  0  0  0  0  0
    9.6400   -4.2090   37.4270 C   0  0  0  0  0  0
    9.4280   -3.0660   36.6380 C   0  0  0  0  0  0
   10.1380   -1.8820   36.9130 C   0  0  0  0  0  0
   11.0560   -1.8380   37.9640 C   0  0  0  0  0  0
    8.8070   -5.4030   37.0270 C   0  0  1  0  0  0
    9.7680   -6.9520   36.6900 P   0  0  0  0  0  0
   10.7780   -7.1900   37.8370 O   0  5  0  0  0  0
    8.7660   -8.0690   36.5230 O   0  0  0  0  0  0
   10.4480   -6.6840   35.3840 O   0  0  0  0  0  0
    7.4960   -5.4400   37.8680 C   0  0  0  0  0  0
    6.5320   -4.3860   37.2530 C   0  0  0  0  0  0
    5.8610   -4.5950   35.8550 C   0  0  0  0  0  0
    5.7730   -5.7320   35.3370 O   0  0  0  0  0  0
    5.3700   -3.4850   35.1930 N   0  0  0  0  0  0
    5.4340   -2.0640   35.6130 C   0  0  0  0  0  0
    4.6850   -3.6730   34.0000 O   0  0  0  0  0  0
    9.9480   -0.7440   36.1860 F   0  0  0  0  0  0
   11.6860   -0.6530   38.1210 F   0  0  0  0  0  0
   11.9924   -2.9346   39.6058 H   0  0  0  0  0  0
   10.7233   -5.0521   39.1222 H   0  0  0  0  0  0
    8.7149   -3.0960   35.8142 H   0  0  0  0  0  0
    8.3228   -5.0101   36.1208 H   0  0  0  0  0  0
    8.1678   -8.4044   37.3831 H   0  0  0  0  0  0
    7.0556   -6.4467   37.8164 H   0  0  0  0  0  0
    7.7250   -5.1932   38.9152 H   0  0  0  0  0  0
    5.6699   -4.2436   37.9212 H   0  0  0  0  0  0
    7.0631   -3.4304   37.1310 H   0  0  0  0  0  0
    5.9874   -1.9863   36.5605 H   0  0  0  0  0  0
    4.4139   -1.6762   35.7513 H   0  0  0  0  0  0
    5.9481   -1.4756   34.8387 H   0  0  0  0  0  0
    4.5706   -4.6853   33.5851 H   0  0  0  0  0  0
  1  2  2  0  0  0
  1  6  1  0  0  0
  1 21  1  0  0  0
  2  3  1  0  0  0
  2 22  1  0  0  0
  3  4  2  0  0  0
  3  7  1  0  0  0
  4  5  1  0  0  0
  4 23  1  0  0  0
  5  6  2  0  0  0
  5 19  1  0  0  0
  6 20  1  0  0  0
  7  8  1  0  0  0
  7 12  1  0  0  0
  7 24  1  0  0  0
  8  9  1  0  0  0
  8 10  1  0  0  0
  8 11  2  0  0  0
 10 25  1  0  0  0
 12 13  1  0  0  0
 12 26  1  0  0  0
 12 27  1  0  0  0
 13 14  1  0  0  0
 13 28  1  0  0  0
 13 29  1  0  0  0
 14 15  2  0  0  0
 14 16  1  0  0  0
 16 17  1  0  0  0
 16 18  1  0  0  0
 17 30  1  0  0  0
 17 31  1  0  0  0
 17 32  1  0  0  0
 18 33  1  0  0  0
M  CHG  1   9  -1
M  END
> <s_m_source_file>
../3r0i_ligand.sdf

> <i_m_source_file_index>
1

> <s_epik_input>
W2NIXTFjKEYpYyhGKVtjSF1bY0hdYzFbQ0BASF0oUCg9TykoW09IXSlbT0hdKVtDSDJdW0NIMl1DKD1PKU4oW0NIM10pW09IXQ==

> <s_epik_cmdline>
J2VwaWtfYXBwJywgJy1pbWFlJywgJ2xpZ2FuZF9wcm8ubWFlJywgJy1vbWFlJywgJ2xpZ2FuZF9wcmVwLm1hZScsICctbXMnLCAnMScsICctcGgnLCAnNycsICctcGh0JywgJzAuNScsICctbnQn

> <r_epik_Ionization_Penalty>
  0.1860

> <r_epik_Ionization_Penalty_Charging>
  0.0000

> <r_epik_Ionization_Penalty_Neutral>
  0.1860

> <r_epik_State_Penalty>
  0.1708

> <r_epik_Charging_Adjusted_Penalty>
0.170838261983217

> <i_epik_Tot_Q>
-1

> <i_epik_Tot_abs_Q>
1

> <s_epik_Chemistry_Notes>
This compound has a N-S or N-O group and may undergo hydrolysis at high or low pH.

$$$$
