3r0t_ligand
                    3D
 Schrodinger Suite 2020-3.
 47 51  0  0  1  0            999 V2000
   23.4210  -29.4780   10.4200 N   0  0  0  0  0  0
   23.4340  -28.4880   11.3390 C   0  0  0  0  0  0
   23.3100  -28.7500   12.6490 N   0  0  0  0  0  0
   23.1850  -30.0060   13.0720 C   0  0  0  0  0  0
   23.1470  -31.0450   12.1510 C   0  0  0  0  0  0
   23.2870  -30.7440   10.7970 C   0  0  0  0  0  0
   22.4640  -36.5470   15.3420 O   0  0  0  0  0  0
   22.0860  -37.2140   13.2680 O   0  5  0  0  0  0
   24.1160  -31.1230   20.2890 F   0  0  0  0  0  0
   22.0090  -30.9500   20.6960 F   0  0  0  0  0  0
   22.7140  -32.2580   19.1280 F   0  0  0  0  0  0
   22.5940  -27.5560   18.4090 C   0  0  0  0  0  0
   22.7770  -27.7610   17.0490 C   0  0  0  0  0  0
   22.6580  -28.6430   19.2690 C   0  0  0  0  0  0
   22.8000  -34.7250   12.2020 C   0  0  0  0  0  0
   22.9680  -33.4330   11.7210 C   0  0  0  0  0  0
   22.9730  -30.1300   17.4000 C   0  0  0  0  0  0
   22.7080  -33.8700   14.4480 C   0  0  0  0  0  0
   23.5000  -24.7620   11.5310 C   0  0  0  0  0  0
   24.8340  -25.3070   12.0630 C   0  0  0  0  0  0
   22.8850  -31.5200   14.8490 N   0  0  0  0  0  0
   22.9850  -29.1540   15.1960 N   0  0  0  0  0  0
   23.5800  -27.2160   10.9800 N   0  0  0  0  0  0
   22.4860  -36.3650   14.1010 C   0  0  0  0  0  0
   22.8770  -29.0440   16.5270 C   0  0  0  0  0  0
   22.7080  -34.9500   13.5740 C   0  0  0  0  0  0
   22.8430  -29.9250   18.7710 C   0  0  0  0  0  0
   23.0930  -30.2470   14.4320 C   0  0  0  0  0  0
   22.8740  -32.5680   13.9780 C   0  0  0  0  0  0
   22.9960  -32.3520   12.6090 C   0  0  0  0  0  0
   23.5980  -26.1970   12.0400 C   0  0  0  0  0  0
   22.9140  -31.1030   19.7470 C   0  0  0  0  0  0
   23.2865  -31.5415   10.0539 H   0  0  0  0  0  0
   22.4027  -26.5553   18.7963 H   0  0  0  0  0  0
   22.8432  -26.9026   16.3806 H   0  0  0  0  0  0
   22.5622  -28.4888   20.3438 H   0  0  0  0  0  0
   22.7402  -35.5623   11.5068 H   0  0  0  0  0  0
   23.0782  -33.2609   10.6503 H   0  0  0  0  0  0
   23.1487  -31.1326   17.0101 H   0  0  0  0  0  0
   22.5764  -34.0431   15.5161 H   0  0  0  0  0  0
   23.1907  -23.8962   12.1349 H   0  0  0  0  0  0
   23.6222  -24.4528   10.4825 H   0  0  0  0  0  0
   25.5931  -25.2580   11.2684 H   0  0  0  0  0  0
   25.1616  -24.7014   12.9208 H   0  0  0  0  0  0
   22.9933  -28.2507   14.5683 H   0  0  0  0  0  0
   23.6855  -26.9161    9.9269 H   0  0  0  0  0  0
   23.0654  -26.8181   12.7752 H   0  0  0  0  0  0
  1  2  2  0  0  0
  1  6  1  0  0  0
  2  3  1  0  0  0
  2 23  1  0  0  0
  3  4  2  0  0  0
  4  5  1  0  0  0
  4 28  1  0  0  0
  5  6  2  0  0  0
  5 30  1  0  0  0
  6 33  1  0  0  0
  7 24  2  0  0  0
  8 24  1  0  0  0
  9 32  1  0  0  0
 10 32  1  0  0  0
 11 32  1  0  0  0
 12 13  2  0  0  0
 12 14  1  0  0  0
 12 34  1  0  0  0
 13 25  1  0  0  0
 13 35  1  0  0  0
 14 27  2  0  0  0
 14 36  1  0  0  0
 15 16  1  0  0  0
 15 26  2  0  0  0
 15 37  1  0  0  0
 16 30  2  0  0  0
 16 38  1  0  0  0
 17 25  2  0  0  0
 17 27  1  0  0  0
 17 39  1  0  0  0
 18 26  1  0  0  0
 18 29  2  0  0  0
 18 40  1  0  0  0
 19 20  1  0  0  0
 19 31  1  0  0  0
 19 41  1  0  0  0
 19 42  1  0  0  0
 20 31  1  0  0  0
 20 43  1  0  0  0
 20 44  1  0  0  0
 21 28  2  0  0  0
 21 29  1  0  0  0
 22 25  1  0  0  0
 22 28  1  0  0  0
 22 45  1  0  0  0
 23 31  1  0  0  0
 23 46  1  0  0  0
 24 26  1  0  0  0
 27 32  1  0  0  0
 29 30  1  0  0  0
 31 47  1  0  0  0
M  CHG  1   8  -1
M  END
> <s_m_source_file>
../3r0t_ligand.sdf

> <i_m_source_file_index>
1

> <s_epik_input>
W0NIMl0xW0NIMl1bQ0hdMVtOSF1jKG4yKW5bY0hdYyhjMjMpYzRjKFtjSF1jKFtjSF1bY0hdNClDKD1PKVtPSF0pbmMzW05IXWM1W2NIXVtjSF1bY0hdYyhbY0hdNSlDKEYpKEYpRg==

> <s_epik_cmdline>
J2VwaWtfYXBwJywgJy1pbWFlJywgJ2xpZ2FuZF9wcm8ubWFlJywgJy1vbWFlJywgJ2xpZ2FuZF9wcmVwLm1hZScsICctbXMnLCAnMScsICctcGgnLCAnNycsICctcGh0JywgJzAuNScsICctbnQn

> <r_lp_tautomer_probability>
1

> <r_epik_Ionization_Penalty>
  0.0001

> <r_epik_Ionization_Penalty_Charging>
  0.0001

> <r_epik_Ionization_Penalty_Neutral>
  0.0000

> <r_epik_State_Penalty>
 -0.0000

> <r_epik_Charging_Adjusted_Penalty>
0.000116486573042403

> <i_epik_Tot_Q>
-1

> <i_epik_Tot_abs_Q>
1

$$$$
