3r0w_ligand
                    3D
 Schrodinger Suite 2020-3.
 87 88  0  0  1  0            999 V2000
   15.4600   10.1450    4.6730 C   0  0  0  0  0  0
   16.7870    8.5970    5.8550 C   0  0  0  0  0  0
   15.8250    8.4860    6.8500 C   0  0  0  0  0  0
   15.2490   11.0550    3.4850 C   0  0  0  0  0  0
   14.6540    9.2260    6.7540 C   0  0  0  0  0  0
   14.4730   10.0590    5.6580 C   0  0  0  0  0  0
   14.2050   11.6880    3.4350 O   0  0  0  0  0  0
   16.5910    9.4070    4.8040 N   0  0  0  0  0  0
   16.1390   11.1990    2.4920 N   0  0  0  0  0  0
   17.4360   10.5370    2.3770 C   0  0  2  0  0  0
   18.4210   11.6450    1.9560 C   0  0  0  0  0  0
   18.3010   12.0810    0.4930 C   0  0  0  0  0  0
   19.8690   11.2920    2.2920 C   0  0  0  0  0  0
   17.4180    9.3620    1.4320 C   0  0  0  0  0  0
   18.1540    8.4200    1.6520 O   0  0  0  0  0  0
   16.5640    9.4180    0.4030 N   0  0  0  0  0  0
   16.3480    8.4350   -0.6710 C   0  0  1  0  0  0
   17.5520    8.5580   -1.6100 C   0  0  0  0  0  0
   17.1130    9.3090   -2.8430 C   0  0  0  0  0  0
   16.2120    8.7310   -3.7390 C   0  0  0  0  0  0
   17.6020   10.5910   -3.0780 C   0  0  0  0  0  0
   15.8050    9.4360   -4.8670 C   0  0  0  0  0  0
   17.1930   11.2940   -4.2050 C   0  0  0  0  0  0
   16.2990   10.7160   -5.1020 C   0  0  0  0  0  0
   16.1570    7.0020   -0.1470 C   0  0  1  0  0  0
   17.3840    6.4040    0.2980 O   0  0  0  0  0  0
   15.1010    6.9100    0.9500 C   0  0  0  0  0  0
   14.2400    5.7020    0.6830 C   0  0  0  0  0  0
   14.6890    4.5790    0.8520 O   0  0  0  0  0  0
   11.2690    5.2220   -1.2660 C   0  0  0  0  0  0
   12.9950    5.9500    0.2790 N   0  0  0  0  0  0
   11.3460    4.4880   -2.2360 O   0  0  0  0  0  0
    9.6140    3.9050    0.7990 Cl  0  0  0  0  0  0
   12.0380    4.8930   -0.0220 C   0  0  1  0  0  0
   11.1040    4.8230    1.1860 C   0  0  0  0  0  0
   10.5390    6.3390   -1.2230 N   0  0  0  0  0  0
    9.7040    6.8380   -2.3110 C   0  0  2  0  0  0
   10.3740    6.8140   -3.6600 C   0  0  0  0  0  0
   11.5570    7.0930   -3.7860 O   0  0  0  0  0  0
    9.3750    8.2790   -1.9120 C   0  0  0  0  0  0
    8.3720    8.4680   -0.7570 C   0  0  0  0  0  0
    7.5280    7.2260   -0.4270 C   0  0  0  0  0  0
    9.0990    8.9760    0.5020 C   0  0  0  0  0  0
    9.6060    6.4630   -4.6890 N   0  0  0  0  0  0
   17.7094    8.0210    5.9286 H   0  0  0  0  0  0
   15.9877    7.8231    7.6998 H   0  0  0  0  0  0
   13.8888    9.1541    7.5269 H   0  0  0  0  0  0
   13.5596   10.6466    5.5660 H   0  0  0  0  0  0
   15.8075   11.8988    1.7107 H   0  0  0  0  0  0
   17.6909   10.0774    3.3433 H   0  0  0  0  0  0
   18.1287   12.5183    2.5575 H   0  0  0  0  0  0
   17.2533   12.3308    0.2696 H   0  0  0  0  0  0
   18.6301   11.2610   -0.1621 H   0  0  0  0  0  0
   18.9334   12.9644    0.3206 H   0  0  0  0  0  0
   19.9358   10.9816    3.3452 H   0  0  0  0  0  0
   20.5085   12.1718    2.1277 H   0  0  0  0  0  0
   20.2052   10.4684    1.6450 H   0  0  0  0  0  0
   15.9771   10.3481    0.4235 H   0  0  0  0  0  0
   15.4042    8.6861   -1.1771 H   0  0  0  0  0  0
   18.3593    9.1052   -1.1013 H   0  0  0  0  0  0
   17.9066    7.5537   -1.8851 H   0  0  0  0  0  0
   15.8276    7.7278   -3.5548 H   0  0  0  0  0  0
   18.3052   11.0432   -2.3786 H   0  0  0  0  0  0
   15.0999    8.9865   -5.5662 H   0  0  0  0  0  0
   17.5728   12.2994   -4.3868 H   0  0  0  0  0  0
   15.9855   11.2662   -5.9892 H   0  0  0  0  0  0
   15.8533    6.3787   -1.0010 H   0  0  0  0  0  0
   18.2584    6.3813   -0.3690 H   0  0  0  0  0  0
   15.5955    6.8105    1.9275 H   0  0  0  0  0  0
   14.4839    7.8206    0.9423 H   0  0  0  0  0  0
   12.7001    7.0047    0.1757 H   0  0  0  0  0  0
   12.5723    3.9504   -0.2118 H   0  0  0  0  0  0
   10.8365    5.8478    1.4832 H   0  0  0  0  0  0
   11.6351    4.3284    2.0126 H   0  0  0  0  0  0
   10.6000    6.8962   -0.2765 H   0  0  0  0  0  0
    8.8406    6.1640   -2.4123 H   0  0  0  0  0  0
   10.2954    8.7906   -1.5938 H   0  0  0  0  0  0
    8.9406    8.8078   -2.7732 H   0  0  0  0  0  0
    7.6506    9.2195   -1.1104 H   0  0  0  0  0  0
    7.0169    6.8778   -1.3367 H   0  0  0  0  0  0
    6.7805    7.4833    0.3379 H   0  0  0  0  0  0
    8.1828    6.4284   -0.0462 H   0  0  0  0  0  0
    9.6969    9.8635    0.2472 H   0  0  0  0  0  0
    9.7608    8.1862    0.8870 H   0  0  0  0  0  0
    8.3586    9.2411    1.2711 H   0  0  0  0  0  0
    8.5455    6.2205   -4.5262 H   0  0  0  0  0  0
   10.0319    6.4154   -5.7021 H   0  0  0  0  0  0
  1  4  1  0  0  0
  1  6  2  0  0  0
  1  8  1  0  0  0
  2  3  1  0  0  0
  2  8  2  0  0  0
  2 45  1  0  0  0
  3  5  2  0  0  0
  3 46  1  0  0  0
  4  7  2  0  0  0
  4  9  1  0  0  0
  5  6  1  0  0  0
  5 47  1  0  0  0
  6 48  1  0  0  0
  9 10  1  0  0  0
  9 49  1  0  0  0
 10 11  1  0  0  0
 10 14  1  0  0  0
 10 50  1  0  0  0
 11 12  1  0  0  0
 11 13  1  0  0  0
 11 51  1  0  0  0
 12 52  1  0  0  0
 12 53  1  0  0  0
 12 54  1  0  0  0
 13 55  1  0  0  0
 13 56  1  0  0  0
 13 57  1  0  0  0
 14 15  2  0  0  0
 14 16  1  0  0  0
 16 17  1  0  0  0
 16 58  1  0  0  0
 17 18  1  0  0  0
 17 25  1  0  0  0
 17 59  1  0  0  0
 18 19  1  0  0  0
 18 60  1  0  0  0
 18 61  1  0  0  0
 19 20  2  0  0  0
 19 21  1  0  0  0
 20 22  1  0  0  0
 20 62  1  0  0  0
 21 23  2  0  0  0
 21 63  1  0  0  0
 22 24  2  0  0  0
 22 64  1  0  0  0
 23 24  1  0  0  0
 23 65  1  0  0  0
 24 66  1  0  0  0
 25 26  1  0  0  0
 25 27  1  0  0  0
 25 67  1  0  0  0
 26 68  1  0  0  0
 27 28  1  0  0  0
 27 69  1  0  0  0
 27 70  1  0  0  0
 28 29  2  0  0  0
 28 31  1  0  0  0
 30 32  2  0  0  0
 30 34  1  0  0  0
 30 36  1  0  0  0
 31 34  1  0  0  0
 31 71  1  0  0  0
 33 35  1  0  0  0
 34 35  1  0  0  0
 34 72  1  0  0  0
 35 73  1  0  0  0
 35 74  1  0  0  0
 36 37  1  0  0  0
 36 75  1  0  0  0
 37 38  1  0  0  0
 37 40  1  0  0  0
 37 76  1  0  0  0
 38 39  2  0  0  0
 38 44  1  0  0  0
 40 41  1  0  0  0
 40 77  1  0  0  0
 40 78  1  0  0  0
 41 42  1  0  0  0
 41 43  1  0  0  0
 41 79  1  0  0  0
 42 80  1  0  0  0
 42 81  1  0  0  0
 42 82  1  0  0  0
 43 83  1  0  0  0
 43 84  1  0  0  0
 43 85  1  0  0  0
 44 86  1  0  0  0
 44 87  1  0  0  0
M  END
> <s_m_source_file>
../3r0w_ligand.sdf

> <i_m_source_file_index>
1

> <s_epik_input>
bjFbY0hdW2NIXVtjSF1bY0hdYzFDKD1PKVtOSF1bQ0BIXShbQ0hdKFtDSDNdKVtDSDNdKUMoPU8pW05IXVtDQEBIXShbQ0gyXWMyW2NIXVtjSF1bY0hdW2NIXVtjSF0yKVtDQEBIXShbT0hdKVtDSDJdQyg9TylbTkhdW0NAQEhdKFtDSDJdQ2wpQyg9TylbTkhdW0NASF0oQyg9TylbTkgyXSlbQ0gyXVtDSF0oW0NIM10pW0NIM10=

> <s_epik_cmdline>
J2VwaWtfYXBwJywgJy1pbWFlJywgJ2xpZ2FuZF9wcm8ubWFlJywgJy1vbWFlJywgJ2xpZ2FuZF9wcmVwLm1hZScsICctbXMnLCAnMScsICctcGgnLCAnNycsICctcGh0JywgJzAuNScsICctbnQn

> <r_lp_tautomer_probability>
1

> <r_epik_Ionization_Penalty>
  0.0005

> <r_epik_Ionization_Penalty_Charging>
  0.0000

> <r_epik_Ionization_Penalty_Neutral>
  0.0005

> <r_epik_State_Penalty>
 -0.0000

> <r_epik_Charging_Adjusted_Penalty>
0

> <i_epik_Tot_Q>
0

> <i_epik_Tot_abs_Q>
0

$$$$
