3r16_ligand
                    3D
 Schrodinger Suite 2020-3.
 31 32  0  0  1  0            999 V2000
   16.1720    1.8950   15.7370 C   0  0  0  0  0  0
   15.9350   -0.8040   16.0720 N   0  0  0  0  0  0
   15.8710    0.7630   18.0610 O   0  0  0  0  0  0
   15.4390    0.6100   16.6920 S   0  0  0  0  0  0
   17.5360    1.8430   15.5210 C   0  0  0  0  0  0
   14.0130    0.7630   16.6330 O   0  0  0  0  0  0
   18.1560    2.8290   14.7850 C   0  0  0  0  0  0
   17.4200    3.8790   14.2680 C   0  0  0  0  0  0
   16.0450    3.9430   14.4860 C   0  0  0  0  0  0
   15.4150    2.9450   15.2240 C   0  0  0  0  0  0
   18.1730    4.8440   13.5260 N   0  0  0  0  0  0
   17.6640    6.0070   12.8750 C   0  0  0  0  0  0
   16.4860    6.3110   12.9030 O   0  0  0  0  0  0
   18.6490    6.8720   12.1620 C   0  0  0  0  0  0
   19.2120    7.9640   13.0000 C   0  0  0  0  0  0
   19.2110    9.3260   12.7200 C   0  0  0  0  0  0
   19.7880   10.1280   13.6920 C   0  0  0  0  0  0
   20.2930    9.4580   14.7980 C   0  0  0  0  0  0
   19.9730    7.7930   14.5320 S   0  0  0  0  0  0
   15.4940   -1.6314   16.6472 H   0  0  0  0  0  0
   17.0320   -0.8635   16.1263 H   0  0  0  0  0  0
   18.1217    1.0214   15.9332 H   0  0  0  0  0  0
   19.2307    2.7811   14.6097 H   0  0  0  0  0  0
   15.4649    4.7717   14.0800 H   0  0  0  0  0  0
   14.3398    2.9851   15.3986 H   0  0  0  0  0  0
   19.2609    4.7252   13.4146 H   0  0  0  0  0  0
   19.4943    6.2581   11.8176 H   0  0  0  0  0  0
   18.1625    7.3449   11.2961 H   0  0  0  0  0  0
   18.7870    9.7335   11.8023 H   0  0  0  0  0  0
   19.8417   11.2123   13.5945 H   0  0  0  0  0  0
   20.7917    9.8999   15.6606 H   0  0  0  0  0  0
  1  4  1  0  0  0
  1  5  2  0  0  0
  1 10  1  0  0  0
  2  4  1  0  0  0
  2 20  1  0  0  0
  2 21  1  0  0  0
  3  4  2  0  0  0
  4  6  2  0  0  0
  5  7  1  0  0  0
  5 22  1  0  0  0
  7  8  2  0  0  0
  7 23  1  0  0  0
  8  9  1  0  0  0
  8 11  1  0  0  0
  9 10  2  0  0  0
  9 24  1  0  0  0
 10 25  1  0  0  0
 11 12  1  0  0  0
 11 26  1  0  0  0
 12 13  2  0  0  0
 12 14  1  0  0  0
 14 15  1  0  0  0
 14 27  1  0  0  0
 14 28  1  0  0  0
 15 16  2  0  0  0
 15 19  1  0  0  0
 16 17  1  0  0  0
 16 29  1  0  0  0
 17 18  2  0  0  0
 17 30  1  0  0  0
 18 19  1  0  0  0
 18 31  1  0  0  0
M  END
> <s_m_source_file>
../3r16_ligand.sdf

> <i_m_source_file_index>
1

> <s_epik_input>
W05IMl1TKD1PKSg9TyljMVtjSF1bY0hdYyhbY0hdW2NIXTEpW05IXUMoPU8pW0NIMl1jMltjSF1bY0hdW2NIXXMy

> <s_epik_cmdline>
J2VwaWtfYXBwJywgJy1pbWFlJywgJ2xpZ2FuZF9wcm8ubWFlJywgJy1vbWFlJywgJ2xpZ2FuZF9wcmVwLm1hZScsICctbXMnLCAnMScsICctcGgnLCAnNycsICctcGh0JywgJzAuNScsICctbnQn

> <r_lp_tautomer_probability>
1

> <r_epik_Ionization_Penalty>
  0.0005

> <r_epik_Ionization_Penalty_Charging>
  0.0000

> <r_epik_Ionization_Penalty_Neutral>
  0.0005

> <r_epik_State_Penalty>
 -0.0000

> <r_epik_Charging_Adjusted_Penalty>
0

> <i_epik_Tot_Q>
0

> <i_epik_Tot_abs_Q>
0

$$$$
