3r17_ligand
                    3D
 Schrodinger Suite 2020-3.
 31 32  0  0  1  0            999 V2000
   16.0140    2.0450   15.7920 C   0  0  0  0  0  0
   14.8980    5.1530   14.3660 F   0  0  0  0  0  0
   15.8390   -0.7040   16.1370 N   0  0  0  0  0  0
   15.7850    0.8270   18.0890 O   0  0  0  0  0  0
   15.3160    0.7160   16.7340 S   0  0  0  0  0  0
   15.1790    3.0880   15.4280 C   0  0  0  0  0  0
   13.8810    0.8000   16.7290 O   0  0  0  0  0  0
   15.6950    4.1430   14.7010 C   0  0  0  0  0  0
   17.0250    4.1580   14.3310 C   0  0  0  0  0  0
   17.8670    3.1140   14.6870 C   0  0  0  0  0  0
   17.3550    2.0610   15.4310 C   0  0  0  0  0  0
   17.4860    5.2730   13.5690 N   0  0  0  0  0  0
   18.8510    5.6800   13.4880 C   0  0  0  0  0  0
   19.7380    5.0880   14.0770 O   0  0  0  0  0  0
   19.1620    6.8700   12.6580 C   0  0  0  0  0  0
   20.0610    7.8250   13.3260 C   0  0  0  0  0  0
   21.2760    8.3030   12.8710 C   0  0  0  0  0  0
   21.9110    9.1880   13.7300 C   0  0  0  0  0  0
   21.2460    9.4630   14.9120 C   0  0  0  0  0  0
   19.8070    8.5390   14.8600 S   0  0  0  0  0  0
   15.4060   -1.5292   16.7214 H   0  0  0  0  0  0
   16.9364   -0.7464   16.2001 H   0  0  0  0  0  0
   14.1267    3.0766   15.7119 H   0  0  0  0  0  0
   18.9148    3.1212   14.3866 H   0  0  0  0  0  0
   18.0081    1.2425   15.7336 H   0  0  0  0  0  0
   16.7707    5.8802   12.9948 H   0  0  0  0  0  0
   19.6513    6.5495   11.7264 H   0  0  0  0  0  0
   18.2304    7.4034   12.4181 H   0  0  0  0  0  0
   21.7017    8.0075   11.9121 H   0  0  0  0  0  0
   22.8737    9.6387   13.4890 H   0  0  0  0  0  0
   21.5714   10.1299   15.7104 H   0  0  0  0  0  0
  1  5  1  0  0  0
  1  6  2  0  0  0
  1 11  1  0  0  0
  2  8  1  0  0  0
  3  5  1  0  0  0
  3 21  1  0  0  0
  3 22  1  0  0  0
  4  5  2  0  0  0
  5  7  2  0  0  0
  6  8  1  0  0  0
  6 23  1  0  0  0
  8  9  2  0  0  0
  9 10  1  0  0  0
  9 12  1  0  0  0
 10 11  2  0  0  0
 10 24  1  0  0  0
 11 25  1  0  0  0
 12 13  1  0  0  0
 12 26  1  0  0  0
 13 14  2  0  0  0
 13 15  1  0  0  0
 15 16  1  0  0  0
 15 27  1  0  0  0
 15 28  1  0  0  0
 16 17  2  0  0  0
 16 20  1  0  0  0
 17 18  1  0  0  0
 17 29  1  0  0  0
 18 19  2  0  0  0
 18 30  1  0  0  0
 19 20  1  0  0  0
 19 31  1  0  0  0
M  END
> <s_m_source_file>
../3r17_ligand.sdf

> <i_m_source_file_index>
1

> <s_epik_input>
W05IMl1TKD1PKSg9TyljMVtjSF1jKEYpYyhbY0hdW2NIXTEpW05IXUMoPU8pW0NIMl1jMltjSF1bY0hdW2NIXXMy

> <s_epik_cmdline>
J2VwaWtfYXBwJywgJy1pbWFlJywgJ2xpZ2FuZF9wcm8ubWFlJywgJy1vbWFlJywgJ2xpZ2FuZF9wcmVwLm1hZScsICctbXMnLCAnMScsICctcGgnLCAnNycsICctcGh0JywgJzAuNScsICctbnQn

> <r_lp_tautomer_probability>
1

> <r_epik_Ionization_Penalty>
  0.0010

> <r_epik_Ionization_Penalty_Charging>
  0.0000

> <r_epik_Ionization_Penalty_Neutral>
  0.0010

> <r_epik_State_Penalty>
 -0.0000

> <r_epik_Charging_Adjusted_Penalty>
0

> <i_epik_Tot_Q>
0

> <i_epik_Tot_abs_Q>
0

$$$$
