3r21_ligand
                    3D
 Schrodinger Suite 2020-3.
 60 63  0  0  1  0            999 V2000
    3.8050   34.6550    0.4860 S   0  0  0  0  0  0
    3.1210   35.8630   -0.4390 C   0  0  0  0  0  0
    2.7750   33.7570    1.1990 N   0  0  0  0  0  0
    4.7240   35.3070    1.4110 O   0  0  0  0  0  0
    1.6330   33.1370    0.4900 C   0  0  0  0  0  0
    1.5950   31.3110   -1.2840 N   0  3  0  0  0  0
    4.6400   33.8240   -0.3130 O   0  0  0  0  0  0
    2.0710   31.7210    0.0600 C   0  0  0  0  0  0
    3.2960   32.9040    6.6580 N   0  0  0  0  0  0
    2.9740   33.4980    2.5600 C   0  0  0  0  0  0
    4.7670   31.0750    6.8340 N   0  0  0  0  0  0
    3.9980   32.6040    3.0260 C   0  0  0  0  0  0
    6.2870   29.1630    7.2700 N   0  0  0  0  0  0
    4.1550   32.3740    4.4130 C   0  0  0  0  0  0
    6.7390   28.5080    8.4310 N   0  0  0  0  0  0
    3.2720   33.0160    5.3020 C   0  0  0  0  0  0
    3.8090   31.9770    8.7910 N   0  0  0  0  0  0
    3.9570   31.9880    7.4270 C   0  0  0  0  0  0
    2.1660   34.1140    3.4460 N   0  0  0  0  0  0
    5.4310   30.1550    7.5460 C   0  0  0  0  0  0
    6.8790   28.6170    6.0170 C   0  0  0  0  0  0
    7.9140   29.6720    5.5530 C   0  0  0  0  0  0
    7.7600   30.2560    4.1360 C   0  0  0  0  0  0
    8.0730   29.2710    3.0030 C   0  0  0  0  0  0
    6.7480   28.5410    2.6890 C   0  0  0  0  0  0
    6.3550   27.5440    3.8110 C   0  0  0  0  0  0
    5.7660   28.2610    5.0200 C   0  0  0  0  0  0
    6.1200   29.0930    9.4840 C   0  0  0  0  0  0
    5.3090   30.1340    8.9000 C   0  0  0  0  0  0
    4.4690   31.0760    9.5290 C   0  0  0  0  0  0
    2.2920   33.8700    4.7730 C   0  0  0  0  0  0
    2.4806   36.4929    0.1959 H   0  0  0  0  0  0
    2.5150   35.4133   -1.2393 H   0  0  0  0  0  0
    3.9164   36.4793   -0.8835 H   0  0  0  0  0  0
    0.7669   33.0838    1.1661 H   0  0  0  0  0  0
    1.3744   33.7442   -0.3900 H   0  0  0  0  0  0
    1.9526   30.2946   -1.5053 H   0  0  0  0  0  0
    1.9842   32.0093   -2.0396 H   0  0  0  0  0  0
    0.4953   31.3252   -1.3036 H   0  0  0  0  0  0
    3.1695   31.6672    0.0402 H   0  0  0  0  0  0
    1.6806   30.9831    0.7763 H   0  0  0  0  0  0
    2.7292   33.6136    7.2786 H   0  0  0  0  0  0
    4.6526   32.1040    2.3121 H   0  0  0  0  0  0
    4.9405   31.7158    4.7844 H   0  0  0  0  0  0
    7.3947   27.6587    6.1771 H   0  0  0  0  0  0
    7.8796   30.5406    6.2271 H   0  0  0  0  0  0
    8.9216   29.2312    5.5742 H   0  0  0  0  0  0
    6.7232   30.5927    3.9889 H   0  0  0  0  0  0
    8.4433   31.1094    4.0149 H   0  0  0  0  0  0
    8.4372   29.8253    2.1254 H   0  0  0  0  0  0
    8.8459   28.5627    3.3360 H   0  0  0  0  0  0
    5.9386   29.2787    2.5855 H   0  0  0  0  0  0
    6.8532   27.9779    1.7499 H   0  0  0  0  0  0
    5.6041   26.8376    3.4273 H   0  0  0  0  0  0
    7.2470   26.9894    4.1377 H   0  0  0  0  0  0
    5.0331   27.6021    5.5086 H   0  0  0  0  0  0
    5.2655   29.1815    4.6851 H   0  0  0  0  0  0
    6.2136   28.8348   10.5388 H   0  0  0  0  0  0
    4.3574   31.0705   10.6133 H   0  0  0  0  0  0
    1.6014   34.3588    5.4602 H   0  0  0  0  0  0
  1  2  1  0  0  0
  1  3  1  0  0  0
  1  4  2  0  0  0
  1  7  2  0  0  0
  2 32  1  0  0  0
  2 33  1  0  0  0
  2 34  1  0  0  0
  3  5  1  0  0  0
  3 10  1  0  0  0
  5  8  1  0  0  0
  5 35  1  0  0  0
  5 36  1  0  0  0
  6  8  1  0  0  0
  6 37  1  0  0  0
  6 38  1  0  0  0
  6 39  1  0  0  0
  8 40  1  0  0  0
  8 41  1  0  0  0
  9 16  1  0  0  0
  9 18  1  0  0  0
  9 42  1  0  0  0
 10 12  2  0  0  0
 10 19  1  0  0  0
 11 18  2  0  0  0
 11 20  1  0  0  0
 12 14  1  0  0  0
 12 43  1  0  0  0
 13 15  1  0  0  0
 13 20  1  0  0  0
 13 21  1  0  0  0
 14 16  2  0  0  0
 14 44  1  0  0  0
 15 28  2  0  0  0
 16 31  1  0  0  0
 17 18  1  0  0  0
 17 30  2  0  0  0
 19 31  2  0  0  0
 20 29  2  0  0  0
 21 22  1  0  0  0
 21 27  1  0  0  0
 21 45  1  0  0  0
 22 23  1  0  0  0
 22 46  1  0  0  0
 22 47  1  0  0  0
 23 24  1  0  0  0
 23 48  1  0  0  0
 23 49  1  0  0  0
 24 25  1  0  0  0
 24 50  1  0  0  0
 24 51  1  0  0  0
 25 26  1  0  0  0
 25 52  1  0  0  0
 25 53  1  0  0  0
 26 27  1  0  0  0
 26 54  1  0  0  0
 26 55  1  0  0  0
 27 56  1  0  0  0
 27 57  1  0  0  0
 28 29  1  0  0  0
 28 58  1  0  0  0
 29 30  1  0  0  0
 30 59  1  0  0  0
 31 60  1  0  0  0
M  CHG  1   6   1
M  END
> <s_m_source_file>
../3r21_ligand.sdf

> <i_m_source_file_index>
1

> <s_epik_input>
W05IMytdW0NIMl1bQ0gyXU4oUyg9TykoPU8pW0NIM10pYzFbY0hdW2NIXWMoW2NIXW4xKVtOSF1jKG4yKW5bY0hdYyhjMjMpW2NIXW5uM1tDSF00W0NIMl1bQ0gyXVtDSDJdW0NIMl1bQ0gyXVtDSDJdNA==

> <s_epik_cmdline>
J2VwaWtfYXBwJywgJy1pbWFlJywgJ2xpZ2FuZF9wcm8ubWFlJywgJy1vbWFlJywgJ2xpZ2FuZF9wcmVwLm1hZScsICctbXMnLCAnMScsICctcGgnLCAnNycsICctcGh0JywgJzAuNScsICctbnQn

> <r_lp_tautomer_probability>
1

> <r_epik_Ionization_Penalty>
  0.0086

> <r_epik_Ionization_Penalty_Charging>
  0.0086

> <r_epik_Ionization_Penalty_Neutral>
  0.0000

> <r_epik_State_Penalty>
 -0.0000

> <r_epik_Charging_Adjusted_Penalty>
0.00856112970951486

> <i_epik_Tot_Q>
1

> <i_epik_Tot_abs_Q>
1

$$$$
