3r22_ligand
                    3D
 Schrodinger Suite 2020-3.
 51 54  0  0  1  0            999 V2000
   -2.4140  -34.0080    1.9930 N   0  0  0  0  0  0
   -4.3690  -30.5460    7.0330 N   0  0  0  0  0  0
   -3.9010  -32.5380    5.0170 C   0  0  0  0  0  0
   -2.8240  -32.6810    5.8740 C   0  0  0  0  0  0
   -3.6650  -31.4120    7.7730 C   0  0  0  0  0  0
   -5.1870  -29.6610    7.6480 C   0  0  0  0  0  0
   -6.3870  -28.1910    5.8860 C   0  0  0  0  0  0
   -7.2240  -29.5730    3.8440 C   0  0  0  0  0  0
   -5.4090  -27.0920    3.8490 C   0  0  0  0  0  0
   -6.2030  -28.6230    9.4640 C   0  0  0  0  0  0
   -4.5590  -30.5200    9.7840 C   0  0  0  0  0  0
   -4.7290  -33.4170    1.1380 O   0  0  0  0  0  0
   -3.3540  -33.6170    0.7430 S   0  0  0  0  0  0
   -3.3450  -34.7190   -0.1920 O   0  0  0  0  0  0
   -2.7430  -32.2310    0.0410 C   0  0  0  0  0  0
   -2.5780  -33.5600    3.2580 C   0  0  0  0  0  0
   -1.5530  -33.7020    4.1200 N   0  0  0  0  0  0
   -1.6610  -33.2780    5.3870 C   0  0  0  0  0  0
   -3.7730  -32.9770    3.7000 C   0  0  0  0  0  0
   -2.8470  -32.2980    7.1730 N   0  0  0  0  0  0
   -3.7640  -31.3850    9.1310 N   0  0  0  0  0  0
   -5.2950  -29.6280    9.0220 C   0  0  0  0  0  0
   -6.6400  -28.0590    8.3030 N   0  0  0  0  0  0
   -6.0070  -28.7000    7.2240 N   0  0  0  0  0  0
   -5.1390  -28.0140    5.0280 C   0  0  0  0  0  0
   -5.9150  -27.8630    2.6370 C   0  0  0  0  0  0
   -7.3140  -28.3950    2.8950 C   0  0  0  0  0  0
   -7.4120  -29.1740    5.3100 C   0  0  0  0  0  0
   -1.5624  -34.6891    1.8489 H   0  0  0  0  0  0
   -4.8320  -32.0905    5.3651 H   0  0  0  0  0  0
   -6.8445  -27.1933    5.9588 H   0  0  0  0  0  0
   -8.0052  -30.3059    3.5938 H   0  0  0  0  0  0
   -6.2349  -30.0450    3.7499 H   0  0  0  0  0  0
   -6.1707  -26.3501    4.1307 H   0  0  0  0  0  0
   -4.4798  -26.5748    3.5677 H   0  0  0  0  0  0
   -6.4815  -28.3666   10.4862 H   0  0  0  0  0  0
   -4.6220  -30.5206   10.8722 H   0  0  0  0  0  0
   -2.7616  -31.4103    0.7732 H   0  0  0  0  0  0
   -3.3577  -31.9595   -0.8298 H   0  0  0  0  0  0
   -1.7071  -32.4101   -0.2829 H   0  0  0  0  0  0
   -0.8121  -33.4038    6.0590 H   0  0  0  0  0  0
   -4.6087  -32.8659    3.0091 H   0  0  0  0  0  0
   -2.1292  -32.7292    7.8863 H   0  0  0  0  0  0
   -4.3338  -27.5779    5.6375 H   0  0  0  0  0  0
   -4.8176  -28.9926    4.6420 H   0  0  0  0  0  0
   -5.9408  -27.1960    1.7627 H   0  0  0  0  0  0
   -5.2418  -28.7088    2.4332 H   0  0  0  0  0  0
   -7.7683  -28.7211    1.9478 H   0  0  0  0  0  0
   -7.9341  -27.6067    3.3468 H   0  0  0  0  0  0
   -7.3829  -30.1121    5.8837 H   0  0  0  0  0  0
   -8.4184  -28.7350    5.3760 H   0  0  0  0  0  0
  1 13  1  0  0  0
  1 16  1  0  0  0
  1 29  1  0  0  0
  2  5  2  0  0  0
  2  6  1  0  0  0
  3  4  2  0  0  0
  3 19  1  0  0  0
  3 30  1  0  0  0
  4 18  1  0  0  0
  4 20  1  0  0  0
  5 20  1  0  0  0
  5 21  1  0  0  0
  6 22  2  0  0  0
  6 24  1  0  0  0
  7 24  1  0  0  0
  7 25  1  0  0  0
  7 28  1  0  0  0
  7 31  1  0  0  0
  8 27  1  0  0  0
  8 28  1  0  0  0
  8 32  1  0  0  0
  8 33  1  0  0  0
  9 25  1  0  0  0
  9 26  1  0  0  0
  9 34  1  0  0  0
  9 35  1  0  0  0
 10 22  1  0  0  0
 10 23  2  0  0  0
 10 36  1  0  0  0
 11 21  2  0  0  0
 11 22  1  0  0  0
 11 37  1  0  0  0
 12 13  2  0  0  0
 13 14  2  0  0  0
 13 15  1  0  0  0
 15 38  1  0  0  0
 15 39  1  0  0  0
 15 40  1  0  0  0
 16 17  1  0  0  0
 16 19  2  0  0  0
 17 18  2  0  0  0
 18 41  1  0  0  0
 19 42  1  0  0  0
 20 43  1  0  0  0
 23 24  1  0  0  0
 25 44  1  0  0  0
 25 45  1  0  0  0
 26 27  1  0  0  0
 26 46  1  0  0  0
 26 47  1  0  0  0
 27 48  1  0  0  0
 27 49  1  0  0  0
 28 50  1  0  0  0
 28 51  1  0  0  0
M  END
> <s_m_source_file>
../3r22_ligand.sdf

> <i_m_source_file_index>
1

> <s_epik_input>
Tz1TKD1PKShbQ0gzXSlbTkhdYyhuW2NIXTEpW2NIXVtjSF1jMVtOSF1jKG4yKW5bY0hdYyhjMjMpW2NIXW5uM1tDSF00W0NIMl1bQ0gyXVtDSDJdW0NIMl1bQ0gyXVtDSDJdNA==

> <s_epik_cmdline>
J2VwaWtfYXBwJywgJy1pbWFlJywgJ2xpZ2FuZF9wcm8ubWFlJywgJy1vbWFlJywgJ2xpZ2FuZF9wcmVwLm1hZScsICctbXMnLCAnMScsICctcGgnLCAnNycsICctcGh0JywgJzAuNScsICctbnQn

> <r_epik_Ionization_Penalty>
  0.0221

> <r_epik_Ionization_Penalty_Charging>
  0.0000

> <r_epik_Ionization_Penalty_Neutral>
  0.0221

> <r_epik_State_Penalty>
  0.0820

> <r_epik_Charging_Adjusted_Penalty>
0.0819587926342651

> <i_epik_Tot_Q>
0

> <i_epik_Tot_abs_Q>
0

$$$$
