3r2f_ligand
                    3D
 Schrodinger Suite 2020-3.
 98101  0  0  1  0            999 V2000
   -1.7920   16.8700   23.2250 C   0  0  0  0  0  0
   -2.3480   17.8930   23.9940 C   0  0  0  0  0  0
   -1.0820   15.8250   23.8450 C   0  0  0  0  0  0
   -2.1880   17.8570   25.3810 C   0  0  0  0  0  0
   -0.9200   15.7950   25.2350 C   0  0  0  0  0  0
   -3.7950   11.9610   31.9070 C   0  0  0  0  0  0
   -1.8750   12.0170   33.3160 C   0  0  0  0  0  0
   -2.0710   10.2990   31.6070 C   0  0  0  0  0  0
   -1.4800   16.8200   25.9940 C   0  0  0  0  0  0
   -3.1020   12.5650   32.9520 C   0  0  0  0  0  0
   -3.2870   10.8510   31.2450 C   0  0  0  0  0  0
   -1.3580   10.8950   32.6460 C   0  0  0  0  0  0
    0.2400   15.2190   30.2150 C   0  0  0  0  0  0
    2.7730   14.4240   28.6010 C   0  0  0  0  0  0
   -3.2670   15.4180   30.5080 C   0  0  0  0  0  0
    0.2650   12.8850   29.6180 C   0  0  0  0  0  0
   -6.4190   16.8730   31.7920 C   0  0  0  0  0  0
   -1.1540   13.4480   29.7390 C   0  0  0  0  0  0
   -6.7200   19.0660   32.6350 C   0  0  0  0  0  0
   -7.4850   17.9630   31.9120 C   0  0  2  0  0  0
   -5.2630   17.2690   32.7340 C   0  0  2  0  0  0
    1.0450   13.9600   30.3850 C   0  0  2  0  0  0
    4.2390   14.4280   28.2350 C   0  0  0  0  0  0
  -10.8650   16.3310   34.3490 C   0  0  0  0  0  0
    1.6100   13.0330   34.1350 C   0  0  0  0  0  0
    2.8280   11.9770   32.2710 C   0  0  0  0  0  0
   -1.3250   16.8250   27.4930 C   0  0  0  0  0  0
   -3.6760   13.7790   33.6670 C   0  0  0  0  0  0
    0.9070   13.5280   31.8510 C   0  0  0  0  0  0
  -10.2990   15.9020   32.9890 C   0  0  0  0  0  0
   -2.4400   16.0320   28.1820 C   0  0  0  0  0  0
   -9.7550   17.0940   32.1840 C   0  0  0  0  0  0
   -2.1010   15.8590   29.6590 C   0  0  2  0  0  0
   -4.6920   16.1000   33.5630 C   0  0  2  0  0  0
    2.1350   13.2600   32.7120 C   0  0  0  0  0  0
   -4.1870   14.8960   32.7320 C   0  0  1  0  0  0
   -5.8810   18.3070   33.6160 N   0  3  0  0  0  0
   -1.0140   14.9080   29.8650 N   0  0  0  0  0  0
    2.4150   14.0410   29.8450 N   0  0  0  0  0  0
   -3.1040   15.3290   31.8450 N   0  0  0  0  0  0
    0.6510   16.3400   30.4160 O   0  0  0  0  0  0
    1.9920   14.7770   27.7310 O   0  0  0  0  0  0
   -4.3410   15.1440   30.0030 O   0  0  0  0  0  0
   -5.6910   15.6880   34.5010 O   0  0  0  0  0  0
   -8.5240   17.5260   32.7910 O   0  0  0  0  0  0
   -3.9870   10.2990   30.2530 F   0  0  0  0  0  0
   -0.1650   10.3730   32.9950 F   0  0  0  0  0  0
   -1.9079   16.8803   22.1412 H   0  0  0  0  0  0
   -2.8978   18.7063   23.5204 H   0  0  0  0  0  0
   -0.6531   15.0295   23.2355 H   0  0  0  0  0  0
   -2.6210   18.6481   25.9932 H   0  0  0  0  0  0
   -0.3672   14.9865   25.7135 H   0  0  0  0  0  0
   -4.7586   12.3686   31.6012 H   0  0  0  0  0  0
   -1.3075   12.4644   34.1320 H   0  0  0  0  0  0
   -1.6806    9.4207   31.0929 H   0  0  0  0  0  0
    0.3047   11.8881   30.0813 H   0  0  0  0  0  0
    0.5391   12.8067   28.5556 H   0  0  0  0  0  0
   -6.8491   15.9052   32.0892 H   0  0  0  0  0  0
   -6.0698   16.8147   30.7505 H   0  0  0  0  0  0
   -1.7310   13.1842   28.8404 H   0  0  0  0  0  0
   -1.6432   13.0215   30.6272 H   0  0  0  0  0  0
   -6.1157   19.6296   31.9089 H   0  0  0  0  0  0
   -7.4325   19.7458   33.1251 H   0  0  0  0  0  0
   -7.9877   18.2321   30.9713 H   0  0  0  0  0  0
   -4.3935   17.6499   32.1782 H   0  0  0  0  0  0
    4.8332   14.0925   29.0977 H   0  0  0  0  0  0
    4.5439   15.4468   27.9537 H   0  0  0  0  0  0
    4.4071   13.7477   27.3871 H   0  0  0  0  0  0
  -11.2404   15.4470   34.8853 H   0  0  0  0  0  0
  -11.6887   17.0436   34.1950 H   0  0  0  0  0  0
  -10.0717   16.8099   34.9417 H   0  0  0  0  0  0
    2.4551   12.8328   34.8100 H   0  0  0  0  0  0
    0.9248   12.1725   34.1401 H   0  0  0  0  0  0
    1.0735   13.9309   34.4754 H   0  0  0  0  0  0
    3.7106   11.8010   32.9035 H   0  0  0  0  0  0
    3.1423   12.0723   31.2212 H   0  0  0  0  0  0
    2.1315   11.1314   32.3700 H   0  0  0  0  0  0
   -0.3602   16.3710   27.7634 H   0  0  0  0  0  0
   -1.3590   17.8608   27.8617 H   0  0  0  0  0  0
   -4.5293   13.4691   34.2882 H   0  0  0  0  0  0
   -2.9015   14.2285   34.3058 H   0  0  0  0  0  0
    0.3670   14.3044   32.4128 H   0  0  0  0  0  0
    0.3482   12.5820   31.9035 H   0  0  0  0  0  0
   -9.4753   15.1894   33.1430 H   0  0  0  0  0  0
  -11.0923   15.4230   32.3963 H   0  0  0  0  0  0
   -3.3909   16.5764   28.0849 H   0  0  0  0  0  0
   -2.5334   15.0435   27.7085 H   0  0  0  0  0  0
   -9.5738   16.7824   31.1447 H   0  0  0  0  0  0
  -10.4899   17.9123   32.1986 H   0  0  0  0  0  0
   -1.7619   16.8479   30.0013 H   0  0  0  0  0  0
   -3.8319   16.4610   34.1461 H   0  0  0  0  0  0
    2.8471   14.0944   32.6307 H   0  0  0  0  0  0
   -4.9894   14.5129   32.0844 H   0  0  0  0  0  0
   -5.1455   18.9860   34.0720 H   0  0  0  0  0  0
   -6.5260   17.8848   34.4007 H   0  0  0  0  0  0
    3.2729   13.7727   30.4791 H   0  0  0  0  0  0
   -2.1220   15.5933   32.2644 H   0  0  0  0  0  0
   -6.1544   16.4271   35.1711 H   0  0  0  0  0  0
  1  2  2  0  0  0
  1  3  1  0  0  0
  1 48  1  0  0  0
  2  4  1  0  0  0
  2 49  1  0  0  0
  3  5  2  0  0  0
  3 50  1  0  0  0
  4  9  2  0  0  0
  4 51  1  0  0  0
  5  9  1  0  0  0
  5 52  1  0  0  0
  6 10  2  0  0  0
  6 11  1  0  0  0
  6 53  1  0  0  0
  7 10  1  0  0  0
  7 12  2  0  0  0
  7 54  1  0  0  0
  8 11  2  0  0  0
  8 12  1  0  0  0
  8 55  1  0  0  0
  9 27  1  0  0  0
 10 28  1  0  0  0
 11 46  1  0  0  0
 12 47  1  0  0  0
 13 22  1  0  0  0
 13 38  1  0  0  0
 13 41  2  0  0  0
 14 23  1  0  0  0
 14 39  1  0  0  0
 14 42  2  0  0  0
 15 33  1  0  0  0
 15 40  1  0  0  0
 15 43  2  0  0  0
 16 18  1  0  0  0
 16 22  1  0  0  0
 16 56  1  0  0  0
 16 57  1  0  0  0
 17 20  1  0  0  0
 17 21  1  0  0  0
 17 58  1  0  0  0
 17 59  1  0  0  0
 18 38  1  0  0  0
 18 60  1  0  0  0
 18 61  1  0  0  0
 19 20  1  0  0  0
 19 37  1  0  0  0
 19 62  1  0  0  0
 19 63  1  0  0  0
 20 45  1  0  0  0
 20 64  1  0  0  0
 21 34  1  0  0  0
 21 37  1  0  0  0
 21 65  1  0  0  0
 22 29  1  0  0  0
 22 39  1  0  0  0
 23 66  1  0  0  0
 23 67  1  0  0  0
 23 68  1  0  0  0
 24 30  1  0  0  0
 24 69  1  0  0  0
 24 70  1  0  0  0
 24 71  1  0  0  0
 25 35  1  0  0  0
 25 72  1  0  0  0
 25 73  1  0  0  0
 25 74  1  0  0  0
 26 35  1  0  0  0
 26 75  1  0  0  0
 26 76  1  0  0  0
 26 77  1  0  0  0
 27 31  1  0  0  0
 27 78  1  0  0  0
 27 79  1  0  0  0
 28 36  1  0  0  0
 28 80  1  0  0  0
 28 81  1  0  0  0
 29 35  1  0  0  0
 29 82  1  0  0  0
 29 83  1  0  0  0
 30 32  1  0  0  0
 30 84  1  0  0  0
 30 85  1  0  0  0
 31 33  1  0  0  0
 31 86  1  0  0  0
 31 87  1  0  0  0
 32 45  1  0  0  0
 32 88  1  0  0  0
 32 89  1  0  0  0
 33 38  1  0  0  0
 33 90  1  0  0  0
 34 36  1  0  0  0
 34 44  1  0  0  0
 34 91  1  0  0  0
 35 92  1  0  0  0
 36 40  1  0  0  0
 36 93  1  0  0  0
 37 94  1  0  0  0
 37 95  1  0  0  0
 39 96  1  0  0  0
 40 97  1  0  0  0
 44 98  1  0  0  0
M  CHG  1  37   1
M  END
> <s_m_source_file>
../3r2f_ligand.sdf

> <i_m_source_file_index>
1

> <s_epik_input>
W2NIXTFbY0hdW2NIXVtjSF1bY0hdYzFbQ0gyXVtDSDJdW0NASF0oTihbQ0gyXVtDSDJdMilDKD1PKVtDQF0yKFtDSDJdW0NIXShbQ0gzXSlbQ0gzXSlbTkhdQyg9TylbQ0gzXSlDKD1PKVtOSF1bQ0BASF0oW0NIMl1jM1tjSF1jKEYpW2NIXWMoRilbY0hdMylbQ0BIXShbT0hdKVtDQEhdKFtOSDIrXVtDSDJdNClbQ0gyXVtDQEhdNE9bQ0gyXVtDSDJdW0NIM10=

> <s_epik_cmdline>
J2VwaWtfYXBwJywgJy1pbWFlJywgJ2xpZ2FuZF9wcm8ubWFlJywgJy1vbWFlJywgJ2xpZ2FuZF9wcmVwLm1hZScsICctbXMnLCAnMScsICctcGgnLCAnNycsICctcGh0JywgJzAuNScsICctbnQn

> <r_lp_tautomer_probability>
1

> <r_epik_Ionization_Penalty>
  0.0030

> <r_epik_Ionization_Penalty_Charging>
  0.0030

> <r_epik_Ionization_Penalty_Neutral>
  0.0000

> <r_epik_State_Penalty>
 -0.0000

> <r_epik_Charging_Adjusted_Penalty>
0.00300384258724738

> <i_epik_Tot_Q>
1

> <i_epik_Tot_abs_Q>
1

$$$$
