3r2y_ligand
                    3D
 Schrodinger Suite 2020-3.
 41 45  0  0  1  0            999 V2000
    6.1940   18.9140   48.3120 C   0  0  0  0  0  0
    6.0800   18.8820   49.7030 C   0  0  0  0  0  0
    5.2090   17.9730   50.3250 C   0  0  0  0  0  0
    5.1280   17.9540   51.6820 C   0  0  0  0  0  0
    5.8980   18.8330   52.4610 C   0  0  0  0  0  0
    6.7500   19.7390   51.8830 C   0  0  0  0  0  0
    6.8640   19.7810   50.4750 C   0  0  0  0  0  0
    7.6910   20.6360   49.8650 N   0  0  0  0  0  0
    7.7990   20.6640   48.5620 C   0  0  0  0  0  0
    7.0610   19.8120   47.7210 C   0  0  0  0  0  0
    7.1980   19.8880   46.2360 C   0  0  0  0  0  0
    6.8230   18.8500   45.3920 C   0  0  0  0  0  0
    7.6820   20.9990   45.7020 N   0  0  0  0  0  0
    7.8610   21.1610   44.4030 C   0  0  0  0  0  0
    7.5040   20.1740   43.5110 C   0  0  0  0  0  0
    6.9720   18.9900   44.0090 C   0  0  0  0  0  0
    6.5750   17.9070   43.1020 C   0  0  0  0  0  0
    6.7860   17.8920   41.7650 C   0  0  0  0  0  0
    6.2450   16.6940   41.3070 C   0  0  3  0  0  0
    6.1890   16.1420   39.9530 C   0  0  0  0  0  0
    6.6000   16.7920   39.0120 O   0  0  0  0  0  0
    5.6690   14.9040   39.8280 N   0  0  0  0  0  0
    5.5530   13.9880   40.9510 C   0  0  0  0  0  0
    5.0780   14.6590   42.2460 C   0  0  0  0  0  0
    5.7210   16.0070   42.3990 C   0  0  0  0  0  0
    5.9160   16.7490   43.4760 N   0  0  0  0  0  0
    5.6031   18.2353   47.6969 H   0  0  0  0  0  0
    4.6050   17.2907   49.7269 H   0  0  0  0  0  0
    4.4572   17.2479   52.1714 H   0  0  0  0  0  0
    5.8168   18.7943   53.5473 H   0  0  0  0  0  0
    7.3332   20.4197   52.5032 H   0  0  0  0  0  0
    8.4888   21.3764   48.1095 H   0  0  0  0  0  0
    6.4137   17.9290   45.8071 H   0  0  0  0  0  0
    8.2972   22.0885   44.0321 H   0  0  0  0  0  0
    7.6357   20.3180   42.4386 H   0  0  0  0  0  0
    7.2990   18.7354   41.2797 H   0  0  0  0  0  0
    5.3257   14.5961   38.8293 H   0  0  0  0  0  0
    4.8280   13.1977   40.7062 H   0  0  0  0  0  0
    6.5338   13.5347   41.1573 H   0  0  0  0  0  0
    3.9855   14.7832   42.2152 H   0  0  0  0  0  0
    5.3515   14.0305   43.1063 H   0  0  0  0  0  0
  1  2  1  0  0  0
  1 10  2  0  0  0
  1 27  1  0  0  0
  2  3  2  0  0  0
  2  7  1  0  0  0
  3  4  1  0  0  0
  3 28  1  0  0  0
  4  5  2  0  0  0
  4 29  1  0  0  0
  5  6  1  0  0  0
  5 30  1  0  0  0
  6  7  2  0  0  0
  6 31  1  0  0  0
  7  8  1  0  0  0
  8  9  2  0  0  0
  9 10  1  0  0  0
  9 32  1  0  0  0
 10 11  1  0  0  0
 11 12  2  0  0  0
 11 13  1  0  0  0
 12 16  1  0  0  0
 12 33  1  0  0  0
 13 14  2  0  0  0
 14 15  1  0  0  0
 14 34  1  0  0  0
 15 16  2  0  0  0
 15 35  1  0  0  0
 16 17  1  0  0  0
 17 18  2  0  0  0
 17 26  1  0  0  0
 18 19  1  0  0  0
 18 36  1  0  0  0
 19 20  1  0  0  0
 19 25  1  0  0  0
 20 21  2  0  0  0
 20 22  1  0  0  0
 22 23  1  0  0  0
 22 37  1  0  0  0
 23 24  1  0  0  0
 23 38  1  0  0  0
 23 39  1  0  0  0
 24 25  1  0  0  0
 24 40  1  0  0  0
 24 41  1  0  0  0
 25 26  2  0  0  0
M  END
> <s_m_source_file>
../3r2y_ligand.sdf

> <i_m_source_file_index>
1

> <s_epik_input>
W2NIXTFbY0hdW2NIXVtjSF1jKGMxMiluW2NIXWMoW2NIXTIpLWMzW2NIXWMoW2NIXVtjSF1uMylDKD1bQ0hdNClOPUMoW0NIXTQ1KVtDSDJdW0NIMl1bTkhdQzU9Tw==

> <s_epik_cmdline>
J2VwaWtfYXBwJywgJy1pbWFlJywgJ2xpZ2FuZF9wcm8ubWFlJywgJy1vbWFlJywgJ2xpZ2FuZF9wcmVwLm1hZScsICctbXMnLCAnMScsICctcGgnLCAnNycsICctcGh0JywgJzAuNScsICctbnQn

> <r_lp_tautomer_probability>
1

> <r_epik_Ionization_Penalty>
  0.0010

> <r_epik_Ionization_Penalty_Charging>
  0.0000

> <r_epik_Ionization_Penalty_Neutral>
  0.0010

> <r_epik_State_Penalty>
 -0.0000

> <r_epik_Charging_Adjusted_Penalty>
0

> <i_epik_Tot_Q>
0

> <i_epik_Tot_abs_Q>
0

> <s_epik_Chemistry_Notes>
This compound has an imine and may undergo hydrolysis.

$$$$
