3r42_ligand
                    3D
 Schrodinger Suite 2020-3.
122124  0  0  1  0            999 V2000
    6.2330    3.3060   -5.2450 N   0  3  0  0  0  0
    5.9090    4.5870   -5.8660 C   0  0  2  0  0  0
    7.0690    5.0810   -6.7230 C   0  0  0  0  0  0
    8.1720    4.5660   -6.6330 O   0  0  0  0  0  0
    5.5250    5.6330   -4.8030 C   0  0  0  0  0  0
    6.5380    5.7960   -3.6950 C   0  0  0  0  0  0
    6.1220    6.8200   -2.6290 C   0  0  0  0  0  0
    5.4130    7.7910   -2.9140 O   0  0  0  0  0  0
    6.5780    6.6020   -1.3950 N   0  0  0  0  0  0
    6.8060    6.0700   -7.5670 N   0  0  0  0  0  0
    7.8460    6.6730   -8.3810 C   0  0  2  0  0  0
    8.1570    8.0620   -7.8160 C   0  0  0  0  0  0
    7.4140    8.5540   -6.9700 O   0  0  0  0  0  0
    7.4040    6.7840   -9.8520 C   0  0  0  0  0  0
    7.0220    5.3970  -10.3960 C   0  0  0  0  0  0
    6.2350    7.7580   -9.9980 C   0  0  0  0  0  0
    9.2640    8.6820   -8.2630 N   0  0  0  0  0  0
    9.5610   10.0390   -7.7860 C   0  0  2  0  0  0
    8.3940   10.9990   -8.0360 C   0  0  0  0  0  0
    7.7060   10.9150   -9.0640 O   0  0  0  0  0  0
   10.7640   10.4540   -8.6220 C   0  0  0  0  0  0
   11.4600    9.1380   -8.9490 C   0  0  0  0  0  0
   10.3420    8.1320   -9.1120 C   0  0  0  0  0  0
    8.1780   11.9070   -7.0950 N   0  0  0  0  0  0
    7.1400   12.9240   -7.2360 C   0  0  2  0  0  0
    7.5320   14.1990   -6.5030 C   0  0  0  0  0  0
    8.4580   14.2180   -5.6980 O   0  0  0  0  0  0
    5.7980   12.4230   -6.7160 C   0  0  0  0  0  0
    5.8810   12.0720   -5.3540 O   0  0  0  0  0  0
    6.7980   15.2640   -6.7610 N   0  0  0  0  0  0
    7.2470   16.5760   -6.3250 C   0  0  2  0  0  0
    6.0250   17.4630   -6.2960 C   0  0  0  0  0  0
    5.4830   17.7790   -7.3560 O   0  0  0  0  0  0
    8.2670   17.0780   -7.3520 C   0  0  0  0  0  0
    8.8430   18.4220   -7.0080 C   0  0  0  0  0  0
    9.9510   18.7200   -7.5050 O   0  0  0  0  0  0
    8.1960   19.1820   -6.2520 O   0  5  0  0  0  0
    5.5840   17.8690   -5.0910 N   0  0  0  0  0  0
    4.3350   18.6280   -5.0050 C   0  0  2  0  0  0
    4.4620   20.0220   -5.6330 C   0  0  0  0  0  0
    3.4690   20.7330   -5.7370 O   0  0  0  0  0  0
    4.0980   18.7250   -3.4940 C   0  0  0  0  0  0
    5.4890   18.7240   -2.9130 C   0  0  0  0  0  0
    6.2820   17.8080   -3.7930 C   0  0  0  0  0  0
    5.6670   20.4100   -6.0440 N   0  0  0  0  0  0
    5.8780   21.7300   -6.6500 C   0  0  2  0  0  0
    6.0830   21.6650   -8.1590 C   0  0  0  0  0  0
    6.0380   22.6910   -8.8390 O   0  0  0  0  0  0
    7.0600   22.4570   -5.9980 C   0  0  0  0  0  0
    6.7290   23.0090   -4.6350 C   0  0  0  0  0  0
    6.1040   24.2450   -4.4960 C   0  0  0  0  0  0
    7.0270   22.2890   -3.4860 C   0  0  0  0  0  0
    5.7810   24.7510   -3.2410 C   0  0  0  0  0  0
    6.7150   22.7760   -2.2370 C   0  0  0  0  0  0
    6.0940   24.0110   -2.1170 C   0  0  0  0  0  0
    5.7900   24.4830   -0.8650 O   0  0  0  0  0  0
    6.3040   20.4620   -8.6790 N   0  0  0  0  0  0
    6.6470   20.2930  -10.0880 C   0  0  2  0  0  0
    6.0780   19.0050  -10.6800 C   0  0  0  0  0  0
    4.9620   18.9920  -11.2030 O   0  0  0  0  0  0
    8.1700   20.3340  -10.2680 C   0  0  0  0  0  0
    8.7960   21.5940   -9.6770 C   0  0  0  0  0  0
    8.3410   22.7060   -9.9390 O   0  0  0  0  0  0
    9.8470   21.4220   -8.8790 N   0  0  0  0  0  0
    6.7568   17.9445  -10.6332 O   0  5  0  0  0  0
    6.5031    2.5785   -6.0246 H   0  0  0  0  0  0
    5.3596    2.9379   -4.6867 H   0  0  0  0  0  0
    7.0803    3.4365   -4.5558 H   0  0  0  0  0  0
    5.0449    4.3836   -6.5156 H   0  0  0  0  0  0
    5.4111    6.6170   -5.2813 H   0  0  0  0  0  0
    4.5753    5.3432   -4.3297 H   0  0  0  0  0  0
    6.6829    4.8317   -3.1859 H   0  0  0  0  0  0
    7.4948    6.1337   -4.1197 H   0  0  0  0  0  0
    7.2066    5.7233   -1.1882 H   0  0  0  0  0  0
    6.3255    7.3008   -0.5839 H   0  0  0  0  0  0
    5.7700    6.4320   -7.6415 H   0  0  0  0  0  0
    8.7175    6.0054   -8.3125 H   0  0  0  0  0  0
    8.2429    7.1804  -10.4428 H   0  0  0  0  0  0
    7.8744    4.7111  -10.2824 H   0  0  0  0  0  0
    6.7580    5.4807  -11.4606 H   0  0  0  0  0  0
    6.1604    5.0073   -9.8340 H   0  0  0  0  0  0
    6.5269    8.7427   -9.6042 H   0  0  0  0  0  0
    5.3697    7.3794   -9.4342 H   0  0  0  0  0  0
    5.9672    7.8527  -11.0607 H   0  0  0  0  0  0
    9.7422   10.0265   -6.7011 H   0  0  0  0  0  0
   10.4192   10.9758   -9.5269 H   0  0  0  0  0  0
   11.4054   11.1262   -8.0332 H   0  0  0  0  0  0
   12.0418    9.2513   -9.8756 H   0  0  0  0  0  0
   12.1342    8.8648   -8.1239 H   0  0  0  0  0  0
   10.6203    7.1316   -8.7490 H   0  0  0  0  0  0
    9.9894    8.0599  -10.1515 H   0  0  0  0  0  0
    8.8039   11.8816   -6.1908 H   0  0  0  0  0  0
    7.0717   13.1125   -8.3176 H   0  0  0  0  0  0
    5.0421   13.2140   -6.8301 H   0  0  0  0  0  0
    5.4903   11.5363   -7.2897 H   0  0  0  0  0  0
    4.9926   11.6909   -4.8291 H   0  0  0  0  0  0
    5.8476   15.1607   -7.3051 H   0  0  0  0  0  0
    7.7012   16.5223   -5.3246 H   0  0  0  0  0  0
    9.1028   16.3658   -7.4169 H   0  0  0  0  0  0
    7.7834   17.1665   -8.3360 H   0  0  0  0  0  0
    3.5375   18.1155   -5.5630 H   0  0  0  0  0  0
    3.5523   19.6528   -3.2673 H   0  0  0  0  0  0
    3.5060   17.8604   -3.1594 H   0  0  0  0  0  0
    5.8927   19.7471   -2.9266 H   0  0  0  0  0  0
    5.4532   18.3577   -1.8764 H   0  0  0  0  0  0
    6.2788   16.7720   -3.4233 H   0  0  0  0  0  0
    7.3202   18.1493   -3.9185 H   0  0  0  0  0  0
    6.5142   19.7191   -5.9219 H   0  0  0  0  0  0
    4.9343   22.2580   -6.4486 H   0  0  0  0  0  0
    7.9012   21.7579   -5.8812 H   0  0  0  0  0  0
    7.3689   23.2992   -6.6347 H   0  0  0  0  0  0
    5.8635   24.8265   -5.3860 H   0  0  0  0  0  0
    7.5174   21.3196   -3.5747 H   0  0  0  0  0  0
    5.2876   25.7183   -3.1457 H   0  0  0  0  0  0
    6.9545   22.1945   -1.3467 H   0  0  0  0  0  0
    5.2977   25.4599   -0.7501 H   0  0  0  0  0  0
    6.2237   19.5825   -8.0232 H   0  0  0  0  0  0
    6.1646   21.1441  -10.5909 H   0  0  0  0  0  0
    8.6219   19.4651   -9.7672 H   0  0  0  0  0  0
    8.4134   20.3066  -11.3404 H   0  0  0  0  0  0
   10.2204   20.4082   -8.6721 H   0  0  0  0  0  0
   10.3423   22.2936   -8.4263 H   0  0  0  0  0  0
  1  2  1  0  0  0
  1 66  1  0  0  0
  1 67  1  0  0  0
  1 68  1  0  0  0
  2  3  1  0  0  0
  2  5  1  0  0  0
  2 69  1  0  0  0
  3  4  2  0  0  0
  3 10  1  0  0  0
  5  6  1  0  0  0
  5 70  1  0  0  0
  5 71  1  0  0  0
  6  7  1  0  0  0
  6 72  1  0  0  0
  6 73  1  0  0  0
  7  8  2  0  0  0
  7  9  1  0  0  0
  9 74  1  0  0  0
  9 75  1  0  0  0
 10 11  1  0  0  0
 10 76  1  0  0  0
 11 12  1  0  0  0
 11 14  1  0  0  0
 11 77  1  0  0  0
 12 13  2  0  0  0
 12 17  1  0  0  0
 14 15  1  0  0  0
 14 16  1  0  0  0
 14 78  1  0  0  0
 15 79  1  0  0  0
 15 80  1  0  0  0
 15 81  1  0  0  0
 16 82  1  0  0  0
 16 83  1  0  0  0
 16 84  1  0  0  0
 17 18  1  0  0  0
 17 23  1  0  0  0
 18 19  1  0  0  0
 18 21  1  0  0  0
 18 85  1  0  0  0
 19 20  2  0  0  0
 19 24  1  0  0  0
 21 22  1  0  0  0
 21 86  1  0  0  0
 21 87  1  0  0  0
 22 23  1  0  0  0
 22 88  1  0  0  0
 22 89  1  0  0  0
 23 90  1  0  0  0
 23 91  1  0  0  0
 24 25  1  0  0  0
 24 92  1  0  0  0
 25 26  1  0  0  0
 25 28  1  0  0  0
 25 93  1  0  0  0
 26 27  2  0  0  0
 26 30  1  0  0  0
 28 29  1  0  0  0
 28 94  1  0  0  0
 28 95  1  0  0  0
 29 96  1  0  0  0
 30 31  1  0  0  0
 30 97  1  0  0  0
 31 32  1  0  0  0
 31 34  1  0  0  0
 31 98  1  0  0  0
 32 33  2  0  0  0
 32 38  1  0  0  0
 34 35  1  0  0  0
 34 99  1  0  0  0
 34100  1  0  0  0
 35 36  2  0  0  0
 35 37  1  0  0  0
 38 39  1  0  0  0
 38 44  1  0  0  0
 39 40  1  0  0  0
 39 42  1  0  0  0
 39101  1  0  0  0
 40 41  2  0  0  0
 40 45  1  0  0  0
 42 43  1  0  0  0
 42102  1  0  0  0
 42103  1  0  0  0
 43 44  1  0  0  0
 43104  1  0  0  0
 43105  1  0  0  0
 44106  1  0  0  0
 44107  1  0  0  0
 45 46  1  0  0  0
 45108  1  0  0  0
 46 47  1  0  0  0
 46 49  1  0  0  0
 46109  1  0  0  0
 47 48  2  0  0  0
 47 57  1  0  0  0
 49 50  1  0  0  0
 49110  1  0  0  0
 49111  1  0  0  0
 50 51  2  0  0  0
 50 52  1  0  0  0
 51 53  1  0  0  0
 51112  1  0  0  0
 52 54  2  0  0  0
 52113  1  0  0  0
 53 55  2  0  0  0
 53114  1  0  0  0
 54 55  1  0  0  0
 54115  1  0  0  0
 55 56  1  0  0  0
 56116  1  0  0  0
 57 58  1  0  0  0
 57117  1  0  0  0
 58 59  1  0  0  0
 58 61  1  0  0  0
 58118  1  0  0  0
 59 60  2  0  0  0
 59 65  1  0  0  0
 61 62  1  0  0  0
 61119  1  0  0  0
 61120  1  0  0  0
 62 63  2  0  0  0
 62 64  1  0  0  0
 64121  1  0  0  0
 64122  1  0  0  0
M  CHG  3   1   1  37  -1  65  -1
M  END
> <s_m_source_file>
../3r42_ligand.sdf

> <i_m_source_file_index>
1

> <s_epik_input>
Tz1DKFtOSDJdKVtDSDJdW0NIMl1bQ0BIXShbTkgzK10pQyg9TylbTkhdW0NAQEhdKFtDSF0oW0NIM10pW0NIM10pQyg9TylOMVtDQEBIXShbQ0gyXVtDSDJdW0NIMl0xKUMoPU8pW05IXVtDQEBIXShbQ0gyXVtPSF0pQyg9TylbTkhdW0NAQEhdKFtDSDJdQyg9TylbT0hdKUMoPU8pTjJbQ0BASF0oW0NIMl1bQ0gyXVtDSDJdMilDKD1PKVtOSF1bQ0BIXShDKD1PKVtOSF1bQ0BIXShDKD1PKVtPSF0pW0NIMl1DKD1PKVtOSDJdKVtDSDJdYzNbY0hdW2NIXWMoW09IXSlbY0hdW2NIXTM=

> <s_epik_cmdline>
J2VwaWtfYXBwJywgJy1pbWFlJywgJ2xpZ2FuZF9wcm8ubWFlJywgJy1vbWFlJywgJ2xpZ2FuZF9wcmVwLm1hZScsICctbXMnLCAnMScsICctcGgnLCAnNycsICctcGh0JywgJzAuNScsICctbnQn

> <r_lp_tautomer_probability>
0.999999999997365

> <r_epik_Ionization_Penalty>
  0.1662

> <r_epik_Ionization_Penalty_Charging>
  0.1653

> <r_epik_Ionization_Penalty_Neutral>
  0.0009

> <r_epik_State_Penalty>
  0.1535

> <r_epik_Charging_Adjusted_Penalty>
0.318876005549071

> <i_epik_Tot_Q>
-1

> <i_epik_Tot_abs_Q>
3

$$$$
