3r4m_ligand
                    3D
 Schrodinger Suite 2020-3.
 26 27  0  0  1  0            999 V2000
   56.2530   36.2940   90.6150 C   0  0  0  0  0  0
   55.9450   35.9250   89.2780 O   0  0  0  0  0  0
   55.9610   37.0100   88.4250 C   0  0  0  0  0  0
   56.4730   38.2350   88.8400 C   0  0  0  0  0  0
   56.4820   39.3210   87.9710 C   0  0  0  0  0  0
   55.9730   39.1780   86.6850 C   0  0  0  0  0  0
   55.4640   37.9490   86.2800 C   0  0  0  0  0  0
   55.4630   36.8690   87.1550 C   0  0  0  0  0  0
   54.9240   35.5660   86.6870 C   0  0  0  0  0  0
   54.0020   34.8450   87.4350 C   0  0  0  0  0  0
   53.5410   33.6320   86.9330 C   0  0  0  0  0  0
   52.3880   32.7070   87.8300 Cl  0  0  0  0  0  0
   53.9650   33.1610   85.7660 N   0  0  0  0  0  0
   54.8460   33.8930   85.0950 C   0  0  0  0  0  0
   55.2760   33.4100   83.9040 N   0  0  0  0  0  0
   55.3380   35.0580   85.4960 N   0  0  0  0  0  0
   56.2286   35.4009   91.2567 H   0  0  0  0  0  0
   55.5123   37.0237   90.9739 H   0  0  0  0  0  0
   57.2566   36.7430   90.6495 H   0  0  0  0  0  0
   56.8686   38.3442   89.8498 H   0  0  0  0  0  0
   56.8861   40.2795   88.2966 H   0  0  0  0  0  0
   55.9730   40.0245   85.9983 H   0  0  0  0  0  0
   55.0643   37.8321   85.2727 H   0  0  0  0  0  0
   53.6473   35.2214   88.3945 H   0  0  0  0  0  0
   54.8954   32.4477   83.5310 H   0  0  0  0  0  0
   56.0056   33.9803   83.3103 H   0  0  0  0  0  0
  1  2  1  0  0  0
  1 17  1  0  0  0
  1 18  1  0  0  0
  1 19  1  0  0  0
  2  3  1  0  0  0
  3  4  2  0  0  0
  3  8  1  0  0  0
  4  5  1  0  0  0
  4 20  1  0  0  0
  5  6  2  0  0  0
  5 21  1  0  0  0
  6  7  1  0  0  0
  6 22  1  0  0  0
  7  8  2  0  0  0
  7 23  1  0  0  0
  8  9  1  0  0  0
  9 10  2  0  0  0
  9 16  1  0  0  0
 10 11  1  0  0  0
 10 24  1  0  0  0
 11 12  1  0  0  0
 11 13  2  0  0  0
 13 14  1  0  0  0
 14 15  1  0  0  0
 14 16  2  0  0  0
 15 25  1  0  0  0
 15 26  1  0  0  0
M  END
> <s_m_source_file>
../3r4m_ligand.sdf

> <i_m_source_file_index>
1

> <s_epik_input>
W0NIM11PYzFbY0hdW2NIXVtjSF1bY0hdYzEtYzJbY0hdYyhDbCluYyhuMilbTkgyXQ==

> <s_epik_cmdline>
J2VwaWtfYXBwJywgJy1pbWFlJywgJ2xpZ2FuZF9wcm8ubWFlJywgJy1vbWFlJywgJ2xpZ2FuZF9wcmVwLm1hZScsICctbXMnLCAnMScsICctcGgnLCAnNycsICctcGh0JywgJzAuNScsICctbnQn

> <r_lp_tautomer_probability>
1

> <r_epik_Ionization_Penalty>
  0.0000

> <r_epik_Ionization_Penalty_Charging>
  0.0000

> <r_epik_Ionization_Penalty_Neutral>
  0.0000

> <r_epik_State_Penalty>
 -0.0000

> <r_epik_Charging_Adjusted_Penalty>
0

> <i_epik_Tot_Q>
0

> <i_epik_Tot_abs_Q>
0

$$$$
