3r5j_ligand
                    3D
 Schrodinger Suite 2020-3.
 67 66  0  0  1  0            999 V2000
  -29.6520   18.0510   31.2110 C   0  0  0  0  0  0
  -28.8540   18.8590   31.6830 O   0  0  0  0  0  0
  -30.3510   18.3050   29.9040 C   0  0  0  0  0  0
  -30.0560   16.9640   31.8710 N   0  0  0  0  0  0
  -29.2360   16.2690   32.8580 C   0  0  2  0  0  0
  -28.6370   14.9760   32.3150 C   0  0  0  0  0  0
  -29.1640   14.3650   31.3770 O   0  0  0  0  0  0
  -30.0490   15.9780   34.1090 C   0  0  0  0  0  0
  -27.5390   14.5570   32.9370 N   0  0  0  0  0  0
  -26.8880   13.2950   32.6020 C   0  0  2  0  0  0
  -27.5560   12.0920   33.2850 C   0  0  0  0  0  0
  -27.8520   12.1310   34.4870 O   0  0  0  0  0  0
  -25.3930   13.3960   32.9190 C   0  0  0  0  0  0
  -24.6830   14.4340   32.0410 C   0  0  0  0  0  0
  -24.8300   14.3640   30.8000 O   0  5  0  0  0  0
  -23.9580   15.3070   32.5670 O   0  0  0  0  0  0
  -27.8080   11.0400   32.4990 N   0  0  0  0  0  0
  -28.4000    9.7760   32.9750 C   0  0  2  0  0  0
  -27.5940    8.5670   32.4810 C   0  0  0  0  0  0
  -26.7190    8.7120   31.6230 O   0  0  0  0  0  0
  -29.8830    9.6050   32.5200 C   0  0  0  0  0  0
  -30.7830   10.6780   33.1450 C   0  0  0  0  0  0
  -30.0030    9.5860   30.9860 C   0  0  0  0  0  0
  -27.9120    7.3850   33.0120 N   0  0  0  0  0  0
  -27.1990    6.1420   32.6830 C   0  0  2  0  0  0
  -27.8710    5.3370   31.5630 C   0  0  0  0  0  0
  -29.0810    5.0940   31.5940 O   0  0  0  0  0  0
  -27.0380    5.2810   33.9300 C   0  0  0  0  0  0
  -27.0730    4.9240   30.5800 N   0  0  0  0  0  0
  -27.5420    4.0830   29.4730 C   0  0  2  0  0  0
  -27.8620    2.6450   29.9060 C   0  0  0  0  0  0
  -27.5468    1.6476   29.2036 O   0  0  0  0  0  0
  -26.5290    4.0990   28.3160 C   0  0  0  0  0  0
  -27.0300    4.8820   27.1280 C   0  0  0  0  0  0
  -26.2190    5.2120   26.2370 O   0  0  0  0  0  0
  -28.2510    5.1560   27.0870 O   0  5  0  0  0  0
  -28.4593    2.4562   30.9993 O   0  5  0  0  0  0
  -29.9467   19.2185   29.4435 H   0  0  0  0  0  0
  -31.4290   18.4308   30.0831 H   0  0  0  0  0  0
  -30.1886   17.4515   29.2294 H   0  0  0  0  0  0
  -31.0658   16.5956   31.6373 H   0  0  0  0  0  0
  -28.4188   16.9716   33.0785 H   0  0  0  0  0  0
  -30.4773   16.9151   34.4941 H   0  0  0  0  0  0
  -29.3972   15.5310   34.8741 H   0  0  0  0  0  0
  -30.8607   15.2773   33.8640 H   0  0  0  0  0  0
  -27.1225   15.1977   33.7282 H   0  0  0  0  0  0
  -27.0308   13.1652   31.5191 H   0  0  0  0  0  0
  -25.2602   13.6901   33.9706 H   0  0  0  0  0  0
  -24.9152   12.4200   32.7481 H   0  0  0  0  0  0
  -27.5453   11.1589   31.4375 H   0  0  0  0  0  0
  -28.3347    9.8651   34.0694 H   0  0  0  0  0  0
  -30.2504    8.6328   32.8803 H   0  0  0  0  0  0
  -30.6694   10.6601   34.2390 H   0  0  0  0  0  0
  -31.8317   10.4757   32.8819 H   0  0  0  0  0  0
  -30.4934   11.6678   32.7624 H   0  0  0  0  0  0
  -29.3446    8.8058   30.5764 H   0  0  0  0  0  0
  -29.7059   10.5654   30.5828 H   0  0  0  0  0  0
  -31.0443    9.3732   30.7023 H   0  0  0  0  0  0
  -28.7491    7.3666   33.7253 H   0  0  0  0  0  0
  -26.2184    6.4809   32.3177 H   0  0  0  0  0  0
  -26.5555    5.8710   34.7231 H   0  0  0  0  0  0
  -26.4150    4.4059   33.6934 H   0  0  0  0  0  0
  -28.0274    4.9447   34.2736 H   0  0  0  0  0  0
  -26.0204    5.2406   30.6225 H   0  0  0  0  0  0
  -28.4857    4.5549   29.1619 H   0  0  0  0  0  0
  -25.5903    4.5602   28.6569 H   0  0  0  0  0  0
  -26.3325    3.0681   27.9864 H   0  0  0  0  0  0
  1  2  2  0  0  0
  1  3  1  0  0  0
  1  4  1  0  0  0
  3 38  1  0  0  0
  3 39  1  0  0  0
  3 40  1  0  0  0
  4  5  1  0  0  0
  4 41  1  0  0  0
  5  6  1  0  0  0
  5  8  1  0  0  0
  5 42  1  0  0  0
  6  7  2  0  0  0
  6  9  1  0  0  0
  8 43  1  0  0  0
  8 44  1  0  0  0
  8 45  1  0  0  0
  9 10  1  0  0  0
  9 46  1  0  0  0
 10 11  1  0  0  0
 10 13  1  0  0  0
 10 47  1  0  0  0
 11 12  2  0  0  0
 11 17  1  0  0  0
 13 14  1  0  0  0
 13 48  1  0  0  0
 13 49  1  0  0  0
 14 15  1  0  0  0
 14 16  2  0  0  0
 17 18  1  0  0  0
 17 50  1  0  0  0
 18 19  1  0  0  0
 18 21  1  0  0  0
 18 51  1  0  0  0
 19 20  2  0  0  0
 19 24  1  0  0  0
 21 22  1  0  0  0
 21 23  1  0  0  0
 21 52  1  0  0  0
 22 53  1  0  0  0
 22 54  1  0  0  0
 22 55  1  0  0  0
 23 56  1  0  0  0
 23 57  1  0  0  0
 23 58  1  0  0  0
 24 25  1  0  0  0
 24 59  1  0  0  0
 25 26  1  0  0  0
 25 28  1  0  0  0
 25 60  1  0  0  0
 26 27  2  0  0  0
 26 29  1  0  0  0
 28 61  1  0  0  0
 28 62  1  0  0  0
 28 63  1  0  0  0
 29 30  1  0  0  0
 29 64  1  0  0  0
 30 31  1  0  0  0
 30 33  1  0  0  0
 30 65  1  0  0  0
 31 32  2  0  0  0
 31 37  1  0  0  0
 33 34  1  0  0  0
 33 66  1  0  0  0
 33 67  1  0  0  0
 34 35  2  0  0  0
 34 36  1  0  0  0
M  CHG  3  15  -1  36  -1  37  -1
M  END
> <s_m_source_file>
../3r5j_ligand.sdf

> <i_m_source_file_index>
1

> <s_epik_input>
Tz1DKFtDSDNdKVtOSF1bQ0BASF0oW0NIM10pQyg9TylbTkhdW0NAQEhdKFtDSDJdQyg9TylbT0hdKUMoPU8pW05IXVtDQEBIXShbQ0hdKFtDSDNdKVtDSDNdKUMoPU8pW05IXVtDQEBIXShbQ0gzXSlDKD1PKVtOSF1bQ0BIXShDKD1PKVtPSF0pW0NIMl1DKD1PKVtPSF0=

> <s_epik_cmdline>
J2VwaWtfYXBwJywgJy1pbWFlJywgJ2xpZ2FuZF9wcm8ubWFlJywgJy1vbWFlJywgJ2xpZ2FuZF9wcmVwLm1hZScsICctbXMnLCAnMScsICctcGgnLCAnNycsICctcGh0JywgJzAuNScsICctbnQn

> <r_lp_tautomer_probability>
1

> <r_epik_Ionization_Penalty>
  0.0027

> <r_epik_Ionization_Penalty_Charging>
  0.0027

> <r_epik_Ionization_Penalty_Neutral>
  0.0000

> <r_epik_State_Penalty>
 -0.0000

> <r_epik_Charging_Adjusted_Penalty>
0.00274566819474221

> <i_epik_Tot_Q>
-3

> <i_epik_Tot_abs_Q>
3

$$$$
