3r5m_ligand
                    3D
 Schrodinger Suite 2020-3.
 38 39  0  0  1  0            999 V2000
   13.6480   15.9580   21.3520 C   0  0  0  0  0  0
    8.1480   13.5200   15.3360 C   0  0  0  0  0  0
   16.6340   13.0950   15.4950 O   0  0  0  0  0  0
   15.6120   15.5820   14.4830 O   0  0  0  0  0  0
   14.5560   14.9270   21.1440 C   0  0  0  0  0  0
    9.5080   13.6920   14.8950 C   0  0  0  0  0  0
   17.4190   13.4560   17.7060 C   0  0  0  0  0  0
   13.3620   15.1520   13.8910 C   0  0  0  0  0  0
   17.2330   13.9680   18.9900 C   0  0  0  0  0  0
   12.1040   14.6250   14.1880 C   0  0  0  0  0  0
   15.0530   14.8040   18.3060 C   0  0  0  0  0  0
   12.9440   13.9090   16.3200 C   0  0  0  0  0  0
   15.8410   15.2140   20.6960 C   0  0  0  0  0  0
   10.5260   13.3870   15.8030 C   0  0  0  0  0  0
   16.4250   13.6130   16.7300 C   0  0  0  0  0  0
   14.4070   15.0580   14.8080 C   0  0  0  0  0  0
   16.0450   14.6430   19.2880 C   0  0  0  0  0  0
   11.8880   13.9950   15.4130 C   0  0  0  0  0  0
   15.2300   14.2980   17.0100 C   0  0  0  0  0  0
   14.2120   14.4360   16.0430 C   0  0  0  0  0  0
   13.9458   16.9998   21.1624 H   0  0  0  0  0  0
   12.6314   15.7324   21.7063 H   0  0  0  0  0  0
    7.4611   13.7962   14.5225 H   0  0  0  0  0  0
    7.9612   14.1638   16.2081 H   0  0  0  0  0  0
    7.9830   12.4686   15.6143 H   0  0  0  0  0  0
   17.5687   12.5587   15.2745 H   0  0  0  0  0  0
   15.7546   16.0698   13.5074 H   0  0  0  0  0  0
   14.2582   13.8852   21.3336 H   0  0  0  0  0  0
    9.7601   14.0489   13.8855 H   0  0  0  0  0  0
   18.3421   12.9310   17.4601 H   0  0  0  0  0  0
   13.5286   15.6422   12.9318 H   0  0  0  0  0  0
   18.0033   13.8437   19.7511 H   0  0  0  0  0  0
   11.2929   14.7057   13.4644 H   0  0  0  0  0  0
   14.1316   15.3303   18.5553 H   0  0  0  0  0  0
   12.7769   13.4148   17.2771 H   0  0  0  0  0  0
   15.9848   16.3042   20.6688 H   0  0  0  0  0  0
   16.5765   14.7641   21.3791 H   0  0  0  0  0  0
   10.3079   12.7696   16.6869 H   0  0  0  0  0  0
  1  5  2  0  0  0
  1 21  1  0  0  0
  1 22  1  0  0  0
  2  6  1  0  0  0
  2 23  1  0  0  0
  2 24  1  0  0  0
  2 25  1  0  0  0
  3 15  1  0  0  0
  3 26  1  0  0  0
  4 16  1  0  0  0
  4 27  1  0  0  0
  5 13  1  0  0  0
  5 28  1  0  0  0
  6 14  2  0  0  0
  6 29  1  0  0  0
  7  9  2  0  0  0
  7 15  1  0  0  0
  7 30  1  0  0  0
  8 10  2  0  0  0
  8 16  1  0  0  0
  8 31  1  0  0  0
  9 17  1  0  0  0
  9 32  1  0  0  0
 10 18  1  0  0  0
 10 33  1  0  0  0
 11 17  2  0  0  0
 11 19  1  0  0  0
 11 34  1  0  0  0
 12 18  2  0  0  0
 12 20  1  0  0  0
 12 35  1  0  0  0
 13 17  1  0  0  0
 13 36  1  0  0  0
 13 37  1  0  0  0
 14 18  1  0  0  0
 14 38  1  0  0  0
 15 19  2  0  0  0
 16 20  2  0  0  0
 19 20  1  0  0  0
M  END
> <s_m_source_file>
../3r5m_ligand.sdf

> <i_m_source_file_index>
1

> <s_epik_input>
W09IXWMxW2NIXVtjSF1jKFtDSDJdW0NIXT1bQ0gyXSlbY0hdYzEtYzJbY0hdYyhcW0NIXT1bQ0hdXFtDSDNdKVtjSF1bY0hdYzJbT0hd

> <s_epik_cmdline>
J2VwaWtfYXBwJywgJy1pbWFlJywgJ2xpZ2FuZF9wcm8ubWFlJywgJy1vbWFlJywgJ2xpZ2FuZF9wcmVwLm1hZScsICctbXMnLCAnMScsICctcGgnLCAnNycsICctcGh0JywgJzAuNScsICctbnQn

> <r_lp_tautomer_probability>
0.999999999997365

> <r_epik_Ionization_Penalty>
  0.1382

> <r_epik_Ionization_Penalty_Charging>
  0.0000

> <r_epik_Ionization_Penalty_Neutral>
  0.1382

> <r_epik_State_Penalty>
  0.1168

> <r_epik_Charging_Adjusted_Penalty>
0.116776137190568

> <i_epik_Tot_Q>
0

> <i_epik_Tot_abs_Q>
0

$$$$
