3r5n_ligand
                    3D
 Schrodinger Suite 2020-3.
 38 39  0  0  1  0            999 V2000
   58.3740   24.1550    5.8280 C   0  0  0  0  0  0
   60.7620   21.5720   -1.4050 C   0  0  0  0  0  0
   53.1630   22.1590    1.6200 O   0  0  0  0  0  0
   53.6190   23.5760   -0.2160 O   0  0  0  0  0  0
   57.0530   23.9580    6.2130 C   0  0  0  0  0  0
   59.6780   21.8450   -0.5770 C   0  0  0  0  0  0
   53.3650   22.8510    3.8690 C   0  0  0  0  0  0
   55.6290   23.4570   -1.4350 C   0  0  0  0  0  0
   54.0600   23.4940    4.8880 C   0  0  0  0  0  0
   57.0160   23.3560   -1.5000 C   0  0  0  0  0  0
   55.8090   24.0430    3.3120 C   0  0  0  0  0  0
   57.1000   23.2870    0.9120 C   0  0  0  0  0  0
   56.0550   24.7970    5.7260 C   0  0  0  0  0  0
   59.2830   23.1630   -0.3790 C   0  0  0  0  0  0
   53.8870   22.8010    2.5750 C   0  0  0  0  0  0
   54.9750   23.4760   -0.2030 C   0  0  0  0  0  0
   55.2860   24.0890    4.6080 C   0  0  0  0  0  0
   57.7540   23.2690   -0.3210 C   0  0  0  0  0  0
   55.1190   23.4030    2.2760 C   0  0  0  0  0  0
   55.7060   23.3850    0.9940 C   0  0  0  0  0  0
   58.6299   24.9734    5.1390 H   0  0  0  0  0  0
   59.1635   23.4925    6.2123 H   0  0  0  0  0  0
   61.2994   22.3960   -1.8972 H   0  0  0  0  0  0
   61.0817   20.5321   -1.5676 H   0  0  0  0  0  0
   52.2000   21.6949    1.8791 H   0  0  0  0  0  0
   53.0818   23.6453   -1.1734 H   0  0  0  0  0  0
   56.7971   23.1396    6.9020 H   0  0  0  0  0  0
   59.1406   21.0210   -0.0848 H   0  0  0  0  0  0
   52.4045   22.3821    4.0826 H   0  0  0  0  0  0
   55.0487   23.5218   -2.3554 H   0  0  0  0  0  0
   53.6479   23.5313    5.8964 H   0  0  0  0  0  0
   57.5210   23.3450   -2.4659 H   0  0  0  0  0  0
   56.7702   24.5135    3.1051 H   0  0  0  0  0  0
   57.6861   23.2235    1.8288 H   0  0  0  0  0  0
   55.3612   25.0527    6.5404 H   0  0  0  0  0  0
   56.5101   25.7167    5.3297 H   0  0  0  0  0  0
   59.7008   23.5325    0.5691 H   0  0  0  0  0  0
   59.6508   23.7846   -1.2087 H   0  0  0  0  0  0
  1  5  2  0  0  0
  1 21  1  0  0  0
  1 22  1  0  0  0
  2  6  2  0  0  0
  2 23  1  0  0  0
  2 24  1  0  0  0
  3 15  1  0  0  0
  3 25  1  0  0  0
  4 16  1  0  0  0
  4 26  1  0  0  0
  5 13  1  0  0  0
  5 27  1  0  0  0
  6 14  1  0  0  0
  6 28  1  0  0  0
  7  9  2  0  0  0
  7 15  1  0  0  0
  7 29  1  0  0  0
  8 10  2  0  0  0
  8 16  1  0  0  0
  8 30  1  0  0  0
  9 17  1  0  0  0
  9 31  1  0  0  0
 10 18  1  0  0  0
 10 32  1  0  0  0
 11 17  2  0  0  0
 11 19  1  0  0  0
 11 33  1  0  0  0
 12 18  2  0  0  0
 12 20  1  0  0  0
 12 34  1  0  0  0
 13 17  1  0  0  0
 13 35  1  0  0  0
 13 36  1  0  0  0
 14 18  1  0  0  0
 14 37  1  0  0  0
 14 38  1  0  0  0
 15 19  2  0  0  0
 16 20  2  0  0  0
 19 20  1  0  0  0
M  END
> <s_m_source_file>
../3r5n_ligand.sdf

> <i_m_source_file_index>
1

> <s_epik_input>
W09IXWMxW2NIXVtjSF1jKFtDSDJdW0NIXT1bQ0gyXSlbY0hdYzEtYzJbY0hdYyhbQ0gyXVtDSF09W0NIMl0pW2NIXVtjSF1jMltPSF0=

> <s_epik_cmdline>
J2VwaWtfYXBwJywgJy1pbWFlJywgJ2xpZ2FuZF9wcm8ubWFlJywgJy1vbWFlJywgJ2xpZ2FuZF9wcmVwLm1hZScsICctbXMnLCAnMScsICctcGgnLCAnNycsICctcGh0JywgJzAuNScsICctbnQn

> <r_lp_tautomer_probability>
0.99999999999473

> <r_epik_Ionization_Penalty>
  0.0889

> <r_epik_Ionization_Penalty_Charging>
  0.0000

> <r_epik_Ionization_Penalty_Neutral>
  0.0889

> <r_epik_State_Penalty>
  0.0793

> <r_epik_Charging_Adjusted_Penalty>
0.0793332105473706

> <i_epik_Tot_Q>
0

> <i_epik_Tot_abs_Q>
0

$$$$
