3r5t_ligand
                    3D
 Schrodinger Suite 2020-3.
 94 98  0  0  1  0            999 V2000
   24.5880   18.1150    4.4830 C   0  0  0  0  0  0
   23.5680   16.0490    5.5380 N   0  0  1  0  0  0
   23.7480   18.8300    4.9180 O   0  0  0  0  0  0
   24.4350   16.6000    4.5110 C   0  0  1  0  0  0
   23.7880   15.9960    3.2080 C   0  0  2  0  0  0
   31.6920   13.4670    5.9410 C   0  0  0  0  0  0
   26.6840   21.5390    8.2820 O   0  0  0  0  0  0
   28.4330   14.8660    3.0410 O   0  0  0  0  0  0
   24.5380   16.0830    9.6450 O   0  0  0  0  0  0
   19.8890   15.5960    9.2380 O   0  0  0  0  0  0
   23.7350   13.7270    7.8980 O   0  0  0  0  0  0
   25.0470   17.7270    7.6150 O   0  0  0  0  0  0
   22.1520   16.0780    7.8070 O   0  0  0  0  0  0
   25.9470   14.8430    6.7870 O   0  0  0  0  0  0
   25.7900   19.0580   11.5350 C   0  0  0  0  0  0
   18.7800   14.9170    5.7460 C   0  0  0  0  0  0
   25.9600   10.7690    7.5600 C   0  0  0  0  0  0
   25.2650   17.7460   11.2820 C   0  0  0  0  0  0
   18.7450   15.0430    7.1640 C   0  0  0  0  0  0
   24.8130   11.5520    7.9160 C   0  0  0  0  0  0
   26.0660   19.9600   10.4430 C   0  0  0  0  0  0
   19.9530   15.1990    5.0310 C   0  0  0  0  0  0
   27.0740   11.3680    6.9180 C   0  0  0  0  0  0
   26.3850   21.0030    4.4690 C   0  0  0  0  0  0
   27.9980   18.4930    2.6540 C   0  0  0  0  0  0
   25.5500   21.3430    5.7150 C   0  0  0  0  0  0
   29.1610   17.5450    2.2790 C   0  0  0  0  0  0
   25.6990   20.1030    3.4390 C   0  0  0  0  0  0
   26.7170   17.7870    3.1300 C   0  0  0  0  0  0
   25.4740   20.3190    6.7540 N   0  0  0  0  0  0
   29.6490   16.8290    3.4560 N   0  0  0  0  0  0
   28.4530   14.7520    6.0410 N   0  0  1  0  0  0
   29.3320   12.6080    5.6890 O   0  0  0  0  0  0
   26.0790   20.5530    8.0450 C   0  0  0  0  0  0
   29.1810   15.4720    3.7530 C   0  0  0  0  0  0
   22.2540   16.0610    4.9500 C   0  0  2  0  0  0
   25.0200   17.3400    9.9380 C   0  0  0  0  0  0
   19.8930   15.4610    7.8620 C   0  0  0  0  0  0
   24.8200   12.9130    7.6200 C   0  0  0  0  0  0
   25.2730   18.1910    8.9020 C   0  0  0  0  0  0
   21.0020   15.7270    7.1690 C   0  0  0  0  0  0
   25.8980   13.4850    7.0000 C   0  0  0  0  0  0
   25.8220   19.5570    9.1700 C   0  0  0  0  0  0
   21.0450   15.5700    5.7070 C   0  0  0  0  0  0
   27.0790   12.6870    6.6560 C   0  0  0  0  0  0
   30.3810   13.5390    5.1780 C   0  0  1  0  0  0
   28.1730   13.3600    5.8770 C   0  0  1  0  0  0
   29.5840   14.9360    5.1210 C   0  0  2  0  0  0
   25.7080   18.6660    3.7290 N   0  0  0  0  0  0
   22.3390   15.8810    3.5530 O   0  0  0  0  0  0
   24.4690   14.8080    2.5470 C   0  0  0  0  0  0
   23.8958   15.0287    5.7859 H   0  0  0  0  0  0
   25.4745   16.3250    4.7432 H   0  0  0  0  0  0
   23.8975   16.6286    2.3148 H   0  0  0  0  0  0
   32.0978   12.4466    5.8771 H   0  0  0  0  0  0
   31.5172   13.7268    6.9955 H   0  0  0  0  0  0
   32.4105   14.1755    5.5030 H   0  0  0  0  0  0
   24.3238   15.3729   10.4574 H   0  0  0  0  0  0
   18.9750   15.3768    9.8095 H   0  0  0  0  0  0
   22.8472   13.3093    8.3953 H   0  0  0  0  0  0
   24.6422   16.7163    7.4579 H   0  0  0  0  0  0
   22.1582   16.2046    8.8997 H   0  0  0  0  0  0
   25.0779   15.4702    7.0344 H   0  0  0  0  0  0
   25.9816   19.3753   12.5600 H   0  0  0  0  0  0
   17.8857   14.5980    5.2107 H   0  0  0  0  0  0
   25.9762    9.7026    7.7850 H   0  0  0  0  0  0
   25.0560   17.0675   12.1091 H   0  0  0  0  0  0
   17.8287   14.8156    7.7088 H   0  0  0  0  0  0
   23.9551   11.0927    8.4071 H   0  0  0  0  0  0
   26.4663   20.9548   10.6384 H   0  0  0  0  0  0
   19.9739   15.1172    3.9443 H   0  0  0  0  0  0
   27.9306   10.7559    6.6355 H   0  0  0  0  0  0
   26.6503   21.9308    3.9411 H   0  0  0  0  0  0
   27.3030   20.4796    4.7744 H   0  0  0  0  0  0
   28.3156   19.1575    3.4710 H   0  0  0  0  0  0
   27.7198   19.0967    1.7775 H   0  0  0  0  0  0
   25.9686   22.2346    6.2048 H   0  0  0  0  0  0
   24.5103   21.5428    5.4164 H   0  0  0  0  0  0
   28.8114   16.8111    1.5379 H   0  0  0  0  0  0
   29.9887   18.1308    1.8526 H   0  0  0  0  0  0
   24.6404   20.3885    3.3499 H   0  0  0  0  0  0
   26.1935   20.2193    2.4633 H   0  0  0  0  0  0
   26.2333   17.2901    2.2761 H   0  0  0  0  0  0
   26.9734   17.0375    3.8933 H   0  0  0  0  0  0
   24.9561   19.3695    6.5536 H   0  0  0  0  0  0
   30.3749   17.3081    4.1295 H   0  0  0  0  0  0
   27.5661   15.3398    5.7619 H   0  0  0  0  0  0
   21.9600   17.1179    5.0305 H   0  0  0  0  0  0
   30.8054   13.2264    4.2125 H   0  0  0  0  0  0
   27.7162   13.4037    4.8773 H   0  0  0  0  0  0
   30.1903   15.7956    5.4426 H   0  0  0  0  0  0
   25.5256   15.0492    2.3586 H   0  0  0  0  0  0
   23.9688   14.5824    1.5936 H   0  0  0  0  0  0
   24.4053   13.9330    3.2106 H   0  0  0  0  0  0
  1  3  2  0  0  0
  1  4  1  0  0  0
  1 49  1  0  0  0
  2  4  1  0  0  0
  2 36  1  0  0  0
  2 52  1  0  0  0
  4  5  1  0  0  0
  4 53  1  0  0  0
  5 50  1  0  0  0
  5 51  1  0  0  0
  5 54  1  0  0  0
  6 46  1  0  0  0
  6 55  1  0  0  0
  6 56  1  0  0  0
  6 57  1  0  0  0
  7 34  2  0  0  0
  8 35  2  0  0  0
  9 37  1  0  0  0
  9 58  1  0  0  0
 10 38  1  0  0  0
 10 59  1  0  0  0
 11 39  1  0  0  0
 11 60  1  0  0  0
 12 40  1  0  0  0
 12 61  1  0  0  0
 13 41  1  0  0  0
 13 62  1  0  0  0
 14 42  1  0  0  0
 14 63  1  0  0  0
 15 18  2  0  0  0
 15 21  1  0  0  0
 15 64  1  0  0  0
 16 19  2  0  0  0
 16 22  1  0  0  0
 16 65  1  0  0  0
 17 20  2  0  0  0
 17 23  1  0  0  0
 17 66  1  0  0  0
 18 37  1  0  0  0
 18 67  1  0  0  0
 19 38  1  0  0  0
 19 68  1  0  0  0
 20 39  1  0  0  0
 20 69  1  0  0  0
 21 43  2  0  0  0
 21 70  1  0  0  0
 22 44  2  0  0  0
 22 71  1  0  0  0
 23 45  2  0  0  0
 23 72  1  0  0  0
 24 26  1  0  0  0
 24 28  1  0  0  0
 24 73  1  0  0  0
 24 74  1  0  0  0
 25 27  1  0  0  0
 25 29  1  0  0  0
 25 75  1  0  0  0
 25 76  1  0  0  0
 26 30  1  0  0  0
 26 77  1  0  0  0
 26 78  1  0  0  0
 27 31  1  0  0  0
 27 79  1  0  0  0
 27 80  1  0  0  0
 28 49  1  0  0  0
 28 81  1  0  0  0
 28 82  1  0  0  0
 29 49  1  0  0  0
 29 83  1  0  0  0
 29 84  1  0  0  0
 30 34  1  0  0  0
 30 85  1  0  0  0
 31 35  1  0  0  0
 31 86  1  0  0  0
 32 47  1  0  0  0
 32 48  1  0  0  0
 32 87  1  0  0  0
 33 46  1  0  0  0
 33 47  1  0  0  0
 34 43  1  0  0  0
 35 48  1  0  0  0
 36 44  1  0  0  0
 36 50  1  0  0  0
 36 88  1  0  0  0
 37 40  2  0  0  0
 38 41  2  0  0  0
 39 42  2  0  0  0
 40 43  1  0  0  0
 41 44  1  0  0  0
 42 45  1  0  0  0
 45 47  1  0  0  0
 46 48  1  0  0  0
 46 89  1  0  0  0
 47 90  1  0  0  0
 48 91  1  0  0  0
 51 92  1  0  0  0
 51 93  1  0  0  0
 51 94  1  0  0  0
M  END
> <s_m_source_file>
../3r5t_ligand.sdf

> <i_m_source_file_index>
1

> <s_epik_input>
W09IXWMxW2NIXVtjSF1bY0hdYyhjMVtPSF0pQyg9TylbTkhdW0NIMl1bQ0gyXVtDSDJdTihDKD1PKVtDQEhdMltOSDIrXVtDQEBIXShPW0NAQEhdMltDSDNdKWMoYzNbT0hdKVtjSF1bY0hdW2NIXWMzW09IXSlbQ0gyXVtDSDJdW0NIMl1bTkhdQyg9TylbQ0BIXTRbTkgyK11bQ0BASF0oT1tDQEBIXTRbQ0gzXSljKGM1W09IXSlbY0hdW2NIXVtjSF1jNVtPSF0=

> <s_epik_cmdline>
J2VwaWtfYXBwJywgJy1pbWFlJywgJ2xpZ2FuZF9wcm8ubWFlJywgJy1vbWFlJywgJ2xpZ2FuZF9wcmVwLm1hZScsICctbXMnLCAnMScsICctcGgnLCAnNycsICctcGh0JywgJzAuNScsICctbnQn

> <r_lp_tautomer_probability>
0.999999999999328

> <r_epik_Ionization_Penalty>
  0.0420

> <r_epik_Ionization_Penalty_Charging>
  0.0000

> <r_epik_Ionization_Penalty_Neutral>
  0.0420

> <r_epik_State_Penalty>
  0.0261

> <r_epik_Charging_Adjusted_Penalty>
0.0260771154403747

> <i_epik_Tot_Q>
0

> <i_epik_Tot_abs_Q>
0

> <s_epik_Chemistry_Notes>
This compound contains an acetal/aminal-like group ( X-CH(R)-Y where X, Y are N, S, or O) that may be acid/base labile, releasing an aldehyde.

$$$$
