3r6c_ligand
                    3D
 Schrodinger Suite 2020-3.
 35 38  0  0  1  0            999 V2000
   10.3760   -6.1330   24.6970 C   0  0  0  0  0  0
    2.6230   -4.8880   30.0280 O   0  0  0  0  0  0
    4.1220   -4.1620   27.6140 O   0  5  0  0  0  0
    2.8150   -6.6300   28.6580 O   0  5  0  0  0  0
    4.3780   -5.9230   25.9140 O   0  0  0  0  0  0
   10.5520   -7.1870   28.7120 C   0  0  0  0  0  0
   10.5110   -6.7710   27.3790 C   0  0  0  0  0  0
    9.4060   -7.1530   29.5060 C   0  0  0  0  0  0
    4.7010   -6.6210   31.2930 C   0  0  0  0  0  0
    6.9980   -5.8390   27.0790 C   0  0  0  0  0  0
    7.5680   -7.2840   33.2050 C   0  0  0  0  0  0
    9.2160   -5.8790   25.5240 O   0  0  0  0  0  0
    6.1660   -7.5030   33.0910 O   0  0  0  0  0  0
    8.0440   -7.5620   31.8670 O   0  0  0  0  0  0
    3.2760   -5.8030   29.4990 C   0  0  0  0  0  0
    5.8870   -7.0600   31.8450 C   0  0  0  0  0  0
    9.3170   -6.3130   26.8290 C   0  0  0  0  0  0
    4.6620   -6.1910   29.9830 C   0  0  0  0  0  0
    5.8260   -5.8060   27.8130 C   0  0  0  0  0  0
    7.0390   -7.0930   31.0760 C   0  0  0  0  0  0
    8.1780   -6.2880   27.6360 C   0  0  0  0  0  0
    8.1990   -6.7000   28.9710 C   0  0  0  0  0  0
    5.8130   -6.2150   29.1690 C   0  0  0  0  0  0
    7.0200   -6.6620   29.7410 C   0  0  0  0  0  0
    4.7720   -5.3390   27.1420 C   0  0  0  0  0  0
   10.1935   -5.7505   23.6819 H   0  0  0  0  0  0
   10.5645   -7.2158   24.6524 H   0  0  0  0  0  0
   11.2517   -5.6258   25.1280 H   0  0  0  0  0  0
   11.4909   -7.5424   29.1366 H   0  0  0  0  0  0
   11.4140   -6.8050   26.7695 H   0  0  0  0  0  0
    9.4529   -7.4803   30.5447 H   0  0  0  0  0  0
    3.7918   -6.6140   31.8942 H   0  0  0  0  0  0
    6.9893   -5.5042   26.0417 H   0  0  0  0  0  0
    7.7528   -6.2447   33.5145 H   0  0  0  0  0  0
    7.9864   -7.9701   33.9561 H   0  0  0  0  0  0
  1 12  1  0  0  0
  1 26  1  0  0  0
  1 27  1  0  0  0
  1 28  1  0  0  0
  2 15  2  0  0  0
  3 25  1  0  0  0
  4 15  1  0  0  0
  5 25  2  0  0  0
  6  7  2  0  0  0
  6  8  1  0  0  0
  6 29  1  0  0  0
  7 17  1  0  0  0
  7 30  1  0  0  0
  8 22  2  0  0  0
  8 31  1  0  0  0
  9 16  2  0  0  0
  9 18  1  0  0  0
  9 32  1  0  0  0
 10 19  2  0  0  0
 10 21  1  0  0  0
 10 33  1  0  0  0
 11 13  1  0  0  0
 11 14  1  0  0  0
 11 34  1  0  0  0
 11 35  1  0  0  0
 12 17  1  0  0  0
 13 16  1  0  0  0
 14 20  1  0  0  0
 15 18  1  0  0  0
 16 20  1  0  0  0
 17 21  2  0  0  0
 18 23  2  0  0  0
 19 23  1  0  0  0
 19 25  1  0  0  0
 20 24  2  0  0  0
 21 22  1  0  0  0
 22 24  1  0  0  0
 23 24  1  0  0  0
M  CHG  2   3  -1   4  -1
M  END
> <s_m_source_file>
../3r6c_ligand.sdf

> <i_m_source_file_index>
1

> <s_epik_input>
TzFbQ0gyXU9jKGMxMiljM2M0YyhjKE9bQ0gzXSlbY0hdW2NIXVtjSF00KVtjSF1jKEMoPU8pW09IXSljM2MoW2NIXTIpQyg9TylbT0hd

> <s_epik_cmdline>
J2VwaWtfYXBwJywgJy1pbWFlJywgJ2xpZ2FuZF9wcm8ubWFlJywgJy1vbWFlJywgJ2xpZ2FuZF9wcmVwLm1hZScsICctbXMnLCAnMScsICctcGgnLCAnNycsICctcGh0JywgJzAuNScsICctbnQn

> <r_lp_tautomer_probability>
1

> <r_epik_Ionization_Penalty>
  0.0006

> <r_epik_Ionization_Penalty_Charging>
  0.0006

> <r_epik_Ionization_Penalty_Neutral>
  0.0000

> <r_epik_State_Penalty>
 -0.0000

> <r_epik_Charging_Adjusted_Penalty>
0.000601142379717259

> <i_epik_Tot_Q>
-2

> <i_epik_Tot_abs_Q>
2

> <s_epik_Chemistry_Notes>
This compound contains an acetal/aminal-like group ( X-CH(R)-Y where X, Y are N, S, or O) that may be acid/base labile, releasing an aldehyde.

$$$$
