3r6g_ligand
                    3D
 Schrodinger Suite 2020-3.
 73 72  0  0  1  0            999 V2000
  -13.2770   -6.3160   42.7570 C   0  0  0  0  0  0
  -12.6340   -7.0220   43.5370 O   0  0  0  0  0  0
  -13.8290   -4.9800   43.1880 C   0  0  0  0  0  0
  -13.7050   -6.7720   41.5800 N   0  0  0  0  0  0
  -13.0180   -7.8550   40.8730 C   0  0  2  0  0  0
  -12.4230   -7.4290   39.5220 C   0  0  0  0  0  0
  -12.8720   -6.4580   38.9150 O   0  0  0  0  0  0
  -13.9300   -9.0960   40.6700 C   0  0  0  0  0  0
  -14.5220   -9.5700   42.0260 C   0  0  0  0  0  0
  -15.0140   -8.8380   39.6260 C   0  0  0  0  0  0
  -11.4340   -8.2000   39.0680 N   0  0  0  0  0  0
  -10.7450   -7.9630   37.7970 C   0  0  2  0  0  0
  -11.4420   -8.6030   36.5890 C   0  0  0  0  0  0
  -11.7840   -9.7870   36.6230 O   0  0  0  0  0  0
   -9.2900   -8.3880   37.9470 C   0  0  0  0  0  0
   -8.5230   -7.4380   38.8240 C   0  0  0  0  0  0
   -8.8210   -6.2350   38.6890 O   0  0  0  0  0  0
   -7.6400   -7.8430   39.6340 O   0  5  0  0  0  0
  -11.6880   -7.8250   35.5430 N   0  0  0  0  0  0
  -12.2980   -8.3430   34.2960 C   0  0  2  0  0  0
  -11.5600   -7.8390   33.0520 C   0  0  0  0  0  0
  -10.7530   -6.9090   33.1410 O   0  0  0  0  0  0
  -13.8230   -7.9960   34.1620 C   0  0  0  0  0  0
  -14.6360   -8.4880   35.3870 C   0  0  0  0  0  0
  -14.0580   -6.4960   33.8830 C   0  0  0  0  0  0
  -11.8570   -8.4410   31.9010 N   0  0  0  0  0  0
  -11.2070   -8.1140   30.6100 C   0  0  2  0  0  0
  -11.8300   -6.9550   29.8180 C   0  0  0  0  0  0
  -13.0450   -6.9190   29.6210 O   0  0  0  0  0  0
  -11.1700   -9.3590   29.7110 C   0  0  0  0  0  0
  -10.9840   -6.0520   29.3130 N   0  0  0  0  0  0
  -11.4130   -5.0080   28.3720 C   0  0  2  0  0  0
  -11.6080   -5.5140   26.9430 C   0  0  0  0  0  0
  -11.4983   -4.7492   25.9477 O   0  0  0  0  0  0
  -10.4380   -3.8240   28.3840 C   0  0  0  0  0  0
  -10.9660   -2.6570   29.1980 C   0  0  0  0  0  0
  -10.1440   -1.8150   29.6120 O   0  0  0  0  0  0
  -12.2060   -2.6150   29.4200 O   0  5  0  0  0  0
  -11.8859   -6.7286   26.7553 O   0  5  0  0  0  0
  -13.4079   -4.7079   44.1671 H   0  0  0  0  0  0
  -14.9245   -5.0434   43.2648 H   0  0  0  0  0  0
  -13.5571   -4.2144   42.4464 H   0  0  0  0  0  0
  -14.6017   -6.3105   41.1409 H   0  0  0  0  0  0
  -12.1942   -8.0749   41.5680 H   0  0  0  0  0  0
  -13.3202   -9.9141   40.2590 H   0  0  0  0  0  0
  -13.7053   -9.7420   42.7425 H   0  0  0  0  0  0
  -15.0806  -10.5055   41.8752 H   0  0  0  0  0  0
  -15.1992   -8.7980   42.4203 H   0  0  0  0  0  0
  -14.5471   -8.5058   38.6870 H   0  0  0  0  0  0
  -15.6972   -8.0574   39.9920 H   0  0  0  0  0  0
  -15.5786   -9.7649   39.4469 H   0  0  0  0  0  0
  -11.1419   -9.0503   39.7018 H   0  0  0  0  0  0
  -10.8025   -6.8789   37.6196 H   0  0  0  0  0  0
   -9.2454   -9.3900   38.3987 H   0  0  0  0  0  0
   -8.8106   -8.4103   36.9572 H   0  0  0  0  0  0
  -11.4224   -6.7607   35.6245 H   0  0  0  0  0  0
  -12.1576   -9.4290   34.3999 H   0  0  0  0  0  0
  -14.2108   -8.5334   33.2840 H   0  0  0  0  0  0
  -14.4407   -9.5581   35.5509 H   0  0  0  0  0  0
  -15.7092   -8.3355   35.2000 H   0  0  0  0  0  0
  -14.3348   -7.9195   36.2792 H   0  0  0  0  0  0
  -13.4650   -6.1883   33.0092 H   0  0  0  0  0  0
  -13.7511   -5.9074   34.7601 H   0  0  0  0  0  0
  -15.1254   -6.3235   33.6809 H   0  0  0  0  0  0
  -12.6323   -9.2201   31.9446 H   0  0  0  0  0  0
  -10.2096   -7.7807   30.9328 H   0  0  0  0  0  0
  -10.7256  -10.1986   30.2656 H   0  0  0  0  0  0
  -10.5641   -9.1481   28.8174 H   0  0  0  0  0  0
  -12.1938   -9.6217   29.4063 H   0  0  0  0  0  0
   -9.9314   -6.1107   29.6269 H   0  0  0  0  0  0
  -12.3982   -4.7098   28.7599 H   0  0  0  0  0  0
   -9.4806   -4.1419   28.8226 H   0  0  0  0  0  0
  -10.2717   -3.4755   27.3540 H   0  0  0  0  0  0
  1  2  2  0  0  0
  1  3  1  0  0  0
  1  4  1  0  0  0
  3 40  1  0  0  0
  3 41  1  0  0  0
  3 42  1  0  0  0
  4  5  1  0  0  0
  4 43  1  0  0  0
  5  6  1  0  0  0
  5  8  1  0  0  0
  5 44  1  0  0  0
  6  7  2  0  0  0
  6 11  1  0  0  0
  8  9  1  0  0  0
  8 10  1  0  0  0
  8 45  1  0  0  0
  9 46  1  0  0  0
  9 47  1  0  0  0
  9 48  1  0  0  0
 10 49  1  0  0  0
 10 50  1  0  0  0
 10 51  1  0  0  0
 11 12  1  0  0  0
 11 52  1  0  0  0
 12 13  1  0  0  0
 12 15  1  0  0  0
 12 53  1  0  0  0
 13 14  2  0  0  0
 13 19  1  0  0  0
 15 16  1  0  0  0
 15 54  1  0  0  0
 15 55  1  0  0  0
 16 17  2  0  0  0
 16 18  1  0  0  0
 19 20  1  0  0  0
 19 56  1  0  0  0
 20 21  1  0  0  0
 20 23  1  0  0  0
 20 57  1  0  0  0
 21 22  2  0  0  0
 21 26  1  0  0  0
 23 24  1  0  0  0
 23 25  1  0  0  0
 23 58  1  0  0  0
 24 59  1  0  0  0
 24 60  1  0  0  0
 24 61  1  0  0  0
 25 62  1  0  0  0
 25 63  1  0  0  0
 25 64  1  0  0  0
 26 27  1  0  0  0
 26 65  1  0  0  0
 27 28  1  0  0  0
 27 30  1  0  0  0
 27 66  1  0  0  0
 28 29  2  0  0  0
 28 31  1  0  0  0
 30 67  1  0  0  0
 30 68  1  0  0  0
 30 69  1  0  0  0
 31 32  1  0  0  0
 31 70  1  0  0  0
 32 33  1  0  0  0
 32 35  1  0  0  0
 32 71  1  0  0  0
 33 34  2  0  0  0
 33 39  1  0  0  0
 35 36  1  0  0  0
 35 72  1  0  0  0
 35 73  1  0  0  0
 36 37  2  0  0  0
 36 38  1  0  0  0
M  CHG  3  18  -1  38  -1  39  -1
M  END
> <s_m_source_file>
../3r6g_ligand.sdf

> <i_m_source_file_index>
1

> <s_epik_input>
Tz1DKFtDSDNdKVtOSF1bQ0BASF0oW0NIXShbQ0gzXSlbQ0gzXSlDKD1PKVtOSF1bQ0BASF0oW0NIMl1DKD1PKVtPSF0pQyg9TylbTkhdW0NAQEhdKFtDSF0oW0NIM10pW0NIM10pQyg9TylbTkhdW0NAQEhdKFtDSDNdKUMoPU8pW05IXVtDQEhdKEMoPU8pW09IXSlbQ0gyXUMoPU8pW09IXQ==

> <s_epik_cmdline>
J2VwaWtfYXBwJywgJy1pbWFlJywgJ2xpZ2FuZF9wcm8ubWFlJywgJy1vbWFlJywgJ2xpZ2FuZF9wcmVwLm1hZScsICctbXMnLCAnMScsICctcGgnLCAnNycsICctcGh0JywgJzAuNScsICctbnQn

> <r_lp_tautomer_probability>
1

> <r_epik_Ionization_Penalty>
  0.0028

> <r_epik_Ionization_Penalty_Charging>
  0.0028

> <r_epik_Ionization_Penalty_Neutral>
  0.0000

> <r_epik_State_Penalty>
 -0.0000

> <r_epik_Charging_Adjusted_Penalty>
0.00276573015821167

> <i_epik_Tot_Q>
-3

> <i_epik_Tot_abs_Q>
3

$$$$
