3r7b_ligand
                    3D
 Schrodinger Suite 2020-3.
 57 56  0  0  1  0            999 V2000
    5.1070   27.4120   28.5460 C   0  0  0  0  0  0
    5.2410   27.0350   27.3770 O   0  0  0  0  0  0
    6.0190   28.4490   29.1600 C   0  0  0  0  0  0
    4.0790   27.0000   29.2820 N   0  0  0  0  0  0
    3.1470   25.9940   28.7640 C   0  0  2  0  0  0
    2.0840   26.6540   27.8940 C   0  0  0  0  0  0
    1.5480   27.7050   28.2540 O   0  0  0  0  0  0
    2.5180   25.1930   29.9150 C   0  0  0  0  0  0
    3.5360   24.3390   30.6440 C   0  0  0  0  0  0
    4.2870   23.5980   29.9640 O   0  0  0  0  0  0
    3.5900   24.3900   31.8980 O   0  5  0  0  0  0
    1.8130   26.0540   26.7320 N   0  0  0  0  0  0
    0.7870   26.5370   25.8000 C   0  0  2  0  0  0
   -0.0220   25.3310   25.2800 C   0  0  0  0  0  0
    0.4060   24.1880   25.4540 O   0  0  0  0  0  0
    1.4060   27.3230   24.5970 C   0  0  0  0  0  0
    2.2480   28.5330   25.0830 C   0  0  0  0  0  0
    2.2590   26.4290   23.7440 C   0  0  0  0  0  0
   -1.1500   25.5890   24.6090 N   0  0  0  0  0  0
   -2.0060   24.5030   24.0770 C   0  0  2  0  0  0
   -1.7110   24.1080   22.6330 C   0  0  0  0  0  0
   -1.4690   24.9700   21.7880 O   0  0  0  0  0  0
   -3.4790   24.8890   24.2040 C   0  0  0  0  0  0
   -1.7690   22.8070   22.3490 N   0  0  0  0  0  0
   -1.7000   22.2840   20.9790 C   0  0  2  0  0  0
   -3.0250   22.3640   20.2070 C   0  0  0  0  0  0
   -3.3803   21.4522   19.4133 O   0  5  0  0  0  0
   -1.2020   20.8400   20.9870 C   0  0  0  0  0  0
    0.2450   20.7340   20.5920 C   0  0  0  0  0  0
    0.8660   19.7140   20.9550 O   0  0  0  0  0  0
    0.7390   21.6790   19.9210 O   0  5  0  0  0  0
   -3.7738   23.3640   20.3709 O   0  0  0  0  0  0
    6.8211   28.6984   28.4498 H   0  0  0  0  0  0
    6.4596   28.0483   30.0848 H   0  0  0  0  0  0
    5.4400   29.3550   29.3922 H   0  0  0  0  0  0
    3.9311   27.4208   30.2875 H   0  0  0  0  0  0
    3.7435   25.3151   28.1369 H   0  0  0  0  0  0
    2.0709   25.8862   30.6427 H   0  0  0  0  0  0
    1.7384   24.5277   29.5156 H   0  0  0  0  0  0
    2.4011   25.1575   26.4862 H   0  0  0  0  0  0
    0.1584   27.2160   26.3948 H   0  0  0  0  0  0
    0.5848   27.6817   23.9590 H   0  0  0  0  0  0
    1.6226   29.1876   25.7078 H   0  0  0  0  0  0
    2.6147   29.0976   24.2131 H   0  0  0  0  0  0
    3.1034   28.1713   25.6725 H   0  0  0  0  0  0
    1.6618   25.5717   23.3999 H   0  0  0  0  0  0
    3.1144   26.0671   24.3333 H   0  0  0  0  0  0
    2.6257   26.9933   22.8739 H   0  0  0  0  0  0
   -1.4364   26.6400   24.4561 H   0  0  0  0  0  0
   -1.7477   23.6389   24.7068 H   0  0  0  0  0  0
   -3.6949   25.1744   25.2442 H   0  0  0  0  0  0
   -4.1082   24.0324   23.9206 H   0  0  0  0  0  0
   -3.6942   25.7381   23.5386 H   0  0  0  0  0  0
   -1.8733   22.1147   23.1974 H   0  0  0  0  0  0
   -0.9807   22.9592   20.4925 H   0  0  0  0  0  0
   -1.3111   20.4201   21.9979 H   0  0  0  0  0  0
   -1.7938   20.2441   20.2766 H   0  0  0  0  0  0
  1  2  2  0  0  0
  1  3  1  0  0  0
  1  4  1  0  0  0
  3 33  1  0  0  0
  3 34  1  0  0  0
  3 35  1  0  0  0
  4  5  1  0  0  0
  4 36  1  0  0  0
  5  6  1  0  0  0
  5  8  1  0  0  0
  5 37  1  0  0  0
  6  7  2  0  0  0
  6 12  1  0  0  0
  8  9  1  0  0  0
  8 38  1  0  0  0
  8 39  1  0  0  0
  9 10  2  0  0  0
  9 11  1  0  0  0
 12 13  1  0  0  0
 12 40  1  0  0  0
 13 14  1  0  0  0
 13 16  1  0  0  0
 13 41  1  0  0  0
 14 15  2  0  0  0
 14 19  1  0  0  0
 16 17  1  0  0  0
 16 18  1  0  0  0
 16 42  1  0  0  0
 17 43  1  0  0  0
 17 44  1  0  0  0
 17 45  1  0  0  0
 18 46  1  0  0  0
 18 47  1  0  0  0
 18 48  1  0  0  0
 19 20  1  0  0  0
 19 49  1  0  0  0
 20 21  1  0  0  0
 20 23  1  0  0  0
 20 50  1  0  0  0
 21 22  2  0  0  0
 21 24  1  0  0  0
 23 51  1  0  0  0
 23 52  1  0  0  0
 23 53  1  0  0  0
 24 25  1  0  0  0
 24 54  1  0  0  0
 25 26  1  0  0  0
 25 28  1  0  0  0
 25 55  1  0  0  0
 26 27  1  0  0  0
 26 32  2  0  0  0
 28 29  1  0  0  0
 28 56  1  0  0  0
 28 57  1  0  0  0
 29 30  2  0  0  0
 29 31  1  0  0  0
M  CHG  3  11  -1  27  -1  31  -1
M  END
> <s_m_source_file>
../3r7b_ligand.sdf

> <i_m_source_file_index>
1

> <s_epik_input>
Tz1DKFtDSDNdKVtOSF1bQ0BASF0oW0NIMl1DKD1PKVtPSF0pQyg9TylbTkhdW0NAQEhdKFtDSF0oW0NIM10pW0NIM10pQyg9TylbTkhdW0NAQEhdKFtDSDNdKUMoPU8pW05IXVtDQEhdKEMoPU8pW09IXSlbQ0gyXUMoPU8pW09IXQ==

> <s_epik_cmdline>
J2VwaWtfYXBwJywgJy1pbWFlJywgJ2xpZ2FuZF9wcm8ubWFlJywgJy1vbWFlJywgJ2xpZ2FuZF9wcmVwLm1hZScsICctbXMnLCAnMScsICctcGgnLCAnNycsICctcGh0JywgJzAuNScsICctbnQn

> <r_lp_tautomer_probability>
1

> <r_epik_Ionization_Penalty>
  0.0029

> <r_epik_Ionization_Penalty_Charging>
  0.0029

> <r_epik_Ionization_Penalty_Neutral>
  0.0000

> <r_epik_State_Penalty>
 -0.0000

> <r_epik_Charging_Adjusted_Penalty>
0.00291089283753235

> <i_epik_Tot_Q>
-3

> <i_epik_Tot_abs_Q>
3

$$$$
