3r7n_ligand
                    3D
 Schrodinger Suite 2020-3.
 57 56  0  0  1  0            999 V2000
  -28.7920   15.0160   32.0030 C   0  0  0  0  0  0
  -29.2680   14.3810   31.0390 O   0  0  0  0  0  0
  -29.2510   16.4060   32.4220 C   0  0  0  0  0  0
  -27.6810   14.6040   32.6120 N   0  0  0  0  0  0
  -27.0230   13.3240   32.3280 C   0  0  2  0  0  0
  -27.7040   12.1660   33.0230 C   0  0  0  0  0  0
  -28.0940   12.2740   34.1920 O   0  0  0  0  0  0
  -25.5470   13.4460   32.7080 C   0  0  0  0  0  0
  -24.8280   14.4150   31.8180 C   0  0  0  0  0  0
  -24.9970   14.3120   30.5730 O   0  5  0  0  0  0
  -24.1120   15.2880   32.3310 O   0  0  0  0  0  0
  -27.8750   11.0630   32.2940 N   0  0  0  0  0  0
  -28.4440    9.8150   32.8210 C   0  0  2  0  0  0
  -27.6250    8.6490   32.2760 C   0  0  0  0  0  0
  -26.7860    8.8270   31.3990 O   0  0  0  0  0  0
  -29.9600    9.5970   32.4170 C   0  0  0  0  0  0
  -30.9190   10.6030   33.1370 C   0  0  0  0  0  0
  -30.1860    9.5770   30.8770 C   0  0  0  0  0  0
  -27.9050    7.4460   32.7670 N   0  0  0  0  0  0
  -27.2230    6.2110   32.3480 C   0  0  2  0  0  0
  -27.8770    5.4150   31.1760 C   0  0  0  0  0  0
  -29.1090    5.3010   31.0810 O   0  0  0  0  0  0
  -27.0870    5.3140   33.5620 C   0  0  0  0  0  0
  -27.0370    4.8560   30.2960 N   0  0  0  0  0  0
  -27.4640    3.8400   29.2910 C   0  0  2  0  0  0
  -27.6260    2.3880   29.8350 C   0  0  0  0  0  0
  -27.3885    1.3666   29.1365 O   0  0  0  0  0  0
  -26.5520    3.8790   28.0440 C   0  0  0  0  0  0
  -27.0720    4.8220   26.9700 C   0  0  0  0  0  0
  -26.2350    5.3480   26.2140 O   0  0  0  0  0  0
  -28.3110    5.0280   26.8730 O   0  5  0  0  0  0
  -28.0109    2.2290   31.0242 O   0  5  0  0  0  0
  -30.1691   16.6690   31.8762 H   0  0  0  0  0  0
  -28.4635   17.1379   32.1891 H   0  0  0  0  0  0
  -29.4520   16.4153   33.5034 H   0  0  0  0  0  0
  -27.2578   15.2848   33.3653 H   0  0  0  0  0  0
  -27.1316   13.1306   31.2506 H   0  0  0  0  0  0
  -25.4637   13.7996   33.7463 H   0  0  0  0  0  0
  -25.0621   12.4630   32.6155 H   0  0  0  0  0  0
  -27.5621   11.1233   31.2412 H   0  0  0  0  0  0
  -28.3494    9.9156   33.9123 H   0  0  0  0  0  0
  -30.2366    8.5907   32.7647 H   0  0  0  0  0  0
  -30.7247   10.5839   34.2195 H   0  0  0  0  0  0
  -31.9632   10.3142   32.9467 H   0  0  0  0  0  0
  -30.7430   11.6178   32.7507 H   0  0  0  0  0  0
  -29.4932    8.8589   30.4141 H   0  0  0  0  0  0
  -30.0021   10.5808   30.4664 H   0  0  0  0  0  0
  -31.2224    9.2772   30.6624 H   0  0  0  0  0  0
  -28.6973    7.4054   33.5290 H   0  0  0  0  0  0
  -26.2557    6.5802   31.9764 H   0  0  0  0  0  0
  -26.6257    5.8789   34.3855 H   0  0  0  0  0  0
  -26.4543    4.4500   33.3105 H   0  0  0  0  0  0
  -28.0823    4.9620   33.8712 H   0  0  0  0  0  0
  -25.9867    5.1800   30.3384 H   0  0  0  0  0  0
  -28.4768    4.1816   29.0311 H   0  0  0  0  0  0
  -25.5472    4.2192   28.3351 H   0  0  0  0  0  0
  -26.4857    2.8719   27.6065 H   0  0  0  0  0  0
  1  2  2  0  0  0
  1  3  1  0  0  0
  1  4  1  0  0  0
  3 33  1  0  0  0
  3 34  1  0  0  0
  3 35  1  0  0  0
  4  5  1  0  0  0
  4 36  1  0  0  0
  5  6  1  0  0  0
  5  8  1  0  0  0
  5 37  1  0  0  0
  6  7  2  0  0  0
  6 12  1  0  0  0
  8  9  1  0  0  0
  8 38  1  0  0  0
  8 39  1  0  0  0
  9 10  1  0  0  0
  9 11  2  0  0  0
 12 13  1  0  0  0
 12 40  1  0  0  0
 13 14  1  0  0  0
 13 16  1  0  0  0
 13 41  1  0  0  0
 14 15  2  0  0  0
 14 19  1  0  0  0
 16 17  1  0  0  0
 16 18  1  0  0  0
 16 42  1  0  0  0
 17 43  1  0  0  0
 17 44  1  0  0  0
 17 45  1  0  0  0
 18 46  1  0  0  0
 18 47  1  0  0  0
 18 48  1  0  0  0
 19 20  1  0  0  0
 19 49  1  0  0  0
 20 21  1  0  0  0
 20 23  1  0  0  0
 20 50  1  0  0  0
 21 22  2  0  0  0
 21 24  1  0  0  0
 23 51  1  0  0  0
 23 52  1  0  0  0
 23 53  1  0  0  0
 24 25  1  0  0  0
 24 54  1  0  0  0
 25 26  1  0  0  0
 25 28  1  0  0  0
 25 55  1  0  0  0
 26 27  2  0  0  0
 26 32  1  0  0  0
 28 29  1  0  0  0
 28 56  1  0  0  0
 28 57  1  0  0  0
 29 30  2  0  0  0
 29 31  1  0  0  0
M  CHG  3  10  -1  31  -1  32  -1
M  END
> <s_m_source_file>
../3r7n_ligand.sdf

> <i_m_source_file_index>
1

> <s_epik_input>
Tz1DKFtDSDNdKVtOSF1bQ0BASF0oW0NIMl1DKD1PKVtPSF0pQyg9TylbTkhdW0NAQEhdKFtDSF0oW0NIM10pW0NIM10pQyg9TylbTkhdW0NAQEhdKFtDSDNdKUMoPU8pW05IXVtDQEhdKEMoPU8pW09IXSlbQ0gyXUMoPU8pW09IXQ==

> <s_epik_cmdline>
J2VwaWtfYXBwJywgJy1pbWFlJywgJ2xpZ2FuZF9wcm8ubWFlJywgJy1vbWFlJywgJ2xpZ2FuZF9wcmVwLm1hZScsICctbXMnLCAnMScsICctcGgnLCAnNycsICctcGh0JywgJzAuNScsICctbnQn

> <r_lp_tautomer_probability>
1

> <r_epik_Ionization_Penalty>
  0.0029

> <r_epik_Ionization_Penalty_Charging>
  0.0029

> <r_epik_Ionization_Penalty_Neutral>
  0.0000

> <r_epik_State_Penalty>
 -0.0000

> <r_epik_Charging_Adjusted_Penalty>
0.00291089283753235

> <i_epik_Tot_Q>
-3

> <i_epik_Tot_abs_Q>
3

$$$$
