3r7o_ligand
                    3D
 Schrodinger Suite 2020-3.
 73 78  0  0  1  0            999 V2000
   -4.4430   -8.3610  -16.5550 C   0  0  0  0  0  0
   -6.7760   -8.9240  -16.6650 N   0  0  0  0  0  0
   -5.1400   -6.4670  -13.1050 O   0  0  0  0  0  0
   -6.2770   -2.0310  -10.9750 S   0  0  0  0  0  0
   -5.5090   -9.0640  -17.0730 C   0  0  0  0  0  0
   -7.0070   -8.0380  -15.6860 C   0  0  0  0  0  0
   -5.9850   -7.3520  -15.0460 C   0  0  0  0  0  0
   -4.6860   -7.5210  -15.4870 C   0  0  0  0  0  0
   -8.4250   -7.9680  -15.3950 C   0  0  0  0  0  0
   -9.0930   -7.1100  -14.6220 C   0  0  0  0  0  0
   -8.6030   -5.9960  -13.8360 C   0  0  0  0  0  0
   -7.2920   -5.7020  -13.4960 C   0  0  0  0  0  0
   -6.1140   -6.5080  -13.8510 C   0  0  0  0  0  0
   -9.6010   -5.1370  -13.4290 C   0  0  0  0  0  0
   -9.3140   -4.0300  -12.6710 C   0  0  0  0  0  0
   -8.0170   -3.7730  -12.2890 C   0  0  0  0  0  0
   -7.0050   -4.6030  -12.7100 C   0  0  0  0  0  0
   -3.1130   -8.5120  -17.0850 C   0  0  0  0  0  0
   -6.5970   -0.5990  -13.2700 C   0  0  0  0  0  0
   -5.6540   -1.3440  -12.4150 N   0  0  2  0  0  0
   -4.6650   -2.1180  -13.1930 C   0  0  0  0  0  0
   -6.6320   -0.9440  -10.0820 O   0  0  0  0  0  0
   -5.3800   -3.0730  -10.5170 O   0  0  0  0  0  0
   -7.8160   -2.6250  -11.4540 N   0  0  0  0  0  0
   -3.3450   -1.3780  -13.1320 C   0  0  2  0  0  0
   -2.9840   -0.8320  -14.5000 C   0  0  0  0  0  0
   -1.7540   -0.1220  -14.4000 O   0  0  0  0  0  0
   -0.7300   -1.0250  -13.9920 C   0  0  0  0  0  0
   -1.0880   -1.5880  -12.6290 C   0  0  0  0  0  0
   -2.3250   -2.2860  -12.7230 O   0  0  0  0  0  0
   -2.7970   -9.2170  -18.2240 C   0  0  0  0  0  0
   -1.4530   -9.0340  -18.3850 N   0  0  0  0  0  0
   -0.8810   -8.2550  -17.4490 N   0  0  0  0  0  0
   -1.8950   -7.9380  -16.6440 C   0  0  0  0  0  0
   -0.6500   -9.5710  -19.4710 C   0  0  0  0  0  0
    0.3900  -10.5390  -18.9270 C   0  0  0  0  0  0
    1.4170  -10.9410  -19.9690 C   0  0  0  0  0  0
    2.0040   -9.7070  -20.5480 N   0  3  0  0  0  0
    0.9780   -8.8970  -21.2600 C   0  0  0  0  0  0
   -0.0140   -8.4150  -20.2220 C   0  0  0  0  0  0
   -5.3069   -9.7819  -17.8679 H   0  0  0  0  0  0
   -3.8643   -6.9978  -14.9979 H   0  0  0  0  0  0
   -9.0364   -8.7292  -15.8795 H   0  0  0  0  0  0
  -10.1699   -7.2715  -14.5747 H   0  0  0  0  0  0
  -10.6334   -5.3401  -13.7135 H   0  0  0  0  0  0
  -10.1141   -3.3533  -12.3710 H   0  0  0  0  0  0
   -5.9745   -4.3934  -12.4231 H   0  0  0  0  0  0
   -7.3059   -0.0445  -12.6375 H   0  0  0  0  0  0
   -7.1492   -1.3045  -13.9082 H   0  0  0  0  0  0
   -6.0391    0.1077  -13.9020 H   0  0  0  0  0  0
   -4.5598   -3.1222  -12.7564 H   0  0  0  0  0  0
   -5.0055   -2.2052  -14.2353 H   0  0  0  0  0  0
   -8.7312   -2.1163  -11.1168 H   0  0  0  0  0  0
   -3.3896   -0.5714  -12.3854 H   0  0  0  0  0  0
   -2.8772   -1.6648  -15.2107 H   0  0  0  0  0  0
   -3.7786   -0.1545  -14.8458 H   0  0  0  0  0  0
   -0.6495   -1.8427  -14.7233 H   0  0  0  0  0  0
    0.2291   -0.4896  -13.9336 H   0  0  0  0  0  0
   -0.2980   -2.2784  -12.2985 H   0  0  0  0  0  0
   -1.1819   -0.7649  -11.9054 H   0  0  0  0  0  0
   -3.4705   -9.7940  -18.8577 H   0  0  0  0  0  0
   -1.7990   -7.3138  -15.7556 H   0  0  0  0  0  0
   -1.3190  -10.1266  -20.1446 H   0  0  0  0  0  0
    0.9260  -10.0687  -18.0894 H   0  0  0  0  0  0
   -0.1092  -11.4540  -18.5753 H   0  0  0  0  0  0
    2.2040  -11.5453  -19.4941 H   0  0  0  0  0  0
    0.9275  -11.5310  -20.7578 H   0  0  0  0  0  0
    2.4349   -9.0934  -19.7432 H   0  0  0  0  0  0
    2.7929   -9.9778  -21.2651 H   0  0  0  0  0  0
    1.4638   -8.0436  -21.7557 H   0  0  0  0  0  0
    0.4759   -9.5215  -22.0136 H   0  0  0  0  0  0
   -0.7964   -7.8360  -20.7345 H   0  0  0  0  0  0
    0.5177   -7.7646  -19.5119 H   0  0  0  0  0  0
  1  5  2  0  0  0
  1  8  1  0  0  0
  1 18  1  0  0  0
  2  5  1  0  0  0
  2  6  2  0  0  0
  3 13  2  0  0  0
  4 20  1  0  0  0
  4 22  2  0  0  0
  4 23  2  0  0  0
  4 24  1  0  0  0
  5 41  1  0  0  0
  6  7  1  0  0  0
  6  9  1  0  0  0
  7  8  2  0  0  0
  7 13  1  0  0  0
  8 42  1  0  0  0
  9 10  2  0  0  0
  9 43  1  0  0  0
 10 11  1  0  0  0
 10 44  1  0  0  0
 11 12  2  0  0  0
 11 14  1  0  0  0
 12 13  1  0  0  0
 12 17  1  0  0  0
 14 15  2  0  0  0
 14 45  1  0  0  0
 15 16  1  0  0  0
 15 46  1  0  0  0
 16 17  2  0  0  0
 16 24  1  0  0  0
 17 47  1  0  0  0
 18 31  2  0  0  0
 18 34  1  0  0  0
 19 20  1  0  0  0
 19 48  1  0  0  0
 19 49  1  0  0  0
 19 50  1  0  0  0
 20 21  1  0  0  0
 21 25  1  0  0  0
 21 51  1  0  0  0
 21 52  1  0  0  0
 24 53  1  0  0  0
 25 26  1  0  0  0
 25 30  1  0  0  0
 25 54  1  0  0  0
 26 27  1  0  0  0
 26 55  1  0  0  0
 26 56  1  0  0  0
 27 28  1  0  0  0
 28 29  1  0  0  0
 28 57  1  0  0  0
 28 58  1  0  0  0
 29 30  1  0  0  0
 29 59  1  0  0  0
 29 60  1  0  0  0
 31 32  1  0  0  0
 31 61  1  0  0  0
 32 33  1  0  0  0
 32 35  1  0  0  0
 33 34  2  0  0  0
 34 62  1  0  0  0
 35 36  1  0  0  0
 35 40  1  0  0  0
 35 63  1  0  0  0
 36 37  1  0  0  0
 36 64  1  0  0  0
 36 65  1  0  0  0
 37 38  1  0  0  0
 37 66  1  0  0  0
 37 67  1  0  0  0
 38 39  1  0  0  0
 38 68  1  0  0  0
 38 69  1  0  0  0
 39 40  1  0  0  0
 39 70  1  0  0  0
 39 71  1  0  0  0
 40 72  1  0  0  0
 40 73  1  0  0  0
M  CHG  1  38   1
M  END
> <s_m_source_file>
../3r7o_ligand.sdf

> <i_m_source_file_index>
1

> <s_epik_input>
W0NIMl0xW0NIMl1bTkgyK11bQ0gyXVtDSDJdW0NIXTFuKG5bY0hdMilbY0hdYzItYyhbY0hdbjMpW2NIXWMoYzM0KWMoPU8pYzVjKFtjSF1bY0hdNClbY0hdW2NIXWMoW2NIXTUpW05IXVMoPU8pKD1PKU4oW0NIM10pW0NIMl1bQ0BASF02W0NIMl1PW0NIMl1bQ0gyXU82

> <s_epik_cmdline>
J2VwaWtfYXBwJywgJy1pbWFlJywgJ2xpZ2FuZF9wcm8ubWFlJywgJy1vbWFlJywgJ2xpZ2FuZF9wcmVwLm1hZScsICctbXMnLCAnMScsICctcGgnLCAnNycsICctcGh0JywgJzAuNScsICctbnQn

> <r_lp_tautomer_probability>
1

> <r_epik_Ionization_Penalty>
  0.0584

> <r_epik_Ionization_Penalty_Charging>
  0.0019

> <r_epik_Ionization_Penalty_Neutral>
  0.0565

> <r_epik_State_Penalty>
  0.0476

> <r_epik_Charging_Adjusted_Penalty>
0.0494831231163621

> <i_epik_Tot_Q>
1

> <i_epik_Tot_abs_Q>
1

$$$$
