3r7r_ligand
                    3D
 Schrodinger Suite 2020-3.
 48 51  0  0  1  0            999 V2000
   17.4960   62.8130   22.3220 C   0  0  0  0  0  0
   25.8180   61.7890   20.5530 N   0  0  0  0  0  0
   19.2330   60.2410   24.0950 O   0  0  0  0  0  0
   22.6460   62.0630   21.3280 S   0  0  0  0  0  0
   18.4950   63.4000   21.5640 C   0  0  0  0  0  0
   16.1810   63.2540   22.2660 N   0  0  0  0  0  0
   26.1110   60.3600   22.1660 O   0  0  0  0  0  0
   19.7780   62.9280   21.6530 C   0  0  0  0  0  0
   16.7630   65.3540   21.8460 O   0  0  0  0  0  0
   20.0950   61.8660   22.4760 C   0  0  0  0  0  0
   19.0650   61.2660   23.2460 C   0  0  0  0  0  0
   17.7910   61.7540   23.1500 C   0  0  0  0  0  0
   21.5060   61.4510   22.4680 C   0  0  0  0  0  0
   22.1460   60.5790   23.3110 C   0  0  0  0  0  0
   21.4670   59.8660   24.4370 C   0  0  0  0  0  0
   20.2120   59.2570   23.8630 C   0  0  0  0  0  0
   23.9540   61.1240   22.0030 C   0  0  0  0  0  0
   23.4680   60.4110   23.0360 C   0  0  0  0  0  0
   25.3370   61.0780   21.5740 C   0  0  0  0  0  0
   25.0190   62.6470   19.8230 C   0  0  0  0  0  0
   24.9780   63.9920   20.1220 C   0  0  0  0  0  0
   24.1690   64.8150   19.3650 C   0  0  0  0  0  0
   23.4020   64.3040   18.3170 C   0  0  0  0  0  0
   23.4480   62.9650   18.0240 C   0  0  0  0  0  0
   24.2630   62.1610   18.7830 C   0  0  0  0  0  0
   15.8860   64.5370   22.0200 C   0  0  0  0  0  0
   14.4420   64.9390   21.9760 C   0  0  0  0  0  0
   27.2280   61.6590   20.2350 C   0  0  0  0  0  0
   24.3410   60.4850   18.4390 Cl  0  0  0  0  0  0
   18.2620   64.2327   20.9004 H   0  0  0  0  0  0
   15.3557   62.5444   22.4253 H   0  0  0  0  0  0
   20.5635   63.4000   21.0627 H   0  0  0  0  0  0
   16.9961   61.2966   23.7390 H   0  0  0  0  0  0
   22.1354   59.0880   24.8345 H   0  0  0  0  0  0
   21.2263   60.5848   25.2341 H   0  0  0  0  0  0
   19.9258   58.3269   24.3759 H   0  0  0  0  0  0
   20.2944   59.0693   22.7823 H   0  0  0  0  0  0
   24.0970   59.7379   23.6186 H   0  0  0  0  0  0
   25.5729   64.3977   20.9403 H   0  0  0  0  0  0
   24.1285   65.8809   19.5892 H   0  0  0  0  0  0
   22.7667   64.9688   17.7317 H   0  0  0  0  0  0
   22.8535   62.5497   17.2102 H   0  0  0  0  0  0
   13.8102   64.0569   22.1569 H   0  0  0  0  0  0
   14.2087   65.3606   20.9871 H   0  0  0  0  0  0
   14.2479   65.6944   22.7517 H   0  0  0  0  0  0
   27.6932   60.9352   20.9203 H   0  0  0  0  0  0
   27.7203   62.6366   20.3448 H   0  0  0  0  0  0
   27.3392   61.3068   19.1989 H   0  0  0  0  0  0
  1  5  2  0  0  0
  1  6  1  0  0  0
  1 12  1  0  0  0
  2 19  1  0  0  0
  2 20  1  0  0  0
  2 28  1  0  0  0
  3 11  1  0  0  0
  3 16  1  0  0  0
  4 13  1  0  0  0
  4 17  1  0  0  0
  5  8  1  0  0  0
  5 30  1  0  0  0
  6 26  1  0  0  0
  6 31  1  0  0  0
  7 19  2  0  0  0
  8 10  2  0  0  0
  8 32  1  0  0  0
  9 26  2  0  0  0
 10 11  1  0  0  0
 10 13  1  0  0  0
 11 12  2  0  0  0
 12 33  1  0  0  0
 13 14  2  0  0  0
 14 15  1  0  0  0
 14 18  1  0  0  0
 15 16  1  0  0  0
 15 34  1  0  0  0
 15 35  1  0  0  0
 16 36  1  0  0  0
 16 37  1  0  0  0
 17 18  2  0  0  0
 17 19  1  0  0  0
 18 38  1  0  0  0
 20 21  2  0  0  0
 20 25  1  0  0  0
 21 22  1  0  0  0
 21 39  1  0  0  0
 22 23  2  0  0  0
 22 40  1  0  0  0
 23 24  1  0  0  0
 23 41  1  0  0  0
 24 25  2  0  0  0
 24 42  1  0  0  0
 25 29  1  0  0  0
 26 27  1  0  0  0
 27 43  1  0  0  0
 27 44  1  0  0  0
 27 45  1  0  0  0
 28 46  1  0  0  0
 28 47  1  0  0  0
 28 48  1  0  0  0
M  END
> <s_m_source_file>
../3r7r_ligand.sdf

> <i_m_source_file_index>
1

> <s_epik_input>
Tz1DKFtDSDNdKVtOSF1jKFtjSF1bY0hdMSlbY0hdYyhjMTIpT1tDSDJdW0NIMl1jM2Myc2MoW2NIXTMpQyg9TylOKFtDSDNdKWM0W2NIXVtjSF1bY0hdW2NIXWM0Q2w=

> <s_epik_cmdline>
J2VwaWtfYXBwJywgJy1pbWFlJywgJ2xpZ2FuZF9wcm8ubWFlJywgJy1vbWFlJywgJ2xpZ2FuZF9wcmVwLm1hZScsICctbXMnLCAnMScsICctcGgnLCAnNycsICctcGh0JywgJzAuNScsICctbnQn

> <r_lp_tautomer_probability>
1

> <r_epik_Ionization_Penalty>
  0.0000

> <r_epik_Ionization_Penalty_Charging>
  0.0000

> <r_epik_Ionization_Penalty_Neutral>
  0.0000

> <r_epik_State_Penalty>
 -0.0000

> <r_epik_Charging_Adjusted_Penalty>
0

> <i_epik_Tot_Q>
0

> <i_epik_Tot_abs_Q>
0

$$$$
