3r8i_ligand
                    3D
 Schrodinger Suite 2020-3.
 65 67  0  0  1  0            999 V2000
   18.3400    8.3930    9.8040 N   0  0  0  0  0  0
   17.0350    6.5830   10.5750 N   0  0  0  0  0  0
    9.1390    5.3070    9.5850 C   0  0  0  0  0  0
   21.2620    7.3880   17.4110 C   0  0  0  0  0  0
   18.8080    7.8560   17.6160 C   0  0  0  0  0  0
   21.0300    7.5110   20.0340 O   0  5  0  0  0  0
   19.1800    6.2780   20.1730 O   0  0  0  0  0  0
   18.3930   11.6200    7.9960 C   0  0  0  0  0  0
   17.0530   11.6190    7.6270 C   0  0  0  0  0  0
   19.5620    5.3090   13.9230 C   0  0  0  0  0  0
   17.3230    5.2450   14.7990 C   0  0  0  0  0  0
   20.0620    5.4460   15.2150 C   0  0  0  0  0  0
   17.8240    5.3830   16.0870 C   0  0  0  0  0  0
   18.9180   10.5610    8.7280 C   0  0  0  0  0  0
   16.2380   10.5520    7.9870 C   0  0  0  0  0  0
   10.5580    5.7630    9.2370 C   0  0  0  0  0  0
   11.3940    5.9210   10.5080 C   0  0  0  0  0  0
   12.8100    6.4190   10.2120 C   0  0  0  0  0  0
   13.6100    5.4100    9.3870 C   0  0  0  0  0  0
   15.0660    5.8680    9.2720 C   0  0  0  0  0  0
   17.6310    4.9690   12.3080 C   0  0  0  0  0  0
   15.6980    5.9760   10.6610 C   0  0  0  0  0  0
   18.1690    5.9660   11.2780 C   0  0  0  0  0  0
   19.6800    5.5650   17.5720 O   0  0  0  0  0  0
   16.2020    8.3600    9.2240 O   0  0  0  0  0  0
   20.0610    6.8960   19.5360 C   0  0  0  0  0  0
   18.1920    5.2020   13.7110 C   0  0  0  0  0  0
   19.1950    5.4800   16.3000 C   0  0  0  0  0  0
   17.2020    7.7130    9.8940 C   0  0  0  0  0  0
   18.1040    9.4940    9.0930 C   0  0  0  0  0  0
   16.7650    9.4930    8.7180 C   0  0  0  0  0  0
   19.9400    6.9040   18.0100 C   0  0  0  0  0  0
    8.5519    5.1984    8.6612 H   0  0  0  0  0  0
    8.6629    6.0548   10.2362 H   0  0  0  0  0  0
    9.1824    4.3401   10.1077 H   0  0  0  0  0  0
   21.1856    7.3975   16.3137 H   0  0  0  0  0  0
   22.0728    6.7102   17.7163 H   0  0  0  0  0  0
   21.4780    8.4043   17.7724 H   0  0  0  0  0  0
   18.7079    7.8732   16.5207 H   0  0  0  0  0  0
   19.0375    8.8686   17.9792 H   0  0  0  0  0  0
   17.8652    7.5103   18.0650 H   0  0  0  0  0  0
   19.0344   12.4538    7.7106 H   0  0  0  0  0  0
   16.6424   12.4524    7.0570 H   0  0  0  0  0  0
   20.2465    5.2855   13.0751 H   0  0  0  0  0  0
   16.2474    5.1702   14.6391 H   0  0  0  0  0  0
   21.1370    5.5268   15.3758 H   0  0  0  0  0  0
   17.1396    5.4154   16.9347 H   0  0  0  0  0  0
   19.9692   10.5670    9.0163 H   0  0  0  0  0  0
   15.1874   10.5455    7.6967 H   0  0  0  0  0  0
   11.0341    5.0152    8.5858 H   0  0  0  0  0  0
   10.5146    6.7299    8.7143 H   0  0  0  0  0  0
   10.9099    6.6474   11.1773 H   0  0  0  0  0  0
   11.4737    4.9494   11.0176 H   0  0  0  0  0  0
   12.7566    7.3607    9.6460 H   0  0  0  0  0  0
   13.3440    6.5898   11.1584 H   0  0  0  0  0  0
   13.5770    4.4264    9.8784 H   0  0  0  0  0  0
   13.1739    5.3317    8.3802 H   0  0  0  0  0  0
   15.6334    5.1395    8.6743 H   0  0  0  0  0  0
   15.1032    6.8523    8.7823 H   0  0  0  0  0  0
   16.5361    5.0569   12.3662 H   0  0  0  0  0  0
   17.9012    3.9467   12.0047 H   0  0  0  0  0  0
   15.7800    4.9685   11.0947 H   0  0  0  0  0  0
   15.0531    6.5984   11.2988 H   0  0  0  0  0  0
   18.8090    5.4423   10.5526 H   0  0  0  0  0  0
   18.7539    6.7466   11.7864 H   0  0  0  0  0  0
  1 29  2  0  0  0
  1 30  1  0  0  0
  2 22  1  0  0  0
  2 23  1  0  0  0
  2 29  1  0  0  0
  3 16  1  0  0  0
  3 33  1  0  0  0
  3 34  1  0  0  0
  3 35  1  0  0  0
  4 32  1  0  0  0
  4 36  1  0  0  0
  4 37  1  0  0  0
  4 38  1  0  0  0
  5 32  1  0  0  0
  5 39  1  0  0  0
  5 40  1  0  0  0
  5 41  1  0  0  0
  6 26  1  0  0  0
  7 26  2  0  0  0
  8  9  2  0  0  0
  8 14  1  0  0  0
  8 42  1  0  0  0
  9 15  1  0  0  0
  9 43  1  0  0  0
 10 12  2  0  0  0
 10 27  1  0  0  0
 10 44  1  0  0  0
 11 13  1  0  0  0
 11 27  2  0  0  0
 11 45  1  0  0  0
 12 28  1  0  0  0
 12 46  1  0  0  0
 13 28  2  0  0  0
 13 47  1  0  0  0
 14 30  2  0  0  0
 14 48  1  0  0  0
 15 31  2  0  0  0
 15 49  1  0  0  0
 16 17  1  0  0  0
 16 50  1  0  0  0
 16 51  1  0  0  0
 17 18  1  0  0  0
 17 52  1  0  0  0
 17 53  1  0  0  0
 18 19  1  0  0  0
 18 54  1  0  0  0
 18 55  1  0  0  0
 19 20  1  0  0  0
 19 56  1  0  0  0
 19 57  1  0  0  0
 20 22  1  0  0  0
 20 58  1  0  0  0
 20 59  1  0  0  0
 21 23  1  0  0  0
 21 27  1  0  0  0
 21 60  1  0  0  0
 21 61  1  0  0  0
 22 62  1  0  0  0
 22 63  1  0  0  0
 23 64  1  0  0  0
 23 65  1  0  0  0
 24 28  1  0  0  0
 24 32  1  0  0  0
 25 29  1  0  0  0
 25 31  1  0  0  0
 26 32  1  0  0  0
 30 31  1  0  0  0
M  CHG  1   6  -1
M  END
> <s_m_source_file>
../3r8i_ligand.sdf

> <i_m_source_file_index>
1

> <s_epik_input>
W0NIM11bQ0gyXVtDSDJdW0NIMl1bQ0gyXVtDSDJdW0NIMl1OKGMobjEpb2MoYzEyKVtjSF1bY0hdW2NIXVtjSF0yKVtDSDJdW0NIMl1jM1tjSF1bY0hdYyhbY0hdW2NIXTMpT0MoW0NIM10pKFtDSDNdKUMoPU8pW09IXQ==

> <s_epik_cmdline>
J2VwaWtfYXBwJywgJy1pbWFlJywgJ2xpZ2FuZF9wcm8ubWFlJywgJy1vbWFlJywgJ2xpZ2FuZF9wcmVwLm1hZScsICctbXMnLCAnMScsICctcGgnLCAnNycsICctcGh0JywgJzAuNScsICctbnQn

> <r_lp_tautomer_probability>
1

> <r_epik_Ionization_Penalty>
  0.0019

> <r_epik_Ionization_Penalty_Charging>
  0.0001

> <r_epik_Ionization_Penalty_Neutral>
  0.0018

> <r_epik_State_Penalty>
 -0.0000

> <r_epik_Charging_Adjusted_Penalty>
9.80702523698989e-05

> <i_epik_Tot_Q>
-1

> <i_epik_Tot_abs_Q>
1

$$$$
