3r8u_ligand
                    3D
 Schrodinger Suite 2020-3.
 41 43  0  0  1  0            999 V2000
  -61.9650 -117.9420  -46.7740 C   0  0  0  0  0  0
  -62.2660 -119.3360  -47.1480 C   0  0  0  0  0  0
  -63.5220 -119.7260  -47.5010 C   0  0  0  0  0  0
  -63.7570 -119.4790  -48.9230 N   0  0  0  0  0  0
  -64.7240 -118.5850  -49.3040 C   0  0  0  0  0  0
  -65.4750 -117.4880  -48.2360 S   0  0  0  0  0  0
  -66.3970 -116.8690  -49.5350 C   0  0  0  0  0  0
  -66.0840 -117.5570  -50.7240 C   0  0  0  0  0  0
  -65.1420 -118.5100  -50.5680 N   0  0  0  0  0  0
  -66.6230 -117.3290  -51.9330 N   0  0  0  0  0  0
  -67.2820 -115.8370  -49.3540 C   0  0  1  0  0  0
  -67.4830 -115.1930  -48.0070 C   0  0  0  0  0  0
  -67.7110 -115.9770  -46.8160 C   0  0  0  0  0  0
  -67.8680 -115.3420  -45.5450 C   0  0  0  0  0  0
  -67.8000 -113.8910  -45.4600 C   0  0  0  0  0  0
  -67.5820 -113.1260  -46.6380 C   0  0  0  0  0  0
  -67.4220 -113.7710  -47.9020 C   0  0  0  0  0  0
  -68.0870 -116.1150  -44.3530 C   0  0  0  0  0  0
  -68.2340 -115.4550  -43.0950 C   0  0  0  0  0  0
  -68.1650 -114.0330  -43.0140 C   0  0  0  0  0  0
  -67.9500 -113.2500  -44.1860 C   0  0  0  0  0  0
  -67.9960 -115.3340  -50.3950 O   0  0  0  0  0  0
  -60.8969 -117.8510  -46.5274 H   0  0  0  0  0  0
  -62.5688 -117.6585  -45.8993 H   0  0  0  0  0  0
  -62.2048 -117.2764  -47.6163 H   0  0  0  0  0  0
  -61.6622 -119.6195  -48.0227 H   0  0  0  0  0  0
  -62.0262 -120.0016  -46.3057 H   0  0  0  0  0  0
  -63.6417 -120.8011  -47.3015 H   0  0  0  0  0  0
  -64.2603 -119.1598  -46.9142 H   0  0  0  0  0  0
  -63.1596 -120.0091  -49.6794 H   0  0  0  0  0  0
  -67.3908 -116.5508  -52.0550 H   0  0  0  0  0  0
  -66.2966 -117.9205  -52.8011 H   0  0  0  0  0  0
  -68.0791 -116.5603  -49.1271 H   0  0  0  0  0  0
  -67.7639 -117.0634  -46.8868 H   0  0  0  0  0  0
  -67.5366 -112.0387  -46.5761 H   0  0  0  0  0  0
  -67.2515 -113.1710  -48.7959 H   0  0  0  0  0  0
  -68.1407 -117.2022  -44.4091 H   0  0  0  0  0  0
  -68.3999 -116.0417  -42.1915 H   0  0  0  0  0  0
  -68.2776 -113.5406  -42.0481 H   0  0  0  0  0  0
  -67.8996 -112.1636  -44.1136 H   0  0  0  0  0  0
  -67.8852 -115.7691  -51.3992 H   0  0  0  0  0  0
  1  2  1  0  0  0
  1 23  1  0  0  0
  1 24  1  0  0  0
  1 25  1  0  0  0
  2  3  1  0  0  0
  2 26  1  0  0  0
  2 27  1  0  0  0
  3  4  1  0  0  0
  3 28  1  0  0  0
  3 29  1  0  0  0
  4  5  1  0  0  0
  4 30  1  0  0  0
  5  6  1  0  0  0
  5  9  2  0  0  0
  6  7  1  0  0  0
  7  8  2  0  0  0
  7 11  1  0  0  0
  8  9  1  0  0  0
  8 10  1  0  0  0
 10 31  1  0  0  0
 10 32  1  0  0  0
 11 12  1  0  0  0
 11 22  1  0  0  0
 11 33  1  0  0  0
 12 13  2  0  0  0
 12 17  1  0  0  0
 13 14  1  0  0  0
 13 34  1  0  0  0
 14 15  2  0  0  0
 14 18  1  0  0  0
 15 16  1  0  0  0
 15 21  1  0  0  0
 16 17  2  0  0  0
 16 35  1  0  0  0
 17 36  1  0  0  0
 18 19  2  0  0  0
 18 37  1  0  0  0
 19 20  1  0  0  0
 19 38  1  0  0  0
 20 21  2  0  0  0
 20 39  1  0  0  0
 21 40  1  0  0  0
 22 41  1  0  0  0
M  END
> <s_m_source_file>
../3r8u_ligand.sdf

> <i_m_source_file_index>
1

> <s_epik_input>
W0NIM11bQ0gyXVtDSDJdW05IXWMxc2MoYyhuMSlbTkgyXSlbQ0hdKFtPSF0pYyhbY0hdMilbY0hdW2NIXWMoYzIzKVtjSF1bY0hdW2NIXVtjSF0z

> <s_epik_cmdline>
J2VwaWtfYXBwJywgJy1pbWFlJywgJ2xpZ2FuZF9wcm8ubWFlJywgJy1vbWFlJywgJ2xpZ2FuZF9wcmVwLm1hZScsICctbXMnLCAnMScsICctcGgnLCAnNycsICctcGh0JywgJzAuNScsICctbnQn

> <r_epik_Ionization_Penalty>
  0.3288

> <r_epik_Ionization_Penalty_Charging>
  0.0000

> <r_epik_Ionization_Penalty_Neutral>
  0.3288

> <r_epik_State_Penalty>
  0.3189

> <r_epik_Charging_Adjusted_Penalty>
0.318923489868969

> <i_epik_Tot_Q>
0

> <i_epik_Tot_abs_Q>
0

$$$$
