3r8v_ligand
                    3D
 Schrodinger Suite 2020-3.
 37 38  0  0  1  0            999 V2000
  -65.0440  -81.9560  -86.8490 N   0  0  0  0  0  0
  -65.9620  -80.9850  -86.9850 C   0  0  0  0  0  0
  -66.5280  -80.7370  -88.1990 N   0  0  0  0  0  0
  -66.2450  -80.2900  -85.7800 C   0  0  0  0  0  0
  -67.1230  -79.2380  -85.6110 C   0  0  1  0  0  0
  -67.3840  -78.5420  -84.3100 C   0  0  0  0  0  0
  -67.5480  -79.2730  -83.0820 C   0  0  0  0  0  0
  -67.8190  -78.6090  -81.8370 C   0  0  0  0  0  0
  -67.9270  -77.1660  -81.8640 C   0  0  0  0  0  0
  -67.7670  -76.4380  -83.0710 C   0  0  0  0  0  0
  -67.4960  -77.1160  -84.2900 C   0  0  0  0  0  0
  -67.8070  -78.7490  -86.6610 O   0  0  0  0  0  0
  -65.3170  -80.9250  -84.4780 S   0  0  0  0  0  0
  -64.6040  -82.0440  -85.5690 C   0  0  0  0  0  0
  -63.6460  -82.9660  -85.2010 N   0  0  0  0  0  0
  -63.2480  -83.1340  -83.7980 C   0  0  0  0  0  0
  -62.3290  -82.0260  -83.3370 C   0  0  0  0  0  0
  -62.7320  -81.0920  -82.2550 C   0  0  0  0  0  0
  -67.9640  -79.3090  -80.6970 N   0  3  0  0  0  0
  -67.8520  -80.6400  -80.6730 O   0  0  0  0  0  0
  -68.2000  -78.7660  -79.6410 O   0  5  0  0  0  0
  -66.2373  -81.3366  -89.0742 H   0  0  0  0  0  0
  -67.2757  -79.9371  -88.3041 H   0  0  0  0  0  0
  -67.9333  -79.9493  -85.3930 H   0  0  0  0  0  0
  -67.4644  -80.3597  -83.0964 H   0  0  0  0  0  0
  -68.1353  -76.6282  -80.9391 H   0  0  0  0  0  0
  -67.8525  -75.3514  -83.0633 H   0  0  0  0  0  0
  -67.3731  -76.5481  -85.2122 H   0  0  0  0  0  0
  -67.6794  -79.1971  -87.6574 H   0  0  0  0  0  0
  -63.1779  -83.5819  -85.9830 H   0  0  0  0  0  0
  -64.1437  -83.1270  -83.1595 H   0  0  0  0  0  0
  -62.7201  -84.0917  -83.6787 H   0  0  0  0  0  0
  -61.3911  -82.4603  -82.9606 H   0  0  0  0  0  0
  -62.1099  -81.3561  -84.1815 H   0  0  0  0  0  0
  -61.9237  -80.3677  -82.0759 H   0  0  0  0  0  0
  -62.9260  -81.6604  -81.3334 H   0  0  0  0  0  0
  -63.6448  -80.5561  -82.5543 H   0  0  0  0  0  0
  1  2  1  0  0  0
  1 14  2  0  0  0
  2  3  1  0  0  0
  2  4  2  0  0  0
  3 22  1  0  0  0
  3 23  1  0  0  0
  4  5  1  0  0  0
  4 13  1  0  0  0
  5  6  1  0  0  0
  5 12  1  0  0  0
  5 24  1  0  0  0
  6  7  2  0  0  0
  6 11  1  0  0  0
  7  8  1  0  0  0
  7 25  1  0  0  0
  8  9  2  0  0  0
  8 19  1  0  0  0
  9 10  1  0  0  0
  9 26  1  0  0  0
 10 11  2  0  0  0
 10 27  1  0  0  0
 11 28  1  0  0  0
 12 29  1  0  0  0
 13 14  1  0  0  0
 14 15  1  0  0  0
 15 16  1  0  0  0
 15 30  1  0  0  0
 16 17  1  0  0  0
 16 31  1  0  0  0
 16 32  1  0  0  0
 17 18  1  0  0  0
 17 33  1  0  0  0
 17 34  1  0  0  0
 18 35  1  0  0  0
 18 36  1  0  0  0
 18 37  1  0  0  0
 19 20  2  0  0  0
 19 21  1  0  0  0
M  CHG  2  19   1  21  -1
M  END
> <s_m_source_file>
../3r8v_ligand.sdf

> <i_m_source_file_index>
1

> <s_epik_input>
W0NIM11bQ0gyXVtDSDJdW05IXWMobmMxW05IMl0pc2MxW0NIXShbT0hdKWMyW2NIXWMoW04rXSg9TylbTy1dKVtjSF1bY0hdW2NIXTI=

> <s_epik_cmdline>
J2VwaWtfYXBwJywgJy1pbWFlJywgJ2xpZ2FuZF9wcm8ubWFlJywgJy1vbWFlJywgJ2xpZ2FuZF9wcmVwLm1hZScsICctbXMnLCAnMScsICctcGgnLCAnNycsICctcGh0JywgJzAuNScsICctbnQn

> <r_epik_Ionization_Penalty>
  0.3293

> <r_epik_Ionization_Penalty_Charging>
  0.0000

> <r_epik_Ionization_Penalty_Neutral>
  0.3293

> <r_epik_State_Penalty>
  0.3189

> <r_epik_Charging_Adjusted_Penalty>
0.318923489868968

> <i_epik_Tot_Q>
0

> <i_epik_Tot_abs_Q>
2

$$$$
