3r8z_ligand
                    3D
 Schrodinger Suite 2020-3.
 34 35  0  0  1  0            999 V2000
  -64.7410  -46.5530  -49.0630 N   0  0  0  0  0  0
  -65.7440  -45.7430  -49.4020 C   0  0  0  0  0  0
  -66.1350  -45.6630  -50.6820 N   0  0  0  0  0  0
  -66.3060  -45.0190  -48.3400 C   0  0  0  0  0  0
  -67.3590  -44.1040  -48.4410 C   0  0  3  0  0  0
  -67.9510  -43.3370  -47.2960 C   0  0  0  0  0  0
  -67.1420  -42.5970  -46.3750 C   0  0  0  0  0  0
  -67.7650  -41.8900  -45.3130 C   0  0  0  0  0  0
  -69.1450  -41.9230  -45.1820 N   0  0  0  0  0  0
  -69.9570  -42.6260  -46.0530 C   0  0  0  0  0  0
  -69.3790  -43.3480  -47.1280 C   0  0  0  0  0  0
  -67.9310  -43.8540  -49.6470 O   0  0  0  0  0  0
  -65.5030  -45.4110  -46.8510 S   0  0  0  0  0  0
  -64.4830  -46.4940  -47.7480 C   0  0  0  0  0  0
  -63.4770  -47.2460  -47.2030 N   0  0  0  0  0  0
  -63.1360  -47.1160  -45.7990 C   0  0  0  0  0  0
  -61.8620  -46.3450  -45.6380 C   0  0  0  0  0  0
  -61.8490  -44.8820  -45.6440 C   0  0  0  0  0  0
  -65.6336  -46.2711  -51.4493 H   0  0  0  0  0  0
  -66.9572  -44.9892  -50.9648 H   0  0  0  0  0  0
  -68.0810  -44.9161  -48.2703 H   0  0  0  0  0  0
  -66.0581  -42.5767  -46.4882 H   0  0  0  0  0  0
  -67.1612  -41.3238  -44.6038 H   0  0  0  0  0  0
  -71.0381  -42.6252  -45.9137 H   0  0  0  0  0  0
  -70.0106  -43.9054  -47.8197 H   0  0  0  0  0  0
  -67.5645  -44.3694  -50.5470 H   0  0  0  0  0  0
  -62.9256  -47.9535  -47.8397 H   0  0  0  0  0  0
  -63.9436  -46.5856  -45.2731 H   0  0  0  0  0  0
  -63.0067  -48.1158  -45.3590 H   0  0  0  0  0  0
  -61.4011  -46.5962  -44.6713 H   0  0  0  0  0  0
  -61.1703  -46.6055  -46.4527 H   0  0  0  0  0  0
  -60.8173  -44.5240  -45.5122 H   0  0  0  0  0  0
  -62.4754  -44.5064  -44.8214 H   0  0  0  0  0  0
  -62.2446  -44.5158  -46.6028 H   0  0  0  0  0  0
  1  2  1  0  0  0
  1 14  2  0  0  0
  2  3  1  0  0  0
  2  4  2  0  0  0
  3 19  1  0  0  0
  3 20  1  0  0  0
  4  5  1  0  0  0
  4 13  1  0  0  0
  5  6  1  0  0  0
  5 12  1  0  0  0
  5 21  1  0  0  0
  6  7  2  0  0  0
  6 11  1  0  0  0
  7  8  1  0  0  0
  7 22  1  0  0  0
  8  9  2  0  0  0
  8 23  1  0  0  0
  9 10  1  0  0  0
 10 11  2  0  0  0
 10 24  1  0  0  0
 11 25  1  0  0  0
 12 26  1  0  0  0
 13 14  1  0  0  0
 14 15  1  0  0  0
 15 16  1  0  0  0
 15 27  1  0  0  0
 16 17  1  0  0  0
 16 28  1  0  0  0
 16 29  1  0  0  0
 17 18  1  0  0  0
 17 30  1  0  0  0
 17 31  1  0  0  0
 18 32  1  0  0  0
 18 33  1  0  0  0
 18 34  1  0  0  0
M  END
> <s_m_source_file>
../3r8z_ligand.sdf

> <i_m_source_file_index>
1

> <s_epik_input>
W0NIM11bQ0gyXVtDSDJdW05IXWMobmMxW05IMl0pc2MxW0NIXShbT0hdKWMyW2NIXVtjSF1uW2NIXVtjSF0y

> <s_epik_cmdline>
J2VwaWtfYXBwJywgJy1pbWFlJywgJ2xpZ2FuZF9wcm8ubWFlJywgJy1vbWFlJywgJ2xpZ2FuZF9wcmVwLm1hZScsICctbXMnLCAnMScsICctcGgnLCAnNycsICctcGh0JywgJzAuNScsICctbnQn

> <r_epik_Ionization_Penalty>
  0.2228

> <r_epik_Ionization_Penalty_Charging>
  0.0000

> <r_epik_Ionization_Penalty_Neutral>
  0.2228

> <r_epik_State_Penalty>
  0.2084

> <r_epik_Charging_Adjusted_Penalty>
0.208373595626595

> <i_epik_Tot_Q>
0

> <i_epik_Tot_abs_Q>
0

$$$$
