3r91_ligand
                    3D
 Schrodinger Suite 2020-3.
 64 67  0  0  1  0            999 V2000
   40.7610    9.2630   23.2300 C   0  0  0  0  0  0
   39.6460   10.1790   23.6160 C   0  0  0  0  0  0
   38.2930    9.8400   23.7190 C   0  0  0  0  0  0
   37.6010   10.9970   24.1100 N   0  0  0  0  0  0
   38.5140   12.0330   24.2570 C   0  0  0  0  0  0
   39.7700   11.5590   23.9660 C   0  0  0  0  0  0
   40.9310   12.4320   24.0550 C   0  0  0  0  0  0
   42.0610   11.9580   24.0030 O   0  0  0  0  0  0
   40.7050   13.8740   24.5180 C   0  0  0  0  0  0
   39.4430   14.0580   25.4000 C   0  0  0  0  0  0
   38.2070   13.4380   24.6860 C   0  0  0  0  0  0
   39.1770   15.5560   25.6470 C   0  0  0  0  0  0
   39.6720   13.4070   26.7770 C   0  0  0  0  0  0
   36.2060   11.1230   24.3430 C   0  0  0  0  0  0
   35.4000   12.0590   23.6870 C   0  0  0  0  0  0
   34.0240   12.0620   23.9260 C   0  0  0  0  0  0
   33.4440   11.1450   24.8190 C   0  0  0  0  0  0
   34.2440   10.1930   25.5000 C   0  0  0  0  0  0
   35.6300   10.2330   25.2610 C   0  0  0  0  0  0
   33.6670    9.2980   26.3930 N   0  0  0  0  0  0
   34.3480    8.3170   27.2560 C   0  0  2  0  0  0
   35.4730    7.5450   26.5380 C   0  0  0  0  0  0
   36.4980    7.3130   27.1740 O   0  0  0  0  0  0
   35.3730    7.1430   25.1980 N   0  0  0  0  0  0
   36.5510    6.4650   24.6300 C   0  0  0  0  0  0
   37.7460    7.4550   24.5610 C   0  0  0  0  0  0
   37.6360    8.4980   23.4280 C   0  0  0  0  0  0
   34.2200    7.3170   24.2980 C   0  0  0  0  0  0
   33.3280    7.3750   27.8890 C   0  0  0  0  0  0
   31.9710   11.2010   25.0570 C   0  0  0  0  0  0
   31.4860   10.7600   26.0930 O   0  0  0  0  0  0
   31.2090   11.7780   24.0740 N   0  0  0  0  0  0
   40.3565    8.2626   23.0167 H   0  0  0  0  0  0
   41.4844    9.1975   24.0561 H   0  0  0  0  0  0
   41.2632    9.6544   22.3330 H   0  0  0  0  0  0
   41.5691   14.2084   25.1109 H   0  0  0  0  0  0
   40.5878   14.5268   23.6404 H   0  0  0  0  0  0
   37.9569   14.0446   23.8031 H   0  0  0  0  0  0
   37.3536   13.4313   25.3800 H   0  0  0  0  0  0
   39.0073   16.0617   24.6850 H   0  0  0  0  0  0
   40.0468   16.0049   26.1489 H   0  0  0  0  0  0
   38.2871   15.6703   26.2833 H   0  0  0  0  0  0
   39.8664   12.3322   26.6466 H   0  0  0  0  0  0
   38.7767   13.5446   27.4011 H   0  0  0  0  0  0
   40.5364   13.8793   27.2666 H   0  0  0  0  0  0
   35.8409   12.7782   22.9968 H   0  0  0  0  0  0
   33.3910   12.7858   23.4126 H   0  0  0  0  0  0
   36.2783    9.5487   25.8082 H   0  0  0  0  0  0
   32.5702    9.3799   26.4126 H   0  0  0  0  0  0
   34.8245    8.9234   28.0403 H   0  0  0  0  0  0
   36.8237    5.6097   25.2657 H   0  0  0  0  0  0
   36.3155    6.1082   23.6165 H   0  0  0  0  0  0
   37.8163    8.0113   25.5073 H   0  0  0  0  0  0
   38.6777    6.8942   24.3953 H   0  0  0  0  0  0
   36.5622    8.6480   23.2427 H   0  0  0  0  0  0
   38.1018    8.0466   22.5396 H   0  0  0  0  0  0
   33.4101    7.8324   24.8351 H   0  0  0  0  0  0
   33.8668    6.3316   23.9600 H   0  0  0  0  0  0
   34.5221    7.9169   23.4269 H   0  0  0  0  0  0
   32.5454    7.9645   28.3890 H   0  0  0  0  0  0
   33.8308    6.7324   28.6268 H   0  0  0  0  0  0
   32.8726    6.7491   27.1075 H   0  0  0  0  0  0
   31.6876   12.1603   23.1603 H   0  0  0  0  0  0
   30.1191   11.8586   24.1990 H   0  0  0  0  0  0
  1  2  1  0  0  0
  1 33  1  0  0  0
  1 34  1  0  0  0
  1 35  1  0  0  0
  2  3  2  0  0  0
  2  6  1  0  0  0
  3  4  1  0  0  0
  3 27  1  0  0  0
  4  5  1  0  0  0
  4 14  1  0  0  0
  5  6  2  0  0  0
  5 11  1  0  0  0
  6  7  1  0  0  0
  7  8  2  0  0  0
  7  9  1  0  0  0
  9 10  1  0  0  0
  9 36  1  0  0  0
  9 37  1  0  0  0
 10 11  1  0  0  0
 10 12  1  0  0  0
 10 13  1  0  0  0
 11 38  1  0  0  0
 11 39  1  0  0  0
 12 40  1  0  0  0
 12 41  1  0  0  0
 12 42  1  0  0  0
 13 43  1  0  0  0
 13 44  1  0  0  0
 13 45  1  0  0  0
 14 15  2  0  0  0
 14 19  1  0  0  0
 15 16  1  0  0  0
 15 46  1  0  0  0
 16 17  2  0  0  0
 16 47  1  0  0  0
 17 18  1  0  0  0
 17 30  1  0  0  0
 18 19  2  0  0  0
 18 20  1  0  0  0
 19 48  1  0  0  0
 20 21  1  0  0  0
 20 49  1  0  0  0
 21 22  1  0  0  0
 21 29  1  0  0  0
 21 50  1  0  0  0
 22 23  2  0  0  0
 22 24  1  0  0  0
 24 25  1  0  0  0
 24 28  1  0  0  0
 25 26  1  0  0  0
 25 51  1  0  0  0
 25 52  1  0  0  0
 26 27  1  0  0  0
 26 53  1  0  0  0
 26 54  1  0  0  0
 27 55  1  0  0  0
 27 56  1  0  0  0
 28 57  1  0  0  0
 28 58  1  0  0  0
 28 59  1  0  0  0
 29 60  1  0  0  0
 29 61  1  0  0  0
 29 62  1  0  0  0
 30 31  2  0  0  0
 30 32  1  0  0  0
 32 63  1  0  0  0
 32 64  1  0  0  0
M  END
> <s_m_source_file>
../3r91_ligand.sdf

> <i_m_source_file_index>
1

> <s_epik_input>
W0NIMl0xQyhbQ0gzXSkoW0NIM10pW0NIMl1DKD1PKWMoYzJbQ0gzXSljMW4oYzIzKWM0W2NIXVtjSF1jKEMoPU8pW05IMl0pYyhbY0hdNClbTkhdW0NAQEhdKFtDSDNdKUMoPU8pTihbQ0gzXSlbQ0gyXVtDSDJdW0NIMl0z

> <s_epik_cmdline>
J2VwaWtfYXBwJywgJy1pbWFlJywgJ2xpZ2FuZF9wcm8ubWFlJywgJy1vbWFlJywgJ2xpZ2FuZF9wcmVwLm1hZScsICctbXMnLCAnMScsICctcGgnLCAnNycsICctcGh0JywgJzAuNScsICctbnQn

> <r_lp_tautomer_probability>
1

> <r_epik_Ionization_Penalty>
  0.0000

> <r_epik_Ionization_Penalty_Charging>
  0.0000

> <r_epik_Ionization_Penalty_Neutral>
  0.0000

> <r_epik_State_Penalty>
 -0.0000

> <r_epik_Charging_Adjusted_Penalty>
0

> <i_epik_Tot_Q>
0

> <i_epik_Tot_abs_Q>
0

$$$$
