3r92_ligand
                    3D
 Schrodinger Suite 2020-3.
 67 71  0  0  1  0            999 V2000
    7.3190    9.1320   23.3440 C   0  0  0  0  0  0
    6.1760   10.0230   23.6970 C   0  0  0  0  0  0
    4.8170    9.6950   23.7220 C   0  0  0  0  0  0
    4.1100   10.8560   24.0900 N   0  0  0  0  0  0
    5.0200   11.8870   24.2680 C   0  0  0  0  0  0
    6.2870   11.4030   24.0240 C   0  0  0  0  0  0
    7.4510   12.2770   24.1150 C   0  0  0  0  0  0
    8.5930   11.8310   24.0480 O   0  0  0  0  0  0
    7.2110   13.7300   24.5120 C   0  0  0  0  0  0
    5.9250   13.9650   25.3450 C   0  0  0  0  0  0
    4.7060   13.3000   24.6550 C   0  0  0  0  0  0
    6.1160   13.3460   26.7420 C   0  0  0  0  0  0
    5.6620   15.4740   25.5360 C   0  0  0  0  0  0
    2.7050   10.9500   24.2730 C   0  0  0  0  0  0
    1.8960   11.8330   23.5670 C   0  0  0  0  0  0
    0.5380   11.9290   23.8990 C   0  0  0  0  0  0
   -0.0100   11.1390   24.9310 C   0  0  0  0  0  0
    0.7920   10.2270   25.6330 C   0  0  0  0  0  0
    2.1290   10.1340   25.2370 C   0  0  0  0  0  0
    0.3100    9.4080   26.6500 N   0  0  0  0  0  0
    1.1880    8.7780   27.6300 C   0  0  0  0  0  0
    1.4110    7.2970   27.2820 C   0  0  1  0  0  0
    0.0980    6.5280   27.0930 C   0  0  0  0  0  0
    0.3930    5.4570   26.0540 C   0  0  0  0  0  0
    1.8260    5.6790   25.6020 C   0  0  0  0  0  0
    2.1120    7.1360   25.9250 N   0  3  2  0  0  0
    3.6100    7.4680   25.9100 C   0  0  0  0  0  0
    4.3540    7.2480   24.5760 C   0  0  0  0  0  0
    4.1500    8.3430   23.5040 C   0  0  0  0  0  0
   -1.4730   11.1950   25.1970 C   0  0  0  0  0  0
   -1.9290   10.7130   26.2300 O   0  0  0  0  0  0
   -2.2420   11.8020   24.2310 N   0  0  0  0  0  0
    6.9439    8.1186   23.1382 H   0  0  0  0  0  0
    8.0292    9.0967   24.1833 H   0  0  0  0  0  0
    7.8267    9.5236   22.4502 H   0  0  0  0  0  0
    8.0553   14.0884   25.1193 H   0  0  0  0  0  0
    7.1226   14.3478   23.6062 H   0  0  0  0  0  0
    4.4487   13.8780   23.7552 H   0  0  0  0  0  0
    3.8552   13.3088   25.3522 H   0  0  0  0  0  0
    6.3061   12.2672   26.6421 H   0  0  0  0  0  0
    5.2068   13.5043   27.3406 H   0  0  0  0  0  0
    6.9715   13.8244   27.2412 H   0  0  0  0  0  0
    5.5205   15.9487   24.5538 H   0  0  0  0  0  0
    6.5214   15.9344   26.0454 H   0  0  0  0  0  0
    4.7566   15.6142   26.1448 H   0  0  0  0  0  0
    2.3127   12.4429   22.7654 H   0  0  0  0  0  0
   -0.1022   12.6222   23.3534 H   0  0  0  0  0  0
    2.7547    9.3782   25.7118 H   0  0  0  0  0  0
   -0.7765    9.2428   26.6985 H   0  0  0  0  0  0
    2.1599    9.2932   27.6363 H   0  0  0  0  0  0
    0.7310    8.8450   28.6283 H   0  0  0  0  0  0
    1.9995    6.9087   28.1263 H   0  0  0  0  0  0
   -0.2069    6.0820   28.0512 H   0  0  0  0  0  0
   -0.6843    7.2183   26.7444 H   0  0  0  0  0  0
    0.2734    4.4624   26.5085 H   0  0  0  0  0  0
   -0.3060    5.5614   25.2111 H   0  0  0  0  0  0
    2.4936    5.0001   26.1529 H   0  0  0  0  0  0
    1.9059    5.4766   24.5237 H   0  0  0  0  0  0
    1.7355    7.8463   25.1742 H   0  0  0  0  0  0
    3.7528    8.5295   26.1607 H   0  0  0  0  0  0
    4.1315    6.8431   26.6500 H   0  0  0  0  0  0
    5.4368    7.1994   24.7638 H   0  0  0  0  0  0
    4.0182    6.3049   24.1201 H   0  0  0  0  0  0
    3.0602    8.4780   23.4393 H   0  0  0  0  0  0
    4.5205    7.8979   22.5688 H   0  0  0  0  0  0
   -1.7671   12.2133   23.3281 H   0  0  0  0  0  0
   -3.3317   11.8760   24.3616 H   0  0  0  0  0  0
  1  2  1  0  0  0
  1 33  1  0  0  0
  1 34  1  0  0  0
  1 35  1  0  0  0
  2  3  2  0  0  0
  2  6  1  0  0  0
  3  4  1  0  0  0
  3 29  1  0  0  0
  4  5  1  0  0  0
  4 14  1  0  0  0
  5  6  2  0  0  0
  5 11  1  0  0  0
  6  7  1  0  0  0
  7  8  2  0  0  0
  7  9  1  0  0  0
  9 10  1  0  0  0
  9 36  1  0  0  0
  9 37  1  0  0  0
 10 11  1  0  0  0
 10 12  1  0  0  0
 10 13  1  0  0  0
 11 38  1  0  0  0
 11 39  1  0  0  0
 12 40  1  0  0  0
 12 41  1  0  0  0
 12 42  1  0  0  0
 13 43  1  0  0  0
 13 44  1  0  0  0
 13 45  1  0  0  0
 14 15  2  0  0  0
 14 19  1  0  0  0
 15 16  1  0  0  0
 15 46  1  0  0  0
 16 17  2  0  0  0
 16 47  1  0  0  0
 17 18  1  0  0  0
 17 30  1  0  0  0
 18 19  2  0  0  0
 18 20  1  0  0  0
 19 48  1  0  0  0
 20 21  1  0  0  0
 20 49  1  0  0  0
 21 22  1  0  0  0
 21 50  1  0  0  0
 21 51  1  0  0  0
 22 23  1  0  0  0
 22 26  1  0  0  0
 22 52  1  0  0  0
 23 24  1  0  0  0
 23 53  1  0  0  0
 23 54  1  0  0  0
 24 25  1  0  0  0
 24 55  1  0  0  0
 24 56  1  0  0  0
 25 26  1  0  0  0
 25 57  1  0  0  0
 25 58  1  0  0  0
 26 27  1  0  0  0
 26 59  1  0  0  0
 27 28  1  0  0  0
 27 60  1  0  0  0
 27 61  1  0  0  0
 28 29  1  0  0  0
 28 62  1  0  0  0
 28 63  1  0  0  0
 29 64  1  0  0  0
 29 65  1  0  0  0
 30 31  2  0  0  0
 30 32  1  0  0  0
 32 66  1  0  0  0
 32 67  1  0  0  0
M  CHG  1  26   1
M  END
> <s_m_source_file>
../3r92_ligand.sdf

> <i_m_source_file_index>
1

> <s_epik_input>
W0NIMl0xQyhbQ0gzXSkoW0NIM10pW0NIMl1DKD1PKWMoYzJbQ0gzXSljMW4oYzIzKWM0W2NIXVtjSF1jKEMoPU8pW05IMl0pYyhbY0hdNClbTkhdW0NIMl1bQ0BASF01W05ASCtdKFtDSDJdW0NIMl1bQ0gyXTUpW0NIMl1bQ0gyXVtDSDJdMw==

> <s_epik_cmdline>
J2VwaWtfYXBwJywgJy1pbWFlJywgJ2xpZ2FuZF9wcm8ubWFlJywgJy1vbWFlJywgJ2xpZ2FuZF9wcmVwLm1hZScsICctbXMnLCAnMScsICctcGgnLCAnNycsICctcGh0JywgJzAuNScsICctbnQn

> <r_lp_tautomer_probability>
1

> <r_epik_Ionization_Penalty>
  0.0071

> <r_epik_Ionization_Penalty_Charging>
  0.0071

> <r_epik_Ionization_Penalty_Neutral>
  0.0000

> <r_epik_State_Penalty>
 -0.0000

> <r_epik_Charging_Adjusted_Penalty>
0.00709085374191529

> <i_epik_Tot_Q>
1

> <i_epik_Tot_abs_Q>
1

$$$$
