3r93_ligand
                    3D
 Schrodinger Suite 2020-3.
167166  0  0  1  0            999 V2000
   17.8810   30.5210   22.9140 N   0  3  0  0  0  0
   17.5810   29.1150   22.5260 C   0  0  2  0  0  0
   16.0710   28.9290   22.4290 C   0  0  0  0  0  0
   15.3060   29.5020   23.2150 O   0  0  0  0  0  0
   18.1750   28.1310   23.5410 C   0  0  0  0  0  0
   15.6410   28.1240   21.4650 N   0  0  0  0  0  0
   14.2110   27.9500   21.1920 C   0  0  2  0  0  0
   13.7120   26.6850   21.8870 C   0  0  0  0  0  0
   14.3090   25.6140   21.7370 O   0  0  0  0  0  0
   13.9560   27.8800   19.6870 C   0  0  0  0  0  0
   14.7040   28.9330   18.8510 C   0  0  0  0  0  0
   14.0040   30.2940   18.8100 C   0  0  0  0  0  0
   12.8230   30.3970   18.4790 O   0  0  0  0  0  0
   14.7500   31.3440   19.1170 N   0  0  0  0  0  0
   12.6210   26.8150   22.6420 N   0  0  0  0  0  0
   12.0880   25.7100   23.4560 C   0  0  2  0  0  0
   10.5690   25.5080   23.2820 C   0  0  0  0  0  0
    9.8520   26.4190   22.8520 O   0  0  0  0  0  0
   12.3670   25.9550   24.9570 C   0  0  2  0  0  0
   11.4920   26.9790   25.4440 O   0  0  0  0  0  0
   13.8430   26.3690   25.2010 C   0  0  0  0  0  0
   10.0890   24.3140   23.6280 N   0  0  0  0  0  0
    8.6530   24.0060   23.5930 C   0  0  2  0  0  0
    8.3390   22.6620   24.2560 C   0  0  0  0  0  0
    9.2230   21.7920   24.3780 O   0  0  0  0  0  0
    8.1340   24.0050   22.1580 C   0  0  0  0  0  0
    7.0780   22.5150   24.6850 N   0  0  0  0  0  0
    6.5390   21.2440   25.1830 C   0  0  2  0  0  0
    6.4650   20.2750   24.0010 C   0  0  0  0  0  0
    5.9620   20.6570   22.9500 O   0  0  0  0  0  0
    5.1090   21.4180   25.7440 C   0  0  0  0  0  0
    4.9530   22.1560   27.0650 C   0  0  0  0  0  0
    3.4740   22.1810   27.5280 C   0  0  0  0  0  0
    6.9570   19.0460   24.1800 N   0  0  0  0  0  0
    6.7940   17.9800   23.2020 C   0  0  1  0  0  0
    8.0430   17.0990   23.2240 C   0  0  0  0  0  0
    7.9620   15.9730   22.1990 C   0  0  0  0  0  0
    9.3370   15.4260   21.7980 C   0  0  0  0  0  0
   10.0060   14.5920   22.8800 C   0  0  0  0  0  0
   11.4310   14.2880   22.6050 N   0  3  0  0  0  0
    5.5520   17.1640   23.4790 C   0  0  0  0  0  0
    5.3850   16.6630   24.5820 O   0  0  0  0  0  0
   11.6400   13.6020   21.3180 C   0  0  0  0  0  0
   11.9110   13.3900   23.6550 C   0  0  0  0  0  0
   12.2500   15.5130   22.6190 C   0  0  0  0  0  0
    4.6720   17.0270   22.4820 N   0  0  0  0  0  0
    3.4690   16.1820   22.5820 C   0  0  2  0  0  0
    3.8630   14.7050   22.5000 C   0  0  0  0  0  0
    4.3820   14.2580   21.4880 O   0  0  0  0  0  0
    2.4930   16.4570   21.4270 C   0  0  0  0  0  0
    1.9340   17.7560   21.4440 O   0  0  0  0  0  0
    3.5920   13.9370   23.5420 N   0  0  0  0  0  0
    3.8900   12.5040   23.5100 C   0  0  2  0  0  0
    2.6300   11.6520   23.2540 C   0  0  0  0  0  0
    2.7160   10.4550   23.0150 O   0  0  0  0  0  0
    4.4980   12.0640   24.8310 C   0  0  2  0  0  0
    3.6360   12.4850   25.8880 O   0  0  0  0  0  0
    5.8940   12.6620   24.9900 C   0  0  0  0  0  0
    1.4610   12.2740   23.3240 N   0  0  0  0  0  0
    0.2220   11.5620   23.0780 C   0  0  0  0  0  0
   -0.2790   11.8460   21.6840 C   0  0  0  0  0  0
    0.5090   12.0380   20.7440 O   0  0  0  0  0  0
   -1.6010   11.8900   21.5590 N   0  0  0  0  0  0
   -2.2350   12.1950   20.2870 C   0  0  0  0  0  0
   -3.2440   11.1460   19.9220 C   0  0  0  0  0  0
   -3.5290   10.2330   20.7130 O   0  0  0  0  0  0
   -3.7910   11.2950   18.7290 N   0  0  0  0  0  0
   -4.9370   10.5210   18.2950 C   0  0  2  0  0  0
   -4.5630    9.0360   18.3180 C   0  0  0  0  0  0
   -3.4320    8.6630   17.9560 O   0  0  0  0  0  0
   -5.3940   10.9810   16.8950 C   0  0  0  0  0  0
   -6.9180   11.1020   16.7470 C   0  0  0  0  0  0
   -7.3520   11.2580   15.2820 C   0  0  0  0  0  0
   -5.5230    8.2090   18.7320 N   0  0  0  0  0  0
   -5.3010    6.7990   19.0550 C   0  0  2  0  0  0
   -5.7610    5.8580   17.9430 C   0  0  0  0  0  0
   -5.3400    5.9950   16.7900 O   0  0  0  0  0  0
   -6.0140    6.4500   20.3710 C   0  0  0  0  0  0
   -6.5770    4.9342   18.2044 O   0  0  0  0  0  0
   17.4456   31.2069   22.1724 H   0  0  0  0  0  0
   18.9707   30.6662   22.9524 H   0  0  0  0  0  0
   17.4483   30.7285   23.9038 H   0  0  0  0  0  0
   18.0441   28.9376   21.5441 H   0  0  0  0  0  0
   19.2636   28.2773   23.5996 H   0  0  0  0  0  0
   17.9602   27.1005   23.2216 H   0  0  0  0  0  0
   17.7273   28.3093   24.5298 H   0  0  0  0  0  0
   16.3856   27.5808   20.8646 H   0  0  0  0  0  0
   13.6970   28.8327   21.6003 H   0  0  0  0  0  0
   14.2690   26.8961   19.3075 H   0  0  0  0  0  0
   12.8836   28.0249   19.4897 H   0  0  0  0  0  0
   15.7068   29.0923   19.2741 H   0  0  0  0  0  0
   14.7958   28.5797   17.8133 H   0  0  0  0  0  0
   15.8018   31.2053   19.4077 H   0  0  0  0  0  0
   14.3179   32.3550   19.0814 H   0  0  0  0  0  0
   12.1156   27.7920   22.6425 H   0  0  0  0  0  0
   12.6271   24.8346   23.0648 H   0  0  0  0  0  0
   12.1237   25.0537   25.5387 H   0  0  0  0  0  0
   10.4021   26.8588   25.3561 H   0  0  0  0  0  0
   14.5118   25.5804   24.8258 H   0  0  0  0  0  0
   14.0108   26.5100   26.2789 H   0  0  0  0  0  0
   14.0522   27.3100   24.6711 H   0  0  0  0  0  0
   10.8086   23.5460   23.9479 H   0  0  0  0  0  0
    8.1819   24.8162   24.1688 H   0  0  0  0  0  0
    8.3614   24.9718   21.6852 H   0  0  0  0  0  0
    7.0456   23.8457   22.1619 H   0  0  0  0  0  0
    8.6209   23.1968   21.5926 H   0  0  0  0  0  0
    6.4372   23.4085   24.6509 H   0  0  0  0  0  0
    7.2228   20.9067   25.9759 H   0  0  0  0  0  0
    4.4988   21.9828   25.0238 H   0  0  0  0  0  0
    4.6576   20.4288   25.9107 H   0  0  0  0  0  0
    5.5523   21.6537   27.8386 H   0  0  0  0  0  0
    5.2998   23.1934   26.9486 H   0  0  0  0  0  0
    3.3980   22.7208   28.4834 H   0  0  0  0  0  0
    3.1135   21.1501   27.6596 H   0  0  0  0  0  0
    2.8609   22.6898   26.7696 H   0  0  0  0  0  0
    7.5051   18.8559   25.1146 H   0  0  0  0  0  0
    6.6636   18.4639   22.2228 H   0  0  0  0  0  0
    8.9276   17.7112   22.9943 H   0  0  0  0  0  0
    8.1572   16.6495   24.2215 H   0  0  0  0  0  0
    7.3798   15.1383   22.6165 H   0  0  0  0  0  0
    7.4709   16.3423   21.2866 H   0  0  0  0  0  0
    9.2319   14.7850   20.9103 H   0  0  0  0  0  0
   10.0119   16.2635   21.5677 H   0  0  0  0  0  0
    9.9661   15.1329   23.8370 H   0  0  0  0  0  0
    9.4803   13.6309   22.9798 H   0  0  0  0  0  0
   11.0353   12.6836   21.2896 H   0  0  0  0  0  0
   12.7037   13.3442   21.2084 H   0  0  0  0  0  0
   11.3370   14.2661   20.4951 H   0  0  0  0  0  0
   11.3073   12.4705   23.6553 H   0  0  0  0  0  0
   11.8219   13.8875   24.6320 H   0  0  0  0  0  0
   12.9648   13.1367   23.4673 H   0  0  0  0  0  0
   11.8989   16.1978   21.8330 H   0  0  0  0  0  0
   13.3027   15.2524   22.4349 H   0  0  0  0  0  0
   12.1597   16.0032   23.5996 H   0  0  0  0  0  0
    4.8791   17.5815   21.5549 H   0  0  0  0  0  0
    3.0186   16.4409   23.5516 H   0  0  0  0  0  0
    3.0186   16.3421   20.4676 H   0  0  0  0  0  0
    1.6575   15.7431   21.4751 H   0  0  0  0  0  0
    1.2220   18.0586   20.6620 H   0  0  0  0  0  0
    3.1384   14.3845   24.4386 H   0  0  0  0  0  0
    4.6067   12.3976   22.6824 H   0  0  0  0  0  0
    4.5536   10.9682   24.9099 H   0  0  0  0  0  0
    2.5922   12.1392   25.9172 H   0  0  0  0  0  0
    6.5351   12.3213   24.1636 H   0  0  0  0  0  0
    6.3258   12.3356   25.9476 H   0  0  0  0  0  0
    5.8267   13.7598   24.9733 H   0  0  0  0  0  0
    1.4397   13.3453   23.5728 H   0  0  0  0  0  0
    0.3933   10.4806   23.1840 H   0  0  0  0  0  0
   -0.5375   11.8858   23.8048 H   0  0  0  0  0  0
   -2.2183   11.6889   22.4470 H   0  0  0  0  0  0
   -2.7463   13.1665   20.3558 H   0  0  0  0  0  0
   -1.4705   12.2381   19.4973 H   0  0  0  0  0  0
   -3.3437   12.0405   18.0551 H   0  0  0  0  0  0
   -5.7473   10.7123   19.0139 H   0  0  0  0  0  0
   -4.9659   11.9704   16.6763 H   0  0  0  0  0  0
   -5.0499   10.2578   16.1409 H   0  0  0  0  0  0
   -7.3984   10.1981   17.1497 H   0  0  0  0  0  0
   -7.2715   11.9834   17.3022 H   0  0  0  0  0  0
   -8.4477   11.3403   15.2310 H   0  0  0  0  0  0
   -7.0230   10.3801   14.7067 H   0  0  0  0  0  0
   -6.8961   12.1654   14.8592 H   0  0  0  0  0  0
   -6.5294    8.6429   18.8258 H   0  0  0  0  0  0
   -4.2090    6.7051   19.1482 H   0  0  0  0  0  0
   -5.6754    7.1332   21.1638 H   0  0  0  0  0  0
   -5.7759    5.4139   20.6534 H   0  0  0  0  0  0
   -7.1010    6.5531   20.2376 H   0  0  0  0  0  0
   -6.9114    4.2539   17.4073 H   0  0  0  0  0  0
  1  2  1  0  0  0
  1 80  1  0  0  0
  1 81  1  0  0  0
  1 82  1  0  0  0
  2  3  1  0  0  0
  2  5  1  0  0  0
  2 83  1  0  0  0
  3  4  2  0  0  0
  3  6  1  0  0  0
  5 84  1  0  0  0
  5 85  1  0  0  0
  5 86  1  0  0  0
  6  7  1  0  0  0
  6 87  1  0  0  0
  7  8  1  0  0  0
  7 10  1  0  0  0
  7 88  1  0  0  0
  8  9  2  0  0  0
  8 15  1  0  0  0
 10 11  1  0  0  0
 10 89  1  0  0  0
 10 90  1  0  0  0
 11 12  1  0  0  0
 11 91  1  0  0  0
 11 92  1  0  0  0
 12 13  2  0  0  0
 12 14  1  0  0  0
 14 93  1  0  0  0
 14 94  1  0  0  0
 15 16  1  0  0  0
 15 95  1  0  0  0
 16 17  1  0  0  0
 16 19  1  0  0  0
 16 96  1  0  0  0
 17 18  2  0  0  0
 17 22  1  0  0  0
 19 20  1  0  0  0
 19 21  1  0  0  0
 19 97  1  0  0  0
 20 98  1  0  0  0
 21 99  1  0  0  0
 21100  1  0  0  0
 21101  1  0  0  0
 22 23  1  0  0  0
 22102  1  0  0  0
 23 24  1  0  0  0
 23 26  1  0  0  0
 23103  1  0  0  0
 24 25  2  0  0  0
 24 27  1  0  0  0
 26104  1  0  0  0
 26105  1  0  0  0
 26106  1  0  0  0
 27 28  1  0  0  0
 27107  1  0  0  0
 28 29  1  0  0  0
 28 31  1  0  0  0
 28108  1  0  0  0
 29 30  2  0  0  0
 29 34  1  0  0  0
 31 32  1  0  0  0
 31109  1  0  0  0
 31110  1  0  0  0
 32 33  1  0  0  0
 32111  1  0  0  0
 32112  1  0  0  0
 33113  1  0  0  0
 33114  1  0  0  0
 33115  1  0  0  0
 34 35  1  0  0  0
 34116  1  0  0  0
 35 36  1  0  0  0
 35 41  1  0  0  0
 35117  1  0  0  0
 36 37  1  0  0  0
 36118  1  0  0  0
 36119  1  0  0  0
 37 38  1  0  0  0
 37120  1  0  0  0
 37121  1  0  0  0
 38 39  1  0  0  0
 38122  1  0  0  0
 38123  1  0  0  0
 39 40  1  0  0  0
 39124  1  0  0  0
 39125  1  0  0  0
 40 43  1  0  0  0
 40 44  1  0  0  0
 40 45  1  0  0  0
 41 42  2  0  0  0
 41 46  1  0  0  0
 43126  1  0  0  0
 43127  1  0  0  0
 43128  1  0  0  0
 44129  1  0  0  0
 44130  1  0  0  0
 44131  1  0  0  0
 45132  1  0  0  0
 45133  1  0  0  0
 45134  1  0  0  0
 46 47  1  0  0  0
 46135  1  0  0  0
 47 48  1  0  0  0
 47 50  1  0  0  0
 47136  1  0  0  0
 48 49  2  0  0  0
 48 52  1  0  0  0
 50 51  1  0  0  0
 50137  1  0  0  0
 50138  1  0  0  0
 51139  1  0  0  0
 52 53  1  0  0  0
 52140  1  0  0  0
 53 54  1  0  0  0
 53 56  1  0  0  0
 53141  1  0  0  0
 54 55  2  0  0  0
 54 59  1  0  0  0
 56 57  1  0  0  0
 56 58  1  0  0  0
 56142  1  0  0  0
 57143  1  0  0  0
 58144  1  0  0  0
 58145  1  0  0  0
 58146  1  0  0  0
 59 60  1  0  0  0
 59147  1  0  0  0
 60 61  1  0  0  0
 60148  1  0  0  0
 60149  1  0  0  0
 61 62  2  0  0  0
 61 63  1  0  0  0
 63 64  1  0  0  0
 63150  1  0  0  0
 64 65  1  0  0  0
 64151  1  0  0  0
 64152  1  0  0  0
 65 66  2  0  0  0
 65 67  1  0  0  0
 67 68  1  0  0  0
 67153  1  0  0  0
 68 69  1  0  0  0
 68 71  1  0  0  0
 68154  1  0  0  0
 69 70  2  0  0  0
 69 74  1  0  0  0
 71 72  1  0  0  0
 71155  1  0  0  0
 71156  1  0  0  0
 72 73  1  0  0  0
 72157  1  0  0  0
 72158  1  0  0  0
 73159  1  0  0  0
 73160  1  0  0  0
 73161  1  0  0  0
 74 75  1  0  0  0
 74162  1  0  0  0
 75 76  1  0  0  0
 75 78  1  0  0  0
 75163  1  0  0  0
 76 77  2  0  0  0
 76 79  1  0  0  0
 78164  1  0  0  0
 78165  1  0  0  0
 78166  1  0  0  0
 79167  1  0  0  0
M  CHG  2   1   1  40   1
M  END
> <s_m_source_file>
../3r93_ligand.sdf

> <i_m_source_file_index>
1

> <s_epik_input>
W05IMytdW0NAQEhdKFtDSDNdKUMoPU8pW05IXVtDQEBIXShbQ0gyXVtDSDJdQyg9TylbTkgyXSlDKD1PKVtOSF1bQ0BASF0oW0NASF0oW09IXSlbQ0gzXSlDKD1PKVtOSF1bQ0BASF0oW0NIM10pQyg9TylbTkhdW0NAQEhdKFtDSDJdW0NIMl1bQ0gzXSlDKD1PKVtOSF1bQ0BASF0oW0NIMl1bQ0gyXVtDSDJdW0NIMl1bTitdKFtDSDNdKShbQ0gzXSlbQ0gzXSlDKD1PKVtOSF1bQ0BASF0oW0NIMl1bT0hdKUMoPU8pW05IXVtDQEBIXShbQ0BIXShbT0hdKVtDSDNdKUMoPU8pW05IXVtDSDJdQyg9TylbTkhdW0NIMl1DKD1PKVtOSF1bQ0BASF0oW0NIMl1bQ0gyXVtDSDNdKUMoPU8pW05IXVtDQEBIXShbQ0gzXSlDKD1PKVtPSF0=

> <s_epik_cmdline>
J2VwaWtfYXBwJywgJy1pbWFlJywgJ2xpZ2FuZF9wcm8ubWFlJywgJy1vbWFlJywgJ2xpZ2FuZF9wcmVwLm1hZScsICctbXMnLCAnMScsICctcGgnLCAnNycsICctcGh0JywgJzAuNScsICctbnQn

> <s_epik_pKa_notes>
Molecule size exceeds maximum supported for generating protonation states

$$$$
