3r9n_ligand
                    3D
 Schrodinger Suite 2020-3.
 45 47  0  0  1  0            999 V2000
   94.8620   76.6930  -45.8750 C   0  0  0  0  0  0
   94.9440   78.9130  -44.7530 N   0  3  0  0  0  0
   94.8530   80.2470  -44.7500 O   0  0  0  0  0  0
   92.1840   80.5770  -48.3090 S   0  0  0  0  0  0
   94.7740   78.2150  -45.8330 C   0  0  0  0  0  0
   91.8030   81.6670  -50.6500 N   0  3  0  0  0  0
   95.1920   78.3960  -43.6880 O   0  5  0  0  0  0
   94.4670   78.8940  -47.1590 C   0  0  0  0  0  0
   90.5050   82.6090  -48.8930 N   0  0  0  0  0  0
   94.5990   78.4450  -50.6810 O   0  0  0  0  0  0
   94.2690   78.1860  -48.3590 C   0  0  0  0  0  0
   93.2430   80.4430  -52.0780 N   0  0  0  0  0  0
   94.3710   76.6540  -48.3270 C   0  0  0  0  0  0
   94.6480   75.9630  -47.1650 C   0  0  0  0  0  0
   93.9930   78.8440  -49.5550 C   0  0  3  0  0  0
   93.0320   79.9930  -49.6790 C   0  0  0  0  0  0
   92.7130   80.6940  -50.8440 C   0  0  0  0  0  0
   91.4280   81.7140  -49.3460 C   0  0  0  0  0  0
   89.9070   82.4370  -47.5640 C   0  0  0  0  0  0
   88.8040   81.2880  -47.5510 C   0  0  0  0  0  0
   88.1840   81.1220  -46.1390 C   0  0  0  0  0  0
   87.5940   82.4860  -45.6290 C   0  0  0  0  0  0
   88.6370   83.6490  -45.6870 C   0  0  0  0  0  0
   89.2830   83.7890  -47.0990 C   0  0  0  0  0  0
   95.0811   76.1355  -44.9644 H   0  0  0  0  0  0
   94.3970   79.9815  -47.1808 H   0  0  0  0  0  0
   90.2084   83.4601  -49.5236 H   0  0  0  0  0  0
   95.3132   77.6088  -50.6546 H   0  0  0  0  0  0
   92.9328   81.0475  -52.9431 H   0  0  0  0  0  0
   93.9799   79.6365  -52.2064 H   0  0  0  0  0  0
   94.2199   76.0952  -49.2506 H   0  0  0  0  0  0
   94.7117   74.8751  -47.1863 H   0  0  0  0  0  0
   93.1683   78.1429  -49.7504 H   0  0  0  0  0  0
   90.7561   82.1550  -46.9240 H   0  0  0  0  0  0
   88.0015   81.5422  -48.2590 H   0  0  0  0  0  0
   89.2649   80.3339  -47.8463 H   0  0  0  0  0  0
   87.3755   80.3772  -46.1788 H   0  0  0  0  0  0
   88.9593   80.7843  -45.4355 H   0  0  0  0  0  0
   86.7348   82.7705  -46.2542 H   0  0  0  0  0  0
   87.2670   82.3764  -44.5844 H   0  0  0  0  0  0
   88.1403   84.5995  -45.4422 H   0  0  0  0  0  0
   89.4405   83.4575  -44.9606 H   0  0  0  0  0  0
   90.0677   84.5585  -47.0534 H   0  0  0  0  0  0
   88.5062   84.0993  -47.8134 H   0  0  0  0  0  0
   91.4715   82.2866  -51.4962 H   0  0  0  0  0  0
  1  5  2  0  0  0
  1 14  1  0  0  0
  1 25  1  0  0  0
  2  3  2  0  0  0
  2  5  1  0  0  0
  2  7  1  0  0  0
  4 16  1  0  0  0
  4 18  1  0  0  0
  5  8  1  0  0  0
  6 17  1  0  0  0
  6 18  2  0  0  0
  6 45  1  0  0  0
  8 11  2  0  0  0
  8 26  1  0  0  0
  9 18  1  0  0  0
  9 19  1  0  0  0
  9 27  1  0  0  0
 10 15  1  0  0  0
 10 28  1  0  0  0
 11 13  1  0  0  0
 11 15  1  0  0  0
 12 17  1  0  0  0
 12 29  1  0  0  0
 12 30  1  0  0  0
 13 14  2  0  0  0
 13 31  1  0  0  0
 14 32  1  0  0  0
 15 16  1  0  0  0
 15 33  1  0  0  0
 16 17  2  0  0  0
 19 20  1  0  0  0
 19 24  1  0  0  0
 19 34  1  0  0  0
 20 21  1  0  0  0
 20 35  1  0  0  0
 20 36  1  0  0  0
 21 22  1  0  0  0
 21 37  1  0  0  0
 21 38  1  0  0  0
 22 23  1  0  0  0
 22 39  1  0  0  0
 22 40  1  0  0  0
 23 24  1  0  0  0
 23 41  1  0  0  0
 23 42  1  0  0  0
 24 43  1  0  0  0
 24 44  1  0  0  0
M  CHG  3   2   1   6   1   7  -1
M  END
> <s_m_source_file>
../3r9n_ligand.sdf

> <i_m_source_file_index>
1

> <s_epik_input>
Tz1bTitdKFtPLV0pYzFbY0hdW2NIXVtjSF1jKFtjSF0xKVtDSF0oW09IXSljMnNjKG5jMltOSDJdKVtOSF1bQ0hdM1tDSDJdW0NIMl1bQ0gyXVtDSDJdW0NIMl0z

> <s_epik_cmdline>
J2VwaWtfYXBwJywgJy1pbWFlJywgJ2xpZ2FuZF9wcm8ubWFlJywgJy1vbWFlJywgJ2xpZ2FuZF9wcmVwLm1hZScsICctbXMnLCAnMScsICctcGgnLCAnNycsICctcGh0JywgJzAuNScsICctbnQn

> <r_epik_Ionization_Penalty>
  0.3776

> <r_epik_Ionization_Penalty_Charging>
  0.3724

> <r_epik_Ionization_Penalty_Neutral>
  0.0052

> <r_epik_State_Penalty>
  0.3699

> <r_epik_Charging_Adjusted_Penalty>
0.742363087647686

> <i_epik_Tot_Q>
1

> <i_epik_Tot_abs_Q>
3

$$$$
