3rah_ligand
                    3D
 Schrodinger Suite 2020-3.
 49 52  0  0  1  0            999 V2000
   94.6170   77.1240  -46.0520 C   0  0  0  0  0  0
   92.2410   81.0180  -48.5450 S   0  0  0  0  0  0
   94.3600   76.3890  -47.2640 C   0  0  0  0  0  0
   91.8650   82.0740  -50.8890 N   0  3  0  0  0  0
   94.1630   77.0890  -48.5100 C   0  0  0  0  0  0
   90.5810   83.0760  -49.1280 N   0  0  0  0  0  0
   94.6080   78.7620  -50.8850 O   0  0  0  0  0  0
   94.4910   79.2960  -47.3520 C   0  0  0  0  0  0
   93.2810   80.7850  -52.3010 N   0  0  0  0  0  0
   94.6870   78.6160  -46.0970 C   0  0  0  0  0  0
   94.8060   76.4420  -44.7880 C   0  0  0  0  0  0
   95.0590   77.2070  -43.5860 C   0  0  0  0  0  0
   95.1290   78.6510  -43.6280 C   0  0  0  0  0  0
   94.9460   79.3590  -44.8750 C   0  0  0  0  0  0
   94.2200   78.5460  -48.5900 C   0  0  0  0  0  0
   94.0010   79.2080  -49.7530 C   0  0  2  0  0  0
   93.0700   80.3800  -49.8980 C   0  0  0  0  0  0
   92.7630   81.0710  -51.0710 C   0  0  0  0  0  0
   91.4960   82.1530  -49.5780 C   0  0  0  0  0  0
   89.9970   82.9140  -47.7880 C   0  0  0  0  0  0
   88.9240   81.7720  -47.7610 C   0  0  0  0  0  0
   88.3210   81.6020  -46.3440 C   0  0  0  0  0  0
   87.7250   82.9360  -45.8250 C   0  0  0  0  0  0
   88.7400   84.1050  -45.9040 C   0  0  0  0  0  0
   89.3600   84.2490  -47.3170 C   0  0  0  0  0  0
   94.3142   75.3002  -47.2396 H   0  0  0  0  0  0
   93.9664   76.5152  -49.4156 H   0  0  0  0  0  0
   90.2849   83.9279  -49.7577 H   0  0  0  0  0  0
   95.2993   77.9076  -50.8383 H   0  0  0  0  0  0
   94.5442   80.3842  -47.3857 H   0  0  0  0  0  0
   92.9837   81.3825  -53.1755 H   0  0  0  0  0  0
   93.9957   79.9571  -52.4178 H   0  0  0  0  0  0
   94.7577   75.3540  -44.7424 H   0  0  0  0  0  0
   95.1985   76.6886  -42.6374 H   0  0  0  0  0  0
   95.3213   79.2099  -42.7121 H   0  0  0  0  0  0
   95.0021   80.4473  -44.8987 H   0  0  0  0  0  0
   94.6898   78.7882  -49.0052 H   0  0  0  0  0  0
   90.8511   82.6447  -47.1493 H   0  0  0  0  0  0
   88.1112   82.0160  -48.4609 H   0  0  0  0  0  0
   89.3918   80.8221  -48.0592 H   0  0  0  0  0  0
   87.5205   80.8481  -46.3742 H   0  0  0  0  0  0
   89.1071   81.2744  -45.6478 H   0  0  0  0  0  0
   86.8474   83.2058  -46.4309 H   0  0  0  0  0  0
   87.4227   82.8182  -44.7739 H   0  0  0  0  0  0
   88.2322   85.0488  -45.6564 H   0  0  0  0  0  0
   89.5574   83.9299  -45.1890 H   0  0  0  0  0  0
   90.1319   85.0320  -47.2838 H   0  0  0  0  0  0
   88.5674   84.5452  -48.0199 H   0  0  0  0  0  0
   91.5410   82.6842  -51.7450 H   0  0  0  0  0  0
  1  3  2  0  0  0
  1 10  1  0  0  0
  1 11  1  0  0  0
  2 17  1  0  0  0
  2 19  1  0  0  0
  3  5  1  0  0  0
  3 26  1  0  0  0
  4 18  1  0  0  0
  4 19  2  0  0  0
  4 49  1  0  0  0
  5 15  2  0  0  0
  5 27  1  0  0  0
  6 19  1  0  0  0
  6 20  1  0  0  0
  6 28  1  0  0  0
  7 16  1  0  0  0
  7 29  1  0  0  0
  8 10  2  0  0  0
  8 15  1  0  0  0
  8 30  1  0  0  0
  9 18  1  0  0  0
  9 31  1  0  0  0
  9 32  1  0  0  0
 10 14  1  0  0  0
 11 12  2  0  0  0
 11 33  1  0  0  0
 12 13  1  0  0  0
 12 34  1  0  0  0
 13 14  2  0  0  0
 13 35  1  0  0  0
 14 36  1  0  0  0
 15 16  1  0  0  0
 16 17  1  0  0  0
 16 37  1  0  0  0
 17 18  2  0  0  0
 20 21  1  0  0  0
 20 25  1  0  0  0
 20 38  1  0  0  0
 21 22  1  0  0  0
 21 39  1  0  0  0
 21 40  1  0  0  0
 22 23  1  0  0  0
 22 41  1  0  0  0
 22 42  1  0  0  0
 23 24  1  0  0  0
 23 43  1  0  0  0
 23 44  1  0  0  0
 24 25  1  0  0  0
 24 45  1  0  0  0
 24 46  1  0  0  0
 25 47  1  0  0  0
 25 48  1  0  0  0
M  CHG  1   4   1
M  END
> <s_m_source_file>
../3rah_ligand.sdf

> <i_m_source_file_index>
1

> <s_epik_input>
W2NIXTFbY0hdW2NIXVtjSF1jKGMxMilbY0hdYyhbY0hdW2NIXTIpW0NAQEhdKFtPSF0pYzNzYyhuYzNbTkgyXSlbTkhdW0NIXTRbQ0gyXVtDSDJdW0NIMl1bQ0gyXVtDSDJdNA==

> <s_epik_cmdline>
J2VwaWtfYXBwJywgJy1pbWFlJywgJ2xpZ2FuZF9wcm8ubWFlJywgJy1vbWFlJywgJ2xpZ2FuZF9wcmVwLm1hZScsICctbXMnLCAnMScsICctcGgnLCAnNycsICctcGh0JywgJzAuNScsICctbnQn

> <r_epik_Ionization_Penalty>
  0.3758

> <r_epik_Ionization_Penalty_Charging>
  0.3724

> <r_epik_Ionization_Penalty_Neutral>
  0.0034

> <r_epik_State_Penalty>
  0.3699

> <r_epik_Charging_Adjusted_Penalty>
0.742363087647689

> <i_epik_Tot_Q>
1

> <i_epik_Tot_abs_Q>
1

$$$$
