3rak_ligand
                    3D
 Schrodinger Suite 2020-3.
 41 43  0  0  1  0            999 V2000
   96.1980   76.8310  -46.7750 C   0  0  0  0  0  0
   92.2740   81.7580  -50.8000 N   0  0  0  0  0  0
   86.2390   80.4640  -44.9080 O   0  0  0  0  0  0
   92.9750   80.4930  -48.6640 S   0  0  0  0  0  0
   97.1760   77.6060  -47.5250 C   0  0  0  0  0  0
   93.8050   80.9550  -52.3990 N   0  0  0  0  0  0
   86.8720   82.8280  -43.8860 O   0  0  0  0  0  0
   87.4250   81.4030  -44.3890 S   0  0  0  0  0  0
   96.7780   78.4020  -48.6470 C   0  0  0  0  0  0
   90.9190   82.3440  -48.9990 N   0  0  0  0  0  0
   95.5740   79.1170  -51.3980 O   0  0  0  0  0  0
   94.3860   77.6580  -48.2990 C   0  0  0  0  0  0
   88.1810   80.6700  -43.2350 N   0  0  0  0  0  0
   94.7780   76.8600  -47.1730 C   0  0  0  0  0  0
   95.3800   78.4450  -49.0520 C   0  0  0  0  0  0
   94.9520   79.2580  -50.2160 C   0  0  3  0  0  0
   93.8150   80.2220  -50.1130 C   0  0  0  0  0  0
   93.3200   80.9790  -51.1420 C   0  0  0  0  0  0
   91.9660   81.6150  -49.5100 C   0  0  0  0  0  0
   90.1340   82.0800  -47.8970 C   0  0  0  0  0  0
   90.2920   80.8920  -47.0290 C   0  0  0  0  0  0
   89.4470   80.6750  -45.9200 C   0  0  0  0  0  0
   88.4100   81.6330  -45.6280 C   0  0  0  0  0  0
   88.2420   82.8120  -46.4680 C   0  0  0  0  0  0
   89.0820   83.0350  -47.5790 C   0  0  0  0  0  0
   96.5143   76.2310  -45.9217 H   0  0  0  0  0  0
   98.2246   77.5800  -47.2287 H   0  0  0  0  0  0
   93.3550   81.5924  -53.1744 H   0  0  0  0  0  0
   94.6509   80.2980  -52.6497 H   0  0  0  0  0  0
   97.5224   78.9763  -49.1984 H   0  0  0  0  0  0
   90.6102   83.2799  -49.4876 H   0  0  0  0  0  0
   96.4135   78.4132  -51.4972 H   0  0  0  0  0  0
   93.3392   77.6829  -48.6020 H   0  0  0  0  0  0
   87.4964   80.5162  -42.3879 H   0  0  0  0  0  0
   89.0353   81.2819  -42.9097 H   0  0  0  0  0  0
   94.0370   76.2833  -46.6195 H   0  0  0  0  0  0
   94.2347   78.4739  -50.4999 H   0  0  0  0  0  0
   91.0774   80.1696  -47.2509 H   0  0  0  0  0  0
   89.5767   79.7938  -45.2917 H   0  0  0  0  0  0
   87.4568   83.5311  -46.2346 H   0  0  0  0  0  0
   88.9437   83.9210  -48.1986 H   0  0  0  0  0  0
  1  5  2  0  0  0
  1 14  1  0  0  0
  1 26  1  0  0  0
  2 18  1  0  0  0
  2 19  2  0  0  0
  3  8  2  0  0  0
  4 17  1  0  0  0
  4 19  1  0  0  0
  5  9  1  0  0  0
  5 27  1  0  0  0
  6 18  1  0  0  0
  6 28  1  0  0  0
  6 29  1  0  0  0
  7  8  2  0  0  0
  8 13  1  0  0  0
  8 23  1  0  0  0
  9 15  2  0  0  0
  9 30  1  0  0  0
 10 19  1  0  0  0
 10 20  1  0  0  0
 10 31  1  0  0  0
 11 16  1  0  0  0
 11 32  1  0  0  0
 12 14  2  0  0  0
 12 15  1  0  0  0
 12 33  1  0  0  0
 13 34  1  0  0  0
 13 35  1  0  0  0
 14 36  1  0  0  0
 15 16  1  0  0  0
 16 17  1  0  0  0
 16 37  1  0  0  0
 17 18  2  0  0  0
 20 21  2  0  0  0
 20 25  1  0  0  0
 21 22  1  0  0  0
 21 38  1  0  0  0
 22 23  2  0  0  0
 22 39  1  0  0  0
 23 24  1  0  0  0
 24 25  2  0  0  0
 24 40  1  0  0  0
 25 41  1  0  0  0
M  END
> <s_m_source_file>
../3rak_ligand.sdf

> <i_m_source_file_index>
1

> <s_epik_input>
W2NIXTFbY0hdW2NIXVtjSF1bY0hdYzFbQ0hdKFtPSF0pYzJzYyhuYzJbTkgyXSlbTkhdYzNbY0hdW2NIXWMoUyg9TykoPU8pW05IMl0pW2NIXVtjSF0z

> <s_epik_cmdline>
J2VwaWtfYXBwJywgJy1pbWFlJywgJ2xpZ2FuZF9wcm8ubWFlJywgJy1vbWFlJywgJ2xpZ2FuZF9wcmVwLm1hZScsICctbXMnLCAnMScsICctcGgnLCAnNycsICctcGh0JywgJzAuNScsICctbnQn

> <r_epik_Ionization_Penalty>
  0.0127

> <r_epik_Ionization_Penalty_Charging>
  0.0000

> <r_epik_Ionization_Penalty_Neutral>
  0.0127

> <r_epik_State_Penalty>
  0.0072

> <r_epik_Charging_Adjusted_Penalty>
0.00717305597959786

> <i_epik_Tot_Q>
0

> <i_epik_Tot_abs_Q>
0

$$$$
