3ral_ligand
                    3D
 Schrodinger Suite 2020-3.
 45 47  0  0  1  0            999 V2000
   95.9080   77.3670  -46.5810 C   0  0  0  0  0  0
   92.1830   82.2250  -50.7910 N   0  0  0  0  0  0
   86.0320   80.9820  -44.9520 O   0  0  0  0  0  0
   92.8390   80.9390  -48.6460 S   0  0  0  0  0  0
   96.9100   78.2360  -47.1960 C   0  0  0  0  0  0
   93.7360   81.4270  -52.3760 N   0  0  0  0  0  0
   86.7200   83.3220  -43.8580 O   0  0  0  0  0  0
   87.2540   81.8790  -44.4080 S   0  0  0  0  0  0
   96.5820   79.0040  -48.3690 C   0  0  0  0  0  0
   90.8080   82.8040  -48.9980 N   0  0  0  0  0  0
   95.5220   79.5680  -51.3300 O   0  0  0  0  0  0
   94.2490   78.0420  -48.3230 C   0  0  0  0  0  0
   87.9830   81.1020  -43.2730 N   0  0  0  0  0  0
   94.5620   77.2710  -47.1570 C   0  0  0  0  0  0
   98.2000   78.3500  -46.6630 O   0  0  0  0  0  0
   98.6200   77.6970  -45.5780 C   0  0  0  0  0  0
   95.2440   78.9190  -48.9490 C   0  0  0  0  0  0
   94.8610   79.7120  -50.1590 C   0  0  3  0  0  0
   93.7160   80.6740  -50.0860 C   0  0  0  0  0  0
   93.2330   81.4430  -51.1270 C   0  0  0  0  0  0
   91.8540   82.0730  -49.5030 C   0  0  0  0  0  0
   90.0080   82.5480  -47.9000 C   0  0  0  0  0  0
   90.1520   81.3600  -47.0210 C   0  0  0  0  0  0
   89.2910   81.1520  -45.9220 C   0  0  0  0  0  0
   88.2490   82.1150  -45.6420 C   0  0  0  0  0  0
   88.0950   83.2940  -46.4870 C   0  0  0  0  0  0
   88.9580   83.5070  -47.5960 C   0  0  0  0  0  0
   96.1615   76.7890  -45.6923 H   0  0  0  0  0  0
   93.2972   82.0691  -53.1539 H   0  0  0  0  0  0
   94.5857   80.7718  -52.6184 H   0  0  0  0  0  0
   97.3329   79.6495  -48.8247 H   0  0  0  0  0  0
   90.5059   83.7420  -49.4868 H   0  0  0  0  0  0
   96.3657   78.8660  -51.4026 H   0  0  0  0  0  0
   93.2501   77.9755  -48.7542 H   0  0  0  0  0  0
   87.2909   80.9461  -42.4323 H   0  0  0  0  0  0
   88.8515   81.6834  -42.9300 H   0  0  0  0  0  0
   93.8115   76.6228  -46.7045 H   0  0  0  0  0  0
   99.6677   77.9622  -45.3731 H   0  0  0  0  0  0
   98.5429   76.6132  -45.7496 H   0  0  0  0  0  0
   97.9956   77.9772  -44.7168 H   0  0  0  0  0  0
   94.1600   78.9185  -50.4571 H   0  0  0  0  0  0
   90.9382   80.6341  -47.2285 H   0  0  0  0  0  0
   89.4105   80.2725  -45.2893 H   0  0  0  0  0  0
   87.3110   84.0182  -46.2659 H   0  0  0  0  0  0
   88.8325   84.3916  -48.2203 H   0  0  0  0  0  0
  1  5  2  0  0  0
  1 14  1  0  0  0
  1 28  1  0  0  0
  2 20  1  0  0  0
  2 21  2  0  0  0
  3  8  2  0  0  0
  4 19  1  0  0  0
  4 21  1  0  0  0
  5  9  1  0  0  0
  5 15  1  0  0  0
  6 20  1  0  0  0
  6 29  1  0  0  0
  6 30  1  0  0  0
  7  8  2  0  0  0
  8 13  1  0  0  0
  8 25  1  0  0  0
  9 17  2  0  0  0
  9 31  1  0  0  0
 10 21  1  0  0  0
 10 22  1  0  0  0
 10 32  1  0  0  0
 11 18  1  0  0  0
 11 33  1  0  0  0
 12 14  2  0  0  0
 12 17  1  0  0  0
 12 34  1  0  0  0
 13 35  1  0  0  0
 13 36  1  0  0  0
 14 37  1  0  0  0
 15 16  1  0  0  0
 16 38  1  0  0  0
 16 39  1  0  0  0
 16 40  1  0  0  0
 17 18  1  0  0  0
 18 19  1  0  0  0
 18 41  1  0  0  0
 19 20  2  0  0  0
 22 23  2  0  0  0
 22 27  1  0  0  0
 23 24  1  0  0  0
 23 42  1  0  0  0
 24 25  2  0  0  0
 24 43  1  0  0  0
 25 26  1  0  0  0
 26 27  2  0  0  0
 26 44  1  0  0  0
 27 45  1  0  0  0
M  END
> <s_m_source_file>
../3ral_ligand.sdf

> <i_m_source_file_index>
1

> <s_epik_input>
W0NIM11PYzFbY0hdW2NIXVtjSF1jKFtjSF0xKVtDSF0oW09IXSljMnNjKG5jMltOSDJdKVtOSF1jM1tjSF1bY0hdYyhTKD1PKSg9TylbTkgyXSlbY0hdW2NIXTM=

> <s_epik_cmdline>
J2VwaWtfYXBwJywgJy1pbWFlJywgJ2xpZ2FuZF9wcm8ubWFlJywgJy1vbWFlJywgJ2xpZ2FuZF9wcmVwLm1hZScsICctbXMnLCAnMScsICctcGgnLCAnNycsICctcGh0JywgJzAuNScsICctbnQn

> <r_lp_tautomer_probability>
1

> <r_epik_Ionization_Penalty>
  0.0127

> <r_epik_Ionization_Penalty_Charging>
  0.0000

> <r_epik_Ionization_Penalty_Neutral>
  0.0127

> <r_epik_State_Penalty>
  0.0072

> <r_epik_Charging_Adjusted_Penalty>
0.00717305597959786

> <i_epik_Tot_Q>
0

> <i_epik_Tot_abs_Q>
0

$$$$
