3rbm_ligand
                    3D
 Schrodinger Suite 2020-3.
 59 59  0  0  1  0            999 V2000
  -32.4000   10.7370   -5.4540 C   0  0  0  0  0  0
  -40.2220    8.3240  -22.1210 O   0  0  0  0  0  0
  -40.7580   10.8510  -21.3370 O   0  0  0  0  0  0
  -37.8050    7.4990  -21.7210 O   0  5  0  0  0  0
  -39.5720    7.1610  -19.8250 O   0  5  0  0  0  0
  -40.3130   10.7300  -18.7390 O   0  5  0  0  0  0
  -38.9400   12.3560  -20.1470 O   0  0  0  0  0  0
  -35.3230   12.6680  -19.2940 C   0  0  0  0  0  0
  -35.8100   11.7900  -20.1710 C   0  0  0  0  0  0
  -36.3890   11.0630  -18.1830 C   0  0  0  0  0  0
  -33.5750    9.9220   -6.0280 C   0  0  0  0  0  0
  -34.6850   10.8280   -6.5790 C   0  0  0  0  0  0
  -34.6590   10.8990   -8.1080 C   0  0  0  0  0  0
  -33.8250   12.0920   -8.5630 C   0  0  0  0  0  0
  -33.5260   12.0540  -10.0630 C   0  0  0  0  0  0
  -34.7720   12.5070  -10.7830 C   0  0  0  0  0  0
  -34.4190   13.1280  -12.1350 C   0  0  0  0  0  0
  -35.0860   12.3160  -13.2410 C   0  0  0  0  0  0
  -34.4020   12.6400  -14.5640 C   0  0  0  0  0  0
  -35.0820   11.8850  -15.6980 C   0  0  0  0  0  0
  -35.2200   12.8520  -16.8560 C   0  0  0  0  0  0
  -37.1010    9.7300  -20.1550 C   0  0  0  0  0  0
  -38.6210    9.5070  -20.0490 C   0  0  2  0  0  0
  -35.5430   12.1200  -18.0910 N   0  0  0  0  0  0
  -36.6000   10.9300  -19.4920 N   0  3  0  0  0  0
  -39.1730    8.1260  -21.0850 P   0  0  0  0  0  0
  -39.7440   10.9070  -20.2580 P   0  0  0  0  0  0
  -31.6301   10.0508   -5.0715 H   0  0  0  0  0  0
  -32.7622   11.3752   -4.6345 H   0  0  0  0  0  0
  -31.9690   11.3668   -6.2462 H   0  0  0  0  0  0
  -39.4925   13.3012  -20.2539 H   0  0  0  0  0  0
  -34.8482   13.6253  -19.5091 H   0  0  0  0  0  0
  -35.6075   11.7697  -21.2418 H   0  0  0  0  0  0
  -36.8010   10.4614  -17.3728 H   0  0  0  0  0  0
  -33.2128    9.2838   -6.8475 H   0  0  0  0  0  0
  -34.0060    9.2922   -5.2358 H   0  0  0  0  0  0
  -35.6653   10.4365   -6.2694 H   0  0  0  0  0  0
  -34.5560   11.8469   -6.1850 H   0  0  0  0  0  0
  -34.2175    9.9754   -8.5105 H   0  0  0  0  0  0
  -35.6855   11.0104   -8.4874 H   0  0  0  0  0  0
  -34.3694   13.0233   -8.3480 H   0  0  0  0  0  0
  -32.8657   12.0954   -8.0247 H   0  0  0  0  0  0
  -32.6856   12.7276  -10.2865 H   0  0  0  0  0  0
  -33.2620   11.0278  -10.3584 H   0  0  0  0  0  0
  -35.4333   11.6439  -10.9499 H   0  0  0  0  0  0
  -35.2957   13.2576  -10.1728 H   0  0  0  0  0  0
  -34.7800   14.1666  -12.1669 H   0  0  0  0  0  0
  -33.3275   13.1149  -12.2707 H   0  0  0  0  0  0
  -34.9844   11.2432  -13.0203 H   0  0  0  0  0  0
  -36.1525   12.5794  -13.2970 H   0  0  0  0  0  0
  -34.4692   13.7209  -14.7564 H   0  0  0  0  0  0
  -33.3444   12.3418  -14.5127 H   0  0  0  0  0  0
  -34.4647   11.0210  -15.9853 H   0  0  0  0  0  0
  -36.0701   11.5350  -15.3648 H   0  0  0  0  0  0
  -36.0256   13.5694  -16.6406 H   0  0  0  0  0  0
  -34.2734   13.3947  -16.9954 H   0  0  0  0  0  0
  -36.5730    8.8785  -19.7010 H   0  0  0  0  0  0
  -36.8159    9.8158  -21.2140 H   0  0  0  0  0  0
  -38.4976    9.3143  -18.9731 H   0  0  0  0  0  0
  1 11  1  0  0  0
  1 28  1  0  0  0
  1 29  1  0  0  0
  1 30  1  0  0  0
  2 26  2  0  0  0
  3 27  2  0  0  0
  4 26  1  0  0  0
  5 26  1  0  0  0
  6 27  1  0  0  0
  7 27  1  0  0  0
  7 31  1  0  0  0
  8  9  2  0  0  0
  8 24  1  0  0  0
  8 32  1  0  0  0
  9 25  1  0  0  0
  9 33  1  0  0  0
 10 24  1  0  0  0
 10 25  2  0  0  0
 10 34  1  0  0  0
 11 12  1  0  0  0
 11 35  1  0  0  0
 11 36  1  0  0  0
 12 13  1  0  0  0
 12 37  1  0  0  0
 12 38  1  0  0  0
 13 14  1  0  0  0
 13 39  1  0  0  0
 13 40  1  0  0  0
 14 15  1  0  0  0
 14 41  1  0  0  0
 14 42  1  0  0  0
 15 16  1  0  0  0
 15 43  1  0  0  0
 15 44  1  0  0  0
 16 17  1  0  0  0
 16 45  1  0  0  0
 16 46  1  0  0  0
 17 18  1  0  0  0
 17 47  1  0  0  0
 17 48  1  0  0  0
 18 19  1  0  0  0
 18 49  1  0  0  0
 18 50  1  0  0  0
 19 20  1  0  0  0
 19 51  1  0  0  0
 19 52  1  0  0  0
 20 21  1  0  0  0
 20 53  1  0  0  0
 20 54  1  0  0  0
 21 24  1  0  0  0
 21 55  1  0  0  0
 21 56  1  0  0  0
 22 23  1  0  0  0
 22 25  1  0  0  0
 22 57  1  0  0  0
 22 58  1  0  0  0
 23 26  1  0  0  0
 23 27  1  0  0  0
 23 59  1  0  0  0
M  CHG  4   4  -1   5  -1   6  -1  25   1
M  END
> <s_m_source_file>
../3rbm_ligand.sdf

> <i_m_source_file_index>
1

> <s_epik_input>
W0NIM11bQ0gyXVtDSDJdW0NIMl1bQ0gyXVtDSDJdW0NIMl1bQ0gyXVtDSDJdW0NIMl1bQ0gyXVtDSDJdbjFbY0hdW2NIXVtuK10oW2NIXTEpW0NIMl1bQ0hdKFAoPU8pKFtPSF0pW09IXSlQKD1PKShbT0hdKVtPSF0=

> <s_epik_cmdline>
J2VwaWtfYXBwJywgJy1pbWFlJywgJ2xpZ2FuZF9wcm8ubWFlJywgJy1vbWFlJywgJ2xpZ2FuZF9wcmVwLm1hZScsICctbXMnLCAnMScsICctcGgnLCAnNycsICctcGh0JywgJzAuNScsICctbnQn

> <r_lp_tautomer_probability>
1

> <r_epik_Ionization_Penalty>
  0.1830

> <r_epik_Ionization_Penalty_Charging>
  0.1829

> <r_epik_Ionization_Penalty_Neutral>
  0.0000

> <r_epik_State_Penalty>
  0.1724

> <r_epik_Charging_Adjusted_Penalty>
0.355366122329017

> <i_epik_Tot_Q>
-2

> <i_epik_Tot_abs_Q>
4

$$$$
