3rbq_ligand
                    3D
 Schrodinger Suite 2020-3.
107106  0  0  1  0            999 V2000
   39.5390  -21.1040  -23.3000 O   0  0  0  0  0  0
   40.1830  -20.2730  -22.6280 C   0  0  0  0  0  0
   39.6150  -19.2410  -21.6310 C   0  0  0  0  0  0
   38.2340  -18.6840  -21.9820 C   0  0  0  0  0  0
   37.9390  -17.4160  -21.1330 C   0  0  0  0  0  0
   36.5190  -16.9510  -21.2900 C   0  0  0  0  0  0
   36.1970  -15.8460  -20.2940 C   0  0  0  0  0  0
   36.8760  -14.5720  -20.7560 C   0  0  0  0  0  0
   36.3790  -13.3770  -20.0380 C   0  0  0  0  0  0
   37.3330  -12.2000  -20.1660 C   0  0  0  0  0  0
   37.2380  -11.4530  -21.4790 C   0  0  0  0  0  0
   37.9040  -10.1020  -21.2260 C   0  0  0  0  0  0
   37.6320   -9.1670  -22.3930 C   0  0  0  0  0  0
   41.6250  -20.2390  -22.6840 N   0  0  0  0  0  0
   42.3050  -21.2680  -23.4580 C   0  0  0  0  0  0
   42.1630  -22.6680  -22.8930 C   0  0  0  0  0  0
   42.3260  -23.5850  -23.6700 O   0  0  0  0  0  0
   41.7980  -22.8160  -21.6010 N   0  0  0  0  0  0
   41.4580  -24.1240  -20.9500 C   0  0  2  0  0  0
   40.3230  -24.8750  -21.6900 C   0  0  0  0  0  0
   40.2530  -26.1070  -21.6400 O   0  0  0  0  0  0
   41.0500  -23.9310  -19.4250 C   0  0  0  0  0  0
   39.4770  -24.1260  -22.4040 N   0  0  0  0  0  0
   38.4580  -24.7580  -23.2400 C   0  0  0  0  0  0
   39.0000  -25.5750  -24.4530 C   0  0  0  0  0  0
   38.2530  -26.3200  -25.0250 O   0  0  0  0  0  0
   40.2440  -25.3490  -24.8770 N   0  0  0  0  0  0
   40.8560  -26.0210  -26.0510 C   0  0  2  0  0  0
   41.1000  -27.4830  -25.7370 C   0  0  0  0  0  0
   40.8700  -28.3430  -26.5730 O   0  0  0  0  0  0
   42.1880  -25.3990  -26.4140 C   0  0  0  0  0  0
   41.5780  -27.7160  -24.5180 N   0  0  0  0  0  0
   42.1670  -28.9770  -24.0940 C   0  0  2  0  0  0
   40.9790  -29.8480  -23.8000 C   0  0  0  0  0  0
   40.9420  -31.0120  -24.2260 O   0  0  0  0  0  0
   43.0120  -28.7350  -22.8370 C   0  0  0  0  0  0
   43.7740  -29.8580  -22.3740 O   0  0  0  0  0  0
   39.9880  -29.2390  -23.1220 N   0  0  0  0  0  0
   38.7500  -29.9210  -22.7170 C   0  0  2  0  0  0
   37.9330  -30.4790  -23.9290 C   0  0  0  0  0  0
   36.9990  -31.2660  -23.7430 O   0  0  0  0  0  0
   37.9140  -29.0040  -21.7810 C   0  0  0  0  0  0
   38.3140  -30.0610  -25.1480 N   0  0  0  0  0  0
   37.9530  -30.7260  -26.4330 C   0  0  2  0  0  0
   39.1970  -31.3780  -27.0770 C   0  0  0  0  0  0
   39.1500  -32.5170  -27.5940 O   0  0  0  0  0  0
   37.3690  -29.7030  -27.4150 C   0  0  0  0  0  0
   36.8990  -30.2600  -28.7810 C   0  0  0  0  0  0
   35.3900  -30.6250  -28.8490 C   0  0  0  0  0  0
   34.7880  -31.0350  -27.8300 O   0  5  0  0  0  0
   34.8030  -30.5120  -29.9470 O   0  0  0  0  0  0
   40.2874  -30.7466  -27.0819 O   0  5  0  0  0  0
   39.5215  -19.7039  -20.6376 H   0  0  0  0  0  0
   40.2937  -18.3774  -21.5707 H   0  0  0  0  0  0
   38.2060  -18.4188  -23.0492 H   0  0  0  0  0  0
   37.4677  -19.4450  -21.7731 H   0  0  0  0  0  0
   38.1119  -17.6383  -20.0697 H   0  0  0  0  0  0
   38.6046  -16.5996  -21.4498 H   0  0  0  0  0  0
   36.3706  -16.5635  -22.3087 H   0  0  0  0  0  0
   35.8354  -17.7949  -21.1155 H   0  0  0  0  0  0
   35.1079  -15.6974  -20.2507 H   0  0  0  0  0  0
   36.5682  -16.1302  -19.2983 H   0  0  0  0  0  0
   37.9590  -14.6489  -20.5794 H   0  0  0  0  0  0
   36.6891  -14.4256  -21.8301 H   0  0  0  0  0  0
   35.4056  -13.0778  -20.4540 H   0  0  0  0  0  0
   36.2644  -13.6124  -18.9696 H   0  0  0  0  0  0
   37.1254  -11.4714  -19.3685 H   0  0  0  0  0  0
   38.3696  -12.5568  -20.0760 H   0  0  0  0  0  0
   37.7625  -12.0200  -22.2622 H   0  0  0  0  0  0
   36.1805  -11.3346  -21.7579 H   0  0  0  0  0  0
   37.4983   -9.6602  -20.3039 H   0  0  0  0  0  0
   38.9896  -10.2428  -21.1183 H   0  0  0  0  0  0
   38.1139   -8.1962  -22.2051 H   0  0  0  0  0  0
   36.5470   -9.0227  -22.5020 H   0  0  0  0  0  0
   38.0383   -9.6054  -23.3164 H   0  0  0  0  0  0
   42.2094  -19.4660  -22.1635 H   0  0  0  0  0  0
   41.8958  -21.2894  -24.4788 H   0  0  0  0  0  0
   43.3813  -21.0447  -23.4991 H   0  0  0  0  0  0
   41.7594  -21.8846  -21.0171 H   0  0  0  0  0  0
   42.3873  -24.7034  -21.0535 H   0  0  0  0  0  0
   41.8532  -23.3979  -18.8952 H   0  0  0  0  0  0
   40.8943  -24.9155  -18.9597 H   0  0  0  0  0  0
   40.1203  -23.3461  -19.3654 H   0  0  0  0  0  0
   39.5501  -23.0293  -22.3605 H   0  0  0  0  0  0
   37.8677  -25.4590  -22.6316 H   0  0  0  0  0  0
   37.7947  -23.9856  -23.6566 H   0  0  0  0  0  0
   40.8243  -24.6145  -24.2993 H   0  0  0  0  0  0
   40.1448  -25.8971  -26.8810 H   0  0  0  0  0  0
   42.0437  -24.3339  -26.6481 H   0  0  0  0  0  0
   42.6061  -25.9139  -27.2915 H   0  0  0  0  0  0
   42.8818  -25.4973  -25.5661 H   0  0  0  0  0  0
   41.5064  -26.8769  -23.8103 H   0  0  0  0  0  0
   42.8105  -29.4134  -24.8721 H   0  0  0  0  0  0
   43.7363  -27.9302  -23.0314 H   0  0  0  0  0  0
   42.3552  -28.4438  -22.0041 H   0  0  0  0  0  0
   44.4050  -29.7627  -21.4780 H   0  0  0  0  0  0
   40.1388  -28.1785  -22.8719 H   0  0  0  0  0  0
   39.0981  -30.7942  -22.1458 H   0  0  0  0  0  0
   38.5472  -28.6488  -20.9546 H   0  0  0  0  0  0
   37.0646  -29.5723  -21.3740 H   0  0  0  0  0  0
   37.5386  -28.1420  -22.3520 H   0  0  0  0  0  0
   38.9389  -29.1557  -25.1538 H   0  0  0  0  0  0
   37.2013  -31.4888  -26.1819 H   0  0  0  0  0  0
   36.4885  -29.2225  -26.9634 H   0  0  0  0  0  0
   38.1271  -28.9392  -27.6428 H   0  0  0  0  0  0
   37.0802  -29.5098  -29.5648 H   0  0  0  0  0  0
   37.4588  -31.1775  -29.0151 H   0  0  0  0  0  0
  1  2  2  0  0  0
  2  3  1  0  0  0
  2 14  1  0  0  0
  3  4  1  0  0  0
  3 53  1  0  0  0
  3 54  1  0  0  0
  4  5  1  0  0  0
  4 55  1  0  0  0
  4 56  1  0  0  0
  5  6  1  0  0  0
  5 57  1  0  0  0
  5 58  1  0  0  0
  6  7  1  0  0  0
  6 59  1  0  0  0
  6 60  1  0  0  0
  7  8  1  0  0  0
  7 61  1  0  0  0
  7 62  1  0  0  0
  8  9  1  0  0  0
  8 63  1  0  0  0
  8 64  1  0  0  0
  9 10  1  0  0  0
  9 65  1  0  0  0
  9 66  1  0  0  0
 10 11  1  0  0  0
 10 67  1  0  0  0
 10 68  1  0  0  0
 11 12  1  0  0  0
 11 69  1  0  0  0
 11 70  1  0  0  0
 12 13  1  0  0  0
 12 71  1  0  0  0
 12 72  1  0  0  0
 13 73  1  0  0  0
 13 74  1  0  0  0
 13 75  1  0  0  0
 14 15  1  0  0  0
 14 76  1  0  0  0
 15 16  1  0  0  0
 15 77  1  0  0  0
 15 78  1  0  0  0
 16 17  2  0  0  0
 16 18  1  0  0  0
 18 19  1  0  0  0
 18 79  1  0  0  0
 19 20  1  0  0  0
 19 22  1  0  0  0
 19 80  1  0  0  0
 20 21  2  0  0  0
 20 23  1  0  0  0
 22 81  1  0  0  0
 22 82  1  0  0  0
 22 83  1  0  0  0
 23 24  1  0  0  0
 23 84  1  0  0  0
 24 25  1  0  0  0
 24 85  1  0  0  0
 24 86  1  0  0  0
 25 26  2  0  0  0
 25 27  1  0  0  0
 27 28  1  0  0  0
 27 87  1  0  0  0
 28 29  1  0  0  0
 28 31  1  0  0  0
 28 88  1  0  0  0
 29 30  2  0  0  0
 29 32  1  0  0  0
 31 89  1  0  0  0
 31 90  1  0  0  0
 31 91  1  0  0  0
 32 33  1  0  0  0
 32 92  1  0  0  0
 33 34  1  0  0  0
 33 36  1  0  0  0
 33 93  1  0  0  0
 34 35  2  0  0  0
 34 38  1  0  0  0
 36 37  1  0  0  0
 36 94  1  0  0  0
 36 95  1  0  0  0
 37 96  1  0  0  0
 38 39  1  0  0  0
 38 97  1  0  0  0
 39 40  1  0  0  0
 39 42  1  0  0  0
 39 98  1  0  0  0
 40 41  2  0  0  0
 40 43  1  0  0  0
 42 99  1  0  0  0
 42100  1  0  0  0
 42101  1  0  0  0
 43 44  1  0  0  0
 43102  1  0  0  0
 44 45  1  0  0  0
 44 47  1  0  0  0
 44103  1  0  0  0
 45 46  2  0  0  0
 45 52  1  0  0  0
 47 48  1  0  0  0
 47104  1  0  0  0
 47105  1  0  0  0
 48 49  1  0  0  0
 48106  1  0  0  0
 48107  1  0  0  0
 49 50  1  0  0  0
 49 51  2  0  0  0
M  CHG  2  50  -1  52  -1
M  END
> <s_m_source_file>
../3rbq_ligand.sdf

> <i_m_source_file_index>
1

> <s_epik_input>
W0NIM11bQ0gyXVtDSDJdW0NIMl1bQ0gyXVtDSDJdW0NIMl1bQ0gyXVtDSDJdW0NIMl1bQ0gyXUMoPU8pW05IXVtDSDJdQyg9TylbTkhdW0NAQEhdKFtDSDNdKUMoPU8pW05IXVtDSDJdQyg9TylbTkhdW0NAQEhdKFtDSDNdKUMoPU8pW05IXVtDQEBIXShbQ0gyXVtPSF0pQyg9TylbTkhdW0NAQEhdKFtDSDNdKUMoPU8pW05IXVtDQEhdKEMoPU8pW09IXSlbQ0gyXVtDSDJdQyg9TylbT0hd

> <s_epik_cmdline>
J2VwaWtfYXBwJywgJy1pbWFlJywgJ2xpZ2FuZF9wcm8ubWFlJywgJy1vbWFlJywgJ2xpZ2FuZF9wcmVwLm1hZScsICctbXMnLCAnMScsICctcGgnLCAnNycsICctcGh0JywgJzAuNScsICctbnQn

> <r_lp_tautomer_probability>
1

> <r_epik_Ionization_Penalty>
  0.0037

> <r_epik_Ionization_Penalty_Charging>
  0.0037

> <r_epik_Ionization_Penalty_Neutral>
  0.0000

> <r_epik_State_Penalty>
 -0.0000

> <r_epik_Charging_Adjusted_Penalty>
0.00373081480646774

> <i_epik_Tot_Q>
-2

> <i_epik_Tot_abs_Q>
2

$$$$
