3rcj_ligand
                    3D
 Schrodinger Suite 2020-3.
 34 37  0  0  1  0            999 V2000
  -14.1980  -26.7270   -8.9080 C   0  0  0  0  0  0
  -12.8720  -26.9930   -8.5130 C   0  0  0  0  0  0
  -12.1740  -26.1000   -7.7970 N   0  0  0  0  0  0
  -14.7880  -25.5030   -8.5380 C   0  0  0  0  0  0
  -14.0290  -24.5710   -7.7790 C   0  0  0  0  0  0
  -12.6870  -24.9130   -7.4170 C   0  0  0  0  0  0
  -12.1820  -23.8680   -6.7030 N   0  3  0  0  0  0
  -13.1110  -22.8790   -6.5800 C   0  0  0  0  0  0
  -14.2660  -23.2280   -7.2050 C   0  0  0  0  0  0
  -15.4990  -22.3870   -7.2590 C   0  0  0  0  0  0
  -15.6460  -21.1700   -6.7040 N   0  0  0  0  0  0
  -16.8360  -20.7400   -6.9380 N   0  0  0  0  0  0
  -17.4980  -21.6030   -7.6210 N   0  0  0  0  0  0
  -16.6990  -22.6710   -7.8550 C   0  0  0  0  0  0
  -18.8900  -21.4570   -8.0720 C   0  0  0  0  0  0
  -18.9440  -20.4530   -9.1900 C   0  0  0  0  0  0
  -18.8830  -20.8880  -10.5270 C   0  0  0  0  0  0
  -18.9300  -19.9510  -11.5750 C   0  0  0  0  0  0
  -19.0400  -18.5760  -11.2850 C   0  0  0  0  0  0
  -19.1030  -18.1350   -9.9440 C   0  0  0  0  0  0
  -19.0550  -19.0760   -8.8960 C   0  0  0  0  0  0
  -14.7587  -27.4575   -9.4911 H   0  0  0  0  0  0
  -12.4071  -27.9381   -8.7935 H   0  0  0  0  0  0
  -15.8128  -25.2733   -8.8297 H   0  0  0  0  0  0
  -13.0332  -21.9072   -6.0706 H   0  0  0  0  0  0
  -16.9586  -23.5746   -8.4065 H   0  0  0  0  0  0
  -19.2635  -22.4281   -8.4292 H   0  0  0  0  0  0
  -19.5126  -21.1105   -7.2339 H   0  0  0  0  0  0
  -18.7993  -21.9515  -10.7505 H   0  0  0  0  0  0
  -18.8814  -20.2879  -12.6105 H   0  0  0  0  0  0
  -19.0766  -17.8506  -12.0977 H   0  0  0  0  0  0
  -19.1884  -17.0715   -9.7211 H   0  0  0  0  0  0
  -19.1035  -18.7415   -7.8597 H   0  0  0  0  0  0
  -11.1519  -23.9107   -6.3194 H   0  0  0  0  0  0
  1  2  2  0  0  0
  1  4  1  0  0  0
  1 22  1  0  0  0
  2  3  1  0  0  0
  2 23  1  0  0  0
  3  6  2  0  0  0
  4  5  2  0  0  0
  4 24  1  0  0  0
  5  6  1  0  0  0
  5  9  1  0  0  0
  6  7  1  0  0  0
  7  8  1  0  0  0
  7 34  1  0  0  0
  8  9  2  0  0  0
  8 25  1  0  0  0
  9 10  1  0  0  0
 10 11  1  0  0  0
 10 14  2  0  0  0
 11 12  2  0  0  0
 12 13  1  0  0  0
 13 14  1  0  0  0
 13 15  1  0  0  0
 14 26  1  0  0  0
 15 16  1  0  0  0
 15 27  1  0  0  0
 15 28  1  0  0  0
 16 17  2  0  0  0
 16 21  1  0  0  0
 17 18  1  0  0  0
 17 29  1  0  0  0
 18 19  2  0  0  0
 18 30  1  0  0  0
 19 20  1  0  0  0
 19 31  1  0  0  0
 20 21  2  0  0  0
 20 32  1  0  0  0
 21 33  1  0  0  0
M  CHG  1   7   1
M  END
> <s_m_source_file>
../3rcj_ligand.sdf

> <i_m_source_file_index>
1

> <s_epik_input>
W2NIXTFbY0hdW2NIXW5jKGMxMilbbkhdW2NIXWMyLWMzbm5uKFtjSF0zKVtDSDJdYzRbY0hdW2NIXVtjSF1bY0hdW2NIXTQ=

> <s_epik_cmdline>
J2VwaWtfYXBwJywgJy1pbWFlJywgJ2xpZ2FuZF9wcm8ubWFlJywgJy1vbWFlJywgJ2xpZ2FuZF9wcmVwLm1hZScsICctbXMnLCAnMScsICctcGgnLCAnNycsICctcGh0JywgJzAuNScsICctbnQn

> <r_lp_tautomer_probability>
1

> <r_epik_Ionization_Penalty>
  0.0008

> <r_epik_Ionization_Penalty_Charging>
  0.0000

> <r_epik_Ionization_Penalty_Neutral>
  0.0008

> <r_epik_State_Penalty>
 -0.0000

> <r_epik_Charging_Adjusted_Penalty>
0

> <i_epik_Tot_Q>
1

> <i_epik_Tot_abs_Q>
1

$$$$
