3rde_ligand
                    3D
 Schrodinger Suite 2020-3.
 59 59  0  0  1  0            999 V2000
  -13.4790  -41.8670  -46.0450 C   0  0  0  0  0  0
  -14.6870  -44.9130  -48.2740 O   0  5  0  0  0  0
  -14.3280  -41.0010  -45.3650 C   0  0  0  0  0  0
  -16.8910  -44.6380  -48.2960 O   0  0  0  0  0  0
  -15.4230  -41.5030  -44.6810 C   0  0  0  0  0  0
  -13.5500  -39.1440  -44.2910 O   0  0  0  0  0  0
  -15.6310  -42.8880  -44.7060 C   0  0  0  0  0  0
  -14.7880  -43.7470  -45.3910 C   0  0  0  0  0  0
  -13.7240  -43.2400  -46.0910 C   0  0  0  0  0  0
  -14.9950  -45.2400  -45.3870 C   0  0  0  0  0  0
  -16.0620  -45.6190  -46.3600 C   0  0  0  0  0  0
  -15.8950  -45.0240  -47.7120 C   0  0  0  0  0  0
  -13.9700  -39.5730  -45.4820 C   0  0  0  0  0  0
  -13.3450  -37.7450  -44.1100 C   0  0  0  0  0  0
  -11.9180  -37.4940  -43.8210 C   0  0  0  0  0  0
  -10.7610  -37.2650  -43.7480 C   0  0  0  0  0  0
   -9.3490  -36.9300  -43.5090 C   0  0  0  0  0  0
   -8.3730  -38.0910  -43.6220 C   0  0  0  0  0  0
   -8.4830  -38.8670  -44.8790 C   0  0  0  0  0  0
   -7.6380  -40.1650  -44.9960 C   0  0  0  0  0  0
   -7.6250  -40.7730  -46.3790 C   0  0  0  0  0  0
   -6.6500  -41.9590  -46.5240 C   0  0  0  0  0  0
   -7.0010  -42.7230  -47.8230 C   0  0  0  0  0  0
   -6.1660  -43.9530  -48.1700 C   0  0  0  0  0  0
   -6.1040  -44.9450  -46.9970 C   0  0  0  0  0  0
   -5.3860  -46.2550  -47.3970 C   0  0  0  0  0  0
  -12.6028  -41.4646  -46.5533 H   0  0  0  0  0  0
  -16.1007  -40.8418  -44.1409 H   0  0  0  0  0  0
  -16.4839  -43.3030  -44.1690 H   0  0  0  0  0  0
  -13.0800  -43.8985  -46.6739 H   0  0  0  0  0  0
  -14.0574  -45.7409  -45.6698 H   0  0  0  0  0  0
  -15.2955  -45.5658  -44.3803 H   0  0  0  0  0  0
  -16.0705  -46.7115  -46.4877 H   0  0  0  0  0  0
  -17.0394  -45.2866  -45.9803 H   0  0  0  0  0  0
  -13.1696  -39.4555  -46.2274 H   0  0  0  0  0  0
  -14.8530  -38.9983  -45.7985 H   0  0  0  0  0  0
  -13.6347  -37.2104  -45.0267 H   0  0  0  0  0  0
  -13.9590  -37.3902  -43.2691 H   0  0  0  0  0  0
   -9.0218  -36.1770  -44.2411 H   0  0  0  0  0  0
   -9.2349  -36.5264  -42.4921 H   0  0  0  0  0  0
   -7.3424  -37.7099  -43.5710 H   0  0  0  0  0  0
   -8.5445  -38.7960  -42.7953 H   0  0  0  0  0  0
   -9.5261  -39.1849  -45.0236 H   0  0  0  0  0  0
   -8.1703  -38.2389  -45.7262 H   0  0  0  0  0  0
   -6.5932  -39.9476  -44.7293 H   0  0  0  0  0  0
   -8.0400  -40.9271  -44.3122 H   0  0  0  0  0  0
   -8.6309  -41.1432  -46.6262 H   0  0  0  0  0  0
   -7.3247  -40.0100  -47.1122 H   0  0  0  0  0  0
   -5.6183  -41.5812  -46.5765 H   0  0  0  0  0  0
   -6.7524  -42.6262  -45.6554 H   0  0  0  0  0  0
   -8.0384  -43.0846  -47.7668 H   0  0  0  0  0  0
   -6.8940  -42.0486  -48.6854 H   0  0  0  0  0  0
   -6.6111  -44.4661  -49.0352 H   0  0  0  0  0  0
   -5.1399  -43.6421  -48.4161 H   0  0  0  0  0  0
   -5.5544  -44.4893  -46.1601 H   0  0  0  0  0  0
   -7.1253  -45.1938  -46.6728 H   0  0  0  0  0  0
   -5.3613  -46.9376  -46.5348 H   0  0  0  0  0  0
   -4.3576  -46.0274  -47.7140 H   0  0  0  0  0  0
   -5.9284  -46.7318  -48.2267 H   0  0  0  0  0  0
  1  3  2  0  0  0
  1  9  1  0  0  0
  1 27  1  0  0  0
  2 12  1  0  0  0
  3  5  1  0  0  0
  3 13  1  0  0  0
  4 12  2  0  0  0
  5  7  2  0  0  0
  5 28  1  0  0  0
  6 13  1  0  0  0
  6 14  1  0  0  0
  7  8  1  0  0  0
  7 29  1  0  0  0
  8  9  2  0  0  0
  8 10  1  0  0  0
  9 30  1  0  0  0
 10 11  1  0  0  0
 10 31  1  0  0  0
 10 32  1  0  0  0
 11 12  1  0  0  0
 11 33  1  0  0  0
 11 34  1  0  0  0
 13 35  1  0  0  0
 13 36  1  0  0  0
 14 15  1  0  0  0
 14 37  1  0  0  0
 14 38  1  0  0  0
 15 16  3  0  0  0
 16 17  1  0  0  0
 17 18  1  0  0  0
 17 39  1  0  0  0
 17 40  1  0  0  0
 18 19  1  0  0  0
 18 41  1  0  0  0
 18 42  1  0  0  0
 19 20  1  0  0  0
 19 43  1  0  0  0
 19 44  1  0  0  0
 20 21  1  0  0  0
 20 45  1  0  0  0
 20 46  1  0  0  0
 21 22  1  0  0  0
 21 47  1  0  0  0
 21 48  1  0  0  0
 22 23  1  0  0  0
 22 49  1  0  0  0
 22 50  1  0  0  0
 23 24  1  0  0  0
 23 51  1  0  0  0
 23 52  1  0  0  0
 24 25  1  0  0  0
 24 53  1  0  0  0
 24 54  1  0  0  0
 25 26  1  0  0  0
 25 55  1  0  0  0
 25 56  1  0  0  0
 26 57  1  0  0  0
 26 58  1  0  0  0
 26 59  1  0  0  0
M  CHG  1   2  -1
M  END
> <s_m_source_file>
../3rde_ligand.sdf

> <i_m_source_file_index>
1

> <s_epik_input>
W09IXUMoPU8pW0NIMl1bQ0gyXWMoW2NIXVtjSF0xKVtjSF1bY0hdYzFbQ0gyXU9bQ0gyXUMjQ1tDSDJdW0NIMl1bQ0gyXVtDSDJdW0NIMl1bQ0gyXVtDSDJdW0NIMl1bQ0gyXVtDSDNd

> <s_epik_cmdline>
J2VwaWtfYXBwJywgJy1pbWFlJywgJ2xpZ2FuZF9wcm8ubWFlJywgJy1vbWFlJywgJ2xpZ2FuZF9wcmVwLm1hZScsICctbXMnLCAnMScsICctcGgnLCAnNycsICctcGh0JywgJzAuNScsICctbnQn

> <r_lp_tautomer_probability>
1

> <r_epik_Ionization_Penalty>
  0.0025

> <r_epik_Ionization_Penalty_Charging>
  0.0025

> <r_epik_Ionization_Penalty_Neutral>
  0.0000

> <r_epik_State_Penalty>
 -0.0000

> <r_epik_Charging_Adjusted_Penalty>
0.00254896730901334

> <i_epik_Tot_Q>
-1

> <i_epik_Tot_abs_Q>
1

$$$$
