3rdh_ligand
                    3D
 Schrodinger Suite 2020-3.
 28 28  0  0  1  0            999 V2000
  -82.7310   66.1860   10.6760 C   0  0  0  0  0  0
  -83.8610   65.3260   10.8130 C   0  0  0  0  0  0
  -84.0930   64.3440    9.8940 N   0  3  0  0  0  0
  -83.2860   64.1190    8.8120 C   0  0  0  0  0  0
  -82.1120   64.9270    8.5750 C   0  0  0  0  0  0
  -81.8500   65.9850    9.5460 C   0  0  0  0  0  0
  -80.6120   66.9330    9.4020 C   0  0  0  0  0  0
  -80.1250   67.4770   10.4120 O   0  0  0  0  0  0
  -82.5060   67.1730   11.6040 O   0  5  0  0  0  0
  -84.8390   65.4750   11.9890 C   0  0  0  0  0  0
  -81.1760   64.6820    7.3560 C   0  0  0  0  0  0
  -80.4420   63.5880    7.9540 O   0  0  0  0  0  0
  -79.2270   62.6340    7.4780 P   0  0  0  0  0  0
  -78.6550   63.0520    6.1780 O   0  0  0  0  0  0
  -79.9350   61.1900    7.2990 O   0  5  0  0  0  0
  -78.1370   62.5320    8.6590 O   0  5  0  0  0  0
  -83.7470   63.1040    8.0800 N   0  0  0  0  0  0
  -79.7701   66.3733    8.9685 H   0  0  0  0  0  0
  -80.8700   67.7756    8.7436 H   0  0  0  0  0  0
  -79.2554   68.1432   10.3125 H   0  0  0  0  0  0
  -84.5137   66.3049   12.6335 H   0  0  0  0  0  0
  -84.8557   64.5426   12.5723 H   0  0  0  0  0  0
  -85.8475   65.6841   11.6029 H   0  0  0  0  0  0
  -81.7818   64.4270    6.4740 H   0  0  0  0  0  0
  -80.5950   65.5932    7.1508 H   0  0  0  0  0  0
  -84.6624   62.5764    8.3860 H   0  0  0  0  0  0
  -83.2118   62.7944    7.1702 H   0  0  0  0  0  0
  -84.9662   63.6839   10.0029 H   0  0  0  0  0  0
  1  2  2  0  0  0
  1  6  1  0  0  0
  1  9  1  0  0  0
  2  3  1  0  0  0
  2 10  1  0  0  0
  3  4  2  0  0  0
  3 28  1  0  0  0
  4  5  1  0  0  0
  4 17  1  0  0  0
  5  6  2  0  0  0
  5 11  1  0  0  0
  6  7  1  0  0  0
  7  8  1  0  0  0
  7 18  1  0  0  0
  7 19  1  0  0  0
  8 20  1  0  0  0
 10 21  1  0  0  0
 10 22  1  0  0  0
 10 23  1  0  0  0
 11 12  1  0  0  0
 11 24  1  0  0  0
 11 25  1  0  0  0
 12 13  1  0  0  0
 13 14  2  0  0  0
 13 15  1  0  0  0
 13 16  1  0  0  0
 17 26  1  0  0  0
 17 27  1  0  0  0
M  CHG  4   3   1   9  -1  15  -1  16  -1
M  END
> <s_m_source_file>
../3rdh_ligand.sdf

> <i_m_source_file_index>
1

> <s_epik_input>
W09IXWMxYyhbQ0gzXSluYyhbTkgyXSljKGMxW0NIMl1bT0hdKVtDSDJdT1AoPU8pKFtPSF0pW09IXQ==

> <s_epik_cmdline>
J2VwaWtfYXBwJywgJy1pbWFlJywgJ2xpZ2FuZF9wcm8ubWFlJywgJy1vbWFlJywgJ2xpZ2FuZF9wcmVwLm1hZScsICctbXMnLCAnMScsICctcGgnLCAnNycsICctcGh0JywgJzAuNScsICctbnQn

> <r_lp_tautomer_probability>
1

> <r_epik_Ionization_Penalty>
  0.1239

> <r_epik_Ionization_Penalty_Charging>
  0.1237

> <r_epik_Ionization_Penalty_Neutral>
  0.0002

> <r_epik_State_Penalty>
 -0.0000

> <r_epik_Charging_Adjusted_Penalty>
0.123688990656882

> <i_epik_Tot_Q>
-2

> <i_epik_Tot_abs_Q>
4

$$$$
