3rdq_ligand
                    3D
 Schrodinger Suite 2020-3.
 32 32  0  0  1  0            999 V2000
   15.4890   28.8780   -8.5450 C   0  0  0  0  0  0
   14.2310   29.1070   -8.2630 O   0  0  0  0  0  0
   15.9200   28.3420   -9.6280 N   0  0  0  0  0  0
   17.3930   28.4730   -9.7300 C   0  0  1  0  0  0
   17.7610   28.9460   -8.3010 C   0  0  1  0  0  0
   16.4590   29.2480   -7.7170 N   0  0  0  0  0  0
   18.4750   27.8900   -7.4800 C   0  0  0  0  0  0
   17.9330   27.1070  -10.1580 C   0  0  0  0  0  0
   17.5570   26.7890  -11.6120 C   0  0  0  0  0  0
   18.3290   25.5810  -12.1590 C   0  0  0  0  0  0
   17.6020   25.0070  -13.3870 C   0  0  0  0  0  0
   18.4390   23.8930  -14.0620 C   0  0  0  0  0  0
   19.7530   24.4100  -14.6200 C   0  0  0  0  0  0
   20.8200   23.7920  -14.3990 O   0  0  0  0  0  0
   19.7370   25.4410  -15.3610 O   0  5  0  0  0  0
   15.3563   27.8357  -10.4255 H   0  0  0  0  0  0
   17.7796   29.1737  -10.4847 H   0  0  0  0  0  0
   18.4370   29.8136   -8.2840 H   0  0  0  0  0  0
   16.3971   29.7171   -6.7240 H   0  0  0  0  0  0
   19.4539   27.6735   -7.9326 H   0  0  0  0  0  0
   17.8700   26.9716   -7.4580 H   0  0  0  0  0  0
   18.6191   28.2588   -6.4537 H   0  0  0  0  0  0
   19.0296   27.1027  -10.0713 H   0  0  0  0  0  0
   17.5108   26.3259   -9.5086 H   0  0  0  0  0  0
   16.4821   26.5632  -11.6718 H   0  0  0  0  0  0
   17.7852   27.6570  -12.2480 H   0  0  0  0  0  0
   19.3420   25.8949  -12.4512 H   0  0  0  0  0  0
   18.3954   24.8056  -11.3816 H   0  0  0  0  0  0
   16.6367   24.5812  -13.0757 H   0  0  0  0  0  0
   17.4297   25.8094  -14.1194 H   0  0  0  0  0  0
   18.6691   23.1096  -13.3248 H   0  0  0  0  0  0
   17.8662   23.4569  -14.8937 H   0  0  0  0  0  0
  1  2  2  0  0  0
  1  3  1  0  0  0
  1  6  1  0  0  0
  3  4  1  0  0  0
  3 16  1  0  0  0
  4  5  1  0  0  0
  4  8  1  0  0  0
  4 17  1  0  0  0
  5  6  1  0  0  0
  5  7  1  0  0  0
  5 18  1  0  0  0
  6 19  1  0  0  0
  7 20  1  0  0  0
  7 21  1  0  0  0
  7 22  1  0  0  0
  8  9  1  0  0  0
  8 23  1  0  0  0
  8 24  1  0  0  0
  9 10  1  0  0  0
  9 25  1  0  0  0
  9 26  1  0  0  0
 10 11  1  0  0  0
 10 27  1  0  0  0
 10 28  1  0  0  0
 11 12  1  0  0  0
 11 29  1  0  0  0
 11 30  1  0  0  0
 12 13  1  0  0  0
 12 31  1  0  0  0
 12 32  1  0  0  0
 13 14  2  0  0  0
 13 15  1  0  0  0
M  CHG  1  15  -1
M  END
> <s_m_source_file>
../3rdq_ligand.sdf

> <i_m_source_file_index>
1

> <s_epik_input>
Tz1DMVtOSF1bQ0BASF0oW0NAQEhdKFtOSF0xKVtDSDNdKVtDSDJdW0NIMl1bQ0gyXVtDSDJdW0NIMl1DKD1PKVtPSF0=

> <s_epik_cmdline>
J2VwaWtfYXBwJywgJy1pbWFlJywgJ2xpZ2FuZF9wcm8ubWFlJywgJy1vbWFlJywgJ2xpZ2FuZF9wcmVwLm1hZScsICctbXMnLCAnMScsICctcGgnLCAnNycsICctcGh0JywgJzAuNScsICctbnQn

> <r_lp_tautomer_probability>
1

> <r_epik_Ionization_Penalty>
  0.0048

> <r_epik_Ionization_Penalty_Charging>
  0.0047

> <r_epik_Ionization_Penalty_Neutral>
  0.0001

> <r_epik_State_Penalty>
 -0.0000

> <r_epik_Charging_Adjusted_Penalty>
0.00470495839272767

> <i_epik_Tot_Q>
-1

> <i_epik_Tot_abs_Q>
1

$$$$
