3rdv_ligand
                    3D
 Schrodinger Suite 2020-3.
123125  0  0  1  0            999 V2000
   16.6690  -21.4050  -14.4150 N   0  3  0  0  0  0
   15.5040  -22.2760  -14.3970 C   0  0  2  0  0  0
   14.2280  -21.5090  -14.7530 C   0  0  0  0  0  0
   14.2420  -20.2840  -14.8420 O   0  0  0  0  0  0
   15.3640  -22.9440  -13.0350 C   0  0  0  0  0  0
   14.3640  -24.0730  -13.0510 C   0  0  0  0  0  0
   14.5520  -25.0160  -13.8470 O   0  5  0  0  0  0
   13.3910  -24.0120  -12.2750 O   0  0  0  0  0  0
   13.1290  -22.2370  -14.9450 N   0  0  0  0  0  0
   11.9010  -21.6630  -15.5040 C   0  0  2  0  0  0
   11.3140  -20.4980  -14.7160 C   0  0  0  0  0  0
   10.7050  -19.6050  -15.2980 O   0  0  0  0  0  0
   10.8320  -22.7380  -15.6990 C   0  0  0  0  0  0
   11.1630  -23.5850  -16.7820 O   0  0  0  0  0  0
   11.4790  -20.5090  -13.3980 N   0  0  0  0  0  0
   10.9360  -19.4330  -12.5710 C   0  0  2  0  0  0
   11.4600  -18.0580  -12.9980 C   0  0  0  0  0  0
   10.8310  -17.0320  -12.7170 O   0  0  0  0  0  0
   11.2200  -19.6860  -11.0860 C   0  0  0  0  0  0
   12.6650  -19.5660  -10.7150 C   0  0  0  0  0  0
   13.6020  -20.5540  -10.7440 C   0  0  0  0  0  0
   13.3370  -18.3870  -10.2490 C   0  0  0  0  0  0
   14.8160  -20.0640  -10.3360 N   0  3  0  0  0  0
   14.6810  -18.7370  -10.0240 C   0  0  0  0  0  0
   12.9330  -17.0690  -10.0040 C   0  0  0  0  0  0
   15.6240  -17.8190   -9.5580 C   0  0  0  0  0  0
   13.8690  -16.1600   -9.5450 C   0  0  0  0  0  0
   15.1990  -16.5380   -9.3300 C   0  0  0  0  0  0
   12.5990  -18.0440  -13.6920 N   0  0  0  0  0  0
   13.2350  -16.7940  -14.1170 C   0  0  2  0  0  0
   12.7830  -16.3330  -15.4940 C   0  0  0  0  0  0
   13.2650  -15.3200  -16.0070 O   0  0  0  0  0  0
   14.7590  -16.9210  -14.0990 C   0  0  0  0  0  0
   15.3440  -17.0740  -12.7180 C   0  0  0  0  0  0
   16.8670  -17.0290  -12.7490 C   0  0  0  0  0  0
   17.4380  -18.1600  -13.5880 C   0  0  0  0  0  0
   18.8870  -18.3680  -13.3120 N   0  3  0  0  0  0
   11.8710  -17.0840  -16.1030 N   0  0  0  0  0  0
   11.2420  -16.6460  -17.3360 C   0  0  2  0  0  0
   10.5200  -15.3270  -17.0950 C   0  0  0  0  0  0
    9.8200  -15.1710  -16.0910 O   0  0  0  0  0  0
   10.2480  -17.7020  -17.8340 C   0  0  0  0  0  0
   10.9350  -18.9460  -18.3460 C   0  0  0  0  0  0
   12.1850  -18.9880  -18.3120 O   0  0  0  0  0  0
   10.2270  -19.8810  -18.7850 O   0  5  0  0  0  0
   10.6980  -14.3740  -18.0070 N   0  0  0  0  0  0
   10.0220  -13.0970  -17.8980 C   0  0  0  0  0  0
   10.6780  -12.1900  -16.8730 C   0  0  0  0  0  0
   10.0970  -11.1870  -16.4760 O   0  0  0  0  0  0
   11.8750  -12.5710  -16.4340 N   0  0  0  0  0  0
   12.6810  -11.7720  -15.5180 C   0  0  2  0  0  0
   13.9300  -11.2920  -16.2220 C   0  0  0  0  0  0
   14.3060  -11.8270  -17.2640 O   0  0  0  0  0  0
   13.1200  -12.6060  -14.3150 C   0  0  0  0  0  0
   11.8040  -13.0130  -13.1850 S   0  0  0  0  0  0
   14.5960  -10.3020  -15.6360 N   0  0  0  0  0  0
   15.8490   -9.8040  -16.1950 C   0  0  2  0  0  0
   16.9500   -9.8460  -15.1500 C   0  0  0  0  0  0
   16.6870  -10.0310  -13.9570 O   0  5  0  0  0  0
   15.6960   -8.3770  -16.7460 C   0  0  0  0  0  0
   14.8230   -8.2970  -17.9790 C   0  0  0  0  0  0
   15.3860   -8.2080  -19.2380 C   0  0  0  0  0  0
   13.4420   -8.3220  -17.8770 C   0  0  0  0  0  0
   14.5950   -8.1490  -20.3680 C   0  0  0  0  0  0
   12.6340   -8.2800  -19.0030 C   0  0  0  0  0  0
   13.2200   -8.1850  -20.2430 C   0  0  0  0  0  0
   12.4360   -8.1230  -21.3650 O   0  0  0  0  0  0
   18.1280   -9.6950  -15.4840 O   0  0  0  0  0  0
   16.7568  -20.9305  -15.4035 H   0  0  0  0  0  0
   17.5730  -21.9976  -14.2112 H   0  0  0  0  0  0
   16.5581  -20.6284  -13.6439 H   0  0  0  0  0  0
   15.7002  -23.0343  -15.1693 H   0  0  0  0  0  0
   16.3366  -23.3549  -12.7265 H   0  0  0  0  0  0
   15.0282  -22.2021  -12.2955 H   0  0  0  0  0  0
   13.1627  -23.3014  -14.6693 H   0  0  0  0  0  0
   12.2574  -21.2599  -16.4634 H   0  0  0  0  0  0
   10.7520  -23.3455  -14.7855 H   0  0  0  0  0  0
    9.8638  -22.2589  -15.9067 H   0  0  0  0  0  0
   10.4943  -24.4143  -17.0560 H   0  0  0  0  0  0
   12.0301  -21.3379  -12.9298 H   0  0  0  0  0  0
    9.8523  -19.4699  -12.7563 H   0  0  0  0  0  0
   10.6663  -18.9560  -10.4773 H   0  0  0  0  0  0
   10.8993  -20.7039  -10.8196 H   0  0  0  0  0  0
   13.3221  -21.5682  -11.0649 H   0  0  0  0  0  0
   11.8998  -16.7649  -10.1719 H   0  0  0  0  0  0
   16.6593  -18.1113   -9.3824 H   0  0  0  0  0  0
   13.5655  -15.1319   -9.3474 H   0  0  0  0  0  0
   15.9127  -15.7956   -8.9729 H   0  0  0  0  0  0
   13.0612  -19.0098  -13.9443 H   0  0  0  0  0  0
   12.8872  -16.0633  -13.3719 H   0  0  0  0  0  0
   15.0601  -17.8056  -14.6794 H   0  0  0  0  0  0
   15.2073  -16.0204  -14.5440 H   0  0  0  0  0  0
   14.9844  -16.2572  -12.0749 H   0  0  0  0  0  0
   15.0327  -18.0395  -12.2928 H   0  0  0  0  0  0
   17.1968  -16.0728  -13.1813 H   0  0  0  0  0  0
   17.2575  -17.1225  -11.7249 H   0  0  0  0  0  0
   16.9028  -19.0932  -13.3583 H   0  0  0  0  0  0
   17.3180  -17.9216  -14.6551 H   0  0  0  0  0  0
   19.2644  -19.1919  -13.9355 H   0  0  0  0  0  0
   19.0257  -18.6187  -12.2500 H   0  0  0  0  0  0
   19.4408  -17.4470  -13.5467 H   0  0  0  0  0  0
   11.5948  -18.0514  -15.6581 H   0  0  0  0  0  0
   12.0547  -16.5152  -18.0657 H   0  0  0  0  0  0
    9.5829  -17.9973  -17.0091 H   0  0  0  0  0  0
    9.6490  -17.2830  -18.6560 H   0  0  0  0  0  0
   11.3719  -14.5690  -18.8542 H   0  0  0  0  0  0
   10.0443  -12.5861  -18.8719 H   0  0  0  0  0  0
    8.9777  -13.2598  -17.5931 H   0  0  0  0  0  0
   12.2507  -13.5397  -16.7953 H   0  0  0  0  0  0
   12.0386  -10.9323  -15.2143 H   0  0  0  0  0  0
   13.5490  -13.5566  -14.6648 H   0  0  0  0  0  0
   13.8768  -12.0514  -13.7409 H   0  0  0  0  0  0
   12.0160  -13.6108  -12.2863 H   0  0  0  0  0  0
   14.1890   -9.8572  -14.7159 H   0  0  0  0  0  0
   16.0869  -10.4959  -17.0164 H   0  0  0  0  0  0
   15.2410   -7.7342  -15.9780 H   0  0  0  0  0  0
   16.6856   -7.9804  -17.0168 H   0  0  0  0  0  0
   16.4709   -8.1840  -19.3404 H   0  0  0  0  0  0
   12.9807   -8.3758  -16.8909 H   0  0  0  0  0  0
   15.0535   -8.0744  -21.3541 H   0  0  0  0  0  0
   11.5491   -8.3217  -18.9064 H   0  0  0  0  0  0
   12.9024   -8.0470  -22.3583 H   0  0  0  0  0  0
   15.6938  -20.7262  -10.3040 H   0  0  0  0  0  0
  1  2  1  0  0  0
  1 69  1  0  0  0
  1 70  1  0  0  0
  1 71  1  0  0  0
  2  3  1  0  0  0
  2  5  1  0  0  0
  2 72  1  0  0  0
  3  4  2  0  0  0
  3  9  1  0  0  0
  5  6  1  0  0  0
  5 73  1  0  0  0
  5 74  1  0  0  0
  6  7  1  0  0  0
  6  8  2  0  0  0
  9 10  1  0  0  0
  9 75  1  0  0  0
 10 11  1  0  0  0
 10 13  1  0  0  0
 10 76  1  0  0  0
 11 12  2  0  0  0
 11 15  1  0  0  0
 13 14  1  0  0  0
 13 77  1  0  0  0
 13 78  1  0  0  0
 14 79  1  0  0  0
 15 16  1  0  0  0
 15 80  1  0  0  0
 16 17  1  0  0  0
 16 19  1  0  0  0
 16 81  1  0  0  0
 17 18  2  0  0  0
 17 29  1  0  0  0
 19 20  1  0  0  0
 19 82  1  0  0  0
 19 83  1  0  0  0
 20 21  2  0  0  0
 20 22  1  0  0  0
 21 23  1  0  0  0
 21 84  1  0  0  0
 22 24  2  0  0  0
 22 25  1  0  0  0
 23 24  1  0  0  0
 23123  1  0  0  0
 24 26  1  0  0  0
 25 27  2  0  0  0
 25 85  1  0  0  0
 26 28  2  0  0  0
 26 86  1  0  0  0
 27 28  1  0  0  0
 27 87  1  0  0  0
 28 88  1  0  0  0
 29 30  1  0  0  0
 29 89  1  0  0  0
 30 31  1  0  0  0
 30 33  1  0  0  0
 30 90  1  0  0  0
 31 32  2  0  0  0
 31 38  1  0  0  0
 33 34  1  0  0  0
 33 91  1  0  0  0
 33 92  1  0  0  0
 34 35  1  0  0  0
 34 93  1  0  0  0
 34 94  1  0  0  0
 35 36  1  0  0  0
 35 95  1  0  0  0
 35 96  1  0  0  0
 36 37  1  0  0  0
 36 97  1  0  0  0
 36 98  1  0  0  0
 37 99  1  0  0  0
 37100  1  0  0  0
 37101  1  0  0  0
 38 39  1  0  0  0
 38102  1  0  0  0
 39 40  1  0  0  0
 39 42  1  0  0  0
 39103  1  0  0  0
 40 41  2  0  0  0
 40 46  1  0  0  0
 42 43  1  0  0  0
 42104  1  0  0  0
 42105  1  0  0  0
 43 44  2  0  0  0
 43 45  1  0  0  0
 46 47  1  0  0  0
 46106  1  0  0  0
 47 48  1  0  0  0
 47107  1  0  0  0
 47108  1  0  0  0
 48 49  2  0  0  0
 48 50  1  0  0  0
 50 51  1  0  0  0
 50109  1  0  0  0
 51 52  1  0  0  0
 51 54  1  0  0  0
 51110  1  0  0  0
 52 53  2  0  0  0
 52 56  1  0  0  0
 54 55  1  0  0  0
 54111  1  0  0  0
 54112  1  0  0  0
 55113  1  0  0  0
 56 57  1  0  0  0
 56114  1  0  0  0
 57 58  1  0  0  0
 57 60  1  0  0  0
 57115  1  0  0  0
 58 59  1  0  0  0
 58 68  2  0  0  0
 60 61  1  0  0  0
 60116  1  0  0  0
 60117  1  0  0  0
 61 62  2  0  0  0
 61 63  1  0  0  0
 62 64  1  0  0  0
 62118  1  0  0  0
 63 65  2  0  0  0
 63119  1  0  0  0
 64 66  2  0  0  0
 64120  1  0  0  0
 65 66  1  0  0  0
 65121  1  0  0  0
 66 67  1  0  0  0
 67122  1  0  0  0
M  CHG  6   1   1   7  -1  23   1  37   1  45  -1  59  -1
M  END
> <s_m_source_file>
../3rdv_ligand.sdf

> <i_m_source_file_index>
1

> <s_epik_input>
W09IXUMoPU8pW0NIMl1bQ0BIXShbTkgzK10pQyg9TylbTkhdW0NAQEhdKFtDSDJdW09IXSlDKD1PKVtOSF1bQ0BASF0oW0NIMl1jMVtjSF1bbkhdYyhjMTIpW2NIXVtjSF1bY0hdW2NIXTIpQyg9TylbTkhdW0NAQEhdKFtDSDJdW0NIMl1bQ0gyXVtDSDJdW05IMytdKUMoPU8pW05IXVtDQEBIXShbQ0gyXUMoPU8pW09IXSlDKD1PKVtOSF1bQ0gyXUMoPU8pW05IXVtDQEBIXShbQ0gyXVtTSF0pQyg9TylbTkhdW0NASF0oQyg9TylbT0hdKVtDSDJdYzNbY0hdW2NIXWMoW09IXSlbY0hdW2NIXTM=

> <s_epik_cmdline>
J2VwaWtfYXBwJywgJy1pbWFlJywgJ2xpZ2FuZF9wcm8ubWFlJywgJy1vbWFlJywgJ2xpZ2FuZF9wcmVwLm1hZScsICctbXMnLCAnMScsICctcGgnLCAnNycsICctcGh0JywgJzAuNScsICctbnQn

> <r_epik_Ionization_Penalty>
  0.0338

> <r_epik_Ionization_Penalty_Charging>
  0.0236

> <r_epik_Ionization_Penalty_Neutral>
  0.0102

> <r_epik_State_Penalty>
  0.0173

> <r_epik_Charging_Adjusted_Penalty>
0.0408699078907287

> <i_epik_Tot_Q>
0

> <i_epik_Tot_abs_Q>
6

$$$$
