3re4_ligand
                    3D
 Schrodinger Suite 2020-3.
 34 36  0  0  1  0            999 V2000
    7.6150    2.1430   25.3360 C   0  0  2  0  0  0
    8.4730    2.2490   26.5260 N   0  0  0  0  0  0
    7.3230    0.7890   24.9830 O   0  0  0  0  0  0
    8.4550    3.3000   27.3520 C   0  0  0  0  0  0
    7.7570    4.4380   27.3360 N   0  0  0  0  0  0
    7.1600    3.3050   23.2260 O   0  0  0  0  0  0
    7.8870    5.3800   28.2490 C   0  0  0  0  0  0
    8.7660    5.2100   29.2390 N   0  0  0  0  0  0
    8.4710    1.9290   21.9510 O   0  0  0  0  0  0
    9.5430    4.1360   29.4310 C   0  0  0  0  0  0
   11.8030    0.6450   29.3760 N   0  0  0  0  0  0
   10.1110   -0.4940   24.1190 O   0  0  0  0  0  0
    9.4170    3.0680   28.4440 C   0  0  0  0  0  0
   10.4240    3.9780   30.4450 N   0  0  0  0  0  0
    9.9800    1.7500   28.0930 C   0  0  0  0  0  0
    9.3460    1.2600   26.8910 C   0  0  0  0  0  0
   10.8890    1.0860   28.8100 C   0  0  0  0  0  0
    8.1970    2.7860   24.0920 C   0  0  2  0  0  0
    8.7600    1.6430   23.3130 C   0  0  1  0  0  0
    7.9180    0.4490   23.7190 C   0  0  1  0  0  0
    8.7320   -0.8220   23.8840 C   0  0  0  0  0  0
    6.6865    2.6323   25.6652 H   0  0  0  0  0  0
    6.5598    4.1702   23.5441 H   0  0  0  0  0  0
    7.2841    6.2865   28.1961 H   0  0  0  0  0  0
    8.9754    2.7658   21.4457 H   0  0  0  0  0  0
   10.8503   -1.2958   24.2625 H   0  0  0  0  0  0
   10.5385    4.7676   31.2022 H   0  0  0  0  0  0
   11.0261    3.0599   30.5125 H   0  0  0  0  0  0
    9.5238    0.3108   26.3855 H   0  0  0  0  0  0
    8.8813    3.6071   24.3519 H   0  0  0  0  0  0
    9.8438    1.4927   23.4262 H   0  0  0  0  0  0
    7.1384    0.2558   22.9674 H   0  0  0  0  0  0
    8.6497   -1.4263   22.9686 H   0  0  0  0  0  0
    8.3406   -1.3946   24.7378 H   0  0  0  0  0  0
  1  2  1  0  0  0
  1  3  1  0  0  0
  1 18  1  0  0  0
  1 22  1  0  0  0
  2  4  1  0  0  0
  2 16  1  0  0  0
  3 20  1  0  0  0
  4  5  1  0  0  0
  4 13  2  0  0  0
  5  7  2  0  0  0
  6 18  1  0  0  0
  6 23  1  0  0  0
  7  8  1  0  0  0
  7 24  1  0  0  0
  8 10  2  0  0  0
  9 19  1  0  0  0
  9 25  1  0  0  0
 10 13  1  0  0  0
 10 14  1  0  0  0
 11 17  3  0  0  0
 12 21  1  0  0  0
 12 26  1  0  0  0
 13 15  1  0  0  0
 14 27  1  0  0  0
 14 28  1  0  0  0
 15 16  2  0  0  0
 15 17  1  0  0  0
 16 29  1  0  0  0
 18 19  1  0  0  0
 18 30  1  0  0  0
 19 20  1  0  0  0
 19 31  1  0  0  0
 20 21  1  0  0  0
 20 32  1  0  0  0
 21 33  1  0  0  0
 21 34  1  0  0  0
M  END
> <s_m_source_file>
../3re4_ligand.sdf

> <i_m_source_file_index>
1

> <s_epik_input>
W09IXVtDQEBIXTFbQ0BIXShbT0hdKVtDQEBIXShbQ0gyXVtPSF0pT1tDQEhdMW4yW2NIXWMoQyNOKWMoYzIzKWMoW05IMl0pbltjSF1uMw==

> <s_epik_cmdline>
J2VwaWtfYXBwJywgJy1pbWFlJywgJ2xpZ2FuZF9wcm8ubWFlJywgJy1vbWFlJywgJ2xpZ2FuZF9wcmVwLm1hZScsICctbXMnLCAnMScsICctcGgnLCAnNycsICctcGh0JywgJzAuNScsICctbnQn

> <r_lp_tautomer_probability>
1

> <r_epik_Ionization_Penalty>
  0.0000

> <r_epik_Ionization_Penalty_Charging>
  0.0000

> <r_epik_Ionization_Penalty_Neutral>
  0.0000

> <r_epik_State_Penalty>
 -0.0000

> <r_epik_Charging_Adjusted_Penalty>
0

> <i_epik_Tot_Q>
0

> <i_epik_Tot_abs_Q>
0

> <s_epik_Chemistry_Notes>
This compound contains an acetal/aminal-like group ( X-CH(R)-Y where X, Y are N, S, or O) that may be acid/base labile, releasing an aldehyde.

$$$$
