3rey_ligand
                    3D
 Schrodinger Suite 2020-3.
 59 61  0  0  1  0            999 V2000
   48.9990   24.1270   30.3690 C   0  0  0  0  0  0
   47.4200   21.9500   31.2320 N   0  0  0  0  0  0
   49.7200   25.0800   30.0490 O   0  0  0  0  0  0
   47.2530   22.4800   29.9710 C   0  0  0  0  0  0
   48.0220   23.5680   29.5920 N   0  0  0  0  0  0
   46.4130   21.9920   29.2000 O   0  0  0  0  0  0
   49.7100   23.0270   33.7450 C   0  0  0  0  0  0
   48.7440   22.1450   33.4190 N   0  0  0  0  0  0
   52.1770   23.4190   38.8610 O   0  0  0  0  0  0
   48.3930   22.4870   32.1110 C   0  0  3  0  0  0
   49.9710   23.8670   32.7210 N   0  0  0  0  0  0
   53.4690   23.0250   41.5130 O   0  0  0  0  0  0
   49.1320   23.5200   31.6790 C   0  0  0  0  0  0
   51.5090   23.9920   42.0740 N   0  0  0  0  0  0
   47.7400   24.2150   28.2900 C   0  0  0  0  0  0
   51.1610   25.9650   45.2170 N   0  3  0  0  0  0
   46.6940   25.3380   28.4360 C   0  0  0  0  0  0
   46.5800   20.8480   31.7220 C   0  0  0  0  0  0
   47.2750   19.4840   31.5650 C   0  0  0  0  0  0
   46.4900   18.3500   32.2330 C   0  0  0  0  0  0
   46.2680   25.9340   27.0910 C   0  0  0  0  0  0
   51.5720   23.2420   37.6350 C   0  0  0  0  0  0
   50.5720   22.2760   37.3650 C   0  0  0  0  0  0
   49.9740   22.1990   36.0920 C   0  0  0  0  0  0
   50.3680   23.0770   35.0560 C   0  0  0  0  0  0
   51.3910   24.0170   35.3160 C   0  0  0  0  0  0
   51.9840   24.0960   36.5930 C   0  0  0  0  0  0
   51.6400   22.7210   39.9810 C   0  0  0  0  0  0
   52.2840   23.2610   41.2620 C   0  0  0  0  0  0
   51.9250   24.5800   43.3390 C   0  0  0  0  0  0
   50.7600   25.3700   43.9570 C   0  0  0  0  0  0
   50.4794   24.1337   41.7138 H   0  0  0  0  0  0
   48.6669   24.6508   27.8888 H   0  0  0  0  0  0
   47.3519   23.4655   27.5845 H   0  0  0  0  0  0
   50.3158   26.5252   45.6434 H   0  0  0  0  0  0
   52.0058   26.6488   45.0472 H   0  0  0  0  0  0
   51.4656   25.1724   45.9163 H   0  0  0  0  0  0
   45.7936   24.9389   28.9259 H   0  0  0  0  0  0
   47.1128   26.1522   29.0457 H   0  0  0  0  0  0
   46.3592   21.0016   32.7886 H   0  0  0  0  0  0
   45.6391   20.8230   31.1527 H   0  0  0  0  0  0
   47.3755   19.2446   30.4961 H   0  0  0  0  0  0
   48.2725   19.5254   32.0268 H   0  0  0  0  0  0
   47.0269   17.4002   32.0927 H   0  0  0  0  0  0
   45.4914   18.2775   31.7775 H   0  0  0  0  0  0
   46.3883   18.5583   33.3083 H   0  0  0  0  0  0
   45.5240   26.7263   27.2602 H   0  0  0  0  0  0
   45.8274   25.1452   26.4635 H   0  0  0  0  0  0
   47.1467   26.3585   26.5833 H   0  0  0  0  0  0
   50.2623   21.5857   38.1496 H   0  0  0  0  0  0
   49.1998   21.4552   35.9036 H   0  0  0  0  0  0
   51.7243   24.6864   34.5229 H   0  0  0  0  0  0
   52.7713   24.8272   36.7762 H   0  0  0  0  0  0
   50.5514   22.8737   40.0207 H   0  0  0  0  0  0
   51.8562   21.6470   39.8818 H   0  0  0  0  0  0
   52.2299   23.7817   44.0317 H   0  0  0  0  0  0
   52.7728   25.2593   43.1664 H   0  0  0  0  0  0
   49.9152   24.6862   44.1268 H   0  0  0  0  0  0
   50.4553   26.1626   43.2577 H   0  0  0  0  0  0
  1  3  2  0  0  0
  1  5  1  0  0  0
  1 13  1  0  0  0
  2  4  1  0  0  0
  2 10  1  0  0  0
  2 18  1  0  0  0
  4  5  1  0  0  0
  4  6  2  0  0  0
  5 15  1  0  0  0
  7  8  2  0  0  0
  7 11  1  0  0  0
  7 25  1  0  0  0
  8 10  1  0  0  0
  9 22  1  0  0  0
  9 28  1  0  0  0
 10 13  1  0  0  0
 11 13  2  0  0  0
 12 29  2  0  0  0
 14 29  1  0  0  0
 14 30  1  0  0  0
 14 32  1  0  0  0
 15 17  1  0  0  0
 15 33  1  0  0  0
 15 34  1  0  0  0
 16 31  1  0  0  0
 16 35  1  0  0  0
 16 36  1  0  0  0
 16 37  1  0  0  0
 17 21  1  0  0  0
 17 38  1  0  0  0
 17 39  1  0  0  0
 18 19  1  0  0  0
 18 40  1  0  0  0
 18 41  1  0  0  0
 19 20  1  0  0  0
 19 42  1  0  0  0
 19 43  1  0  0  0
 20 44  1  0  0  0
 20 45  1  0  0  0
 20 46  1  0  0  0
 21 47  1  0  0  0
 21 48  1  0  0  0
 21 49  1  0  0  0
 22 23  2  0  0  0
 22 27  1  0  0  0
 23 24  1  0  0  0
 23 50  1  0  0  0
 24 25  2  0  0  0
 24 51  1  0  0  0
 25 26  1  0  0  0
 26 27  2  0  0  0
 26 52  1  0  0  0
 27 53  1  0  0  0
 28 29  1  0  0  0
 28 54  1  0  0  0
 28 55  1  0  0  0
 30 31  1  0  0  0
 30 56  1  0  0  0
 30 57  1  0  0  0
 31 58  1  0  0  0
 31 59  1  0  0  0
M  CHG  1  16   1
M  END
> <s_m_source_file>
../3rey_ligand.sdf

> <i_m_source_file_index>
1

> <s_epik_input>
W0NIM11bQ0gyXVtDSDJdTjFDKD1PKU4oW0NIMl1bQ0gyXVtDSDNdKUMoPU8pQyhbQ0hdMTIpPU5DKD1OMiljKFtjSF1bY0hdMylbY0hdW2NIXWMzT1tDSDJdQyg9TylbTkhdW0NIMl1bQ0gyXVtOSDMrXQ==

> <s_epik_cmdline>
J2VwaWtfYXBwJywgJy1pbWFlJywgJ2xpZ2FuZF9wcm8ubWFlJywgJy1vbWFlJywgJ2xpZ2FuZF9wcmVwLm1hZScsICctbXMnLCAnMScsICctcGgnLCAnNycsICctcGh0JywgJzAuNScsICctbnQn

> <r_lp_tautomer_probability>
1

> <r_epik_Ionization_Penalty>
  0.0030

> <r_epik_Ionization_Penalty_Charging>
  0.0025

> <r_epik_Ionization_Penalty_Neutral>
  0.0005

> <r_epik_State_Penalty>
 -0.0000

> <r_epik_Charging_Adjusted_Penalty>
0.00250445308849465

> <i_epik_Tot_Q>
1

> <i_epik_Tot_abs_Q>
1

> <s_epik_Chemistry_Notes>
This compound has an imine and may undergo hydrolysis.

$$$$
