3rf4_ligand
                    3D
 Schrodinger Suite 2020-3.
 31 32  0  0  1  0            999 V2000
  -50.8250   48.7010   12.8980 N   0  0  0  0  0  0
  -50.1660   47.8100   13.8770 S   0  0  0  0  0  0
  -51.1520   46.9120   14.5080 O   0  0  0  0  0  0
  -49.2080   48.5740   14.7760 O   0  0  0  0  0  0
  -49.1590   46.7810   13.0010 C   0  0  0  0  0  0
  -48.0870   47.2760   12.0780 C   0  0  0  0  0  0
  -47.8000   48.7710   11.8270 Cl  0  0  0  0  0  0
  -47.3210   46.3680   11.3290 C   0  0  0  0  0  0
  -47.5260   44.9880   11.4800 C   0  0  0  0  0  0
  -46.7520   44.0570   10.7580 N   0  0  0  0  0  0
  -45.9250   44.6450    9.6700 C   0  0  0  0  0  0
  -46.7150   44.9890    8.4510 C   0  0  0  0  0  0
  -47.4070   44.0500    7.7020 C   0  0  0  0  0  0
  -48.0280   44.7270    6.6670 C   0  0  0  0  0  0
  -47.7030   46.0600    6.7940 C   0  0  0  0  0  0
  -46.9000   46.2720    7.9350 O   0  0  0  0  0  0
  -48.5390   44.5270   12.4150 C   0  0  0  0  0  0
  -49.3230   45.4110   13.2360 C   0  0  0  0  0  0
  -48.6830   43.0520   12.6430 C   0  0  0  0  0  0
  -49.3420   42.6860   13.6280 O   0  5  0  0  0  0
  -48.1290   42.2760   11.8520 O   0  0  0  0  0  0
  -51.4958   49.3942   13.4266 H   0  0  0  0  0  0
  -51.4080   48.0971   12.1870 H   0  0  0  0  0  0
  -46.5682   46.7347   10.6312 H   0  0  0  0  0  0
  -46.7259   42.9732   10.9442 H   0  0  0  0  0  0
  -45.4497   45.5696   10.0296 H   0  0  0  0  0  0
  -45.1483   43.9260    9.3704 H   0  0  0  0  0  0
  -47.4534   42.9778    7.8928 H   0  0  0  0  0  0
  -48.6580   44.2869    5.8940 H   0  0  0  0  0  0
  -48.0225   46.8437    6.1070 H   0  0  0  0  0  0
  -50.0060   45.0351   13.9978 H   0  0  0  0  0  0
  1  2  1  0  0  0
  1 22  1  0  0  0
  1 23  1  0  0  0
  2  3  2  0  0  0
  2  4  2  0  0  0
  2  5  1  0  0  0
  5  6  2  0  0  0
  5 18  1  0  0  0
  6  7  1  0  0  0
  6  8  1  0  0  0
  8  9  2  0  0  0
  8 24  1  0  0  0
  9 10  1  0  0  0
  9 17  1  0  0  0
 10 11  1  0  0  0
 10 25  1  0  0  0
 11 12  1  0  0  0
 11 26  1  0  0  0
 11 27  1  0  0  0
 12 13  2  0  0  0
 12 16  1  0  0  0
 13 14  1  0  0  0
 13 28  1  0  0  0
 14 15  2  0  0  0
 14 29  1  0  0  0
 15 16  1  0  0  0
 15 30  1  0  0  0
 17 18  2  0  0  0
 17 19  1  0  0  0
 18 31  1  0  0  0
 19 20  1  0  0  0
 19 21  2  0  0  0
M  CHG  1  20  -1
M  END
> <s_m_source_file>
../3rf4_ligand.sdf

> <i_m_source_file_index>
1

> <s_epik_input>
W05IMl1TKD1PKSg9TyljMWMoQ2wpW2NIXWMoYyhbY0hdMSlDKD1PKVtPSF0pW05IXVtDSDJdYzJbY0hdW2NIXVtjSF1vMg==

> <s_epik_cmdline>
J2VwaWtfYXBwJywgJy1pbWFlJywgJ2xpZ2FuZF9wcm8ubWFlJywgJy1vbWFlJywgJ2xpZ2FuZF9wcmVwLm1hZScsICctbXMnLCAnMScsICctcGgnLCAnNycsICctcGh0JywgJzAuNScsICctbnQn

> <r_lp_tautomer_probability>
1

> <r_epik_Ionization_Penalty>
  0.0018

> <r_epik_Ionization_Penalty_Charging>
  0.0004

> <r_epik_Ionization_Penalty_Neutral>
  0.0015

> <r_epik_State_Penalty>
 -0.0000

> <r_epik_Charging_Adjusted_Penalty>
0.000360382905360061

> <i_epik_Tot_Q>
-1

> <i_epik_Tot_abs_Q>
1

$$$$
