3rg2_ligand
                    3D
 Schrodinger Suite 2020-3.
 94 97  0  0  1  0            999 V2000
  -97.7960 -105.1220   96.6440 S   0  0  0  0  0  0
  -99.2040  -97.3810  102.9890 N   0  0  0  0  0  0
  -98.0370  -97.9080  103.3580 C   0  0  0  0  0  0
  -97.5850  -99.0390  102.8020 N   0  0  0  0  0  0
  -98.2670  -99.6960  101.8390 C   0  0  0  0  0  0
  -99.4830  -99.1730  101.4440 C   0  0  0  0  0  0
  -99.9500  -97.9970  102.0380 C   0  0  0  0  0  0
 -101.1450  -97.4590  101.6640 N   0  0  0  0  0  0
  -99.9770 -100.0020  100.4960 N   0  0  0  0  0  0
  -99.0970 -101.0170  100.3190 C   0  0  0  0  0  0
  -98.0480 -100.8300  101.1370 N   0  0  0  0  0  0
  -96.8790 -101.7600  101.1920 C   0  0  1  0  0  0
 -102.3300 -103.6550   95.9500 C   0  0  0  0  0  0
 -102.3520 -104.9550   95.5480 O   0  0  0  0  0  0
 -103.5780 -103.0640   96.1990 C   0  0  0  0  0  0
 -103.6560 -101.7360   96.5960 C   0  0  0  0  0  0
 -102.4730 -101.0170   96.7800 C   0  0  0  0  0  0
 -101.2230 -101.6000   96.5400 C   0  0  0  0  0  0
 -101.1360 -102.9300   96.1210 C   0  0  0  0  0  0
  -97.8520 -106.5360   96.9100 O   0  0  0  0  0  0
  -96.9050 -102.8050  102.2920 C   0  0  2  0  0  0
  -95.5400 -103.0710  102.5700 O   0  0  0  0  0  0
  -99.7320 -103.4610   95.8140 C   0  0  1  0  0  0
  -99.4180 -104.7430   96.5710 C   0  0  0  0  0  0
  -97.0340 -104.7970   95.4630 O   0  0  0  0  0  0
  -97.4690 -104.0360  101.6170 C   0  0  2  0  0  0
  -97.0460 -105.2750  102.1930 O   0  0  0  0  0  0
  -96.8600 -103.8980  100.2490 C   0  0  2  0  0  0
  -96.9180 -102.5020   99.9790 O   0  0  0  0  0  0
  -97.5680 -104.6930   99.1650 C   0  0  0  0  0  0
  -97.0690 -104.3610   97.8370 N   0  0  3  0  0  0
  -89.7720  -95.4610   87.7650 O   0  0  0  0  0  0
  -90.2210  -94.1990   87.0670 P   0  0  0  0  0  0
  -90.4490  -94.2970   85.5830 O   0  0  0  0  0  0
  -91.5740  -93.7710   87.8240 O   0  0  0  0  0  0
  -91.5400  -93.7980   89.2500 C   0  0  0  0  0  0
  -92.8820  -94.2670   89.7740 C   0  0  0  0  0  0
  -93.9190  -93.3200   89.2040 C   0  0  0  0  0  0
  -92.8800  -94.2420   91.2910 C   0  0  0  0  0  0
  -93.1230  -95.6870   89.2750 C   0  0  1  0  0  0
  -92.1710  -96.6470   89.7640 O   0  0  0  0  0  0
  -94.5070  -96.1660   89.5630 C   0  0  0  0  0  0
  -95.3630  -96.0120   88.7270 O   0  0  0  0  0  0
  -94.7740  -96.7830   90.6950 N   0  0  0  0  0  0
  -96.0980  -97.3020   91.0170 C   0  0  0  0  0  0
  -95.8570  -98.5270   91.8980 C   0  0  0  0  0  0
  -97.0980  -99.3840   91.9170 C   0  0  0  0  0  0
  -97.7760  -99.3910   90.9140 O   0  0  0  0  0  0
  -97.3930 -100.1110   93.0090 N   0  0  0  0  0  0
  -98.5440 -100.9820   93.2240 C   0  0  0  0  0  0
  -98.0280 -102.3120   93.7910 C   0  0  0  0  0  0
  -99.3800 -103.5360   93.9740 S   0  0  0  0  0  0
  -97.4416  -97.4109  104.1238 H   0  0  0  0  0  0
 -101.5036  -96.5332  102.1375 H   0  0  0  0  0  0
 -101.7509  -97.9506  100.8886 H   0  0  0  0  0  0
  -99.2202 -101.8493   99.6260 H   0  0  0  0  0  0
  -95.9811 -101.1364  101.3142 H   0  0  0  0  0  0
 -103.3125 -105.4778   95.4292 H   0  0  0  0  0  0
 -104.4896 -103.6497   96.0803 H   0  0  0  0  0  0
 -104.6239 -101.2627   96.7612 H   0  0  0  0  0  0
 -102.5239  -99.9817   97.1171 H   0  0  0  0  0  0
 -100.3145 -101.0143   96.6805 H   0  0  0  0  0  0
  -97.4193 -102.5239  103.2229 H   0  0  0  0  0  0
  -94.9208 -102.3084  103.0651 H   0  0  0  0  0  0
  -99.1318 -102.7892   96.4452 H   0  0  0  0  0  0
  -99.9618 -105.5547   96.0656 H   0  0  0  0  0  0
  -99.8115 -104.6174   97.5905 H   0  0  0  0  0  0
  -98.5625 -104.1251  101.6972 H   0  0  0  0  0  0
  -97.3886 -105.5593  103.1989 H   0  0  0  0  0  0
  -95.8176 -104.2490  100.2384 H   0  0  0  0  0  0
  -97.4082 -105.7680   99.3351 H   0  0  0  0  0  0
  -98.6455 -104.4735   99.1938 H   0  0  0  0  0  0
  -96.3714 -103.5207   97.7058 H   0  0  0  0  0  0
  -88.8544  -95.9729   87.4394 H   0  0  0  0  0  0
  -90.7521  -94.4886   89.5850 H   0  0  0  0  0  0
  -91.3285  -92.7880   89.6309 H   0  0  0  0  0  0
  -93.7290  -92.3020   89.5748 H   0  0  0  0  0  0
  -94.9225  -93.6432   89.5179 H   0  0  0  0  0  0
  -93.8581  -93.3276   88.1057 H   0  0  0  0  0  0
  -92.7055  -93.2137   91.6405 H   0  0  0  0  0  0
  -92.0811  -94.8978   91.6674 H   0  0  0  0  0  0
  -93.8520  -94.5963   91.6648 H   0  0  0  0  0  0
  -92.9602  -95.6708   88.1872 H   0  0  0  0  0  0
  -91.0932  -96.4644   89.6412 H   0  0  0  0  0  0
  -93.9481  -96.9000   91.4120 H   0  0  0  0  0  0
  -96.6739  -96.5317   91.5508 H   0  0  0  0  0  0
  -96.6214  -97.5732   90.0883 H   0  0  0  0  0  0
  -95.0154  -99.1090   91.4944 H   0  0  0  0  0  0
  -95.6202  -98.2016   92.9217 H   0  0  0  0  0  0
  -96.6378  -99.9923   93.7999 H   0  0  0  0  0  0
  -99.2355 -100.5069   93.9354 H   0  0  0  0  0  0
  -99.0604 -101.1501   92.2674 H   0  0  0  0  0  0
  -97.2700 -102.7303   93.1125 H   0  0  0  0  0  0
  -97.5792 -102.1394   94.7803 H   0  0  0  0  0  0
  1 20  2  0  0  0
  1 24  1  0  0  0
  1 25  2  0  0  0
  1 31  1  0  0  0
  2  3  1  0  0  0
  2  7  2  0  0  0
  3  4  2  0  0  0
  3 53  1  0  0  0
  4  5  1  0  0  0
  5  6  2  0  0  0
  5 11  1  0  0  0
  6  7  1  0  0  0
  6  9  1  0  0  0
  7  8  1  0  0  0
  8 54  1  0  0  0
  8 55  1  0  0  0
  9 10  2  0  0  0
 10 11  1  0  0  0
 10 56  1  0  0  0
 11 12  1  0  0  0
 12 21  1  0  0  0
 12 29  1  0  0  0
 12 57  1  0  0  0
 13 14  1  0  0  0
 13 15  2  0  0  0
 13 19  1  0  0  0
 14 58  1  0  0  0
 15 16  1  0  0  0
 15 59  1  0  0  0
 16 17  2  0  0  0
 16 60  1  0  0  0
 17 18  1  0  0  0
 17 61  1  0  0  0
 18 19  2  0  0  0
 18 62  1  0  0  0
 19 23  1  0  0  0
 21 22  1  0  0  0
 21 26  1  0  0  0
 21 63  1  0  0  0
 22 64  1  0  0  0
 23 24  1  0  0  0
 23 52  1  0  0  0
 23 65  1  0  0  0
 24 66  1  0  0  0
 24 67  1  0  0  0
 26 27  1  0  0  0
 26 28  1  0  0  0
 26 68  1  0  0  0
 27 69  1  0  0  0
 28 29  1  0  0  0
 28 30  1  0  0  0
 28 70  1  0  0  0
 30 31  1  0  0  0
 30 71  1  0  0  0
 30 72  1  0  0  0
 31 73  1  0  0  0
 32 33  1  0  0  0
 32 74  1  0  0  0
 33 34  2  0  0  0
 33 35  1  0  0  0
 35 36  1  0  0  0
 36 37  1  0  0  0
 36 75  1  0  0  0
 36 76  1  0  0  0
 37 38  1  0  0  0
 37 39  1  0  0  0
 37 40  1  0  0  0
 38 77  1  0  0  0
 38 78  1  0  0  0
 38 79  1  0  0  0
 39 80  1  0  0  0
 39 81  1  0  0  0
 39 82  1  0  0  0
 40 41  1  0  0  0
 40 42  1  0  0  0
 40 83  1  0  0  0
 41 84  1  0  0  0
 42 43  2  0  0  0
 42 44  1  0  0  0
 44 45  1  0  0  0
 44 85  1  0  0  0
 45 46  1  0  0  0
 45 86  1  0  0  0
 45 87  1  0  0  0
 46 47  1  0  0  0
 46 88  1  0  0  0
 46 89  1  0  0  0
 47 48  2  0  0  0
 47 49  1  0  0  0
 49 50  1  0  0  0
 49 90  1  0  0  0
 50 51  1  0  0  0
 50 91  1  0  0  0
 50 92  1  0  0  0
 51 52  1  0  0  0
 51 93  1  0  0  0
 51 94  1  0  0  0
M  END
> <s_m_source_file>
../3rg2_ligand.sdf

> <i_m_source_file_index>
1

> <s_epik_input>
bjFbY0hdbmMoW05IMl0pYyhjMTIpbltjSF1uMltDQEhdM1tDQEhdKFtPSF0pW0NASF0oW09IXSlbQ0BIXShPMylbQ0gyXVtOSF1TKD1PKSg9TylbQ0gyXVtDQEhdKGM0W2NIXVtjSF1bY0hdW2NIXWM0W09IXSlTW0NIMl1bQ0gyXVtOSF1DKD1PKVtDSDJdW0NIMl1bTkhdQyg9TylbQ0BIXShbT0hdKUMoW0NIM10pKFtDSDNdKVtDSDJdT1tQSF0oPU8pW09IXQ==

> <s_epik_cmdline>
J2VwaWtfYXBwJywgJy1pbWFlJywgJ2xpZ2FuZF9wcm8ubWFlJywgJy1vbWFlJywgJ2xpZ2FuZF9wcmVwLm1hZScsICctbXMnLCAnMScsICctcGgnLCAnNycsICctcGh0JywgJzAuNScsICctbnQn

> <r_lp_tautomer_probability>
1

> <r_epik_Ionization_Penalty>
  0.0022

> <r_epik_Ionization_Penalty_Charging>
  0.0000

> <r_epik_Ionization_Penalty_Neutral>
  0.0022

> <r_epik_State_Penalty>
 -0.0000

> <r_epik_Charging_Adjusted_Penalty>
0

> <i_epik_Tot_Q>
0

> <i_epik_Tot_abs_Q>
0

> <s_epik_Chemistry_Notes>
This compound contains an acetal/aminal-like group ( X-CH(R)-Y where X, Y are N, S, or O) that may be acid/base labile, releasing an aldehyde.

$$$$
