3ri1_ligand
                    3D
 Schrodinger Suite 2020-3.
 36 39  0  0  1  0            999 V2000
  -29.4740   16.4670  -23.5900 C   0  0  0  0  0  0
  -28.3280   16.6210  -24.3640 C   0  0  0  0  0  0
  -30.3770   15.5180  -23.9340 N   0  0  0  0  0  0
  -30.1570   14.7380  -25.0240 C   0  0  0  0  0  0
  -31.0660   13.7930  -25.3610 N   0  0  0  0  0  0
  -29.0420   14.8880  -25.7840 N   0  0  0  0  0  0
  -28.1220   15.8100  -25.4780 C   0  0  0  0  0  0
  -27.3120   17.6750  -23.9880 C   0  0  0  0  0  0
  -27.2070   17.7690  -22.4630 C   0  0  1  0  0  0
  -26.1560   18.7700  -22.1400 C   0  0  0  0  0  0
  -28.5580   17.9970  -21.8460 C   0  0  0  0  0  0
  -29.6680   17.3490  -22.3940 C   0  0  0  0  0  0
  -26.3060   20.1270  -22.4550 C   0  0  0  0  0  0
  -25.2930   21.0370  -22.1490 C   0  0  0  0  0  0
  -24.1240   20.5840  -21.5370 C   0  0  0  0  0  0
  -23.9680   19.2290  -21.2300 C   0  0  0  0  0  0
  -24.9810   18.3220  -21.5330 C   0  0  0  0  0  0
  -28.7350   18.8160  -20.7230 C   0  0  0  0  0  0
  -30.0070   18.9990  -20.1660 C   0  0  0  0  0  0
  -31.1150   18.3590  -20.7250 C   0  0  0  0  0  0
  -30.9390   17.5330  -21.8370 C   0  0  0  0  0  0
  -31.9735   13.6614  -24.7535 H   0  0  0  0  0  0
  -30.8970   13.1568  -26.2423 H   0  0  0  0  0  0
  -27.2270   15.9246  -26.0895 H   0  0  0  0  0  0
  -26.3310   17.4040  -24.4053 H   0  0  0  0  0  0
  -27.6264   18.6483  -24.3928 H   0  0  0  0  0  0
  -26.8744   16.8370  -21.9826 H   0  0  0  0  0  0
  -27.2179   20.4735  -22.9412 H   0  0  0  0  0  0
  -25.4143   22.0939  -22.3864 H   0  0  0  0  0  0
  -23.3287   21.2897  -21.2971 H   0  0  0  0  0  0
  -23.0518   18.8815  -20.7526 H   0  0  0  0  0  0
  -24.8567   17.2652  -21.2968 H   0  0  0  0  0  0
  -27.8743   19.3156  -20.2785 H   0  0  0  0  0  0
  -30.1322   19.6420  -19.2948 H   0  0  0  0  0  0
  -32.1074   18.5027  -20.2976 H   0  0  0  0  0  0
  -31.7991   17.0269  -22.2753 H   0  0  0  0  0  0
  1  2  2  0  0  0
  1  3  1  0  0  0
  1 12  1  0  0  0
  2  7  1  0  0  0
  2  8  1  0  0  0
  3  4  2  0  0  0
  4  5  1  0  0  0
  4  6  1  0  0  0
  5 22  1  0  0  0
  5 23  1  0  0  0
  6  7  2  0  0  0
  7 24  1  0  0  0
  8  9  1  0  0  0
  8 25  1  0  0  0
  8 26  1  0  0  0
  9 10  1  0  0  0
  9 11  1  0  0  0
  9 27  1  0  0  0
 10 13  2  0  0  0
 10 17  1  0  0  0
 11 12  2  0  0  0
 11 18  1  0  0  0
 12 21  1  0  0  0
 13 14  1  0  0  0
 13 28  1  0  0  0
 14 15  2  0  0  0
 14 29  1  0  0  0
 15 16  1  0  0  0
 15 30  1  0  0  0
 16 17  2  0  0  0
 16 31  1  0  0  0
 17 32  1  0  0  0
 18 19  2  0  0  0
 18 33  1  0  0  0
 19 20  1  0  0  0
 19 34  1  0  0  0
 20 21  2  0  0  0
 20 35  1  0  0  0
 21 36  1  0  0  0
M  END
> <s_m_source_file>
../3ri1_ligand.sdf

> <i_m_source_file_index>
1

> <s_epik_input>
bjFjKFtOSDJdKW5bY0hdYyhjMTIpW0NIMl1bQ0BASF0oYzNbY0hdW2NIXVtjSF1bY0hdW2NIXTMpYzRjMltjSF1bY0hdW2NIXVtjSF00

> <s_epik_cmdline>
J2VwaWtfYXBwJywgJy1pbWFlJywgJ2xpZ2FuZF9wcm8ubWFlJywgJy1vbWFlJywgJ2xpZ2FuZF9wcmVwLm1hZScsICctbXMnLCAnMScsICctcGgnLCAnNycsICctcGh0JywgJzAuNScsICctbnQn

> <r_lp_tautomer_probability>
1

> <r_epik_Ionization_Penalty>
  0.0008

> <r_epik_Ionization_Penalty_Charging>
  0.0000

> <r_epik_Ionization_Penalty_Neutral>
  0.0008

> <r_epik_State_Penalty>
 -0.0000

> <r_epik_Charging_Adjusted_Penalty>
0

> <i_epik_Tot_Q>
0

> <i_epik_Tot_abs_Q>
0

$$$$
