3rik_ligand
                    3D
 Schrodinger Suite 2020-3.
 32 32  0  0  1  0            999 V2000
   10.0930   -5.8000   37.6670 O   0  0  0  0  0  0
    9.7280  -11.8710   38.3290 O   0  0  0  0  0  0
   13.1520   -8.4060   41.2000 O   0  0  0  0  0  0
   11.8580  -12.7500   39.5230 O   0  0  0  0  0  0
   13.3330  -11.4830   41.3050 O   0  0  0  0  0  0
    9.2950   -6.9430   38.0300 C   0  0  0  0  0  0
    9.4740   -7.3710   39.5080 C   0  0  0  0  0  0
    9.6280   -9.7830   39.2170 C   0  0  0  0  0  0
   10.7700   -8.7080   41.0580 C   0  0  0  0  0  0
   10.5970  -10.8560   38.7680 C   0  0  1  0  0  0
   12.1300   -9.3910   41.3230 C   0  0  1  0  0  0
   11.3570  -11.4830   39.9440 C   0  0  2  0  0  0
   12.5210  -10.6330   40.4870 C   0  0  2  0  0  0
   10.3560   -8.5680   39.6450 N   0  3  2  0  0  0
   10.0505   -5.4026   36.6422 H   0  0  0  0  0  0
    9.0530  -11.6880   37.4800 H   0  0  0  0  0  0
   13.0553   -7.4445   41.7256 H   0  0  0  0  0  0
   11.1723  -13.5006   39.1029 H   0  0  0  0  0  0
   14.2288  -11.0786   41.7989 H   0  0  0  0  0  0
    8.2306   -6.7098   37.8793 H   0  0  0  0  0  0
    9.5751   -7.8006   37.4006 H   0  0  0  0  0  0
    9.9272   -6.5455   40.0764 H   0  0  0  0  0  0
    8.4928   -7.6181   39.9396 H   0  0  0  0  0  0
    8.9585   -9.5218   38.3842 H   0  0  0  0  0  0
    9.0324  -10.1574   40.0627 H   0  0  0  0  0  0
    9.9695   -9.2833   41.5461 H   0  0  0  0  0  0
   10.7874   -7.6861   41.4647 H   0  0  0  0  0  0
   11.2942  -10.4880   38.0009 H   0  0  0  0  0  0
   12.0851   -9.7523   42.3610 H   0  0  0  0  0  0
   10.6485  -11.6474   40.7692 H   0  0  0  0  0  0
   13.0995  -10.2764   39.6220 H   0  0  0  0  0  0
   11.2482   -8.4501   39.0124 H   0  0  0  0  0  0
  1  6  1  0  0  0
  1 15  1  0  0  0
  2 10  1  0  0  0
  2 16  1  0  0  0
  3 11  1  0  0  0
  3 17  1  0  0  0
  4 12  1  0  0  0
  4 18  1  0  0  0
  5 13  1  0  0  0
  5 19  1  0  0  0
  6  7  1  0  0  0
  6 20  1  0  0  0
  6 21  1  0  0  0
  7 14  1  0  0  0
  7 22  1  0  0  0
  7 23  1  0  0  0
  8 10  1  0  0  0
  8 14  1  0  0  0
  8 24  1  0  0  0
  8 25  1  0  0  0
  9 11  1  0  0  0
  9 14  1  0  0  0
  9 26  1  0  0  0
  9 27  1  0  0  0
 10 12  1  0  0  0
 10 28  1  0  0  0
 11 13  1  0  0  0
 11 29  1  0  0  0
 12 13  1  0  0  0
 12 30  1  0  0  0
 13 31  1  0  0  0
 14 32  1  0  0  0
M  CHG  1  14   1
M  END
> <s_m_source_file>
../3rik_ligand.sdf

> <i_m_source_file_index>
1

> <s_epik_input>
W09IXVtDSDJdW0NIMl1bTkBIK10oW0NIMl1bQ0BASF0xW09IXSlbQ0gyXVtDQEhdKFtPSF0pW0NAQEhdKFtPSF0pW0NAQEhdMVtPSF0=

> <s_epik_cmdline>
J2VwaWtfYXBwJywgJy1pbWFlJywgJ2xpZ2FuZF9wcm8ubWFlJywgJy1vbWFlJywgJ2xpZ2FuZF9wcmVwLm1hZScsICctbXMnLCAnMScsICctcGgnLCAnNycsICctcGh0JywgJzAuNScsICctbnQn

> <r_epik_Ionization_Penalty>
  0.0442

> <r_epik_Ionization_Penalty_Charging>
  0.0442

> <r_epik_Ionization_Penalty_Neutral>
  0.0000

> <r_epik_State_Penalty>
  0.0375

> <r_epik_Charging_Adjusted_Penalty>
0.081664595746302

> <i_epik_Tot_Q>
1

> <i_epik_Tot_abs_Q>
1

$$$$
