3ril_ligand
                    3D
 Schrodinger Suite 2020-3.
 25 25  0  0  1  0            999 V2000
  -14.8550   -4.8250   38.8600 O   0  0  0  0  0  0
  -12.6150   -8.2940   42.8100 O   0  0  0  0  0  0
  -15.8630   -7.7900   39.3770 O   0  0  0  0  0  0
  -14.7420   -9.0830   41.4580 O   0  0  0  0  0  0
  -12.6680   -5.8880   39.3610 C   0  0  0  0  0  0
  -12.0620   -6.3760   41.6890 C   0  0  0  0  0  0
  -12.4010   -5.3830   40.6960 N   0  3  0  0  0  0
  -14.1760   -6.0740   39.1200 C   0  0  1  0  0  0
  -13.2480   -7.2450   42.1050 C   0  0  1  0  0  0
  -14.9240   -6.9840   40.1310 C   0  0  2  0  0  0
  -14.0130   -7.9330   40.9550 C   0  0  2  0  0  0
  -14.4193   -4.0977   38.1592 H   0  0  0  0  0  0
  -11.9954   -8.0694   43.6907 H   0  0  0  0  0  0
  -16.6028   -7.3052   38.7231 H   0  0  0  0  0  0
  -14.2228   -9.8427   42.0608 H   0  0  0  0  0  0
  -12.2814   -5.1771   38.6159 H   0  0  0  0  0  0
  -12.1720   -6.8612   39.2311 H   0  0  0  0  0  0
  -11.2859   -7.0448   41.2886 H   0  0  0  0  0  0
  -11.6845   -5.8763   42.5933 H   0  0  0  0  0  0
  -11.5533   -4.6829   40.6604 H   0  0  0  0  0  0
  -13.2918   -4.8612   41.0756 H   0  0  0  0  0  0
  -14.2552   -6.5872   38.1503 H   0  0  0  0  0  0
  -13.9662   -6.6535   42.6917 H   0  0  0  0  0  0
  -15.4682   -6.3453   40.8423 H   0  0  0  0  0  0
  -13.2726   -8.3451   40.2535 H   0  0  0  0  0  0
  1  8  1  0  0  0
  1 12  1  0  0  0
  2  9  1  0  0  0
  2 13  1  0  0  0
  3 10  1  0  0  0
  3 14  1  0  0  0
  4 11  1  0  0  0
  4 15  1  0  0  0
  5  7  1  0  0  0
  5  8  1  0  0  0
  5 16  1  0  0  0
  5 17  1  0  0  0
  6  7  1  0  0  0
  6  9  1  0  0  0
  6 18  1  0  0  0
  6 19  1  0  0  0
  7 20  1  0  0  0
  7 21  1  0  0  0
  8 10  1  0  0  0
  8 22  1  0  0  0
  9 11  1  0  0  0
  9 23  1  0  0  0
 10 11  1  0  0  0
 10 24  1  0  0  0
 11 25  1  0  0  0
M  CHG  1   7   1
M  END
> <s_m_source_file>
../3ril_ligand.sdf

> <i_m_source_file_index>
1

> <s_epik_input>
W09IXVtDQEhdMVtDSDJdW05IMitdW0NIMl1bQ0BIXShbT0hdKVtDQEBIXShbT0hdKVtDQEBIXTFbT0hd

> <s_epik_cmdline>
J2VwaWtfYXBwJywgJy1pbWFlJywgJ2xpZ2FuZF9wcm8ubWFlJywgJy1vbWFlJywgJ2xpZ2FuZF9wcmVwLm1hZScsICctbXMnLCAnMScsICctcGgnLCAnNycsICctcGh0JywgJzAuNScsICctbnQn

> <r_lp_tautomer_probability>
1

> <r_epik_Ionization_Penalty>
  0.0072

> <r_epik_Ionization_Penalty_Charging>
  0.0072

> <r_epik_Ionization_Penalty_Neutral>
  0.0000

> <r_epik_State_Penalty>
 -0.0000

> <r_epik_Charging_Adjusted_Penalty>
0.00724759445085477

> <i_epik_Tot_Q>
1

> <i_epik_Tot_abs_Q>
1

$$$$
