3rin_ligand
                    3D
 Schrodinger Suite 2020-3.
 51 55  0  0  1  0            999 V2000
    6.7160   30.3910   30.9070 C   0  0  0  0  0  0
    5.4810   31.0160   31.2310 C   0  0  0  0  0  0
    4.3200   30.7030   30.4910 C   0  0  0  0  0  0
    4.4290   29.7660   29.4330 C   0  0  0  0  0  0
    5.6370   29.1050   29.1050 C   0  0  0  0  0  0
    6.7980   29.4660   29.8580 C   0  0  0  0  0  0
    5.4150   32.0470   32.3830 C   0  0  0  0  0  0
    5.6950   28.1280   27.8940 C   0  0  0  0  0  0
    6.6040   27.1490   27.8530 N   0  0  0  0  0  0
    6.6480   26.3060   26.6740 C   0  0  0  0  0  0
    7.0640   27.0440   25.3930 C   0  0  0  0  0  0
    8.0390   26.0590   26.0350 C   0  0  0  0  0  0
    4.9850   28.3140   26.9170 O   0  0  0  0  0  0
    3.0320   31.2990   30.7310 C   0  0  0  0  0  0
    2.8580   32.6150   30.3220 C   0  0  0  0  0  0
    1.6660   33.3110   30.4610 C   0  0  0  0  0  0
    0.5640   32.6620   31.0120 C   0  0  0  0  0  0
    0.6840   31.3000   31.4270 C   0  0  0  0  0  0
    1.9180   30.6260   31.2740 C   0  0  0  0  0  0
    1.3940   34.5770   30.1080 N   0  0  0  0  0  0
    0.1070   34.8740   30.3620 C   0  0  0  0  0  0
   -0.6050   33.7050   30.9930 C   0  0  0  0  0  0
   -0.4430   35.9340   30.0910 O   0  0  0  0  0  0
   -1.2500   34.0470   32.3570 C   0  0  0  0  0  0
   -2.6690   34.4630   31.9370 C   0  0  0  0  0  0
   -3.0390   33.3960   30.9280 C   0  0  0  0  0  0
   -1.7830   33.2770   30.0470 C   0  0  0  0  0  0
    7.6098   30.6343   31.4815 H   0  0  0  0  0  0
    3.5396   29.5437   28.8434 H   0  0  0  0  0  0
    7.7596   29.0154   29.6125 H   0  0  0  0  0  0
    6.4117   32.1553   32.8357 H   0  0  0  0  0  0
    4.7018   31.7000   33.1452 H   0  0  0  0  0  0
    5.0846   33.0186   31.9870 H   0  0  0  0  0  0
    7.3065   26.9736   28.6811 H   0  0  0  0  0  0
    5.8163   25.6767   27.0236 H   0  0  0  0  0  0
    6.3602   26.7992   24.5838 H   0  0  0  0  0  0
    7.0513   28.1289   25.5743 H   0  0  0  0  0  0
    8.8261   26.3267   26.7553 H   0  0  0  0  0  0
    8.1350   24.9970   25.7648 H   0  0  0  0  0  0
    3.7045   33.1291   29.8668 H   0  0  0  0  0  0
   -0.1721   30.7825   31.8598 H   0  0  0  0  0  0
    2.0083   29.5828   31.5768 H   0  0  0  0  0  0
    2.1839   35.2095   29.6767 H   0  0  0  0  0  0
   -1.2332   33.1574   33.0038 H   0  0  0  0  0  0
   -0.6846   34.8597   32.8365 H   0  0  0  0  0  0
   -3.3270   34.4632   32.8185 H   0  0  0  0  0  0
   -2.6411   35.4721   31.5001 H   0  0  0  0  0  0
   -3.2698   32.4580   31.4542 H   0  0  0  0  0  0
   -3.9203   33.7220   30.3561 H   0  0  0  0  0  0
   -1.8216   33.9535   29.1805 H   0  0  0  0  0  0
   -1.6188   32.2461   29.7003 H   0  0  0  0  0  0
  1  2  2  0  0  0
  1  6  1  0  0  0
  1 28  1  0  0  0
  2  3  1  0  0  0
  2  7  1  0  0  0
  3  4  2  0  0  0
  3 14  1  0  0  0
  4  5  1  0  0  0
  4 29  1  0  0  0
  5  6  2  0  0  0
  5  8  1  0  0  0
  6 30  1  0  0  0
  7 31  1  0  0  0
  7 32  1  0  0  0
  7 33  1  0  0  0
  8  9  1  0  0  0
  8 13  2  0  0  0
  9 10  1  0  0  0
  9 34  1  0  0  0
 10 11  1  0  0  0
 10 12  1  0  0  0
 10 35  1  0  0  0
 11 12  1  0  0  0
 11 36  1  0  0  0
 11 37  1  0  0  0
 12 38  1  0  0  0
 12 39  1  0  0  0
 14 15  2  0  0  0
 14 19  1  0  0  0
 15 16  1  0  0  0
 15 40  1  0  0  0
 16 17  2  0  0  0
 16 20  1  0  0  0
 17 18  1  0  0  0
 17 22  1  0  0  0
 18 19  2  0  0  0
 18 41  1  0  0  0
 19 42  1  0  0  0
 20 21  1  0  0  0
 20 43  1  0  0  0
 21 22  1  0  0  0
 21 23  2  0  0  0
 22 24  1  0  0  0
 22 27  1  0  0  0
 24 25  1  0  0  0
 24 44  1  0  0  0
 24 45  1  0  0  0
 25 26  1  0  0  0
 25 46  1  0  0  0
 25 47  1  0  0  0
 26 27  1  0  0  0
 26 48  1  0  0  0
 26 49  1  0  0  0
 27 50  1  0  0  0
 27 51  1  0  0  0
M  END
> <s_m_source_file>
../3rin_ligand.sdf

> <i_m_source_file_index>
1

> <s_epik_input>
W0NIMl0xW0NIMl1bQ0hdMVtOSF1DKD1PKWMoW2NIXVtjSF1jMltDSDNdKVtjSF1jMi1jKFtjSF1bY0hdMylbY0hdYyhbTkhdQzQ9TyljM0M0NVtDSDJdW0NIMl1bQ0gyXVtDSDJdNQ==

> <s_epik_cmdline>
J2VwaWtfYXBwJywgJy1pbWFlJywgJ2xpZ2FuZF9wcm8ubWFlJywgJy1vbWFlJywgJ2xpZ2FuZF9wcmVwLm1hZScsICctbXMnLCAnMScsICctcGgnLCAnNycsICctcGh0JywgJzAuNScsICctbnQn

> <r_lp_tautomer_probability>
1

> <r_epik_Ionization_Penalty>
  0.0000

> <r_epik_Ionization_Penalty_Charging>
  0.0000

> <r_epik_Ionization_Penalty_Neutral>
  0.0000

> <r_epik_State_Penalty>
 -0.0000

> <r_epik_Charging_Adjusted_Penalty>
0

> <i_epik_Tot_Q>
0

> <i_epik_Tot_abs_Q>
0

$$$$
