3rj7_ligand
                    3D
 Schrodinger Suite 2020-3.
 35 40  0  0  1  0            999 V2000
   15.1340    1.2350   16.7690 S   0  0  0  0  0  0
   20.8450    7.8340   13.3810 C   0  0  0  0  0  0
   21.5520   11.6140   10.9730 O   0  0  0  0  0  0
   19.8150    8.0700   14.3630 C   0  0  0  0  0  0
   18.4740   12.5410   13.6670 O   0  0  0  0  0  0
   20.2820    9.1310   15.2350 C   0  0  0  0  0  0
   18.0290    9.2740   10.9710 O   0  0  0  0  0  0
   21.9520    8.7590   13.6370 C   0  0  0  0  0  0
   21.5590    9.5740   14.7450 C   0  0  0  0  0  0
   20.9210   11.0120   11.8020 C   0  0  0  0  0  0
   19.1030   11.5210   13.6170 C   0  0  0  0  0  0
   18.6830    9.6870   11.7760 C   0  0  0  0  0  0
   18.5490    7.3950   14.4410 C   0  0  0  0  0  0
   18.1360    6.5120   13.5030 N   0  0  0  0  0  0
   16.8100    6.0240   13.5890 C   0  0  0  0  0  0
   17.7470    7.7560   15.3670 O   0  0  0  0  0  0
   16.5270    4.8500   14.4990 C   0  0  0  0  0  0
   15.6630   -0.0650   16.0800 N   0  0  0  0  0  0
   13.6760    1.3040   16.6540 O   0  0  0  0  0  0
   15.2180    4.7720   14.9340 C   0  0  0  0  0  0
   15.6890    1.3890   18.1080 O   0  0  0  0  0  0
   14.8430    3.6490   15.6440 C   0  0  0  0  0  0
   15.7290    2.6030   15.8710 C   0  0  0  0  0  0
   17.1010    2.7260   15.5520 C   0  0  0  0  0  0
   17.4640    3.8910   14.8350 C   0  0  0  0  0  0
   20.0780    9.9740   13.1390 Re  0  0  0  0  0  0
   18.7956    6.1720   12.6910 H   0  0  0  0  0  0
   16.1476    6.8241   13.9512 H   0  0  0  0  0  0
   16.4757    5.6934   12.5945 H   0  0  0  0  0  0
   15.2997   -0.9455   16.6303 H   0  0  0  0  0  0
   16.7630   -0.0595   16.0821 H   0  0  0  0  0  0
   14.5057    5.5698   14.7238 H   0  0  0  0  0  0
   13.8281    3.5813   16.0357 H   0  0  0  0  0  0
   17.8328    1.9713   15.8401 H   0  0  0  0  0  0
   18.5039    4.0349   14.5417 H   0  0  0  0  0  0
  1 18  1  0  0  0
  1 19  2  0  0  0
  1 21  2  0  0  0
  1 23  1  0  0  0
  2  4  2  0  0  0
  2  8  1  0  0  0
  2 26  1  0  0  0
  3 10  3  0  0  0
  4  6  1  0  0  0
  4 13  1  0  0  0
  4 26  1  0  0  0
  5 11  3  0  0  0
  6  9  1  0  0  0
  6 26  1  0  0  0
  7 12  3  0  0  0
  8  9  2  0  0  0
  8 26  1  0  0  0
  9 26  1  0  0  0
 10 26  1  0  0  0
 11 26  1  0  0  0
 12 26  1  0  0  0
 13 14  1  0  0  0
 13 16  2  0  0  0
 14 15  1  0  0  0
 14 27  1  0  0  0
 15 17  1  0  0  0
 15 28  1  0  0  0
 15 29  1  0  0  0
 17 20  2  0  0  0
 17 25  1  0  0  0
 18 30  1  0  0  0
 18 31  1  0  0  0
 20 22  1  0  0  0
 20 32  1  0  0  0
 22 23  2  0  0  0
 22 33  1  0  0  0
 23 24  1  0  0  0
 24 25  2  0  0  0
 24 34  1  0  0  0
 25 35  1  0  0  0
M  END
> <MOLECULAR_FORMULA>
C16H9N2O6S

> <MOLECULAR_WEIGHT>
357.2

> <NUM_HB_ATOMS>
8

> <NUM_ROTOR>
3

> <XLOGP2>
3.01

> <s_m_source_file>
../3rj7_ligand.sdf

> <i_m_source_file_index>
1

> <s_epik_input>
W05IMl1TKD1PKSg9TyljKFtjSF1bY0hdMSlbY0hdW2NIXWMxW0NIMl1bTkhdQyg9TylbQ10yKFtDSF0zQzQ9QzU2KT1DNVtSZV0yMzQ2KEMjW09dKShDI1tPXSlDI1tPXQ==

> <s_epik_cmdline>
J2VwaWtfYXBwJywgJy1pbWFlJywgJ2xpZ2FuZF9wcm8ubWFlJywgJy1vbWFlJywgJ2xpZ2FuZF9wcmVwLm1hZScsICctbXMnLCAnMScsICctcGgnLCAnNycsICctcGh0JywgJzAuNScsICctbnQn

> <r_lp_tautomer_probability>
1

> <r_epik_Ionization_Penalty>
  0.0010

> <r_epik_Ionization_Penalty_Charging>
  0.0000

> <r_epik_Ionization_Penalty_Neutral>
  0.0010

> <r_epik_State_Penalty>
 -0.0000

> <r_epik_Charging_Adjusted_Penalty>
0

> <i_epik_Tot_Q>
0

> <i_epik_Tot_abs_Q>
0

$$$$
