3rjc_ligand
                    3D
 Schrodinger Suite 2020-3.
 34 36  0  0  1  0            999 V2000
  114.0100   49.0010  -44.7830 F   0  0  0  0  0  0
  118.3270   46.1870  -49.8130 N   0  0  0  0  0  0
  119.4320   45.4120  -50.0910 C   0  0  0  0  0  0
  119.9130   45.3890  -51.3240 N   0  0  0  0  0  0
  119.9790   44.6580  -49.0250 C   0  0  0  0  0  0
  121.1320   43.7530  -49.1220 C   0  0  0  0  0  0
  121.6050   42.9450  -47.9310 C   0  0  0  0  0  0
  120.6640   42.1670  -47.1220 C   0  0  0  0  0  0
  121.1120   41.3910  -46.0040 C   0  0  0  0  0  0
  122.5130   41.3730  -45.6730 C   0  0  0  0  0  0
  123.4600   42.1330  -46.4620 C   0  0  0  0  0  0
  123.0100   42.9180  -47.5900 C   0  0  0  0  0  0
  121.7370   43.6010  -50.2120 O   0  0  0  0  0  0
  119.0150   45.0010  -47.6040 S   0  0  0  0  0  0
  117.9920   46.0660  -48.5620 C   0  0  0  0  0  0
  116.8920   46.7440  -48.0830 N   0  0  0  0  0  0
  116.2540   46.8220  -46.8120 C   0  0  0  0  0  0
  115.4060   47.9440  -46.4370 C   0  0  0  0  0  0
  114.7900   47.9490  -45.1120 C   0  0  0  0  0  0
  114.9870   46.8850  -44.1570 C   0  0  0  0  0  0
  115.8310   45.7620  -44.5380 C   0  0  0  0  0  0
  116.4580   45.7260  -45.8500 C   0  0  0  0  0  0
  119.4425   45.9988  -52.1094 H   0  0  0  0  0  0
  120.7832   44.7601  -51.5633 H   0  0  0  0  0  0
  119.6038   42.1786  -47.3750 H   0  0  0  0  0  0
  120.3989   40.8197  -45.4097 H   0  0  0  0  0  0
  122.8625   40.7846  -44.8246 H   0  0  0  0  0  0
  124.5188   42.1132  -46.2040 H   0  0  0  0  0  0
  123.7273   43.4873  -48.1811 H   0  0  0  0  0  0
  116.3119   47.3947  -48.7539 H   0  0  0  0  0  0
  115.2336   48.7657  -47.1321 H   0  0  0  0  0  0
  114.5155   46.9215  -43.1749 H   0  0  0  0  0  0
  115.9940   44.9438  -43.8365 H   0  0  0  0  0  0
  117.0859   44.8782  -46.1241 H   0  0  0  0  0  0
  1 19  1  0  0  0
  2  3  1  0  0  0
  2 15  2  0  0  0
  3  4  1  0  0  0
  3  5  2  0  0  0
  4 23  1  0  0  0
  4 24  1  0  0  0
  5  6  1  0  0  0
  5 14  1  0  0  0
  6  7  1  0  0  0
  6 13  2  0  0  0
  7  8  2  0  0  0
  7 12  1  0  0  0
  8  9  1  0  0  0
  8 25  1  0  0  0
  9 10  2  0  0  0
  9 26  1  0  0  0
 10 11  1  0  0  0
 10 27  1  0  0  0
 11 12  2  0  0  0
 11 28  1  0  0  0
 12 29  1  0  0  0
 14 15  1  0  0  0
 15 16  1  0  0  0
 16 17  1  0  0  0
 16 30  1  0  0  0
 17 18  2  0  0  0
 17 22  1  0  0  0
 18 19  1  0  0  0
 18 31  1  0  0  0
 19 20  2  0  0  0
 20 21  1  0  0  0
 20 32  1  0  0  0
 21 22  2  0  0  0
 21 33  1  0  0  0
 22 34  1  0  0  0
M  END
> <s_m_source_file>
../3rjc_ligand.sdf

> <i_m_source_file_index>
1

> <s_epik_input>
W2NIXTFbY0hdW2NIXWMoRilbY0hdYzFbTkhdYyhuYzJbTkgyXSlzYzJDKD1PKWMzW2NIXVtjSF1bY0hdW2NIXVtjSF0z

> <s_epik_cmdline>
J2VwaWtfYXBwJywgJy1pbWFlJywgJ2xpZ2FuZF9wcm8ubWFlJywgJy1vbWFlJywgJ2xpZ2FuZF9wcmVwLm1hZScsICctbXMnLCAnMScsICctcGgnLCAnNycsICctcGh0JywgJzAuNScsICctbnQn

> <r_lp_tautomer_probability>
1

> <r_epik_Ionization_Penalty>
  0.0002

> <r_epik_Ionization_Penalty_Charging>
  0.0000

> <r_epik_Ionization_Penalty_Neutral>
  0.0002

> <r_epik_State_Penalty>
 -0.0000

> <r_epik_Charging_Adjusted_Penalty>
0

> <i_epik_Tot_Q>
0

> <i_epik_Tot_abs_Q>
0

$$$$
