3rjm_ligand
                    3D
 Schrodinger Suite 2020-3.
 87 87  0  0  1  0            999 V2000
   -3.2040  -19.1050   31.5750 C   0  0  0  0  0  0
   -4.2420  -19.5790   32.0350 O   0  0  0  0  0  0
   -2.5280  -19.7670   30.4130 C   0  0  0  0  0  0
   -2.8100  -17.8550   31.8310 N   0  0  0  0  0  0
   -3.3330  -17.0660   32.9570 C   0  0  2  0  0  0
   -3.8520  -15.6840   32.4880 C   0  0  0  0  0  0
   -3.4610  -15.1860   31.4180 O   0  0  0  0  0  0
   -2.2800  -16.9080   34.1060 C   0  0  0  0  0  0
   -1.5630  -18.2150   34.3410 C   0  0  0  0  0  0
   -1.2830  -15.7980   33.8100 C   0  0  0  0  0  0
   -4.7380  -15.0790   33.2830 N   0  0  0  0  0  0
   -5.3970  -13.8470   32.8850 C   0  0  2  0  0  0
   -4.7120  -12.6480   33.5680 C   0  0  0  0  0  0
   -4.4510  -12.6600   34.7750 O   0  0  0  0  0  0
   -6.9020  -13.9310   33.1710 C   0  0  0  0  0  0
   -7.6300  -14.9260   32.2390 C   0  0  0  0  0  0
   -7.3610  -14.9060   31.0240 O   0  0  0  0  0  0
   -8.4870  -15.7200   32.6980 O   0  5  0  0  0  0
   -4.3910  -11.6310   32.7670 N   0  0  0  0  0  0
   -3.6930  -10.4420   33.2410 C   0  0  2  0  0  0
   -4.4550   -9.1870   32.7740 C   0  0  0  0  0  0
   -5.1810   -9.2260   31.7720 O   0  0  0  0  0  0
   -2.1920  -10.3960   32.7510 C   0  0  0  0  0  0
   -1.3460  -11.5110   33.3970 C   0  0  0  0  0  0
   -2.0910  -10.4670   31.2320 C   0  0  0  0  0  0
   -4.4430   -6.0960   31.9890 C   0  0  0  0  0  0
   -4.3140   -8.0740   33.5160 N   0  0  0  0  0  0
   -3.2380   -6.0910   31.7290 O   0  0  0  0  0  0
   -4.9500   -6.7830   33.2250 C   0  0  1  0  0  0
   -4.6760   -5.8970   34.4360 C   0  0  2  0  0  0
   -3.6590   -7.9770   34.8430 C   0  0  0  0  0  0
   -3.4650   -6.4970   35.1070 C   0  0  0  0  0  0
   -5.8150   -5.9880   35.2870 O   0  0  0  0  0  0
   -5.7850   -5.1390   36.4430 C   0  0  0  0  0  0
   -5.6900   -3.6660   36.0390 C   0  0  0  0  0  0
   -7.0240   -5.4150   37.2950 C   0  0  0  0  0  0
   -5.1440   -3.1540   30.3510 C   0  0  0  0  0  0
   -5.3650   -5.4820   31.2450 N   0  0  0  0  0  0
   -4.3610   -2.3700   29.8430 O   0  0  0  0  0  0
   -5.0450   -4.6510   30.0690 C   0  0  1  0  0  0
   -5.9940   -4.9910   28.9040 C   0  0  0  0  0  0
   -5.2550   -5.3580   27.6290 C   0  0  0  0  0  0
   -4.0250   -5.5540   27.6850 O   0  0  0  0  0  0
   -5.9060   -5.4610   26.5670 O   0  5  0  0  0  0
   -2.9236  -20.7861   30.2906 H   0  0  0  0  0  0
   -1.4446  -19.8139   30.5972 H   0  0  0  0  0  0
   -2.7196  -19.1869   29.4982 H   0  0  0  0  0  0
   -2.0600  -17.4185   31.1550 H   0  0  0  0  0  0
   -4.1809  -17.6685   33.3148 H   0  0  0  0  0  0
   -2.7907  -16.6337   35.0409 H   0  0  0  0  0  0
   -2.2994  -19.0042   34.5531 H   0  0  0  0  0  0
   -0.8809  -18.1101   35.1976 H   0  0  0  0  0  0
   -0.9862  -18.4833   33.4436 H   0  0  0  0  0  0
   -1.8236  -14.8549   33.6418 H   0  0  0  0  0  0
   -0.7049  -16.0548   32.9101 H   0  0  0  0  0  0
   -0.5996  -15.6817   34.6641 H   0  0  0  0  0  0
   -4.9651  -15.5339   34.2584 H   0  0  0  0  0  0
   -5.2688  -13.7538   31.7965 H   0  0  0  0  0  0
   -7.0602  -14.2623   34.2079 H   0  0  0  0  0  0
   -7.3581  -12.9401   33.0290 H   0  0  0  0  0  0
   -4.6755  -11.7161   31.7079 H   0  0  0  0  0  0
   -3.7244  -10.5278   34.3372 H   0  0  0  0  0  0
   -1.7580   -9.4308   33.0511 H   0  0  0  0  0  0
   -1.4291  -11.4466   34.4920 H   0  0  0  0  0  0
   -0.2933  -11.3904   33.1014 H   0  0  0  0  0  0
   -1.7119  -12.4916   33.0586 H   0  0  0  0  0  0
   -2.6992   -9.6661   30.7863 H   0  0  0  0  0  0
   -2.4597  -11.4436   30.8853 H   0  0  0  0  0  0
   -1.0412  -10.3425   30.9281 H   0  0  0  0  0  0
   -6.0110   -6.9942   33.0258 H   0  0  0  0  0  0
   -4.5388   -4.8262   34.2248 H   0  0  0  0  0  0
   -4.3061   -8.4349   35.6056 H   0  0  0  0  0  0
   -2.6945   -8.5052   34.8153 H   0  0  0  0  0  0
   -2.5521   -6.0929   34.6452 H   0  0  0  0  0  0
   -3.4766   -6.2451   36.1777 H   0  0  0  0  0  0
   -4.8720   -5.4096   36.9936 H   0  0  0  0  0  0
   -4.7878   -3.5105   35.4292 H   0  0  0  0  0  0
   -5.6342   -3.0409   36.9424 H   0  0  0  0  0  0
   -6.5797   -3.3879   35.4550 H   0  0  0  0  0  0
   -7.0545   -6.4814   37.5631 H   0  0  0  0  0  0
   -7.9272   -5.1546   36.7237 H   0  0  0  0  0  0
   -6.9817   -4.8076   38.2111 H   0  0  0  0  0  0
   -5.9341   -2.7854   31.0218 H   0  0  0  0  0  0
   -6.4123   -5.6224   31.5507 H   0  0  0  0  0  0
   -3.9975   -4.9006   29.8446 H   0  0  0  0  0  0
   -6.6259   -5.8469   29.1836 H   0  0  0  0  0  0
   -6.6309   -4.1215   28.6841 H   0  0  0  0  0  0
  1  2  2  0  0  0
  1  3  1  0  0  0
  1  4  1  0  0  0
  3 45  1  0  0  0
  3 46  1  0  0  0
  3 47  1  0  0  0
  4  5  1  0  0  0
  4 48  1  0  0  0
  5  6  1  0  0  0
  5  8  1  0  0  0
  5 49  1  0  0  0
  6  7  2  0  0  0
  6 11  1  0  0  0
  8  9  1  0  0  0
  8 10  1  0  0  0
  8 50  1  0  0  0
  9 51  1  0  0  0
  9 52  1  0  0  0
  9 53  1  0  0  0
 10 54  1  0  0  0
 10 55  1  0  0  0
 10 56  1  0  0  0
 11 12  1  0  0  0
 11 57  1  0  0  0
 12 13  1  0  0  0
 12 15  1  0  0  0
 12 58  1  0  0  0
 13 14  2  0  0  0
 13 19  1  0  0  0
 15 16  1  0  0  0
 15 59  1  0  0  0
 15 60  1  0  0  0
 16 17  2  0  0  0
 16 18  1  0  0  0
 19 20  1  0  0  0
 19 61  1  0  0  0
 20 21  1  0  0  0
 20 23  1  0  0  0
 20 62  1  0  0  0
 21 22  2  0  0  0
 21 27  1  0  0  0
 23 24  1  0  0  0
 23 25  1  0  0  0
 23 63  1  0  0  0
 24 64  1  0  0  0
 24 65  1  0  0  0
 24 66  1  0  0  0
 25 67  1  0  0  0
 25 68  1  0  0  0
 25 69  1  0  0  0
 26 28  2  0  0  0
 26 29  1  0  0  0
 26 38  1  0  0  0
 27 29  1  0  0  0
 27 31  1  0  0  0
 29 30  1  0  0  0
 29 70  1  0  0  0
 30 32  1  0  0  0
 30 33  1  0  0  0
 30 71  1  0  0  0
 31 32  1  0  0  0
 31 72  1  0  0  0
 31 73  1  0  0  0
 32 74  1  0  0  0
 32 75  1  0  0  0
 33 34  1  0  0  0
 34 35  1  0  0  0
 34 36  1  0  0  0
 34 76  1  0  0  0
 35 77  1  0  0  0
 35 78  1  0  0  0
 35 79  1  0  0  0
 36 80  1  0  0  0
 36 81  1  0  0  0
 36 82  1  0  0  0
 37 39  2  0  0  0
 37 40  1  0  0  0
 37 83  1  0  0  0
 38 40  1  0  0  0
 38 84  1  0  0  0
 40 41  1  0  0  0
 40 85  1  0  0  0
 41 42  1  0  0  0
 41 86  1  0  0  0
 41 87  1  0  0  0
 42 43  2  0  0  0
 42 44  1  0  0  0
M  CHG  2  18  -1  44  -1
M  END
> <s_m_source_file>
../3rjm_ligand.sdf

> <i_m_source_file_index>
1

> <s_epik_input>
Tz1DKFtDSDNdKVtOSF1bQ0BASF0oW0NIXShbQ0gzXSlbQ0gzXSlDKD1PKVtOSF1bQ0BASF0oW0NIMl1DKD1PKVtPSF0pQyg9TylbTkhdW0NAQEhdKFtDSF0oW0NIM10pW0NIM10pQyg9TylOMVtDQEBIXShbQ0BIXShbQ0gyXVtDSDJdMSlPW0NIXShbQ0gzXSlbQ0gzXSlDKD1PKVtOSF1bQ0BIXShbQ0hdPU8pW0NIMl1DKD1PKVtPSF0=

> <s_epik_cmdline>
J2VwaWtfYXBwJywgJy1pbWFlJywgJ2xpZ2FuZF9wcm8ubWFlJywgJy1vbWFlJywgJ2xpZ2FuZF9wcmVwLm1hZScsICctbXMnLCAnMScsICctcGgnLCAnNycsICctcGh0JywgJzAuNScsICctbnQn

> <r_lp_tautomer_probability>
1

> <r_epik_Ionization_Penalty>
  0.0021

> <r_epik_Ionization_Penalty_Charging>
  0.0020

> <r_epik_Ionization_Penalty_Neutral>
  0.0002

> <r_epik_State_Penalty>
 -0.0000

> <r_epik_Charging_Adjusted_Penalty>
0.00195140458155682

> <i_epik_Tot_Q>
-2

> <i_epik_Tot_abs_Q>
2

$$$$
