3rjw_ligand
                    3D
 Schrodinger Suite 2020-3.
 86 90  0  0  1  0            999 V2000
   -9.7090   15.4170   47.5030 N   0  0  0  0  0  0
   -8.4600   14.9700   47.2950 C   0  0  0  0  0  0
   -8.1360   13.6970   47.5800 N   0  0  0  0  0  0
   -9.0600   12.8350   48.0260 C   0  0  0  0  0  0
  -10.3770   13.2660   48.2040 C   0  0  0  0  0  0
  -10.6850   14.6020   47.9280 C   0  0  0  0  0  0
  -12.6130   10.6830   50.5550 C   0  0  0  0  0  0
  -15.8300   19.9260   46.1800 C   0  0  0  0  0  0
  -16.1500   18.2390   44.3470 C   0  0  0  0  0  0
   -8.7070   11.5150   48.2940 C   0  0  0  0  0  0
  -11.3350   12.3630   48.6600 C   0  0  0  0  0  0
   -6.5690   18.7770   46.9680 C   0  0  0  0  0  0
   -5.7290   17.6660   47.6020 C   0  0  0  0  0  0
   -7.2180   18.2700   45.6800 C   0  0  0  0  0  0
   -9.8000    4.9920   46.9750 C   0  0  0  0  0  0
   -8.3490    5.0610   46.4840 C   0  0  0  0  0  0
   -7.3120    8.0630   49.6990 C   0  0  0  0  0  0
   -8.1800    9.3060   49.9060 C   0  0  0  0  0  0
   -6.6070   16.4690   47.9720 C   0  0  0  0  0  0
   -8.0990   17.0450   45.9470 C   0  0  0  0  0  0
  -13.2130   15.7250   46.0890 C   0  0  0  0  0  0
  -13.0540   17.2900   48.0540 C   0  0  0  0  0  0
   -9.8230    5.7560   48.3090 C   0  0  0  0  0  0
   -7.5950    5.7090   47.6420 C   0  0  0  0  0  0
   -8.1680    6.7990   49.6750 C   0  0  0  0  0  0
  -13.8280   16.8720   45.2860 C   0  0  0  0  0  0
  -13.6170   18.3900   47.1460 C   0  0  0  0  0  0
  -11.9130   15.1010   48.0680 N   0  0  0  0  0  0
  -11.9340   10.1690   49.4040 O   0  0  0  0  0  0
   -9.3170    9.3260   49.0210 O   0  0  0  0  0  0
  -10.9830   11.0430   48.9640 C   0  0  0  0  0  0
   -9.6650   10.6180   48.7770 C   0  0  0  0  0  0
  -15.1510   18.8550   45.3260 C   0  0  0  0  0  0
  -12.3230   16.2330   47.2220 C   0  0  1  0  0  0
   -7.3970   15.9350   46.7690 C   0  0  0  0  0  0
   -8.5970    6.5630   48.2940 N   0  3  0  0  0  0
  -14.5580   17.8010   46.1700 N   0  3  1  0  0  0
  -13.3719    9.9591   50.8867 H   0  0  0  0  0  0
  -13.1015   11.6345   50.2980 H   0  0  0  0  0  0
  -11.8873   10.8503   51.3645 H   0  0  0  0  0  0
  -16.2623   20.6972   45.5255 H   0  0  0  0  0  0
  -15.0880   20.3865   46.8488 H   0  0  0  0  0  0
  -16.6283   19.4648   46.7801 H   0  0  0  0  0  0
  -16.5871   19.0316   43.7219 H   0  0  0  0  0  0
  -16.9488   17.7324   44.9085 H   0  0  0  0  0  0
  -15.6331   17.5097   43.7060 H   0  0  0  0  0  0
   -7.6831   11.1806   48.1272 H   0  0  0  0  0  0
  -12.3684   12.6877   48.7811 H   0  0  0  0  0  0
   -7.3551   19.0890   47.6713 H   0  0  0  0  0  0
   -5.9237   19.6367   46.7345 H   0  0  0  0  0  0
   -4.9596   17.3357   46.8887 H   0  0  0  0  0  0
   -5.2448   18.0470   48.5132 H   0  0  0  0  0  0
   -7.8441   19.0644   45.2476 H   0  0  0  0  0  0
   -6.4347   17.9883   44.9610 H   0  0  0  0  0  0
  -10.4611    5.4627   46.2325 H   0  0  0  0  0  0
  -10.0915    3.9401   47.1109 H   0  0  0  0  0  0
   -7.9854    4.0450   46.2707 H   0  0  0  0  0  0
   -8.3004    5.6677   45.5677 H   0  0  0  0  0  0
   -6.7759    8.1454   48.7420 H   0  0  0  0  0  0
   -6.5851    7.9824   50.5207 H   0  0  0  0  0  0
   -8.5511    9.3258   50.9413 H   0  0  0  0  0  0
   -7.5804   10.2080   49.7141 H   0  0  0  0  0  0
   -5.9742   15.6543   48.3539 H   0  0  0  0  0  0
   -7.3271   16.7683   48.7478 H   0  0  0  0  0  0
   -8.9926   17.3518   46.5103 H   0  0  0  0  0  0
   -8.4047   16.5976   44.9898 H   0  0  0  0  0  0
  -14.0150   15.1145   46.5294 H   0  0  0  0  0  0
  -12.5993   15.0996   45.4240 H   0  0  0  0  0  0
  -12.3473   17.7327   48.7714 H   0  0  0  0  0  0
  -13.8781   16.8084   48.6008 H   0  0  0  0  0  0
  -10.7255    6.3831   48.3569 H   0  0  0  0  0  0
   -9.8306    5.0383   49.1425 H   0  0  0  0  0  0
   -7.2179    4.9269   48.3173 H   0  0  0  0  0  0
   -6.7496    6.2924   47.2484 H   0  0  0  0  0  0
   -7.5740    5.9470   50.0372 H   0  0  0  0  0  0
   -9.0447    6.9374   50.3248 H   0  0  0  0  0  0
  -13.0307   17.4273   44.7704 H   0  0  0  0  0  0
  -14.5302   16.4647   44.5437 H   0  0  0  0  0  0
  -14.1467   19.1350   47.7578 H   0  0  0  0  0  0
  -12.7919   18.8782   46.6066 H   0  0  0  0  0  0
  -12.6160   14.6798   48.8018 H   0  0  0  0  0  0
  -14.3180   19.3149   44.7740 H   0  0  0  0  0  0
  -11.4045   16.6752   46.8086 H   0  0  0  0  0  0
   -6.6795   15.4353   46.1015 H   0  0  0  0  0  0
   -8.7362    7.5303   47.7890 H   0  0  0  0  0  0
  -15.3508   17.2759   46.7230 H   0  0  0  0  0  0
  1  2  2  0  0  0
  1  6  1  0  0  0
  2  3  1  0  0  0
  2 35  1  0  0  0
  3  4  2  0  0  0
  4  5  1  0  0  0
  4 10  1  0  0  0
  5  6  2  0  0  0
  5 11  1  0  0  0
  6 28  1  0  0  0
  7 29  1  0  0  0
  7 38  1  0  0  0
  7 39  1  0  0  0
  7 40  1  0  0  0
  8 33  1  0  0  0
  8 41  1  0  0  0
  8 42  1  0  0  0
  8 43  1  0  0  0
  9 33  1  0  0  0
  9 44  1  0  0  0
  9 45  1  0  0  0
  9 46  1  0  0  0
 10 32  2  0  0  0
 10 47  1  0  0  0
 11 31  2  0  0  0
 11 48  1  0  0  0
 12 13  1  0  0  0
 12 14  1  0  0  0
 12 49  1  0  0  0
 12 50  1  0  0  0
 13 19  1  0  0  0
 13 51  1  0  0  0
 13 52  1  0  0  0
 14 20  1  0  0  0
 14 53  1  0  0  0
 14 54  1  0  0  0
 15 16  1  0  0  0
 15 23  1  0  0  0
 15 55  1  0  0  0
 15 56  1  0  0  0
 16 24  1  0  0  0
 16 57  1  0  0  0
 16 58  1  0  0  0
 17 18  1  0  0  0
 17 25  1  0  0  0
 17 59  1  0  0  0
 17 60  1  0  0  0
 18 30  1  0  0  0
 18 61  1  0  0  0
 18 62  1  0  0  0
 19 35  1  0  0  0
 19 63  1  0  0  0
 19 64  1  0  0  0
 20 35  1  0  0  0
 20 65  1  0  0  0
 20 66  1  0  0  0
 21 26  1  0  0  0
 21 34  1  0  0  0
 21 67  1  0  0  0
 21 68  1  0  0  0
 22 27  1  0  0  0
 22 34  1  0  0  0
 22 69  1  0  0  0
 22 70  1  0  0  0
 23 36  1  0  0  0
 23 71  1  0  0  0
 23 72  1  0  0  0
 24 36  1  0  0  0
 24 73  1  0  0  0
 24 74  1  0  0  0
 25 36  1  0  0  0
 25 75  1  0  0  0
 25 76  1  0  0  0
 26 37  1  0  0  0
 26 77  1  0  0  0
 26 78  1  0  0  0
 27 37  1  0  0  0
 27 79  1  0  0  0
 27 80  1  0  0  0
 28 34  1  0  0  0
 28 81  1  0  0  0
 29 31  1  0  0  0
 30 32  1  0  0  0
 31 32  1  0  0  0
 33 37  1  0  0  0
 33 82  1  0  0  0
 34 83  1  0  0  0
 35 84  1  0  0  0
 36 85  1  0  0  0
 37 86  1  0  0  0
M  CHG  2  36   1  37   1
M  END
> <s_m_source_file>
../3rjw_ligand.sdf

> <i_m_source_file_index>
1

> <s_epik_input>
W0NIMl0xW0NIMl1bQ0gyXVtDSDJdW0NIMl1bQ0hdMWMobjIpbmMoW05IXVtDQEhdM1tDSDJdW0NIMl1bTkBASCtdKFtDSDJdW0NIMl0zKVtDSF0oW0NIM10pW0NIM10pYyhjMjQpW2NIXWMoT1tDSDNdKWMoW2NIXTQpT1tDSDJdW0NIMl1bQ0gyXVtOSCtdNVtDSDJdW0NIMl1bQ0gyXVtDSDJdNQ==

> <s_epik_cmdline>
J2VwaWtfYXBwJywgJy1pbWFlJywgJ2xpZ2FuZF9wcm8ubWFlJywgJy1vbWFlJywgJ2xpZ2FuZF9wcmVwLm1hZScsICctbXMnLCAnMScsICctcGgnLCAnNycsICctcGh0JywgJzAuNScsICctbnQn

> <r_lp_tautomer_probability>
0.999978000241998

> <r_epik_Ionization_Penalty>
  0.2082

> <r_epik_Ionization_Penalty_Charging>
  0.0016

> <r_epik_Ionization_Penalty_Neutral>
  0.2065

> <r_epik_State_Penalty>
  0.1958

> <r_epik_Charging_Adjusted_Penalty>
0.197405408028502

> <i_epik_Tot_Q>
2

> <i_epik_Tot_abs_Q>
2

$$$$
