3rk7_ligand
                    3D
 Schrodinger Suite 2020-3.
 39 41  0  0  1  0            999 V2000
   90.2690  118.4390  -47.6000 C   0  0  0  0  0  0
   90.8270  118.5070  -48.8550 N   0  0  0  0  0  0
   91.9270  117.8440  -49.3480 C   0  0  0  0  0  0
   92.2760  118.0470  -50.6280 N   0  0  0  0  0  0
   93.3480  117.3120  -50.9620 C   0  0  0  0  0  0
   93.8360  116.5240  -49.9360 C   0  0  0  0  0  0
   92.9550  116.7230  -48.4980 S   0  0  0  0  0  0
   93.8390  117.3380  -52.1350 N   0  0  0  0  0  0
   94.9960  115.5970  -50.0580 C   0  0  1  0  0  0
   95.4480  114.7020  -48.9530 C   0  0  0  0  0  0
   94.4710  113.9440  -48.1900 C   0  0  0  0  0  0
   94.8730  113.0720  -47.1520 C   0  0  0  0  0  0
   96.2550  112.9450  -46.8720 C   0  0  0  0  0  0
   97.1790  113.6680  -47.6110 N   0  0  0  0  0  0
   96.8220  114.5360  -48.6390 C   0  0  0  0  0  0
   95.6430  115.5510  -51.2240 O   0  0  0  0  0  0
   89.5510  119.5920  -47.1060 C   0  0  0  0  0  0
   88.9390  119.5700  -45.8230 C   0  0  0  0  0  0
   89.0190  118.3950  -44.9930 C   0  0  0  0  0  0
   89.7270  117.2500  -45.4780 C   0  0  0  0  0  0
   90.3410  117.2690  -46.7580 C   0  0  0  0  0  0
   88.3620  118.3870  -43.6490 C   0  0  0  0  0  0
   87.7050  119.4950  -43.2390 O   0  0  0  0  0  0
   88.4010  117.3480  -42.8650 N   0  0  0  0  0  0
   90.3834  119.1619  -49.6194 H   0  0  0  0  0  0
   93.3972  117.9913  -52.9018 H   0  0  0  0  0  0
   94.7055  116.7072  -52.3826 H   0  0  0  0  0  0
   95.6667  116.3881  -49.6916 H   0  0  0  0  0  0
   93.4111  114.0493  -48.4215 H   0  0  0  0  0  0
   94.1350  112.5098  -46.5799 H   0  0  0  0  0  0
   96.5921  112.2800  -46.0768 H   0  0  0  0  0  0
   97.5861  115.0799  -49.1943 H   0  0  0  0  0  0
   95.3284  116.2012  -52.0536 H   0  0  0  0  0  0
   89.4780  120.4874  -47.7233 H   0  0  0  0  0  0
   88.4046  120.4496  -45.4641 H   0  0  0  0  0  0
   89.7955  116.3553  -44.8593 H   0  0  0  0  0  0
   90.8750  116.3864  -47.1102 H   0  0  0  0  0  0
   88.9313  116.4384  -43.1833 H   0  0  0  0  0  0
   87.9036  117.3799  -41.8844 H   0  0  0  0  0  0
  1  2  1  0  0  0
  1 17  2  0  0  0
  1 21  1  0  0  0
  2  3  1  0  0  0
  2 25  1  0  0  0
  3  4  2  0  0  0
  3  7  1  0  0  0
  4  5  1  0  0  0
  5  6  2  0  0  0
  5  8  1  0  0  0
  6  7  1  0  0  0
  6  9  1  0  0  0
  8 26  1  0  0  0
  8 27  1  0  0  0
  9 10  1  0  0  0
  9 16  1  0  0  0
  9 28  1  0  0  0
 10 11  2  0  0  0
 10 15  1  0  0  0
 11 12  1  0  0  0
 11 29  1  0  0  0
 12 13  2  0  0  0
 12 30  1  0  0  0
 13 14  1  0  0  0
 13 31  1  0  0  0
 14 15  2  0  0  0
 15 32  1  0  0  0
 16 33  1  0  0  0
 17 18  1  0  0  0
 17 34  1  0  0  0
 18 19  2  0  0  0
 18 35  1  0  0  0
 19 20  1  0  0  0
 19 22  1  0  0  0
 20 21  2  0  0  0
 20 36  1  0  0  0
 21 37  1  0  0  0
 22 23  2  0  0  0
 22 24  1  0  0  0
 24 38  1  0  0  0
 24 39  1  0  0  0
M  END
> <s_m_source_file>
../3rk7_ligand.sdf

> <i_m_source_file_index>
1

> <s_epik_input>
W2NIXTFbY0hdYyhDKD1PKVtOSDJdKVtjSF1bY0hdYzFbTkhdYzJuYyhbTkgyXSljKHMyKVtDQEhdKFtPSF0pYzNbY0hdW2NIXVtjSF1uW2NIXTM=

> <s_epik_cmdline>
J2VwaWtfYXBwJywgJy1pbWFlJywgJ2xpZ2FuZF9wcm8ubWFlJywgJy1vbWFlJywgJ2xpZ2FuZF9wcmVwLm1hZScsICctbXMnLCAnMScsICctcGgnLCAnNycsICctcGh0JywgJzAuNScsICctbnQn

> <r_lp_tautomer_probability>
1

> <r_epik_Ionization_Penalty>
  0.0102

> <r_epik_Ionization_Penalty_Charging>
  0.0000

> <r_epik_Ionization_Penalty_Neutral>
  0.0102

> <r_epik_State_Penalty>
 -0.0000

> <r_epik_Charging_Adjusted_Penalty>
0

> <i_epik_Tot_Q>
0

> <i_epik_Tot_abs_Q>
0

$$$$
