3rk9_ligand
                    3D
 Schrodinger Suite 2020-3.
 34 35  0  0  1  0            999 V2000
  -35.8730  -83.6810  -83.0850 C   0  0  0  0  0  0
  -36.7130  -82.4730  -83.5880 C   0  0  0  0  0  0
  -35.8030  -81.2220  -83.6980 C   0  0  0  0  0  0
  -37.2740  -82.8280  -84.9060 N   0  0  0  0  0  0
  -38.3130  -82.1010  -85.4720 C   0  0  0  0  0  0
  -38.6380  -82.2620  -86.7830 N   0  0  0  0  0  0
  -39.6590  -81.4630  -87.1120 C   0  0  0  0  0  0
  -40.1190  -80.6870  -86.0820 C   0  0  0  0  0  0
  -39.2630  -80.9690  -84.6400 S   0  0  0  0  0  0
  -40.1420  -81.4320  -88.3100 N   0  0  0  0  0  0
  -41.2510  -79.6910  -86.2060 C   0  0  1  0  0  0
  -41.7070  -78.8200  -85.0940 C   0  0  0  0  0  0
  -40.7260  -78.1020  -84.2910 C   0  0  0  0  0  0
  -41.1310  -77.2390  -83.2080 C   0  0  0  0  0  0
  -42.5200  -77.0910  -82.9320 C   0  0  0  0  0  0
  -43.4650  -77.7760  -83.7100 N   0  0  0  0  0  0
  -43.1120  -78.6400  -84.7900 C   0  0  0  0  0  0
  -41.8640  -79.5700  -87.4050 O   0  0  0  0  0  0
  -35.4416  -83.4434  -82.1014 H   0  0  0  0  0  0
  -35.0633  -83.8877  -83.8003 H   0  0  0  0  0  0
  -36.5199  -84.5664  -82.9975 H   0  0  0  0  0  0
  -37.5632  -82.2499  -82.9266 H   0  0  0  0  0  0
  -35.3965  -80.9759  -82.7059 H   0  0  0  0  0  0
  -36.3917  -80.3723  -84.0741 H   0  0  0  0  0  0
  -34.9754  -81.4305  -84.3920 H   0  0  0  0  0  0
  -36.8691  -83.6856  -85.4632 H   0  0  0  0  0  0
  -39.7222  -82.0850  -89.0893 H   0  0  0  0  0  0
  -40.9730  -80.7526  -88.5506 H   0  0  0  0  0  0
  -41.9667  -80.4654  -85.8929 H   0  0  0  0  0  0
  -39.6652  -78.2191  -84.5128 H   0  0  0  0  0  0
  -40.3873  -76.7100  -82.6120 H   0  0  0  0  0  0
  -42.8486  -76.4461  -82.1170 H   0  0  0  0  0  0
  -43.8797  -79.1511  -85.3710 H   0  0  0  0  0  0
  -41.5497  -80.2008  -88.2496 H   0  0  0  0  0  0
  1  2  1  0  0  0
  1 19  1  0  0  0
  1 20  1  0  0  0
  1 21  1  0  0  0
  2  3  1  0  0  0
  2  4  1  0  0  0
  2 22  1  0  0  0
  3 23  1  0  0  0
  3 24  1  0  0  0
  3 25  1  0  0  0
  4  5  1  0  0  0
  4 26  1  0  0  0
  5  6  2  0  0  0
  5  9  1  0  0  0
  6  7  1  0  0  0
  7  8  2  0  0  0
  7 10  1  0  0  0
  8  9  1  0  0  0
  8 11  1  0  0  0
 10 27  1  0  0  0
 10 28  1  0  0  0
 11 12  1  0  0  0
 11 18  1  0  0  0
 11 29  1  0  0  0
 12 13  2  0  0  0
 12 17  1  0  0  0
 13 14  1  0  0  0
 13 30  1  0  0  0
 14 15  2  0  0  0
 14 31  1  0  0  0
 15 16  1  0  0  0
 15 32  1  0  0  0
 16 17  2  0  0  0
 17 33  1  0  0  0
 18 34  1  0  0  0
M  END
> <s_m_source_file>
../3rk9_ligand.sdf

> <i_m_source_file_index>
1

> <s_epik_input>
W0NIM11bQ0hdKFtDSDNdKVtOSF1jMW5jKFtOSDJdKWMoczEpW0NASF0oW09IXSljMltjSF1bY0hdW2NIXW5bY0hdMg==

> <s_epik_cmdline>
J2VwaWtfYXBwJywgJy1pbWFlJywgJ2xpZ2FuZF9wcm8ubWFlJywgJy1vbWFlJywgJ2xpZ2FuZF9wcmVwLm1hZScsICctbXMnLCAnMScsICctcGgnLCAnNycsICctcGh0JywgJzAuNScsICctbnQn

> <r_epik_Ionization_Penalty>
  0.2232

> <r_epik_Ionization_Penalty_Charging>
  0.0000

> <r_epik_Ionization_Penalty_Neutral>
  0.2232

> <r_epik_State_Penalty>
  0.2084

> <r_epik_Charging_Adjusted_Penalty>
0.208373595626595

> <i_epik_Tot_Q>
0

> <i_epik_Tot_abs_Q>
0

$$$$
