3rkb_ligand
                    3D
 Schrodinger Suite 2020-3.
 39 41  0  0  1  0            999 V2000
  -93.8840  -44.8330  -49.7350 C   0  0  0  0  0  0
  -93.3740  -45.5890  -50.7440 C   0  0  0  0  0  0
  -92.3210  -46.4070  -50.3590 N   0  0  0  0  0  0
  -92.0240  -46.2780  -49.0780 C   0  0  0  0  0  0
  -93.0280  -45.1410  -48.2220 S   0  0  0  0  0  0
  -95.0020  -43.8540  -49.8160 C   0  0  0  0  0  0
  -93.8170  -45.5820  -52.0490 N   0  0  0  0  0  0
  -91.0150  -46.9460  -48.4550 N   0  0  0  0  0  0
  -95.6690  -43.7890  -50.8710 O   0  0  0  0  0  0
  -96.0460  -41.2670  -46.5090 C   0  0  0  0  0  0
  -97.0290  -41.9190  -47.2130 N   0  0  0  0  0  0
  -96.6730  -42.7390  -48.2620 C   0  0  0  0  0  0
  -95.3090  -42.9460  -48.6590 C   0  0  0  0  0  0
  -94.2910  -42.2460  -47.9100 C   0  0  0  0  0  0
  -94.6550  -41.3980  -46.8200 C   0  0  0  0  0  0
  -89.0640  -45.4970  -45.5100 C   0  0  0  0  0  0
  -89.6220  -45.6220  -46.9480 C   0  0  0  0  0  0
  -90.5440  -46.8860  -47.0970 C   0  0  0  0  0  0
  -89.7510  -48.1660  -46.7100 C   0  0  0  0  0  0
  -89.2370  -48.0590  -45.2460 C   0  0  0  0  0  0
  -88.3360  -46.8030  -45.0650 C   0  0  0  0  0  0
  -94.6525  -44.9295  -52.3427 H   0  0  0  0  0  0
  -93.3351  -46.2289  -52.7969 H   0  0  0  0  0  0
  -90.5310  -47.6216  -49.1757 H   0  0  0  0  0  0
  -96.3374  -40.6232  -45.6791 H   0  0  0  0  0  0
  -97.4606  -43.2522  -48.8137 H   0  0  0  0  0  0
  -93.2412  -42.3655  -48.1778 H   0  0  0  0  0  0
  -93.8975  -40.8673  -46.2432 H   0  0  0  0  0  0
  -88.3454  -44.6653  -45.4666 H   0  0  0  0  0  0
  -89.8912  -45.3037  -44.8112 H   0  0  0  0  0  0
  -90.2142  -44.7273  -47.1906 H   0  0  0  0  0  0
  -88.7873  -45.7129  -47.6586 H   0  0  0  0  0  0
  -91.4606  -46.8300  -46.4914 H   0  0  0  0  0  0
  -90.4074  -49.0444  -46.7973 H   0  0  0  0  0  0
  -88.8907  -48.2826  -47.3855 H   0  0  0  0  0  0
  -90.0943  -47.9812  -44.5612 H   0  0  0  0  0  0
  -88.6493  -48.9549  -44.9973 H   0  0  0  0  0  0
  -87.4274  -46.9405  -45.6696 H   0  0  0  0  0  0
  -88.0613  -46.7259  -44.0026 H   0  0  0  0  0  0
  1  2  2  0  0  0
  1  5  1  0  0  0
  1  6  1  0  0  0
  2  3  1  0  0  0
  2  7  1  0  0  0
  3  4  2  0  0  0
  4  5  1  0  0  0
  4  8  1  0  0  0
  6  9  2  0  0  0
  6 13  1  0  0  0
  7 22  1  0  0  0
  7 23  1  0  0  0
  8 18  1  0  0  0
  8 24  1  0  0  0
 10 11  2  0  0  0
 10 15  1  0  0  0
 10 25  1  0  0  0
 11 12  1  0  0  0
 12 13  2  0  0  0
 12 26  1  0  0  0
 13 14  1  0  0  0
 14 15  2  0  0  0
 14 27  1  0  0  0
 15 28  1  0  0  0
 16 17  1  0  0  0
 16 21  1  0  0  0
 16 29  1  0  0  0
 16 30  1  0  0  0
 17 18  1  0  0  0
 17 31  1  0  0  0
 17 32  1  0  0  0
 18 19  1  0  0  0
 18 33  1  0  0  0
 19 20  1  0  0  0
 19 34  1  0  0  0
 19 35  1  0  0  0
 20 21  1  0  0  0
 20 36  1  0  0  0
 20 37  1  0  0  0
 21 38  1  0  0  0
 21 39  1  0  0  0
M  END
> <s_m_source_file>
../3rkb_ligand.sdf

> <i_m_source_file_index>
1

> <s_epik_input>
W2NIXTFbY0hdW2NIXW5bY0hdYzFDKD1PKWMyYyhbTkgyXSluYyhzMilbTkhdW0NIXTNbQ0gyXVtDSDJdW0NIMl1bQ0gyXVtDSDJdMw==

> <s_epik_cmdline>
J2VwaWtfYXBwJywgJy1pbWFlJywgJ2xpZ2FuZF9wcm8ubWFlJywgJy1vbWFlJywgJ2xpZ2FuZF9wcmVwLm1hZScsICctbXMnLCAnMScsICctcGgnLCAnNycsICctcGh0JywgJzAuNScsICctbnQn

> <r_lp_tautomer_probability>
1

> <r_epik_Ionization_Penalty>
  0.0004

> <r_epik_Ionization_Penalty_Charging>
  0.0000

> <r_epik_Ionization_Penalty_Neutral>
  0.0004

> <r_epik_State_Penalty>
 -0.0000

> <r_epik_Charging_Adjusted_Penalty>
0

> <i_epik_Tot_Q>
0

> <i_epik_Tot_abs_Q>
0

$$$$
