3rkz_ligand
                    3D
 Schrodinger Suite 2020-3.
 76 79  0  0  1  0            999 V2000
    7.1670    9.3410   23.3280 C   0  0  0  0  0  0
    6.0010   10.2120   23.7110 C   0  0  0  0  0  0
    4.6750    9.8430   23.7850 C   0  0  0  0  0  0
    3.9470   10.9650   24.1740 N   0  0  0  0  0  0
    4.8190   12.0230   24.3350 C   0  0  0  0  0  0
    6.0960   11.5740   24.0570 C   0  0  0  0  0  0
    7.2570   12.4600   24.1670 C   0  0  0  0  0  0
    8.4020   12.0160   24.0970 O   0  0  0  0  0  0
    6.9980   13.8760   24.6770 C   0  0  0  0  0  0
    5.6950   14.0270   25.4910 C   0  0  0  0  0  0
    4.4800   13.4220   24.7580 C   0  0  0  0  0  0
    5.8840   13.3240   26.8530 C   0  0  0  0  0  0
    5.4300   15.5100   25.7620 C   0  0  0  0  0  0
    2.5480   11.0730   24.3930 C   0  0  0  0  0  0
    1.7470   11.9880   23.7220 C   0  0  0  0  0  0
    0.3690   11.9840   23.9660 C   0  0  0  0  0  0
   -0.2070   11.0790   24.8800 C   0  0  0  0  0  0
    0.6090   10.1610   25.5490 C   0  0  0  0  0  0
    2.0010   10.1970   25.3140 C   0  0  0  0  0  0
    0.1290    9.2450   26.4590 N   0  0  0  0  0  0
    0.8490    8.0400   26.8200 C   0  0  2  0  0  0
    1.2460    7.2030   25.5710 C   0  0  1  0  0  0
    2.4330    6.2600   25.8630 C   0  0  0  0  0  0
    3.4640    6.3550   24.8100 N   0  0  0  0  0  0
    4.2500    7.6010   24.7530 C   0  0  0  0  0  0
    4.0510    8.4960   23.5220 C   0  0  0  0  0  0
    3.7000    5.3480   23.9200 C   0  0  0  0  0  0
    4.5570    5.4560   23.0320 O   0  0  0  0  0  0
    2.9050    4.0570   23.9900 C   0  0  2  0  0  0
    3.5350    3.1280   25.0090 C   0  0  0  0  0  0
    3.0430    3.4210   22.6370 N   0  3  0  0  0  0
    0.0720    6.4530   24.9470 C   0  0  0  0  0  0
    0.0530    7.3000   27.9020 C   0  0  0  0  0  0
   -1.6860   11.1130   25.1590 C   0  0  0  0  0  0
   -2.1860   10.6570   26.2000 O   0  0  0  0  0  0
   -2.4510   11.7200   24.2350 N   0  0  0  0  0  0
    6.8086    8.3246   23.1077 H   0  0  0  0  0  0
    7.8859    9.3041   24.1598 H   0  0  0  0  0  0
    7.6587    9.7577   22.4366 H   0  0  0  0  0  0
    7.8254   14.1869   25.3318 H   0  0  0  0  0  0
    6.9269   14.5660   23.8233 H   0  0  0  0  0  0
    4.2414   14.0259   23.8701 H   0  0  0  0  0  0
    3.6106   13.4009   25.4315 H   0  0  0  0  0  0
    6.0767   12.2534   26.6894 H   0  0  0  0  0  0
    4.9728   13.4444   27.4573 H   0  0  0  0  0  0
    6.7371   13.7734   27.3823 H   0  0  0  0  0  0
    5.2909   16.0381   24.8071 H   0  0  0  0  0  0
    6.2865   15.9433   26.2993 H   0  0  0  0  0  0
    4.5222   15.6143   26.3743 H   0  0  0  0  0  0
    2.1838   12.6964   23.0181 H   0  0  0  0  0  0
   -0.2700   12.6932   23.4399 H   0  0  0  0  0  0
    2.6555    9.5235   25.8673 H   0  0  0  0  0  0
   -0.8469    9.4610   26.9182 H   0  0  0  0  0  0
    1.8017    8.3567   27.2695 H   0  0  0  0  0  0
    1.5680    7.9207   24.8021 H   0  0  0  0  0  0
    2.8896    6.5326   26.8259 H   0  0  0  0  0  0
    2.0736    5.2214   25.9087 H   0  0  0  0  0  0
    4.0013    8.2313   25.6195 H   0  0  0  0  0  0
    5.3229    7.3589   24.7716 H   0  0  0  0  0  0
    2.9759    8.6219   23.3261 H   0  0  0  0  0  0
    4.5315    8.0338   22.6470 H   0  0  0  0  0  0
    1.8550    4.2411   24.2614 H   0  0  0  0  0  0
    3.4477    3.5708   26.0121 H   0  0  0  0  0  0
    4.5973    2.9814   24.7641 H   0  0  0  0  0  0
    3.0171    2.1577   24.9901 H   0  0  0  0  0  0
    2.5929    4.0759   21.8764 H   0  0  0  0  0  0
    2.5285    2.4487   22.6347 H   0  0  0  0  0  0
    4.1087    3.2724   22.4087 H   0  0  0  0  0  0
   -0.7515    7.1563   24.7542 H   0  0  0  0  0  0
   -0.2702    5.6680   25.6374 H   0  0  0  0  0  0
    0.3918    5.9943   23.9998 H   0  0  0  0  0  0
   -0.1687    7.9894   28.7300 H   0  0  0  0  0  0
    0.6456    6.4532   28.2785 H   0  0  0  0  0  0
   -0.8888    6.9267   27.4735 H   0  0  0  0  0  0
   -1.9932   12.1189   23.3178 H   0  0  0  0  0  0
   -3.5347   11.8178   24.3962 H   0  0  0  0  0  0
  1  2  1  0  0  0
  1 37  1  0  0  0
  1 38  1  0  0  0
  1 39  1  0  0  0
  2  3  2  0  0  0
  2  6  1  0  0  0
  3  4  1  0  0  0
  3 26  1  0  0  0
  4  5  1  0  0  0
  4 14  1  0  0  0
  5  6  2  0  0  0
  5 11  1  0  0  0
  6  7  1  0  0  0
  7  8  2  0  0  0
  7  9  1  0  0  0
  9 10  1  0  0  0
  9 40  1  0  0  0
  9 41  1  0  0  0
 10 11  1  0  0  0
 10 12  1  0  0  0
 10 13  1  0  0  0
 11 42  1  0  0  0
 11 43  1  0  0  0
 12 44  1  0  0  0
 12 45  1  0  0  0
 12 46  1  0  0  0
 13 47  1  0  0  0
 13 48  1  0  0  0
 13 49  1  0  0  0
 14 15  2  0  0  0
 14 19  1  0  0  0
 15 16  1  0  0  0
 15 50  1  0  0  0
 16 17  2  0  0  0
 16 51  1  0  0  0
 17 18  1  0  0  0
 17 34  1  0  0  0
 18 19  2  0  0  0
 18 20  1  0  0  0
 19 52  1  0  0  0
 20 21  1  0  0  0
 20 53  1  0  0  0
 21 22  1  0  0  0
 21 33  1  0  0  0
 21 54  1  0  0  0
 22 23  1  0  0  0
 22 32  1  0  0  0
 22 55  1  0  0  0
 23 24  1  0  0  0
 23 56  1  0  0  0
 23 57  1  0  0  0
 24 25  1  0  0  0
 24 27  1  0  0  0
 25 26  1  0  0  0
 25 58  1  0  0  0
 25 59  1  0  0  0
 26 60  1  0  0  0
 26 61  1  0  0  0
 27 28  2  0  0  0
 27 29  1  0  0  0
 29 30  1  0  0  0
 29 31  1  0  0  0
 29 62  1  0  0  0
 30 63  1  0  0  0
 30 64  1  0  0  0
 30 65  1  0  0  0
 31 66  1  0  0  0
 31 67  1  0  0  0
 31 68  1  0  0  0
 32 69  1  0  0  0
 32 70  1  0  0  0
 32 71  1  0  0  0
 33 72  1  0  0  0
 33 73  1  0  0  0
 33 74  1  0  0  0
 34 35  2  0  0  0
 34 36  1  0  0  0
 36 75  1  0  0  0
 36 76  1  0  0  0
M  CHG  1  31   1
M  END
> <s_m_source_file>
../3rkz_ligand.sdf

> <i_m_source_file_index>
1

> <s_epik_input>
W0NIMl0xQyhbQ0gzXSkoW0NIM10pW0NIMl1DKD1PKWMoYzJbQ0gzXSljMW4oYzIzKWM0W2NIXVtjSF1jKEMoPU8pW05IMl0pYyhbY0hdNClbTkhdW0NAQEhdKFtDSDNdKVtDQEhdKFtDSDNdKVtDSDJdTihbQ0gyXVtDSDJdMylDKD1PKVtDQEhdKFtDSDNdKVtOSDMrXQ==

> <s_epik_cmdline>
J2VwaWtfYXBwJywgJy1pbWFlJywgJ2xpZ2FuZF9wcm8ubWFlJywgJy1vbWFlJywgJ2xpZ2FuZF9wcmVwLm1hZScsICctbXMnLCAnMScsICctcGgnLCAnNycsICctcGh0JywgJzAuNScsICctbnQn

> <r_lp_tautomer_probability>
0.99995

> <r_epik_Ionization_Penalty>
  0.0997

> <r_epik_Ionization_Penalty_Charging>
  0.0997

> <r_epik_Ionization_Penalty_Neutral>
  0.0000

> <r_epik_State_Penalty>
  0.0898

> <r_epik_Charging_Adjusted_Penalty>
0.189486214027509

> <i_epik_Tot_Q>
1

> <i_epik_Tot_abs_Q>
1

$$$$
