3rl4_ligand
                    3D
 Schrodinger Suite 2020-3.
 35 37  0  0  1  0            999 V2000
  -23.8720   11.3580    7.3000 P   0  0  0  0  0  0
  -22.5070   10.8010    7.3830 O   0  0  0  0  0  0
  -24.5900   11.6000    8.7310 O   0  5  0  0  0  0
  -23.8350   12.7720    6.6230 O   0  5  0  0  0  0
  -24.8120   10.4050    6.4280 O   0  0  0  0  0  0
  -26.2020   10.7260    6.2020 C   0  0  0  0  0  0
  -26.7620    9.9250    5.0380 C   0  0  1  0  0  0
  -25.9290   10.2050    3.8950 O   0  0  0  0  0  0
  -26.6680    8.4100    5.1630 C   0  0  1  0  0  0
  -27.7260    7.8970    5.9960 O   0  0  0  0  0  0
  -26.8170    8.0000    3.7000 C   0  0  1  0  0  0
  -28.1760    8.1370    3.2580 O   0  0  0  0  0  0
  -25.9810    9.0850    3.0010 C   0  0  2  0  0  0
  -24.5990    8.5730    2.7710 N   0  0  0  0  0  0
  -23.5650    8.5240    3.6310 C   0  0  0  0  0  0
  -22.5220    7.9690    3.0240 N   0  0  0  0  0  0
  -22.8840    7.6490    1.7830 C   0  0  0  0  0  0
  -22.2280    7.0490    0.7110 C   0  0  0  0  0  0
  -21.0520    6.6800    0.7570 O   0  0  0  0  0  0
  -22.9310    6.8800   -0.4720 N   0  0  0  0  0  0
  -24.2680    7.2830   -0.5740 C   0  0  0  0  0  0
  -24.9130    7.0980   -1.7200 N   0  0  0  0  0  0
  -24.8830    7.8600    0.4690 N   0  0  0  0  0  0
  -24.2100    8.0350    1.6260 C   0  0  0  0  0  0
  -26.7841   10.4909    7.1052 H   0  0  0  0  0  0
  -26.2983   11.7974    5.9724 H   0  0  0  0  0  0
  -27.8133   10.2318    4.9348 H   0  0  0  0  0  0
  -25.7827    8.0072    5.6768 H   0  0  0  0  0  0
  -27.7357    8.1208    7.0729 H   0  0  0  0  0  0
  -26.5757    6.9471    3.4923 H   0  0  0  0  0  0
  -28.9496    7.4538    3.6384 H   0  0  0  0  0  0
  -26.4019    9.4207    2.0417 H   0  0  0  0  0  0
  -23.5809    8.8822    4.6603 H   0  0  0  0  0  0
  -24.3998    6.6238   -2.5696 H   0  0  0  0  0  0
  -25.9604    7.4189   -1.8196 H   0  0  0  0  0  0
  1  2  2  0  0  0
  1  3  1  0  0  0
  1  4  1  0  0  0
  1  5  1  0  0  0
  5  6  1  0  0  0
  6  7  1  0  0  0
  6 25  1  0  0  0
  6 26  1  0  0  0
  7  8  1  0  0  0
  7  9  1  0  0  0
  7 27  1  0  0  0
  8 13  1  0  0  0
  9 10  1  0  0  0
  9 11  1  0  0  0
  9 28  1  0  0  0
 10 29  1  0  0  0
 11 12  1  0  0  0
 11 13  1  0  0  0
 11 30  1  0  0  0
 12 31  1  0  0  0
 13 14  1  0  0  0
 13 32  1  0  0  0
 14 15  1  0  0  0
 14 24  1  0  0  0
 15 16  2  0  0  0
 15 33  1  0  0  0
 16 17  1  0  0  0
 17 18  1  0  0  0
 17 24  2  0  0  0
 18 19  2  0  0  0
 18 20  1  0  0  0
 20 21  1  0  0  0
 21 22  1  0  0  0
 21 23  2  0  0  0
 22 34  1  0  0  0
 22 35  1  0  0  0
 23 24  1  0  0  0
M  CHG  2   3  -1   4  -1
M  END
> <s_m_source_file>
../3rl4_ligand.sdf

> <i_m_source_file_index>
1

> <s_epik_input>
Tz1QKFtPSF0pKFtPSF0pT1tDSDJdW0NASF0xT1tDQEhdKFtDQEhdKFtPSF0pW0NAQEhdMVtPSF0pbihbY0hdbjIpYyhjMjMpW25IXWMoPU5cW0hdKVxbbkhdYzM9Tw==

> <s_epik_cmdline>
J2VwaWtfYXBwJywgJy1pbWFlJywgJ2xpZ2FuZF9wcm8ubWFlJywgJy1vbWFlJywgJ2xpZ2FuZF9wcmVwLm1hZScsICctbXMnLCAnMScsICctcGgnLCAnNycsICctcGh0JywgJzAuNScsICctbnQn

> <r_epik_Ionization_Penalty>
  3.3414

> <r_epik_Ionization_Penalty_Charging>
  0.1020

> <r_epik_Ionization_Penalty_Neutral>
  3.2394

> <r_epik_State_Penalty>
  0.0920

> <r_epik_Charging_Adjusted_Penalty>
0.194026767653586

> <i_epik_Tot_Q>
-2

> <i_epik_Tot_abs_Q>
2

> <s_epik_Chemistry_Notes>
This compound has an imine and may undergo hydrolysis. This compound contains an acetal/aminal-like group ( X-CH(R)-Y where X, Y are N, S, or O) that may be acid/base labile, releasing an aldehyde.

$$$$
