3rl7_ligand
                    3D
 Schrodinger Suite 2020-3.
111111  0  0  1  0            999 V2000
   50.6580    1.8390   18.8820 N   0  3  0  0  0  0
   50.4120    0.5550   19.5960 C   0  0  2  0  0  0
   50.1380    0.8030   21.0800 C   0  0  0  0  0  0
   50.8410    0.2790   21.9490 O   0  0  0  0  0  0
   51.5970   -0.4000   19.4050 C   0  0  0  0  0  0
   52.7390    0.0340   20.1260 O   0  0  0  0  0  0
   49.1020    1.5950   21.3550 N   0  0  0  0  0  0
   48.7590    2.0180   22.7180 C   0  0  2  0  0  0
   48.5870    0.8690   23.7120 C   0  0  0  0  0  0
   49.0340    0.9620   24.8590 O   0  0  0  0  0  0
   47.5040    2.9040   22.7110 C   0  0  0  0  0  0
   46.9120    3.1510   24.0860 C   0  0  0  0  0  0
   47.6080    3.8890   25.0470 C   0  0  0  0  0  0
   45.6580    2.6430   24.4250 C   0  0  0  0  0  0
   47.0700    4.1100   26.3110 C   0  0  0  0  0  0
   45.1100    2.8620   25.6870 C   0  0  0  0  0  0
   45.8220    3.5960   26.6230 C   0  0  0  0  0  0
   45.2840    3.8180   27.8720 O   0  0  0  0  0  0
   47.9440   -0.2090   23.2690 N   0  0  0  0  0  0
   47.6830   -1.3530   24.1340 C   0  0  2  0  0  0
   48.4820   -2.5760   23.6930 C   0  0  0  0  0  0
   48.3070   -3.0790   22.5820 O   0  0  0  0  0  0
   46.1820   -1.6630   24.1720 C   0  0  0  0  0  0
   45.6360   -2.5310   25.3110 C   0  0  0  0  0  0
   45.7560   -1.8270   26.6640 C   0  0  0  0  0  0
   44.1840   -2.9090   25.0340 C   0  0  0  0  0  0
   49.3700   -3.0370   24.5700 N   0  0  0  0  0  0
   50.1850   -4.2210   24.3120 C   0  0  2  0  0  0
   49.9850   -5.2230   25.4450 C   0  0  0  0  0  0
   50.3890   -4.9690   26.5820 O   0  0  0  0  0  0
   51.6910   -3.8720   24.1810 C   0  0  0  0  0  0
   52.4870   -5.0900   23.7370 C   0  0  0  0  0  0
   51.9000   -2.7180   23.2060 C   0  0  0  0  0  0
   49.3530   -6.3520   25.1320 N   0  0  0  0  0  0
   49.0720   -7.3800   26.1360 C   0  0  2  0  0  0
   50.0190   -8.5690   25.9920 C   0  0  0  0  0  0
   50.1720   -9.1250   24.9000 O   0  0  0  0  0  0
   47.6010   -7.8530   26.0760 C   0  0  2  0  0  0
   46.7260   -6.7230   26.1860 O   0  0  0  0  0  0
   47.2920   -8.8390   27.2030 C   0  0  0  0  0  0
   50.6540   -8.9440   27.1010 N   0  0  0  0  0  0
   51.5890  -10.0670   27.1190 C   0  0  2  0  0  0
   50.8460  -11.3920   27.2630 C   0  0  0  0  0  0
   50.0000  -11.5440   28.1480 O   0  0  0  0  0  0
   52.6230   -9.9010   28.2390 C   0  0  0  0  0  0
   52.0740  -10.2230   29.5110 O   0  0  0  0  0  0
   51.1640  -12.3420   26.3850 N   0  0  0  0  0  0
   50.4980  -13.6490   26.3780 C   0  0  2  0  0  0
   51.4710  -14.8140   26.6200 C   0  0  0  0  0  0
   51.0560  -15.9420   26.8980 O   0  5  0  0  0  0
   49.6670  -13.8900   25.0740 C   0  0  0  0  0  0
   48.7370  -12.7060   24.7810 C   0  0  0  0  0  0
   50.5740  -14.1710   23.8810 C   0  0  0  0  0  0
   52.6930  -14.6670   26.5490 O   0  0  0  0  0  0
   49.7996    2.5108   19.0295 H   0  0  0  0  0  0
   50.7891    1.6419   17.8078 H   0  0  0  0  0  0
   51.5670    2.3124   19.2816 H   0  0  0  0  0  0
   49.5136    0.1070   19.1464 H   0  0  0  0  0  0
   51.3210   -1.4029   19.7628 H   0  0  0  0  0  0
   51.8588   -0.4507   18.3378 H   0  0  0  0  0  0
   53.6697   -0.5511   20.0862 H   0  0  0  0  0  0
   48.4922    1.9332   20.5043 H   0  0  0  0  0  0
   49.6510    2.5825   23.0274 H   0  0  0  0  0  0
   47.7516    3.8870   22.2840 H   0  0  0  0  0  0
   46.7215    2.4266   22.1029 H   0  0  0  0  0  0
   48.5882    4.2982   24.8025 H   0  0  0  0  0  0
   45.0974    2.0650   23.6903 H   0  0  0  0  0  0
   47.6272    4.6841   27.0513 H   0  0  0  0  0  0
   44.1284    2.4591   25.9366 H   0  0  0  0  0  0
   45.8459    4.3999   28.6174 H   0  0  0  0  0  0
   47.6070   -0.2230   22.2220 H   0  0  0  0  0  0
   48.0301   -1.0469   25.1319 H   0  0  0  0  0  0
   45.6152   -0.7230   24.2429 H   0  0  0  0  0  0
   45.8944   -2.1963   23.2539 H   0  0  0  0  0  0
   46.2402   -3.4489   25.3594 H   0  0  0  0  0  0
   46.8077   -1.5619   26.8474 H   0  0  0  0  0  0
   45.4032   -2.4995   27.4598 H   0  0  0  0  0  0
   45.1433   -0.9134   26.6576 H   0  0  0  0  0  0
   44.1161   -3.4134   24.0588 H   0  0  0  0  0  0
   43.5646   -2.0000   25.0206 H   0  0  0  0  0  0
   43.8245   -3.5861   25.8229 H   0  0  0  0  0  0
   49.4783   -2.4908   25.5186 H   0  0  0  0  0  0
   49.8132   -4.6231   23.3580 H   0  0  0  0  0  0
   52.0731   -3.5570   25.1633 H   0  0  0  0  0  0
   52.3262   -5.9127   24.4493 H   0  0  0  0  0  0
   53.5570   -4.8369   23.7047 H   0  0  0  0  0  0
   52.1534   -5.4011   22.7360 H   0  0  0  0  0  0
   51.3188   -1.8459   23.5401 H   0  0  0  0  0  0
   51.5641   -3.0200   22.2030 H   0  0  0  0  0  0
   52.9677   -2.4558   23.1717 H   0  0  0  0  0  0
   49.0399   -6.5024   24.0883 H   0  0  0  0  0  0
   49.2649   -6.8767   27.0949 H   0  0  0  0  0  0
   47.3855   -8.3164   25.1019 H   0  0  0  0  0  0
   46.7963   -5.9002   25.4594 H   0  0  0  0  0  0
   47.9611   -9.7085   27.1232 H   0  0  0  0  0  0
   46.2467   -9.1720   27.1225 H   0  0  0  0  0  0
   47.4459   -8.3458   28.1741 H   0  0  0  0  0  0
   50.4558   -8.3785   28.0235 H   0  0  0  0  0  0
   52.0939  -10.0388   26.1421 H   0  0  0  0  0  0
   53.4774  -10.5678   28.0510 H   0  0  0  0  0  0
   52.9709   -8.8578   28.2652 H   0  0  0  0  0  0
   52.6984  -10.1511   30.4137 H   0  0  0  0  0  0
   51.9524  -12.1225   25.6499 H   0  0  0  0  0  0
   49.8310  -13.5673   27.2489 H   0  0  0  0  0  0
   49.0377  -14.7810   25.2157 H   0  0  0  0  0  0
   48.0928  -12.5212   25.6533 H   0  0  0  0  0  0
   48.1119  -12.9385   23.9062 H   0  0  0  0  0  0
   49.3393  -11.8093   24.5734 H   0  0  0  0  0  0
   51.2312  -15.0222   24.1125 H   0  0  0  0  0  0
   51.1862  -13.2822   23.6685 H   0  0  0  0  0  0
   49.9588  -14.4114   23.0013 H   0  0  0  0  0  0
  1  2  1  0  0  0
  1 55  1  0  0  0
  1 56  1  0  0  0
  1 57  1  0  0  0
  2  3  1  0  0  0
  2  5  1  0  0  0
  2 58  1  0  0  0
  3  4  2  0  0  0
  3  7  1  0  0  0
  5  6  1  0  0  0
  5 59  1  0  0  0
  5 60  1  0  0  0
  6 61  1  0  0  0
  7  8  1  0  0  0
  7 62  1  0  0  0
  8  9  1  0  0  0
  8 11  1  0  0  0
  8 63  1  0  0  0
  9 10  2  0  0  0
  9 19  1  0  0  0
 11 12  1  0  0  0
 11 64  1  0  0  0
 11 65  1  0  0  0
 12 13  2  0  0  0
 12 14  1  0  0  0
 13 15  1  0  0  0
 13 66  1  0  0  0
 14 16  2  0  0  0
 14 67  1  0  0  0
 15 17  2  0  0  0
 15 68  1  0  0  0
 16 17  1  0  0  0
 16 69  1  0  0  0
 17 18  1  0  0  0
 18 70  1  0  0  0
 19 20  1  0  0  0
 19 71  1  0  0  0
 20 21  1  0  0  0
 20 23  1  0  0  0
 20 72  1  0  0  0
 21 22  2  0  0  0
 21 27  1  0  0  0
 23 24  1  0  0  0
 23 73  1  0  0  0
 23 74  1  0  0  0
 24 25  1  0  0  0
 24 26  1  0  0  0
 24 75  1  0  0  0
 25 76  1  0  0  0
 25 77  1  0  0  0
 25 78  1  0  0  0
 26 79  1  0  0  0
 26 80  1  0  0  0
 26 81  1  0  0  0
 27 28  1  0  0  0
 27 82  1  0  0  0
 28 29  1  0  0  0
 28 31  1  0  0  0
 28 83  1  0  0  0
 29 30  2  0  0  0
 29 34  1  0  0  0
 31 32  1  0  0  0
 31 33  1  0  0  0
 31 84  1  0  0  0
 32 85  1  0  0  0
 32 86  1  0  0  0
 32 87  1  0  0  0
 33 88  1  0  0  0
 33 89  1  0  0  0
 33 90  1  0  0  0
 34 35  1  0  0  0
 34 91  1  0  0  0
 35 36  1  0  0  0
 35 38  1  0  0  0
 35 92  1  0  0  0
 36 37  2  0  0  0
 36 41  1  0  0  0
 38 39  1  0  0  0
 38 40  1  0  0  0
 38 93  1  0  0  0
 39 94  1  0  0  0
 40 95  1  0  0  0
 40 96  1  0  0  0
 40 97  1  0  0  0
 41 42  1  0  0  0
 41 98  1  0  0  0
 42 43  1  0  0  0
 42 45  1  0  0  0
 42 99  1  0  0  0
 43 44  2  0  0  0
 43 47  1  0  0  0
 45 46  1  0  0  0
 45100  1  0  0  0
 45101  1  0  0  0
 46102  1  0  0  0
 47 48  1  0  0  0
 47103  1  0  0  0
 48 49  1  0  0  0
 48 51  1  0  0  0
 48104  1  0  0  0
 49 50  1  0  0  0
 49 54  2  0  0  0
 51 52  1  0  0  0
 51 53  1  0  0  0
 51105  1  0  0  0
 52106  1  0  0  0
 52107  1  0  0  0
 52108  1  0  0  0
 53109  1  0  0  0
 53110  1  0  0  0
 53111  1  0  0  0
M  CHG  2   1   1  50  -1
M  END
> <s_m_source_file>
../3rl7_ligand.sdf

> <i_m_source_file_index>
1

> <s_epik_input>
W2NIXTFbY0hdYyhbT0hdKVtjSF1bY0hdYzFbQ0gyXVtDQEhdKFtOSF1DKD1PKVtDQEBIXShbTkgzK10pW0NIMl1bT0hdKUMoPU8pW05IXVtDQEBIXShbQ0gyXVtDSF0oW0NIM10pW0NIM10pQyg9TylbTkhdW0NAQEhdKFtDSF0oW0NIM10pW0NIM10pQyg9TylbTkhdW0NAQEhdKFtDQEhdKFtPSF0pW0NIM10pQyg9TylbTkhdW0NAQEhdKFtDSDJdW09IXSlDKD1PKVtOSF1bQ0BIXShDKD1PKVtPSF0pW0NIXShbQ0gzXSlbQ0gzXQ==

> <s_epik_cmdline>
J2VwaWtfYXBwJywgJy1pbWFlJywgJ2xpZ2FuZF9wcm8ubWFlJywgJy1vbWFlJywgJ2xpZ2FuZF9wcmVwLm1hZScsICctbXMnLCAnMScsICctcGgnLCAnNycsICctcGh0JywgJzAuNScsICctbnQn

> <r_lp_tautomer_probability>
0.999999999997365

> <r_epik_Ionization_Penalty>
  0.1594

> <r_epik_Ionization_Penalty_Charging>
  0.1585

> <r_epik_Ionization_Penalty_Neutral>
  0.0010

> <r_epik_State_Penalty>
  0.1476

> <r_epik_Charging_Adjusted_Penalty>
0.306032401889659

> <i_epik_Tot_Q>
0

> <i_epik_Tot_abs_Q>
2

$$$$
