3rl8_ligand
                    3D
 Schrodinger Suite 2020-3.
100100  0  0  1  0            999 V2000
   58.3730   -7.4220   50.7610 N   0  3  0  0  0  0
   59.7190   -7.6770   51.3880 C   0  0  2  0  0  0
   60.8010   -6.7700   50.7930 C   0  0  0  0  0  0
   61.5260   -6.1030   51.5260 O   0  0  0  0  0  0
   60.1190   -9.1470   51.2670 C   0  0  0  0  0  0
   59.9820   -9.9610   52.5390 C   0  0  0  0  0  0
   60.2630   -9.4030   53.7890 C   0  0  0  0  0  0
   59.6150  -11.3080   52.4870 C   0  0  0  0  0  0
   60.1510  -10.1570   54.9560 C   0  0  0  0  0  0
   59.5080  -12.0760   53.6500 C   0  0  0  0  0  0
   59.7780  -11.4940   54.8790 C   0  0  0  0  0  0
   59.6710  -12.2420   56.0280 O   0  0  0  0  0  0
   60.9080   -6.7650   49.4660 N   0  0  0  0  0  0
   61.6700   -5.7490   48.7380 C   0  0  2  0  0  0
   60.7080   -4.7770   48.0280 C   0  0  0  0  0  0
   61.0330   -3.6070   47.8180 O   0  0  0  0  0  0
   62.6380   -6.4100   47.7390 C   0  0  0  0  0  0
   63.8370   -5.7230   47.0450 C   0  0  0  0  0  0
   63.3950   -4.7810   45.9060 C   0  0  0  0  0  0
   64.7910   -5.0220   48.0250 C   0  0  0  0  0  0
   59.5190   -5.2470   47.6710 N   0  0  0  0  0  0
   58.5750   -4.3740   46.9850 C   0  0  2  0  0  0
   57.8570   -3.4610   47.9740 C   0  0  0  0  0  0
   57.5300   -3.8480   49.0980 O   0  0  0  0  0  0
   57.5660   -5.1260   46.0340 C   0  0  0  0  0  0
   58.3080   -5.8630   44.9130 C   0  0  0  0  0  0
   56.6610   -6.0710   46.7970 C   0  0  0  0  0  0
   57.6560   -2.2230   47.5530 N   0  0  0  0  0  0
   56.8630   -1.2860   48.3250 C   0  0  2  0  0  0
   55.5620   -1.0990   47.5480 C   0  0  0  0  0  0
   55.5640   -0.4780   46.4800 O   0  0  0  0  0  0
   57.6240    0.0400   48.5210 C   0  0  2  0  0  0
   58.8160   -0.2090   49.2890 O   0  0  0  0  0  0
   56.7580    1.0650   49.2480 C   0  0  0  0  0  0
   54.4690   -1.6090   48.1260 N   0  0  0  0  0  0
   53.1610   -1.6850   47.4690 C   0  0  2  0  0  0
   52.1440   -0.7230   48.0930 C   0  0  0  0  0  0
   51.9950   -0.6700   49.3130 O   0  0  0  0  0  0
   52.6380   -3.1300   47.5060 C   0  0  0  0  0  0
   51.2440   -3.2090   47.2110 O   0  0  0  0  0  0
   51.4490    0.0290   47.2460 N   0  0  0  0  0  0
   50.4850    1.0310   47.6820 C   0  0  2  0  0  0
   49.0630    0.6880   47.1800 C   0  0  0  0  0  0
   48.0610    1.3490   47.5360 O   0  5  0  0  0  0
   50.9060    2.4970   47.2660 C   0  0  0  0  0  0
   52.2890    2.8870   47.8270 C   0  0  0  0  0  0
   50.8640    2.6950   45.7620 C   0  0  0  0  0  0
   48.8720   -0.2860   46.4210 O   0  0  0  0  0  0
   58.1158   -6.3576   50.8651 H   0  0  0  0  0  0
   57.6114   -8.0344   51.2659 H   0  0  0  0  0  0
   58.4092   -7.6879   49.6942 H   0  0  0  0  0  0
   59.6110   -7.4323   52.4550 H   0  0  0  0  0  0
   59.4874   -9.6379   50.5120 H   0  0  0  0  0  0
   61.1740   -9.2162   50.9635 H   0  0  0  0  0  0
   60.5750   -8.3605   53.8525 H   0  0  0  0  0  0
   59.4082  -11.7688   51.5211 H   0  0  0  0  0  0
   60.3549   -9.7004   55.9245 H   0  0  0  0  0  0
   59.2146  -13.1241   53.5911 H   0  0  0  0  0  0
   59.8845  -11.7833   57.0047 H   0  0  0  0  0  0
   60.3944   -7.5668   48.9153 H   0  0  0  0  0  0
   62.2535   -5.2048   49.4952 H   0  0  0  0  0  0
   63.1420   -7.2590   48.2239 H   0  0  0  0  0  0
   62.0745   -6.7687   46.8650 H   0  0  0  0  0  0
   64.4214   -6.5362   46.5899 H   0  0  0  0  0  0
   62.7153   -5.3186   45.2285 H   0  0  0  0  0  0
   64.2793   -4.4428   45.3459 H   0  0  0  0  0  0
   62.8752   -3.9099   46.3315 H   0  0  0  0  0  0
   65.0819   -5.7249   48.8195 H   0  0  0  0  0  0
   64.2849   -4.1532   48.4712 H   0  0  0  0  0  0
   65.6889   -4.6862   47.4856 H   0  0  0  0  0  0
   59.2447   -6.2894   47.8903 H   0  0  0  0  0  0
   59.2467   -3.7632   46.3639 H   0  0  0  0  0  0
   56.8965   -4.3901   45.5647 H   0  0  0  0  0  0
   58.9568   -5.1555   44.3759 H   0  0  0  0  0  0
   57.5781   -6.2954   44.2128 H   0  0  0  0  0  0
   58.9214   -6.6668   45.3461 H   0  0  0  0  0  0
   56.1417   -5.5181   47.5937 H   0  0  0  0  0  0
   57.2637   -6.8763   47.2424 H   0  0  0  0  0  0
   55.9204   -6.5049   46.1091 H   0  0  0  0  0  0
   58.1033   -1.9091   46.5983 H   0  0  0  0  0  0
   56.6765   -1.7106   49.3224 H   0  0  0  0  0  0
   57.9481    0.4498   47.5530 H   0  0  0  0  0  0
   59.5669   -0.9244   48.9226 H   0  0  0  0  0  0
   55.8467    1.2564   48.6624 H   0  0  0  0  0  0
   57.3211    2.0024   49.3668 H   0  0  0  0  0  0
   56.4820    0.6750   50.2388 H   0  0  0  0  0  0
   54.5914   -1.9843   49.1527 H   0  0  0  0  0  0
   53.3434   -1.3649   46.4325 H   0  0  0  0  0  0
   53.1783   -3.7346   46.7627 H   0  0  0  0  0  0
   52.7985   -3.5525   48.5089 H   0  0  0  0  0  0
   50.7380   -4.1857   47.2028 H   0  0  0  0  0  0
   51.6279   -0.1317   46.1726 H   0  0  0  0  0  0
   50.5149    0.9331   48.7772 H   0  0  0  0  0  0
   50.1709    3.1986   47.6871 H   0  0  0  0  0  0
   52.2984    2.7364   48.9166 H   0  0  0  0  0  0
   52.4914    3.9444   47.6012 H   0  0  0  0  0  0
   53.0634    2.2583   47.3632 H   0  0  0  0  0  0
   49.8712    2.4117   45.3825 H   0  0  0  0  0  0
   51.6312    2.0653   45.2877 H   0  0  0  0  0  0
   51.0592    3.7514   45.5257 H   0  0  0  0  0  0
  1  2  1  0  0  0
  1 49  1  0  0  0
  1 50  1  0  0  0
  1 51  1  0  0  0
  2  3  1  0  0  0
  2  5  1  0  0  0
  2 52  1  0  0  0
  3  4  2  0  0  0
  3 13  1  0  0  0
  5  6  1  0  0  0
  5 53  1  0  0  0
  5 54  1  0  0  0
  6  7  2  0  0  0
  6  8  1  0  0  0
  7  9  1  0  0  0
  7 55  1  0  0  0
  8 10  2  0  0  0
  8 56  1  0  0  0
  9 11  2  0  0  0
  9 57  1  0  0  0
 10 11  1  0  0  0
 10 58  1  0  0  0
 11 12  1  0  0  0
 12 59  1  0  0  0
 13 14  1  0  0  0
 13 60  1  0  0  0
 14 15  1  0  0  0
 14 17  1  0  0  0
 14 61  1  0  0  0
 15 16  2  0  0  0
 15 21  1  0  0  0
 17 18  1  0  0  0
 17 62  1  0  0  0
 17 63  1  0  0  0
 18 19  1  0  0  0
 18 20  1  0  0  0
 18 64  1  0  0  0
 19 65  1  0  0  0
 19 66  1  0  0  0
 19 67  1  0  0  0
 20 68  1  0  0  0
 20 69  1  0  0  0
 20 70  1  0  0  0
 21 22  1  0  0  0
 21 71  1  0  0  0
 22 23  1  0  0  0
 22 25  1  0  0  0
 22 72  1  0  0  0
 23 24  2  0  0  0
 23 28  1  0  0  0
 25 26  1  0  0  0
 25 27  1  0  0  0
 25 73  1  0  0  0
 26 74  1  0  0  0
 26 75  1  0  0  0
 26 76  1  0  0  0
 27 77  1  0  0  0
 27 78  1  0  0  0
 27 79  1  0  0  0
 28 29  1  0  0  0
 28 80  1  0  0  0
 29 30  1  0  0  0
 29 32  1  0  0  0
 29 81  1  0  0  0
 30 31  2  0  0  0
 30 35  1  0  0  0
 32 33  1  0  0  0
 32 34  1  0  0  0
 32 82  1  0  0  0
 33 83  1  0  0  0
 34 84  1  0  0  0
 34 85  1  0  0  0
 34 86  1  0  0  0
 35 36  1  0  0  0
 35 87  1  0  0  0
 36 37  1  0  0  0
 36 39  1  0  0  0
 36 88  1  0  0  0
 37 38  2  0  0  0
 37 41  1  0  0  0
 39 40  1  0  0  0
 39 89  1  0  0  0
 39 90  1  0  0  0
 40 91  1  0  0  0
 41 42  1  0  0  0
 41 92  1  0  0  0
 42 43  1  0  0  0
 42 45  1  0  0  0
 42 93  1  0  0  0
 43 44  1  0  0  0
 43 48  2  0  0  0
 45 46  1  0  0  0
 45 47  1  0  0  0
 45 94  1  0  0  0
 46 95  1  0  0  0
 46 96  1  0  0  0
 46 97  1  0  0  0
 47 98  1  0  0  0
 47 99  1  0  0  0
 47100  1  0  0  0
M  CHG  2   1   1  44  -1
M  END
> <s_m_source_file>
../3rl8_ligand.sdf

> <i_m_source_file_index>
1

> <s_epik_input>
W2NIXTFbY0hdYyhbT0hdKVtjSF1bY0hdYzFbQ0gyXVtDQEhdKFtOSDMrXSlDKD1PKVtOSF1bQ0BASF0oW0NIMl1bQ0hdKFtDSDNdKVtDSDNdKUMoPU8pW05IXVtDQEBIXShbQ0hdKFtDSDNdKVtDSDNdKUMoPU8pW05IXVtDQEBIXShbQ0BIXShbT0hdKVtDSDNdKUMoPU8pW05IXVtDQEBIXShbQ0gyXVtPSF0pQyg9TylbTkhdW0NASF0oQyg9TylbT0hdKVtDSF0oW0NIM10pW0NIM10=

> <s_epik_cmdline>
J2VwaWtfYXBwJywgJy1pbWFlJywgJ2xpZ2FuZF9wcm8ubWFlJywgJy1vbWFlJywgJ2xpZ2FuZF9wcmVwLm1hZScsICctbXMnLCAnMScsICctcGgnLCAnNycsICctcGh0JywgJzAuNScsICctbnQn

> <r_lp_tautomer_probability>
0.999999999997365

> <r_epik_Ionization_Penalty>
  0.2026

> <r_epik_Ionization_Penalty_Charging>
  0.1999

> <r_epik_Ionization_Penalty_Neutral>
  0.0027

> <r_epik_State_Penalty>
  0.1896

> <r_epik_Charging_Adjusted_Penalty>
0.389463736200951

> <i_epik_Tot_Q>
0

> <i_epik_Tot_abs_Q>
2

$$$$
