3rlp_ligand
                    3D
 Schrodinger Suite 2020-3.
 29 30  0  0  1  0            999 V2000
   17.5980   -1.9320   49.9900 N   0  0  0  0  0  0
   17.5890    0.3940   49.5140 N   0  0  0  0  0  0
   16.9790   -3.0210   50.5380 C   0  0  0  0  0  0
   17.6790   -4.3490   50.4430 C   0  0  0  0  0  0
   13.8330   -1.5150   51.8430 C   0  0  0  0  0  0
   12.6620   -1.1740   51.0870 C   0  0  0  0  0  0
   11.3990   -1.0650   51.7310 C   0  0  0  0  0  0
   12.4300   -1.6080   53.9260 C   0  0  0  0  0  0
   13.6940   -1.7220   53.2580 C   0  0  0  0  0  0
   15.7460   -2.9430   51.1650 C   0  0  0  0  0  0
   11.2820   -1.2830   53.1350 C   0  0  0  0  0  0
   15.1520   -1.6710   51.2130 C   0  0  0  0  0  0
   16.9630   -0.7150   50.0710 C   0  0  0  0  0  0
   13.3180   -2.1170   56.1500 C   0  0  0  0  0  0
   15.7410   -0.5540   50.6750 N   0  0  0  0  0  0
   12.2160   -1.7910   55.2900 O   0  0  0  0  0  0
   12.7250   -0.8880   49.3630 Cl  0  0  0  0  0  0
    9.7040   -1.1440   53.8430 Cl  0  0  0  0  0  0
   18.5686    0.2851   49.0256 H   0  0  0  0  0  0
   17.1048    1.3806   49.5616 H   0  0  0  0  0  0
   18.6370   -4.2217   49.9176 H   0  0  0  0  0  0
   17.0473   -5.0575   49.8872 H   0  0  0  0  0  0
   17.8646   -4.7389   51.4547 H   0  0  0  0  0  0
   10.5138   -0.8129   51.1470 H   0  0  0  0  0  0
   14.5784   -1.9740   53.8431 H   0  0  0  0  0  0
   15.2637   -3.8199   51.5970 H   0  0  0  0  0  0
   12.9576   -2.2220   57.1840 H   0  0  0  0  0  0
   14.0693   -1.3149   56.1032 H   0  0  0  0  0  0
   13.7715   -3.0639   55.8218 H   0  0  0  0  0  0
  1  3  2  0  0  0
  1 13  1  0  0  0
  2 13  1  0  0  0
  2 19  1  0  0  0
  2 20  1  0  0  0
  3  4  1  0  0  0
  3 10  1  0  0  0
  4 21  1  0  0  0
  4 22  1  0  0  0
  4 23  1  0  0  0
  5  6  2  0  0  0
  5  9  1  0  0  0
  5 12  1  0  0  0
  6  7  1  0  0  0
  6 17  1  0  0  0
  7 11  2  0  0  0
  7 24  1  0  0  0
  8  9  2  0  0  0
  8 11  1  0  0  0
  8 16  1  0  0  0
  9 25  1  0  0  0
 10 12  2  0  0  0
 10 26  1  0  0  0
 11 18  1  0  0  0
 12 15  1  0  0  0
 13 15  2  0  0  0
 14 16  1  0  0  0
 14 27  1  0  0  0
 14 28  1  0  0  0
 14 29  1  0  0  0
M  END
> <s_m_source_file>
../3rlp_ligand.sdf

> <i_m_source_file_index>
1

> <s_epik_input>
W0NIM11jMW5jKFtOSDJdKW5jKFtjSF0xKS1jMmMoQ2wpW2NIXWMoQ2wpYyhbY0hdMilPW0NIM10=

> <s_epik_cmdline>
J2VwaWtfYXBwJywgJy1pbWFlJywgJ2xpZ2FuZF9wcm8ubWFlJywgJy1vbWFlJywgJ2xpZ2FuZF9wcmVwLm1hZScsICctbXMnLCAnMScsICctcGgnLCAnNycsICctcGh0JywgJzAuNScsICctbnQn

> <r_lp_tautomer_probability>
1

> <r_epik_Ionization_Penalty>
  0.0007

> <r_epik_Ionization_Penalty_Charging>
  0.0000

> <r_epik_Ionization_Penalty_Neutral>
  0.0007

> <r_epik_State_Penalty>
 -0.0000

> <r_epik_Charging_Adjusted_Penalty>
0

> <i_epik_Tot_Q>
0

> <i_epik_Tot_abs_Q>
0

$$$$
