3rm4_ligand
                    3D
 Schrodinger Suite 2020-3.
 42 44  0  0  1  0            999 V2000
    3.0470    6.5870  -17.2210 C   0  0  0  0  0  0
    2.1510    2.0240  -16.7050 N   0  0  0  0  0  0
    2.8960    4.4680  -15.9680 O   0  0  0  0  0  0
    3.2210   10.5090  -15.8700 Br  0  0  0  0  0  0
    3.1180    7.9870  -17.1700 C   0  0  0  0  0  0
   -0.1060    0.8090  -17.9640 N   0  0  0  0  0  0
    3.1120    8.6180  -15.9260 C   0  0  0  0  0  0
   -2.2280   -0.2840  -17.7070 N   0  3  0  0  0  0
    3.0360    7.8820  -14.7380 C   0  0  0  0  0  0
   -3.3120   -0.6040  -18.4250 N   0  3  0  0  0  0
    2.9630    6.4860  -14.7930 C   0  0  0  0  0  0
   -1.7840    0.5140  -19.6820 N   0  0  0  0  0  0
    2.9640    5.8370  -16.0360 C   0  0  0  0  0  0
   -3.7620   -0.1230  -20.7620 N   0  0  0  0  0  0
    3.9200    3.7680  -16.6980 C   0  0  0  0  0  0
    3.6290    2.2810  -16.5190 C   0  0  0  0  0  0
    1.6560    2.5630  -18.0370 C   0  0  0  0  0  0
    0.2000    2.2100  -18.2760 C   0  0  0  0  0  0
    0.3960    0.2960  -16.6860 C   0  0  0  0  0  0
    1.8860    0.5380  -16.5560 C   0  0  0  0  0  0
   -1.2980    0.3770  -18.4600 C   0  0  0  0  0  0
   -3.0130   -0.0930  -19.6350 C   0  0  3  0  0  0
    3.0563    6.0784  -18.1850 H   0  0  0  0  0  0
    3.1769    8.5723  -18.0876 H   0  0  0  0  0  0
    3.0337    8.3935  -13.7755 H   0  0  0  0  0  0
    2.9055    5.9048  -13.8727 H   0  0  0  0  0  0
   -4.7515   -0.6035  -20.7522 H   0  0  0  0  0  0
   -3.3812    0.3331  -21.6877 H   0  0  0  0  0  0
    3.8753    4.0551  -17.7589 H   0  0  0  0  0  0
    4.9067    4.0303  -16.2885 H   0  0  0  0  0  0
    3.9309    1.9699  -15.5080 H   0  0  0  0  0  0
    4.1978    1.7062  -17.2647 H   0  0  0  0  0  0
    1.7540    3.6586  -18.0484 H   0  0  0  0  0  0
    2.2559    2.1327  -18.8524 H   0  0  0  0  0  0
   -0.0232    2.4070  -19.3349 H   0  0  0  0  0  0
   -0.4129    2.8689  -17.6433 H   0  0  0  0  0  0
   -0.1192    0.8058  -15.8585 H   0  0  0  0  0  0
    0.2062   -0.7858  -16.6251 H   0  0  0  0  0  0
    2.4241   -0.0111  -17.3427 H   0  0  0  0  0  0
    2.2350    0.2004  -15.5690 H   0  0  0  0  0  0
   -2.1726   -0.5576  -16.6430 H   0  0  0  0  0  0
   -4.1403   -1.1544  -17.9549 H   0  0  0  0  0  0
  1  5  2  0  0  0
  1 13  1  0  0  0
  1 23  1  0  0  0
  2 16  1  0  0  0
  2 17  1  0  0  0
  2 20  1  0  0  0
  3 13  1  0  0  0
  3 15  1  0  0  0
  4  7  1  0  0  0
  5  7  1  0  0  0
  5 24  1  0  0  0
  6 18  1  0  0  0
  6 19  1  0  0  0
  6 21  1  0  0  0
  7  9  2  0  0  0
  8 10  2  0  0  0
  8 21  1  0  0  0
  8 41  1  0  0  0
  9 11  1  0  0  0
  9 25  1  0  0  0
 10 22  1  0  0  0
 10 42  1  0  0  0
 11 13  2  0  0  0
 11 26  1  0  0  0
 12 21  2  0  0  0
 12 22  1  0  0  0
 14 22  1  0  0  0
 14 27  1  0  0  0
 14 28  1  0  0  0
 15 16  1  0  0  0
 15 29  1  0  0  0
 15 30  1  0  0  0
 16 31  1  0  0  0
 16 32  1  0  0  0
 17 18  1  0  0  0
 17 33  1  0  0  0
 17 34  1  0  0  0
 18 35  1  0  0  0
 18 36  1  0  0  0
 19 20  1  0  0  0
 19 37  1  0  0  0
 19 38  1  0  0  0
 20 39  1  0  0  0
 20 40  1  0  0  0
M  CHG  2   8   1  10   1
M  END
> <s_m_source_file>
../3rm4_ligand.sdf

> <i_m_source_file_index>
1

> <s_epik_input>
QnJjMVtjSF1bY0hdYyhbY0hdW2NIXTEpT1tDSDJdW0NIMl1bTkgrXTJbQ0gyXVtDSDJdTihbQ0gyXVtDSDJdMilDMz1OW0NIXShOPU4zKVtOSDJd

> <s_epik_cmdline>
J2VwaWtfYXBwJywgJy1pbWFlJywgJ2xpZ2FuZF9wcm8ubWFlJywgJy1vbWFlJywgJ2xpZ2FuZF9wcmVwLm1hZScsICctbXMnLCAnMScsICctcGgnLCAnNycsICctcGh0JywgJzAuNScsICctbnQn

> <r_lp_tautomer_probability>
1

> <r_epik_Ionization_Penalty>
  0.2696

> <r_epik_Ionization_Penalty_Charging>
  0.2136

> <r_epik_Ionization_Penalty_Neutral>
  0.0560

> <r_epik_State_Penalty>
 -0.0000

> <r_epik_Charging_Adjusted_Penalty>
0.213606344671881

> <i_epik_Tot_Q>
2

> <i_epik_Tot_abs_Q>
2

> <s_epik_Chemistry_Notes>
This compound has an imine and may undergo hydrolysis.

$$$$
