3rm8_ligand
                    3D
 Schrodinger Suite 2020-3.
 45 48  0  0  1  0            999 V2000
   -3.3040   48.6830   65.6950 C   0  0  0  0  0  0
   -2.4920   51.0310   65.4590 N   0  0  0  0  0  0
   -2.9440   50.0120   66.2630 C   0  0  0  0  0  0
   -2.3150   48.9360   69.5230 N   0  3  0  0  0  0
   -2.9630   50.4830   67.5680 C   0  0  3  0  0  0
    0.1920   47.7880   70.1980 N   0  0  0  0  0  0
   -2.5040   51.8420   67.5360 C   0  0  0  0  0  0
    1.9340   47.4580   71.8350 N   0  0  0  0  0  0
   -2.3130   52.8420   68.5190 C   0  0  0  0  0  0
   -1.8400   54.1080   68.1380 C   0  0  0  0  0  0
   -1.5640   54.3910   66.7990 C   0  0  0  0  0  0
   -1.7470   53.4170   65.8080 C   0  0  0  0  0  0
   -2.2220   52.1540   66.2040 C   0  0  0  0  0  0
   -3.3840   49.7300   68.7880 C   0  0  0  0  0  0
   -1.2040   49.8140   70.0760 C   0  0  0  0  0  0
   -0.2740   48.9730   70.9410 C   0  0  0  0  0  0
   -0.8460   46.9220   69.6110 C   0  0  0  0  0  0
   -1.7960   47.7420   68.7430 C   0  0  0  0  0  0
    1.4340   47.2360   70.5770 C   0  0  0  0  0  0
    2.1810   46.4500   69.6790 C   0  0  0  0  0  0
    3.4080   45.9100   70.0750 C   0  0  0  0  0  0
    3.9020   46.1490   71.3490 C   0  0  0  0  0  0
    3.1300   46.9260   72.1900 C   0  0  0  0  0  0
   -3.1546   48.6973   64.6053 H   0  0  0  0  0  0
   -4.3584   48.4626   65.9177 H   0  0  0  0  0  0
   -2.6648   47.9077   66.1426 H   0  0  0  0  0  0
   -2.8242   48.5021   70.3962 H   0  0  0  0  0  0
   -2.5318   52.6307   69.5657 H   0  0  0  0  0  0
   -1.6868   54.8772   68.8949 H   0  0  0  0  0  0
   -1.2020   55.3809   66.5211 H   0  0  0  0  0  0
   -1.5278   53.6319   64.7621 H   0  0  0  0  0  0
   -4.1796   49.0492   68.4509 H   0  0  0  0  0  0
   -3.8101   50.4853   69.4648 H   0  0  0  0  0  0
   -0.6338   50.2517   69.2434 H   0  0  0  0  0  0
   -1.6415   50.6194   70.6842 H   0  0  0  0  0  0
   -0.8178   48.6508   71.8413 H   0  0  0  0  0  0
    0.5913   49.5853   71.2348 H   0  0  0  0  0  0
   -0.3703   46.1492   68.9893 H   0  0  0  0  0  0
   -1.4214   46.4419   70.4162 H   0  0  0  0  0  0
   -2.6416   47.1091   68.4357 H   0  0  0  0  0  0
   -1.2575   48.0931   67.8504 H   0  0  0  0  0  0
    1.8023   46.2624   68.6743 H   0  0  0  0  0  0
    3.9802   45.2973   69.3784 H   0  0  0  0  0  0
    4.8594   45.7406   71.6727 H   0  0  0  0  0  0
    3.5027   47.1227   73.1953 H   0  0  0  0  0  0
  1  3  1  0  0  0
  1 24  1  0  0  0
  1 25  1  0  0  0
  1 26  1  0  0  0
  2  3  2  0  0  0
  2 13  1  0  0  0
  3  5  1  0  0  0
  4 14  1  0  0  0
  4 15  1  0  0  0
  4 18  1  0  0  0
  4 27  1  0  0  0
  5  7  1  0  0  0
  5 14  1  0  0  0
  6 16  1  0  0  0
  6 17  1  0  0  0
  6 19  1  0  0  0
  7  9  1  0  0  0
  7 13  2  0  0  0
  8 19  2  0  0  0
  8 23  1  0  0  0
  9 10  2  0  0  0
  9 28  1  0  0  0
 10 11  1  0  0  0
 10 29  1  0  0  0
 11 12  2  0  0  0
 11 30  1  0  0  0
 12 13  1  0  0  0
 12 31  1  0  0  0
 14 32  1  0  0  0
 14 33  1  0  0  0
 15 16  1  0  0  0
 15 34  1  0  0  0
 15 35  1  0  0  0
 16 36  1  0  0  0
 16 37  1  0  0  0
 17 18  1  0  0  0
 17 38  1  0  0  0
 17 39  1  0  0  0
 18 40  1  0  0  0
 18 41  1  0  0  0
 19 20  1  0  0  0
 20 21  2  0  0  0
 20 42  1  0  0  0
 21 22  1  0  0  0
 21 43  1  0  0  0
 22 23  2  0  0  0
 22 44  1  0  0  0
 23 45  1  0  0  0
M  CHG  1   4   1
M  END
> <s_m_source_file>
../3rm8_ligand.sdf

> <i_m_source_file_index>
1

> <s_epik_input>
W2NIXTFbY0hdW2NIXVtjSF1jKGMxMilOPUMoW0NIM10pW0NIXTJbQ0gyXVtOSCtdM1tDSDJdW0NIMl1OKFtDSDJdW0NIMl0zKWM0bltjSF1bY0hdW2NIXVtjSF00

> <s_epik_cmdline>
J2VwaWtfYXBwJywgJy1pbWFlJywgJ2xpZ2FuZF9wcm8ubWFlJywgJy1vbWFlJywgJ2xpZ2FuZF9wcmVwLm1hZScsICctbXMnLCAnMScsICctcGgnLCAnNycsICctcGh0JywgJzAuNScsICctbnQn

> <r_lp_tautomer_probability>
1

> <r_epik_Ionization_Penalty>
  0.1200

> <r_epik_Ionization_Penalty_Charging>
  0.1163

> <r_epik_Ionization_Penalty_Neutral>
  0.0037

> <r_epik_State_Penalty>
 -0.0000

> <r_epik_Charging_Adjusted_Penalty>
0.116269127267077

> <i_epik_Tot_Q>
1

> <i_epik_Tot_abs_Q>
1

> <s_epik_Chemistry_Notes>
This compound has an imine and may undergo hydrolysis.

$$$$
