3rm9_ligand
                    3D
 Schrodinger Suite 2020-3.
 32 33  0  0  1  0            999 V2000
   33.7470   -7.2880    3.4640 C   0  0  0  0  0  0
   33.9840   -5.5510    5.1930 N   0  0  0  0  0  0
   33.6870  -11.2930    3.5750 Cl  0  0  0  0  0  0
   33.6740   -8.6330    3.0710 C   0  0  0  0  0  0
   33.8640   -2.7650    5.8930 N   0  0  0  0  0  0
   33.7700   -9.6350    4.0350 C   0  0  0  0  0  0
   33.8330   -0.3270    5.5670 N   0  3  0  0  0  0
   33.9390   -9.2950    5.3740 C   0  0  0  0  0  0
   31.9020   -1.3750    6.4540 N   0  0  0  0  0  0
   34.0120   -7.9450    5.7550 C   0  0  0  0  0  0
   33.9240   -6.8930    4.8150 C   0  0  0  0  0  0
   33.1150   -5.1070    6.2970 C   0  0  0  0  0  0
   33.6110   -3.8120    6.9330 C   0  0  0  0  0  0
   34.6960   -3.2100    4.7310 C   0  0  0  0  0  0
   34.1820   -4.5290    4.1440 C   0  0  0  0  0  0
   33.1780   -1.5180    5.8940 C   0  0  0  0  0  0
   33.6643   -6.5150    2.7000 H   0  0  0  0  0  0
   33.5433   -8.8921    2.0203 H   0  0  0  0  0  0
   34.8389   -0.3566    5.1229 H   0  0  0  0  0  0
   34.0149  -10.0779    6.1286 H   0  0  0  0  0  0
   31.3230   -2.2661    6.7380 H   0  0  0  0  0  0
   31.4790   -0.3716    6.6097 H   0  0  0  0  0  0
   34.1406   -7.7008    6.8095 H   0  0  0  0  0  0
   32.0978   -4.9336    5.9159 H   0  0  0  0  0  0
   33.0873   -5.8826    7.0765 H   0  0  0  0  0  0
   34.5438   -4.0213    7.4770 H   0  0  0  0  0  0
   32.8481   -3.4512    7.6386 H   0  0  0  0  0  0
   34.6653   -2.4431    3.9430 H   0  0  0  0  0  0
   35.7355   -3.3570    5.0592 H   0  0  0  0  0  0
   34.9176   -4.8930    3.4117 H   0  0  0  0  0  0
   33.2255   -4.3339    3.6370 H   0  0  0  0  0  0
   33.3424    0.6397    5.7538 H   0  0  0  0  0  0
  1  4  2  0  0  0
  1 11  1  0  0  0
  1 17  1  0  0  0
  2 11  1  0  0  0
  2 12  1  0  0  0
  2 15  1  0  0  0
  3  6  1  0  0  0
  4  6  1  0  0  0
  4 18  1  0  0  0
  5 13  1  0  0  0
  5 14  1  0  0  0
  5 16  1  0  0  0
  6  8  2  0  0  0
  7 16  2  0  0  0
  7 19  1  0  0  0
  7 32  1  0  0  0
  8 10  1  0  0  0
  8 20  1  0  0  0
  9 16  1  0  0  0
  9 21  1  0  0  0
  9 22  1  0  0  0
 10 11  2  0  0  0
 10 23  1  0  0  0
 12 13  1  0  0  0
 12 24  1  0  0  0
 12 25  1  0  0  0
 13 26  1  0  0  0
 13 27  1  0  0  0
 14 15  1  0  0  0
 14 28  1  0  0  0
 14 29  1  0  0  0
 15 30  1  0  0  0
 15 31  1  0  0  0
M  CHG  1   7   1
M  END
> <s_m_source_file>
../3rm9_ligand.sdf

> <i_m_source_file_index>
1

> <s_epik_input>
Q2xjMVtjSF1bY0hdYyhbY0hdW2NIXTEpTjJbQ0gyXVtDSDJdTihbQ0gyXVtDSDJdMilcQyg9TlxbSF0pW05IMl0=

> <s_epik_cmdline>
J2VwaWtfYXBwJywgJy1pbWFlJywgJ2xpZ2FuZF9wcm8ubWFlJywgJy1vbWFlJywgJ2xpZ2FuZF9wcmVwLm1hZScsICctbXMnLCAnMScsICctcGgnLCAnNycsICctcGh0JywgJzAuNScsICctbnQn

> <r_lp_tautomer_probability>
1

> <r_epik_Ionization_Penalty>
  0.0000

> <r_epik_Ionization_Penalty_Charging>
  0.0000

> <r_epik_Ionization_Penalty_Neutral>
  0.0000

> <r_epik_State_Penalty>
 -0.0000

> <r_epik_Charging_Adjusted_Penalty>
1.4578275301552e-05

> <i_epik_Tot_Q>
1

> <i_epik_Tot_abs_Q>
1

> <s_epik_Chemistry_Notes>
This compound has an imine and may undergo hydrolysis.

$$$$
