3rme_ligand
                    3D
 Schrodinger Suite 2020-3.
 39 40  0  0  1  0            999 V2000
    0.9820   49.5790   65.7470 C   0  0  0  0  0  0
    1.3740   48.0200   67.6120 N   0  0  0  0  0  0
    1.8610   45.7550   67.5550 O   0  0  0  0  0  0
    1.0000   48.1340   66.2110 C   0  0  0  0  0  0
    1.7620   47.4580   71.9170 N   0  0  0  0  0  0
    1.7740   46.8170   68.1680 C   0  0  0  0  0  0
    0.1110   48.1440   70.3280 N   0  0  0  0  0  0
    2.1270   46.8570   69.6150 C   0  0  0  0  0  0
   -2.4260   49.3510   69.9240 N   0  3  0  0  0  0
    3.3280   46.2230   69.9870 C   0  0  0  0  0  0
    3.7350   46.2090   71.3160 C   0  0  0  0  0  0
    2.9230   46.8370   72.2360 C   0  0  0  0  0  0
    1.3320   47.4850   70.6160 C   0  0  0  0  0  0
   -1.0000   47.3350   69.8090 C   0  0  0  0  0  0
   -1.9370   48.2420   69.0120 C   0  0  0  0  0  0
   -1.2910   50.1550   70.5250 C   0  0  0  0  0  0
   -0.3050   49.2310   71.2350 C   0  0  0  0  0  0
   -3.4040   50.2490   69.2190 C   0  0  0  0  0  0
    0.6953   49.6198   64.6858 H   0  0  0  0  0  0
    1.9830   50.0172   65.8735 H   0  0  0  0  0  0
    0.2547   50.1472   66.3454 H   0  0  0  0  0  0
    1.3438   48.9060   68.2632 H   0  0  0  0  0  0
   -0.0010   47.6958   66.0845 H   0  0  0  0  0  0
    1.7273   47.5657   65.6126 H   0  0  0  0  0  0
   -2.9555   48.8650   70.7567 H   0  0  0  0  0  0
    3.9428   45.7399   69.2276 H   0  0  0  0  0  0
    4.6609   45.7201   71.6191 H   0  0  0  0  0  0
    3.2331   46.8338   73.2810 H   0  0  0  0  0  0
   -0.6034   46.5427   69.1571 H   0  0  0  0  0  0
   -1.5457   46.8799   70.6487 H   0  0  0  0  0  0
   -2.7973   47.6629   68.6452 H   0  0  0  0  0  0
   -1.3988   48.6798   68.1583 H   0  0  0  0  0  0
   -0.7634   50.6978   69.7269 H   0  0  0  0  0  0
   -1.6960   50.8745   71.2519 H   0  0  0  0  0  0
   -0.7883   48.8013   72.1248 H   0  0  0  0  0  0
    0.5780   49.8110   71.5414 H   0  0  0  0  0  0
   -4.2166   49.6427   68.7923 H   0  0  0  0  0  0
   -2.8885   50.7910   68.4125 H   0  0  0  0  0  0
   -3.8224   50.9703   69.9364 H   0  0  0  0  0  0
  1  4  1  0  0  0
  1 19  1  0  0  0
  1 20  1  0  0  0
  1 21  1  0  0  0
  2  4  1  0  0  0
  2  6  1  0  0  0
  2 22  1  0  0  0
  3  6  2  0  0  0
  4 23  1  0  0  0
  4 24  1  0  0  0
  5 12  2  0  0  0
  5 13  1  0  0  0
  6  8  1  0  0  0
  7 13  1  0  0  0
  7 14  1  0  0  0
  7 17  1  0  0  0
  8 10  1  0  0  0
  8 13  2  0  0  0
  9 15  1  0  0  0
  9 16  1  0  0  0
  9 18  1  0  0  0
  9 25  1  0  0  0
 10 11  2  0  0  0
 10 26  1  0  0  0
 11 12  1  0  0  0
 11 27  1  0  0  0
 12 28  1  0  0  0
 14 15  1  0  0  0
 14 29  1  0  0  0
 14 30  1  0  0  0
 15 31  1  0  0  0
 15 32  1  0  0  0
 16 17  1  0  0  0
 16 33  1  0  0  0
 16 34  1  0  0  0
 17 35  1  0  0  0
 17 36  1  0  0  0
 18 37  1  0  0  0
 18 38  1  0  0  0
 18 39  1  0  0  0
M  CHG  1   9   1
M  END
> <s_m_source_file>
../3rme_ligand.sdf

> <i_m_source_file_index>
1

> <s_epik_input>
W0NIM11bQ0gyXVtOSF1DKD1PKWMxW2NIXVtjSF1bY0hdbmMxTjJbQ0gyXVtDSDJdW05IK10oW0NIM10pW0NIMl1bQ0gyXTI=

> <s_epik_cmdline>
J2VwaWtfYXBwJywgJy1pbWFlJywgJ2xpZ2FuZF9wcm8ubWFlJywgJy1vbWFlJywgJ2xpZ2FuZF9wcmVwLm1hZScsICctbXMnLCAnMScsICctcGgnLCAnNycsICctcGh0JywgJzAuNScsICctbnQn

> <r_lp_tautomer_probability>
1

> <r_epik_Ionization_Penalty>
  0.0736

> <r_epik_Ionization_Penalty_Charging>
  0.0736

> <r_epik_Ionization_Penalty_Neutral>
  0.0000

> <r_epik_State_Penalty>
  0.0647

> <r_epik_Charging_Adjusted_Penalty>
0.138319491229022

> <i_epik_Tot_Q>
1

> <i_epik_Tot_abs_Q>
1

$$$$
