3rni_ligand
                    3D
 Schrodinger Suite 2020-3.
 39 41  0  0  1  0            999 V2000
  -38.4130  118.2670   86.0070 N   0  0  0  0  0  0
  -37.1470  118.7870   84.1970 N   0  0  0  0  0  0
  -39.9700  117.4340   87.5180 N   0  0  0  0  0  0
  -34.6300  122.4010   81.6300 N   0  0  0  0  0  0
  -40.1260  116.8060   85.2660 C   0  0  0  0  0  0
  -39.5310  117.5010   86.3280 C   0  0  0  0  0  0
  -38.1560  118.1610   84.7150 C   0  0  0  0  0  0
  -41.2450  115.9660   85.3540 C   0  0  0  0  0  0
  -36.6380  118.6570   83.0000 C   0  0  0  0  0  0
  -41.5970  115.1100   84.3160 C   0  0  0  0  0  0
  -35.9690  119.7800   82.4490 C   0  0  0  0  0  0
  -35.3880  119.7170   81.1620 C   0  0  0  0  0  0
  -35.4650  118.5260   80.3910 C   0  0  0  0  0  0
  -36.1270  117.3810   80.9200 C   0  0  0  0  0  0
  -36.7100  117.4430   82.2210 C   0  0  0  0  0  0
  -40.6500  114.1880   83.7570 C   0  0  0  0  0  0
  -41.0310  113.3230   82.6930 C   0  0  0  0  0  0
  -42.3510  113.3660   82.1800 C   0  0  0  0  0  0
  -43.3000  114.2710   82.7270 C   0  0  0  0  0  0
  -42.9250  115.1410   83.7910 C   0  0  0  0  0  0
  -41.9250  115.9710   86.3700 O   0  0  0  0  0  0
  -33.1580  120.7970   80.2760 O   0  0  0  0  0  0
  -35.1860  121.5330   79.2490 O   0  0  0  0  0  0
  -39.2490  117.1460   83.8280 S   0  0  0  0  0  0
  -34.5530  121.1460   80.5080 S   0  0  0  0  0  0
  -36.6036  119.5387   84.7883 H   0  0  0  0  0  0
  -39.4712  117.9969   88.3207 H   0  0  0  0  0  0
  -40.8490  116.8131   87.7458 H   0  0  0  0  0  0
  -34.1142  123.2851   81.2271 H   0  0  0  0  0  0
  -34.1434  122.0871   82.5652 H   0  0  0  0  0  0
  -35.9022  120.7028   83.0252 H   0  0  0  0  0  0
  -35.0186  118.4886   79.3973 H   0  0  0  0  0  0
  -36.1878  116.4634   80.3348 H   0  0  0  0  0  0
  -37.2137  116.5672   82.6301 H   0  0  0  0  0  0
  -39.6338  114.1500   84.1493 H   0  0  0  0  0  0
  -40.3061  112.6263   82.2721 H   0  0  0  0  0  0
  -42.6391  112.7034   81.3639 H   0  0  0  0  0  0
  -44.3156  114.2996   82.3323 H   0  0  0  0  0  0
  -43.6559  115.8345   84.2069 H   0  0  0  0  0  0
  1  6  1  0  0  0
  1  7  2  0  0  0
  2  7  1  0  0  0
  2  9  1  0  0  0
  2 26  1  0  0  0
  3  6  1  0  0  0
  3 27  1  0  0  0
  3 28  1  0  0  0
  4 25  1  0  0  0
  4 29  1  0  0  0
  4 30  1  0  0  0
  5  6  2  0  0  0
  5  8  1  0  0  0
  5 24  1  0  0  0
  7 24  1  0  0  0
  8 10  1  0  0  0
  8 21  2  0  0  0
  9 11  2  0  0  0
  9 15  1  0  0  0
 10 16  2  0  0  0
 10 20  1  0  0  0
 11 12  1  0  0  0
 11 31  1  0  0  0
 12 13  2  0  0  0
 12 25  1  0  0  0
 13 14  1  0  0  0
 13 32  1  0  0  0
 14 15  2  0  0  0
 14 33  1  0  0  0
 15 34  1  0  0  0
 16 17  1  0  0  0
 16 35  1  0  0  0
 17 18  2  0  0  0
 17 36  1  0  0  0
 18 19  1  0  0  0
 18 37  1  0  0  0
 19 20  2  0  0  0
 19 38  1  0  0  0
 20 39  1  0  0  0
 22 25  2  0  0  0
 23 25  2  0  0  0
M  END
> <s_m_source_file>
../3rni_ligand.sdf

> <i_m_source_file_index>
1

> <s_epik_input>
W2NIXTFbY0hdW2NIXWMoUyg9TykoPU8pW05IMl0pW2NIXWMxW05IXWMoczIpbmMoW05IMl0pYzJDKD1PKWMzW2NIXVtjSF1bY0hdW2NIXVtjSF0z

> <s_epik_cmdline>
J2VwaWtfYXBwJywgJy1pbWFlJywgJ2xpZ2FuZF9wcm8ubWFlJywgJy1vbWFlJywgJ2xpZ2FuZF9wcmVwLm1hZScsICctbXMnLCAnMScsICctcGgnLCAnNycsICctcGh0JywgJzAuNScsICctbnQn

> <r_lp_tautomer_probability>
1

> <r_epik_Ionization_Penalty>
  0.0008

> <r_epik_Ionization_Penalty_Charging>
  0.0000

> <r_epik_Ionization_Penalty_Neutral>
  0.0008

> <r_epik_State_Penalty>
 -0.0000

> <r_epik_Charging_Adjusted_Penalty>
0

> <i_epik_Tot_Q>
0

> <i_epik_Tot_abs_Q>
0

$$$$
