3ro0_ligand
                    3D
 Schrodinger Suite 2020-3.
 30 34  0  0  1  0            999 V2000
   25.1930   -4.6850   23.7280 Pt  0  0  0  0  0  0
   25.7830   -5.8210   25.3020 N   0  0  0  0  0  0
   27.0530   -5.1900   23.1760 N   0  0  0  0  0  0
   25.3670   -3.7160   21.8940 N   0  0  0  0  0  0
   24.9930   -6.0700   26.3810 C   0  0  0  0  0  0
   25.4320   -6.8040   27.4450 C   0  0  0  0  0  0
   26.7370   -7.3000   27.3810 C   0  0  0  0  0  0
   27.5120   -7.0540   26.2820 C   0  0  0  0  0  0
   27.0660   -6.3040   25.2030 C   0  0  0  0  0  0
   27.8220   -5.9550   23.9480 C   0  0  0  0  0  0
   29.1130   -6.3160   23.5760 C   0  0  0  0  0  0
   29.6260   -5.8620   22.3440 C   0  0  0  0  0  0
   28.8710   -5.0570   21.5110 C   0  0  0  0  0  0
   27.5650   -4.7200   21.9430 C   0  0  0  0  0  0
   26.5890   -3.8760   21.2370 C   0  0  0  0  0  0
   26.8190   -3.2450   19.9860 C   0  0  0  0  0  0
   25.8140   -2.4560   19.4150 C   0  0  0  0  0  0
   24.5400   -2.2760   20.0800 C   0  0  0  0  0  0
   24.3950   -2.9530   21.3330 C   0  0  0  0  0  0
   23.9723   -5.6598   26.3794 H   0  0  0  0  0  0
   24.7664   -6.9820   28.3025 H   0  0  0  0  0  0
   27.1378   -7.8843   28.2092 H   0  0  0  0  0  0
   28.5270   -7.4780   26.2751 H   0  0  0  0  0  0
   29.7203   -6.9483   24.2403 H   0  0  0  0  0  0
   30.6334   -6.1500   22.0434 H   0  0  0  0  0  0
   29.2459   -4.6808   20.5477 H   0  0  0  0  0  0
   27.7823   -3.3778   19.4719 H   0  0  0  0  0  0
   25.9926   -1.9699   18.4559 H   0  0  0  0  0  0
   23.7127   -1.6687   19.6840 H   0  0  0  0  0  0
   23.4545   -2.8699   21.8975 H   0  0  0  0  0  0
  1  3  1  0  0  0
  1  2  1  0  0  0
  1  4  1  0  0  0
  2  5  1  0  0  0
  2  9  1  0  0  0
  3 10  1  0  0  0
  3 14  1  0  0  0
  4 15  1  0  0  0
  4 19  1  0  0  0
  5  6  2  0  0  0
  5 20  1  0  0  0
  6  7  1  0  0  0
  6 21  1  0  0  0
  7  8  1  0  0  0
  7 22  1  0  0  0
  8  9  2  0  0  0
  8 23  1  0  0  0
  9 10  1  0  0  0
 10 11  2  0  0  0
 11 12  1  0  0  0
 11 24  1  0  0  0
 12 13  1  0  0  0
 12 25  1  0  0  0
 13 14  2  0  0  0
 13 26  1  0  0  0
 14 15  1  0  0  0
 15 16  2  0  0  0
 16 17  1  0  0  0
 16 27  1  0  0  0
 17 18  1  0  0  0
 17 28  1  0  0  0
 18 19  2  0  0  0
 18 29  1  0  0  0
 19 30  1  0  0  0
M  END
> <s_m_source_file>
../3ro0_ligand.sdf

> <i_m_source_file_index>
1

> <s_epik_input>
W0NIXTE9W0NIXVtDSDJdW0NIXT1DKE4xW1B0SF0yMylDPTROMkMoPVtDSF1bQ0gyXVtDSF00KUM9NU4zW0NIXT1bQ0hdW0NIMl1bQ0hdNQ==

> <s_epik_cmdline>
J2VwaWtfYXBwJywgJy1pbWFlJywgJ2xpZ2FuZF9wcm8ubWFlJywgJy1vbWFlJywgJ2xpZ2FuZF9wcmVwLm1hZScsICctbXMnLCAnMScsICctcGgnLCAnNycsICctcGh0JywgJzAuNScsICctbnQn

> <r_lp_tautomer_probability>
1

> <r_epik_Ionization_Penalty>
  0.0000

> <r_epik_Ionization_Penalty_Charging>
  0.0000

> <r_epik_Ionization_Penalty_Neutral>
  0.0000

> <r_epik_State_Penalty>
 -0.0000

> <r_epik_Charging_Adjusted_Penalty>
1.92864420988128e-13

> <i_epik_Tot_Q>
0

> <i_epik_Tot_abs_Q>
0

> <s_epik_Chemistry_Notes>
This compound has an imine and may undergo hydrolysis.

$$$$
