3ro4_ligand
                    3D
 Schrodinger Suite 2020-3.
 50 54  0  0  1  0            999 V2000
   -3.0550   -1.1770   14.9330 C   0  0  0  0  0  0
   -2.5950   -0.2820   16.0660 C   0  0  0  0  0  0
   -3.2710   -0.6370   17.3350 C   0  0  0  0  0  0
   -3.2020   -1.8140   17.9670 N   0  0  0  0  0  0
   -4.0530   -1.7250   19.0450 N   0  0  0  0  0  0
   -4.7530   -0.5080   19.0580 C   0  0  0  0  0  0
   -5.7230    0.0290   19.9160 C   0  0  0  0  0  0
   -6.1670    1.3200   19.6600 C   0  0  0  0  0  0
   -5.6530    2.0670   18.5530 C   0  0  0  0  0  0
   -4.6990    1.5270   17.7220 C   0  0  0  0  0  0
   -4.2370    0.2460   17.9650 C   0  0  0  0  0  0
   -7.2030    1.8440   20.5260 N   0  0  0  0  0  0
   -8.0690    3.0280   20.2160 C   0  0  0  0  0  0
   -9.2820    2.8920   21.1650 C   0  0  2  0  0  0
   -9.1870    3.7230   22.4590 C   0  0  0  0  0  0
   -9.0090    2.7510   23.5660 N   0  3  0  0  0  0
   -9.6220    1.4770   23.1320 C   0  0  0  0  0  0
   -9.3480    1.4180   21.6220 C   0  0  2  0  0  0
   -7.9730    0.8120   21.2950 C   0  0  0  0  0  0
   -4.3130   -2.8350   19.9380 C   0  0  0  0  0  0
   -4.5320   -4.0940   19.3900 C   0  0  0  0  0  0
   -4.8650   -5.1560   20.2310 C   0  0  0  0  0  0
   -4.9810   -4.9660   21.6000 C   0  0  0  0  0  0
   -4.7710   -3.7030   22.1340 C   0  0  0  0  0  0
   -4.4420   -2.6290   21.3100 C   0  0  0  0  0  0
   -2.5371   -0.8903   14.0059 H   0  0  0  0  0  0
   -4.1408   -1.0661   14.7958 H   0  0  0  0  0  0
   -2.8210   -2.2243   15.1749 H   0  0  0  0  0  0
   -1.5092   -0.3929   16.2032 H   0  0  0  0  0  0
   -2.8289    0.7653   15.8241 H   0  0  0  0  0  0
   -6.1150   -0.5464   20.7546 H   0  0  0  0  0  0
   -6.0217    3.0756   18.3661 H   0  0  0  0  0  0
   -4.3113    2.1022   16.8812 H   0  0  0  0  0  0
   -7.5059    3.9538   20.4054 H   0  0  0  0  0  0
   -8.3730    2.9934   19.1594 H   0  0  0  0  0  0
  -10.1561    3.2488   20.6006 H   0  0  0  0  0  0
   -8.3286    4.4076   22.3929 H   0  0  0  0  0  0
  -10.1111    4.3052   22.5896 H   0  0  0  0  0  0
   -7.9359    2.6157   23.7661 H   0  0  0  0  0  0
   -9.5057    3.1309   24.4710 H   0  0  0  0  0  0
   -9.1497    0.6412   23.6690 H   0  0  0  0  0  0
  -10.6991    1.4938   23.3545 H   0  0  0  0  0  0
  -10.1223    0.8029   21.1403 H   0  0  0  0  0  0
   -8.0862   -0.0938   20.6812 H   0  0  0  0  0  0
   -7.4308    0.5632   22.2192 H   0  0  0  0  0  0
   -4.4444   -4.2495   18.3147 H   0  0  0  0  0  0
   -5.0359   -6.1458   19.8077 H   0  0  0  0  0  0
   -5.2351   -5.8024   22.2511 H   0  0  0  0  0  0
   -4.8644   -3.5494   23.2091 H   0  0  0  0  0  0
   -4.2870   -1.6371   21.7345 H   0  0  0  0  0  0
  1  2  1  0  0  0
  1 26  1  0  0  0
  1 27  1  0  0  0
  1 28  1  0  0  0
  2  3  1  0  0  0
  2 29  1  0  0  0
  2 30  1  0  0  0
  3  4  2  0  0  0
  3 11  1  0  0  0
  4  5  1  0  0  0
  5  6  1  0  0  0
  5 20  1  0  0  0
  6  7  1  0  0  0
  6 11  2  0  0  0
  7  8  2  0  0  0
  7 31  1  0  0  0
  8  9  1  0  0  0
  8 12  1  0  0  0
  9 10  2  0  0  0
  9 32  1  0  0  0
 10 11  1  0  0  0
 10 33  1  0  0  0
 12 13  1  0  0  0
 12 19  1  0  0  0
 13 14  1  0  0  0
 13 34  1  0  0  0
 13 35  1  0  0  0
 14 15  1  0  0  0
 14 18  1  0  0  0
 14 36  1  0  0  0
 15 16  1  0  0  0
 15 37  1  0  0  0
 15 38  1  0  0  0
 16 17  1  0  0  0
 16 39  1  0  0  0
 16 40  1  0  0  0
 17 18  1  0  0  0
 17 41  1  0  0  0
 17 42  1  0  0  0
 18 19  1  0  0  0
 18 43  1  0  0  0
 19 44  1  0  0  0
 19 45  1  0  0  0
 20 21  2  0  0  0
 20 25  1  0  0  0
 21 22  1  0  0  0
 21 46  1  0  0  0
 22 23  2  0  0  0
 22 47  1  0  0  0
 23 24  1  0  0  0
 23 48  1  0  0  0
 24 25  2  0  0  0
 24 49  1  0  0  0
 25 50  1  0  0  0
M  CHG  1  16   1
M  END
> <s_m_source_file>
../3ro4_ligand.sdf

> <i_m_source_file_index>
1

> <s_epik_input>
W2NIXTFbY0hdW2NIXVtjSF1bY0hdYzEtbjJuYyhbQ0gyXVtDSDNdKWMoYzIzKVtjSF1bY0hdYyhbY0hdMylOKFtDSDJdNClbQ0gyXVtDQEhdKFtDQEhdNDUpW0NIMl1bTkgyK11bQ0gyXTU=

> <s_epik_cmdline>
J2VwaWtfYXBwJywgJy1pbWFlJywgJ2xpZ2FuZF9wcm8ubWFlJywgJy1vbWFlJywgJ2xpZ2FuZF9wcmVwLm1hZScsICctbXMnLCAnMScsICctcGgnLCAnNycsICctcGh0JywgJzAuNScsICctbnQn

> <r_lp_tautomer_probability>
1

> <r_epik_Ionization_Penalty>
  0.0001

> <r_epik_Ionization_Penalty_Charging>
  0.0001

> <r_epik_Ionization_Penalty_Neutral>
  0.0001

> <r_epik_State_Penalty>
 -0.0000

> <r_epik_Charging_Adjusted_Penalty>
8.17528599988246e-05

> <i_epik_Tot_Q>
1

> <i_epik_Tot_abs_Q>
1

$$$$
