3roc_ligand
                    3D
 Schrodinger Suite 2020-3.
 49 51  0  0  1  0            999 V2000
   36.8870   36.7870   18.1310 C   0  0  0  0  0  0
   38.2200   37.1920   17.9860 C   0  0  0  0  0  0
   38.7510   37.4070   16.7260 C   0  0  0  0  0  0
   37.9560   37.2110   15.6040 C   0  0  0  0  0  0
   36.6310   36.7870   15.7400 C   0  0  0  0  0  0
   36.1010   36.5780   17.0020 C   0  0  0  0  0  0
   36.2810   36.6050   19.5050 C   0  0  0  0  0  0
   35.7810   37.9510   19.9070 O   0  0  0  0  0  0
   35.4370   38.2350   21.1970 C   0  0  0  0  0  0
   35.1970   39.5500   21.5660 C   0  0  0  0  0  0
   34.8120   39.8480   23.0070 C   0  0  0  0  0  0
   34.7280   38.7530   23.8450 N   0  0  0  0  0  0
   35.0240   37.3930   23.2710 C   0  0  0  0  0  0
   35.3470   37.2420   22.0290 N   0  0  0  0  0  0
   34.3650   38.8340   25.2370 C   0  0  0  0  0  0
   33.1060   38.3730   25.7090 C   0  0  0  0  0  0
   32.8080   38.4620   27.0650 C   0  0  0  0  0  0
   33.7310   39.0160   27.9400 C   0  0  0  0  0  0
   34.9860   39.4880   27.4900 C   0  0  0  0  0  0
   35.2770   39.3840   26.1350 C   0  0  0  0  0  0
   38.9780   37.3920   19.0810 F   0  0  0  0  0  0
   38.4470   37.4370   14.3820 F   0  0  0  0  0  0
   35.3180   40.8440   20.4400 Cl  0  0  0  0  0  0
   34.5910   41.0350   23.3560 O   0  0  0  0  0  0
   31.9470   37.9380   24.7980 C   0  0  0  0  0  0
   35.9450   40.0840   28.4960 C   0  0  0  0  0  0
   36.8810   40.7910   28.1070 O   0  0  0  0  0  0
   35.7400   39.8540   29.8120 N   0  0  0  0  0  0
   36.6350   39.0280   30.6490 C   0  0  0  0  0  0
   36.0680   37.6100   30.8450 C   0  0  0  0  0  0
   34.6420   37.6370   30.8830 O   0  0  0  0  0  0
   39.7867   37.7282   16.6149 H   0  0  0  0  0  0
   36.0167   36.6213   14.8550 H   0  0  0  0  0  0
   35.0674   36.2495   17.1111 H   0  0  0  0  0  0
   35.4611   35.8737   19.4502 H   0  0  0  0  0  0
   37.0515   36.2405   20.2003 H   0  0  0  0  0  0
   34.9646   36.5170   23.9169 H   0  0  0  0  0  0
   31.8514   38.0972   27.4391 H   0  0  0  0  0  0
   33.4833   39.0892   28.9989 H   0  0  0  0  0  0
   36.2392   39.7403   25.7671 H   0  0  0  0  0  0
   32.2942   37.9021   23.7548 H   0  0  0  0  0  0
   31.1215   38.6597   24.8851 H   0  0  0  0  0  0
   31.5959   36.9409   25.1022 H   0  0  0  0  0  0
   34.8486   40.3216   30.2556 H   0  0  0  0  0  0
   37.6191   38.9471   30.1642 H   0  0  0  0  0  0
   36.7504   39.4980   31.6368 H   0  0  0  0  0  0
   36.3890   36.9683   30.0112 H   0  0  0  0  0  0
   36.4407   37.1938   31.7925 H   0  0  0  0  0  0
   34.0776   36.7025   31.0177 H   0  0  0  0  0  0
  1  2  2  0  0  0
  1  6  1  0  0  0
  1  7  1  0  0  0
  2  3  1  0  0  0
  2 21  1  0  0  0
  3  4  2  0  0  0
  3 32  1  0  0  0
  4  5  1  0  0  0
  4 22  1  0  0  0
  5  6  2  0  0  0
  5 33  1  0  0  0
  6 34  1  0  0  0
  7  8  1  0  0  0
  7 35  1  0  0  0
  7 36  1  0  0  0
  8  9  1  0  0  0
  9 10  2  0  0  0
  9 14  1  0  0  0
 10 11  1  0  0  0
 10 23  1  0  0  0
 11 12  1  0  0  0
 11 24  2  0  0  0
 12 13  1  0  0  0
 12 15  1  0  0  0
 13 14  2  0  0  0
 13 37  1  0  0  0
 15 16  2  0  0  0
 15 20  1  0  0  0
 16 17  1  0  0  0
 16 25  1  0  0  0
 17 18  2  0  0  0
 17 38  1  0  0  0
 18 19  1  0  0  0
 18 39  1  0  0  0
 19 20  2  0  0  0
 19 26  1  0  0  0
 20 40  1  0  0  0
 25 41  1  0  0  0
 25 42  1  0  0  0
 25 43  1  0  0  0
 26 27  2  0  0  0
 26 28  1  0  0  0
 28 29  1  0  0  0
 28 44  1  0  0  0
 29 30  1  0  0  0
 29 45  1  0  0  0
 29 46  1  0  0  0
 30 31  1  0  0  0
 30 47  1  0  0  0
 30 48  1  0  0  0
 31 49  1  0  0  0
M  END
> <s_m_source_file>
../3roc_ligand.sdf

> <i_m_source_file_index>
1

> <s_epik_input>
W2NIXTFbY0hdYyhGKVtjSF1jKEYpYzFbQ0gyXU9jMmMoQ2wpYyg9TyluKFtjSF1uMiktYzNjKFtDSDNdKVtjSF1bY0hdYyhbY0hdMylDKD1PKVtOSF1bQ0gyXVtDSDJdW09IXQ==

> <s_epik_cmdline>
J2VwaWtfYXBwJywgJy1pbWFlJywgJ2xpZ2FuZF9wcm8ubWFlJywgJy1vbWFlJywgJ2xpZ2FuZF9wcmVwLm1hZScsICctbXMnLCAnMScsICctcGgnLCAnNycsICctcGh0JywgJzAuNScsICctbnQn

> <r_lp_tautomer_probability>
1

> <r_epik_Ionization_Penalty>
  0.0000

> <r_epik_Ionization_Penalty_Charging>
  0.0000

> <r_epik_Ionization_Penalty_Neutral>
  0.0000

> <r_epik_State_Penalty>
 -0.0000

> <r_epik_Charging_Adjusted_Penalty>
1.99526268533006e-10

> <i_epik_Tot_Q>
0

> <i_epik_Tot_abs_Q>
0

$$$$
