3rq7_ligand
                    3D
 Schrodinger Suite 2020-3.
122124  0  0  1  0            999 V2000
    7.2440   28.9160   14.1520 C   0  0  0  0  0  0
    6.9900   29.3510   15.2700 O   0  0  0  0  0  0
    8.6130   29.0310   13.5070 C   0  0  0  0  0  0
    6.3150   28.1580   13.5460 N   0  0  0  0  0  0
    4.9600   27.9030   14.0860 C   0  0  2  0  0  0
    4.9570   27.0540   15.3320 C   0  0  0  0  0  0
    5.8230   26.2270   15.5570 O   0  0  0  0  0  0
    4.1910   27.1690   12.9760 C   0  0  0  0  0  0
    5.2690   26.6200   12.0110 C   0  0  0  0  0  0
    6.5350   27.4290   12.2790 C   0  0  0  0  0  0
    3.9920   27.4060   16.2030 N   0  0  0  0  0  0
    3.8480   26.7270   17.4980 C   0  0  2  0  0  0
    2.8020   25.6220   17.4930 C   0  0  0  0  0  0
    2.5430   24.9480   18.4900 O   0  0  0  0  0  0
    3.4670   27.7170   18.5830 C   0  0  0  0  0  0
    4.6680   28.6060   18.9150 C   0  0  0  0  0  0
    4.3520   29.5630   20.0840 C   0  0  0  0  0  0
    5.7930   27.7880   19.4720 C   0  0  0  0  0  0
    1.3830   23.9220   14.6740 C   0  0  0  0  0  0
    2.2080   25.4240   16.3190 N   0  0  0  0  0  0
    1.7610   24.7130   13.7770 O   0  0  0  0  0  0
    1.3210   24.2790   16.1250 C   0  0  1  0  0  0
   -0.0970   24.5620   16.6020 C   0  0  0  0  0  0
   -0.6960   25.8500   16.0620 C   0  0  0  0  0  0
   -0.2410   27.1950   18.1470 C   0  0  0  0  0  0
   -1.3630   26.7700   19.0610 C   0  0  0  0  0  0
   -0.9440   26.8720   20.5280 C   0  0  0  0  0  0
   -2.1460   26.4860   21.3890 C   0  0  0  0  0  0
   -1.5100   26.1690   22.6990 C   0  0  0  0  0  0
   -2.6790   25.8980   23.6730 C   0  0  0  0  0  0
   -3.2030   24.4480   23.4200 C   0  0  0  0  0  0
   -4.2400   24.0310   24.4750 C   0  0  0  0  0  0
   -3.7560   24.0260   25.9130 C   0  0  0  0  0  0
   -4.1320   25.0110   26.8210 C   0  0  0  0  0  0
   -3.6360   24.9420   28.1190 C   0  0  0  0  0  0
   -2.7540   23.9460   28.5000 C   0  0  0  0  0  0
   -2.3690   22.9560   27.6100 C   0  0  0  0  0  0
   -2.8710   23.0320   26.3230 C   0  0  0  0  0  0
   -0.7280   27.0380   16.7750 N   0  0  0  0  0  0
   -1.2970   26.0740   14.8710 C   0  0  0  0  0  0
   -1.3750   27.9490   15.9690 C   0  0  0  0  0  0
   -1.7170   27.3790   14.8530 N   0  3  0  0  0  0
    0.8250   22.7420   14.3540 N   0  0  0  0  0  0
    0.7840   22.2150   12.9910 C   0  0  2  0  0  0
   -0.2770   22.9430   12.2340 C   0  0  0  0  0  0
   -1.0720   23.7920   12.7080 O   0  0  0  0  0  0
    0.6170   20.6670   13.0380 C   0  0  0  0  0  0
   -0.6060   20.3570   13.7000 O   0  0  0  0  0  0
   -0.3660   22.6250   10.9380 N   0  0  0  0  0  0
   -1.2390   23.3160   10.0410 C   0  0  1  0  0  0
   -0.9730   22.8110    8.6130 C   0  0  1  0  0  0
   -1.7710   23.7000    7.6500 C   0  0  0  0  0  0
    0.3960   23.0190    8.3420 O   0  0  0  0  0  0
    1.3120   21.6710    8.1060 P   0  0  0  0  0  0
    0.6760   20.9280    6.9960 O   0  0  0  0  0  0
    2.6810   22.2750    7.7760 O   0  5  0  0  0  0
    1.3420   20.9340    9.4290 O   0  5  0  0  0  0
   -2.6880   23.2020   10.3350 C   0  0  0  0  0  0
   -3.2070   22.1520   10.5660 O   0  0  0  0  0  0
   -3.3990   24.3460   10.2980 N   0  0  0  0  0  0
    9.2539   29.6813   14.1205 H   0  0  0  0  0  0
    8.5090   29.4627   12.5006 H   0  0  0  0  0  0
    9.0682   28.0324   13.4324 H   0  0  0  0  0  0
    4.5340   28.8733   14.3812 H   0  0  0  0  0  0
    3.5979   26.3546   13.4177 H   0  0  0  0  0  0
    3.5203   27.8758   12.4655 H   0  0  0  0  0  0
    5.4328   25.5514   12.2140 H   0  0  0  0  0  0
    4.9308   26.7483   10.9722 H   0  0  0  0  0  0
    6.7171   28.1497   11.4682 H   0  0  0  0  0  0
    7.4071   26.7668   12.3836 H   0  0  0  0  0  0
    3.3038   28.2192   15.9288 H   0  0  0  0  0  0
    4.8434   26.2894   17.6648 H   0  0  0  0  0  0
    2.6350   28.3446   18.2310 H   0  0  0  0  0  0
    3.1573   27.1703   19.4859 H   0  0  0  0  0  0
    4.9324   29.1119   17.9747 H   0  0  0  0  0  0
    3.5261   30.2309   19.7980 H   0  0  0  0  0  0
    5.2440   30.1624   20.3185 H   0  0  0  0  0  0
    4.0607   28.9776   20.9686 H   0  0  0  0  0  0
    6.1177   27.0521   18.7217 H   0  0  0  0  0  0
    5.4519   27.2633   20.3766 H   0  0  0  0  0  0
    6.6353   28.4481   19.7266 H   0  0  0  0  0  0
    2.3873   26.1271   15.4923 H   0  0  0  0  0  0
    1.6881   23.4408   16.7355 H   0  0  0  0  0  0
   -0.7602   23.7430   16.2867 H   0  0  0  0  0  0
   -0.1062   24.6394   17.6992 H   0  0  0  0  0  0
    0.0202   28.2440   18.3503 H   0  0  0  0  0  0
    0.6377   26.5574   18.3241 H   0  0  0  0  0  0
   -2.2352   27.4200   18.8975 H   0  0  0  0  0  0
   -1.6373   25.7270   18.8444 H   0  0  0  0  0  0
   -0.1045   26.1871   20.7180 H   0  0  0  0  0  0
   -0.6330   27.9036   20.7497 H   0  0  0  0  0  0
   -2.8439   27.3344   21.4457 H   0  0  0  0  0  0
   -2.6561   25.6210   20.9399 H   0  0  0  0  0  0
   -0.8660   25.2840   22.5893 H   0  0  0  0  0  0
   -0.9034   27.0253   23.0289 H   0  0  0  0  0  0
   -2.3228   25.9947   24.7092 H   0  0  0  0  0  0
   -3.4832   26.6264   23.4923 H   0  0  0  0  0  0
   -3.6759   24.3969   22.4282 H   0  0  0  0  0  0
   -2.3610   23.7414   23.4616 H   0  0  0  0  0  0
   -5.0952   24.7220   24.4417 H   0  0  0  0  0  0
   -4.5865   23.0084   24.2645 H   0  0  0  0  0  0
   -4.8002   25.8186   26.5220 H   0  0  0  0  0  0
   -3.9483   25.6873   28.8505 H   0  0  0  0  0  0
   -2.3563   23.9401   29.5149 H   0  0  0  0  0  0
   -1.6987   22.1510   27.9113 H   0  0  0  0  0  0
   -2.5599   22.2803   25.5976 H   0  0  0  0  0  0
   -1.4246   25.3470   14.0690 H   0  0  0  0  0  0
   -1.5702   28.9896   16.2283 H   0  0  0  0  0  0
    0.3844   22.1649   15.1803 H   0  0  0  0  0  0
    1.7260   22.4475   12.4728 H   0  0  0  0  0  0
    0.5971   20.2691   12.0127 H   0  0  0  0  0  0
    1.4608   20.2237   13.5870 H   0  0  0  0  0  0
   -0.9076   19.3078   13.8352 H   0  0  0  0  0  0
    0.2619   21.8008   10.5686 H   0  0  0  0  0  0
   -0.9895   24.3702   10.2317 H   0  0  0  0  0  0
   -1.1773   21.7380    8.4831 H   0  0  0  0  0  0
   -2.8473   23.5642    7.8323 H   0  0  0  0  0  0
   -1.5365   23.4195    6.6125 H   0  0  0  0  0  0
   -1.5012   24.7536    7.8149 H   0  0  0  0  0  0
   -2.8953   25.2999   10.0827 H   0  0  0  0  0  0
   -4.4831   24.3260   10.4831 H   0  0  0  0  0  0
   -2.2513   27.7728   13.9758 H   0  0  0  0  0  0
  1  2  2  0  0  0
  1  3  1  0  0  0
  1  4  1  0  0  0
  3 61  1  0  0  0
  3 62  1  0  0  0
  3 63  1  0  0  0
  4  5  1  0  0  0
  4 10  1  0  0  0
  5  6  1  0  0  0
  5  8  1  0  0  0
  5 64  1  0  0  0
  6  7  2  0  0  0
  6 11  1  0  0  0
  8  9  1  0  0  0
  8 65  1  0  0  0
  8 66  1  0  0  0
  9 10  1  0  0  0
  9 67  1  0  0  0
  9 68  1  0  0  0
 10 69  1  0  0  0
 10 70  1  0  0  0
 11 12  1  0  0  0
 11 71  1  0  0  0
 12 13  1  0  0  0
 12 15  1  0  0  0
 12 72  1  0  0  0
 13 14  2  0  0  0
 13 20  1  0  0  0
 15 16  1  0  0  0
 15 73  1  0  0  0
 15 74  1  0  0  0
 16 17  1  0  0  0
 16 18  1  0  0  0
 16 75  1  0  0  0
 17 76  1  0  0  0
 17 77  1  0  0  0
 17 78  1  0  0  0
 18 79  1  0  0  0
 18 80  1  0  0  0
 18 81  1  0  0  0
 19 21  2  0  0  0
 19 22  1  0  0  0
 19 43  1  0  0  0
 20 22  1  0  0  0
 20 82  1  0  0  0
 22 23  1  0  0  0
 22 83  1  0  0  0
 23 24  1  0  0  0
 23 84  1  0  0  0
 23 85  1  0  0  0
 24 39  1  0  0  0
 24 40  2  0  0  0
 25 26  1  0  0  0
 25 39  1  0  0  0
 25 86  1  0  0  0
 25 87  1  0  0  0
 26 27  1  0  0  0
 26 88  1  0  0  0
 26 89  1  0  0  0
 27 28  1  0  0  0
 27 90  1  0  0  0
 27 91  1  0  0  0
 28 29  1  0  0  0
 28 92  1  0  0  0
 28 93  1  0  0  0
 29 30  1  0  0  0
 29 94  1  0  0  0
 29 95  1  0  0  0
 30 31  1  0  0  0
 30 96  1  0  0  0
 30 97  1  0  0  0
 31 32  1  0  0  0
 31 98  1  0  0  0
 31 99  1  0  0  0
 32 33  1  0  0  0
 32100  1  0  0  0
 32101  1  0  0  0
 33 34  2  0  0  0
 33 38  1  0  0  0
 34 35  1  0  0  0
 34102  1  0  0  0
 35 36  2  0  0  0
 35103  1  0  0  0
 36 37  1  0  0  0
 36104  1  0  0  0
 37 38  2  0  0  0
 37105  1  0  0  0
 38106  1  0  0  0
 39 41  1  0  0  0
 40 42  1  0  0  0
 40107  1  0  0  0
 41 42  2  0  0  0
 41108  1  0  0  0
 42122  1  0  0  0
 43 44  1  0  0  0
 43109  1  0  0  0
 44 45  1  0  0  0
 44 47  1  0  0  0
 44110  1  0  0  0
 45 46  2  0  0  0
 45 49  1  0  0  0
 47 48  1  0  0  0
 47111  1  0  0  0
 47112  1  0  0  0
 48113  1  0  0  0
 49 50  1  0  0  0
 49114  1  0  0  0
 50 51  1  0  0  0
 50 58  1  0  0  0
 50115  1  0  0  0
 51 52  1  0  0  0
 51 53  1  0  0  0
 51116  1  0  0  0
 52117  1  0  0  0
 52118  1  0  0  0
 52119  1  0  0  0
 53 54  1  0  0  0
 54 55  2  0  0  0
 54 56  1  0  0  0
 54 57  1  0  0  0
 58 59  2  0  0  0
 58 60  1  0  0  0
 60120  1  0  0  0
 60121  1  0  0  0
M  CHG  3  42   1  56  -1  57  -1
M  END
> <s_m_source_file>
../3rq7_ligand.sdf

> <i_m_source_file_index>
1

> <s_epik_input>
Tz1QKFtPSF0pKFtPSF0pT1tDQEhdKFtDSDNdKVtDQEBIXShDKD1PKVtOSDJdKVtOSF1DKD1PKVtDQEhdKFtDSDJdW09IXSlbTkhdQyg9TylbQ0BASF0oW05IXUMoPU8pW0NASF0oW0NIMl1bQ0hdKFtDSDNdKVtDSDNdKVtOSF1DKD1PKVtDQEBIXShOMUMoPU8pW0NIM10pW0NIMl1bQ0gyXVtDSDJdMSlbQ0gyXWMybihbY0hdbltjSF0yKVtDSDJdW0NIMl1bQ0gyXVtDSDJdW0NIMl1bQ0gyXVtDSDJdW0NIMl1jM1tjSF1bY0hdW2NIXVtjSF1bY0hdMw==

> <s_epik_cmdline>
J2VwaWtfYXBwJywgJy1pbWFlJywgJ2xpZ2FuZF9wcm8ubWFlJywgJy1vbWFlJywgJ2xpZ2FuZF9wcmVwLm1hZScsICctbXMnLCAnMScsICctcGgnLCAnNycsICctcGh0JywgJzAuNScsICctbnQn

> <r_lp_tautomer_probability>
1

> <r_epik_Ionization_Penalty>
  0.3387

> <r_epik_Ionization_Penalty_Charging>
  0.0862

> <r_epik_Ionization_Penalty_Neutral>
  0.2525

> <r_epik_State_Penalty>
 -0.0000

> <r_epik_Charging_Adjusted_Penalty>
0.0861825483729033

> <i_epik_Tot_Q>
-1

> <i_epik_Tot_abs_Q>
3

$$$$
