3rqe_ligand
                    3D
 Schrodinger Suite 2020-3.
144143  0  0  1  0            999 V2000
   16.4850    6.6210   69.2150 N   0  3  0  0  0  0
   17.7060    5.9570   69.7510 C   0  0  2  0  0  0
   17.4160    4.4990   70.0840 C   0  0  0  0  0  0
   18.3000    3.6360   69.9710 O   0  0  0  0  0  0
   18.2090    6.6890   70.9960 C   0  0  0  0  0  0
   19.6930    6.4780   71.2350 C   0  0  0  0  0  0
   20.1050    5.3280   71.5030 O   0  5  0  0  0  0
   20.4500    7.4700   71.1630 O   0  0  0  0  0  0
   16.1740    4.2400   70.5010 N   0  0  0  0  0  0
   15.7120    2.8870   70.8070 C   0  0  2  0  0  0
   15.9830    1.9220   69.6500 C   0  0  0  0  0  0
   16.5630    0.8520   69.8540 O   0  0  0  0  0  0
   14.2270    2.9010   71.1630 C   0  0  0  0  0  0
   15.5730    2.3180   68.4440 N   0  0  0  0  0  0
   15.7850    1.5350   67.2200 C   0  0  2  0  0  0
   17.2650    1.2990   66.9280 C   0  0  0  0  0  0
   17.6630    0.2080   66.5160 O   0  0  0  0  0  0
   15.1470    2.2480   66.0240 C   0  0  0  0  0  0
   13.6340    2.2140   65.7780 C   0  0  0  0  0  0
   12.8320    2.8540   66.9130 C   0  0  0  0  0  0
   13.3610    2.9290   64.4700 C   0  0  0  0  0  0
   18.0640    2.3400   67.1470 N   0  0  0  0  0  0
   19.4980    2.3200   66.8920 C   0  0  2  0  0  0
   20.2100    1.2640   67.7290 C   0  0  0  0  0  0
   20.9200    0.4120   67.1930 O   0  0  0  0  0  0
   20.0710    3.7090   67.1680 C   0  0  0  0  0  0
   21.5490    4.0460   66.9970 C   0  0  0  0  0  0
   22.1210    3.5500   65.6740 C   0  0  0  0  0  0
   21.6520    5.5500   67.0980 C   0  0  0  0  0  0
   20.0080    1.3270   69.0410 N   0  0  0  0  0  0
   20.5830    0.3560   69.9630 C   0  0  2  0  0  0
   20.1000   -1.0560   69.6430 C   0  0  0  0  0  0
   20.8540   -2.0190   69.7890 O   0  0  0  0  0  0
   20.2500    0.7250   71.4010 C   0  0  0  0  0  0
   18.8480   -1.1620   69.1970 N   0  0  0  0  0  0
   18.2500   -2.4420   68.8310 C   0  0  2  0  0  0
   18.9840   -3.0660   67.6470 C   0  0  0  0  0  0
   19.4030   -4.2260   67.7050 O   0  0  0  0  0  0
   16.7630   -2.2580   68.5110 C   0  0  0  0  0  0
   16.0830   -3.5560   68.1230 C   0  0  0  0  0  0
   15.9860   -4.4650   68.9780 O   0  5  0  0  0  0
   15.6420   -3.6590   66.9590 O   0  0  0  0  0  0
   19.1390   -2.2810   66.5830 N   0  0  0  0  0  0
   19.8930   -2.6920   65.4040 C   0  0  2  0  0  0
   21.3110   -3.0910   65.7830 C   0  0  0  0  0  0
   21.8240   -4.1120   65.3140 O   0  0  0  0  0  0
   19.9240   -1.5570   64.3740 C   0  0  0  0  0  0
   21.2390   -1.2390   63.6450 C   0  0  0  0  0  0
   21.5710   -2.2360   62.5350 C   0  0  0  0  0  0
   21.1920    0.1710   63.0980 C   0  0  0  0  0  0
   21.9330   -2.2720   66.6310 N   0  0  0  0  0  0
   23.2980   -2.5020   67.0910 C   0  0  2  0  0  0
   23.4140   -3.8840   67.7370 C   0  0  0  0  0  0
   24.3740   -4.6190   67.4870 O   0  0  0  0  0  0
   23.7290   -1.3890   68.0620 C   0  0  0  0  0  0
   25.2270   -1.3590   68.3880 C   0  0  0  0  0  0
   25.6650   -2.5080   69.2900 C   0  0  0  0  0  0
   24.9540   -2.8080   70.2770 O   0  5  0  0  0  0
   26.7220   -3.1130   69.0090 O   0  0  0  0  0  0
   22.4190   -4.2320   68.5500 N   0  0  0  0  0  0
   22.3830   -5.5190   69.2360 C   0  0  2  0  0  0
   22.0900   -6.6790   68.2860 C   0  0  0  0  0  0
   22.6060   -7.7800   68.4720 O   0  0  0  0  0  0
   21.3670   -5.4940   70.3810 C   0  0  0  0  0  0
   21.8580   -4.7270   71.4790 O   0  0  0  0  0  0
   21.2670   -6.4210   67.2720 N   0  0  0  0  0  0
   20.9540   -7.4070   66.2280 C   0  0  2  0  0  0
   22.2370   -7.9820   65.6090 C   0  0  0  0  0  0
   22.2662   -9.1729   65.1986 O   0  0  0  0  0  0
   20.0720   -6.7660   65.1140 C   0  0  2  0  0  0
   18.7380   -6.5780   65.6060 O   0  0  0  0  0  0
   20.0210   -7.6320   63.8490 C   0  0  0  0  0  0
   23.2647   -7.2595   65.5113 O   0  5  0  0  0  0
   16.1372    6.0824   68.3211 H   0  0  0  0  0  0
   16.7210    7.6616   68.9475 H   0  0  0  0  0  0
   15.6952    6.6093   69.9806 H   0  0  0  0  0  0
   18.4701    6.0040   68.9611 H   0  0  0  0  0  0
   18.0348    7.7691   70.8817 H   0  0  0  0  0  0
   17.6681    6.3220   71.8807 H   0  0  0  0  0  0
   15.4887    5.0933   70.6115 H   0  0  0  0  0  0
   16.3040    2.5705   71.6784 H   0  0  0  0  0  0
   14.0560    3.5998   71.9951 H   0  0  0  0  0  0
   13.9122    1.8904   71.4623 H   0  0  0  0  0  0
   13.6432    3.2228   70.2880 H   0  0  0  0  0  0
   15.0519    3.2855   68.3947 H   0  0  0  0  0  0
   15.3015    0.5680   67.4226 H   0  0  0  0  0  0
   15.3652    3.3247   66.0800 H   0  0  0  0  0  0
   15.5595    1.8384   65.0902 H   0  0  0  0  0  0
   13.3036    1.1662   65.7229 H   0  0  0  0  0  0
   13.0412    2.3240   67.8539 H   0  0  0  0  0  0
   11.7578    2.7875   66.6857 H   0  0  0  0  0  0
   13.1204    3.9106   67.0153 H   0  0  0  0  0  0
   13.9444    2.4572   63.6656 H   0  0  0  0  0  0
   13.6515    3.9859   64.5623 H   0  0  0  0  0  0
   12.2889    2.8628   64.2328 H   0  0  0  0  0  0
   17.5882    3.2499   67.5416 H   0  0  0  0  0  0
   19.6134    2.0467   65.8328 H   0  0  0  0  0  0
   19.5841    4.4439   66.5101 H   0  0  0  0  0  0
   19.8877    3.9792   68.2184 H   0  0  0  0  0  0
   22.1446    3.5483   67.7765 H   0  0  0  0  0  0
   22.0345    2.4545   65.6249 H   0  0  0  0  0  0
   23.1802    3.8378   65.6016 H   0  0  0  0  0  0
   21.5610    3.9998   64.8408 H   0  0  0  0  0  0
   21.2335    5.8824   68.0594 H   0  0  0  0  0  0
   21.0892    6.0122   66.2737 H   0  0  0  0  0  0
   22.7083    5.8503   67.0344 H   0  0  0  0  0  0
   19.3830    2.1468   69.4248 H   0  0  0  0  0  0
   21.6708    0.4123   69.8097 H   0  0  0  0  0  0
   20.6063    1.7445   71.6098 H   0  0  0  0  0  0
   20.7421    0.0174   72.0845 H   0  0  0  0  0  0
   19.1608    0.6798   71.5483 H   0  0  0  0  0  0
   18.2612   -0.2357   69.1094 H   0  0  0  0  0  0
   18.3698   -3.0914   69.7107 H   0  0  0  0  0  0
   16.2447   -1.8572   69.3946 H   0  0  0  0  0  0
   16.6527   -1.5559   67.6714 H   0  0  0  0  0  0
   18.6705   -1.2864   66.6171 H   0  0  0  0  0  0
   19.3626   -3.5674   65.0010 H   0  0  0  0  0  0
   19.2101   -1.7754   63.5662 H   0  0  0  0  0  0
   19.6470   -0.6110   64.8623 H   0  0  0  0  0  0
   22.0543   -1.3142   64.3796 H   0  0  0  0  0  0
   21.6003   -3.2532   62.9526 H   0  0  0  0  0  0
   22.5514   -1.9891   62.1016 H   0  0  0  0  0  0
   20.8002   -2.1831   61.7520 H   0  0  0  0  0  0
   20.9521    0.8719   63.9111 H   0  0  0  0  0  0
   20.4193    0.2360   62.3178 H   0  0  0  0  0  0
   22.1705    0.4300   62.6674 H   0  0  0  0  0  0
   21.3741   -1.3932   66.9849 H   0  0  0  0  0  0
   23.9328   -2.4717   66.1931 H   0  0  0  0  0  0
   23.4807   -0.4086   67.6294 H   0  0  0  0  0  0
   23.2004   -1.5121   69.0188 H   0  0  0  0  0  0
   25.8066   -1.4273   67.4556 H   0  0  0  0  0  0
   25.4713   -0.4185   68.9035 H   0  0  0  0  0  0
   21.6039   -3.5079   68.6961 H   0  0  0  0  0  0
   23.4030   -5.6408   69.6294 H   0  0  0  0  0  0
   20.4272   -5.0448   70.0275 H   0  0  0  0  0  0
   21.1759   -6.5215   70.7242 H   0  0  0  0  0  0
   21.2459   -4.6098   72.3854 H   0  0  0  0  0  0
   20.8140   -5.4192   67.2360 H   0  0  0  0  0  0
   20.4109   -8.2072   66.7521 H   0  0  0  0  0  0
   20.4530   -5.7669   64.8557 H   0  0  0  0  0  0
   18.5655   -5.9800   66.5130 H   0  0  0  0  0  0
   21.0411   -7.7809   63.4652 H   0  0  0  0  0  0
   19.4114   -7.1284   63.0843 H   0  0  0  0  0  0
   19.5740   -8.6077   64.0904 H   0  0  0  0  0  0
  1  2  1  0  0  0
  1 74  1  0  0  0
  1 75  1  0  0  0
  1 76  1  0  0  0
  2  3  1  0  0  0
  2  5  1  0  0  0
  2 77  1  0  0  0
  3  4  2  0  0  0
  3  9  1  0  0  0
  5  6  1  0  0  0
  5 78  1  0  0  0
  5 79  1  0  0  0
  6  7  1  0  0  0
  6  8  2  0  0  0
  9 10  1  0  0  0
  9 80  1  0  0  0
 10 11  1  0  0  0
 10 13  1  0  0  0
 10 81  1  0  0  0
 11 12  2  0  0  0
 11 14  1  0  0  0
 13 82  1  0  0  0
 13 83  1  0  0  0
 13 84  1  0  0  0
 14 15  1  0  0  0
 14 85  1  0  0  0
 15 16  1  0  0  0
 15 18  1  0  0  0
 15 86  1  0  0  0
 16 17  2  0  0  0
 16 22  1  0  0  0
 18 19  1  0  0  0
 18 87  1  0  0  0
 18 88  1  0  0  0
 19 20  1  0  0  0
 19 21  1  0  0  0
 19 89  1  0  0  0
 20 90  1  0  0  0
 20 91  1  0  0  0
 20 92  1  0  0  0
 21 93  1  0  0  0
 21 94  1  0  0  0
 21 95  1  0  0  0
 22 23  1  0  0  0
 22 96  1  0  0  0
 23 24  1  0  0  0
 23 26  1  0  0  0
 23 97  1  0  0  0
 24 25  2  0  0  0
 24 30  1  0  0  0
 26 27  1  0  0  0
 26 98  1  0  0  0
 26 99  1  0  0  0
 27 28  1  0  0  0
 27 29  1  0  0  0
 27100  1  0  0  0
 28101  1  0  0  0
 28102  1  0  0  0
 28103  1  0  0  0
 29104  1  0  0  0
 29105  1  0  0  0
 29106  1  0  0  0
 30 31  1  0  0  0
 30107  1  0  0  0
 31 32  1  0  0  0
 31 34  1  0  0  0
 31108  1  0  0  0
 32 33  2  0  0  0
 32 35  1  0  0  0
 34109  1  0  0  0
 34110  1  0  0  0
 34111  1  0  0  0
 35 36  1  0  0  0
 35112  1  0  0  0
 36 37  1  0  0  0
 36 39  1  0  0  0
 36113  1  0  0  0
 37 38  2  0  0  0
 37 43  1  0  0  0
 39 40  1  0  0  0
 39114  1  0  0  0
 39115  1  0  0  0
 40 41  1  0  0  0
 40 42  2  0  0  0
 43 44  1  0  0  0
 43116  1  0  0  0
 44 45  1  0  0  0
 44 47  1  0  0  0
 44117  1  0  0  0
 45 46  2  0  0  0
 45 51  1  0  0  0
 47 48  1  0  0  0
 47118  1  0  0  0
 47119  1  0  0  0
 48 49  1  0  0  0
 48 50  1  0  0  0
 48120  1  0  0  0
 49121  1  0  0  0
 49122  1  0  0  0
 49123  1  0  0  0
 50124  1  0  0  0
 50125  1  0  0  0
 50126  1  0  0  0
 51 52  1  0  0  0
 51127  1  0  0  0
 52 53  1  0  0  0
 52 55  1  0  0  0
 52128  1  0  0  0
 53 54  2  0  0  0
 53 60  1  0  0  0
 55 56  1  0  0  0
 55129  1  0  0  0
 55130  1  0  0  0
 56 57  1  0  0  0
 56131  1  0  0  0
 56132  1  0  0  0
 57 58  1  0  0  0
 57 59  2  0  0  0
 60 61  1  0  0  0
 60133  1  0  0  0
 61 62  1  0  0  0
 61 64  1  0  0  0
 61134  1  0  0  0
 62 63  2  0  0  0
 62 66  1  0  0  0
 64 65  1  0  0  0
 64135  1  0  0  0
 64136  1  0  0  0
 65137  1  0  0  0
 66 67  1  0  0  0
 66138  1  0  0  0
 67 68  1  0  0  0
 67 70  1  0  0  0
 67139  1  0  0  0
 68 69  2  0  0  0
 68 73  1  0  0  0
 70 71  1  0  0  0
 70 72  1  0  0  0
 70140  1  0  0  0
 71141  1  0  0  0
 72142  1  0  0  0
 72143  1  0  0  0
 72144  1  0  0  0
M  CHG  5   1   1   7  -1  41  -1  58  -1  73  -1
M  END
> <s_m_source_file>
../3rqe_ligand.sdf

> <i_m_source_file_index>
1

> <s_epik_input>
W09IXUMoPU8pW0NIMl1bQ0BIXShbTkgzK10pQyg9TylbTkhdW0NAQEhdKFtDSDNdKUMoPU8pW05IXVtDQEBIXShbQ0gyXVtDSF0oW0NIM10pW0NIM10pQyg9TylbTkhdW0NAQEhdKFtDSDJdW0NIXShbQ0gzXSlbQ0gzXSlDKD1PKVtOSF1bQ0BASF0oW0NIM10pQyg9TylbTkhdW0NAQEhdKFtDSDJdQyg9TylbT0hdKUMoPU8pW05IXVtDQEBIXShbQ0gyXVtDSF0oW0NIM10pW0NIM10pQyg9TylbTkhdW0NAQEhdKFtDSDJdW0NIMl1DKD1PKVtPSF0pQyg9TylbTkhdW0NAQEhdKFtDSDJdW09IXSlDKD1PKVtOSF1bQ0BIXShDKD1PKVtPSF0pW0NASF0oW09IXSlbQ0gzXQ==

> <s_epik_cmdline>
J2VwaWtfYXBwJywgJy1pbWFlJywgJ2xpZ2FuZF9wcm8ubWFlJywgJy1vbWFlJywgJ2xpZ2FuZF9wcmVwLm1hZScsICctbXMnLCAnMScsICctcGgnLCAnNycsICctcGh0JywgJzAuNScsICctbnQn

> <r_epik_Ionization_Penalty>
  0.0257

> <r_epik_Ionization_Penalty_Charging>
  0.0257

> <r_epik_Ionization_Penalty_Neutral>
  0.0000

> <r_epik_State_Penalty>
  0.0161

> <r_epik_Charging_Adjusted_Penalty>
0.0417316893838905

> <i_epik_Tot_Q>
-3

> <i_epik_Tot_abs_Q>
5

$$$$
