3rqf_ligand
                    3D
 Schrodinger Suite 2020-3.
192191  0  0  1  0            999 V2000
  -25.0760  -26.0950    5.8450 N   0  3  0  0  0  0
  -24.8700  -25.4090    4.5340 C   0  0  2  0  0  0
  -25.1690  -23.9090    4.6090 C   0  0  0  0  0  0
  -24.4430  -23.0980    4.0290 O   0  0  0  0  0  0
  -25.7170  -26.0700    3.4410 C   0  0  0  0  0  0
  -27.1020  -25.9710    3.7300 O   0  0  0  0  0  0
  -26.2340  -23.5560    5.3320 N   0  0  0  0  0  0
  -26.6680  -22.1630    5.5020 C   0  0  2  0  0  0
  -25.6380  -21.2870    6.2150 C   0  0  0  0  0  0
  -25.6530  -20.0610    6.0780 O   0  0  0  0  0  0
  -28.0020  -22.1080    6.2530 C   0  0  0  0  0  0
  -29.2290  -22.3460    5.3790 C   0  0  0  0  0  0
  -29.6510  -21.1160    4.5800 C   0  0  0  0  0  0
  -29.2150  -19.9910    4.9120 O   0  0  0  0  0  0
  -30.4310  -21.2800    3.6180 O   0  0  0  0  0  0
  -24.7550  -21.9280    6.9770 N   0  0  0  0  0  0
  -23.6630  -21.2490    7.6680 C   0  0  2  0  0  0
  -22.6400  -20.6940    6.6730 C   0  0  0  0  0  0
  -22.1460  -19.5750    6.8390 O   0  0  0  0  0  0
  -22.9820  -22.2090    8.6530 C   0  0  0  0  0  0
  -23.8620  -22.9590    9.6630 C   0  0  0  0  0  0
  -23.1840  -24.2440   10.1220 C   0  0  0  0  0  0
  -24.2270  -22.0810   10.8550 C   0  0  0  0  0  0
  -22.3360  -21.4820    5.6410 N   0  0  0  0  0  0
  -21.3890  -21.0920    4.5940 C   0  0  2  0  0  0
  -22.0050  -20.1520    3.5590 C   0  0  0  0  0  0
  -21.3020  -19.3230    2.9770 O   0  0  0  0  0  0
  -20.8160  -22.3300    3.8950 C   0  0  0  0  0  0
  -19.7490  -23.0300    4.7190 C   0  0  0  0  0  0
  -18.7500  -22.3770    5.0930 O   0  0  0  0  0  0
  -19.9010  -24.2430    4.9790 O   0  0  0  0  0  0
  -23.3120  -20.2860    3.3360 N   0  0  0  0  0  0
  -24.0350  -19.4790    2.3450 C   0  0  2  0  0  0
  -23.9670  -17.9810    2.6320 C   0  0  0  0  0  0
  -23.9930  -17.1660    1.7080 O   0  0  0  0  0  0
  -25.4960  -19.9220    2.2460 C   0  0  0  0  0  0
  -25.6930  -21.2900    1.6160 C   0  0  0  0  0  0
  -27.1640  -21.6540    1.5370 C   0  0  0  0  0  0
  -27.3550  -23.0730    1.2450 N   0  0  0  0  0  0
  -28.5360  -23.6870    1.2050 C   0  0  0  0  0  0
  -29.6560  -23.0120    1.4370 N   0  0  0  0  0  0
  -28.5950  -24.9840    0.9330 N   0  0  0  0  0  0
  -23.8850  -17.6320    3.9140 N   0  0  0  0  0  0
  -23.7470  -16.2430    4.3420 C   0  0  2  0  0  0
  -22.3760  -15.6670    4.0000 C   0  0  0  0  0  0
  -22.2840  -14.5850    3.4180 O   0  0  0  0  0  0
  -24.0080  -16.1130    5.8450 C   0  0  0  0  0  0
  -25.4410  -15.8220    6.2950 C   0  0  0  0  0  0
  -25.6520  -16.2690    7.7330 C   0  0  0  0  0  0
  -25.7750  -14.3420    6.1310 C   0  0  0  0  0  0
  -21.3210  -16.3980    4.3590 N   0  0  0  0  0  0
  -19.9420  -15.9470    4.1550 C   0  0  2  0  0  0
  -19.5850  -15.7440    2.6830 C   0  0  0  0  0  0
  -18.8160  -14.8400    2.3490 O   0  0  0  0  0  0
  -18.9480  -16.9190    4.8030 C   0  0  0  0  0  0
  -18.8830  -17.0480    6.3290 C   0  0  0  0  0  0
  -17.8940  -18.1400    6.7040 C   0  0  0  0  0  0
  -18.5040  -15.7300    7.0050 C   0  0  0  0  0  0
  -20.1460  -16.5850    1.8150 N   0  0  0  0  0  0
  -19.8940  -16.5070    0.3750 C   0  0  2  0  0  0
  -20.4600  -15.2280   -0.2380 C   0  0  0  0  0  0
  -19.7800  -14.5530   -1.0140 O   0  0  0  0  0  0
  -20.4530  -17.7410   -0.3450 C   0  0  0  0  0  0
  -19.7670  -19.0890   -0.0880 C   0  0  0  0  0  0
  -20.6340  -20.2410   -0.5780 C   0  0  0  0  0  0
  -18.3780  -19.1440   -0.7240 C   0  0  0  0  0  0
  -21.6990  -14.8980    0.1230 N   0  0  0  0  0  0
  -22.3630  -13.6940   -0.3790 C   0  0  2  0  0  0
  -21.8300  -12.4140    0.2670 C   0  0  0  0  0  0
  -21.9530  -11.3290   -0.3040 O   0  0  0  0  0  0
  -23.8830  -13.7970   -0.2080 C   0  0  0  0  0  0
  -24.5540  -14.7580   -1.1900 C   0  0  0  0  0  0
  -26.0650  -14.8290   -1.0240 C   0  0  0  0  0  0
  -26.5480  -14.8600    0.1290 O   0  0  0  0  0  0
  -26.7730  -14.8660   -2.0540 O   0  0  0  0  0  0
  -21.2390  -12.5470    1.4540 N   0  0  0  0  0  0
  -20.6090  -11.4180    2.1370 C   0  0  2  0  0  0
  -19.2230  -11.1080    1.5710 C   0  0  0  0  0  0
  -18.7890   -9.9540    1.5770 O   0  0  0  0  0  0
  -20.5280  -11.6660    3.6470 C   0  0  0  0  0  0
  -21.8170  -11.5270    4.4640 C   0  0  0  0  0  0
  -21.6480  -12.1740    5.8270 C   0  0  0  0  0  0
  -22.2450  -10.0710    4.6100 C   0  0  0  0  0  0
  -18.5360  -12.1420    1.0870 N   0  0  0  0  0  0
  -17.2320  -11.9820    0.4430 C   0  0  2  0  0  0
  -17.3580  -11.7420   -1.0570 C   0  0  0  0  0  0
  -17.9517  -10.7224   -1.4992 O   0  0  0  0  0  0
  -16.3420  -13.1990    0.7110 C   0  0  0  0  0  0
  -15.6210  -13.1160    2.0470 C   0  0  0  0  0  0
  -14.9840  -12.1100    2.3630 O   0  0  0  0  0  0
  -15.7060  -14.1840    2.8330 N   0  0  0  0  0  0
  -16.8626  -12.5730   -1.8642 O   0  0  0  0  0  0
  -24.4606  -25.6067    6.6150 H   0  0  0  0  0  0
  -24.7822  -27.1513    5.7562 H   0  0  0  0  0  0
  -26.1368  -26.0320    6.1291 H   0  0  0  0  0  0
  -23.8015  -25.5299    4.3024 H   0  0  0  0  0  0
  -25.5247  -25.5742    2.4781 H   0  0  0  0  0  0
  -25.4512  -27.1347    3.3648 H   0  0  0  0  0  0
  -27.8405  -26.3998    3.0367 H   0  0  0  0  0  0
  -26.7961  -24.3698    5.8134 H   0  0  0  0  0  0
  -26.7716  -21.7948    4.4707 H   0  0  0  0  0  0
  -28.0132  -22.8791    7.0374 H   0  0  0  0  0  0
  -28.1236  -21.1159    6.7123 H   0  0  0  0  0  0
  -29.0163  -23.1505    4.6596 H   0  0  0  0  0  0
  -30.0799  -22.6364    6.0128 H   0  0  0  0  0  0
  -29.5116  -19.0967    4.3443 H   0  0  0  0  0  0
  -24.8747  -23.0171    7.0745 H   0  0  0  0  0  0
  -24.1342  -20.4144    8.2077 H   0  0  0  0  0  0
  -22.4581  -22.9978    8.0933 H   0  0  0  0  0  0
  -22.2583  -21.6524    9.2665 H   0  0  0  0  0  0
  -24.8013  -23.2291    9.1583 H   0  0  0  0  0  0
  -22.9313  -24.8585    9.2454 H   0  0  0  0  0  0
  -23.8662  -24.8043   10.7782 H   0  0  0  0  0  0
  -22.2650  -23.9968   10.6737 H   0  0  0  0  0  0
  -24.7140  -21.1616   10.4977 H   0  0  0  0  0  0
  -23.3146  -21.8202   11.4113 H   0  0  0  0  0  0
  -24.9158  -22.6277   11.5158 H   0  0  0  0  0  0
  -22.8315  -22.4631    5.5967 H   0  0  0  0  0  0
  -20.6042  -20.5466    5.1386 H   0  0  0  0  0  0
  -21.6241  -23.0525    3.7082 H   0  0  0  0  0  0
  -20.3610  -22.0333    2.9384 H   0  0  0  0  0  0
  -17.9660  -22.8652    5.6905 H   0  0  0  0  0  0
  -23.8503  -21.0386    3.9308 H   0  0  0  0  0  0
  -23.5004  -19.6769    1.4042 H   0  0  0  0  0  0
  -25.9350  -19.9656    3.2537 H   0  0  0  0  0  0
  -26.0569  -19.2015    1.6326 H   0  0  0  0  0  0
  -25.2779  -21.2877    0.5973 H   0  0  0  0  0  0
  -25.1765  -22.0500    2.2207 H   0  0  0  0  0  0
  -27.6492  -21.4302    2.4985 H   0  0  0  0  0  0
  -27.6442  -21.0688    0.7389 H   0  0  0  0  0  0
  -26.4853  -23.7139    1.0380 H   0  0  0  0  0  0
  -29.6131  -21.9363    1.6631 H   0  0  0  0  0  0
  -30.6266  -23.5286    1.4031 H   0  0  0  0  0  0
  -27.6706  -25.5481    0.7400 H   0  0  0  0  0  0
  -23.9248  -18.4369    4.6627 H   0  0  0  0  0  0
  -24.5130  -15.7048    3.7644 H   0  0  0  0  0  0
  -23.7325  -17.0519    6.3475 H   0  0  0  0  0  0
  -23.4043  -15.2884    6.2520 H   0  0  0  0  0  0
  -26.1286  -16.3965    5.6570 H   0  0  0  0  0  0
  -25.4051  -17.3370    7.8250 H   0  0  0  0  0  0
  -26.7030  -16.1100    8.0159 H   0  0  0  0  0  0
  -25.0005  -15.6834    8.3983 H   0  0  0  0  0  0
  -25.6147  -14.0437    5.0844 H   0  0  0  0  0  0
  -25.1243  -13.7445    6.7864 H   0  0  0  0  0  0
  -26.8268  -14.1711    6.4040 H   0  0  0  0  0  0
  -21.5169  -17.3750    4.8250 H   0  0  0  0  0  0
  -19.9195  -14.9666    4.6533 H   0  0  0  0  0  0
  -19.1591  -17.9424    4.4595 H   0  0  0  0  0  0
  -17.9231  -16.6403    4.5169 H   0  0  0  0  0  0
  -19.8842  -17.3208    6.6940 H   0  0  0  0  0  0
  -18.1809  -19.0800    6.2099 H   0  0  0  0  0  0
  -17.9009  -18.2821    7.7948 H   0  0  0  0  0  0
  -16.8846  -17.8480    6.3786 H   0  0  0  0  0  0
  -19.2287  -14.9519    6.7234 H   0  0  0  0  0  0
  -17.4972  -15.4279    6.6809 H   0  0  0  0  0  0
  -18.5134  -15.8620    8.0970 H   0  0  0  0  0  0
  -20.8190  -17.3579    2.2145 H   0  0  0  0  0  0
  -18.7976  -16.4807    0.2898 H   0  0  0  0  0  0
  -21.5029  -17.8914   -0.0533 H   0  0  0  0  0  0
  -20.3928  -17.5894   -1.4328 H   0  0  0  0  0  0
  -19.6381  -19.1998    0.9988 H   0  0  0  0  0  0
  -21.6261  -20.1793   -0.1070 H   0  0  0  0  0  0
  -20.1596  -21.1966   -0.3101 H   0  0  0  0  0  0
  -20.7425  -20.1792   -1.6709 H   0  0  0  0  0  0
  -17.7722  -18.3033   -0.3549 H   0  0  0  0  0  0
  -18.4726  -19.0754   -1.8178 H   0  0  0  0  0  0
  -17.8898  -20.0929   -0.4570 H   0  0  0  0  0  0
  -22.2245  -15.5649    0.8224 H   0  0  0  0  0  0
  -22.1014  -13.6721   -1.4472 H   0  0  0  0  0  0
  -24.1145  -14.1543    0.8063 H   0  0  0  0  0  0
  -24.3371  -12.8068   -0.3604 H   0  0  0  0  0  0
  -24.3486  -14.4320   -2.2203 H   0  0  0  0  0  0
  -24.1560  -15.7725   -1.0402 H   0  0  0  0  0  0
  -27.6380  -14.9114    0.2675 H   0  0  0  0  0  0
  -21.2343  -13.5436    1.9196 H   0  0  0  0  0  0
  -21.2757  -10.5681    1.9291 H   0  0  0  0  0  0
  -20.1795  -12.6928    3.8317 H   0  0  0  0  0  0
  -19.8228  -10.9527    4.0984 H   0  0  0  0  0  0
  -22.6204  -12.0496    3.9242 H   0  0  0  0  0  0
  -21.3396  -13.2222    5.6996 H   0  0  0  0  0  0
  -22.6030  -12.1364    6.3717 H   0  0  0  0  0  0
  -20.8790  -11.6322    6.3972 H   0  0  0  0  0  0
  -22.3617   -9.6214    3.6129 H   0  0  0  0  0  0
  -21.4791   -9.5185    5.1740 H   0  0  0  0  0  0
  -23.2030  -10.0227    5.1484 H   0  0  0  0  0  0
  -18.9820  -13.1428    1.1848 H   0  0  0  0  0  0
  -16.8044  -11.0818    0.9086 H   0  0  0  0  0  0
  -18.0352  -10.5619   -2.5842 H   0  0  0  0  0  0
  -16.9586  -14.1099    0.7170 H   0  0  0  0  0  0
  -15.5802  -13.2771   -0.0786 H   0  0  0  0  0  0
  -16.2865  -15.0604    2.5092 H   0  0  0  0  0  0
  -15.1958  -14.1917    3.8075 H   0  0  0  0  0  0
  1  2  1  0  0  0
  1 93  1  0  0  0
  1 94  1  0  0  0
  1 95  1  0  0  0
  2  3  1  0  0  0
  2  5  1  0  0  0
  2 96  1  0  0  0
  3  4  2  0  0  0
  3  7  1  0  0  0
  5  6  1  0  0  0
  5 97  1  0  0  0
  5 98  1  0  0  0
  6 99  1  0  0  0
  7  8  1  0  0  0
  7100  1  0  0  0
  8  9  1  0  0  0
  8 11  1  0  0  0
  8101  1  0  0  0
  9 10  2  0  0  0
  9 16  1  0  0  0
 11 12  1  0  0  0
 11102  1  0  0  0
 11103  1  0  0  0
 12 13  1  0  0  0
 12104  1  0  0  0
 12105  1  0  0  0
 13 14  1  0  0  0
 13 15  2  0  0  0
 14106  1  0  0  0
 16 17  1  0  0  0
 16107  1  0  0  0
 17 18  1  0  0  0
 17 20  1  0  0  0
 17108  1  0  0  0
 18 19  2  0  0  0
 18 24  1  0  0  0
 20 21  1  0  0  0
 20109  1  0  0  0
 20110  1  0  0  0
 21 22  1  0  0  0
 21 23  1  0  0  0
 21111  1  0  0  0
 22112  1  0  0  0
 22113  1  0  0  0
 22114  1  0  0  0
 23115  1  0  0  0
 23116  1  0  0  0
 23117  1  0  0  0
 24 25  1  0  0  0
 24118  1  0  0  0
 25 26  1  0  0  0
 25 28  1  0  0  0
 25119  1  0  0  0
 26 27  2  0  0  0
 26 32  1  0  0  0
 28 29  1  0  0  0
 28120  1  0  0  0
 28121  1  0  0  0
 29 30  1  0  0  0
 29 31  2  0  0  0
 30122  1  0  0  0
 32 33  1  0  0  0
 32123  1  0  0  0
 33 34  1  0  0  0
 33 36  1  0  0  0
 33124  1  0  0  0
 34 35  2  0  0  0
 34 43  1  0  0  0
 36 37  1  0  0  0
 36125  1  0  0  0
 36126  1  0  0  0
 37 38  1  0  0  0
 37127  1  0  0  0
 37128  1  0  0  0
 38 39  1  0  0  0
 38129  1  0  0  0
 38130  1  0  0  0
 39 40  1  0  0  0
 39131  1  0  0  0
 40 41  1  0  0  0
 40 42  2  0  0  0
 41132  1  0  0  0
 41133  1  0  0  0
 42134  1  0  0  0
 43 44  1  0  0  0
 43135  1  0  0  0
 44 45  1  0  0  0
 44 47  1  0  0  0
 44136  1  0  0  0
 45 46  2  0  0  0
 45 51  1  0  0  0
 47 48  1  0  0  0
 47137  1  0  0  0
 47138  1  0  0  0
 48 49  1  0  0  0
 48 50  1  0  0  0
 48139  1  0  0  0
 49140  1  0  0  0
 49141  1  0  0  0
 49142  1  0  0  0
 50143  1  0  0  0
 50144  1  0  0  0
 50145  1  0  0  0
 51 52  1  0  0  0
 51146  1  0  0  0
 52 53  1  0  0  0
 52 55  1  0  0  0
 52147  1  0  0  0
 53 54  2  0  0  0
 53 59  1  0  0  0
 55 56  1  0  0  0
 55148  1  0  0  0
 55149  1  0  0  0
 56 57  1  0  0  0
 56 58  1  0  0  0
 56150  1  0  0  0
 57151  1  0  0  0
 57152  1  0  0  0
 57153  1  0  0  0
 58154  1  0  0  0
 58155  1  0  0  0
 58156  1  0  0  0
 59 60  1  0  0  0
 59157  1  0  0  0
 60 61  1  0  0  0
 60 63  1  0  0  0
 60158  1  0  0  0
 61 62  2  0  0  0
 61 67  1  0  0  0
 63 64  1  0  0  0
 63159  1  0  0  0
 63160  1  0  0  0
 64 65  1  0  0  0
 64 66  1  0  0  0
 64161  1  0  0  0
 65162  1  0  0  0
 65163  1  0  0  0
 65164  1  0  0  0
 66165  1  0  0  0
 66166  1  0  0  0
 66167  1  0  0  0
 67 68  1  0  0  0
 67168  1  0  0  0
 68 69  1  0  0  0
 68 71  1  0  0  0
 68169  1  0  0  0
 69 70  2  0  0  0
 69 76  1  0  0  0
 71 72  1  0  0  0
 71170  1  0  0  0
 71171  1  0  0  0
 72 73  1  0  0  0
 72172  1  0  0  0
 72173  1  0  0  0
 73 74  1  0  0  0
 73 75  2  0  0  0
 74174  1  0  0  0
 76 77  1  0  0  0
 76175  1  0  0  0
 77 78  1  0  0  0
 77 80  1  0  0  0
 77176  1  0  0  0
 78 79  2  0  0  0
 78 84  1  0  0  0
 80 81  1  0  0  0
 80177  1  0  0  0
 80178  1  0  0  0
 81 82  1  0  0  0
 81 83  1  0  0  0
 81179  1  0  0  0
 82180  1  0  0  0
 82181  1  0  0  0
 82182  1  0  0  0
 83183  1  0  0  0
 83184  1  0  0  0
 83185  1  0  0  0
 84 85  1  0  0  0
 84186  1  0  0  0
 85 86  1  0  0  0
 85 88  1  0  0  0
 85187  1  0  0  0
 86 87  1  0  0  0
 86 92  2  0  0  0
 87188  1  0  0  0
 88 89  1  0  0  0
 88189  1  0  0  0
 88190  1  0  0  0
 89 90  2  0  0  0
 89 91  1  0  0  0
 91191  1  0  0  0
 91192  1  0  0  0
M  CHG  1   1   1
M  END
> <s_m_source_file>
../3rqf_ligand.sdf

> <i_m_source_file_index>
1

> <s_epik_input>
W09IXVtDSDJdW0NASF0oW05IMytdKUMoPU8pW05IXVtDQEBIXShbQ0gyXVtDSDJdQyg9TylbT0hdKUMoPU8pW05IXVtDQEBIXShbQ0gyXVtDSF0oW0NIM10pW0NIM10pQyg9TylbTkhdW0NAQEhdKFtDSDJdQyg9TylbT0hdKUMoPU8pW05IXVtDQEBIXShbQ0gyXVtDSDJdW0NIMl1bTkhdL0MoW05IMl0pPU5cW0hdKUMoPU8pW05IXVtDQEBIXShbQ0gyXVtDSF0oW0NIM10pW0NIM10pQyg9TylbTkhdW0NAQEhdKFtDSDJdW0NIXShbQ0gzXSlbQ0gzXSlDKD1PKVtOSF1bQ0BASF0oW0NIMl1bQ0hdKFtDSDNdKVtDSDNdKUMoPU8pW05IXVtDQEBIXShbQ0gyXVtDSDJdQyg9TylbT0hdKUMoPU8pW05IXVtDQEBIXShbQ0gyXVtDSF0oW0NIM10pW0NIM10pQyg9TylbTkhdW0NASF0oQyg9TylbT0hdKVtDSDJdQyg9TylbTkgyXQ==

> <s_epik_cmdline>
J2VwaWtfYXBwJywgJy1pbWFlJywgJ2xpZ2FuZF9wcm8ubWFlJywgJy1vbWFlJywgJ2xpZ2FuZF9wcmVwLm1hZScsICctbXMnLCAnMScsICctcGgnLCAnNycsICctcGh0JywgJzAuNScsICctbnQn

> <s_epik_pKa_notes>
Molecule size exceeds maximum supported for generating protonation states

> <s_epik_Chemistry_Notes>
This compound has an imine and may undergo hydrolysis.

$$$$
