3rqg_ligand
                    3D
 Schrodinger Suite 2020-3.
191190  0  0  1  0            999 V2000
   27.5500   -8.5100   68.5920 N   0  3  0  0  0  0
   27.8040   -7.9540   67.2310 C   0  0  2  0  0  0
   26.5250   -7.4140   66.5910 C   0  0  0  0  0  0
   26.4990   -6.2800   66.1070 O   0  0  0  0  0  0
   28.4580   -8.9990   66.3430 C   0  0  0  0  0  0
   25.4710   -8.2300   66.5930 N   0  0  0  0  0  0
   24.1510   -7.8000   66.1280 C   0  0  2  0  0  0
   23.4780   -6.9050   67.1640 C   0  0  0  0  0  0
   22.6480   -6.0640   66.8190 O   0  0  0  0  0  0
   23.2210   -8.9980   65.8230 C   0  0  2  0  0  0
   23.3090   -9.9620   66.8800 O   0  0  0  0  0  0
   23.6020   -9.6570   64.5070 C   0  0  0  0  0  0
   23.8600   -7.0940   68.4280 N   0  0  0  0  0  0
   23.2720   -6.3930   69.5720 C   0  0  2  0  0  0
   23.2860   -4.8700   69.4440 C   0  0  0  0  0  0
   22.2420   -4.2310   69.5740 O   0  0  0  0  0  0
   23.9660   -6.8130   70.8740 C   0  0  0  0  0  0
   23.7050   -8.2500   71.3010 C   0  0  0  0  0  0
   24.3150   -8.5360   72.6660 C   0  0  0  0  0  0
   23.9600   -9.8640   73.1660 N   0  0  0  0  0  0
   24.7640  -10.9250   73.1410 C   0  0  0  0  0  0
   25.9900  -10.8330   72.6420 N   0  0  0  0  0  0
   24.3380  -12.0840   73.6230 N   0  0  0  0  0  0
   24.4620   -4.2990   69.1840 N   0  0  0  0  0  0
   24.6410   -2.8380   69.1380 C   0  0  2  0  0  0
   23.8930   -2.1460   67.9950 C   0  0  0  0  0  0
   23.5810   -0.9530   68.0810 O   0  0  0  0  0  0
   26.1280   -2.4460   69.1260 C   0  0  0  0  0  0
   27.0610   -3.4090   68.4000 C   0  0  0  0  0  0
   27.6490   -4.4660   69.3220 C   0  0  0  0  0  0
   28.8840   -4.4730   69.5030 O   0  0  0  0  0  0
   26.8810   -5.2840   69.8720 O   0  0  0  0  0  0
   23.6120   -2.8950   66.9320 N   0  0  0  0  0  0
   22.7810   -2.4000   65.8410 C   0  0  2  0  0  0
   21.3250   -2.3480   66.2900 C   0  0  0  0  0  0
   20.5960   -1.4230   65.9400 O   0  0  0  0  0  0
   22.9400   -3.2770   64.5900 C   0  0  0  0  0  0
   22.3650   -2.8410   63.2290 C   0  0  0  0  0  0
   20.9100   -3.2700   63.0550 C   0  0  0  0  0  0
   22.5330   -1.3470   62.9570 C   0  0  0  0  0  0
   20.9180   -3.3470   67.0710 N   0  0  0  0  0  0
   19.5700   -3.4120   67.6320 C   0  0  2  0  0  0
   19.3940   -2.3880   68.7530 C   0  0  0  0  0  0
   18.2960   -1.8690   68.9620 O   0  0  0  0  0  0
   19.2720   -4.8200   68.1590 C   0  0  0  0  0  0
   19.6730   -5.9170   67.1810 C   0  0  0  0  0  0
   19.7670   -5.6500   65.9620 O   0  0  0  0  0  0
   19.9010   -7.0550   67.6410 O   0  0  0  0  0  0
   20.4840   -2.1110   69.4670 N   0  0  0  0  0  0
   20.4950   -1.1340   70.5560 C   0  0  2  0  0  0
   20.4420    0.2990   70.0320 C   0  0  0  0  0  0
   19.9260    1.1940   70.7050 O   0  0  0  0  0  0
   21.7330   -1.3260   71.4380 C   0  0  0  0  0  0
   21.6820   -2.5610   72.3370 C   0  0  0  0  0  0
   23.0370   -2.9260   72.9210 C   0  0  0  0  0  0
   23.6890   -2.0490   73.5290 O   0  0  0  0  0  0
   23.4470   -4.0970   72.7810 O   0  0  0  0  0  0
   20.9780    0.5070   68.8320 N   0  0  0  0  0  0
   20.9760    1.8200   68.1960 C   0  0  2  0  0  0
   19.5790    2.1680   67.6900 C   0  0  0  0  0  0
   19.0920    3.2740   67.9220 O   0  0  0  0  0  0
   21.9740    1.8560   67.0350 C   0  0  0  0  0  0
   22.7290    3.1390   66.6590 C   0  0  0  0  0  0
   23.3410    2.9460   65.2880 C   0  0  0  0  0  0
   21.8790    4.4050   66.6660 C   0  0  0  0  0  0
   18.9410    1.2190   67.0060 N   0  0  0  0  0  0
   17.6050    1.4370   66.4480 C   0  0  2  0  0  0
   16.5320    1.5200   67.5390 C   0  0  0  0  0  0
   15.4310    2.0190   67.2950 O   0  0  0  0  0  0
   17.2420    0.3570   65.4190 C   0  0  0  0  0  0
   18.2940    0.0750   64.3340 C   0  0  0  0  0  0
   19.3150    1.4630   63.7710 S   0  0  0  0  0  0
   18.1370    2.4660   62.8730 C   0  0  0  0  0  0
   16.8660    1.0290   68.7330 N   0  0  0  0  0  0
   15.9920    1.1290   69.9020 C   0  0  2  0  0  0
   15.9860    2.5480   70.4730 C   0  0  0  0  0  0
   14.9530    3.0270   70.9440 O   0  0  0  0  0  0
   16.4080    0.1230   70.9690 C   0  0  0  0  0  0
   17.1430    3.2090   70.4220 N   0  0  0  0  0  0
   17.2840    4.5960   70.8720 C   0  0  2  0  0  0
   16.5200    5.5660   69.9740 C   0  0  0  0  0  0
   16.0720    6.6200   70.4270 O   0  0  0  0  0  0
   18.7600    4.9970   70.9160 C   0  0  0  0  0  0
   19.4920    4.1640   71.7960 O   0  0  0  0  0  0
   16.3740    5.1930   68.7050 N   0  0  0  0  0  0
   15.7340    6.0320   67.6930 C   0  0  2  0  0  0
   14.2330    5.7650   67.5970 C   0  0  0  0  0  0
   13.7884    4.5927   67.4723 O   0  0  0  0  0  0
   16.4010    5.8070   66.3290 C   0  0  0  0  0  0
   17.7210    6.5050   65.9580 C   0  0  0  0  0  0
   18.7570    6.5310   67.0860 C   0  0  0  0  0  0
   18.3110    5.8560   64.7140 C   0  0  0  0  0  0
   13.4269    6.7323   67.6432 O   0  0  0  0  0  0
   27.0770   -7.7406   69.2200 H   0  0  0  0  0  0
   28.5033   -8.8185   69.0458 H   0  0  0  0  0  0
   26.8824   -9.3807   68.5136 H   0  0  0  0  0  0
   28.5007   -7.1131   67.3634 H   0  0  0  0  0  0
   29.3739   -9.3697   66.8265 H   0  0  0  0  0  0
   28.7125   -8.5481   65.3725 H   0  0  0  0  0  0
   27.7612   -9.8357   66.1871 H   0  0  0  0  0  0
   25.6174   -9.2567   66.9598 H   0  0  0  0  0  0
   24.3685   -7.2366   65.2087 H   0  0  0  0  0  0
   22.1690   -8.6784   65.7884 H   0  0  0  0  0  0
   23.0692   -9.6692   67.9128 H   0  0  0  0  0  0
   23.5351   -8.9187   63.6943 H   0  0  0  0  0  0
   22.9147  -10.4911   64.3021 H   0  0  0  0  0  0
   24.6318  -10.0380   64.5724 H   0  0  0  0  0  0
   24.6659   -7.8257   68.5863 H   0  0  0  0  0  0
   22.2216   -6.7188   69.5477 H   0  0  0  0  0  0
   25.0550   -6.7092   70.7590 H   0  0  0  0  0  0
   23.6213   -6.1700   71.6972 H   0  0  0  0  0  0
   22.6204   -8.4246   71.3570 H   0  0  0  0  0  0
   24.1496   -8.9374   70.5662 H   0  0  0  0  0  0
   25.4114   -8.4803   72.5966 H   0  0  0  0  0  0
   23.9553   -7.7917   73.3916 H   0  0  0  0  0  0
   22.9655  -10.0398   73.6020 H   0  0  0  0  0  0
   26.3498   -9.8742   72.2404 H   0  0  0  0  0  0
   26.6465  -11.7155   72.6299 H   0  0  0  0  0  0
   23.3228  -12.1672   74.0381 H   0  0  0  0  0  0
   25.3185   -4.9641   68.9997 H   0  0  0  0  0  0
   24.1665   -2.5186   70.0776 H   0  0  0  0  0  0
   26.2461   -1.4709   68.6308 H   0  0  0  0  0  0
   26.4980   -2.3795   70.1598 H   0  0  0  0  0  0
   26.5058   -3.9277   67.6046 H   0  0  0  0  0  0
   27.8963   -2.8466   67.9573 H   0  0  0  0  0  0
   27.2879   -6.0556   70.5421 H   0  0  0  0  0  0
   24.0255   -3.9135   66.8900 H   0  0  0  0  0  0
   23.1396   -1.3842   65.6186 H   0  0  0  0  0  0
   24.0095   -3.4224   64.3777 H   0  0  0  0  0  0
   22.4647   -4.2536   64.7640 H   0  0  0  0  0  0
   22.9588   -3.3656   62.4659 H   0  0  0  0  0  0
   20.8188   -4.3475   63.2566 H   0  0  0  0  0  0
   20.5869   -3.0611   62.0245 H   0  0  0  0  0  0
   20.2761   -2.7104   63.7586 H   0  0  0  0  0  0
   23.5884   -1.0666   63.0894 H   0  0  0  0  0  0
   21.9104   -0.7741   63.6599 H   0  0  0  0  0  0
   22.2212   -1.1247   61.9258 H   0  0  0  0  0  0
   21.6435   -4.1446   67.2890 H   0  0  0  0  0  0
   18.8981   -3.1668   66.7963 H   0  0  0  0  0  0
   19.8265   -4.9864   69.0943 H   0  0  0  0  0  0
   18.1932   -4.9195   68.3496 H   0  0  0  0  0  0
   20.0559   -6.4351   65.2477 H   0  0  0  0  0  0
   21.4041   -2.6546   69.2065 H   0  0  0  0  0  0
   19.5778   -1.3403   71.1271 H   0  0  0  0  0  0
   22.6242   -1.4290   70.8015 H   0  0  0  0  0  0
   21.8522   -0.4537   72.0975 H   0  0  0  0  0  0
   20.9953   -2.3756   73.1761 H   0  0  0  0  0  0
   21.3254   -3.4237   71.7551 H   0  0  0  0  0  0
   24.6716   -2.2933   73.9589 H   0  0  0  0  0  0
   21.4332   -0.3524   68.3180 H   0  0  0  0  0  0
   21.2785    2.5279   68.9817 H   0  0  0  0  0  0
   22.7848    1.1377   67.2261 H   0  0  0  0  0  0
   21.4593    1.5879   66.1006 H   0  0  0  0  0  0
   23.5002    3.3021   67.4263 H   0  0  0  0  0  0
   23.9536    2.0324   65.2853 H   0  0  0  0  0  0
   23.9734    3.8122   65.0435 H   0  0  0  0  0  0
   22.5407    2.8532   64.5390 H   0  0  0  0  0  0
   21.4354    4.5432   67.6630 H   0  0  0  0  0  0
   21.0780    4.3129   65.9178 H   0  0  0  0  0  0
   22.5106    5.2720   66.4223 H   0  0  0  0  0  0
   19.4446    0.2513   66.8652 H   0  0  0  0  0  0
   17.6854    2.4142   65.9494 H   0  0  0  0  0  0
   17.0736   -0.5996   65.9353 H   0  0  0  0  0  0
   16.3263    0.6518   64.8855 H   0  0  0  0  0  0
   19.0068   -0.6779   64.7013 H   0  0  0  0  0  0
   17.7954   -0.3028   63.4292 H   0  0  0  0  0  0
   18.6434    3.3570   62.4734 H   0  0  0  0  0  0
   17.3283    2.7769   63.5507 H   0  0  0  0  0  0
   17.7149    1.8808   62.0427 H   0  0  0  0  0  0
   17.8439    0.5326   68.8183 H   0  0  0  0  0  0
   14.9848    0.8835   69.5341 H   0  0  0  0  0  0
   16.4060   -0.8895   70.5390 H   0  0  0  0  0  0
   15.6996    0.1659   71.8094 H   0  0  0  0  0  0
   17.4186    0.3667   71.3285 H   0  0  0  0  0  0
   18.0139    2.6695   70.0215 H   0  0  0  0  0  0
   16.8428    4.6084   71.8796 H   0  0  0  0  0  0
   19.1938    4.9098   69.9089 H   0  0  0  0  0  0
   18.8473    6.0368   71.2640 H   0  0  0  0  0  0
   20.5708    4.3262   71.9370 H   0  0  0  0  0  0
   16.7625    4.2009   68.4314 H   0  0  0  0  0  0
   15.8845    7.0647   68.0406 H   0  0  0  0  0  0
   16.6379    4.7396   66.2083 H   0  0  0  0  0  0
   15.7154    6.1231   65.5290 H   0  0  0  0  0  0
   17.4770    7.5582   65.7547 H   0  0  0  0  0  0
   18.3169    7.0022   67.9772 H   0  0  0  0  0  0
   19.6364    7.1074   66.7629 H   0  0  0  0  0  0
   19.0616    5.5021   67.3278 H   0  0  0  0  0  0
   17.5565    5.8445   63.9136 H   0  0  0  0  0  0
   18.6140    4.8246   64.9472 H   0  0  0  0  0  0
   19.1888    6.4300   64.3823 H   0  0  0  0  0  0
   12.3443    6.5498   67.5748 H   0  0  0  0  0  0
  1  2  1  0  0  0
  1 94  1  0  0  0
  1 95  1  0  0  0
  1 96  1  0  0  0
  2  3  1  0  0  0
  2  5  1  0  0  0
  2 97  1  0  0  0
  3  4  2  0  0  0
  3  6  1  0  0  0
  5 98  1  0  0  0
  5 99  1  0  0  0
  5100  1  0  0  0
  6  7  1  0  0  0
  6101  1  0  0  0
  7  8  1  0  0  0
  7 10  1  0  0  0
  7102  1  0  0  0
  8  9  2  0  0  0
  8 13  1  0  0  0
 10 11  1  0  0  0
 10 12  1  0  0  0
 10103  1  0  0  0
 11104  1  0  0  0
 12105  1  0  0  0
 12106  1  0  0  0
 12107  1  0  0  0
 13 14  1  0  0  0
 13108  1  0  0  0
 14 15  1  0  0  0
 14 17  1  0  0  0
 14109  1  0  0  0
 15 16  2  0  0  0
 15 24  1  0  0  0
 17 18  1  0  0  0
 17110  1  0  0  0
 17111  1  0  0  0
 18 19  1  0  0  0
 18112  1  0  0  0
 18113  1  0  0  0
 19 20  1  0  0  0
 19114  1  0  0  0
 19115  1  0  0  0
 20 21  1  0  0  0
 20116  1  0  0  0
 21 22  1  0  0  0
 21 23  2  0  0  0
 22117  1  0  0  0
 22118  1  0  0  0
 23119  1  0  0  0
 24 25  1  0  0  0
 24120  1  0  0  0
 25 26  1  0  0  0
 25 28  1  0  0  0
 25121  1  0  0  0
 26 27  2  0  0  0
 26 33  1  0  0  0
 28 29  1  0  0  0
 28122  1  0  0  0
 28123  1  0  0  0
 29 30  1  0  0  0
 29124  1  0  0  0
 29125  1  0  0  0
 30 31  2  0  0  0
 30 32  1  0  0  0
 32126  1  0  0  0
 33 34  1  0  0  0
 33127  1  0  0  0
 34 35  1  0  0  0
 34 37  1  0  0  0
 34128  1  0  0  0
 35 36  2  0  0  0
 35 41  1  0  0  0
 37 38  1  0  0  0
 37129  1  0  0  0
 37130  1  0  0  0
 38 39  1  0  0  0
 38 40  1  0  0  0
 38131  1  0  0  0
 39132  1  0  0  0
 39133  1  0  0  0
 39134  1  0  0  0
 40135  1  0  0  0
 40136  1  0  0  0
 40137  1  0  0  0
 41 42  1  0  0  0
 41138  1  0  0  0
 42 43  1  0  0  0
 42 45  1  0  0  0
 42139  1  0  0  0
 43 44  2  0  0  0
 43 49  1  0  0  0
 45 46  1  0  0  0
 45140  1  0  0  0
 45141  1  0  0  0
 46 47  1  0  0  0
 46 48  2  0  0  0
 47142  1  0  0  0
 49 50  1  0  0  0
 49143  1  0  0  0
 50 51  1  0  0  0
 50 53  1  0  0  0
 50144  1  0  0  0
 51 52  2  0  0  0
 51 58  1  0  0  0
 53 54  1  0  0  0
 53145  1  0  0  0
 53146  1  0  0  0
 54 55  1  0  0  0
 54147  1  0  0  0
 54148  1  0  0  0
 55 56  1  0  0  0
 55 57  2  0  0  0
 56149  1  0  0  0
 58 59  1  0  0  0
 58150  1  0  0  0
 59 60  1  0  0  0
 59 62  1  0  0  0
 59151  1  0  0  0
 60 61  2  0  0  0
 60 66  1  0  0  0
 62 63  1  0  0  0
 62152  1  0  0  0
 62153  1  0  0  0
 63 64  1  0  0  0
 63 65  1  0  0  0
 63154  1  0  0  0
 64155  1  0  0  0
 64156  1  0  0  0
 64157  1  0  0  0
 65158  1  0  0  0
 65159  1  0  0  0
 65160  1  0  0  0
 66 67  1  0  0  0
 66161  1  0  0  0
 67 68  1  0  0  0
 67 70  1  0  0  0
 67162  1  0  0  0
 68 69  2  0  0  0
 68 74  1  0  0  0
 70 71  1  0  0  0
 70163  1  0  0  0
 70164  1  0  0  0
 71 72  1  0  0  0
 71165  1  0  0  0
 71166  1  0  0  0
 72 73  1  0  0  0
 73167  1  0  0  0
 73168  1  0  0  0
 73169  1  0  0  0
 74 75  1  0  0  0
 74170  1  0  0  0
 75 76  1  0  0  0
 75 78  1  0  0  0
 75171  1  0  0  0
 76 77  2  0  0  0
 76 79  1  0  0  0
 78172  1  0  0  0
 78173  1  0  0  0
 78174  1  0  0  0
 79 80  1  0  0  0
 79175  1  0  0  0
 80 81  1  0  0  0
 80 83  1  0  0  0
 80176  1  0  0  0
 81 82  2  0  0  0
 81 85  1  0  0  0
 83 84  1  0  0  0
 83177  1  0  0  0
 83178  1  0  0  0
 84179  1  0  0  0
 85 86  1  0  0  0
 85180  1  0  0  0
 86 87  1  0  0  0
 86 89  1  0  0  0
 86181  1  0  0  0
 87 88  2  0  0  0
 87 93  1  0  0  0
 89 90  1  0  0  0
 89182  1  0  0  0
 89183  1  0  0  0
 90 91  1  0  0  0
 90 92  1  0  0  0
 90184  1  0  0  0
 91185  1  0  0  0
 91186  1  0  0  0
 91187  1  0  0  0
 92188  1  0  0  0
 92189  1  0  0  0
 92190  1  0  0  0
 93191  1  0  0  0
M  CHG  1   1   1
M  END
> <s_m_source_file>
../3rqg_ligand.sdf

> <i_m_source_file_index>
1

> <s_epik_input>
W05IMytdW0NAQEhdKFtDSDNdKUMoPU8pW05IXVtDQEBIXShbQ0BIXShbT0hdKVtDSDNdKUMoPU8pW05IXVtDQEBIXShbQ0gyXVtDSDJdW0NIMl1bTkhdL0MoW05IMl0pPU5cW0hdKUMoPU8pW05IXVtDQEBIXShbQ0gyXVtDSDJdQyg9TylbT0hdKUMoPU8pW05IXVtDQEBIXShbQ0gyXVtDSF0oW0NIM10pW0NIM10pQyg9TylbTkhdW0NAQEhdKFtDSDJdQyg9TylbT0hdKUMoPU8pW05IXVtDQEBIXShbQ0gyXVtDSDJdQyg9TylbT0hdKUMoPU8pW05IXVtDQEBIXShbQ0gyXVtDSF0oW0NIM10pW0NIM10pQyg9TylbTkhdW0NAQEhdKFtDSDJdW0NIMl1TW0NIM10pQyg9TylbTkhdW0NAQEhdKFtDSDNdKUMoPU8pW05IXVtDQEBIXShbQ0gyXVtPSF0pQyg9TylbTkhdW0NASF0oQyg9TylbT0hdKVtDSDJdW0NIXShbQ0gzXSlbQ0gzXQ==

> <s_epik_cmdline>
J2VwaWtfYXBwJywgJy1pbWFlJywgJ2xpZ2FuZF9wcm8ubWFlJywgJy1vbWFlJywgJ2xpZ2FuZF9wcmVwLm1hZScsICctbXMnLCAnMScsICctcGgnLCAnNycsICctcGh0JywgJzAuNScsICctbnQn

> <s_epik_pKa_notes>
Molecule size exceeds maximum supported for generating protonation states

> <s_epik_Chemistry_Notes>
This compound has an imine and may undergo hydrolysis.

$$$$
