3rsb_ligand
                    3D
 Schrodinger Suite 2020-3.
 45 47  0  0  1  0            999 V2000
    4.2640   20.0460   25.5870 P   0  0  0  0  0  0
    5.5940   20.4770   25.0150 O   0  5  0  0  0  0
    3.8710   20.9720   26.7130 O   0  0  0  0  0  0
    3.2090   20.0830   24.5070 O   0  0  0  0  0  0
    4.4170   18.5440   26.1470 O   0  0  0  0  0  0
    3.8510   18.1500   27.6020 P   0  0  2  0  0  0
    2.3470   18.0290   27.5480 O   0  0  0  0  0  0
    4.2790   19.1590   28.6410 O   0  5  0  0  0  0
    4.5020   16.7070   27.8950 O   0  0  0  0  0  0
    6.0920   16.4850   27.7740 P   0  0  2  0  0  0
    6.7750   17.8120   27.5410 O   0  5  0  0  0  0
    6.4210   15.5040   26.6750 O   0  0  0  0  0  0
    6.5170   15.9030   29.2140 O   0  0  0  0  0  0
    6.9210   14.5590   29.3540 C   0  0  0  0  0  0
    5.7790   13.7460   29.9510 C   0  0  1  0  0  0
    5.5980   14.0990   31.3100 O   0  0  0  0  0  0
    4.4730   14.0120   29.2200 C   0  0  1  0  0  0
    3.9970   12.8240   28.6320 O   0  0  0  0  0  0
    3.4980   14.4930   30.2730 C   0  0  1  0  0  0
    2.3980   13.6180   30.3500 O   0  0  0  0  0  0
    4.2650   14.4860   31.5850 C   0  0  2  0  0  0
    4.2480   15.8380   32.1730 N   0  0  0  0  0  0
    5.1270   16.8540   31.8980 C   0  0  0  0  0  0
    4.7800   17.9330   32.6350 N   0  0  0  0  0  0
    3.6930   17.6230   33.3750 C   0  0  0  0  0  0
    2.9420   18.3530   34.2880 C   0  0  0  0  0  0
    3.2400   19.5190   34.5430 O   0  0  0  0  0  0
    1.8590   17.7630   34.9070 N   0  3  0  0  0  0
    1.5300   16.4540   34.6160 C   0  0  0  0  0  0
    0.4870   15.8840   35.2120 N   0  0  0  0  0  0
    2.2820   15.7350   33.7080 N   0  0  0  0  0  0
    3.3470   16.3080   33.0960 C   0  0  0  0  0  0
    2.9676   21.0322   24.0063 H   0  0  0  0  0  0
    7.1854   14.1509   28.3673 H   0  0  0  0  0  0
    7.7957   14.5064   30.0189 H   0  0  0  0  0  0
    6.0366   12.6768   29.9279 H   0  0  0  0  0  0
    4.5760   14.7031   28.3705 H   0  0  0  0  0  0
    4.5806   12.3293   27.8416 H   0  0  0  0  0  0
    3.0405   15.4643   30.0336 H   0  0  0  0  0  0
    1.7291   13.4979   29.4850 H   0  0  0  0  0  0
    3.8619   13.7723   32.3185 H   0  0  0  0  0  0
    5.9644   16.8006   31.2023 H   0  0  0  0  0  0
   -0.1130   16.4554   35.9355 H   0  0  0  0  0  0
    0.2241   14.8410   34.9815 H   0  0  0  0  0  0
    1.2599   18.3354   35.6305 H   0  0  0  0  0  0
  1  2  1  0  0  0
  1  3  2  0  0  0
  1  4  1  0  0  0
  1  5  1  0  0  0
  4 33  1  0  0  0
  5  6  1  0  0  0
  6  7  2  0  0  0
  6  8  1  0  0  0
  6  9  1  0  0  0
  9 10  1  0  0  0
 10 11  1  0  0  0
 10 12  2  0  0  0
 10 13  1  0  0  0
 13 14  1  0  0  0
 14 15  1  0  0  0
 14 34  1  0  0  0
 14 35  1  0  0  0
 15 16  1  0  0  0
 15 17  1  0  0  0
 15 36  1  0  0  0
 16 21  1  0  0  0
 17 18  1  0  0  0
 17 19  1  0  0  0
 17 37  1  0  0  0
 18 38  1  0  0  0
 19 20  1  0  0  0
 19 21  1  0  0  0
 19 39  1  0  0  0
 20 40  1  0  0  0
 21 22  1  0  0  0
 21 41  1  0  0  0
 22 23  1  0  0  0
 22 32  1  0  0  0
 23 24  2  0  0  0
 23 42  1  0  0  0
 24 25  1  0  0  0
 25 26  1  0  0  0
 25 32  2  0  0  0
 26 27  2  0  0  0
 26 28  1  0  0  0
 28 29  1  0  0  0
 28 45  1  0  0  0
 29 30  1  0  0  0
 29 31  2  0  0  0
 30 43  1  0  0  0
 30 44  1  0  0  0
 31 32  1  0  0  0
M  CHG  4   2  -1   8  -1  11  -1  28   1
M  END
> <s_m_source_file>
../3rsb_ligand.sdf

> <i_m_source_file_index>
1

> <s_epik_input>
W09IXVAoPU8pKFtPSF0pT1tQQF0oPU8pKFtPSF0pT1tQQEBdKD1PKShbT0hdKU9bQ0gyXVtDQEhdMU9bQ0BIXShbQ0BIXShbT0hdKVtDQEBIXTFbT0hdKW4oW2NIXW4yKWMoYzIzKVtuSF1jKD1OXFtIXSlcW25IXWMzPU8=

> <s_epik_cmdline>
J2VwaWtfYXBwJywgJy1pbWFlJywgJ2xpZ2FuZF9wcm8ubWFlJywgJy1vbWFlJywgJ2xpZ2FuZF9wcmVwLm1hZScsICctbXMnLCAnMScsICctcGgnLCAnNycsICctcGh0JywgJzAuNScsICctbnQn

> <r_epik_Ionization_Penalty>
  3.6149

> <r_epik_Ionization_Penalty_Charging>
  2.3889

> <r_epik_Ionization_Penalty_Neutral>
  1.2259

> <r_epik_State_Penalty>
  0.0136

> <r_epik_Charging_Adjusted_Penalty>
2.40246252490279

> <i_epik_Tot_Q>
-2

> <i_epik_Tot_abs_Q>
4

> <s_epik_Chemistry_Notes>
This compound has an imine and may undergo hydrolysis. This compound contains an acetal/aminal-like group ( X-CH(R)-Y where X, Y are N, S, or O) that may be acid/base labile, releasing an aldehyde.

$$$$
