3rse_ligand
                    3D
 Schrodinger Suite 2020-3.
 57 58  0  0  1  0            999 V2000
   34.7550   16.1550   12.2430 N   0  3  0  0  0  0
   34.7230   14.9130   13.1060 C   0  0  2  0  0  0
   33.4440   14.7580   13.9670 C   0  0  0  0  0  0
   33.0020   13.6380   14.2190 O   0  0  0  0  0  0
   35.9910   14.7510   13.9850 C   0  0  0  0  0  0
   35.9150   13.5260   14.9850 C   0  0  0  0  0  0
   37.2870   12.9650   15.5010 C   0  0  0  0  0  0
   37.2860   11.9940   16.3110 O   0  5  0  0  0  0
   38.3650   13.4790   15.1030 O   0  0  0  0  0  0
   32.8560   15.8650   14.4230 N   0  0  0  0  0  0
   31.5950   15.7470   15.1480 C   0  0  2  0  0  0
   30.4730   15.6700   14.1430 C   0  0  0  0  0  0
   30.1810   14.5720   13.6480 O   0  0  0  0  0  0
   31.4050   16.7750   16.3010 C   0  0  0  0  0  0
   31.9120   16.1610   17.6380 C   0  0  0  0  0  0
   33.1970   16.1990   18.1230 C   0  0  0  0  0  0
   31.1650   15.3600   18.5750 C   0  0  0  0  0  0
   33.2800   15.5050   19.3010 N   0  3  0  0  0  0
   32.0540   14.9720   19.5970 C   0  0  0  0  0  0
   29.8370   14.9510   18.6550 C   0  0  0  0  0  0
   31.6560   14.1860   20.6810 C   0  0  0  0  0  0
   29.4430   14.1760   19.7410 C   0  0  0  0  0  0
   30.3470   13.8070   20.7350 C   0  0  0  0  0  0
   29.8470   16.7890   13.8110 N   0  0  0  0  0  0
   28.8800   16.7330   12.7210 C   0  0  2  0  0  0
   29.4850   17.2760   11.4220 C   0  0  0  0  0  0
   28.9250   18.2200   10.8210 O   0  5  0  0  0  0
   27.5300   17.3760   13.0860 C   0  0  0  0  0  0
   26.3720   17.0990   12.0670 C   0  0  0  0  0  0
   26.1440   15.5940   11.7320 C   0  0  0  0  0  0
   27.1250   14.9140   11.3110 O   0  0  0  0  0  0
   24.9800   15.1060   11.8590 O   0  5  0  0  0  0
   30.5220   16.7370   11.0320 O   0  0  0  0  0  0
   33.8321   16.2112   11.6471 H   0  0  0  0  0  0
   35.6240   16.1115   11.5700 H   0  0  0  0  0  0
   34.8321   17.0453   12.8844 H   0  0  0  0  0  0
   34.7049   14.1149   12.3493 H   0  0  0  0  0  0
   36.8674   14.5943   13.3390 H   0  0  0  0  0  0
   36.1377   15.6592   14.5880 H   0  0  0  0  0  0
   35.3511   13.8199   15.8826 H   0  0  0  0  0  0
   35.4083   12.6823   14.4935 H   0  0  0  0  0  0
   33.3063   16.8553   14.2603 H   0  0  0  0  0  0
   31.6411   14.7799   15.6700 H   0  0  0  0  0  0
   31.9782   17.6868   16.0774 H   0  0  0  0  0  0
   30.3384   17.0265   16.3960 H   0  0  0  0  0  0
   33.9786   16.7384   17.5680 H   0  0  0  0  0  0
   29.1207   15.2320   17.8829 H   0  0  0  0  0  0
   32.3642   13.8871   21.4538 H   0  0  0  0  0  0
   28.4054   13.8506   19.8159 H   0  0  0  0  0  0
   30.0007   13.2027   21.5734 H   0  0  0  0  0  0
   30.0370   17.7404   14.3293 H   0  0  0  0  0  0
   28.6879   15.6583   12.5860 H   0  0  0  0  0  0
   27.1928   16.9926   14.0603 H   0  0  0  0  0  0
   27.6474   18.4683   13.1425 H   0  0  0  0  0  0
   25.4247   17.4803   12.4760 H   0  0  0  0  0  0
   26.5913   17.6063   11.1159 H   0  0  0  0  0  0
   34.2367   15.4509   19.8413 H   0  0  0  0  0  0
  1  2  1  0  0  0
  1 34  1  0  0  0
  1 35  1  0  0  0
  1 36  1  0  0  0
  2  3  1  0  0  0
  2  5  1  0  0  0
  2 37  1  0  0  0
  3  4  2  0  0  0
  3 10  1  0  0  0
  5  6  1  0  0  0
  5 38  1  0  0  0
  5 39  1  0  0  0
  6  7  1  0  0  0
  6 40  1  0  0  0
  6 41  1  0  0  0
  7  8  1  0  0  0
  7  9  2  0  0  0
 10 11  1  0  0  0
 10 42  1  0  0  0
 11 12  1  0  0  0
 11 14  1  0  0  0
 11 43  1  0  0  0
 12 13  2  0  0  0
 12 24  1  0  0  0
 14 15  1  0  0  0
 14 44  1  0  0  0
 14 45  1  0  0  0
 15 16  2  0  0  0
 15 17  1  0  0  0
 16 18  1  0  0  0
 16 46  1  0  0  0
 17 19  2  0  0  0
 17 20  1  0  0  0
 18 19  1  0  0  0
 18 57  1  0  0  0
 19 21  1  0  0  0
 20 22  2  0  0  0
 20 47  1  0  0  0
 21 23  2  0  0  0
 21 48  1  0  0  0
 22 23  1  0  0  0
 22 49  1  0  0  0
 23 50  1  0  0  0
 24 25  1  0  0  0
 24 51  1  0  0  0
 25 26  1  0  0  0
 25 28  1  0  0  0
 25 52  1  0  0  0
 26 27  1  0  0  0
 26 33  2  0  0  0
 28 29  1  0  0  0
 28 53  1  0  0  0
 28 54  1  0  0  0
 29 30  1  0  0  0
 29 55  1  0  0  0
 29 56  1  0  0  0
 30 31  2  0  0  0
 30 32  1  0  0  0
M  CHG  5   1   1   8  -1  18   1  27  -1  32  -1
M  END
> <s_m_source_file>
../3rse_ligand.sdf

> <i_m_source_file_index>
1

> <s_epik_input>
W09IXUMoPU8pW0NIMl1bQ0gyXVtDQEhdKFtOSDMrXSlDKD1PKVtOSF1bQ0BIXShDKD1PKVtOSF1bQ0BIXShDKD1PKVtPSF0pW0NIMl1bQ0gyXUMoPU8pW09IXSlbQ0gyXWMxW2NIXVtuSF1jKGMxMilbY0hdW2NIXVtjSF1bY0hdMg==

> <s_epik_cmdline>
J2VwaWtfYXBwJywgJy1pbWFlJywgJ2xpZ2FuZF9wcm8ubWFlJywgJy1vbWFlJywgJ2xpZ2FuZF9wcmVwLm1hZScsICctbXMnLCAnMScsICctcGgnLCAnNycsICctcGh0JywgJzAuNScsICctbnQn

> <r_epik_Ionization_Penalty>
  0.0836

> <r_epik_Ionization_Penalty_Charging>
  0.0836

> <r_epik_Ionization_Penalty_Neutral>
  0.0000

> <r_epik_State_Penalty>
  0.0698

> <r_epik_Charging_Adjusted_Penalty>
0.153386881577185

> <i_epik_Tot_Q>
-1

> <i_epik_Tot_abs_Q>
5

$$$$
