3rsv_ligand
                    3D
 Schrodinger Suite 2020-3.
 65 68  0  0  1  0            999 V2000
   13.3440  -40.0090   11.6280 C   0  0  0  0  0  0
   13.3210  -39.0620   12.8280 C   0  0  0  0  0  0
   12.7680  -39.7660   14.0870 C   0  0  0  0  0  0
   14.7450  -38.5810   13.0740 C   0  0  0  0  0  0
   12.5320  -37.8720   12.5010 O   0  0  0  0  0  0
   11.1650  -38.1240   12.0340 C   0  0  0  0  0  0
   11.1870  -39.0210   10.7910 C   0  0  0  0  0  0
   11.9500  -40.3160   11.0670 C   0  0  1  0  0  0
   12.1620  -41.0320    9.8010 N   0  0  0  0  0  0
   12.4110  -42.3390    9.7410 C   0  0  0  0  0  0
   12.4580  -43.0730   10.7230 O   0  0  0  0  0  0
   12.6630  -42.9000    8.3350 C   0  0  2  0  0  0
   11.7340  -44.0980    8.1050 C   0  0  0  0  0  0
   14.1780  -43.2350    8.1380 C   0  0  0  0  0  0
   15.0050  -41.9540    8.4020 C   0  0  0  0  0  0
   14.9760  -40.8110    7.5820 C   0  0  0  0  0  0
   15.6950  -39.7150    7.8810 N   0  0  0  0  0  0
   14.2470  -40.7750    6.4780 N   0  0  0  0  0  0
   15.8160  -41.9030    9.5450 C   0  0  0  0  0  0
   16.5660  -40.7510    9.8340 C   0  0  0  0  0  0
   17.3910  -40.6690   10.9700 C   0  0  0  0  0  0
   16.4760  -39.6540    8.9680 C   0  0  0  0  0  0
   17.2000  -38.4880    9.2190 C   0  0  0  0  0  0
   18.0200  -38.4130   10.3420 C   0  0  0  0  0  0
   18.1270  -39.5000   11.2190 C   0  0  0  0  0  0
   18.9710  -39.3650   12.3280 C   0  0  0  0  0  0
   18.6330  -38.4410   13.3210 C   0  0  0  0  0  0
   19.4540  -38.2690   14.4290 C   0  0  0  0  0  0
   20.6250  -39.0170   14.5500 C   0  0  0  0  0  0
   20.9830  -39.9380   13.5700 C   0  0  0  0  0  0
   20.1630  -40.1090   12.4540 C   0  0  0  0  0  0
   20.6200  -41.1470   11.4130 C   0  0  0  0  0  0
   13.9345  -39.5584   10.8166 H   0  0  0  0  0  0
   13.7986  -40.9658   11.9246 H   0  0  0  0  0  0
   13.3783  -40.6540   14.3084 H   0  0  0  0  0  0
   11.7267  -40.0721   13.9083 H   0  0  0  0  0  0
   12.8053  -39.0732   14.9406 H   0  0  0  0  0  0
   15.3840  -39.4404   13.3252 H   0  0  0  0  0  0
   14.7508  -37.8636   13.9079 H   0  0  0  0  0  0
   15.1286  -38.0916   12.1666 H   0  0  0  0  0  0
   10.5924  -38.6243   12.8289 H   0  0  0  0  0  0
   10.6823  -37.1687   11.7801 H   0  0  0  0  0  0
   10.1559  -39.2727   10.5022 H   0  0  0  0  0  0
   11.6801  -38.4894    9.9638 H   0  0  0  0  0  0
   11.3585  -40.9376   11.7553 H   0  0  0  0  0  0
   12.1181  -40.4867    8.8467 H   0  0  0  0  0  0
   12.4042  -42.1467    7.5763 H   0  0  0  0  0  0
   10.6902  -43.7877    8.2606 H   0  0  0  0  0  0
   11.9877  -44.9001    8.8138 H   0  0  0  0  0  0
   11.8577  -44.4656    7.0756 H   0  0  0  0  0  0
   14.4739  -44.0242    8.8448 H   0  0  0  0  0  0
   14.3456  -43.5834    7.1082 H   0  0  0  0  0  0
   13.6413  -41.6469    6.1902 H   0  0  0  0  0  0
   14.2468  -39.8731    5.8482 H   0  0  0  0  0  0
   15.8647  -42.7627   10.2133 H   0  0  0  0  0  0
   17.4588  -41.5128   11.6567 H   0  0  0  0  0  0
   17.1241  -37.6395    8.5390 H   0  0  0  0  0  0
   18.5832  -37.5010   10.5402 H   0  0  0  0  0  0
   17.7206  -37.8523   13.2257 H   0  0  0  0  0  0
   19.1831  -37.5504   15.2025 H   0  0  0  0  0  0
   21.2660  -38.8789   15.4207 H   0  0  0  0  0  0
   21.8977  -40.5218   13.6735 H   0  0  0  0  0  0
   19.8921  -41.1851   10.5892 H   0  0  0  0  0  0
   20.6885  -42.1369   11.8879 H   0  0  0  0  0  0
   21.6060  -40.8607   11.0182 H   0  0  0  0  0  0
  1  2  1  0  0  0
  1  8  1  0  0  0
  1 33  1  0  0  0
  1 34  1  0  0  0
  2  3  1  0  0  0
  2  4  1  0  0  0
  2  5  1  0  0  0
  3 35  1  0  0  0
  3 36  1  0  0  0
  3 37  1  0  0  0
  4 38  1  0  0  0
  4 39  1  0  0  0
  4 40  1  0  0  0
  5  6  1  0  0  0
  6  7  1  0  0  0
  6 41  1  0  0  0
  6 42  1  0  0  0
  7  8  1  0  0  0
  7 43  1  0  0  0
  7 44  1  0  0  0
  8  9  1  0  0  0
  8 45  1  0  0  0
  9 10  1  0  0  0
  9 46  1  0  0  0
 10 11  2  0  0  0
 10 12  1  0  0  0
 12 13  1  0  0  0
 12 14  1  0  0  0
 12 47  1  0  0  0
 13 48  1  0  0  0
 13 49  1  0  0  0
 13 50  1  0  0  0
 14 15  1  0  0  0
 14 51  1  0  0  0
 14 52  1  0  0  0
 15 16  2  0  0  0
 15 19  1  0  0  0
 16 17  1  0  0  0
 16 18  1  0  0  0
 17 22  2  0  0  0
 18 53  1  0  0  0
 18 54  1  0  0  0
 19 20  2  0  0  0
 19 55  1  0  0  0
 20 21  1  0  0  0
 20 22  1  0  0  0
 21 25  2  0  0  0
 21 56  1  0  0  0
 22 23  1  0  0  0
 23 24  2  0  0  0
 23 57  1  0  0  0
 24 25  1  0  0  0
 24 58  1  0  0  0
 25 26  1  0  0  0
 26 27  2  0  0  0
 26 31  1  0  0  0
 27 28  1  0  0  0
 27 59  1  0  0  0
 28 29  2  0  0  0
 28 60  1  0  0  0
 29 30  1  0  0  0
 29 61  1  0  0  0
 30 31  2  0  0  0
 30 62  1  0  0  0
 31 32  1  0  0  0
 32 63  1  0  0  0
 32 64  1  0  0  0
 32 65  1  0  0  0
M  END
> <s_m_source_file>
../3rsv_ligand.sdf

> <i_m_source_file_index>
1

> <s_epik_input>
W0NIM11DMShbQ0gzXSlbQ0gyXVtDQEBIXShbQ0gyXVtDSDJdTzEpW05IXUMoPU8pW0NASF0oW0NIM10pW0NIMl1jKFtjSF0yKWMoW05IMl0pbmMoYzIzKVtjSF1bY0hdYyhbY0hdMyktYzRbY0hdW2NIXVtjSF1bY0hdYzRbQ0gzXQ==

> <s_epik_cmdline>
J2VwaWtfYXBwJywgJy1pbWFlJywgJ2xpZ2FuZF9wcm8ubWFlJywgJy1vbWFlJywgJ2xpZ2FuZF9wcmVwLm1hZScsICctbXMnLCAnMScsICctcGgnLCAnNycsICctcGh0JywgJzAuNScsICctbnQn

> <r_epik_Ionization_Penalty>
  0.0819

> <r_epik_Ionization_Penalty_Charging>
  0.0000

> <r_epik_Ionization_Penalty_Neutral>
  0.0819

> <r_epik_State_Penalty>
  0.0726

> <r_epik_Charging_Adjusted_Penalty>
0.0726050863927898

> <i_epik_Tot_Q>
0

> <i_epik_Tot_abs_Q>
0

$$$$
