3rt4_ligand
                    3D
 Schrodinger Suite 2020-3.
112112  0  0  1  0            999 V2000
  -21.2460  -30.9190  -21.3980 O   0  5  0  0  0  0
  -21.1710  -29.5890  -20.6730 P   0  0  0  0  0  0
  -20.1310  -29.5760  -19.5710 O   0  0  0  0  0  0
  -21.0640  -28.4150  -21.6270 O   0  5  0  0  0  0
  -22.6030  -29.3730  -19.9240 O   0  0  0  0  0  0
  -23.7940  -29.5520  -20.7050 C   0  0  2  0  0  0
  -25.0840  -28.7210  -20.4300 C   0  0  2  0  0  0
  -25.4340  -28.3150  -19.0500 N   0  0  0  0  0  0
  -25.8130  -29.0430  -17.9940 C   0  0  0  0  0  0
  -26.1580  -28.2730  -16.7320 C   0  0  0  0  0  0
  -27.4880  -28.7010  -16.1020 C   0  0  2  0  0  0
  -28.4330  -29.0520  -17.1210 O   0  0  0  0  0  0
  -28.0360  -27.5330  -15.2830 C   0  0  0  0  0  0
  -29.3230  -27.8630  -14.5290 C   0  0  0  0  0  0
  -30.3760  -26.7880  -14.7900 C   0  0  0  0  0  0
  -30.7290  -25.9660  -13.5440 C   0  0  0  0  0  0
  -29.5320  -25.1910  -12.9780 C   0  0  0  0  0  0
  -29.4610  -23.7610  -13.5200 C   0  0  0  0  0  0
  -28.5110  -23.6910  -14.7220 C   0  0  0  0  0  0
  -28.2680  -22.2510  -15.1650 C   0  0  0  0  0  0
  -27.7480  -22.1880  -16.5980 C   0  0  0  0  0  0
  -26.3280  -21.6370  -16.6490 C   0  0  0  0  0  0
  -25.7890  -21.6250  -18.0620 C   0  0  0  0  0  0
  -25.8620  -30.2560  -17.9970 O   0  0  0  0  0  0
  -26.3610  -29.4490  -20.9160 C   0  0  2  0  0  0
  -26.1840  -30.5570  -21.9770 C   0  0  1  0  0  0
  -24.8250  -31.2530  -22.0110 C   0  0  2  0  0  0
  -24.0960  -30.9400  -20.8160 O   0  0  0  0  0  0
  -24.0470  -30.9550  -23.3050 C   0  0  0  0  0  0
  -23.8770  -29.7380  -24.0530 O   0  0  0  0  0  0
  -27.1900  -31.5550  -21.7760 O   0  0  0  0  0  0
  -27.3270  -28.4630  -21.3290 O   0  0  0  0  0  0
  -27.6640  -28.4250  -22.7530 C   0  0  0  0  0  0
  -26.9120  -27.8430  -23.5240 O   0  0  0  0  0  0
  -28.9240  -29.0960  -23.2660 C   0  0  0  0  0  0
  -30.1060  -28.1340  -23.3110 C   0  0  2  0  0  0
  -30.2960  -27.5240  -22.0310 O   0  0  0  0  0  0
  -31.3600  -28.9070  -23.7020 C   0  0  0  0  0  0
  -31.5070  -28.9750  -25.2220 C   0  0  0  0  0  0
  -32.9050  -29.3730  -25.6900 C   0  0  0  0  0  0
  -34.0250  -28.7940  -24.8310 C   0  0  0  0  0  0
  -35.3680  -29.4020  -25.2070 C   0  0  0  0  0  0
  -36.3320  -28.3090  -25.6430 C   0  0  0  0  0  0
  -37.2790  -28.8230  -26.7160 C   0  0  0  0  0  0
  -37.7680  -27.6680  -27.5770 C   0  0  0  0  0  0
  -37.4750  -27.9160  -29.0500 C   0  0  0  0  0  0
  -36.5290  -26.8550  -29.5950 C   0  0  0  0  0  0
  -36.5080  -26.8710  -31.1070 C   0  0  0  0  0  0
  -23.3908  -29.1719  -21.6552 H   0  0  0  0  0  0
  -24.8097  -27.7825  -20.9339 H   0  0  0  0  0  0
  -25.4019  -27.2533  -18.7642 H   0  0  0  0  0  0
  -25.3707  -28.4300  -15.9800 H   0  0  0  0  0  0
  -26.2332  -27.2007  -16.9657 H   0  0  0  0  0  0
  -27.3689  -29.6109  -15.4954 H   0  0  0  0  0  0
  -28.2126  -29.8765  -17.8150 H   0  0  0  0  0  0
  -27.2885  -27.2259  -14.5367 H   0  0  0  0  0  0
  -28.2555  -26.6875  -15.9515 H   0  0  0  0  0  0
  -29.7084  -28.8354  -14.8695 H   0  0  0  0  0  0
  -29.1143  -27.9088  -13.4499 H   0  0  0  0  0  0
  -30.0043  -26.0882  -15.5530 H   0  0  0  0  0  0
  -31.3026  -27.2613  -15.1469 H   0  0  0  0  0  0
  -31.5111  -25.2348  -13.7966 H   0  0  0  0  0  0
  -31.0961  -26.6373  -12.7537 H   0  0  0  0  0  0
  -29.6147  -25.1376  -11.8824 H   0  0  0  0  0  0
  -28.5993  -25.7066  -13.2506 H   0  0  0  0  0  0
  -30.4639  -23.4388  -13.8370 H   0  0  0  0  0  0
  -29.0917  -23.0881  -12.7321 H   0  0  0  0  0  0
  -27.5432  -24.1382  -14.4510 H   0  0  0  0  0  0
  -28.9470  -24.2445  -15.5667 H   0  0  0  0  0  0
  -29.2108  -21.6868  -15.1113 H   0  0  0  0  0  0
  -27.5234  -21.7845  -14.5033 H   0  0  0  0  0  0
  -27.7466  -23.1986  -17.0323 H   0  0  0  0  0  0
  -28.3988  -21.5329  -17.1958 H   0  0  0  0  0  0
  -26.3206  -20.6063  -16.2647 H   0  0  0  0  0  0
  -25.6690  -22.2638  -16.0302 H   0  0  0  0  0  0
  -24.7653  -21.2224  -18.0605 H   0  0  0  0  0  0
  -26.4306  -20.9932  -18.6938 H   0  0  0  0  0  0
  -25.7790  -22.6507  -18.4593 H   0  0  0  0  0  0
  -26.7878  -29.9791  -20.0518 H   0  0  0  0  0  0
  -26.3251  -30.0872  -22.9616 H   0  0  0  0  0  0
  -24.9486  -32.3447  -21.9567 H   0  0  0  0  0  0
  -22.9819  -31.1844  -23.1535 H   0  0  0  0  0  0
  -24.4431  -31.5757  -24.1222 H   0  0  0  0  0  0
  -23.2695  -29.7364  -24.9700 H   0  0  0  0  0  0
  -28.2495  -31.2645  -21.7202 H   0  0  0  0  0  0
  -28.7497  -29.4736  -24.2844 H   0  0  0  0  0  0
  -29.1885  -29.9341  -22.6045 H   0  0  0  0  0  0
  -29.9120  -27.3009  -24.0026 H   0  0  0  0  0  0
  -29.4915  -26.9216  -21.5840 H   0  0  0  0  0  0
  -31.2973  -29.9316  -23.3066 H   0  0  0  0  0  0
  -32.2452  -28.4059  -23.2832 H   0  0  0  0  0  0
  -31.2864  -27.9887  -25.6562 H   0  0  0  0  0  0
  -30.8041  -29.7188  -25.6255 H   0  0  0  0  0  0
  -33.0626  -29.0166  -26.7187 H   0  0  0  0  0  0
  -33.0030  -30.4683  -25.6624 H   0  0  0  0  0  0
  -33.8235  -29.0101  -23.7714 H   0  0  0  0  0  0
  -34.0759  -27.7053  -24.9799 H   0  0  0  0  0  0
  -35.2297  -30.1130  -26.0348 H   0  0  0  0  0  0
  -35.7883  -29.9287  -24.3376 H   0  0  0  0  0  0
  -36.9234  -27.9751  -24.7777 H   0  0  0  0  0  0
  -35.7635  -27.4591  -26.0485 H   0  0  0  0  0  0
  -36.7527  -29.5501  -27.3518 H   0  0  0  0  0  0
  -38.1429  -29.3099  -26.2400 H   0  0  0  0  0  0
  -38.8544  -27.5507  -27.4505 H   0  0  0  0  0  0
  -37.2610  -26.7414  -27.2699 H   0  0  0  0  0  0
  -37.0079  -28.9047  -29.1695 H   0  0  0  0  0  0
  -38.4144  -27.8828  -29.6214 H   0  0  0  0  0  0
  -36.8591  -25.8614  -29.2578 H   0  0  0  0  0  0
  -35.5106  -27.0476  -29.2265 H   0  0  0  0  0  0
  -35.8179  -26.0962  -31.4723 H   0  0  0  0  0  0
  -37.5197  -26.6711  -31.4899 H   0  0  0  0  0  0
  -36.1711  -27.8574  -31.4586 H   0  0  0  0  0  0
  1  2  1  0  0  0
  2  3  2  0  0  0
  2  4  1  0  0  0
  2  5  1  0  0  0
  5  6  1  0  0  0
  6  7  1  0  0  0
  6 28  1  0  0  0
  6 49  1  0  0  0
  7  8  1  0  0  0
  7 25  1  0  0  0
  7 50  1  0  0  0
  8  9  1  0  0  0
  8 51  1  0  0  0
  9 10  1  0  0  0
  9 24  2  0  0  0
 10 11  1  0  0  0
 10 52  1  0  0  0
 10 53  1  0  0  0
 11 12  1  0  0  0
 11 13  1  0  0  0
 11 54  1  0  0  0
 12 55  1  0  0  0
 13 14  1  0  0  0
 13 56  1  0  0  0
 13 57  1  0  0  0
 14 15  1  0  0  0
 14 58  1  0  0  0
 14 59  1  0  0  0
 15 16  1  0  0  0
 15 60  1  0  0  0
 15 61  1  0  0  0
 16 17  1  0  0  0
 16 62  1  0  0  0
 16 63  1  0  0  0
 17 18  1  0  0  0
 17 64  1  0  0  0
 17 65  1  0  0  0
 18 19  1  0  0  0
 18 66  1  0  0  0
 18 67  1  0  0  0
 19 20  1  0  0  0
 19 68  1  0  0  0
 19 69  1  0  0  0
 20 21  1  0  0  0
 20 70  1  0  0  0
 20 71  1  0  0  0
 21 22  1  0  0  0
 21 72  1  0  0  0
 21 73  1  0  0  0
 22 23  1  0  0  0
 22 74  1  0  0  0
 22 75  1  0  0  0
 23 76  1  0  0  0
 23 77  1  0  0  0
 23 78  1  0  0  0
 25 26  1  0  0  0
 25 32  1  0  0  0
 25 79  1  0  0  0
 26 27  1  0  0  0
 26 31  1  0  0  0
 26 80  1  0  0  0
 27 28  1  0  0  0
 27 29  1  0  0  0
 27 81  1  0  0  0
 29 30  1  0  0  0
 29 82  1  0  0  0
 29 83  1  0  0  0
 30 84  1  0  0  0
 31 85  1  0  0  0
 32 33  1  0  0  0
 33 34  2  0  0  0
 33 35  1  0  0  0
 35 36  1  0  0  0
 35 86  1  0  0  0
 35 87  1  0  0  0
 36 37  1  0  0  0
 36 38  1  0  0  0
 36 88  1  0  0  0
 37 89  1  0  0  0
 38 39  1  0  0  0
 38 90  1  0  0  0
 38 91  1  0  0  0
 39 40  1  0  0  0
 39 92  1  0  0  0
 39 93  1  0  0  0
 40 41  1  0  0  0
 40 94  1  0  0  0
 40 95  1  0  0  0
 41 42  1  0  0  0
 41 96  1  0  0  0
 41 97  1  0  0  0
 42 43  1  0  0  0
 42 98  1  0  0  0
 42 99  1  0  0  0
 43 44  1  0  0  0
 43100  1  0  0  0
 43101  1  0  0  0
 44 45  1  0  0  0
 44102  1  0  0  0
 44103  1  0  0  0
 45 46  1  0  0  0
 45104  1  0  0  0
 45105  1  0  0  0
 46 47  1  0  0  0
 46106  1  0  0  0
 46107  1  0  0  0
 47 48  1  0  0  0
 47108  1  0  0  0
 47109  1  0  0  0
 48110  1  0  0  0
 48111  1  0  0  0
 48112  1  0  0  0
M  CHG  2   1  -1   4  -1
M  END
> <s_m_source_file>
../3rt4_ligand.sdf

> <i_m_source_file_index>
1

> <s_epik_input>
W0NIM11bQ0gyXVtDSDJdW0NIMl1bQ0gyXVtDSDJdW0NIMl1bQ0gyXVtDSDJdW0NIMl1bQ0gyXVtDQEBIXShbT0hdKVtDSDJdQyg9TylbTkhdW0NAQEhdKFtDQEhdMU9QKD1PKShbT0hdKVtPSF0pW0NASF0oW0NASF0oW09IXSlbQ0BIXShPMSlbQ0gyXVtPSF0pT0MoPU8pW0NIMl1bQ0BIXShbT0hdKVtDSDJdW0NIMl1bQ0gyXVtDSDJdW0NIMl1bQ0gyXVtDSDJdW0NIMl1bQ0gyXVtDSDJdW0NIM10=

> <s_epik_cmdline>
J2VwaWtfYXBwJywgJy1pbWFlJywgJ2xpZ2FuZF9wcm8ubWFlJywgJy1vbWFlJywgJ2xpZ2FuZF9wcmVwLm1hZScsICctbXMnLCAnMScsICctcGgnLCAnNycsICctcGh0JywgJzAuNScsICctbnQn

> <r_epik_Ionization_Penalty>
  0.0634

> <r_epik_Ionization_Penalty_Charging>
  0.0633

> <r_epik_Ionization_Penalty_Neutral>
  0.0000

> <r_epik_State_Penalty>
  0.0551

> <r_epik_Charging_Adjusted_Penalty>
0.118448909465688

> <i_epik_Tot_Q>
-2

> <i_epik_Tot_abs_Q>
2

> <s_epik_Chemistry_Notes>
This compound has an ester and may undergo hydrolysis at high or low pH. This compound contains an acetal/aminal-like group ( X-CH(R)-Y where X, Y are N, S, or O) that may be acid/base labile, releasing an aldehyde.

$$$$
