3rth_ligand
                    3D
 Schrodinger Suite 2020-3.
 43 45  0  0  1  0            999 V2000
   69.2350   48.9800   10.2750 C   0  0  0  0  0  0
   68.5080   48.8100    9.1120 C   0  0  0  0  0  0
   68.2040   49.9150    8.3220 C   0  0  0  0  0  0
   67.0100   48.5600    6.8110 C   0  0  0  0  0  0
   68.0460   47.5470    8.7340 C   0  0  0  0  0  0
   72.5580   49.8580   12.9710 C   0  0  0  0  0  0
   70.8070   51.1000   14.1010 C   0  0  0  0  0  0
   72.7870   47.9170    8.2250 C   0  0  0  0  0  0
   72.2340   48.7550    7.0540 C   0  0  0  0  0  0
   72.1570   46.5290    8.1700 C   0  0  0  0  0  0
   74.3220   47.8770    8.1900 C   0  0  0  0  0  0
   72.4120   48.5780    9.5040 C   0  0  0  0  0  0
   72.1220   49.1350   10.6040 C   0  0  0  0  0  0
   71.7420   49.7790   11.8360 C   0  0  0  0  0  0
   72.0790   50.5200   14.1060 C   0  0  0  0  0  0
   69.9920   51.0320   12.9670 C   0  0  0  0  0  0
   70.4670   50.3640   11.8290 C   0  0  0  0  0  0
   69.7010   50.2390   10.6590 C   0  0  0  0  0  0
   67.2850   47.4170    7.5700 C   0  0  0  0  0  0
   66.2950   48.4540    5.6920 N   0  0  0  0  0  0
   67.4760   49.7720    7.1950 N   0  0  0  0  0  0
   68.6510   51.1710    8.7090 C   0  0  0  0  0  0
   69.4030   51.3430    9.8700 C   0  0  0  0  0  0
   69.4485   48.1157   10.9038 H   0  0  0  0  0  0
   68.2771   46.6718    9.3413 H   0  0  0  0  0  0
   73.5518   49.4102   12.9700 H   0  0  0  0  0  0
   70.4459   51.6120   14.9929 H   0  0  0  0  0  0
   72.5045   48.2768    6.1010 H   0  0  0  0  0  0
   72.6643   49.7666    7.0918 H   0  0  0  0  0  0
   71.1388   48.8192    7.1342 H   0  0  0  0  0  0
   72.4330   46.0383    7.2250 H   0  0  0  0  0  0
   71.0624   46.6205    8.2297 H   0  0  0  0  0  0
   72.5213   45.9272    9.0157 H   0  0  0  0  0  0
   74.6551   47.3950    7.2590 H   0  0  0  0  0  0
   74.6936   47.3045    9.0526 H   0  0  0  0  0  0
   74.7166   48.9029    8.2333 H   0  0  0  0  0  0
   72.7006   50.5841   14.9991 H   0  0  0  0  0  0
   69.0033   51.4908   12.9674 H   0  0  0  0  0  0
   66.9116   46.4416    7.2581 H   0  0  0  0  0  0
   65.9133   47.4725    5.3741 H   0  0  0  0  0  0
   66.0863   49.3479    5.0859 H   0  0  0  0  0  0
   68.4097   52.0380    8.0941 H   0  0  0  0  0  0
   69.7540   52.3345   10.1562 H   0  0  0  0  0  0
  1  2  2  0  0  0
  1 18  1  0  0  0
  1 24  1  0  0  0
  2  3  1  0  0  0
  2  5  1  0  0  0
  3 21  1  0  0  0
  3 22  2  0  0  0
  4 19  1  0  0  0
  4 20  1  0  0  0
  4 21  2  0  0  0
  5 19  2  0  0  0
  5 25  1  0  0  0
  6 14  2  0  0  0
  6 15  1  0  0  0
  6 26  1  0  0  0
  7 15  2  0  0  0
  7 16  1  0  0  0
  7 27  1  0  0  0
  8  9  1  0  0  0
  8 10  1  0  0  0
  8 11  1  0  0  0
  8 12  1  0  0  0
  9 28  1  0  0  0
  9 29  1  0  0  0
  9 30  1  0  0  0
 10 31  1  0  0  0
 10 32  1  0  0  0
 10 33  1  0  0  0
 11 34  1  0  0  0
 11 35  1  0  0  0
 11 36  1  0  0  0
 12 13  3  0  0  0
 13 14  1  0  0  0
 14 17  1  0  0  0
 15 37  1  0  0  0
 16 17  2  0  0  0
 16 38  1  0  0  0
 17 18  1  0  0  0
 18 23  2  0  0  0
 19 39  1  0  0  0
 20 40  1  0  0  0
 20 41  1  0  0  0
 22 23  1  0  0  0
 22 42  1  0  0  0
 23 43  1  0  0  0
M  END
> <s_m_source_file>
../3rth_ligand.sdf

> <i_m_source_file_index>
1

> <s_epik_input>
W2NIXTFbY0hdYyhbTkgyXSluYyhjMTIpW2NIXVtjSF1jKFtjSF0yKS1jM1tjSF1bY0hdW2NIXVtjSF1jM0MjQ0MoW0NIM10pKFtDSDNdKVtDSDNd

> <s_epik_cmdline>
J2VwaWtfYXBwJywgJy1pbWFlJywgJ2xpZ2FuZF9wcm8ubWFlJywgJy1vbWFlJywgJ2xpZ2FuZF9wcmVwLm1hZScsICctbXMnLCAnMScsICctcGgnLCAnNycsICctcGh0JywgJzAuNScsICctbnQn

> <r_epik_Ionization_Penalty>
  0.0667

> <r_epik_Ionization_Penalty_Charging>
  0.0000

> <r_epik_Ionization_Penalty_Neutral>
  0.0667

> <r_epik_State_Penalty>
  0.0582

> <r_epik_Charging_Adjusted_Penalty>
0.0582143960028484

> <i_epik_Tot_Q>
0

> <i_epik_Tot_abs_Q>
0

$$$$
