3rti_ligand
                    3D
 Schrodinger Suite 2020-3.
 35 37  0  0  1  0            999 V2000
   25.1070   68.0050   50.0200 P   0  0  0  0  0  0
   24.2690   68.0560   48.8030 O   0  0  0  0  0  0
   26.6660   68.2540   49.7070 O   0  5  0  0  0  0
   24.6870   69.1010   51.1190 O   0  5  0  0  0  0
   25.0370   66.5830   50.7660 O   0  0  0  0  0  0
   25.9270   66.2880   51.8450 C   0  0  0  0  0  0
   25.6990   64.8620   52.3500 C   0  0  1  0  0  0
   26.5530   64.5050   53.4510 O   0  0  0  0  0  0
   24.2850   64.6900   52.8990 C   0  0  1  0  0  0
   23.3730   64.5480   51.8070 O   0  0  0  0  0  0
   24.5070   63.3370   53.5690 C   0  0  1  0  0  0
   24.7600   62.3380   52.5770 O   0  0  0  0  0  0
   25.8010   63.6440   54.3280 C   0  0  2  0  0  0
   25.5180   64.4210   55.6160 C   0  0  0  0  0  0
   26.4350   65.0370   56.3560 N   0  3  0  0  0  0
   25.9040   65.5660   57.3380 N   0  0  0  0  0  0
   23.5450   65.7390   58.1780 C   0  0  0  0  0  0
   23.7760   66.4740   59.2630 N   0  0  0  0  0  0
   24.5890   65.3580   57.3440 C   0  0  0  0  0  0
   24.2800   64.6160   56.2180 C   0  0  0  0  0  0
   23.0140   64.2670   55.9610 N   0  0  0  0  0  0
   22.0490   64.6430   56.7870 C   0  0  0  0  0  0
   22.2980   65.3730   57.8570 N   0  0  0  0  0  0
   26.9668   66.3835   51.4991 H   0  0  0  0  0  0
   25.7489   66.9930   52.6704 H   0  0  0  0  0  0
   25.9438   64.2006   51.5058 H   0  0  0  0  0  0
   23.8410   65.5013   53.4945 H   0  0  0  0  0  0
   23.0945   65.4257   51.2053 H   0  0  0  0  0  0
   23.6666   62.9178   54.1417 H   0  0  0  0  0  0
   23.9433   61.9872   51.9289 H   0  0  0  0  0  0
   26.3667   62.7313   54.5666 H   0  0  0  0  0  0
   24.8043   66.7697   59.5183 H   0  0  0  0  0  0
   22.9387   66.7859   59.9046 H   0  0  0  0  0  0
   21.0228   64.3414   56.5770 H   0  0  0  0  0  0
   27.4914   65.0192   56.0500 H   0  0  0  0  0  0
  1  2  2  0  0  0
  1  3  1  0  0  0
  1  4  1  0  0  0
  1  5  1  0  0  0
  5  6  1  0  0  0
  6  7  1  0  0  0
  6 24  1  0  0  0
  6 25  1  0  0  0
  7  8  1  0  0  0
  7  9  1  0  0  0
  7 26  1  0  0  0
  8 13  1  0  0  0
  9 10  1  0  0  0
  9 11  1  0  0  0
  9 27  1  0  0  0
 10 28  1  0  0  0
 11 12  1  0  0  0
 11 13  1  0  0  0
 11 29  1  0  0  0
 12 30  1  0  0  0
 13 14  1  0  0  0
 13 31  1  0  0  0
 14 15  2  0  0  0
 14 20  1  0  0  0
 15 16  1  0  0  0
 15 35  1  0  0  0
 16 19  1  0  0  0
 17 18  1  0  0  0
 17 19  1  0  0  0
 17 23  2  0  0  0
 18 32  1  0  0  0
 18 33  1  0  0  0
 19 20  2  0  0  0
 20 21  1  0  0  0
 21 22  2  0  0  0
 22 23  1  0  0  0
 22 34  1  0  0  0
M  CHG  3   3  -1   4  -1  15   1
M  END
> <s_m_source_file>
../3rti_ligand.sdf

> <i_m_source_file_index>
1

> <s_epik_input>
Tz1QKFtPSF0pKFtPSF0pT1tDSDJdW0NASF0xT1tDQEhdKFtDQEhdKFtPSF0pW0NAQEhdMVtPSF0pYyhuW25IXTIpYyhjMjMpbltjSF1uYzNbTkgyXQ==

> <s_epik_cmdline>
J2VwaWtfYXBwJywgJy1pbWFlJywgJ2xpZ2FuZF9wcm8ubWFlJywgJy1vbWFlJywgJ2xpZ2FuZF9wcmVwLm1hZScsICctbXMnLCAnMScsICctcGgnLCAnNycsICctcGh0JywgJzAuNScsICctbnQn

> <r_epik_Ionization_Penalty>
  0.1057

> <r_epik_Ionization_Penalty_Charging>
  0.1056

> <r_epik_Ionization_Penalty_Neutral>
  0.0001

> <r_epik_State_Penalty>
  0.2618

> <r_epik_Charging_Adjusted_Penalty>
0.367383261413841

> <i_epik_Tot_Q>
-1

> <i_epik_Tot_abs_Q>
3

$$$$
