3rtm_ligand
                    3D
 Schrodinger Suite 2020-3.
 48 50  0  0  1  0            999 V2000
   67.2290   50.0380    7.4130 N   0  0  0  0  0  0
   70.2560   46.5410    8.2130 N   0  0  0  0  0  0
   68.1130   49.8320   10.9440 C   0  0  0  0  0  0
   67.7430   49.4420    9.6500 C   0  0  0  0  0  0
   67.5850   50.4050    8.6490 C   0  0  0  0  0  0
   67.0030   48.7500    7.0910 C   0  0  0  0  0  0
   67.1430   47.7100    8.0530 C   0  0  0  0  0  0
   66.9080   46.1720    7.8280 C   0  0  0  0  0  0
   70.3640   45.7820    9.4850 C   0  0  0  0  0  0
   71.1300   48.7910    8.8520 C   0  0  0  0  0  0
   72.4840   50.0120    7.0390 C   0  0  0  0  0  0
   71.3550   50.1140    8.1030 C   0  0  0  0  0  0
   72.6270   48.6580    6.2850 C   0  0  0  0  0  0
   72.4290   47.4350    7.1920 C   0  0  0  0  0  0
   71.0660   47.6920    7.7870 C   0  0  0  0  0  0
   69.2630   46.2750    7.3670 C   0  0  0  0  0  0
   69.1000   46.9130    6.3200 O   0  0  0  0  0  0
   68.1970   45.3010    7.7860 C   0  0  0  0  0  0
   67.5210   48.1000    9.3470 C   0  0  0  0  0  0
   68.3300   51.1910   11.2220 C   0  0  0  0  0  0
   68.1740   52.1510   10.2210 C   0  0  0  0  0  0
   67.8070   51.7450    8.9400 C   0  0  0  0  0  0
   66.6510   48.5160    5.8250 N   0  0  0  0  0  0
   68.2315   49.0855   11.7293 H   0  0  0  0  0  0
   66.2880   45.7726    8.6442 H   0  0  0  0  0  0
   66.3947   46.0161    6.8677 H   0  0  0  0  0  0
   71.2386   46.1364   10.0503 H   0  0  0  0  0  0
   70.4797   44.7107    9.2640 H   0  0  0  0  0  0
   69.4537   45.9369   10.0828 H   0  0  0  0  0  0
   71.9648   48.6164    9.5467 H   0  0  0  0  0  0
   70.1879   48.8453    9.4173 H   0  0  0  0  0  0
   72.3208   50.7687    6.2575 H   0  0  0  0  0  0
   73.4579   50.1858    7.5199 H   0  0  0  0  0  0
   70.4285   50.4050    7.5864 H   0  0  0  0  0  0
   71.6365   50.8985    8.8209 H   0  0  0  0  0  0
   71.8743   48.6027    5.4848 H   0  0  0  0  0  0
   73.6336   48.5866    5.8472 H   0  0  0  0  0  0
   72.4653   46.5185    6.5848 H   0  0  0  0  0  0
   73.2276   47.4059    7.9479 H   0  0  0  0  0  0
   70.4659   47.9926    6.9155 H   0  0  0  0  0  0
   68.3854   44.8766    8.7832 H   0  0  0  0  0  0
   68.0651   44.4857    7.0595 H   0  0  0  0  0  0
   67.6423   47.3449   10.1237 H   0  0  0  0  0  0
   68.6222   51.4983   12.2261 H   0  0  0  0  0  0
   68.3375   53.2064   10.4391 H   0  0  0  0  0  0
   67.6922   52.4908    8.1534 H   0  0  0  0  0  0
   66.5554   49.3525    5.1171 H   0  0  0  0  0  0
   66.4565   47.4866    5.4895 H   0  0  0  0  0  0
  1  5  2  0  0  0
  1  6  1  0  0  0
  2  9  1  0  0  0
  2 15  1  0  0  0
  2 16  1  0  0  0
  3  4  1  0  0  0
  3 20  2  0  0  0
  3 24  1  0  0  0
  4  5  1  0  0  0
  4 19  2  0  0  0
  5 22  1  0  0  0
  6  7  2  0  0  0
  6 23  1  0  0  0
  7  8  1  0  0  0
  7 19  1  0  0  0
  8 18  1  0  0  0
  8 25  1  0  0  0
  8 26  1  0  0  0
  9 27  1  0  0  0
  9 28  1  0  0  0
  9 29  1  0  0  0
 10 12  1  0  0  0
 10 15  1  0  0  0
 10 30  1  0  0  0
 10 31  1  0  0  0
 11 12  1  0  0  0
 11 13  1  0  0  0
 11 32  1  0  0  0
 11 33  1  0  0  0
 12 34  1  0  0  0
 12 35  1  0  0  0
 13 14  1  0  0  0
 13 36  1  0  0  0
 13 37  1  0  0  0
 14 15  1  0  0  0
 14 38  1  0  0  0
 14 39  1  0  0  0
 15 40  1  0  0  0
 16 17  2  0  0  0
 16 18  1  0  0  0
 18 41  1  0  0  0
 18 42  1  0  0  0
 19 43  1  0  0  0
 20 21  1  0  0  0
 20 44  1  0  0  0
 21 22  2  0  0  0
 21 45  1  0  0  0
 22 46  1  0  0  0
 23 47  1  0  0  0
 23 48  1  0  0  0
M  END
> <s_m_source_file>
../3rtm_ligand.sdf

> <i_m_source_file_index>
1

> <s_epik_input>
W2NIXTFbY0hdW2NIXVtjSF1jKGMxMiluYyhbTkgyXSljKFtjSF0yKVtDSDJdW0NIMl1DKD1PKU4oW0NIM10pW0NIXTNbQ0gyXVtDSDJdW0NIMl1bQ0gyXVtDSDJdMw==

> <s_epik_cmdline>
J2VwaWtfYXBwJywgJy1pbWFlJywgJ2xpZ2FuZF9wcm8ubWFlJywgJy1vbWFlJywgJ2xpZ2FuZF9wcmVwLm1hZScsICctbXMnLCAnMScsICctcGgnLCAnNycsICctcGh0JywgJzAuNScsICctbnQn

> <r_epik_Ionization_Penalty>
  0.2049

> <r_epik_Ionization_Penalty_Charging>
  0.0000

> <r_epik_Ionization_Penalty_Neutral>
  0.2049

> <r_epik_State_Penalty>
  0.1948

> <r_epik_Charging_Adjusted_Penalty>
0.194843316508248

> <i_epik_Tot_Q>
0

> <i_epik_Tot_abs_Q>
0

$$$$
