3rtn_ligand
                    3D
 Schrodinger Suite 2020-3.
 58 61  0  0  1  0            999 V2000
   68.2660   49.4580    8.9700 C   0  0  0  0  0  0
   68.3570   48.3380    9.8160 C   0  0  0  0  0  0
   69.1840   48.3990   10.9570 C   0  0  0  0  0  0
   66.7800   48.3550    7.5360 C   0  0  0  0  0  0
   67.6320   47.1810    9.4810 C   0  0  0  0  0  0
   71.0530   50.8320   14.4590 C   0  0  0  0  0  0
   72.6270   49.1450   13.7630 C   0  0  0  0  0  0
   72.4430   47.8850   11.6280 C   0  0  0  0  0  0
   64.4060   46.8170    9.7580 C   0  0  0  0  0  0
   64.3080   49.2000   10.6720 C   0  0  0  0  0  0
   63.1430   51.0900   11.5940 C   0  0  0  0  0  0
   65.3170   50.2600   12.7070 C   0  0  0  0  0  0
   62.9310   49.6690   11.0700 C   0  0  0  0  0  0
   64.0640   51.1210   12.8400 C   0  0  0  0  0  0
   65.0620   48.9120   11.9700 C   0  0  0  0  0  0
   64.3560   48.1400    9.6230 N   0  0  0  0  0  0
   64.3060   46.2170   10.8170 O   0  0  0  0  0  0
   64.5660   46.0460    8.4450 C   0  0  0  0  0  0
   66.0270   45.9090    7.9980 C   0  0  0  0  0  0
   66.8270   47.1830    8.3220 C   0  0  0  0  0  0
   67.4950   49.4310    7.8780 N   0  0  0  0  0  0
   66.0450   48.4420    6.4240 N   0  0  0  0  0  0
   68.9670   50.6220    9.2550 C   0  0  0  0  0  0
   69.7770   50.6690   10.3830 C   0  0  0  0  0  0
   69.9090   49.5660   11.2300 C   0  0  0  0  0  0
   70.7220   49.6940   12.3560 C   0  0  0  0  0  0
   70.3150   50.6400   13.2970 C   0  0  0  0  0  0
   72.2070   50.0900   14.6820 C   0  0  0  0  0  0
   71.8940   48.9500   12.5950 C   0  0  0  0  0  0
   69.2587   47.5405   11.6244 H   0  0  0  0  0  0
   67.6910   46.2924   10.1095 H   0  0  0  0  0  0
   70.7264   51.5653   15.1963 H   0  0  0  0  0  0
   73.5253   48.5572   13.9518 H   0  0  0  0  0  0
   73.3644   47.4518   12.0444 H   0  0  0  0  0  0
   72.6634   48.3509   10.6562 H   0  0  0  0  0  0
   71.6934   47.0915   11.4926 H   0  0  0  0  0  0
   64.8207   49.9838   10.0951 H   0  0  0  0  0  0
   63.6080   51.7046   10.8091 H   0  0  0  0  0  0
   62.1728   51.5260   11.8745 H   0  0  0  0  0  0
   66.0809   50.8098   12.1376 H   0  0  0  0  0  0
   65.7064   50.0221   13.7079 H   0  0  0  0  0  0
   62.2695   49.6515   10.1913 H   0  0  0  0  0  0
   62.5269   49.0028   11.8464 H   0  0  0  0  0  0
   64.3972   52.1530   13.0240 H   0  0  0  0  0  0
   63.5089   50.7533   13.7156 H   0  0  0  0  0  0
   64.4583   48.2468   12.6049 H   0  0  0  0  0  0
   66.0208   48.4257   11.7370 H   0  0  0  0  0  0
   64.3526   48.4187    8.5589 H   0  0  0  0  0  0
   64.1587   45.0311    8.5638 H   0  0  0  0  0  0
   64.0216   46.5682    7.6444 H   0  0  0  0  0  0
   66.4919   45.0594    8.5196 H   0  0  0  0  0  0
   66.0637   45.7371    6.9121 H   0  0  0  0  0  0
   65.4378   47.5848    6.0976 H   0  0  0  0  0  0
   66.0469   49.3708    5.8347 H   0  0  0  0  0  0
   68.8828   51.4898    8.6008 H   0  0  0  0  0  0
   70.3207   51.5856   10.6117 H   0  0  0  0  0  0
   69.4158   51.2302   13.1205 H   0  0  0  0  0  0
   72.7869   50.2543   15.5902 H   0  0  0  0  0  0
  1  2  1  0  0  0
  1 21  2  0  0  0
  1 23  1  0  0  0
  2  3  1  0  0  0
  2  5  2  0  0  0
  3 25  2  0  0  0
  3 30  1  0  0  0
  4 20  2  0  0  0
  4 21  1  0  0  0
  4 22  1  0  0  0
  5 20  1  0  0  0
  5 31  1  0  0  0
  6 27  2  0  0  0
  6 28  1  0  0  0
  6 32  1  0  0  0
  7 28  2  0  0  0
  7 29  1  0  0  0
  7 33  1  0  0  0
  8 29  1  0  0  0
  8 34  1  0  0  0
  8 35  1  0  0  0
  8 36  1  0  0  0
  9 16  1  0  0  0
  9 17  2  0  0  0
  9 18  1  0  0  0
 10 13  1  0  0  0
 10 15  1  0  0  0
 10 16  1  0  0  0
 10 37  1  0  0  0
 11 13  1  0  0  0
 11 14  1  0  0  0
 11 38  1  0  0  0
 11 39  1  0  0  0
 12 14  1  0  0  0
 12 15  1  0  0  0
 12 40  1  0  0  0
 12 41  1  0  0  0
 13 42  1  0  0  0
 13 43  1  0  0  0
 14 44  1  0  0  0
 14 45  1  0  0  0
 15 46  1  0  0  0
 15 47  1  0  0  0
 16 48  1  0  0  0
 18 19  1  0  0  0
 18 49  1  0  0  0
 18 50  1  0  0  0
 19 20  1  0  0  0
 19 51  1  0  0  0
 19 52  1  0  0  0
 22 53  1  0  0  0
 22 54  1  0  0  0
 23 24  2  0  0  0
 23 55  1  0  0  0
 24 25  1  0  0  0
 24 56  1  0  0  0
 25 26  1  0  0  0
 26 27  1  0  0  0
 26 29  2  0  0  0
 27 57  1  0  0  0
 28 58  1  0  0  0
M  END
> <s_m_source_file>
../3rtn_ligand.sdf

> <i_m_source_file_index>
1

> <s_epik_input>
W0NIM11jMVtjSF1bY0hdW2NIXVtjSF1jMS1jKFtjSF1bY0hdMilbY0hdYyhjMjMpW2NIXWMoYyhuMylbTkgyXSlbQ0gyXVtDSDJdQyg9TylbTkhdW0NIXTRbQ0gyXVtDSDJdW0NIMl1bQ0gyXVtDSDJdNA==

> <s_epik_cmdline>
J2VwaWtfYXBwJywgJy1pbWFlJywgJ2xpZ2FuZF9wcm8ubWFlJywgJy1vbWFlJywgJ2xpZ2FuZF9wcmVwLm1hZScsICctbXMnLCAnMScsICctcGgnLCAnNycsICctcGh0JywgJzAuNScsICctbnQn

> <r_epik_Ionization_Penalty>
  0.0819

> <r_epik_Ionization_Penalty_Charging>
  0.0000

> <r_epik_Ionization_Penalty_Neutral>
  0.0819

> <r_epik_State_Penalty>
  0.0726

> <r_epik_Charging_Adjusted_Penalty>
0.0726050863927897

> <i_epik_Tot_Q>
0

> <i_epik_Tot_abs_Q>
0

$$$$
