3rtp_ligand
                    3D
 Schrodinger Suite 2020-3.
 40 43  0  0  1  0            999 V2000
   23.0820    4.3350   32.3630 C   0  0  0  0  0  0
   23.5340    5.2220   31.3810 C   0  0  0  0  0  0
   24.8790    5.2140   31.0230 C   0  0  0  0  0  0
   25.7720    4.3440   31.6500 C   0  0  0  0  0  0
   25.3160    3.4670   32.6330 C   0  0  0  0  0  0
   23.9680    3.4620   32.9900 C   0  0  0  0  0  0
   25.3700    6.1670   29.9590 C   0  0  0  0  0  0
   24.5950    7.4710   30.1190 C   0  0  0  0  0  0
   23.1020    7.2060   30.1720 C   0  0  0  0  0  0
   22.6560    6.0690   30.7580 N   0  0  0  0  0  0
   21.2690    5.6060   30.7410 C   0  0  0  0  0  0
   20.3090    6.4080   31.5920 C   0  0  0  0  0  0
   19.2830    5.8640   31.9550 O   0  0  0  0  0  0
   20.6040    7.6090   31.8680 N   0  0  0  0  0  0
   19.8150    8.4440   32.6180 C   0  0  0  0  0  0
   18.3640    8.0640   33.2840 S   0  0  0  0  0  0
   17.9660    9.4830   34.0320 C   0  0  0  0  0  0
   19.0310   10.3440   33.7630 C   0  0  0  0  0  0
   20.1210    9.7540   32.9300 C   0  0  0  0  0  0
   21.3650   10.4640   32.5100 C   0  0  0  0  0  0
   21.4470   11.7970   32.4130 N   0  0  0  0  0  0
   22.7750   12.0010   32.0050 N   0  0  0  0  0  0
   23.3780   10.7870   31.8950 C   0  0  0  0  0  0
   22.4980    9.8110   32.2160 N   0  0  0  0  0  0
   19.0420   11.5980   34.2230 C   0  0  0  0  0  0
   22.3600    8.0400   29.6630 O   0  0  0  0  0  0
   19.0060   12.7040   34.5710 N   0  0  0  0  0  0
   22.0278    4.3267   32.6401 H   0  0  0  0  0  0
   26.8257    4.3502   31.3712 H   0  0  0  0  0  0
   26.0124    2.7859   33.1221 H   0  0  0  0  0  0
   23.6086    2.7767   33.7577 H   0  0  0  0  0  0
   26.4479    6.3415   30.0922 H   0  0  0  0  0  0
   25.1891    5.7317   28.9651 H   0  0  0  0  0  0
   24.9008    7.9672   31.0519 H   0  0  0  0  0  0
   24.8083    8.1314   29.2655 H   0  0  0  0  0  0
   20.8818    5.6456   29.7121 H   0  0  0  0  0  0
   21.2234    4.5709   31.1103 H   0  0  0  0  0  0
   21.5451    8.0429   31.4992 H   0  0  0  0  0  0
   17.0673    9.6993   34.6097 H   0  0  0  0  0  0
   24.4130   10.6250   31.5940 H   0  0  0  0  0  0
  1  2  2  0  0  0
  1  6  1  0  0  0
  1 28  1  0  0  0
  2  3  1  0  0  0
  2 10  1  0  0  0
  3  4  2  0  0  0
  3  7  1  0  0  0
  4  5  1  0  0  0
  4 29  1  0  0  0
  5  6  2  0  0  0
  5 30  1  0  0  0
  6 31  1  0  0  0
  7  8  1  0  0  0
  7 32  1  0  0  0
  7 33  1  0  0  0
  8  9  1  0  0  0
  8 34  1  0  0  0
  8 35  1  0  0  0
  9 10  1  0  0  0
  9 26  2  0  0  0
 10 11  1  0  0  0
 11 12  1  0  0  0
 11 36  1  0  0  0
 11 37  1  0  0  0
 12 13  2  0  0  0
 12 14  1  0  0  0
 14 15  1  0  0  0
 14 38  1  0  0  0
 15 16  1  0  0  0
 15 19  2  0  0  0
 16 17  1  0  0  0
 17 18  2  0  0  0
 17 39  1  0  0  0
 18 19  1  0  0  0
 18 25  1  0  0  0
 19 20  1  0  0  0
 20 21  2  0  0  0
 20 24  1  0  0  0
 21 22  1  0  0  0
 22 23  1  0  0  0
 23 24  2  0  0  0
 23 40  1  0  0  0
 25 27  3  0  0  0
M  END
> <s_m_source_file>
../3rtp_ligand.sdf

> <i_m_source_file_index>
1

> <s_epik_input>
W2NIXTFbY0hdW2NIXVtjSF1jKGMxMilbQ0gyXVtDSDJdQyg9TylOMltDSDJdQyg9TylbTkhdYzNzW2NIXWMoQyNOKWMzLWM0bltuSF1bY0hdbjQ=

> <s_epik_cmdline>
J2VwaWtfYXBwJywgJy1pbWFlJywgJ2xpZ2FuZF9wcm8ubWFlJywgJy1vbWFlJywgJ2xpZ2FuZF9wcmVwLm1hZScsICctbXMnLCAnMScsICctcGgnLCAnNycsICctcGh0JywgJzAuNScsICctbnQn

> <r_epik_Ionization_Penalty>
 18.9642

> <r_epik_Ionization_Penalty_Charging>
  0.0000

> <r_epik_Ionization_Penalty_Neutral>
 18.9642

> <r_epik_State_Penalty>
  0.2257

> <r_epik_Charging_Adjusted_Penalty>
0.225733037884543

> <i_epik_Tot_Q>
0

> <i_epik_Tot_abs_Q>
0

$$$$
