3rtx_ligand
                    3D
 Schrodinger Suite 2020-3.
202207  0  0  1  0            999 V2000
  -10.1640   37.6670  -41.0870 N   0  3  0  0  0  0
   -9.1390   36.9550  -41.9010 C   0  0  1  0  0  0
   -9.6160   36.7920  -43.3460 C   0  0  0  0  0  0
  -10.3550   37.6180  -43.8730 O   0  0  0  0  0  0
   -7.7860   37.6650  -41.8670 C   0  0  0  0  0  0
   -7.6440   38.7830  -42.3660 O   0  0  0  0  0  0
   -9.8890   38.5200  -45.1550 P   0  0  0  0  0  0
   -9.0280   39.6340  -44.6310 O   0  0  0  0  0  0
   -8.9800   37.7790  -46.0670 O   0  0  0  0  0  0
  -11.1210   38.8080  -45.9270 O   0  0  0  0  0  0
   -6.7720   37.0230  -41.2640 N   0  0  0  0  0  0
   -5.4230   37.5900  -41.1620 C   0  0  2  0  0  0
   -4.6140   37.3750  -42.4400 C   0  0  0  0  0  0
   -4.5210   36.2540  -42.9380 O   0  0  0  0  0  0
   -4.8340   36.8370  -39.9770 C   0  0  0  0  0  0
   -5.4240   35.4710  -40.1540 C   0  0  0  0  0  0
   -6.8750   35.7760  -40.4820 C   0  0  0  0  0  0
   -4.0300   38.4480  -42.9660 N   0  0  0  0  0  0
   -3.2330   38.3580  -44.1860 C   0  0  2  0  0  0
   -2.0170   37.4660  -43.9600 C   0  0  0  0  0  0
   -1.7310   37.0600  -42.8290 O   0  0  0  0  0  0
   -2.7680   39.7490  -44.6290 C   0  0  0  0  0  0
   -1.8450   40.3010  -43.7040 O   0  0  0  0  0  0
   -1.3020   37.1620  -45.0380 N   0  0  0  0  0  0
   -0.1260   36.3200  -44.9340 C   0  0  2  0  0  0
    1.1540   37.1340  -45.0480 C   0  0  0  0  0  0
    1.7880   37.1920  -46.0990 O   0  0  0  0  0  0
   -0.1850   35.2140  -45.9890 C   0  0  0  0  0  0
   -1.4100   34.3440  -45.8160 C   0  0  0  0  0  0
   -2.5450   34.5400  -46.6010 C   0  0  0  0  0  0
   -1.4750   33.3980  -44.7910 C   0  0  0  0  0  0
   -3.7170   33.8240  -46.3660 C   0  0  0  0  0  0
   -2.6380   32.6790  -44.5440 C   0  0  0  0  0  0
   -3.7580   32.8980  -45.3330 C   0  0  0  0  0  0
   -4.9270   32.2100  -45.0780 O   0  0  0  0  0  0
    1.5130   37.7650  -43.9330 N   0  0  0  0  0  0
    2.7070   38.5940  -43.8260 C   0  0  1  0  0  0
    2.3070   40.0370  -43.5140 C   0  0  0  0  0  0
    3.1470   40.8930  -43.2740 O   0  0  0  0  0  0
    3.6030   38.0480  -42.7100 C   0  0  0  0  0  0
    3.1190   37.6490  -41.6500 O   0  0  0  0  0  0
    3.4780   42.1010  -44.3190 P   0  0  0  0  0  0
    2.2900   43.0220  -44.3210 O   0  0  0  0  0  0
    4.5930   42.9610  -43.8440 O   0  0  0  0  0  0
    3.9440   41.4540  -45.5690 O   0  0  0  0  0  0
    4.9260   38.0340  -42.9310 N   0  0  0  0  0  0
    5.8860   37.5310  -41.9430 C   0  0  2  0  0  0
    5.9650   38.3010  -40.6230 C   0  0  0  0  0  0
    6.7280   37.9250  -39.7320 O   0  0  0  0  0  0
    7.2060   37.5610  -42.7070 C   0  0  0  0  0  0
    7.0300   38.7370  -43.6140 C   0  0  0  0  0  0
    5.6240   38.5340  -44.1280 C   0  0  0  0  0  0
    5.1810   39.3670  -40.4910 N   0  0  0  0  0  0
    5.1990   40.1710  -39.2680 C   0  0  2  0  0  0
    4.5400   39.4700  -38.0820 C   0  0  0  0  0  0
    3.5790   38.7220  -38.2480 O   0  0  0  0  0  0
    4.4970   41.5220  -39.4760 C   0  0  2  0  0  0
    3.1490   41.2960  -39.9070 O   0  0  0  0  0  0
    5.2330   42.3470  -40.5190 C   0  0  0  0  0  0
    5.0650   39.7260  -36.8870 N   0  0  0  0  0  0
    4.5370   39.1290  -35.6650 C   0  0  1  0  0  0
    5.1370   39.8040  -34.4350 C   0  0  0  0  0  0
    5.8770   39.1930  -33.6770 O   0  0  0  0  0  0
    3.0180   39.2290  -35.6190 C   0  0  0  0  0  0
    2.4470   40.2720  -35.9330 O   0  0  0  0  0  0
    7.4610   39.5480  -33.5370 P   0  0  0  0  0  0
    7.6360   40.9890  -33.9180 O   0  0  0  0  0  0
    7.9190   39.5060  -32.1290 O   0  0  0  0  0  0
    8.1870   38.4750  -34.2530 O   0  0  0  0  0  0
    2.3460   38.1390  -35.2150 N   0  0  0  0  0  0
    0.8840   38.0770  -35.1220 C   0  0  2  0  0  0
    0.3100   38.9610  -34.0210 C   0  0  0  0  0  0
    0.9390   39.1630  -32.9810 O   0  0  0  0  0  0
    0.6270   36.6000  -34.8630 C   0  0  0  0  0  0
    1.7990   36.2260  -34.0030 C   0  0  0  0  0  0
    2.9510   36.8830  -34.7350 C   0  0  0  0  0  0
   -0.8880   39.4840  -34.2610 N   0  0  0  0  0  0
   -1.5610   40.3410  -33.2920 C   0  0  2  0  0  0
   -2.5720   39.5220  -32.5030 C   0  0  0  0  0  0
   -3.6040   39.1060  -33.0340 O   0  0  0  0  0  0
   -2.2740   41.4970  -33.9980 C   0  0  0  0  0  0
   -2.9160   42.3400  -33.0590 O   0  0  0  0  0  0
   -2.2630   39.2900  -31.2320 N   0  0  0  0  0  0
   -3.1340   38.5190  -30.3640 C   0  0  2  0  0  0
   -4.2900   39.3850  -29.8860 C   0  0  0  0  0  0
   -4.5180   39.5390  -28.6880 O   0  0  0  0  0  0
   -2.3220   37.9750  -29.1870 C   0  0  0  0  0  0
   -1.1900   37.0740  -29.6330 C   0  0  0  0  0  0
    0.1220   37.3040  -29.2170 C   0  0  0  0  0  0
   -1.4260   36.0110  -30.5040 C   0  0  0  0  0  0
    1.1720   36.4990  -29.6620 C   0  0  0  0  0  0
   -0.3880   35.2020  -30.9530 C   0  0  0  0  0  0
    0.9080   35.4510  -30.5310 C   0  0  0  0  0  0
    1.9350   34.6550  -30.9910 O   0  0  0  0  0  0
   -5.0140   39.9510  -30.8490 N   0  0  0  0  0  0
   -6.1620   40.8090  -30.5750 C   0  0  1  0  0  0
   -5.7000   42.1840  -30.0810 C   0  0  0  0  0  0
   -4.8690   42.8440  -30.7030 O   0  0  0  0  0  0
   -7.0080   40.9670  -31.8390 C   0  0  0  0  0  0
   -6.4800   41.2460  -32.9180 O   0  0  0  0  0  0
   -5.0530   44.4420  -31.0100 P   0  0  0  0  0  0
   -5.7380   44.5640  -32.3420 O   0  0  0  0  0  0
   -6.0020   45.0950  -30.0710 O   0  0  0  0  0  0
   -3.7270   45.0640  -30.7750 O   0  0  0  0  0  0
   -8.3350   40.7810  -31.7230 N   0  0  0  0  0  0
   -9.2370   40.9100  -32.8710 C   0  0  2  0  0  0
   -9.6080   42.3670  -33.1480 C   0  0  0  0  0  0
   -9.0360   42.9340  -34.1040 O   0  0  0  0  0  0
  -10.4390   40.0770  -32.4470 C   0  0  0  0  0  0
  -10.5190   40.3750  -30.9880 C   0  0  0  0  0  0
   -9.0650   40.2800  -30.5430 C   0  0  0  0  0  0
  -10.4568   42.9725  -32.4406 O   0  0  0  0  0  0
  -11.1181   37.1221  -41.1407 H   0  0  0  0  0  0
  -10.3009   38.6856  -41.4791 H   0  0  0  0  0  0
   -9.8297   37.7189  -40.0403 H   0  0  0  0  0  0
   -9.0220   35.9667  -41.4324 H   0  0  0  0  0  0
   -8.7460   36.7678  -44.0188 H   0  0  0  0  0  0
  -10.1801   35.8526  -43.4422 H   0  0  0  0  0  0
   -8.1168   39.4028  -44.0598 H   0  0  0  0  0  0
   -7.9910   37.4532  -45.7125 H   0  0  0  0  0  0
   -5.4578   38.6807  -41.0234 H   0  0  0  0  0  0
   -3.7362   36.8453  -40.0463 H   0  0  0  0  0  0
   -5.1460   37.3240  -39.0413 H   0  0  0  0  0  0
   -4.9033   34.9497  -40.9708 H   0  0  0  0  0  0
   -5.3094   34.8985  -39.2218 H   0  0  0  0  0  0
   -7.4863   35.9550  -39.5852 H   0  0  0  0  0  0
   -7.3463   34.9953  -41.0971 H   0  0  0  0  0  0
   -4.1573   39.4177  -42.4625 H   0  0  0  0  0  0
   -3.8986   37.9145  -44.9412 H   0  0  0  0  0  0
   -2.2787   39.6764  -45.6115 H   0  0  0  0  0  0
   -3.6364   40.4204  -44.7007 H   0  0  0  0  0  0
   -1.4178   41.2989  -43.8823 H   0  0  0  0  0  0
   -1.6110   37.5567  -46.0172 H   0  0  0  0  0  0
   -0.1617   35.8840  -43.9247 H   0  0  0  0  0  0
   -0.2185   35.6651  -46.9917 H   0  0  0  0  0  0
    0.7079   34.5773  -45.9031 H   0  0  0  0  0  0
   -2.5152   35.2663  -47.4132 H   0  0  0  0  0  0
   -0.5956   33.2200  -44.1721 H   0  0  0  0  0  0
   -4.5957   33.9900  -46.9892 H   0  0  0  0  0  0
   -2.6702   31.9480  -43.7361 H   0  0  0  0  0  0
   -5.8150   32.3836  -45.7035 H   0  0  0  0  0  0
    0.8537   37.6351  -43.0621 H   0  0  0  0  0  0
    3.2204   38.5440  -44.7976 H   0  0  0  0  0  0
    1.7558   40.4575  -44.3680 H   0  0  0  0  0  0
    1.6667   40.0548  -42.6198 H   0  0  0  0  0  0
    1.9580   43.4935  -43.3843 H   0  0  0  0  0  0
    4.4797   43.5485  -42.9209 H   0  0  0  0  0  0
    5.5509   36.5365  -41.6133 H   0  0  0  0  0  0
    8.0371   37.6899  -41.9980 H   0  0  0  0  0  0
    7.3344   36.6156  -43.2545 H   0  0  0  0  0  0
    7.1467   39.6660  -43.0367 H   0  0  0  0  0  0
    7.7880   38.7026  -44.4104 H   0  0  0  0  0  0
    5.5633   37.7822  -44.9287 H   0  0  0  0  0  0
    5.1505   39.4678  -44.4653 H   0  0  0  0  0  0
    4.5115   39.6412  -41.3196 H   0  0  0  0  0  0
    6.2756   40.2912  -39.0767 H   0  0  0  0  0  0
    4.4299   42.0827  -38.5320 H   0  0  0  0  0  0
    2.4604   40.7139  -39.2769 H   0  0  0  0  0  0
    6.2673   42.5196  -40.1869 H   0  0  0  0  0  0
    4.7234   43.3132  -40.6486 H   0  0  0  0  0  0
    5.2409   41.8052  -41.4763 H   0  0  0  0  0  0
    5.9238   40.4116  -36.8376 H   0  0  0  0  0  0
    4.8383   38.0719  -35.7066 H   0  0  0  0  0  0
    5.7477   40.6631  -34.7495 H   0  0  0  0  0  0
    4.3277   40.1512  -33.7758 H   0  0  0  0  0  0
    7.0877   41.7722  -33.3740 H   0  0  0  0  0  0
    7.5128   40.2195  -31.3970 H   0  0  0  0  0  0
    0.4249   38.4634  -36.0439 H   0  0  0  0  0  0
   -0.3392   36.4802  -34.3510 H   0  0  0  0  0  0
    0.6043   36.0584  -35.8202 H   0  0  0  0  0  0
    1.6509   36.6238  -32.9882 H   0  0  0  0  0  0
    1.8862   35.1304  -33.9582 H   0  0  0  0  0  0
    3.3033   36.2938  -35.5945 H   0  0  0  0  0  0
    3.8007   37.1138  -34.0757 H   0  0  0  0  0  0
   -1.3719   39.2545  -35.2218 H   0  0  0  0  0  0
   -0.7744   40.7302  -32.6289 H   0  0  0  0  0  0
   -1.5400   42.0900  -34.5632 H   0  0  0  0  0  0
   -3.0300   41.0947  -34.6884 H   0  0  0  0  0  0
   -3.4760   43.2216  -33.4041 H   0  0  0  0  0  0
   -1.3195   39.6991  -30.8415 H   0  0  0  0  0  0
   -3.5348   37.6877  -30.9626 H   0  0  0  0  0  0
   -1.8865   38.8133  -28.6234 H   0  0  0  0  0  0
   -2.9799   37.3914  -28.5262 H   0  0  0  0  0  0
    0.3305   38.1265  -28.5328 H   0  0  0  0  0  0
   -2.4436   35.8104  -30.8393 H   0  0  0  0  0  0
    2.1917   36.6927  -29.3290 H   0  0  0  0  0  0
   -0.5929   34.3758  -31.6338 H   0  0  0  0  0  0
    2.9674   34.8444  -30.6620 H   0  0  0  0  0  0
   -4.7144   39.7483  -31.8878 H   0  0  0  0  0  0
   -6.7379   40.3002  -29.7880 H   0  0  0  0  0  0
   -6.5645   42.8615  -30.0210 H   0  0  0  0  0  0
   -5.2445   42.0818  -29.0850 H   0  0  0  0  0  0
   -6.7212   44.0967  -32.4997 H   0  0  0  0  0  0
   -7.0601   44.7946  -30.0610 H   0  0  0  0  0  0
   -8.7578   40.5565  -33.7959 H   0  0  0  0  0  0
  -11.3282   40.4061  -33.0047 H   0  0  0  0  0  0
  -10.2437   39.0159  -32.6613 H   0  0  0  0  0  0
  -10.9426   41.3796  -30.8417 H   0  0  0  0  0  0
  -11.1625   39.6305  -30.4964 H   0  0  0  0  0  0
   -8.7512   39.2477  -30.3288 H   0  0  0  0  0  0
   -8.8420   40.9185  -29.6755 H   0  0  0  0  0  0
  -10.7075   44.0210  -32.6592 H   0  0  0  0  0  0
  1  2  1  0  0  0
  1113  1  0  0  0
  1114  1  0  0  0
  1115  1  0  0  0
  2  3  1  0  0  0
  2  5  1  0  0  0
  2116  1  0  0  0
  3  4  1  0  0  0
  3117  1  0  0  0
  3118  1  0  0  0
  4  7  1  0  0  0
  5  6  2  0  0  0
  5 11  1  0  0  0
  7  8  1  0  0  0
  7  9  1  0  0  0
  7 10  2  0  0  0
  8119  1  0  0  0
  9120  1  0  0  0
 11 12  1  0  0  0
 11 17  1  0  0  0
 12 13  1  0  0  0
 12 15  1  0  0  0
 12121  1  0  0  0
 13 14  2  0  0  0
 13 18  1  0  0  0
 15 16  1  0  0  0
 15122  1  0  0  0
 15123  1  0  0  0
 16 17  1  0  0  0
 16124  1  0  0  0
 16125  1  0  0  0
 17126  1  0  0  0
 17127  1  0  0  0
 18 19  1  0  0  0
 18128  1  0  0  0
 19 20  1  0  0  0
 19 22  1  0  0  0
 19129  1  0  0  0
 20 21  2  0  0  0
 20 24  1  0  0  0
 22 23  1  0  0  0
 22130  1  0  0  0
 22131  1  0  0  0
 23132  1  0  0  0
 24 25  1  0  0  0
 24133  1  0  0  0
 25 26  1  0  0  0
 25 28  1  0  0  0
 25134  1  0  0  0
 26 27  2  0  0  0
 26 36  1  0  0  0
 28 29  1  0  0  0
 28135  1  0  0  0
 28136  1  0  0  0
 29 30  2  0  0  0
 29 31  1  0  0  0
 30 32  1  0  0  0
 30137  1  0  0  0
 31 33  2  0  0  0
 31138  1  0  0  0
 32 34  2  0  0  0
 32139  1  0  0  0
 33 34  1  0  0  0
 33140  1  0  0  0
 34 35  1  0  0  0
 35141  1  0  0  0
 36 37  1  0  0  0
 36142  1  0  0  0
 37 38  1  0  0  0
 37 40  1  0  0  0
 37143  1  0  0  0
 38 39  1  0  0  0
 38144  1  0  0  0
 38145  1  0  0  0
 39 42  1  0  0  0
 40 41  2  0  0  0
 40 46  1  0  0  0
 42 43  1  0  0  0
 42 44  1  0  0  0
 42 45  2  0  0  0
 43146  1  0  0  0
 44147  1  0  0  0
 46 47  1  0  0  0
 46 52  1  0  0  0
 47 48  1  0  0  0
 47 50  1  0  0  0
 47148  1  0  0  0
 48 49  2  0  0  0
 48 53  1  0  0  0
 50 51  1  0  0  0
 50149  1  0  0  0
 50150  1  0  0  0
 51 52  1  0  0  0
 51151  1  0  0  0
 51152  1  0  0  0
 52153  1  0  0  0
 52154  1  0  0  0
 53 54  1  0  0  0
 53155  1  0  0  0
 54 55  1  0  0  0
 54 57  1  0  0  0
 54156  1  0  0  0
 55 56  2  0  0  0
 55 60  1  0  0  0
 57 58  1  0  0  0
 57 59  1  0  0  0
 57157  1  0  0  0
 58158  1  0  0  0
 59159  1  0  0  0
 59160  1  0  0  0
 59161  1  0  0  0
 60 61  1  0  0  0
 60162  1  0  0  0
 61 62  1  0  0  0
 61 64  1  0  0  0
 61163  1  0  0  0
 62 63  1  0  0  0
 62164  1  0  0  0
 62165  1  0  0  0
 63 66  1  0  0  0
 64 65  2  0  0  0
 64 70  1  0  0  0
 66 67  1  0  0  0
 66 68  1  0  0  0
 66 69  2  0  0  0
 67166  1  0  0  0
 68167  1  0  0  0
 70 71  1  0  0  0
 70 76  1  0  0  0
 71 72  1  0  0  0
 71 74  1  0  0  0
 71168  1  0  0  0
 72 73  2  0  0  0
 72 77  1  0  0  0
 74 75  1  0  0  0
 74169  1  0  0  0
 74170  1  0  0  0
 75 76  1  0  0  0
 75171  1  0  0  0
 75172  1  0  0  0
 76173  1  0  0  0
 76174  1  0  0  0
 77 78  1  0  0  0
 77175  1  0  0  0
 78 79  1  0  0  0
 78 81  1  0  0  0
 78176  1  0  0  0
 79 80  2  0  0  0
 79 83  1  0  0  0
 81 82  1  0  0  0
 81177  1  0  0  0
 81178  1  0  0  0
 82179  1  0  0  0
 83 84  1  0  0  0
 83180  1  0  0  0
 84 85  1  0  0  0
 84 87  1  0  0  0
 84181  1  0  0  0
 85 86  2  0  0  0
 85 95  1  0  0  0
 87 88  1  0  0  0
 87182  1  0  0  0
 87183  1  0  0  0
 88 89  2  0  0  0
 88 90  1  0  0  0
 89 91  1  0  0  0
 89184  1  0  0  0
 90 92  2  0  0  0
 90185  1  0  0  0
 91 93  2  0  0  0
 91186  1  0  0  0
 92 93  1  0  0  0
 92187  1  0  0  0
 93 94  1  0  0  0
 94188  1  0  0  0
 95 96  1  0  0  0
 95189  1  0  0  0
 96 97  1  0  0  0
 96 99  1  0  0  0
 96190  1  0  0  0
 97 98  1  0  0  0
 97191  1  0  0  0
 97192  1  0  0  0
 98101  1  0  0  0
 99100  2  0  0  0
 99105  1  0  0  0
101102  1  0  0  0
101103  1  0  0  0
101104  2  0  0  0
102193  1  0  0  0
103194  1  0  0  0
105106  1  0  0  0
105111  1  0  0  0
106107  1  0  0  0
106109  1  0  0  0
106195  1  0  0  0
107108  2  0  0  0
107112  1  0  0  0
109110  1  0  0  0
109196  1  0  0  0
109197  1  0  0  0
110111  1  0  0  0
110198  1  0  0  0
110199  1  0  0  0
111200  1  0  0  0
111201  1  0  0  0
112202  1  0  0  0
M  CHG  1   1   1
M  END
> <s_m_source_file>
../3rtx_ligand.sdf

> <i_m_source_file_index>
1

> <s_epik_input>
W09IXVAoPU8pKFtPSF0pT1tDSDJdW0NASF0oW05IMytdKUMoPU8pTjFbQ0BASF0oW0NIMl1bQ0gyXVtDSDJdMSlDKD1PKVtOSF1bQ0BASF0oW0NIMl1bT0hdKUMoPU8pW05IXVtDQEBIXShbQ0gyXWMyW2NIXVtjSF1jKFtPSF0pW2NIXVtjSF0yKUMoPU8pW05IXVtDQEBIXShbQ0gyXU9QKD1PKShbT0hdKVtPSF0pQyg9TylOM1tDQEBIXShbQ0gyXVtDSDJdW0NIMl0zKUMoPU8pW05IXVtDQEBIXShbQ0BIXShbT0hdKVtDSDNdKUMoPU8pW05IXVtDQEBIXShbQ0gyXU9QKD1PKShbT0hdKVtPSF0pQyg9TylONFtDQEBIXShbQ0gyXVtDSDJdW0NIMl00KUMoPU8pW05IXVtDQEBIXShbQ0gyXVtPSF0pQyg9TylbTkhdW0NAQEhdKFtDSDJdYzVbY0hdW2NIXWMoW09IXSlbY0hdW2NIXTUpQyg9TylbTkhdW0NAQEhdKFtDSDJdT1AoPU8pKFtPSF0pW09IXSlDKD1PKU42W0NASF0oQyg9TylbT0hdKVtDSDJdW0NIMl1bQ0gyXTY=

> <s_epik_cmdline>
J2VwaWtfYXBwJywgJy1pbWFlJywgJ2xpZ2FuZF9wcm8ubWFlJywgJy1vbWFlJywgJ2xpZ2FuZF9wcmVwLm1hZScsICctbXMnLCAnMScsICctcGgnLCAnNycsICctcGh0JywgJzAuNScsICctbnQn

> <s_epik_pKa_notes>
Molecule size exceeds maximum supported for generating protonation states

$$$$
