3ru1_ligand
                    3D
 Schrodinger Suite 2020-3.
 48 50  0  0  1  0            999 V2000
   68.3050   49.1390   11.2690 C   0  0  0  0  0  0
   67.6540   48.9940   10.0480 C   0  0  0  0  0  0
   67.8870   49.9060    9.0280 C   0  0  0  0  0  0
   66.4110   48.7670    7.6130 C   0  0  0  0  0  0
   66.7700   47.9430    9.8380 C   0  0  0  0  0  0
   63.7440   47.1920    8.3830 C   0  0  0  0  0  0
   62.4030   49.1250   11.3750 C   0  0  0  0  0  0
   65.1770   51.0190   13.2230 C   0  0  0  0  0  0
   65.4010   52.1570   12.2260 C   0  0  0  0  0  0
   64.0930   52.5830   11.5690 C   0  0  0  0  0  0
   64.4670   49.8440   12.5550 C   0  0  0  0  0  0
   63.3630   51.3880   10.9430 C   0  0  0  0  0  0
   63.1270   50.3110   11.9940 C   0  0  0  0  0  0
   62.9330   48.7670   10.0520 N   0  0  0  0  0  0
   63.2410   47.5020    9.7970 C   0  0  0  0  0  0
   63.1320   46.6100   10.6320 O   0  0  0  0  0  0
   65.1740   46.6560    8.4160 C   0  0  0  0  0  0
   66.1380   47.8210    8.6040 C   0  0  0  0  0  0
   69.1870   50.1960   11.4650 C   0  0  0  0  0  0
   69.4240   51.1100   10.4480 C   0  0  0  0  0  0
   68.7700   50.9600    9.2310 C   0  0  0  0  0  0
   67.2690   49.7720    7.8460 N   0  0  0  0  0  0
   65.8220   48.6700    6.4180 N   0  0  0  0  0  0
   68.1237   48.4243   12.0717 H   0  0  0  0  0  0
   66.5735   47.2217   10.6312 H   0  0  0  0  0  0
   63.0940   46.4347    7.9204 H   0  0  0  0  0  0
   63.7254   48.1103    7.7776 H   0  0  0  0  0  0
   62.5096   48.2478   12.0301 H   0  0  0  0  0  0
   61.3365   49.3672   11.2572 H   0  0  0  0  0  0
   66.1473   50.6735   13.6091 H   0  0  0  0  0  0
   64.5575   51.3793   14.0575 H   0  0  0  0  0  0
   65.8283   53.0247   12.7500 H   0  0  0  0  0  0
   66.0954   51.8247   11.4402 H   0  0  0  0  0  0
   63.4342   53.0367   12.3241 H   0  0  0  0  0  0
   64.3025   53.3168   10.7768 H   0  0  0  0  0  0
   65.0914   49.4554   11.7370 H   0  0  0  0  0  0
   64.2970   49.0490   13.2960 H   0  0  0  0  0  0
   62.3941   51.7196   10.5415 H   0  0  0  0  0  0
   63.9738   50.9707   10.1288 H   0  0  0  0  0  0
   62.5074   50.7299   12.8006 H   0  0  0  0  0  0
   63.0705   49.5442    9.2858 H   0  0  0  0  0  0
   65.2811   45.9482    9.2512 H   0  0  0  0  0  0
   65.3948   46.1417    7.4690 H   0  0  0  0  0  0
   69.6951   50.3073   12.4229 H   0  0  0  0  0  0
   70.1164   51.9376   10.6023 H   0  0  0  0  0  0
   68.9511   51.6752    8.4286 H   0  0  0  0  0  0
   65.1171   47.8497    6.2172 H   0  0  0  0  0  0
   66.0418   49.4104    5.6347 H   0  0  0  0  0  0
  1  2  2  0  0  0
  1 19  1  0  0  0
  1 24  1  0  0  0
  2  3  1  0  0  0
  2  5  1  0  0  0
  3 21  2  0  0  0
  3 22  1  0  0  0
  4 18  1  0  0  0
  4 22  2  0  0  0
  4 23  1  0  0  0
  5 18  2  0  0  0
  5 25  1  0  0  0
  6 15  1  0  0  0
  6 17  1  0  0  0
  6 26  1  0  0  0
  6 27  1  0  0  0
  7 13  1  0  0  0
  7 14  1  0  0  0
  7 28  1  0  0  0
  7 29  1  0  0  0
  8  9  1  0  0  0
  8 11  1  0  0  0
  8 30  1  0  0  0
  8 31  1  0  0  0
  9 10  1  0  0  0
  9 32  1  0  0  0
  9 33  1  0  0  0
 10 12  1  0  0  0
 10 34  1  0  0  0
 10 35  1  0  0  0
 11 13  1  0  0  0
 11 36  1  0  0  0
 11 37  1  0  0  0
 12 13  1  0  0  0
 12 38  1  0  0  0
 12 39  1  0  0  0
 13 40  1  0  0  0
 14 15  1  0  0  0
 14 41  1  0  0  0
 15 16  2  0  0  0
 17 18  1  0  0  0
 17 42  1  0  0  0
 17 43  1  0  0  0
 19 20  2  0  0  0
 19 44  1  0  0  0
 20 21  1  0  0  0
 20 45  1  0  0  0
 21 46  1  0  0  0
 23 47  1  0  0  0
 23 48  1  0  0  0
M  END
> <s_m_source_file>
../3ru1_ligand.sdf

> <i_m_source_file_index>
1

> <s_epik_input>
W2NIXTFbY0hdW2NIXVtjSF1jKGMxMiluYyhbTkgyXSljKFtjSF0yKVtDSDJdW0NIMl1DKD1PKVtOSF1bQ0gyXVtDSF0zW0NIMl1bQ0gyXVtDSDJdW0NIMl1bQ0gyXTM=

> <s_epik_cmdline>
J2VwaWtfYXBwJywgJy1pbWFlJywgJ2xpZ2FuZF9wcm8ubWFlJywgJy1vbWFlJywgJ2xpZ2FuZF9wcmVwLm1hZScsICctbXMnLCAnMScsICctcGgnLCAnNycsICctcGh0JywgJzAuNScsICctbnQn

> <r_epik_Ionization_Penalty>
  0.1890

> <r_epik_Ionization_Penalty_Charging>
  0.0000

> <r_epik_Ionization_Penalty_Neutral>
  0.1890

> <r_epik_State_Penalty>
  0.1786

> <r_epik_Charging_Adjusted_Penalty>
0.178643416556306

> <i_epik_Tot_Q>
0

> <i_epik_Tot_abs_Q>
0

$$$$
