3rul_ligand
                    3D
 Schrodinger Suite 2020-3.
152162  0  0  1  0            999 V2000
    4.5440    2.2340   34.4010 C   0  0  0  0  0  0
    6.2840    1.0740   33.2450 N   0  3  0  0  0  0
    5.4440    2.8620   34.9340 O   0  0  0  0  0  0
    4.6840    2.3080   31.8900 C   0  0  0  0  0  0
    4.7090    3.7010   31.9140 C   0  0  0  0  0  0
    4.5430    4.4410   30.7310 C   0  0  0  0  0  0
    4.3580    3.8030   29.5180 C   0  0  0  0  0  0
    4.1890    4.5390   28.3690 O   0  0  0  0  0  0
    4.4860    1.6800   30.6660 C   0  0  0  0  0  0
    4.3300    2.4120   29.4870 C   0  0  0  0  0  0
    4.8580    1.4790   33.1200 C   0  0  2  0  0  0
    6.6970    0.0820   32.2350 C   0  0  0  0  0  0
    3.3120    2.1630   34.9120 N   0  0  0  0  0  0
    2.9590    2.8660   36.1630 C   0  0  1  0  0  0
    2.1490    4.1500   35.8940 C   0  0  0  0  0  0
    1.8800    4.9180   36.8170 O   0  0  0  0  0  0
    2.2200    1.9380   37.1540 C   0  0  0  0  0  0
    0.8570    1.5650   36.6440 C   0  0  0  0  0  0
    0.7200    0.6230   35.6340 C   0  0  0  0  0  0
   -0.2910    2.1960   37.1200 C   0  0  0  0  0  0
   -0.5060    0.3020   35.1230 C   0  0  0  0  0  0
   -1.5370    1.8730   36.6160 C   0  0  0  0  0  0
   -1.6330    0.9190   35.6190 C   0  0  0  0  0  0
   -2.8430    0.5910   35.0670 O   0  0  0  0  0  0
   -0.2260    5.7700   33.6200 C   0  0  0  0  0  0
    1.7320    4.3840   34.6480 N   0  0  0  0  0  0
   -0.8790    6.8430   33.7290 O   0  0  0  0  0  0
    1.8710    8.6550   35.0980 Cl  0  0  0  0  0  0
    2.2370    6.4780   33.4850 C   0  0  0  0  0  0
    2.5910    7.7920   33.7910 C   0  0  0  0  0  0
    3.5560    8.4490   33.0470 C   0  0  0  0  0  0
    3.8540    9.7320   33.3780 O   0  0  0  0  0  0
    4.1920    7.8080   31.9890 C   0  0  0  0  0  0
    4.5660    5.8060   30.7270 O   0  0  0  0  0  0
    2.8710    5.8360   32.4310 C   0  0  0  0  0  0
    3.8520    6.4940   31.6910 C   0  0  0  0  0  0
    1.1780    5.7210   34.3120 C   0  0  1  0  0  0
   -0.6640    4.7110   32.9340 N   0  0  0  0  0  0
   -2.0280    4.6800   32.3270 C   0  0  1  0  0  0
   -2.0260    5.0350   30.8320 C   0  0  0  0  0  0
   -1.1920    4.5430   30.0720 O   0  0  0  0  0  0
   -2.7330    3.3030   32.5450 C   0  0  0  0  0  0
   -2.4310    2.5260   33.6690 C   0  0  0  0  0  0
   -3.0770    1.2980   33.8910 C   0  0  0  0  0  0
   -4.0220    0.8360   32.9750 C   0  0  0  0  0  0
   -4.6290   -0.3630   33.1990 O   0  0  0  0  0  0
   -4.3340    1.5930   31.8410 C   0  0  0  0  0  0
   -3.6920    2.8250   31.6430 C   0  0  0  0  0  0
   -2.9520    5.9010   30.4220 N   0  0  0  0  0  0
   -3.3020    6.0470   28.9830 C   0  0  1  0  0  0
   -4.8250    6.3330   28.8440 C   0  0  0  0  0  0
   -5.4310    6.8640   29.7770 O   0  0  0  0  0  0
   -2.6030    7.1850   28.2150 C   0  0  0  0  0  0
   -1.7900    6.8950   27.1280 C   0  0  0  0  0  0
   -1.2150    7.9310   26.3950 C   0  0  0  0  0  0
   -1.4450    9.2630   26.7540 C   0  0  0  0  0  0
   -0.8870   10.2960   26.0640 O   0  0  0  0  0  0
   -2.2690    9.5500   27.8370 C   0  0  0  0  0  0
   -2.8540    8.5130   28.5510 C   0  0  0  0  0  0
   -5.4300    6.0130   27.6950 N   0  0  0  0  0  0
   -4.7530    5.3690   26.5390 C   0  0  1  0  0  0
   -5.2700    1.1050   30.9280 O   0  0  0  0  0  0
   -6.3800    2.7610   29.5870 C   0  0  0  0  0  0
   -4.4140    1.6580   28.7730 C   0  0  0  0  0  0
   -5.3570    1.8400   29.7770 C   0  0  0  0  0  0
   -5.5040    3.3030   27.3940 C   0  0  0  0  0  0
   -6.4490    3.4990   28.4040 C   0  0  0  0  0  0
   -4.4730    2.3880   27.5870 C   0  0  0  0  0  0
   -5.5500    4.1400   26.1170 C   0  0  1  0  0  0
   -3.1690    0.4930   29.0410 Cl  0  0  0  0  0  0
   -5.3160    7.3260   25.2300 O   0  0  0  0  0  0
   -4.5320    6.3970   25.4180 C   0  0  0  0  0  0
   -6.8950    4.5380   25.7680 O   0  0  0  0  0  0
   -3.2950    7.4600   22.5300 C   0  0  0  0  0  0
   -3.4310    6.2300   24.6940 N   0  0  0  0  0  0
   -3.7320    6.4690   21.9450 O   0  0  0  0  0  0
   -1.3100    7.2180   24.0520 C   0  0  0  0  0  0
   -0.6710    6.6830   22.9380 C   0  0  0  0  0  0
    0.7020    6.5180   22.9330 C   0  0  0  0  0  0
    1.3280    6.0010   21.8470 O   0  0  0  0  0  0
    1.4370    6.8820   24.0460 C   0  0  0  0  0  0
    0.7950    7.3990   25.1580 C   0  0  0  0  0  0
   -0.5820    7.5950   25.1910 C   0  0  0  0  0  0
   -2.8280    7.3650   23.9850 C   0  0  1  0  0  0
   -3.1980    8.6460   21.9100 N   0  0  0  0  0  0
   -3.7420    8.6520   20.5470 C   0  0  0  0  0  0
   -3.2500    9.9260   19.8480 C   0  0  0  0  0  0
   -3.6840   11.1890   20.6160 C   0  0  0  0  0  0
   -5.1500   11.3030   20.7370 N   0  3  0  0  0  0
   -5.4850   12.5130   21.5150 C   0  0  0  0  0  0
   -5.7530   11.4090   19.3960 C   0  0  0  0  0  0
    6.9280    1.9577   33.1253 H   0  0  0  0  0  0
    6.4532    0.6287   34.2365 H   0  0  0  0  0  0
    4.8588    4.2218   32.8597 H   0  0  0  0  0  0
    4.2139    5.6379   28.4111 H   0  0  0  0  0  0
    4.4517    0.5913   30.6254 H   0  0  0  0  0  0
    4.1859    1.8923   28.5397 H   0  0  0  0  0  0
    4.1778    0.6240   32.9924 H   0  0  0  0  0  0
    7.7568   -0.1727   32.3832 H   0  0  0  0  0  0
    6.5586    0.5040   31.2286 H   0  0  0  0  0  0
    6.0837   -0.8251   32.3398 H   0  0  0  0  0  0
    2.5536    1.5670   34.3832 H   0  0  0  0  0  0
    3.9313    3.1481   36.5931 H   0  0  0  0  0  0
    2.8030    1.0163   37.2976 H   0  0  0  0  0  0
    2.1026    2.4518   38.1195 H   0  0  0  0  0  0
    1.6084    0.1292   35.2404 H   0  0  0  0  0  0
   -0.2052    2.9534   37.8992 H   0  0  0  0  0  0
   -0.5915   -0.4381   34.3274 H   0  0  0  0  0  0
   -2.4318    2.3635   36.9991 H   0  0  0  0  0  0
    1.7939    3.6041   33.8747 H   0  0  0  0  0  0
    3.3372   10.2172   34.2191 H   0  0  0  0  0  0
    4.9473    8.3296   31.4013 H   0  0  0  0  0  0
    2.6002    4.8104   32.1800 H   0  0  0  0  0  0
    1.0030    6.1657   35.3028 H   0  0  0  0  0  0
    0.0078    3.8473   32.8215 H   0  0  0  0  0  0
   -2.5600    5.4776   32.8663 H   0  0  0  0  0  0
   -1.6850    2.8779   34.3815 H   0  0  0  0  0  0
   -4.3752   -0.9492   34.0945 H   0  0  0  0  0  0
   -3.9453    3.4233   30.7678 H   0  0  0  0  0  0
   -3.4622    6.5167   31.1773 H   0  0  0  0  0  0
   -2.9457    5.0862   28.5831 H   0  0  0  0  0  0
   -1.6017    5.8585   26.8483 H   0  0  0  0  0  0
   -0.2320   10.0928   25.2040 H   0  0  0  0  0  0
   -2.4548   10.5850   28.1241 H   0  0  0  0  0  0
   -3.5179    8.7410   29.3848 H   0  0  0  0  0  0
   -6.5009    6.2581   27.6385 H   0  0  0  0  0  0
   -3.7573    5.0170   26.8465 H   0  0  0  0  0  0
   -7.1306    2.9076   30.3637 H   0  0  0  0  0  0
   -7.2443    4.2319   28.2677 H   0  0  0  0  0  0
   -3.7166    2.2432   26.8156 H   0  0  0  0  0  0
   -5.2139    3.6110   25.2130 H   0  0  0  0  0  0
   -7.0728    5.1459   24.8687 H   0  0  0  0  0  0
   -2.9710    5.2330   24.6278 H   0  0  0  0  0  0
   -1.2554    6.3925   22.0650 H   0  0  0  0  0  0
    0.7435    5.7113   20.9613 H   0  0  0  0  0  0
    2.5204    6.7620   24.0478 H   0  0  0  0  0  0
    1.3867    7.6607   26.0352 H   0  0  0  0  0  0
   -3.1705    8.2724   24.5040 H   0  0  0  0  0  0
   -2.7619    9.5634   22.3322 H   0  0  0  0  0  0
   -3.3886    7.7611   20.0073 H   0  0  0  0  0  0
   -4.8411    8.6422   20.5908 H   0  0  0  0  0  0
   -2.1516    9.9117   19.7903 H   0  0  0  0  0  0
   -3.6699    9.9725   18.8324 H   0  0  0  0  0  0
   -3.2621   11.1637   21.6315 H   0  0  0  0  0  0
   -3.3179   12.0825   20.0891 H   0  0  0  0  0  0
   -5.5423   10.4098   21.2453 H   0  0  0  0  0  0
   -5.0377   12.4400   22.5173 H   0  0  0  0  0  0
   -6.5778   12.5991   21.6066 H   0  0  0  0  0  0
   -5.0890   13.4010   21.0005 H   0  0  0  0  0  0
   -5.5070   10.5103   18.8113 H   0  0  0  0  0  0
   -5.3566   12.2988   18.8850 H   0  0  0  0  0  0
   -6.8453   11.4969   19.4911 H   0  0  0  0  0  0
  1  3  2  0  0  0
  1 11  1  0  0  0
  1 13  1  0  0  0
  2 11  1  0  0  0
  2 12  1  0  0  0
  2 92  1  0  0  0
  2 93  1  0  0  0
  4  5  2  0  0  0
  4  9  1  0  0  0
  4 11  1  0  0  0
  5  6  1  0  0  0
  5 94  1  0  0  0
  6  7  2  0  0  0
  6 34  1  0  0  0
  7  8  1  0  0  0
  7 10  1  0  0  0
  8 95  1  0  0  0
  9 10  2  0  0  0
  9 96  1  0  0  0
 10 97  1  0  0  0
 11 98  1  0  0  0
 12 99  1  0  0  0
 12100  1  0  0  0
 12101  1  0  0  0
 13 14  1  0  0  0
 13102  1  0  0  0
 14 15  1  0  0  0
 14 17  1  0  0  0
 14103  1  0  0  0
 15 16  2  0  0  0
 15 26  1  0  0  0
 17 18  1  0  0  0
 17104  1  0  0  0
 17105  1  0  0  0
 18 19  2  0  0  0
 18 20  1  0  0  0
 19 21  1  0  0  0
 19106  1  0  0  0
 20 22  2  0  0  0
 20107  1  0  0  0
 21 23  2  0  0  0
 21108  1  0  0  0
 22 23  1  0  0  0
 22109  1  0  0  0
 23 24  1  0  0  0
 24 44  1  0  0  0
 25 27  2  0  0  0
 25 37  1  0  0  0
 25 38  1  0  0  0
 26 37  1  0  0  0
 26110  1  0  0  0
 28 30  1  0  0  0
 29 30  2  0  0  0
 29 35  1  0  0  0
 29 37  1  0  0  0
 30 31  1  0  0  0
 31 32  1  0  0  0
 31 33  2  0  0  0
 32111  1  0  0  0
 33 36  1  0  0  0
 33112  1  0  0  0
 34 36  1  0  0  0
 35 36  2  0  0  0
 35113  1  0  0  0
 37114  1  0  0  0
 38 39  1  0  0  0
 38115  1  0  0  0
 39 40  1  0  0  0
 39 42  1  0  0  0
 39116  1  0  0  0
 40 41  2  0  0  0
 40 49  1  0  0  0
 42 43  2  0  0  0
 42 48  1  0  0  0
 43 44  1  0  0  0
 43117  1  0  0  0
 44 45  2  0  0  0
 45 46  1  0  0  0
 45 47  1  0  0  0
 46118  1  0  0  0
 47 48  2  0  0  0
 47 62  1  0  0  0
 48119  1  0  0  0
 49 50  1  0  0  0
 49120  1  0  0  0
 50 51  1  0  0  0
 50 53  1  0  0  0
 50121  1  0  0  0
 51 52  2  0  0  0
 51 60  1  0  0  0
 53 54  2  0  0  0
 53 59  1  0  0  0
 54 55  1  0  0  0
 54122  1  0  0  0
 55 56  2  0  0  0
 55 83  1  0  0  0
 56 57  1  0  0  0
 56 58  1  0  0  0
 57123  1  0  0  0
 58 59  2  0  0  0
 58124  1  0  0  0
 59125  1  0  0  0
 60 61  1  0  0  0
 60126  1  0  0  0
 61 69  1  0  0  0
 61 72  1  0  0  0
 61127  1  0  0  0
 62 65  1  0  0  0
 63 65  2  0  0  0
 63 67  1  0  0  0
 63128  1  0  0  0
 64 65  1  0  0  0
 64 68  2  0  0  0
 64 70  1  0  0  0
 66 67  2  0  0  0
 66 68  1  0  0  0
 66 69  1  0  0  0
 67129  1  0  0  0
 68130  1  0  0  0
 69 73  1  0  0  0
 69131  1  0  0  0
 71 72  2  0  0  0
 72 75  1  0  0  0
 73132  1  0  0  0
 74 76  2  0  0  0
 74 84  1  0  0  0
 74 85  1  0  0  0
 75 84  1  0  0  0
 75133  1  0  0  0
 77 78  2  0  0  0
 77 83  1  0  0  0
 77 84  1  0  0  0
 78 79  1  0  0  0
 78134  1  0  0  0
 79 80  1  0  0  0
 79 81  2  0  0  0
 80135  1  0  0  0
 81 82  1  0  0  0
 81136  1  0  0  0
 82 83  2  0  0  0
 82137  1  0  0  0
 84138  1  0  0  0
 85 86  1  0  0  0
 85139  1  0  0  0
 86 87  1  0  0  0
 86140  1  0  0  0
 86141  1  0  0  0
 87 88  1  0  0  0
 87142  1  0  0  0
 87143  1  0  0  0
 88 89  1  0  0  0
 88144  1  0  0  0
 88145  1  0  0  0
 89 90  1  0  0  0
 89 91  1  0  0  0
 89146  1  0  0  0
 90147  1  0  0  0
 90148  1  0  0  0
 90149  1  0  0  0
 91150  1  0  0  0
 91151  1  0  0  0
 91152  1  0  0  0
M  CHG  2   2   1  89   1
M  END
> <s_m_source_file>
../3rul_ligand.sdf

> <i_m_source_file_index>
1

> <s_epik_input>
W2NIXTFbY0hdYyhbT0hdKWMoW2NIXWMxMilPYzNbY0hdYyhbT0hdKWMoQ2wpYyhbY0hdMylbQ0BIXTRDKD1PKVtOSF1bQ0BASF01YzZbY0hdYyhPYzdbY0hdW2NIXWMoW2NIXVtjSF03KVtDSDJdW0NASF0oQyg9TylbTkhdNClbTkhdQyg9TylbQ0BASF0yW05IMitdW0NIM10pYyhbT0hdKWMoW2NIXTYpT2M4W2NIXVtjSF1jKFtjSF1jOENsKVtDQEBIXShbT0hdKVtDQEBIXTlbTkhdQyg9TylbQ0BIXShbTkhdQzU9TyljMVtjSF1jKGMoW09IXSlbY0hdW2NIXTEpYzFjKFtjSF1jKFtPSF0pW2NIXVtjSF0xKVtDQEhdKFtOSF1DOT1PKUMoPU8pW05IXVtDSDJdW0NIMl1bQ0gyXVtOSCtdKFtDSDNdKVtDSDNd

> <s_epik_cmdline>
J2VwaWtfYXBwJywgJy1pbWFlJywgJ2xpZ2FuZF9wcm8ubWFlJywgJy1vbWFlJywgJ2xpZ2FuZF9wcmVwLm1hZScsICctbXMnLCAnMScsICctcGgnLCAnNycsICctcGh0JywgJzAuNScsICctbnQn

> <s_epik_pKa_notes>
Molecule size exceeds maximum supported for generating protonation states

$$$$
