3rum_ligand
                    3D
 Schrodinger Suite 2020-3.
135145  0  0  1  0            999 V2000
  -19.7820   -4.9440   -3.6010 N   0  0  0  0  0  0
  -19.7340   -6.1670   -4.4100 C   0  0  1  0  0  0
  -18.2700   -6.3440   -4.8060 C   0  0  0  0  0  0
  -17.3950   -5.7840   -4.1510 O   0  0  0  0  0  0
  -20.2500   -7.3430   -3.5800 C   0  0  0  0  0  0
  -19.3770   -8.1560   -2.8600 C   0  0  0  0  0  0
  -19.8700   -9.2340   -2.1240 C   0  0  0  0  0  0
  -21.2210   -9.4880   -2.0940 C   0  0  0  0  0  0
  -21.6680  -10.5340   -1.3510 O   0  0  0  0  0  0
  -22.0960   -8.6780   -2.8030 C   0  0  0  0  0  0
  -21.6150   -7.6070   -3.5500 C   0  0  0  0  0  0
  -16.0460   -8.5570   -6.2170 C   0  0  0  0  0  0
  -17.9890   -7.0840   -5.8730 N   0  0  0  0  0  0
  -14.8550   -8.7690   -6.4020 O   0  0  0  0  0  0
  -16.5920   -7.1280   -6.3440 C   0  0  2  0  0  0
  -16.4390   -6.6230   -7.7940 C   0  0  2  0  0  0
  -17.0310   -5.3250   -7.8570 O   0  0  0  0  0  0
  -17.1720   -7.5740   -8.7270 C   0  0  0  0  0  0
  -18.8680  -10.3500  -11.2500 O   0  0  0  0  0  0
  -18.3270   -9.4260  -10.4220 C   0  0  0  0  0  0
  -18.5440   -7.5590   -8.9130 C   0  0  0  0  0  0
  -16.3870   -8.5050   -9.3900 C   0  0  0  0  0  0
  -19.1290   -8.4950   -9.7660 C   0  0  0  0  0  0
  -16.9620   -9.4330  -10.2380 C   0  0  0  0  0  0
  -16.9530  -11.1800   -1.2260 C   0  0  0  0  0  0
  -17.9520  -10.6320   -2.0170 C   0  0  0  0  0  0
  -17.7640  -10.5420   -3.4010 C   0  0  0  0  0  0
  -16.8970   -9.5400   -5.9200 N   0  0  0  0  0  0
  -15.7720  -11.6220   -1.8000 C   0  0  0  0  0  0
  -14.9290  -12.3740   -1.0410 O   0  0  0  0  0  0
  -15.5820  -11.5210   -3.1780 C   0  0  0  0  0  0
  -16.5860  -10.9910   -3.9810 C   0  0  0  0  0  0
  -16.3450  -10.8440   -5.4940 C   0  0  1  0  0  0
  -16.7690  -12.0530   -6.3390 C   0  0  0  0  0  0
  -15.8980  -12.8090   -6.7710 O   0  0  0  0  0  0
  -17.1360  -11.3070    0.2880 C   0  0  0  0  0  0
  -19.0580  -10.0600   -1.4090 O   0  0  0  0  0  0
  -18.0680  -12.2300   -6.5670 N   0  0  0  0  0  0
  -18.5590  -13.4180   -7.3100 C   0  0  1  0  0  0
  -19.6590  -14.1370   -6.5300 C   0  0  0  0  0  0
  -20.5590  -13.5010   -5.9770 O   0  0  0  0  0  0
  -19.1130  -13.0490   -8.7190 C   0  0  0  0  0  0
  -18.7470  -11.8390   -9.3330 C   0  0  0  0  0  0
  -19.2500  -11.5110  -10.5960 C   0  0  0  0  0  0
  -20.1020  -12.3860  -11.2540 C   0  0  0  0  0  0
  -20.5710  -12.0380  -12.4810 O   0  5  0  0  0  0
  -20.4770  -13.5800  -10.6710 C   0  0  0  0  0  0
  -19.9780  -13.9260   -9.3980 C   0  0  0  0  0  0
  -19.5720  -15.4620   -6.4720 N   0  0  0  0  0  0
  -20.7610  -16.2710   -6.1380 C   0  0  1  0  0  0
  -20.6690  -17.5610   -6.9500 C   0  0  0  0  0  0
  -19.5690  -17.9130   -7.3570 O   0  0  0  0  0  0
  -20.8500  -16.8110   -4.7250 C   0  0  0  0  0  0
  -22.0150  -16.5750   -4.0050 C   0  0  0  0  0  0
  -22.1430  -17.1300   -2.7450 C   0  0  0  0  0  0
  -21.1380  -17.9300   -2.2180 C   0  0  0  0  0  0
  -21.2730  -18.4520   -0.9730 O   0  0  0  0  0  0
  -19.9750  -18.1730   -2.9440 C   0  0  0  0  0  0
  -19.8540  -17.6260   -4.2150 C   0  0  0  0  0  0
  -21.7770  -18.2820   -7.1510 N   0  0  0  0  0  0
  -23.1390  -17.8650   -6.7360 C   0  0  2  0  0  0
  -23.5980  -18.7330   -5.5540 C   0  0  0  0  0  0
  -23.2950  -19.9270   -5.4840 O   0  0  0  0  0  0
  -24.0520  -18.0040   -7.9580 C   0  0  2  0  0  0
  -23.9540  -19.3780   -8.3890 O   0  0  0  0  0  0
  -23.3830  -17.0410   -8.9210 C   0  0  0  0  0  0
  -22.4400  -17.5070   -9.8310 C   0  0  0  0  0  0
  -23.6430  -15.6800   -8.8090 C   0  0  0  0  0  0
  -21.7820  -16.6060  -10.6610 C   0  0  0  0  0  0
  -22.9840  -14.7730   -9.6380 C   0  0  0  0  0  0
  -22.0530  -15.2440  -10.5610 C   0  0  0  0  0  0
  -21.3880  -14.3700  -11.3630 O   0  0  0  0  0  0
  -24.3320  -18.1190   -4.6320 N   0  0  0  0  0  0
  -24.5120  -18.7100   -3.2870 C   0  0  1  0  0  0
  -24.5110  -17.5840   -2.2420 C   0  0  0  0  0  0
  -25.6560  -17.2550   -1.5000 C   0  0  0  0  0  0
  -23.3220  -16.8880   -2.0320 C   0  0  0  0  0  0
  -25.6460  -16.2220   -0.5510 C   0  0  0  0  0  0
  -23.4010  -15.8890   -1.1050 C   0  0  0  0  0  0
  -24.4760  -15.4920   -0.3330 C   0  0  0  0  0  0
  -26.7760  -15.9220    0.1610 O   0  0  0  0  0  0
  -22.1880  -15.2570   -0.9050 O   0  5  0  0  0  0
  -25.7820  -19.5450   -3.2420 C   0  0  0  0  0  0
  -26.7020  -19.3140   -4.0300 O   0  0  0  0  0  0
  -25.8540  -20.5430   -2.3290 O   0  0  0  0  0  0
  -27.1170  -21.2150   -2.4400 C   0  0  0  0  0  0
  -19.1327   -5.0609   -2.7208 H   0  0  0  0  0  0
  -19.4334   -4.0921   -4.2033 H   0  0  0  0  0  0
  -20.3768   -6.0742   -5.2978 H   0  0  0  0  0  0
  -18.3068   -7.9494   -2.8718 H   0  0  0  0  0  0
  -20.9532  -11.1611   -0.7980 H   0  0  0  0  0  0
  -23.1664   -8.8816   -2.7748 H   0  0  0  0  0  0
  -22.3061   -6.9769   -4.1099 H   0  0  0  0  0  0
  -18.7662   -7.6547   -6.4024 H   0  0  0  0  0  0
  -16.0474   -6.4414   -5.6792 H   0  0  0  0  0  0
  -15.3929   -6.5112   -8.1153 H   0  0  0  0  0  0
  -16.6269   -4.5058   -7.2441 H   0  0  0  0  0  0
  -19.1611   -6.8228   -8.3978 H   0  0  0  0  0  0
  -15.3072   -8.5051   -9.2413 H   0  0  0  0  0  0
  -20.2083   -8.4978   -9.9184 H   0  0  0  0  0  0
  -16.3409  -10.1636  -10.7563 H   0  0  0  0  0  0
  -18.5480  -10.1164   -4.0274 H   0  0  0  0  0  0
  -17.9859   -9.3987   -5.9857 H   0  0  0  0  0  0
  -15.0856  -12.4486    0.0452 H   0  0  0  0  0  0
  -14.6467  -11.8574   -3.6254 H   0  0  0  0  0  0
  -15.2671  -10.7979   -5.7083 H   0  0  0  0  0  0
  -18.1221  -10.9112    0.5726 H   0  0  0  0  0  0
  -16.3492  -10.7351    0.8017 H   0  0  0  0  0  0
  -17.0683  -12.3659    0.5780 H   0  0  0  0  0  0
  -18.7817  -11.4798   -6.1958 H   0  0  0  0  0  0
  -17.6694  -14.0590   -7.3972 H   0  0  0  0  0  0
  -18.0692  -11.1542   -8.8234 H   0  0  0  0  0  0
  -20.2628  -14.8733   -8.9402 H   0  0  0  0  0  0
  -18.6099  -15.9556   -6.6739 H   0  0  0  0  0  0
  -21.5846  -15.5656   -6.3225 H   0  0  0  0  0  0
  -22.8132  -15.9636   -4.4258 H   0  0  0  0  0  0
  -22.1892  -18.2639   -0.3941 H   0  0  0  0  0  0
  -19.1745  -18.7811   -2.5228 H   0  0  0  0  0  0
  -18.9692  -17.8398   -4.8146 H   0  0  0  0  0  0
  -21.6284  -19.2446   -7.6622 H   0  0  0  0  0  0
  -23.1316  -16.8172   -6.4012 H   0  0  0  0  0  0
  -25.1324  -17.8291   -7.8474 H   0  0  0  0  0  0
  -24.3987  -20.1786   -7.7797 H   0  0  0  0  0  0
  -22.2180  -18.5723   -9.8932 H   0  0  0  0  0  0
  -24.3624  -15.3217   -8.0727 H   0  0  0  0  0  0
  -21.0549  -16.9656  -11.3891 H   0  0  0  0  0  0
  -23.1952  -13.7062   -9.5646 H   0  0  0  0  0  0
  -24.8089  -17.1591   -4.8793 H   0  0  0  0  0  0
  -23.6710  -19.3911   -3.0901 H   0  0  0  0  0  0
  -26.5758  -17.8161   -1.6652 H   0  0  0  0  0  0
  -24.4156  -14.6759    0.3871 H   0  0  0  0  0  0
  -27.7002  -16.4943   -0.0072 H   0  0  0  0  0  0
  -27.1686  -22.0237   -1.6962 H   0  0  0  0  0  0
  -27.2194  -21.6387   -3.4500 H   0  0  0  0  0  0
  -27.9311  -20.4977   -2.2590 H   0  0  0  0  0  0
  1  2  1  0  0  0
  1 87  1  0  0  0
  1 88  1  0  0  0
  2  3  1  0  0  0
  2  5  1  0  0  0
  2 89  1  0  0  0
  3  4  2  0  0  0
  3 13  1  0  0  0
  5  6  2  0  0  0
  5 11  1  0  0  0
  6  7  1  0  0  0
  6 90  1  0  0  0
  7  8  2  0  0  0
  7 37  1  0  0  0
  8  9  1  0  0  0
  8 10  1  0  0  0
  9 91  1  0  0  0
 10 11  2  0  0  0
 10 92  1  0  0  0
 11 93  1  0  0  0
 12 14  2  0  0  0
 12 15  1  0  0  0
 12 28  1  0  0  0
 13 15  1  0  0  0
 13 94  1  0  0  0
 15 16  1  0  0  0
 15 95  1  0  0  0
 16 17  1  0  0  0
 16 18  1  0  0  0
 16 96  1  0  0  0
 17 97  1  0  0  0
 18 21  2  0  0  0
 18 22  1  0  0  0
 19 20  1  0  0  0
 19 44  1  0  0  0
 20 23  2  0  0  0
 20 24  1  0  0  0
 21 23  1  0  0  0
 21 98  1  0  0  0
 22 24  2  0  0  0
 22 99  1  0  0  0
 23100  1  0  0  0
 24101  1  0  0  0
 25 26  2  0  0  0
 25 29  1  0  0  0
 25 36  1  0  0  0
 26 27  1  0  0  0
 26 37  1  0  0  0
 27 32  2  0  0  0
 27102  1  0  0  0
 28 33  1  0  0  0
 28103  1  0  0  0
 29 30  1  0  0  0
 29 31  2  0  0  0
 30104  1  0  0  0
 31 32  1  0  0  0
 31105  1  0  0  0
 32 33  1  0  0  0
 33 34  1  0  0  0
 33106  1  0  0  0
 34 35  2  0  0  0
 34 38  1  0  0  0
 36107  1  0  0  0
 36108  1  0  0  0
 36109  1  0  0  0
 38 39  1  0  0  0
 38110  1  0  0  0
 39 40  1  0  0  0
 39 42  1  0  0  0
 39111  1  0  0  0
 40 41  2  0  0  0
 40 49  1  0  0  0
 42 43  2  0  0  0
 42 48  1  0  0  0
 43 44  1  0  0  0
 43112  1  0  0  0
 44 45  2  0  0  0
 45 46  1  0  0  0
 45 47  1  0  0  0
 47 48  2  0  0  0
 47 72  1  0  0  0
 48113  1  0  0  0
 49 50  1  0  0  0
 49114  1  0  0  0
 50 51  1  0  0  0
 50 53  1  0  0  0
 50115  1  0  0  0
 51 52  2  0  0  0
 51 60  1  0  0  0
 53 54  2  0  0  0
 53 59  1  0  0  0
 54 55  1  0  0  0
 54116  1  0  0  0
 55 56  2  0  0  0
 55 77  1  0  0  0
 56 57  1  0  0  0
 56 58  1  0  0  0
 57117  1  0  0  0
 58 59  2  0  0  0
 58118  1  0  0  0
 59119  1  0  0  0
 60 61  1  0  0  0
 60120  1  0  0  0
 61 62  1  0  0  0
 61 64  1  0  0  0
 61121  1  0  0  0
 62 63  2  0  0  0
 62 73  1  0  0  0
 64 65  1  0  0  0
 64 66  1  0  0  0
 64122  1  0  0  0
 65123  1  0  0  0
 66 67  2  0  0  0
 66 68  1  0  0  0
 67 69  1  0  0  0
 67124  1  0  0  0
 68 70  2  0  0  0
 68125  1  0  0  0
 69 71  2  0  0  0
 69126  1  0  0  0
 70 71  1  0  0  0
 70127  1  0  0  0
 71 72  1  0  0  0
 73 74  1  0  0  0
 73128  1  0  0  0
 74 75  1  0  0  0
 74 83  1  0  0  0
 74129  1  0  0  0
 75 76  2  0  0  0
 75 77  1  0  0  0
 76 78  1  0  0  0
 76130  1  0  0  0
 77 79  2  0  0  0
 78 80  2  0  0  0
 78 81  1  0  0  0
 79 80  1  0  0  0
 79 82  1  0  0  0
 80131  1  0  0  0
 81132  1  0  0  0
 83 84  2  0  0  0
 83 85  1  0  0  0
 85 86  1  0  0  0
 86133  1  0  0  0
 86134  1  0  0  0
 86135  1  0  0  0
M  CHG  2  46  -1  82  -1
M  END
> <s_m_source_file>
../3rum_ligand.sdf

> <i_m_source_file_index>
1

> <s_epik_input>
W2NIXTFbY0hdYyhbT0hdKWMoW2NIXWMxMilPYzNjKFtDSDNdKWMoW09IXSlbY0hdYyhbY0hdMylbQ0BASF00W05IXUMoPU8pW0NASF0oW05IXUMoPU8pW0NAQEhdMltOSDMrXSlbQ0BIXShbT0hdKWM1W2NIXVtjSF1jKFtjSF1bY0hdNSlPYzZbY0hdYzdbQ0BASF0oW05IXUM0PU8pQyg9TylbTkhdW0NAQEhdOGM5W2NIXWMoYyhbT0hdKVtjSF1bY0hdOSljMWMoW2NIXWMoW09IXSlbY0hdYzFbT0hdKVtDQEBIXShDKD1PKU9bQ0gzXSlbTkhdQyg9TylbQ0BASF0oW05IXUM4PU8pW0NASF0oW09IXSljMVtjSF1bY0hdYyhbY0hdW2NIXTEpT2MoW2NIXTcpYzZbT0hd

> <s_epik_cmdline>
J2VwaWtfYXBwJywgJy1pbWFlJywgJ2xpZ2FuZF9wcm8ubWFlJywgJy1vbWFlJywgJ2xpZ2FuZF9wcmVwLm1hZScsICctbXMnLCAnMScsICctcGgnLCAnNycsICctcGh0JywgJzAuNScsICctbnQn

> <r_lp_tautomer_probability>
0.999999999997365

> <r_epik_Ionization_Penalty>
  0.9191

> <r_epik_Ionization_Penalty_Charging>
  0.5958

> <r_epik_Ionization_Penalty_Neutral>
  0.3233

> <r_epik_State_Penalty>
  0.4041

> <r_epik_Charging_Adjusted_Penalty>
0.99988459514462

> <i_epik_Tot_Q>
-2

> <i_epik_Tot_abs_Q>
2

> <s_epik_Chemistry_Notes>
This compound has an ester and may undergo hydrolysis at high or low pH.

$$$$
