3run_ligand
                    3D
 Schrodinger Suite 2020-3.
131138  0  0  1  0            999 V2000
   25.0130  -40.6510    6.8870 N   0  3  0  0  0  0
   24.6900  -39.2200    6.7620 C   0  0  0  0  0  0
   25.9110  -41.1350    5.8190 C   0  0  1  0  0  0
   25.2970  -40.9410    4.4220 C   0  0  0  0  0  0
   24.7000  -39.8980    4.1430 O   0  0  0  0  0  0
   27.2370  -40.3650    5.8310 C   0  0  0  0  0  0
   28.0040  -40.4900    7.1500 C   0  0  0  0  0  0
   28.2560  -41.9480    7.5440 C   0  0  0  0  0  0
   29.3150  -39.7010    7.0460 C   0  0  0  0  0  0
   25.4670  -41.9350    3.5470 N   0  0  0  0  0  0
   25.0740  -41.7700    2.1330 C   0  0  1  0  0  0
   26.3790  -41.6030    1.2970 C   0  0  0  0  0  0
   26.2750  -41.2060    0.1220 O   0  0  0  0  0  0
   24.1850  -42.9230    1.5810 C   0  0  2  0  0  0
   23.0490  -43.0320    2.4340 O   0  0  0  0  0  0
   24.9560  -44.2430    1.5560 C   0  0  0  0  0  0
   25.5620  -44.5650    0.3510 C   0  0  0  0  0  0
   25.0960  -45.0950    2.6510 C   0  0  0  0  0  0
   26.3060  -45.7240    0.2360 C   0  0  0  0  0  0
   27.0460  -46.1090   -1.2770 Cl  0  0  0  0  0  0
   25.8390  -46.2770    2.5280 C   0  0  0  0  0  0
   26.4730  -46.5700    1.3190 C   0  0  0  0  0  0
   27.2390  -47.6760    1.1120 O   0  0  0  0  0  0
   27.5490  -41.8960    1.8730 N   0  0  0  0  0  0
   28.8320  -41.5020    1.2660 C   0  0  2  0  0  0
   29.7730  -42.6250    0.7970 C   0  0  0  0  0  0
   30.1540  -42.6650   -0.3810 O   0  0  0  0  0  0
   29.5960  -40.5780    2.2180 C   0  0  0  0  0  0
   28.7620  -39.3970    2.6870 C   0  0  0  0  0  0
   27.5960  -39.2450    2.3040 O   0  0  0  0  0  0
   29.3560  -38.5560    3.5160 N   0  0  0  0  0  0
   30.1610  -43.5110    1.7180 N   0  0  0  0  0  0
   31.1590  -44.5670    1.4350 C   0  0  1  0  0  0
   32.3060  -44.5060    2.4780 C   0  0  0  0  0  0
   32.0180  -44.4640    3.6990 O   0  0  0  0  0  0
   30.5320  -45.9800    1.5200 C   0  0  0  0  0  0
   31.3510  -47.0910    1.7830 C   0  0  0  0  0  0
   30.8130  -48.3810    1.8680 C   0  0  0  0  0  0
   29.4340  -48.5370    1.6790 C   0  0  0  0  0  0
   28.8830  -49.7730    1.7840 O   0  5  0  0  0  0
   28.5830  -47.4530    1.4350 C   0  0  0  0  0  0
   29.1540  -46.1730    1.3260 C   0  0  0  0  0  0
   33.5590  -44.5000    2.0300 N   0  0  0  0  0  0
   34.6880  -44.8670    2.9230 C   0  0  1  0  0  0
   35.7280  -45.6380    2.0700 C   0  0  0  0  0  0
   35.6640  -45.5120    0.8300 O   0  0  0  0  0  0
   35.5040  -43.7620    3.5900 C   0  0  0  0  0  0
   36.2610  -42.8370    2.8530 C   0  0  0  0  0  0
   37.0460  -41.9080    3.5350 C   0  0  0  0  0  0
   37.1070  -41.9270    4.9420 C   0  0  0  0  0  0
   37.8910  -41.0100    5.5660 O   0  0  0  0  0  0
   36.3460  -42.8600    5.6760 C   0  0  0  0  0  0
   35.5750  -43.7750    4.9800 C   0  0  0  0  0  0
   36.6360  -46.4090    2.6650 N   0  0  0  0  0  0
   36.6670  -46.7040    4.1200 C   0  0  1  0  0  0
   31.6210  -49.5010    2.0830 O   0  0  0  0  0  0
   33.9990  -49.4320    1.9010 C   0  0  0  0  0  0
   32.9350  -48.7320    3.9460 C   0  0  0  0  0  0
   32.8350  -49.2200    2.6410 C   0  0  0  0  0  0
   35.3580  -48.6610    3.7340 C   0  0  0  0  0  0
   35.2610  -49.1430    2.4270 C   0  0  0  0  0  0
   34.1930  -48.4510    4.4730 C   0  0  0  0  0  0
   36.6930  -48.2410    4.3700 C   0  0  1  0  0  0
   31.5290  -48.4630    4.9300 Cl  0  0  0  0  0  0
   38.7790  -45.5110    4.1740 O   0  0  0  0  0  0
   37.7840  -45.9160    4.8170 C   0  0  0  0  0  0
   37.8420  -48.7730    3.7180 O   0  0  0  0  0  0
   37.6190  -45.6900    6.1130 N   0  0  0  0  0  0
   36.4590  -43.7750   11.1910 O   0  0  0  0  0  0
   36.4730  -43.4880    9.8560 C   0  0  0  0  0  0
   37.3520  -44.1460    9.0140 C   0  0  0  0  0  0
   35.6060  -42.5350    9.3340 C   0  0  0  0  0  0
   35.6360  -42.2500    7.9610 C   0  0  0  0  0  0
   34.7950  -41.3060    7.4510 O   0  0  0  0  0  0
   36.4990  -42.9370    7.0850 C   0  0  0  0  0  0
   37.3720  -43.8630    7.6550 C   0  0  0  0  0  0
   38.3520  -44.6020    6.7610 C   0  0  1  0  0  0
   39.5970  -45.0470    7.5550 C   0  0  0  0  0  0
   39.8280  -46.2620    7.6550 O   0  0  0  0  0  0
   40.3070  -44.1330    8.0210 O   0  5  0  0  0  0
   25.5121  -40.8314    7.8505 H   0  0  0  0  0  0
   24.0864  -41.2417    6.8377 H   0  0  0  0  0  0
   24.0211  -38.9220    7.5829 H   0  0  0  0  0  0
   24.1909  -39.0396    5.7985 H   0  0  0  0  0  0
   25.6166  -38.6293    6.8113 H   0  0  0  0  0  0
   26.0480  -42.2012    6.0524 H   0  0  0  0  0  0
   27.8902  -40.7473    5.0328 H   0  0  0  0  0  0
   27.0415  -39.2955    5.6640 H   0  0  0  0  0  0
   27.3831  -40.0656    7.9527 H   0  0  0  0  0  0
   27.2962  -42.4814    7.6088 H   0  0  0  0  0  0
   28.7610  -41.9818    8.5207 H   0  0  0  0  0  0
   28.8919  -42.4281    6.7856 H   0  0  0  0  0  0
   29.0956  -38.6612    6.7620 H   0  0  0  0  0  0
   29.9603  -40.1611    6.2832 H   0  0  0  0  0  0
   29.8294  -39.7148    8.0182 H   0  0  0  0  0  0
   25.9049  -42.8844    3.8890 H   0  0  0  0  0  0
   24.4416  -40.8702    2.1127 H   0  0  0  0  0  0
   23.8012  -42.7208    0.5702 H   0  0  0  0  0  0
   22.3784  -42.1707    2.5697 H   0  0  0  0  0  0
   25.4513  -43.9025   -0.5074 H   0  0  0  0  0  0
   24.6278  -44.8418    3.6022 H   0  0  0  0  0  0
   25.9214  -46.9632    3.3709 H   0  0  0  0  0  0
   27.5371  -42.4464    2.8253 H   0  0  0  0  0  0
   28.4778  -41.0043    0.3512 H   0  0  0  0  0  0
   29.9069  -41.1447    3.1081 H   0  0  0  0  0  0
   30.4854  -40.1800    1.7076 H   0  0  0  0  0  0
   30.3956  -38.7337    3.8284 H   0  0  0  0  0  0
   28.8107  -37.6784    3.8935 H   0  0  0  0  0  0
   29.7092  -43.4350    2.7180 H   0  0  0  0  0  0
   31.5052  -44.3526    0.4131 H   0  0  0  0  0  0
   32.4222  -46.9464    1.9231 H   0  0  0  0  0  0
   28.5195  -45.3193    1.0879 H   0  0  0  0  0  0
   33.7537  -44.2188    0.9845 H   0  0  0  0  0  0
   34.1469  -45.3888    3.7261 H   0  0  0  0  0  0
   36.2353  -42.8451    1.7633 H   0  0  0  0  0  0
   37.6147  -41.1641    2.9770 H   0  0  0  0  0  0
   38.4760  -40.2918    4.9727 H   0  0  0  0  0  0
   35.0095  -44.5242    5.5341 H   0  0  0  0  0  0
   37.3996  -46.8392    2.0002 H   0  0  0  0  0  0
   35.7290  -46.3211    4.5485 H   0  0  0  0  0  0
   33.9221  -49.8320    0.8900 H   0  0  0  0  0  0
   36.1575  -49.2918    1.8252 H   0  0  0  0  0  0
   34.2695  -48.0577    5.4867 H   0  0  0  0  0  0
   36.8336  -48.6289    5.3897 H   0  0  0  0  0  0
   38.8478  -48.5336    4.0937 H   0  0  0  0  0  0
   36.9333  -46.3178    6.7009 H   0  0  0  0  0  0
   37.1474  -44.5301   11.5985 H   0  0  0  0  0  0
   38.0341  -44.8925    9.4209 H   0  0  0  0  0  0
   34.9073  -42.0126    9.9875 H   0  0  0  0  0  0
   34.1133  -40.7584    8.1184 H   0  0  0  0  0  0
   38.7225  -43.9735    5.9378 H   0  0  0  0  0  0
  1  2  1  0  0  0
  1  3  1  0  0  0
  1 81  1  0  0  0
  1 82  1  0  0  0
  2 83  1  0  0  0
  2 84  1  0  0  0
  2 85  1  0  0  0
  3  4  1  0  0  0
  3  6  1  0  0  0
  3 86  1  0  0  0
  4  5  2  0  0  0
  4 10  1  0  0  0
  6  7  1  0  0  0
  6 87  1  0  0  0
  6 88  1  0  0  0
  7  8  1  0  0  0
  7  9  1  0  0  0
  7 89  1  0  0  0
  8 90  1  0  0  0
  8 91  1  0  0  0
  8 92  1  0  0  0
  9 93  1  0  0  0
  9 94  1  0  0  0
  9 95  1  0  0  0
 10 11  1  0  0  0
 10 96  1  0  0  0
 11 12  1  0  0  0
 11 14  1  0  0  0
 11 97  1  0  0  0
 12 13  2  0  0  0
 12 24  1  0  0  0
 14 15  1  0  0  0
 14 16  1  0  0  0
 14 98  1  0  0  0
 15 99  1  0  0  0
 16 17  2  0  0  0
 16 18  1  0  0  0
 17 19  1  0  0  0
 17100  1  0  0  0
 18 21  2  0  0  0
 18101  1  0  0  0
 19 20  1  0  0  0
 19 22  2  0  0  0
 21 22  1  0  0  0
 21102  1  0  0  0
 22 23  1  0  0  0
 23 41  1  0  0  0
 24 25  1  0  0  0
 24103  1  0  0  0
 25 26  1  0  0  0
 25 28  1  0  0  0
 25104  1  0  0  0
 26 27  2  0  0  0
 26 32  1  0  0  0
 28 29  1  0  0  0
 28105  1  0  0  0
 28106  1  0  0  0
 29 30  2  0  0  0
 29 31  1  0  0  0
 31107  1  0  0  0
 31108  1  0  0  0
 32 33  1  0  0  0
 32109  1  0  0  0
 33 34  1  0  0  0
 33 36  1  0  0  0
 33110  1  0  0  0
 34 35  2  0  0  0
 34 43  1  0  0  0
 36 37  2  0  0  0
 36 42  1  0  0  0
 37 38  1  0  0  0
 37111  1  0  0  0
 38 39  2  0  0  0
 38 56  1  0  0  0
 39 40  1  0  0  0
 39 41  1  0  0  0
 41 42  2  0  0  0
 42112  1  0  0  0
 43 44  1  0  0  0
 43113  1  0  0  0
 44 45  1  0  0  0
 44 47  1  0  0  0
 44114  1  0  0  0
 45 46  2  0  0  0
 45 54  1  0  0  0
 47 48  2  0  0  0
 47 53  1  0  0  0
 48 49  1  0  0  0
 48115  1  0  0  0
 49 50  2  0  0  0
 49116  1  0  0  0
 50 51  1  0  0  0
 50 52  1  0  0  0
 51117  1  0  0  0
 52 53  2  0  0  0
 52 75  1  0  0  0
 53118  1  0  0  0
 54 55  1  0  0  0
 54119  1  0  0  0
 55 63  1  0  0  0
 55 66  1  0  0  0
 55120  1  0  0  0
 56 59  1  0  0  0
 57 59  2  0  0  0
 57 61  1  0  0  0
 57121  1  0  0  0
 58 59  1  0  0  0
 58 62  2  0  0  0
 58 64  1  0  0  0
 60 61  2  0  0  0
 60 62  1  0  0  0
 60 63  1  0  0  0
 61122  1  0  0  0
 62123  1  0  0  0
 63 67  1  0  0  0
 63124  1  0  0  0
 65 66  2  0  0  0
 66 68  1  0  0  0
 67125  1  0  0  0
 68 77  1  0  0  0
 68126  1  0  0  0
 69 70  1  0  0  0
 69127  1  0  0  0
 70 71  2  0  0  0
 70 72  1  0  0  0
 71 76  1  0  0  0
 71128  1  0  0  0
 72 73  2  0  0  0
 72129  1  0  0  0
 73 74  1  0  0  0
 73 75  1  0  0  0
 74130  1  0  0  0
 75 76  2  0  0  0
 76 77  1  0  0  0
 77 78  1  0  0  0
 77131  1  0  0  0
 78 79  2  0  0  0
 78 80  1  0  0  0
M  CHG  3   1   1  40  -1  80  -1
M  END
> <s_m_source_file>
../3run_ligand.sdf

> <i_m_source_file_index>
1

> <s_epik_input>
W0NIM11bQ0hdKFtDSDNdKVtDSDJdW0NAQEhdKFtOSDIrXVtDSDNdKUMoPU8pW05IXVtDQEhdKFtDQEBIXTFbT0hdKUMoPU8pW05IXVtDQEBIXShbQ0gyXUMoPU8pW05IMl0pQyg9TylbTkhdW0NASF0oYyhbY0hdMilbY0hdYzNjKFtPSF0pYzJPYyhjKENsKVtjSF1jMTQpW2NIXVtjSF00KUMoPU8pW05IXVtDQEBIXTVjNltjSF1bY0hdYyhbT0hdKWMoW2NIXTYpYzdjKFtjSF1jKFtPSF0pW2NIXWM3W09IXSlbQ0BASF0oQyg9TylbT0hdKVtOSF1DKD1PKVtDQEBIXShbTkhdQzU9TylbQ0BIXShbT0hdKWM4W2NIXVtjSF1jKE8zKWMoQ2wpW2NIXTg=

> <s_epik_cmdline>
J2VwaWtfYXBwJywgJy1pbWFlJywgJ2xpZ2FuZF9wcm8ubWFlJywgJy1vbWFlJywgJ2xpZ2FuZF9wcmVwLm1hZScsICctbXMnLCAnMScsICctcGgnLCAnNycsICctcGh0JywgJzAuNScsICctbnQn

> <r_lp_tautomer_probability>
1

> <r_epik_Ionization_Penalty>
  0.5032

> <r_epik_Ionization_Penalty_Charging>
  0.1088

> <r_epik_Ionization_Penalty_Neutral>
  0.3944

> <r_epik_State_Penalty>
 -0.0000

> <r_epik_Charging_Adjusted_Penalty>
0.108786967114466

> <i_epik_Tot_Q>
-1

> <i_epik_Tot_abs_Q>
3

$$$$
