3rup_ligand
                    3D
 Schrodinger Suite 2020-3.
 39 41  0  0  1  0            999 V2000
   19.0460    6.4730   26.9860 P   0  0  0  0  0  0
   17.7190    6.8480   27.5880 O   0  0  0  0  0  0
   19.3950    7.1670   25.6890 O   0  5  0  0  0  0
   20.1590    6.4800   28.0040 O   0  5  0  0  0  0
   17.7410    3.9050   26.4210 P   0  0  1  0  0  0
   16.4220    4.6310   26.3280 O   0  0  0  0  0  0
   18.0560    2.8490   25.3790 O   0  5  0  0  0  0
   18.9830    4.9410   26.4790 O   0  0  0  0  0  0
   17.8890    3.2070   27.8700 O   0  0  0  0  0  0
   18.9920    2.3360   28.1380 C   0  0  0  0  0  0
   18.5340    1.0260   28.7690 C   0  0  1  0  0  0
   17.8510    1.3140   29.9840 O   0  0  0  0  0  0
   17.5370    0.2840   27.8870 C   0  0  1  0  0  0
   17.7300   -1.1320   28.0530 O   0  0  0  0  0  0
   16.1790    0.7160   28.4360 C   0  0  1  0  0  0
   15.1100   -0.2170   28.2110 O   0  0  0  0  0  0
   16.4790    0.8720   29.9170 C   0  0  2  0  0  0
   15.5810    1.8240   30.6130 N   0  0  0  0  0  0
   15.5130    3.1500   30.3920 C   0  0  0  0  0  0
   14.6270    3.7360   31.2270 N   0  0  0  0  0  0
   14.1030    2.7780   32.0110 C   0  0  0  0  0  0
   13.0990    2.7260   33.1100 C   0  0  0  0  0  0
   12.4810    3.8610   33.5080 N   0  0  0  0  0  0
   12.8330    1.5240   33.6870 N   0  0  0  0  0  0
   13.4620    0.4010   33.2730 C   0  0  0  0  0  0
   14.3890    0.3810   32.2720 N   0  0  0  0  0  0
   14.7440    1.5160   31.6130 C   0  0  0  0  0  0
   19.5131    2.1041   27.1974 H   0  0  0  0  0  0
   19.6890    2.8296   28.8312 H   0  0  0  0  0  0
   19.4175    0.4071   28.9845 H   0  0  0  0  0  0
   17.6508    0.4479   26.8053 H   0  0  0  0  0  0
   18.6616   -1.6043   27.7081 H   0  0  0  0  0  0
   15.7526    1.5913   27.9241 H   0  0  0  0  0  0
   14.7776   -0.4358   27.1855 H   0  0  0  0  0  0
   16.3462   -0.0726   30.4648 H   0  0  0  0  0  0
   16.0956    3.6808   29.6391 H   0  0  0  0  0  0
   12.7196    4.8174   33.0197 H   0  0  0  0  0  0
   11.7397    3.8279   34.3200 H   0  0  0  0  0  0
   13.2151   -0.5394   33.7657 H   0  0  0  0  0  0
  1  2  2  0  0  0
  1  3  1  0  0  0
  1  4  1  0  0  0
  1  8  1  0  0  0
  5  6  2  0  0  0
  5  7  1  0  0  0
  5  8  1  0  0  0
  5  9  1  0  0  0
  9 10  1  0  0  0
 10 11  1  0  0  0
 10 28  1  0  0  0
 10 29  1  0  0  0
 11 12  1  0  0  0
 11 13  1  0  0  0
 11 30  1  0  0  0
 12 17  1  0  0  0
 13 14  1  0  0  0
 13 15  1  0  0  0
 13 31  1  0  0  0
 14 32  1  0  0  0
 15 16  1  0  0  0
 15 17  1  0  0  0
 15 33  1  0  0  0
 16 34  1  0  0  0
 17 18  1  0  0  0
 17 35  1  0  0  0
 18 19  1  0  0  0
 18 27  1  0  0  0
 19 20  2  0  0  0
 19 36  1  0  0  0
 20 21  1  0  0  0
 21 22  2  0  0  0
 21 27  1  0  0  0
 22 23  1  0  0  0
 22 24  1  0  0  0
 23 37  1  0  0  0
 23 38  1  0  0  0
 24 25  2  0  0  0
 25 26  1  0  0  0
 25 39  1  0  0  0
 26 27  2  0  0  0
M  CHG  3   3  -1   4  -1   7  -1
M  END
> <s_m_source_file>
../3rup_ligand.sdf

> <i_m_source_file_index>
1

> <s_epik_input>
Tz1QKFtPSF0pKFtPSF0pT1tQQEBdKD1PKShbT0hdKU9bQ0gyXVtDQEhdMU9bQ0BIXShbQ0BIXShbT0hdKVtDQEBIXTFbT0hdKW4oW2NIXW4yKWMoYzIzKW5bY0hdbmMzW05IMl0=

> <s_epik_cmdline>
J2VwaWtfYXBwJywgJy1pbWFlJywgJ2xpZ2FuZF9wcm8ubWFlJywgJy1vbWFlJywgJ2xpZ2FuZF9wcmVwLm1hZScsICctbXMnLCAnMScsICctcGgnLCAnNycsICctcGh0JywgJzAuNScsICctbnQn

> <r_lp_tautomer_probability>
0.999997216410988

> <r_epik_Ionization_Penalty>
  0.1037

> <r_epik_Ionization_Penalty_Charging>
  0.1033

> <r_epik_Ionization_Penalty_Neutral>
  0.0004

> <r_epik_State_Penalty>
  0.0922

> <r_epik_Charging_Adjusted_Penalty>
0.19546844050481

> <i_epik_Tot_Q>
-3

> <i_epik_Tot_abs_Q>
3

> <s_epik_Chemistry_Notes>
This compound contains an acetal/aminal-like group ( X-CH(R)-Y where X, Y are N, S, or O) that may be acid/base labile, releasing an aldehyde.

$$$$
