3rv3_ligand
                    3D
 Schrodinger Suite 2020-3.
 39 41  0  0  1  0            999 V2000
   18.8170    6.9670   26.9040 P   0  0  0  0  0  0
   17.4430    7.3440   27.4010 O   0  5  0  0  0  0
   19.1410    7.6250   25.5790 O   0  5  0  0  0  0
   19.9430    7.0570   27.8940 O   0  0  0  0  0  0
   17.6870    4.3030   26.3870 P   0  0  1  0  0  0
   16.3210    4.8880   26.1110 O   0  5  0  0  0  0
   18.2430    3.2610   25.4460 O   0  0  0  0  0  0
   18.8310    5.4120   26.5170 O   0  0  0  0  0  0
   17.7250    3.6650   27.8490 O   0  0  0  0  0  0
   18.8520    2.9270   28.3200 C   0  0  0  0  0  0
   18.3580    1.6190   28.9290 C   0  0  1  0  0  0
   17.6390    1.9210   30.1290 O   0  0  0  0  0  0
   17.4170    0.8660   28.0020 C   0  0  1  0  0  0
   17.6280   -0.5400   28.1940 O   0  0  0  0  0  0
   16.0410    1.2050   28.5420 C   0  0  1  0  0  0
   15.1370    0.1280   28.3220 O   0  0  0  0  0  0
   16.3050    1.4160   30.0310 C   0  0  2  0  0  0
   15.4010    2.3810   30.6950 N   0  0  0  0  0  0
   15.3210    3.7010   30.4470 C   0  0  0  0  0  0
   14.4140    4.2900   31.2530 N   0  0  0  0  0  0
   13.8990    3.3430   32.0460 C   0  0  0  0  0  0
   12.8860    3.3050   33.1240 C   0  0  0  0  0  0
   12.2530    4.4490   33.4810 N   0  0  0  0  0  0
   12.6410    2.1050   33.7170 N   0  0  0  0  0  0
   13.2890    0.9830   33.3370 C   0  0  0  0  0  0
   14.2210    0.9570   32.3430 N   0  0  0  0  0  0
   14.5580    2.0830   31.6820 C   0  0  0  0  0  0
   19.5295    2.7161   27.4794 H   0  0  0  0  0  0
   19.3844    3.5165   29.0809 H   0  0  0  0  0  0
   19.2214    0.9844   29.1778 H   0  0  0  0  0  0
   17.5617    1.0688   26.9306 H   0  0  0  0  0  0
   18.5716   -1.0038   27.8706 H   0  0  0  0  0  0
   15.5315    2.0391   28.0374 H   0  0  0  0  0  0
   14.8481   -0.1469   27.2968 H   0  0  0  0  0  0
   16.1802    0.4696   30.5775 H   0  0  0  0  0  0
   15.9108    4.2248   29.6947 H   0  0  0  0  0  0
   12.4903    5.3922   32.9672 H   0  0  0  0  0  0
   11.5019    4.4342   34.2845 H   0  0  0  0  0  0
   13.0548    0.0509   33.8513 H   0  0  0  0  0  0
  1  2  1  0  0  0
  1  3  1  0  0  0
  1  4  2  0  0  0
  1  8  1  0  0  0
  5  6  1  0  0  0
  5  7  2  0  0  0
  5  8  1  0  0  0
  5  9  1  0  0  0
  9 10  1  0  0  0
 10 11  1  0  0  0
 10 28  1  0  0  0
 10 29  1  0  0  0
 11 12  1  0  0  0
 11 13  1  0  0  0
 11 30  1  0  0  0
 12 17  1  0  0  0
 13 14  1  0  0  0
 13 15  1  0  0  0
 13 31  1  0  0  0
 14 32  1  0  0  0
 15 16  1  0  0  0
 15 17  1  0  0  0
 15 33  1  0  0  0
 16 34  1  0  0  0
 17 18  1  0  0  0
 17 35  1  0  0  0
 18 19  1  0  0  0
 18 27  1  0  0  0
 19 20  2  0  0  0
 19 36  1  0  0  0
 20 21  1  0  0  0
 21 22  2  0  0  0
 21 27  1  0  0  0
 22 23  1  0  0  0
 22 24  1  0  0  0
 23 37  1  0  0  0
 23 38  1  0  0  0
 24 25  2  0  0  0
 25 26  1  0  0  0
 25 39  1  0  0  0
 26 27  2  0  0  0
M  CHG  3   2  -1   3  -1   6  -1
M  END
> <s_m_source_file>
../3rv3_ligand.sdf

> <i_m_source_file_index>
1

> <s_epik_input>
W09IXVAoPU8pKFtPSF0pT1tQQF0oPU8pKFtPSF0pT1tDSDJdW0NASF0xT1tDQEhdKFtDQEhdKFtPSF0pW0NAQEhdMVtPSF0pbihbY0hdbjIpYyhjMjMpbltjSF1uYzNbTkgyXQ==

> <s_epik_cmdline>
J2VwaWtfYXBwJywgJy1pbWFlJywgJ2xpZ2FuZF9wcm8ubWFlJywgJy1vbWFlJywgJ2xpZ2FuZF9wcmVwLm1hZScsICctbXMnLCAnMScsICctcGgnLCAnNycsICctcGh0JywgJzAuNScsICctbnQn

> <r_lp_tautomer_probability>
0.999997216410988

> <r_epik_Ionization_Penalty>
  0.1037

> <r_epik_Ionization_Penalty_Charging>
  0.1033

> <r_epik_Ionization_Penalty_Neutral>
  0.0004

> <r_epik_State_Penalty>
  0.0922

> <r_epik_Charging_Adjusted_Penalty>
0.19546844050481

> <i_epik_Tot_Q>
-3

> <i_epik_Tot_abs_Q>
3

> <s_epik_Chemistry_Notes>
This compound contains an acetal/aminal-like group ( X-CH(R)-Y where X, Y are N, S, or O) that may be acid/base labile, releasing an aldehyde.

$$$$
