3rv6_ligand
                    3D
 Schrodinger Suite 2020-3.
 32 33  0  0  1  0            999 V2000
   11.9800   42.0910   24.7790 C   0  0  0  0  0  0
   13.4380   42.1400   30.9360 C   0  0  0  0  0  0
   12.0080   42.7250   26.0770 C   0  0  0  0  0  0
   11.6840   41.9780   27.2110 C   0  0  0  0  0  0
   11.3190   40.5280   27.1610 O   0  0  0  0  0  0
   11.7000   42.5810   28.5370 C   0  0  0  0  0  0
   11.3390   41.6330   29.4820 O   0  0  0  0  0  0
   12.0150   43.8690   28.5960 C   0  0  0  0  0  0
   12.2960   44.6340   27.3930 C   0  0  0  0  0  0
   12.3680   44.1150   26.2510 C   0  0  0  0  0  0
   11.8990   41.8060   30.8550 C   0  0  0  0  0  0
   11.1300   41.6790   31.8360 C   0  0  0  0  0  0
   11.3420   41.7630   33.3420 C   0  0  0  0  0  0
   11.5910   40.7960   24.6950 O   0  5  0  0  0  0
   12.2980   42.7610   23.8350 O   0  0  0  0  0  0
   12.6470   41.4290   34.0890 C   0  0  0  0  0  0
   12.8170   41.5260   35.4340 C   0  0  0  0  0  0
   11.7570   41.8970   36.1980 C   0  0  0  0  0  0
   10.4090   42.2780   35.6780 C   0  0  0  0  0  0
   10.2510   42.1870   34.1500 C   0  0  0  0  0  0
   13.6990   43.1120   31.6510 O   0  5  0  0  0  0
   14.1470   41.6040   30.3100 O   0  0  0  0  0  0
   11.2853   40.0023   26.1953 H   0  0  0  0  0  0
   12.0639   44.3629   29.5665 H   0  0  0  0  0  0
   12.4517   45.7088   27.4857 H   0  0  0  0  0  0
   12.6991   44.7076   25.3982 H   0  0  0  0  0  0
   10.0640   41.4610   31.6746 H   0  0  0  0  0  0
   13.4962   41.0901   33.4956 H   0  0  0  0  0  0
   13.7834   41.3107   35.8898 H   0  0  0  0  0  0
   11.9014   41.9185   37.2782 H   0  0  0  0  0  0
    9.5977   42.5968   36.3325 H   0  0  0  0  0  0
    9.3002   42.4483   33.6855 H   0  0  0  0  0  0
  1  3  1  0  0  0
  1 14  1  0  0  0
  1 15  2  0  0  0
  2 11  1  0  0  0
  2 21  1  0  0  0
  2 22  2  0  0  0
  3  4  2  0  0  0
  3 10  1  0  0  0
  4  5  1  0  0  0
  4  6  1  0  0  0
  5 23  1  0  0  0
  6  7  1  0  0  0
  6  8  2  0  0  0
  7 11  1  0  0  0
  8  9  1  0  0  0
  8 24  1  0  0  0
  9 10  2  0  0  0
  9 25  1  0  0  0
 10 26  1  0  0  0
 11 12  2  0  0  0
 12 13  1  0  0  0
 12 27  1  0  0  0
 13 16  2  0  0  0
 13 20  1  0  0  0
 16 17  1  0  0  0
 16 28  1  0  0  0
 17 18  2  0  0  0
 17 29  1  0  0  0
 18 19  1  0  0  0
 18 30  1  0  0  0
 19 20  2  0  0  0
 19 31  1  0  0  0
 20 32  1  0  0  0
M  CHG  2  14  -1  21  -1
M  END
> <s_m_source_file>
../3rv6_ligand.sdf

> <i_m_source_file_index>
1

> <s_epik_input>
W09IXUMoPU8pYzFjKFtPSF0pYyhbY0hdW2NIXVtjSF0xKU9DKFxDKD1PKVtPSF0pPVtDSF1cYzJbY0hdW2NIXVtjSF1bY0hdW2NIXTI=

> <s_epik_cmdline>
J2VwaWtfYXBwJywgJy1pbWFlJywgJ2xpZ2FuZF9wcm8ubWFlJywgJy1vbWFlJywgJ2xpZ2FuZF9wcmVwLm1hZScsICctbXMnLCAnMScsICctcGgnLCAnNycsICctcGh0JywgJzAuNScsICctbnQn

> <r_lp_tautomer_probability>
1

> <r_epik_Ionization_Penalty>
  0.0001

> <r_epik_Ionization_Penalty_Charging>
  0.0001

> <r_epik_Ionization_Penalty_Neutral>
  0.0000

> <r_epik_State_Penalty>
 -0.0000

> <r_epik_Charging_Adjusted_Penalty>
7.58760604176762e-05

> <i_epik_Tot_Q>
-2

> <i_epik_Tot_abs_Q>
2

$$$$
