3rv7_ligand
                    3D
 Schrodinger Suite 2020-3.
 31 31  0  0  1  0            999 V2000
   41.5620   -1.7870   38.9920 C   0  0  0  0  0  0
   43.9080   -1.1790   38.9660 C   0  0  0  0  0  0
   40.8970    3.7960   39.2690 O   0  0  0  0  0  0
   40.0560    2.6620   33.0550 O   0  5  0  0  0  0
   40.4960    2.2320   40.6920 O   0  5  0  0  0  0
   37.9840    2.3730   32.9350 O   0  0  0  0  0  0
   41.2690    2.3280   34.9780 O   0  0  0  0  0  0
   42.2330    0.5590   39.3680 C   0  0  0  0  0  0
   37.9120    1.1060   36.8580 C   0  0  0  0  0  0
   39.1200    1.1120   37.5470 C   0  0  0  0  0  0
   37.8360    1.5060   35.5350 C   0  0  0  0  0  0
   41.5340    1.6050   37.4060 O   0  0  0  0  0  0
   40.9870    2.6110   39.6100 C   0  0  0  0  0  0
   39.0030    2.3320   33.5860 C   0  0  0  0  0  0
   41.7500    1.6260   38.7410 C   0  0  0  0  0  0
   40.1640    1.9260   35.5960 C   0  0  0  0  0  0
   40.2680    1.5400   36.8980 C   0  0  0  0  0  0
   38.9880    1.9210   34.8930 C   0  0  0  0  0  0
   42.5280   -0.6980   38.5880 C   0  0  0  0  0  0
   41.7807   -2.7014   38.4210 H   0  0  0  0  0  0
   40.5328   -1.4607   38.7817 H   0  0  0  0  0  0
   41.6692   -1.9918   40.0674 H   0  0  0  0  0  0
   44.1424   -2.0967   38.4067 H   0  0  0  0  0  0
   43.9402   -1.3890   40.0453 H   0  0  0  0  0  0
   44.6470   -0.4017   38.7215 H   0  0  0  0  0  0
   42.2271    2.3422   35.5182 H   0  0  0  0  0  0
   42.4164    0.5942   40.4520 H   0  0  0  0  0  0
   37.0068    0.7797   37.3701 H   0  0  0  0  0  0
   39.1638    0.7839   38.5855 H   0  0  0  0  0  0
   36.8823    1.4940   35.0073 H   0  0  0  0  0  0
   42.4461   -0.4825   37.5124 H   0  0  0  0  0  0
  1 19  1  0  0  0
  1 20  1  0  0  0
  1 21  1  0  0  0
  1 22  1  0  0  0
  2 19  1  0  0  0
  2 23  1  0  0  0
  2 24  1  0  0  0
  2 25  1  0  0  0
  3 13  2  0  0  0
  4 14  1  0  0  0
  5 13  1  0  0  0
  6 14  2  0  0  0
  7 16  1  0  0  0
  7 26  1  0  0  0
  8 15  2  0  0  0
  8 19  1  0  0  0
  8 27  1  0  0  0
  9 10  2  0  0  0
  9 11  1  0  0  0
  9 28  1  0  0  0
 10 17  1  0  0  0
 10 29  1  0  0  0
 11 18  2  0  0  0
 11 30  1  0  0  0
 12 15  1  0  0  0
 12 17  1  0  0  0
 13 15  1  0  0  0
 14 18  1  0  0  0
 16 17  2  0  0  0
 16 18  1  0  0  0
 19 31  1  0  0  0
M  CHG  2   4  -1   5  -1
M  END
> <s_m_source_file>
../3rv7_ligand.sdf

> <i_m_source_file_index>
1

> <s_epik_input>
W0NIM11bQ0hdKFtDSDNdKS9bQ0hdPUMoQyg9TylbT0hdKVxPYyhjMVtPSF0pW2NIXVtjSF1bY0hdYzFDKD1PKVtPSF0=

> <s_epik_cmdline>
J2VwaWtfYXBwJywgJy1pbWFlJywgJ2xpZ2FuZF9wcm8ubWFlJywgJy1vbWFlJywgJ2xpZ2FuZF9wcmVwLm1hZScsICctbXMnLCAnMScsICctcGgnLCAnNycsICctcGh0JywgJzAuNScsICctbnQn

> <r_lp_tautomer_probability>
1

> <r_epik_Ionization_Penalty>
  0.0002

> <r_epik_Ionization_Penalty_Charging>
  0.0002

> <r_epik_Ionization_Penalty_Neutral>
  0.0000

> <r_epik_State_Penalty>
 -0.0000

> <r_epik_Charging_Adjusted_Penalty>
0.000165619680871999

> <i_epik_Tot_Q>
-2

> <i_epik_Tot_abs_Q>
2

$$$$
