3rv8_ligand
                    3D
 Schrodinger Suite 2020-3.
 27 28  0  0  1  0            999 V2000
   -3.3480   -7.0600   30.0620 O   0  5  0  0  0  0
   -0.7150   -5.6570   23.9090 O   0  5  0  0  0  0
   -1.3260   -7.0740   30.6930 O   0  0  0  0  0  0
    1.3010   -6.0330   23.9040 O   0  0  0  0  0  0
   -1.8190   -5.0560   25.8290 O   0  0  0  0  0  0
   -2.4070   -4.2320   30.5940 C   0  0  0  0  0  0
    1.3470   -5.9870   27.9510 C   0  0  0  0  0  0
    0.2200   -5.5880   28.6170 C   0  0  0  0  0  0
    1.4210   -6.0890   26.5930 C   0  0  0  0  0  0
   -2.3900   -1.9160   31.3010 C   0  0  0  0  0  0
   -3.7710   -2.1640   30.8610 C   0  0  0  0  0  0
   -2.0270   -4.8730   28.4040 O   0  0  0  0  0  0
   -2.2650   -6.5120   30.1720 C   0  0  0  0  0  0
    0.3070   -5.8130   24.5190 C   0  0  0  0  0  0
   -2.0840   -5.1260   29.7110 C   0  0  0  0  0  0
   -0.7810   -5.3570   26.5440 C   0  0  0  0  0  0
   -0.8730   -5.2670   27.8870 C   0  0  3  0  0  0
    0.3260   -5.7510   25.8760 C   0  0  0  0  0  0
   -2.6430   -2.8130   30.1900 C   0  0  0  0  0  0
   -2.5095   -4.5157   31.6518 H   0  0  0  0  0  0
    2.2560   -6.2454   28.5139 H   0  0  0  0  0  0
    0.2201   -5.5353   29.7157 H   0  0  0  0  0  0
    2.3308   -6.4323   26.0787 H   0  0  0  0  0  0
   -2.1949   -1.2361   32.1434 H   0  0  0  0  0  0
   -4.6089   -1.6696   31.3743 H   0  0  0  0  0  0
   -1.2101   -6.3131   27.9317 H   0  0  0  0  0  0
   -2.3348   -2.8742   29.1358 H   0  0  0  0  0  0
  1 13  1  0  0  0
  2 14  1  0  0  0
  3 13  2  0  0  0
  4 14  2  0  0  0
  5 16  2  0  0  0
  6 15  2  0  0  0
  6 19  1  0  0  0
  6 20  1  0  0  0
  7  8  2  0  0  0
  7  9  1  0  0  0
  7 21  1  0  0  0
  8 17  1  0  0  0
  8 22  1  0  0  0
  9 18  2  0  0  0
  9 23  1  0  0  0
 10 11  2  0  0  0
 10 19  1  0  0  0
 10 24  1  0  0  0
 11 19  1  0  0  0
 11 25  1  0  0  0
 12 15  1  0  0  0
 12 17  1  0  0  0
 13 15  1  0  0  0
 14 18  1  0  0  0
 16 17  1  0  0  0
 16 18  1  0  0  0
 17 26  1  0  0  0
 19 27  1  0  0  0
M  CHG  2   1  -1   2  -1
M  END
> <s_m_source_file>
../3rv8_ligand.sdf

> <i_m_source_file_index>
1

> <s_epik_input>
W0NIXTE9W0NIXVtDSF0xL1tDSF09QyhDKD1PKVtPSF0pXE9bQ0hdKEMyPU8pW0NIXT1bQ0hdW0NIXT1DMkMoPU8pW09IXQ==

> <s_epik_cmdline>
J2VwaWtfYXBwJywgJy1pbWFlJywgJ2xpZ2FuZF9wcm8ubWFlJywgJy1vbWFlJywgJ2xpZ2FuZF9wcmVwLm1hZScsICctbXMnLCAnMScsICctcGgnLCAnNycsICctcGh0JywgJzAuNScsICctbnQn

> <r_lp_tautomer_probability>
1

> <r_epik_Ionization_Penalty>
  0.0002

> <r_epik_Ionization_Penalty_Charging>
  0.0002

> <r_epik_Ionization_Penalty_Neutral>
  0.0000

> <r_epik_State_Penalty>
 -0.0000

> <r_epik_Charging_Adjusted_Penalty>
0.000239897849428786

> <i_epik_Tot_Q>
-2

> <i_epik_Tot_abs_Q>
2

$$$$
