3rv9_ligand
                    3D
 Schrodinger Suite 2020-3.
 28 28  0  0  1  0            999 V2000
   37.2590    4.7980   32.1600 C   0  0  0  0  0  0
   37.0250   -0.4870   31.3540 O   0  5  0  0  0  0
   39.3270    0.0110   25.9770 O   0  5  0  0  0  0
   37.5760   -0.1140   33.3900 O   0  0  0  0  0  0
   41.2400   -0.8880   26.2080 O   0  0  0  0  0  0
   38.2490    1.0310   28.0600 O   0  0  0  0  0  0
   38.1540    2.6060   32.4680 C   0  0  0  0  0  0
   41.6320    0.3240   30.1750 C   0  0  0  0  0  0
   40.5570    0.9350   30.7840 C   0  0  0  0  0  0
   41.5490   -0.0470   28.8490 C   0  0  0  0  0  0
   38.3240    3.8090   31.7960 C   0  0  0  0  0  0
   38.4030    1.7260   30.5140 O   0  0  0  0  0  0
   37.5550    0.1970   32.2160 C   0  0  0  0  0  0
   40.3260   -0.2440   26.6360 C   0  0  0  0  0  0
   38.2340    1.4950   31.7830 C   0  0  0  0  0  0
   39.3660    0.7770   28.7130 C   0  0  0  0  0  0
   39.4410    1.1440   30.0250 C   0  0  1  0  0  0
   40.4260    0.1860   28.0930 C   0  0  0  0  0  0
   37.4260    5.7358   31.6099 H   0  0  0  0  0  0
   37.2963    4.9956   33.2415 H   0  0  0  0  0  0
   36.2728    4.3886   31.8959 H   0  0  0  0  0  0
   37.9563    2.5723   33.5496 H   0  0  0  0  0  0
   42.5526    0.1336   30.7462 H   0  0  0  0  0  0
   40.6200    1.2332   31.8409 H   0  0  0  0  0  0
   42.4210   -0.5447   28.3997 H   0  0  0  0  0  0
   38.2867    3.6114   30.7145 H   0  0  0  0  0  0
   39.3103    4.2183   32.0601 H   0  0  0  0  0  0
   39.0431    0.1685   30.3414 H   0  0  0  0  0  0
  1 11  1  0  0  0
  1 19  1  0  0  0
  1 20  1  0  0  0
  1 21  1  0  0  0
  2 13  1  0  0  0
  3 14  1  0  0  0
  4 13  2  0  0  0
  5 14  2  0  0  0
  6 16  2  0  0  0
  7 11  1  0  0  0
  7 15  2  0  0  0
  7 22  1  0  0  0
  8  9  2  0  0  0
  8 10  1  0  0  0
  8 23  1  0  0  0
  9 17  1  0  0  0
  9 24  1  0  0  0
 10 18  2  0  0  0
 10 25  1  0  0  0
 11 26  1  0  0  0
 11 27  1  0  0  0
 12 15  1  0  0  0
 12 17  1  0  0  0
 13 15  1  0  0  0
 14 18  1  0  0  0
 16 17  1  0  0  0
 16 18  1  0  0  0
 17 28  1  0  0  0
M  CHG  2   2  -1   3  -1
M  END
> <s_m_source_file>
../3rv9_ligand.sdf

> <i_m_source_file_index>
1

> <s_epik_input>
W0NIM11bQ0gyXS9bQ0hdPUMoQyg9TylbT0hdKVxPW0NIXShDMT1PKVtDSF09W0NIXVtDSF09QzFDKD1PKVtPSF0=

> <s_epik_cmdline>
J2VwaWtfYXBwJywgJy1pbWFlJywgJ2xpZ2FuZF9wcm8ubWFlJywgJy1vbWFlJywgJ2xpZ2FuZF9wcmVwLm1hZScsICctbXMnLCAnMScsICctcGgnLCAnNycsICctcGh0JywgJzAuNScsICctbnQn

> <r_lp_tautomer_probability>
1

> <r_epik_Ionization_Penalty>
  0.0002

> <r_epik_Ionization_Penalty_Charging>
  0.0002

> <r_epik_Ionization_Penalty_Neutral>
  0.0000

> <r_epik_State_Penalty>
 -0.0000

> <r_epik_Charging_Adjusted_Penalty>
0.000227967667743659

> <i_epik_Tot_Q>
-2

> <i_epik_Tot_abs_Q>
2

$$$$
