3rvg_ligand
                    3D
 Schrodinger Suite 2020-3.
 72 76  0  0  1  0            999 V2000
  -24.4330  -35.3630    6.0770 C   0  0  1  0  0  0
  -23.5170  -36.3400    5.3240 C   0  0  1  0  0  0
  -24.4230  -37.1670    4.4920 N   0  3  0  0  0  0
  -25.8320  -36.9830    4.8940 C   0  0  2  0  0  0
  -25.8510  -35.9380    5.9920 C   0  0  2  0  0  0
  -27.0070  -37.9130    4.6810 C   0  0  1  0  0  0
  -28.3410  -37.3360    5.0990 C   0  0  0  0  0  0
  -28.4080  -36.0320    5.7660 N   0  0  1  0  0  0
  -27.2180  -35.4650    6.4420 C   0  0  2  0  0  0
  -23.7340  -34.3200    6.9430 C   0  0  0  0  0  0
  -22.2430  -34.5230    7.1550 C   0  0  0  0  0  0
  -21.3900  -35.0230    5.9880 C   0  0  2  0  0  0
  -22.0060  -36.1640    5.1840 C   0  0  0  0  0  0
  -26.8500  -39.0210    3.6830 C   0  0  0  0  0  0
  -27.3790  -34.1900    7.1680 N   0  3  0  0  0  0
  -28.7240  -33.8040    7.6270 C   0  0  0  0  0  0
  -28.6390  -33.1410    9.0100 C   0  0  0  0  0  0
  -29.9740  -32.5320    9.4230 C   0  0  0  0  0  0
  -30.5370  -31.6160    8.3250 C   0  0  0  0  0  0
  -30.7310  -32.4080    7.0390 C   0  0  0  0  0  0
  -29.3840  -32.9410    6.5560 C   0  0  0  0  0  0
  -28.1240  -39.5700    3.1560 N   0  0  0  0  0  0
  -25.6040  -39.7080    3.7240 O   0  0  0  0  0  0
  -19.8690  -34.9520    6.1170 C   0  0  1  0  0  0
  -19.1570  -35.0700    7.4540 C   0  0  0  0  0  0
  -17.7280  -35.3710    7.1850 N   0  3  1  0  0  0
  -17.4370  -35.3820    5.7760 N   0  0  1  0  0  0
  -18.7470  -35.1400    5.1170 C   0  0  0  0  0  0
  -16.6080  -35.2690    8.1940 C   0  0  0  0  0  0
  -24.8295  -34.3385    6.0206 H   0  0  0  0  0  0
  -22.8341  -37.0558    5.8049 H   0  0  0  0  0  0
  -24.3182  -36.8768    3.4362 H   0  0  0  0  0  0
  -24.1603  -38.2288    4.6082 H   0  0  0  0  0  0
  -26.2756  -36.8406    3.8975 H   0  0  0  0  0  0
  -25.9867  -35.9438    7.0836 H   0  0  0  0  0  0
  -27.0029  -38.7226    5.4257 H   0  0  0  0  0  0
  -28.9800  -37.2102    4.2125 H   0  0  0  0  0  0
  -28.8297  -38.0192    5.8093 H   0  0  0  0  0  0
  -28.6814  -35.2588    5.0329 H   0  0  0  0  0  0
  -27.2559  -36.0219    7.3899 H   0  0  0  0  0  0
  -23.8451  -33.3272    6.4827 H   0  0  0  0  0  0
  -24.1872  -34.3122    7.9453 H   0  0  0  0  0  0
  -21.7806  -33.5681    7.4456 H   0  0  0  0  0  0
  -22.0835  -35.2650    7.9513 H   0  0  0  0  0  0
  -21.4658  -34.1923    5.2710 H   0  0  0  0  0  0
  -21.4977  -37.0814    5.5157 H   0  0  0  0  0  0
  -21.7558  -35.9665    4.1312 H   0  0  0  0  0  0
  -26.7667  -34.2084    8.0816 H   0  0  0  0  0  0
  -27.0538  -33.3585    6.5254 H   0  0  0  0  0  0
  -29.3362  -34.7104    7.7439 H   0  0  0  0  0  0
  -28.3535  -33.8931    9.7602 H   0  0  0  0  0  0
  -27.8845  -32.3409    8.9873 H   0  0  0  0  0  0
  -30.7005  -33.3358    9.6130 H   0  0  0  0  0  0
  -29.8381  -31.9367   10.3380 H   0  0  0  0  0  0
  -31.5055  -31.2074    8.6493 H   0  0  0  0  0  0
  -29.8341  -30.7903    8.1402 H   0  0  0  0  0  0
  -31.4112  -33.2517    7.2271 H   0  0  0  0  0  0
  -31.1628  -31.7539    6.2671 H   0  0  0  0  0  0
  -28.7310  -32.0882    6.3185 H   0  0  0  0  0  0
  -29.5463  -33.5422    5.6492 H   0  0  0  0  0  0
  -29.0356  -38.9545    3.1698 H   0  0  0  0  0  0
  -28.1568  -40.5924    2.7516 H   0  0  0  0  0  0
  -20.5158  -34.1730    5.6872 H   0  0  0  0  0  0
  -19.2495  -34.1216    8.0036 H   0  0  0  0  0  0
  -19.6127  -35.8804    8.0419 H   0  0  0  0  0  0
  -17.6801  -36.4133    7.5333 H   0  0  0  0  0  0
  -16.7113  -34.5882    5.5453 H   0  0  0  0  0  0
  -18.9695  -36.0048    4.4746 H   0  0  0  0  0  0
  -18.6538  -34.2366    4.4964 H   0  0  0  0  0  0
  -17.0285  -35.2760    9.2104 H   0  0  0  0  0  0
  -16.0536  -34.3327    8.0329 H   0  0  0  0  0  0
  -15.9266  -36.1241    8.0731 H   0  0  0  0  0  0
  1  2  1  0  0  0
  1  5  1  0  0  0
  1 10  1  0  0  0
  1 30  1  0  0  0
  2  3  1  0  0  0
  2 13  1  0  0  0
  2 31  1  0  0  0
  3  4  1  0  0  0
  3 32  1  0  0  0
  3 33  1  0  0  0
  4  5  1  0  0  0
  4  6  1  0  0  0
  4 34  1  0  0  0
  5  9  1  0  0  0
  5 35  1  0  0  0
  6  7  1  0  0  0
  6 14  1  0  0  0
  6 36  1  0  0  0
  7  8  1  0  0  0
  7 37  1  0  0  0
  7 38  1  0  0  0
  8  9  1  0  0  0
  8 39  1  0  0  0
  9 15  1  0  0  0
  9 40  1  0  0  0
 10 11  1  0  0  0
 10 41  1  0  0  0
 10 42  1  0  0  0
 11 12  1  0  0  0
 11 43  1  0  0  0
 11 44  1  0  0  0
 12 13  1  0  0  0
 12 24  1  0  0  0
 12 45  1  0  0  0
 13 46  1  0  0  0
 13 47  1  0  0  0
 14 22  1  0  0  0
 14 23  2  0  0  0
 15 16  1  0  0  0
 15 48  1  0  0  0
 15 49  1  0  0  0
 16 17  1  0  0  0
 16 21  1  0  0  0
 16 50  1  0  0  0
 17 18  1  0  0  0
 17 51  1  0  0  0
 17 52  1  0  0  0
 18 19  1  0  0  0
 18 53  1  0  0  0
 18 54  1  0  0  0
 19 20  1  0  0  0
 19 55  1  0  0  0
 19 56  1  0  0  0
 20 21  1  0  0  0
 20 57  1  0  0  0
 20 58  1  0  0  0
 21 59  1  0  0  0
 21 60  1  0  0  0
 22 61  1  0  0  0
 22 62  1  0  0  0
 24 25  1  0  0  0
 24 28  1  0  0  0
 24 63  1  0  0  0
 25 26  1  0  0  0
 25 64  1  0  0  0
 25 65  1  0  0  0
 26 27  1  0  0  0
 26 29  1  0  0  0
 26 66  1  0  0  0
 27 28  1  0  0  0
 27 67  1  0  0  0
 28 68  1  0  0  0
 28 69  1  0  0  0
 29 70  1  0  0  0
 29 71  1  0  0  0
 29 72  1  0  0  0
M  CHG  3   3   1  15   1  26   1
M  END
> <s_m_source_file>
../3rvg_ligand.sdf

> <i_m_source_file_index>
1

> <s_epik_input>
W0NIMl0xW05IMitdW05AQEgrXShbQ0gzXSlbQ0gyXVtDQEBIXTFbQ0BIXShbQ0gyXVtDSDJdMilbQ0gyXVtDQEBIXShbQ0BIXTIzKVtOSDIrXVtDQEBIXTRbQ0BASF0zW0NASF0oW05IMitdW0NIMl1bQ0BIXTRDKD1PKVtOSDJdKVtOSDIrXVtDSF01W0NIMl1bQ0gyXVtDSDJdW0NIMl1bQ0gyXTU=

> <s_epik_cmdline>
J2VwaWtfYXBwJywgJy1pbWFlJywgJ2xpZ2FuZF9wcm8ubWFlJywgJy1vbWFlJywgJ2xpZ2FuZF9wcmVwLm1hZScsICctbXMnLCAnMScsICctcGgnLCAnNycsICctcGh0JywgJzAuNScsICctbnQn

> <r_epik_Ionization_Penalty>
  0.3240

> <r_epik_Ionization_Penalty_Charging>
  0.3240

> <r_epik_Ionization_Penalty_Neutral>
  0.0000

> <r_epik_State_Penalty>
  0.4601

> <r_epik_Charging_Adjusted_Penalty>
0.784157963152521

> <i_epik_Tot_Q>
3

> <i_epik_Tot_abs_Q>
3

> <s_epik_Chemistry_Notes>
This compound contains an acetal/aminal-like group ( X-CH(R)-Y where X, Y are N, S, or O) that may be acid/base labile, releasing an aldehyde.

$$$$
