3rvi_ligand
                    3D
 Schrodinger Suite 2020-3.
 70 73  0  0  1  0            999 V2000
   70.7030   49.9630   12.2580 C   0  0  0  0  0  0
   71.8210   49.1330   12.4580 C   0  0  0  0  0  0
   72.6050   49.2960   13.6000 C   0  0  0  0  0  0
   69.8760   49.8480   11.1380 C   0  0  0  0  0  0
   69.8670   50.8640   10.1790 C   0  0  0  0  0  0
   69.0360   48.7410   10.9820 C   0  0  0  0  0  0
   66.5510   47.4750    8.5460 C   0  0  0  0  0  0
   72.2230   48.0350   11.4560 C   0  0  0  0  0  0
   64.1780   46.6430    8.6500 C   0  0  2  0  0  0
   63.9470   47.1640   10.0750 C   0  0  0  0  0  0
   64.0420   50.0900   11.9950 C   0  0  0  0  0  0
   65.0240   52.3920   11.7360 C   0  0  0  0  0  0
   66.3000   50.5730   12.9870 C   0  0  0  0  0  0
   64.1700   51.2960   11.0610 C   0  0  0  0  0  0
   66.4070   51.8650   12.1630 C   0  0  0  0  0  0
   65.4380   49.5190   12.2690 C   0  0  0  0  0  0
   63.0750   49.0270   11.4460 C   0  0  0  0  0  0
   63.4440   48.3990   10.1540 N   0  0  0  0  0  0
   64.1940   46.4500   11.0510 O   0  0  0  0  0  0
   63.2510   45.4320    8.4160 C   0  0  0  0  0  0
   61.7750   45.8220    8.6220 C   0  0  0  0  0  0
   60.8400   44.6100    8.7090 C   0  0  0  0  0  0
   65.6480   46.2430    8.4160 C   0  0  0  0  0  0
   66.6030   48.5320    7.6260 C   0  0  0  0  0  0
   67.4210   49.5790    7.8270 N   0  0  0  0  0  0
   65.8520   48.5270    6.5290 N   0  0  0  0  0  0
   67.3720   47.5450    9.6750 C   0  0  0  0  0  0
   68.2120   48.6450    9.8580 C   0  0  0  0  0  0
   68.2140   49.6630    8.9050 C   0  0  0  0  0  0
   69.0390   50.7710    9.0650 C   0  0  0  0  0  0
   70.3920   50.9440   13.2040 C   0  0  0  0  0  0
   71.1790   51.1000   14.3400 C   0  0  0  0  0  0
   72.2850   50.2790   14.5350 C   0  0  0  0  0  0
   73.4702   48.6530   13.7617 H   0  0  0  0  0  0
   70.5119   51.7338   10.3043 H   0  0  0  0  0  0
   69.0242   47.9542   11.7363 H   0  0  0  0  0  0
   71.5146   48.0294   10.6145 H   0  0  0  0  0  0
   72.2043   47.0562   11.9576 H   0  0  0  0  0  0
   73.2373   48.2351   11.0802 H   0  0  0  0  0  0
   63.9467   47.4511    7.9405 H   0  0  0  0  0  0
   63.6038   50.4267   12.9461 H   0  0  0  0  0  0
   65.1758   53.2238   11.0324 H   0  0  0  0  0  0
   64.5051   52.7607   12.6331 H   0  0  0  0  0  0
   67.3049   50.1540   13.1441 H   0  0  0  0  0  0
   65.8395   50.7962   13.9607 H   0  0  0  0  0  0
   64.6534   50.9840   10.1235 H   0  0  0  0  0  0
   63.1697   51.6977   10.8417 H   0  0  0  0  0  0
   67.0109   51.6532   11.2683 H   0  0  0  0  0  0
   66.9148   52.6234   12.7770 H   0  0  0  0  0  0
   65.3504   48.6258   12.9050 H   0  0  0  0  0  0
   65.9157   49.2455   11.3166 H   0  0  0  0  0  0
   62.9901   48.2010   12.1675 H   0  0  0  0  0  0
   62.0847   49.4789   11.2878 H   0  0  0  0  0  0
   63.3065   48.9533    9.2139 H   0  0  0  0  0  0
   63.3796   45.0653    7.3869 H   0  0  0  0  0  0
   63.5076   44.6313    9.1253 H   0  0  0  0  0  0
   61.6731   46.3897    9.5587 H   0  0  0  0  0  0
   61.4386   46.4428    7.7785 H   0  0  0  0  0  0
   59.8057   44.9546    8.8555 H   0  0  0  0  0  0
   61.1390   43.9764    9.5570 H   0  0  0  0  0  0
   60.9046   44.0295    7.7769 H   0  0  0  0  0  0
   65.7519   45.8171    7.4071 H   0  0  0  0  0  0
   65.9429   45.4917    9.1634 H   0  0  0  0  0  0
   65.1710   47.6858    6.3325 H   0  0  0  0  0  0
   65.9117   49.3640    5.8178 H   0  0  0  0  0  0
   67.3564   46.7418   10.4117 H   0  0  0  0  0  0
   69.0369   51.5654    8.3187 H   0  0  0  0  0  0
   69.5278   51.5903   13.0505 H   0  0  0  0  0  0
   70.9297   51.8642   15.0762 H   0  0  0  0  0  0
   72.9042   50.4050   15.4231 H   0  0  0  0  0  0
  1  2  2  0  0  0
  1  4  1  0  0  0
  1 31  1  0  0  0
  2  3  1  0  0  0
  2  8  1  0  0  0
  3 33  2  0  0  0
  3 34  1  0  0  0
  4  5  2  0  0  0
  4  6  1  0  0  0
  5 30  1  0  0  0
  5 35  1  0  0  0
  6 28  2  0  0  0
  6 36  1  0  0  0
  7 23  1  0  0  0
  7 24  1  0  0  0
  7 27  2  0  0  0
  8 37  1  0  0  0
  8 38  1  0  0  0
  8 39  1  0  0  0
  9 10  1  0  0  0
  9 20  1  0  0  0
  9 23  1  0  0  0
  9 40  1  0  0  0
 10 18  1  0  0  0
 10 19  2  0  0  0
 11 14  1  0  0  0
 11 16  1  0  0  0
 11 17  1  0  0  0
 11 41  1  0  0  0
 12 14  1  0  0  0
 12 15  1  0  0  0
 12 42  1  0  0  0
 12 43  1  0  0  0
 13 15  1  0  0  0
 13 16  1  0  0  0
 13 44  1  0  0  0
 13 45  1  0  0  0
 14 46  1  0  0  0
 14 47  1  0  0  0
 15 48  1  0  0  0
 15 49  1  0  0  0
 16 50  1  0  0  0
 16 51  1  0  0  0
 17 18  1  0  0  0
 17 52  1  0  0  0
 17 53  1  0  0  0
 18 54  1  0  0  0
 20 21  1  0  0  0
 20 55  1  0  0  0
 20 56  1  0  0  0
 21 22  1  0  0  0
 21 57  1  0  0  0
 21 58  1  0  0  0
 22 59  1  0  0  0
 22 60  1  0  0  0
 22 61  1  0  0  0
 23 62  1  0  0  0
 23 63  1  0  0  0
 24 25  2  0  0  0
 24 26  1  0  0  0
 25 29  1  0  0  0
 26 64  1  0  0  0
 26 65  1  0  0  0
 27 28  1  0  0  0
 27 66  1  0  0  0
 28 29  1  0  0  0
 29 30  2  0  0  0
 30 67  1  0  0  0
 31 32  2  0  0  0
 31 68  1  0  0  0
 32 33  1  0  0  0
 32 69  1  0  0  0
 33 70  1  0  0  0
M  END
> <s_m_source_file>
../3rvi_ligand.sdf

> <i_m_source_file_index>
1

> <s_epik_input>
W2NIXTFbY0hdW2NIXVtjSF1jKFtDSDNdKWMxLWMoW2NIXTIpW2NIXVtjSF1jKGMyMyluYyhbTkgyXSljKFtjSF0zKVtDSDJdW0NAQEhdKFtDSDJdW0NIMl1bQ0gzXSlDKD1PKVtOSF1bQ0gyXVtDSF00W0NIMl1bQ0gyXVtDSDJdW0NIMl1bQ0gyXTQ=

> <s_epik_cmdline>
J2VwaWtfYXBwJywgJy1pbWFlJywgJ2xpZ2FuZF9wcm8ubWFlJywgJy1vbWFlJywgJ2xpZ2FuZF9wcmVwLm1hZScsICctbXMnLCAnMScsICctcGgnLCAnNycsICctcGh0JywgJzAuNScsICctbnQn

> <r_epik_Ionization_Penalty>
  0.0881

> <r_epik_Ionization_Penalty_Charging>
  0.0000

> <r_epik_Ionization_Penalty_Neutral>
  0.0881

> <r_epik_State_Penalty>
  0.0785

> <r_epik_Charging_Adjusted_Penalty>
0.0784877555363961

> <i_epik_Tot_Q>
0

> <i_epik_Tot_abs_Q>
0

$$$$
