3rw9_ligand
                    3D
 Schrodinger Suite 2020-3.
 41 43  0  0  1  0            999 V2000
    0.7430   58.8340    8.7880 N   0  0  0  0  0  0
    1.4960   71.2080    7.8460 N   0  0  0  0  0  0
    0.9260   70.2580    7.0900 C   0  0  0  0  0  0
    1.4700   69.0360    6.9730 N   0  0  0  0  0  0
    2.6110   68.7320    7.6310 C   0  0  0  0  0  0
    3.2100   69.6980    8.4270 C   0  0  0  0  0  0
    2.6350   70.9550    8.5260 C   0  0  0  0  0  0
    3.2020   71.9160    9.2960 N   0  0  0  0  0  0
    4.3120   69.1410    8.9630 N   0  0  0  0  0  0
    4.3920   67.8730    8.5100 C   0  0  0  0  0  0
    3.3610   67.6280    7.6950 N   0  0  0  0  0  0
    1.6660   58.7760    9.7470 C   0  0  0  0  0  0
    2.4060   59.8390   10.0530 C   0  0  0  0  0  0
    3.7780   61.6460    8.6530 S   0  0  0  0  0  0
    2.2250   61.1430    9.3150 C   0  0  0  0  0  0
    3.0740   66.3360    7.0050 C   0  0  1  0  0  0
    4.3290   65.6810    6.4570 C   0  0  2  0  0  0
    4.6130   66.1530    5.1400 O   0  0  0  0  0  0
    3.9640   64.2100    6.4460 C   0  0  2  0  0  0
    3.2320   63.9230    5.2530 O   0  0  0  0  0  0
    2.9980   64.0480    7.6010 C   0  0  2  0  0  0
    2.5430   65.3720    7.9270 O   0  0  0  0  0  0
    3.6670   63.4040    8.8100 C   0  0  0  0  0  0
    0.5828   59.7712    8.2348 H   0  0  0  0  0  0
    0.0010   70.4829    6.5590 H   0  0  0  0  0  0
    2.7363   72.9100    9.3667 H   0  0  0  0  0  0
    4.1278   71.7017    9.8501 H   0  0  0  0  0  0
    5.1748   67.1597    8.7681 H   0  0  0  0  0  0
    1.8116   57.8300   10.2891 H   0  0  0  0  0  0
    3.1596   59.7731   10.8516 H   0  0  0  0  0  0
    1.5006   61.0049    8.4988 H   0  0  0  0  0  0
    1.8520   61.9093   10.0105 H   0  0  0  0  0  0
    2.3344   66.5752    6.2267 H   0  0  0  0  0  0
    5.2563   65.9198    6.9984 H   0  0  0  0  0  0
    4.8949   67.2044    4.9814 H   0  0  0  0  0  0
    4.8368   63.5408    6.4637 H   0  0  0  0  0  0
    3.7319   63.9766    4.2746 H   0  0  0  0  0  0
    2.1319   63.4300    7.3221 H   0  0  0  0  0  0
    3.0756   63.6558    9.7026 H   0  0  0  0  0  0
    4.6773   63.8279    8.9080 H   0  0  0  0  0  0
    0.1411   57.9447    8.5494 H   0  0  0  0  0  0
  1 12  1  0  0  0
  1 24  1  0  0  0
  1 41  1  0  0  0
  2  3  1  0  0  0
  2  7  2  0  0  0
  3  4  2  0  0  0
  3 25  1  0  0  0
  4  5  1  0  0  0
  5  6  2  0  0  0
  5 11  1  0  0  0
  6  7  1  0  0  0
  6  9  1  0  0  0
  7  8  1  0  0  0
  8 26  1  0  0  0
  8 27  1  0  0  0
  9 10  2  0  0  0
 10 11  1  0  0  0
 10 28  1  0  0  0
 11 16  1  0  0  0
 12 13  2  0  0  0
 12 29  1  0  0  0
 13 15  1  0  0  0
 13 30  1  0  0  0
 14 15  1  0  0  0
 14 23  1  0  0  0
 15 31  1  0  0  0
 15 32  1  0  0  0
 16 17  1  0  0  0
 16 22  1  0  0  0
 16 33  1  0  0  0
 17 18  1  0  0  0
 17 19  1  0  0  0
 17 34  1  0  0  0
 18 35  1  0  0  0
 19 20  1  0  0  0
 19 21  1  0  0  0
 19 36  1  0  0  0
 20 37  1  0  0  0
 21 22  1  0  0  0
 21 23  1  0  0  0
 21 38  1  0  0  0
 23 39  1  0  0  0
 23 40  1  0  0  0
M  END
> <s_m_source_file>
../3rw9_ligand.sdf

> <i_m_source_file_index>
1

> <s_epik_input>
W0hdL049W0NIXVxbQ0gyXVtDSDJdU1tDSDJdW0NAQEhdKE8xKVtDQEBIXShbT0hdKVtDQEBIXShbT0hdKVtDQEBIXTFuMltjSF1uYyhjMjMpYyhbTkgyXSluW2NIXW4z

> <s_epik_cmdline>
J2VwaWtfYXBwJywgJy1pbWFlJywgJ2xpZ2FuZF9wcm8ubWFlJywgJy1vbWFlJywgJ2xpZ2FuZF9wcmVwLm1hZScsICctbXMnLCAnMScsICctcGgnLCAnNycsICctcGh0JywgJzAuNScsICctbnQn

> <r_lp_tautomer_probability>
1

> <r_epik_Ionization_Penalty>
  0.0015

> <r_epik_Ionization_Penalty_Charging>
  0.0000

> <r_epik_Ionization_Penalty_Neutral>
  0.0015

> <r_epik_State_Penalty>
 -0.0000

> <r_epik_Charging_Adjusted_Penalty>
4.1105751169804e-07

> <i_epik_Tot_Q>
0

> <i_epik_Tot_abs_Q>
0

> <s_epik_Chemistry_Notes>
This compound has an imine and may undergo hydrolysis. This compound contains an acetal/aminal-like group ( X-CH(R)-Y where X, Y are N, S, or O) that may be acid/base labile, releasing an aldehyde.

$$$$
