3rwc_ligand
                    3D
 Schrodinger Suite 2020-3.
167171  0  0  1  0            999 V2000
   12.4190   13.2340   -0.9400 N   0  3  0  0  0  0
   12.2350   14.5390   -0.3160 C   0  0  2  0  0  0
   10.8320   15.0750   -0.5900 C   0  0  0  0  0  0
   10.2930   14.9070   -1.6850 O   0  0  0  0  0  0
   13.2830   15.5600   -0.8100 C   0  0  2  0  0  0
   13.2410   16.8280    0.0420 C   0  0  0  0  0  0
   13.0670   15.8900   -2.2790 C   0  0  0  0  0  0
   14.2930   17.8430   -0.3300 C   0  0  0  0  0  0
   10.2410   15.7180    0.4100 N   0  0  0  0  0  0
    8.8710   16.2040    0.3040 C   0  0  2  0  0  0
    8.7920   17.4790   -0.5230 C   0  0  0  0  0  0
    9.7910   18.1700   -0.7140 O   0  0  0  0  0  0
    8.2870   16.4530    1.6960 C   0  0  0  0  0  0
    8.2440   15.2210    2.5850 C   0  0  0  0  0  0
    7.8220   15.5790    4.0010 C   0  0  0  0  0  0
    7.5970   14.3880    4.8130 N   0  0  0  0  0  0
    6.4350   13.7480    4.8900 C   0  0  0  0  0  0
    5.3880   14.1880    4.2050 N   0  0  0  0  0  0
    6.3180   12.6680    5.6510 N   0  0  0  0  0  0
    7.5950   17.7790   -1.0150 N   0  0  0  0  0  0
    7.3520   19.0140   -1.7490 C   0  0  2  0  0  0
    7.1690   20.1610   -0.7650 C   0  0  0  0  0  0
    6.3110   20.0970    0.1140 O   0  0  0  0  0  0
    6.1240   18.8740   -2.6520 C   0  0  0  0  0  0
    5.8120   20.1090   -3.4720 C   0  0  0  0  0  0
    6.7300   20.6120   -4.3810 C   0  0  0  0  0  0
    4.5910   20.7590   -3.3500 C   0  0  0  0  0  0
    6.4480   21.7400   -5.1330 C   0  0  0  0  0  0
    4.3000   21.8870   -4.0970 C   0  0  0  0  0  0
    5.2300   22.3720   -4.9870 C   0  0  0  0  0  0
    4.9330   23.4940   -5.7290 O   0  0  0  0  0  0
    7.9900   21.2150   -0.9070 N   0  0  0  0  0  0
    8.0480   22.3480    0.0240 C   0  0  2  0  0  0
    6.7020   23.0220    0.2510 C   0  0  0  0  0  0
    6.2590   23.1440    1.3940 O   0  0  0  0  0  0
    8.9670   23.3380   -0.6960 C   0  0  0  0  0  0
    9.8480   22.4910   -1.5090 C   0  0  0  0  0  0
    8.9990   21.3440   -1.9710 C   0  0  0  0  0  0
    6.0700   23.4710   -0.8280 N   0  0  0  0  0  0
    4.8190   24.2060   -0.7280 C   0  0  2  0  0  0
    3.6280   23.2610   -0.6650 C   0  0  0  0  0  0
    3.6500   22.1840   -1.2570 O   0  0  0  0  0  0
    4.6800   25.1610   -1.9110 C   0  0  0  0  0  0
    3.3660   25.9250   -1.9380 C   0  0  0  0  0  0
    3.2460   26.8990   -0.7670 C   0  0  0  0  0  0
    1.9540   27.7050   -0.8690 C   0  0  0  0  0  0
    1.7970   28.7320    0.1990 N   0  3  0  0  0  0
    2.6010   23.6630    0.0790 N   0  0  0  0  0  0
    1.3310   22.9460    0.0870 C   0  0  2  0  0  0
    0.1980   23.8490   -0.3950 C   0  0  0  0  0  0
    0.0260   24.9750    0.0790 O   0  0  0  0  0  0
    0.9800   22.3580    1.4840 C   0  0  2  0  0  0
    2.1070   21.6510    2.0120 O   0  0  0  0  0  0
   -0.1920   21.3900    1.3780 C   0  0  0  0  0  0
   -0.5810   23.3360   -1.3370 N   0  0  0  0  0  0
   -1.6050   24.1300   -2.0000 C   0  0  2  0  0  0
   -2.8740   24.1680   -1.1610 C   0  0  0  0  0  0
   -3.3600   23.1300   -0.7200 O   0  0  0  0  0  0
   -1.9170   23.5310   -3.3700 C   0  0  0  0  0  0
   -0.6990   23.2670   -4.2130 C   0  0  0  0  0  0
    0.4660   23.9960   -4.0320 C   0  0  0  0  0  0
   -0.7250   22.2900   -5.1920 C   0  0  0  0  0  0
    1.5790   23.7520   -4.8130 C   0  0  0  0  0  0
    0.3830   22.0420   -5.9740 C   0  0  0  0  0  0
    1.5380   22.7750   -5.7850 C   0  0  0  0  0  0
   -3.4100   25.3640   -0.9430 N   0  0  0  0  0  0
   -4.6710   25.5150   -0.2410 C   0  0  0  0  0  0
   -5.8660   25.3660   -1.1660 C   0  0  0  0  0  0
   -5.8750   25.9030   -2.2750 O   0  0  0  0  0  0
   -6.8800   24.6330   -0.7150 N   0  0  0  0  0  0
   -8.0740   24.4190   -1.5270 C   0  0  2  0  0  0
   -8.8860   25.6970   -1.6690 C   0  0  0  0  0  0
   -9.7920   25.7650   -2.4970 O   0  0  0  0  0  0
   -8.9530   23.3190   -0.9350 C   0  0  0  0  0  0
   -8.3850   21.9500   -1.0790 C   0  0  0  0  0  0
   -7.1360   21.6200   -1.5180 C   0  0  0  0  0  0
   -9.0480   20.7160   -0.7870 C   0  0  0  0  0  0
   -6.9790   20.2550   -1.5140 N   0  0  0  0  0  0
   -8.1400   19.6770   -1.0690 C   0  0  0  0  0  0
  -10.3230   20.3890   -0.3120 C   0  0  0  0  0  0
   -8.4640   18.3340   -0.8930 C   0  0  0  0  0  0
  -10.6430   19.0560   -0.1380 C   0  0  0  0  0  0
   -9.7180   18.0450   -0.4280 C   0  0  0  0  0  0
   -8.6620   26.6770   -0.9590 O   0  0  0  0  0  0
   11.6560   12.5368   -0.5636 H   0  0  0  0  0  0
   13.4200   12.8488   -0.6960 H   0  0  0  0  0  0
   12.3198   13.3321   -2.0311 H   0  0  0  0  0  0
   12.3670   14.3445    0.7586 H   0  0  0  0  0  0
   14.2855   15.1171   -0.7156 H   0  0  0  0  0  0
   12.2612   17.3146   -0.0728 H   0  0  0  0  0  0
   13.3983   16.5653    1.0985 H   0  0  0  0  0  0
   13.1013   14.9640   -2.8717 H   0  0  0  0  0  0
   13.8577   16.5739   -2.6213 H   0  0  0  0  0  0
   12.0859   16.3708   -2.4064 H   0  0  0  0  0  0
   14.2004   18.7233    0.3231 H   0  0  0  0  0  0
   14.1543   18.1476   -1.3778 H   0  0  0  0  0  0
   15.2915   17.3983   -0.2065 H   0  0  0  0  0  0
   10.8122   15.8807    1.3359 H   0  0  0  0  0  0
    8.3248   15.4021   -0.2144 H   0  0  0  0  0  0
    8.8943   17.2064    2.2190 H   0  0  0  0  0  0
    7.2535   16.8172    1.6003 H   0  0  0  0  0  0
    7.5223   14.4987    2.1759 H   0  0  0  0  0  0
    9.2424   14.7607    2.6223 H   0  0  0  0  0  0
    8.6105   16.1798    4.4778 H   0  0  0  0  0  0
    6.8877   16.1588    3.9697 H   0  0  0  0  0  0
    8.4185   13.9669    5.4111 H   0  0  0  0  0  0
    5.4812   15.0833    3.5728 H   0  0  0  0  0  0
    7.1841   12.3001    6.2206 H   0  0  0  0  0  0
    5.3548   12.1402    5.7125 H   0  0  0  0  0  0
    6.7747   17.0639   -0.8549 H   0  0  0  0  0  0
    8.2428   19.1879   -2.3705 H   0  0  0  0  0  0
    6.2823   18.0477   -3.3606 H   0  0  0  0  0  0
    5.2376   18.6636   -2.0355 H   0  0  0  0  0  0
    7.6900   20.1111   -4.5058 H   0  0  0  0  0  0
    3.8475   20.3733   -2.6525 H   0  0  0  0  0  0
    7.1847   22.1269   -5.8370 H   0  0  0  0  0  0
    3.3392   22.3884   -3.9808 H   0  0  0  0  0  0
    5.6686   23.8912   -6.4439 H   0  0  0  0  0  0
    8.3824   21.9819    1.0059 H   0  0  0  0  0  0
    8.3618   24.0163   -1.3154 H   0  0  0  0  0  0
    9.5292   23.9232    0.0466 H   0  0  0  0  0  0
   10.2317   23.0721   -2.3606 H   0  0  0  0  0  0
   10.6906   22.1417   -0.8941 H   0  0  0  0  0  0
    9.5688   20.4065   -2.0516 H   0  0  0  0  0  0
    8.4982   21.5520   -2.9280 H   0  0  0  0  0  0
    6.5153   23.2748   -1.8145 H   0  0  0  0  0  0
    4.8801   24.7671    0.2162 H   0  0  0  0  0  0
    5.4882   25.9064   -1.8774 H   0  0  0  0  0  0
    4.7443   24.5926   -2.8506 H   0  0  0  0  0  0
    3.2960   26.5011   -2.8724 H   0  0  0  0  0  0
    2.5278   25.2150   -1.8814 H   0  0  0  0  0  0
    3.2416   26.3369    0.1785 H   0  0  0  0  0  0
    4.1001   27.5921   -0.7775 H   0  0  0  0  0  0
    1.9259   28.2321   -1.8341 H   0  0  0  0  0  0
    1.0916   27.0260   -0.7969 H   0  0  0  0  0  0
    0.8464   29.2669    0.0564 H   0  0  0  0  0  0
    2.6315   29.4467    0.1459 H   0  0  0  0  0  0
    1.7972   28.2405    1.1831 H   0  0  0  0  0  0
    2.7288   24.5622    0.6995 H   0  0  0  0  0  0
    1.5003   22.1296   -0.6305 H   0  0  0  0  0  0
    0.7544   23.1594    2.2029 H   0  0  0  0  0  0
    3.0616   22.1751    2.1671 H   0  0  0  0  0  0
   -1.0681   21.9179    0.9732 H   0  0  0  0  0  0
   -0.4315   20.9935    2.3757 H   0  0  0  0  0  0
    0.0775   20.5598    0.7085 H   0  0  0  0  0  0
   -0.4378   22.2811   -1.6140 H   0  0  0  0  0  0
   -1.1885   25.1433   -2.0987 H   0  0  0  0  0  0
   -2.4370   22.5704   -3.2403 H   0  0  0  0  0  0
   -2.5596   24.2224   -3.9348 H   0  0  0  0  0  0
    0.5043   24.7699   -3.2654 H   0  0  0  0  0  0
   -1.6337   21.7084   -5.3472 H   0  0  0  0  0  0
    2.4894   24.3317   -4.6609 H   0  0  0  0  0  0
    0.3474   21.2681   -6.7407 H   0  0  0  0  0  0
    2.4150   22.5817   -6.4027 H   0  0  0  0  0  0
   -2.8744   26.2524   -1.3088 H   0  0  0  0  0  0
   -4.7486   24.7470    0.5427 H   0  0  0  0  0  0
   -4.7178   26.5135    0.2182 H   0  0  0  0  0  0
   -6.8087   24.1849    0.2871 H   0  0  0  0  0  0
   -7.6868   24.1136   -2.5103 H   0  0  0  0  0  0
   -9.0941   23.5015    0.1405 H   0  0  0  0  0  0
   -9.9310   23.3203   -1.4385 H   0  0  0  0  0  0
   -6.3737   22.3352   -1.8269 H   0  0  0  0  0  0
  -11.0488   21.1696   -0.0840 H   0  0  0  0  0  0
   -7.7469   17.5442   -1.1169 H   0  0  0  0  0  0
  -11.6325   18.7866    0.2314 H   0  0  0  0  0  0
  -10.0038   17.0036   -0.2798 H   0  0  0  0  0  0
   -9.2616   27.5914   -1.0786 H   0  0  0  0  0  0
  1  2  1  0  0  0
  1 85  1  0  0  0
  1 86  1  0  0  0
  1 87  1  0  0  0
  2  3  1  0  0  0
  2  5  1  0  0  0
  2 88  1  0  0  0
  3  4  2  0  0  0
  3  9  1  0  0  0
  5  6  1  0  0  0
  5  7  1  0  0  0
  5 89  1  0  0  0
  6  8  1  0  0  0
  6 90  1  0  0  0
  6 91  1  0  0  0
  7 92  1  0  0  0
  7 93  1  0  0  0
  7 94  1  0  0  0
  8 95  1  0  0  0
  8 96  1  0  0  0
  8 97  1  0  0  0
  9 10  1  0  0  0
  9 98  1  0  0  0
 10 11  1  0  0  0
 10 13  1  0  0  0
 10 99  1  0  0  0
 11 12  2  0  0  0
 11 20  1  0  0  0
 13 14  1  0  0  0
 13100  1  0  0  0
 13101  1  0  0  0
 14 15  1  0  0  0
 14102  1  0  0  0
 14103  1  0  0  0
 15 16  1  0  0  0
 15104  1  0  0  0
 15105  1  0  0  0
 16 17  1  0  0  0
 16106  1  0  0  0
 17 18  2  0  0  0
 17 19  1  0  0  0
 18107  1  0  0  0
 19108  1  0  0  0
 19109  1  0  0  0
 20 21  1  0  0  0
 20110  1  0  0  0
 21 22  1  0  0  0
 21 24  1  0  0  0
 21111  1  0  0  0
 22 23  2  0  0  0
 22 32  1  0  0  0
 24 25  1  0  0  0
 24112  1  0  0  0
 24113  1  0  0  0
 25 26  2  0  0  0
 25 27  1  0  0  0
 26 28  1  0  0  0
 26114  1  0  0  0
 27 29  2  0  0  0
 27115  1  0  0  0
 28 30  2  0  0  0
 28116  1  0  0  0
 29 30  1  0  0  0
 29117  1  0  0  0
 30 31  1  0  0  0
 31118  1  0  0  0
 32 33  1  0  0  0
 32 38  1  0  0  0
 33 34  1  0  0  0
 33 36  1  0  0  0
 33119  1  0  0  0
 34 35  2  0  0  0
 34 39  1  0  0  0
 36 37  1  0  0  0
 36120  1  0  0  0
 36121  1  0  0  0
 37 38  1  0  0  0
 37122  1  0  0  0
 37123  1  0  0  0
 38124  1  0  0  0
 38125  1  0  0  0
 39 40  1  0  0  0
 39126  1  0  0  0
 40 41  1  0  0  0
 40 43  1  0  0  0
 40127  1  0  0  0
 41 42  2  0  0  0
 41 48  1  0  0  0
 43 44  1  0  0  0
 43128  1  0  0  0
 43129  1  0  0  0
 44 45  1  0  0  0
 44130  1  0  0  0
 44131  1  0  0  0
 45 46  1  0  0  0
 45132  1  0  0  0
 45133  1  0  0  0
 46 47  1  0  0  0
 46134  1  0  0  0
 46135  1  0  0  0
 47136  1  0  0  0
 47137  1  0  0  0
 47138  1  0  0  0
 48 49  1  0  0  0
 48139  1  0  0  0
 49 50  1  0  0  0
 49 52  1  0  0  0
 49140  1  0  0  0
 50 51  2  0  0  0
 50 55  1  0  0  0
 52 53  1  0  0  0
 52 54  1  0  0  0
 52141  1  0  0  0
 53142  1  0  0  0
 54143  1  0  0  0
 54144  1  0  0  0
 54145  1  0  0  0
 55 56  1  0  0  0
 55146  1  0  0  0
 56 57  1  0  0  0
 56 59  1  0  0  0
 56147  1  0  0  0
 57 58  2  0  0  0
 57 66  1  0  0  0
 59 60  1  0  0  0
 59148  1  0  0  0
 59149  1  0  0  0
 60 61  2  0  0  0
 60 62  1  0  0  0
 61 63  1  0  0  0
 61150  1  0  0  0
 62 64  2  0  0  0
 62151  1  0  0  0
 63 65  2  0  0  0
 63152  1  0  0  0
 64 65  1  0  0  0
 64153  1  0  0  0
 65154  1  0  0  0
 66 67  1  0  0  0
 66155  1  0  0  0
 67 68  1  0  0  0
 67156  1  0  0  0
 67157  1  0  0  0
 68 69  2  0  0  0
 68 70  1  0  0  0
 70 71  1  0  0  0
 70158  1  0  0  0
 71 72  1  0  0  0
 71 74  1  0  0  0
 71159  1  0  0  0
 72 73  2  0  0  0
 72 84  1  0  0  0
 74 75  1  0  0  0
 74160  1  0  0  0
 74161  1  0  0  0
 75 76  2  0  0  0
 75 77  1  0  0  0
 76 78  1  0  0  0
 76162  1  0  0  0
 77 79  2  0  0  0
 77 80  1  0  0  0
 78 79  1  0  0  0
 79 81  1  0  0  0
 80 82  2  0  0  0
 80163  1  0  0  0
 81 83  2  0  0  0
 81164  1  0  0  0
 82 83  1  0  0  0
 82165  1  0  0  0
 83166  1  0  0  0
 84167  1  0  0  0
M  CHG  2   1   1  47   1
M  END
> <s_m_source_file>
../3rwc_ligand.sdf

> <i_m_source_file_index>
1

> <s_epik_input>
W0hdL049QyhbTkgyXSlcW05IXVtDSDJdW0NIMl1bQ0gyXVtDQEhdKFtOSF1DKD1PKVtDQEBIXShbTkgzK10pW0NAQEhdKFtDSDNdKVtDSDJdW0NIM10pQyg9TylbTkhdW0NAQEhdKFtDSDJdYzFbY0hdW2NIXWMoW09IXSlbY0hdW2NIXTEpQyg9TylOMltDQEBIXShbQ0gyXVtDSDJdW0NIMl0yKUMoPU8pW05IXVtDQEBIXShbQ0gyXVtDSDJdW0NIMl1bQ0gyXVtOSDMrXSlDKD1PKVtOSF1bQ0BASF0oW0NASF0oW09IXSlbQ0gzXSlDKD1PKVtOSF1bQ0BASF0oW0NIMl1jM1tjSF1bY0hdW2NIXVtjSF1bY0hdMylDKD1PKVtOSF1bQ0gyXUMoPU8pW05IXVtDQEhdKEMoPU8pW09IXSlbQ0gyXWM0W2NIXVtuSF1jKGM0NSlbY0hdW2NIXVtjSF1bY0hdNQ==

> <s_epik_cmdline>
J2VwaWtfYXBwJywgJy1pbWFlJywgJ2xpZ2FuZF9wcm8ubWFlJywgJy1vbWFlJywgJ2xpZ2FuZF9wcmVwLm1hZScsICctbXMnLCAnMScsICctcGgnLCAnNycsICctcGh0JywgJzAuNScsICctbnQn

> <s_epik_pKa_notes>
Molecule size exceeds maximum supported for generating protonation states

> <s_epik_Chemistry_Notes>
This compound has an imine and may undergo hydrolysis.

$$$$
