3rwd_ligand
                    3D
 Schrodinger Suite 2020-3.
209215  0  0  1  0            999 V2000
  -12.5610   15.0630    2.5080 N   0  3  0  0  0  0
  -12.0830   14.7720    1.1720 C   0  0  2  0  0  0
  -10.6590   15.2740    1.0740 C   0  0  0  0  0  0
  -10.0050   15.3780    2.0470 O   0  0  0  0  0  0
  -12.9650   15.4650    0.2150 C   0  0  2  0  0  0
  -13.6020   16.6390    0.8940 C   0  0  0  0  0  0
  -14.0810   14.6200   -0.0640 C   0  0  0  0  0  0
  -14.2250   17.4730   -0.0230 C   0  0  0  0  0  0
  -10.1580   15.5440   -0.0970 N   0  0  0  0  0  0
   -8.8200   16.1200   -0.1750 C   0  0  2  0  0  0
   -8.7230   17.4110    0.6310 C   0  0  0  0  0  0
   -9.7380   18.0050    0.9950 O   0  0  0  0  0  0
   -8.4280   16.3870   -1.6290 C   0  0  0  0  0  0
   -8.2610   15.1390   -2.4770 C   0  0  0  0  0  0
   -7.7220   15.4940   -3.8530 C   0  0  0  0  0  0
   -7.5110   14.3130   -4.6840 N   0  0  0  0  0  0
   -6.4020   13.5820   -4.6730 C   0  0  0  0  0  0
   -5.4010   13.9080   -3.8680 N   0  0  0  0  0  0
   -6.2930   12.5240   -5.4650 N   0  0  0  0  0  0
   -7.4970   17.8390    0.9090 N   0  0  0  0  0  0
   -7.2730   19.0800    1.6390 C   0  0  2  0  0  0
   -7.3730   20.2830    0.7100 C   0  0  0  0  0  0
   -6.6230   20.3880   -0.2600 O   0  0  0  0  0  0
   -5.9110   19.0660    2.3360 C   0  0  0  0  0  0
   -5.5770   20.3680    3.0310 C   0  0  0  0  0  0
   -6.0900   20.6570    4.2880 C   0  0  0  0  0  0
   -4.7510   21.3070    2.4280 C   0  0  0  0  0  0
   -5.7900   21.8460    4.9260 C   0  0  0  0  0  0
   -4.4440   22.4980    3.0590 C   0  0  0  0  0  0
   -4.9660   22.7620    4.3070 C   0  0  0  0  0  0
   -4.6640   23.9470    4.9390 O   0  0  0  0  0  0
   -8.3070   21.1950    1.0080 N   0  0  0  0  0  0
   -8.5090   22.4090    0.2120 C   0  0  2  0  0  0
   -7.4260   23.4460    0.4900 C   0  0  0  0  0  0
   -7.3240   23.9380    1.6130 O   0  0  0  0  0  0
   -9.8660   22.9170    0.7010 C   0  0  0  0  0  0
   -9.9540   22.4350    2.1080 C   0  0  0  0  0  0
   -9.2530   21.1040    2.1350 C   0  0  0  0  0  0
   -6.6250   23.7690   -0.5200 N   0  0  0  0  0  0
   -5.5660   24.7580   -0.3560 C   0  0  2  0  0  0
   -6.1350   26.1710   -0.3890 C   0  0  0  0  0  0
   -6.7200   26.5900   -1.3880 O   0  0  0  0  0  0
   -4.5030   24.6070   -1.4460 C   0  0  0  0  0  0
   -3.1990   25.3230   -1.1250 C   0  0  0  0  0  0
   -2.4400   25.7210   -2.3810 C   0  0  0  0  0  0
   -3.1300   26.8710   -3.0960 C   0  0  0  0  0  0
   -2.3290   27.3730   -4.2470 N   0  3  0  0  0  0
   -5.9620   26.9030    0.7070 N   0  0  0  0  0  0
   -6.4160   28.2880    0.7800 C   0  0  2  0  0  0
   -5.2520   29.2640    0.6440 C   0  0  0  0  0  0
   -5.3190   30.2170   -0.1300 O   0  0  0  0  0  0
   -7.1800   28.5710    2.0890 C   0  0  2  0  0  0
   -6.6060   27.8030    3.1530 O   0  0  0  0  0  0
   -8.6460   28.1970    1.9410 C   0  0  0  0  0  0
   -4.1870   29.0230    1.4010 N   0  0  0  0  0  0
   -2.9970   29.8610    1.3260 C   0  0  2  0  0  0
   -1.8280   29.0860    0.7360 C   0  0  0  0  0  0
   -0.9990   29.6440    0.0200 O   0  0  0  0  0  0
   -2.6210   30.3940    2.7080 C   0  0  0  0  0  0
   -1.3560   31.2010    2.7190 C   0  0  0  0  0  0
   -0.1520   30.6240    3.0870 C   0  0  0  0  0  0
   -1.3680   32.5350    2.3500 C   0  0  0  0  0  0
    1.0150   31.3650    3.0950 C   0  0  0  0  0  0
   -0.2060   33.2820    2.3560 C   0  0  0  0  0  0
    0.9880   32.6960    2.7280 C   0  0  0  0  0  0
   -1.7630   27.7960    1.0470 N   0  0  0  0  0  0
   -0.7040   26.9450    0.5370 C   0  0  0  0  0  0
    0.2550   26.4700    1.6130 C   0  0  0  0  0  0
    0.2620   26.9900    2.7280 O   0  0  0  0  0  0
    1.0690   25.4750    1.2770 N   0  0  0  0  0  0
    2.0500   24.9390    2.2140 C   0  0  2  0  0  0
    3.4370   24.8950    1.5770 C   0  0  0  0  0  0
    4.1300   23.8790    1.6320 O   0  0  0  0  0  0
    1.6300   23.5470    2.7010 C   0  0  0  0  0  0
    1.4100   22.5560    1.5940 C   0  0  0  0  0  0
    2.3360   21.7160    1.0430 C   0  0  0  0  0  0
    0.1840   22.3070    0.9010 C   0  0  0  0  0  0
    1.7610   20.9600    0.0510 N   0  0  0  0  0  0
    0.4390   21.3030   -0.0550 C   0  0  0  0  0  0
   -1.1050   22.8340    0.9970 C   0  0  0  0  0  0
   -0.5480   20.8180   -0.9080 C   0  0  0  0  0  0
   -2.0810   22.3530    0.1530 C   0  0  0  0  0  0
   -1.8000   21.3560   -0.7880 C   0  0  0  0  0  0
    3.8340   26.0090    0.9700 N   0  0  0  0  0  0
    5.1370   26.1060    0.3200 C   0  0  2  0  0  0
    6.2780   25.8250    1.2940 C   0  0  0  0  0  0
    6.2680   26.2960    2.4310 O   0  0  0  0  0  0
    5.3210   27.4920   -0.3020 C   0  0  0  0  0  0
    4.2740   27.9300   -1.3280 C   0  0  0  0  0  0
    4.5120   29.3720   -1.7520 C   0  0  0  0  0  0
    4.2790   27.0020   -2.5330 C   0  0  0  0  0  0
    7.2600   25.0530    0.8380 N   0  0  0  0  0  0
    8.4320   24.7480    1.6490 C   0  0  2  0  0  0
    9.3600   25.9530    1.7460 C   0  0  0  0  0  0
   10.1480   26.0740    2.6850 O   0  0  0  0  0  0
    9.1920   23.5490    1.0780 C   0  0  0  0  0  0
    8.4870   22.2400    1.2620 C   0  0  0  0  0  0
    7.2210   22.0500    1.7340 C   0  0  0  0  0  0
    9.0120   20.9360    0.9840 C   0  0  0  0  0  0
    6.9230   20.7090    1.7640 N   0  0  0  0  0  0
    8.0070   20.0040    1.3090 C   0  0  0  0  0  0
   10.2330   20.4670    0.4910 C   0  0  0  0  0  0
    8.1850   18.6300    1.1560 C   0  0  0  0  0  0
   10.4080   19.1030    0.3400 C   0  0  0  0  0  0
    9.3900   18.2010    0.6710 C   0  0  0  0  0  0
    9.3450   26.8330    0.8870 O   0  0  0  0  0  0
  -11.9198   14.5573    3.2450 H   0  0  0  0  0  0
  -13.5952   14.7035    2.6138 H   0  0  0  0  0  0
  -12.5309   16.1491    2.6797 H   0  0  0  0  0  0
  -12.1295   13.6921    0.9678 H   0  0  0  0  0  0
  -12.3854   15.7072   -0.6880 H   0  0  0  0  0  0
  -14.3554   16.2829    1.6121 H   0  0  0  0  0  0
  -12.8322   17.2167    1.4265 H   0  0  0  0  0  0
  -13.7328   13.7084   -0.5717 H   0  0  0  0  0  0
  -14.7911   15.1529   -0.7134 H   0  0  0  0  0  0
  -14.5791   14.3475    0.8781 H   0  0  0  0  0  0
  -14.6816   18.3228    0.5055 H   0  0  0  0  0  0
  -15.0053   16.9118   -0.5580 H   0  0  0  0  0  0
  -13.4821   17.8456   -0.7435 H   0  0  0  0  0  0
  -10.7257   15.3450   -1.0179 H   0  0  0  0  0  0
   -8.1613   15.3581    0.2672 H   0  0  0  0  0  0
   -9.2041   16.9992   -2.1115 H   0  0  0  0  0  0
   -7.4679   16.9230   -1.6574 H   0  0  0  0  0  0
   -7.5560   14.4529   -1.9848 H   0  0  0  0  0  0
   -9.2353   14.6419   -2.5938 H   0  0  0  0  0  0
   -8.4376   16.1512   -4.3687 H   0  0  0  0  0  0
   -6.7582   16.0134   -3.7465 H   0  0  0  0  0  0
   -8.2991   13.9785   -5.3746 H   0  0  0  0  0  0
   -5.4879   14.7849   -3.2097 H   0  0  0  0  0  0
   -7.1218   12.2504   -6.1345 H   0  0  0  0  0  0
   -5.3738   11.9200   -5.4525 H   0  0  0  0  0  0
   -6.6404   17.2347    0.5756 H   0  0  0  0  0  0
   -8.0792   19.1204    2.3862 H   0  0  0  0  0  0
   -5.8970   18.2725    3.0976 H   0  0  0  0  0  0
   -5.1214   18.8761    1.5941 H   0  0  0  0  0  0
   -6.7405   19.9341    4.7804 H   0  0  0  0  0  0
   -4.3377   21.1016    1.4405 H   0  0  0  0  0  0
   -6.2023   22.0582    5.9124 H   0  0  0  0  0  0
   -3.7929   23.2242    2.5724 H   0  0  0  0  0  0
   -5.0791   24.1605    5.9350 H   0  0  0  0  0  0
   -8.4595   22.1813   -0.8630 H   0  0  0  0  0  0
   -9.8903   24.0150    0.6394 H   0  0  0  0  0  0
  -10.6637   22.4967    0.0709 H   0  0  0  0  0  0
   -9.4606   23.1576    2.7746 H   0  0  0  0  0  0
  -11.0109   22.3334    2.3954 H   0  0  0  0  0  0
   -9.9421   20.2629    1.9683 H   0  0  0  0  0  0
   -8.6957   20.9417    3.0694 H   0  0  0  0  0  0
   -6.7715   23.2762   -1.4925 H   0  0  0  0  0  0
   -5.1319   24.5483    0.6327 H   0  0  0  0  0  0
   -4.2683   23.5412   -1.5841 H   0  0  0  0  0  0
   -4.8840   25.0238   -2.3900 H   0  0  0  0  0  0
   -3.4139   26.2365   -0.5511 H   0  0  0  0  0  0
   -2.5533   24.6599   -0.5305 H   0  0  0  0  0  0
   -1.4216   26.0359   -2.1096 H   0  0  0  0  0  0
   -2.3879   24.8617   -3.0657 H   0  0  0  0  0  0
   -4.1051   26.5335   -3.4772 H   0  0  0  0  0  0
   -3.2795   27.7033   -2.3925 H   0  0  0  0  0  0
   -2.8648   28.2017   -4.7329 H   0  0  0  0  0  0
   -2.1781   26.5591   -4.9714 H   0  0  0  0  0  0
   -1.3525   27.7289   -3.8867 H   0  0  0  0  0  0
   -5.4634   26.4413    1.5720 H   0  0  0  0  0  0
   -7.0878   28.3871   -0.0853 H   0  0  0  0  0  0
   -7.0851   29.6275    2.3804 H   0  0  0  0  0  0
   -5.5456   27.9328    3.4149 H   0  0  0  0  0  0
   -9.0934   28.7835    1.1250 H   0  0  0  0  0  0
   -9.1760   28.4122    2.8806 H   0  0  0  0  0  0
   -8.7293   27.1247    1.7103 H   0  0  0  0  0  0
   -4.2162   28.1701    2.0950 H   0  0  0  0  0  0
   -3.2701   30.6919    0.6589 H   0  0  0  0  0  0
   -3.4267   31.0426    3.0825 H   0  0  0  0  0  0
   -2.4777   29.5508    3.3997 H   0  0  0  0  0  0
   -0.1242   29.5728    3.3738 H   0  0  0  0  0  0
   -2.3063   33.0021    2.0509 H   0  0  0  0  0  0
    1.9552   30.8993    3.3906 H   0  0  0  0  0  0
   -0.2314   34.3328    2.0674 H   0  0  0  0  0  0
    1.9067   33.2826    2.7319 H   0  0  0  0  0  0
   -2.5361   27.3761    1.7073 H   0  0  0  0  0  0
   -1.1444   26.0526    0.0684 H   0  0  0  0  0  0
   -0.1161   27.4989   -0.2097 H   0  0  0  0  0  0
    0.9897   25.0549    0.2635 H   0  0  0  0  0  0
    2.0609   25.6405    3.0612 H   0  0  0  0  0  0
    2.4128   23.1358    3.3553 H   0  0  0  0  0  0
    0.6866   23.6238    3.2615 H   0  0  0  0  0  0
    3.3809   21.6547    1.3470 H   0  0  0  0  0  0
   -1.3346   23.6112    1.7259 H   0  0  0  0  0  0
   -0.3322   20.0413   -1.6416 H   0  0  0  0  0  0
   -3.0914   22.7564    0.2191 H   0  0  0  0  0  0
   -2.5972   20.9999   -1.4405 H   0  0  0  0  0  0
    3.1517   26.8718    0.9658 H   0  0  0  0  0  0
    5.1200   25.3260   -0.4554 H   0  0  0  0  0  0
    5.3000   28.2550    0.4900 H   0  0  0  0  0  0
    6.2875   27.5336   -0.8256 H   0  0  0  0  0  0
    3.2789   27.8714   -0.8629 H   0  0  0  0  0  0
    4.5037   30.0214   -0.8642 H   0  0  0  0  0  0
    3.7169   29.6867   -2.4439 H   0  0  0  0  0  0
    5.4874   29.4502   -2.2544 H   0  0  0  0  0  0
    4.1053   25.9680   -2.2002 H   0  0  0  0  0  0
    5.2530   27.0652   -3.0404 H   0  0  0  0  0  0
    3.4824   27.3017   -3.2299 H   0  0  0  0  0  0
    7.1721   24.6413   -0.1783 H   0  0  0  0  0  0
    8.0321   24.5070    2.6450 H   0  0  0  0  0  0
   10.8101   26.9509    2.7379 H   0  0  0  0  0  0
    9.3403   23.6898   -0.0028 H   0  0  0  0  0  0
   10.1700   23.4646    1.5743 H   0  0  0  0  0  0
    6.5441   22.8466    2.0426 H   0  0  0  0  0  0
   11.0313   21.1621    0.2307 H   0  0  0  0  0  0
    7.3946   17.9247    1.4129 H   0  0  0  0  0  0
   11.3553   18.7240   -0.0435 H   0  0  0  0  0  0
    9.5613   17.1326    0.5393 H   0  0  0  0  0  0
  1  2  1  0  0  0
  1107  1  0  0  0
  1108  1  0  0  0
  1109  1  0  0  0
  2  3  1  0  0  0
  2  5  1  0  0  0
  2110  1  0  0  0
  3  4  2  0  0  0
  3  9  1  0  0  0
  5  6  1  0  0  0
  5  7  1  0  0  0
  5111  1  0  0  0
  6  8  1  0  0  0
  6112  1  0  0  0
  6113  1  0  0  0
  7114  1  0  0  0
  7115  1  0  0  0
  7116  1  0  0  0
  8117  1  0  0  0
  8118  1  0  0  0
  8119  1  0  0  0
  9 10  1  0  0  0
  9120  1  0  0  0
 10 11  1  0  0  0
 10 13  1  0  0  0
 10121  1  0  0  0
 11 12  2  0  0  0
 11 20  1  0  0  0
 13 14  1  0  0  0
 13122  1  0  0  0
 13123  1  0  0  0
 14 15  1  0  0  0
 14124  1  0  0  0
 14125  1  0  0  0
 15 16  1  0  0  0
 15126  1  0  0  0
 15127  1  0  0  0
 16 17  1  0  0  0
 16128  1  0  0  0
 17 18  2  0  0  0
 17 19  1  0  0  0
 18129  1  0  0  0
 19130  1  0  0  0
 19131  1  0  0  0
 20 21  1  0  0  0
 20132  1  0  0  0
 21 22  1  0  0  0
 21 24  1  0  0  0
 21133  1  0  0  0
 22 23  2  0  0  0
 22 32  1  0  0  0
 24 25  1  0  0  0
 24134  1  0  0  0
 24135  1  0  0  0
 25 26  2  0  0  0
 25 27  1  0  0  0
 26 28  1  0  0  0
 26136  1  0  0  0
 27 29  2  0  0  0
 27137  1  0  0  0
 28 30  2  0  0  0
 28138  1  0  0  0
 29 30  1  0  0  0
 29139  1  0  0  0
 30 31  1  0  0  0
 31140  1  0  0  0
 32 33  1  0  0  0
 32 38  1  0  0  0
 33 34  1  0  0  0
 33 36  1  0  0  0
 33141  1  0  0  0
 34 35  2  0  0  0
 34 39  1  0  0  0
 36 37  1  0  0  0
 36142  1  0  0  0
 36143  1  0  0  0
 37 38  1  0  0  0
 37144  1  0  0  0
 37145  1  0  0  0
 38146  1  0  0  0
 38147  1  0  0  0
 39 40  1  0  0  0
 39148  1  0  0  0
 40 41  1  0  0  0
 40 43  1  0  0  0
 40149  1  0  0  0
 41 42  2  0  0  0
 41 48  1  0  0  0
 43 44  1  0  0  0
 43150  1  0  0  0
 43151  1  0  0  0
 44 45  1  0  0  0
 44152  1  0  0  0
 44153  1  0  0  0
 45 46  1  0  0  0
 45154  1  0  0  0
 45155  1  0  0  0
 46 47  1  0  0  0
 46156  1  0  0  0
 46157  1  0  0  0
 47158  1  0  0  0
 47159  1  0  0  0
 47160  1  0  0  0
 48 49  1  0  0  0
 48161  1  0  0  0
 49 50  1  0  0  0
 49 52  1  0  0  0
 49162  1  0  0  0
 50 51  2  0  0  0
 50 55  1  0  0  0
 52 53  1  0  0  0
 52 54  1  0  0  0
 52163  1  0  0  0
 53164  1  0  0  0
 54165  1  0  0  0
 54166  1  0  0  0
 54167  1  0  0  0
 55 56  1  0  0  0
 55168  1  0  0  0
 56 57  1  0  0  0
 56 59  1  0  0  0
 56169  1  0  0  0
 57 58  2  0  0  0
 57 66  1  0  0  0
 59 60  1  0  0  0
 59170  1  0  0  0
 59171  1  0  0  0
 60 61  2  0  0  0
 60 62  1  0  0  0
 61 63  1  0  0  0
 61172  1  0  0  0
 62 64  2  0  0  0
 62173  1  0  0  0
 63 65  2  0  0  0
 63174  1  0  0  0
 64 65  1  0  0  0
 64175  1  0  0  0
 65176  1  0  0  0
 66 67  1  0  0  0
 66177  1  0  0  0
 67 68  1  0  0  0
 67178  1  0  0  0
 67179  1  0  0  0
 68 69  2  0  0  0
 68 70  1  0  0  0
 70 71  1  0  0  0
 70180  1  0  0  0
 71 72  1  0  0  0
 71 74  1  0  0  0
 71181  1  0  0  0
 72 73  2  0  0  0
 72 84  1  0  0  0
 74 75  1  0  0  0
 74182  1  0  0  0
 74183  1  0  0  0
 75 76  2  0  0  0
 75 77  1  0  0  0
 76 78  1  0  0  0
 76184  1  0  0  0
 77 79  2  0  0  0
 77 80  1  0  0  0
 78 79  1  0  0  0
 79 81  1  0  0  0
 80 82  2  0  0  0
 80185  1  0  0  0
 81 83  2  0  0  0
 81186  1  0  0  0
 82 83  1  0  0  0
 82187  1  0  0  0
 83188  1  0  0  0
 84 85  1  0  0  0
 84189  1  0  0  0
 85 86  1  0  0  0
 85 88  1  0  0  0
 85190  1  0  0  0
 86 87  2  0  0  0
 86 92  1  0  0  0
 88 89  1  0  0  0
 88191  1  0  0  0
 88192  1  0  0  0
 89 90  1  0  0  0
 89 91  1  0  0  0
 89193  1  0  0  0
 90194  1  0  0  0
 90195  1  0  0  0
 90196  1  0  0  0
 91197  1  0  0  0
 91198  1  0  0  0
 91199  1  0  0  0
 92 93  1  0  0  0
 92200  1  0  0  0
 93 94  1  0  0  0
 93 96  1  0  0  0
 93201  1  0  0  0
 94 95  1  0  0  0
 94106  2  0  0  0
 95202  1  0  0  0
 96 97  1  0  0  0
 96203  1  0  0  0
 96204  1  0  0  0
 97 98  2  0  0  0
 97 99  1  0  0  0
 98100  1  0  0  0
 98205  1  0  0  0
 99101  2  0  0  0
 99102  1  0  0  0
100101  1  0  0  0
101103  1  0  0  0
102104  2  0  0  0
102206  1  0  0  0
103105  2  0  0  0
103207  1  0  0  0
104105  1  0  0  0
104208  1  0  0  0
105209  1  0  0  0
M  CHG  2   1   1  47   1
M  END
> <s_m_source_file>
../3rwd_ligand.sdf

> <i_m_source_file_index>
1

> <s_epik_input>
W0hdL049QyhbTkgyXSlcW05IXVtDSDJdW0NIMl1bQ0gyXVtDQEhdKFtOSF1DKD1PKVtDQEBIXShbTkgzK10pW0NAQEhdKFtDSDNdKVtDSDJdW0NIM10pQyg9TylbTkhdW0NAQEhdKFtDSDJdYzFbY0hdW2NIXWMoW09IXSlbY0hdW2NIXTEpQyg9TylOMltDQEBIXShbQ0gyXVtDSDJdW0NIMl0yKUMoPU8pW05IXVtDQEBIXShbQ0gyXVtDSDJdW0NIMl1bQ0gyXVtOSDMrXSlDKD1PKVtOSF1bQ0BASF0oW0NASF0oW09IXSlbQ0gzXSlDKD1PKVtOSF1bQ0BASF0oW0NIMl1jM1tjSF1bY0hdW2NIXVtjSF1bY0hdMylDKD1PKVtOSF1bQ0gyXUMoPU8pW05IXVtDQEBIXShbQ0gyXWM0W2NIXVtuSF1jKGM0NSlbY0hdW2NIXVtjSF1bY0hdNSlDKD1PKVtOSF1bQ0BASF0oW0NIMl1bQ0hdKFtDSDNdKVtDSDNdKUMoPU8pW05IXVtDQEhdKEMoPU8pW09IXSlbQ0gyXWM2W2NIXVtuSF1jKGM2NylbY0hdW2NIXVtjSF1bY0hdNw==

> <s_epik_cmdline>
J2VwaWtfYXBwJywgJy1pbWFlJywgJ2xpZ2FuZF9wcm8ubWFlJywgJy1vbWFlJywgJ2xpZ2FuZF9wcmVwLm1hZScsICctbXMnLCAnMScsICctcGgnLCAnNycsICctcGh0JywgJzAuNScsICctbnQn

> <s_epik_pKa_notes>
Molecule size exceeds maximum supported for generating protonation states

> <s_epik_Chemistry_Notes>
This compound has an imine and may undergo hydrolysis.

$$$$
