3rwe_ligand
                    3D
 Schrodinger Suite 2020-3.
167172  0  0  1  0            999 V2000
   12.3150   12.6920   18.3810 N   0  3  0  0  0  0
   11.3020   12.3640   19.3770 C   0  0  2  0  0  0
   10.7880   10.9480   19.1390 C   0  0  0  0  0  0
   11.1030   10.3380   18.1230 O   0  0  0  0  0  0
   10.1550   13.3810   19.3350 C   0  0  0  0  0  0
    9.4520   13.5660   20.6540 C   0  0  0  0  0  0
    9.9610   14.4300   21.6120 C   0  0  0  0  0  0
    8.2720   12.8930   20.9290 C   0  0  0  0  0  0
    9.3120   14.6070   22.8250 C   0  0  0  0  0  0
    7.6210   13.0690   22.1400 C   0  0  0  0  0  0
    8.1420   13.9270   23.0870 C   0  0  0  0  0  0
    9.9900   10.4400   20.0740 N   0  0  0  0  0  0
    9.5220    9.0610   20.0440 C   0  0  2  0  0  0
    8.1780    8.9490   19.3620 C   0  0  0  0  0  0
    7.4050    9.9070   19.3150 O   0  0  0  0  0  0
    9.3950    8.5300   21.4680 C   0  0  0  0  0  0
   10.0840    7.2050   21.7210 C   0  0  0  0  0  0
   10.2930    6.9410   23.2050 C   0  0  0  0  0  0
   10.6280    7.8490   23.9680 O   0  0  0  0  0  0
   10.0850    5.6960   23.6220 N   0  0  0  0  0  0
    7.8950    7.7560   18.8600 N   0  0  0  0  0  0
    6.6550    7.5110   18.1510 C   0  0  2  0  0  0
    5.5300    7.1190   19.1050 C   0  0  0  0  0  0
    5.7350    6.3560   20.0500 O   0  0  0  0  0  0
    6.8690    6.4580   17.0610 C   0  0  0  0  0  0
    5.6190    5.7690   16.6320 C   0  0  0  0  0  0
    5.2920    4.4660   16.8560 C   0  0  0  0  0  0
    4.5210    6.3410   15.9070 C   0  0  0  0  0  0
    4.0610    4.1870   16.3170 N   0  0  0  0  0  0
    3.5670    5.3190   15.7300 C   0  0  0  0  0  0
    4.2520    7.6130   15.3940 C   0  0  0  0  0  0
    2.3630    5.5320   15.0590 C   0  0  0  0  0  0
    3.0540    7.8210   14.7270 C   0  0  0  0  0  0
    2.1260    6.7860   14.5660 C   0  0  0  0  0  0
    4.3450    7.6690   18.8490 N   0  0  0  0  0  0
    3.1780    7.3610   19.6670 C   0  0  2  0  0  0
    2.1150    6.6290   18.8640 C   0  0  0  0  0  0
    1.8180    6.9740   17.7170 O   0  0  0  0  0  0
    2.5860    8.6200   20.3120 C   0  0  0  0  0  0
    1.9230    9.5800   19.3330 C   0  0  0  0  0  0
    0.7400   10.7000   20.1170 S   0  0  0  0  0  0
   -0.7220    9.6640   20.1960 C   0  0  0  0  0  0
    1.5560    5.5900   19.4760 N   0  0  0  0  0  0
    0.5200    4.8040   18.8340 C   0  0  0  0  0  0
    0.4610    3.3670   19.3130 C   0  0  0  0  0  0
    1.4140    2.8540   19.9000 O   0  0  0  0  0  0
   -0.6660    2.7140   19.0540 N   0  0  0  0  0  0
   -0.8650    1.3360   19.4780 C   0  0  2  0  0  0
   -0.2400    0.3700   18.4820 C   0  0  0  0  0  0
   -0.5570    0.3980   17.2940 O   0  0  0  0  0  0
   -2.3550    1.0360   19.6390 C   0  0  0  0  0  0
   -3.0270    1.8350   20.7310 C   0  0  0  0  0  0
   -2.8390    1.5120   22.0680 C   0  0  0  0  0  0
   -3.8570    2.9060   20.4270 C   0  0  0  0  0  0
   -3.4530    2.2360   23.0720 C   0  0  0  0  0  0
   -4.4770    3.6360   21.4240 C   0  0  0  0  0  0
   -4.2710    3.2970   22.7440 C   0  0  0  0  0  0
   -4.8870    4.0210   23.7380 O   0  0  0  0  0  0
    0.6510   -0.4830   18.9750 N   0  0  0  0  0  0
    1.3420   -1.4470   18.1310 C   0  0  2  0  0  0
    1.2830   -2.8370   18.7570 C   0  0  0  0  0  0
    2.2650   -3.3150   19.3250 O   0  0  0  0  0  0
    2.7950   -1.0160   17.9210 C   0  0  0  0  0  0
    3.6110   -1.9550   17.0550 C   0  0  0  0  0  0
    5.0620   -1.5320   16.9470 C   0  0  0  0  0  0
    5.3370   -0.3170   17.0380 O   0  0  0  0  0  0
    5.9270   -2.4150   16.7790 O   0  0  0  0  0  0
    0.1240   -3.4780   18.6550 N   0  0  0  0  0  0
   -0.0780   -4.7950   19.2510 C   0  0  2  0  0  0
    0.2170   -5.9190   18.2630 C   0  0  0  0  0  0
   -0.2010   -5.8680   17.1070 O   0  0  0  0  0  0
   -1.5080   -4.9290   19.7800 C   0  0  0  0  0  0
   -1.9390   -3.9240   20.8490 C   0  0  0  0  0  0
   -3.4110   -4.1030   21.1930 C   0  0  0  0  0  0
   -1.0730   -4.0570   22.0920 C   0  0  0  0  0  0
    0.9400   -6.9340   18.7270 N   0  0  0  0  0  0
    1.2390   -8.1000   17.9020 C   0  0  2  0  0  0
    0.0040   -8.9760   17.7270 C   0  0  0  0  0  0
   -0.0930   -9.7540   16.7780 O   0  0  0  0  0  0
    2.3790   -8.9200   18.5110 C   0  0  0  0  0  0
    3.7270   -8.2810   18.3720 C   0  0  0  0  0  0
    3.9960   -7.0270   17.9070 C   0  0  0  0  0  0
    4.9940   -8.8720   18.6930 C   0  0  0  0  0  0
    5.3510   -6.7980   17.9230 N   0  0  0  0  0  0
    5.9840   -7.9120   18.3990 C   0  0  0  0  0  0
    5.3830  -10.1140   19.2000 C   0  0  0  0  0  0
    7.3420   -8.1610   18.5990 C   0  0  0  0  0  0
    6.7310  -10.3570   19.3960 C   0  0  0  0  0  0
    7.6940   -9.3850   19.0960 C   0  0  0  0  0  0
   -0.9260   -8.9270   18.5320 O   0  0  0  0  0  0
   13.1276   11.9521   18.4271 H   0  0  0  0  0  0
   12.7196   13.6942   18.5858 H   0  0  0  0  0  0
   11.8620   12.6772   17.3787 H   0  0  0  0  0  0
   11.7995   12.4185   20.3566 H   0  0  0  0  0  0
   10.5474   14.3640   19.0355 H   0  0  0  0  0  0
    9.3988   13.0510   18.6075 H   0  0  0  0  0  0
   10.8821   14.9765   21.4093 H   0  0  0  0  0  0
    7.8510   12.2175   20.1843 H   0  0  0  0  0  0
    9.7274   15.2841   23.5714 H   0  0  0  0  0  0
    6.6965   12.5291   22.3445 H   0  0  0  0  0  0
    7.6300   14.0665   24.0391 H   0  0  0  0  0  0
    9.6840   11.1069   20.8935 H   0  0  0  0  0  0
   10.2756    8.5080   19.4640 H   0  0  0  0  0  0
    9.8359    9.2533   22.1697 H   0  0  0  0  0  0
    8.3323    8.3840   21.7115 H   0  0  0  0  0  0
    9.4708    6.3888   21.3115 H   0  0  0  0  0  0
   11.0691    7.2046   21.2315 H   0  0  0  0  0  0
    9.7869    4.9180   22.9038 H   0  0  0  0  0  0
   10.2110    5.4438   24.6853 H   0  0  0  0  0  0
    8.6240    6.9426   18.9904 H   0  0  0  0  0  0
    6.3908    8.4746   17.6909 H   0  0  0  0  0  0
    7.2994    6.9362   16.1687 H   0  0  0  0  0  0
    7.5572    5.6832   17.4297 H   0  0  0  0  0  0
    5.9176    3.7483   17.3867 H   0  0  0  0  0  0
    4.9691    8.4248   15.5157 H   0  0  0  0  0  0
    1.6373    4.7287   14.9320 H   0  0  0  0  0  0
    2.8314    8.8078   14.3211 H   0  0  0  0  0  0
    1.1940    6.9832   14.0363 H   0  0  0  0  0  0
    4.2553    8.3667   18.0033 H   0  0  0  0  0  0
    3.5687    6.6925   20.4484 H   0  0  0  0  0  0
    1.8185    8.3303   21.0448 H   0  0  0  0  0  0
    3.3840    9.1818   20.8196 H   0  0  0  0  0  0
    2.6925   10.1986   18.8481 H   0  0  0  0  0  0
    1.3785    9.0062   18.5686 H   0  0  0  0  0  0
   -1.5450   10.2261   20.6616 H   0  0  0  0  0  0
   -0.5045    8.7680   20.7959 H   0  0  0  0  0  0
   -1.0132    9.3626   19.1790 H   0  0  0  0  0  0
    1.8943    5.3306   20.4900 H   0  0  0  0  0  0
   -0.4619    5.2571   19.0355 H   0  0  0  0  0  0
    0.6971    4.7805   17.7486 H   0  0  0  0  0  0
   -1.4602    3.2405   18.5044 H   0  0  0  0  0  0
   -0.3522    1.2498   20.4473 H   0  0  0  0  0  0
   -2.8788    1.2652   18.6993 H   0  0  0  0  0  0
   -2.4905   -0.0277   19.8842 H   0  0  0  0  0  0
   -2.1955    0.6723   22.3304 H   0  0  0  0  0  0
   -4.0226    3.1759   19.3840 H   0  0  0  0  0  0
   -3.2919    1.9703   24.1168 H   0  0  0  0  0  0
   -5.1247    4.4744   21.1678 H   0  0  0  0  0  0
   -4.7259    3.7545   24.7930 H   0  0  0  0  0  0
    0.8611   -0.4467   20.0541 H   0  0  0  0  0  0
    0.8060   -1.4508   17.1704 H   0  0  0  0  0  0
    2.8182   -0.0303   17.4334 H   0  0  0  0  0  0
    3.3039   -0.9556   18.8943 H   0  0  0  0  0  0
    3.5846   -2.9669   17.4856 H   0  0  0  0  0  0
    3.1886   -1.9775   16.0396 H   0  0  0  0  0  0
    6.3822    0.0174   16.9631 H   0  0  0  0  0  0
   -0.6950   -2.9919   18.1047 H   0  0  0  0  0  0
    0.6501   -4.8410   20.0743 H   0  0  0  0  0  0
   -2.2191   -4.8068   18.9497 H   0  0  0  0  0  0
   -1.6400   -5.9229   20.2324 H   0  0  0  0  0  0
   -1.8040   -2.9081   20.4494 H   0  0  0  0  0  0
   -4.0158   -4.0027   20.2797 H   0  0  0  0  0  0
   -3.7138   -3.3346   21.9196 H   0  0  0  0  0  0
   -3.5671   -5.1011   21.6283 H   0  0  0  0  0  0
   -0.0159   -3.9241   21.8183 H   0  0  0  0  0  0
   -1.2150   -5.0548   22.5327 H   0  0  0  0  0  0
   -1.3617   -3.2883   22.8240 H   0  0  0  0  0  0
    1.3154   -6.8800   19.7596 H   0  0  0  0  0  0
    1.5438   -7.6899   16.9279 H   0  0  0  0  0  0
    2.1949   -9.0618   19.5862 H   0  0  0  0  0  0
    2.4307   -9.9007   18.0154 H   0  0  0  0  0  0
    3.2456   -6.3111   17.5717 H   0  0  0  0  0  0
    4.6402  -10.8759   19.4363 H   0  0  0  0  0  0
    8.0947   -7.4074   18.3675 H   0  0  0  0  0  0
    7.0492  -11.3219   19.7908 H   0  0  0  0  0  0
    8.7475   -9.6095   19.2625 H   0  0  0  0  0  0
   -1.8100   -9.5662   18.3907 H   0  0  0  0  0  0
  1  2  1  0  0  0
  1 91  1  0  0  0
  1 92  1  0  0  0
  1 93  1  0  0  0
  2  3  1  0  0  0
  2  5  1  0  0  0
  2 94  1  0  0  0
  3  4  2  0  0  0
  3 12  1  0  0  0
  5  6  1  0  0  0
  5 95  1  0  0  0
  5 96  1  0  0  0
  6  7  2  0  0  0
  6  8  1  0  0  0
  7  9  1  0  0  0
  7 97  1  0  0  0
  8 10  2  0  0  0
  8 98  1  0  0  0
  9 11  2  0  0  0
  9 99  1  0  0  0
 10 11  1  0  0  0
 10100  1  0  0  0
 11101  1  0  0  0
 12 13  1  0  0  0
 12102  1  0  0  0
 13 14  1  0  0  0
 13 16  1  0  0  0
 13103  1  0  0  0
 14 15  2  0  0  0
 14 21  1  0  0  0
 16 17  1  0  0  0
 16104  1  0  0  0
 16105  1  0  0  0
 17 18  1  0  0  0
 17106  1  0  0  0
 17107  1  0  0  0
 18 19  2  0  0  0
 18 20  1  0  0  0
 20108  1  0  0  0
 20109  1  0  0  0
 21 22  1  0  0  0
 21110  1  0  0  0
 22 23  1  0  0  0
 22 25  1  0  0  0
 22111  1  0  0  0
 23 24  2  0  0  0
 23 35  1  0  0  0
 25 26  1  0  0  0
 25112  1  0  0  0
 25113  1  0  0  0
 26 27  2  0  0  0
 26 28  1  0  0  0
 27 29  1  0  0  0
 27114  1  0  0  0
 28 30  2  0  0  0
 28 31  1  0  0  0
 29 30  1  0  0  0
 30 32  1  0  0  0
 31 33  2  0  0  0
 31115  1  0  0  0
 32 34  2  0  0  0
 32116  1  0  0  0
 33 34  1  0  0  0
 33117  1  0  0  0
 34118  1  0  0  0
 35 36  1  0  0  0
 35119  1  0  0  0
 36 37  1  0  0  0
 36 39  1  0  0  0
 36120  1  0  0  0
 37 38  2  0  0  0
 37 43  1  0  0  0
 39 40  1  0  0  0
 39121  1  0  0  0
 39122  1  0  0  0
 40 41  1  0  0  0
 40123  1  0  0  0
 40124  1  0  0  0
 41 42  1  0  0  0
 42125  1  0  0  0
 42126  1  0  0  0
 42127  1  0  0  0
 43 44  1  0  0  0
 43128  1  0  0  0
 44 45  1  0  0  0
 44129  1  0  0  0
 44130  1  0  0  0
 45 46  2  0  0  0
 45 47  1  0  0  0
 47 48  1  0  0  0
 47131  1  0  0  0
 48 49  1  0  0  0
 48 51  1  0  0  0
 48132  1  0  0  0
 49 50  2  0  0  0
 49 59  1  0  0  0
 51 52  1  0  0  0
 51133  1  0  0  0
 51134  1  0  0  0
 52 53  2  0  0  0
 52 54  1  0  0  0
 53 55  1  0  0  0
 53135  1  0  0  0
 54 56  2  0  0  0
 54136  1  0  0  0
 55 57  2  0  0  0
 55137  1  0  0  0
 56 57  1  0  0  0
 56138  1  0  0  0
 57 58  1  0  0  0
 58139  1  0  0  0
 59 60  1  0  0  0
 59140  1  0  0  0
 60 61  1  0  0  0
 60 63  1  0  0  0
 60141  1  0  0  0
 61 62  2  0  0  0
 61 68  1  0  0  0
 63 64  1  0  0  0
 63142  1  0  0  0
 63143  1  0  0  0
 64 65  1  0  0  0
 64144  1  0  0  0
 64145  1  0  0  0
 65 66  1  0  0  0
 65 67  2  0  0  0
 66146  1  0  0  0
 68 69  1  0  0  0
 68147  1  0  0  0
 69 70  1  0  0  0
 69 72  1  0  0  0
 69148  1  0  0  0
 70 71  2  0  0  0
 70 76  1  0  0  0
 72 73  1  0  0  0
 72149  1  0  0  0
 72150  1  0  0  0
 73 74  1  0  0  0
 73 75  1  0  0  0
 73151  1  0  0  0
 74152  1  0  0  0
 74153  1  0  0  0
 74154  1  0  0  0
 75155  1  0  0  0
 75156  1  0  0  0
 75157  1  0  0  0
 76 77  1  0  0  0
 76158  1  0  0  0
 77 78  1  0  0  0
 77 80  1  0  0  0
 77159  1  0  0  0
 78 79  2  0  0  0
 78 90  1  0  0  0
 80 81  1  0  0  0
 80160  1  0  0  0
 80161  1  0  0  0
 81 82  2  0  0  0
 81 83  1  0  0  0
 82 84  1  0  0  0
 82162  1  0  0  0
 83 85  2  0  0  0
 83 86  1  0  0  0
 84 85  1  0  0  0
 85 87  1  0  0  0
 86 88  2  0  0  0
 86163  1  0  0  0
 87 89  2  0  0  0
 87164  1  0  0  0
 88 89  1  0  0  0
 88165  1  0  0  0
 89166  1  0  0  0
 90167  1  0  0  0
M  CHG  1   1   1
M  END
> <s_m_source_file>
../3rwe_ligand.sdf

> <i_m_source_file_index>
1

> <s_epik_input>
W2NIXTFbY0hdW2NIXVtjSF1bY0hdYzFbQ0gyXVtDQEhdKFtOSDMrXSlDKD1PKVtOSF1bQ0BASF0oW0NIMl1bQ0gyXUMoPU8pW05IMl0pQyg9TylbTkhdW0NAQEhdKFtDSDJdYzJbY0hdW25IXWMoYzIzKVtjSF1bY0hdW2NIXVtjSF0zKUMoPU8pW05IXVtDQEBIXShbQ0gyXVtDSDJdU1tDSDNdKUMoPU8pW05IXVtDSDJdQyg9TylbTkhdW0NAQEhdKFtDSDJdYzRbY0hdW2NIXWMoW09IXSlbY0hdW2NIXTQpQyg9TylbTkhdW0NAQEhdKFtDSDJdW0NIMl1DKD1PKVtPSF0pQyg9TylbTkhdW0NAQEhdKFtDSDJdW0NIXShbQ0gzXSlbQ0gzXSlDKD1PKVtOSF1bQ0BIXShDKD1PKVtPSF0pW0NIMl1jNVtjSF1bbkhdYyhjNTYpW2NIXVtjSF1bY0hdW2NIXTY=

> <s_epik_cmdline>
J2VwaWtfYXBwJywgJy1pbWFlJywgJ2xpZ2FuZF9wcm8ubWFlJywgJy1vbWFlJywgJ2xpZ2FuZF9wcmVwLm1hZScsICctbXMnLCAnMScsICctcGgnLCAnNycsICctcGh0JywgJzAuNScsICctbnQn

> <s_epik_pKa_notes>
Molecule size exceeds maximum supported for generating protonation states

$$$$
