3rwf_ligand
                    3D
 Schrodinger Suite 2020-3.
148152  0  0  1  0            999 V2000
  -36.5450    8.2440    0.7790 N   0  3  0  0  0  0
  -36.1520    8.8500   -0.4870 C   0  0  2  0  0  0
  -34.6670    9.1950   -0.4610 C   0  0  0  0  0  0
  -34.0900    9.4050    0.6050 O   0  0  0  0  0  0
  -36.9940   10.0980   -0.7650 C   0  0  0  0  0  0
  -37.0660   10.4900   -2.2340 C   0  0  0  0  0  0
  -38.1600   11.5050   -2.5150 C   0  0  0  0  0  0
  -38.6250   12.1990   -1.6110 O   0  0  0  0  0  0
  -38.5830   11.5880   -3.7720 N   0  0  0  0  0  0
  -34.0480    9.2420   -1.6360 N   0  0  0  0  0  0
  -32.6150    9.5040   -1.7280 C   0  0  2  0  0  0
  -32.2710   10.9170   -1.2750 C   0  0  0  0  0  0
  -33.1560   11.7450   -1.0660 O   0  0  0  0  0  0
  -32.0860    9.2850   -3.1570 C   0  0  2  0  0  0
  -32.8520   10.0700   -4.0780 O   0  0  0  0  0  0
  -32.1860    7.8190   -3.5420 C   0  0  0  0  0  0
  -30.9790   11.1860   -1.1240 N   0  0  0  0  0  0
  -30.5260   12.4920   -0.6680 C   0  0  2  0  0  0
  -30.4390   13.4960   -1.8100 C   0  0  0  0  0  0
  -30.1220   13.1460   -2.9480 O   0  0  0  0  0  0
  -29.1710   12.3840    0.0330 C   0  0  0  0  0  0
  -28.7360   13.6540    0.4900 O   0  0  0  0  0  0
  -30.7230   14.7510   -1.4860 N   0  0  0  0  0  0
  -30.6610   15.8350   -2.4520 C   0  0  2  0  0  0
  -29.2130   16.1770   -2.7840 C   0  0  0  0  0  0
  -28.9210   16.7170   -3.8500 O   0  0  0  0  0  0
  -31.3700   17.0640   -1.8820 C   0  0  0  0  0  0
  -31.2930   18.3050   -2.7500 C   0  0  0  0  0  0
  -31.8160   19.5360   -2.0370 C   0  0  0  0  0  0
  -32.1710   19.4790   -0.8590 O   0  0  0  0  0  0
  -31.8640   20.6570   -2.7470 N   0  0  0  0  0  0
  -28.3080   15.8480   -1.8700 N   0  0  0  0  0  0
  -26.9180   16.2730   -1.9900 C   0  0  2  0  0  0
  -25.9660   15.1480   -2.3880 C   0  0  0  0  0  0
  -25.9520   14.0760   -1.7810 O   0  0  0  0  0  0
  -26.4510   16.9220   -0.6870 C   0  0  0  0  0  0
  -27.4050   17.9580   -0.1800 C   0  0  0  0  0  0
  -28.1750   17.8830    0.9430 C   0  0  0  0  0  0
  -27.7050   19.2190   -0.7900 C   0  0  0  0  0  0
  -28.9300   19.0240    1.0770 N   0  3  0  0  0  0
  -28.6600   19.8590    0.0250 C   0  0  0  0  0  0
  -27.2560   19.8700   -1.9440 C   0  0  0  0  0  0
  -29.1730   21.1200   -0.2780 C   0  0  0  0  0  0
  -27.7670   21.1210   -2.2410 C   0  0  0  0  0  0
  -28.7150   21.7320   -1.4120 C   0  0  0  0  0  0
  -25.1640   15.4140   -3.4130 N   0  0  0  0  0  0
  -24.1900   14.4510   -3.9050 C   0  0  2  0  0  0
  -23.0460   15.2000   -4.5830 C   0  0  0  0  0  0
  -22.9790   15.2760   -5.8100 O   0  0  0  0  0  0
  -24.8550   13.4780   -4.8850 C   0  0  0  0  0  0
  -24.0160   12.2410   -5.1420 C   0  0  0  0  0  0
  -22.7720   12.3530   -5.1700 O   0  5  0  0  0  0
  -24.6010   11.1510   -5.3130 O   0  0  0  0  0  0
  -22.1520   15.7590   -3.7730 N   0  0  0  0  0  0
  -21.0500   16.5710   -4.2820 C   0  0  2  0  0  0
  -20.0650   15.7800   -5.1360 C   0  0  0  0  0  0
  -19.7700   14.6210   -4.8470 O   0  0  0  0  0  0
  -20.3110   17.2590   -3.1320 C   0  0  0  0  0  0
  -21.0520   18.4700   -2.6070 C   0  0  0  0  0  0
  -22.2950   18.5080   -2.7340 O   0  5  0  0  0  0
  -20.3930   19.3860   -2.0720 O   0  0  0  0  0  0
  -19.5480   16.4190   -6.1940 N   0  0  0  0  0  0
  -18.5730   15.8340   -7.1190 C   0  0  2  0  0  0
  -17.2690   15.4740   -6.4170 C   0  0  0  0  0  0
  -16.9530   16.0480   -5.3750 O   0  0  0  0  0  0
  -18.3170   16.9670   -8.1190 C   0  0  0  0  0  0
  -19.5020   17.8600   -8.0060 C   0  0  0  0  0  0
  -19.9150   17.7920   -6.5760 C   0  0  0  0  0  0
  -16.5260   14.5330   -6.9910 N   0  0  0  0  0  0
  -15.2150   14.1630   -6.4740 C   0  0  2  0  0  0
  -14.1710   15.2120   -6.8350 C   0  0  0  0  0  0
  -13.0700   15.2180   -6.2870 O   0  0  0  0  0  0
  -14.7850   12.8030   -7.0220 C   0  0  0  0  0  0
  -15.4670   11.6470   -6.3680 C   0  0  0  0  0  0
  -16.5870   11.6850   -5.5910 C   0  0  0  0  0  0
  -15.0630   10.2760   -6.4230 C   0  0  0  0  0  0
  -16.9100   10.4200   -5.1630 N   0  3  0  0  0  0
  -15.9880    9.5350   -5.6620 C   0  0  0  0  0  0
  -14.0080    9.6000   -7.0450 C   0  0  0  0  0  0
  -15.8920    8.1550   -5.5050 C   0  0  0  0  0  0
  -13.9140    8.2320   -6.8900 C   0  0  0  0  0  0
  -14.8500    7.5230   -6.1260 C   0  0  0  0  0  0
  -14.4040   16.0700   -7.6860 O   0  5  0  0  0  0
  -35.9314    7.3499    0.9636 H   0  0  0  0  0  0
  -37.6062    7.9578    0.7347 H   0  0  0  0  0  0
  -36.3940    8.9670    1.5941 H   0  0  0  0  0  0
  -36.3434    8.0944   -1.2632 H   0  0  0  0  0  0
  -38.0265    9.9265   -0.4266 H   0  0  0  0  0  0
  -36.5683   10.9556   -0.2235 H   0  0  0  0  0  0
  -36.1075   10.9326   -2.5428 H   0  0  0  0  0  0
  -37.2701    9.5966   -2.8424 H   0  0  0  0  0  0
  -38.1366   10.9465   -4.5460 H   0  0  0  0  0  0
  -39.3796   12.2982   -4.0385 H   0  0  0  0  0  0
  -34.6371    9.0788   -2.5505 H   0  0  0  0  0  0
  -32.1754    8.7724   -1.0341 H   0  0  0  0  0  0
  -31.0454    9.6296   -3.2487 H   0  0  0  0  0  0
  -32.9011   11.1627   -3.9611 H   0  0  0  0  0  0
  -31.5984    7.2136   -2.8361 H   0  0  0  0  0  0
  -31.7931    7.6796   -4.5599 H   0  0  0  0  0  0
  -33.2389    7.5022   -3.5087 H   0  0  0  0  0  0
  -30.2459   10.3980   -1.3512 H   0  0  0  0  0  0
  -31.3049   12.8149    0.0384 H   0  0  0  0  0  0
  -29.2577   11.7078    0.8963 H   0  0  0  0  0  0
  -28.4248   11.9864   -0.6706 H   0  0  0  0  0  0
  -27.7754   13.7493    1.0175 H   0  0  0  0  0  0
  -31.0133   14.9576   -0.4453 H   0  0  0  0  0  0
  -31.1695   15.4692   -3.3563 H   0  0  0  0  0  0
  -32.4382   16.8402   -1.7446 H   0  0  0  0  0  0
  -30.9230   17.3283   -0.9123 H   0  0  0  0  0  0
  -30.2459   18.4918   -3.0305 H   0  0  0  0  0  0
  -31.8948   18.1550   -3.6585 H   0  0  0  0  0  0
  -31.5355   20.6576   -3.7968 H   0  0  0  0  0  0
  -32.2322   21.5851   -2.2854 H   0  0  0  0  0  0
  -28.6254   15.2418   -1.0087 H   0  0  0  0  0  0
  -26.9414   16.9991   -2.8160 H   0  0  0  0  0  0
  -26.3485   16.1507    0.0906 H   0  0  0  0  0  0
  -25.4791   17.4110   -0.8487 H   0  0  0  0  0  0
  -28.1257   16.9912    1.5851 H   0  0  0  0  0  0
  -26.5187   19.4013   -2.5958 H   0  0  0  0  0  0
  -29.9111   21.5997    0.3648 H   0  0  0  0  0  0
  -27.4252   21.6400   -3.1365 H   0  0  0  0  0  0
  -29.0969   22.7181   -1.6763 H   0  0  0  0  0  0
  -25.2536   16.3997   -3.8929 H   0  0  0  0  0  0
  -23.8187   13.8967   -3.0304 H   0  0  0  0  0  0
  -25.8222   13.1500   -4.4765 H   0  0  0  0  0  0
  -25.0162   13.9819   -5.8494 H   0  0  0  0  0  0
  -22.2602   15.5951   -2.6907 H   0  0  0  0  0  0
  -21.5501   17.3066   -4.9292 H   0  0  0  0  0  0
  -20.1880   16.5507   -2.2994 H   0  0  0  0  0  0
  -19.3218   17.5922   -3.4790 H   0  0  0  0  0  0
  -18.9737   14.9039   -7.5484 H   0  0  0  0  0  0
  -17.3881   17.4909   -7.8496 H   0  0  0  0  0  0
  -18.2211   16.5478   -9.1314 H   0  0  0  0  0  0
  -19.2190   18.8830   -8.2947 H   0  0  0  0  0  0
  -20.2988   17.4981   -8.6724 H   0  0  0  0  0  0
  -20.9974   17.9335   -6.4402 H   0  0  0  0  0  0
  -19.3694   18.5071   -5.9427 H   0  0  0  0  0  0
  -16.9282   14.0287   -7.8820 H   0  0  0  0  0  0
  -15.3398   14.1178   -5.3820 H   0  0  0  0  0  0
  -15.0139   12.7517   -8.0967 H   0  0  0  0  0  0
  -13.7033   12.6721   -6.8708 H   0  0  0  0  0  0
  -17.0876   12.6445   -5.3943 H   0  0  0  0  0  0
  -13.2744   10.1433   -7.6406 H   0  0  0  0  0  0
  -16.6183    7.6003   -4.9109 H   0  0  0  0  0  0
  -13.0971    7.6936   -7.3705 H   0  0  0  0  0  0
  -14.7455    6.4428   -6.0241 H   0  0  0  0  0  0
  -17.7920   10.2639   -4.5245 H   0  0  0  0  0  0
  -29.6089   19.1367    1.9352 H   0  0  0  0  0  0
  1  2  1  0  0  0
  1 84  1  0  0  0
  1 85  1  0  0  0
  1 86  1  0  0  0
  2  3  1  0  0  0
  2  5  1  0  0  0
  2 87  1  0  0  0
  3  4  2  0  0  0
  3 10  1  0  0  0
  5  6  1  0  0  0
  5 88  1  0  0  0
  5 89  1  0  0  0
  6  7  1  0  0  0
  6 90  1  0  0  0
  6 91  1  0  0  0
  7  8  2  0  0  0
  7  9  1  0  0  0
  9 92  1  0  0  0
  9 93  1  0  0  0
 10 11  1  0  0  0
 10 94  1  0  0  0
 11 12  1  0  0  0
 11 14  1  0  0  0
 11 95  1  0  0  0
 12 13  2  0  0  0
 12 17  1  0  0  0
 14 15  1  0  0  0
 14 16  1  0  0  0
 14 96  1  0  0  0
 15 97  1  0  0  0
 16 98  1  0  0  0
 16 99  1  0  0  0
 16100  1  0  0  0
 17 18  1  0  0  0
 17101  1  0  0  0
 18 19  1  0  0  0
 18 21  1  0  0  0
 18102  1  0  0  0
 19 20  2  0  0  0
 19 23  1  0  0  0
 21 22  1  0  0  0
 21103  1  0  0  0
 21104  1  0  0  0
 22105  1  0  0  0
 23 24  1  0  0  0
 23106  1  0  0  0
 24 25  1  0  0  0
 24 27  1  0  0  0
 24107  1  0  0  0
 25 26  2  0  0  0
 25 32  1  0  0  0
 27 28  1  0  0  0
 27108  1  0  0  0
 27109  1  0  0  0
 28 29  1  0  0  0
 28110  1  0  0  0
 28111  1  0  0  0
 29 30  2  0  0  0
 29 31  1  0  0  0
 31112  1  0  0  0
 31113  1  0  0  0
 32 33  1  0  0  0
 32114  1  0  0  0
 33 34  1  0  0  0
 33 36  1  0  0  0
 33115  1  0  0  0
 34 35  2  0  0  0
 34 46  1  0  0  0
 36 37  1  0  0  0
 36116  1  0  0  0
 36117  1  0  0  0
 37 38  2  0  0  0
 37 39  1  0  0  0
 38 40  1  0  0  0
 38118  1  0  0  0
 39 41  2  0  0  0
 39 42  1  0  0  0
 40 41  1  0  0  0
 40148  1  0  0  0
 41 43  1  0  0  0
 42 44  2  0  0  0
 42119  1  0  0  0
 43 45  2  0  0  0
 43120  1  0  0  0
 44 45  1  0  0  0
 44121  1  0  0  0
 45122  1  0  0  0
 46 47  1  0  0  0
 46123  1  0  0  0
 47 48  1  0  0  0
 47 50  1  0  0  0
 47124  1  0  0  0
 48 49  2  0  0  0
 48 54  1  0  0  0
 50 51  1  0  0  0
 50125  1  0  0  0
 50126  1  0  0  0
 51 52  1  0  0  0
 51 53  2  0  0  0
 54 55  1  0  0  0
 54127  1  0  0  0
 55 56  1  0  0  0
 55 58  1  0  0  0
 55128  1  0  0  0
 56 57  2  0  0  0
 56 62  1  0  0  0
 58 59  1  0  0  0
 58129  1  0  0  0
 58130  1  0  0  0
 59 60  1  0  0  0
 59 61  2  0  0  0
 62 63  1  0  0  0
 62 68  1  0  0  0
 63 64  1  0  0  0
 63 66  1  0  0  0
 63131  1  0  0  0
 64 65  2  0  0  0
 64 69  1  0  0  0
 66 67  1  0  0  0
 66132  1  0  0  0
 66133  1  0  0  0
 67 68  1  0  0  0
 67134  1  0  0  0
 67135  1  0  0  0
 68136  1  0  0  0
 68137  1  0  0  0
 69 70  1  0  0  0
 69138  1  0  0  0
 70 71  1  0  0  0
 70 73  1  0  0  0
 70139  1  0  0  0
 71 72  2  0  0  0
 71 83  1  0  0  0
 73 74  1  0  0  0
 73140  1  0  0  0
 73141  1  0  0  0
 74 75  2  0  0  0
 74 76  1  0  0  0
 75 77  1  0  0  0
 75142  1  0  0  0
 76 78  2  0  0  0
 76 79  1  0  0  0
 77 78  1  0  0  0
 77147  1  0  0  0
 78 80  1  0  0  0
 79 81  2  0  0  0
 79143  1  0  0  0
 80 82  2  0  0  0
 80144  1  0  0  0
 81 82  1  0  0  0
 81145  1  0  0  0
 82146  1  0  0  0
M  CHG  6   1   1  40   1  52  -1  60  -1  77   1  83  -1
M  END
> <s_m_source_file>
../3rwf_ligand.sdf

> <i_m_source_file_index>
1

> <s_epik_input>
Tz1DKFtOSDJdKVtDSDJdW0NIMl1bQ0BIXShbTkgzK10pQyg9TylbTkhdW0NAQEhdKFtDQEhdKFtPSF0pW0NIM10pQyg9TylbTkhdW0NAQEhdKFtDSDJdW09IXSlDKD1PKVtOSF1bQ0BASF0oW0NIMl1bQ0gyXUMoPU8pW05IMl0pQyg9TylbTkhdW0NAQEhdKFtDSDJdYzFbY0hdW25IXWMoYzEyKVtjSF1bY0hdW2NIXVtjSF0yKUMoPU8pW05IXVtDQEBIXShbQ0gyXUMoPU8pW09IXSlDKD1PKVtOSF1bQ0BASF0oW0NIMl1DKD1PKVtPSF0pQyg9TylOM1tDQEBIXShbQ0gyXVtDSDJdW0NIMl0zKUMoPU8pW05IXVtDQEhdKEMoPU8pW09IXSlbQ0gyXWM0W2NIXVtuSF1jKGM0NSlbY0hdW2NIXVtjSF1bY0hdNQ==

> <s_epik_cmdline>
J2VwaWtfYXBwJywgJy1pbWFlJywgJ2xpZ2FuZF9wcm8ubWFlJywgJy1vbWFlJywgJ2xpZ2FuZF9wcmVwLm1hZScsICctbXMnLCAnMScsICctcGgnLCAnNycsICctcGh0JywgJzAuNScsICctbnQn

> <r_epik_Ionization_Penalty>
  0.1774

> <r_epik_Ionization_Penalty_Charging>
  0.1774

> <r_epik_Ionization_Penalty_Neutral>
  0.0000

> <r_epik_State_Penalty>
  0.1644

> <r_epik_Charging_Adjusted_Penalty>
0.341790343515169

> <i_epik_Tot_Q>
0

> <i_epik_Tot_abs_Q>
6

$$$$
