3rwg_ligand
                    3D
 Schrodinger Suite 2020-3.
143146  0  0  1  0            999 V2000
   11.3440   12.2670   18.3920 N   0  3  0  0  0  0
   10.4770   11.7140   19.4250 C   0  0  2  0  0  0
    9.6360   10.5640   18.8820 C   0  0  0  0  0  0
    9.3390   10.5090   17.6880 O   0  0  0  0  0  0
    9.5690   12.8020   20.0020 C   0  0  0  0  0  0
    8.4660   12.2760   20.9060 C   0  0  0  0  0  0
    7.2370   13.5320   21.3070 S   0  0  0  0  0  0
    8.2140   14.6590   22.2980 C   0  0  0  0  0  0
    9.2540    9.6480   19.7660 N   0  0  0  0  0  0
    8.4450    8.4990   19.3770 C   0  0  2  0  0  0
    7.2120    8.9360   18.5920 C   0  0  0  0  0  0
    6.8390   10.1090   18.6050 O   0  0  0  0  0  0
    8.0260    7.6960   20.6100 C   0  0  0  0  0  0
    9.1200    7.5190   21.6160 C   0  0  0  0  0  0
    9.8120    6.3360   21.7620 N   0  0  0  0  0  0
    9.6430    8.3760   22.5250 C   0  0  0  0  0  0
   10.7130    6.4710   22.7190 C   0  0  0  0  0  0
   10.6310    7.6990   23.1980 N   0  0  0  0  0  0
    6.5830    7.9840   17.9100 N   0  0  0  0  0  0
    5.3860    8.2700   17.1130 C   0  0  2  0  0  0
    4.1060    7.9440   17.8770 C   0  0  0  0  0  0
    4.0260    6.9030   18.5280 O   0  0  0  0  0  0
    5.5360    7.3310   15.9150 C   0  0  0  0  0  0
    6.3380    6.1920   16.4350 C   0  0  0  0  0  0
    7.2930    6.7840   17.4320 C   0  0  0  0  0  0
    3.1600    8.8380   17.8900 N   0  0  0  0  0  0
    1.9440    8.5440   18.5970 C   0  0  2  0  0  0
    1.3320    7.2450   18.1140 C   0  0  0  0  0  0
    0.6960    6.5700   18.8660 O   0  0  0  0  0  0
    0.9870    9.6580   18.4840 C   0  0  0  0  0  0
    1.5460    6.9040   16.8460 N   0  0  0  0  0  0
    1.0750    5.6480   16.2670 C   0  0  2  0  0  0
    1.7140    4.4850   16.9080 C   0  0  0  0  0  0
    2.8630    4.5330   17.1870 O   0  0  0  0  0  0
    1.4130    5.5470   14.7790 C   0  0  0  0  0  0
    0.7200    6.5160   13.8860 C   0  0  0  0  0  0
    1.3750    7.8670   13.8580 C   0  0  0  0  0  0
    2.1040    8.2360   14.7700 O   0  0  0  0  0  0
    1.1330    8.6140   12.7950 N   0  0  0  0  0  0
    0.9550    3.4260   17.1120 N   0  0  0  0  0  0
    1.4540    2.0560   17.1730 C   0  0  2  0  0  0
    0.3760    0.9770   17.1690 C   0  0  0  0  0  0
   -0.5310    1.0410   17.9300 O   0  0  0  0  0  0
    2.4540    1.7710   18.2980 C   0  0  2  0  0  0
    3.1330    0.5640   17.9730 O   0  0  0  0  0  0
    1.7590    1.5610   19.5950 C   0  0  0  0  0  0
    0.5130   -0.0020   16.3020 N   0  0  0  0  0  0
   -0.4320   -1.0770   16.2250 C   0  0  2  0  0  0
    0.1100   -2.3510   16.8120 C   0  0  0  0  0  0
    1.3020   -2.5130   16.9310 O   0  0  0  0  0  0
   -0.8520   -1.3180   14.7820 C   0  0  0  0  0  0
   -2.0430   -2.0660   14.7780 O   0  0  0  0  0  0
   -0.7960   -3.2730   17.1070 N   0  0  0  0  0  0
   -0.5050   -4.4520   17.9140 C   0  0  2  0  0  0
   -0.1260   -5.6400   17.0370 C   0  0  0  0  0  0
   -0.2860   -5.6000   15.8170 O   0  0  0  0  0  0
   -1.7050   -4.8090   18.7930 C   0  0  0  0  0  0
   -2.2040   -3.6620   19.6570 C   0  0  0  0  0  0
   -3.3780   -4.0590   20.5310 C   0  0  0  0  0  0
   -4.3400   -3.3060   20.6770 O   0  0  0  0  0  0
   -3.3040   -5.2480   21.1170 N   0  0  0  0  0  0
    0.3770   -6.6970   17.6670 N   0  0  0  0  0  0
    0.7800   -7.8990   16.9460 C   0  0  2  0  0  0
   -0.4070   -8.8280   16.7160 C   0  0  0  0  0  0
   -0.6500   -9.2750   15.5950 O   0  0  0  0  0  0
    1.8850   -8.6350   17.7060 C   0  0  0  0  0  0
    3.2620   -8.1320   17.3980 C   0  0  0  0  0  0
    3.5870   -6.9930   16.7210 C   0  0  0  0  0  0
    4.5030   -8.7530   17.7570 C   0  0  0  0  0  0
    4.9520   -6.8660   16.6350 N   0  3  0  0  0  0
    5.5380   -7.9340   17.2640 C   0  0  0  0  0  0
    4.8390   -9.9220   18.4470 C   0  0  0  0  0  0
    6.8840   -8.2460   17.4390 C   0  0  0  0  0  0
    6.1760  -10.2300   18.6200 C   0  0  0  0  0  0
    7.1820   -9.3950   18.1170 C   0  0  0  0  0  0
   -1.1600   -9.0910   17.6950 O   0  5  0  0  0  0
   11.9884   11.4715   17.9896 H   0  0  0  0  0  0
   11.9694   13.0616   18.8249 H   0  0  0  0  0  0
   10.7285   12.6852   17.5819 H   0  0  0  0  0  0
   11.1601   11.3337   20.1988 H   0  0  0  0  0  0
   10.1705   13.5025   20.5999 H   0  0  0  0  0  0
    9.0813   13.3465   19.1801 H   0  0  0  0  0  0
    7.9474   11.4447   20.4060 H   0  0  0  0  0  0
    8.9042   11.9200   21.8500 H   0  0  0  0  0  0
    7.5845   15.4997   22.6250 H   0  0  0  0  0  0
    9.0535   15.0410   21.6985 H   0  0  0  0  0  0
    8.6041   14.1286   23.1792 H   0  0  0  0  0  0
    9.5636    9.7731   20.8141 H   0  0  0  0  0  0
    9.0968    7.8936   18.7299 H   0  0  0  0  0  0
    7.0317    7.2643   20.7970 H   0  0  0  0  0  0
    9.4212    9.4226   22.7808 H   0  0  0  0  0  0
   11.4060    5.7000   23.0558 H   0  0  0  0  0  0
    5.3398    9.3401   16.8625 H   0  0  0  0  0  0
    4.5407    7.0105   15.5735 H   0  0  0  0  0  0
    6.0518    7.8577   15.0986 H   0  0  0  0  0  0
    5.6691    5.4593   16.9101 H   0  0  0  0  0  0
    6.8758    5.7125   15.6038 H   0  0  0  0  0  0
    8.2481    7.0811   16.9742 H   0  0  0  0  0  0
    7.4867    6.1105   18.2798 H   0  0  0  0  0  0
    3.2769    9.8025   17.3742 H   0  0  0  0  0  0
    2.2307    8.4555   19.6553 H   0  0  0  0  0  0
    1.4594   10.5849   18.8414 H   0  0  0  0  0  0
    0.0978    9.4408   19.0941 H   0  0  0  0  0  0
    0.6891    9.7802   17.4322 H   0  0  0  0  0  0
    2.1065    7.6193   16.2262 H   0  0  0  0  0  0
   -0.0066    5.6540   16.4672 H   0  0  0  0  0  0
    2.4905    5.7156   14.6355 H   0  0  0  0  0  0
    1.1461    4.5459   14.4095 H   0  0  0  0  0  0
    0.7153    6.1276   12.8569 H   0  0  0  0  0  0
   -0.3155    6.6558   14.2299 H   0  0  0  0  0  0
    0.4708    8.2409   11.9998 H   0  0  0  0  0  0
    1.5937    9.6088   12.7054 H   0  0  0  0  0  0
   -0.1190    3.6264   17.2402 H   0  0  0  0  0  0
    1.9799    2.0505   16.2069 H   0  0  0  0  0  0
    3.1851    2.5855   18.4081 H   0  0  0  0  0  0
    3.7185    0.4952   17.0443 H   0  0  0  0  0  0
    1.2222    2.4790   19.8762 H   0  0  0  0  0  0
    2.4984    1.3161   20.3717 H   0  0  0  0  0  0
    1.0421    0.7325   19.4969 H   0  0  0  0  0  0
    1.3798    0.0179   15.6250 H   0  0  0  0  0  0
   -1.2749   -0.7294   16.8404 H   0  0  0  0  0  0
   -1.0157   -0.3522   14.2816 H   0  0  0  0  0  0
   -0.0603   -1.8732   14.2575 H   0  0  0  0  0  0
   -2.5132   -2.3463   13.8239 H   0  0  0  0  0  0
   -1.8095   -3.1148   16.7098 H   0  0  0  0  0  0
    0.3560   -4.1686   18.5373 H   0  0  0  0  0  0
   -2.5449   -5.1241   18.1564 H   0  0  0  0  0  0
   -1.4310   -5.6302   19.4716 H   0  0  0  0  0  0
   -1.3926   -3.3195   20.3161 H   0  0  0  0  0  0
   -2.5281   -2.8315   19.0126 H   0  0  0  0  0  0
   -2.4228   -5.8865   20.9562 H   0  0  0  0  0  0
   -4.1239   -5.5946   21.7633 H   0  0  0  0  0  0
    0.4861   -6.6490   18.7605 H   0  0  0  0  0  0
    1.1559   -7.5402   15.9765 H   0  0  0  0  0  0
    1.7267   -8.5172   18.7882 H   0  0  0  0  0  0
    1.8598   -9.7035   17.4459 H   0  0  0  0  0  0
    2.7928   -6.3353   16.3379 H   0  0  0  0  0  0
    4.0623  -10.5776   18.8407 H   0  0  0  0  0  0
    7.6700   -7.5986   17.0501 H   0  0  0  0  0  0
    6.4517  -11.1377   19.1568 H   0  0  0  0  0  0
    8.2262   -9.6677   18.2697 H   0  0  0  0  0  0
    5.3924   -6.0006   16.1182 H   0  0  0  0  0  0
    9.5676    5.4736   21.1244 H   0  0  0  0  0  0
  1  2  1  0  0  0
  1 77  1  0  0  0
  1 78  1  0  0  0
  1 79  1  0  0  0
  2  3  1  0  0  0
  2  5  1  0  0  0
  2 80  1  0  0  0
  3  4  2  0  0  0
  3  9  1  0  0  0
  5  6  1  0  0  0
  5 81  1  0  0  0
  5 82  1  0  0  0
  6  7  1  0  0  0
  6 83  1  0  0  0
  6 84  1  0  0  0
  7  8  1  0  0  0
  8 85  1  0  0  0
  8 86  1  0  0  0
  8 87  1  0  0  0
  9 10  1  0  0  0
  9 88  1  0  0  0
 10 11  1  0  0  0
 10 13  1  0  0  0
 10 89  1  0  0  0
 11 12  2  0  0  0
 11 19  1  0  0  0
 13 14  2  0  0  0
 13 90  1  0  0  0
 14 15  1  0  0  0
 14 16  1  0  0  0
 15 17  1  0  0  0
 15143  1  0  0  0
 16 18  2  0  0  0
 16 91  1  0  0  0
 17 18  1  0  0  0
 17 92  1  0  0  0
 19 20  1  0  0  0
 19 25  1  0  0  0
 20 21  1  0  0  0
 20 23  1  0  0  0
 20 93  1  0  0  0
 21 22  2  0  0  0
 21 26  1  0  0  0
 23 24  1  0  0  0
 23 94  1  0  0  0
 23 95  1  0  0  0
 24 25  1  0  0  0
 24 96  1  0  0  0
 24 97  1  0  0  0
 25 98  1  0  0  0
 25 99  1  0  0  0
 26 27  1  0  0  0
 26100  1  0  0  0
 27 28  1  0  0  0
 27 30  1  0  0  0
 27101  1  0  0  0
 28 29  2  0  0  0
 28 31  1  0  0  0
 30102  1  0  0  0
 30103  1  0  0  0
 30104  1  0  0  0
 31 32  1  0  0  0
 31105  1  0  0  0
 32 33  1  0  0  0
 32 35  1  0  0  0
 32106  1  0  0  0
 33 34  2  0  0  0
 33 40  1  0  0  0
 35 36  1  0  0  0
 35107  1  0  0  0
 35108  1  0  0  0
 36 37  1  0  0  0
 36109  1  0  0  0
 36110  1  0  0  0
 37 38  2  0  0  0
 37 39  1  0  0  0
 39111  1  0  0  0
 39112  1  0  0  0
 40 41  1  0  0  0
 40113  1  0  0  0
 41 42  1  0  0  0
 41 44  1  0  0  0
 41114  1  0  0  0
 42 43  2  0  0  0
 42 47  1  0  0  0
 44 45  1  0  0  0
 44 46  1  0  0  0
 44115  1  0  0  0
 45116  1  0  0  0
 46117  1  0  0  0
 46118  1  0  0  0
 46119  1  0  0  0
 47 48  1  0  0  0
 47120  1  0  0  0
 48 49  1  0  0  0
 48 51  1  0  0  0
 48121  1  0  0  0
 49 50  2  0  0  0
 49 53  1  0  0  0
 51 52  1  0  0  0
 51122  1  0  0  0
 51123  1  0  0  0
 52124  1  0  0  0
 53 54  1  0  0  0
 53125  1  0  0  0
 54 55  1  0  0  0
 54 57  1  0  0  0
 54126  1  0  0  0
 55 56  2  0  0  0
 55 62  1  0  0  0
 57 58  1  0  0  0
 57127  1  0  0  0
 57128  1  0  0  0
 58 59  1  0  0  0
 58129  1  0  0  0
 58130  1  0  0  0
 59 60  2  0  0  0
 59 61  1  0  0  0
 61131  1  0  0  0
 61132  1  0  0  0
 62 63  1  0  0  0
 62133  1  0  0  0
 63 64  1  0  0  0
 63 66  1  0  0  0
 63134  1  0  0  0
 64 65  2  0  0  0
 64 76  1  0  0  0
 66 67  1  0  0  0
 66135  1  0  0  0
 66136  1  0  0  0
 67 68  2  0  0  0
 67 69  1  0  0  0
 68 70  1  0  0  0
 68137  1  0  0  0
 69 71  2  0  0  0
 69 72  1  0  0  0
 70 71  1  0  0  0
 70142  1  0  0  0
 71 73  1  0  0  0
 72 74  2  0  0  0
 72138  1  0  0  0
 73 75  2  0  0  0
 73139  1  0  0  0
 74 75  1  0  0  0
 74140  1  0  0  0
 75141  1  0  0  0
M  CHG  3   1   1  70   1  76  -1
M  END
> <s_m_source_file>
../3rwg_ligand.sdf

> <i_m_source_file_index>
1

> <s_epik_input>
W0NIM11TW0NIMl1bQ0gyXVtDQEhdKFtOSDMrXSlDKD1PKVtOSF1bQ0BASF0oW0NIMl1DMT1OW0NIMl1OPVtDSF0xKUMoPU8pTjJbQ0BASF0oW0NIMl1bQ0gyXVtDSDJdMilDKD1PKVtOSF1bQ0BASF0oW0NIM10pQyg9TylbTkhdW0NAQEhdKFtDSDJdW0NIMl1DKD1PKVtOSDJdKUMoPU8pW05IXVtDQEBIXShbQ0BIXShbT0hdKVtDSDNdKUMoPU8pW05IXVtDQEBIXShbQ0gyXVtPSF0pQyg9TylbTkhdW0NAQEhdKFtDSDJdW0NIMl1DKD1PKVtOSDJdKUMoPU8pW05IXVtDQEhdKEMoPU8pW09IXSlbQ0gyXWMzW2NIXVtuSF1jKGMzNClbY0hdW2NIXVtjSF1bY0hdNA==

> <s_epik_cmdline>
J2VwaWtfYXBwJywgJy1pbWFlJywgJ2xpZ2FuZF9wcm8ubWFlJywgJy1vbWFlJywgJ2xpZ2FuZF9wcmVwLm1hZScsICctbXMnLCAnMScsICctcGgnLCAnNycsICctcGh0JywgJzAuNScsICctbnQn

> <r_epik_Ionization_Penalty>
  0.2071

> <r_epik_Ionization_Penalty_Charging>
  0.2070

> <r_epik_Ionization_Penalty_Neutral>
  0.0000

> <r_epik_State_Penalty>
  0.1969

> <r_epik_Charging_Adjusted_Penalty>
0.403943614675691

> <i_epik_Tot_Q>
1

> <i_epik_Tot_abs_Q>
3

> <s_epik_Chemistry_Notes>
This compound has an imine and may undergo hydrolysis.

$$$$
