3rwh_ligand
                    3D
 Schrodinger Suite 2020-3.
144146  0  0  1  0            999 V2000
   12.8390   13.2800   -0.7800 N   0  3  0  0  0  0
   12.4770   14.6120   -0.3130 C   0  0  2  0  0  0
   11.0290   14.9400   -0.6650 C   0  0  0  0  0  0
   10.5660   14.6450   -1.7670 O   0  0  0  0  0  0
   13.4170   15.6620   -0.9070 C   0  0  0  0  0  0
   13.1860   17.0700   -0.3860 C   0  0  0  0  0  0
   13.3670   17.1870    1.4040 S   0  0  0  0  0  0
   15.0480   16.6060    1.6150 C   0  0  0  0  0  0
   10.3210   15.5530    0.2780 N   0  0  0  0  0  0
    8.9080   15.8690    0.0990 C   0  0  2  0  0  0
    8.6980   17.1380   -0.7210 C   0  0  0  0  0  0
    9.6220   17.9260   -0.9180 O   0  0  0  0  0  0
    8.2220   16.0130    1.4600 C   0  0  0  0  0  0
    8.2360   14.7500    2.3030 C   0  0  0  0  0  0
    7.7490   15.0280    3.7160 C   0  0  0  0  0  0
    7.6450   13.8080    4.5120 N   0  0  0  0  0  0
    6.5220   13.1170    4.6730 C   0  0  0  0  0  0
    5.4020   13.5280    4.0950 N   0  3  0  0  0  0
    6.5150   12.0170    5.4150 N   0  0  0  0  0  0
    7.4710   17.3240   -1.1960 N   0  0  0  0  0  0
    7.0910   18.5290   -1.9200 C   0  0  2  0  0  0
    6.2560   19.4400   -1.0290 C   0  0  0  0  0  0
    5.3710   18.9760   -0.3110 O   0  0  0  0  0  0
    6.3010   18.1710   -3.1800 C   0  0  0  0  0  0
    5.4630   19.2950   -3.7070 C   0  0  0  0  0  0
    6.0060   20.4550   -4.2160 N   0  0  0  0  0  0
    4.1200   19.4360   -3.8000 C   0  0  0  0  0  0
    5.0340   21.2620   -4.6020 C   0  0  0  0  0  0
    3.8790   20.6670   -4.3610 N   0  0  0  0  0  0
    6.5440   20.7360   -1.0750 N   0  0  0  0  0  0
    5.8000   21.7090   -0.2870 C   0  0  2  0  0  0
    4.3590   21.8060   -0.7760 C   0  0  0  0  0  0
    4.0770   22.4530   -1.7840 O   0  0  0  0  0  0
    6.4520   23.1020   -0.3460 C   0  0  0  0  0  0
    5.6680   24.0900    0.5020 C   0  0  0  0  0  0
    7.9000   23.0270    0.1160 C   0  0  0  0  0  0
    3.4500   21.1550   -0.0570 N   0  0  0  0  0  0
    2.0410   21.1350   -0.4340 C   0  0  2  0  0  0
    1.4010   22.5120   -0.2970 C   0  0  0  0  0  0
    1.8920   23.3650    0.4410 O   0  0  0  0  0  0
    1.2740   20.1180    0.4130 C   0  0  0  0  0  0
    1.6970   18.6560    0.2660 C   0  0  0  0  0  0
    0.9130   17.7780    1.2280 C   0  0  0  0  0  0
    1.5140   18.1860   -1.1690 C   0  0  0  0  0  0
    0.3010   22.7190   -1.0140 N   0  0  0  0  0  0
   -0.4200   23.9850   -0.9600 C   0  0  2  0  0  0
   -1.9170   23.7600   -0.7440 C   0  0  0  0  0  0
   -2.4800   22.7850   -1.2370 O   0  0  0  0  0  0
   -0.1600   24.8040   -2.2270 C   0  0  0  0  0  0
    1.3010   25.1980   -2.4020 C   0  0  0  0  0  0
    1.5310   26.0980   -3.6000 C   0  0  0  0  0  0
    0.5380   26.5800   -4.1850 O   0  5  0  0  0  0
    2.7070   26.3230   -3.9560 O   0  0  0  0  0  0
   -2.5630   24.6690    0.0020 N   0  0  0  0  0  0
   -3.9600   24.5300    0.4390 C   0  0  2  0  0  0
   -4.9640   24.4610   -0.7130 C   0  0  0  0  0  0
   -4.6550   24.8830   -1.8260 O   0  0  0  0  0  0
   -4.1980   25.8060    1.2580 C   0  0  0  0  0  0
   -2.8330   26.2820    1.6450 C   0  0  0  0  0  0
   -1.9530   25.9140    0.4980 C   0  0  0  0  0  0
   -6.1520   23.9270   -0.4350 N   0  0  0  0  0  0
   -7.2460   23.9060   -1.4040 C   0  0  2  0  0  0
   -7.8860   25.2850   -1.5030 C   0  0  0  0  0  0
   -8.7060   25.5410   -2.3830 O   0  0  0  0  0  0
   -8.3320   22.9100   -0.9900 C   0  0  0  0  0  0
   -7.9030   21.4670   -1.0270 C   0  0  0  0  0  0
   -6.8240   21.0520   -1.7920 C   0  0  0  0  0  0
   -8.5990   20.5220   -0.2920 C   0  0  0  0  0  0
   -6.4480   19.7180   -1.8130 C   0  0  0  0  0  0
   -8.2310   19.1940   -0.3080 C   0  0  0  0  0  0
   -7.1540   18.7890   -1.0690 C   0  0  0  0  0  0
   -7.6280   26.1690   -0.6860 O   0  5  0  0  0  0
   12.1531   12.5393   -0.3431 H   0  0  0  0  0  0
   13.8700   13.0513   -0.4724 H   0  0  0  0  0  0
   12.7671   13.2440   -1.8771 H   0  0  0  0  0  0
   12.5900   14.5764    0.7806 H   0  0  0  0  0  0
   14.4583   15.3973   -0.6711 H   0  0  0  0  0  0
   13.2857   15.6961   -1.9986 H   0  0  0  0  0  0
   13.9150   17.7546   -0.8441 H   0  0  0  0  0  0
   12.1668   17.3937   -0.6437 H   0  0  0  0  0  0
   15.3097   16.6208    2.6833 H   0  0  0  0  0  0
   15.7350   17.2619    1.0601 H   0  0  0  0  0  0
   15.1317   15.5786    1.2311 H   0  0  0  0  0  0
   10.8306   15.8230    1.2147 H   0  0  0  0  0  0
    8.5048   15.0134   -0.4626 H   0  0  0  0  0  0
    8.7276   16.7958    2.0445 H   0  0  0  0  0  0
    7.1677   16.2895    1.3118 H   0  0  0  0  0  0
    7.5771   13.9969    1.8461 H   0  0  0  0  0  0
    9.2616   14.3559    2.3561 H   0  0  0  0  0  0
    8.4533   15.7063    4.2198 H   0  0  0  0  0  0
    6.7544   15.4961    3.6756 H   0  0  0  0  0  0
    8.5326   13.4080    5.0240 H   0  0  0  0  0  0
    5.4033   14.4394    3.4790 H   0  0  0  0  0  0
    7.4421   11.6724    5.8964 H   0  0  0  0  0  0
    5.5821   11.4497    5.5487 H   0  0  0  0  0  0
    6.7309   16.5281   -1.0259 H   0  0  0  0  0  0
    8.0358   19.0238   -2.1894 H   0  0  0  0  0  0
    6.3059   17.1997   -3.6963 H   0  0  0  0  0  0
    3.2788   18.7833   -3.5237 H   0  0  0  0  0  0
    5.1627   22.2501   -5.0439 H   0  0  0  0  0  0
    7.3652   21.0686   -1.7269 H   0  0  0  0  0  0
    5.8345   21.3122    0.7384 H   0  0  0  0  0  0
    6.4429   23.4659   -1.3840 H   0  0  0  0  0  0
    4.6261   24.1282    0.1513 H   0  0  0  0  0  0
    6.1211   25.0885    0.4147 H   0  0  0  0  0  0
    5.6894   23.7683    1.5537 H   0  0  0  0  0  0
    8.4479   22.3075   -0.5103 H   0  0  0  0  0  0
    7.9335   22.6995    1.1656 H   0  0  0  0  0  0
    8.3653   24.0197    0.0266 H   0  0  0  0  0  0
    3.7858   20.6215    0.8445 H   0  0  0  0  0  0
    2.0394   20.8392   -1.4935 H   0  0  0  0  0  0
    1.3960   20.3620    1.4786 H   0  0  0  0  0  0
    0.2067   20.1516    0.1490 H   0  0  0  0  0  0
    2.7645   18.5684    0.5164 H   0  0  0  0  0  0
    1.0615   18.1378    2.2568 H   0  0  0  0  0  0
    1.2669   16.7396    1.1480 H   0  0  0  0  0  0
   -0.1567   17.8214    0.9752 H   0  0  0  0  0  0
    2.0900   18.8361   -1.8440 H   0  0  0  0  0  0
    0.4481   18.2319   -1.4367 H   0  0  0  0  0  0
    1.8716   17.1501   -1.2640 H   0  0  0  0  0  0
   -0.0627   21.9060   -1.6596 H   0  0  0  0  0  0
   -0.0124   24.5159   -0.0871 H   0  0  0  0  0  0
   -0.4521   24.2164   -3.1098 H   0  0  0  0  0  0
   -0.7507   25.7313   -2.1919 H   0  0  0  0  0  0
    1.6449   25.7376   -1.5072 H   0  0  0  0  0  0
    1.9107   24.2931   -2.5414 H   0  0  0  0  0  0
   -4.0694   23.5799    0.9825 H   0  0  0  0  0  0
   -4.7244   26.5467    0.6381 H   0  0  0  0  0  0
   -4.8087   25.5664    2.1410 H   0  0  0  0  0  0
   -2.8558   27.3700    1.8051 H   0  0  0  0  0  0
   -2.5195   25.7813    2.5729 H   0  0  0  0  0  0
   -0.9157   25.7166    0.8062 H   0  0  0  0  0  0
   -1.9605   26.6698   -0.3012 H   0  0  0  0  0  0
   -6.2946   23.4915    0.5650 H   0  0  0  0  0  0
   -6.7785   23.6072   -2.3538 H   0  0  0  0  0  0
   -8.6506   23.1225    0.0412 H   0  0  0  0  0  0
   -9.1938   23.0048   -1.6669 H   0  0  0  0  0  0
   -6.2670   21.7803   -2.3815 H   0  0  0  0  0  0
   -9.4527   20.8339    0.3096 H   0  0  0  0  0  0
   -5.5966   19.4009   -2.4153 H   0  0  0  0  0  0
   -8.7897   18.4653    0.2793 H   0  0  0  0  0  0
   -6.8598   17.7396   -1.0842 H   0  0  0  0  0  0
    7.0980   20.5833   -4.2479 H   0  0  0  0  0  0
    4.4713   12.9577    4.2314 H   0  0  0  0  0  0
  1  2  1  0  0  0
  1 73  1  0  0  0
  1 74  1  0  0  0
  1 75  1  0  0  0
  2  3  1  0  0  0
  2  5  1  0  0  0
  2 76  1  0  0  0
  3  4  2  0  0  0
  3  9  1  0  0  0
  5  6  1  0  0  0
  5 77  1  0  0  0
  5 78  1  0  0  0
  6  7  1  0  0  0
  6 79  1  0  0  0
  6 80  1  0  0  0
  7  8  1  0  0  0
  8 81  1  0  0  0
  8 82  1  0  0  0
  8 83  1  0  0  0
  9 10  1  0  0  0
  9 84  1  0  0  0
 10 11  1  0  0  0
 10 13  1  0  0  0
 10 85  1  0  0  0
 11 12  2  0  0  0
 11 20  1  0  0  0
 13 14  1  0  0  0
 13 86  1  0  0  0
 13 87  1  0  0  0
 14 15  1  0  0  0
 14 88  1  0  0  0
 14 89  1  0  0  0
 15 16  1  0  0  0
 15 90  1  0  0  0
 15 91  1  0  0  0
 16 17  1  0  0  0
 16 92  1  0  0  0
 17 18  2  0  0  0
 17 19  1  0  0  0
 18 93  1  0  0  0
 18144  1  0  0  0
 19 94  1  0  0  0
 19 95  1  0  0  0
 20 21  1  0  0  0
 20 96  1  0  0  0
 21 22  1  0  0  0
 21 24  1  0  0  0
 21 97  1  0  0  0
 22 23  2  0  0  0
 22 30  1  0  0  0
 24 25  2  0  0  0
 24 98  1  0  0  0
 25 26  1  0  0  0
 25 27  1  0  0  0
 26 28  1  0  0  0
 26143  1  0  0  0
 27 29  2  0  0  0
 27 99  1  0  0  0
 28 29  1  0  0  0
 28100  1  0  0  0
 30 31  1  0  0  0
 30101  1  0  0  0
 31 32  1  0  0  0
 31 34  1  0  0  0
 31102  1  0  0  0
 32 33  2  0  0  0
 32 37  1  0  0  0
 34 35  1  0  0  0
 34 36  1  0  0  0
 34103  1  0  0  0
 35104  1  0  0  0
 35105  1  0  0  0
 35106  1  0  0  0
 36107  1  0  0  0
 36108  1  0  0  0
 36109  1  0  0  0
 37 38  1  0  0  0
 37110  1  0  0  0
 38 39  1  0  0  0
 38 41  1  0  0  0
 38111  1  0  0  0
 39 40  2  0  0  0
 39 45  1  0  0  0
 41 42  1  0  0  0
 41112  1  0  0  0
 41113  1  0  0  0
 42 43  1  0  0  0
 42 44  1  0  0  0
 42114  1  0  0  0
 43115  1  0  0  0
 43116  1  0  0  0
 43117  1  0  0  0
 44118  1  0  0  0
 44119  1  0  0  0
 44120  1  0  0  0
 45 46  1  0  0  0
 45121  1  0  0  0
 46 47  1  0  0  0
 46 49  1  0  0  0
 46122  1  0  0  0
 47 48  2  0  0  0
 47 54  1  0  0  0
 49 50  1  0  0  0
 49123  1  0  0  0
 49124  1  0  0  0
 50 51  1  0  0  0
 50125  1  0  0  0
 50126  1  0  0  0
 51 52  1  0  0  0
 51 53  2  0  0  0
 54 55  1  0  0  0
 54 60  1  0  0  0
 55 56  1  0  0  0
 55 58  1  0  0  0
 55127  1  0  0  0
 56 57  2  0  0  0
 56 61  1  0  0  0
 58 59  1  0  0  0
 58128  1  0  0  0
 58129  1  0  0  0
 59 60  1  0  0  0
 59130  1  0  0  0
 59131  1  0  0  0
 60132  1  0  0  0
 60133  1  0  0  0
 61 62  1  0  0  0
 61134  1  0  0  0
 62 63  1  0  0  0
 62 65  1  0  0  0
 62135  1  0  0  0
 63 64  2  0  0  0
 63 72  1  0  0  0
 65 66  1  0  0  0
 65136  1  0  0  0
 65137  1  0  0  0
 66 67  2  0  0  0
 66 68  1  0  0  0
 67 69  1  0  0  0
 67138  1  0  0  0
 68 70  2  0  0  0
 68139  1  0  0  0
 69 71  2  0  0  0
 69140  1  0  0  0
 70 71  1  0  0  0
 70141  1  0  0  0
 71142  1  0  0  0
M  CHG  4   1   1  18   1  52  -1  72  -1
M  END
> <s_m_source_file>
../3rwh_ligand.sdf

> <i_m_source_file_index>
1

> <s_epik_input>
W0NIM11TW0NIMl1bQ0gyXVtDQEhdKFtOSDMrXSlDKD1PKVtOSF1bQ0BASF0oW0NIMl1bQ0gyXVtDSDJdW05IXS9DKD1OXFtIXSlbTkgyXSlDKD1PKVtOSF1bQ0BASF0oW0NIMl1DMT1OW0NIMl1OPVtDSF0xKUMoPU8pW05IXVtDQEBIXShbQ0hdKFtDSDNdKVtDSDNdKUMoPU8pW05IXVtDQEBIXShbQ0gyXVtDSF0oW0NIM10pW0NIM10pQyg9TylbTkhdW0NAQEhdKFtDSDJdW0NIMl1DKD1PKVtPSF0pQyg9TylOMltDQEBIXShbQ0gyXVtDSDJdW0NIMl0yKUMoPU8pW05IXVtDQEhdKEMoPU8pW09IXSlbQ0gyXWMzW2NIXVtjSF1bY0hdW2NIXVtjSF0z

> <s_epik_cmdline>
J2VwaWtfYXBwJywgJy1pbWFlJywgJ2xpZ2FuZF9wcm8ubWFlJywgJy1vbWFlJywgJ2xpZ2FuZF9wcmVwLm1hZScsICctbXMnLCAnMScsICctcGgnLCAnNycsICctcGh0JywgJzAuNScsICctbnQn

> <r_epik_Ionization_Penalty>
  0.1658

> <r_epik_Ionization_Penalty_Charging>
  0.1658

> <r_epik_Ionization_Penalty_Neutral>
  0.0000

> <r_epik_State_Penalty>
  0.1535

> <r_epik_Charging_Adjusted_Penalty>
0.319269770472012

> <i_epik_Tot_Q>
0

> <i_epik_Tot_abs_Q>
4

> <s_epik_Chemistry_Notes>
This compound has an imine and may undergo hydrolysis.

$$$$
