3rwi_ligand
                    3D
 Schrodinger Suite 2020-3.
157160  0  0  1  0            999 V2000
  -23.1680   15.1540  -20.6240 N   0  3  0  0  0  0
  -21.9190   14.5000  -20.2780 C   0  0  0  0  0  0
  -21.4200   13.6070  -21.3930 C   0  0  0  0  0  0
  -22.0800   13.4670  -22.4250 O   0  0  0  0  0  0
  -20.2550   13.0020  -21.1880 N   0  0  0  0  0  0
  -19.6660   12.1150  -22.1850 C   0  0  2  0  0  0
  -20.1720   10.6860  -22.0200 C   0  0  0  0  0  0
  -20.1860    9.9080  -22.9740 O   0  0  0  0  0  0
  -18.1390   12.1460  -22.0950 C   0  0  0  0  0  0
  -17.7130   12.5420  -20.8030 O   0  0  0  0  0  0
  -20.5870   10.3480  -20.8040 N   0  0  0  0  0  0
  -21.0920    9.0120  -20.5100 C   0  0  2  0  0  0
  -22.3290    8.6940  -21.3440 C   0  0  0  0  0  0
  -23.2700    9.4860  -21.4040 O   0  0  0  0  0  0
  -21.4130    8.8760  -19.0210 C   0  0  0  0  0  0
  -20.2560    8.4060  -18.1940 C   0  0  0  0  0  0
  -19.8890    7.0800  -18.1130 N   0  0  0  0  0  0
  -19.3840    9.0860  -17.4130 C   0  0  0  0  0  0
  -18.8410    6.9630  -17.3170 C   0  0  0  0  0  0
  -18.5150    8.1660  -16.8790 N   0  0  0  0  0  0
  -22.3200    7.5310  -21.9860 N   0  0  0  0  0  0
  -23.4390    7.1070  -22.8190 C   0  0  2  0  0  0
  -24.7380    7.0650  -22.0210 C   0  0  0  0  0  0
  -24.8330    6.3720  -21.0080 O   0  0  0  0  0  0
  -23.1580    5.7350  -23.4370 C   0  0  0  0  0  0
  -24.2850    5.1240  -24.2720 C   0  0  0  0  0  0
  -24.5730    5.9790  -25.4960 C   0  0  0  0  0  0
  -23.9410    3.6980  -24.6770 C   0  0  0  0  0  0
  -25.7350    7.8120  -22.4830 N   0  0  0  0  0  0
  -27.0300    7.8600  -21.8140 C   0  0  2  0  0  0
  -27.8590    6.6200  -22.1300 C   0  0  0  0  0  0
  -28.5560    6.0910  -21.2640 O   0  0  0  0  0  0
  -27.7950    9.1220  -22.2190 C   0  0  0  0  0  0
  -29.2560    9.1220  -21.8010 C   0  0  0  0  0  0
  -29.4400    9.4050  -20.3230 C   0  0  0  0  0  0
  -28.4240    9.5950  -19.6230 O   0  0  0  0  0  0
  -30.6000    9.4370  -19.8620 O   0  0  0  0  0  0
  -27.7790    6.1620  -23.3740 N   0  0  0  0  0  0
  -28.5200    4.9820  -23.8060 C   0  0  2  0  0  0
  -27.9710    3.7190  -23.1510 C   0  0  0  0  0  0
  -26.7610    3.4920  -23.1330 O   0  0  0  0  0  0
  -28.4760    4.8170  -25.3360 C   0  0  0  0  0  0
  -29.3040    3.6140  -25.7630 C   0  0  0  0  0  0
  -28.9700    6.0830  -26.0200 C   0  0  0  0  0  0
  -28.8690    2.8990  -22.6150 N   0  0  0  0  0  0
  -28.4770    1.6590  -21.9560 C   0  0  2  0  0  0
  -28.7890    0.4470  -22.8280 C   0  0  0  0  0  0
  -29.9320    0.2400  -23.2350 O   0  0  0  0  0  0
  -29.1760    1.5270  -20.6020 C   0  0  0  0  0  0
  -29.2010    2.8100  -19.7890 C   0  0  0  0  0  0
  -27.8450    3.1580  -19.2070 C   0  0  0  0  0  0
  -27.0970    2.2790  -18.7790 O   0  0  0  0  0  0
  -27.5220    4.4460  -19.1870 N   0  0  0  0  0  0
  -27.7650   -0.3520  -23.1100 N   0  0  0  0  0  0
  -27.9270   -1.5410  -23.9260 C   0  0  0  0  0  0
  -28.0400   -2.8020  -23.0920 C   0  0  0  0  0  0
  -27.0370   -3.3400  -22.6230 O   0  0  0  0  0  0
  -29.2680   -3.2750  -22.9070 N   0  0  0  0  0  0
  -29.5150   -4.4760  -22.1220 C   0  0  2  0  0  0
  -29.3740   -5.7270  -22.9780 C   0  0  0  0  0  0
  -29.8760   -5.7870  -24.1030 O   0  0  0  0  0  0
  -30.9030   -4.4410  -21.4810 C   0  0  0  0  0  0
  -31.1200   -3.2860  -20.5300 C   0  0  0  0  0  0
  -30.7500   -3.3800  -19.1960 C   0  0  0  0  0  0
  -31.7070   -2.1060  -20.9660 C   0  0  0  0  0  0
  -30.9520   -2.3260  -18.3240 C   0  0  0  0  0  0
  -31.9120   -1.0480  -20.1030 C   0  0  0  0  0  0
  -31.5330   -1.1620  -18.7840 C   0  0  0  0  0  0
  -31.7400   -0.1070  -17.9270 O   0  0  0  0  0  0
  -28.6950   -6.7300  -22.4340 N   0  0  0  0  0  0
  -28.5170   -7.9930  -23.1320 C   0  0  2  0  0  0
  -29.8230   -8.7720  -23.1940 C   0  0  0  0  0  0
  -30.7060   -8.5880  -22.3560 O   0  0  0  0  0  0
  -27.4430   -8.8280  -22.4400 C   0  0  0  0  0  0
  -26.0710   -8.2790  -22.6250 C   0  0  0  0  0  0
  -25.7270   -7.1210  -23.2730 C   0  0  0  0  0  0
  -24.8490   -8.8610  -22.1680 C   0  0  0  0  0  0
  -24.3660   -6.9520  -23.2440 N   0  0  0  0  0  0
  -23.8020   -8.0070  -22.5720 C   0  0  0  0  0  0
  -24.5340  -10.0260  -21.4620 C   0  0  0  0  0  0
  -22.4640   -8.2800  -22.2880 C   0  0  0  0  0  0
  -23.2070  -10.2960  -21.1810 C   0  0  0  0  0  0
  -22.1860   -9.4270  -21.5970 C   0  0  0  0  0  0
  -30.0180   -9.6030  -24.0790 O   0  0  0  0  0  0
  -23.4924   15.7907  -19.7877 H   0  0  0  0  0  0
  -23.9367   14.3933  -20.8254 H   0  0  0  0  0  0
  -23.0213   15.7735  -21.5211 H   0  0  0  0  0  0
  -21.1503   15.2607  -20.0766 H   0  0  0  0  0  0
  -22.0657   13.8805  -19.3809 H   0  0  0  0  0  0
  -19.7329   13.1844  -20.2371 H   0  0  0  0  0  0
  -20.0007   12.5110  -23.1551 H   0  0  0  0  0  0
  -17.7389   11.1433  -22.3058 H   0  0  0  0  0  0
  -17.7427   12.8610  -22.8310 H   0  0  0  0  0  0
  -16.6391   12.6139  -20.5760 H   0  0  0  0  0  0
  -20.5424   11.1065  -20.0086 H   0  0  0  0  0  0
  -20.2764    8.3289  -20.7896 H   0  0  0  0  0  0
  -21.7240    9.8529  -18.6223 H   0  0  0  0  0  0
  -22.2274    8.1489  -18.8864 H   0  0  0  0  0  0
  -19.2760   10.1525  -17.1661 H   0  0  0  0  0  0
  -18.3322    6.0326  -17.0647 H   0  0  0  0  0  0
  -21.4387    6.8818  -21.8767 H   0  0  0  0  0  0
  -23.5172    7.8739  -23.6037 H   0  0  0  0  0  0
  -22.2890    5.8060  -24.1077 H   0  0  0  0  0  0
  -22.9461    5.0093  -22.6379 H   0  0  0  0  0  0
  -25.1980    5.0931  -23.6592 H   0  0  0  0  0  0
  -24.8186    7.0031  -25.1783 H   0  0  0  0  0  0
  -25.4230    5.5529  -26.0491 H   0  0  0  0  0  0
  -23.6858    5.9995  -26.1459 H   0  0  0  0  0  0
  -23.7371    3.1001  -23.7764 H   0  0  0  0  0  0
  -23.0500    3.7049  -25.3220 H   0  0  0  0  0  0
  -24.7872    3.2583  -25.2252 H   0  0  0  0  0  0
  -25.5645    8.4039  -23.3943 H   0  0  0  0  0  0
  -26.7987    7.8801  -20.7388 H   0  0  0  0  0  0
  -27.3249   10.0009  -21.7536 H   0  0  0  0  0  0
  -27.7712    9.2299  -23.3134 H   0  0  0  0  0  0
  -29.7982    9.8967  -22.3630 H   0  0  0  0  0  0
  -29.6983    8.1376  -22.0138 H   0  0  0  0  0  0
  -30.7616    9.6402  -18.7931 H   0  0  0  0  0  0
  -27.1331    6.6969  -24.0858 H   0  0  0  0  0  0
  -29.5481    5.1731  -23.4646 H   0  0  0  0  0  0
  -27.4375    4.6437  -25.6545 H   0  0  0  0  0  0
  -28.9290    2.7124  -25.2566 H   0  0  0  0  0  0
  -29.2249    3.4825  -26.8522 H   0  0  0  0  0  0
  -30.3567    3.7775  -25.4888 H   0  0  0  0  0  0
  -28.3575    6.9375  -25.6964 H   0  0  0  0  0  0
  -30.0207    6.2609  -25.7473 H   0  0  0  0  0  0
  -28.8890    5.9659  -27.1107 H   0  0  0  0  0  0
  -29.9316    3.1763  -22.6779 H   0  0  0  0  0  0
  -27.3886    1.7397  -21.8187 H   0  0  0  0  0  0
  -30.2214    1.2219  -20.7573 H   0  0  0  0  0  0
  -28.6592    0.7692  -19.9948 H   0  0  0  0  0  0
  -29.5171    3.6451  -20.4315 H   0  0  0  0  0  0
  -29.9090    2.7014  -18.9541 H   0  0  0  0  0  0
  -28.2242    5.1953  -19.5813 H   0  0  0  0  0  0
  -26.5523    4.7635  -18.7761 H   0  0  0  0  0  0
  -26.7750   -0.0921  -22.7072 H   0  0  0  0  0  0
  -28.8420   -1.4495  -24.5297 H   0  0  0  0  0  0
  -27.0580   -1.6502  -24.5915 H   0  0  0  0  0  0
  -30.1095   -2.7345  -23.3649 H   0  0  0  0  0  0
  -28.7372   -4.4643  -21.3442 H   0  0  0  0  0  0
  -31.6679   -4.3586  -22.2672 H   0  0  0  0  0  0
  -31.0652   -5.3652  -20.9070 H   0  0  0  0  0  0
  -30.2929   -4.2992  -18.8296 H   0  0  0  0  0  0
  -32.0116   -2.0131  -22.0085 H   0  0  0  0  0  0
  -30.6540   -2.4141  -17.2792 H   0  0  0  0  0  0
  -32.3713   -0.1276  -20.4637 H   0  0  0  0  0  0
  -31.4406   -0.1887  -16.8717 H   0  0  0  0  0  0
  -28.2625   -6.5894  -21.4324 H   0  0  0  0  0  0
  -28.2024   -7.7237  -24.1511 H   0  0  0  0  0  0
  -31.6452   -9.1578  -22.4125 H   0  0  0  0  0  0
  -27.6459   -8.8637  -21.3595 H   0  0  0  0  0  0
  -27.4524   -9.8492  -22.8488 H   0  0  0  0  0  0
  -26.4318   -6.4349  -23.7426 H   0  0  0  0  0  0
  -25.3198  -10.7089  -21.1390 H   0  0  0  0  0  0
  -21.6696   -7.6044  -22.6050 H   0  0  0  0  0  0
  -22.9496  -11.1988  -20.6272 H   0  0  0  0  0  0
  -21.1496   -9.6716  -21.3643 H   0  0  0  0  0  0
  1  2  1  0  0  0
  1 85  1  0  0  0
  1 86  1  0  0  0
  1 87  1  0  0  0
  2  3  1  0  0  0
  2 88  1  0  0  0
  2 89  1  0  0  0
  3  4  2  0  0  0
  3  5  1  0  0  0
  5  6  1  0  0  0
  5 90  1  0  0  0
  6  7  1  0  0  0
  6  9  1  0  0  0
  6 91  1  0  0  0
  7  8  2  0  0  0
  7 11  1  0  0  0
  9 10  1  0  0  0
  9 92  1  0  0  0
  9 93  1  0  0  0
 10 94  1  0  0  0
 11 12  1  0  0  0
 11 95  1  0  0  0
 12 13  1  0  0  0
 12 15  1  0  0  0
 12 96  1  0  0  0
 13 14  2  0  0  0
 13 21  1  0  0  0
 15 16  1  0  0  0
 15 97  1  0  0  0
 15 98  1  0  0  0
 16 17  2  0  0  0
 16 18  1  0  0  0
 17 19  1  0  0  0
 18 20  2  0  0  0
 18 99  1  0  0  0
 19 20  1  0  0  0
 19100  1  0  0  0
 21 22  1  0  0  0
 21101  1  0  0  0
 22 23  1  0  0  0
 22 25  1  0  0  0
 22102  1  0  0  0
 23 24  2  0  0  0
 23 29  1  0  0  0
 25 26  1  0  0  0
 25103  1  0  0  0
 25104  1  0  0  0
 26 27  1  0  0  0
 26 28  1  0  0  0
 26105  1  0  0  0
 27106  1  0  0  0
 27107  1  0  0  0
 27108  1  0  0  0
 28109  1  0  0  0
 28110  1  0  0  0
 28111  1  0  0  0
 29 30  1  0  0  0
 29112  1  0  0  0
 30 31  1  0  0  0
 30 33  1  0  0  0
 30113  1  0  0  0
 31 32  2  0  0  0
 31 38  1  0  0  0
 33 34  1  0  0  0
 33114  1  0  0  0
 33115  1  0  0  0
 34 35  1  0  0  0
 34116  1  0  0  0
 34117  1  0  0  0
 35 36  2  0  0  0
 35 37  1  0  0  0
 37118  1  0  0  0
 38 39  1  0  0  0
 38119  1  0  0  0
 39 40  1  0  0  0
 39 42  1  0  0  0
 39120  1  0  0  0
 40 41  2  0  0  0
 40 45  1  0  0  0
 42 43  1  0  0  0
 42 44  1  0  0  0
 42121  1  0  0  0
 43122  1  0  0  0
 43123  1  0  0  0
 43124  1  0  0  0
 44125  1  0  0  0
 44126  1  0  0  0
 44127  1  0  0  0
 45 46  1  0  0  0
 45128  1  0  0  0
 46 47  1  0  0  0
 46 49  1  0  0  0
 46129  1  0  0  0
 47 48  2  0  0  0
 47 54  1  0  0  0
 49 50  1  0  0  0
 49130  1  0  0  0
 49131  1  0  0  0
 50 51  1  0  0  0
 50132  1  0  0  0
 50133  1  0  0  0
 51 52  2  0  0  0
 51 53  1  0  0  0
 53134  1  0  0  0
 53135  1  0  0  0
 54 55  1  0  0  0
 54136  1  0  0  0
 55 56  1  0  0  0
 55137  1  0  0  0
 55138  1  0  0  0
 56 57  2  0  0  0
 56 58  1  0  0  0
 58 59  1  0  0  0
 58139  1  0  0  0
 59 60  1  0  0  0
 59 62  1  0  0  0
 59140  1  0  0  0
 60 61  2  0  0  0
 60 70  1  0  0  0
 62 63  1  0  0  0
 62141  1  0  0  0
 62142  1  0  0  0
 63 64  2  0  0  0
 63 65  1  0  0  0
 64 66  1  0  0  0
 64143  1  0  0  0
 65 67  2  0  0  0
 65144  1  0  0  0
 66 68  2  0  0  0
 66145  1  0  0  0
 67 68  1  0  0  0
 67146  1  0  0  0
 68 69  1  0  0  0
 69147  1  0  0  0
 70 71  1  0  0  0
 70148  1  0  0  0
 71 72  1  0  0  0
 71 74  1  0  0  0
 71149  1  0  0  0
 72 73  1  0  0  0
 72 84  2  0  0  0
 73150  1  0  0  0
 74 75  1  0  0  0
 74151  1  0  0  0
 74152  1  0  0  0
 75 76  2  0  0  0
 75 77  1  0  0  0
 76 78  1  0  0  0
 76153  1  0  0  0
 77 79  2  0  0  0
 77 80  1  0  0  0
 78 79  1  0  0  0
 79 81  1  0  0  0
 80 82  2  0  0  0
 80154  1  0  0  0
 81 83  2  0  0  0
 81155  1  0  0  0
 82 83  1  0  0  0
 82156  1  0  0  0
 83157  1  0  0  0
M  CHG  1   1   1
M  END
> <s_m_source_file>
../3rwi_ligand.sdf

> <i_m_source_file_index>
1

> <s_epik_input>
W05IMytdW0NIMl1DKD1PKVtOSF1bQ0BASF0oW0NIMl1bT0hdKUMoPU8pW05IXVtDQEBIXShbQ0gyXUMxPU5bQ0gyXU49W0NIXTEpQyg9TylbTkhdW0NAQEhdKFtDSDJdW0NIXShbQ0gzXSlbQ0gzXSlDKD1PKVtOSF1bQ0BASF0oW0NIMl1bQ0gyXUMoPU8pW09IXSlDKD1PKVtOSF1bQ0BASF0oW0NIXShbQ0gzXSlbQ0gzXSlDKD1PKVtOSF1bQ0BASF0oW0NIMl1bQ0gyXUMoPU8pW05IMl0pQyg9TylbTkhdW0NIMl1DKD1PKVtOSF1bQ0BASF0oW0NIMl1jMltjSF1bY0hdYyhbT0hdKVtjSF1bY0hdMilDKD1PKVtOSF1bQ0BIXShDKD1PKVtPSF0pW0NIMl1jM1tjSF1bbkhdYyhjMzQpW2NIXVtjSF1bY0hdW2NIXTQ=

> <s_epik_cmdline>
J2VwaWtfYXBwJywgJy1pbWFlJywgJ2xpZ2FuZF9wcm8ubWFlJywgJy1vbWFlJywgJ2xpZ2FuZF9wcmVwLm1hZScsICctbXMnLCAnMScsICctcGgnLCAnNycsICctcGh0JywgJzAuNScsICctbnQn

> <s_epik_pKa_notes>
Molecule size exceeds maximum supported for generating protonation states

> <s_epik_Chemistry_Notes>
This compound has an imine and may undergo hydrolysis.

$$$$
