3rwj_ligand
                    3D
 Schrodinger Suite 2020-3.
137140  0  0  1  0            999 V2000
   -9.0960    9.6240  -19.2480 N   0  0  0  0  0  0
   -8.3700    8.4130  -19.6120 C   0  0  2  0  0  0
   -7.0990    8.2260  -18.7900 C   0  0  0  0  0  0
   -6.2420    9.1090  -18.7400 O   0  0  0  0  0  0
   -8.0240    8.4170  -21.1030 C   0  0  0  0  0  0
   -9.1280    7.9160  -21.9820 C   0  0  0  0  0  0
   -9.4570    6.5820  -22.0730 N   0  0  0  0  0  0
   -9.9740    8.5700  -22.8140 C   0  0  0  0  0  0
  -10.4600    6.4340  -22.9200 C   0  0  0  0  0  0
  -10.7920    7.6250  -23.3830 N   0  0  0  0  0  0
   -6.9860    7.0670  -18.1490 N   0  0  0  0  0  0
   -5.7850    6.7100  -17.4070 C   0  0  2  0  0  0
   -4.5780    6.7020  -18.3370 C   0  0  0  0  0  0
   -4.6430    6.1680  -19.4440 O   0  0  0  0  0  0
   -5.9510    5.3370  -16.7550 C   0  0  0  0  0  0
   -4.7250    4.7710  -16.0350 C   0  0  0  0  0  0
   -4.2520    5.7280  -14.9530 C   0  0  0  0  0  0
   -5.0310    3.4000  -15.4500 C   0  0  0  0  0  0
   -3.4790    7.2940  -17.8830 N   0  0  0  0  0  0
   -2.2730    7.3880  -18.6950 C   0  0  2  0  0  0
   -1.2780    6.2880  -18.3360 C   0  0  0  0  0  0
   -0.4430    5.9020  -19.1540 O   0  0  0  0  0  0
   -1.6290    8.7670  -18.5340 C   0  0  0  0  0  0
   -0.5620    9.0850  -19.5670 C   0  0  0  0  0  0
   -0.1120   10.5320  -19.5080 C   0  0  0  0  0  0
   -0.4680   11.2260  -18.5330 O   0  0  0  0  0  0
    0.5930   10.9760  -20.4380 O   0  5  0  0  0  0
   -1.3730    5.7860  -17.1090 N   0  0  0  0  0  0
   -0.5080    4.7010  -16.6600 C   0  0  2  0  0  0
   -1.0040    3.3690  -17.2120 C   0  0  0  0  0  0
   -2.1980    3.0770  -17.1680 O   0  0  0  0  0  0
   -0.4490    4.6260  -15.1240 C   0  0  0  0  0  0
    0.5630    3.5800  -14.6850 C   0  0  0  0  0  0
   -0.0980    5.9860  -14.5410 C   0  0  0  0  0  0
   -0.0820    2.5640  -17.7310 N   0  0  0  0  0  0
   -0.4430    1.2990  -18.3610 C   0  0  2  0  0  0
   -0.1680    0.1030  -17.4560 C   0  0  0  0  0  0
    0.9760   -0.1540  -17.0800 O   0  0  0  0  0  0
    0.3000    1.1360  -19.6890 C   0  0  0  0  0  0
    0.1210    2.3050  -20.6420 C   0  0  0  0  0  0
   -1.3340    2.5650  -20.9800 C   0  0  0  0  0  0
   -2.1620    1.6540  -20.9580 O   0  0  0  0  0  0
   -1.6540    3.8160  -21.2910 N   0  0  0  0  0  0
   -1.2240   -0.6260  -17.1120 N   0  0  0  0  0  0
   -1.1000   -1.8080  -16.2790 C   0  0  0  0  0  0
   -1.0450   -3.0800  -17.1010 C   0  0  0  0  0  0
   -2.0680   -3.5580  -17.5910 O   0  0  0  0  0  0
    0.1560   -3.6280  -17.2530 N   0  0  0  0  0  0
    0.3540   -4.8400  -18.0410 C   0  0  2  0  0  0
    0.1690   -6.0960  -17.1970 C   0  0  0  0  0  0
    0.7450   -6.2180  -16.1160 O   0  0  0  0  0  0
    1.7470   -4.8440  -18.6740 C   0  0  0  0  0  0
    2.0000   -3.6860  -19.6120 C   0  0  0  0  0  0
    1.7090   -3.7880  -20.9650 C   0  0  0  0  0  0
    2.5320   -2.4920  -19.1440 C   0  0  0  0  0  0
    1.9380   -2.7330  -21.8270 C   0  0  0  0  0  0
    2.7650   -1.4310  -19.9980 C   0  0  0  0  0  0
    2.4660   -1.5570  -21.3380 C   0  0  0  0  0  0
    2.6970   -0.5030  -22.1920 O   0  0  0  0  0  0
   -0.6370   -7.0280  -17.6960 N   0  0  0  0  0  0
   -0.8490   -8.2970  -17.0120 C   0  0  2  0  0  0
    0.4560   -9.0790  -16.9090 C   0  0  0  0  0  0
    1.3380   -8.9470  -17.7570 O   0  5  0  0  0  0
   -1.9060   -9.1360  -17.7350 C   0  0  0  0  0  0
   -3.3030   -8.6090  -17.5960 C   0  0  0  0  0  0
   -3.6840   -7.4350  -17.0150 C   0  0  0  0  0  0
   -4.5080   -9.2450  -18.0410 C   0  0  0  0  0  0
   -5.0500   -7.2980  -17.0740 N   0  3  0  0  0  0
   -5.5790   -8.3960  -17.6990 C   0  0  0  0  0  0
   -4.7840  -10.4480  -18.6980 C   0  0  0  0  0  0
   -6.9050   -8.7120  -17.9910 C   0  0  0  0  0  0
   -6.1010  -10.7600  -18.9870 C   0  0  0  0  0  0
   -7.1450   -9.8960  -18.6330 C   0  0  0  0  0  0
    0.6580   -9.8590  -15.9790 O   0  0  0  0  0  0
   -8.4684   10.5036  -19.4540 H   0  0  0  0  0  0
  -10.0220    9.6878  -19.8383 H   0  0  0  0  0  0
   -9.0730    7.6019  -19.3714 H   0  0  0  0  0  0
   -7.0727    8.7446  -21.5476 H   0  0  0  0  0  0
  -10.0941    9.6314  -23.0767 H   0  0  0  0  0  0
  -10.9327    5.4898  -23.1904 H   0  0  0  0  0  0
   -7.8347    6.3685  -18.1908 H   0  0  0  0  0  0
   -5.6640    7.4846  -16.6354 H   0  0  0  0  0  0
   -6.7486    5.3842  -15.9990 H   0  0  0  0  0  0
   -6.2173    4.5961  -17.5232 H   0  0  0  0  0  0
   -3.9097    4.6540  -16.7641 H   0  0  0  0  0  0
   -4.0377    6.7099  -15.4001 H   0  0  0  0  0  0
   -3.3389    5.3307  -14.4857 H   0  0  0  0  0  0
   -5.0371    5.8359  -14.1902 H   0  0  0  0  0  0
   -5.3706    2.7270  -16.2511 H   0  0  0  0  0  0
   -5.8209    3.4936  -14.6902 H   0  0  0  0  0  0
   -4.1226    2.9884  -14.9858 H   0  0  0  0  0  0
   -3.4935    7.7190  -16.8685 H   0  0  0  0  0  0
   -2.6101    7.2440  -19.7321 H   0  0  0  0  0  0
   -2.4018    9.5450  -18.6208 H   0  0  0  0  0  0
   -1.1498    8.8348  -17.5462 H   0  0  0  0  0  0
    0.3181    8.4486  -19.3929 H   0  0  0  0  0  0
   -0.9589    8.8940  -20.5749 H   0  0  0  0  0  0
   -2.1256    6.2077  -16.4265 H   0  0  0  0  0  0
    0.4838    4.9463  -17.0676 H   0  0  0  0  0  0
   -1.4351    4.3318  -14.7353 H   0  0  0  0  0  0
    0.2927    2.6047  -15.1160 H   0  0  0  0  0  0
    0.5636    3.5084  -13.5873 H   0  0  0  0  0  0
    1.5650    3.8701  -15.0341 H   0  0  0  0  0  0
   -0.8404    6.7283  -14.8693 H   0  0  0  0  0  0
    0.9009    6.2875  -14.8894 H   0  0  0  0  0  0
   -0.1006    5.9258  -13.4427 H   0  0  0  0  0  0
    0.9731    2.8705  -17.6776 H   0  0  0  0  0  0
   -1.5283    1.3730  -18.5239 H   0  0  0  0  0  0
    1.3783    1.0356  -19.4959 H   0  0  0  0  0  0
   -0.0653    0.2361  -20.2055 H   0  0  0  0  0  0
    0.5292    3.2177  -20.1834 H   0  0  0  0  0  0
    0.6537    2.0970  -21.5816 H   0  0  0  0  0  0
   -0.8790    4.5966  -21.2972 H   0  0  0  0  0  0
   -2.6940    4.0714  -21.5423 H   0  0  0  0  0  0
   -2.2129   -0.3116  -17.4769 H   0  0  0  0  0  0
   -0.1762   -1.7430  -15.6854 H   0  0  0  0  0  0
   -1.9659   -1.8732  -15.6037 H   0  0  0  0  0  0
    1.0143   -3.1428  -16.7652 H   0  0  0  0  0  0
   -0.4276   -4.8029  -18.8141 H   0  0  0  0  0  0
    2.5094   -4.7930  -17.8827 H   0  0  0  0  0  0
    1.8830   -5.7679  -19.2552 H   0  0  0  0  0  0
    1.2924   -4.7169  -21.3545 H   0  0  0  0  0  0
    2.7698   -2.3899  -18.0852 H   0  0  0  0  0  0
    1.7028   -2.8297  -22.8869 H   0  0  0  0  0  0
    3.1827   -0.5001  -19.6146 H   0  0  0  0  0  0
    2.4597   -0.5997  -23.2617 H   0  0  0  0  0  0
   -1.1495   -6.8238  -18.6477 H   0  0  0  0  0  0
   -1.2036   -8.0256  -16.0067 H   0  0  0  0  0  0
   -1.6765   -9.1675  -18.8103 H   0  0  0  0  0  0
   -1.9030  -10.1585  -17.3294 H   0  0  0  0  0  0
   -2.9264   -6.7614  -16.5880 H   0  0  0  0  0  0
   -3.9779  -11.1266  -18.9770 H   0  0  0  0  0  0
   -7.7197   -8.0412  -17.7182 H   0  0  0  0  0  0
   -6.3298  -11.6946  -19.4991 H   0  0  0  0  0  0
   -8.1712  -10.1730  -18.8743 H   0  0  0  0  0  0
   -5.5318   -6.4036  -16.6522 H   0  0  0  0  0  0
   -8.9018    5.8372  -21.4840 H   0  0  0  0  0  0
  1  2  1  0  0  0
  1 75  1  0  0  0
  1 76  1  0  0  0
  2  3  1  0  0  0
  2  5  1  0  0  0
  2 77  1  0  0  0
  3  4  2  0  0  0
  3 11  1  0  0  0
  5  6  2  0  0  0
  5 78  1  0  0  0
  6  7  1  0  0  0
  6  8  1  0  0  0
  7  9  1  0  0  0
  7137  1  0  0  0
  8 10  2  0  0  0
  8 79  1  0  0  0
  9 10  1  0  0  0
  9 80  1  0  0  0
 11 12  1  0  0  0
 11 81  1  0  0  0
 12 13  1  0  0  0
 12 15  1  0  0  0
 12 82  1  0  0  0
 13 14  2  0  0  0
 13 19  1  0  0  0
 15 16  1  0  0  0
 15 83  1  0  0  0
 15 84  1  0  0  0
 16 17  1  0  0  0
 16 18  1  0  0  0
 16 85  1  0  0  0
 17 86  1  0  0  0
 17 87  1  0  0  0
 17 88  1  0  0  0
 18 89  1  0  0  0
 18 90  1  0  0  0
 18 91  1  0  0  0
 19 20  1  0  0  0
 19 92  1  0  0  0
 20 21  1  0  0  0
 20 23  1  0  0  0
 20 93  1  0  0  0
 21 22  2  0  0  0
 21 28  1  0  0  0
 23 24  1  0  0  0
 23 94  1  0  0  0
 23 95  1  0  0  0
 24 25  1  0  0  0
 24 96  1  0  0  0
 24 97  1  0  0  0
 25 26  2  0  0  0
 25 27  1  0  0  0
 28 29  1  0  0  0
 28 98  1  0  0  0
 29 30  1  0  0  0
 29 32  1  0  0  0
 29 99  1  0  0  0
 30 31  2  0  0  0
 30 35  1  0  0  0
 32 33  1  0  0  0
 32 34  1  0  0  0
 32100  1  0  0  0
 33101  1  0  0  0
 33102  1  0  0  0
 33103  1  0  0  0
 34104  1  0  0  0
 34105  1  0  0  0
 34106  1  0  0  0
 35 36  1  0  0  0
 35107  1  0  0  0
 36 37  1  0  0  0
 36 39  1  0  0  0
 36108  1  0  0  0
 37 38  2  0  0  0
 37 44  1  0  0  0
 39 40  1  0  0  0
 39109  1  0  0  0
 39110  1  0  0  0
 40 41  1  0  0  0
 40111  1  0  0  0
 40112  1  0  0  0
 41 42  2  0  0  0
 41 43  1  0  0  0
 43113  1  0  0  0
 43114  1  0  0  0
 44 45  1  0  0  0
 44115  1  0  0  0
 45 46  1  0  0  0
 45116  1  0  0  0
 45117  1  0  0  0
 46 47  2  0  0  0
 46 48  1  0  0  0
 48 49  1  0  0  0
 48118  1  0  0  0
 49 50  1  0  0  0
 49 52  1  0  0  0
 49119  1  0  0  0
 50 51  2  0  0  0
 50 60  1  0  0  0
 52 53  1  0  0  0
 52120  1  0  0  0
 52121  1  0  0  0
 53 54  2  0  0  0
 53 55  1  0  0  0
 54 56  1  0  0  0
 54122  1  0  0  0
 55 57  2  0  0  0
 55123  1  0  0  0
 56 58  2  0  0  0
 56124  1  0  0  0
 57 58  1  0  0  0
 57125  1  0  0  0
 58 59  1  0  0  0
 59126  1  0  0  0
 60 61  1  0  0  0
 60127  1  0  0  0
 61 62  1  0  0  0
 61 64  1  0  0  0
 61128  1  0  0  0
 62 63  1  0  0  0
 62 74  2  0  0  0
 64 65  1  0  0  0
 64129  1  0  0  0
 64130  1  0  0  0
 65 66  2  0  0  0
 65 67  1  0  0  0
 66 68  1  0  0  0
 66131  1  0  0  0
 67 69  2  0  0  0
 67 70  1  0  0  0
 68 69  1  0  0  0
 68136  1  0  0  0
 69 71  1  0  0  0
 70 72  2  0  0  0
 70132  1  0  0  0
 71 73  2  0  0  0
 71133  1  0  0  0
 72 73  1  0  0  0
 72134  1  0  0  0
 73135  1  0  0  0
M  CHG  3  27  -1  63  -1  68   1
M  END
> <s_m_source_file>
../3rwj_ligand.sdf

> <i_m_source_file_index>
1

> <s_epik_input>
W0NIXTE9TltDSDJdTj1DMVtDSDJdW0NASF0oW05IMytdKUMoPU8pW05IXVtDQEBIXShbQ0gyXVtDSF0oW0NIM10pW0NIM10pQyg9TylbTkhdW0NAQEhdKFtDSDJdW0NIMl1DKD1PKVtPSF0pQyg9TylbTkhdW0NAQEhdKFtDSF0oW0NIM10pW0NIM10pQyg9TylbTkhdW0NAQEhdKFtDSDJdW0NIMl1DKD1PKVtOSDJdKUMoPU8pW05IXVtDSDJdQyg9TylbTkhdW0NAQEhdKFtDSDJdYzJbY0hdW2NIXWMoW09IXSlbY0hdW2NIXTIpQyg9TylbTkhdW0NASF0oQyg9TylbT0hdKVtDSDJdYzNbY0hdW25IXWMoYzM0KVtjSF1bY0hdW2NIXVtjSF00

> <s_epik_cmdline>
J2VwaWtfYXBwJywgJy1pbWFlJywgJ2xpZ2FuZF9wcm8ubWFlJywgJy1vbWFlJywgJ2xpZ2FuZF9wcmVwLm1hZScsICctbXMnLCAnMScsICctcGgnLCAnNycsICctcGh0JywgJzAuNScsICctbnQn

> <r_epik_Ionization_Penalty>
  0.1080

> <r_epik_Ionization_Penalty_Charging>
  0.0019

> <r_epik_Ionization_Penalty_Neutral>
  0.1062

> <r_epik_State_Penalty>
  0.0952

> <r_epik_Charging_Adjusted_Penalty>
0.0970763430181616

> <i_epik_Tot_Q>
-1

> <i_epik_Tot_abs_Q>
3

> <s_epik_Chemistry_Notes>
This compound has an imine and may undergo hydrolysis.

$$$$
