3rwp_ligand
                    3D
 Schrodinger Suite 2020-3.
 58 62  0  0  1  0            999 V2000
   41.6170   27.5890   28.9170 C   0  0  0  0  0  0
   40.0570   25.7320   29.1040 C   0  0  0  0  0  0
   41.1640   28.0650   30.1260 C   0  0  0  0  0  0
   39.6120   26.2120   30.3420 C   0  0  0  0  0  0
   37.4060   30.1140   26.9890 C   0  0  0  0  0  0
   39.3320   29.0070   26.4450 C   0  0  0  0  0  0
   35.4090   26.5590   28.5820 C   0  0  0  0  0  0
   31.0370   26.2560   29.0630 C   0  0  0  0  0  0
   33.3170   27.4030   28.3310 C   0  0  0  0  0  0
   34.7290   27.6740   28.0890 C   0  0  0  0  0  0
   41.0610   26.4230   28.4020 C   0  0  0  0  0  0
   40.1820   27.3710   30.8160 C   0  0  0  0  0  0
   36.7590   28.9050   27.0380 C   0  0  0  0  0  0
   33.2240   26.1560   28.9450 C   0  0  0  0  0  0
   38.6730   27.7930   26.4730 C   0  0  0  0  0  0
   32.1050   28.0630   28.1300 C   0  0  0  0  0  0
   35.3080   28.8290   27.3920 C   0  0  0  0  0  0
   41.7010   24.5070   26.9190 C   0  0  0  0  0  0
   40.8750   25.3420   24.8890 C   0  0  0  0  0  0
   41.5930   26.0210   27.0630 C   0  0  1  0  0  0
   40.7150   26.5050   25.8710 C   0  0  2  0  0  0
   36.2460   24.2710   30.1970 C   0  0  0  0  0  0
   34.5760   23.3780   28.5110 C   0  0  0  0  0  0
   34.7890   24.3270   29.6840 C   0  0  0  0  0  0
   38.7370   30.1990   26.6770 N   0  0  0  0  0  0
   32.1030   25.5240   29.3220 N   0  0  0  0  0  0
   30.9600   27.4510   28.4900 N   0  0  0  0  0  0
   37.3590   27.7190   26.7800 N   0  0  0  0  0  0
   34.5120   25.6500   29.0970 N   0  0  0  0  0  0
   31.9790   29.3190   27.5510 N   0  0  0  0  0  0
   39.2760   26.5560   26.1520 N   0  0  0  0  0  0
   34.5730   29.6890   26.8550 O   0  0  0  0  0  0
   41.5790   24.2310   25.5000 O   0  0  0  0  0  0
   39.8220   27.8780   32.0130 F   0  0  0  0  0  0
   42.3991   28.1174   28.3717 H   0  0  0  0  0  0
   39.6255   24.8232   28.6846 H   0  0  0  0  0  0
   41.5761   28.9852   30.5401 H   0  0  0  0  0  0
   38.8430   25.6871   30.9088 H   0  0  0  0  0  0
   36.8490   31.0262   27.2029 H   0  0  0  0  0  0
   40.3989   29.0038   26.2218 H   0  0  0  0  0  0
   36.4908   26.4273   28.5622 H   0  0  0  0  0  0
   30.0846   25.8179   29.3616 H   0  0  0  0  0  0
   42.6735   24.1702   27.3073 H   0  0  0  0  0  0
   40.8922   24.0259   27.4886 H   0  0  0  0  0  0
   39.8821   24.9938   24.5682 H   0  0  0  0  0  0
   41.4465   25.6789   24.0116 H   0  0  0  0  0  0
   42.5838   26.4989   27.0607 H   0  0  0  0  0  0
   40.9719   27.5273   25.5565 H   0  0  0  0  0  0
   36.4434   23.2806   30.6331 H   0  0  0  0  0  0
   36.3947   25.0455   30.9638 H   0  0  0  0  0  0
   36.9367   24.4470   29.3592 H   0  0  0  0  0  0
   34.7585   22.3438   28.8383 H   0  0  0  0  0  0
   35.2738   23.6347   27.7003 H   0  0  0  0  0  0
   33.5419   23.4705   28.1477 H   0  0  0  0  0  0
   34.1282   24.1097   30.5361 H   0  0  0  0  0  0
   32.8762   29.8714   27.2349 H   0  0  0  0  0  0
   30.9820   29.7614   27.4085 H   0  0  0  0  0  0
   38.6748   25.6357   26.1120 H   0  0  0  0  0  0
  1  3  2  0  0  0
  1 11  1  0  0  0
  1 35  1  0  0  0
  2  4  1  0  0  0
  2 11  2  0  0  0
  2 36  1  0  0  0
  3 12  1  0  0  0
  3 37  1  0  0  0
  4 12  2  0  0  0
  4 38  1  0  0  0
  5 13  2  0  0  0
  5 25  1  0  0  0
  5 39  1  0  0  0
  6 15  1  0  0  0
  6 25  2  0  0  0
  6 40  1  0  0  0
  7 10  2  0  0  0
  7 29  1  0  0  0
  7 41  1  0  0  0
  8 26  2  0  0  0
  8 27  1  0  0  0
  8 42  1  0  0  0
  9 10  1  0  0  0
  9 14  2  0  0  0
  9 16  1  0  0  0
 10 17  1  0  0  0
 11 20  1  0  0  0
 12 34  1  0  0  0
 13 17  1  0  0  0
 13 28  1  0  0  0
 14 26  1  0  0  0
 14 29  1  0  0  0
 15 28  2  0  0  0
 15 31  1  0  0  0
 16 27  2  0  0  0
 16 30  1  0  0  0
 17 32  2  0  0  0
 18 20  1  0  0  0
 18 33  1  0  0  0
 18 43  1  0  0  0
 18 44  1  0  0  0
 19 21  1  0  0  0
 19 33  1  0  0  0
 19 45  1  0  0  0
 19 46  1  0  0  0
 20 21  1  0  0  0
 20 47  1  0  0  0
 21 31  1  0  0  0
 21 48  1  0  0  0
 22 24  1  0  0  0
 22 49  1  0  0  0
 22 50  1  0  0  0
 22 51  1  0  0  0
 23 24  1  0  0  0
 23 52  1  0  0  0
 23 53  1  0  0  0
 23 54  1  0  0  0
 24 29  1  0  0  0
 24 55  1  0  0  0
 30 56  1  0  0  0
 30 57  1  0  0  0
 31 58  1  0  0  0
M  END
> <s_m_source_file>
../3rwp_ligand.sdf

> <i_m_source_file_index>
1

> <s_epik_input>
W2NIXTFbY0hdYyhGKVtjSF1bY0hdYzFbQ0BIXTJbQ0gyXU9bQ0gyXVtDQEhdMltOSF1jKG4zKVtjSF1uW2NIXWMzQyg9TyljNFtjSF1uKFtDSF0oW0NIM10pW0NIM10pYyhjNDUpbltjSF1uYzVbTkgyXQ==

> <s_epik_cmdline>
J2VwaWtfYXBwJywgJy1pbWFlJywgJ2xpZ2FuZF9wcm8ubWFlJywgJy1vbWFlJywgJ2xpZ2FuZF9wcmVwLm1hZScsICctbXMnLCAnMScsICctcGgnLCAnNycsICctcGh0JywgJzAuNScsICctbnQn

> <r_lp_tautomer_probability>
1

> <r_epik_Ionization_Penalty>
  0.0017

> <r_epik_Ionization_Penalty_Charging>
  0.0000

> <r_epik_Ionization_Penalty_Neutral>
  0.0017

> <r_epik_State_Penalty>
 -0.0000

> <r_epik_Charging_Adjusted_Penalty>
0

> <i_epik_Tot_Q>
0

> <i_epik_Tot_abs_Q>
0

$$$$
