3rx5_ligand
                    3D
 Schrodinger Suite 2020-3.
 66 68  0  0  1  0            999 V2000
  -12.6100   35.4870  -23.4860 O   0  0  0  0  0  0
  -13.2970   34.5110  -22.6830 C   0  0  0  0  0  0
  -13.4700   33.2110  -23.5000 C   0  0  1  0  0  0
  -14.6760   33.3680  -24.5190 C   0  0  0  0  0  0
  -15.0560   32.0110  -25.0500 N   0  3  0  0  0  0
  -13.9450   31.6990  -26.0560 C   0  0  0  0  0  0
  -12.6610   31.4260  -25.1410 C   0  0  1  0  0  0
  -11.5330   31.1070  -25.9020 O   0  0  0  0  0  0
  -12.2130   32.7130  -24.3150 C   0  0  2  0  0  0
  -11.2050   32.2420  -23.3600 O   0  0  0  0  0  0
  -10.1400   33.1380  -23.2280 C   0  0  1  0  0  0
   -9.3070   32.8070  -21.9410 C   0  0  2  0  0  0
  -10.1620   33.2390  -20.9540 O   0  0  0  0  0  0
   -8.0170   33.6820  -22.0180 C   0  0  1  0  0  0
   -7.1600   33.3380  -20.8730 O   0  0  0  0  0  0
   -9.3290   32.8900  -24.4050 O   0  0  0  0  0  0
   -8.2190   33.7590  -24.5400 C   0  0  2  0  0  0
   -7.8140   33.8460  -26.1240 C   0  0  0  0  0  0
   -7.1840   32.6260  -26.3280 O   0  0  0  0  0  0
   -7.2380   33.4070  -23.4300 C   0  0  1  0  0  0
   -6.4730   34.5190  -23.5310 O   0  0  0  0  0  0
   -5.1390   34.3510  -23.1170 C   0  0  1  0  0  0
   -4.0450   35.3450  -23.8130 C   0  0  2  0  0  0
   -4.0110   35.1740  -25.0600 O   0  0  0  0  0  0
   -2.6320   35.2760  -23.2910 C   0  0  1  0  0  0
   -1.8060   36.3770  -23.7200 O   0  0  0  0  0  0
   -2.7110   35.3680  -21.7570 C   0  0  2  0  0  0
   -1.4700   34.9170  -21.3700 O   0  0  0  0  0  0
   -5.0330   34.5940  -21.7150 O   0  0  0  0  0  0
   -3.7400   34.2660  -21.1630 C   0  0  2  0  0  0
   -3.8290   34.1790  -19.5940 C   0  0  0  0  0  0
   -5.0470   33.5700  -19.2190 O   0  0  0  0  0  0
  -12.3930   36.4837  -23.0742 H   0  0  0  0  0  0
  -12.7090   34.3020  -21.7771 H   0  0  0  0  0  0
  -14.2849   34.9012  -22.3970 H   0  0  0  0  0  0
  -13.6441   32.4658  -22.7098 H   0  0  0  0  0  0
  -15.5371   33.8162  -24.0017 H   0  0  0  0  0  0
  -14.3699   34.0178  -25.3521 H   0  0  0  0  0  0
  -15.0862   31.2883  -24.2213 H   0  0  0  0  0  0
  -16.0471   32.0671  -25.5239 H   0  0  0  0  0  0
  -14.2257   30.8171  -26.6505 H   0  0  0  0  0  0
  -13.8025   32.5612  -26.7240 H   0  0  0  0  0  0
  -12.8706   30.5351  -24.5308 H   0  0  0  0  0  0
  -11.5548   30.2427  -26.5820 H   0  0  0  0  0  0
  -11.7677   33.5180  -24.9181 H   0  0  0  0  0  0
  -10.5419   34.1618  -23.2127 H   0  0  0  0  0  0
   -9.0535   31.7639  -21.7009 H   0  0  0  0  0  0
  -11.1144   32.7157  -20.7836 H   0  0  0  0  0  0
   -8.2633   34.7455  -21.8827 H   0  0  0  0  0  0
   -7.5357   33.4653  -19.8470 H   0  0  0  0  0  0
   -8.4688   34.7854  -24.2332 H   0  0  0  0  0  0
   -8.7245   33.9675  -26.7291 H   0  0  0  0  0  0
   -7.1488   34.7070  -26.2856 H   0  0  0  0  0  0
   -6.7853   32.3722  -27.3213 H   0  0  0  0  0  0
   -6.6944   32.4570  -23.5398 H   0  0  0  0  0  0
   -5.0367   33.2787  -23.3399 H   0  0  0  0  0  0
   -4.3475   36.4023  -23.7882 H   0  0  0  0  0  0
   -4.9439   35.1876  -25.6426 H   0  0  0  0  0  0
   -2.1567   34.3754  -23.7070 H   0  0  0  0  0  0
   -1.5994   36.5252  -24.7902 H   0  0  0  0  0  0
   -2.8929   36.3963  -21.4113 H   0  0  0  0  0  0
   -0.5685   35.4847  -21.6438 H   0  0  0  0  0  0
   -3.4725   33.2483  -21.4835 H   0  0  0  0  0  0
   -2.9892   33.5802  -19.2118 H   0  0  0  0  0  0
   -3.7813   35.1917  -19.1673 H   0  0  0  0  0  0
   -5.2842   33.4241  -18.1548 H   0  0  0  0  0  0
  1  2  1  0  0  0
  1 33  1  0  0  0
  2  3  1  0  0  0
  2 34  1  0  0  0
  2 35  1  0  0  0
  3  4  1  0  0  0
  3  9  1  0  0  0
  3 36  1  0  0  0
  4  5  1  0  0  0
  4 37  1  0  0  0
  4 38  1  0  0  0
  5  6  1  0  0  0
  5 39  1  0  0  0
  5 40  1  0  0  0
  6  7  1  0  0  0
  6 41  1  0  0  0
  6 42  1  0  0  0
  7  8  1  0  0  0
  7  9  1  0  0  0
  7 43  1  0  0  0
  8 44  1  0  0  0
  9 10  1  0  0  0
  9 45  1  0  0  0
 10 11  1  0  0  0
 11 12  1  0  0  0
 11 16  1  0  0  0
 11 46  1  0  0  0
 12 13  1  0  0  0
 12 14  1  0  0  0
 12 47  1  0  0  0
 13 48  1  0  0  0
 14 15  1  0  0  0
 14 20  1  0  0  0
 14 49  1  0  0  0
 15 50  1  0  0  0
 16 17  1  0  0  0
 17 18  1  0  0  0
 17 20  1  0  0  0
 17 51  1  0  0  0
 18 19  1  0  0  0
 18 52  1  0  0  0
 18 53  1  0  0  0
 19 54  1  0  0  0
 20 21  1  0  0  0
 20 55  1  0  0  0
 21 22  1  0  0  0
 22 23  1  0  0  0
 22 29  1  0  0  0
 22 56  1  0  0  0
 23 24  1  0  0  0
 23 25  1  0  0  0
 23 57  1  0  0  0
 24 58  1  0  0  0
 25 26  1  0  0  0
 25 27  1  0  0  0
 25 59  1  0  0  0
 26 60  1  0  0  0
 27 28  1  0  0  0
 27 30  1  0  0  0
 27 61  1  0  0  0
 28 62  1  0  0  0
 29 30  1  0  0  0
 30 31  1  0  0  0
 30 63  1  0  0  0
 31 32  1  0  0  0
 31 64  1  0  0  0
 31 65  1  0  0  0
 32 66  1  0  0  0
M  CHG  1   5   1
M  END
> <s_m_source_file>
../3rx5_ligand.sdf

> <i_m_source_file_index>
1

> <s_epik_input>
W09IXVtDSDJdW0NASF0xW0NIMl1bTkgyK11bQ0gyXVtDQEBIXShbT0hdKVtDQEBIXTFPW0NASF0yW0NASF0oW09IXSlbQ0BASF0oW09IXSlbQ0BASF0oW0NASF0oTzIpW0NIMl1bT0hdKU9bQ0BIXTNbQ0BIXShbT0hdKVtDQEBIXShbT0hdKVtDQEhdKFtPSF0pW0NASF0oTzMpW0NIMl1bT0hd

> <s_epik_cmdline>
J2VwaWtfYXBwJywgJy1pbWFlJywgJ2xpZ2FuZF9wcm8ubWFlJywgJy1vbWFlJywgJ2xpZ2FuZF9wcmVwLm1hZScsICctbXMnLCAnMScsICctcGgnLCAnNycsICctcGh0JywgJzAuNScsICctbnQn

> <r_lp_tautomer_probability>
1

> <r_epik_Ionization_Penalty>
  0.0079

> <r_epik_Ionization_Penalty_Charging>
  0.0079

> <r_epik_Ionization_Penalty_Neutral>
  0.0000

> <r_epik_State_Penalty>
 -0.0000

> <r_epik_Charging_Adjusted_Penalty>
0.00793735177774946

> <i_epik_Tot_Q>
1

> <i_epik_Tot_abs_Q>
1

> <s_epik_Chemistry_Notes>
This compound contains an acetal/aminal-like group ( X-CH(R)-Y where X, Y are N, S, or O) that may be acid/base labile, releasing an aldehyde.

$$$$
