3rx7_ligand
                    3D
 Schrodinger Suite 2020-3.
 87 90  0  0  1  0            999 V2000
   -0.3980   33.6830  -18.9230 O   0  0  0  0  0  0
    0.2450   34.7880  -19.7090 C   0  0  2  0  0  0
    1.2790   35.6600  -18.9470 C   0  0  1  0  0  0
    2.2940   34.8700  -18.4560 O   0  0  0  0  0  0
    2.0680   36.6240  -19.8220 C   0  0  2  0  0  0
    2.6800   37.4870  -18.8490 O   0  0  0  0  0  0
    1.2300   37.3820  -20.9320 C   0  0  1  0  0  0
    2.1750   37.6480  -22.1000 C   0  0  0  0  0  0
    1.5910   37.3240  -23.4270 O   0  0  0  0  0  0
   -0.0340   36.7190  -21.3400 O   0  0  0  0  0  0
   -0.6880   35.6950  -20.5350 C   0  0  1  0  0  0
   -1.4330   34.7460  -21.3390 O   0  0  0  0  0  0
   -2.7220   35.1590  -21.6850 C   0  0  2  0  0  0
   -3.7600   34.0550  -21.0900 C   0  0  2  0  0  0
   -5.0530   34.2810  -21.6790 O   0  0  0  0  0  0
   -4.0320   34.0050  -19.5180 C   0  0  0  0  0  0
   -5.0180   33.0440  -19.2570 O   0  0  0  0  0  0
   -2.6890   35.1460  -23.2590 C   0  0  2  0  0  0
   -1.9600   36.3370  -23.5970 O   0  0  0  0  0  0
   -4.1320   35.1840  -23.7950 C   0  0  1  0  0  0
   -4.2410   35.2260  -25.1320 O   0  0  0  0  0  0
   -5.1630   34.1920  -23.1380 C   0  0  2  0  0  0
   -6.5260   34.3920  -23.5570 O   0  0  0  0  0  0
   -7.2810   33.2300  -23.4830 C   0  0  2  0  0  0
   -8.2600   33.5990  -24.6210 C   0  0  2  0  0  0
   -9.3640   32.7570  -24.5680 O   0  0  0  0  0  0
   -7.8100   33.5750  -26.1210 C   0  0  0  0  0  0
   -6.9850   32.4480  -26.2780 O   0  0  0  0  0  0
   -8.0880   33.3700  -22.0910 C   0  0  2  0  0  0
   -7.3440   33.2290  -20.8500 O   0  0  0  0  0  0
   -9.3670   32.5770  -22.1070 C   0  0  1  0  0  0
  -10.1990   32.9710  -21.0380 O   0  0  0  0  0  0
  -10.1390   32.9720  -23.3930 C   0  0  2  0  0  0
  -11.2340   32.0970  -23.5080 O   0  0  0  0  0  0
  -12.2560   32.4750  -24.3920 C   0  0  1  0  0  0
  -12.6080   31.1800  -25.2070 C   0  0  2  0  0  0
  -11.4750   30.8360  -26.0060 O   0  0  0  0  0  0
  -13.9450   31.2970  -26.0300 C   0  0  0  0  0  0
  -15.1070   31.7380  -25.0870 N   0  3  0  0  0  0
  -14.6520   33.0960  -24.5850 C   0  0  0  0  0  0
  -13.5270   32.9110  -23.5410 C   0  0  2  0  0  0
  -13.4240   34.1700  -22.6970 C   0  0  0  0  0  0
  -12.7360   35.2110  -23.4540 O   0  0  0  0  0  0
    0.2221   33.0066  -18.3164 H   0  0  0  0  0  0
    0.7742   34.1299  -20.4139 H   0  0  0  0  0  0
    0.7315   36.1563  -18.1322 H   0  0  0  0  0  0
    2.0638   34.0440  -17.7669 H   0  0  0  0  0  0
    2.8562   36.1138  -20.3951 H   0  0  0  0  0  0
    3.2838   37.0580  -18.0358 H   0  0  0  0  0  0
    0.8069   38.3236  -20.5521 H   0  0  0  0  0  0
    2.4493   38.7132  -22.1144 H   0  0  0  0  0  0
    3.0825   37.0372  -21.9839 H   0  0  0  0  0  0
    2.1838   37.4767  -24.3409 H   0  0  0  0  0  0
   -1.3406   36.3398  -19.9281 H   0  0  0  0  0  0
   -2.9080   36.1608  -21.2705 H   0  0  0  0  0  0
   -3.3568   33.0756  -21.3869 H   0  0  0  0  0  0
   -3.1032   33.7360  -18.9936 H   0  0  0  0  0  0
   -4.3749   34.9918  -19.1736 H   0  0  0  0  0  0
   -5.3464   32.8596  -18.2235 H   0  0  0  0  0  0
   -2.1785   34.2972  -23.7374 H   0  0  0  0  0  0
   -0.9131   36.4500  -23.2788 H   0  0  0  0  0  0
   -4.4514   36.2256  -23.6432 H   0  0  0  0  0  0
   -3.5786   35.8805  -25.7175 H   0  0  0  0  0  0
   -4.9828   33.1523  -23.4488 H   0  0  0  0  0  0
   -6.7058   32.2978  -23.5834 H   0  0  0  0  0  0
   -8.5321   34.6329  -24.3623 H   0  0  0  0  0  0
   -8.6963   33.5040  -26.7686 H   0  0  0  0  0  0
   -7.2591   34.4983  -26.3534 H   0  0  0  0  0  0
   -6.5445   32.2214  -27.2601 H   0  0  0  0  0  0
   -8.3550   34.4244  -21.9270 H   0  0  0  0  0  0
   -6.3904   33.7610  -20.7169 H   0  0  0  0  0  0
   -9.1473   31.5078  -21.9711 H   0  0  0  0  0  0
   -9.8783   32.8004  -19.9997 H   0  0  0  0  0  0
  -10.4593   34.0243  -23.3902 H   0  0  0  0  0  0
  -11.8565   33.2974  -25.0036 H   0  0  0  0  0  0
  -12.7289   30.3077  -24.5479 H   0  0  0  0  0  0
  -10.4853   30.7262  -25.5386 H   0  0  0  0  0  0
  -13.8201   32.0436  -26.8281 H   0  0  0  0  0  0
  -14.1879   30.3211  -26.4757 H   0  0  0  0  0  0
  -16.0437   31.7941  -25.6609 H   0  0  0  0  0  0
  -15.2181   31.0049  -24.2745 H   0  0  0  0  0  0
  -14.2737   33.6911  -25.4293 H   0  0  0  0  0  0
  -15.5010   33.6182  -24.1196 H   0  0  0  0  0  0
  -13.7124   32.1605  -22.7585 H   0  0  0  0  0  0
  -14.4335   34.5172  -22.4318 H   0  0  0  0  0  0
  -12.8587   33.9509  -21.7792 H   0  0  0  0  0  0
  -12.5678   36.1996  -23.0020 H   0  0  0  0  0  0
  1  2  1  0  0  0
  1 44  1  0  0  0
  2  3  1  0  0  0
  2 11  1  0  0  0
  2 45  1  0  0  0
  3  4  1  0  0  0
  3  5  1  0  0  0
  3 46  1  0  0  0
  4 47  1  0  0  0
  5  6  1  0  0  0
  5  7  1  0  0  0
  5 48  1  0  0  0
  6 49  1  0  0  0
  7  8  1  0  0  0
  7 10  1  0  0  0
  7 50  1  0  0  0
  8  9  1  0  0  0
  8 51  1  0  0  0
  8 52  1  0  0  0
  9 53  1  0  0  0
 10 11  1  0  0  0
 11 12  1  0  0  0
 11 54  1  0  0  0
 12 13  1  0  0  0
 13 14  1  0  0  0
 13 18  1  0  0  0
 13 55  1  0  0  0
 14 15  1  0  0  0
 14 16  1  0  0  0
 14 56  1  0  0  0
 15 22  1  0  0  0
 16 17  1  0  0  0
 16 57  1  0  0  0
 16 58  1  0  0  0
 17 59  1  0  0  0
 18 19  1  0  0  0
 18 20  1  0  0  0
 18 60  1  0  0  0
 19 61  1  0  0  0
 20 21  1  0  0  0
 20 22  1  0  0  0
 20 62  1  0  0  0
 21 63  1  0  0  0
 22 23  1  0  0  0
 22 64  1  0  0  0
 23 24  1  0  0  0
 24 25  1  0  0  0
 24 29  1  0  0  0
 24 65  1  0  0  0
 25 26  1  0  0  0
 25 27  1  0  0  0
 25 66  1  0  0  0
 26 33  1  0  0  0
 27 28  1  0  0  0
 27 67  1  0  0  0
 27 68  1  0  0  0
 28 69  1  0  0  0
 29 30  1  0  0  0
 29 31  1  0  0  0
 29 70  1  0  0  0
 30 71  1  0  0  0
 31 32  1  0  0  0
 31 33  1  0  0  0
 31 72  1  0  0  0
 32 73  1  0  0  0
 33 34  1  0  0  0
 33 74  1  0  0  0
 34 35  1  0  0  0
 35 36  1  0  0  0
 35 41  1  0  0  0
 35 75  1  0  0  0
 36 37  1  0  0  0
 36 38  1  0  0  0
 36 76  1  0  0  0
 37 77  1  0  0  0
 38 39  1  0  0  0
 38 78  1  0  0  0
 38 79  1  0  0  0
 39 40  1  0  0  0
 39 80  1  0  0  0
 39 81  1  0  0  0
 40 41  1  0  0  0
 40 82  1  0  0  0
 40 83  1  0  0  0
 41 42  1  0  0  0
 41 84  1  0  0  0
 42 43  1  0  0  0
 42 85  1  0  0  0
 42 86  1  0  0  0
 43 87  1  0  0  0
M  CHG  1  39   1
M  END
> <s_m_source_file>
../3rx7_ligand.sdf

> <i_m_source_file_index>
1

> <s_epik_input>
W09IXVtDQEBIXTFbQ0BASF0oW09IXSlbQ0BIXShbT0hdKVtDQEBIXShbQ0gyXVtPSF0pT1tDQEhdMU9bQ0BASF0yW0NAQEhdKFtDSDJdW09IXSlPW0NASF0oW0NASF0oW09IXSlbQ0BIXTJbT0hdKU9bQ0BASF0zW0NAQEhdKFtDSDJdW09IXSlPW0NASF0oW0NASF0oW09IXSlbQ0BIXTNbT0hdKU9bQ0BIXTRbQ0BIXShbT0hdKVtDSDJdW05IMitdW0NIMl1bQ0BASF00W0NIMl1bT0hd

> <s_epik_cmdline>
J2VwaWtfYXBwJywgJy1pbWFlJywgJ2xpZ2FuZF9wcm8ubWFlJywgJy1vbWFlJywgJ2xpZ2FuZF9wcmVwLm1hZScsICctbXMnLCAnMScsICctcGgnLCAnNycsICctcGh0JywgJzAuNScsICctbnQn

> <r_lp_tautomer_probability>
1

> <r_epik_Ionization_Penalty>
  0.0080

> <r_epik_Ionization_Penalty_Charging>
  0.0079

> <r_epik_Ionization_Penalty_Neutral>
  0.0000

> <r_epik_State_Penalty>
 -0.0000

> <r_epik_Charging_Adjusted_Penalty>
0.00793735177774946

> <i_epik_Tot_Q>
1

> <i_epik_Tot_abs_Q>
1

> <s_epik_Chemistry_Notes>
This compound contains an acetal/aminal-like group ( X-CH(R)-Y where X, Y are N, S, or O) that may be acid/base labile, releasing an aldehyde.

$$$$
