3rx8_ligand
                    3D
 Schrodinger Suite 2020-3.
 45 46  0  0  1  0            999 V2000
  -12.7060   35.7470  -33.7090 O   0  0  0  0  0  0
  -14.1260   35.8420  -33.9310 C   0  0  2  0  0  0
  -14.5640   36.9740  -34.9650 C   0  0  1  0  0  0
  -14.5110   36.7960  -36.4340 O   0  0  0  0  0  0
  -15.9370   37.7240  -34.6880 C   0  0  2  0  0  0
  -15.4110   38.9170  -35.0680 O   0  0  0  0  0  0
  -15.9760   38.0070  -33.1740 C   0  0  1  0  0  0
  -16.7980   39.1380  -32.4660 C   0  0  0  0  0  0
  -17.9520   39.2630  -33.1440 O   0  0  0  0  0  0
  -15.9590   36.7420  -32.4810 O   0  0  0  0  0  0
  -14.6130   36.2330  -32.4910 C   0  0  1  0  0  0
  -14.5540   35.9560  -31.2560 O   0  0  0  0  0  0
  -14.5960   35.8910  -29.8250 C   0  0  1  0  0  0
  -15.9630   35.2000  -29.6190 C   0  0  2  0  0  0
  -17.0330   36.0210  -30.0530 O   0  0  0  0  0  0
  -16.2480   34.6610  -28.2000 C   0  0  0  0  0  0
  -15.0090   34.2550  -27.4320 N   0  3  0  0  0  0
  -13.6350   34.8690  -27.7370 C   0  0  0  0  0  0
  -13.5890   34.8600  -29.2870 C   0  0  2  0  0  0
  -12.2110   34.5970  -29.9660 C   0  0  0  0  0  0
  -11.2800   35.5640  -29.6880 O   0  0  0  0  0  0
  -12.0360   35.4810  -34.5399 H   0  0  0  0  0  0
  -14.4587   34.8822  -34.3531 H   0  0  0  0  0  0
  -13.6458   37.5570  -34.8005 H   0  0  0  0  0  0
  -13.6478   36.2950  -36.8965 H   0  0  0  0  0  0
  -16.8786   37.3565  -35.1219 H   0  0  0  0  0  0
  -15.2196   39.1198  -36.1321 H   0  0  0  0  0  0
  -15.0179   38.5286  -33.0327 H   0  0  0  0  0  0
  -16.9885   38.8533  -31.4207 H   0  0  0  0  0  0
  -16.2266   40.0776  -32.4918 H   0  0  0  0  0  0
  -18.6988   40.0056  -32.8265 H   0  0  0  0  0  0
  -13.5637   36.4416  -32.2352 H   0  0  0  0  0  0
  -14.4040   36.8915  -29.4102 H   0  0  0  0  0  0
  -15.9736   34.3413  -30.3065 H   0  0  0  0  0  0
  -16.9973   36.4914  -31.0467 H   0  0  0  0  0  0
  -16.7555   35.4370  -27.6081 H   0  0  0  0  0  0
  -16.8921   33.7719  -28.2680 H   0  0  0  0  0  0
  -15.1501   34.4780  -26.3641 H   0  0  0  0  0  0
  -14.8343   33.1767  -27.5614 H   0  0  0  0  0  0
  -13.5860   35.8846  -27.3174 H   0  0  0  0  0  0
  -12.8474   34.2475  -27.2860 H   0  0  0  0  0  0
  -13.9837   33.9163  -29.6915 H   0  0  0  0  0  0
  -11.8071   33.6357  -29.6155 H   0  0  0  0  0  0
  -12.3406   34.5640  -31.0578 H   0  0  0  0  0  0
  -10.2670   35.4899  -30.1104 H   0  0  0  0  0  0
  1  2  1  0  0  0
  1 22  1  0  0  0
  2  3  1  0  0  0
  2 11  1  0  0  0
  2 23  1  0  0  0
  3  4  1  0  0  0
  3  5  1  0  0  0
  3 24  1  0  0  0
  4 25  1  0  0  0
  5  6  1  0  0  0
  5  7  1  0  0  0
  5 26  1  0  0  0
  6 27  1  0  0  0
  7  8  1  0  0  0
  7 10  1  0  0  0
  7 28  1  0  0  0
  8  9  1  0  0  0
  8 29  1  0  0  0
  8 30  1  0  0  0
  9 31  1  0  0  0
 10 11  1  0  0  0
 11 12  1  0  0  0
 11 32  1  0  0  0
 12 13  1  0  0  0
 13 14  1  0  0  0
 13 19  1  0  0  0
 13 33  1  0  0  0
 14 15  1  0  0  0
 14 16  1  0  0  0
 14 34  1  0  0  0
 15 35  1  0  0  0
 16 17  1  0  0  0
 16 36  1  0  0  0
 16 37  1  0  0  0
 17 18  1  0  0  0
 17 38  1  0  0  0
 17 39  1  0  0  0
 18 19  1  0  0  0
 18 40  1  0  0  0
 18 41  1  0  0  0
 19 20  1  0  0  0
 19 42  1  0  0  0
 20 21  1  0  0  0
 20 43  1  0  0  0
 20 44  1  0  0  0
 21 45  1  0  0  0
M  CHG  1  17   1
M  END
> <s_m_source_file>
../3rx8_ligand.sdf

> <i_m_source_file_index>
1

> <s_epik_input>
W09IXVtDQEBIXTFbQ0BASF0oW09IXSlbQ0BIXShbT0hdKVtDQEBIXShbQ0gyXVtPSF0pT1tDQEhdMU9bQ0BIXTJbQ0BIXShbT0hdKVtDSDJdW05IMitdW0NIMl1bQ0BASF0yW0NIMl1bT0hd

> <s_epik_cmdline>
J2VwaWtfYXBwJywgJy1pbWFlJywgJ2xpZ2FuZF9wcm8ubWFlJywgJy1vbWFlJywgJ2xpZ2FuZF9wcmVwLm1hZScsICctbXMnLCAnMScsICctcGgnLCAnNycsICctcGh0JywgJzAuNScsICctbnQn

> <r_lp_tautomer_probability>
1

> <r_epik_Ionization_Penalty>
  0.0080

> <r_epik_Ionization_Penalty_Charging>
  0.0080

> <r_epik_Ionization_Penalty_Neutral>
  0.0000

> <r_epik_State_Penalty>
 -0.0000

> <r_epik_Charging_Adjusted_Penalty>
0.00795629459225398

> <i_epik_Tot_Q>
1

> <i_epik_Tot_abs_Q>
1

> <s_epik_Chemistry_Notes>
This compound contains an acetal/aminal-like group ( X-CH(R)-Y where X, Y are N, S, or O) that may be acid/base labile, releasing an aldehyde.

$$$$
