3rxa_ligand
                    3D
 Schrodinger Suite 2020-3.
 24 24  0  0  1  0            999 V2000
   -1.6920  -13.0360   17.8190 N   0  3  0  0  0  0
   -1.3980  -14.1260   16.8950 C   0  0  0  0  0  0
   -1.5320  -13.6400   15.4520 C   0  0  0  0  0  0
   -0.6390  -14.4240   14.4950 C   0  0  0  0  0  0
   -1.2750  -15.7380   14.0640 C   0  0  0  0  0  0
   -1.4660  -16.6560   15.2620 C   0  0  0  0  0  0
   -2.6710  -16.2540   16.0930 C   0  0  0  0  0  0
   -2.3230  -15.2990   17.2380 C   0  0  0  0  0  0
   -1.0401  -12.1789   17.5942 H   0  0  0  0  0  0
   -1.5132  -13.3720   18.8511 H   0  0  0  0  0  0
   -2.7443  -12.7353   17.7083 H   0  0  0  0  0  0
   -0.3519  -14.4376   17.0311 H   0  0  0  0  0  0
   -2.5743  -13.7577   15.1208 H   0  0  0  0  0  0
   -1.2465  -12.5793   15.3943 H   0  0  0  0  0  0
   -0.4510  -13.8227   13.5933 H   0  0  0  0  0  0
    0.3168  -14.6523   14.9893 H   0  0  0  0  0  0
   -2.2555  -15.5383   13.6071 H   0  0  0  0  0  0
   -0.6240  -16.2375   13.3314 H   0  0  0  0  0  0
   -1.6160  -17.6882   14.9127 H   0  0  0  0  0  0
   -0.5736  -16.6120   15.9036 H   0  0  0  0  0  0
   -3.4070  -15.7482   15.4508 H   0  0  0  0  0  0
   -3.1267  -17.1517   16.5362 H   0  0  0  0  0  0
   -1.8541  -15.9207   18.0150 H   0  0  0  0  0  0
   -3.2838  -14.9122   17.6083 H   0  0  0  0  0  0
  1  2  1  0  0  0
  1  9  1  0  0  0
  1 10  1  0  0  0
  1 11  1  0  0  0
  2  3  1  0  0  0
  2  8  1  0  0  0
  2 12  1  0  0  0
  3  4  1  0  0  0
  3 13  1  0  0  0
  3 14  1  0  0  0
  4  5  1  0  0  0
  4 15  1  0  0  0
  4 16  1  0  0  0
  5  6  1  0  0  0
  5 17  1  0  0  0
  5 18  1  0  0  0
  6  7  1  0  0  0
  6 19  1  0  0  0
  6 20  1  0  0  0
  7  8  1  0  0  0
  7 21  1  0  0  0
  7 22  1  0  0  0
  8 23  1  0  0  0
  8 24  1  0  0  0
M  CHG  1   1   1
M  END
> <s_m_source_file>
../3rxa_ligand.sdf

> <i_m_source_file_index>
1

> <s_epik_input>
W05IMytdW0NIXTFbQ0gyXVtDSDJdW0NIMl1bQ0gyXVtDSDJdW0NIMl0x

> <s_epik_cmdline>
J2VwaWtfYXBwJywgJy1pbWFlJywgJ2xpZ2FuZF9wcm8ubWFlJywgJy1vbWFlJywgJ2xpZ2FuZF9wcmVwLm1hZScsICctbXMnLCAnMScsICctcGgnLCAnNycsICctcGh0JywgJzAuNScsICctbnQn

> <r_lp_tautomer_probability>
1

> <r_epik_Ionization_Penalty>
  0.0002

> <r_epik_Ionization_Penalty_Charging>
  0.0002

> <r_epik_Ionization_Penalty_Neutral>
  0.0000

> <r_epik_State_Penalty>
 -0.0000

> <r_epik_Charging_Adjusted_Penalty>
0.000237798257672491

> <i_epik_Tot_Q>
1

> <i_epik_Tot_abs_Q>
1

$$$$
