3rxd_ligand
                    3D
 Schrodinger Suite 2020-3.
 22 22  0  0  1  0            999 V2000
   -3.0990  -13.4560   18.8870 N   0  3  0  0  0  0
   -2.5500  -17.4520   15.6230 O   0  0  0  0  0  0
   -1.8080  -13.3330   18.2350 C   0  0  0  0  0  0
   -1.7610  -14.1020   16.9290 C   0  0  0  0  0  0
   -1.2870  -13.4970   15.7670 C   0  0  0  0  0  0
   -1.2420  -14.2100   14.5720 C   0  0  0  0  0  0
   -1.6680  -15.5340   14.5320 C   0  0  0  0  0  0
   -2.1380  -16.1440   15.6890 C   0  0  0  0  0  0
   -3.0580  -18.1250   16.7780 C   0  0  0  0  0  0
   -2.1820  -15.4280   16.8870 C   0  0  0  0  0  0
   -3.0907  -12.8854   19.8274 H   0  0  0  0  0  0
   -3.3013  -14.5155   19.1027 H   0  0  0  0  0  0
   -3.8833  -13.0603   18.2249 H   0  0  0  0  0  0
   -1.6057  -12.2735   18.0193 H   0  0  0  0  0  0
   -1.0237  -13.7287   18.8970 H   0  0  0  0  0  0
   -0.9499  -12.4608   15.7935 H   0  0  0  0  0  0
   -0.8723  -13.7300   13.6659 H   0  0  0  0  0  0
   -1.6332  -16.0912   13.5959 H   0  0  0  0  0  0
   -3.3296  -19.1570   16.5112 H   0  0  0  0  0  0
   -3.9482  -17.5958   17.1488 H   0  0  0  0  0  0
   -2.2870  -18.1399   17.5624 H   0  0  0  0  0  0
   -2.5478  -15.9099   17.7937 H   0  0  0  0  0  0
  1  3  1  0  0  0
  1 11  1  0  0  0
  1 12  1  0  0  0
  1 13  1  0  0  0
  2  8  1  0  0  0
  2  9  1  0  0  0
  3  4  1  0  0  0
  3 14  1  0  0  0
  3 15  1  0  0  0
  4  5  2  0  0  0
  4 10  1  0  0  0
  5  6  1  0  0  0
  5 16  1  0  0  0
  6  7  2  0  0  0
  6 17  1  0  0  0
  7  8  1  0  0  0
  7 18  1  0  0  0
  8 10  2  0  0  0
  9 19  1  0  0  0
  9 20  1  0  0  0
  9 21  1  0  0  0
 10 22  1  0  0  0
M  CHG  1   1   1
M  END
> <s_m_source_file>
../3rxd_ligand.sdf

> <i_m_source_file_index>
1

> <s_epik_input>
W05IMytdW0NIMl1jMVtjSF1bY0hdW2NIXWMoW2NIXTEpT1tDSDNd

> <s_epik_cmdline>
J2VwaWtfYXBwJywgJy1pbWFlJywgJ2xpZ2FuZF9wcm8ubWFlJywgJy1vbWFlJywgJ2xpZ2FuZF9wcmVwLm1hZScsICctbXMnLCAnMScsICctcGgnLCAnNycsICctcGh0JywgJzAuNScsICctbnQn

> <r_lp_tautomer_probability>
1

> <r_epik_Ionization_Penalty>
  0.0283

> <r_epik_Ionization_Penalty_Charging>
  0.0283

> <r_epik_Ionization_Penalty_Neutral>
  0.0000

> <r_epik_State_Penalty>
  0.0232

> <r_epik_Charging_Adjusted_Penalty>
0.05158607355732

> <i_epik_Tot_Q>
1

> <i_epik_Tot_abs_Q>
1

$$$$
