3rxe_ligand
                    3D
 Schrodinger Suite 2020-3.
 18 18  0  0  1  0            999 V2000
   -1.7940  -14.3500   16.8480 C   0  0  0  0  0  0
   -1.9920  -15.7300   16.7760 C   0  0  0  0  0  0
   -1.6850  -16.4260   15.6090 C   0  0  0  0  0  0
   -1.1710  -15.7630   14.5030 C   0  0  0  0  0  0
   -0.9650  -14.3960   14.5680 C   0  0  0  0  0  0
   -1.2730  -13.6960   15.7300 C   0  0  0  0  0  0
   -2.1260  -13.5810   18.1020 C   0  0  0  0  0  0
   -2.8610  -14.0760   19.0050 N   0  3  0  0  0  0
   -1.6570  -12.3450   18.3060 N   0  0  0  0  0  0
   -2.3891  -16.2661   17.6380 H   0  0  0  0  0  0
   -1.8501  -17.5025   15.5638 H   0  0  0  0  0  0
   -0.9322  -16.3133   13.5929 H   0  0  0  0  0  0
   -0.5601  -13.8661   13.7058 H   0  0  0  0  0  0
   -1.1049  -12.6197   15.7682 H   0  0  0  0  0  0
   -3.2721  -15.0893   18.8856 H   0  0  0  0  0  0
   -1.0135  -11.8694   17.5512 H   0  0  0  0  0  0
   -1.9148  -11.8042   19.2285 H   0  0  0  0  0  0
   -3.0890  -13.4931   19.9096 H   0  0  0  0  0  0
  1  2  2  0  0  0
  1  6  1  0  0  0
  1  7  1  0  0  0
  2  3  1  0  0  0
  2 10  1  0  0  0
  3  4  2  0  0  0
  3 11  1  0  0  0
  4  5  1  0  0  0
  4 12  1  0  0  0
  5  6  2  0  0  0
  5 13  1  0  0  0
  6 14  1  0  0  0
  7  8  2  0  0  0
  7  9  1  0  0  0
  8 15  1  0  0  0
  8 18  1  0  0  0
  9 16  1  0  0  0
  9 17  1  0  0  0
M  CHG  1   8   1
M  END
> <s_m_source_file>
../3rxe_ligand.sdf

> <i_m_source_file_index>
1

> <s_epik_input>
W0hdXE49QyhbTkgyXSlcYzFbY0hdW2NIXVtjSF1bY0hdW2NIXTE=

> <s_epik_cmdline>
J2VwaWtfYXBwJywgJy1pbWFlJywgJ2xpZ2FuZF9wcm8ubWFlJywgJy1vbWFlJywgJ2xpZ2FuZF9wcmVwLm1hZScsICctbXMnLCAnMScsICctcGgnLCAnNycsICctcGh0JywgJzAuNScsICctbnQn

> <r_lp_tautomer_probability>
1

> <r_epik_Ionization_Penalty>
  0.0003

> <r_epik_Ionization_Penalty_Charging>
  0.0003

> <r_epik_Ionization_Penalty_Neutral>
  0.0000

> <r_epik_State_Penalty>
 -0.0000

> <r_epik_Charging_Adjusted_Penalty>
0.0003115973184836

> <i_epik_Tot_Q>
1

> <i_epik_Tot_abs_Q>
1

> <s_epik_Chemistry_Notes>
This compound has an imine and may undergo hydrolysis.

$$$$
