3rxg_ligand
                    3D
 Schrodinger Suite 2020-3.
 22 22  0  0  1  0            999 V2000
   -1.8230  -13.0100   18.1140 N   0  3  0  0  0  0
   -1.3590  -16.6540   13.7340 O   0  0  0  0  0  0
   -1.3590  -13.9410   17.0970 C   0  0  2  0  0  0
   -1.5750  -13.3400   15.7160 C   0  0  0  0  0  0
   -1.1370  -14.2560   14.5810 C   0  0  0  0  0  0
   -1.5160  -15.7220   14.8250 C   0  0  2  0  0  0
   -1.6280  -16.2920   16.2460 C   0  0  0  0  0  0
   -2.1260  -15.2510   17.2380 C   0  0  0  0  0  0
   -1.2747  -12.0611   18.0199 H   0  0  0  0  0  0
   -1.6459  -13.4385   19.1115 H   0  0  0  0  0  0
   -2.8992  -12.8265   17.9795 H   0  0  0  0  0  0
   -1.2754  -16.2833   12.7017 H   0  0  0  0  0  0
   -0.2841  -14.1059   17.2627 H   0  0  0  0  0  0
   -2.6443  -13.1255   15.5727 H   0  0  0  0  0  0
   -0.9989  -12.4071   15.6279 H   0  0  0  0  0  0
   -1.6169  -13.9349   13.6447 H   0  0  0  0  0  0
   -0.0439  -14.2044   14.4692 H   0  0  0  0  0  0
   -2.5903  -15.6308   14.6071 H   0  0  0  0  0  0
   -2.3344  -17.1352   16.2482 H   0  0  0  0  0  0
   -0.6397  -16.6408   16.5801 H   0  0  0  0  0  0
   -1.9933  -15.6458   18.2561 H   0  0  0  0  0  0
   -3.1950  -15.0720   17.0506 H   0  0  0  0  0  0
  1  3  1  0  0  0
  1  9  1  0  0  0
  1 10  1  0  0  0
  1 11  1  0  0  0
  2  6  1  0  0  0
  2 12  1  0  0  0
  3  4  1  0  0  0
  3  8  1  0  0  0
  3 13  1  0  0  0
  4  5  1  0  0  0
  4 14  1  0  0  0
  4 15  1  0  0  0
  5  6  1  0  0  0
  5 16  1  0  0  0
  5 17  1  0  0  0
  6  7  1  0  0  0
  6 18  1  0  0  0
  7  8  1  0  0  0
  7 19  1  0  0  0
  7 20  1  0  0  0
  8 21  1  0  0  0
  8 22  1  0  0  0
M  CHG  1   1   1
M  END
> <s_m_source_file>
../3rxg_ligand.sdf

> <i_m_source_file_index>
1

> <s_epik_input>
W05IMytdW0NAQEhdMVtDSDJdW0NIMl1bQ0BASF0oW09IXSlbQ0gyXVtDSDJdMQ==

> <s_epik_cmdline>
J2VwaWtfYXBwJywgJy1pbWFlJywgJ2xpZ2FuZF9wcm8ubWFlJywgJy1vbWFlJywgJ2xpZ2FuZF9wcmVwLm1hZScsICctbXMnLCAnMScsICctcGgnLCAnNycsICctcGh0JywgJzAuNScsICctbnQn

> <r_lp_tautomer_probability>
1

> <r_epik_Ionization_Penalty>
  0.0004

> <r_epik_Ionization_Penalty_Charging>
  0.0004

> <r_epik_Ionization_Penalty_Neutral>
  0.0000

> <r_epik_State_Penalty>
 -0.0000

> <r_epik_Charging_Adjusted_Penalty>
0.00041672325994675

> <i_epik_Tot_Q>
1

> <i_epik_Tot_abs_Q>
1

$$$$
