3rxi_ligand
                    3D
 Schrodinger Suite 2020-3.
 25 26  0  0  1  0            999 V2000
   -1.8700  -12.6160   18.0770 N   0  3  0  0  0  0
   -2.0810  -13.3560   16.8440 C   0  0  0  0  0  0
   -0.9290  -14.3270   16.6480 C   0  0  0  0  0  0
   -1.2040  -15.3060   15.5340 C   0  0  0  0  0  0
   -0.6300  -15.3160   14.2650 C   0  0  0  0  0  0
   -1.1060  -16.3600   13.5250 N   0  3  0  0  0  0
   -1.9930  -17.0870   14.2300 C   0  0  0  0  0  0
   -2.1140  -16.4670   15.5580 C   0  0  0  0  0  0
   -2.7550  -18.2190   13.9610 C   0  0  0  0  0  0
   -3.6010  -18.7290   14.9480 C   0  0  0  0  0  0
   -3.7030  -18.1280   16.2110 C   0  0  0  0  0  0
   -2.9550  -16.9920   16.5260 C   0  0  0  0  0  0
   -2.6999  -11.9098   18.2274 H   0  0  0  0  0  0
   -0.9227  -12.0604   18.0137 H   0  0  0  0  0  0
   -1.8277  -13.3177   18.9231 H   0  0  0  0  0  0
   -3.0283  -13.9116   16.9073 H   0  0  0  0  0  0
   -2.1233  -12.6543   15.9979 H   0  0  0  0  0  0
   -0.0160  -13.7669   16.3976 H   0  0  0  0  0  0
   -0.7673  -14.8961   17.5754 H   0  0  0  0  0  0
    0.1014  -14.5432   13.9861 H   0  0  0  0  0  0
   -2.6923  -18.7044   12.9871 H   0  0  0  0  0  0
   -4.1966  -19.6158   14.7315 H   0  0  0  0  0  0
   -4.3750  -18.5533   16.9564 H   0  0  0  0  0  0
   -3.0308  -16.5291   17.5099 H   0  0  0  0  0  0
   -0.7530  -16.5094   12.4940 H   0  0  0  0  0  0
  1  2  1  0  0  0
  1 13  1  0  0  0
  1 14  1  0  0  0
  1 15  1  0  0  0
  2  3  1  0  0  0
  2 16  1  0  0  0
  2 17  1  0  0  0
  3  4  1  0  0  0
  3 18  1  0  0  0
  3 19  1  0  0  0
  4  5  2  0  0  0
  4  8  1  0  0  0
  5  6  1  0  0  0
  5 20  1  0  0  0
  6  7  1  0  0  0
  6 25  1  0  0  0
  7  8  2  0  0  0
  7  9  1  0  0  0
  8 12  1  0  0  0
  9 10  2  0  0  0
  9 21  1  0  0  0
 10 11  1  0  0  0
 10 22  1  0  0  0
 11 12  2  0  0  0
 11 23  1  0  0  0
 12 24  1  0  0  0
M  CHG  2   1   1   6   1
M  END
> <s_m_source_file>
../3rxi_ligand.sdf

> <i_m_source_file_index>
1

> <s_epik_input>
W05IMytdW0NIMl1bQ0gyXWMoW2NIXVtuSF0xKWMoYzEyKVtjSF1bY0hdW2NIXVtjSF0y

> <s_epik_cmdline>
J2VwaWtfYXBwJywgJy1pbWFlJywgJ2xpZ2FuZF9wcm8ubWFlJywgJy1vbWFlJywgJ2xpZ2FuZF9wcmVwLm1hZScsICctbXMnLCAnMScsICctcGgnLCAnNycsICctcGh0JywgJzAuNScsICctbnQn

> <r_lp_tautomer_probability>
1

> <r_epik_Ionization_Penalty>
  0.0012

> <r_epik_Ionization_Penalty_Charging>
  0.0011

> <r_epik_Ionization_Penalty_Neutral>
  0.0000

> <r_epik_State_Penalty>
 -0.0000

> <r_epik_Charging_Adjusted_Penalty>
0.00114913690555984

> <i_epik_Tot_Q>
2

> <i_epik_Tot_abs_Q>
2

$$$$
