3rxj_ligand
                    3D
 Schrodinger Suite 2020-3.
 22 22  0  0  1  0            999 V2000
   -0.2630  -15.1340   13.4860 C   0  0  0  0  0  0
   -0.5370  -16.2780   12.7900 O   0  5  0  0  0  0
   -0.9620  -14.9950   14.7640 C   0  0  0  0  0  0
   -0.7010  -13.9270   15.6300 C   0  0  0  0  0  0
   -1.9090  -15.9640   15.1260 C   0  0  0  0  0  0
   -1.2860  -13.8840   16.8890 C   0  0  0  0  0  0
   -2.4990  -15.9310   16.3820 C   0  0  0  0  0  0
   -2.1520  -14.9190   17.3100 C   0  0  0  0  0  0
   -2.7620  -14.8980   18.5790 N   0  0  0  0  0  0
   -2.5200  -13.7590   19.4550 C   0  0  0  0  0  0
   -2.1750  -12.6040   18.9560 N   0  3  0  0  0  0
   -2.6050  -14.0820   20.8430 N   0  0  0  0  0  0
    0.5440  -14.3600   12.9560 O   0  0  0  0  0  0
   -0.0346  -13.1242   15.3146 H   0  0  0  0  0  0
   -2.1829  -16.7463   14.4181 H   0  0  0  0  0  0
   -1.0762  -13.0478   17.5560 H   0  0  0  0  0  0
   -3.2336  -16.6883   16.6556 H   0  0  0  0  0  0
   -3.4075  -15.7316   18.8928 H   0  0  0  0  0  0
   -2.1425  -12.4636   17.8655 H   0  0  0  0  0  0
   -2.9079  -15.0924   21.1550 H   0  0  0  0  0  0
   -2.3675  -13.3205   21.6004 H   0  0  0  0  0  0
   -1.9166  -11.7706   19.6258 H   0  0  0  0  0  0
  1  2  1  0  0  0
  1  3  1  0  0  0
  1 13  2  0  0  0
  3  4  2  0  0  0
  3  5  1  0  0  0
  4  6  1  0  0  0
  4 14  1  0  0  0
  5  7  2  0  0  0
  5 15  1  0  0  0
  6  8  2  0  0  0
  6 16  1  0  0  0
  7  8  1  0  0  0
  7 17  1  0  0  0
  8  9  1  0  0  0
  9 10  1  0  0  0
  9 18  1  0  0  0
 10 11  2  0  0  0
 10 12  1  0  0  0
 11 19  1  0  0  0
 11 22  1  0  0  0
 12 20  1  0  0  0
 12 21  1  0  0  0
M  CHG  2   2  -1  11   1
M  END
> <s_m_source_file>
../3rxj_ligand.sdf

> <i_m_source_file_index>
1

> <s_epik_input>
W09IXUMoPU8pYzFbY0hdW2NIXWMoW2NIXVtjSF0xKVtOSF0vQyg9TlxbSF0pW05IMl0=

> <s_epik_cmdline>
J2VwaWtfYXBwJywgJy1pbWFlJywgJ2xpZ2FuZF9wcm8ubWFlJywgJy1vbWFlJywgJ2xpZ2FuZF9wcmVwLm1hZScsICctbXMnLCAnMScsICctcGgnLCAnNycsICctcGh0JywgJzAuNScsICctbnQn

> <r_lp_tautomer_probability>
1

> <r_epik_Ionization_Penalty>
  0.0004

> <r_epik_Ionization_Penalty_Charging>
  0.0004

> <r_epik_Ionization_Penalty_Neutral>
  0.0000

> <r_epik_State_Penalty>
 -0.0000

> <r_epik_Charging_Adjusted_Penalty>
0.000398683763290597

> <i_epik_Tot_Q>
0

> <i_epik_Tot_abs_Q>
2

> <s_epik_Chemistry_Notes>
This compound has an imine and may undergo hydrolysis.

$$$$
