3rxl_ligand
                    3D
 Schrodinger Suite 2020-3.
 21 21  0  0  1  0            999 V2000
   -3.0610  -13.5410   19.0190 N   0  3  0  0  0  0
   -1.7990  -15.8270   15.4890 O   0  0  0  0  0  0
   -1.2030  -14.4140   13.4960 C   0  0  0  0  0  0
   -1.4650  -14.6050   14.9670 C   0  0  0  0  0  0
   -1.3840  -13.5520   15.8610 C   0  0  0  0  0  0
   -1.6880  -14.1050   17.0970 C   0  0  0  0  0  0
   -1.7460  -13.3980   18.4320 C   0  0  0  0  0  0
   -1.9430  -15.5490   16.8230 C   0  0  0  0  0  0
   -2.3130  -16.7250   17.6870 C   0  0  0  0  0  0
   -3.0881  -13.0222   19.9886 H   0  0  0  0  0  0
   -3.2820  -14.6082   19.1678 H   0  0  0  0  0  0
   -3.8124  -13.1012   18.3467 H   0  0  0  0  0  0
   -1.3216  -15.3753   12.9746 H   0  0  0  0  0  0
   -0.1778  -14.0424   13.3514 H   0  0  0  0  0  0
   -1.9183  -13.6848   13.0878 H   0  0  0  0  0  0
   -1.1354  -12.5136   15.6420 H   0  0  0  0  0  0
   -1.5250  -12.3308   18.2832 H   0  0  0  0  0  0
   -0.9945  -13.8377   19.1043 H   0  0  0  0  0  0
   -2.4041  -17.6253   17.0615 H   0  0  0  0  0  0
   -3.2732  -16.5261   18.1854 H   0  0  0  0  0  0
   -1.5320  -16.8829   18.4454 H   0  0  0  0  0  0
  1  7  1  0  0  0
  1 10  1  0  0  0
  1 11  1  0  0  0
  1 12  1  0  0  0
  2  4  1  0  0  0
  2  8  1  0  0  0
  3  4  1  0  0  0
  3 13  1  0  0  0
  3 14  1  0  0  0
  3 15  1  0  0  0
  4  5  2  0  0  0
  5  6  1  0  0  0
  5 16  1  0  0  0
  6  7  1  0  0  0
  6  8  2  0  0  0
  7 17  1  0  0  0
  7 18  1  0  0  0
  8  9  1  0  0  0
  9 19  1  0  0  0
  9 20  1  0  0  0
  9 21  1  0  0  0
M  CHG  1   1   1
M  END
> <s_m_source_file>
../3rxl_ligand.sdf

> <i_m_source_file_index>
1

> <s_epik_input>
W05IMytdW0NIMl1jKFtjSF0xKWMoW0NIM10pb2MxW0NIM10=

> <s_epik_cmdline>
J2VwaWtfYXBwJywgJy1pbWFlJywgJ2xpZ2FuZF9wcm8ubWFlJywgJy1vbWFlJywgJ2xpZ2FuZF9wcmVwLm1hZScsICctbXMnLCAnMScsICctcGgnLCAnNycsICctcGh0JywgJzAuNScsICctbnQn

> <r_lp_tautomer_probability>
1

> <r_epik_Ionization_Penalty>
  0.0033

> <r_epik_Ionization_Penalty_Charging>
  0.0033

> <r_epik_Ionization_Penalty_Neutral>
  0.0000

> <r_epik_State_Penalty>
 -0.0000

> <r_epik_Charging_Adjusted_Penalty>
0.00327039356421466

> <i_epik_Tot_Q>
1

> <i_epik_Tot_abs_Q>
1

$$$$
