3rxo_ligand
                    3D
 Schrodinger Suite 2020-3.
 26 27  0  0  1  0            999 V2000
   -1.7030  -13.4820   18.3010 C   0  0  0  0  0  0
   -3.0300  -13.4880   18.8880 N   0  3  0  0  0  0
   -1.6840  -14.1980   16.9640 C   0  0  0  0  0  0
   -2.9610  -17.3110   15.3810 N   0  0  0  0  0  0
   -1.0160  -13.6220   15.8960 C   0  0  0  0  0  0
   -0.9950  -14.2710   14.6750 C   0  0  0  0  0  0
   -1.6420  -15.4930   14.5190 C   0  0  0  0  0  0
   -2.3260  -16.1280   15.5640 C   0  0  0  0  0  0
   -2.5980  -18.2220   14.4730 C   0  0  0  0  0  0
   -3.5160  -19.2510   14.5990 C   0  0  0  0  0  0
   -4.4160  -18.8950   15.5900 C   0  0  0  0  0  0
   -4.0510  -17.6570   16.0690 C   0  0  0  0  0  0
   -2.3230  -15.4290   16.7870 C   0  0  0  0  0  0
   -1.3759  -12.4435   18.1446 H   0  0  0  0  0  0
   -1.0003  -13.9897   18.9780 H   0  0  0  0  0  0
   -3.0061  -12.9617   19.8536 H   0  0  0  0  0  0
   -3.3571  -14.5266   19.0444 H   0  0  0  0  0  0
   -3.7327  -12.9803   18.2109 H   0  0  0  0  0  0
   -0.5104  -12.6640   16.0171 H   0  0  0  0  0  0
   -0.4695  -13.8235   13.8314 H   0  0  0  0  0  0
   -1.6156  -15.9767   13.5426 H   0  0  0  0  0  0
   -1.7580  -18.1668   13.7806 H   0  0  0  0  0  0
   -3.5282  -20.1755   14.0218 H   0  0  0  0  0  0
   -5.2635  -19.4900   15.9304 H   0  0  0  0  0  0
   -4.5487  -17.0795   16.8481 H   0  0  0  0  0  0
   -2.8443  -15.8693   17.6370 H   0  0  0  0  0  0
  1  2  1  0  0  0
  1  3  1  0  0  0
  1 14  1  0  0  0
  1 15  1  0  0  0
  2 16  1  0  0  0
  2 17  1  0  0  0
  2 18  1  0  0  0
  3  5  2  0  0  0
  3 13  1  0  0  0
  4  8  1  0  0  0
  4  9  1  0  0  0
  4 12  1  0  0  0
  5  6  1  0  0  0
  5 19  1  0  0  0
  6  7  2  0  0  0
  6 20  1  0  0  0
  7  8  1  0  0  0
  7 21  1  0  0  0
  8 13  2  0  0  0
  9 10  2  0  0  0
  9 22  1  0  0  0
 10 11  1  0  0  0
 10 23  1  0  0  0
 11 12  2  0  0  0
 11 24  1  0  0  0
 12 25  1  0  0  0
 13 26  1  0  0  0
M  CHG  1   2   1
M  END
> <s_m_source_file>
../3rxo_ligand.sdf

> <i_m_source_file_index>
1

> <s_epik_input>
W05IMytdW0NIMl1jMVtjSF1bY0hdW2NIXWMoW2NIXTEpLW4yW2NIXVtjSF1bY0hdW2NIXTI=

> <s_epik_cmdline>
J2VwaWtfYXBwJywgJy1pbWFlJywgJ2xpZ2FuZF9wcm8ubWFlJywgJy1vbWFlJywgJ2xpZ2FuZF9wcmVwLm1hZScsICctbXMnLCAnMScsICctcGgnLCAnNycsICctcGh0JywgJzAuNScsICctbnQn

> <r_epik_Ionization_Penalty>
  0.0340

> <r_epik_Ionization_Penalty_Charging>
  0.0340

> <r_epik_Ionization_Penalty_Neutral>
  0.0000

> <r_epik_State_Penalty>
  0.0282

> <r_epik_Charging_Adjusted_Penalty>
0.0622317272713034

> <i_epik_Tot_Q>
1

> <i_epik_Tot_abs_Q>
1

$$$$
