3rxp_ligand
                    3D
 Schrodinger Suite 2020-3.
 21 21  0  0  1  0            999 V2000
   -1.0050  -14.1400   13.4810 C   0  0  0  0  0  0
   -3.1200  -13.5550   18.9450 N   0  3  0  0  0  0
   -1.3460  -14.4720   14.9100 C   0  0  0  0  0  0
   -1.8970  -15.3340   16.8790 N   0  0  0  0  0  0
   -1.3340  -13.4410   15.8310 C   0  0  0  0  0  0
   -1.6800  -15.5930   15.5240 N   0  0  0  0  0  0
   -1.6850  -14.0050   17.0590 C   0  0  0  0  0  0
   -1.8130  -13.2910   18.3840 C   0  0  0  0  0  0
   -1.8490  -16.9950   15.0660 C   0  0  0  0  0  0
   -0.7829  -13.0659   13.3971 H   0  0  0  0  0  0
   -1.8580  -14.3898   12.8330 H   0  0  0  0  0  0
   -0.1250  -14.7219   13.1694 H   0  0  0  0  0  0
   -3.2163  -13.0363   19.9102 H   0  0  0  0  0  0
   -3.2420  -14.6376   19.0968 H   0  0  0  0  0  0
   -3.8955  -13.1918   18.2546 H   0  0  0  0  0  0
   -1.0973  -12.3949   15.6368 H   0  0  0  0  0  0
   -1.6910  -12.2084   18.2322 H   0  0  0  0  0  0
   -1.0375  -13.6541   19.0744 H   0  0  0  0  0  0
   -1.6490  -17.0545   13.9860 H   0  0  0  0  0  0
   -2.8790  -17.3247   15.2669 H   0  0  0  0  0  0
   -1.1442  -17.6445   15.6058 H   0  0  0  0  0  0
  1  3  1  0  0  0
  1 10  1  0  0  0
  1 11  1  0  0  0
  1 12  1  0  0  0
  2  8  1  0  0  0
  2 13  1  0  0  0
  2 14  1  0  0  0
  2 15  1  0  0  0
  3  5  2  0  0  0
  3  6  1  0  0  0
  4  6  1  0  0  0
  4  7  2  0  0  0
  5  7  1  0  0  0
  5 16  1  0  0  0
  6  9  1  0  0  0
  7  8  1  0  0  0
  8 17  1  0  0  0
  8 18  1  0  0  0
  9 19  1  0  0  0
  9 20  1  0  0  0
  9 21  1  0  0  0
M  CHG  1   2   1
M  END
> <s_m_source_file>
../3rxp_ligand.sdf

> <i_m_source_file_index>
1

> <s_epik_input>
W0NIM11jMVtjSF1jKFtDSDJdW05IMytdKW5uMVtDSDNd

> <s_epik_cmdline>
J2VwaWtfYXBwJywgJy1pbWFlJywgJ2xpZ2FuZF9wcm8ubWFlJywgJy1vbWFlJywgJ2xpZ2FuZF9wcmVwLm1hZScsICctbXMnLCAnMScsICctcGgnLCAnNycsICctcGh0JywgJzAuNScsICctbnQn

> <r_lp_tautomer_probability>
1

> <r_epik_Ionization_Penalty>
  0.0066

> <r_epik_Ionization_Penalty_Charging>
  0.0066

> <r_epik_Ionization_Penalty_Neutral>
  0.0000

> <r_epik_State_Penalty>
 -0.0000

> <r_epik_Charging_Adjusted_Penalty>
0.00662929372252809

> <i_epik_Tot_Q>
1

> <i_epik_Tot_abs_Q>
1

$$$$
