3ry8_ligand
                    3D
 Schrodinger Suite 2020-3.
 18 17  0  0  1  0            999 V2000
    4.5180   13.5750   39.7130 C   0  0  0  0  0  0
    4.8140   12.4740   40.6540 C   0  0  0  0  0  0
    4.8420   11.0960   40.0410 C   0  0  0  0  0  0
    3.5000   10.7540   39.4830 C   0  0  0  0  0  0
    5.2210   10.1660   41.1570 C   0  0  0  0  0  0
    5.3320    8.7300   40.7660 C   0  0  0  0  0  0
    3.6220   13.4510   38.8500 O   0  0  0  0  0  0
    5.1710   14.6450   39.8240 O   0  5  0  0  0  0
    2.4820   10.6640   40.2360 O   0  0  0  0  0  0
    3.3370   10.5520   38.2400 O   0  5  0  0  0  0
    5.2620    8.3480   39.5680 O   0  0  0  0  0  0
    5.5110    7.8470   41.6490 O   0  5  0  0  0  0
    5.8150   11.0420   39.0390 O   0  0  0  0  0  0
    5.8031   12.6353   41.1076 H   0  0  0  0  0  0
    4.0481   12.4503   41.4432 H   0  0  0  0  0  0
    6.2001   10.4602   41.5629 H   0  0  0  0  0  0
    4.4632   10.2198   41.9525 H   0  0  0  0  0  0
    5.7084   11.6596   38.1350 H   0  0  0  0  0  0
  1  2  1  0  0  0
  1  7  2  0  0  0
  1  8  1  0  0  0
  2  3  1  0  0  0
  2 14  1  0  0  0
  2 15  1  0  0  0
  3  4  1  0  0  0
  3  5  1  0  0  0
  3 13  1  0  0  0
  4  9  2  0  0  0
  4 10  1  0  0  0
  5  6  1  0  0  0
  5 16  1  0  0  0
  5 17  1  0  0  0
  6 11  2  0  0  0
  6 12  1  0  0  0
 13 18  1  0  0  0
M  CHG  3   8  -1  10  -1  12  -1
M  END
> <s_m_source_file>
../3ry8_ligand.sdf

> <i_m_source_file_index>
1

> <s_epik_input>
Tz1DKFtPSF0pW0NIMl1DKFtPSF0pKEMoPU8pW09IXSlbQ0gyXUMoPU8pW09IXQ==

> <s_epik_cmdline>
J2VwaWtfYXBwJywgJy1pbWFlJywgJ2xpZ2FuZF9wcm8ubWFlJywgJy1vbWFlJywgJ2xpZ2FuZF9wcmVwLm1hZScsICctbXMnLCAnMScsICctcGgnLCAnNycsICctcGh0JywgJzAuNScsICctbnQn

> <r_lp_tautomer_probability>
1

> <r_epik_Ionization_Penalty>
  0.0046

> <r_epik_Ionization_Penalty_Charging>
  0.0046

> <r_epik_Ionization_Penalty_Neutral>
  0.0000

> <r_epik_State_Penalty>
 -0.0000

> <r_epik_Charging_Adjusted_Penalty>
0.0045906918398983

> <i_epik_Tot_Q>
-3

> <i_epik_Tot_abs_Q>
3

$$$$
