3ryv_ligand
                    3D
 Schrodinger Suite 2020-3.
 27 27  0  0  1  0            999 V2000
   15.0830   -0.0050   16.8010 S   0  0  0  0  0  0
   18.6830    4.7570   13.6040 N   0  0  0  0  0  0
   16.6900    5.7540   13.6820 O   0  0  0  0  0  0
   16.8540    3.6010   14.6440 C   0  0  0  0  0  0
   14.9090    2.4100   15.5030 C   0  0  0  0  0  0
   15.4640    3.5180   14.8420 C   0  0  0  0  0  0
   15.7320    1.3580   15.9510 C   0  0  0  0  0  0
   17.6880    2.5520   15.1200 C   0  0  0  0  0  0
   17.1360    1.4600   15.7910 C   0  0  0  0  0  0
   17.4400    4.7600   13.9120 C   0  0  0  0  0  0
   19.2990    5.8870   12.8630 C   0  0  0  0  0  0
   13.6680    0.0790   16.6480 O   0  0  0  0  0  0
   19.4690    6.9820   13.9400 C   0  0  0  0  0  0
   15.5900    0.0490   18.1750 O   0  0  0  0  0  0
   15.6990   -1.3180   16.0630 N   0  0  0  0  0  0
   19.2970    3.8936   13.9000 H   0  0  0  0  0  0
   13.8330    2.3637   15.6707 H   0  0  0  0  0  0
   14.8153    4.3162   14.4813 H   0  0  0  0  0  0
   18.7650    2.6013   14.9597 H   0  0  0  0  0  0
   17.7867    0.6835   16.1931 H   0  0  0  0  0  0
   20.2620    5.5660   12.4393 H   0  0  0  0  0  0
   18.6277    6.2021   12.0505 H   0  0  0  0  0  0
   19.9243    7.8748   13.4865 H   0  0  0  0  0  0
   20.1190    6.6073   14.7444 H   0  0  0  0  0  0
   18.4847    7.2434   14.3557 H   0  0  0  0  0  0
   15.3239   -2.2262   16.5574 H   0  0  0  0  0  0
   16.7969   -1.2929   16.1262 H   0  0  0  0  0  0
  1  7  1  0  0  0
  1 12  2  0  0  0
  1 14  2  0  0  0
  1 15  1  0  0  0
  2 10  1  0  0  0
  2 11  1  0  0  0
  2 16  1  0  0  0
  3 10  2  0  0  0
  4  6  2  0  0  0
  4  8  1  0  0  0
  4 10  1  0  0  0
  5  6  1  0  0  0
  5  7  2  0  0  0
  5 17  1  0  0  0
  6 18  1  0  0  0
  7  9  1  0  0  0
  8  9  2  0  0  0
  8 19  1  0  0  0
  9 20  1  0  0  0
 11 13  1  0  0  0
 11 21  1  0  0  0
 11 22  1  0  0  0
 13 23  1  0  0  0
 13 24  1  0  0  0
 13 25  1  0  0  0
 15 26  1  0  0  0
 15 27  1  0  0  0
M  END
> <s_m_source_file>
../3ryv_ligand.sdf

> <i_m_source_file_index>
1

> <s_epik_input>
W2NIXTFbY0hdYyhTKD1PKSg9TylbTkgyXSlbY0hdW2NIXWMxQyg9TylbTkhdW0NIMl1bQ0gzXQ==

> <s_epik_cmdline>
J2VwaWtfYXBwJywgJy1pbWFlJywgJ2xpZ2FuZF9wcm8ubWFlJywgJy1vbWFlJywgJ2xpZ2FuZF9wcmVwLm1hZScsICctbXMnLCAnMScsICctcGgnLCAnNycsICctcGh0JywgJzAuNScsICctbnQn

> <r_lp_tautomer_probability>
1

> <r_epik_Ionization_Penalty>
  0.0011

> <r_epik_Ionization_Penalty_Charging>
  0.0000

> <r_epik_Ionization_Penalty_Neutral>
  0.0011

> <r_epik_State_Penalty>
 -0.0000

> <r_epik_Charging_Adjusted_Penalty>
0

> <i_epik_Tot_Q>
0

> <i_epik_Tot_abs_Q>
0

$$$$
