3ryw_ligand
                    3D
 Schrodinger Suite 2020-3.
 55 55  0  0  1  0            999 V2000
   35.4510    5.7750   31.6180 C   0  0  0  0  0  0
   33.9950   11.1190   14.8190 O   0  5  0  0  0  0
   30.3270   10.7850   16.3160 O   0  5  0  0  0  0
   34.4310   11.4940   17.4030 O   0  5  0  0  0  0
   35.4890    9.5200   16.1770 O   0  0  0  0  0  0
   31.7970   10.4780   14.1840 O   0  0  0  0  0  0
   30.6570    8.4530   15.3130 O   0  0  0  0  0  0
   34.8410    6.8610   16.6190 C   0  0  0  0  0  0
   36.4530    6.1220   18.0770 C   0  0  0  0  0  0
   34.5200    7.2240   18.9730 C   0  0  0  0  0  0
   34.7710    6.4910   30.4320 C   0  0  0  0  0  0
   35.8080    6.8730   29.3530 C   0  0  0  0  0  0
   35.7830    5.9440   28.1340 C   0  0  0  0  0  0
   36.1730    6.7370   26.8850 C   0  0  0  0  0  0
   36.9720    5.8970   25.9050 C   0  0  0  0  0  0
   37.1960    6.7020   24.6430 C   0  0  0  0  0  0
   36.7050    5.9120   23.4480 C   0  0  0  0  0  0
   35.5930    6.6750   22.7820 C   0  0  0  0  0  0
   36.0630    7.2860   21.4600 C   0  0  0  0  0  0
   32.7400    8.0250   17.2340 C   0  0  0  0  0  0
   35.9980    6.2710   16.8380 N   0  0  0  0  0  0
   36.3570    6.3440   20.3920 O   0  0  0  0  0  0
   34.0760    7.3690   17.6540 C   0  0  0  0  0  0
   35.7510    6.5820   19.1810 C   0  0  0  0  0  0
   32.6850    9.5190   16.7910 C   0  0  1  0  0  0
   34.2600   10.3560   16.2160 P   0  0  0  0  0  0
   31.3100    9.7310   15.5620 P   0  0  0  0  0  0
   34.6935    5.5136   32.3716 H   0  0  0  0  0  0
   36.2009    6.4422   32.0680 H   0  0  0  0  0  0
   35.9432    4.8588   31.2598 H   0  0  0  0  0  0
   31.0756   10.6638   13.3747 H   0  0  0  0  0  0
   34.4766    6.9515   15.5957 H   0  0  0  0  0  0
   37.4092    5.6219   18.2310 H   0  0  0  0  0  0
   33.9302    7.5968   19.8104 H   0  0  0  0  0  0
   34.0211    5.8238   29.9820 H   0  0  0  0  0  0
   34.2787    7.4072   30.7902 H   0  0  0  0  0  0
   35.6068    7.8939   28.9962 H   0  0  0  0  0  0
   36.8191    6.8278   29.7838 H   0  0  0  0  0  0
   36.4972    5.1212   28.2854 H   0  0  0  0  0  0
   34.7708    5.5323   28.0074 H   0  0  0  0  0  0
   35.2639    7.0882   26.3750 H   0  0  0  0  0  0
   36.7871    7.6018   27.1766 H   0  0  0  0  0  0
   37.9401    5.6310   26.3544 H   0  0  0  0  0  0
   36.4134    4.9796   25.6679 H   0  0  0  0  0  0
   36.6416    7.6498   24.7094 H   0  0  0  0  0  0
   38.2695    6.9124   24.5280 H   0  0  0  0  0  0
   37.5332    5.7675   22.7386 H   0  0  0  0  0  0
   36.3343    4.9322   23.7834 H   0  0  0  0  0  0
   34.7529    5.9950   22.5776 H   0  0  0  0  0  0
   35.2558    7.4853   23.4452 H   0  0  0  0  0  0
   35.2845    7.9578   21.0693 H   0  0  0  0  0  0
   36.9886    7.8561   21.6281 H   0  0  0  0  0  0
   32.3224    7.4861   16.3707 H   0  0  0  0  0  0
   32.0298    7.9801   18.0728 H   0  0  0  0  0  0
   32.4921    9.8556   17.8203 H   0  0  0  0  0  0
  1 11  1  0  0  0
  1 28  1  0  0  0
  1 29  1  0  0  0
  1 30  1  0  0  0
  2 26  1  0  0  0
  3 27  1  0  0  0
  4 26  1  0  0  0
  5 26  2  0  0  0
  6 27  1  0  0  0
  6 31  1  0  0  0
  7 27  2  0  0  0
  8 21  2  0  0  0
  8 23  1  0  0  0
  8 32  1  0  0  0
  9 21  1  0  0  0
  9 24  2  0  0  0
  9 33  1  0  0  0
 10 23  2  0  0  0
 10 24  1  0  0  0
 10 34  1  0  0  0
 11 12  1  0  0  0
 11 35  1  0  0  0
 11 36  1  0  0  0
 12 13  1  0  0  0
 12 37  1  0  0  0
 12 38  1  0  0  0
 13 14  1  0  0  0
 13 39  1  0  0  0
 13 40  1  0  0  0
 14 15  1  0  0  0
 14 41  1  0  0  0
 14 42  1  0  0  0
 15 16  1  0  0  0
 15 43  1  0  0  0
 15 44  1  0  0  0
 16 17  1  0  0  0
 16 45  1  0  0  0
 16 46  1  0  0  0
 17 18  1  0  0  0
 17 47  1  0  0  0
 17 48  1  0  0  0
 18 19  1  0  0  0
 18 49  1  0  0  0
 18 50  1  0  0  0
 19 22  1  0  0  0
 19 51  1  0  0  0
 19 52  1  0  0  0
 20 23  1  0  0  0
 20 25  1  0  0  0
 20 53  1  0  0  0
 20 54  1  0  0  0
 22 24  1  0  0  0
 25 26  1  0  0  0
 25 27  1  0  0  0
 25 55  1  0  0  0
M  CHG  3   2  -1   3  -1   4  -1
M  END
> <s_m_source_file>
../3ryw_ligand.sdf

> <i_m_source_file_index>
1

> <s_epik_input>
W0NIM11bQ0gyXVtDSDJdW0NIMl1bQ0gyXVtDSDJdW0NIMl1bQ0gyXVtDSDJdW0NIMl1PYyhbY0hdMSlbY0hdbltjSF1jMVtDSDJdW0NIXShQKD1PKShbT0hdKVtPSF0pUCg9TykoW09IXSlbT0hd

> <s_epik_cmdline>
J2VwaWtfYXBwJywgJy1pbWFlJywgJ2xpZ2FuZF9wcm8ubWFlJywgJy1vbWFlJywgJ2xpZ2FuZF9wcmVwLm1hZScsICctbXMnLCAnMScsICctcGgnLCAnNycsICctcGh0JywgJzAuNScsICctbnQn

> <r_lp_tautomer_probability>
1

> <r_epik_Ionization_Penalty>
  0.2977

> <r_epik_Ionization_Penalty_Charging>
  0.2942

> <r_epik_Ionization_Penalty_Neutral>
  0.0035

> <r_epik_State_Penalty>
  0.2873

> <r_epik_Charging_Adjusted_Penalty>
0.581532725092021

> <i_epik_Tot_Q>
-3

> <i_epik_Tot_abs_Q>
3

$$$$
