3ryy_ligand
                    3D
 Schrodinger Suite 2020-3.
 30 30  0  0  1  0            999 V2000
   18.5170    5.7450   13.5730 N   0  0  0  0  0  0
   15.1030    0.9020   16.8800 S   0  0  0  0  0  0
   16.7630    4.5320   14.6920 C   0  0  0  0  0  0
   15.3780    4.4480   14.9410 C   0  0  0  0  0  0
   14.8680    3.3380   15.6160 C   0  0  0  0  0  0
   15.7400    2.3080   16.0770 C   0  0  0  0  0  0
   17.1160    2.4270   15.8230 C   0  0  0  0  0  0
   17.6310    3.5150   15.1390 C   0  0  0  0  0  0
   17.2660    5.7260   13.9230 C   0  0  0  0  0  0
   16.4970    6.6680   13.6900 O   0  0  0  0  0  0
   19.0250    6.8480   12.7240 C   0  0  0  0  0  0
   19.5680    8.2250   14.6180 C   0  0  0  0  0  0
   13.6560    0.9670   16.7210 O   0  0  0  0  0  0
   20.0920    7.5370   13.4110 C   0  0  0  0  0  0
   15.6430    0.9820   18.2400 O   0  0  0  0  0  0
   15.6800   -0.3700   16.1230 N   0  0  0  0  0  0
   19.1982    4.9472   13.9040 H   0  0  0  0  0  0
   14.7108    5.2435   14.6091 H   0  0  0  0  0  0
   13.7953    3.2577   15.7921 H   0  0  0  0  0  0
   17.7925    1.6467   16.1716 H   0  0  0  0  0  0
   18.7017    3.5849   14.9471 H   0  0  0  0  0  0
   19.4057    6.4367   11.7775 H   0  0  0  0  0  0
   18.2089    7.5552   12.5145 H   0  0  0  0  0  0
   20.3912    8.7447   15.1302 H   0  0  0  0  0  0
   19.1227    7.4840   15.2981 H   0  0  0  0  0  0
   18.8020    8.9560   14.3198 H   0  0  0  0  0  0
   20.8602    6.8113   13.7164 H   0  0  0  0  0  0
   20.5395    8.2833   12.7382 H   0  0  0  0  0  0
   15.3000   -1.2849   16.6011 H   0  0  0  0  0  0
   16.7788   -0.3593   16.1731 H   0  0  0  0  0  0
  1  9  1  0  0  0
  1 11  1  0  0  0
  1 17  1  0  0  0
  2  6  1  0  0  0
  2 13  2  0  0  0
  2 15  2  0  0  0
  2 16  1  0  0  0
  3  4  2  0  0  0
  3  8  1  0  0  0
  3  9  1  0  0  0
  4  5  1  0  0  0
  4 18  1  0  0  0
  5  6  2  0  0  0
  5 19  1  0  0  0
  6  7  1  0  0  0
  7  8  2  0  0  0
  7 20  1  0  0  0
  8 21  1  0  0  0
  9 10  2  0  0  0
 11 14  1  0  0  0
 11 22  1  0  0  0
 11 23  1  0  0  0
 12 14  1  0  0  0
 12 24  1  0  0  0
 12 25  1  0  0  0
 12 26  1  0  0  0
 14 27  1  0  0  0
 14 28  1  0  0  0
 16 29  1  0  0  0
 16 30  1  0  0  0
M  END
> <s_m_source_file>
../3ryy_ligand.sdf

> <i_m_source_file_index>
1

> <s_epik_input>
W0NIM11bQ0gyXVtDSDJdW05IXUMoPU8pYzFbY0hdW2NIXWMoUyg9TykoPU8pW05IMl0pW2NIXVtjSF0x

> <s_epik_cmdline>
J2VwaWtfYXBwJywgJy1pbWFlJywgJ2xpZ2FuZF9wcm8ubWFlJywgJy1vbWFlJywgJ2xpZ2FuZF9wcmVwLm1hZScsICctbXMnLCAnMScsICctcGgnLCAnNycsICctcGh0JywgJzAuNScsICctbnQn

> <r_lp_tautomer_probability>
1

> <r_epik_Ionization_Penalty>
  0.0011

> <r_epik_Ionization_Penalty_Charging>
  0.0000

> <r_epik_Ionization_Penalty_Neutral>
  0.0011

> <r_epik_State_Penalty>
 -0.0000

> <r_epik_Charging_Adjusted_Penalty>
0

> <i_epik_Tot_Q>
0

> <i_epik_Tot_abs_Q>
0

$$$$
