3rz0_ligand
                    3D
 Schrodinger Suite 2020-3.
 33 33  0  0  1  0            999 V2000
   15.3240    0.2730   16.9610 S   0  0  0  0  0  0
   18.4980    5.2960   13.4880 N   0  0  0  0  0  0
   16.6560    5.9550   13.6820 O   0  0  0  0  0  0
   16.9030    3.8300   14.8090 C   0  0  0  0  0  0
   17.2810    1.7410   15.9160 C   0  0  0  0  0  0
   17.8050    2.8440   15.2040 C   0  0  0  0  0  0
   15.9080    1.5890   16.1340 C   0  0  0  0  0  0
   15.5380    3.7430   15.0770 C   0  0  0  0  0  0
   15.0400    2.6120   15.7390 C   0  0  0  0  0  0
   17.3860    5.0480   14.0630 C   0  0  0  0  0  0
   19.8640    5.2350   13.2870 C   0  0  0  0  0  0
   13.8810    0.3040   16.8460 O   0  0  0  0  0  0
   20.0270    6.7430   13.1270 C   0  0  0  0  0  0
   15.8420    0.2550   18.2990 O   0  0  0  0  0  0
   19.7290    7.5190   14.4490 C   0  0  0  0  0  0
   15.8590   -1.0240   16.2840 N   0  0  0  0  0  0
   20.5120    8.8240   14.6280 C   0  0  0  0  0  0
   17.8674    5.8850   12.8057 H   0  0  0  0  0  0
   17.9660    0.9881   16.3059 H   0  0  0  0  0  0
   18.8678    2.9199   14.9741 H   0  0  0  0  0  0
   14.8650    4.5456   14.7752 H   0  0  0  0  0  0
   13.9731    2.5297   15.9465 H   0  0  0  0  0  0
   20.3442    4.7822   14.1670 H   0  0  0  0  0  0
   20.0769    4.6234   12.3978 H   0  0  0  0  0  0
   21.0603    6.9702   12.8260 H   0  0  0  0  0  0
   19.3321    7.1072   12.3560 H   0  0  0  0  0  0
   18.6624    7.7855   14.4852 H   0  0  0  0  0  0
   19.9775    6.8831   15.3115 H   0  0  0  0  0  0
   15.4781   -1.9034   16.8240 H   0  0  0  0  0  0
   16.9587   -1.0249   16.3111 H   0  0  0  0  0  0
   20.2323    9.2913   15.5837 H   0  0  0  0  0  0
   20.2753    9.5099   13.8013 H   0  0  0  0  0  0
   21.5905    8.6075   14.6275 H   0  0  0  0  0  0
  1  7  1  0  0  0
  1 12  2  0  0  0
  1 14  2  0  0  0
  1 16  1  0  0  0
  2 10  1  0  0  0
  2 11  1  0  0  0
  2 18  1  0  0  0
  3 10  2  0  0  0
  4  6  2  0  0  0
  4  8  1  0  0  0
  4 10  1  0  0  0
  5  6  1  0  0  0
  5  7  2  0  0  0
  5 19  1  0  0  0
  6 20  1  0  0  0
  7  9  1  0  0  0
  8  9  2  0  0  0
  8 21  1  0  0  0
  9 22  1  0  0  0
 11 13  1  0  0  0
 11 23  1  0  0  0
 11 24  1  0  0  0
 13 15  1  0  0  0
 13 25  1  0  0  0
 13 26  1  0  0  0
 15 17  1  0  0  0
 15 27  1  0  0  0
 15 28  1  0  0  0
 16 29  1  0  0  0
 16 30  1  0  0  0
 17 31  1  0  0  0
 17 32  1  0  0  0
 17 33  1  0  0  0
M  END
> <s_m_source_file>
../3rz0_ligand.sdf

> <i_m_source_file_index>
1

> <s_epik_input>
W2NIXTFbY0hdYyhTKD1PKSg9TylbTkgyXSlbY0hdW2NIXWMxQyg9TylbTkhdW0NIMl1bQ0gyXVtDSDJdW0NIM10=

> <s_epik_cmdline>
J2VwaWtfYXBwJywgJy1pbWFlJywgJ2xpZ2FuZF9wcm8ubWFlJywgJy1vbWFlJywgJ2xpZ2FuZF9wcmVwLm1hZScsICctbXMnLCAnMScsICctcGgnLCAnNycsICctcGh0JywgJzAuNScsICctbnQn

> <r_lp_tautomer_probability>
1

> <r_epik_Ionization_Penalty>
  0.0011

> <r_epik_Ionization_Penalty_Charging>
  0.0000

> <r_epik_Ionization_Penalty_Neutral>
  0.0011

> <r_epik_State_Penalty>
 -0.0000

> <r_epik_Charging_Adjusted_Penalty>
0

> <i_epik_Tot_Q>
0

> <i_epik_Tot_abs_Q>
0

$$$$
