3rz3_ligand
                    3D
 Schrodinger Suite 2020-3.
 49 50  0  0  1  0            999 V2000
   -3.8060  -38.0130  -22.0570 O   0  5  0  0  0  0
   -3.3550  -36.8190  -22.1160 C   0  0  0  0  0  0
   -3.9980  -35.7630  -23.1250 C   0  0  1  0  0  0
   -2.3860  -36.3830  -21.4260 O   0  0  0  0  0  0
   -4.3710  -36.3220  -24.5000 C   0  0  2  0  0  0
   -3.2460  -36.2250  -25.5640 C   0  0  2  0  0  0
   -2.3880  -34.9580  -25.5450 C   0  0  0  0  0  0
   -5.1580  -35.0460  -22.6270 O   0  0  0  0  0  0
   -5.5610  -35.6880  -24.9460 O   0  0  0  0  0  0
   -3.7740  -36.2110  -26.8920 N   0  0  0  0  0  0
   -3.8390  -37.2130  -27.7540 C   0  0  0  0  0  0
   -3.6230  -38.4010  -27.5590 O   0  0  0  0  0  0
   -4.3400  -36.7960  -29.1000 C   0  0  0  0  0  0
   -4.3360  -37.7690  -30.0280 O   0  0  0  0  0  0
   -5.1940  -37.0830  -30.8660 C   0  0  0  0  0  0
   -0.9740  -35.3790  -25.9690 C   0  0  0  0  0  0
   -0.1380  -35.8920  -24.9990 C   0  0  0  0  0  0
    1.1280  -36.2760  -25.3490 C   0  0  0  0  0  0
    1.5650  -36.1390  -26.6420 C   0  0  0  0  0  0
    0.7380  -35.6280  -27.6180 C   0  0  0  0  0  0
   -0.5450  -35.2570  -27.2930 C   0  0  0  0  0  0
    2.8280  -36.5880  -26.9230 C   0  0  0  0  0  0
    3.8810  -36.3650  -26.0580 C   0  0  0  0  0  0
    5.1430  -36.8540  -26.3550 C   0  0  0  0  0  0
    5.3500  -37.5990  -27.5120 C   0  0  0  0  0  0
    4.2830  -37.8120  -28.3690 C   0  0  0  0  0  0
    3.0200  -37.3250  -28.0740 C   0  0  0  0  0  0
    4.5240  -38.7120  -29.8010 Cl  0  0  0  0  0  0
    6.4610  -36.5710  -25.2850 Cl  0  0  0  0  0  0
   -3.2279  -34.9859  -23.2392 H   0  0  0  0  0  0
   -4.6251  -37.3864  -24.3886 H   0  0  0  0  0  0
   -2.6417  -37.1250  -25.3778 H   0  0  0  0  0  0
   -2.8053  -34.2220  -26.2480 H   0  0  0  0  0  0
   -2.3830  -34.5337  -24.5301 H   0  0  0  0  0  0
   -5.1206  -34.5550  -21.6434 H   0  0  0  0  0  0
   -6.4513  -35.6728  -24.3002 H   0  0  0  0  0  0
   -4.1930  -35.2827  -27.3075 H   0  0  0  0  0  0
   -5.3789  -36.4453  -29.0120 H   0  0  0  0  0  0
   -3.7103  -35.9827  -29.4899 H   0  0  0  0  0  0
   -5.3815  -37.6823  -31.7691 H   0  0  0  0  0  0
   -4.7386  -36.1231  -31.1509 H   0  0  0  0  0  0
   -6.1449  -36.8975  -30.3451 H   0  0  0  0  0  0
   -0.4808  -35.9900  -23.9690 H   0  0  0  0  0  0
    1.7943  -36.6940  -24.5944 H   0  0  0  0  0  0
    1.0985  -35.5186  -28.6408 H   0  0  0  0  0  0
   -1.2191  -34.8725  -28.0584 H   0  0  0  0  0  0
    3.7189  -35.8025  -25.1386 H   0  0  0  0  0  0
    6.3345  -38.0077  -27.7398 H   0  0  0  0  0  0
    2.1845  -37.5223  -28.7456 H   0  0  0  0  0  0
  1  2  1  0  0  0
  2  3  1  0  0  0
  2  4  2  0  0  0
  3  5  1  0  0  0
  3  8  1  0  0  0
  3 30  1  0  0  0
  5  6  1  0  0  0
  5  9  1  0  0  0
  5 31  1  0  0  0
  6  7  1  0  0  0
  6 10  1  0  0  0
  6 32  1  0  0  0
  7 16  1  0  0  0
  7 33  1  0  0  0
  7 34  1  0  0  0
  8 35  1  0  0  0
  9 36  1  0  0  0
 10 11  1  0  0  0
 10 37  1  0  0  0
 11 12  2  0  0  0
 11 13  1  0  0  0
 13 14  1  0  0  0
 13 38  1  0  0  0
 13 39  1  0  0  0
 14 15  1  0  0  0
 15 40  1  0  0  0
 15 41  1  0  0  0
 15 42  1  0  0  0
 16 17  2  0  0  0
 16 21  1  0  0  0
 17 18  1  0  0  0
 17 43  1  0  0  0
 18 19  2  0  0  0
 18 44  1  0  0  0
 19 20  1  0  0  0
 19 22  1  0  0  0
 20 21  2  0  0  0
 20 45  1  0  0  0
 21 46  1  0  0  0
 22 23  2  0  0  0
 22 27  1  0  0  0
 23 24  1  0  0  0
 23 47  1  0  0  0
 24 25  2  0  0  0
 24 29  1  0  0  0
 25 26  1  0  0  0
 25 48  1  0  0  0
 26 27  2  0  0  0
 26 28  1  0  0  0
 27 49  1  0  0  0
M  CHG  1   1  -1
M  END
> <s_m_source_file>
../3rz3_ligand.sdf

> <i_m_source_file_index>
1

> <s_epik_input>
W0NIM11PW0NIMl1DKD1PKVtOSF1bQ0BIXShbQ0BIXShbT0hdKVtDQEBIXShbT0hdKUMoPU8pW09IXSlbQ0gyXWMxW2NIXVtjSF1jKFtjSF1bY0hdMSktYzJbY0hdYyhDbClbY0hdYyhDbClbY0hdMg==

> <s_epik_cmdline>
J2VwaWtfYXBwJywgJy1pbWFlJywgJ2xpZ2FuZF9wcm8ubWFlJywgJy1vbWFlJywgJ2xpZ2FuZF9wcmVwLm1hZScsICctbXMnLCAnMScsICctcGgnLCAnNycsICctcGh0JywgJzAuNScsICctbnQn

> <r_lp_tautomer_probability>
1

> <r_epik_Ionization_Penalty>
  0.0002

> <r_epik_Ionization_Penalty_Charging>
  0.0002

> <r_epik_Ionization_Penalty_Neutral>
  0.0000

> <r_epik_State_Penalty>
 -0.0000

> <r_epik_Charging_Adjusted_Penalty>
0.000186097878010387

> <i_epik_Tot_Q>
-1

> <i_epik_Tot_abs_Q>
1

$$$$
