3rz7_ligand
                    3D
 Schrodinger Suite 2020-3.
 39 39  0  0  1  0            999 V2000
   15.0510    0.9480   16.8880 S   0  0  0  0  0  0
   18.3700    5.7220   13.4820 N   0  0  0  0  0  0
   16.3390    6.6840   13.5580 O   0  0  0  0  0  0
   16.5900    4.5640   14.6100 C   0  0  0  0  0  0
   17.0480    2.4930   15.8100 C   0  0  0  0  0  0
   17.4960    3.6100   15.0650 C   0  0  0  0  0  0
   15.6600    2.2750   16.0410 C   0  0  0  0  0  0
   15.2030    4.3820   14.8290 C   0  0  0  0  0  0
   14.7870    3.2730   15.5660 C   0  0  0  0  0  0
   17.0930    5.7180   13.8350 C   0  0  0  0  0  0
   20.5340    7.2610   14.2990 F   0  0  0  0  0  0
   18.8460    9.5170   12.1360 F   0  0  0  0  0  0
   20.7450    9.8020   15.2580 F   0  0  0  0  0  0
   21.1890   11.3280   12.3680 F   0  0  0  0  0  0
   22.9570   11.2520   15.5260 F   0  0  0  0  0  0
   18.7020    8.2750   14.5630 F   0  0  0  0  0  0
   20.8620    8.8050   11.9730 F   0  0  0  0  0  0
   19.2380   11.0390   14.0170 F   0  0  0  0  0  0
   22.2470    9.5790   13.6240 F   0  0  0  0  0  0
   21.2400   12.5940   14.9990 F   0  0  0  0  0  0
   23.0240   12.5060   13.7780 F   0  0  0  0  0  0
   18.9010    6.8430   12.6980 C   0  0  0  0  0  0
   13.6240    0.9430   16.7790 O   0  0  0  0  0  0
   19.5290    7.8470   13.6550 C   0  0  0  0  0  0
   15.5970    1.0270   18.2470 O   0  0  0  0  0  0
   19.9050    9.1070   12.8930 C   0  0  0  0  0  0
   15.6750   -0.3490   16.2170 N   0  0  0  0  0  0
   20.2680   10.1760   14.0010 C   0  0  0  0  0  0
   21.5490   10.7620   13.5450 C   0  0  0  0  0  0
   22.2020   11.7900   14.5230 C   0  0  0  0  0  0
   19.0311    4.8923   13.7728 H   0  0  0  0  0  0
   17.7764    1.7892   16.2129 H   0  0  0  0  0  0
   18.5577    3.7240   14.8460 H   0  0  0  0  0  0
   14.4775    5.0916   14.4312 H   0  0  0  0  0  0
   13.7244    3.1730   15.7872 H   0  0  0  0  0  0
   19.6593    6.4709   11.9933 H   0  0  0  0  0  0
   18.0825    7.3191   12.1382 H   0  0  0  0  0  0
   15.3056   -1.2449   16.7375 H   0  0  0  0  0  0
   16.7718   -0.3083   16.2905 H   0  0  0  0  0  0
  1  7  1  0  0  0
  1 23  2  0  0  0
  1 25  2  0  0  0
  1 27  1  0  0  0
  2 10  1  0  0  0
  2 22  1  0  0  0
  2 31  1  0  0  0
  3 10  2  0  0  0
  4  6  2  0  0  0
  4  8  1  0  0  0
  4 10  1  0  0  0
  5  6  1  0  0  0
  5  7  2  0  0  0
  5 32  1  0  0  0
  6 33  1  0  0  0
  7  9  1  0  0  0
  8  9  2  0  0  0
  8 34  1  0  0  0
  9 35  1  0  0  0
 11 24  1  0  0  0
 12 26  1  0  0  0
 13 28  1  0  0  0
 14 29  1  0  0  0
 15 30  1  0  0  0
 16 24  1  0  0  0
 17 26  1  0  0  0
 18 28  1  0  0  0
 19 29  1  0  0  0
 20 30  1  0  0  0
 21 30  1  0  0  0
 22 24  1  0  0  0
 22 36  1  0  0  0
 22 37  1  0  0  0
 24 26  1  0  0  0
 26 28  1  0  0  0
 27 38  1  0  0  0
 27 39  1  0  0  0
 28 29  1  0  0  0
 29 30  1  0  0  0
M  END
> <s_m_source_file>
../3rz7_ligand.sdf

> <i_m_source_file_index>
1

> <s_epik_input>
W2NIXTFbY0hdYyhTKD1PKSg9TylbTkgyXSlbY0hdW2NIXWMxQyg9TylbTkhdW0NIMl1DKEYpKEYpQyhGKShGKUMoRikoRilDKEYpKEYpQyhGKShGKUY=

> <s_epik_cmdline>
J2VwaWtfYXBwJywgJy1pbWFlJywgJ2xpZ2FuZF9wcm8ubWFlJywgJy1vbWFlJywgJ2xpZ2FuZF9wcmVwLm1hZScsICctbXMnLCAnMScsICctcGgnLCAnNycsICctcGh0JywgJzAuNScsICctbnQn

> <r_lp_tautomer_probability>
1

> <r_epik_Ionization_Penalty>
  0.0013

> <r_epik_Ionization_Penalty_Charging>
  0.0000

> <r_epik_Ionization_Penalty_Neutral>
  0.0013

> <r_epik_State_Penalty>
 -0.0000

> <r_epik_Charging_Adjusted_Penalty>
0

> <i_epik_Tot_Q>
0

> <i_epik_Tot_abs_Q>
0

$$$$
