3rz8_ligand
                    3D
 Schrodinger Suite 2020-3.
 39 39  0  0  1  0            999 V2000
   15.0160    0.9640   16.8720 S   0  0  0  0  0  0
   18.4590    5.6640   13.4770 N   0  0  0  0  0  0
   16.4920    6.7190   13.6000 O   0  0  0  0  0  0
   16.6380    4.5780   14.6410 C   0  0  0  0  0  0
   14.7570    3.3500   15.5610 C   0  0  0  0  0  0
   15.2410    4.4420   14.8480 C   0  0  0  0  0  0
   15.6240    2.3200   16.0760 C   0  0  0  0  0  0
   17.5200    3.5480   15.0500 C   0  0  0  0  0  0
   17.0040    2.4820   15.7990 C   0  0  0  0  0  0
   17.1960    5.7220   13.8730 C   0  0  0  0  0  0
   19.0170    6.7460   12.6400 C   0  0  0  0  0  0
   13.5760    1.0100   16.7030 O   0  0  0  0  0  0
   20.1770    7.2400   13.4320 C   0  0  0  0  0  0
   15.5630    1.0290   18.2120 O   0  0  0  0  0  0
   19.6820    8.3390   14.3240 C   0  0  0  0  0  0
   15.6550   -0.2720   16.1670 N   0  0  0  0  0  0
   19.9090    9.5710   13.4730 C   0  0  0  0  0  0
   19.4010   10.8150   14.1690 C   0  0  0  0  0  0
   19.1790   11.9580   13.1830 C   0  0  0  0  0  0
   19.0918    4.8132   13.7698 H   0  0  0  0  0  0
   13.6842    3.2704   15.7365 H   0  0  0  0  0  0
   14.5521    5.1877   14.4513 H   0  0  0  0  0  0
   18.5774    3.5838   14.7878 H   0  0  0  0  0  0
   17.7001    1.7392   16.1886 H   0  0  0  0  0  0
   19.3211    6.3360   11.6656 H   0  0  0  0  0  0
   18.2535    7.5233   12.4886 H   0  0  0  0  0  0
   20.5890    6.4154   14.0322 H   0  0  0  0  0  0
   20.9518    7.6197   12.7497 H   0  0  0  0  0  0
   18.6209    8.1701   14.5596 H   0  0  0  0  0  0
   20.2675    8.3472   15.2552 H   0  0  0  0  0  0
   15.2939   -1.1943   16.6455 H   0  0  0  0  0  0
   16.7502   -0.2182   16.2542 H   0  0  0  0  0  0
   20.9854    9.6904   13.2804 H   0  0  0  0  0  0
   19.3757    9.4599   12.5174 H   0  0  0  0  0  0
   18.4445   10.5930   14.6648 H   0  0  0  0  0  0
   20.1360   11.1413   14.9195 H   0  0  0  0  0  0
   18.8109   12.8424   13.7237 H   0  0  0  0  0  0
   18.4372   11.6537   12.4299 H   0  0  0  0  0  0
   20.1288   12.2019   12.6846 H   0  0  0  0  0  0
  1  7  1  0  0  0
  1 12  2  0  0  0
  1 14  2  0  0  0
  1 16  1  0  0  0
  2 10  1  0  0  0
  2 11  1  0  0  0
  2 20  1  0  0  0
  3 10  2  0  0  0
  4  6  2  0  0  0
  4  8  1  0  0  0
  4 10  1  0  0  0
  5  6  1  0  0  0
  5  7  2  0  0  0
  5 21  1  0  0  0
  6 22  1  0  0  0
  7  9  1  0  0  0
  8  9  2  0  0  0
  8 23  1  0  0  0
  9 24  1  0  0  0
 11 13  1  0  0  0
 11 25  1  0  0  0
 11 26  1  0  0  0
 13 15  1  0  0  0
 13 27  1  0  0  0
 13 28  1  0  0  0
 15 17  1  0  0  0
 15 29  1  0  0  0
 15 30  1  0  0  0
 16 31  1  0  0  0
 16 32  1  0  0  0
 17 18  1  0  0  0
 17 33  1  0  0  0
 17 34  1  0  0  0
 18 19  1  0  0  0
 18 35  1  0  0  0
 18 36  1  0  0  0
 19 37  1  0  0  0
 19 38  1  0  0  0
 19 39  1  0  0  0
M  END
> <s_m_source_file>
../3rz8_ligand.sdf

> <i_m_source_file_index>
1

> <s_epik_input>
W2NIXTFbY0hdYyhTKD1PKSg9TylbTkgyXSlbY0hdW2NIXWMxQyg9TylbTkhdW0NIMl1bQ0gyXVtDSDJdW0NIMl1bQ0gyXVtDSDNd

> <s_epik_cmdline>
J2VwaWtfYXBwJywgJy1pbWFlJywgJ2xpZ2FuZF9wcm8ubWFlJywgJy1vbWFlJywgJ2xpZ2FuZF9wcmVwLm1hZScsICctbXMnLCAnMScsICctcGgnLCAnNycsICctcGh0JywgJzAuNScsICctbnQn

> <r_lp_tautomer_probability>
1

> <r_epik_Ionization_Penalty>
  0.0011

> <r_epik_Ionization_Penalty_Charging>
  0.0000

> <r_epik_Ionization_Penalty_Neutral>
  0.0011

> <r_epik_State_Penalty>
 -0.0000

> <r_epik_Charging_Adjusted_Penalty>
0

> <i_epik_Tot_Q>
0

> <i_epik_Tot_abs_Q>
0

$$$$
