3rz9_ligand
                    3D
 Schrodinger Suite 2020-3.
189189  0  0  1  0            999 V2000
   37.7600   69.6320   46.8560 N   0  3  0  0  0  0
   37.8900   70.2390   48.1650 C   0  0  2  0  0  0
   38.1560   71.7160   47.9650 C   0  0  0  0  0  0
   39.1440   72.0730   47.3550 O   0  0  0  0  0  0
   39.0250   69.5770   48.9410 C   0  0  0  0  0  0
   37.2700   72.5800   48.4460 N   0  0  0  0  0  0
   36.2370   72.2580   49.4070 C   0  0  0  0  0  0
   35.7900   73.5350   50.0830 C   0  0  0  0  0  0
   35.9270   74.5930   49.5100 O   0  0  0  0  0  0
   35.2580   73.4460   51.2930 N   0  0  0  0  0  0
   34.9150   74.6170   52.0890 C   0  0  2  0  0  0
   36.0740   75.5890   52.2930 C   0  0  0  0  0  0
   37.1840   75.2600   51.9330 O   0  0  0  0  0  0
   34.8350   74.0380   53.4600 C   0  0  0  0  0  0
   35.7640   72.9780   53.4480 C   0  0  0  0  0  0
   35.9460   72.4550   52.1030 C   0  0  0  0  0  0
   35.8530   76.7810   52.8330 N   0  0  0  0  0  0
   36.8390   77.8450   52.6490 C   0  0  2  0  0  0
   37.9890   77.6450   53.5250 C   0  0  0  0  0  0
   37.8480   77.1820   54.6020 O   0  0  0  0  0  0
   36.3760   79.2290   53.0470 C   0  0  2  0  0  0
   35.2100   79.1410   53.8610 O   0  0  0  0  0  0
   36.1710   80.0860   51.8350 C   0  0  0  0  0  0
   39.1350   78.0410   53.0420 N   0  0  0  0  0  0
   40.3350   77.9010   53.7910 C   0  0  2  0  0  0
   40.4410   78.9600   54.8420 C   0  0  0  0  0  0
   40.9630   78.7260   55.8730 O   0  0  0  0  0  0
   41.4800   77.9600   52.8870 C   0  0  0  0  0  0
   39.9910   80.1460   54.5250 N   0  0  0  0  0  0
   40.1280   81.2520   55.4100 C   0  0  2  0  0  0
   38.8090   81.9140   55.6440 C   0  0  0  0  0  0
   37.9500   81.8810   54.8120 O   0  0  0  0  0  0
   41.1680   82.2200   54.9050 C   0  0  0  0  0  0
   42.4540   81.5810   54.6340 C   0  0  0  0  0  0
   43.4390   82.5440   54.2210 C   0  0  0  0  0  0
   44.6300   81.8810   53.6950 C   0  0  0  0  0  0
   45.5350   82.8070   53.0660 N   0  3  0  0  0  0
   38.6500   82.4710   56.8200 N   0  0  0  0  0  0
   37.4000   83.0520   57.2180 C   0  0  2  0  0  0
   37.6420   84.4200   57.7710 C   0  0  0  0  0  0
   38.4320   84.6080   58.6410 O   0  0  0  0  0  0
   36.7010   82.2020   58.2710 C   0  0  0  0  0  0
   35.9700   81.0090   57.7960 C   0  0  0  0  0  0
   35.5640   80.1620   58.9350 C   0  0  0  0  0  0
   34.9020   78.9130   58.4850 C   0  0  0  0  0  0
   34.2480   78.1460   59.5440 N   0  3  0  0  0  0
   36.9160   85.3760   57.2470 N   0  0  0  0  0  0
   36.9400   86.7080   57.8010 C   0  0  2  0  0  0
   35.9070   86.7930   58.9200 C   0  0  0  0  0  0
   34.7970   86.3530   58.7410 O   0  0  0  0  0  0
   36.6610   87.7180   56.7200 C   0  0  0  0  0  0
   36.8360   89.1610   57.1620 C   0  0  0  0  0  0
   38.1410   89.6990   56.7100 C   0  0  0  0  0  0
   35.6820   89.9480   56.5830 C   0  0  0  0  0  0
   36.2990   87.2970   60.0900 N   0  0  0  0  0  0
   35.3810   87.5230   61.1500 C   0  0  2  0  0  0
   34.7210   88.9060   61.0450 C   0  0  0  0  0  0
   35.3750   89.9470   61.0260 O   0  0  0  0  0  0
   36.0840   87.3480   62.4720 C   0  0  0  0  0  0
   35.1160   87.3470   63.5570 C   0  0  0  0  0  0
   35.7410   87.4920   64.8450 C   0  0  0  0  0  0
   34.6480   87.3380   65.8570 C   0  0  0  0  0  0
   35.3390   87.4210   67.0550 N   0  3  0  0  0  0
   33.4180   88.9040   60.9030 N   0  0  0  0  0  0
   32.6860   90.1370   60.6390 C   0  0  2  0  0  0
   31.9030   90.5600   61.8800 C   0  0  0  0  0  0
   31.5490   91.7030   62.0140 O   0  0  0  0  0  0
   31.7420   90.0130   59.4030 C   0  0  2  0  0  0
   30.8380   88.8950   59.5520 O   0  0  0  0  0  0
   32.5430   89.8280   58.1740 C   0  0  0  0  0  0
   31.6800   89.6340   62.8090 N   0  0  0  0  0  0
   30.8250   89.8730   63.9800 C   0  0  2  0  0  0
   31.4270   89.1770   65.1530 C   0  0  0  0  0  0
   32.1260   88.1930   64.9620 O   0  0  0  0  0  0
   29.4800   89.1770   63.8280 C   0  0  0  0  0  0
   28.7940   89.3080   62.5210 C   0  0  0  0  0  0
   27.3230   89.4630   62.7590 C   0  0  0  0  0  0
   26.6950   88.4260   63.1300 O   0  0  0  0  0  0
   26.8210   90.6200   62.6210 O   0  0  0  0  0  0
   31.0510   89.6220   66.3530 N   0  0  0  0  0  0
   31.5090   89.0440   67.6140 C   0  0  2  0  0  0
   30.9180   87.6750   67.9460 C   0  0  0  0  0  0
   30.1070   87.1180   67.1780 O   0  0  0  0  0  0
   31.2370   90.0370   68.7380 C   0  0  0  0  0  0
   32.0190   89.7280   70.0160 C   0  0  0  0  0  0
   32.5250   90.9840   70.7320 C   0  0  0  0  0  0
   32.5600   92.1000   70.1470 O   0  0  0  0  0  0
   32.9340   90.8110   72.0050 N   0  0  0  0  0  0
   31.2552   87.0979   69.0141 O   0  0  0  0  0  0
   36.9396   70.1171   46.3068 H   0  0  0  0  0  0
   37.5420   68.5598   46.9691 H   0  0  0  0  0  0
   38.6997   69.7583   46.2983 H   0  0  0  0  0  0
   36.9465   70.0846   48.7091 H   0  0  0  0  0  0
   38.8051   68.5071   49.0710 H   0  0  0  0  0  0
   39.1217   70.0540   49.9275 H   0  0  0  0  0  0
   39.9664   69.6928   48.3839 H   0  0  0  0  0  0
   37.3618   73.6061   48.0603 H   0  0  0  0  0  0
   35.3863   71.7917   48.8885 H   0  0  0  0  0  0
   36.6378   71.5589   50.1558 H   0  0  0  0  0  0
   34.0452   75.0929   51.6125 H   0  0  0  0  0  0
   34.2583   74.2536   54.3716 H   0  0  0  0  0  0
   36.2415   72.6546   54.3847 H   0  0  0  0  0  0
   35.4754   71.4715   51.9572 H   0  0  0  0  0  0
   37.0026   72.4042   51.8012 H   0  0  0  0  0  0
   34.9390   76.9727   53.4143 H   0  0  0  0  0  0
   37.0593   77.7566   51.5749 H   0  0  0  0  0  0
   37.1131   79.7282   53.6932 H   0  0  0  0  0  0
   35.2268   78.5412   54.7829 H   0  0  0  0  0  0
   37.0999   80.1173   51.2467 H   0  0  0  0  0  0
   35.9007   81.1053   52.1481 H   0  0  0  0  0  0
   35.3619   79.6645   51.2205 H   0  0  0  0  0  0
   39.1625   78.4893   52.0379 H   0  0  0  0  0  0
   40.2948   76.9094   54.2655 H   0  0  0  0  0  0
   41.3843   77.1750   52.1224 H   0  0  0  0  0  0
   42.4068   77.8041   53.4586 H   0  0  0  0  0  0
   41.5115   78.9453   52.3990 H   0  0  0  0  0  0
   39.4979   80.2790   53.5507 H   0  0  0  0  0  0
   40.4706   80.8205   56.3620 H   0  0  0  0  0  0
   40.8176   82.6791   53.9688 H   0  0  0  0  0  0
   41.3352   83.0043   55.6579 H   0  0  0  0  0  0
   42.8141   81.0808   55.5451 H   0  0  0  0  0  0
   42.3326   80.8384   53.8316 H   0  0  0  0  0  0
   43.0163   83.1866   53.4346 H   0  0  0  0  0  0
   43.7308   83.1626   55.0825 H   0  0  0  0  0  0
   45.1663   81.3843   54.5170 H   0  0  0  0  0  0
   44.3323   81.1323   52.9461 H   0  0  0  0  0  0
   46.4125   82.2623   52.6875 H   0  0  0  0  0  0
   45.8590   83.5591   53.8004 H   0  0  0  0  0  0
   45.0250   83.3072   52.2295 H   0  0  0  0  0  0
   39.5074   82.4854   57.5090 H   0  0  0  0  0  0
   36.7969   83.0999   56.2993 H   0  0  0  0  0  0
   37.4433   81.8258   58.9904 H   0  0  0  0  0  0
   35.9551   82.8135   58.7998 H   0  0  0  0  0  0
   35.0702   81.3246   57.2476 H   0  0  0  0  0  0
   36.6191   80.4227   57.1290 H   0  0  0  0  0  0
   36.4521   79.8890   59.5238 H   0  0  0  0  0  0
   34.8585   80.7166   59.5712 H   0  0  0  0  0  0
   34.1249   79.1559   57.7453 H   0  0  0  0  0  0
   35.6482   78.2468   58.0276 H   0  0  0  0  0  0
   33.7893   77.2437   59.1134 H   0  0  0  0  0  0
   33.4697   78.7632   60.0165 H   0  0  0  0  0  0
   34.9930   77.8541   60.2988 H   0  0  0  0  0  0
   36.2832   85.1543   56.3750 H   0  0  0  0  0  0
   37.9524   86.8876   58.1920 H   0  0  0  0  0  0
   37.3473   87.5515   55.8767 H   0  0  0  0  0  0
   35.6224   87.6081   56.3747 H   0  0  0  0  0  0
   36.8539   89.2488   58.2583 H   0  0  0  0  0  0
   38.9550   89.1038   57.1495 H   0  0  0  0  0  0
   38.2373   90.7463   57.0323 H   0  0  0  0  0  0
   38.1992   89.6461   55.6128 H   0  0  0  0  0  0
   34.7324   89.5218   56.9388 H   0  0  0  0  0  0
   35.7180   89.8973   55.4848 H   0  0  0  0  0  0
   35.7561   90.9974   56.9042 H   0  0  0  0  0  0
   37.3637   87.5392   60.2234 H   0  0  0  0  0  0
   34.6166   86.7419   61.0251 H   0  0  0  0  0  0
   36.6289   86.3925   62.4738 H   0  0  0  0  0  0
   36.7935   88.1750   62.6223 H   0  0  0  0  0  0
   34.4137   88.1829   63.4226 H   0  0  0  0  0  0
   34.5608   86.3974   63.5522 H   0  0  0  0  0  0
   36.5090   86.7144   64.9695 H   0  0  0  0  0  0
   36.2096   88.4847   64.9155 H   0  0  0  0  0  0
   33.9137   88.1470   65.7295 H   0  0  0  0  0  0
   34.1516   86.3666   65.7156 H   0  0  0  0  0  0
   34.6335   87.3202   67.8929 H   0  0  0  0  0  0
   35.8470   88.3946   67.1185 H   0  0  0  0  0  0
   36.0850   86.6142   67.1046 H   0  0  0  0  0  0
   32.8766   87.9501   60.9863 H   0  0  0  0  0  0
   33.4729   90.8756   60.4263 H   0  0  0  0  0  0
   31.1069   90.9034   59.2852 H   0  0  0  0  0  0
   30.1545   88.8513   60.4127 H   0  0  0  0  0  0
   33.2333   90.6762   58.0551 H   0  0  0  0  0  0
   31.8724   89.7762   57.3036 H   0  0  0  0  0  0
   33.1192   88.8940   58.2490 H   0  0  0  0  0  0
   32.1665   88.6568   62.6735 H   0  0  0  0  0  0
   30.7500   90.9658   64.0805 H   0  0  0  0  0  0
   29.6067   88.0958   63.9863 H   0  0  0  0  0  0
   28.7744   89.5762   64.5715 H   0  0  0  0  0  0
   29.1802   90.1912   61.9911 H   0  0  0  0  0  0
   28.9803   88.4076   61.9172 H   0  0  0  0  0  0
   25.7448   90.7759   62.7867 H   0  0  0  0  0  0
   30.3556   90.4743   66.3591 H   0  0  0  0  0  0
   32.5850   88.8795   67.4552 H   0  0  0  0  0  0
   31.5208   91.0481   68.4107 H   0  0  0  0  0  0
   30.1666   90.0205   68.9909 H   0  0  0  0  0  0
   31.3720   89.1827   70.7189 H   0  0  0  0  0  0
   32.8952   89.1103   69.7695 H   0  0  0  0  0  0
   32.8823   89.8149   72.4687 H   0  0  0  0  0  0
   33.3194   91.6660   72.5799 H   0  0  0  0  0  0
   30.8355   86.1119   69.2627 H   0  0  0  0  0  0
  1  2  1  0  0  0
  1 90  1  0  0  0
  1 91  1  0  0  0
  1 92  1  0  0  0
  2  3  1  0  0  0
  2  5  1  0  0  0
  2 93  1  0  0  0
  3  4  2  0  0  0
  3  6  1  0  0  0
  5 94  1  0  0  0
  5 95  1  0  0  0
  5 96  1  0  0  0
  6  7  1  0  0  0
  6 97  1  0  0  0
  7  8  1  0  0  0
  7 98  1  0  0  0
  7 99  1  0  0  0
  8  9  2  0  0  0
  8 10  1  0  0  0
 10 11  1  0  0  0
 10 16  1  0  0  0
 11 12  1  0  0  0
 11 14  1  0  0  0
 11100  1  0  0  0
 12 13  2  0  0  0
 12 17  1  0  0  0
 14 15  2  0  0  0
 14101  1  0  0  0
 15 16  1  0  0  0
 15102  1  0  0  0
 16103  1  0  0  0
 16104  1  0  0  0
 17 18  1  0  0  0
 17105  1  0  0  0
 18 19  1  0  0  0
 18 21  1  0  0  0
 18106  1  0  0  0
 19 20  2  0  0  0
 19 24  1  0  0  0
 21 22  1  0  0  0
 21 23  1  0  0  0
 21107  1  0  0  0
 22108  1  0  0  0
 23109  1  0  0  0
 23110  1  0  0  0
 23111  1  0  0  0
 24 25  1  0  0  0
 24112  1  0  0  0
 25 26  1  0  0  0
 25 28  1  0  0  0
 25113  1  0  0  0
 26 27  2  0  0  0
 26 29  1  0  0  0
 28114  1  0  0  0
 28115  1  0  0  0
 28116  1  0  0  0
 29 30  1  0  0  0
 29117  1  0  0  0
 30 31  1  0  0  0
 30 33  1  0  0  0
 30118  1  0  0  0
 31 32  2  0  0  0
 31 38  1  0  0  0
 33 34  1  0  0  0
 33119  1  0  0  0
 33120  1  0  0  0
 34 35  1  0  0  0
 34121  1  0  0  0
 34122  1  0  0  0
 35 36  1  0  0  0
 35123  1  0  0  0
 35124  1  0  0  0
 36 37  1  0  0  0
 36125  1  0  0  0
 36126  1  0  0  0
 37127  1  0  0  0
 37128  1  0  0  0
 37129  1  0  0  0
 38 39  1  0  0  0
 38130  1  0  0  0
 39 40  1  0  0  0
 39 42  1  0  0  0
 39131  1  0  0  0
 40 41  2  0  0  0
 40 47  1  0  0  0
 42 43  1  0  0  0
 42132  1  0  0  0
 42133  1  0  0  0
 43 44  1  0  0  0
 43134  1  0  0  0
 43135  1  0  0  0
 44 45  1  0  0  0
 44136  1  0  0  0
 44137  1  0  0  0
 45 46  1  0  0  0
 45138  1  0  0  0
 45139  1  0  0  0
 46140  1  0  0  0
 46141  1  0  0  0
 46142  1  0  0  0
 47 48  1  0  0  0
 47143  1  0  0  0
 48 49  1  0  0  0
 48 51  1  0  0  0
 48144  1  0  0  0
 49 50  2  0  0  0
 49 55  1  0  0  0
 51 52  1  0  0  0
 51145  1  0  0  0
 51146  1  0  0  0
 52 53  1  0  0  0
 52 54  1  0  0  0
 52147  1  0  0  0
 53148  1  0  0  0
 53149  1  0  0  0
 53150  1  0  0  0
 54151  1  0  0  0
 54152  1  0  0  0
 54153  1  0  0  0
 55 56  1  0  0  0
 55154  1  0  0  0
 56 57  1  0  0  0
 56 59  1  0  0  0
 56155  1  0  0  0
 57 58  2  0  0  0
 57 64  1  0  0  0
 59 60  1  0  0  0
 59156  1  0  0  0
 59157  1  0  0  0
 60 61  1  0  0  0
 60158  1  0  0  0
 60159  1  0  0  0
 61 62  1  0  0  0
 61160  1  0  0  0
 61161  1  0  0  0
 62 63  1  0  0  0
 62162  1  0  0  0
 62163  1  0  0  0
 63164  1  0  0  0
 63165  1  0  0  0
 63166  1  0  0  0
 64 65  1  0  0  0
 64167  1  0  0  0
 65 66  1  0  0  0
 65 68  1  0  0  0
 65168  1  0  0  0
 66 67  2  0  0  0
 66 71  1  0  0  0
 68 69  1  0  0  0
 68 70  1  0  0  0
 68169  1  0  0  0
 69170  1  0  0  0
 70171  1  0  0  0
 70172  1  0  0  0
 70173  1  0  0  0
 71 72  1  0  0  0
 71174  1  0  0  0
 72 73  1  0  0  0
 72 75  1  0  0  0
 72175  1  0  0  0
 73 74  2  0  0  0
 73 80  1  0  0  0
 75 76  1  0  0  0
 75176  1  0  0  0
 75177  1  0  0  0
 76 77  1  0  0  0
 76178  1  0  0  0
 76179  1  0  0  0
 77 78  2  0  0  0
 77 79  1  0  0  0
 79180  1  0  0  0
 80 81  1  0  0  0
 80181  1  0  0  0
 81 82  1  0  0  0
 81 84  1  0  0  0
 81182  1  0  0  0
 82 83  2  0  0  0
 82 89  1  0  0  0
 84 85  1  0  0  0
 84183  1  0  0  0
 84184  1  0  0  0
 85 86  1  0  0  0
 85185  1  0  0  0
 85186  1  0  0  0
 86 87  2  0  0  0
 86 88  1  0  0  0
 88187  1  0  0  0
 88188  1  0  0  0
 89189  1  0  0  0
M  CHG  4   1   1  37   1  46   1  63   1
M  END
> <s_m_source_file>
../3rz9_ligand.sdf

> <i_m_source_file_index>
1

> <s_epik_input>
W05IMytdW0NAQEhdKFtDSDNdKUMoPU8pW05IXVtDSDJdQyg9TylOMVtDQEBIXShbQ0hdPVtDSF1bQ0gyXTEpQyg9TylbTkhdW0NAQEhdKFtDQEhdKFtPSF0pW0NIM10pQyg9TylbTkhdW0NAQEhdKFtDSDNdKUMoPU8pW05IXVtDQEBIXShbQ0gyXVtDSDJdW0NIMl1bQ0gyXVtOSDMrXSlDKD1PKVtOSF1bQ0BASF0oW0NIMl1bQ0gyXVtDSDJdW0NIMl1bTkgzK10pQyg9TylbTkhdW0NAQEhdKFtDSDJdW0NIXShbQ0gzXSlbQ0gzXSlDKD1PKVtOSF1bQ0BASF0oW0NIMl1bQ0gyXVtDSDJdW0NIMl1bTkgzK10pQyg9TylbTkhdW0NAQEhdKFtDQEhdKFtPSF0pW0NIM10pQyg9TylbTkhdW0NAQEhdKFtDSDJdW0NIMl1DKD1PKVtPSF0pQyg9TylbTkhdW0NASF0oQyg9TylbT0hdKVtDSDJdW0NIMl1DKD1PKVtOSDJd

> <s_epik_cmdline>
J2VwaWtfYXBwJywgJy1pbWFlJywgJ2xpZ2FuZF9wcm8ubWFlJywgJy1vbWFlJywgJ2xpZ2FuZF9wcmVwLm1hZScsICctbXMnLCAnMScsICctcGgnLCAnNycsICctcGh0JywgJzAuNScsICctbnQn

> <s_epik_pKa_notes>
Molecule size exceeds maximum supported for generating protonation states

$$$$
