3rzi_ligand
                    3D
 Schrodinger Suite 2020-3.
 27 28  0  0  1  0            999 V2000
  -65.3320   93.2790   -7.7920 N   0  3  0  0  0  0
  -65.3910   94.6330   -7.1790 C   0  0  2  0  0  0
  -66.4120   94.7010   -6.0470 C   0  0  0  0  0  0
  -67.2720   93.8480   -5.8490 O   0  5  0  0  0  0
  -65.7350   95.6790   -8.2270 C   0  0  0  0  0  0
  -66.9860   95.3660   -8.9770 C   0  0  0  0  0  0
  -67.1360   94.4570   -9.9850 C   0  0  0  0  0  0
  -68.2690   95.9550   -8.7730 C   0  0  0  0  0  0
  -68.4390   94.4470  -10.4240 N   0  3  0  0  0  0
  -69.1600   95.3390   -9.6780 C   0  0  0  0  0  0
  -68.7620   96.9090   -7.8800 C   0  0  0  0  0  0
  -70.5140   95.6710   -9.7360 C   0  0  0  0  0  0
  -70.1060   97.2350   -7.9350 C   0  0  0  0  0  0
  -70.9640   96.6280   -8.8670 C   0  0  0  0  0  0
  -66.4390   95.6830   -5.3330 O   0  0  0  0  0  0
  -65.0822   92.5372   -7.0191 H   0  0  0  0  0  0
  -64.5611   93.2650   -8.5765 H   0  0  0  0  0  0
  -66.3091   93.0336   -8.2337 H   0  0  0  0  0  0
  -64.3859   94.8177   -6.7719 H   0  0  0  0  0  0
  -65.8743   96.6550   -7.7390 H   0  0  0  0  0  0
  -64.9163   95.7483   -8.9584 H   0  0  0  0  0  0
  -66.2732   93.8655  -10.3251 H   0  0  0  0  0  0
  -68.1025   97.3865   -7.1553 H   0  0  0  0  0  0
  -71.1863   95.1877  -10.4448 H   0  0  0  0  0  0
  -70.5058   97.9760   -7.2428 H   0  0  0  0  0  0
  -72.0120   96.9259   -8.8989 H   0  0  0  0  0  0
  -68.7357   93.7850  -11.2509 H   0  0  0  0  0  0
  1  2  1  0  0  0
  1 16  1  0  0  0
  1 17  1  0  0  0
  1 18  1  0  0  0
  2  3  1  0  0  0
  2  5  1  0  0  0
  2 19  1  0  0  0
  3  4  1  0  0  0
  3 15  2  0  0  0
  5  6  1  0  0  0
  5 20  1  0  0  0
  5 21  1  0  0  0
  6  7  2  0  0  0
  6  8  1  0  0  0
  7  9  1  0  0  0
  7 22  1  0  0  0
  8 10  2  0  0  0
  8 11  1  0  0  0
  9 10  1  0  0  0
  9 27  1  0  0  0
 10 12  1  0  0  0
 11 13  2  0  0  0
 11 23  1  0  0  0
 12 14  2  0  0  0
 12 24  1  0  0  0
 13 14  1  0  0  0
 13 25  1  0  0  0
 14 26  1  0  0  0
M  CHG  3   1   1   4  -1   9   1
M  END
> <s_m_source_file>
../3rzi_ligand.sdf

> <i_m_source_file_index>
1

> <s_epik_input>
W09IXUMoPU8pW0NAQEhdKFtOSDMrXSlbQ0gyXWMxW2NIXVtuSF1jKGMxMilbY0hdW2NIXVtjSF1bY0hdMg==

> <s_epik_cmdline>
J2VwaWtfYXBwJywgJy1pbWFlJywgJ2xpZ2FuZF9wcm8ubWFlJywgJy1vbWFlJywgJ2xpZ2FuZF9wcmVwLm1hZScsICctbXMnLCAnMScsICctcGgnLCAnNycsICctcGh0JywgJzAuNScsICctbnQn

> <r_lp_tautomer_probability>
1

> <r_epik_Ionization_Penalty>
  0.0030

> <r_epik_Ionization_Penalty_Charging>
  0.0030

> <r_epik_Ionization_Penalty_Neutral>
  0.0000

> <r_epik_State_Penalty>
 -0.0000

> <r_epik_Charging_Adjusted_Penalty>
0.00304110655313935

> <i_epik_Tot_Q>
1

> <i_epik_Tot_abs_Q>
3

$$$$
