3s00_ligand
                    3D
 Schrodinger Suite 2020-3.
 30 31  0  0  1  0            999 V2000
  -81.2810   99.2500  -57.3380 Cl  0  0  0  0  0  0
  -78.0420  104.1110  -64.1900 N   0  0  0  0  0  0
  -78.9680  104.1980  -63.1860 C   0  0  0  0  0  0
  -79.3860  105.4660  -63.0490 N   0  0  0  0  0  0
  -79.3220  103.0690  -62.4950 C   0  0  0  0  0  0
  -80.2710  102.9450  -61.3960 C   0  0  0  0  0  0
  -80.4500  101.6540  -60.6680 C   0  0  0  0  0  0
  -80.9120  103.9510  -61.0510 O   0  0  0  0  0  0
  -78.4250  101.7790  -63.1500 S   0  0  0  0  0  0
  -77.6550  102.8530  -64.2830 C   0  0  0  0  0  0
  -76.7250  102.4730  -65.1990 N   0  0  0  0  0  0
  -76.3140  101.0900  -65.4150 C   0  0  0  0  0  0
  -74.9710  101.0270  -66.1490 C   0  0  0  0  0  0
  -74.5370   99.5910  -66.3820 C   0  0  0  0  0  0
  -80.8510  101.7080  -58.9800 S   0  0  0  0  0  0
  -80.9000  100.0170  -58.8580 C   0  0  0  0  0  0
  -80.6220   99.3880  -60.0390 C   0  0  0  0  0  0
  -80.3600  100.3290  -61.0940 C   0  0  0  0  0  0
  -78.9833  106.2518  -63.7050 H   0  0  0  0  0  0
  -80.1313  105.7194  -62.2807 H   0  0  0  0  0  0
  -76.2752  103.2801  -65.7960 H   0  0  0  0  0  0
  -76.2107  100.5824  -64.4446 H   0  0  0  0  0  0
  -77.0725  100.5724  -66.0206 H   0  0  0  0  0  0
  -75.0623  101.5277  -67.1242 H   0  0  0  0  0  0
  -74.2006  101.5324  -65.5481 H   0  0  0  0  0  0
  -73.5718   99.5807  -66.9096 H   0  0  0  0  0  0
  -75.2932   99.0736  -66.9907 H   0  0  0  0  0  0
  -74.4315   99.0783  -65.4145 H   0  0  0  0  0  0
  -80.6014   98.3056  -60.1656 H   0  0  0  0  0  0
  -80.1173  100.0383  -62.1161 H   0  0  0  0  0  0
  1 16  1  0  0  0
  2  3  1  0  0  0
  2 10  2  0  0  0
  3  4  1  0  0  0
  3  5  2  0  0  0
  4 19  1  0  0  0
  4 20  1  0  0  0
  5  6  1  0  0  0
  5  9  1  0  0  0
  6  7  1  0  0  0
  6  8  2  0  0  0
  7 15  1  0  0  0
  7 18  2  0  0  0
  9 10  1  0  0  0
 10 11  1  0  0  0
 11 12  1  0  0  0
 11 21  1  0  0  0
 12 13  1  0  0  0
 12 22  1  0  0  0
 12 23  1  0  0  0
 13 14  1  0  0  0
 13 24  1  0  0  0
 13 25  1  0  0  0
 14 26  1  0  0  0
 14 27  1  0  0  0
 14 28  1  0  0  0
 15 16  1  0  0  0
 16 17  2  0  0  0
 17 18  1  0  0  0
 17 29  1  0  0  0
 18 30  1  0  0  0
M  END
> <s_m_source_file>
../3s00_ligand.sdf

> <i_m_source_file_index>
1

> <s_epik_input>
W2NIXTFbY0hdYyhDbClzYzFDKD1PKWMyc2MobmMyW05IMl0pW05IXVtDSDJdW0NIMl1bQ0gzXQ==

> <s_epik_cmdline>
J2VwaWtfYXBwJywgJy1pbWFlJywgJ2xpZ2FuZF9wcm8ubWFlJywgJy1vbWFlJywgJ2xpZ2FuZF9wcmVwLm1hZScsICctbXMnLCAnMScsICctcGgnLCAnNycsICctcGh0JywgJzAuNScsICctbnQn

> <r_lp_tautomer_probability>
1

> <r_epik_Ionization_Penalty>
  0.0002

> <r_epik_Ionization_Penalty_Charging>
  0.0000

> <r_epik_Ionization_Penalty_Neutral>
  0.0002

> <r_epik_State_Penalty>
 -0.0000

> <r_epik_Charging_Adjusted_Penalty>
0

> <i_epik_Tot_Q>
0

> <i_epik_Tot_abs_Q>
0

$$$$
