3s0d_ligand
                    3D
 Schrodinger Suite 2020-3.
 33 32  0  0  1  0            999 V2000
    8.4290   10.5450   29.6370 C   0  0  0  0  0  0
    8.3110   15.0570   33.2940 N   0  3  0  0  0  0
    8.0320   12.4880   28.4760 C   0  0  0  0  0  0
    8.4860   11.8660   29.5840 C   0  0  0  0  0  0
    8.6150   12.6790   30.8830 C   0  0  0  0  0  0
    9.8330   12.7030   31.6070 C   0  0  0  0  0  0
   10.0100   11.4250   32.3590 C   0  0  0  0  0  0
    9.9170   11.5230   33.9240 C   0  0  1  0  0  0
    9.4170   12.6810   34.6790 C   0  0  0  0  0  0
   10.2830   10.2120   34.8180 C   0  0  0  0  0  0
    8.9130   13.8440   34.0050 C   0  0  0  0  0  0
    8.3367    9.9608   28.7095 H   0  0  0  0  0  0
    8.4739   10.0311   30.6085 H   0  0  0  0  0  0
    9.1153   15.7508   33.0080 H   0  0  0  0  0  0
    7.6095   15.5675   33.9702 H   0  0  0  0  0  0
    7.7753   14.7250   32.3924 H   0  0  0  0  0  0
    7.9996   11.7725   27.6411 H   0  0  0  0  0  0
    8.7053   13.3195   28.2204 H   0  0  0  0  0  0
    7.0211   12.8791   28.6633 H   0  0  0  0  0  0
    8.4202   13.7408   30.6718 H   0  0  0  0  0  0
    7.8851   12.3117   31.6195 H   0  0  0  0  0  0
   10.6727   12.8290   30.9078 H   0  0  0  0  0  0
    9.8199   13.5413   32.3191 H   0  0  0  0  0  0
    9.2331   10.7089   32.0530 H   0  0  0  0  0  0
   11.0027   11.0049   32.1396 H   0  0  0  0  0  0
   10.0854   12.5538   33.5790 H   0  0  0  0  0  0
    8.5742   12.3690   35.3133 H   0  0  0  0  0  0
   10.2228   13.0822   35.3112 H   0  0  0  0  0  0
   10.6453    9.4087   34.1596 H   0  0  0  0  0  0
    9.3845    9.8705   35.3529 H   0  0  0  0  0  0
   11.0664   10.4713   35.5453 H   0  0  0  0  0  0
    9.6145   13.3335   33.3288 H   0  0  0  0  0  0
    9.4487   14.1760   34.9066 H   0  0  0  0  0  0
  1  4  2  0  0  0
  1 12  1  0  0  0
  1 13  1  0  0  0
  2 11  1  0  0  0
  2 14  1  0  0  0
  2 15  1  0  0  0
  2 16  1  0  0  0
  3  4  1  0  0  0
  3 17  1  0  0  0
  3 18  1  0  0  0
  3 19  1  0  0  0
  4  5  1  0  0  0
  5  6  1  0  0  0
  5 20  1  0  0  0
  5 21  1  0  0  0
  6  7  1  0  0  0
  6 22  1  0  0  0
  6 23  1  0  0  0
  7  8  1  0  0  0
  7 24  1  0  0  0
  7 25  1  0  0  0
  8  9  1  0  0  0
  8 10  1  0  0  0
  8 26  1  0  0  0
  9 11  1  0  0  0
  9 27  1  0  0  0
  9 28  1  0  0  0
 10 29  1  0  0  0
 10 30  1  0  0  0
 10 31  1  0  0  0
 11 32  1  0  0  0
 11 33  1  0  0  0
M  CHG  1   2   1
M  END
> <s_m_source_file>
../3s0d_ligand.sdf

> <i_m_source_file_index>
1

> <s_epik_input>
W0NIMl09QyhbQ0gzXSlbQ0gyXVtDSDJdW0NIMl1bQ0BIXShbQ0gzXSlbQ0gyXVtDSDJdW05IMytd

> <s_epik_cmdline>
J2VwaWtfYXBwJywgJy1pbWFlJywgJ2xpZ2FuZF9wcm8ubWFlJywgJy1vbWFlJywgJ2xpZ2FuZF9wcmVwLm1hZScsICctbXMnLCAnMScsICctcGgnLCAnNycsICctcGh0JywgJzAuNScsICctbnQn

> <r_lp_tautomer_probability>
1

> <r_epik_Ionization_Penalty>
  0.0003

> <r_epik_Ionization_Penalty_Charging>
  0.0003

> <r_epik_Ionization_Penalty_Neutral>
  0.0000

> <r_epik_State_Penalty>
 -0.0000

> <r_epik_Charging_Adjusted_Penalty>
0.000289846155713681

> <i_epik_Tot_Q>
1

> <i_epik_Tot_abs_Q>
1

$$$$
