3s0e_ligand
                    3D
 Schrodinger Suite 2020-3.
 24 24  0  0  1  0            999 V2000
    2.6470  -10.6740  -10.6630 C   0  0  0  0  0  0
    2.8980  -13.1590   -8.0060 O   0  0  0  0  0  0
    2.8070  -11.4940  -11.7850 C   0  0  0  0  0  0
    2.5130  -10.4990   -8.2410 O   0  0  0  0  0  0
    2.6910  -11.2420   -9.3920 C   0  0  0  0  0  0
    3.0330  -12.8590  -11.6300 C   0  0  0  0  0  0
    2.8680  -12.6100   -9.2510 C   0  0  0  0  0  0
    3.0590  -13.4270  -10.3610 C   0  0  0  0  0  0
    2.7420  -10.9150  -13.1630 C   0  0  0  0  0  0
    3.6280   -9.7660  -13.4730 C   0  0  0  0  0  0
    4.8050   -9.6300  -12.8030 C   0  0  0  0  0  0
    2.3600   -9.1300   -8.3130 C   0  0  0  0  0  0
    2.4896   -9.6020  -10.7821 H   0  0  0  0  0  0
    2.7483  -12.5233   -7.1208 H   0  0  0  0  0  0
    3.1904  -13.4857  -12.5079 H   0  0  0  0  0  0
    3.2266  -14.4969  -10.2376 H   0  0  0  0  0  0
    3.0062  -11.6889  -13.8987 H   0  0  0  0  0  0
    1.7221  -10.5537  -13.3612 H   0  0  0  0  0  0
    3.3412   -9.0278  -14.2364 H   0  0  0  0  0  0
    5.0918  -10.3682  -12.0396 H   0  0  0  0  0  0
    5.4694   -8.7819  -13.0250 H   0  0  0  0  0  0
    2.2318   -8.7216   -7.2997 H   0  0  0  0  0  0
    1.4737   -8.8915   -8.9193 H   0  0  0  0  0  0
    3.2525   -8.6852   -8.7774 H   0  0  0  0  0  0
  1  3  2  0  0  0
  1  5  1  0  0  0
  1 13  1  0  0  0
  2  7  1  0  0  0
  2 14  1  0  0  0
  3  6  1  0  0  0
  3  9  1  0  0  0
  4  5  1  0  0  0
  4 12  1  0  0  0
  5  7  2  0  0  0
  6  8  2  0  0  0
  6 15  1  0  0  0
  7  8  1  0  0  0
  8 16  1  0  0  0
  9 10  1  0  0  0
  9 17  1  0  0  0
  9 18  1  0  0  0
 10 11  2  0  0  0
 10 19  1  0  0  0
 11 20  1  0  0  0
 11 21  1  0  0  0
 12 22  1  0  0  0
 12 23  1  0  0  0
 12 24  1  0  0  0
M  END
> <s_m_source_file>
../3s0e_ligand.sdf

> <i_m_source_file_index>
1

> <s_epik_input>
W0NIMl09W0NIXVtDSDJdYzFbY0hdYyhPW0NIM10pYyhbT0hdKVtjSF1bY0hdMQ==

> <s_epik_cmdline>
J2VwaWtfYXBwJywgJy1pbWFlJywgJ2xpZ2FuZF9wcm8ubWFlJywgJy1vbWFlJywgJ2xpZ2FuZF9wcmVwLm1hZScsICctbXMnLCAnMScsICctcGgnLCAnNycsICctcGh0JywgJzAuNScsICctbnQn

> <r_lp_tautomer_probability>
1

> <r_epik_Ionization_Penalty>
  0.0005

> <r_epik_Ionization_Penalty_Charging>
  0.0000

> <r_epik_Ionization_Penalty_Neutral>
  0.0005

> <r_epik_State_Penalty>
 -0.0000

> <r_epik_Charging_Adjusted_Penalty>
0

> <i_epik_Tot_Q>
0

> <i_epik_Tot_abs_Q>
0

$$$$
