3s0j_ligand
                    3D
 Schrodinger Suite 2020-3.
 35 36  0  0  1  0            999 V2000
   33.9510   24.1830   30.2140 C   0  0  0  0  0  0
   32.6260   24.4710   30.3150 O   0  0  0  0  0  0
   34.4360   23.4810   29.1030 C   0  0  0  0  0  0
   35.7980   23.1840   29.0210 C   0  0  0  0  0  0
   36.6720   23.6060   30.0250 C   0  0  0  0  0  0
   38.0010   23.3200   29.9390 O   0  0  0  0  0  0
   36.1890   24.3100   31.1260 C   0  0  0  0  0  0
   37.2880   24.8100   32.3690 Cl  0  0  0  0  0  0
   34.8260   24.6040   31.2230 C   0  0  0  0  0  0
   33.4670   23.0000   28.0060 C   0  0  1  0  0  0
   33.8790   23.1900   26.5320 C   0  0  2  0  0  0
   34.0720   24.5790   26.2470 O   0  0  0  0  0  0
   32.7930   22.5930   25.6090 C   0  0  1  0  0  0
   33.2040   22.6700   24.2420 O   0  0  0  0  0  0
   32.4890   21.1310   25.9830 C   0  0  2  0  0  0
   31.3320   20.6870   25.2750 O   0  0  0  0  0  0
   32.2470   20.9720   27.5030 C   0  0  2  0  0  0
   33.3390   21.5610   28.2470 O   0  0  0  0  0  0
   32.1360   19.5020   27.9220 C   0  0  0  0  0  0
   33.2260   18.7530   27.3670 O   0  0  0  0  0  0
   31.9306   24.1446   29.5276 H   0  0  0  0  0  0
   36.1804   22.6205   28.1699 H   0  0  0  0  0  0
   38.3891   22.7645   29.0725 H   0  0  0  0  0  0
   34.4456   25.1588   32.0807 H   0  0  0  0  0  0
   32.5331   23.5724   28.1074 H   0  0  0  0  0  0
   34.8612   22.7369   26.3318 H   0  0  0  0  0  0
   34.8130   25.1595   26.8162 H   0  0  0  0  0  0
   31.8762   23.1985   25.6628 H   0  0  0  0  0  0
   33.4631   23.6432   23.7996 H   0  0  0  0  0  0
   33.3146   20.4834   25.6528 H   0  0  0  0  0  0
   31.3125   20.7226   24.1758 H   0  0  0  0  0  0
   31.3283   21.5143   27.7712 H   0  0  0  0  0  0
   32.1676   19.4301   29.0192 H   0  0  0  0  0  0
   31.1860   19.0867   27.5546 H   0  0  0  0  0  0
   33.3088   17.6740   27.5644 H   0  0  0  0  0  0
  1  2  1  0  0  0
  1  3  2  0  0  0
  1  9  1  0  0  0
  2 21  1  0  0  0
  3  4  1  0  0  0
  3 10  1  0  0  0
  4  5  2  0  0  0
  4 22  1  0  0  0
  5  6  1  0  0  0
  5  7  1  0  0  0
  6 23  1  0  0  0
  7  8  1  0  0  0
  7  9  2  0  0  0
  9 24  1  0  0  0
 10 11  1  0  0  0
 10 18  1  0  0  0
 10 25  1  0  0  0
 11 12  1  0  0  0
 11 13  1  0  0  0
 11 26  1  0  0  0
 12 27  1  0  0  0
 13 14  1  0  0  0
 13 15  1  0  0  0
 13 28  1  0  0  0
 14 29  1  0  0  0
 15 16  1  0  0  0
 15 17  1  0  0  0
 15 30  1  0  0  0
 16 31  1  0  0  0
 17 18  1  0  0  0
 17 19  1  0  0  0
 17 32  1  0  0  0
 19 20  1  0  0  0
 19 33  1  0  0  0
 19 34  1  0  0  0
 20 35  1  0  0  0
M  END
> <s_m_source_file>
../3s0j_ligand.sdf

> <i_m_source_file_index>
1

> <s_epik_input>
Q2xjKFtjSF0xKWMoW09IXSlbY0hdYyhjMVtPSF0pW0NASF0yW0NASF0oW09IXSlbQ0BASF0oW09IXSlbQ0BIXShbT0hdKVtDQEhdKE8yKVtDSDJdW09IXQ==

> <s_epik_cmdline>
J2VwaWtfYXBwJywgJy1pbWFlJywgJ2xpZ2FuZF9wcm8ubWFlJywgJy1vbWFlJywgJ2xpZ2FuZF9wcmVwLm1hZScsICctbXMnLCAnMScsICctcGgnLCAnNycsICctcGh0JywgJzAuNScsICctbnQn

> <r_lp_tautomer_probability>
0.999999999416998

> <r_epik_Ionization_Penalty>
  0.0151

> <r_epik_Ionization_Penalty_Charging>
  0.0000

> <r_epik_Ionization_Penalty_Neutral>
  0.0151

> <r_epik_State_Penalty>
  0.0102

> <r_epik_Charging_Adjusted_Penalty>
0.0101862806248924

> <i_epik_Tot_Q>
0

> <i_epik_Tot_abs_Q>
0

$$$$
