3s0n_ligand
                    3D
 Schrodinger Suite 2020-3.
 46 49  0  0  1  0            999 V2000
   20.9980   29.0420    8.6840 C   0  0  0  0  0  0
   21.3810   28.7350    5.7600 O   0  0  0  0  0  0
   20.3910   24.2490    7.1600 C   0  0  0  0  0  0
   20.1160   23.7510    8.4080 C   0  0  0  0  0  0
   20.0840   24.6270    9.6300 C   0  0  0  0  0  0
   20.3260   25.9790    9.5850 C   0  0  0  0  0  0
   20.6330   26.5910    8.2440 C   0  0  0  0  0  0
   20.6650   25.7200    7.0320 C   0  0  0  0  0  0
   20.9600   26.5060    5.9960 N   0  0  0  0  0  0
   21.1060   27.7850    6.4750 C   0  0  0  0  0  0
   20.9150   27.8360    7.8340 N   0  0  0  0  0  0
   22.4340   29.2970    9.1870 C   0  0  0  0  0  0
   22.9540   30.6950    8.7930 C   0  0  0  0  0  0
   21.1060   26.1270    4.5810 C   0  0  0  0  0  0
   22.5280   25.8230    4.0690 C   0  0  0  0  0  0
   22.8900   25.2290    2.7440 C   0  0  0  0  0  0
   24.3440   25.1100    2.6590 C   0  0  0  0  0  0
   25.1290   25.6720    4.0520 S   0  0  0  0  0  0
   23.6920   26.0880    4.8330 C   0  0  0  0  0  0
   22.1120   24.7850    1.6170 C   0  0  0  0  0  0
   22.7640   24.2460    0.4660 C   0  0  0  0  0  0
   24.1700   24.1430    0.4130 C   0  0  0  0  0  0
   24.9430   24.5790    1.5130 C   0  0  0  0  0  0
   20.6040   24.8590    1.5810 C   0  0  0  0  0  0
   24.3950   30.9880    9.2750 C   0  0  0  0  0  0
   24.9430   32.0000    8.8400 O   0  0  0  0  0  0
   24.9540   30.2180   10.0700 O   0  5  0  0  0  0
   20.6754   29.9207    8.1062 H   0  0  0  0  0  0
   20.3441   28.9189    9.5599 H   0  0  0  0  0  0
   20.4101   23.5965    6.2871 H   0  0  0  0  0  0
   19.9140   22.6855    8.5177 H   0  0  0  0  0  0
   19.8590   24.1696   10.5935 H   0  0  0  0  0  0
   20.2967   26.5874   10.4890 H   0  0  0  0  0  0
   22.4568   29.2223   10.2842 H   0  0  0  0  0  0
   23.1127   28.5472    8.7543 H   0  0  0  0  0  0
   22.9518   30.7916    7.6973 H   0  0  0  0  0  0
   22.3020   31.4654    9.2303 H   0  0  0  0  0  0
   20.5246   25.2142    4.3841 H   0  0  0  0  0  0
   20.7353   26.9426    3.9428 H   0  0  0  0  0  0
   23.6618   26.5207    5.8330 H   0  0  0  0  0  0
   22.1676   23.9100   -0.3822 H   0  0  0  0  0  0
   24.6569   23.7299   -0.4704 H   0  0  0  0  0  0
   26.0291   24.4995    1.4668 H   0  0  0  0  0  0
   20.2355   25.2905    2.5234 H   0  0  0  0  0  0
   20.1902   23.8477    1.4542 H   0  0  0  0  0  0
   20.2880   25.4927    0.7392 H   0  0  0  0  0  0
  1 11  1  0  0  0
  1 12  1  0  0  0
  1 28  1  0  0  0
  1 29  1  0  0  0
  2 10  2  0  0  0
  3  4  2  0  0  0
  3  8  1  0  0  0
  3 30  1  0  0  0
  4  5  1  0  0  0
  4 31  1  0  0  0
  5  6  2  0  0  0
  5 32  1  0  0  0
  6  7  1  0  0  0
  6 33  1  0  0  0
  7  8  2  0  0  0
  7 11  1  0  0  0
  8  9  1  0  0  0
  9 10  1  0  0  0
  9 14  1  0  0  0
 10 11  1  0  0  0
 12 13  1  0  0  0
 12 34  1  0  0  0
 12 35  1  0  0  0
 13 25  1  0  0  0
 13 36  1  0  0  0
 13 37  1  0  0  0
 14 15  1  0  0  0
 14 38  1  0  0  0
 14 39  1  0  0  0
 15 16  1  0  0  0
 15 19  2  0  0  0
 16 17  2  0  0  0
 16 20  1  0  0  0
 17 18  1  0  0  0
 17 23  1  0  0  0
 18 19  1  0  0  0
 19 40  1  0  0  0
 20 21  2  0  0  0
 20 24  1  0  0  0
 21 22  1  0  0  0
 21 41  1  0  0  0
 22 23  2  0  0  0
 22 42  1  0  0  0
 23 43  1  0  0  0
 24 44  1  0  0  0
 24 45  1  0  0  0
 24 46  1  0  0  0
 25 26  2  0  0  0
 25 27  1  0  0  0
M  CHG  1  27  -1
M  END
> <s_m_source_file>
../3s0n_ligand.sdf

> <i_m_source_file_index>
1

> <s_epik_input>
Tz1DKFtPSF0pW0NIMl1bQ0gyXVtDSDJdbjFjKD1PKW4oYyhjMTIpW2NIXVtjSF1bY0hdW2NIXTIpW0NIMl1jM1tjSF1zYyhjMzQpW2NIXVtjSF1bY0hdYzRbQ0gzXQ==

> <s_epik_cmdline>
J2VwaWtfYXBwJywgJy1pbWFlJywgJ2xpZ2FuZF9wcm8ubWFlJywgJy1vbWFlJywgJ2xpZ2FuZF9wcmVwLm1hZScsICctbXMnLCAnMScsICctcGgnLCAnNycsICctcGh0JywgJzAuNScsICctbnQn

> <r_lp_tautomer_probability>
1

> <r_epik_Ionization_Penalty>
  0.0026

> <r_epik_Ionization_Penalty_Charging>
  0.0026

> <r_epik_Ionization_Penalty_Neutral>
  0.0000

> <r_epik_State_Penalty>
 -0.0000

> <r_epik_Charging_Adjusted_Penalty>
0.00256858799363963

> <i_epik_Tot_Q>
-1

> <i_epik_Tot_abs_Q>
1

$$$$
