3s0o_ligand
                    3D
 Schrodinger Suite 2020-3.
 34 35  0  0  1  0            999 V2000
   64.7940   82.1740  -86.5730 N   0  0  0  0  0  0
   65.7490   81.2390  -86.7490 C   0  0  0  0  0  0
   66.2670   81.0190  -87.9780 N   0  0  0  0  0  0
   66.1090   80.5560  -85.5720 C   0  0  0  0  0  0
   67.0340   79.5400  -85.4400 C   0  0  1  0  0  0
   67.3180   78.8690  -84.1220 C   0  0  0  0  0  0
   67.2980   78.8590  -81.6430 C   0  0  0  0  0  0
   67.0320   79.5100  -82.8810 N   0  0  0  0  0  0
   67.8400   77.5910  -81.6420 C   0  0  0  0  0  0
   68.1300   76.9390  -82.8210 C   0  0  0  0  0  0
   67.8780   77.5560  -84.0810 C   0  0  0  0  0  0
   67.7150   79.0830  -86.5260 O   0  0  0  0  0  0
   65.2050   81.1460  -84.2320 S   0  0  0  0  0  0
   64.4020   82.2390  -85.2830 C   0  0  0  0  0  0
   63.4270   83.1240  -84.8800 N   0  0  0  0  0  0
   62.9760   83.1960  -83.4950 C   0  0  0  0  0  0
   62.0210   82.0700  -83.1600 C   0  0  0  0  0  0
   62.3170   81.1180  -82.0710 C   0  0  0  0  0  0
   65.9157   81.6099  -88.8368 H   0  0  0  0  0  0
   67.0398   80.2491  -88.1194 H   0  0  0  0  0  0
   67.8190   80.2818  -85.2315 H   0  0  0  0  0  0
   67.0744   79.3601  -80.7012 H   0  0  0  0  0  0
   68.0425   77.0959  -80.6923 H   0  0  0  0  0  0
   68.5582   75.9371  -82.7895 H   0  0  0  0  0  0
   68.1110   77.0294  -85.0065 H   0  0  0  0  0  0
   67.5454   79.5380  -87.5130 H   0  0  0  0  0  0
   62.9860   83.7888  -85.6373 H   0  0  0  0  0  0
   63.8439   83.1264  -82.8227 H   0  0  0  0  0  0
   62.4580   84.1518  -83.3273 H   0  0  0  0  0  0
   61.0455   82.4897  -82.8734 H   0  0  0  0  0  0
   61.8968   81.4207  -84.0392 H   0  0  0  0  0  0
   61.5013   80.3841  -81.9938 H   0  0  0  0  0  0
   62.4094   81.6648  -81.1210 H   0  0  0  0  0  0
   63.2608   80.5959  -82.2869 H   0  0  0  0  0  0
  1  2  1  0  0  0
  1 14  2  0  0  0
  2  3  1  0  0  0
  2  4  2  0  0  0
  3 19  1  0  0  0
  3 20  1  0  0  0
  4  5  1  0  0  0
  4 13  1  0  0  0
  5  6  1  0  0  0
  5 12  1  0  0  0
  5 21  1  0  0  0
  6  8  2  0  0  0
  6 11  1  0  0  0
  7  8  1  0  0  0
  7  9  2  0  0  0
  7 22  1  0  0  0
  9 10  1  0  0  0
  9 23  1  0  0  0
 10 11  2  0  0  0
 10 24  1  0  0  0
 11 25  1  0  0  0
 12 26  1  0  0  0
 13 14  1  0  0  0
 14 15  1  0  0  0
 15 16  1  0  0  0
 15 27  1  0  0  0
 16 17  1  0  0  0
 16 28  1  0  0  0
 16 29  1  0  0  0
 17 18  1  0  0  0
 17 30  1  0  0  0
 17 31  1  0  0  0
 18 32  1  0  0  0
 18 33  1  0  0  0
 18 34  1  0  0  0
M  END
> <s_m_source_file>
../3s0o_ligand.sdf

> <i_m_source_file_index>
1

> <s_epik_input>
W0NIM11bQ0gyXVtDSDJdW05IXWMobmMxW05IMl0pc2MxW0NIXShbT0hdKWMybltjSF1bY0hdW2NIXVtjSF0y

> <s_epik_cmdline>
J2VwaWtfYXBwJywgJy1pbWFlJywgJ2xpZ2FuZF9wcm8ubWFlJywgJy1vbWFlJywgJ2xpZ2FuZF9wcmVwLm1hZScsICctbXMnLCAnMScsICctcGgnLCAnNycsICctcGh0JywgJzAuNScsICctbnQn

> <r_epik_Ionization_Penalty>
  0.2220

> <r_epik_Ionization_Penalty_Charging>
  0.0000

> <r_epik_Ionization_Penalty_Neutral>
  0.2220

> <r_epik_State_Penalty>
  0.2084

> <r_epik_Charging_Adjusted_Penalty>
0.208373595626595

> <i_epik_Tot_Q>
0

> <i_epik_Tot_abs_Q>
0

$$$$
