3s1g_ligand
                    3D
 Schrodinger Suite 2020-3.
 25 27  0  0  1  0            999 V2000
   15.9290   16.7050   22.1700 N   0  0  0  0  0  0
   19.0480   18.0790   16.0260 N   0  0  0  0  0  0
   18.7570   17.7600   19.3990 C   0  0  0  0  0  0
   18.6570   17.8790   17.2550 C   0  0  0  0  0  0
   18.1380   17.8710   14.9000 C   0  0  0  0  0  0
   17.4930   17.3930   18.9710 C   0  0  0  0  0  0
   16.5030   17.0230   19.8840 C   0  0  0  0  0  0
   16.1760   16.7050   23.4930 C   0  0  0  0  0  0
   16.8410   17.0520   21.2440 C   0  0  0  0  0  0
   18.1280   17.4320   21.6660 C   0  0  0  0  0  0
   19.1250   17.8040   20.7470 C   0  0  0  0  0  0
   19.4200   18.0390   18.2630 N   0  3  0  0  0  0
   17.4700   17.4840   17.6130 N   0  0  0  0  0  0
   18.3510   17.4180   23.0470 C   0  0  0  0  0  0
   19.5830   17.7870   23.5410 O   0  0  0  0  0  0
   17.3960   17.0670   23.9420 N   0  0  0  0  0  0
   20.0813   18.4095   15.8443 H   0  0  0  0  0  0
   18.6623   18.0935   13.9589 H   0  0  0  0  0  0
   17.2694   18.5381   15.0025 H   0  0  0  0  0  0
   17.7979   16.8249   14.8918 H   0  0  0  0  0  0
   15.5086   16.7240   19.5526 H   0  0  0  0  0  0
   15.3961   16.4146   24.1969 H   0  0  0  0  0  0
   20.1222   18.1076   21.0656 H   0  0  0  0  0  0
   17.6047   17.0745   25.0220 H   0  0  0  0  0  0
   20.4732   18.3538   18.3040 H   0  0  0  0  0  0
  1  8  2  0  0  0
  1  9  1  0  0  0
  2  4  1  0  0  0
  2  5  1  0  0  0
  2 17  1  0  0  0
  3  6  2  0  0  0
  3 11  1  0  0  0
  3 12  1  0  0  0
  4 12  2  0  0  0
  4 13  1  0  0  0
  5 18  1  0  0  0
  5 19  1  0  0  0
  5 20  1  0  0  0
  6  7  1  0  0  0
  6 13  1  0  0  0
  7  9  2  0  0  0
  7 21  1  0  0  0
  8 16  1  0  0  0
  8 22  1  0  0  0
  9 10  1  0  0  0
 10 11  2  0  0  0
 10 14  1  0  0  0
 11 23  1  0  0  0
 12 25  1  0  0  0
 14 15  2  0  0  0
 14 16  1  0  0  0
 16 24  1  0  0  0
M  CHG  1  12   1
M  END
> <s_m_source_file>
../3s1g_ligand.sdf

> <i_m_source_file_index>
1

> <s_epik_input>
bjFbY0hdW25IXWMoPU8pYyhbY0hdMiljMVtjSF1jKGMyMylbbkhdYyhuMylbTkhdW0NIM10=

> <s_epik_cmdline>
J2VwaWtfYXBwJywgJy1pbWFlJywgJ2xpZ2FuZF9wcm8ubWFlJywgJy1vbWFlJywgJ2xpZ2FuZF9wcmVwLm1hZScsICctbXMnLCAnMScsICctcGgnLCAnNycsICctcGh0JywgJzAuNScsICctbnQn

> <r_epik_Ionization_Penalty>
  0.1630

> <r_epik_Ionization_Penalty_Charging>
  0.1527

> <r_epik_Ionization_Penalty_Neutral>
  0.0103

> <r_epik_State_Penalty>
  0.4060

> <r_epik_Charging_Adjusted_Penalty>
0.558706684404648

> <i_epik_Tot_Q>
1

> <i_epik_Tot_abs_Q>
1

$$$$
