3s1h_ligand
                    3D
 Schrodinger Suite 2020-3.
 45 47  0  0  1  0            999 V2000
   96.2020   77.2120  -47.0020 C   0  0  0  0  0  0
   92.2610   81.9090  -51.3390 N   0  0  0  0  0  0
   86.2250   80.8410  -45.4210 O   0  0  0  0  0  0
   92.9860   80.7360  -49.1500 S   0  0  0  0  0  0
   97.2400   77.9420  -47.7770 C   0  0  0  0  0  0
   93.7920   81.0630  -52.9230 N   0  0  0  0  0  0
   86.9220   83.1470  -44.3330 O   0  0  0  0  0  0
   87.4330   81.7170  -44.8730 S   0  0  0  0  0  0
   96.8790   78.6870  -48.9880 C   0  0  0  0  0  0
   90.9060   82.5510  -49.5490 N   0  0  0  0  0  0
   95.6300   79.2820  -51.8560 O   0  0  0  0  0  0
   94.4470   77.9660  -48.6570 C   0  0  0  0  0  0
   88.1570   80.9180  -43.7310 N   0  0  0  0  0  0
   94.7880   77.2320  -47.4650 C   0  0  0  0  0  0
   96.5340   76.5090  -45.8450 O   0  0  0  0  0  0
   95.6740   75.8150  -45.0650 C   0  0  0  0  0  0
   95.4640   78.7110  -49.4420 C   0  0  0  0  0  0
   95.0130   79.4550  -50.6680 C   0  0  3  0  0  0
   93.8380   80.4130  -50.5990 C   0  0  0  0  0  0
   93.3150   81.1280  -51.6600 C   0  0  0  0  0  0
   91.9600   81.8150  -50.0460 C   0  0  0  0  0  0
   90.1390   82.3120  -48.4360 C   0  0  0  0  0  0
   90.3240   81.1300  -47.5020 C   0  0  0  0  0  0
   89.4840   80.9440  -46.3810 C   0  0  0  0  0  0
   88.4150   81.9190  -46.1240 C   0  0  0  0  0  0
   88.2260   83.0740  -47.0150 C   0  0  0  0  0  0
   89.0670   83.2720  -48.1470 C   0  0  0  0  0  0
   98.2773   77.9234  -47.4427 H   0  0  0  0  0  0
   93.3249   81.6617  -53.7188 H   0  0  0  0  0  0
   94.6473   80.4114  -53.1550 H   0  0  0  0  0  0
   97.6444   79.2201  -49.5519 H   0  0  0  0  0  0
   90.5826   83.4667  -50.0656 H   0  0  0  0  0  0
   96.4845   78.5941  -51.9369 H   0  0  0  0  0  0
   93.4102   77.9748  -48.9931 H   0  0  0  0  0  0
   87.4700   80.7886  -42.8817 H   0  0  0  0  0  0
   89.0467   81.4746  -43.4014 H   0  0  0  0  0  0
   94.0185   76.6971  -46.9084 H   0  0  0  0  0  0
   96.2225   75.3662  -44.2237 H   0  0  0  0  0  0
   95.1998   75.0201  -45.6593 H   0  0  0  0  0  0
   94.9004   76.4944  -44.6777 H   0  0  0  0  0  0
   94.3188   78.6365  -50.9093 H   0  0  0  0  0  0
   91.1194   80.4114  -47.6996 H   0  0  0  0  0  0
   89.6267   80.0910  -45.7176 H   0  0  0  0  0  0
   87.4304   83.7890  -46.8057 H   0  0  0  0  0  0
   88.9151   84.1338  -48.7968 H   0  0  0  0  0  0
  1  5  2  0  0  0
  1 14  1  0  0  0
  1 15  1  0  0  0
  2 20  1  0  0  0
  2 21  2  0  0  0
  3  8  2  0  0  0
  4 19  1  0  0  0
  4 21  1  0  0  0
  5  9  1  0  0  0
  5 28  1  0  0  0
  6 20  1  0  0  0
  6 29  1  0  0  0
  6 30  1  0  0  0
  7  8  2  0  0  0
  8 13  1  0  0  0
  8 25  1  0  0  0
  9 17  2  0  0  0
  9 31  1  0  0  0
 10 21  1  0  0  0
 10 22  1  0  0  0
 10 32  1  0  0  0
 11 18  1  0  0  0
 11 33  1  0  0  0
 12 14  2  0  0  0
 12 17  1  0  0  0
 12 34  1  0  0  0
 13 35  1  0  0  0
 13 36  1  0  0  0
 14 37  1  0  0  0
 15 16  1  0  0  0
 16 38  1  0  0  0
 16 39  1  0  0  0
 16 40  1  0  0  0
 17 18  1  0  0  0
 18 19  1  0  0  0
 18 41  1  0  0  0
 19 20  2  0  0  0
 22 23  2  0  0  0
 22 27  1  0  0  0
 23 24  1  0  0  0
 23 42  1  0  0  0
 24 25  2  0  0  0
 24 43  1  0  0  0
 25 26  1  0  0  0
 26 27  2  0  0  0
 26 44  1  0  0  0
 27 45  1  0  0  0
M  END
> <s_m_source_file>
../3s1h_ligand.sdf

> <i_m_source_file_index>
1

> <s_epik_input>
W0NIM11PYzFbY0hdW2NIXWMoW2NIXVtjSF0xKVtDSF0oW09IXSljMnNjKG5jMltOSDJdKVtOSF1jM1tjSF1bY0hdYyhTKD1PKSg9TylbTkgyXSlbY0hdW2NIXTM=

> <s_epik_cmdline>
J2VwaWtfYXBwJywgJy1pbWFlJywgJ2xpZ2FuZF9wcm8ubWFlJywgJy1vbWFlJywgJ2xpZ2FuZF9wcmVwLm1hZScsICctbXMnLCAnMScsICctcGgnLCAnNycsICctcGh0JywgJzAuNScsICctbnQn

> <r_lp_tautomer_probability>
1

> <r_epik_Ionization_Penalty>
  0.0126

> <r_epik_Ionization_Penalty_Charging>
  0.0000

> <r_epik_Ionization_Penalty_Neutral>
  0.0126

> <r_epik_State_Penalty>
  0.0072

> <r_epik_Charging_Adjusted_Penalty>
0.00717305597959786

> <i_epik_Tot_Q>
0

> <i_epik_Tot_abs_Q>
0

$$$$
