3s1y_ligand
                    3D
 Schrodinger Suite 2020-3.
 54 55  0  0  1  0            999 V2000
    1.3230    9.9260   17.7920 S   0  0  0  0  0  0
    1.0680   10.3550   16.5220 O   0  0  0  0  0  0
    0.5160   10.8830   18.7680 O   0  5  0  0  0  0
    1.0150    8.6060   17.9310 O   0  0  0  0  0  0
    2.9270    9.9870   18.1360 N   0  0  3  0  0  0
    3.3320   11.4040   18.4230 C   0  0  2  0  0  0
    3.2240   12.2920   17.1610 C   0  0  0  0  0  0
    4.3540   13.2730   17.3170 C   0  0  0  0  0  0
    5.3330   12.5400   18.0720 N   0  0  0  0  0  0
    4.8290   11.3170   18.6110 C   0  0  2  0  0  0
    5.3100   10.1330   17.8110 C   0  0  0  0  0  0
    5.5140   10.1860   16.6060 O   0  0  0  0  0  0
    6.6620   12.7290   18.1000 C   0  0  0  0  0  0
    7.4170   11.9350   18.5590 O   0  0  0  0  0  0
    7.1580   14.0150   17.7630 N   0  0  0  0  0  0
    8.6080   14.2400   17.7760 C   0  0  1  0  0  0
    8.9260   14.4510   16.2960 C   0  0  0  0  0  0
   10.4240   14.7030   16.1750 C   0  0  0  0  0  0
   10.7790   16.1650   16.3360 C   0  0  0  0  0  0
   10.4860   16.8010   17.6240 N   0  0  2  0  0  0
   12.0100   17.1840   17.8160 C   0  0  0  0  0  0
   13.0000   16.2310   17.0070 C   0  0  0  0  0  0
   14.2530   16.0970   17.8280 N   0  3  0  0  0  0
   10.2290   15.8840   18.7690 C   0  0  0  0  0  0
    8.7570   15.4550   18.6750 C   0  0  0  0  0  0
    3.6953    9.2092   18.0149 H   0  0  0  0  0  0
    2.7269   11.7828   19.2599 H   0  0  0  0  0  0
    3.3355   11.6673   16.2625 H   0  0  0  0  0  0
    2.2418   12.7870   17.1439 H   0  0  0  0  0  0
    4.7249   13.5661   16.3237 H   0  0  0  0  0  0
    3.9945   14.1645   17.8518 H   0  0  0  0  0  0
    5.1776   11.2312   19.6508 H   0  0  0  0  0  0
    6.2819    9.7971   18.2015 H   0  0  0  0  0  0
    4.5796    9.3145   17.8921 H   0  0  0  0  0  0
    5.8649    9.2931   16.0678 H   0  0  0  0  0  0
    6.4764   14.8358   17.4952 H   0  0  0  0  0  0
    9.2587   13.4450   18.1692 H   0  0  0  0  0  0
    8.6423   13.5525   15.7283 H   0  0  0  0  0  0
    8.3610   15.3164   15.9193 H   0  0  0  0  0  0
   10.9551   14.1372   16.9546 H   0  0  0  0  0  0
   10.7719   14.3767   15.1838 H   0  0  0  0  0  0
   11.8609   16.2980   16.1885 H   0  0  0  0  0  0
   10.2315   16.7596   15.5899 H   0  0  0  0  0  0
   12.1765   18.2131   17.4649 H   0  0  0  0  0  0
   12.2746   17.1127   18.8813 H   0  0  0  0  0  0
   12.5256   15.2495   16.8599 H   0  0  0  0  0  0
   13.2236   16.6805   16.0283 H   0  0  0  0  0  0
   14.9667   15.4443   17.3039 H   0  0  0  0  0  0
   14.0054   15.6588   18.8061 H   0  0  0  0  0  0
   14.7033   17.0899   17.9744 H   0  0  0  0  0  0
   10.8947   15.0113   18.6964 H   0  0  0  0  0  0
   10.4210   16.4141   19.7136 H   0  0  0  0  0  0
    8.1692   16.2892   18.2644 H   0  0  0  0  0  0
    8.3927   15.2115   19.6839 H   0  0  0  0  0  0
  1  2  2  0  0  0
  1  3  1  0  0  0
  1  4  2  0  0  0
  1  5  1  0  0  0
  5  6  1  0  0  0
  5 26  1  0  0  0
  6  7  1  0  0  0
  6 10  1  0  0  0
  6 27  1  0  0  0
  7  8  1  0  0  0
  7 28  1  0  0  0
  7 29  1  0  0  0
  8  9  1  0  0  0
  8 30  1  0  0  0
  8 31  1  0  0  0
  9 10  1  0  0  0
  9 13  1  0  0  0
 10 11  1  0  0  0
 10 32  1  0  0  0
 11 12  1  0  0  0
 11 33  1  0  0  0
 11 34  1  0  0  0
 12 35  1  0  0  0
 13 14  2  0  0  0
 13 15  1  0  0  0
 15 16  1  0  0  0
 15 36  1  0  0  0
 16 17  1  0  0  0
 16 25  1  0  0  0
 16 37  1  0  0  0
 17 18  1  0  0  0
 17 38  1  0  0  0
 17 39  1  0  0  0
 18 19  1  0  0  0
 18 40  1  0  0  0
 18 41  1  0  0  0
 19 20  1  0  0  0
 19 42  1  0  0  0
 19 43  1  0  0  0
 20 21  1  0  0  0
 20 24  1  0  0  0
 21 22  1  0  0  0
 21 44  1  0  0  0
 21 45  1  0  0  0
 22 23  1  0  0  0
 22 46  1  0  0  0
 22 47  1  0  0  0
 23 48  1  0  0  0
 23 49  1  0  0  0
 23 50  1  0  0  0
 24 25  1  0  0  0
 24 51  1  0  0  0
 24 52  1  0  0  0
 25 53  1  0  0  0
 25 54  1  0  0  0
M  CHG  2   3  -1  23   1
M  END
> <s_m_source_file>
../3s1y_ligand.sdf

> <i_m_source_file_index>
1

> <s_epik_input>
Tz1TKD1PKShbT0hdKVtOSF1bQ0BASF0xW0NIMl1bQ0gyXU4oW0NAQEhdMVtDSDJdW09IXSlDKD1PKVtOSF1bQ0BIXTJbQ0gyXVtDSDJdW0NIMl1bTkBASCtdKFtDSDJdW0NIMl0yKVtDSDJdW0NIMl1bTkgzK10=

> <s_epik_cmdline>
J2VwaWtfYXBwJywgJy1pbWFlJywgJ2xpZ2FuZF9wcm8ubWFlJywgJy1vbWFlJywgJ2xpZ2FuZF9wcmVwLm1hZScsICctbXMnLCAnMScsICctcGgnLCAnNycsICctcGh0JywgJzAuNScsICctbnQn

> <r_epik_Ionization_Penalty>
  0.1492

> <r_epik_Ionization_Penalty_Charging>
  0.0022

> <r_epik_Ionization_Penalty_Neutral>
  0.1471

> <r_epik_State_Penalty>
  0.2472

> <r_epik_Charging_Adjusted_Penalty>
0.249411364178341

> <i_epik_Tot_Q>
0

> <i_epik_Tot_abs_Q>
2

$$$$
