3s22_ligand
                    3D
 Schrodinger Suite 2020-3.
 45 45  0  0  1  0            999 V2000
   10.4060   15.6940   19.1450 C   0  0  0  0  0  0
    9.5280   15.6510   17.9170 C   0  0  0  0  0  0
   10.4900   17.0890   19.7110 C   0  0  0  0  0  0
    9.0540   14.2360   17.6500 C   0  0  0  0  0  0
    5.7300   10.4940   18.5290 C   0  0  0  0  0  0
    5.2640   11.6650   19.3410 C   0  0  2  0  0  0
   10.8330   17.0330   21.1260 N   0  3  0  0  0  0
   11.6430   18.1970   21.4420 C   0  0  0  0  0  0
    3.6760   12.6750   17.9000 C   0  0  0  0  0  0
    4.8790   13.6060   17.9840 C   0  0  0  0  0  0
    3.7830   11.8000   19.1350 C   0  0  1  0  0  0
    7.2210   12.9580   18.6160 C   0  0  0  0  0  0
    7.6510   14.0960   17.9690 N   0  0  0  0  0  0
    3.2600   10.4360   18.9210 N   0  0  3  0  0  0
    5.8500   12.8280   18.7230 N   0  0  0  0  0  0
    1.6370   10.4370   16.8230 O   0  5  0  0  0  0
    5.6950   10.4130   17.3120 O   0  0  0  0  0  0
    7.9910   12.1180   19.0790 O   0  0  0  0  0  0
    0.8610   11.2740   19.1140 O   0  0  0  0  0  0
    1.2720    8.8690   18.6540 O   0  0  0  0  0  0
    1.6550   10.2570   18.4340 S   0  0  0  0  0  0
    9.9908   15.0284   19.9161 H   0  0  0  0  0  0
   11.4211   15.3619   18.8818 H   0  0  0  0  0  0
    8.6515   16.2977   18.0702 H   0  0  0  0  0  0
   10.0981   16.0064   17.0460 H   0  0  0  0  0  0
   11.2636   17.6568   19.1734 H   0  0  0  0  0  0
    9.5185   17.5914   19.5938 H   0  0  0  0  0  0
    9.2019   13.9942   16.5871 H   0  0  0  0  0  0
    9.6304   13.5332   18.2695 H   0  0  0  0  0  0
    6.7995   10.3192   18.7179 H   0  0  0  0  0  0
    5.1565    9.5993   18.8130 H   0  0  0  0  0  0
    5.5422   11.5826   20.4020 H   0  0  0  0  0  0
    9.9118   17.0385   21.7271 H   0  0  0  0  0  0
   11.3984   16.1118   21.3301 H   0  0  0  0  0  0
   11.9147   18.1763   22.5077 H   0  0  0  0  0  0
   11.0704   19.1114   21.2273 H   0  0  0  0  0  0
   12.5571   18.1846   20.8302 H   0  0  0  0  0  0
    2.7510   13.2703   17.8988 H   0  0  0  0  0  0
    3.7332   12.0846   16.9736 H   0  0  0  0  0  0
    5.2229   13.8532   16.9688 H   0  0  0  0  0  0
    4.5923   14.5292   18.5090 H   0  0  0  0  0  0
    3.2089   12.2210   19.9736 H   0  0  0  0  0  0
    6.9427   14.8919   17.6954 H   0  0  0  0  0  0
    3.9478    9.5775   18.9173 H   0  0  0  0  0  0
    6.0633    9.5060   16.8103 H   0  0  0  0  0  0
  1  2  1  0  0  0
  1  3  1  0  0  0
  1 22  1  0  0  0
  1 23  1  0  0  0
  2  4  1  0  0  0
  2 24  1  0  0  0
  2 25  1  0  0  0
  3  7  1  0  0  0
  3 26  1  0  0  0
  3 27  1  0  0  0
  4 13  1  0  0  0
  4 28  1  0  0  0
  4 29  1  0  0  0
  5  6  1  0  0  0
  5 17  1  0  0  0
  5 30  1  0  0  0
  5 31  1  0  0  0
  6 11  1  0  0  0
  6 15  1  0  0  0
  6 32  1  0  0  0
  7  8  1  0  0  0
  7 33  1  0  0  0
  7 34  1  0  0  0
  8 35  1  0  0  0
  8 36  1  0  0  0
  8 37  1  0  0  0
  9 10  1  0  0  0
  9 11  1  0  0  0
  9 38  1  0  0  0
  9 39  1  0  0  0
 10 15  1  0  0  0
 10 40  1  0  0  0
 10 41  1  0  0  0
 11 14  1  0  0  0
 11 42  1  0  0  0
 12 13  1  0  0  0
 12 15  1  0  0  0
 12 18  2  0  0  0
 13 43  1  0  0  0
 14 21  1  0  0  0
 14 44  1  0  0  0
 16 21  1  0  0  0
 17 45  1  0  0  0
 19 21  2  0  0  0
 20 21  2  0  0  0
M  CHG  2   7   1  16  -1
M  END
> <s_m_source_file>
../3s22_ligand.sdf

> <i_m_source_file_index>
1

> <s_epik_input>
W0NIM11bTkgyK11bQ0gyXVtDSDJdW0NIMl1bQ0gyXVtOSF1DKD1PKU4xW0NIMl1bQ0gyXVtDQEhdKFtDQEhdMVtDSDJdW09IXSlbTkhdUyg9TykoPU8pW09IXQ==

> <s_epik_cmdline>
J2VwaWtfYXBwJywgJy1pbWFlJywgJ2xpZ2FuZF9wcm8ubWFlJywgJy1vbWFlJywgJ2xpZ2FuZF9wcmVwLm1hZScsICctbXMnLCAnMScsICctcGgnLCAnNycsICctcGh0JywgJzAuNScsICctbnQn

> <r_lp_tautomer_probability>
1

> <r_epik_Ionization_Penalty>
  0.0019

> <r_epik_Ionization_Penalty_Charging>
  0.0002

> <r_epik_Ionization_Penalty_Neutral>
  0.0016

> <r_epik_State_Penalty>
 -0.0000

> <r_epik_Charging_Adjusted_Penalty>
0.000225082495876599

> <i_epik_Tot_Q>
0

> <i_epik_Tot_abs_Q>
2

$$$$
