3s2o_ligand
                    3D
 Schrodinger Suite 2020-3.
 57 61  0  0  1  0            999 V2000
  -15.9650   39.7380    9.5740 C   0  0  0  0  0  0
  -16.2090   40.0720   10.9150 C   0  0  0  0  0  0
  -16.6630   39.1020   11.8150 C   0  0  0  0  0  0
  -16.8670   37.8060   11.3460 C   0  0  0  0  0  0
  -16.6400   37.4040   10.0040 C   0  0  0  0  0  0
  -16.1910   38.3440    9.0920 C   0  0  0  0  0  0
  -15.8870   38.3000    7.7840 N   0  0  0  0  0  0
  -15.5100   39.5700    7.5090 C   0  0  0  0  0  0
  -15.5200   40.4560    8.5380 N   0  0  0  0  0  0
  -15.1350   39.8720    6.2540 N   0  0  0  0  0  0
  -17.4660   36.5870   12.4810 Cl  0  0  0  0  0  0
  -15.2240   41.9280    8.6330 C   0  0  1  0  0  0
  -13.8540   42.3250    8.1130 C   0  0  0  0  0  0
  -12.7850   41.4930    8.8100 C   0  0  0  0  0  0
  -16.3430   42.6910    7.9330 C   0  0  0  0  0  0
  -17.6950   42.2010    8.4190 C   0  0  0  0  0  0
  -18.5550   41.5470    7.6070 N   0  0  0  0  0  0
  -17.9570   42.3890    9.6000 O   0  0  0  0  0  0
  -19.8600   41.1120    8.1390 C   0  0  1  0  0  0
  -20.8000   40.8490    6.9870 C   0  0  2  0  0  0
  -22.2000   40.6120    7.5780 C   0  0  0  0  0  0
  -22.2540   39.3730    8.4690 C   0  0  1  0  0  0
  -21.8900   38.1650    7.5850 C   0  0  0  0  0  0
  -20.4580   38.3470    7.0440 C   0  0  1  0  0  0
  -20.3520   39.6130    6.2140 C   0  0  0  0  0  0
  -19.8000   39.8340    8.9740 C   0  0  2  0  0  0
  -19.4470   38.5930    8.1590 C   0  0  0  0  0  0
  -21.2000   39.5690    9.5710 C   0  0  0  0  0  0
  -16.0438   41.0935   11.2574 H   0  0  0  0  0  0
  -16.8526   39.3541   12.8583 H   0  0  0  0  0  0
  -16.8161   36.3732    9.6966 H   0  0  0  0  0  0
  -15.1541   39.0977    5.4729 H   0  0  0  0  0  0
  -14.8090   40.8934    6.0081 H   0  0  0  0  0  0
  -15.1874   42.1818    9.7027 H   0  0  0  0  0  0
  -13.8077   42.1469    7.0285 H   0  0  0  0  0  0
  -13.6792   43.3917    8.3172 H   0  0  0  0  0  0
  -11.7926   41.7809    8.4330 H   0  0  0  0  0  0
  -12.9595   40.4263    8.6058 H   0  0  0  0  0  0
  -12.8311   41.6710    9.8945 H   0  0  0  0  0  0
  -16.2485   43.7645    8.1535 H   0  0  0  0  0  0
  -16.2715   42.5321    6.8469 H   0  0  0  0  0  0
  -18.2907   41.3383    6.5598 H   0  0  0  0  0  0
  -20.1807   41.9466    8.7797 H   0  0  0  0  0  0
  -20.7915   41.7072    6.2990 H   0  0  0  0  0  0
  -22.4931   41.4805    8.1861 H   0  0  0  0  0  0
  -22.9243   40.4749    6.7615 H   0  0  0  0  0  0
  -23.2447   39.2202    8.9220 H   0  0  0  0  0  0
  -21.9447   37.2434    8.1830 H   0  0  0  0  0  0
  -22.5968   38.0993    6.7447 H   0  0  0  0  0  0
  -20.2410   37.4309    6.4751 H   0  0  0  0  0  0
  -20.9833   39.4899    5.3216 H   0  0  0  0  0  0
  -19.3025   39.7329    5.9070 H   0  0  0  0  0  0
  -19.0117   39.9964    9.7238 H   0  0  0  0  0  0
  -19.4299   37.7263    8.8362 H   0  0  0  0  0  0
  -18.4476   38.7371    7.7226 H   0  0  0  0  0  0
  -21.4800   40.4288   10.1974 H   0  0  0  0  0  0
  -21.1475   38.6636   10.1934 H   0  0  0  0  0  0
  1  2  1  0  0  0
  1  6  2  0  0  0
  1  9  1  0  0  0
  2  3  2  0  0  0
  2 29  1  0  0  0
  3  4  1  0  0  0
  3 30  1  0  0  0
  4  5  2  0  0  0
  4 11  1  0  0  0
  5  6  1  0  0  0
  5 31  1  0  0  0
  6  7  1  0  0  0
  7  8  2  0  0  0
  8  9  1  0  0  0
  8 10  1  0  0  0
  9 12  1  0  0  0
 10 32  1  0  0  0
 10 33  1  0  0  0
 12 13  1  0  0  0
 12 15  1  0  0  0
 12 34  1  0  0  0
 13 14  1  0  0  0
 13 35  1  0  0  0
 13 36  1  0  0  0
 14 37  1  0  0  0
 14 38  1  0  0  0
 14 39  1  0  0  0
 15 16  1  0  0  0
 15 40  1  0  0  0
 15 41  1  0  0  0
 16 17  1  0  0  0
 16 18  2  0  0  0
 17 19  1  0  0  0
 17 42  1  0  0  0
 19 20  1  0  0  0
 19 26  1  0  0  0
 19 43  1  0  0  0
 20 21  1  0  0  0
 20 25  1  0  0  0
 20 44  1  0  0  0
 21 22  1  0  0  0
 21 45  1  0  0  0
 21 46  1  0  0  0
 22 23  1  0  0  0
 22 28  1  0  0  0
 22 47  1  0  0  0
 23 24  1  0  0  0
 23 48  1  0  0  0
 23 49  1  0  0  0
 24 25  1  0  0  0
 24 27  1  0  0  0
 24 50  1  0  0  0
 25 51  1  0  0  0
 25 52  1  0  0  0
 26 27  1  0  0  0
 26 28  1  0  0  0
 26 53  1  0  0  0
 27 54  1  0  0  0
 27 55  1  0  0  0
 28 56  1  0  0  0
 28 57  1  0  0  0
M  END
> <s_m_source_file>
../3s2o_ligand.sdf

> <i_m_source_file_index>
1

> <s_epik_input>
W2NIXTFbY0hdYyhDbClbY0hdYyhjMTIpbmMoW05IMl0pbjJbQ0BASF0oW0NIMl1bQ0gzXSlbQ0gyXUMoPU8pW05IXVtDQEBIXShbQ0BIXTM0KVtDQEBIXTVbQ0gyXVtDQEhdKFtDSDJdNClbQ0gyXVtDQEhdKFtDSDJdMylbQ0gyXTU=

> <s_epik_cmdline>
J2VwaWtfYXBwJywgJy1pbWFlJywgJ2xpZ2FuZF9wcm8ubWFlJywgJy1vbWFlJywgJ2xpZ2FuZF9wcmVwLm1hZScsICctbXMnLCAnMScsICctcGgnLCAnNycsICctcGh0JywgJzAuNScsICctbnQn

> <r_epik_Ionization_Penalty>
  0.0915

> <r_epik_Ionization_Penalty_Charging>
  0.0000

> <r_epik_Ionization_Penalty_Neutral>
  0.0915

> <r_epik_State_Penalty>
  0.0818

> <r_epik_Charging_Adjusted_Penalty>
0.0817825371619309

> <i_epik_Tot_Q>
0

> <i_epik_Tot_abs_Q>
0

$$$$
