3s2p_ligand
                    3D
 Schrodinger Suite 2020-3.
 46 48  0  0  1  0            999 V2000
   28.1550   27.2940   25.7680 C   0  0  0  0  0  0
   26.8950   28.0530   25.7380 N   0  0  0  0  0  0
   24.1860   29.9110   30.2760 O   0  0  0  0  0  0
   24.8130   29.3990   29.1590 C   0  0  0  0  0  0
   27.2950   27.6400   22.2250 O   0  0  0  0  0  0
   25.9950   30.0720   28.7280 C   0  0  0  0  0  0
   29.8170   27.2000   23.9610 O   0  0  0  0  0  0
   26.7150   29.6280   27.5810 C   0  0  0  0  0  0
   26.2390   28.4970   26.8680 C   0  0  0  0  0  0
   25.0640   27.8360   27.3110 C   0  0  0  0  0  0
   24.3120   28.2590   28.4620 C   0  0  0  0  0  0
   26.3760   28.3090   24.3870 C   0  0  0  0  0  0
   28.4370   27.0560   24.2720 C   0  0  2  0  0  0
   27.6130   28.1200   23.5210 C   0  0  1  0  0  0
   20.7810   24.5320   28.0600 C   0  0  0  0  0  0
   21.6720   24.0380   26.9030 C   0  0  0  0  0  0
   23.0500   27.5360   28.9200 C   0  0  0  0  0  0
   22.3120   27.9370   30.0520 N   0  0  0  0  0  0
   21.2040   27.2700   30.4450 C   0  0  0  0  0  0
   19.3550   24.8320   27.5650 C   0  0  0  0  0  0
   20.7080   26.1960   29.8210 N   0  0  0  0  0  0
   21.3740   25.7630   28.7230 C   0  0  0  0  0  0
   22.5520   26.4080   28.2400 C   0  0  0  0  0  0
   20.5300   27.6530   31.5160 N   0  0  0  0  0  0
   28.9340   27.8959   26.2587 H   0  0  0  0  0  0
   28.0067   26.3591   26.3284 H   0  0  0  0  0  0
   24.6035   30.7918   30.7858 H   0  0  0  0  0  0
   26.7069   28.2643   21.5363 H   0  0  0  0  0  0
   26.3526   30.9385   29.2842 H   0  0  0  0  0  0
   30.5560   26.5205   24.4107 H   0  0  0  0  0  0
   27.6162   30.1484   27.2568 H   0  0  0  0  0  0
   24.7150   26.9671   26.7530 H   0  0  0  0  0  0
   25.5787   27.5868   24.1576 H   0  0  0  0  0  0
   25.9709   29.3305   24.3373 H   0  0  0  0  0  0
   28.2406   26.0194   23.9609 H   0  0  0  0  0  0
   28.1243   29.0677   23.2965 H   0  0  0  0  0  0
   20.7365   23.7366   28.8186 H   0  0  0  0  0  0
   21.2170   23.1478   26.4442 H   0  0  0  0  0  0
   22.6686   23.7815   27.2915 H   0  0  0  0  0  0
   21.7661   24.8322   26.1478 H   0  0  0  0  0  0
   18.9363   23.9340   27.0872 H   0  0  0  0  0  0
   19.3856   25.6550   26.8358 H   0  0  0  0  0  0
   18.7240   25.1214   28.4183 H   0  0  0  0  0  0
   23.0613   26.0310   27.3531 H   0  0  0  0  0  0
   20.8649   28.5276   32.0930 H   0  0  0  0  0  0
   19.6343   27.0970   31.8301 H   0  0  0  0  0  0
  1  2  1  0  0  0
  1 13  1  0  0  0
  1 25  1  0  0  0
  1 26  1  0  0  0
  2  9  1  0  0  0
  2 12  1  0  0  0
  3  4  1  0  0  0
  3 27  1  0  0  0
  4  6  2  0  0  0
  4 11  1  0  0  0
  5 14  1  0  0  0
  5 28  1  0  0  0
  6  8  1  0  0  0
  6 29  1  0  0  0
  7 13  1  0  0  0
  7 30  1  0  0  0
  8  9  2  0  0  0
  8 31  1  0  0  0
  9 10  1  0  0  0
 10 11  2  0  0  0
 10 32  1  0  0  0
 11 17  1  0  0  0
 12 14  1  0  0  0
 12 33  1  0  0  0
 12 34  1  0  0  0
 13 14  1  0  0  0
 13 35  1  0  0  0
 14 36  1  0  0  0
 15 16  1  0  0  0
 15 20  1  0  0  0
 15 22  1  0  0  0
 15 37  1  0  0  0
 16 38  1  0  0  0
 16 39  1  0  0  0
 16 40  1  0  0  0
 17 18  2  0  0  0
 17 23  1  0  0  0
 18 19  1  0  0  0
 19 21  2  0  0  0
 19 24  1  0  0  0
 20 41  1  0  0  0
 20 42  1  0  0  0
 20 43  1  0  0  0
 21 22  1  0  0  0
 22 23  2  0  0  0
 23 44  1  0  0  0
 24 45  1  0  0  0
 24 46  1  0  0  0
M  END
> <s_m_source_file>
../3s2p_ligand.sdf

> <i_m_source_file_index>
1

> <s_epik_input>
W09IXVtDQEBIXShbQ0gyXTEpW0NAQEhdKFtPSF0pW0NIMl1OMWMoW2NIXVtjSF1jMltPSF0pW2NIXWMyLWMzbmMoW05IMl0pbmMoW2NIXTMpW0NIXShbQ0gzXSlbQ0gzXQ==

> <s_epik_cmdline>
J2VwaWtfYXBwJywgJy1pbWFlJywgJ2xpZ2FuZF9wcm8ubWFlJywgJy1vbWFlJywgJ2xpZ2FuZF9wcmVwLm1hZScsICctbXMnLCAnMScsICctcGgnLCAnNycsICctcGh0JywgJzAuNScsICctbnQn

> <r_lp_tautomer_probability>
1

> <r_epik_Ionization_Penalty>
  0.0558

> <r_epik_Ionization_Penalty_Charging>
  0.0000

> <r_epik_Ionization_Penalty_Neutral>
  0.0558

> <r_epik_State_Penalty>
 -0.0000

> <r_epik_Charging_Adjusted_Penalty>
0

> <i_epik_Tot_Q>
0

> <i_epik_Tot_abs_Q>
0

$$$$
