3s2v_ligand
                    3D
 Schrodinger Suite 2020-3.
 38 40  0  0  1  0            999 V2000
   42.3890   59.2540    8.0070 C   0  0  0  0  0  0
   42.0550   57.1190    6.8080 N   0  3  0  0  0  0
   41.2530   59.0160    8.4520 O   0  0  0  0  0  0
   42.9780   58.2580    6.9990 C   0  0  1  0  0  0
   43.2260   58.9220    5.6380 C   0  0  0  0  0  0
   49.2140   54.5490    5.6060 O   0  5  0  0  0  0
   45.6840   55.3510    2.2250 O   0  0  0  0  0  0
   45.7480   57.9680    5.9500 O   0  0  0  0  0  0
   51.1850   55.4950    5.8470 O   0  0  0  0  0  0
   49.3650   58.9680    3.5080 C   0  0  0  0  0  0
   48.2230   58.2580    3.5250 C   0  0  0  0  0  0
   43.0890   56.1230    1.6610 C   0  0  0  0  0  0
   41.9130   57.7600    3.1870 C   0  0  0  0  0  0
   47.1520   56.1000    4.3000 C   0  0  0  0  0  0
   41.6040   56.8810    1.7860 S   0  0  0  0  0  0
   50.5260   58.0440    4.3270 S   0  0  0  0  0  0
   50.0100   55.4980    5.4290 C   0  0  0  0  0  0
   48.2940   57.0670    4.1570 C   0  0  0  0  0  0
   49.5520   56.7730    4.6840 C   0  0  0  0  0  0
   45.1180   56.1440    2.9750 C   0  0  0  0  0  0
   45.1640   57.5290    4.9580 C   0  0  0  0  0  0
   43.8180   56.5420    2.6980 C   0  0  0  0  0  0
   43.1630   57.4660    3.5650 C   0  0  0  0  0  0
   45.7970   56.6320    4.0790 N   0  0  0  0  0  0
   43.8560   57.9590    4.6880 N   0  0  0  0  0  0
   43.1330   60.1830    8.3970 O   0  5  0  0  0  0
   41.8677   56.6325    7.7766 H   0  0  0  0  0  0
   42.5060   56.3939    6.1146 H   0  0  0  0  0  0
   41.1046   57.4832    6.3907 H   0  0  0  0  0  0
   43.9229   57.8685    7.4057 H   0  0  0  0  0  0
   42.2688   59.2625    5.2163 H   0  0  0  0  0  0
   43.8970   59.7840    5.7674 H   0  0  0  0  0  0
   49.5149   59.9481    3.0551 H   0  0  0  0  0  0
   47.3048   58.6186    3.0613 H   0  0  0  0  0  0
   43.4008   55.4239    0.8850 H   0  0  0  0  0  0
   41.2259   58.4397    3.6910 H   0  0  0  0  0  0
   47.2713   55.2818    3.5745 H   0  0  0  0  0  0
   47.1461   55.6878    5.3198 H   0  0  0  0  0  0
  1  3  2  0  0  0
  1  4  1  0  0  0
  1 26  1  0  0  0
  2  4  1  0  0  0
  2 27  1  0  0  0
  2 28  1  0  0  0
  2 29  1  0  0  0
  4  5  1  0  0  0
  4 30  1  0  0  0
  5 25  1  0  0  0
  5 31  1  0  0  0
  5 32  1  0  0  0
  6 17  1  0  0  0
  7 20  2  0  0  0
  8 21  2  0  0  0
  9 17  2  0  0  0
 10 11  2  0  0  0
 10 16  1  0  0  0
 10 33  1  0  0  0
 11 18  1  0  0  0
 11 34  1  0  0  0
 12 15  1  0  0  0
 12 22  2  0  0  0
 12 35  1  0  0  0
 13 15  1  0  0  0
 13 23  2  0  0  0
 13 36  1  0  0  0
 14 18  1  0  0  0
 14 24  1  0  0  0
 14 37  1  0  0  0
 14 38  1  0  0  0
 16 19  1  0  0  0
 17 19  1  0  0  0
 18 19  2  0  0  0
 20 22  1  0  0  0
 20 24  1  0  0  0
 21 24  1  0  0  0
 21 25  1  0  0  0
 22 23  1  0  0  0
 23 25  1  0  0  0
M  CHG  3   2   1   6  -1  26  -1
M  END
> <s_m_source_file>
../3s2v_ligand.sdf

> <i_m_source_file_index>
1

> <s_epik_input>
Tz1DKFtPSF0pW0NAQEhdKFtOSDMrXSlbQ0gyXW4oYyhjMTIpW2NIXXNbY0hdMSljKD1PKW4oYzI9TylbQ0gyXWMzW2NIXVtjSF1zYzNDKD1PKVtPSF0=

> <s_epik_cmdline>
J2VwaWtfYXBwJywgJy1pbWFlJywgJ2xpZ2FuZF9wcm8ubWFlJywgJy1vbWFlJywgJ2xpZ2FuZF9wcmVwLm1hZScsICctbXMnLCAnMScsICctcGgnLCAnNycsICctcGh0JywgJzAuNScsICctbnQn

> <r_epik_Ionization_Penalty>
  0.0334

> <r_epik_Ionization_Penalty_Charging>
  0.0334

> <r_epik_Ionization_Penalty_Neutral>
  0.0000

> <r_epik_State_Penalty>
  0.0274

> <r_epik_Charging_Adjusted_Penalty>
0.0608431968504675

> <i_epik_Tot_Q>
-1

> <i_epik_Tot_abs_Q>
3

$$$$
