3s3i_ligand
                    3D
 Schrodinger Suite 2020-3.
 50 53  0  0  1  0            999 V2000
    6.9830   29.5440   31.0730 C   0  0  0  0  0  0
    5.7790   30.1950   31.3990 C   0  0  0  0  0  0
    4.6760   30.0220   30.5650 C   0  0  0  0  0  0
    4.7900   29.1620   29.4490 C   0  0  0  0  0  0
    5.9750   28.5320   29.0960 C   0  0  0  0  0  0
    7.0960   28.7560   29.9230 C   0  0  0  0  0  0
    3.3750   30.5370   30.7200 C   0  0  0  0  0  0
    2.9530   31.6830   30.0050 C   0  0  0  0  0  0
    1.6500   32.1350   30.1510 C   0  0  0  0  0  0
    0.7880   31.4550   31.0080 N   0  0  0  0  0  0
    1.1850   30.2370   31.7010 C   0  0  0  0  0  0
    2.4980   29.8150   31.5450 C   0  0  0  0  0  0
    0.9610   33.1870   29.6460 N   0  0  0  0  0  0
   -0.2490   33.1940   30.0380 N   0  0  0  0  0  0
   -0.4660   32.1710   30.9040 C   0  0  0  0  0  0
   -1.8340   31.7700   31.5840 C   0  0  0  0  0  0
    5.6810   31.0640   32.6390 C   0  0  0  0  0  0
    5.9630   27.6530   27.8240 C   0  0  0  0  0  0
    6.8520   26.6460   27.7280 N   0  0  0  0  0  0
    6.9360   25.7480   26.5820 C   0  0  0  0  0  0
    7.1770   26.4590   25.2880 C   0  0  0  0  0  0
    8.3000   25.6460   25.9180 C   0  0  0  0  0  0
    5.1540   27.8980   26.9440 O   0  0  0  0  0  0
   -2.9280   32.7050   31.1570 C   0  0  0  0  0  0
   -1.7000   31.7690   33.1000 C   0  0  0  0  0  0
   -2.2800   30.3590   31.0450 C   0  0  0  0  0  0
    7.8454   29.6561   31.7302 H   0  0  0  0  0  0
    3.9055   28.9854   28.8369 H   0  0  0  0  0  0
    8.0570   28.3117   29.6638 H   0  0  0  0  0  0
    3.6458   32.2057   29.3455 H   0  0  0  0  0  0
    0.4796   29.6795   32.3172 H   0  0  0  0  0  0
    2.8485   28.9225   32.0633 H   0  0  0  0  0  0
    6.6506   31.0723   33.1585 H   0  0  0  0  0  0
    4.9089   30.6596   33.3101 H   0  0  0  0  0  0
    5.4125   32.0901   32.3473 H   0  0  0  0  0  0
    7.5394   26.5195   28.5774 H   0  0  0  0  0  0
    6.2054   25.0241   26.9721 H   0  0  0  0  0  0
    6.4756   26.0847   24.5278 H   0  0  0  0  0  0
    7.0230   27.5390   25.4288 H   0  0  0  0  0  0
    9.0685   26.0462   26.5956 H   0  0  0  0  0  0
    8.5212   24.5919   25.6946 H   0  0  0  0  0  0
   -2.6928   33.7243   31.4973 H   0  0  0  0  0  0
   -3.8811   32.3811   31.6006 H   0  0  0  0  0  0
   -3.0118   32.6947   30.0602 H   0  0  0  0  0  0
   -1.3881   32.7671   33.4412 H   0  0  0  0  0  0
   -0.9463   31.0265   33.4010 H   0  0  0  0  0  0
   -2.6688   31.5127   33.5535 H   0  0  0  0  0  0
   -2.3667   30.3958   29.9490 H   0  0  0  0  0  0
   -3.2537   30.0910   31.4810 H   0  0  0  0  0  0
   -1.5311   29.6048   31.3285 H   0  0  0  0  0  0
  1  2  2  0  0  0
  1  6  1  0  0  0
  1 27  1  0  0  0
  2  3  1  0  0  0
  2 17  1  0  0  0
  3  4  2  0  0  0
  3  7  1  0  0  0
  4  5  1  0  0  0
  4 28  1  0  0  0
  5  6  2  0  0  0
  5 18  1  0  0  0
  6 29  1  0  0  0
  7  8  2  0  0  0
  7 12  1  0  0  0
  8  9  1  0  0  0
  8 30  1  0  0  0
  9 10  1  0  0  0
  9 13  2  0  0  0
 10 11  1  0  0  0
 10 15  1  0  0  0
 11 12  2  0  0  0
 11 31  1  0  0  0
 12 32  1  0  0  0
 13 14  1  0  0  0
 14 15  2  0  0  0
 15 16  1  0  0  0
 16 24  1  0  0  0
 16 25  1  0  0  0
 16 26  1  0  0  0
 17 33  1  0  0  0
 17 34  1  0  0  0
 17 35  1  0  0  0
 18 19  1  0  0  0
 18 23  2  0  0  0
 19 20  1  0  0  0
 19 36  1  0  0  0
 20 21  1  0  0  0
 20 22  1  0  0  0
 20 37  1  0  0  0
 21 22  1  0  0  0
 21 38  1  0  0  0
 21 39  1  0  0  0
 22 40  1  0  0  0
 22 41  1  0  0  0
 24 42  1  0  0  0
 24 43  1  0  0  0
 24 44  1  0  0  0
 25 45  1  0  0  0
 25 46  1  0  0  0
 25 47  1  0  0  0
 26 48  1  0  0  0
 26 49  1  0  0  0
 26 50  1  0  0  0
M  END
> <s_m_source_file>
../3s3i_ligand.sdf

> <i_m_source_file_index>
1

> <s_epik_input>
W0NIMl0xW0NIMl1bQ0hdMVtOSF1DKD1PKWMoW2NIXVtjSF1jMltDSDNdKVtjSF1jMi1jKFtjSF0zKVtjSF1bY0hdbihjMzQpYyhubjQpQyhbQ0gzXSkoW0NIM10pW0NIM10=

> <s_epik_cmdline>
J2VwaWtfYXBwJywgJy1pbWFlJywgJ2xpZ2FuZF9wcm8ubWFlJywgJy1vbWFlJywgJ2xpZ2FuZF9wcmVwLm1hZScsICctbXMnLCAnMScsICctcGgnLCAnNycsICctcGh0JywgJzAuNScsICctbnQn

> <r_lp_tautomer_probability>
1

> <r_epik_Ionization_Penalty>
  0.0001

> <r_epik_Ionization_Penalty_Charging>
  0.0000

> <r_epik_Ionization_Penalty_Neutral>
  0.0001

> <r_epik_State_Penalty>
 -0.0000

> <r_epik_Charging_Adjusted_Penalty>
0

> <i_epik_Tot_Q>
0

> <i_epik_Tot_abs_Q>
0

$$$$
