3s3k_ligand
                    3D
 Schrodinger Suite 2020-3.
 18 18  0  0  1  0            999 V2000
  -16.6410   26.5870   -3.0160 S   0  0  0  0  0  0
  -17.8470   26.3510   -2.2020 O   0  0  0  0  0  0
  -16.4390   25.4710   -4.0390 O   0  5  0  0  0  0
  -15.4350   26.6120   -2.0970 O   0  0  0  0  0  0
  -16.7860   27.9340   -3.7070 O   0  0  0  0  0  0
  -19.6490   25.3920   -3.9990 O   0  5  0  0  0  0
  -16.3410   22.1620    0.5800 O   0  5  0  0  0  0
  -17.6500   20.3880   -0.4560 O   0  0  0  0  0  0
  -17.4280   24.1460   -1.1330 C   0  0  0  0  0  0
  -17.2910   21.7780   -0.4070 N   0  3  0  0  0  0
  -19.3840   23.1650   -3.1110 C   0  0  0  0  0  0
  -18.1510   25.0180   -2.1650 C   0  0  0  0  0  0
  -18.7810   22.2720   -2.2140 C   0  0  0  0  0  0
  -19.0690   24.5310   -3.1010 C   0  0  0  0  0  0
  -17.8380   22.6760   -1.2530 C   0  0  0  0  0  0
  -16.7113   24.5251   -0.4045 H   0  0  0  0  0  0
  -20.1120   22.7898   -3.8303 H   0  0  0  0  0  0
  -19.0554   21.2183   -2.2640 H   0  0  0  0  0  0
  1  2  1  0  0  0
  1  3  1  0  0  0
  1  4  2  0  0  0
  1  5  2  0  0  0
  2 12  1  0  0  0
  6 14  1  0  0  0
  7 10  1  0  0  0
  8 10  2  0  0  0
  9 12  2  0  0  0
  9 15  1  0  0  0
  9 16  1  0  0  0
 10 15  1  0  0  0
 11 13  1  0  0  0
 11 14  2  0  0  0
 11 17  1  0  0  0
 12 14  1  0  0  0
 13 15  2  0  0  0
 13 18  1  0  0  0
M  CHG  4   3  -1   6  -1   7  -1  10   1
M  END
> <s_m_source_file>
../3s3k_ligand.sdf

> <i_m_source_file_index>
1

> <s_epik_input>
W09IXVMoPU8pKD1PKU9jMVtjSF1jKFtOK10oW08tXSk9TylbY0hdW2NIXWMxW09IXQ==

> <s_epik_cmdline>
J2VwaWtfYXBwJywgJy1pbWFlJywgJ2xpZ2FuZF9wcm8ubWFlJywgJy1vbWFlJywgJ2xpZ2FuZF9wcmVwLm1hZScsICctbXMnLCAnMScsICctcGgnLCAnNycsICctcGh0JywgJzAuNScsICctbnQn

> <r_epik_Ionization_Penalty>
  0.1230

> <r_epik_Ionization_Penalty_Charging>
  0.1230

> <r_epik_Ionization_Penalty_Neutral>
  0.0000

> <r_epik_State_Penalty>
  0.1125

> <r_epik_Charging_Adjusted_Penalty>
0.235504910366416

> <i_epik_Tot_Q>
-2

> <i_epik_Tot_abs_Q>
4

$$$$
