3s3m_ligand
                    3D
 Schrodinger Suite 2020-3.
 49 52  0  0  1  0            999 V2000
  -36.2970   25.8820  -19.4050 C   0  0  0  0  0  0
  -38.0710   34.0460  -22.7880 O   0  0  0  0  0  0
  -36.4440   29.3970  -17.4480 O   0  0  0  0  0  0
  -37.0250   34.2060  -18.8970 O   0  0  0  0  0  0
  -36.5870   31.9920  -17.3810 O   0  5  0  0  0  0
  -42.5300   39.3240  -20.9210 F   0  0  0  0  0  0
  -38.4720   37.6160  -19.4090 F   0  0  0  0  0  0
  -41.1360   38.1950  -22.5070 C   0  0  0  0  0  0
  -39.9290   37.5220  -22.7650 C   0  0  0  0  0  0
  -40.5150   38.4550  -20.1720 C   0  0  0  0  0  0
  -37.4540   31.7980  -21.4200 C   0  0  0  0  0  0
  -39.3220   26.7420  -20.0760 C   0  0  0  0  0  0
  -38.6640   26.4310  -18.7080 C   0  0  0  0  0  0
  -37.7550   36.5760  -22.0470 C   0  0  0  0  0  0
  -37.2920   29.3670  -21.5130 C   0  0  0  0  0  0
  -37.4770   35.4600  -21.1520 N   0  0  0  0  0  0
  -39.0750   28.0700  -20.6060 O   0  0  0  0  0  0
  -37.6420   34.2370  -21.6590 C   0  0  0  0  0  0
  -36.7650   29.4270  -18.6460 C   0  0  0  0  0  0
  -41.4050   38.6520  -21.2100 C   0  0  0  0  0  0
  -39.3340   37.7890  -20.4310 C   0  0  0  0  0  0
  -39.0350   37.2990  -21.7210 C   0  0  0  0  0  0
  -36.8710   31.9030  -18.7040 C   0  0  0  0  0  0
  -37.3830   33.0190  -20.7920 C   0  0  0  0  0  0
  -36.9290   30.6470  -19.3340 C   0  0  0  0  0  0
  -37.0850   33.0910  -19.4330 C   0  0  0  0  0  0
  -37.1930   26.8990  -18.6710 C   0  0  2  0  0  0
  -37.6350   28.1810  -20.7140 C   0  0  2  0  0  0
  -37.1670   28.2170  -19.3090 N   0  0  0  0  0  0
  -37.2340   30.6170  -20.7180 N   0  3  0  0  0  0
  -36.3484   24.9105  -18.8916 H   0  0  0  0  0  0
  -35.2576   26.2421  -19.4052 H   0  0  0  0  0  0
  -36.6456   25.7676  -20.4420 H   0  0  0  0  0  0
  -41.8560   38.3598  -23.3086 H   0  0  0  0  0  0
  -39.6952   37.1781  -23.7726 H   0  0  0  0  0  0
  -40.7406   38.8179  -19.1693 H   0  0  0  0  0  0
  -37.6862   31.7545  -22.4841 H   0  0  0  0  0  0
  -38.9493   26.0345  -20.8314 H   0  0  0  0  0  0
  -40.4141   26.6434  -19.9885 H   0  0  0  0  0  0
  -39.2154   26.9493  -17.9097 H   0  0  0  0  0  0
  -38.6898   25.3463  -18.5268 H   0  0  0  0  0  0
  -36.9367   37.3085  -21.9848 H   0  0  0  0  0  0
  -37.8382   36.2060  -23.0796 H   0  0  0  0  0  0
  -36.3044   29.2242  -21.9758 H   0  0  0  0  0  0
  -38.0479   29.5107  -22.2991 H   0  0  0  0  0  0
  -37.1502   35.6514  -20.1193 H   0  0  0  0  0  0
  -36.7961   27.0197  -17.6522 H   0  0  0  0  0  0
  -37.1620   27.3455  -21.2509 H   0  0  0  0  0  0
  -36.7914   34.2892  -17.8253 H   0  0  0  0  0  0
  1 27  1  0  0  0
  1 31  1  0  0  0
  1 32  1  0  0  0
  1 33  1  0  0  0
  2 18  2  0  0  0
  3 19  2  0  0  0
  4 26  1  0  0  0
  4 49  1  0  0  0
  5 23  1  0  0  0
  6 20  1  0  0  0
  7 21  1  0  0  0
  8  9  2  0  0  0
  8 20  1  0  0  0
  8 34  1  0  0  0
  9 22  1  0  0  0
  9 35  1  0  0  0
 10 20  2  0  0  0
 10 21  1  0  0  0
 10 36  1  0  0  0
 11 24  1  0  0  0
 11 30  2  0  0  0
 11 37  1  0  0  0
 12 13  1  0  0  0
 12 17  1  0  0  0
 12 38  1  0  0  0
 12 39  1  0  0  0
 13 27  1  0  0  0
 13 40  1  0  0  0
 13 41  1  0  0  0
 14 16  1  0  0  0
 14 22  1  0  0  0
 14 42  1  0  0  0
 14 43  1  0  0  0
 15 28  1  0  0  0
 15 30  1  0  0  0
 15 44  1  0  0  0
 15 45  1  0  0  0
 16 18  1  0  0  0
 16 46  1  0  0  0
 17 28  1  0  0  0
 18 24  1  0  0  0
 19 25  1  0  0  0
 19 29  1  0  0  0
 21 22  2  0  0  0
 23 25  2  0  0  0
 23 26  1  0  0  0
 24 26  2  0  0  0
 25 30  1  0  0  0
 27 29  1  0  0  0
 27 47  1  0  0  0
 28 29  1  0  0  0
 28 48  1  0  0  0
M  CHG  2   5  -1  30   1
M  END
> <s_m_source_file>
../3s3m_ligand.sdf

> <i_m_source_file_index>
1

> <s_epik_input>
TzFbQ0gyXVtDSDJdW0NAQEhdKFtDSDNdKU4oQzI9TylbQ0BASF0xW0NIMl1uKGMyMylbY0hdYyhjKD1PKWMzW09IXSlDKD1PKVtOSF1bQ0gyXWMoYyhGKVtjSF00KVtjSF1bY0hdYzRG

> <s_epik_cmdline>
J2VwaWtfYXBwJywgJy1pbWFlJywgJ2xpZ2FuZF9wcm8ubWFlJywgJy1vbWFlJywgJ2xpZ2FuZF9wcmVwLm1hZScsICctbXMnLCAnMScsICctcGgnLCAnNycsICctcGh0JywgJzAuNScsICctbnQn

> <r_lp_tautomer_probability>
0.995892618013405

> <r_epik_Ionization_Penalty>
  1.4175

> <r_epik_Ionization_Penalty_Charging>
  0.0000

> <r_epik_Ionization_Penalty_Neutral>
  1.4175

> <r_epik_State_Penalty>
  0.2872

> <r_epik_Charging_Adjusted_Penalty>
0.287201715746712

> <i_epik_Tot_Q>
0

> <i_epik_Tot_abs_Q>
2

> <s_epik_Chemistry_Notes>
This compound contains an acetal/aminal-like group ( X-CH(R)-Y where X, Y are N, S, or O) that may be acid/base labile, releasing an aldehyde.

$$$$
