3s3n_ligand
                    3D
 Schrodinger Suite 2020-3.
 49 52  0  0  1  0            999 V2000
  -36.0510   25.5370  -19.4090 C   0  0  0  0  0  0
  -38.3370   33.7350  -22.8200 O   0  0  0  0  0  0
  -36.1760   29.0600  -17.6050 O   0  0  0  0  0  0
  -37.0580   33.8630  -18.9880 O   0  0  0  0  0  0
  -36.4790   31.6820  -17.5050 O   0  5  0  0  0  0
  -42.5990   38.9160  -20.9320 F   0  0  0  0  0  0
  -38.3960   37.5400  -19.5030 F   0  0  0  0  0  0
  -41.2500   37.6480  -22.4230 C   0  0  0  0  0  0
  -40.0450   36.9880  -22.6900 C   0  0  0  0  0  0
  -40.5100   38.2230  -20.1670 C   0  0  0  0  0  0
  -37.5950   31.4450  -21.4740 C   0  0  0  0  0  0
  -39.3790   26.7440  -19.6160 C   0  0  0  0  0  0
  -38.3730   25.9900  -18.7070 C   0  0  0  0  0  0
  -37.8220   36.2420  -22.0100 C   0  0  0  0  0  0
  -37.3830   29.0400  -21.5580 C   0  0  0  0  0  0
  -37.5780   35.0890  -21.1860 N   0  0  0  0  0  0
  -39.0050   27.9460  -20.4270 O   0  0  0  0  0  0
  -37.8530   33.8900  -21.7000 C   0  0  0  0  0  0
  -36.6410   29.0870  -18.7500 C   0  0  0  0  0  0
  -41.4620   38.2540  -21.1730 C   0  0  0  0  0  0
  -39.3300   37.5730  -20.4480 C   0  0  0  0  0  0
  -39.0910   36.9360  -21.6830 C   0  0  0  0  0  0
  -36.8270   31.5700  -18.8150 C   0  0  0  0  0  0
  -37.5260   32.6690  -20.8590 C   0  0  0  0  0  0
  -36.8930   30.3090  -19.4300 C   0  0  0  0  0  0
  -37.1310   32.7480  -19.5290 C   0  0  0  0  0  0
  -36.9540   26.5600  -18.7150 C   0  0  2  0  0  0
  -37.6410   27.8550  -20.7230 C   0  0  2  0  0  0
  -37.0060   27.8620  -19.3860 N   0  0  0  0  0  0
  -37.2890   30.2800  -20.7850 N   0  3  0  0  0  0
  -36.0670   24.5922  -18.8459 H   0  0  0  0  0  0
  -35.0218   25.9232  -19.4479 H   0  0  0  0  0  0
  -36.4154   25.3605  -20.4318 H   0  0  0  0  0  0
  -42.0263   37.6921  -23.1869 H   0  0  0  0  0  0
  -39.8609   36.5280  -23.6609 H   0  0  0  0  0  0
  -40.6872   38.6913  -19.1988 H   0  0  0  0  0  0
  -37.8949   31.3865  -22.5203 H   0  0  0  0  0  0
  -39.7682   26.0564  -20.3814 H   0  0  0  0  0  0
  -40.2121   27.1228  -19.0057 H   0  0  0  0  0  0
  -38.7236   26.0241  -17.6649 H   0  0  0  0  0  0
  -38.2969   24.9426  -19.0342 H   0  0  0  0  0  0
  -37.0043   36.9660  -21.8790 H   0  0  0  0  0  0
  -37.8739   35.9345  -23.0649 H   0  0  0  0  0  0
  -36.4318   28.9101  -22.0950 H   0  0  0  0  0  0
  -38.2003   29.1620  -22.2841 H   0  0  0  0  0  0
  -37.1778   35.2145  -20.1691 H   0  0  0  0  0  0
  -36.5374   26.7735  -17.7196 H   0  0  0  0  0  0
  -37.3136   26.9633  -21.2776 H   0  0  0  0  0  0
  -36.7471   33.9446  -17.9360 H   0  0  0  0  0  0
  1 27  1  0  0  0
  1 31  1  0  0  0
  1 32  1  0  0  0
  1 33  1  0  0  0
  2 18  2  0  0  0
  3 19  2  0  0  0
  4 26  1  0  0  0
  4 49  1  0  0  0
  5 23  1  0  0  0
  6 20  1  0  0  0
  7 21  1  0  0  0
  8  9  2  0  0  0
  8 20  1  0  0  0
  8 34  1  0  0  0
  9 22  1  0  0  0
  9 35  1  0  0  0
 10 20  2  0  0  0
 10 21  1  0  0  0
 10 36  1  0  0  0
 11 24  1  0  0  0
 11 30  2  0  0  0
 11 37  1  0  0  0
 12 13  1  0  0  0
 12 17  1  0  0  0
 12 38  1  0  0  0
 12 39  1  0  0  0
 13 27  1  0  0  0
 13 40  1  0  0  0
 13 41  1  0  0  0
 14 16  1  0  0  0
 14 22  1  0  0  0
 14 42  1  0  0  0
 14 43  1  0  0  0
 15 28  1  0  0  0
 15 30  1  0  0  0
 15 44  1  0  0  0
 15 45  1  0  0  0
 16 18  1  0  0  0
 16 46  1  0  0  0
 17 28  1  0  0  0
 18 24  1  0  0  0
 19 25  1  0  0  0
 19 29  1  0  0  0
 21 22  2  0  0  0
 23 25  2  0  0  0
 23 26  1  0  0  0
 24 26  2  0  0  0
 25 30  1  0  0  0
 27 29  1  0  0  0
 27 47  1  0  0  0
 28 29  1  0  0  0
 28 48  1  0  0  0
M  CHG  2   5  -1  30   1
M  END
> <s_m_source_file>
../3s3n_ligand.sdf

> <i_m_source_file_index>
1

> <s_epik_input>
TzFbQ0gyXVtDSDJdW0NAQEhdKFtDSDNdKU4oQzI9TylbQ0BASF0xW0NIMl1uKGMyMylbY0hdYyhjKD1PKWMzW09IXSlDKD1PKVtOSF1bQ0gyXWMoYyhGKVtjSF00KVtjSF1bY0hdYzRG

> <s_epik_cmdline>
J2VwaWtfYXBwJywgJy1pbWFlJywgJ2xpZ2FuZF9wcm8ubWFlJywgJy1vbWFlJywgJ2xpZ2FuZF9wcmVwLm1hZScsICctbXMnLCAnMScsICctcGgnLCAnNycsICctcGh0JywgJzAuNScsICctbnQn

> <r_lp_tautomer_probability>
0.995892618013405

> <r_epik_Ionization_Penalty>
  1.4175

> <r_epik_Ionization_Penalty_Charging>
  0.0000

> <r_epik_Ionization_Penalty_Neutral>
  1.4175

> <r_epik_State_Penalty>
  0.2872

> <r_epik_Charging_Adjusted_Penalty>
0.287201715746711

> <i_epik_Tot_Q>
0

> <i_epik_Tot_abs_Q>
2

> <s_epik_Chemistry_Notes>
This compound contains an acetal/aminal-like group ( X-CH(R)-Y where X, Y are N, S, or O) that may be acid/base labile, releasing an aldehyde.

$$$$
