3s3o_ligand
                    3D
 Schrodinger Suite 2020-3.
 49 52  0  0  1  0            999 V2000
  -36.0990   25.7270  -19.3230 C   0  0  0  0  0  0
  -37.9060   33.8760  -22.7700 O   0  0  0  0  0  0
  -36.5400   29.1010  -17.4580 O   0  0  0  0  0  0
  -36.9460   33.9400  -18.7620 O   0  0  0  0  0  0
  -36.6720   31.7120  -17.3410 O   0  5  0  0  0  0
  -42.3660   39.1910  -20.5990 F   0  0  0  0  0  0
  -38.2040   37.5450  -19.3260 F   0  0  0  0  0  0
  -41.0990   38.0170  -22.2070 C   0  0  0  0  0  0
  -39.9210   37.3330  -22.5290 C   0  0  0  0  0  0
  -40.3030   38.3790  -19.9200 C   0  0  0  0  0  0
  -37.4590   31.6330  -21.4140 C   0  0  0  0  0  0
  -39.5130   27.0120  -19.4770 C   0  0  0  0  0  0
  -38.5090   25.9630  -19.0290 C   0  0  0  0  0  0
  -37.7040   36.4330  -21.9680 C   0  0  0  0  0  0
  -37.4100   29.2060  -21.5460 C   0  0  0  0  0  0
  -37.4360   35.3050  -21.0750 N   0  0  0  0  0  0
  -39.0950   27.8600  -20.6220 O   0  0  0  0  0  0
  -37.5500   34.0770  -21.6110 C   0  0  0  0  0  0
  -36.8870   29.1700  -18.6510 C   0  0  0  0  0  0
  -41.2570   38.5210  -20.9080 C   0  0  0  0  0  0
  -39.1520   37.7040  -20.2660 C   0  0  0  0  0  0
  -38.9500   37.1690  -21.5550 C   0  0  0  0  0  0
  -36.9200   31.6500  -18.6720 C   0  0  0  0  0  0
  -37.3450   32.8390  -20.7420 C   0  0  0  0  0  0
  -37.0260   30.4020  -19.3270 C   0  0  0  0  0  0
  -37.0690   32.8610  -19.3650 C   0  0  0  0  0  0
  -37.1730   26.6320  -18.7230 C   0  0  2  0  0  0
  -37.6650   27.9820  -20.7480 C   0  0  2  0  0  0
  -37.1790   27.9740  -19.3530 N   0  0  0  0  0  0
  -37.3000   30.4140  -20.7280 N   0  3  0  0  0  0
  -36.1292   24.7448  -18.8288 H   0  0  0  0  0  0
  -35.1093   26.1830  -19.1725 H   0  0  0  0  0  0
  -36.2850   25.6015  -20.3999 H   0  0  0  0  0  0
  -41.8808   38.1556  -22.9538 H   0  0  0  0  0  0
  -39.7699   36.9349  -23.5324 H   0  0  0  0  0  0
  -40.4524   38.7802  -18.9176 H   0  0  0  0  0  0
  -37.6736   31.6279  -22.4827 H   0  0  0  0  0  0
  -40.4463   26.5182  -19.7852 H   0  0  0  0  0  0
  -39.7201   27.7005  -18.6445 H   0  0  0  0  0  0
  -38.8823   25.4610  -18.1242 H   0  0  0  0  0  0
  -38.3717   25.2213  -19.8296 H   0  0  0  0  0  0
  -36.8563   37.1334  -21.9385 H   0  0  0  0  0  0
  -37.8387   36.0635  -22.9953 H   0  0  0  0  0  0
  -36.4665   29.0926  -22.1000 H   0  0  0  0  0  0
  -38.2359   29.3594  -22.2561 H   0  0  0  0  0  0
  -37.1584   35.4876  -20.0264 H   0  0  0  0  0  0
  -36.9860   26.7939  -17.6512 H   0  0  0  0  0  0
  -37.1534   27.1696  -21.2849 H   0  0  0  0  0  0
  -36.7298   33.9458  -17.6835 H   0  0  0  0  0  0
  1 27  1  0  0  0
  1 31  1  0  0  0
  1 32  1  0  0  0
  1 33  1  0  0  0
  2 18  2  0  0  0
  3 19  2  0  0  0
  4 26  1  0  0  0
  4 49  1  0  0  0
  5 23  1  0  0  0
  6 20  1  0  0  0
  7 21  1  0  0  0
  8  9  2  0  0  0
  8 20  1  0  0  0
  8 34  1  0  0  0
  9 22  1  0  0  0
  9 35  1  0  0  0
 10 20  2  0  0  0
 10 21  1  0  0  0
 10 36  1  0  0  0
 11 24  1  0  0  0
 11 30  2  0  0  0
 11 37  1  0  0  0
 12 13  1  0  0  0
 12 17  1  0  0  0
 12 38  1  0  0  0
 12 39  1  0  0  0
 13 27  1  0  0  0
 13 40  1  0  0  0
 13 41  1  0  0  0
 14 16  1  0  0  0
 14 22  1  0  0  0
 14 42  1  0  0  0
 14 43  1  0  0  0
 15 28  1  0  0  0
 15 30  1  0  0  0
 15 44  1  0  0  0
 15 45  1  0  0  0
 16 18  1  0  0  0
 16 46  1  0  0  0
 17 28  1  0  0  0
 18 24  1  0  0  0
 19 25  1  0  0  0
 19 29  1  0  0  0
 21 22  2  0  0  0
 23 25  2  0  0  0
 23 26  1  0  0  0
 24 26  2  0  0  0
 25 30  1  0  0  0
 27 29  1  0  0  0
 27 47  1  0  0  0
 28 29  1  0  0  0
 28 48  1  0  0  0
M  CHG  2   5  -1  30   1
M  END
> <s_m_source_file>
../3s3o_ligand.sdf

> <i_m_source_file_index>
1

> <s_epik_input>
TzFbQ0gyXVtDSDJdW0NAQEhdKFtDSDNdKU4oQzI9TylbQ0BASF0xW0NIMl1uKGMyMylbY0hdYyhjKD1PKWMzW09IXSlDKD1PKVtOSF1bQ0gyXWMoYyhGKVtjSF00KVtjSF1bY0hdYzRG

> <s_epik_cmdline>
J2VwaWtfYXBwJywgJy1pbWFlJywgJ2xpZ2FuZF9wcm8ubWFlJywgJy1vbWFlJywgJ2xpZ2FuZF9wcmVwLm1hZScsICctbXMnLCAnMScsICctcGgnLCAnNycsICctcGh0JywgJzAuNScsICctbnQn

> <r_lp_tautomer_probability>
0.995892618013405

> <r_epik_Ionization_Penalty>
  1.4175

> <r_epik_Ionization_Penalty_Charging>
  0.0000

> <r_epik_Ionization_Penalty_Neutral>
  1.4175

> <r_epik_State_Penalty>
  0.2872

> <r_epik_Charging_Adjusted_Penalty>
0.287201715746712

> <i_epik_Tot_Q>
0

> <i_epik_Tot_abs_Q>
2

> <s_epik_Chemistry_Notes>
This compound contains an acetal/aminal-like group ( X-CH(R)-Y where X, Y are N, S, or O) that may be acid/base labile, releasing an aldehyde.

$$$$
