3s3q_ligand
                    3D
 Schrodinger Suite 2020-3.
 76 78  0  0  1  0            999 V2000
   20.8400   10.5570   21.8310 N   0  0  0  0  0  0
   21.7280   11.4630   22.2660 C   0  0  0  0  0  0
   21.6500   12.6250   21.8770 O   0  0  0  0  0  0
   22.6970   11.1200   23.1390 N   0  0  0  0  0  0
   22.8640    9.7340   23.6090 C   0  0  0  0  0  0
   23.1520    9.7470   25.1160 C   0  0  0  0  0  0
   24.2910   10.5920   25.3180 O   0  0  0  0  0  0
   23.9660   11.9550   25.0730 C   0  0  0  0  0  0
   23.6600   12.1460   23.5910 C   0  0  0  0  0  0
   19.7580   10.9450   20.9030 C   0  0  2  0  0  0
   18.8680   11.9500   21.6030 C   0  0  0  0  0  0
   18.3790   11.6330   22.6760 O   0  0  0  0  0  0
   18.6710   13.1590   21.0430 N   0  0  0  0  0  0
   17.8320   14.1700   21.7190 C   0  0  2  0  0  0
   16.5940   14.4920   20.8480 C   0  0  0  0  0  0
   16.8530   15.1470   19.4900 C   0  0  0  0  0  0
   16.1320   16.6610   19.3770 S   0  0  0  0  0  0
   14.6970   16.5920   19.3330 O   0  0  0  0  0  0
   16.5110   17.4590   20.5100 O   0  0  0  0  0  0
   16.7890   17.3710   18.1100 C   0  0  0  0  0  0
   16.2970   17.2000   16.8120 C   0  0  0  0  0  0
   16.9300   17.8660   15.7520 C   0  0  0  0  0  0
   18.0240   18.6960   15.9850 C   0  0  0  0  0  0
   18.5180   18.8720   17.2810 C   0  0  0  0  0  0
   17.9010   18.2020   18.3390 C   0  0  0  0  0  0
   18.6710   15.4240   21.9080 C   0  0  0  0  0  0
   19.6860   15.2400   23.0360 C   0  0  0  0  0  0
   20.5680   16.4540   23.2080 C   0  0  0  0  0  0
   20.2580   17.3880   24.2030 C   0  0  0  0  0  0
   21.0750   18.5070   24.3970 C   0  0  0  0  0  0
   22.1920   18.6800   23.5870 C   0  0  0  0  0  0
   22.5130   17.7450   22.6010 C   0  0  0  0  0  0
   21.6980   16.6250   22.3950 C   0  0  0  0  0  0
   18.9330    9.6980   20.5860 C   0  0  0  0  0  0
   19.6490    8.7190   19.6490 C   0  0  0  0  0  0
   19.9820    9.3500   18.3130 C   0  0  0  0  0  0
   18.7940    7.5080   19.3710 C   0  0  0  0  0  0
   20.9240    9.5149   22.1730 H   0  0  0  0  0  0
   21.9421    9.1668   23.4130 H   0  0  0  0  0  0
   23.7037    9.2646   23.0756 H   0  0  0  0  0  0
   22.2764   10.1402   25.6532 H   0  0  0  0  0  0
   23.3625    8.7229   25.4579 H   0  0  0  0  0  0
   23.0844   12.2345   25.6685 H   0  0  0  0  0  0
   24.8170   12.5916   25.3568 H   0  0  0  0  0  0
   24.5918   12.0539   23.0137 H   0  0  0  0  0  0
   23.2298   13.1464   23.4357 H   0  0  0  0  0  0
   20.1969   11.3819   19.9939 H   0  0  0  0  0  0
   19.1399   13.3913   20.0754 H   0  0  0  0  0  0
   17.5167   13.7652   22.6920 H   0  0  0  0  0  0
   16.0480   13.5625   20.6290 H   0  0  0  0  0  0
   15.9345   15.1856   21.3902 H   0  0  0  0  0  0
   17.9362   15.2694   19.3426 H   0  0  0  0  0  0
   16.4440   14.5102   18.6918 H   0  0  0  0  0  0
   15.4350   16.5591   16.6269 H   0  0  0  0  0  0
   16.5617   17.7325   14.7348 H   0  0  0  0  0  0
   18.4986   19.2123   15.1505 H   0  0  0  0  0  0
   19.3729   19.5232   17.4628 H   0  0  0  0  0  0
   18.2844   18.3238   19.3521 H   0  0  0  0  0  0
   19.2144   15.6453   20.9775 H   0  0  0  0  0  0
   18.0144   16.2701   22.1592 H   0  0  0  0  0  0
   19.1542   15.0653   23.9829 H   0  0  0  0  0  0
   20.3301   14.3767   22.8125 H   0  0  0  0  0  0
   19.3773   17.2432   24.8287 H   0  0  0  0  0  0
   20.8388   19.2344   25.1737 H   0  0  0  0  0  0
   22.8251   19.5567   23.7236 H   0  0  0  0  0  0
   23.4030   17.8876   21.9881 H   0  0  0  0  0  0
   21.9374   15.8997   21.6174 H   0  0  0  0  0  0
   18.7089    9.1597   21.5188 H   0  0  0  0  0  0
   17.9924    9.9947   20.0989 H   0  0  0  0  0  0
   20.5777    8.4197   20.1569 H   0  0  0  0  0  0
   20.6074   10.2405   18.4738 H   0  0  0  0  0  0
   19.0519    9.6423   17.8036 H   0  0  0  0  0  0
   20.5285    8.6255   17.6914 H   0  0  0  0  0  0
   18.5300    7.0198   20.3207 H   0  0  0  0  0  0
   19.3526    6.8022   18.7387 H   0  0  0  0  0  0
   17.8760    7.8189   18.8509 H   0  0  0  0  0  0
  1  2  1  0  0  0
  1 10  1  0  0  0
  1 38  1  0  0  0
  2  3  2  0  0  0
  2  4  1  0  0  0
  4  5  1  0  0  0
  4  9  1  0  0  0
  5  6  1  0  0  0
  5 39  1  0  0  0
  5 40  1  0  0  0
  6  7  1  0  0  0
  6 41  1  0  0  0
  6 42  1  0  0  0
  7  8  1  0  0  0
  8  9  1  0  0  0
  8 43  1  0  0  0
  8 44  1  0  0  0
  9 45  1  0  0  0
  9 46  1  0  0  0
 10 11  1  0  0  0
 10 34  1  0  0  0
 10 47  1  0  0  0
 11 12  2  0  0  0
 11 13  1  0  0  0
 13 14  1  0  0  0
 13 48  1  0  0  0
 14 15  1  0  0  0
 14 26  1  0  0  0
 14 49  1  0  0  0
 15 16  1  0  0  0
 15 50  1  0  0  0
 15 51  1  0  0  0
 16 17  1  0  0  0
 16 52  1  0  0  0
 16 53  1  0  0  0
 17 18  2  0  0  0
 17 19  2  0  0  0
 17 20  1  0  0  0
 20 21  2  0  0  0
 20 25  1  0  0  0
 21 22  1  0  0  0
 21 54  1  0  0  0
 22 23  2  0  0  0
 22 55  1  0  0  0
 23 24  1  0  0  0
 23 56  1  0  0  0
 24 25  2  0  0  0
 24 57  1  0  0  0
 25 58  1  0  0  0
 26 27  1  0  0  0
 26 59  1  0  0  0
 26 60  1  0  0  0
 27 28  1  0  0  0
 27 61  1  0  0  0
 27 62  1  0  0  0
 28 29  2  0  0  0
 28 33  1  0  0  0
 29 30  1  0  0  0
 29 63  1  0  0  0
 30 31  2  0  0  0
 30 64  1  0  0  0
 31 32  1  0  0  0
 31 65  1  0  0  0
 32 33  2  0  0  0
 32 66  1  0  0  0
 33 67  1  0  0  0
 34 35  1  0  0  0
 34 68  1  0  0  0
 34 69  1  0  0  0
 35 36  1  0  0  0
 35 37  1  0  0  0
 35 70  1  0  0  0
 36 71  1  0  0  0
 36 72  1  0  0  0
 36 73  1  0  0  0
 37 74  1  0  0  0
 37 75  1  0  0  0
 37 76  1  0  0  0
M  END
> <s_m_source_file>
../3s3q_ligand.sdf

> <i_m_source_file_index>
1

> <s_epik_input>
W0NIMl0xW0NIMl1PW0NIMl1bQ0gyXU4xQyg9TylbTkhdW0NAQEhdKFtDSDJdW0NIXShbQ0gzXSlbQ0gzXSlDKD1PKVtOSF1bQ0BASF0oW0NIMl1bQ0gyXWMyW2NIXVtjSF1bY0hdW2NIXVtjSF0yKVtDSDJdW0NIMl1TKD1PKSg9TyljM1tjSF1bY0hdW2NIXVtjSF1bY0hdMw==

> <s_epik_cmdline>
J2VwaWtfYXBwJywgJy1pbWFlJywgJ2xpZ2FuZF9wcm8ubWFlJywgJy1vbWFlJywgJ2xpZ2FuZF9wcmVwLm1hZScsICctbXMnLCAnMScsICctcGgnLCAnNycsICctcGh0JywgJzAuNScsICctbnQn

> <r_lp_tautomer_probability>
1

> <r_epik_Ionization_Penalty>
  0.0000

> <r_epik_Ionization_Penalty_Charging>
  0.0000

> <r_epik_Ionization_Penalty_Neutral>
  0.0000

> <r_epik_State_Penalty>
 -0.0000

> <r_epik_Charging_Adjusted_Penalty>
0

> <i_epik_Tot_Q>
0

> <i_epik_Tot_abs_Q>
0

$$$$
