3s3r_ligand
                    3D
 Schrodinger Suite 2020-3.
 82 85  0  0  1  0            999 V2000
    0.8360  -14.5110  -22.7020 N   0  0  0  0  0  0
    1.6460  -14.6220  -21.6330 C   0  0  0  0  0  0
    2.6330  -15.3620  -21.6570 O   0  0  0  0  0  0
   -0.3400  -13.6360  -22.7040 C   0  0  0  0  0  0
   -0.8730  -13.4730  -24.1180 C   0  0  0  0  0  0
   -1.1280  -14.8020  -24.6500 N   0  3  0  0  0  0
   -2.3170  -15.0370  -25.4610 C   0  0  0  0  0  0
   -0.2010  -15.9020  -24.3970 C   0  0  0  0  0  0
    1.1090  -15.2790  -23.9230 C   0  0  0  0  0  0
    1.3630  -13.9180  -20.5330 N   0  0  0  0  0  0
    2.1910  -13.9920  -19.3270 C   0  0  2  0  0  0
    2.0430  -15.3480  -18.6960 C   0  0  0  0  0  0
    0.9370  -15.7740  -18.4520 O   0  0  0  0  0  0
    1.6870  -12.8920  -18.3810 C   0  0  0  0  0  0
    2.2090  -11.5380  -18.8160 C   0  0  0  0  0  0
    3.3930  -11.0360  -18.2660 C   0  0  0  0  0  0
    1.5100  -10.7870  -19.7600 C   0  0  0  0  0  0
    3.8670   -9.7850  -18.6700 C   0  0  0  0  0  0
    1.9780   -9.5370  -20.1610 C   0  0  0  0  0  0
    3.1570   -9.0340  -19.6120 C   0  0  0  0  0  0
    5.1690  -16.9180  -16.3090 C   0  0  0  0  0  0
    3.7030  -17.3150  -16.4480 C   0  0  0  0  0  0
    3.1000  -17.3700  -17.8600 C   0  0  1  0  0  0
    3.1480  -16.0380  -18.4480 N   0  0  0  0  0  0
    3.9490  -18.2510  -18.7700 C   0  0  0  0  0  0
    3.4030  -18.3410  -20.1880 C   0  0  0  0  0  0
    4.0910  -19.5040  -20.8540 C   0  0  0  0  0  0
    3.5010  -20.7740  -20.8030 C   0  0  0  0  0  0
    4.1500  -21.8470  -21.4020 C   0  0  0  0  0  0
    5.3650  -21.6430  -22.0570 C   0  0  0  0  0  0
    5.9520  -20.3730  -22.1050 C   0  0  0  0  0  0
    5.3120  -19.2950  -21.4970 C   0  0  0  0  0  0
    6.3640  -21.8570  -17.6970 C   0  0  0  0  0  0
    5.5550  -21.7690  -16.5480 C   0  0  0  0  0  0
    5.4460  -20.5640  -15.8230 C   0  0  0  0  0  0
    6.1520  -19.4390  -16.2500 C   0  0  0  0  0  0
    6.0730  -18.0490  -15.4620 S   0  0  0  0  0  0
    5.5530  -18.1990  -14.1350 O   0  0  0  0  0  0
    7.4260  -17.5740  -15.3300 O   0  0  0  0  0  0
    6.9640  -19.5380  -17.3860 C   0  0  0  0  0  0
    7.0790  -20.7320  -18.1180 C   0  0  0  0  0  0
   -1.1256  -14.0763  -22.0724 H   0  0  0  0  0  0
   -0.0625  -12.6478  -22.3085 H   0  0  0  0  0  0
   -1.8027  -12.8856  -24.0939 H   0  0  0  0  0  0
   -0.1256  -12.9513  -24.7338 H   0  0  0  0  0  0
   -1.6964  -15.0560  -23.7431 H   0  0  0  0  0  0
   -2.8938  -14.1041  -25.5450 H   0  0  0  0  0  0
   -2.9380  -15.8106  -24.9857 H   0  0  0  0  0  0
   -2.0160  -15.3736  -26.4641 H   0  0  0  0  0  0
   -0.6194  -16.5637  -23.6243 H   0  0  0  0  0  0
   -0.0474  -16.4728  -25.3247 H   0  0  0  0  0  0
    1.5100  -14.6075  -24.6965 H   0  0  0  0  0  0
    1.8448  -16.0667  -23.7039 H   0  0  0  0  0  0
    0.4761  -13.2676  -20.5522 H   0  0  0  0  0  0
    3.2505  -13.8617  -19.5926 H   0  0  0  0  0  0
    0.5873  -12.8722  -18.3947 H   0  0  0  0  0  0
    2.0373  -13.0985  -17.3589 H   0  0  0  0  0  0
    3.9431  -11.6175  -17.5262 H   0  0  0  0  0  0
    0.5886  -11.1813  -20.1885 H   0  0  0  0  0  0
    4.7932   -9.3933  -18.2495 H   0  0  0  0  0  0
    1.4256   -8.9559  -20.8995 H   0  0  0  0  0  0
    3.5255   -8.0547  -19.9174 H   0  0  0  0  0  0
    5.6163  -16.8114  -17.3083 H   0  0  0  0  0  0
    5.2403  -15.9610  -15.7714 H   0  0  0  0  0  0
    3.5557  -18.3240  -16.0355 H   0  0  0  0  0  0
    3.0753  -16.5987  -15.8976 H   0  0  0  0  0  0
    2.0592  -17.7211  -17.8003 H   0  0  0  0  0  0
    4.1172  -15.5814  -18.6973 H   0  0  0  0  0  0
    4.9683  -17.8417  -18.8296 H   0  0  0  0  0  0
    3.9870  -19.2715  -18.3611 H   0  0  0  0  0  0
    2.3154  -18.5021  -20.1526 H   0  0  0  0  0  0
    3.6177  -17.4046  -20.7237 H   0  0  0  0  0  0
    2.5450  -20.9185  -20.2998 H   0  0  0  0  0  0
    3.7116  -22.8441  -21.3603 H   0  0  0  0  0  0
    5.8641  -22.4842  -22.5380 H   0  0  0  0  0  0
    6.9043  -20.2283  -22.6151 H   0  0  0  0  0  0
    5.7591  -18.3013  -21.5232 H   0  0  0  0  0  0
    6.4321  -22.7924  -18.2524 H   0  0  0  0  0  0
    5.0033  -22.6473  -16.2129 H   0  0  0  0  0  0
    4.8149  -20.5121  -14.9358 H   0  0  0  0  0  0
    7.5243  -18.6620  -17.7128 H   0  0  0  0  0  0
    7.7163  -20.7802  -19.0010 H   0  0  0  0  0  0
  1  2  1  0  0  0
  1  4  1  0  0  0
  1  9  1  0  0  0
  2  3  2  0  0  0
  2 10  1  0  0  0
  4  5  1  0  0  0
  4 42  1  0  0  0
  4 43  1  0  0  0
  5  6  1  0  0  0
  5 44  1  0  0  0
  5 45  1  0  0  0
  6  7  1  0  0  0
  6  8  1  0  0  0
  6 46  1  0  0  0
  7 47  1  0  0  0
  7 48  1  0  0  0
  7 49  1  0  0  0
  8  9  1  0  0  0
  8 50  1  0  0  0
  8 51  1  0  0  0
  9 52  1  0  0  0
  9 53  1  0  0  0
 10 11  1  0  0  0
 10 54  1  0  0  0
 11 12  1  0  0  0
 11 14  1  0  0  0
 11 55  1  0  0  0
 12 13  2  0  0  0
 12 24  1  0  0  0
 14 15  1  0  0  0
 14 56  1  0  0  0
 14 57  1  0  0  0
 15 16  2  0  0  0
 15 17  1  0  0  0
 16 18  1  0  0  0
 16 58  1  0  0  0
 17 19  2  0  0  0
 17 59  1  0  0  0
 18 20  2  0  0  0
 18 60  1  0  0  0
 19 20  1  0  0  0
 19 61  1  0  0  0
 20 62  1  0  0  0
 21 22  1  0  0  0
 21 37  1  0  0  0
 21 63  1  0  0  0
 21 64  1  0  0  0
 22 23  1  0  0  0
 22 65  1  0  0  0
 22 66  1  0  0  0
 23 24  1  0  0  0
 23 25  1  0  0  0
 23 67  1  0  0  0
 24 68  1  0  0  0
 25 26  1  0  0  0
 25 69  1  0  0  0
 25 70  1  0  0  0
 26 27  1  0  0  0
 26 71  1  0  0  0
 26 72  1  0  0  0
 27 28  2  0  0  0
 27 32  1  0  0  0
 28 29  1  0  0  0
 28 73  1  0  0  0
 29 30  2  0  0  0
 29 74  1  0  0  0
 30 31  1  0  0  0
 30 75  1  0  0  0
 31 32  2  0  0  0
 31 76  1  0  0  0
 32 77  1  0  0  0
 33 34  2  0  0  0
 33 41  1  0  0  0
 33 78  1  0  0  0
 34 35  1  0  0  0
 34 79  1  0  0  0
 35 36  2  0  0  0
 35 80  1  0  0  0
 36 37  1  0  0  0
 36 40  1  0  0  0
 37 38  2  0  0  0
 37 39  2  0  0  0
 40 41  2  0  0  0
 40 81  1  0  0  0
 41 82  1  0  0  0
M  CHG  1   6   1
M  END
> <s_m_source_file>
../3s3r_ligand.sdf

> <i_m_source_file_index>
1

> <s_epik_input>
W0NIMl0xW0NIMl1bTkgrXShbQ0gzXSlbQ0gyXVtDSDJdTjFDKD1PKVtOSF1bQ0BASF0oW0NIMl1jMltjSF1bY0hdW2NIXVtjSF1bY0hdMilDKD1PKVtOSF1bQ0BASF0oW0NIMl1bQ0gyXWMzW2NIXVtjSF1bY0hdW2NIXVtjSF0zKVtDSDJdW0NIMl1TKD1PKSg9TyljNFtjSF1bY0hdW2NIXVtjSF1bY0hdNA==

> <s_epik_cmdline>
J2VwaWtfYXBwJywgJy1pbWFlJywgJ2xpZ2FuZF9wcm8ubWFlJywgJy1vbWFlJywgJ2xpZ2FuZF9wcmVwLm1hZScsICctbXMnLCAnMScsICctcGgnLCAnNycsICctcGh0JywgJzAuNScsICctbnQn

> <r_epik_Ionization_Penalty>
  0.1886

> <r_epik_Ionization_Penalty_Charging>
  0.1885

> <r_epik_Ionization_Penalty_Neutral>
  0.0000

> <r_epik_State_Penalty>
  0.1782

> <r_epik_Charging_Adjusted_Penalty>
0.366708805885751

> <i_epik_Tot_Q>
1

> <i_epik_Tot_abs_Q>
1

$$$$
