3s3v_ligand
                    3D
 Schrodinger Suite 2020-3.
 40 41  0  0  1  0            999 V2000
   16.4120    5.4590    2.7790 C   0  0  0  0  0  0
   16.8690    5.9450    3.9240 N   0  3  0  0  0  0
   17.7980    7.0010    3.9810 C   0  0  0  0  0  0
   18.1990    7.4510    5.2160 N   0  0  0  0  0  0
   18.3110    7.4730    2.8510 N   0  0  0  0  0  0
   17.9410    6.9990    1.6570 C   0  0  0  0  0  0
   18.4700    7.5740    0.5670 N   0  0  0  0  0  0
   16.9160    5.9390    1.5660 C   0  0  0  0  0  0
   16.3050    5.3940    0.3060 C   0  0  0  0  0  0
   15.1070    6.2160   -0.2030 C   0  0  0  0  0  0
   13.8970    6.2670    0.5090 C   0  0  0  0  0  0
   12.8190    7.0650    0.0010 C   0  0  0  0  0  0
   11.5820    7.1870    0.5260 O   0  0  0  0  0  0
   11.4560    6.5320    1.8190 C   0  0  0  0  0  0
   12.8990    7.6560   -1.3040 C   0  0  0  0  0  0
   11.7470    8.3270   -1.7410 O   0  0  0  0  0  0
   11.0300    7.5350   -2.7570 C   0  0  0  0  0  0
   14.1150    7.5150   -2.0070 C   0  0  0  0  0  0
   14.0980    8.2110   -3.2170 O   0  0  0  0  0  0
   15.3160    8.0590   -3.9210 C   0  0  0  0  0  0
   15.2650    6.8440   -1.4940 C   0  0  0  0  0  0
   15.6438    4.6857    2.7826 H   0  0  0  0  0  0
   17.7472    7.0321    6.1273 H   0  0  0  0  0  0
   18.9717    8.2301    5.2932 H   0  0  0  0  0  0
   19.2315    8.3605    0.6747 H   0  0  0  0  0  0
   18.1424    7.2591   -0.4348 H   0  0  0  0  0  0
   17.0605    5.3845   -0.4935 H   0  0  0  0  0  0
   15.9479    4.3691    0.4852 H   0  0  0  0  0  0
   13.7789    5.7067    1.4365 H   0  0  0  0  0  0
   10.4317    6.6630    2.1981 H   0  0  0  0  0  0
   12.1691    6.9788    2.5274 H   0  0  0  0  0  0
   11.6719    5.4590    1.7090 H   0  0  0  0  0  0
   10.1328    8.0820   -3.0823 H   0  0  0  0  0  0
   10.7333    6.5676   -2.3256 H   0  0  0  0  0  0
   11.6889    7.3645   -3.6211 H   0  0  0  0  0  0
   15.2656    8.6195   -4.8661 H   0  0  0  0  0  0
   15.4852    6.9934   -4.1352 H   0  0  0  0  0  0
   16.1440    8.4460   -3.3089 H   0  0  0  0  0  0
   16.2058    6.8076   -2.0432 H   0  0  0  0  0  0
   16.5225    5.5219    4.8784 H   0  0  0  0  0  0
  1  2  2  0  0  0
  1  8  1  0  0  0
  1 22  1  0  0  0
  2  3  1  0  0  0
  2 40  1  0  0  0
  3  4  1  0  0  0
  3  5  2  0  0  0
  4 23  1  0  0  0
  4 24  1  0  0  0
  5  6  1  0  0  0
  6  7  1  0  0  0
  6  8  2  0  0  0
  7 25  1  0  0  0
  7 26  1  0  0  0
  8  9  1  0  0  0
  9 10  1  0  0  0
  9 27  1  0  0  0
  9 28  1  0  0  0
 10 11  2  0  0  0
 10 21  1  0  0  0
 11 12  1  0  0  0
 11 29  1  0  0  0
 12 13  1  0  0  0
 12 15  2  0  0  0
 13 14  1  0  0  0
 14 30  1  0  0  0
 14 31  1  0  0  0
 14 32  1  0  0  0
 15 16  1  0  0  0
 15 18  1  0  0  0
 16 17  1  0  0  0
 17 33  1  0  0  0
 17 34  1  0  0  0
 17 35  1  0  0  0
 18 19  1  0  0  0
 18 21  2  0  0  0
 19 20  1  0  0  0
 20 36  1  0  0  0
 20 37  1  0  0  0
 20 38  1  0  0  0
 21 39  1  0  0  0
M  CHG  1   2   1
M  END
> <s_m_source_file>
../3s3v_ligand.sdf

> <i_m_source_file_index>
1

> <s_epik_input>
W05IMl1jMW5bY0hdYyhjKG4xKVtOSDJdKVtDSDJdYzJbY0hdYyhPW0NIM10pYyhPW0NIM10pYyhbY0hdMilPW0NIM10=

> <s_epik_cmdline>
J2VwaWtfYXBwJywgJy1pbWFlJywgJ2xpZ2FuZF9wcm8ubWFlJywgJy1vbWFlJywgJ2xpZ2FuZF9wcmVwLm1hZScsICctbXMnLCAnMScsICctcGgnLCAnNycsICctcGh0JywgJzAuNScsICctbnQn

> <r_lp_tautomer_probability>
0.575010577011949

> <r_epik_Ionization_Penalty>
  0.2380

> <r_epik_Ionization_Penalty_Charging>
  0.2380

> <r_epik_Ionization_Penalty_Neutral>
  0.0000

> <r_epik_State_Penalty>
  0.4697

> <r_epik_Charging_Adjusted_Penalty>
0.707697881122565

> <i_epik_Tot_Q>
1

> <i_epik_Tot_abs_Q>
1

$$$$
