3s45_ligand
                    3D
 Schrodinger Suite 2020-3.
 70 72  0  0  1  0            999 V2000
   25.3390   14.6720   16.1890 C   0  0  0  0  0  0
   25.5900   13.0850   17.9530 C   0  0  0  0  0  0
   22.6850   12.3820   17.1770 C   0  0  0  0  0  0
   24.5210   13.8780   17.2150 C   0  0  2  0  0  0
   20.7090   10.8980   16.9940 C   0  0  2  0  0  0
   20.8840    9.3830   16.9690 C   0  0  1  0  0  0
   19.5440   11.3920   16.1260 C   0  0  0  0  0  0
   19.5240   12.9130   16.2390 C   0  0  0  0  0  0
   20.2090   13.6660   15.2930 C   0  0  0  0  0  0
   18.8590   13.5460   17.2740 C   0  0  0  0  0  0
   20.2440   15.0360   15.5030 C   0  0  0  0  0  0
   18.8270   14.9130   17.5130 C   0  0  0  0  0  0
   19.6360   15.5850   16.6220 C   0  0  0  0  0  0
   19.7050    8.6550   17.6290 C   0  0  0  0  0  0
   20.1520    7.7090   19.8100 C   0  0  0  0  0  0
   21.6890    7.5950   19.7070 C   0  0  0  0  0  0
   17.1610    8.5720   19.8360 C   0  0  0  0  0  0
   16.2610    8.5470   18.7700 C   0  0  0  0  0  0
   15.2060    7.6470   18.8200 C   0  0  0  0  0  0
   15.0700    6.7960   19.9040 C   0  0  0  0  0  0
   15.9650    6.8360   20.9680 C   0  0  0  0  0  0
   17.0480    7.7290   20.9250 C   0  0  0  0  0  0
   22.3230    8.9080   20.1920 C   0  0  0  0  0  0
   22.1800    6.3970   20.5330 C   0  0  0  0  0  0
   26.7420   12.9930   16.9510 C   0  0  0  0  0  0
   21.9350   11.5240   16.4820 N   0  0  0  0  0  0
   19.7980    8.9180   19.0740 N   0  0  2  0  0  0
   14.0700    5.9200   19.8790 N   0  0  0  0  0  0
   23.6820   12.9860   16.4930 O   0  0  0  0  0  0
   22.5180   12.6370   18.3630 O   0  0  0  0  0  0
   21.0740    8.8850   15.6460 O   0  0  0  0  0  0
   18.1160   10.7450   18.7150 O   0  0  0  0  0  0
   18.8580   10.2220   21.0150 O   0  0  0  0  0  0
   26.4420   13.8410   15.8480 O   0  0  0  0  0  0
   18.4990    9.6790   19.6900 S   0  0  0  0  0  0
   24.7143   14.8875   15.3096 H   0  0  0  0  0  0
   25.6753   15.6171   16.6404 H   0  0  0  0  0  0
   25.8791   13.6227   18.8681 H   0  0  0  0  0  0
   25.1931   12.0944   18.2197 H   0  0  0  0  0  0
   23.8455   14.4523   17.8660 H   0  0  0  0  0  0
   20.5334   11.1919   18.0394 H   0  0  0  0  0  0
   21.8265    9.1490   17.4856 H   0  0  0  0  0  0
   19.7054   11.0800   15.0836 H   0  0  0  0  0  0
   18.6023   10.9606   16.4962 H   0  0  0  0  0  0
   20.6928   13.2044   14.4322 H   0  0  0  0  0  0
   18.3079   12.9110   17.9676 H   0  0  0  0  0  0
   20.7506   15.6831   14.7869 H   0  0  0  0  0  0
   18.2415   15.3903   18.2988 H   0  0  0  0  0  0
   19.8139   16.6431   16.8142 H   0  0  0  0  0  0
   18.7599    9.0432   17.2215 H   0  0  0  0  0  0
   19.7779    7.5770   17.4228 H   0  0  0  0  0  0
   19.6875    6.8175   19.3635 H   0  0  0  0  0  0
   19.8599    7.7838   20.8679 H   0  0  0  0  0  0
   21.9931    7.4260   18.6635 H   0  0  0  0  0  0
   16.3836    9.2175   17.9194 H   0  0  0  0  0  0
   14.4833    7.6098   18.0049 H   0  0  0  0  0  0
   15.8270    6.1801   21.8275 H   0  0  0  0  0  0
   17.7814    7.7565   21.7309 H   0  0  0  0  0  0
   21.9505    9.7429   19.5803 H   0  0  0  0  0  0
   23.4170    8.8438   20.0974 H   0  0  0  0  0  0
   22.0553    9.0772   21.2454 H   0  0  0  0  0  0
   21.7077    5.4762   20.1600 H   0  0  0  0  0  0
   21.9111    6.5451   21.5893 H   0  0  0  0  0  0
   23.2728    6.3116   20.4413 H   0  0  0  0  0  0
   27.6752   13.3179   17.4343 H   0  0  0  0  0  0
   26.8488   11.9528   16.6096 H   0  0  0  0  0  0
   22.2868   11.2939   15.4655 H   0  0  0  0  0  0
   13.3731    5.9050   19.0280 H   0  0  0  0  0  0
   13.9396    5.2104   20.7093 H   0  0  0  0  0  0
   21.8789    9.2911   15.0158 H   0  0  0  0  0  0
  1  4  1  0  0  0
  1 34  1  0  0  0
  1 36  1  0  0  0
  1 37  1  0  0  0
  2  4  1  0  0  0
  2 25  1  0  0  0
  2 38  1  0  0  0
  2 39  1  0  0  0
  3 26  1  0  0  0
  3 29  1  0  0  0
  3 30  2  0  0  0
  4 29  1  0  0  0
  4 40  1  0  0  0
  5  6  1  0  0  0
  5  7  1  0  0  0
  5 26  1  0  0  0
  5 41  1  0  0  0
  6 14  1  0  0  0
  6 31  1  0  0  0
  6 42  1  0  0  0
  7  8  1  0  0  0
  7 43  1  0  0  0
  7 44  1  0  0  0
  8  9  2  0  0  0
  8 10  1  0  0  0
  9 11  1  0  0  0
  9 45  1  0  0  0
 10 12  2  0  0  0
 10 46  1  0  0  0
 11 13  2  0  0  0
 11 47  1  0  0  0
 12 13  1  0  0  0
 12 48  1  0  0  0
 13 49  1  0  0  0
 14 27  1  0  0  0
 14 50  1  0  0  0
 14 51  1  0  0  0
 15 16  1  0  0  0
 15 27  1  0  0  0
 15 52  1  0  0  0
 15 53  1  0  0  0
 16 23  1  0  0  0
 16 24  1  0  0  0
 16 54  1  0  0  0
 17 18  2  0  0  0
 17 22  1  0  0  0
 17 35  1  0  0  0
 18 19  1  0  0  0
 18 55  1  0  0  0
 19 20  2  0  0  0
 19 56  1  0  0  0
 20 21  1  0  0  0
 20 28  1  0  0  0
 21 22  2  0  0  0
 21 57  1  0  0  0
 22 58  1  0  0  0
 23 59  1  0  0  0
 23 60  1  0  0  0
 23 61  1  0  0  0
 24 62  1  0  0  0
 24 63  1  0  0  0
 24 64  1  0  0  0
 25 34  1  0  0  0
 25 65  1  0  0  0
 25 66  1  0  0  0
 26 67  1  0  0  0
 27 35  1  0  0  0
 28 68  1  0  0  0
 28 69  1  0  0  0
 31 70  1  0  0  0
 32 35  2  0  0  0
 33 35  2  0  0  0
M  END
> <s_m_source_file>
../3s45_ligand.sdf

> <i_m_source_file_index>
1

> <s_epik_input>
W0NIMl0xW0NIMl1PW0NIMl1bQ0BIXTFPQyg9TylbTkhdW0NAQEhdKFtDSDJdYzJbY0hdW2NIXVtjSF1bY0hdW2NIXTIpW0NASF0oW09IXSlbQ0gyXU4oW0NIMl1bQ0hdKFtDSDNdKVtDSDNdKVMoPU8pKD1PKWMzW2NIXVtjSF1jKFtOSDJdKVtjSF1bY0hdMw==

> <s_epik_cmdline>
J2VwaWtfYXBwJywgJy1pbWFlJywgJ2xpZ2FuZF9wcm8ubWFlJywgJy1vbWFlJywgJ2xpZ2FuZF9wcmVwLm1hZScsICctbXMnLCAnMScsICctcGgnLCAnNycsICctcGh0JywgJzAuNScsICctbnQn

> <r_lp_tautomer_probability>
1

> <r_epik_Ionization_Penalty>
  0.0000

> <r_epik_Ionization_Penalty_Charging>
  0.0000

> <r_epik_Ionization_Penalty_Neutral>
  0.0000

> <r_epik_State_Penalty>
 -0.0000

> <r_epik_Charging_Adjusted_Penalty>
0

> <i_epik_Tot_Q>
0

> <i_epik_Tot_abs_Q>
0

> <s_epik_Chemistry_Notes>
This compound has an ester and may undergo hydrolysis at high or low pH.

$$$$
