3s53_ligand
                    3D
 Schrodinger Suite 2020-3.
 75 78  0  0  1  0            999 V2000
   -1.2440    8.3360   29.7810 N   0  0  0  0  0  0
   -0.8030    8.5720   31.0660 C   0  0  0  0  0  0
    0.4490    8.0710   31.4570 C   0  0  0  0  0  0
    0.9160    8.3050   32.7560 C   0  0  0  0  0  0
    0.1540    9.1080   33.6220 C   0  0  0  0  0  0
   -1.1190    9.5580   33.2650 C   0  0  0  0  0  0
   -1.6240    9.2630   31.9770 C   0  0  0  0  0  0
    0.7610    9.3110   35.3580 S   0  0  0  0  0  0
    2.3390    9.1590   35.2590 O   0  0  0  0  0  0
    0.4090   10.7540   35.8810 O   0  0  0  0  0  0
    0.1140    8.0290   36.4110 N   0  0  1  0  0  0
   -1.3590    7.9720   36.6140 C   0  0  0  0  0  0
   -1.7940    7.5460   38.0440 C   0  0  0  0  0  0
   -1.2610    8.6020   39.0030 C   0  0  0  0  0  0
   -3.3170    7.5300   38.0270 C   0  0  0  0  0  0
    0.8010    6.6770   36.2480 C   0  0  0  0  0  0
    1.5450    6.2760   37.5920 C   0  0  1  0  0  0
    2.0420    4.9460   37.4960 O   0  0  0  0  0  0
    2.7300    7.2540   37.8760 C   0  0  1  0  0  0
    3.2130    7.1380   39.2160 N   0  0  0  0  0  0
    3.0130    8.0430   40.2250 C   0  0  0  0  0  0
    2.5170    9.2020   40.0700 O   0  0  0  0  0  0
    3.4170    7.5250   41.5080 O   0  0  0  0  0  0
    3.4780    8.5330   42.5940 C   0  0  1  0  0  0
    3.0180    7.7640   43.8750 C   0  0  0  0  0  0
    4.0850    6.8150   44.1540 O   0  0  0  0  0  0
    5.2600    7.5420   43.7840 C   0  0  1  0  0  0
    6.1770    6.6890   43.0700 O   0  0  0  0  0  0
    6.2860    7.3260   41.7750 C   0  0  0  0  0  0
    6.0380    8.8360   42.0080 C   0  0  0  0  0  0
    4.9330    8.7360   43.0190 C   0  0  1  0  0  0
    3.9630    7.0410   36.9160 C   0  0  0  0  0  0
    6.2770    7.3910   37.9630 C   0  0  0  0  0  0
    7.3630    8.2190   38.3560 C   0  0  0  0  0  0
    7.2310    9.6040   38.1820 C   0  0  0  0  0  0
    6.1460   10.1320   37.4660 C   0  0  0  0  0  0
    5.0530    9.3100   37.0870 C   0  0  0  0  0  0
    5.1470    7.9240   37.3220 C   0  0  0  0  0  0
   -0.6019    7.7960   29.0696 H   0  0  0  0  0  0
   -2.2379    8.6878   29.4673 H   0  0  0  0  0  0
    1.0551    7.5021   30.7519 H   0  0  0  0  0  0
    1.8577    7.8703   33.0911 H   0  0  0  0  0  0
   -1.7180   10.1314   33.9725 H   0  0  0  0  0  0
   -2.6323    9.5658   31.6946 H   0  0  0  0  0  0
   -1.7933    8.9656   36.4292 H   0  0  0  0  0  0
   -1.7976    7.2445   35.9152 H   0  0  0  0  0  0
   -1.4221    6.5638   38.3710 H   0  0  0  0  0  0
   -0.1612    8.5866   38.9908 H   0  0  0  0  0  0
   -1.6195    8.3875   40.0206 H   0  0  0  0  0  0
   -1.6173    9.5946   38.6903 H   0  0  0  0  0  0
   -3.6678    6.7582   37.3261 H   0  0  0  0  0  0
   -3.6904    8.5137   37.7061 H   0  0  0  0  0  0
   -3.6926    7.3066   39.0365 H   0  0  0  0  0  0
    0.0493    5.9102   36.0095 H   0  0  0  0  0  0
    1.5367    6.7355   35.4323 H   0  0  0  0  0  0
    0.8523    6.2398   38.4457 H   0  0  0  0  0  0
    1.3508    4.1135   37.2980 H   0  0  0  0  0  0
    2.3169    8.2708   37.8013 H   0  0  0  0  0  0
    3.8045    6.2595   39.5133 H   0  0  0  0  0  0
    2.9463    9.4290   42.2411 H   0  0  0  0  0  0
    2.8842    8.4766   44.7022 H   0  0  0  0  0  0
    2.0649    7.2530   43.6735 H   0  0  0  0  0  0
    5.7505    7.8657   44.7139 H   0  0  0  0  0  0
    7.2911    7.1509   41.3637 H   0  0  0  0  0  0
    5.5324    6.9036   41.0940 H   0  0  0  0  0  0
    6.9590    9.3050   42.3844 H   0  0  0  0  0  0
    5.7463    9.3103   41.0594 H   0  0  0  0  0  0
    4.9503    9.7129   43.5244 H   0  0  0  0  0  0
    4.2821    5.9891   36.9569 H   0  0  0  0  0  0
    3.6742    7.2967   35.8859 H   0  0  0  0  0  0
    6.3221    6.3205   38.1632 H   0  0  0  0  0  0
    8.2711    7.7904   38.7799 H   0  0  0  0  0  0
    7.9772   10.2758   38.6063 H   0  0  0  0  0  0
    6.1426   11.1883   37.1971 H   0  0  0  0  0  0
    4.1637    9.7398   36.6260 H   0  0  0  0  0  0
  1  2  1  0  0  0
  1 39  1  0  0  0
  1 40  1  0  0  0
  2  3  2  0  0  0
  2  7  1  0  0  0
  3  4  1  0  0  0
  3 41  1  0  0  0
  4  5  2  0  0  0
  4 42  1  0  0  0
  5  6  1  0  0  0
  5  8  1  0  0  0
  6  7  2  0  0  0
  6 43  1  0  0  0
  7 44  1  0  0  0
  8  9  2  0  0  0
  8 10  2  0  0  0
  8 11  1  0  0  0
 11 12  1  0  0  0
 11 16  1  0  0  0
 12 13  1  0  0  0
 12 45  1  0  0  0
 12 46  1  0  0  0
 13 14  1  0  0  0
 13 15  1  0  0  0
 13 47  1  0  0  0
 14 48  1  0  0  0
 14 49  1  0  0  0
 14 50  1  0  0  0
 15 51  1  0  0  0
 15 52  1  0  0  0
 15 53  1  0  0  0
 16 17  1  0  0  0
 16 54  1  0  0  0
 16 55  1  0  0  0
 17 18  1  0  0  0
 17 19  1  0  0  0
 17 56  1  0  0  0
 18 57  1  0  0  0
 19 20  1  0  0  0
 19 32  1  0  0  0
 19 58  1  0  0  0
 20 21  1  0  0  0
 20 59  1  0  0  0
 21 22  2  0  0  0
 21 23  1  0  0  0
 23 24  1  0  0  0
 24 25  1  0  0  0
 24 31  1  0  0  0
 24 60  1  0  0  0
 25 26  1  0  0  0
 25 61  1  0  0  0
 25 62  1  0  0  0
 26 27  1  0  0  0
 27 28  1  0  0  0
 27 31  1  0  0  0
 27 63  1  0  0  0
 28 29  1  0  0  0
 29 30  1  0  0  0
 29 64  1  0  0  0
 29 65  1  0  0  0
 30 31  1  0  0  0
 30 66  1  0  0  0
 30 67  1  0  0  0
 31 68  1  0  0  0
 32 38  1  0  0  0
 32 69  1  0  0  0
 32 70  1  0  0  0
 33 34  2  0  0  0
 33 38  1  0  0  0
 33 71  1  0  0  0
 34 35  1  0  0  0
 34 72  1  0  0  0
 35 36  2  0  0  0
 35 73  1  0  0  0
 36 37  1  0  0  0
 36 74  1  0  0  0
 37 38  2  0  0  0
 37 75  1  0  0  0
M  END
> <s_m_source_file>
../3s53_ligand.sdf

> <i_m_source_file_index>
1

> <s_epik_input>
W05IMl1jMVtjSF1bY0hdYyhbY0hdW2NIXTEpUyg9TykoPU8pTihbQ0gyXVtDSF0oW0NIM10pW0NIM10pW0NIMl1bQ0BASF0oW09IXSlbQ0BASF0oW05IXUMoPU8pT1tDQEBIXShbQ0gyXU8yKVtDQEBIXShbQ0BASF0yMylbQ0gyXVtDSDJdTzMpW0NIMl1jNFtjSF1bY0hdW2NIXVtjSF1bY0hdNA==

> <s_epik_cmdline>
J2VwaWtfYXBwJywgJy1pbWFlJywgJ2xpZ2FuZF9wcm8ubWFlJywgJy1vbWFlJywgJ2xpZ2FuZF9wcmVwLm1hZScsICctbXMnLCAnMScsICctcGgnLCAnNycsICctcGh0JywgJzAuNScsICctbnQn

> <r_lp_tautomer_probability>
1

> <r_epik_Ionization_Penalty>
  0.0000

> <r_epik_Ionization_Penalty_Charging>
  0.0000

> <r_epik_Ionization_Penalty_Neutral>
  0.0000

> <r_epik_State_Penalty>
 -0.0000

> <r_epik_Charging_Adjusted_Penalty>
0

> <i_epik_Tot_Q>
0

> <i_epik_Tot_abs_Q>
0

> <s_epik_Chemistry_Notes>
This compound has an ester and may undergo hydrolysis at high or low pH. This compound contains an acetal/aminal-like group ( X-CH(R)-Y where X, Y are N, S, or O) that may be acid/base labile, releasing an aldehyde.

$$$$
