3s54_ligand
                    3D
 Schrodinger Suite 2020-3.
 75 78  0  0  1  0            999 V2000
   21.1120   28.7880   14.2350 N   0  0  0  0  0  0
   20.4600   27.6390   14.5790 C   0  0  0  0  0  0
   19.1300   27.4450   14.1920 C   0  0  0  0  0  0
   18.4500   26.2650   14.5460 C   0  0  0  0  0  0
   19.2130   25.2940   15.2130 C   0  0  0  0  0  0
   20.5200   25.5070   15.6660 C   0  0  0  0  0  0
   21.1930   26.6980   15.3250 C   0  0  0  0  0  0
   18.3560   23.8210   15.8620 S   0  0  0  0  0  0
   17.1620   23.5110   14.8740 O   0  0  0  0  0  0
   19.3970   22.6140   15.9200 O   0  0  0  0  0  0
   17.7290   24.0760   17.5190 N   0  0  1  0  0  0
   18.7290   24.4300   18.5850 C   0  0  0  0  0  0
   18.3710   23.7800   19.9610 C   0  0  0  0  0  0
   18.2810   22.2690   19.7720 C   0  0  0  0  0  0
   19.5510   24.1170   20.8820 C   0  0  0  0  0  0
   16.4540   24.9030   17.5330 C   0  0  0  0  0  0
   15.2710   23.9940   17.9900 C   0  0  1  0  0  0
   14.1340   24.7930   18.3030 O   0  0  0  0  0  0
   14.8880   22.8570   16.9850 C   0  0  1  0  0  0
   14.0050   21.9430   17.6730 N   0  0  0  0  0  0
   14.3540   20.6720   17.9940 C   0  0  0  0  0  0
   15.4180   20.0960   17.5900 O   0  0  0  0  0  0
   13.3840   20.0720   18.8530 O   0  0  0  0  0  0
   13.4480   18.6010   18.9250 C   0  0  1  0  0  0
   12.8730   18.2950   20.3270 C   0  0  0  0  0  0
   11.4280   18.4540   20.2070 O   0  0  0  0  0  0
   11.1240   18.1000   18.8580 C   0  0  1  0  0  0
   10.1650   18.9750   18.2290 O   0  0  0  0  0  0
   10.8810   19.5210   17.1180 C   0  0  0  0  0  0
   11.9500   18.4790   16.7020 C   0  0  0  0  0  0
   12.3460   17.9580   18.0720 C   0  0  1  0  0  0
   14.0810   23.3350   15.7190 C   0  0  0  0  0  0
   12.3610   21.7300   14.7270 C   0  0  0  0  0  0
   11.9790   20.6200   13.9360 C   0  0  0  0  0  0
   13.0060   19.8890   13.2880 C   0  0  0  0  0  0
   14.3400   20.3110   13.3750 C   0  0  0  0  0  0
   14.7080   21.3970   14.2010 C   0  0  0  0  0  0
   13.6870   22.1650   14.7970 C   0  0  0  0  0  0
   20.5918   29.5620   13.6517 H   0  0  0  0  0  0
   22.1576   28.9398   14.5411 H   0  0  0  0  0  0
   18.6171   28.2126   13.6126 H   0  0  0  0  0  0
   17.3952   26.1143   14.3163 H   0  0  0  0  0  0
   21.0156   24.7550   16.2800 H   0  0  0  0  0  0
   22.2255   26.8799   15.6232 H   0  0  0  0  0  0
   19.7258   24.0740   18.2854 H   0  0  0  0  0  0
   18.7538   25.5218   18.7165 H   0  0  0  0  0  0
   17.4167   24.1253   20.3854 H   0  0  0  0  0  0
   17.4341   22.0319   19.1113 H   0  0  0  0  0  0
   18.1307   21.7856   20.7486 H   0  0  0  0  0  0
   19.2133   21.8999   19.3198 H   0  0  0  0  0  0
   19.6122   25.2071   21.0155 H   0  0  0  0  0  0
   20.4847   23.7498   20.4309 H   0  0  0  0  0  0
   19.4021   23.6356   21.8598 H   0  0  0  0  0  0
   16.5701   25.7439   18.2326 H   0  0  0  0  0  0
   16.2575   25.2910   16.5226 H   0  0  0  0  0  0
   15.5504   23.5205   18.9428 H   0  0  0  0  0  0
   14.2313   25.6395   18.9987 H   0  0  0  0  0  0
   15.8195   22.3574   16.6807 H   0  0  0  0  0  0
   12.9946   22.2674   17.9625 H   0  0  0  0  0  0
   14.4671   18.2954   18.6458 H   0  0  0  0  0  0
   13.1388   17.2675   20.6160 H   0  0  0  0  0  0
   13.2930   19.0018   21.0578 H   0  0  0  0  0  0
   10.6160   17.1261   18.9171 H   0  0  0  0  0  0
   10.1830   19.7101   16.2891 H   0  0  0  0  0  0
   11.3585   20.4655   17.4179 H   0  0  0  0  0  0
   11.4901   17.7225   16.0492 H   0  0  0  0  0  0
   12.7636   18.9843   16.1610 H   0  0  0  0  0  0
   12.7430   16.9532   17.8650 H   0  0  0  0  0  0
   13.1579   23.8389   16.0414 H   0  0  0  0  0  0
   14.6962   24.0353   15.1349 H   0  0  0  0  0  0
   11.5989   22.2606   15.2978 H   0  0  0  0  0  0
   10.9317   20.3373   13.8290 H   0  0  0  0  0  0
   12.7571   18.9935   12.7187 H   0  0  0  0  0  0
   15.1053   19.7934   12.7966 H   0  0  0  0  0  0
   15.7575   21.6355   14.3734 H   0  0  0  0  0  0
  1  2  1  0  0  0
  1 39  1  0  0  0
  1 40  1  0  0  0
  2  3  2  0  0  0
  2  7  1  0  0  0
  3  4  1  0  0  0
  3 41  1  0  0  0
  4  5  2  0  0  0
  4 42  1  0  0  0
  5  6  1  0  0  0
  5  8  1  0  0  0
  6  7  2  0  0  0
  6 43  1  0  0  0
  7 44  1  0  0  0
  8  9  2  0  0  0
  8 10  2  0  0  0
  8 11  1  0  0  0
 11 12  1  0  0  0
 11 16  1  0  0  0
 12 13  1  0  0  0
 12 45  1  0  0  0
 12 46  1  0  0  0
 13 14  1  0  0  0
 13 15  1  0  0  0
 13 47  1  0  0  0
 14 48  1  0  0  0
 14 49  1  0  0  0
 14 50  1  0  0  0
 15 51  1  0  0  0
 15 52  1  0  0  0
 15 53  1  0  0  0
 16 17  1  0  0  0
 16 54  1  0  0  0
 16 55  1  0  0  0
 17 18  1  0  0  0
 17 19  1  0  0  0
 17 56  1  0  0  0
 18 57  1  0  0  0
 19 20  1  0  0  0
 19 32  1  0  0  0
 19 58  1  0  0  0
 20 21  1  0  0  0
 20 59  1  0  0  0
 21 22  2  0  0  0
 21 23  1  0  0  0
 23 24  1  0  0  0
 24 25  1  0  0  0
 24 31  1  0  0  0
 24 60  1  0  0  0
 25 26  1  0  0  0
 25 61  1  0  0  0
 25 62  1  0  0  0
 26 27  1  0  0  0
 27 28  1  0  0  0
 27 31  1  0  0  0
 27 63  1  0  0  0
 28 29  1  0  0  0
 29 30  1  0  0  0
 29 64  1  0  0  0
 29 65  1  0  0  0
 30 31  1  0  0  0
 30 66  1  0  0  0
 30 67  1  0  0  0
 31 68  1  0  0  0
 32 38  1  0  0  0
 32 69  1  0  0  0
 32 70  1  0  0  0
 33 34  2  0  0  0
 33 38  1  0  0  0
 33 71  1  0  0  0
 34 35  1  0  0  0
 34 72  1  0  0  0
 35 36  2  0  0  0
 35 73  1  0  0  0
 36 37  1  0  0  0
 36 74  1  0  0  0
 37 38  2  0  0  0
 37 75  1  0  0  0
M  END
> <s_m_source_file>
../3s54_ligand.sdf

> <i_m_source_file_index>
1

> <s_epik_input>
W05IMl1jMVtjSF1bY0hdYyhbY0hdW2NIXTEpUyg9TykoPU8pTihbQ0gyXVtDSF0oW0NIM10pW0NIM10pW0NIMl1bQ0BASF0oW09IXSlbQ0BASF0oW05IXUMoPU8pT1tDQEBIXShbQ0gyXU8yKVtDQEBIXShbQ0BASF0yMylbQ0gyXVtDSDJdTzMpW0NIMl1jNFtjSF1bY0hdW2NIXVtjSF1bY0hdNA==

> <s_epik_cmdline>
J2VwaWtfYXBwJywgJy1pbWFlJywgJ2xpZ2FuZF9wcm8ubWFlJywgJy1vbWFlJywgJ2xpZ2FuZF9wcmVwLm1hZScsICctbXMnLCAnMScsICctcGgnLCAnNycsICctcGh0JywgJzAuNScsICctbnQn

> <r_lp_tautomer_probability>
1

> <r_epik_Ionization_Penalty>
  0.0000

> <r_epik_Ionization_Penalty_Charging>
  0.0000

> <r_epik_Ionization_Penalty_Neutral>
  0.0000

> <r_epik_State_Penalty>
 -0.0000

> <r_epik_Charging_Adjusted_Penalty>
0

> <i_epik_Tot_Q>
0

> <i_epik_Tot_abs_Q>
0

> <s_epik_Chemistry_Notes>
This compound has an ester and may undergo hydrolysis at high or low pH. This compound contains an acetal/aminal-like group ( X-CH(R)-Y where X, Y are N, S, or O) that may be acid/base labile, releasing an aldehyde.

$$$$
