3s56_ligand
                    3D
 Schrodinger Suite 2020-3.
100104  0  0  1  0            999 V2000
    5.9410    7.4990   41.2560 C   0  0  0  0  0  0
    5.9960    6.3410   41.5470 O   0  0  0  0  0  0
    6.9990    9.5440   40.7250 N   0  0  0  0  0  0
    7.1880    8.2990   41.1580 C   0  0  0  0  0  0
    8.4550    7.8340   41.5270 C   0  0  0  0  0  0
    9.5130    8.7640   41.4070 C   0  0  0  0  0  0
   10.3130   11.0140   40.7460 C   0  0  0  0  0  0
   10.0010   12.2950   40.2500 C   0  0  0  0  0  0
    8.6970   12.6290   39.9080 C   0  0  0  0  0  0
    7.6890   11.6870   40.0600 C   0  0  0  0  0  0
    9.2780   10.0650   40.9250 C   0  0  0  0  0  0
    7.9780   10.4370   40.5970 C   0  0  0  0  0  0
    4.7650    8.1640   41.0830 N   0  0  0  0  0  0
    3.5260    7.3740   41.1560 C   0  0  2  0  0  0
    2.6910    7.7850   39.8990 C   0  0  0  0  0  0
    2.0820    8.8920   39.8120 O   0  0  0  0  0  0
    2.7660    7.8540   42.3470 C   0  0  0  0  0  0
    3.5820    7.5720   43.6370 C   0  0  0  0  0  0
    4.2090    8.5190   44.1900 O   0  0  0  0  0  0
    3.5860    6.3680   44.0280 N   0  0  0  0  0  0
    0.9560    5.8740   37.6430 C   0  0  1  0  0  0
    1.4750    4.5270   37.4700 O   0  0  0  0  0  0
    1.9870    6.9990   37.6630 C   0  0  1  0  0  0
    2.7210    6.8610   38.9580 N   0  0  0  0  0  0
    2.9990    6.7490   36.5280 C   0  0  0  0  0  0
    4.2480    7.5510   36.7820 C   0  0  0  0  0  0
    4.2930    8.9070   36.5500 C   0  0  0  0  0  0
    5.4010    6.8550   37.1920 C   0  0  0  0  0  0
    5.4820    9.6440   36.8670 C   0  0  0  0  0  0
    6.5410    7.5420   37.4580 C   0  0  0  0  0  0
    6.6300    8.9470   37.2380 C   0  0  0  0  0  0
   -1.0890    7.0120   36.8900 N   0  3  1  0  0  0
   -0.0480    6.0370   36.5160 C   0  0  0  0  0  0
   -1.6970    7.7940   35.8130 C   0  0  2  0  0  0
   -0.6760    8.4060   34.9250 C   0  0  0  0  0  0
    0.2610    9.1230   35.3690 O   0  0  0  0  0  0
   -2.5590    8.9100   36.4270 C   0  0  0  0  0  0
   -3.7000    8.3100   37.3380 C   0  0  2  0  0  0
   -4.6520    9.3580   37.9330 C   0  0  0  0  0  0
   -3.8790   10.3080   38.8740 C   0  0  0  0  0  0
   -3.1770    9.4130   39.9410 C   0  0  0  0  0  0
   -2.2860    8.2630   39.3320 C   0  0  0  0  0  0
   -3.1500    7.3570   38.3480 C   0  0  2  0  0  0
   -2.2210    6.3460   37.6800 C   0  0  0  0  0  0
   -0.9350    8.1440   33.6290 N   0  0  0  0  0  0
   -0.0900    8.6800   32.5650 C   0  0  0  0  0  0
   -0.6800    8.1950   31.1560 C   0  0  0  0  0  0
    1.2960    8.1610   32.6720 C   0  0  0  0  0  0
   -0.0360   10.2170   32.6380 C   0  0  0  0  0  0
    8.6164    6.8172   41.8850 H   0  0  0  0  0  0
   10.5232    8.4696   41.6914 H   0  0  0  0  0  0
   11.3434   10.7555   40.9901 H   0  0  0  0  0  0
   10.7936   13.0340   40.1330 H   0  0  0  0  0  0
    8.4671   13.6226   39.5234 H   0  0  0  0  0  0
    6.6696   11.9272   39.7581 H   0  0  0  0  0  0
    4.7166    9.2468   40.8951 H   0  0  0  0  0  0
    3.7532    6.3014   41.2447 H   0  0  0  0  0  0
    2.5885    8.9359   42.2571 H   0  0  0  0  0  0
    1.8017    7.3277   42.4032 H   0  0  0  0  0  0
    3.0071    5.6099   43.4802 H   0  0  0  0  0  0
    4.1684    6.0799   44.9156 H   0  0  0  0  0  0
    0.5248    5.9206   38.6539 H   0  0  0  0  0  0
    2.2348    4.1371   38.1633 H   0  0  0  0  0  0
    1.5186    7.9901   37.5713 H   0  0  0  0  0  0
    3.3186    5.9594   39.1581 H   0  0  0  0  0  0
    3.2518    5.6791   36.4913 H   0  0  0  0  0  0
    2.5565    7.0543   35.5683 H   0  0  0  0  0  0
    3.4285    9.4187   36.1271 H   0  0  0  0  0  0
    5.3784    5.7701   37.2953 H   0  0  0  0  0  0
    5.4874   10.7329   36.8184 H   0  0  0  0  0  0
    7.4070    7.0074   37.8483 H   0  0  0  0  0  0
    7.5801    9.4677   37.3579 H   0  0  0  0  0  0
   -0.4928    7.7446   37.4538 H   0  0  0  0  0  0
    0.4690    6.3944   35.6132 H   0  0  0  0  0  0
   -0.5244    5.0679   36.3063 H   0  0  0  0  0  0
   -2.2754    7.0807   35.2075 H   0  0  0  0  0  0
   -1.9257    9.5659   37.0424 H   0  0  0  0  0  0
   -3.0240    9.4988   35.6226 H   0  0  0  0  0  0
   -4.3614    7.6880   36.7169 H   0  0  0  0  0  0
   -5.1044    9.9456   37.1206 H   0  0  0  0  0  0
   -5.4441    8.8516   38.5041 H   0  0  0  0  0  0
   -3.1381   10.8767   38.2930 H   0  0  0  0  0  0
   -4.5837   11.0047   39.3514 H   0  0  0  0  0  0
   -2.5195   10.0350   40.5661 H   0  0  0  0  0  0
   -3.9374    8.9323   40.5740 H   0  0  0  0  0  0
   -1.4494    8.7053   38.7713 H   0  0  0  0  0  0
   -1.8916    7.6354   40.1447 H   0  0  0  0  0  0
   -3.9751    6.7941   38.8087 H   0  0  0  0  0  0
   -2.8281    5.7289   37.0012 H   0  0  0  0  0  0
   -1.7928    5.7104   38.4691 H   0  0  0  0  0  0
   -1.8011    7.5138   33.3787 H   0  0  0  0  0  0
   -0.7081    7.0957   31.1291 H   0  0  0  0  0  0
   -0.0385    8.5654   30.3428 H   0  0  0  0  0  0
   -1.6983    8.5911   31.0290 H   0  0  0  0  0  0
    1.2809    7.0622   32.6220 H   0  0  0  0  0  0
    1.7335    8.4785   33.6300 H   0  0  0  0  0  0
    1.9010    8.5575   31.8433 H   0  0  0  0  0  0
   -1.0551   10.6238   32.5604 H   0  0  0  0  0  0
    0.5766   10.6021   31.8095 H   0  0  0  0  0  0
    0.4091   10.5231   33.5962 H   0  0  0  0  0  0
  1  2  2  0  0  0
  1  4  1  0  0  0
  1 13  1  0  0  0
  3  4  2  0  0  0
  3 12  1  0  0  0
  4  5  1  0  0  0
  5  6  2  0  0  0
  5 50  1  0  0  0
  6 11  1  0  0  0
  6 51  1  0  0  0
  7  8  1  0  0  0
  7 11  2  0  0  0
  7 52  1  0  0  0
  8  9  2  0  0  0
  8 53  1  0  0  0
  9 10  1  0  0  0
  9 54  1  0  0  0
 10 12  2  0  0  0
 10 55  1  0  0  0
 11 12  1  0  0  0
 13 14  1  0  0  0
 13 56  1  0  0  0
 14 15  1  0  0  0
 14 17  1  0  0  0
 14 57  1  0  0  0
 15 16  2  0  0  0
 15 24  1  0  0  0
 17 18  1  0  0  0
 17 58  1  0  0  0
 17 59  1  0  0  0
 18 19  2  0  0  0
 18 20  1  0  0  0
 20 60  1  0  0  0
 20 61  1  0  0  0
 21 22  1  0  0  0
 21 23  1  0  0  0
 21 33  1  0  0  0
 21 62  1  0  0  0
 22 63  1  0  0  0
 23 24  1  0  0  0
 23 25  1  0  0  0
 23 64  1  0  0  0
 24 65  1  0  0  0
 25 26  1  0  0  0
 25 66  1  0  0  0
 25 67  1  0  0  0
 26 27  2  0  0  0
 26 28  1  0  0  0
 27 29  1  0  0  0
 27 68  1  0  0  0
 28 30  2  0  0  0
 28 69  1  0  0  0
 29 31  2  0  0  0
 29 70  1  0  0  0
 30 31  1  0  0  0
 30 71  1  0  0  0
 31 72  1  0  0  0
 32 33  1  0  0  0
 32 34  1  0  0  0
 32 44  1  0  0  0
 32 73  1  0  0  0
 33 74  1  0  0  0
 33 75  1  0  0  0
 34 35  1  0  0  0
 34 37  1  0  0  0
 34 76  1  0  0  0
 35 36  2  0  0  0
 35 45  1  0  0  0
 37 38  1  0  0  0
 37 77  1  0  0  0
 37 78  1  0  0  0
 38 39  1  0  0  0
 38 43  1  0  0  0
 38 79  1  0  0  0
 39 40  1  0  0  0
 39 80  1  0  0  0
 39 81  1  0  0  0
 40 41  1  0  0  0
 40 82  1  0  0  0
 40 83  1  0  0  0
 41 42  1  0  0  0
 41 84  1  0  0  0
 41 85  1  0  0  0
 42 43  1  0  0  0
 42 86  1  0  0  0
 42 87  1  0  0  0
 43 44  1  0  0  0
 43 88  1  0  0  0
 44 89  1  0  0  0
 44 90  1  0  0  0
 45 46  1  0  0  0
 45 91  1  0  0  0
 46 47  1  0  0  0
 46 48  1  0  0  0
 46 49  1  0  0  0
 47 92  1  0  0  0
 47 93  1  0  0  0
 47 94  1  0  0  0
 48 95  1  0  0  0
 48 96  1  0  0  0
 48 97  1  0  0  0
 49 98  1  0  0  0
 49 99  1  0  0  0
 49100  1  0  0  0
M  CHG  1  32   1
M  END
> <s_m_source_file>
../3s56_ligand.sdf

> <i_m_source_file_index>
1

> <s_epik_input>
W2NIXTFbY0hdW2NIXVtjSF1jKGMxMiluYyhbY0hdW2NIXTIpQyg9TylbTkhdW0NAQEhdKFtDSDJdQyg9TylbTkgyXSlDKD1PKVtOSF1bQ0BASF0oW0NIMl1jM1tjSF1bY0hdW2NIXVtjSF1bY0hdMylbQ0BIXShbT0hdKVtDSDJdW05AQEgrXShbQ0BASF0oW0NIMl00KUMoPU8pW05IXUMoW0NIM10pKFtDSDNdKVtDSDNdKVtDSDJdW0NASF0oW0NASF00NSlbQ0gyXVtDSDJdW0NIMl1bQ0gyXTU=

> <s_epik_cmdline>
J2VwaWtfYXBwJywgJy1pbWFlJywgJ2xpZ2FuZF9wcm8ubWFlJywgJy1vbWFlJywgJ2xpZ2FuZF9wcmVwLm1hZScsICctbXMnLCAnMScsICctcGgnLCAnNycsICctcGh0JywgJzAuNScsICctbnQn

> <r_epik_Ionization_Penalty>
  0.0170

> <r_epik_Ionization_Penalty_Charging>
  0.0167

> <r_epik_Ionization_Penalty_Neutral>
  0.0002

> <r_epik_State_Penalty>
  0.0132

> <r_epik_Charging_Adjusted_Penalty>
0.0299262088794582

> <i_epik_Tot_Q>
1

> <i_epik_Tot_abs_Q>
1

$$$$
