3s68_ligand
                    3D
 Schrodinger Suite 2020-3.
 30 31  0  0  1  0            999 V2000
  -13.3170   35.2330   60.2030 O   0  0  0  0  0  0
  -13.5590   36.0750   61.0640 C   0  0  0  0  0  0
  -12.3980   36.6530   61.8190 C   0  0  0  0  0  0
  -11.2040   35.8810   61.9370 C   0  0  0  0  0  0
  -10.0940   36.4350   62.6250 C   0  0  0  0  0  0
   -8.9270   35.7180   62.7920 O   0  0  0  0  0  0
  -12.4720   37.9530   62.3310 C   0  0  0  0  0  0
  -11.3610   38.4980   62.9780 C   0  0  0  0  0  0
  -11.4610   39.8150   63.4940 N   0  3  0  0  0  0
  -12.4810   40.4540   63.2540 O   0  0  0  0  0  0
  -10.5760   40.3390   64.1970 O   0  5  0  0  0  0
  -10.1770   37.7240   63.1130 C   0  0  0  0  0  0
   -9.0720   38.2390   63.7360 O   0  5  0  0  0  0
  -14.9510   36.5700   61.2700 C   0  0  0  0  0  0
  -15.7120   36.8580   60.1250 C   0  0  0  0  0  0
  -17.0150   37.3330   60.2810 C   0  0  0  0  0  0
  -17.5400   37.5300   61.5650 C   0  0  0  0  0  0
  -18.9460   38.0550   61.7210 C   0  0  0  0  0  0
  -16.7690   37.2590   62.7070 C   0  0  0  0  0  0
  -15.4610   36.7790   62.5580 C   0  0  0  0  0  0
  -11.1456   34.8817   61.5055 H   0  0  0  0  0  0
   -8.8528   34.6906   62.4062 H   0  0  0  0  0  0
  -13.3878   38.5346   62.2259 H   0  0  0  0  0  0
  -15.2913   36.7127   59.1300 H   0  0  0  0  0  0
  -17.6243   37.5508   59.4038 H   0  0  0  0  0  0
  -19.3928   38.2075   60.7275 H   0  0  0  0  0  0
  -18.9220   39.0119   62.2630 H   0  0  0  0  0  0
  -19.5481   37.3284   62.2862 H   0  0  0  0  0  0
  -17.1848   37.4208   63.7015 H   0  0  0  0  0  0
  -14.8472   36.5706   63.4343 H   0  0  0  0  0  0
  1  2  2  0  0  0
  2  3  1  0  0  0
  2 14  1  0  0  0
  3  4  2  0  0  0
  3  7  1  0  0  0
  4  5  1  0  0  0
  4 21  1  0  0  0
  5  6  1  0  0  0
  5 12  2  0  0  0
  6 22  1  0  0  0
  7  8  2  0  0  0
  7 23  1  0  0  0
  8  9  1  0  0  0
  8 12  1  0  0  0
  9 10  2  0  0  0
  9 11  1  0  0  0
 12 13  1  0  0  0
 14 15  2  0  0  0
 14 20  1  0  0  0
 15 16  1  0  0  0
 15 24  1  0  0  0
 16 17  2  0  0  0
 16 25  1  0  0  0
 17 18  1  0  0  0
 17 19  1  0  0  0
 18 26  1  0  0  0
 18 27  1  0  0  0
 18 28  1  0  0  0
 19 20  2  0  0  0
 19 29  1  0  0  0
 20 30  1  0  0  0
M  CHG  3   9   1  11  -1  13  -1
M  END
> <s_m_source_file>
../3s68_ligand.sdf

> <i_m_source_file_index>
1

> <s_epik_input>
W2NIXTFbY0hdYyhbQ0gzXSlbY0hdW2NIXWMxQyg9TyljMltjSF1jKFtPSF0pYyhbT0hdKWMoW2NIXTIpW04rXSg9TylbTy1d

> <s_epik_cmdline>
J2VwaWtfYXBwJywgJy1pbWFlJywgJ2xpZ2FuZF9wcm8ubWFlJywgJy1vbWFlJywgJ2xpZ2FuZF9wcmVwLm1hZScsICctbXMnLCAnMScsICctcGgnLCAnNycsICctcGh0JywgJzAuNScsICctbnQn

> <r_lp_tautomer_probability>
1

> <r_epik_Ionization_Penalty>
  0.0549

> <r_epik_Ionization_Penalty_Charging>
  0.0543

> <r_epik_Ionization_Penalty_Neutral>
  0.0006

> <r_epik_State_Penalty>
 -0.0000

> <r_epik_Charging_Adjusted_Penalty>
0.054279102422209

> <i_epik_Tot_Q>
-1

> <i_epik_Tot_abs_Q>
3

$$$$
