3s6t_ligand
                    3D
 Schrodinger Suite 2020-3.
 44 45  0  0  1  0            999 V2000
   40.5970   -5.3000    9.5820 C   0  0  0  0  0  0
   40.5330   -4.0850   10.5060 C   0  0  0  0  0  0
   40.4970   -4.2380   11.7260 O   0  0  0  0  0  0
   40.5070   -2.8900    9.8720 N   0  0  0  0  0  0
   40.4950   -1.5640   10.5380 C   0  0  2  0  0  0
   41.9560   -1.2370   10.9730 C   0  0  1  0  0  0
   42.6720   -0.5540    9.9190 O   0  0  0  0  0  0
   41.9850   -0.4150   12.2420 C   0  0  2  0  0  0
   43.3470   -0.1930   12.5980 O   0  0  0  0  0  0
   41.2650   -1.2310   13.3150 C   0  0  1  0  0  0
   41.2730   -0.5150   14.6680 C   0  0  0  0  0  0
   40.6540   -1.3530   15.6530 O   0  0  0  0  0  0
   39.8820   -1.4520   12.9270 O   0  0  0  0  0  0
   39.5310   -1.4570   11.5940 C   0  0  0  0  0  0
   38.2480   -1.3500   11.2680 N   0  0  0  0  0  0
   37.2750   -1.2090   12.4880 O   0  0  0  0  0  0
   35.9580   -1.0590   12.1510 C   0  0  0  0  0  0
   35.6490   -0.5530   11.0690 O   0  0  0  0  0  0
   35.0210   -1.4590   13.0430 N   0  0  0  0  0  0
   33.7020   -1.3900   12.7840 C   0  0  0  0  0  0
   33.0510   -0.1780   12.5160 C   0  0  0  0  0  0
   31.6760   -0.1620   12.2630 C   0  0  0  0  0  0
   30.9430   -1.3520   12.2870 C   0  0  0  0  0  0
   31.5820   -2.5640   12.5630 C   0  0  0  0  0  0
   32.9580   -2.5770   12.8130 C   0  0  0  0  0  0
   40.6142   -6.2193   10.1858 H   0  0  0  0  0  0
   41.5088   -5.2468    8.9690 H   0  0  0  0  0  0
   39.7141   -5.3086    8.9260 H   0  0  0  0  0  0
   40.4945   -2.9541    8.7739 H   0  0  0  0  0  0
   40.0700   -0.8192    9.8491 H   0  0  0  0  0  0
   42.5202   -2.1652   11.1464 H   0  0  0  0  0  0
   42.7512   -1.0116    8.9219 H   0  0  0  0  0  0
   41.5503    0.5891   12.1285 H   0  0  0  0  0  0
   44.0042    0.3805   11.9278 H   0  0  0  0  0  0
   41.7553   -2.2124   13.3958 H   0  0  0  0  0  0
   42.3109   -0.3037   14.9649 H   0  0  0  0  0  0
   40.7155    0.4297   14.5862 H   0  0  0  0  0  0
   40.5664   -1.0065   16.6933 H   0  0  0  0  0  0
   35.3277   -1.8581   14.0211 H   0  0  0  0  0  0
   33.6174    0.7532   12.5048 H   0  0  0  0  0  0
   31.1742    0.7811   12.0464 H   0  0  0  0  0  0
   29.8711   -1.3347   12.0901 H   0  0  0  0  0  0
   31.0118   -3.4928   12.5833 H   0  0  0  0  0  0
   33.4571   -3.5208   13.0328 H   0  0  0  0  0  0
  1  2  1  0  0  0
  1 26  1  0  0  0
  1 27  1  0  0  0
  1 28  1  0  0  0
  2  3  2  0  0  0
  2  4  1  0  0  0
  4  5  1  0  0  0
  4 29  1  0  0  0
  5  6  1  0  0  0
  5 14  1  0  0  0
  5 30  1  0  0  0
  6  7  1  0  0  0
  6  8  1  0  0  0
  6 31  1  0  0  0
  7 32  1  0  0  0
  8  9  1  0  0  0
  8 10  1  0  0  0
  8 33  1  0  0  0
  9 34  1  0  0  0
 10 11  1  0  0  0
 10 13  1  0  0  0
 10 35  1  0  0  0
 11 12  1  0  0  0
 11 36  1  0  0  0
 11 37  1  0  0  0
 12 38  1  0  0  0
 13 14  1  0  0  0
 14 15  2  0  0  0
 15 16  1  0  0  0
 16 17  1  0  0  0
 17 18  2  0  0  0
 17 19  1  0  0  0
 19 20  1  0  0  0
 19 39  1  0  0  0
 20 21  2  0  0  0
 20 25  1  0  0  0
 21 22  1  0  0  0
 21 40  1  0  0  0
 22 23  2  0  0  0
 22 41  1  0  0  0
 23 24  1  0  0  0
 23 42  1  0  0  0
 24 25  2  0  0  0
 24 43  1  0  0  0
 25 44  1  0  0  0
M  END
> <s_m_source_file>
../3s6t_ligand.sdf

> <i_m_source_file_index>
1

> <s_epik_input>
W0NIM11DKD1PKVtOSF1bQ0BASF0xW0NAQEhdKFtPSF0pW0NASF0oW09IXSlbQ0BASF0oW0NIMl1bT0hdKU9DXDE9Ti9PQyg9TylbTkhdYzJbY0hdW2NIXVtjSF1bY0hdW2NIXTI=

> <s_epik_cmdline>
J2VwaWtfYXBwJywgJy1pbWFlJywgJ2xpZ2FuZF9wcm8ubWFlJywgJy1vbWFlJywgJ2xpZ2FuZF9wcmVwLm1hZScsICctbXMnLCAnMScsICctcGgnLCAnNycsICctcGh0JywgJzAuNScsICctbnQn

> <r_lp_tautomer_probability>
1

> <r_epik_Ionization_Penalty>
  0.0000

> <r_epik_Ionization_Penalty_Charging>
  0.0000

> <r_epik_Ionization_Penalty_Neutral>
  0.0000

> <r_epik_State_Penalty>
 -0.0000

> <r_epik_Charging_Adjusted_Penalty>
0

> <i_epik_Tot_Q>
0

> <i_epik_Tot_abs_Q>
0

> <s_epik_Chemistry_Notes>
This compound has an imine and may undergo hydrolysis.

$$$$
