3s73_ligand
                    3D
 Schrodinger Suite 2020-3.
 19 20  0  0  1  0            999 V2000
   16.0280   -0.4580   16.3100 N   0  0  0  0  0  0
   15.5760    0.8630   16.9590 S   0  0  0  0  0  0
   16.0890    0.8810   18.3500 O   0  0  0  0  0  0
   15.3400    3.3620   15.2620 S   0  0  0  0  0  0
   16.2220    2.1440   16.1020 C   0  0  0  0  0  0
   14.0980    1.0710   16.7710 O   0  0  0  0  0  0
   17.5520    2.3610   15.9890 N   0  0  0  0  0  0
   19.2270    3.9770   15.0040 C   0  0  0  0  0  0
   19.2970    5.1220   14.2150 C   0  0  0  0  0  0
   18.1630    5.8110   13.7210 C   0  0  0  0  0  0
   16.8830    5.2480   13.9760 C   0  0  0  0  0  0
   16.7850    4.1120   14.7660 C   0  0  0  0  0  0
   17.8960    3.4650   15.2820 C   0  0  0  0  0  0
   15.6055   -1.3051   16.8702 H   0  0  0  0  0  0
   17.1262   -0.5181   16.3273 H   0  0  0  0  0  0
   20.1222    3.4911   15.3921 H   0  0  0  0  0  0
   20.2834    5.5111   13.9626 H   0  0  0  0  0  0
   18.2680    6.7419   13.1638 H   0  0  0  0  0  0
   15.9872    5.7044   13.5549 H   0  0  0  0  0  0
  1  2  1  0  0  0
  1 14  1  0  0  0
  1 15  1  0  0  0
  2  3  2  0  0  0
  2  5  1  0  0  0
  2  6  2  0  0  0
  4  5  1  0  0  0
  4 12  1  0  0  0
  5  7  2  0  0  0
  7 13  1  0  0  0
  8  9  1  0  0  0
  8 13  2  0  0  0
  8 16  1  0  0  0
  9 10  2  0  0  0
  9 17  1  0  0  0
 10 11  1  0  0  0
 10 18  1  0  0  0
 11 12  2  0  0  0
 11 19  1  0  0  0
 12 13  1  0  0  0
M  END
> <s_m_source_file>
../3s73_ligand.sdf

> <i_m_source_file_index>
1

> <s_epik_input>
W05IMl1TKD1PKSg9TyljKHMxKW5jKGMxMilbY0hdW2NIXVtjSF1bY0hdMg==

> <s_epik_cmdline>
J2VwaWtfYXBwJywgJy1pbWFlJywgJ2xpZ2FuZF9wcm8ubWFlJywgJy1vbWFlJywgJ2xpZ2FuZF9wcmVwLm1hZScsICctbXMnLCAnMScsICctcGgnLCAnNycsICctcGh0JywgJzAuNScsICctbnQn

> <r_epik_Ionization_Penalty>
  0.0163

> <r_epik_Ionization_Penalty_Charging>
  0.0000

> <r_epik_Ionization_Penalty_Neutral>
  0.0163

> <r_epik_State_Penalty>
  0.0129

> <r_epik_Charging_Adjusted_Penalty>
0.0128560209984857

> <i_epik_Tot_Q>
0

> <i_epik_Tot_abs_Q>
0

$$$$
