3s74_ligand
                    3D
 Schrodinger Suite 2020-3.
 20 21  0  0  1  0            999 V2000
   32.5240   -0.2140   15.5730 N   0  0  0  0  0  0
   31.6050   -0.4980   14.2630 S   0  0  0  0  0  0
   30.9660    0.7390   14.0110 O   0  0  0  0  0  0
   33.1720    0.3110   11.7830 S   0  0  0  0  0  0
   32.6230   -0.8760   12.9220 C   0  0  0  0  0  0
   30.7180   -1.5830   14.5260 O   0  0  0  0  0  0
   33.2180   -2.1260   12.5330 C   0  0  0  0  0  0
   34.8370   -2.8760   10.4940 C   0  0  0  0  0  0
   35.5210   -2.4450    9.3540 C   0  0  0  0  0  0
   35.4810   -1.1170    8.9400 C   0  0  0  0  0  0
   34.7410   -0.2330    9.6900 C   0  0  0  0  0  0
   34.0460   -0.6910   10.8010 C   0  0  0  0  0  0
   34.0560   -1.9770   11.3010 C   0  0  0  0  0  0
   31.8771    0.0272   16.4294 H   0  0  0  0  0  0
   33.1972    0.6324   15.3721 H   0  0  0  0  0  0
   33.0766   -3.0650   13.0682 H   0  0  0  0  0  0
   34.8972   -3.9259   10.7805 H   0  0  0  0  0  0
   36.0992   -3.1657    8.7758 H   0  0  0  0  0  0
   36.0185   -0.7882    8.0506 H   0  0  0  0  0  0
   34.7005    0.8206    9.4138 H   0  0  0  0  0  0
  1  2  1  0  0  0
  1 14  1  0  0  0
  1 15  1  0  0  0
  2  3  2  0  0  0
  2  5  1  0  0  0
  2  6  2  0  0  0
  4  5  1  0  0  0
  4 12  1  0  0  0
  5  7  2  0  0  0
  7 13  1  0  0  0
  7 16  1  0  0  0
  8  9  1  0  0  0
  8 13  2  0  0  0
  8 17  1  0  0  0
  9 10  2  0  0  0
  9 18  1  0  0  0
 10 11  1  0  0  0
 10 19  1  0  0  0
 11 12  2  0  0  0
 11 20  1  0  0  0
 12 13  1  0  0  0
M  END
> <s_m_source_file>
../3s74_ligand.sdf

> <i_m_source_file_index>
1

> <s_epik_input>
W05IMl1TKD1PKSg9TyljKHMxKVtjSF1jKGMxMilbY0hdW2NIXVtjSF1bY0hdMg==

> <s_epik_cmdline>
J2VwaWtfYXBwJywgJy1pbWFlJywgJ2xpZ2FuZF9wcm8ubWFlJywgJy1vbWFlJywgJ2xpZ2FuZF9wcmVwLm1hZScsICctbXMnLCAnMScsICctcGgnLCAnNycsICctcGh0JywgJzAuNScsICctbnQn

> <r_lp_tautomer_probability>
1

> <r_epik_Ionization_Penalty>
  0.0031

> <r_epik_Ionization_Penalty_Charging>
  0.0000

> <r_epik_Ionization_Penalty_Neutral>
  0.0031

> <r_epik_State_Penalty>
 -0.0000

> <r_epik_Charging_Adjusted_Penalty>
0

> <i_epik_Tot_Q>
0

> <i_epik_Tot_abs_Q>
0

$$$$
