3s7a_ligand
                    3D
 Schrodinger Suite 2020-3.
 57 61  0  0  1  0            999 V2000
   19.2600   11.0930   10.4420 N   0  0  0  0  0  0
   18.8350   11.1060    9.1620 C   0  0  0  0  0  0
   18.3190   12.2490    8.7120 N   0  0  0  0  0  0
   18.9410    9.9970    8.3760 N   0  0  0  0  0  0
   19.4340    8.8450    8.8560 C   0  0  0  0  0  0
   19.5370    7.7490    8.0710 N   0  0  0  0  0  0
   20.4160    7.7370   10.7340 N   0  0  0  0  0  0
   20.8180    7.7240   12.0160 C   0  0  0  0  0  0
   20.7170    8.8920   12.7880 C   0  0  0  0  0  0
   20.1960    9.9830   12.2580 N   0  0  0  0  0  0
   21.4410    6.4140   12.5490 C   0  0  0  0  0  0
   21.3050    6.1550   13.9820 N   0  0  0  0  0  0
   19.8620    8.8280   10.2080 C   0  0  0  0  0  0
   19.7750    9.9700   10.9730 C   0  0  0  0  0  0
   13.8550    8.0600   19.6610 O   0  0  0  0  0  0
   15.2870    9.7210   20.0480 O   0  5  0  0  0  0
   24.6330    4.9020   16.1020 C   0  0  0  0  0  0
   24.3750    4.4490   14.8080 C   0  0  0  0  0  0
   17.8150    5.4980   13.9790 C   0  0  0  0  0  0
   23.7750    5.8030   16.7270 C   0  0  0  0  0  0
   23.2350    4.8900   14.1160 C   0  0  0  0  0  0
   19.1530    5.5610   13.6110 C   0  0  0  0  0  0
   21.8740    7.1090   16.7810 C   0  0  0  0  0  0
   20.4960    7.2700   16.6420 C   0  0  0  0  0  0
   18.3340    6.5830   16.0690 C   0  0  0  0  0  0
   15.3880    7.4320   17.4260 C   0  0  0  0  0  0
   15.8610    6.0410   17.0080 C   0  0  0  0  0  0
   16.0200    7.8510   18.7600 C   0  0  0  0  0  0
   16.0760    5.9330   15.5610 O   0  0  0  0  0  0
   14.9770    8.5960   19.5890 C   0  0  0  0  0  0
   17.4000    6.0190   15.2080 C   0  0  0  0  0  0
   22.6570    6.2390   16.0240 C   0  0  0  0  0  0
   19.6830    6.6390   15.6960 C   0  0  0  0  0  0
   22.3840    5.7940   14.7330 C   0  0  0  0  0  0
   20.0750    6.1490   14.4800 C   0  0  0  0  0  0
   18.2510   13.1217    9.3782 H   0  0  0  0  0  0
   17.9610   12.3200    7.6743 H   0  0  0  0  0  0
   19.1979    7.7876    7.0253 H   0  0  0  0  0  0
   19.9599    6.8187    8.4780 H   0  0  0  0  0  0
   21.0671    8.8981   13.8202 H   0  0  0  0  0  0
   20.9742    5.5546   12.0455 H   0  0  0  0  0  0
   22.5224    6.4138   12.3477 H   0  0  0  0  0  0
   25.5174    4.5461   16.6304 H   0  0  0  0  0  0
   25.0616    3.7492   14.3315 H   0  0  0  0  0  0
   17.0873    5.0414   13.3081 H   0  0  0  0  0  0
   23.9739    6.1567   17.7387 H   0  0  0  0  0  0
   23.0228    4.5274   13.1102 H   0  0  0  0  0  0
   19.4802    5.1556   12.6536 H   0  0  0  0  0  0
   22.4230    7.6941   17.5335 H   0  0  0  0  0  0
   19.9505    7.9466   17.3163 H   0  0  0  0  0  0
   18.0172    6.9811   17.0330 H   0  0  0  0  0  0
   15.6738    8.1633   16.6556 H   0  0  0  0  0  0
   14.2939    7.4283   17.5402 H   0  0  0  0  0  0
   16.8123    5.8110   17.5101 H   0  0  0  0  0  0
   15.1052    5.2951   17.2950 H   0  0  0  0  0  0
   16.3566    6.9558   19.3034 H   0  0  0  0  0  0
   16.8807    8.5084   18.5675 H   0  0  0  0  0  0
  1  2  2  0  0  0
  1 14  1  0  0  0
  2  3  1  0  0  0
  2  4  1  0  0  0
  3 36  1  0  0  0
  3 37  1  0  0  0
  4  5  2  0  0  0
  5  6  1  0  0  0
  5 13  1  0  0  0
  6 38  1  0  0  0
  6 39  1  0  0  0
  7  8  1  0  0  0
  7 13  2  0  0  0
  8  9  2  0  0  0
  8 11  1  0  0  0
  9 10  1  0  0  0
  9 40  1  0  0  0
 10 14  2  0  0  0
 11 12  1  0  0  0
 11 41  1  0  0  0
 11 42  1  0  0  0
 12 34  1  0  0  0
 12 35  1  0  0  0
 13 14  1  0  0  0
 15 30  2  0  0  0
 16 30  1  0  0  0
 17 18  2  0  0  0
 17 20  1  0  0  0
 17 43  1  0  0  0
 18 21  1  0  0  0
 18 44  1  0  0  0
 19 22  2  0  0  0
 19 31  1  0  0  0
 19 45  1  0  0  0
 20 32  2  0  0  0
 20 46  1  0  0  0
 21 34  2  0  0  0
 21 47  1  0  0  0
 22 35  1  0  0  0
 22 48  1  0  0  0
 23 24  2  0  0  0
 23 32  1  0  0  0
 23 49  1  0  0  0
 24 33  1  0  0  0
 24 50  1  0  0  0
 25 31  2  0  0  0
 25 33  1  0  0  0
 25 51  1  0  0  0
 26 27  1  0  0  0
 26 28  1  0  0  0
 26 52  1  0  0  0
 26 53  1  0  0  0
 27 29  1  0  0  0
 27 54  1  0  0  0
 27 55  1  0  0  0
 28 30  1  0  0  0
 28 56  1  0  0  0
 28 57  1  0  0  0
 29 31  1  0  0  0
 32 34  1  0  0  0
 33 35  2  0  0  0
M  CHG  1  16  -1
M  END
> <s_m_source_file>
../3s7a_ligand.sdf

> <i_m_source_file_index>
1

> <s_epik_input>
W05IMl1jMW5jKFtOSDJdKW5jKGMxMiluW2NIXWMobjIpW0NIMl1OKGMoYzM0KVtjSF1bY0hdW2NIXVtjSF0zKWM1YyhbQ0hdPVtDSF00KVtjSF1jKFtjSF1bY0hdNSlPW0NIMl1bQ0gyXVtDSDJdQyg9TylbT0hd

> <s_epik_cmdline>
J2VwaWtfYXBwJywgJy1pbWFlJywgJ2xpZ2FuZF9wcm8ubWFlJywgJy1vbWFlJywgJ2xpZ2FuZF9wcmVwLm1hZScsICctbXMnLCAnMScsICctcGgnLCAnNycsICctcGh0JywgJzAuNScsICctbnQn

> <r_epik_Ionization_Penalty>
  0.0601

> <r_epik_Ionization_Penalty_Charging>
  0.0025

> <r_epik_Ionization_Penalty_Neutral>
  0.0576

> <r_epik_State_Penalty>
  0.0487

> <r_epik_Charging_Adjusted_Penalty>
0.0511409040630011

> <i_epik_Tot_Q>
-1

> <i_epik_Tot_abs_Q>
1

$$$$
