3s7b_ligand
                    3D
 Schrodinger Suite 2020-3.
 79 82  0  0  1  0            999 V2000
  -16.9480  -64.9640    1.4010 C   0  0  0  0  0  0
  -15.8390  -65.4740    2.0660 C   0  0  0  0  0  0
  -14.7820  -66.0000    1.3280 C   0  0  0  0  0  0
  -14.8290  -66.0070   -0.0710 C   0  0  0  0  0  0
  -15.9440  -65.4900   -0.7260 C   0  0  0  0  0  0
  -17.0060  -64.9690    0.0080 C   0  0  0  0  0  0
  -18.2330  -64.4330   -0.6970 C   0  0  0  0  0  0
  -18.1060  -62.9680   -1.1500 C   0  0  0  0  0  0
  -17.0010  -62.2520   -0.4870 N   0  3  0  0  0  0
  -17.5060  -61.1460    0.3320 C   0  0  0  0  0  0
  -16.5170  -59.9770    0.2140 C   0  0  0  0  0  0
  -17.2360  -58.6450    0.0490 C   0  0  0  0  0  0
  -18.4470  -58.5770    0.1660 O   0  0  0  0  0  0
  -16.5010  -57.5280   -0.1910 N   0  0  0  0  0  0
  -17.0900  -56.1970   -0.3950 C   0  0  0  0  0  0
  -18.2020  -55.8410    0.6050 C   0  0  0  0  0  0
  -17.6830  -55.2490    1.8400 N   0  3  0  0  0  0
  -18.7420  -54.4690    2.5150 C   0  0  0  0  0  0
  -19.6400  -55.2590    3.4860 C   0  0  0  0  0  0
  -19.6460  -54.5560    4.8280 C   0  0  0  0  0  0
  -20.4490  -53.4200    5.0580 C   0  0  0  0  0  0
  -20.4630  -52.7610    6.2990 C   0  0  0  0  0  0
  -19.6250  -53.2280    7.3250 C   0  0  0  0  0  0
  -18.8490  -54.3710    7.1050 C   0  0  0  0  0  0
  -18.8520  -54.9890    5.8710 C   0  0  0  0  0  0
  -18.0140  -56.0280    5.6390 O   0  0  0  0  0  0
  -16.7210  -55.9740    6.2880 C   0  0  0  0  0  0
  -16.8270  -55.5250    7.7340 C   0  0  0  0  0  0
  -15.9950  -55.8120    8.5630 O   0  0  0  0  0  0
  -17.8990  -54.7810    8.0420 N   0  0  0  0  0  0
  -19.4920  -52.6630    8.5480 O   0  0  0  0  0  0
  -15.0170  -57.6240   -0.3710 C   0  0  0  0  0  0
  -14.6450  -57.7460   -1.8680 C   0  0  0  0  0  0
  -13.1290  -57.8760   -2.0710 C   0  0  0  0  0  0
  -12.3690  -56.7120   -1.4060 C   0  0  0  0  0  0
  -12.7170  -56.5580    0.0860 C   0  0  0  0  0  0
  -14.2390  -56.4840    0.3140 C   0  0  0  0  0  0
  -13.5240  -66.6660   -1.0250 Cl  0  0  0  0  0  0
  -13.3720  -66.6030    2.1410 Cl  0  0  0  0  0  0
  -17.7805  -64.5561    1.9743 H   0  0  0  0  0  0
  -15.7972  -65.4622    3.1551 H   0  0  0  0  0  0
  -15.9852  -65.4933   -1.8152 H   0  0  0  0  0  0
  -18.4311  -65.0344   -1.5965 H   0  0  0  0  0  0
  -19.0985  -64.4892   -0.0204 H   0  0  0  0  0  0
  -17.9224  -62.9340   -2.2340 H   0  0  0  0  0  0
  -19.0376  -62.4307   -0.9189 H   0  0  0  0  0  0
  -16.4504  -62.9483    0.1626 H   0  0  0  0  0  0
  -16.3196  -61.8440   -1.2480 H   0  0  0  0  0  0
  -18.4980  -60.8423   -0.0335 H   0  0  0  0  0  0
  -17.5852  -61.4719    1.3796 H   0  0  0  0  0  0
  -15.8990  -59.9264    1.1226 H   0  0  0  0  0  0
  -15.8695  -60.1315   -0.6617 H   0  0  0  0  0  0
  -16.3075  -55.4305   -0.2944 H   0  0  0  0  0  0
  -17.5306  -56.1413   -1.4014 H   0  0  0  0  0  0
  -18.8891  -55.1149    0.1461 H   0  0  0  0  0  0
  -18.7574  -56.7512    0.8751 H   0  0  0  0  0  0
  -17.3391  -56.0480    2.5133 H   0  0  0  0  0  0
  -16.8409  -54.5827    1.6016 H   0  0  0  0  0  0
  -18.2831  -53.6633    3.1069 H   0  0  0  0  0  0
  -19.4135  -54.0330    1.7607 H   0  0  0  0  0  0
  -20.6632  -55.3043    3.0846 H   0  0  0  0  0  0
  -19.2461  -56.2795    3.6018 H   0  0  0  0  0  0
  -21.0764  -53.0425    4.2506 H   0  0  0  0  0  0
  -21.1133  -51.9017    6.4627 H   0  0  0  0  0  0
  -16.2608  -56.9730    6.2721 H   0  0  0  0  0  0
  -16.0726  -55.2631    5.7550 H   0  0  0  0  0  0
  -18.0086  -54.4938    9.0982 H   0  0  0  0  0  0
  -20.0672  -51.7606    8.8025 H   0  0  0  0  0  0
  -14.7394  -58.5498    0.1542 H   0  0  0  0  0  0
  -15.1278  -58.6377   -2.2943 H   0  0  0  0  0  0
  -14.9894  -56.8503   -2.4056 H   0  0  0  0  0  0
  -12.7792  -58.8195   -1.6266 H   0  0  0  0  0  0
  -12.9014  -57.8710   -3.1472 H   0  0  0  0  0  0
  -11.2861  -56.8884   -1.4851 H   0  0  0  0  0  0
  -12.6250  -55.7699   -1.9128 H   0  0  0  0  0  0
  -12.3257  -57.4210    0.6447 H   0  0  0  0  0  0
  -12.2643  -55.6338    0.4746 H   0  0  0  0  0  0
  -14.5849  -55.5164   -0.0786 H   0  0  0  0  0  0
  -14.4124  -56.5223    1.3996 H   0  0  0  0  0  0
  1  2  2  0  0  0
  1  6  1  0  0  0
  1 40  1  0  0  0
  2  3  1  0  0  0
  2 41  1  0  0  0
  3  4  2  0  0  0
  3 39  1  0  0  0
  4  5  1  0  0  0
  4 38  1  0  0  0
  5  6  2  0  0  0
  5 42  1  0  0  0
  6  7  1  0  0  0
  7  8  1  0  0  0
  7 43  1  0  0  0
  7 44  1  0  0  0
  8  9  1  0  0  0
  8 45  1  0  0  0
  8 46  1  0  0  0
  9 10  1  0  0  0
  9 47  1  0  0  0
  9 48  1  0  0  0
 10 11  1  0  0  0
 10 49  1  0  0  0
 10 50  1  0  0  0
 11 12  1  0  0  0
 11 51  1  0  0  0
 11 52  1  0  0  0
 12 13  2  0  0  0
 12 14  1  0  0  0
 14 15  1  0  0  0
 14 32  1  0  0  0
 15 16  1  0  0  0
 15 53  1  0  0  0
 15 54  1  0  0  0
 16 17  1  0  0  0
 16 55  1  0  0  0
 16 56  1  0  0  0
 17 18  1  0  0  0
 17 57  1  0  0  0
 17 58  1  0  0  0
 18 19  1  0  0  0
 18 59  1  0  0  0
 18 60  1  0  0  0
 19 20  1  0  0  0
 19 61  1  0  0  0
 19 62  1  0  0  0
 20 21  2  0  0  0
 20 25  1  0  0  0
 21 22  1  0  0  0
 21 63  1  0  0  0
 22 23  2  0  0  0
 22 64  1  0  0  0
 23 24  1  0  0  0
 23 31  1  0  0  0
 24 25  2  0  0  0
 24 30  1  0  0  0
 25 26  1  0  0  0
 26 27  1  0  0  0
 27 28  1  0  0  0
 27 65  1  0  0  0
 27 66  1  0  0  0
 28 29  2  0  0  0
 28 30  1  0  0  0
 30 67  1  0  0  0
 31 68  1  0  0  0
 32 33  1  0  0  0
 32 37  1  0  0  0
 32 69  1  0  0  0
 33 34  1  0  0  0
 33 70  1  0  0  0
 33 71  1  0  0  0
 34 35  1  0  0  0
 34 72  1  0  0  0
 34 73  1  0  0  0
 35 36  1  0  0  0
 35 74  1  0  0  0
 35 75  1  0  0  0
 36 37  1  0  0  0
 36 76  1  0  0  0
 36 77  1  0  0  0
 37 78  1  0  0  0
 37 79  1  0  0  0
M  CHG  2   9   1  17   1
M  END
> <s_m_source_file>
../3s7b_ligand.sdf

> <i_m_source_file_index>
1

> <s_epik_input>
Q2xjMVtjSF1bY0hdYyhbY0hdYzFDbClbQ0gyXVtDSDJdW05IMitdW0NIMl1bQ0gyXUMoPU8pTihbQ0hdMltDSDJdW0NIMl1bQ0gyXVtDSDJdW0NIMl0yKVtDSDJdW0NIMl1bTkgyK11bQ0gyXVtDSDJdYyhbY0hdW2NIXWMzW09IXSljKGMzNClPW0NIMl1DKD1PKVtOSF00

> <s_epik_cmdline>
J2VwaWtfYXBwJywgJy1pbWFlJywgJ2xpZ2FuZF9wcm8ubWFlJywgJy1vbWFlJywgJ2xpZ2FuZF9wcmVwLm1hZScsICctbXMnLCAnMScsICctcGgnLCAnNycsICctcGh0JywgJzAuNScsICctbnQn

> <r_lp_tautomer_probability>
1

> <r_epik_Ionization_Penalty>
  0.0103

> <r_epik_Ionization_Penalty_Charging>
  0.0064

> <r_epik_Ionization_Penalty_Neutral>
  0.0039

> <r_epik_State_Penalty>
 -0.0000

> <r_epik_Charging_Adjusted_Penalty>
0.0063888909595171

> <i_epik_Tot_Q>
2

> <i_epik_Tot_abs_Q>
2

$$$$
