3s7f_ligand
                    3D
 Schrodinger Suite 2020-3.
106105  0  0  1  0            999 V2000
   17.5200   57.8730    0.4980 N   0  3  0  0  0  0
   17.1410   56.8970    1.5200 C   0  0  2  0  0  0
   18.3230   56.0990    2.0830 C   0  0  0  0  0  0
   19.3360   55.9330    1.4040 O   0  0  0  0  0  0
   15.9640   55.9800    1.0740 C   0  0  0  0  0  0
   14.5710   56.6690    0.7330 C   0  0  0  0  0  0
   13.3870   55.6550    0.7460 C   0  0  0  0  0  0
   14.2480   57.9330    1.6210 C   0  0  0  0  0  0
   18.1840   55.6590    3.3570 N   0  0  0  0  0  0
   19.1490   54.9330    4.1830 C   0  0  2  0  0  0
   19.5480   53.6330    3.5360 C   0  0  0  0  0  0
   18.7780   52.6780    3.5110 O   0  0  0  0  0  0
   18.5950   54.7040    5.6060 C   0  0  0  0  0  0
   18.2250   55.9920    6.3780 C   0  0  0  0  0  0
   17.9810   55.7440    7.8650 C   0  0  0  0  0  0
   17.2510   56.8420    8.6250 C   0  0  0  0  0  0
   16.7370   56.2610    9.9020 N   0  3  0  0  0  0
   20.7650   53.6220    2.9610 N   0  0  0  0  0  0
   21.3950   52.4770    2.2750 C   0  0  2  0  0  0
   22.9440   52.5040    2.3110 C   0  0  0  0  0  0
   23.5540   53.5310    2.6380 O   0  0  0  0  0  0
   20.8910   52.3440    0.8360 C   0  0  0  0  0  0
   21.3430   53.4030    0.0060 O   0  0  0  0  0  0
   23.5520   51.3440    1.9530 N   0  0  0  0  0  0
   24.9830   51.0400    1.8740 C   0  0  2  0  0  0
   25.6430   51.6900    0.6530 C   0  0  0  0  0  0
   26.8020   52.0620    0.7480 O   0  0  0  0  0  0
   25.2220   49.5180    1.8150 C   0  0  0  0  0  0
   24.3710   48.6320    2.7330 C   0  0  0  0  0  0
   24.9840   48.4920    4.1260 C   0  0  0  0  0  0
   23.9580   48.8520    5.1590 C   0  0  0  0  0  0
   22.8670   47.8450    5.2430 N   0  3  0  0  0  0
   24.9430   51.7760   -0.5070 N   0  0  0  0  0  0
   25.4640   52.4330   -1.7190 C   0  0  2  0  0  0
   24.4710   53.4770   -2.3060 C   0  0  0  0  0  0
   23.2570   53.2250   -2.3260 O   0  0  0  0  0  0
   25.9460   51.4130   -2.7710 C   0  0  0  0  0  0
   24.8460   50.6160   -3.4830 C   0  0  0  0  0  0
   25.4360   49.8170   -4.6440 C   0  0  0  0  0  0
   24.7510   50.0730   -5.9720 C   0  0  0  0  0  0
   25.2790   49.1900   -7.0610 N   0  3  0  0  0  0
   25.0060   54.6170   -2.7690 N   0  0  0  0  0  0
   24.2420   55.7160   -3.3610 C   0  0  0  0  0  0
   24.5940   56.0040   -4.8070 C   0  0  0  0  0  0
   23.9700   55.4700   -5.7260 O   0  0  0  0  0  0
   25.5353   56.7984   -5.0725 O   0  5  0  0  0  0
   18.3524   58.4886    0.8697 H   0  0  0  0  0  0
   16.6591   58.5190    0.2707 H   0  0  0  0  0  0
   17.8334   57.3451   -0.4148 H   0  0  0  0  0  0
   16.7976   57.5580    2.3294 H   0  0  0  0  0  0
   16.2474   55.4385    0.1594 H   0  0  0  0  0  0
   15.7387   55.2580    1.8727 H   0  0  0  0  0  0
   14.6658   57.0342   -0.3003 H   0  0  0  0  0  0
   13.6409   54.7869    0.1200 H   0  0  0  0  0  0
   12.4835   56.1413    0.3496 H   0  0  0  0  0  0
   13.2013   55.3214    1.7776 H   0  0  0  0  0  0
   15.0997   58.6286    1.5923 H   0  0  0  0  0  0
   14.0685   57.6158    2.6589 H   0  0  0  0  0  0
   13.3507   58.4356    1.2308 H   0  0  0  0  0  0
   17.1940   55.9137    3.7633 H   0  0  0  0  0  0
   20.0424   55.5735    4.2229 H   0  0  0  0  0  0
   17.6798   54.0964    5.5498 H   0  0  0  0  0  0
   19.3474   54.1783    6.2122 H   0  0  0  0  0  0
   19.0445   56.7205    6.2898 H   0  0  0  0  0  0
   17.3052   56.4218    5.9546 H   0  0  0  0  0  0
   17.3728   54.8360    7.9903 H   0  0  0  0  0  0
   18.9452   55.6131    8.3780 H   0  0  0  0  0  0
   17.9477   57.6663    8.8374 H   0  0  0  0  0  0
   16.4151   57.2162    8.0157 H   0  0  0  0  0  0
   16.2043   57.0379   10.4700 H   0  0  0  0  0  0
   17.5805   55.8838   10.4989 H   0  0  0  0  0  0
   16.0479   55.4336    9.6772 H   0  0  0  0  0  0
   21.3000   54.5802    3.0365 H   0  0  0  0  0  0
   21.0515   51.6169    2.8685 H   0  0  0  0  0  0
   21.2521   51.3976    0.4070 H   0  0  0  0  0  0
   19.7911   52.3530    0.8304 H   0  0  0  0  0  0
   21.0543   53.4318   -1.0551 H   0  0  0  0  0  0
   22.8108   50.5712    1.7011 H   0  0  0  0  0  0
   25.3919   51.4766    2.7971 H   0  0  0  0  0  0
   25.0244   49.1551    0.7956 H   0  0  0  0  0  0
   26.2656   49.2999    2.0860 H   0  0  0  0  0  0
   23.3691   49.0728    2.8422 H   0  0  0  0  0  0
   24.2835   47.6270    2.2945 H   0  0  0  0  0  0
   25.3118   47.4533    4.2796 H   0  0  0  0  0  0
   25.8484   49.1663    4.2157 H   0  0  0  0  0  0
   24.4389   48.9174    6.1462 H   0  0  0  0  0  0
   23.5075   49.8230    4.9056 H   0  0  0  0  0  0
   22.1425   48.1526    6.0114 H   0  0  0  0  0  0
   23.2915   46.8660    5.5102 H   0  0  0  0  0  0
   22.3601   47.7716    4.2695 H   0  0  0  0  0  0
   23.9400   51.3243   -0.5142 H   0  0  0  0  0  0
   26.3483   52.9754   -1.3531 H   0  0  0  0  0  0
   26.5051   51.9368   -3.5603 H   0  0  0  0  0  0
   26.5998   50.6708   -2.2895 H   0  0  0  0  0  0
   24.3773   49.9210   -2.7707 H   0  0  0  0  0  0
   24.0859   51.3085   -3.8737 H   0  0  0  0  0  0
   26.4971   50.0791   -4.7676 H   0  0  0  0  0  0
   25.3463   48.7414   -4.4319 H   0  0  0  0  0  0
   23.6723   49.8827   -5.8709 H   0  0  0  0  0  0
   24.9122   51.1189   -6.2721 H   0  0  0  0  0  0
   24.7528   49.4126   -8.0010 H   0  0  0  0  0  0
   25.1160   48.1364   -6.7902 H   0  0  0  0  0  0
   26.3559   49.3727   -7.1914 H   0  0  0  0  0  0
   26.0997   54.6931   -2.6795 H   0  0  0  0  0  0
   23.1692   55.4750   -3.3303 H   0  0  0  0  0  0
   24.4269   56.6392   -2.7922 H   0  0  0  0  0  0
  1  2  1  0  0  0
  1 47  1  0  0  0
  1 48  1  0  0  0
  1 49  1  0  0  0
  2  3  1  0  0  0
  2  5  1  0  0  0
  2 50  1  0  0  0
  3  4  2  0  0  0
  3  9  1  0  0  0
  5  6  1  0  0  0
  5 51  1  0  0  0
  5 52  1  0  0  0
  6  7  1  0  0  0
  6  8  1  0  0  0
  6 53  1  0  0  0
  7 54  1  0  0  0
  7 55  1  0  0  0
  7 56  1  0  0  0
  8 57  1  0  0  0
  8 58  1  0  0  0
  8 59  1  0  0  0
  9 10  1  0  0  0
  9 60  1  0  0  0
 10 11  1  0  0  0
 10 13  1  0  0  0
 10 61  1  0  0  0
 11 12  2  0  0  0
 11 18  1  0  0  0
 13 14  1  0  0  0
 13 62  1  0  0  0
 13 63  1  0  0  0
 14 15  1  0  0  0
 14 64  1  0  0  0
 14 65  1  0  0  0
 15 16  1  0  0  0
 15 66  1  0  0  0
 15 67  1  0  0  0
 16 17  1  0  0  0
 16 68  1  0  0  0
 16 69  1  0  0  0
 17 70  1  0  0  0
 17 71  1  0  0  0
 17 72  1  0  0  0
 18 19  1  0  0  0
 18 73  1  0  0  0
 19 20  1  0  0  0
 19 22  1  0  0  0
 19 74  1  0  0  0
 20 21  2  0  0  0
 20 24  1  0  0  0
 22 23  1  0  0  0
 22 75  1  0  0  0
 22 76  1  0  0  0
 23 77  1  0  0  0
 24 25  1  0  0  0
 24 78  1  0  0  0
 25 26  1  0  0  0
 25 28  1  0  0  0
 25 79  1  0  0  0
 26 27  2  0  0  0
 26 33  1  0  0  0
 28 29  1  0  0  0
 28 80  1  0  0  0
 28 81  1  0  0  0
 29 30  1  0  0  0
 29 82  1  0  0  0
 29 83  1  0  0  0
 30 31  1  0  0  0
 30 84  1  0  0  0
 30 85  1  0  0  0
 31 32  1  0  0  0
 31 86  1  0  0  0
 31 87  1  0  0  0
 32 88  1  0  0  0
 32 89  1  0  0  0
 32 90  1  0  0  0
 33 34  1  0  0  0
 33 91  1  0  0  0
 34 35  1  0  0  0
 34 37  1  0  0  0
 34 92  1  0  0  0
 35 36  2  0  0  0
 35 42  1  0  0  0
 37 38  1  0  0  0
 37 93  1  0  0  0
 37 94  1  0  0  0
 38 39  1  0  0  0
 38 95  1  0  0  0
 38 96  1  0  0  0
 39 40  1  0  0  0
 39 97  1  0  0  0
 39 98  1  0  0  0
 40 41  1  0  0  0
 40 99  1  0  0  0
 40100  1  0  0  0
 41101  1  0  0  0
 41102  1  0  0  0
 41103  1  0  0  0
 42 43  1  0  0  0
 42104  1  0  0  0
 43 44  1  0  0  0
 43105  1  0  0  0
 43106  1  0  0  0
 44 45  2  0  0  0
 44 46  1  0  0  0
M  CHG  5   1   1  17   1  32   1  41   1  46  -1
M  END
> <s_m_source_file>
../3s7f_ligand.sdf

> <i_m_source_file_index>
1

> <s_epik_input>
W0NIM11bQ0hdKFtDSDNdKVtDSDJdW0NASF0oW05IMytdKUMoPU8pW05IXVtDQEBIXShbQ0gyXVtDSDJdW0NIMl1bQ0gyXVtOSDMrXSlDKD1PKVtOSF1bQ0BASF0oW0NIMl1bT0hdKUMoPU8pW05IXVtDQEBIXShbQ0gyXVtDSDJdW0NIMl1bQ0gyXVtOSDMrXSlDKD1PKVtOSF1bQ0BIXShDKD1PKVtOSF1bQ0gyXUMoPU8pW09IXSlbQ0gyXVtDSDJdW0NIMl1bQ0gyXVtOSDMrXQ==

> <s_epik_cmdline>
J2VwaWtfYXBwJywgJy1pbWFlJywgJ2xpZ2FuZF9wcm8ubWFlJywgJy1vbWFlJywgJ2xpZ2FuZF9wcmVwLm1hZScsICctbXMnLCAnMScsICctcGgnLCAnNycsICctcGh0JywgJzAuNScsICctbnQn

> <r_epik_Ionization_Penalty>
  0.0905

> <r_epik_Ionization_Penalty_Charging>
  0.0905

> <r_epik_Ionization_Penalty_Neutral>
  0.0000

> <r_epik_State_Penalty>
  0.0794

> <r_epik_Charging_Adjusted_Penalty>
0.169916207404598

> <i_epik_Tot_Q>
3

> <i_epik_Tot_abs_Q>
5

$$$$
