3s7l_ligand
                    3D
 Schrodinger Suite 2020-3.
 46 49  0  0  1  0            999 V2000
   17.5530  -11.1500   18.7230 C   0  0  0  0  0  0
   15.4940  -10.1650   17.9930 N   0  0  0  0  0  0
   14.1940   -6.0490   18.9220 O   0  0  0  0  0  0
   16.0590  -11.0770   18.9610 C   0  0  0  0  0  0
   15.3080  -10.5770   16.7340 N   0  0  0  0  0  0
   15.1170   -8.8810   18.2090 C   0  0  0  0  0  0
   15.1850   -5.0630   17.0950 N   0  0  0  0  0  0
   14.6440   -8.4220   17.0050 C   0  0  0  0  0  0
   14.8540   -6.5860   15.4850 N   0  0  0  0  0  0
   14.7910   -9.5180   16.1320 C   0  0  0  0  0  0
   16.2330   -4.8690   15.0200 N   0  0  0  0  0  0
   14.1210   -7.0650   16.6860 C   0  0  2  0  0  0
    9.6540   -2.9330   13.8610 N   0  0  0  0  0  0
   14.4900   -6.0280   17.7410 C   0  0  0  0  0  0
    8.2430   -2.9410   15.7830 N   0  0  0  0  0  0
   15.2950   -5.4200   15.7960 C   0  0  0  0  0  0
   15.7030   -3.8990   17.7710 C   0  0  0  0  0  0
   12.5900   -7.1210   16.5840 C   0  0  0  0  0  0
   11.8280   -8.2480   16.9570 C   0  0  0  0  0  0
   10.4420   -8.2380   16.8440 C   0  0  0  0  0  0
    9.7850   -7.1070   16.3670 C   0  0  0  0  0  0
   10.5050   -5.9600   15.9850 C   0  0  0  0  0  0
   11.8980   -5.9940   16.1090 C   0  0  0  0  0  0
    9.8730   -4.7240   15.4980 C   0  0  0  0  0  0
   10.2300   -4.0780   14.3190 C   0  0  0  0  0  0
    8.6780   -2.4150   14.6260 C   0  0  0  0  0  0
    8.8560   -4.0840   16.1890 C   0  0  0  0  0  0
   18.0067  -11.8400   19.4496 H   0  0  0  0  0  0
   17.9928  -10.1490   18.8437 H   0  0  0  0  0  0
   17.7444  -11.5140   17.7028 H   0  0  0  0  0  0
   15.6192  -12.0780   18.8403 H   0  0  0  0  0  0
   15.8676  -10.7130   19.9812 H   0  0  0  0  0  0
   15.1771   -8.3271   19.1458 H   0  0  0  0  0  0
   14.5104   -9.4961   15.0790 H   0  0  0  0  0  0
   15.4198   -3.9356   18.8333 H   0  0  0  0  0  0
   15.2848   -2.9915   17.3111 H   0  0  0  0  0  0
   16.7994   -3.8822   17.6841 H   0  0  0  0  0  0
   12.3312   -9.1366   17.3381 H   0  0  0  0  0  0
    9.8677   -9.1192   17.1300 H   0  0  0  0  0  0
    8.6978   -7.1101   16.2884 H   0  0  0  0  0  0
   12.4699   -5.1104   15.8256 H   0  0  0  0  0  0
   11.0266   -4.5195   13.7201 H   0  0  0  0  0  0
    8.2025   -1.4969   14.2809 H   0  0  0  0  0  0
    8.5237   -4.5300   17.1264 H   0  0  0  0  0  0
   16.6081   -5.4126   14.1404 H   0  0  0  0  0  0
   14.9157   -7.2209   14.5888 H   0  0  0  0  0  0
  1  4  1  0  0  0
  1 28  1  0  0  0
  1 29  1  0  0  0
  1 30  1  0  0  0
  2  4  1  0  0  0
  2  5  1  0  0  0
  2  6  1  0  0  0
  3 14  2  0  0  0
  4 31  1  0  0  0
  4 32  1  0  0  0
  5 10  2  0  0  0
  6  8  2  0  0  0
  6 33  1  0  0  0
  7 14  1  0  0  0
  7 16  1  0  0  0
  7 17  1  0  0  0
  8 10  1  0  0  0
  8 12  1  0  0  0
  9 12  1  0  0  0
  9 16  1  0  0  0
  9 46  1  0  0  0
 10 34  1  0  0  0
 11 16  2  0  0  0
 11 45  1  0  0  0
 12 14  1  0  0  0
 12 18  1  0  0  0
 13 25  2  0  0  0
 13 26  1  0  0  0
 15 26  2  0  0  0
 15 27  1  0  0  0
 17 35  1  0  0  0
 17 36  1  0  0  0
 17 37  1  0  0  0
 18 19  2  0  0  0
 18 23  1  0  0  0
 19 20  1  0  0  0
 19 38  1  0  0  0
 20 21  2  0  0  0
 20 39  1  0  0  0
 21 22  1  0  0  0
 21 40  1  0  0  0
 22 23  2  0  0  0
 22 24  1  0  0  0
 23 41  1  0  0  0
 24 25  1  0  0  0
 24 27  2  0  0  0
 25 42  1  0  0  0
 26 43  1  0  0  0
 27 44  1  0  0  0
M  END
> <s_m_source_file>
../3s7l_ligand.sdf

> <i_m_source_file_index>
1

> <s_epik_input>
W0NIM11bQ0gyXW4xbltjSF1jKFtjSF0xKVtDQEBdMihbTkhdQyg9TlxbSF0pXE4oQzI9TylbQ0gzXSljM1tjSF1bY0hdW2NIXWMoW2NIXTMpLWM0W2NIXW5bY0hdbltjSF00

> <s_epik_cmdline>
J2VwaWtfYXBwJywgJy1pbWFlJywgJ2xpZ2FuZF9wcm8ubWFlJywgJy1vbWFlJywgJ2xpZ2FuZF9wcmVwLm1hZScsICctbXMnLCAnMScsICctcGgnLCAnNycsICctcGh0JywgJzAuNScsICctbnQn

> <r_lp_tautomer_probability>
0.499639836881432

> <r_epik_Ionization_Penalty>
  6.2152

> <r_epik_Ionization_Penalty_Charging>
  0.0000

> <r_epik_Ionization_Penalty_Neutral>
  6.2152

> <r_epik_State_Penalty>
  0.4107

> <r_epik_Charging_Adjusted_Penalty>
0.410679838952604

> <i_epik_Tot_Q>
0

> <i_epik_Tot_abs_Q>
0

> <s_epik_Chemistry_Notes>
This compound has an imine and may undergo hydrolysis.

$$$$
