3s8l_ligand
                    3D
 Schrodinger Suite 2020-3.
 61 62  0  0  1  0            999 V2000
   -7.6070    7.3370    2.5360 C   0  0  0  0  0  0
   -8.7420    6.8410    2.6570 O   0  0  0  0  0  0
   -6.5650    7.1910    3.6600 C   0  0  0  0  0  0
   -7.1510    8.0100    1.4600 N   0  0  0  0  0  0
   -8.0370    8.2760    0.2830 C   0  0  2  0  0  0
   -7.3120    7.8820   -1.0000 C   0  0  0  0  0  0
   -6.1290    8.1460   -1.1450 O   0  0  0  0  0  0
   -8.4450    9.7580    0.2140 C   0  0  0  0  0  0
   -9.1420   10.1790    1.5110 C   0  0  0  0  0  0
   -8.3550   10.6420    2.5650 C   0  0  0  0  0  0
  -10.5280   10.0390    1.6510 C   0  0  0  0  0  0
   -8.9970   10.9830    3.7390 C   0  0  0  0  0  0
  -11.1700   10.3790    2.8710 C   0  0  0  0  0  0
  -10.3600   10.8280    3.9110 C   0  0  0  0  0  0
  -10.8110   11.2050    5.1700 O   0  0  0  0  0  0
  -12.3330   10.8370    5.6620 P   0  0  0  0  0  0
  -13.2890   11.9080    5.1990 O   0  5  0  0  0  0
  -12.6420    9.4970    5.3780 O   0  0  0  0  0  0
  -12.1400   10.9950    7.2600 O   0  5  0  0  0  0
   -8.0460    7.2350   -1.8660 N   0  0  0  0  0  0
   -5.7230    7.7910   -4.6080 O   0  0  0  0  0  0
   -7.4410    6.7530   -3.1180 C   0  0  0  0  0  0
   -6.7550    7.9220   -3.9050 C   0  0  0  0  0  0
   -6.6510    5.4500   -2.9350 C   0  0  0  0  0  0
   -7.8830    4.6110   -3.3570 C   0  0  0  0  0  0
   -8.5110    5.9290   -3.8700 C   0  0  0  0  0  0
   -7.3880    9.0610   -3.8110 N   0  0  0  0  0  0
   -6.9860   10.2650   -4.5460 C   0  0  2  0  0  0
   -6.2890   11.2690   -3.6320 C   0  0  0  0  0  0
   -6.1690   12.4150   -3.9950 O   0  0  0  0  0  0
   -8.2030   10.8520   -5.3480 C   0  0  0  0  0  0
   -9.3510   11.4230   -4.4330 C   0  0  0  0  0  0
   -9.3730   11.1260   -3.2220 O   0  0  0  0  0  0
  -10.1680   12.3260   -4.9860 N   0  0  0  0  0  0
   -5.7300   10.8580   -2.4750 N   0  0  0  0  0  0
   -7.0069    6.6343    4.4996 H   0  0  0  0  0  0
   -6.2549    8.1886    4.0043 H   0  0  0  0  0  0
   -5.6888    6.6457    3.2792 H   0  0  0  0  0  0
   -6.1100    8.3653    1.4562 H   0  0  0  0  0  0
   -8.9387    7.6598    0.4142 H   0  0  0  0  0  0
   -7.5483   10.3788    0.0706 H   0  0  0  0  0  0
   -9.1346    9.9096   -0.6295 H   0  0  0  0  0  0
   -7.2732   10.7314    2.4658 H   0  0  0  0  0  0
  -11.1199    9.6654    0.8154 H   0  0  0  0  0  0
   -8.4073   11.3895    4.5606 H   0  0  0  0  0  0
  -12.2502   10.2923    2.9884 H   0  0  0  0  0  0
   -9.1112    7.0500   -1.6630 H   0  0  0  0  0  0
   -5.7792    5.4525   -3.6059 H   0  0  0  0  0  0
   -6.3107    5.3709   -1.8919 H   0  0  0  0  0  0
   -7.5739    3.8462   -4.0847 H   0  0  0  0  0  0
   -8.3141    4.1214   -2.4713 H   0  0  0  0  0  0
   -9.5104    6.2008   -3.4994 H   0  0  0  0  0  0
   -8.4486    6.1432   -4.9471 H   0  0  0  0  0  0
   -8.2605    9.0908   -3.1418 H   0  0  0  0  0  0
   -6.2121    9.9401   -5.2570 H   0  0  0  0  0  0
   -7.8564   11.6757   -5.9894 H   0  0  0  0  0  0
   -8.6457   10.0622   -5.9727 H   0  0  0  0  0  0
  -10.0991   12.5441   -6.0620 H   0  0  0  0  0  0
  -10.9089   12.8506   -4.3649 H   0  0  0  0  0  0
   -5.8430    9.8131   -2.1502 H   0  0  0  0  0  0
   -5.1612   11.5678   -1.8564 H   0  0  0  0  0  0
  1  2  2  0  0  0
  1  3  1  0  0  0
  1  4  1  0  0  0
  3 36  1  0  0  0
  3 37  1  0  0  0
  3 38  1  0  0  0
  4  5  1  0  0  0
  4 39  1  0  0  0
  5  6  1  0  0  0
  5  8  1  0  0  0
  5 40  1  0  0  0
  6  7  2  0  0  0
  6 20  1  0  0  0
  8  9  1  0  0  0
  8 41  1  0  0  0
  8 42  1  0  0  0
  9 10  2  0  0  0
  9 11  1  0  0  0
 10 12  1  0  0  0
 10 43  1  0  0  0
 11 13  2  0  0  0
 11 44  1  0  0  0
 12 14  2  0  0  0
 12 45  1  0  0  0
 13 14  1  0  0  0
 13 46  1  0  0  0
 14 15  1  0  0  0
 15 16  1  0  0  0
 16 17  1  0  0  0
 16 18  2  0  0  0
 16 19  1  0  0  0
 20 22  1  0  0  0
 20 47  1  0  0  0
 21 23  2  0  0  0
 22 23  1  0  0  0
 22 24  1  0  0  0
 22 26  1  0  0  0
 23 27  1  0  0  0
 24 25  1  0  0  0
 24 48  1  0  0  0
 24 49  1  0  0  0
 25 26  1  0  0  0
 25 50  1  0  0  0
 25 51  1  0  0  0
 26 52  1  0  0  0
 26 53  1  0  0  0
 27 28  1  0  0  0
 27 54  1  0  0  0
 28 29  1  0  0  0
 28 31  1  0  0  0
 28 55  1  0  0  0
 29 30  2  0  0  0
 29 35  1  0  0  0
 31 32  1  0  0  0
 31 56  1  0  0  0
 31 57  1  0  0  0
 32 33  2  0  0  0
 32 34  1  0  0  0
 34 58  1  0  0  0
 34 59  1  0  0  0
 35 60  1  0  0  0
 35 61  1  0  0  0
M  CHG  2  17  -1  19  -1
M  END
> <s_m_source_file>
../3s8l_ligand.sdf

> <i_m_source_file_index>
1

> <s_epik_input>
W09IXVAoPU8pKFtPSF0pT2MoW2NIXVtjSF0xKVtjSF1bY0hdYzFbQ0gyXVtDQEhdKFtOSF1DKD1PKVtDSDNdKUMoPU8pW05IXUMyKFtDSDJdW0NIMl1bQ0gyXTIpQyg9TylbTkhdW0NASF0oQyg9TylbTkgyXSlbQ0gyXUMoPU8pW05IMl0=

> <s_epik_cmdline>
J2VwaWtfYXBwJywgJy1pbWFlJywgJ2xpZ2FuZF9wcm8ubWFlJywgJy1vbWFlJywgJ2xpZ2FuZF9wcmVwLm1hZScsICctbXMnLCAnMScsICctcGgnLCAnNycsICctcGh0JywgJzAuNScsICctbnQn

> <r_epik_Ionization_Penalty>
  0.0842

> <r_epik_Ionization_Penalty_Charging>
  0.0842

> <r_epik_Ionization_Penalty_Neutral>
  0.0000

> <r_epik_State_Penalty>
  0.0749

> <r_epik_Charging_Adjusted_Penalty>
0.159079871568746

> <i_epik_Tot_Q>
-2

> <i_epik_Tot_abs_Q>
2

$$$$
