3s8n_ligand
                    3D
 Schrodinger Suite 2020-3.
 64 65  0  0  1  0            999 V2000
   13.5750  -13.4820   -2.4780 C   0  0  0  0  0  0
   14.1520  -12.4440   -2.5420 O   0  0  0  0  0  0
   13.6740  -14.4380   -3.6430 C   0  0  0  0  0  0
   12.8460  -13.8740   -1.4730 N   0  0  0  0  0  0
   12.5980  -13.0660   -0.2860 C   0  0  2  0  0  0
   13.0050  -13.8270    0.9800 C   0  0  0  0  0  0
   12.7200  -14.9840    1.1130 O   0  0  0  0  0  0
   11.1220  -12.6330   -0.2360 C   0  0  0  0  0  0
   10.7350  -11.9260   -1.5360 C   0  0  0  0  0  0
   10.2110  -12.6470   -2.5570 C   0  0  0  0  0  0
   10.9480  -10.5820   -1.7180 C   0  0  0  0  0  0
    9.9040  -12.0240   -3.7290 C   0  0  0  0  0  0
   10.6380   -9.9570   -2.9070 C   0  0  0  0  0  0
   10.1030  -10.6800   -3.9420 C   0  0  0  0  0  0
    9.7720  -10.2140   -5.1470 O   0  0  0  0  0  0
   10.0380   -8.7800   -5.6800 P   0  0  0  0  0  0
    9.9320   -8.8510   -7.1590 O   0  5  0  0  0  0
    9.1630   -7.8290   -5.1110 O   0  5  0  0  0  0
   11.3010   -8.4300   -5.4670 O   0  0  0  0  0  0
   13.6240  -13.1080    1.8650 N   0  0  0  0  0  0
   13.1110  -15.2570    4.5910 O   0  0  0  0  0  0
   14.0740  -13.6300    3.1210 C   0  0  0  0  0  0
   12.9220  -14.2810    3.9090 C   0  0  0  0  0  0
   15.1980  -14.5840    2.8170 C   0  0  0  0  0  0
   14.7130  -12.5460    3.9480 C   0  0  0  0  0  0
   16.5040  -13.8670    3.0440 C   0  0  0  0  0  0
   16.1270  -12.4510    3.4070 C   0  0  0  0  0  0
   11.7760  -13.6670    3.8390 N   0  0  0  0  0  0
   10.5980  -14.0970    4.5610 C   0  0  2  0  0  0
    9.5770  -14.7550    3.6550 C   0  0  0  0  0  0
    8.4370  -14.8490    3.9870 O   0  0  0  0  0  0
    9.9970  -12.9130    5.3010 C   0  0  0  0  0  0
    9.4270  -11.8020    4.4420 C   0  0  0  0  0  0
    9.8850  -11.6950    3.2360 O   0  0  0  0  0  0
    8.5750  -10.9940    4.9850 N   0  0  0  0  0  0
   10.0370  -15.2740    2.5670 N   0  0  0  0  0  0
   14.3118  -13.9990   -4.4244 H   0  0  0  0  0  0
   12.6696  -14.6239   -4.0511 H   0  0  0  0  0  0
   14.1128  -15.3873   -3.3020 H   0  0  0  0  0  0
   12.4061  -14.8788   -1.5562 H   0  0  0  0  0  0
   13.2396  -12.1782   -0.3868 H   0  0  0  0  0  0
   10.4841  -13.5194   -0.1044 H   0  0  0  0  0  0
   10.9704  -11.9437    0.6078 H   0  0  0  0  0  0
   10.0366  -13.7167   -2.4414 H   0  0  0  0  0  0
   11.3722   -9.9953   -0.9032 H   0  0  0  0  0  0
    9.4800  -12.6198   -4.5373 H   0  0  0  0  0  0
   10.8181   -8.8884   -3.0243 H   0  0  0  0  0  0
   13.7987  -12.0513    1.6142 H   0  0  0  0  0  0
   15.1274  -15.4575    3.4818 H   0  0  0  0  0  0
   15.1263  -14.9134    1.7699 H   0  0  0  0  0  0
   14.1559  -11.6069    3.8150 H   0  0  0  0  0  0
   14.6953  -12.8357    5.0090 H   0  0  0  0  0  0
   17.0550  -14.3583    3.8595 H   0  0  0  0  0  0
   17.1052  -13.8999    2.1234 H   0  0  0  0  0  0
   16.1396  -11.7900    2.5279 H   0  0  0  0  0  0
   16.7899  -12.0412    4.1833 H   0  0  0  0  0  0
   11.7303  -12.7796    3.1906 H   0  0  0  0  0  0
   10.9524  -14.8600    5.2697 H   0  0  0  0  0  0
    9.1680  -13.2597    5.9356 H   0  0  0  0  0  0
   10.7682  -12.4435    5.9294 H   0  0  0  0  0  0
    8.2397  -11.1619    6.0191 H   0  0  0  0  0  0
    8.1858  -10.1391    4.4126 H   0  0  0  0  0  0
   11.0997  -15.1568    2.3082 H   0  0  0  0  0  0
    9.3665  -15.8337    1.8983 H   0  0  0  0  0  0
  1  2  2  0  0  0
  1  3  1  0  0  0
  1  4  1  0  0  0
  3 37  1  0  0  0
  3 38  1  0  0  0
  3 39  1  0  0  0
  4  5  1  0  0  0
  4 40  1  0  0  0
  5  6  1  0  0  0
  5  8  1  0  0  0
  5 41  1  0  0  0
  6  7  2  0  0  0
  6 20  1  0  0  0
  8  9  1  0  0  0
  8 42  1  0  0  0
  8 43  1  0  0  0
  9 10  2  0  0  0
  9 11  1  0  0  0
 10 12  1  0  0  0
 10 44  1  0  0  0
 11 13  2  0  0  0
 11 45  1  0  0  0
 12 14  2  0  0  0
 12 46  1  0  0  0
 13 14  1  0  0  0
 13 47  1  0  0  0
 14 15  1  0  0  0
 15 16  1  0  0  0
 16 17  1  0  0  0
 16 18  1  0  0  0
 16 19  2  0  0  0
 20 22  1  0  0  0
 20 48  1  0  0  0
 21 23  2  0  0  0
 22 23  1  0  0  0
 22 24  1  0  0  0
 22 25  1  0  0  0
 23 28  1  0  0  0
 24 26  1  0  0  0
 24 49  1  0  0  0
 24 50  1  0  0  0
 25 27  1  0  0  0
 25 51  1  0  0  0
 25 52  1  0  0  0
 26 27  1  0  0  0
 26 53  1  0  0  0
 26 54  1  0  0  0
 27 55  1  0  0  0
 27 56  1  0  0  0
 28 29  1  0  0  0
 28 57  1  0  0  0
 29 30  1  0  0  0
 29 32  1  0  0  0
 29 58  1  0  0  0
 30 31  2  0  0  0
 30 36  1  0  0  0
 32 33  1  0  0  0
 32 59  1  0  0  0
 32 60  1  0  0  0
 33 34  2  0  0  0
 33 35  1  0  0  0
 35 61  1  0  0  0
 35 62  1  0  0  0
 36 63  1  0  0  0
 36 64  1  0  0  0
M  CHG  2  17  -1  18  -1
M  END
> <s_m_source_file>
../3s8n_ligand.sdf

> <i_m_source_file_index>
1

> <s_epik_input>
W09IXVAoPU8pKFtPSF0pT2MoW2NIXVtjSF0xKVtjSF1bY0hdYzFbQ0gyXVtDQEhdKFtOSF1DKD1PKVtDSDNdKUMoPU8pW05IXUMyKFtDSDJdW0NIMl1bQ0gyXVtDSDJdMilDKD1PKVtOSF1bQ0BIXShDKD1PKVtOSDJdKVtDSDJdQyg9TylbTkgyXQ==

> <s_epik_cmdline>
J2VwaWtfYXBwJywgJy1pbWFlJywgJ2xpZ2FuZF9wcm8ubWFlJywgJy1vbWFlJywgJ2xpZ2FuZF9wcmVwLm1hZScsICctbXMnLCAnMScsICctcGgnLCAnNycsICctcGh0JywgJzAuNScsICctbnQn

> <r_epik_Ionization_Penalty>
  0.0842

> <r_epik_Ionization_Penalty_Charging>
  0.0842

> <r_epik_Ionization_Penalty_Neutral>
  0.0000

> <r_epik_State_Penalty>
  0.0749

> <r_epik_Charging_Adjusted_Penalty>
0.159079871568746

> <i_epik_Tot_Q>
-2

> <i_epik_Tot_abs_Q>
2

$$$$
