3s9y_ligand
                    3D
 Schrodinger Suite 2020-3.
 34 35  0  0  1  0            999 V2000
   13.8590    1.1330   31.1190 P   0  0  0  0  0  0
   10.6990    6.9340   32.3520 N   0  0  0  0  0  0
   12.0190    7.0720   32.5640 C   0  0  0  0  0  0
   12.5310    8.0970   33.2610 N   0  0  0  0  0  0
   12.9020    6.1900   32.0790 O   0  0  0  0  0  0
    8.5320    7.6040   32.7890 N   0  0  0  0  0  0
   11.6880    9.0200   33.7830 C   0  0  0  0  0  0
   12.2560   10.0070   34.4840 O   0  0  0  0  0  0
   10.3050    8.9180   33.6430 C   0  0  0  0  0  0
    9.8460    7.8280   32.9250 C   0  0  0  0  0  0
   10.1280    5.7880   31.6250 C   0  0  1  0  0  0
   13.8490    0.2440   32.3610 O   0  5  0  0  0  0
   10.7200    5.5510   30.1980 C   0  0  2  0  0  0
   10.0660    6.2680   29.1460 O   0  0  0  0  0  0
    9.4750    9.8620   34.1400 F   0  0  0  0  0  0
   14.8910    2.2120   31.1510 O   0  0  0  0  0  0
   10.5240    4.0570   30.0160 C   0  0  2  0  0  0
    9.1760    3.7860   29.6370 O   0  0  0  0  0  0
   13.8120    0.3280   29.8140 O   0  5  0  0  0  0
   10.7560    3.5230   31.4240 C   0  0  2  0  0  0
   10.3830    4.5760   32.3400 O   0  0  0  0  0  0
   12.2380    3.1780   31.6130 C   0  0  0  0  0  0
   12.4200    1.8760   31.0430 O   0  0  0  0  0  0
   13.6191    8.1780   33.4009 H   0  0  0  0  0  0
    8.1788    6.7341   32.2159 H   0  0  0  0  0  0
    7.8065    8.2900   33.2505 H   0  0  0  0  0  0
    9.0523    6.0178   31.6136 H   0  0  0  0  0  0
   11.7421    5.9338   30.0612 H   0  0  0  0  0  0
   10.1063    7.3670   29.1217 H   0  0  0  0  0  0
   11.1301    3.6031   29.2182 H   0  0  0  0  0  0
    8.8101    4.0960   28.6471 H   0  0  0  0  0  0
   10.1337    2.6418   31.6390 H   0  0  0  0  0  0
   12.8574    3.9264   31.0970 H   0  0  0  0  0  0
   12.4806    3.1781   32.6859 H   0  0  0  0  0  0
  1 12  1  0  0  0
  1 16  2  0  0  0
  1 19  1  0  0  0
  1 23  1  0  0  0
  2  3  1  0  0  0
  2 10  1  0  0  0
  2 11  1  0  0  0
  3  4  1  0  0  0
  3  5  2  0  0  0
  4  7  1  0  0  0
  4 24  1  0  0  0
  6 10  1  0  0  0
  6 25  1  0  0  0
  6 26  1  0  0  0
  7  8  2  0  0  0
  7  9  1  0  0  0
  9 10  2  0  0  0
  9 15  1  0  0  0
 11 13  1  0  0  0
 11 21  1  0  0  0
 11 27  1  0  0  0
 13 14  1  0  0  0
 13 17  1  0  0  0
 13 28  1  0  0  0
 14 29  1  0  0  0
 17 18  1  0  0  0
 17 20  1  0  0  0
 17 30  1  0  0  0
 18 31  1  0  0  0
 20 21  1  0  0  0
 20 22  1  0  0  0
 20 32  1  0  0  0
 22 23  1  0  0  0
 22 33  1  0  0  0
 22 34  1  0  0  0
M  CHG  2  12  -1  19  -1
M  END
> <s_m_source_file>
../3s9y_ligand.sdf

> <i_m_source_file_index>
1

> <s_epik_input>
W09IXVAoPU8pKFtPSF0pT1tDSDJdW0NAQEhdKE8xKVtDQEBIXShbT0hdKVtDQEBIXShbT0hdKVtDQEBIXTFuMmMoPU8pW25IXWMoPU8pYyhGKWMyW05IMl0=

> <s_epik_cmdline>
J2VwaWtfYXBwJywgJy1pbWFlJywgJ2xpZ2FuZF9wcm8ubWFlJywgJy1vbWFlJywgJ2xpZ2FuZF9wcmVwLm1hZScsICctbXMnLCAnMScsICctcGgnLCAnNycsICctcGh0JywgJzAuNScsICctbnQn

> <r_lp_tautomer_probability>
0.999843180312218

> <r_epik_Ionization_Penalty>
  0.1061

> <r_epik_Ionization_Penalty_Charging>
  0.1061

> <r_epik_Ionization_Penalty_Neutral>
  0.0000

> <r_epik_State_Penalty>
  0.0955

> <r_epik_Charging_Adjusted_Penalty>
0.201553349014666

> <i_epik_Tot_Q>
-2

> <i_epik_Tot_abs_Q>
2

> <s_epik_Chemistry_Notes>
This compound contains an acetal/aminal-like group ( X-CH(R)-Y where X, Y are N, S, or O) that may be acid/base labile, releasing an aldehyde.

$$$$
