3sb0_ligand
                    3D
 Schrodinger Suite 2020-3.
 24 24  0  0  1  0            999 V2000
   30.9260   75.4860   60.6540 C   0  0  0  0  0  0
   32.2210   75.6340   61.3950 C   0  0  0  0  0  0
   32.6740   74.6150   62.2560 C   0  0  0  0  0  0
   33.8640   74.7240   62.9780 C   0  0  0  0  0  0
   34.6580   75.8830   62.8600 C   0  0  0  0  0  0
   35.8160   75.9680   63.5570 F   0  0  0  0  0  0
   34.2480   76.9360   62.0140 C   0  0  0  0  0  0
   35.0950   78.1710   61.8500 C   0  0  0  0  0  0
   35.3740   78.5240   60.6950 O   0  0  0  0  0  0
   35.9200   78.6940   62.9530 C   0  0  0  0  0  0
   36.7470   79.7680   62.8430 C   0  0  0  0  0  0
   36.7470   80.5560   61.7230 O   0  0  0  0  0  0
   37.8540   80.0620   63.7940 C   0  0  0  0  0  0
   37.6960   79.7370   65.1020 O   0  5  0  0  0  0
   39.0360   80.0260   63.4430 O   0  0  0  0  0  0
   33.0420   76.7780   61.2980 C   0  0  0  0  0  0
   32.5670   78.0730   60.3070 Cl  0  0  0  0  0  0
   30.4754   74.5117   60.8942 H   0  0  0  0  0  0
   31.1138   75.5463   59.5718 H   0  0  0  0  0  0
   30.2387   76.2914   60.9524 H   0  0  0  0  0  0
   32.0749   73.7106   62.3621 H   0  0  0  0  0  0
   34.1795   73.9123   63.6335 H   0  0  0  0  0  0
   35.2688   78.9970   63.7861 H   0  0  0  0  0  0
   36.6132   77.9115   63.2953 H   0  0  0  0  0  0
  1  2  1  0  0  0
  1 18  1  0  0  0
  1 19  1  0  0  0
  1 20  1  0  0  0
  2  3  2  0  0  0
  2 16  1  0  0  0
  3  4  1  0  0  0
  3 21  1  0  0  0
  4  5  2  0  0  0
  4 22  1  0  0  0
  5  6  1  0  0  0
  5  7  1  0  0  0
  7  8  1  0  0  0
  7 16  2  0  0  0
  8  9  2  0  0  0
  8 10  1  0  0  0
 10 11  1  0  0  0
 10 23  1  0  0  0
 10 24  1  0  0  0
 11 12  2  0  0  0
 11 13  1  0  0  0
 13 14  1  0  0  0
 13 15  2  0  0  0
 16 17  1  0  0  0
M  CHG  1  14  -1
M  END
> <s_m_source_file>
../3sb0_ligand.sdf

> <i_m_source_file_index>
1

> <s_epik_input>
W0NIM11jMVtjSF1bY0hdYyhGKWMoYzFDbClDKD1PKS9bQ0hdPUMoXFtPSF0pQyg9TylbT0hd

> <s_epik_cmdline>
J2VwaWtfYXBwJywgJy1pbWFlJywgJ2xpZ2FuZF9wcm8ubWFlJywgJy1vbWFlJywgJ2xpZ2FuZF9wcmVwLm1hZScsICctbXMnLCAnMScsICctcGgnLCAnNycsICctcGh0JywgJzAuNScsICctbnQn

> <r_lp_tautomer_probability>
1

> <r_epik_Ionization_Penalty>
  0.0023

> <r_epik_Ionization_Penalty_Charging>
  0.0000

> <r_epik_Ionization_Penalty_Neutral>
  0.0023

> <r_epik_State_Penalty>
 -0.0000

> <r_epik_Charging_Adjusted_Penalty>
2.94508292767046e-05

> <i_epik_Tot_Q>
-1

> <i_epik_Tot_abs_Q>
1

$$$$
