3sbh_ligand
                    3D
 Schrodinger Suite 2020-3.
 37 38  0  0  1  0            999 V2000
   -1.3560    9.0120   11.4600 N   0  0  0  0  0  0
   -1.5440    7.8500   12.1120 C   0  0  0  0  0  0
   -1.4420    7.9540   13.4360 N   0  0  0  0  0  0
   -1.1900    9.0050   14.1490 C   0  0  0  0  0  0
   -1.0020   10.2410   13.5110 C   0  0  0  0  0  0
   -1.0940   10.1920   12.1250 C   0  0  0  0  0  0
   -1.8870    6.1790   11.4530 S   0  0  0  0  0  0
   -2.0450    5.1780   12.9480 C   0  0  0  0  0  0
   -3.5030    5.2490   13.3330 C   0  0  0  0  0  0
   -4.1950    6.0990   12.8090 O   0  0  0  0  0  0
   -1.1360    8.7320   15.5790 C   0  0  0  0  0  0
   -0.8980   11.4970   11.3900 C   0  0  0  0  0  0
   -4.1800    4.2360   14.2170 C   0  0  0  0  0  0
   -3.3950    3.1790   14.5780 C   0  0  0  0  0  0
   -3.9210    2.1820   15.4310 C   0  0  0  0  0  0
   -5.2530    2.2380   15.7830 C   0  0  0  0  0  0
   -6.0630    3.2960   15.3870 C   0  0  0  0  0  0
   -5.5460    4.3270   14.5820 C   0  0  0  0  0  0
   -5.9030    0.8760   16.7610 S   0  0  0  0  0  0
   -7.3790    0.8960   16.5530 O   0  0  0  0  0  0
   -5.3080    1.0000   18.0900 O   0  0  0  0  0  0
   -5.2190   -0.4730   16.0140 N   0  0  0  0  0  0
   -0.8006   11.1626   14.0571 H   0  0  0  0  0  0
   -1.7379    4.1442   12.7312 H   0  0  0  0  0  0
   -1.4016    5.5938   13.7374 H   0  0  0  0  0  0
   -1.3264    7.6631   15.7556 H   0  0  0  0  0  0
   -1.9004    9.3309   16.0957 H   0  0  0  0  0  0
   -0.1404    8.9959   15.9653 H   0  0  0  0  0  0
   -0.9942   11.3262   10.3076 H   0  0  0  0  0  0
    0.1033   11.8954   11.6108 H   0  0  0  0  0  0
   -1.6603   12.2197   11.7164 H   0  0  0  0  0  0
   -2.3712    3.1045   14.2115 H   0  0  0  0  0  0
   -3.2832    1.3810   15.8048 H   0  0  0  0  0  0
   -7.1059    3.3268   15.7025 H   0  0  0  0  0  0
   -6.1687    5.1592   14.2535 H   0  0  0  0  0  0
   -5.5485   -1.3856   16.5323 H   0  0  0  0  0  0
   -4.1223   -0.4009   16.0600 H   0  0  0  0  0  0
  1  2  2  0  0  0
  1  6  1  0  0  0
  2  3  1  0  0  0
  2  7  1  0  0  0
  3  4  2  0  0  0
  4  5  1  0  0  0
  4 11  1  0  0  0
  5  6  2  0  0  0
  5 23  1  0  0  0
  6 12  1  0  0  0
  7  8  1  0  0  0
  8  9  1  0  0  0
  8 24  1  0  0  0
  8 25  1  0  0  0
  9 10  2  0  0  0
  9 13  1  0  0  0
 11 26  1  0  0  0
 11 27  1  0  0  0
 11 28  1  0  0  0
 12 29  1  0  0  0
 12 30  1  0  0  0
 12 31  1  0  0  0
 13 14  2  0  0  0
 13 18  1  0  0  0
 14 15  1  0  0  0
 14 32  1  0  0  0
 15 16  2  0  0  0
 15 33  1  0  0  0
 16 17  1  0  0  0
 16 19  1  0  0  0
 17 18  2  0  0  0
 17 34  1  0  0  0
 18 35  1  0  0  0
 19 20  2  0  0  0
 19 21  2  0  0  0
 19 22  1  0  0  0
 22 36  1  0  0  0
 22 37  1  0  0  0
M  END
> <s_m_source_file>
../3sbh_ligand.sdf

> <i_m_source_file_index>
1

> <s_epik_input>
bjFjKFtDSDNdKVtjSF1jKFtDSDNdKW5jMVNbQ0gyXUMoPU8pYzJbY0hdW2NIXWMoW2NIXVtjSF0yKVMoPU8pKD1PKVtOSDJd

> <s_epik_cmdline>
J2VwaWtfYXBwJywgJy1pbWFlJywgJ2xpZ2FuZF9wcm8ubWFlJywgJy1vbWFlJywgJ2xpZ2FuZF9wcmVwLm1hZScsICctbXMnLCAnMScsICctcGgnLCAnNycsICctcGh0JywgJzAuNScsICctbnQn

> <r_lp_tautomer_probability>
1

> <r_epik_Ionization_Penalty>
  0.0015

> <r_epik_Ionization_Penalty_Charging>
  0.0000

> <r_epik_Ionization_Penalty_Neutral>
  0.0015

> <r_epik_State_Penalty>
 -0.0000

> <r_epik_Charging_Adjusted_Penalty>
0

> <i_epik_Tot_Q>
0

> <i_epik_Tot_abs_Q>
0

$$$$
