3sc1_ligand
                    3D
 Schrodinger Suite 2020-3.
 32 34  0  0  1  0            999 V2000
   39.8330   26.8470   29.9360 C   0  0  0  0  0  0
   40.3460   25.6580   29.3700 C   0  0  0  0  0  0
   38.4790   27.2030   29.7150 C   0  0  0  0  0  0
   35.0630   26.1050   29.2490 C   0  0  0  0  0  0
   33.7370   26.5680   29.0820 C   0  0  0  0  0  0
   39.5130   24.8220   28.5820 C   0  0  0  0  0  0
   35.9300   28.0900   28.0760 C   0  0  0  0  0  0
   36.1850   26.8530   28.7500 C   0  0  0  0  0  0
   37.5920   26.3790   28.9180 C   0  0  0  0  0  0
   33.5050   27.8000   28.4080 C   0  0  0  0  0  0
   34.6070   28.5760   27.9000 C   0  0  0  0  0  0
   38.1380   25.1530   28.3350 C   0  0  0  0  0  0
   34.3590   29.8630   27.2010 C   0  0  0  0  0  0
   33.0840   30.2870   27.0580 C   0  0  0  0  0  0
   32.1120   28.3240   28.2170 C   0  0  0  0  0  0
   37.3580   24.1790   27.4690 C   0  0  0  0  0  0
   32.0130   29.5530   27.5420 N   0  0  0  0  0  0
   31.1420   27.7020   28.6310 O   0  0  0  0  0  0
   36.4770   23.4170   28.2790 O   0  0  0  0  0  0
   40.4758   27.4875   30.5399 H   0  0  0  0  0  0
   41.3867   25.3817   29.5396 H   0  0  0  0  0  0
   38.0940   28.1221   30.1567 H   0  0  0  0  0  0
   35.2379   25.1618   29.7666 H   0  0  0  0  0  0
   32.8994   25.9859   29.4664 H   0  0  0  0  0  0
   39.9262   23.9083   28.1548 H   0  0  0  0  0  0
   36.7680   28.6706   27.6901 H   0  0  0  0  0  0
   35.1884   30.4532   26.8114 H   0  0  0  0  0  0
   32.8929   31.2314   26.5484 H   0  0  0  0  0  0
   36.7747   24.7381   26.7225 H   0  0  0  0  0  0
   38.0578   23.5028   26.9561 H   0  0  0  0  0  0
   30.9864   29.9250   27.4090 H   0  0  0  0  0  0
   35.8280   22.6562   27.8208 H   0  0  0  0  0  0
  1  2  2  0  0  0
  1  3  1  0  0  0
  1 20  1  0  0  0
  2  6  1  0  0  0
  2 21  1  0  0  0
  3  9  2  0  0  0
  3 22  1  0  0  0
  4  5  2  0  0  0
  4  8  1  0  0  0
  4 23  1  0  0  0
  5 10  1  0  0  0
  5 24  1  0  0  0
  6 12  2  0  0  0
  6 25  1  0  0  0
  7  8  2  0  0  0
  7 11  1  0  0  0
  7 26  1  0  0  0
  8  9  1  0  0  0
  9 12  1  0  0  0
 10 11  2  0  0  0
 10 15  1  0  0  0
 11 13  1  0  0  0
 12 16  1  0  0  0
 13 14  2  0  0  0
 13 27  1  0  0  0
 14 17  1  0  0  0
 14 28  1  0  0  0
 15 17  1  0  0  0
 15 18  2  0  0  0
 16 19  1  0  0  0
 16 29  1  0  0  0
 16 30  1  0  0  0
 17 31  1  0  0  0
 19 32  1  0  0  0
M  END
> <s_m_source_file>
../3sc1_ligand.sdf

> <i_m_source_file_index>
1

> <s_epik_input>
W09IXVtDSDJdYzFbY0hdW2NIXVtjSF1bY0hdYzEtYyhbY0hdW2NIXTIpW2NIXWMoYzIzKVtjSF1bY0hdW25IXWMzPU8=

> <s_epik_cmdline>
J2VwaWtfYXBwJywgJy1pbWFlJywgJ2xpZ2FuZF9wcm8ubWFlJywgJy1vbWFlJywgJ2xpZ2FuZF9wcmVwLm1hZScsICctbXMnLCAnMScsICctcGgnLCAnNycsICctcGh0JywgJzAuNScsICctbnQn

> <r_lp_tautomer_probability>
1

> <r_epik_Ionization_Penalty>
  0.0000

> <r_epik_Ionization_Penalty_Charging>
  0.0000

> <r_epik_Ionization_Penalty_Neutral>
  0.0000

> <r_epik_State_Penalty>
 -0.0000

> <r_epik_Charging_Adjusted_Penalty>
2.74979864377435e-05

> <i_epik_Tot_Q>
0

> <i_epik_Tot_abs_Q>
0

$$$$
