3sd5_ligand
                    3D
 Schrodinger Suite 2020-3.
 50 53  0  0  1  0            999 V2000
   28.9160   11.5250   20.1500 N   0  0  0  0  0  0
   27.6550   11.9810   20.3000 C   0  0  0  0  0  0
   26.9480   12.5400   19.2420 C   0  0  0  0  0  0
   25.6580   13.0220   19.4400 C   0  0  0  0  0  0
   25.0780   12.9350   20.7160 C   0  0  0  0  0  0
   25.8620   12.3540   21.6950 C   0  0  0  0  0  0
   27.1030   11.8870   21.5230 N   0  0  0  0  0  0
   23.7210   13.4740   21.0220 C   0  0  0  0  0  0
   23.3360   14.7470   20.6350 C   0  0  0  0  0  0
   22.0480   15.1540   20.9910 C   0  0  0  0  0  0
   21.2300   14.3540   21.6730 N   0  0  0  0  0  0
   21.6910   13.1400   22.0070 C   0  0  0  0  0  0
   22.9090   12.6450   21.7120 N   0  0  0  0  0  0
   20.8660   12.3460   22.7280 N   0  0  0  0  0  0
   21.2260   11.0000   23.1610 C   0  0  0  0  0  0
   20.6610   10.7430   24.5330 C   0  0  0  0  0  0
   19.2500   10.9420   24.5650 O   0  0  0  0  0  0
   18.9410   12.2810   24.1980 C   0  0  0  0  0  0
   19.4200   12.5930   22.8090 C   0  0  0  0  0  0
   21.5670   16.3920   20.6600 N   0  0  0  0  0  0
   20.1650   16.7780   20.8630 C   0  0  0  0  0  0
   20.1070   18.0400   21.6720 C   0  0  0  0  0  0
   20.8560   19.0830   21.0640 O   0  0  0  0  0  0
   22.2240   18.7050   20.9850 C   0  0  0  0  0  0
   22.4110   17.4690   20.1470 C   0  0  0  0  0  0
   24.9640   13.6300   18.2510 C   0  0  0  0  0  0
   25.5790   13.3660   17.1110 F   0  0  0  0  0  0
   24.9020   14.9560   18.3210 F   0  0  0  0  0  0
   23.7140   13.1880   18.1090 F   0  0  0  0  0  0
   29.4081   11.5814   19.1678 H   0  0  0  0  0  0
   29.4520   11.0969   21.0099 H   0  0  0  0  0  0
   27.4054   12.6009   18.2545 H   0  0  0  0  0  0
   25.4316   12.2693   22.6928 H   0  0  0  0  0  0
   24.0071   15.4011   20.0783 H   0  0  0  0  0  0
   20.8155   10.2650   22.4530 H   0  0  0  0  0  0
   22.3215   10.9059   23.1932 H   0  0  0  0  0  0
   20.8719    9.7044   24.8277 H   0  0  0  0  0  0
   21.1251   11.4306   25.2554 H   0  0  0  0  0  0
   17.8515   12.4286   24.2329 H   0  0  0  0  0  0
   19.4276   12.9750   24.8991 H   0  0  0  0  0  0
   19.2148   13.6484   22.5768 H   0  0  0  0  0  0
   18.8971   11.9500   22.0857 H   0  0  0  0  0  0
   19.6858   16.9452   19.8871 H   0  0  0  0  0  0
   19.6372   15.9746   21.3978 H   0  0  0  0  0  0
   19.0615   18.3695   21.7628 H   0  0  0  0  0  0
   20.5207   17.8527   22.6739 H   0  0  0  0  0  0
   22.8046   19.5221   20.5320 H   0  0  0  0  0  0
   22.6067   18.4998   21.9957 H   0  0  0  0  0  0
   23.4656   17.1587   20.1862 H   0  0  0  0  0  0
   22.1321   17.6893   19.1060 H   0  0  0  0  0  0
  1  2  1  0  0  0
  1 30  1  0  0  0
  1 31  1  0  0  0
  2  3  2  0  0  0
  2  7  1  0  0  0
  3  4  1  0  0  0
  3 32  1  0  0  0
  4  5  2  0  0  0
  4 26  1  0  0  0
  5  6  1  0  0  0
  5  8  1  0  0  0
  6  7  2  0  0  0
  6 33  1  0  0  0
  8  9  2  0  0  0
  8 13  1  0  0  0
  9 10  1  0  0  0
  9 34  1  0  0  0
 10 11  2  0  0  0
 10 20  1  0  0  0
 11 12  1  0  0  0
 12 13  2  0  0  0
 12 14  1  0  0  0
 14 15  1  0  0  0
 14 19  1  0  0  0
 15 16  1  0  0  0
 15 35  1  0  0  0
 15 36  1  0  0  0
 16 17  1  0  0  0
 16 37  1  0  0  0
 16 38  1  0  0  0
 17 18  1  0  0  0
 18 19  1  0  0  0
 18 39  1  0  0  0
 18 40  1  0  0  0
 19 41  1  0  0  0
 19 42  1  0  0  0
 20 21  1  0  0  0
 20 25  1  0  0  0
 21 22  1  0  0  0
 21 43  1  0  0  0
 21 44  1  0  0  0
 22 23  1  0  0  0
 22 45  1  0  0  0
 22 46  1  0  0  0
 23 24  1  0  0  0
 24 25  1  0  0  0
 24 47  1  0  0  0
 24 48  1  0  0  0
 25 49  1  0  0  0
 25 50  1  0  0  0
 26 27  1  0  0  0
 26 28  1  0  0  0
 26 29  1  0  0  0
M  END
> <s_m_source_file>
../3sd5_ligand.sdf

> <i_m_source_file_index>
1

> <s_epik_input>
W05IMl1jMVtjSF1jKEMoRikoRilGKWMoW2NIXW4xKS1jMltjSF1jKE4zW0NIMl1bQ0gyXU9bQ0gyXVtDSDJdMyluYyhuMilONFtDSDJdW0NIMl1PW0NIMl1bQ0gyXTQ=

> <s_epik_cmdline>
J2VwaWtfYXBwJywgJy1pbWFlJywgJ2xpZ2FuZF9wcm8ubWFlJywgJy1vbWFlJywgJ2xpZ2FuZF9wcmVwLm1hZScsICctbXMnLCAnMScsICctcGgnLCAnNycsICctcGh0JywgJzAuNScsICctbnQn

> <r_lp_tautomer_probability>
1

> <r_epik_Ionization_Penalty>
  0.0014

> <r_epik_Ionization_Penalty_Charging>
  0.0000

> <r_epik_Ionization_Penalty_Neutral>
  0.0014

> <r_epik_State_Penalty>
 -0.0000

> <r_epik_Charging_Adjusted_Penalty>
0

> <i_epik_Tot_Q>
0

> <i_epik_Tot_abs_Q>
0

$$$$
