3sdi_ligand
                    3D
 Schrodinger Suite 2020-3.
 83 85  0  0  1  0            999 V2000
   12.3360 -137.0340   23.5980 C   0  0  0  0  0  0
   12.6090 -136.2450   24.6440 C   0  0  0  0  0  0
   13.2450 -136.7120   25.9530 C   0  0  0  0  0  0
   12.2240 -134.9520   24.3750 O   0  0  0  0  0  0
   11.6810 -134.9870   23.0520 N   0  0  0  0  0  0
   11.7770 -136.2570   22.6550 C   0  0  0  0  0  0
   11.3340 -136.7860   21.2920 C   0  0  0  0  0  0
   11.7750 -137.8600   20.8980 O   0  0  0  0  0  0
   10.0200 -136.4070   19.2650 C   0  0  1  0  0  0
   11.0530 -136.2400   18.1660 C   0  0  0  0  0  0
   10.5190 -136.0100   20.5870 N   0  0  0  0  0  0
    8.8840 -135.5040   18.8300 C   0  0  0  0  0  0
    7.6010 -135.7020   19.6010 C   0  0  0  0  0  0
    7.3810 -136.7530   20.2130 O   0  0  0  0  0  0
    6.7860 -134.6440   19.5070 N   0  0  0  0  0  0
    5.4570 -134.5430   20.1410 C   0  0  0  0  0  0
    4.3610 -134.3240   19.0760 C   0  0  0  0  0  0
    4.2890 -135.5300   18.1420 C   0  0  0  0  0  0
    3.0060 -134.1330   19.7530 C   0  0  0  0  0  0
    4.6540 -133.0800   18.2440 C   0  0  0  0  0  0
   11.7240 -135.2190   18.0440 O   0  0  0  0  0  0
   11.0660 -137.2370   17.2980 N   0  0  0  0  0  0
   11.9100 -137.2240   16.1080 C   0  0  2  0  0  0
   10.9790 -136.9410   14.9310 C   0  0  0  0  0  0
    9.8290 -137.3720   14.9010 O   0  0  0  0  0  0
   12.5730 -138.5820   15.9330 C   0  0  0  0  0  0
   13.3890 -138.9120   17.1650 C   0  0  0  0  0  0
   14.5740 -137.9600   17.3120 C   0  0  0  0  0  0
   15.5050 -137.8290   16.2720 C   0  0  0  0  0  0
   14.7310 -137.2340   18.4930 C   0  0  0  0  0  0
   16.6030 -136.9720   16.4020 C   0  0  0  0  0  0
   15.8270 -136.3730   18.6210 C   0  0  0  0  0  0
   16.7590 -136.2480   17.5800 C   0  0  0  0  0  0
   10.6780 -135.8640   12.8060 C   0  0  0  0  0  0
    9.9550 -134.5400   12.9930 C   0  0  0  0  0  0
   10.4650 -133.4020   12.3920 C   0  0  0  0  0  0
    8.6430 -132.1180   13.2900 C   0  0  0  0  0  0
    8.7860 -134.4760   13.7330 C   0  0  0  0  0  0
   11.4810 -136.1840   13.9760 N   0  0  0  0  0  0
    9.8080 -132.1870   12.5480 C   0  0  0  0  0  0
    7.9230 -130.7770   13.4410 C   0  0  0  0  0  0
    8.1320 -133.2620   13.8800 C   0  0  0  0  0  0
   12.5303 -138.1041   23.5249 H   0  0  0  0  0  0
   13.4509 -137.7911   25.8961 H   0  0  0  0  0  0
   12.5555 -136.5137   26.7868 H   0  0  0  0  0  0
   14.1863 -136.1673   26.1181 H   0  0  0  0  0  0
    9.7361 -137.4588   19.4170 H   0  0  0  0  0  0
   10.2189 -135.0448   21.0211 H   0  0  0  0  0  0
    9.1797 -134.4529   18.9630 H   0  0  0  0  0  0
    8.6538 -135.6889   17.7704 H   0  0  0  0  0  0
    7.1725 -133.8093   18.9038 H   0  0  0  0  0  0
    5.2405 -135.4720   20.6887 H   0  0  0  0  0  0
    5.4481 -133.6943   20.8407 H   0  0  0  0  0  0
    4.0779 -136.4361   18.7288 H   0  0  0  0  0  0
    5.2499 -135.6470   17.6196 H   0  0  0  0  0  0
    3.4873 -135.3755   17.4048 H   0  0  0  0  0  0
    2.7715 -135.0195   20.3606 H   0  0  0  0  0  0
    2.2289 -133.9980   18.9863 H   0  0  0  0  0  0
    3.0414 -133.2440   20.3998 H   0  0  0  0  0  0
    5.6277 -133.1936   17.7449 H   0  0  0  0  0  0
    4.6791 -132.1975   18.9002 H   0  0  0  0  0  0
    3.8666 -132.9515   17.4867 H   0  0  0  0  0  0
   10.4104 -138.0973   17.4979 H   0  0  0  0  0  0
   12.6920 -136.4589   16.2219 H   0  0  0  0  0  0
   11.8002 -139.3516   15.7898 H   0  0  0  0  0  0
   13.2331 -138.5571   15.0535 H   0  0  0  0  0  0
   12.7546 -138.8242   18.0593 H   0  0  0  0  0  0
   13.7719 -139.9402   17.0866 H   0  0  0  0  0  0
   15.3720 -138.4004   15.3533 H   0  0  0  0  0  0
   14.0104 -137.3359   19.3044 H   0  0  0  0  0  0
   17.3259 -136.8728   15.5922 H   0  0  0  0  0  0
   15.9573 -135.7954   19.5362 H   0  0  0  0  0  0
   17.6117 -135.5788   17.6948 H   0  0  0  0  0  0
    9.9408 -136.6657   12.6519 H   0  0  0  0  0  0
   11.3390 -135.8002   11.9291 H   0  0  0  0  0  0
   11.3778 -133.4585   11.7990 H   0  0  0  0  0  0
    8.3820 -135.3755   14.1976 H   0  0  0  0  0  0
   12.5060 -135.7943   14.0630 H   0  0  0  0  0  0
   10.2118 -131.2869   12.0846 H   0  0  0  0  0  0
    8.4831 -129.9976   12.9036 H   0  0  0  0  0  0
    7.8587 -130.5134   14.5070 H   0  0  0  0  0  0
    6.9094 -130.8557   13.0210 H   0  0  0  0  0  0
    7.2121 -133.2080   14.4622 H   0  0  0  0  0  0
  1  2  2  0  0  0
  1  6  1  0  0  0
  1 43  1  0  0  0
  2  3  1  0  0  0
  2  4  1  0  0  0
  3 44  1  0  0  0
  3 45  1  0  0  0
  3 46  1  0  0  0
  4  5  1  0  0  0
  5  6  2  0  0  0
  6  7  1  0  0  0
  7  8  2  0  0  0
  7 11  1  0  0  0
  9 10  1  0  0  0
  9 11  1  0  0  0
  9 12  1  0  0  0
  9 47  1  0  0  0
 10 21  2  0  0  0
 10 22  1  0  0  0
 11 48  1  0  0  0
 12 13  1  0  0  0
 12 49  1  0  0  0
 12 50  1  0  0  0
 13 14  2  0  0  0
 13 15  1  0  0  0
 15 16  1  0  0  0
 15 51  1  0  0  0
 16 17  1  0  0  0
 16 52  1  0  0  0
 16 53  1  0  0  0
 17 18  1  0  0  0
 17 19  1  0  0  0
 17 20  1  0  0  0
 18 54  1  0  0  0
 18 55  1  0  0  0
 18 56  1  0  0  0
 19 57  1  0  0  0
 19 58  1  0  0  0
 19 59  1  0  0  0
 20 60  1  0  0  0
 20 61  1  0  0  0
 20 62  1  0  0  0
 22 23  1  0  0  0
 22 63  1  0  0  0
 23 24  1  0  0  0
 23 26  1  0  0  0
 23 64  1  0  0  0
 24 25  2  0  0  0
 24 39  1  0  0  0
 26 27  1  0  0  0
 26 65  1  0  0  0
 26 66  1  0  0  0
 27 28  1  0  0  0
 27 67  1  0  0  0
 27 68  1  0  0  0
 28 29  2  0  0  0
 28 30  1  0  0  0
 29 31  1  0  0  0
 29 69  1  0  0  0
 30 32  2  0  0  0
 30 70  1  0  0  0
 31 33  2  0  0  0
 31 71  1  0  0  0
 32 33  1  0  0  0
 32 72  1  0  0  0
 33 73  1  0  0  0
 34 35  1  0  0  0
 34 39  1  0  0  0
 34 74  1  0  0  0
 34 75  1  0  0  0
 35 36  2  0  0  0
 35 38  1  0  0  0
 36 40  1  0  0  0
 36 76  1  0  0  0
 37 40  2  0  0  0
 37 41  1  0  0  0
 37 42  1  0  0  0
 38 42  2  0  0  0
 38 77  1  0  0  0
 39 78  1  0  0  0
 40 79  1  0  0  0
 41 80  1  0  0  0
 41 81  1  0  0  0
 41 82  1  0  0  0
 42 83  1  0  0  0
M  END
> <s_m_source_file>
../3sdi_ligand.sdf

> <i_m_source_file_index>
1

> <s_epik_input>
W0NIM11jMVtjSF1jKG5vMSlDKD1PKVtOSF1bQ0BASF0oW0NIMl1DKD1PKVtOSF1bQ0gyXUMoW0NIM10pKFtDSDNdKVtDSDNdKUMoPU8pW05IXVtDQEBIXShbQ0gyXVtDSDJdYzJbY0hdW2NIXVtjSF1bY0hdW2NIXTIpQyg9TylbTkhdW0NIMl1jM1tjSF1bY0hdYyhbQ0gzXSlbY0hdW2NIXTM=

> <s_epik_cmdline>
J2VwaWtfYXBwJywgJy1pbWFlJywgJ2xpZ2FuZF9wcm8ubWFlJywgJy1vbWFlJywgJ2xpZ2FuZF9wcmVwLm1hZScsICctbXMnLCAnMScsICctcGgnLCAnNycsICctcGh0JywgJzAuNScsICctbnQn

> <r_lp_tautomer_probability>
1

> <r_epik_Ionization_Penalty>
  0.0000

> <r_epik_Ionization_Penalty_Charging>
  0.0000

> <r_epik_Ionization_Penalty_Neutral>
  0.0000

> <r_epik_State_Penalty>
 -0.0000

> <r_epik_Charging_Adjusted_Penalty>
0

> <i_epik_Tot_Q>
0

> <i_epik_Tot_abs_Q>
0

$$$$
