3sdk_ligand
                    3D
 Schrodinger Suite 2020-3.
 81 84  0  0  1  0            999 V2000
   13.0760 -136.8700   24.3700 C   0  0  0  0  0  0
   13.1250 -135.9940   25.3790 C   0  0  0  0  0  0
   14.0100 -136.1210   26.6260 C   0  0  0  0  0  0
   12.2610 -134.9570   25.1400 O   0  0  0  0  0  0
   11.6600 -135.2440   23.8890 N   0  0  0  0  0  0
   12.1910 -136.3950   23.4770 C   0  0  0  0  0  0
   11.8110 -137.0920   22.1660 C   0  0  0  0  0  0
   12.3840 -138.1270   21.8220 O   0  0  0  0  0  0
   11.1310 -136.7100   18.9990 C   0  0  0  0  0  0
    6.3280 -137.1890   25.2450 C   0  0  0  0  0  0
    6.9910 -138.3470   24.5060 C   0  0  0  0  0  0
    6.0640 -139.5660   24.5640 C   0  0  0  0  0  0
    8.3390 -138.7150   25.1330 C   0  0  0  0  0  0
    7.1970 -137.9570   23.0210 C   0  0  0  0  0  0
    8.2400 -137.2990   22.4940 N   0  0  0  0  0  0
    6.3240 -138.2580   22.0630 N   0  0  0  0  0  0
    6.8480 -137.7570   20.8500 O   0  0  0  0  0  0
    8.0270 -137.1700   21.1680 C   0  0  0  0  0  0
    8.8840 -136.5190   20.0830 C   0  0  0  0  0  0
   10.2900 -137.0530   20.2220 C   0  0  2  0  0  0
   10.8390 -136.5020   21.4720 N   0  0  0  0  0  0
   11.8210 -135.6970   18.9660 O   0  0  0  0  0  0
   11.0660 -137.6010   18.0110 N   0  0  0  0  0  0
   11.8210 -137.4640   16.7520 C   0  0  2  0  0  0
   10.8530 -137.2000   15.6110 C   0  0  0  0  0  0
    9.7240 -137.6750   15.6180 O   0  0  0  0  0  0
   12.5500 -138.7610   16.4370 C   0  0  0  0  0  0
   13.3990 -139.2260   17.6010 C   0  0  0  0  0  0
   14.6450 -138.3620   17.7330 C   0  0  0  0  0  0
   15.5120 -138.2090   16.6510 C   0  0  0  0  0  0
   14.9140 -137.7230   18.9370 C   0  0  0  0  0  0
   16.6620 -137.4260   16.7690 C   0  0  0  0  0  0
   16.0590 -136.9300   19.0580 C   0  0  0  0  0  0
   16.9330 -136.7860   17.9740 C   0  0  0  0  0  0
   10.5260 -136.1500   13.4480 C   0  0  0  0  0  0
    9.8040 -134.8120   13.6220 C   0  0  0  0  0  0
    8.6620 -134.7120   14.4080 C   0  0  0  0  0  0
    8.5310 -132.3620   13.8740 C   0  0  0  0  0  0
   10.2990 -133.6930   12.9620 C   0  0  0  0  0  0
   11.3340 -136.4650   14.6210 N   0  0  0  0  0  0
    8.0310 -133.4780   14.5350 C   0  0  0  0  0  0
    7.8450 -131.0070   14.0050 C   0  0  0  0  0  0
    9.6660 -132.4640   13.0910 C   0  0  0  0  0  0
   13.6464 -137.7951   24.2873 H   0  0  0  0  0  0
   14.6030 -137.0453   26.5622 H   0  0  0  0  0  0
   13.3756 -136.1536   27.5241 H   0  0  0  0  0  0
   14.6858 -135.2552   26.6857 H   0  0  0  0  0  0
    6.1807 -137.4636   26.2999 H   0  0  0  0  0  0
    5.3538 -136.9694   24.7837 H   0  0  0  0  0  0
    6.9714 -136.2989   25.1842 H   0  0  0  0  0  0
    5.9065 -139.8572   25.6130 H   0  0  0  0  0  0
    6.5232 -140.4022   24.0163 H   0  0  0  0  0  0
    5.0971 -139.3135   24.1044 H   0  0  0  0  0  0
    8.1898 -138.9914   26.1872 H   0  0  0  0  0  0
    9.0190 -137.8525   25.0728 H   0  0  0  0  0  0
    8.7763 -139.5654   24.5893 H   0  0  0  0  0  0
    8.4762 -136.7714   19.0930 H   0  0  0  0  0  0
    8.8759 -135.4270   20.2153 H   0  0  0  0  0  0
   10.3023 -138.1496   20.3080 H   0  0  0  0  0  0
   10.4458 -135.5575   21.8761 H   0  0  0  0  0  0
   10.4108 -138.4706   18.1675 H   0  0  0  0  0  0
   12.5274 -136.6325   16.8920 H   0  0  0  0  0  0
   11.8161 -139.5480   16.2089 H   0  0  0  0  0  0
   13.2079 -138.6102   15.5684 H   0  0  0  0  0  0
   12.8160 -139.1556   18.5312 H   0  0  0  0  0  0
   13.7046 -140.2700   17.4379 H   0  0  0  0  0  0
   15.2900 -138.7046   15.7059 H   0  0  0  0  0  0
   14.2361 -137.8393   19.7826 H   0  0  0  0  0  0
   17.3418 -137.3171   15.9239 H   0  0  0  0  0  0
   16.2718 -136.4225   19.9989 H   0  0  0  0  0  0
   17.8275 -136.1713   18.0743 H   0  0  0  0  0  0
    9.7852 -136.9505   13.3049 H   0  0  0  0  0  0
   11.1854 -136.0993   12.5690 H   0  0  0  0  0  0
    8.2654 -135.5895   14.9188 H   0  0  0  0  0  0
   11.1894 -133.7810   12.3395 H   0  0  0  0  0  0
   12.3653 -136.0896   14.6954 H   0  0  0  0  0  0
    7.1400 -133.3861   15.1561 H   0  0  0  0  0  0
    6.9652 -131.1031   14.6583 H   0  0  0  0  0  0
    7.5274 -130.6592   13.0109 H   0  0  0  0  0  0
    8.5474 -130.2810   14.4403 H   0  0  0  0  0  0
   10.0607 -131.5864   12.5790 H   0  0  0  0  0  0
  1  2  2  0  0  0
  1  6  1  0  0  0
  1 44  1  0  0  0
  2  3  1  0  0  0
  2  4  1  0  0  0
  3 45  1  0  0  0
  3 46  1  0  0  0
  3 47  1  0  0  0
  4  5  1  0  0  0
  5  6  2  0  0  0
  6  7  1  0  0  0
  7  8  2  0  0  0
  7 21  1  0  0  0
  9 20  1  0  0  0
  9 22  2  0  0  0
  9 23  1  0  0  0
 10 11  1  0  0  0
 10 48  1  0  0  0
 10 49  1  0  0  0
 10 50  1  0  0  0
 11 12  1  0  0  0
 11 13  1  0  0  0
 11 14  1  0  0  0
 12 51  1  0  0  0
 12 52  1  0  0  0
 12 53  1  0  0  0
 13 54  1  0  0  0
 13 55  1  0  0  0
 13 56  1  0  0  0
 14 15  1  0  0  0
 14 16  2  0  0  0
 15 18  2  0  0  0
 16 17  1  0  0  0
 17 18  1  0  0  0
 18 19  1  0  0  0
 19 20  1  0  0  0
 19 57  1  0  0  0
 19 58  1  0  0  0
 20 21  1  0  0  0
 20 59  1  0  0  0
 21 60  1  0  0  0
 23 24  1  0  0  0
 23 61  1  0  0  0
 24 25  1  0  0  0
 24 27  1  0  0  0
 24 62  1  0  0  0
 25 26  2  0  0  0
 25 40  1  0  0  0
 27 28  1  0  0  0
 27 63  1  0  0  0
 27 64  1  0  0  0
 28 29  1  0  0  0
 28 65  1  0  0  0
 28 66  1  0  0  0
 29 30  2  0  0  0
 29 31  1  0  0  0
 30 32  1  0  0  0
 30 67  1  0  0  0
 31 33  2  0  0  0
 31 68  1  0  0  0
 32 34  2  0  0  0
 32 69  1  0  0  0
 33 34  1  0  0  0
 33 70  1  0  0  0
 34 71  1  0  0  0
 35 36  1  0  0  0
 35 40  1  0  0  0
 35 72  1  0  0  0
 35 73  1  0  0  0
 36 37  2  0  0  0
 36 39  1  0  0  0
 37 41  1  0  0  0
 37 74  1  0  0  0
 38 41  2  0  0  0
 38 42  1  0  0  0
 38 43  1  0  0  0
 39 43  2  0  0  0
 39 75  1  0  0  0
 40 76  1  0  0  0
 41 77  1  0  0  0
 42 78  1  0  0  0
 42 79  1  0  0  0
 42 80  1  0  0  0
 43 81  1  0  0  0
M  END
> <s_m_source_file>
../3sdk_ligand.sdf

> <i_m_source_file_index>
1

> <s_epik_input>
W0NIM11jMVtjSF1jKG5vMSlDKD1PKVtOSF1bQ0BASF0oW0NIMl1jKG9uMiluYzJDKFtDSDNdKShbQ0gzXSlbQ0gzXSlDKD1PKVtOSF1bQ0BASF0oW0NIMl1bQ0gyXWMzW2NIXVtjSF1bY0hdW2NIXVtjSF0zKUMoPU8pW05IXVtDSDJdYzRbY0hdW2NIXWMoW0NIM10pW2NIXVtjSF00

> <s_epik_cmdline>
J2VwaWtfYXBwJywgJy1pbWFlJywgJ2xpZ2FuZF9wcm8ubWFlJywgJy1vbWFlJywgJ2xpZ2FuZF9wcmVwLm1hZScsICctbXMnLCAnMScsICctcGgnLCAnNycsICctcGh0JywgJzAuNScsICctbnQn

> <r_lp_tautomer_probability>
1

> <r_epik_Ionization_Penalty>
  0.0000

> <r_epik_Ionization_Penalty_Charging>
  0.0000

> <r_epik_Ionization_Penalty_Neutral>
  0.0000

> <r_epik_State_Penalty>
 -0.0000

> <r_epik_Charging_Adjusted_Penalty>
0

> <i_epik_Tot_Q>
0

> <i_epik_Tot_abs_Q>
0

$$$$
