3sfc_ligand
                    3D
 Schrodinger Suite 2020-3.
 69 74  0  0  1  0            999 V2000
   -8.2010  -25.4440   -4.6860 N   0  0  0  0  0  0
   -9.0140  -24.4920   -4.1550 C   0  0  0  0  0  0
   -8.6120  -23.8740   -2.9430 C   0  0  0  0  0  0
   -7.4050  -24.2630   -2.3440 C   0  0  0  0  0  0
   -6.6020  -25.2550   -2.9200 C   0  0  0  0  0  0
   -7.0360  -25.8340   -4.1200 C   0  0  0  0  0  0
   -9.1480  -22.9110   -2.1400 N   0  0  0  0  0  0
   -8.3500  -22.6660   -1.1110 C   0  0  0  0  0  0
   -7.2740  -23.5190   -1.1680 C   0  0  0  0  0  0
  -10.3080  -22.2320   -2.2960 C   0  0  0  0  0  0
  -10.3720  -20.8430   -2.5530 C   0  0  0  0  0  0
  -11.5780  -20.1550   -2.7080 C   0  0  0  0  0  0
  -12.7820  -20.8470   -2.6150 C   0  0  0  0  0  0
  -12.7650  -22.2190   -2.3580 C   0  0  0  0  0  0
  -11.5500  -22.8900   -2.1960 C   0  0  0  0  0  0
  -10.2580  -24.1710   -4.9650 C   0  0  0  0  0  0
  -10.1650  -22.7490   -5.5300 C   0  0  0  0  0  0
  -11.3380  -22.0070   -5.7340 C   0  0  0  0  0  0
  -11.2690  -20.6960   -6.2410 C   0  0  0  0  0  0
  -10.0230  -20.1060   -6.5540 C   0  0  0  0  0  0
   -8.8530  -20.8460   -6.3540 C   0  0  0  0  0  0
   -8.9300  -22.1510   -5.8500 C   0  0  0  0  0  0
   -8.6470  -21.7510   -0.1340 O   0  0  0  0  0  0
   -8.3410  -21.9200    1.1770 C   0  0  0  0  0  0
   -8.8610  -23.0160    1.8550 C   0  0  0  0  0  0
   -8.5390  -23.2050    3.1920 C   0  0  0  0  0  0
   -7.7000  -22.3050    3.8450 C   0  0  0  0  0  0
   -7.1830  -21.2030    3.1590 C   0  0  0  0  0  0
   -7.5050  -21.0120    1.8140 C   0  0  0  0  0  0
   -6.9490  -19.8250    1.0610 C   0  0  0  0  0  0
   -9.0430  -24.2690    3.8290 F   0  0  0  0  0  0
   -6.0580  -23.5950   -0.3070 C   0  0  0  0  0  0
   -5.6620  -24.6380    0.4180 N   0  0  0  0  0  0
   -5.3880  -22.5700   -0.3210 O   0  0  0  0  0  0
   -6.4070  -25.8980    0.4710 C   0  0  0  0  0  0
   -6.6750  -26.1630    1.9420 C   0  0  0  0  0  0
   -5.4490  -26.1350    2.7110 N   0  3  0  0  0  0
   -4.6400  -24.9410    2.6530 C   0  0  0  0  0  0
   -4.4090  -24.5430    1.2000 C   0  0  0  0  0  0
   -5.6693  -25.5668   -2.4500 H   0  0  0  0  0  0
   -6.4312  -26.6032   -4.6002 H   0  0  0  0  0  0
   -9.4394  -20.2845   -2.6337 H   0  0  0  0  0  0
  -11.5760  -19.0822   -2.9007 H   0  0  0  0  0  0
  -13.7292  -20.3227   -2.7416 H   0  0  0  0  0  0
  -13.7031  -22.7690   -2.2834 H   0  0  0  0  0  0
  -11.5635  -23.9593   -1.9850 H   0  0  0  0  0  0
  -10.3483  -24.8851   -5.7968 H   0  0  0  0  0  0
  -11.1454  -24.2460   -4.3194 H   0  0  0  0  0  0
  -12.3068  -22.4477   -5.4989 H   0  0  0  0  0  0
  -12.1871  -20.1288   -6.3942 H   0  0  0  0  0  0
   -9.9748  -19.0898   -6.9453 H   0  0  0  0  0  0
   -7.8831  -20.4082   -6.5898 H   0  0  0  0  0  0
   -8.0110  -22.7181   -5.7017 H   0  0  0  0  0  0
   -9.5155  -23.7205    1.3418 H   0  0  0  0  0  0
   -7.4462  -22.4608    4.8935 H   0  0  0  0  0  0
   -6.5312  -20.4956    3.6716 H   0  0  0  0  0  0
   -7.3125  -19.8463    0.0230 H   0  0  0  0  0  0
   -5.8499  -19.8699    1.0656 H   0  0  0  0  0  0
   -7.2800  -18.8951    1.5464 H   0  0  0  0  0  0
   -7.3463  -25.7925   -0.0917 H   0  0  0  0  0  0
   -5.8012  -26.7012    0.0261 H   0  0  0  0  0  0
   -7.3537  -25.3921    2.3357 H   0  0  0  0  0  0
   -7.1390  -27.1536    2.0575 H   0  0  0  0  0  0
   -5.6819  -26.2709    3.7774 H   0  0  0  0  0  0
   -4.7863  -26.9458    2.3743 H   0  0  0  0  0  0
   -5.1562  -24.1226    3.1763 H   0  0  0  0  0  0
   -3.6703  -25.1312    3.1362 H   0  0  0  0  0  0
   -3.6541  -25.2152    0.7661 H   0  0  0  0  0  0
   -4.0373  -23.5081    1.1728 H   0  0  0  0  0  0
  1  2  2  0  0  0
  1  6  1  0  0  0
  2  3  1  0  0  0
  2 16  1  0  0  0
  3  4  2  0  0  0
  3  7  1  0  0  0
  4  5  1  0  0  0
  4  9  1  0  0  0
  5  6  2  0  0  0
  5 40  1  0  0  0
  6 41  1  0  0  0
  7  8  1  0  0  0
  7 10  1  0  0  0
  8  9  2  0  0  0
  8 23  1  0  0  0
  9 32  1  0  0  0
 10 11  2  0  0  0
 10 15  1  0  0  0
 11 12  1  0  0  0
 11 42  1  0  0  0
 12 13  2  0  0  0
 12 43  1  0  0  0
 13 14  1  0  0  0
 13 44  1  0  0  0
 14 15  2  0  0  0
 14 45  1  0  0  0
 15 46  1  0  0  0
 16 17  1  0  0  0
 16 47  1  0  0  0
 16 48  1  0  0  0
 17 18  2  0  0  0
 17 22  1  0  0  0
 18 19  1  0  0  0
 18 49  1  0  0  0
 19 20  2  0  0  0
 19 50  1  0  0  0
 20 21  1  0  0  0
 20 51  1  0  0  0
 21 22  2  0  0  0
 21 52  1  0  0  0
 22 53  1  0  0  0
 23 24  1  0  0  0
 24 25  2  0  0  0
 24 29  1  0  0  0
 25 26  1  0  0  0
 25 54  1  0  0  0
 26 27  2  0  0  0
 26 31  1  0  0  0
 27 28  1  0  0  0
 27 55  1  0  0  0
 28 29  2  0  0  0
 28 56  1  0  0  0
 29 30  1  0  0  0
 30 57  1  0  0  0
 30 58  1  0  0  0
 30 59  1  0  0  0
 32 33  1  0  0  0
 32 34  2  0  0  0
 33 35  1  0  0  0
 33 39  1  0  0  0
 35 36  1  0  0  0
 35 60  1  0  0  0
 35 61  1  0  0  0
 36 37  1  0  0  0
 36 62  1  0  0  0
 36 63  1  0  0  0
 37 38  1  0  0  0
 37 64  1  0  0  0
 37 65  1  0  0  0
 38 39  1  0  0  0
 38 66  1  0  0  0
 38 67  1  0  0  0
 39 68  1  0  0  0
 39 69  1  0  0  0
M  CHG  1  37   1
M  END
> <s_m_source_file>
../3sfc_ligand.sdf

> <i_m_source_file_index>
1

> <s_epik_input>
W2NIXTFbY0hdW2NIXVtjSF1bY0hdYzFbQ0gyXWMybltjSF1bY0hdYyhjMjMpYyhDKD1PKU40W0NIMl1bQ0gyXVtOSDIrXVtDSDJdW0NIMl00KWMobjMtYzVbY0hdW2NIXVtjSF1bY0hdW2NIXTUpT2M2W2NIXWMoRilbY0hdW2NIXWM2W0NIM10=

> <s_epik_cmdline>
J2VwaWtfYXBwJywgJy1pbWFlJywgJ2xpZ2FuZF9wcm8ubWFlJywgJy1vbWFlJywgJ2xpZ2FuZF9wcmVwLm1hZScsICctbXMnLCAnMScsICctcGgnLCAnNycsICctcGh0JywgJzAuNScsICctbnQn

> <r_lp_tautomer_probability>
1

> <r_epik_Ionization_Penalty>
  0.2441

> <r_epik_Ionization_Penalty_Charging>
  0.1008

> <r_epik_Ionization_Penalty_Neutral>
  0.1433

> <r_epik_State_Penalty>
 -0.0000

> <r_epik_Charging_Adjusted_Penalty>
0.100786947203345

> <i_epik_Tot_Q>
1

> <i_epik_Tot_abs_Q>
1

$$$$
