3sff_ligand
                    3D
 Schrodinger Suite 2020-3.
 49 51  0  0  1  0            999 V2000
   10.0800   13.0350  -25.9630 C   0  0  0  0  0  0
   14.3950   10.5630  -23.7870 F   0  0  0  0  0  0
   10.9380   14.2270  -26.2280 N   0  0  0  0  0  0
    6.7760   15.7730  -24.1880 O   0  0  0  0  0  0
    7.2110   17.2190  -19.4190 Cl  0  0  0  0  0  0
    9.2970   13.1780  -24.6410 C   0  0  0  0  0  0
   13.3450   12.9500  -28.6500 F   0  0  0  0  0  0
    8.6060   14.5030  -24.5790 N   0  0  0  0  0  0
   12.9590   15.2490  -26.5970 O   0  0  0  0  0  0
    9.4820   15.6600  -24.9240 C   0  0  0  0  0  0
    4.9310   13.7720  -23.8810 N   0  3  0  0  0  0
   10.1730   15.4920  -26.2970 C   0  0  0  0  0  0
    7.3000   14.6490  -24.2020 C   0  0  0  0  0  0
    6.3740   13.4740  -23.7800 C   0  0  1  0  0  0
    6.7920   12.9300  -22.3850 C   0  0  0  0  0  0
    6.2650   13.7250  -21.2040 C   0  0  0  0  0  0
    6.9330   14.9270  -20.8290 C   0  0  0  0  0  0
    6.4290   15.7180  -19.7710 C   0  0  0  0  0  0
    5.3370   15.2550  -19.0020 C   0  0  0  0  0  0
    4.7060   14.0400  -19.3400 C   0  0  0  0  0  0
    5.1450   13.2810  -20.4550 C   0  0  0  0  0  0
   12.3020   14.2300  -26.3640 C   0  0  0  0  0  0
   13.0870   12.9520  -26.2770 C   0  0  0  0  0  0
   13.5980   12.3670  -27.4580 C   0  0  0  0  0  0
   14.3640   11.1780  -27.4120 C   0  0  0  0  0  0
   14.5960   10.5650  -26.1670 C   0  0  0  0  0  0
   14.1160   11.1570  -24.9750 C   0  0  0  0  0  0
   13.3590   12.3550  -25.0150 C   0  0  0  0  0  0
    9.3564   12.9146  -26.7827 H   0  0  0  0  0  0
   10.7111   12.1365  -25.8961 H   0  0  0  0  0  0
    8.5434   12.3796  -24.5730 H   0  0  0  0  0  0
    9.9925   13.0988  -23.7925 H   0  0  0  0  0  0
    8.8786   16.5791  -24.9592 H   0  0  0  0  0  0
   10.2671   15.7659  -24.1609 H   0  0  0  0  0  0
    4.7045   14.1511  -24.8885 H   0  0  0  0  0  0
    4.6605   14.5325  -23.1337 H   0  0  0  0  0  0
    4.3533   12.8544  -23.6960 H   0  0  0  0  0  0
   10.8615   16.3264  -26.4962 H   0  0  0  0  0  0
    9.4307   15.4280  -27.1063 H   0  0  0  0  0  0
    6.4592   12.6744  -24.5306 H   0  0  0  0  0  0
    6.4188   11.9022  -22.2654 H   0  0  0  0  0  0
    7.8890   12.9336  -22.3037 H   0  0  0  0  0  0
    7.8338   15.2369  -21.3587 H   0  0  0  0  0  0
    4.9836   15.8357  -18.1499 H   0  0  0  0  0  0
    3.8717   13.6802  -18.7378 H   0  0  0  0  0  0
    4.6260   12.3640  -20.7341 H   0  0  0  0  0  0
   14.7679   10.7439  -28.3266 H   0  0  0  0  0  0
   15.1496    9.6272  -26.1205 H   0  0  0  0  0  0
   12.9920   12.8104  -24.0952 H   0  0  0  0  0  0
  1  3  1  0  0  0
  1  6  1  0  0  0
  1 29  1  0  0  0
  1 30  1  0  0  0
  2 27  1  0  0  0
  3 12  1  0  0  0
  3 22  1  0  0  0
  4 13  2  0  0  0
  5 18  1  0  0  0
  6  8  1  0  0  0
  6 31  1  0  0  0
  6 32  1  0  0  0
  7 24  1  0  0  0
  8 10  1  0  0  0
  8 13  1  0  0  0
  9 22  2  0  0  0
 10 12  1  0  0  0
 10 33  1  0  0  0
 10 34  1  0  0  0
 11 14  1  0  0  0
 11 35  1  0  0  0
 11 36  1  0  0  0
 11 37  1  0  0  0
 12 38  1  0  0  0
 12 39  1  0  0  0
 13 14  1  0  0  0
 14 15  1  0  0  0
 14 40  1  0  0  0
 15 16  1  0  0  0
 15 41  1  0  0  0
 15 42  1  0  0  0
 16 17  2  0  0  0
 16 21  1  0  0  0
 17 18  1  0  0  0
 17 43  1  0  0  0
 18 19  2  0  0  0
 19 20  1  0  0  0
 19 44  1  0  0  0
 20 21  2  0  0  0
 20 45  1  0  0  0
 21 46  1  0  0  0
 22 23  1  0  0  0
 23 24  2  0  0  0
 23 28  1  0  0  0
 24 25  1  0  0  0
 25 26  2  0  0  0
 25 47  1  0  0  0
 26 27  1  0  0  0
 26 48  1  0  0  0
 27 28  2  0  0  0
 28 49  1  0  0  0
M  CHG  1  11   1
M  END
> <s_m_source_file>
../3sff_ligand.sdf

> <i_m_source_file_index>
1

> <s_epik_input>
RmMoW2NIXTEpW2NIXVtjSF1jKEYpYzFDKD1PKU4yW0NIMl1bQ0gyXU4oW0NIMl1bQ0gyXTIpQyg9TylbQ0BIXShbTkgzK10pW0NIMl1jM1tjSF1jKENsKVtjSF1bY0hdW2NIXTM=

> <s_epik_cmdline>
J2VwaWtfYXBwJywgJy1pbWFlJywgJ2xpZ2FuZF9wcm8ubWFlJywgJy1vbWFlJywgJ2xpZ2FuZF9wcmVwLm1hZScsICctbXMnLCAnMScsICctcGgnLCAnNycsICctcGh0JywgJzAuNScsICctbnQn

> <r_epik_Ionization_Penalty>
  0.1958

> <r_epik_Ionization_Penalty_Charging>
  0.1958

> <r_epik_Ionization_Penalty_Neutral>
  0.0000

> <r_epik_State_Penalty>
  0.1855

> <r_epik_Charging_Adjusted_Penalty>
0.38134153122937

> <i_epik_Tot_Q>
1

> <i_epik_Tot_abs_Q>
1

$$$$
