3sfg_ligand
                    3D
 Schrodinger Suite 2020-3.
 29 30  0  0  1  0            999 V2000
   45.6260    0.8660   25.8400 N   0  0  0  0  0  0
   45.3410    2.2300   25.9460 C   0  0  0  0  0  0
   46.4400    3.3370   25.1870 S   0  0  0  0  0  0
   44.2350    2.6250   26.6130 N   0  0  0  0  0  0
   43.4120    1.7070   27.1830 C   0  0  0  0  0  0
   42.3900    2.0860   27.8100 O   0  0  0  0  0  0
   43.7000    0.3430   27.0750 C   0  0  0  0  0  0
   44.8330   -0.0650   26.3820 C   0  0  0  0  0  0
   46.8290    0.5220   25.0860 C   0  0  1  0  0  0
   47.5130   -0.7510   25.5630 C   0  0  2  0  0  0
   48.3410   -0.5030   26.6820 O   0  0  0  0  0  0
   48.2480   -1.1930   24.2900 C   0  0  2  0  0  0
   49.4750   -0.4760   24.1710 O   0  0  0  0  0  0
   47.2960   -0.7540   23.1720 C   0  0  2  0  0  0
   46.4590    0.2890   23.7400 O   0  0  0  0  0  0
   46.4120   -1.8440   22.6020 C   0  0  0  0  0  0
   45.4070   -1.3140   21.7380 O   0  0  0  0  0  0
   43.9964    3.6955   26.6970 H   0  0  0  0  0  0
   43.0403   -0.3950   27.5313 H   0  0  0  0  0  0
   45.0712   -1.1239   26.2818 H   0  0  0  0  0  0
   47.4953    1.3930   25.1722 H   0  0  0  0  0  0
   46.8802   -1.5277   26.0172 H   0  0  0  0  0  0
   47.8958   -0.1820   27.6353 H   0  0  0  0  0  0
   48.5522   -2.2498   24.2662 H   0  0  0  0  0  0
   50.2889   -0.6557   24.8889 H   0  0  0  0  0  0
   47.8835   -0.3827   22.3194 H   0  0  0  0  0  0
   47.0267   -2.5499   22.0243 H   0  0  0  0  0  0
   45.9137   -2.3791   23.4238 H   0  0  0  0  0  0
   44.6893   -1.9897   21.2497 H   0  0  0  0  0  0
  1  2  1  0  0  0
  1  8  1  0  0  0
  1  9  1  0  0  0
  2  3  2  0  0  0
  2  4  1  0  0  0
  4  5  1  0  0  0
  4 18  1  0  0  0
  5  6  2  0  0  0
  5  7  1  0  0  0
  7  8  2  0  0  0
  7 19  1  0  0  0
  8 20  1  0  0  0
  9 10  1  0  0  0
  9 15  1  0  0  0
  9 21  1  0  0  0
 10 11  1  0  0  0
 10 12  1  0  0  0
 10 22  1  0  0  0
 11 23  1  0  0  0
 12 13  1  0  0  0
 12 14  1  0  0  0
 12 24  1  0  0  0
 13 25  1  0  0  0
 14 15  1  0  0  0
 14 16  1  0  0  0
 14 26  1  0  0  0
 16 17  1  0  0  0
 16 27  1  0  0  0
 16 28  1  0  0  0
 17 29  1  0  0  0
M  END
> <s_m_source_file>
../3sfg_ligand.sdf

> <i_m_source_file_index>
1

> <s_epik_input>
W2NIXTFbY0hdYyg9TylbbkhdYyg9UyluMVtDQEhdMltDQEhdKFtPSF0pW0NASF0oW09IXSlbQ0BIXShPMilbQ0gyXVtPSF0=

> <s_epik_cmdline>
J2VwaWtfYXBwJywgJy1pbWFlJywgJ2xpZ2FuZF9wcm8ubWFlJywgJy1vbWFlJywgJ2xpZ2FuZF9wcmVwLm1hZScsICctbXMnLCAnMScsICctcGgnLCAnNycsICctcGh0JywgJzAuNScsICctbnQn

> <r_lp_tautomer_probability>
0.999156019680456

> <r_epik_Ionization_Penalty>
  0.0114

> <r_epik_Ionization_Penalty_Charging>
  0.0114

> <r_epik_Ionization_Penalty_Neutral>
  0.0000

> <r_epik_State_Penalty>
  0.0087

> <r_epik_Charging_Adjusted_Penalty>
0.020103400599914

> <i_epik_Tot_Q>
0

> <i_epik_Tot_abs_Q>
0

> <s_epik_Chemistry_Notes>
This compound contains an acetal/aminal-like group ( X-CH(R)-Y where X, Y are N, S, or O) that may be acid/base labile, releasing an aldehyde.

$$$$
