3sfh_ligand
                    3D
 Schrodinger Suite 2020-3.
 39 41  0  0  1  0            999 V2000
    5.5700   13.6050  -23.3180 N   0  3  0  0  0  0
    7.0170   13.2910  -23.3000 C   0  0  2  0  0  0
    7.5530   13.0630  -21.8310 C   0  0  0  0  0  0
    7.2840   14.2250  -20.8380 C   0  0  0  0  0  0
    8.2980   15.2690  -20.6970 C   0  0  0  0  0  0
    8.1010   16.3730  -19.7980 C   0  0  0  0  0  0
    6.8900   16.4540  -19.0240 C   0  0  0  0  0  0
    6.6460   17.7860  -17.9390 Cl  0  0  0  0  0  0
    5.8760   15.4320  -19.1430 C   0  0  0  0  0  0
    6.0530   14.3170  -20.0380 C   0  0  0  0  0  0
    4.7600   13.1270  -20.1140 Cl  0  0  0  0  0  0
    7.8940   14.3550  -24.0070 C   0  0  0  0  0  0
    7.4220   15.4900  -23.9730 O   0  0  0  0  0  0
    9.1370   14.1280  -24.6390 N   0  0  0  0  0  0
    9.7200   12.7590  -24.7040 C   0  0  0  0  0  0
   10.9330   13.0230  -25.5750 C   0  0  0  0  0  0
   11.8820   12.0660  -26.0890 C   0  0  0  0  0  0
   12.9790   12.5360  -26.9130 C   0  0  0  0  0  0
   13.1170   13.9480  -27.2150 C   0  0  0  0  0  0
   12.1560   14.9040  -26.6920 C   0  0  0  0  0  0
   11.0650   14.4180  -25.8690 C   0  0  0  0  0  0
    9.9540   15.2270  -25.2190 C   0  0  0  0  0  0
    5.0155   12.8085  -22.8002 H   0  0  0  0  0  0
    5.2231   13.6758  -24.3595 H   0  0  0  0  0  0
    5.3965   14.5639  -22.8077 H   0  0  0  0  0  0
    7.0443   12.3677  -23.8973 H   0  0  0  0  0  0
    7.0767   12.1693  -21.4015 H   0  0  0  0  0  0
    8.6435   12.9208  -21.8565 H   0  0  0  0  0  0
    9.2159   15.2092  -21.2817 H   0  0  0  0  0  0
    8.8646   17.1449  -19.7028 H   0  0  0  0  0  0
    4.9656   15.5054  -18.5482 H   0  0  0  0  0  0
    9.9676   12.4173  -23.6881 H   0  0  0  0  0  0
    8.9900   12.0706  -25.1547 H   0  0  0  0  0  0
   11.7762   11.0053  -25.8615 H   0  0  0  0  0  0
   13.7040   11.8241  -27.3076 H   0  0  0  0  0  0
   13.9438   14.2928  -27.8359 H   0  0  0  0  0  0
   12.2531   15.9667  -26.9140 H   0  0  0  0  0  0
    9.3436   15.8006  -25.9321 H   0  0  0  0  0  0
   10.2987   15.8921  -24.4135 H   0  0  0  0  0  0
  1  2  1  0  0  0
  1 23  1  0  0  0
  1 24  1  0  0  0
  1 25  1  0  0  0
  2  3  1  0  0  0
  2 12  1  0  0  0
  2 26  1  0  0  0
  3  4  1  0  0  0
  3 27  1  0  0  0
  3 28  1  0  0  0
  4  5  2  0  0  0
  4 10  1  0  0  0
  5  6  1  0  0  0
  5 29  1  0  0  0
  6  7  2  0  0  0
  6 30  1  0  0  0
  7  8  1  0  0  0
  7  9  1  0  0  0
  9 10  2  0  0  0
  9 31  1  0  0  0
 10 11  1  0  0  0
 12 13  2  0  0  0
 12 14  1  0  0  0
 14 15  1  0  0  0
 14 22  1  0  0  0
 15 16  1  0  0  0
 15 32  1  0  0  0
 15 33  1  0  0  0
 16 17  2  0  0  0
 16 21  1  0  0  0
 17 18  1  0  0  0
 17 34  1  0  0  0
 18 19  2  0  0  0
 18 35  1  0  0  0
 19 20  1  0  0  0
 19 36  1  0  0  0
 20 21  2  0  0  0
 20 37  1  0  0  0
 21 22  1  0  0  0
 22 38  1  0  0  0
 22 39  1  0  0  0
M  CHG  1   1   1
M  END
> <s_m_source_file>
../3sfh_ligand.sdf

> <i_m_source_file_index>
1

> <s_epik_input>
W2NIXTFbY0hdW2NIXVtjSF1jKGMxMilbQ0gyXU4oW0NIMl0yKUMoPU8pW0NASF0oW05IMytdKVtDSDJdYzNbY0hdW2NIXWMoQ2wpW2NIXWMzQ2w=

> <s_epik_cmdline>
J2VwaWtfYXBwJywgJy1pbWFlJywgJ2xpZ2FuZF9wcm8ubWFlJywgJy1vbWFlJywgJ2xpZ2FuZF9wcmVwLm1hZScsICctbXMnLCAnMScsICctcGgnLCAnNycsICctcGh0JywgJzAuNScsICctbnQn

> <r_epik_Ionization_Penalty>
  0.2099

> <r_epik_Ionization_Penalty_Charging>
  0.2099

> <r_epik_Ionization_Penalty_Neutral>
  0.0000

> <r_epik_State_Penalty>
  0.2000

> <r_epik_Charging_Adjusted_Penalty>
0.409882061902113

> <i_epik_Tot_Q>
1

> <i_epik_Tot_abs_Q>
1

$$$$
