3sfi_ligand
                    3D
 Schrodinger Suite 2020-3.
 42 44  0  0  1  0            999 V2000
   30.3770  -16.7380   -7.5340 C   0  0  0  0  0  0
   30.9880  -16.1930   -8.5540 F   0  0  0  0  0  0
   27.6800  -11.7420   -5.5940 N   0  0  0  0  0  0
   27.8130  -12.8650   -7.4260 O   0  0  0  0  0  0
   27.3750   -3.3250   -3.2040 S   0  0  0  0  0  0
   30.2630  -15.7730   -6.3940 C   0  0  0  0  0  0
   31.0810  -17.7350   -7.0670 F   0  0  0  0  0  0
   26.9720   -6.3700   -2.6320 N   0  0  0  0  0  0
   26.7870   -7.7040   -2.7920 O   0  0  0  0  0  0
   29.1210  -14.8470   -6.7100 C   0  0  0  0  0  0
   29.1990  -17.1750   -7.9360 F   0  0  0  0  0  0
   26.9490   -6.9290   -4.7970 N   0  0  0  0  0  0
   28.9790  -13.8040   -5.6260 C   0  0  0  0  0  0
   27.3060   -4.1520   -5.5870 N   0  0  0  0  0  0
   28.1340  -12.7520   -6.2760 C   0  0  0  0  0  0
   28.1250  -11.5100   -4.1950 C   0  0  0  0  0  0
   27.8190  -10.1100   -3.6630 C   0  0  0  0  0  0
   26.6580   -9.4290   -4.3560 C   0  0  0  0  0  0
   26.9090   -9.5000   -5.8530 C   0  0  0  0  0  0
   26.6780  -10.9240   -6.2720 C   0  0  0  0  0  0
   26.7850   -8.0180   -4.0090 C   0  0  0  0  0  0
   27.0540   -5.9320   -3.9120 C   0  0  0  0  0  0
   27.2310   -4.6070   -4.3150 C   0  0  0  0  0  0
   27.4850   -2.7770   -5.6310 C   0  0  0  0  0  0
   27.5520   -2.0900   -4.4220 C   0  0  0  0  0  0
   30.0673  -16.3262   -5.4636 H   0  0  0  0  0  0
   31.2027  -15.2098   -6.2950 H   0  0  0  0  0  0
   29.3111  -14.3447   -7.6700 H   0  0  0  0  0  0
   28.1878  -15.4254   -6.7773 H   0  0  0  0  0  0
   28.4927  -14.2525   -4.7472 H   0  0  0  0  0  0
   29.9745  -13.4308   -5.3436 H   0  0  0  0  0  0
   27.6229  -12.2254   -3.5271 H   0  0  0  0  0  0
   29.2142  -11.6489   -4.1288 H   0  0  0  0  0  0
   27.5687  -10.1708   -2.5936 H   0  0  0  0  0  0
   28.7006   -9.4659   -3.7972 H   0  0  0  0  0  0
   25.6825   -9.8467   -4.0663 H   0  0  0  0  0  0
   26.2141   -8.8247   -6.3737 H   0  0  0  0  0  0
   27.9445   -9.1960   -6.0660 H   0  0  0  0  0  0
   26.7934  -11.0304   -7.3607 H   0  0  0  0  0  0
   25.6720  -11.2560   -5.9757 H   0  0  0  0  0  0
   27.5705   -2.2512   -6.5820 H   0  0  0  0  0  0
   27.6854   -1.0188   -4.2706 H   0  0  0  0  0  0
  1  2  1  0  0  0
  1  6  1  0  0  0
  1  7  1  0  0  0
  1 11  1  0  0  0
  3 15  1  0  0  0
  3 16  1  0  0  0
  3 20  1  0  0  0
  4 15  2  0  0  0
  5 23  1  0  0  0
  5 25  1  0  0  0
  6 10  1  0  0  0
  6 26  1  0  0  0
  6 27  1  0  0  0
  8  9  1  0  0  0
  8 22  2  0  0  0
  9 21  1  0  0  0
 10 13  1  0  0  0
 10 28  1  0  0  0
 10 29  1  0  0  0
 12 21  2  0  0  0
 12 22  1  0  0  0
 13 15  1  0  0  0
 13 30  1  0  0  0
 13 31  1  0  0  0
 14 23  2  0  0  0
 14 24  1  0  0  0
 16 17  1  0  0  0
 16 32  1  0  0  0
 16 33  1  0  0  0
 17 18  1  0  0  0
 17 34  1  0  0  0
 17 35  1  0  0  0
 18 19  1  0  0  0
 18 21  1  0  0  0
 18 36  1  0  0  0
 19 20  1  0  0  0
 19 37  1  0  0  0
 19 38  1  0  0  0
 20 39  1  0  0  0
 20 40  1  0  0  0
 22 23  1  0  0  0
 24 25  2  0  0  0
 24 41  1  0  0  0
 25 42  1  0  0  0
M  END
> <s_m_source_file>
../3sfi_ligand.sdf

> <i_m_source_file_index>
1

> <s_epik_input>
RkMoRikoRilbQ0gyXVtDSDJdW0NIMl1DKD1PKU4xW0NIMl1bQ0gyXVtDSF0oW0NIMl1bQ0gyXTEpYzJvbmMobjIpLWMzc1tjSF1bY0hdbjM=

> <s_epik_cmdline>
J2VwaWtfYXBwJywgJy1pbWFlJywgJ2xpZ2FuZF9wcm8ubWFlJywgJy1vbWFlJywgJ2xpZ2FuZF9wcmVwLm1hZScsICctbXMnLCAnMScsICctcGgnLCAnNycsICctcGh0JywgJzAuNScsICctbnQn

> <r_lp_tautomer_probability>
1

> <r_epik_Ionization_Penalty>
  0.0000

> <r_epik_Ionization_Penalty_Charging>
  0.0000

> <r_epik_Ionization_Penalty_Neutral>
  0.0000

> <r_epik_State_Penalty>
 -0.0000

> <r_epik_Charging_Adjusted_Penalty>
0

> <i_epik_Tot_Q>
0

> <i_epik_Tot_abs_Q>
0

$$$$
