3sgt_ligand
                    3D
 Schrodinger Suite 2020-3.
 45 47  0  0  1  0            999 V2000
  -13.3630   -4.3790    0.3300 C   0  0  0  0  0  0
  -15.1170   -2.1640    1.5530 C   0  0  0  0  0  0
  -11.0160    7.9790    7.6780 O   0  0  0  0  0  0
  -12.2700    4.3590    6.1590 O   0  0  0  0  0  0
  -10.9450    6.9980    5.6770 O   0  5  0  0  0  0
  -15.2240    8.1420    7.5260 C   0  0  0  0  0  0
  -15.8910    7.0690    6.9320 C   0  0  0  0  0  0
  -13.8370    8.2560    7.4700 C   0  0  0  0  0  0
  -15.1450    6.1150    6.2670 C   0  0  0  0  0  0
  -11.5760   -2.6340    0.1730 C   0  0  0  0  0  0
  -12.1750    2.8060    4.0030 C   0  0  0  0  0  0
  -12.7240    4.0460    2.0130 C   0  0  0  0  0  0
  -11.0640   -1.3600    0.3270 C   0  0  0  0  0  0
  -11.6930    1.7480    3.1980 C   0  0  0  0  0  0
  -12.2450    3.0110    1.2200 C   0  0  0  0  0  0
  -13.1700   -0.6100    1.2720 C   0  0  0  0  0  0
  -13.2160    4.9720    4.1560 N   0  0  0  0  0  0
  -11.2650    0.8610    0.9940 O   0  0  0  0  0  0
  -11.5520    7.3950    6.7190 C   0  0  0  0  0  0
  -13.0140    5.0830    5.4680 C   0  0  0  0  0  0
  -12.8880   -2.9250    0.5530 C   0  0  0  0  0  0
  -13.6900   -1.9060    1.0880 C   0  0  0  0  0  0
  -12.6830    3.9670    3.4090 C   0  0  0  0  0  0
  -11.7550    1.8470    1.8110 C   0  0  0  0  0  0
  -11.8760   -0.3440    0.8710 C   0  0  0  0  0  0
  -13.0910    7.2660    6.7990 C   0  0  0  0  0  0
  -13.7660    6.2240    6.1820 C   0  0  0  0  0  0
  -12.5416   -4.9713   -0.0995 H   0  0  0  0  0  0
  -14.2186   -4.3833   -0.3613 H   0  0  0  0  0  0
  -13.6668   -4.8171    1.2922 H   0  0  0  0  0  0
  -15.5533   -1.2287    1.9336 H   0  0  0  0  0  0
  -15.1110   -2.9183    2.3536 H   0  0  0  0  0  0
  -15.7173   -2.5313    0.7076 H   0  0  0  0  0  0
  -15.8013    8.9072    8.0449 H   0  0  0  0  0  0
  -16.9762    6.9857    6.9915 H   0  0  0  0  0  0
  -13.3341    9.1013    7.9398 H   0  0  0  0  0  0
  -15.6473    5.2660    5.8034 H   0  0  0  0  0  0
  -10.9497   -3.4198   -0.2493 H   0  0  0  0  0  0
  -12.1508    2.7171    5.0891 H   0  0  0  0  0  0
  -13.1392    4.9355    1.5391 H   0  0  0  0  0  0
  -10.0383   -1.1417    0.0296 H   0  0  0  0  0  0
  -11.2734    0.8560    3.6631 H   0  0  0  0  0  0
  -12.2522    3.1089    0.1344 H   0  0  0  0  0  0
  -13.7804    0.1716    1.7244 H   0  0  0  0  0  0
  -13.8370    5.7125    3.6305 H   0  0  0  0  0  0
  1 21  1  0  0  0
  1 28  1  0  0  0
  1 29  1  0  0  0
  1 30  1  0  0  0
  2 22  1  0  0  0
  2 31  1  0  0  0
  2 32  1  0  0  0
  2 33  1  0  0  0
  3 19  2  0  0  0
  4 20  2  0  0  0
  5 19  1  0  0  0
  6  7  2  0  0  0
  6  8  1  0  0  0
  6 34  1  0  0  0
  7  9  1  0  0  0
  7 35  1  0  0  0
  8 26  2  0  0  0
  8 36  1  0  0  0
  9 27  2  0  0  0
  9 37  1  0  0  0
 10 13  2  0  0  0
 10 21  1  0  0  0
 10 38  1  0  0  0
 11 14  2  0  0  0
 11 23  1  0  0  0
 11 39  1  0  0  0
 12 15  1  0  0  0
 12 23  2  0  0  0
 12 40  1  0  0  0
 13 25  1  0  0  0
 13 41  1  0  0  0
 14 24  1  0  0  0
 14 42  1  0  0  0
 15 24  2  0  0  0
 15 43  1  0  0  0
 16 22  1  0  0  0
 16 25  2  0  0  0
 16 44  1  0  0  0
 17 20  1  0  0  0
 17 23  1  0  0  0
 17 45  1  0  0  0
 18 24  1  0  0  0
 18 25  1  0  0  0
 19 26  1  0  0  0
 20 27  1  0  0  0
 21 22  2  0  0  0
 26 27  1  0  0  0
M  CHG  1   5  -1
M  END
> <s_m_source_file>
../3sgt_ligand.sdf

> <i_m_source_file_index>
1

> <s_epik_input>
W0NIM11jMVtjSF1bY0hdYyhbY0hdYzFbQ0gzXSlPYyhbY0hdW2NIXTIpW2NIXVtjSF1jMltOSF1DKD1PKWMzW2NIXVtjSF1bY0hdW2NIXWMzQyg9TylbT0hd

> <s_epik_cmdline>
J2VwaWtfYXBwJywgJy1pbWFlJywgJ2xpZ2FuZF9wcm8ubWFlJywgJy1vbWFlJywgJ2xpZ2FuZF9wcmVwLm1hZScsICctbXMnLCAnMScsICctcGgnLCAnNycsICctcGh0JywgJzAuNScsICctbnQn

> <r_lp_tautomer_probability>
1

> <r_epik_Ionization_Penalty>
  0.0002

> <r_epik_Ionization_Penalty_Charging>
  0.0002

> <r_epik_Ionization_Penalty_Neutral>
  0.0000

> <r_epik_State_Penalty>
 -0.0000

> <r_epik_Charging_Adjusted_Penalty>
0.000205786393437287

> <i_epik_Tot_Q>
-1

> <i_epik_Tot_abs_Q>
1

$$$$
