3sgv_ligand
                    3D
 Schrodinger Suite 2020-3.
 47 49  0  0  1  0            999 V2000
  -14.9060    2.0090   -9.5840 C   0  0  0  0  0  0
  -16.7810    4.2710  -11.7890 N   0  3  0  0  0  0
  -16.7570    4.5060  -13.2420 O   0  0  0  0  0  0
  -14.8250    0.8890  -10.4420 C   0  0  0  0  0  0
  -14.7170    1.2550   -7.2070 N   0  0  0  0  0  0
  -17.4950    5.1820  -10.8720 O   0  5  0  0  0  0
  -15.3950    0.9220  -11.7040 C   0  0  0  0  0  0
  -13.7560   -1.1750  -10.9680 O   0  5  0  0  0  0
  -16.0470    2.0630  -12.1300 C   0  0  0  0  0  0
  -13.8130   -0.5170   -8.8810 O   0  0  0  0  0  0
  -16.1420    3.1940  -11.3070 C   0  0  0  0  0  0
  -13.5520    3.0670   -7.9670 O   0  0  0  0  0  0
  -15.5600    3.1810  -10.0240 C   0  0  0  0  0  0
  -14.7910   -0.2480   -2.5680 O   0  0  0  0  0  0
  -14.1260   -0.3890  -10.0620 C   0  0  0  0  0  0
  -14.3110    2.1180   -8.1680 C   0  0  0  0  0  0
  -14.2550    1.3770   -5.8920 C   0  0  0  0  0  0
  -13.3070    2.3410   -5.4950 C   0  0  0  0  0  0
  -12.8360    2.4570   -4.1630 C   0  0  0  0  0  0
  -13.3530    1.5710   -3.2220 C   0  0  0  0  0  0
  -14.3040   -1.5050   -2.2700 C   0  0  0  0  0  0
  -14.2940    0.5890   -3.5730 C   0  0  0  0  0  0
  -14.7280    0.4990   -4.8940 C   0  0  0  0  0  0
  -14.8820   -2.2230   -1.1800 C   0  0  0  0  0  0
  -14.4420   -3.5110   -0.8610 C   0  0  0  0  0  0
  -13.4120   -4.1070   -1.5890 C   0  0  0  0  0  0
  -13.0000   -5.5450   -1.1800 C   0  0  0  0  0  0
  -12.8370   -3.3800   -2.6600 C   0  0  0  0  0  0
  -11.8170   -3.9270   -3.5700 C   0  0  0  0  0  0
  -13.2680   -2.0950   -3.0040 C   0  0  0  0  0  0
  -15.4188    0.4453   -7.4557 H   0  0  0  0  0  0
  -15.3294    0.0522  -12.3576 H   0  0  0  0  0  0
  -16.4954    2.0843  -13.1233 H   0  0  0  0  0  0
  -15.6135    4.0603   -9.3820 H   0  0  0  0  0  0
  -12.9183    3.0286   -6.2461 H   0  0  0  0  0  0
  -12.0982    3.2102   -3.8866 H   0  0  0  0  0  0
  -13.0192    1.6410   -2.1867 H   0  0  0  0  0  0
  -15.4520   -0.2700   -5.1635 H   0  0  0  0  0  0
  -15.6746   -1.7623   -0.5904 H   0  0  0  0  0  0
  -14.9070   -4.0533   -0.0377 H   0  0  0  0  0  0
  -13.6039   -5.8686   -0.3194 H   0  0  0  0  0  0
  -11.9348   -5.5572   -0.9059 H   0  0  0  0  0  0
  -13.1691   -6.2291   -2.0246 H   0  0  0  0  0  0
  -11.5300   -4.9349   -3.2357 H   0  0  0  0  0  0
  -10.9324   -3.2732   -3.5647 H   0  0  0  0  0  0
  -12.2265   -3.9816   -4.5895 H   0  0  0  0  0  0
  -12.8037   -1.5599   -3.8324 H   0  0  0  0  0  0
  1  4  2  0  0  0
  1 13  1  0  0  0
  1 16  1  0  0  0
  2  3  2  0  0  0
  2  6  1  0  0  0
  2 11  1  0  0  0
  4  7  1  0  0  0
  4 15  1  0  0  0
  5 16  1  0  0  0
  5 17  1  0  0  0
  5 31  1  0  0  0
  7  9  2  0  0  0
  7 32  1  0  0  0
  8 15  1  0  0  0
  9 11  1  0  0  0
  9 33  1  0  0  0
 10 15  2  0  0  0
 11 13  2  0  0  0
 12 16  2  0  0  0
 13 34  1  0  0  0
 14 21  1  0  0  0
 14 22  1  0  0  0
 17 18  2  0  0  0
 17 23  1  0  0  0
 18 19  1  0  0  0
 18 35  1  0  0  0
 19 20  2  0  0  0
 19 36  1  0  0  0
 20 22  1  0  0  0
 20 37  1  0  0  0
 21 24  2  0  0  0
 21 30  1  0  0  0
 22 23  2  0  0  0
 23 38  1  0  0  0
 24 25  1  0  0  0
 24 39  1  0  0  0
 25 26  2  0  0  0
 25 40  1  0  0  0
 26 27  1  0  0  0
 26 28  1  0  0  0
 27 41  1  0  0  0
 27 42  1  0  0  0
 27 43  1  0  0  0
 28 29  1  0  0  0
 28 30  2  0  0  0
 29 44  1  0  0  0
 29 45  1  0  0  0
 29 46  1  0  0  0
 30 47  1  0  0  0
M  CHG  3   2   1   6  -1   8  -1
M  END
> <s_m_source_file>
../3sgv_ligand.sdf

> <i_m_source_file_index>
1

> <s_epik_input>
Tz1bTitdKFtPLV0pYyhbY0hdMSlbY0hdW2NIXWMoQyg9TylbT0hdKWMxQyg9TylbTkhdYzJbY0hdW2NIXVtjSF1jKFtjSF0yKU9jM1tjSF1bY0hdYyhbQ0gzXSljKFtDSDNdKVtjSF0z

> <s_epik_cmdline>
J2VwaWtfYXBwJywgJy1pbWFlJywgJ2xpZ2FuZF9wcm8ubWFlJywgJy1vbWFlJywgJ2xpZ2FuZF9wcmVwLm1hZScsICctbXMnLCAnMScsICctcGgnLCAnNycsICctcGh0JywgJzAuNScsICctbnQn

> <r_lp_tautomer_probability>
1

> <r_epik_Ionization_Penalty>
  0.0001

> <r_epik_Ionization_Penalty_Charging>
  0.0000

> <r_epik_Ionization_Penalty_Neutral>
  0.0000

> <r_epik_State_Penalty>
 -0.0000

> <r_epik_Charging_Adjusted_Penalty>
4.40023582129647e-05

> <i_epik_Tot_Q>
-1

> <i_epik_Tot_abs_Q>
3

$$$$
