3sgx_ligand
                    3D
 Schrodinger Suite 2020-3.
 51 54  0  0  1  0            999 V2000
  -11.3460   17.8360    1.5230 O   0  0  0  0  0  0
  -10.0410   14.6410    5.8000 O   0  5  0  0  0  0
  -12.0000    6.9280    1.3980 O   0  0  0  0  0  0
  -10.4160   17.6800    3.5450 O   0  5  0  0  0  0
  -11.3410   16.3720    5.3350 O   0  0  0  0  0  0
  -14.1450   -1.7410    3.1560 C   0  0  0  0  0  0
  -14.8750   -0.7810    3.8570 C   0  0  0  0  0  0
  -13.0730   -1.3370    2.3410 C   0  0  0  0  0  0
  -14.8860   10.8360    3.1690 C   0  0  0  0  0  0
  -14.8010    9.4410    3.2300 C   0  0  0  0  0  0
  -13.7750   11.5820    2.8110 C   0  0  0  0  0  0
  -14.5520    0.5660    3.7300 C   0  0  0  0  0  0
  -12.7330    0.0220    2.1990 C   0  0  0  0  0  0
  -11.4620   13.6770    1.0700 C   0  0  0  0  0  0
  -13.1260    4.5420    3.7010 C   0  0  0  0  0  0
  -13.0160    4.2490    1.3070 C   0  0  0  0  0  0
  -13.2760    3.1780    3.8730 C   0  0  0  0  0  0
  -13.1640    2.8830    1.4990 C   0  0  0  0  0  0
  -11.3350   15.0590    1.1990 C   0  0  0  0  0  0
  -12.5040    9.5120    2.5830 C   0  0  0  0  0  0
  -11.1270   13.4620    3.4350 C   0  0  0  0  0  0
  -13.5930    7.3940    2.9840 N   0  0  0  0  0  0
  -11.4590   11.5300    2.1490 O   0  0  0  0  0  0
  -10.9560   17.1780    2.5180 C   0  0  0  0  0  0
  -10.7470   15.3340    5.0110 C   0  0  0  0  0  0
  -12.8210    6.5760    2.2310 C   0  0  0  0  0  0
  -13.6190    8.7490    2.9370 C   0  0  0  0  0  0
  -12.5870   10.8990    2.5190 C   0  0  0  0  0  0
  -11.3730   12.8850    2.2070 C   0  0  0  0  0  0
  -12.9920    5.0770    2.4280 C   0  0  0  0  0  0
  -13.4800    0.9750    2.9110 C   0  0  0  0  0  0
  -13.2710    2.3440    2.7760 C   0  0  0  0  0  0
  -11.0960   15.6440    2.4430 C   0  0  0  0  0  0
  -10.9870   14.8250    3.5790 C   0  0  0  0  0  0
  -14.4038   -2.7965    3.2395 H   0  0  0  0  0  0
  -15.6977   -1.0861    4.5036 H   0  0  0  0  0  0
  -12.4934   -2.0910    1.8083 H   0  0  0  0  0  0
  -15.8260   11.3357    3.4031 H   0  0  0  0  0  0
  -15.6860    8.8724    3.5157 H   0  0  0  0  0  0
  -13.8237   12.6696    2.7580 H   0  0  0  0  0  0
  -15.1340    1.3132    4.2695 H   0  0  0  0  0  0
  -11.9102    0.3271    1.5524 H   0  0  0  0  0  0
  -11.6285   13.2252    0.0921 H   0  0  0  0  0  0
  -13.1130    5.2000    4.5699 H   0  0  0  0  0  0
  -12.9208    4.6646    0.3039 H   0  0  0  0  0  0
  -13.3979    2.7637    4.8738 H   0  0  0  0  0  0
  -13.1970    2.2210    0.6337 H   0  0  0  0  0  0
  -11.4236   15.6916    0.3158 H   0  0  0  0  0  0
  -11.5605    9.0162    2.3549 H   0  0  0  0  0  0
  -11.0411   12.8235    4.3142 H   0  0  0  0  0  0
  -14.2867    6.9683    3.7239 H   0  0  0  0  0  0
  1 24  2  0  0  0
  2 25  1  0  0  0
  3 26  2  0  0  0
  4 24  1  0  0  0
  5 25  2  0  0  0
  6  7  2  0  0  0
  6  8  1  0  0  0
  6 35  1  0  0  0
  7 12  1  0  0  0
  7 36  1  0  0  0
  8 13  2  0  0  0
  8 37  1  0  0  0
  9 10  2  0  0  0
  9 11  1  0  0  0
  9 38  1  0  0  0
 10 27  1  0  0  0
 10 39  1  0  0  0
 11 28  2  0  0  0
 11 40  1  0  0  0
 12 31  2  0  0  0
 12 41  1  0  0  0
 13 31  1  0  0  0
 13 42  1  0  0  0
 14 19  2  0  0  0
 14 29  1  0  0  0
 14 43  1  0  0  0
 15 17  2  0  0  0
 15 30  1  0  0  0
 15 44  1  0  0  0
 16 18  1  0  0  0
 16 30  2  0  0  0
 16 45  1  0  0  0
 17 32  1  0  0  0
 17 46  1  0  0  0
 18 32  2  0  0  0
 18 47  1  0  0  0
 19 33  1  0  0  0
 19 48  1  0  0  0
 20 27  2  0  0  0
 20 28  1  0  0  0
 20 49  1  0  0  0
 21 29  2  0  0  0
 21 34  1  0  0  0
 21 50  1  0  0  0
 22 26  1  0  0  0
 22 27  1  0  0  0
 22 51  1  0  0  0
 23 28  1  0  0  0
 23 29  1  0  0  0
 24 33  1  0  0  0
 25 34  1  0  0  0
 26 30  1  0  0  0
 31 32  1  0  0  0
 33 34  2  0  0  0
M  CHG  2   2  -1   4  -1
M  END
> <s_m_source_file>
../3sgx_ligand.sdf

> <i_m_source_file_index>
1

> <s_epik_input>
W09IXUMoPU8pYyhbY0hdMSljKEMoPU8pW09IXSlbY0hdW2NIXWMxT2MoW2NIXTIpW2NIXVtjSF1bY0hdYzJbTkhdQyg9TyljM1tjSF1bY0hdYyhbY0hdW2NIXTMpLWM0W2NIXVtjSF1bY0hdW2NIXVtjSF00

> <s_epik_cmdline>
J2VwaWtfYXBwJywgJy1pbWFlJywgJ2xpZ2FuZF9wcm8ubWFlJywgJy1vbWFlJywgJ2xpZ2FuZF9wcmVwLm1hZScsICctbXMnLCAnMScsICctcGgnLCAnNycsICctcGh0JywgJzAuNScsICctbnQn

> <r_lp_tautomer_probability>
1

> <r_epik_Ionization_Penalty>
  0.0111

> <r_epik_Ionization_Penalty_Charging>
  0.0111

> <r_epik_Ionization_Penalty_Neutral>
  0.0000

> <r_epik_State_Penalty>
 -0.0000

> <r_epik_Charging_Adjusted_Penalty>
0.0110578064332118

> <i_epik_Tot_Q>
-2

> <i_epik_Tot_abs_Q>
2

$$$$
