3sh0_ligand
                    3D
 Schrodinger Suite 2020-3.
 52 52  0  0  1  0            999 V2000
  -14.0800    7.2360    7.3220 C   0  0  0  0  0  0
  -14.7430    9.0750    8.6530 O   0  0  0  0  0  0
  -15.0880    8.0680    7.7800 C   0  0  0  0  0  0
  -13.4540    5.3530    5.9450 O   0  0  0  0  0  0
  -16.3990    7.8860    7.3450 C   0  0  0  0  0  0
  -11.8400    6.5600    7.7770 O   0  0  0  0  0  0
  -16.7450    6.8610    6.4490 C   0  0  0  0  0  0
  -12.4480    8.5960    8.4660 O   0  5  0  0  0  0
  -15.7340    6.0070    5.9970 C   0  0  0  0  0  0
  -14.4100    6.2000    6.4380 C   0  0  0  0  0  0
  -13.8590    4.4070    4.9300 C   0  0  0  0  0  0
  -12.6070    3.8850    4.2660 C   0  0  0  0  0  0
  -12.9480    2.9140    3.1620 C   0  0  0  0  0  0
  -11.7410    2.0560    2.8690 C   0  0  0  0  0  0
  -12.1360    1.0480    1.8050 C   0  0  0  0  0  0
  -10.8460    0.5430    1.1440 C   0  0  0  0  0  0
  -11.0630   -0.7130    0.2890 C   0  0  0  0  0  0
  -12.2430   -0.5430   -0.6570 C   0  0  0  0  0  0
  -11.9930   -0.0720   -2.0860 C   0  0  0  0  0  0
  -11.6680   -1.2560   -2.9810 C   0  0  0  0  0  0
  -12.6470   -1.5990   -4.1140 C   0  0  0  0  0  0
  -12.1770   -2.9220   -4.7300 C   0  0  0  0  0  0
  -12.6990    7.4930    7.8640 C   0  0  0  0  0  0
  -13.6975    9.1892    8.9754 H   0  0  0  0  0  0
  -17.1769    8.5568    7.7096 H   0  0  0  0  0  0
  -17.7747    6.7345    6.1147 H   0  0  0  0  0  0
  -15.9691    5.1964    5.3072 H   0  0  0  0  0  0
  -14.4165    3.5826    5.3987 H   0  0  0  0  0  0
  -14.5014    4.9119    4.1935 H   0  0  0  0  0  0
  -12.0424    4.7254    3.8360 H   0  0  0  0  0  0
  -11.9846    3.3685    5.0116 H   0  0  0  0  0  0
  -13.7865    2.2770    3.4800 H   0  0  0  0  0  0
  -13.2337    3.4720    2.2581 H   0  0  0  0  0  0
  -10.9190    2.6910    2.5070 H   0  0  0  0  0  0
  -11.4273    1.5384    3.7876 H   0  0  0  0  0  0
  -12.6790    0.2140    2.2736 H   0  0  0  0  0  0
  -12.7834    1.5350    1.0608 H   0  0  0  0  0  0
  -10.4385    1.3271    0.4889 H   0  0  0  0  0  0
  -10.1085    0.2949    1.9215 H   0  0  0  0  0  0
  -10.1612   -0.9095   -0.3094 H   0  0  0  0  0  0
  -11.2624   -1.5732    0.9450 H   0  0  0  0  0  0
  -12.7607   -1.5065   -0.7742 H   0  0  0  0  0  0
  -12.9406    0.2001   -0.2432 H   0  0  0  0  0  0
  -12.8929    0.4316   -2.4688 H   0  0  0  0  0  0
  -11.1466    0.6305   -2.0978 H   0  0  0  0  0  0
  -10.7037   -1.0836   -3.4814 H   0  0  0  0  0  0
  -11.6068   -2.1700   -2.3721 H   0  0  0  0  0  0
  -13.6622   -1.7014   -3.7029 H   0  0  0  0  0  0
  -12.6348   -0.7953   -4.8650 H   0  0  0  0  0  0
  -12.8537   -3.2057   -5.5495 H   0  0  0  0  0  0
  -12.1838   -3.7077   -3.9602 H   0  0  0  0  0  0
  -11.1564   -2.8017   -5.1222 H   0  0  0  0  0  0
  1  3  2  0  0  0
  1 10  1  0  0  0
  1 23  1  0  0  0
  2  3  1  0  0  0
  2 24  1  0  0  0
  3  5  1  0  0  0
  4 10  1  0  0  0
  4 11  1  0  0  0
  5  7  2  0  0  0
  5 25  1  0  0  0
  6 23  2  0  0  0
  7  9  1  0  0  0
  7 26  1  0  0  0
  8 23  1  0  0  0
  9 10  2  0  0  0
  9 27  1  0  0  0
 11 12  1  0  0  0
 11 28  1  0  0  0
 11 29  1  0  0  0
 12 13  1  0  0  0
 12 30  1  0  0  0
 12 31  1  0  0  0
 13 14  1  0  0  0
 13 32  1  0  0  0
 13 33  1  0  0  0
 14 15  1  0  0  0
 14 34  1  0  0  0
 14 35  1  0  0  0
 15 16  1  0  0  0
 15 36  1  0  0  0
 15 37  1  0  0  0
 16 17  1  0  0  0
 16 38  1  0  0  0
 16 39  1  0  0  0
 17 18  1  0  0  0
 17 40  1  0  0  0
 17 41  1  0  0  0
 18 19  1  0  0  0
 18 42  1  0  0  0
 18 43  1  0  0  0
 19 20  1  0  0  0
 19 44  1  0  0  0
 19 45  1  0  0  0
 20 21  1  0  0  0
 20 46  1  0  0  0
 20 47  1  0  0  0
 21 22  1  0  0  0
 21 48  1  0  0  0
 21 49  1  0  0  0
 22 50  1  0  0  0
 22 51  1  0  0  0
 22 52  1  0  0  0
M  CHG  1   8  -1
M  END
> <s_m_source_file>
../3sh0_ligand.sdf

> <i_m_source_file_index>
1

> <s_epik_input>
Tz1DKFtPSF0pYzFjKFtPSF0pW2NIXVtjSF1bY0hdYzFPW0NIMl1bQ0gyXVtDSDJdW0NIMl1bQ0gyXVtDSDJdW0NIMl1bQ0gyXVtDSDJdW0NIMl1bQ0gyXVtDSDNd

> <s_epik_cmdline>
J2VwaWtfYXBwJywgJy1pbWFlJywgJ2xpZ2FuZF9wcm8ubWFlJywgJy1vbWFlJywgJ2xpZ2FuZF9wcmVwLm1hZScsICctbXMnLCAnMScsICctcGgnLCAnNycsICctcGh0JywgJzAuNScsICctbnQn

> <r_lp_tautomer_probability>
1

> <r_epik_Ionization_Penalty>
  0.0001

> <r_epik_Ionization_Penalty_Charging>
  0.0001

> <r_epik_Ionization_Penalty_Neutral>
  0.0000

> <r_epik_State_Penalty>
 -0.0000

> <r_epik_Charging_Adjusted_Penalty>
7.1222287592571e-05

> <i_epik_Tot_Q>
-1

> <i_epik_Tot_abs_Q>
1

$$$$
