3sh1_ligand
                    3D
 Schrodinger Suite 2020-3.
100107  0  0  1  0            999 V2000
   24.5880  -35.3950   14.3890 O   0  0  0  0  0  0
   24.5210  -36.0530   15.4200 C   0  0  0  0  0  0
   23.4140  -37.0180   15.8060 C   0  0  0  0  0  0
   24.2210  -38.0370   16.6280 C   0  0  2  0  0  0
   23.3310  -38.8500   17.5730 C   0  0  0  0  0  0
   25.1730  -37.0660   17.3000 C   0  0  0  0  0  0
   25.6250  -37.1470   18.4210 O   0  0  0  0  0  0
   25.4330  -36.0850   16.4150 N   0  0  0  0  0  0
   26.5440  -35.2100   16.4920 C   0  0  0  0  0  0
   27.8330  -35.7470   16.4610 C   0  0  0  0  0  0
   28.9570  -34.9460   16.5210 C   0  0  0  0  0  0
   28.8090  -33.5720   16.6090 C   0  0  0  0  0  0
   27.5510  -33.0040   16.6320 C   0  0  0  0  0  0
   26.3970  -33.8000   16.5710 C   0  0  0  0  0  0
   25.0640  -33.1420   16.5960 C   0  0  0  0  0  0
   24.0460  -33.7900   16.7600 O   0  0  0  0  0  0
   24.9630  -31.8070   16.4250 O   0  0  0  0  0  0
   23.6660  -31.1540   16.3780 C   0  0  0  0  0  0
   23.9490  -29.6690   16.1690 C   0  0  1  0  0  0
   24.9120  -29.2450   17.2720 C   0  0  0  0  0  0
   26.0080  -28.2940   16.7690 C   0  0  0  0  0  0
   25.5420  -27.3330   15.6830 C   0  0  2  0  0  0
   24.7980  -26.2600   16.2610 O   0  0  0  0  0  0
   25.7290  -25.5150   17.0580 C   0  0  0  0  0  0
   24.7760  -27.9680   14.5520 C   0  0  1  0  0  0
   24.5850  -29.4790   14.7680 C   0  0  2  0  0  0
   23.2890  -27.5150   14.3750 C   0  0  2  0  0  0
   22.6100  -27.5840   15.6560 N   0  3  1  0  0  0
   21.2330  -27.1310   15.4830 C   0  0  0  0  0  0
   21.0580  -25.6800   15.9320 C   0  0  0  0  0  0
   22.6410  -28.8730   16.3200 C   0  0  0  0  0  0
   25.5420  -27.6350   13.2840 C   0  0  2  0  0  0
   25.6350  -26.1160   13.0770 C   0  0  0  0  0  0
   25.2550  -25.8660   11.5900 C   0  0  2  0  0  0
   23.7410  -25.5490   11.5780 C   0  0  1  0  0  0
   23.4150  -24.6460   10.5190 O   0  0  0  0  0  0
   23.0840  -23.3940   11.1300 C   0  0  0  0  0  0
   22.8270  -26.7710   11.6150 C   0  0  0  0  0  0
   24.9320  -28.2120   11.9790 C   0  0  2  0  0  0
   25.4640  -27.2310   10.8930 C   0  0  1  0  0  0
   24.7530  -27.3460    9.6700 O   0  0  0  0  0  0
   25.6550  -26.9200    8.6500 C   0  0  0  0  0  0
   23.4100  -28.1450   11.9370 C   0  0  2  0  0  0
   22.9260  -29.0990   10.9550 O   0  0  0  0  0  0
   22.8100  -28.5560   13.3110 C   0  0  2  0  0  0
   21.3890  -28.7050   13.1720 O   0  0  0  0  0  0
   23.4430  -29.8900   13.7990 C   0  0  1  0  0  0
   23.9230  -30.7580   12.7760 O   0  0  0  0  0  0
   24.8600  -31.6570   13.3880 C   0  0  0  0  0  0
   22.6472  -36.4834   16.3858 H   0  0  0  0  0  0
   22.9596  -37.4375   14.8963 H   0  0  0  0  0  0
   24.7320  -38.8442   16.0828 H   0  0  0  0  0  0
   22.6845  -39.5174   16.9842 H   0  0  0  0  0  0
   22.7075  -38.1665   18.1680 H   0  0  0  0  0  0
   23.9619  -39.4499   18.2453 H   0  0  0  0  0  0
   27.9555  -36.8276   16.3875 H   0  0  0  0  0  0
   29.9515  -35.3916   16.4993 H   0  0  0  0  0  0
   29.6917  -32.9346   16.6605 H   0  0  0  0  0  0
   27.4526  -31.9205   16.6986 H   0  0  0  0  0  0
   23.0775  -31.5671   15.5455 H   0  0  0  0  0  0
   23.1336  -31.3274   17.3249 H   0  0  0  0  0  0
   24.3546  -28.7265   18.0660 H   0  0  0  0  0  0
   25.4045  -30.1349   17.6909 H   0  0  0  0  0  0
   26.3768  -27.6838   17.6067 H   0  0  0  0  0  0
   26.8384  -28.8808   16.3494 H   0  0  0  0  0  0
   26.4367  -26.8848   15.2262 H   0  0  0  0  0  0
   25.2105  -24.6688   17.5325 H   0  0  0  0  0  0
   26.5390  -25.1362   16.4174 H   0  0  0  0  0  0
   26.1515  -26.1687   17.8353 H   0  0  0  0  0  0
   25.5327  -30.0224   14.6390 H   0  0  0  0  0  0
   23.0690  -26.4699   14.1116 H   0  0  0  0  0  0
   23.1799  -26.9286   16.3310 H   0  0  0  0  0  0
   20.9543  -27.2022   14.4213 H   0  0  0  0  0  0
   20.5610  -27.7634   16.0817 H   0  0  0  0  0  0
   20.0111  -25.3751   15.7871 H   0  0  0  0  0  0
   21.7151  -25.0299   15.3357 H   0  0  0  0  0  0
   21.3219  -25.5911   16.9962 H   0  0  0  0  0  0
   21.8069  -29.4557   15.9020 H   0  0  0  0  0  0
   22.4527  -28.6758   17.3857 H   0  0  0  0  0  0
   26.5214  -28.0999   13.4703 H   0  0  0  0  0  0
   24.9351  -25.6096   13.7579 H   0  0  0  0  0  0
   26.6606  -25.7792   13.2885 H   0  0  0  0  0  0
   25.8287  -25.0610   11.1075 H   0  0  0  0  0  0
   23.4949  -24.9777   12.4852 H   0  0  0  0  0  0
   22.8245  -22.6627   10.3503 H   0  0  0  0  0  0
   23.9472  -23.0268   11.7044 H   0  0  0  0  0  0
   22.2260  -23.5307   11.8046 H   0  0  0  0  0  0
   22.0494  -26.6242   12.3791 H   0  0  0  0  0  0
   22.3536  -26.9048   10.6311 H   0  0  0  0  0  0
   25.1811  -29.2771   11.8630 H   0  0  0  0  0  0
   26.4753  -27.4184   10.5030 H   0  0  0  0  0  0
   25.1588  -26.9866    7.6705 H   0  0  0  0  0  0
   26.5453  -27.5660    8.6547 H   0  0  0  0  0  0
   25.9563  -25.8790    8.8384 H   0  0  0  0  0  0
   23.2257  -29.0032    9.9009 H   0  0  0  0  0  0
   20.7773  -27.8554   12.8342 H   0  0  0  0  0  0
   22.6815  -30.5653   14.2163 H   0  0  0  0  0  0
   25.2558  -32.3471   12.6283 H   0  0  0  0  0  0
   24.3543  -32.2319   14.1778 H   0  0  0  0  0  0
   25.6879  -31.0808   13.8268 H   0  0  0  0  0  0
  1  2  2  0  0  0
  2  3  1  0  0  0
  2  8  1  0  0  0
  3  4  1  0  0  0
  3 50  1  0  0  0
  3 51  1  0  0  0
  4  5  1  0  0  0
  4  6  1  0  0  0
  4 52  1  0  0  0
  5 53  1  0  0  0
  5 54  1  0  0  0
  5 55  1  0  0  0
  6  7  2  0  0  0
  6  8  1  0  0  0
  8  9  1  0  0  0
  9 10  2  0  0  0
  9 14  1  0  0  0
 10 11  1  0  0  0
 10 56  1  0  0  0
 11 12  2  0  0  0
 11 57  1  0  0  0
 12 13  1  0  0  0
 12 58  1  0  0  0
 13 14  2  0  0  0
 13 59  1  0  0  0
 14 15  1  0  0  0
 15 16  2  0  0  0
 15 17  1  0  0  0
 17 18  1  0  0  0
 18 19  1  0  0  0
 18 60  1  0  0  0
 18 61  1  0  0  0
 19 20  1  0  0  0
 19 26  1  0  0  0
 19 31  1  0  0  0
 20 21  1  0  0  0
 20 62  1  0  0  0
 20 63  1  0  0  0
 21 22  1  0  0  0
 21 64  1  0  0  0
 21 65  1  0  0  0
 22 23  1  0  0  0
 22 25  1  0  0  0
 22 66  1  0  0  0
 23 24  1  0  0  0
 24 67  1  0  0  0
 24 68  1  0  0  0
 24 69  1  0  0  0
 25 26  1  0  0  0
 25 27  1  0  0  0
 25 32  1  0  0  0
 26 47  1  0  0  0
 26 70  1  0  0  0
 27 28  1  0  0  0
 27 45  1  0  0  0
 27 71  1  0  0  0
 28 29  1  0  0  0
 28 31  1  0  0  0
 28 72  1  0  0  0
 29 30  1  0  0  0
 29 73  1  0  0  0
 29 74  1  0  0  0
 30 75  1  0  0  0
 30 76  1  0  0  0
 30 77  1  0  0  0
 31 78  1  0  0  0
 31 79  1  0  0  0
 32 33  1  0  0  0
 32 39  1  0  0  0
 32 80  1  0  0  0
 33 34  1  0  0  0
 33 81  1  0  0  0
 33 82  1  0  0  0
 34 35  1  0  0  0
 34 40  1  0  0  0
 34 83  1  0  0  0
 35 36  1  0  0  0
 35 38  1  0  0  0
 35 84  1  0  0  0
 36 37  1  0  0  0
 37 85  1  0  0  0
 37 86  1  0  0  0
 37 87  1  0  0  0
 38 43  1  0  0  0
 38 88  1  0  0  0
 38 89  1  0  0  0
 39 40  1  0  0  0
 39 43  1  0  0  0
 39 90  1  0  0  0
 40 41  1  0  0  0
 40 91  1  0  0  0
 41 42  1  0  0  0
 42 92  1  0  0  0
 42 93  1  0  0  0
 42 94  1  0  0  0
 43 44  1  0  0  0
 43 45  1  0  0  0
 44 95  1  0  0  0
 45 46  1  0  0  0
 45 47  1  0  0  0
 46 96  1  0  0  0
 47 48  1  0  0  0
 47 97  1  0  0  0
 48 49  1  0  0  0
 49 98  1  0  0  0
 49 99  1  0  0  0
 49100  1  0  0  0
M  CHG  1  28   1
M  END
> <s_m_source_file>
../3sh1_ligand.sdf

> <i_m_source_file_index>
1

> <s_epik_input>
Tz1DMVtDSDJdW0NASF0oW0NIM10pQyg9TylOMWMyW2NIXVtjSF1bY0hdW2NIXWMyQyg9TylPW0NIMl1bQ0BdKFtDQEBIXTNbQ0BdNDU2KShbQ0gyXVtDSDJdW0NAQEhdNE9bQ0gzXSlbQ0gyXVtOQEgrXShbQ0gyXVtDSDNdKVtDQEBIXTVbQ0BdKFtPSF0pKFtDQEhdM09bQ0gzXSlbQ0BdNyhbT0hdKVtDQEBIXThbQ0BIXTZbQ0gyXVtDQEhdKFtDQEhdKFtDSDJdNylPW0NIM10pW0NAQEhdOE9bQ0gzXQ==

> <s_epik_cmdline>
J2VwaWtfYXBwJywgJy1pbWFlJywgJ2xpZ2FuZF9wcm8ubWFlJywgJy1vbWFlJywgJ2xpZ2FuZF9wcmVwLm1hZScsICctbXMnLCAnMScsICctcGgnLCAnNycsICctcGh0JywgJzAuNScsICctbnQn

> <r_lp_tautomer_probability>
1

> <r_epik_Ionization_Penalty>
  0.0535

> <r_epik_Ionization_Penalty_Charging>
  0.0535

> <r_epik_Ionization_Penalty_Neutral>
  0.0000

> <r_epik_State_Penalty>
  0.0459

> <r_epik_Charging_Adjusted_Penalty>
0.0993956884511227

> <i_epik_Tot_Q>
1

> <i_epik_Tot_abs_Q>
1

> <s_epik_Chemistry_Notes>
This compound has an ester and may undergo hydrolysis at high or low pH.

$$$$
