3shb_ligand
                    3D
 Schrodinger Suite 2020-3.
114113  0  0  1  0            999 V2000
   -6.4290   15.6170   13.0640 N   0  3  0  0  0  0
   -6.7810   14.5370   12.1440 C   0  0  2  0  0  0
   -8.1370   13.9530   12.5160 C   0  0  0  0  0  0
   -8.5190   13.9500   13.6850 O   0  0  0  0  0  0
   -5.7030   13.4640   12.1520 C   0  0  0  0  0  0
   -8.8800   13.4790   11.5280 N   0  0  0  0  0  0
  -10.1600   12.8420   11.7940 C   0  0  2  0  0  0
   -9.9380   11.4130   12.2460 C   0  0  0  0  0  0
   -9.0340   10.7570   11.7690 O   0  0  0  0  0  0
  -11.0180   12.7970   10.5440 C   0  0  0  0  0  0
  -11.4620   14.1480   10.0360 C   0  0  0  0  0  0
  -12.3960   13.8960    8.8900 C   0  0  0  0  0  0
  -11.6700   13.2310    7.8210 N   0  0  0  0  0  0
  -12.1980   12.3310    7.0030 C   0  0  0  0  0  0
  -13.4700   11.9580    7.1310 N   0  0  0  0  0  0
  -11.4380   11.7900    6.0720 N   0  3  0  0  0  0
  -10.7830   10.9340   13.1470 N   0  0  0  0  0  0
  -10.8000    9.5210   13.4990 C   0  0  2  0  0  0
  -12.1820    8.9490   13.2260 C   0  0  0  0  0  0
  -13.1250    9.6900   12.9960 O   0  0  0  0  0  0
  -10.4470    9.2930   14.9570 C   0  0  2  0  0  0
  -11.4960    9.8260   15.7730 O   0  0  0  0  0  0
   -9.1380    9.9750   15.2910 C   0  0  0  0  0  0
  -12.2980    7.6260   13.2260 N   0  0  0  0  0  0
  -13.5890    6.9700   13.0790 C   0  0  2  0  0  0
  -14.5540    7.5000   14.1160 C   0  0  0  0  0  0
  -15.7620    7.5870   13.8840 O   0  0  0  0  0  0
  -13.4610    5.4560   13.2660 C   0  0  0  0  0  0
  -13.5950    4.6770   12.0180 C   0  0  0  0  0  0
  -14.9890    4.8270   11.4630 C   0  0  0  0  0  0
  -15.1770    3.9280   10.2710 C   0  0  0  0  0  0
  -14.3700    4.3750    9.1180 N   0  3  0  0  0  0
  -14.0170    7.8480   15.2720 N   0  0  0  0  0  0
  -14.8650    8.3140   16.3480 C   0  0  2  0  0  0
  -15.4750    9.6750   16.0270 C   0  0  0  0  0  0
  -16.6550    9.9030   16.2750 O   0  0  0  0  0  0
  -14.1040    8.3510   17.6610 C   0  0  0  0  0  0
  -14.9260    8.9350   18.7580 C   0  0  0  0  0  0
  -14.1460    9.0680   20.0170 C   0  0  0  0  0  0
  -13.0600    9.6690   20.0350 O   0  0  0  0  0  0
  -14.6800    8.5000   21.1000 N   0  0  0  0  0  0
  -14.6830   10.5690   15.4470 N   0  0  0  0  0  0
  -15.1800   11.9070   15.1600 C   0  0  2  0  0  0
  -15.8690   11.9860   13.7960 C   0  0  0  0  0  0
  -16.6280   12.9160   13.5340 O   0  0  0  0  0  0
  -14.0740   12.9820   15.2950 C   0  0  2  0  0  0
  -13.0560   12.7760   14.3010 O   0  0  0  0  0  0
  -13.4620   12.9320   16.6840 C   0  0  0  0  0  0
  -15.6230   10.9980   12.9440 N   0  0  0  0  0  0
  -16.2840   10.9230   11.6460 C   0  0  2  0  0  0
  -17.7520   10.5170   11.8200 C   0  0  0  0  0  0
  -18.2200   10.3070   12.9550 O   0  0  0  0  0  0
  -15.5430    9.9410   10.7130 C   0  0  0  0  0  0
  -18.4910   10.3948   10.8068 O   0  5  0  0  0  0
   -7.2170   16.3843   13.0473 H   0  0  0  0  0  0
   -5.4736   16.0657   12.7543 H   0  0  0  0  0  0
   -6.3315   15.2137   14.0827 H   0  0  0  0  0  0
   -6.8382   14.9826   11.1399 H   0  0  0  0  0  0
   -4.7364   13.9133   11.8803 H   0  0  0  0  0  0
   -5.9605   12.6802   11.4244 H   0  0  0  0  0  0
   -5.6326   13.0225   13.1571 H   0  0  0  0  0  0
   -8.5165   13.5724   10.4940 H   0  0  0  0  0  0
  -10.6325   13.4562   12.5747 H   0  0  0  0  0  0
  -10.4538   12.3200    9.7290 H   0  0  0  0  0  0
  -11.9306   12.2172   10.7464 H   0  0  0  0  0  0
  -11.9731   14.6933   10.8431 H   0  0  0  0  0  0
  -10.5840   14.7218    9.7046 H   0  0  0  0  0  0
  -13.2255   13.2569    9.2268 H   0  0  0  0  0  0
  -12.7957   14.8537    8.5253 H   0  0  0  0  0  0
  -10.6090   13.4645    7.6486 H   0  0  0  0  0  0
  -14.1007   12.4122    7.9094 H   0  0  0  0  0  0
  -13.8900   11.1957    6.4583 H   0  0  0  0  0  0
  -10.3879   12.1011    5.9699 H   0  0  0  0  0  0
  -11.4824   11.6303   13.6328 H   0  0  0  0  0  0
  -10.0307    9.0550   12.8658 H   0  0  0  0  0  0
  -10.3778    8.2194   15.1862 H   0  0  0  0  0  0
  -12.5227    9.4459   15.6665 H   0  0  0  0  0  0
   -8.3374    9.5607   14.6606 H   0  0  0  0  0  0
   -8.8958    9.8048   16.3504 H   0  0  0  0  0  0
   -9.2294   11.0553   15.1047 H   0  0  0  0  0  0
  -11.3849    7.0235   13.3411 H   0  0  0  0  0  0
  -13.9262    7.2136   12.0607 H   0  0  0  0  0  0
  -12.4727    5.2209   13.6880 H   0  0  0  0  0  0
  -14.2457    5.1036   13.9516 H   0  0  0  0  0  0
  -12.8693    5.0438   11.2771 H   0  0  0  0  0  0
  -13.4010    3.6145   12.2264 H   0  0  0  0  0  0
  -15.7227    4.5556   12.2363 H   0  0  0  0  0  0
  -15.1505    5.8704   11.1544 H   0  0  0  0  0  0
  -14.8709    2.9042   10.5320 H   0  0  0  0  0  0
  -16.2361    3.9295    9.9740 H   0  0  0  0  0  0
  -14.5344    3.6944    8.2696 H   0  0  0  0  0  0
  -13.3046    4.3691    9.3918 H   0  0  0  0  0  0
  -14.6699    5.3945    8.8338 H   0  0  0  0  0  0
  -12.9286    7.7843   15.4177 H   0  0  0  0  0  0
  -15.6678    7.5650   16.4155 H   0  0  0  0  0  0
  -13.8192    7.3282   17.9487 H   0  0  0  0  0  0
  -13.1985    8.9642   17.5428 H   0  0  0  0  0  0
  -15.2775    9.9341   18.4608 H   0  0  0  0  0  0
  -15.7916    8.2850   18.9535 H   0  0  0  0  0  0
  -15.6462    7.9792   21.0281 H   0  0  0  0  0  0
  -14.1540    8.5526   22.0646 H   0  0  0  0  0  0
  -13.6501   10.2976   15.1833 H   0  0  0  0  0  0
  -15.9386   12.0597   15.9418 H   0  0  0  0  0  0
  -14.4705   13.9890   15.0983 H   0  0  0  0  0  0
  -13.3209   12.7803   13.2334 H   0  0  0  0  0  0
  -14.2481   13.0905   17.4369 H   0  0  0  0  0  0
  -12.7003   13.7201   16.7776 H   0  0  0  0  0  0
  -12.9944   11.9492   16.8435 H   0  0  0  0  0  0
  -14.8997   10.2233   13.2384 H   0  0  0  0  0  0
  -16.2329   11.9395   11.2287 H   0  0  0  0  0  0
  -14.4946   10.2565   10.6069 H   0  0  0  0  0  0
  -16.0268    9.9380    9.7251 H   0  0  0  0  0  0
  -15.5797    8.9289   11.1423 H   0  0  0  0  0  0
  -11.8538   11.0274    5.3971 H   0  0  0  0  0  0
  1  2  1  0  0  0
  1 55  1  0  0  0
  1 56  1  0  0  0
  1 57  1  0  0  0
  2  3  1  0  0  0
  2  5  1  0  0  0
  2 58  1  0  0  0
  3  4  2  0  0  0
  3  6  1  0  0  0
  5 59  1  0  0  0
  5 60  1  0  0  0
  5 61  1  0  0  0
  6  7  1  0  0  0
  6 62  1  0  0  0
  7  8  1  0  0  0
  7 10  1  0  0  0
  7 63  1  0  0  0
  8  9  2  0  0  0
  8 17  1  0  0  0
 10 11  1  0  0  0
 10 64  1  0  0  0
 10 65  1  0  0  0
 11 12  1  0  0  0
 11 66  1  0  0  0
 11 67  1  0  0  0
 12 13  1  0  0  0
 12 68  1  0  0  0
 12 69  1  0  0  0
 13 14  1  0  0  0
 13 70  1  0  0  0
 14 15  1  0  0  0
 14 16  2  0  0  0
 15 71  1  0  0  0
 15 72  1  0  0  0
 16 73  1  0  0  0
 16114  1  0  0  0
 17 18  1  0  0  0
 17 74  1  0  0  0
 18 19  1  0  0  0
 18 21  1  0  0  0
 18 75  1  0  0  0
 19 20  2  0  0  0
 19 24  1  0  0  0
 21 22  1  0  0  0
 21 23  1  0  0  0
 21 76  1  0  0  0
 22 77  1  0  0  0
 23 78  1  0  0  0
 23 79  1  0  0  0
 23 80  1  0  0  0
 24 25  1  0  0  0
 24 81  1  0  0  0
 25 26  1  0  0  0
 25 28  1  0  0  0
 25 82  1  0  0  0
 26 27  2  0  0  0
 26 33  1  0  0  0
 28 29  1  0  0  0
 28 83  1  0  0  0
 28 84  1  0  0  0
 29 30  1  0  0  0
 29 85  1  0  0  0
 29 86  1  0  0  0
 30 31  1  0  0  0
 30 87  1  0  0  0
 30 88  1  0  0  0
 31 32  1  0  0  0
 31 89  1  0  0  0
 31 90  1  0  0  0
 32 91  1  0  0  0
 32 92  1  0  0  0
 32 93  1  0  0  0
 33 34  1  0  0  0
 33 94  1  0  0  0
 34 35  1  0  0  0
 34 37  1  0  0  0
 34 95  1  0  0  0
 35 36  2  0  0  0
 35 42  1  0  0  0
 37 38  1  0  0  0
 37 96  1  0  0  0
 37 97  1  0  0  0
 38 39  1  0  0  0
 38 98  1  0  0  0
 38 99  1  0  0  0
 39 40  2  0  0  0
 39 41  1  0  0  0
 41100  1  0  0  0
 41101  1  0  0  0
 42 43  1  0  0  0
 42102  1  0  0  0
 43 44  1  0  0  0
 43 46  1  0  0  0
 43103  1  0  0  0
 44 45  2  0  0  0
 44 49  1  0  0  0
 46 47  1  0  0  0
 46 48  1  0  0  0
 46104  1  0  0  0
 47105  1  0  0  0
 48106  1  0  0  0
 48107  1  0  0  0
 48108  1  0  0  0
 49 50  1  0  0  0
 49109  1  0  0  0
 50 51  1  0  0  0
 50 53  1  0  0  0
 50110  1  0  0  0
 51 52  2  0  0  0
 51 54  1  0  0  0
 53111  1  0  0  0
 53112  1  0  0  0
 53113  1  0  0  0
M  CHG  4   1   1  16   1  32   1  54  -1
M  END
> <s_m_source_file>
../3shb_ligand.sdf

> <i_m_source_file_index>
1

> <s_epik_input>
W0hdL049QyhbTkgyXSlcW05IXVtDSDJdW0NIMl1bQ0gyXVtDQEhdKFtOSF1DKD1PKVtDQEBIXShbTkgzK10pW0NIM10pQyg9TylbTkhdW0NAQEhdKFtDQEhdKFtPSF0pW0NIM10pQyg9TylbTkhdW0NAQEhdKFtDSDJdW0NIMl1bQ0gyXVtDSDJdW05IMytdKUMoPU8pW05IXVtDQEBIXShbQ0gyXVtDSDJdQyg9TylbTkgyXSlDKD1PKVtOSF1bQ0BASF0oW0NASF0oW09IXSlbQ0gzXSlDKD1PKVtOSF1bQ0BASF0oW0NIM10pQyg9TylbT0hd

> <s_epik_cmdline>
J2VwaWtfYXBwJywgJy1pbWFlJywgJ2xpZ2FuZF9wcm8ubWFlJywgJy1vbWFlJywgJ2xpZ2FuZF9wcmVwLm1hZScsICctbXMnLCAnMScsICctcGgnLCAnNycsICctcGh0JywgJzAuNScsICctbnQn

> <r_epik_Ionization_Penalty>
  0.1257

> <r_epik_Ionization_Penalty_Charging>
  0.1257

> <r_epik_Ionization_Penalty_Neutral>
  0.0000

> <r_epik_State_Penalty>
  0.1145

> <r_epik_Charging_Adjusted_Penalty>
0.240193521561468

> <i_epik_Tot_Q>
2

> <i_epik_Tot_abs_Q>
4

> <s_epik_Chemistry_Notes>
This compound has an imine and may undergo hydrolysis.

$$$$
