3shj_ligand
                    3D
 Schrodinger Suite 2020-3.
 51 54  0  0  1  0            999 V2000
    4.4150 -134.9860   18.7250 C   0  0  0  0  0  0
    5.5180 -134.2200   18.1850 O   0  0  0  0  0  0
    5.8070 -134.0380   16.8330 C   0  0  0  0  0  0
    6.7380 -134.8920   16.1590 C   0  0  0  0  0  0
    7.0450 -134.6720   14.7750 C   0  0  0  0  0  0
    7.9930 -135.5240   14.1530 C   0  0  0  0  0  0
    8.7770 -136.2280   13.6660 C   0  0  0  0  0  0
    9.7660 -137.1080   13.0500 C   0  0  2  0  0  0
   10.3050 -137.8130   14.2520 N   0  3  0  0  0  0
    9.9040 -139.1110   14.5950 C   0  0  0  0  0  0
    9.0750 -139.7780   13.9180 O   0  0  0  0  0  0
   10.4240 -139.6730   15.7110 N   0  0  0  0  0  0
   11.1340 -137.2350   14.9920 O   0  0  0  0  0  0
   10.8300 -136.2400   12.2710 C   0  0  0  0  0  0
    6.4250 -133.6030   14.0510 C   0  0  0  0  0  0
    5.4850 -132.7380   14.6890 C   0  0  0  0  0  0
    5.1780 -132.9460   16.0740 C   0  0  0  0  0  0
    4.5320 -134.8780   20.3140 C   0  0  0  0  0  0
    3.3310 -135.7100   20.9920 C   0  0  1  0  0  0
    1.9280 -135.1060   20.5140 C   0  0  0  0  0  0
    1.8170 -135.1870   18.9410 C   0  0  2  0  0  0
    1.9210 -136.7070   18.4580 C   0  0  0  0  0  0
    3.3000 -137.3360   18.9540 C   0  0  2  0  0  0
    3.4060 -137.2510   20.5500 C   0  0  0  0  0  0
    4.5020 -136.5400   18.3230 C   0  0  0  0  0  0
    2.9860 -134.3530   18.3300 C   0  0  0  0  0  0
    7.2143 -135.7107   16.6984 H   0  0  0  0  0  0
    9.3426 -137.8273   12.3335 H   0  0  0  0  0  0
   11.1493 -139.1148   16.3212 H   0  0  0  0  0  0
   10.1213 -140.6880   16.0079 H   0  0  0  0  0  0
   10.3490 -135.7598   11.4061 H   0  0  0  0  0  0
   11.6478 -136.8881   11.9228 H   0  0  0  0  0  0
   11.2345 -135.4674   12.9414 H   0  0  0  0  0  0
    6.6735 -133.4480   13.0011 H   0  0  0  0  0  0
    5.0081 -131.9318   14.1316 H   0  0  0  0  0  0
    4.4682 -132.2854   16.5718 H   0  0  0  0  0  0
    5.4976 -135.2924   20.6395 H   0  0  0  0  0  0
    4.4657 -133.8223   20.6157 H   0  0  0  0  0  0
    3.4180 -135.6381   22.0862 H   0  0  0  0  0  0
    1.1075 -135.6825   20.9661 H   0  0  0  0  0  0
    1.8547 -134.0548   20.8295 H   0  0  0  0  0  0
    0.8562 -134.7670   18.6085 H   0  0  0  0  0  0
    1.0847 -137.2838   18.8798 H   0  0  0  0  0  0
    1.8765 -136.7466   17.3596 H   0  0  0  0  0  0
    3.3493 -138.3854   18.6280 H   0  0  0  0  0  0
    4.3615 -137.6820   20.8836 H   0  0  0  0  0  0
    2.5738 -137.8050   21.0088 H   0  0  0  0  0  0
    4.4622 -136.6383   17.2281 H   0  0  0  0  0  0
    5.4470 -136.9626   18.6949 H   0  0  0  0  0  0
    2.9226 -133.3236   18.7126 H   0  0  0  0  0  0
    2.8787 -134.3445   17.2353 H   0  0  0  0  0  0
  1  2  1  0  0  0
  1 18  1  0  0  0
  1 25  1  0  0  0
  1 26  1  0  0  0
  2  3  1  0  0  0
  3  4  2  0  0  0
  3 17  1  0  0  0
  4  5  1  0  0  0
  4 27  1  0  0  0
  5  6  1  0  0  0
  5 15  2  0  0  0
  6  7  3  0  0  0
  7  8  1  0  0  0
  8  9  1  0  0  0
  8 14  1  0  0  0
  8 28  1  0  0  0
  9 10  1  0  0  0
  9 13  2  0  0  0
 10 11  2  0  0  0
 10 12  1  0  0  0
 12 29  1  0  0  0
 12 30  1  0  0  0
 14 31  1  0  0  0
 14 32  1  0  0  0
 14 33  1  0  0  0
 15 16  1  0  0  0
 15 34  1  0  0  0
 16 17  2  0  0  0
 16 35  1  0  0  0
 17 36  1  0  0  0
 18 19  1  0  0  0
 18 37  1  0  0  0
 18 38  1  0  0  0
 19 20  1  0  0  0
 19 24  1  0  0  0
 19 39  1  0  0  0
 20 21  1  0  0  0
 20 40  1  0  0  0
 20 41  1  0  0  0
 21 22  1  0  0  0
 21 26  1  0  0  0
 21 42  1  0  0  0
 22 23  1  0  0  0
 22 43  1  0  0  0
 22 44  1  0  0  0
 23 24  1  0  0  0
 23 25  1  0  0  0
 23 45  1  0  0  0
 24 46  1  0  0  0
 24 47  1  0  0  0
 25 48  1  0  0  0
 25 49  1  0  0  0
 26 50  1  0  0  0
 26 51  1  0  0  0
M  CHG  1   9   1
M  END
> <s_m_source_file>
../3shj_ligand.sdf

> <i_m_source_file_index>
1

> <s_epik_input>
W0NIMl0xW0NASF0oW0NIMl0yKVtDSDJdW0NASF0oW0NIMl0zKVtDSDJdW0NAQEhdMVtDSDJdQzIzT2M0W2NIXWMoW2NIXVtjSF1bY0hdNClDI0NbQ0BASF0oW0NIM10pW04rXSg9TylDKD1PKVtOSDJd

> <s_epik_cmdline>
J2VwaWtfYXBwJywgJy1pbWFlJywgJ2xpZ2FuZF9wcm8ubWFlJywgJy1vbWFlJywgJ2xpZ2FuZF9wcmVwLm1hZScsICctbXMnLCAnMScsICctcGgnLCAnNycsICctcGh0JywgJzAuNScsICctbnQn

> <r_lp_tautomer_probability>
1

> <r_epik_Ionization_Penalty>
  0.0002

> <r_epik_Ionization_Penalty_Charging>
  0.0000

> <r_epik_Ionization_Penalty_Neutral>
  0.0002

> <r_epik_State_Penalty>
 -0.0000

> <r_epik_Charging_Adjusted_Penalty>
0

> <i_epik_Tot_Q>
1

> <i_epik_Tot_abs_Q>
1

$$$$
