3shv_ligand
                    3D
 Schrodinger Suite 2020-3.
 97 97  0  0  1  0            999 V2000
   31.5910   -1.5190   25.3070 N   0  3  0  0  0  0
   30.8190   -1.2670   24.0530 C   0  0  2  0  0  0
   31.7890   -0.9970   22.9060 C   0  0  0  0  0  0
   32.9580   -0.6600   23.1480 O   0  0  0  0  0  0
   29.8460   -0.1040   24.2410 C   0  0  0  0  0  0
   28.7210   -0.4060   25.2260 C   0  0  0  0  0  0
   27.7940    0.8030   25.4570 C   0  0  0  0  0  0
   28.1990    1.9550   25.2790 O   0  0  0  0  0  0
   26.5470    0.5330   25.8560 N   0  0  0  0  0  0
   31.3190   -1.1590   21.6660 N   0  0  0  0  0  0
   32.2340   -1.1560   20.5220 C   0  0  2  0  0  0
   32.2590    0.1910   19.7860 C   0  0  0  0  0  0
   31.2590    0.9010   19.7500 O   0  0  0  0  0  0
   31.9080   -2.3270   19.5600 C   0  0  0  0  0  0
   33.3990    0.5540   19.2040 N   0  0  0  0  0  0
   33.3850    1.7000   18.2880 C   0  0  1  0  0  0
   34.7800    2.0670   17.8050 C   0  0  0  0  0  0
   35.5450    2.6060   18.8750 O   0  0  0  0  0  0
   32.4460    1.3640   17.1130 C   0  0  0  0  0  0
   32.4320    0.2680   16.6190 O   0  0  0  0  0  0
   37.0740    2.1840   18.8280 P   0  0  0  0  0  0
   37.7990    2.9650   20.0200 O   0  5  0  0  0  0
   37.3330    0.6270   18.8470 O   0  0  0  0  0  0
   37.7200    2.7530   17.4820 O   0  5  0  0  0  0
   31.5960    2.3080   16.7830 N   0  0  0  0  0  0
   30.6600    2.2460   15.6830 C   0  0  2  0  0  0
   31.3590    1.8850   14.3650 C   0  0  0  0  0  0
   32.3870    2.4570   14.0280 O   0  0  0  0  0  0
   30.0070    3.6340   15.5790 C   0  0  0  0  0  0
   29.0740    3.8220   14.4140 C   0  0  0  0  0  0
   27.8060    3.0780   14.6040 C   0  0  0  0  0  0
   27.5870    2.0270   13.9820 O   0  0  0  0  0  0
   26.9460    3.5950   15.4850 N   0  0  0  0  0  0
   30.8210    0.8970   13.6670 N   0  0  0  0  0  0
   31.2310    0.6060   12.3050 C   0  0  2  0  0  0
   30.4800    1.5360   11.3470 C   0  0  0  0  0  0
   29.3080    1.8010   11.5340 O   0  0  0  0  0  0
   30.9480   -0.8490   11.9540 C   0  0  0  0  0  0
   31.3970   -1.2010   10.5260 C   0  0  0  0  0  0
   31.1960   -2.6690   10.1780 C   0  0  0  0  0  0
   30.3290   -3.3230   10.7970 O   0  0  0  0  0  0
   31.9170   -3.1490    9.2690 O   0  5  0  0  0  0
   31.1790    2.0470   10.3420 N   0  0  0  0  0  0
   30.5570    2.9210    9.3150 C   0  0  2  0  0  0
   30.6400    2.2820    7.9260 C   0  0  0  0  0  0
   31.4650    1.3800    7.6580 O   0  5  0  0  0  0
   31.2220    4.2910    9.2930 C   0  0  0  0  0  0
   30.9830    5.0880   10.5540 C   0  0  0  0  0  0
   29.8080    5.8280   10.7270 C   0  0  0  0  0  0
   31.9240    5.0900   11.5720 C   0  0  0  0  0  0
   29.5800    6.5320   11.8820 C   0  0  0  0  0  0
   31.7320    5.8260   12.7270 C   0  0  0  0  0  0
   30.5520    6.5210   12.8810 C   0  0  0  0  0  0
   30.3590    7.2130   14.0240 O   0  0  0  0  0  0
   29.8550    2.6780    7.0470 O   0  0  0  0  0  0
   32.2837   -2.3587   25.1486 H   0  0  0  0  0  0
   30.8953   -1.7663   26.1224 H   0  0  0  0  0  0
   32.1624   -0.6175   25.5732 H   0  0  0  0  0  0
   30.2315   -2.1693   23.8276 H   0  0  0  0  0  0
   30.3911    0.7722   24.6219 H   0  0  0  0  0  0
   29.3809    0.1447   23.2757 H   0  0  0  0  0  0
   28.1071   -1.2327   24.8392 H   0  0  0  0  0  0
   29.1509   -0.6919   26.1973 H   0  0  0  0  0  0
   26.2299   -0.5102   26.0018 H   0  0  0  0  0  0
   25.8380    1.3540   26.0385 H   0  0  0  0  0  0
   30.2392   -1.2951   21.5063 H   0  0  0  0  0  0
   33.2267   -1.2972   20.9743 H   0  0  0  0  0  0
   31.8992   -3.2722   20.1227 H   0  0  0  0  0  0
   32.6728   -2.3771   18.7710 H   0  0  0  0  0  0
   30.9207   -2.1627   19.1038 H   0  0  0  0  0  0
   34.3385    0.0153   19.3966 H   0  0  0  0  0  0
   33.0208    2.5641   18.8630 H   0  0  0  0  0  0
   35.2833    1.1676   17.4204 H   0  0  0  0  0  0
   34.7051    2.8164   17.0032 H   0  0  0  0  0  0
   31.6338    3.2016   17.4233 H   0  0  0  0  0  0
   29.9405    1.4481   15.9189 H   0  0  0  0  0  0
   29.4161    3.8301   16.4859 H   0  0  0  0  0  0
   30.7893    4.4007   15.4782 H   0  0  0  0  0  0
   28.8362    4.8903   14.3034 H   0  0  0  0  0  0
   29.5563    3.4567   13.4953 H   0  0  0  0  0  0
   27.1912    4.5306   16.0089 H   0  0  0  0  0  0
   25.9924    3.0853   15.6869 H   0  0  0  0  0  0
   30.0415    0.2884   14.1486 H   0  0  0  0  0  0
   32.3161    0.7818   12.2652 H   0  0  0  0  0  0
   31.4864   -1.5061   12.6528 H   0  0  0  0  0  0
   29.8675   -1.0408   12.0290 H   0  0  0  0  0  0
   30.8193   -0.6065    9.8030 H   0  0  0  0  0  0
   32.4679   -0.9767   10.4126 H   0  0  0  0  0  0
   32.2506    1.8057   10.2830 H   0  0  0  0  0  0
   29.5031    3.0310    9.6104 H   0  0  0  0  0  0
   32.3091    4.1691    9.1778 H   0  0  0  0  0  0
   30.8273    4.8767    8.4497 H   0  0  0  0  0  0
   29.0626    5.8453    9.9319 H   0  0  0  0  0  0
   32.8334    4.4997   11.4598 H   0  0  0  0  0  0
   28.6539    7.0909   12.0164 H   0  0  0  0  0  0
   32.4992    5.8558   13.5007 H   0  0  0  0  0  0
   29.4267    7.7771   14.1747 H   0  0  0  0  0  0
  1  2  1  0  0  0
  1 56  1  0  0  0
  1 57  1  0  0  0
  1 58  1  0  0  0
  2  3  1  0  0  0
  2  5  1  0  0  0
  2 59  1  0  0  0
  3  4  2  0  0  0
  3 10  1  0  0  0
  5  6  1  0  0  0
  5 60  1  0  0  0
  5 61  1  0  0  0
  6  7  1  0  0  0
  6 62  1  0  0  0
  6 63  1  0  0  0
  7  8  2  0  0  0
  7  9  1  0  0  0
  9 64  1  0  0  0
  9 65  1  0  0  0
 10 11  1  0  0  0
 10 66  1  0  0  0
 11 12  1  0  0  0
 11 14  1  0  0  0
 11 67  1  0  0  0
 12 13  2  0  0  0
 12 15  1  0  0  0
 14 68  1  0  0  0
 14 69  1  0  0  0
 14 70  1  0  0  0
 15 16  1  0  0  0
 15 71  1  0  0  0
 16 17  1  0  0  0
 16 19  1  0  0  0
 16 72  1  0  0  0
 17 18  1  0  0  0
 17 73  1  0  0  0
 17 74  1  0  0  0
 18 21  1  0  0  0
 19 20  2  0  0  0
 19 25  1  0  0  0
 21 22  1  0  0  0
 21 23  2  0  0  0
 21 24  1  0  0  0
 25 26  1  0  0  0
 25 75  1  0  0  0
 26 27  1  0  0  0
 26 29  1  0  0  0
 26 76  1  0  0  0
 27 28  2  0  0  0
 27 34  1  0  0  0
 29 30  1  0  0  0
 29 77  1  0  0  0
 29 78  1  0  0  0
 30 31  1  0  0  0
 30 79  1  0  0  0
 30 80  1  0  0  0
 31 32  2  0  0  0
 31 33  1  0  0  0
 33 81  1  0  0  0
 33 82  1  0  0  0
 34 35  1  0  0  0
 34 83  1  0  0  0
 35 36  1  0  0  0
 35 38  1  0  0  0
 35 84  1  0  0  0
 36 37  2  0  0  0
 36 43  1  0  0  0
 38 39  1  0  0  0
 38 85  1  0  0  0
 38 86  1  0  0  0
 39 40  1  0  0  0
 39 87  1  0  0  0
 39 88  1  0  0  0
 40 41  2  0  0  0
 40 42  1  0  0  0
 43 44  1  0  0  0
 43 89  1  0  0  0
 44 45  1  0  0  0
 44 47  1  0  0  0
 44 90  1  0  0  0
 45 46  1  0  0  0
 45 55  2  0  0  0
 47 48  1  0  0  0
 47 91  1  0  0  0
 47 92  1  0  0  0
 48 49  2  0  0  0
 48 50  1  0  0  0
 49 51  1  0  0  0
 49 93  1  0  0  0
 50 52  2  0  0  0
 50 94  1  0  0  0
 51 53  2  0  0  0
 51 95  1  0  0  0
 52 53  1  0  0  0
 52 96  1  0  0  0
 53 54  1  0  0  0
 54 97  1  0  0  0
M  CHG  5   1   1  22  -1  24  -1  42  -1  46  -1
M  END
> <s_m_source_file>
../3shv_ligand.sdf

> <i_m_source_file_index>
1

> <s_epik_input>
Tz1DKFtOSDJdKVtDSDJdW0NIMl1bQ0BIXShbTkgzK10pQyg9TylbTkhdW0NAQEhdKFtDSDNdKUMoPU8pW05IXVtDQEBIXShbQ0gyXU9QKD1PKShbT0hdKVtPSF0pQyg9TylbTkhdW0NAQEhdKFtDSDJdW0NIMl1DKD1PKVtOSDJdKUMoPU8pW05IXVtDQEBIXShbQ0gyXVtDSDJdQyg9TylbT0hdKUMoPU8pW05IXVtDQEhdKEMoPU8pW09IXSlbQ0gyXWMxW2NIXVtjSF1jKFtPSF0pW2NIXVtjSF0x

> <s_epik_cmdline>
J2VwaWtfYXBwJywgJy1pbWFlJywgJ2xpZ2FuZF9wcm8ubWFlJywgJy1vbWFlJywgJ2xpZ2FuZF9wcmVwLm1hZScsICctbXMnLCAnMScsICctcGgnLCAnNycsICctcGh0JywgJzAuNScsICctbnQn

> <r_lp_tautomer_probability>
0.999999999997365

> <r_epik_Ionization_Penalty>
  0.2622

> <r_epik_Ionization_Penalty_Charging>
  0.2616

> <r_epik_Ionization_Penalty_Neutral>
  0.0006

> <r_epik_State_Penalty>
  0.2216

> <r_epik_Charging_Adjusted_Penalty>
0.483157375721892

> <i_epik_Tot_Q>
-3

> <i_epik_Tot_abs_Q>
5

$$$$
