3shy_ligand
                    3D
 Schrodinger Suite 2020-3.
 57 59  0  0  1  0            999 V2000
  -49.5060   19.0570   42.2130 C   0  0  0  0  0  0
  -45.0740   13.7960   37.1840 C   0  0  0  0  0  0
  -45.3960   10.5640   41.8790 C   0  0  0  0  0  0
  -46.1670   18.9470   38.6750 O   0  0  0  0  0  0
  -42.8740   13.9660   45.9720 O   0  0  0  0  0  0
  -41.8070   14.1360   43.7930 O   0  0  0  0  0  0
  -45.0160   17.2410   36.8230 F   0  0  0  0  0  0
  -45.4680   14.9910   44.7680 C   0  0  0  0  0  0
  -46.4830   15.8060   44.2770 C   0  0  0  0  0  0
  -44.4050   15.0740   42.6320 C   0  0  0  0  0  0
  -49.8230   17.5630   42.3150 C   0  0  0  0  0  0
  -43.9650   14.6770   37.7760 C   0  0  0  0  0  0
  -48.7480   16.8150   43.1140 C   0  0  0  0  0  0
  -43.1460   10.2550   42.5390 C   0  0  0  0  0  0
  -44.8130   10.1140   44.2470 C   0  0  0  0  0  0
  -42.9670   11.7550   42.8100 C   0  0  0  0  0  0
  -44.6580   11.6150   44.5260 C   0  0  0  0  0  0
  -44.7310   15.4540   39.9530 N   0  0  0  0  0  0
  -45.8430   17.4690   40.3540 N   0  0  0  0  0  0
  -47.4590   17.0370   42.4650 O   0  0  0  0  0  0
  -44.3890   14.6810   43.9510 C   0  0  0  0  0  0
  -46.4520   16.2640   42.9610 C   0  0  0  0  0  0
  -44.6250   15.7450   38.6460 C   0  0  0  0  0  0
  -45.1230   16.9530   38.1490 C   0  0  0  0  0  0
  -45.3530   15.9580   42.1640 C   0  0  0  0  0  0
  -45.2370   16.3230   40.8300 C   0  0  0  0  0  0
  -45.7140   17.8530   39.0310 C   0  0  0  0  0  0
  -44.5180    9.8360   42.8200 N   0  0  0  0  0  0
  -43.2730   12.0510   44.2250 N   0  0  2  0  0  0
  -43.0530   13.6860   44.5020 S   0  0  0  0  0  0
  -50.2951   19.5606   41.6354 H   0  0  0  0  0  0
  -48.5384   19.1928   41.7078 H   0  0  0  0  0  0
  -49.4567   19.4911   43.2225 H   0  0  0  0  0  0
  -44.6245   13.0164   36.5514 H   0  0  0  0  0  0
  -45.7501   14.4161   36.5771 H   0  0  0  0  0  0
  -45.6420   13.3243   37.9994 H   0  0  0  0  0  0
  -45.1183   10.3082   40.8458 H   0  0  0  0  0  0
  -45.2799   11.6470   42.0325 H   0  0  0  0  0  0
  -46.4429   10.2783   42.0587 H   0  0  0  0  0  0
  -45.5193   14.5997   45.7840 H   0  0  0  0  0  0
  -47.3104   16.0891   44.9277 H   0  0  0  0  0  0
  -43.6553   14.6794   41.9461 H   0  0  0  0  0  0
  -50.7906   17.4272   42.8202 H   0  0  0  0  0  0
  -49.8723   17.1289   41.3055 H   0  0  0  0  0  0
  -43.2889   14.0569   38.3829 H   0  0  0  0  0  0
  -43.3969   15.1487   36.9607 H   0  0  0  0  0  0
  -48.7233   17.1992   44.1444 H   0  0  0  0  0  0
  -48.9834   15.7406   43.1289 H   0  0  0  0  0  0
  -42.9202   10.0436   41.4834 H   0  0  0  0  0  0
  -42.4619    9.6820   43.1821 H   0  0  0  0  0  0
  -44.1130    9.5492   44.8802 H   0  0  0  0  0  0
  -45.8439    9.8036   44.4728 H   0  0  0  0  0  0
  -41.9278   12.0449   42.5954 H   0  0  0  0  0  0
  -43.6484   12.3282   42.1641 H   0  0  0  0  0  0
  -45.3589   12.1798   43.8937 H   0  0  0  0  0  0
  -44.8766   11.8156   45.5852 H   0  0  0  0  0  0
  -46.4421   18.0961   41.0307 H   0  0  0  0  0  0
  1 11  1  0  0  0
  1 31  1  0  0  0
  1 32  1  0  0  0
  1 33  1  0  0  0
  2 12  1  0  0  0
  2 34  1  0  0  0
  2 35  1  0  0  0
  2 36  1  0  0  0
  3 28  1  0  0  0
  3 37  1  0  0  0
  3 38  1  0  0  0
  3 39  1  0  0  0
  4 27  2  0  0  0
  5 30  2  0  0  0
  6 30  2  0  0  0
  7 24  1  0  0  0
  8  9  2  0  0  0
  8 21  1  0  0  0
  8 40  1  0  0  0
  9 22  1  0  0  0
  9 41  1  0  0  0
 10 21  2  0  0  0
 10 25  1  0  0  0
 10 42  1  0  0  0
 11 13  1  0  0  0
 11 43  1  0  0  0
 11 44  1  0  0  0
 12 23  1  0  0  0
 12 45  1  0  0  0
 12 46  1  0  0  0
 13 20  1  0  0  0
 13 47  1  0  0  0
 13 48  1  0  0  0
 14 16  1  0  0  0
 14 28  1  0  0  0
 14 49  1  0  0  0
 14 50  1  0  0  0
 15 17  1  0  0  0
 15 28  1  0  0  0
 15 51  1  0  0  0
 15 52  1  0  0  0
 16 29  1  0  0  0
 16 53  1  0  0  0
 16 54  1  0  0  0
 17 29  1  0  0  0
 17 55  1  0  0  0
 17 56  1  0  0  0
 18 23  1  0  0  0
 18 26  2  0  0  0
 19 26  1  0  0  0
 19 27  1  0  0  0
 19 57  1  0  0  0
 20 22  1  0  0  0
 21 30  1  0  0  0
 22 25  2  0  0  0
 23 24  2  0  0  0
 24 27  1  0  0  0
 25 26  1  0  0  0
 29 30  1  0  0  0
M  END
> <s_m_source_file>
../3shy_ligand.sdf

> <i_m_source_file_index>
1

> <s_epik_input>
W0NIM11bQ0gyXWMxbmMoW25IXWMoPU8pYzFGKS1jKFtjSF0yKWMoT1tDSDJdW0NIMl1bQ0gzXSlbY0hdW2NIXWMyUyg9TykoPU8pTihbQ0gyXVtDSDJdMylbQ0gyXVtDSDJdW05IK10zW0NIM10=

> <s_epik_cmdline>
J2VwaWtfYXBwJywgJy1pbWFlJywgJ2xpZ2FuZF9wcm8ubWFlJywgJy1vbWFlJywgJ2xpZ2FuZF9wcmVwLm1hZScsICctbXMnLCAnMScsICctcGgnLCAnNycsICctcGh0JywgJzAuNScsICctbnQn

> <r_lp_tautomer_probability>
1

> <r_epik_Ionization_Penalty>
  0.2379

> <r_epik_Ionization_Penalty_Charging>
  0.0535

> <r_epik_Ionization_Penalty_Neutral>
  0.1844

> <r_epik_State_Penalty>
 -0.0000

> <r_epik_Charging_Adjusted_Penalty>
0.0534646055911521

> <i_epik_Tot_Q>
0

> <i_epik_Tot_abs_Q>
0

$$$$
