3shz_ligand
                    3D
 Schrodinger Suite 2020-3.
 57 59  0  0  1  0            999 V2000
   49.5460  -19.0980   42.0510 C   0  0  0  0  0  0
   44.6480  -13.7740   37.3390 C   0  0  0  0  0  0
   44.7450   -8.1290   43.1680 C   0  0  0  0  0  0
   46.2260  -18.9930   38.7090 O   0  0  0  0  0  0
   42.9420  -13.9760   45.9570 O   0  0  0  0  0  0
   41.9910  -13.8110   43.6960 O   0  0  0  0  0  0
   44.8260  -17.5040   36.5320 Cl  0  0  0  0  0  0
   45.6080  -15.0380   44.7260 C   0  0  0  0  0  0
   46.6060  -15.8670   44.2220 C   0  0  0  0  0  0
   44.4750  -15.1140   42.6190 C   0  0  0  0  0  0
   49.8650  -17.6070   42.1470 C   0  0  0  0  0  0
   43.7030  -14.8880   37.8230 C   0  0  0  0  0  0
   48.8090  -16.8710   42.9850 C   0  0  0  0  0  0
   43.9780   -9.7110   44.7850 C   0  0  0  0  0  0
   44.7250  -10.4470   42.6480 C   0  0  0  0  0  0
   43.2750  -11.0650   45.0150 C   0  0  0  0  0  0
   44.0380  -11.8100   42.8560 C   0  0  0  0  0  0
   44.6330  -15.5580   39.9710 N   0  0  0  0  0  0
   45.9020  -17.5160   40.3670 N   0  0  0  0  0  0
   47.5000  -17.1100   42.3760 O   0  0  0  0  0  0
   44.5010  -14.7300   43.9400 C   0  0  0  0  0  0
   46.5240  -16.3300   42.9100 C   0  0  0  0  0  0
   44.4810  -15.8860   38.6840 C   0  0  0  0  0  0
   45.0310  -17.0810   38.2030 C   0  0  0  0  0  0
   45.4140  -15.9990   42.1410 C   0  0  0  0  0  0
   45.2560  -16.3820   40.8250 C   0  0  0  0  0  0
   45.7240  -17.9280   39.0690 C   0  0  0  0  0  0
   43.9970   -9.3830   43.3430 N   0  0  0  0  0  0
   43.9800  -12.1500   44.3000 N   0  0  2  0  0  0
   43.2420  -13.6660   44.5150 S   0  0  0  0  0  0
   50.3163  -19.5996   41.4469 H   0  0  0  0  0  0
   48.5627  -19.2328   41.5767 H   0  0  0  0  0  0
   49.5293  -19.5351   43.0603 H   0  0  0  0  0  0
   44.0855  -13.0589   36.7208 H   0  0  0  0  0  0
   45.4598  -14.2154   36.7422 H   0  0  0  0  0  0
   45.0742  -13.2514   38.2081 H   0  0  0  0  0  0
   44.2171   -7.3124   43.6823 H   0  0  0  0  0  0
   44.8247   -7.8962   42.0959 H   0  0  0  0  0  0
   45.7526   -8.2405   43.5949 H   0  0  0  0  0  0
   45.6930  -14.6310   45.7336 H   0  0  0  0  0  0
   47.4488  -16.1531   44.8512 H   0  0  0  0  0  0
   43.7105  -14.7171   41.9511 H   0  0  0  0  0  0
   50.8483  -17.4722   42.6213 H   0  0  0  0  0  0
   49.8817  -17.1699   41.1377 H   0  0  0  0  0  0
   42.8912  -14.4466   38.4198 H   0  0  0  0  0  0
   43.2768  -15.4106   36.9539 H   0  0  0  0  0  0
   48.8244  -17.2566   44.0151 H   0  0  0  0  0  0
   49.0328  -15.7940   42.9932 H   0  0  0  0  0  0
   43.4376   -8.9207   45.3266 H   0  0  0  0  0  0
   45.0125   -9.7674   45.1548 H   0  0  0  0  0  0
   45.7509  -10.4895   43.0427 H   0  0  0  0  0  0
   44.7549  -10.2115   41.5739 H   0  0  0  0  0  0
   43.2666  -11.2958   46.0905 H   0  0  0  0  0  0
   42.2410  -11.0090   44.6440 H   0  0  0  0  0  0
   43.0134  -11.7687   42.4579 H   0  0  0  0  0  0
   44.6052  -12.5909   42.3282 H   0  0  0  0  0  0
   46.5571  -18.0863   41.0420 H   0  0  0  0  0  0
  1 11  1  0  0  0
  1 31  1  0  0  0
  1 32  1  0  0  0
  1 33  1  0  0  0
  2 12  1  0  0  0
  2 34  1  0  0  0
  2 35  1  0  0  0
  2 36  1  0  0  0
  3 28  1  0  0  0
  3 37  1  0  0  0
  3 38  1  0  0  0
  3 39  1  0  0  0
  4 27  2  0  0  0
  5 30  2  0  0  0
  6 30  2  0  0  0
  7 24  1  0  0  0
  8  9  2  0  0  0
  8 21  1  0  0  0
  8 40  1  0  0  0
  9 22  1  0  0  0
  9 41  1  0  0  0
 10 21  2  0  0  0
 10 25  1  0  0  0
 10 42  1  0  0  0
 11 13  1  0  0  0
 11 43  1  0  0  0
 11 44  1  0  0  0
 12 23  1  0  0  0
 12 45  1  0  0  0
 12 46  1  0  0  0
 13 20  1  0  0  0
 13 47  1  0  0  0
 13 48  1  0  0  0
 14 16  1  0  0  0
 14 28  1  0  0  0
 14 49  1  0  0  0
 14 50  1  0  0  0
 15 17  1  0  0  0
 15 28  1  0  0  0
 15 51  1  0  0  0
 15 52  1  0  0  0
 16 29  1  0  0  0
 16 53  1  0  0  0
 16 54  1  0  0  0
 17 29  1  0  0  0
 17 55  1  0  0  0
 17 56  1  0  0  0
 18 23  1  0  0  0
 18 26  2  0  0  0
 19 26  1  0  0  0
 19 27  1  0  0  0
 19 57  1  0  0  0
 20 22  1  0  0  0
 21 30  1  0  0  0
 22 25  2  0  0  0
 23 24  2  0  0  0
 24 27  1  0  0  0
 25 26  1  0  0  0
 29 30  1  0  0  0
M  END
> <s_m_source_file>
../3shz_ligand.sdf

> <i_m_source_file_index>
1

> <s_epik_input>
W0NIM11bQ0gyXWMxbmMoW25IXWMoPU8pYzFDbCktYyhbY0hdMiljKE9bQ0gyXVtDSDJdW0NIM10pW2NIXVtjSF1jMlMoPU8pKD1PKU4oW0NIMl1bQ0gyXTMpW0NIMl1bQ0gyXVtOSCtdM1tDSDNd

> <s_epik_cmdline>
J2VwaWtfYXBwJywgJy1pbWFlJywgJ2xpZ2FuZF9wcm8ubWFlJywgJy1vbWFlJywgJ2xpZ2FuZF9wcmVwLm1hZScsICctbXMnLCAnMScsICctcGgnLCAnNycsICctcGh0JywgJzAuNScsICctbnQn

> <r_lp_tautomer_probability>
1

> <r_epik_Ionization_Penalty>
  0.2549

> <r_epik_Ionization_Penalty_Charging>
  0.0704

> <r_epik_Ionization_Penalty_Neutral>
  0.1844

> <r_epik_State_Penalty>
 -0.0000

> <r_epik_Charging_Adjusted_Penalty>
0.0704273234284043

> <i_epik_Tot_Q>
0

> <i_epik_Tot_abs_Q>
0

$$$$
