3si3_ligand
                    3D
 Schrodinger Suite 2020-3.
 51 53  0  0  1  0            999 V2000
   16.6920  -15.3670   23.3600 N   0  3  0  0  0  0
   17.9710  -14.6840   23.3400 C   0  0  1  0  0  0
   17.7590  -13.3150   22.7490 C   0  0  0  0  0  0
   16.8250  -12.6150   23.1350 O   0  0  0  0  0  0
   18.4740  -14.5870   24.7850 C   0  0  0  0  0  0
   19.8740  -14.0180   24.8370 C   0  0  0  0  0  0
   20.9500  -14.6840   24.2540 C   0  0  0  0  0  0
   20.0850  -12.8070   25.4680 C   0  0  0  0  0  0
   22.2250  -14.1270   24.3100 C   0  0  0  0  0  0
   21.3540  -12.2480   25.5180 C   0  0  0  0  0  0
   22.4350  -12.9120   24.9400 C   0  0  0  0  0  0
   18.6040  -12.9030   21.8160 N   0  0  0  0  0  0
   18.4090  -11.5830   21.2360 C   0  0  2  0  0  0
   17.0650  -11.4740   20.5700 C   0  0  0  0  0  0
   16.7190  -12.3280   19.7680 O   0  0  0  0  0  0
   19.5130  -11.4360   20.1920 C   0  0  0  0  0  0
   20.5110  -12.5460   20.4710 C   0  0  0  0  0  0
   19.7600  -13.6160   21.2560 C   0  0  0  0  0  0
   16.2730  -10.4460   20.8920 N   0  0  0  0  0  0
   14.9490  -10.2000   20.3250 C   0  0  0  0  0  0
   13.8650  -10.0880   21.3770 C   0  0  0  0  0  0
   13.8200   -9.0020   22.2450 C   0  0  0  0  0  0
   12.8120   -8.9290   23.1990 C   0  0  0  0  0  0
   11.8640   -9.9390   23.2620 C   0  0  0  0  0  0
   11.9440  -11.0030   22.3720 C   0  0  0  0  0  0
   12.9240  -11.0540   21.4610 N   0  0  0  0  0  0
   16.3054  -15.4515   22.3337 H   0  0  0  0  0  0
   15.9806  -14.7952   23.9739 H   0  0  0  0  0  0
   16.8199  -16.3724   23.7876 H   0  0  0  0  0  0
   18.6795  -15.2455   22.7133 H   0  0  0  0  0  0
   17.8060  -13.9311   25.3625 H   0  0  0  0  0  0
   18.4847  -15.5895   25.2376 H   0  0  0  0  0  0
   20.7939  -15.6402   23.7545 H   0  0  0  0  0  0
   19.2468  -12.2860   25.9308 H   0  0  0  0  0  0
   23.0646  -14.6518   23.8542 H   0  0  0  0  0  0
   21.5060  -11.2875   26.0103 H   0  0  0  0  0  0
   23.4345  -12.4794   24.9835 H   0  0  0  0  0  0
   18.4409  -10.8292   22.0365 H   0  0  0  0  0  0
   19.0813  -11.5361   19.1852 H   0  0  0  0  0  0
   19.9834  -10.4467   20.2925 H   0  0  0  0  0  0
   20.8875  -12.9484   19.5190 H   0  0  0  0  0  0
   21.3509  -12.1451   21.0573 H   0  0  0  0  0  0
   20.3665  -14.0309   22.0745 H   0  0  0  0  0  0
   19.4085  -14.4335   20.6093 H   0  0  0  0  0  0
   16.6861   -9.7572   21.6436 H   0  0  0  0  0  0
   14.9623   -9.2575   19.7580 H   0  0  0  0  0  0
   14.6780  -11.0281   19.6535 H   0  0  0  0  0  0
   14.5699   -8.2139   22.1774 H   0  0  0  0  0  0
   12.7671   -8.0872   23.8900 H   0  0  0  0  0  0
   11.0646   -9.8987   24.0018 H   0  0  0  0  0  0
   11.2037  -11.8019   22.4157 H   0  0  0  0  0  0
  1  2  1  0  0  0
  1 27  1  0  0  0
  1 28  1  0  0  0
  1 29  1  0  0  0
  2  3  1  0  0  0
  2  5  1  0  0  0
  2 30  1  0  0  0
  3  4  2  0  0  0
  3 12  1  0  0  0
  5  6  1  0  0  0
  5 31  1  0  0  0
  5 32  1  0  0  0
  6  7  2  0  0  0
  6  8  1  0  0  0
  7  9  1  0  0  0
  7 33  1  0  0  0
  8 10  2  0  0  0
  8 34  1  0  0  0
  9 11  2  0  0  0
  9 35  1  0  0  0
 10 11  1  0  0  0
 10 36  1  0  0  0
 11 37  1  0  0  0
 12 13  1  0  0  0
 12 18  1  0  0  0
 13 14  1  0  0  0
 13 16  1  0  0  0
 13 38  1  0  0  0
 14 15  2  0  0  0
 14 19  1  0  0  0
 16 17  1  0  0  0
 16 39  1  0  0  0
 16 40  1  0  0  0
 17 18  1  0  0  0
 17 41  1  0  0  0
 17 42  1  0  0  0
 18 43  1  0  0  0
 18 44  1  0  0  0
 19 20  1  0  0  0
 19 45  1  0  0  0
 20 21  1  0  0  0
 20 46  1  0  0  0
 20 47  1  0  0  0
 21 22  2  0  0  0
 21 26  1  0  0  0
 22 23  1  0  0  0
 22 48  1  0  0  0
 23 24  2  0  0  0
 23 49  1  0  0  0
 24 25  1  0  0  0
 24 50  1  0  0  0
 25 26  2  0  0  0
 25 51  1  0  0  0
M  CHG  1   1   1
M  END
> <s_m_source_file>
../3si3_ligand.sdf

> <i_m_source_file_index>
1

> <s_epik_input>
W2NIXTFbY0hdW2NIXVtjSF1bY0hdYzFbQ0gyXVtDQEBIXShbTkgzK10pQyg9TylOMltDQEBIXShbQ0gyXVtDSDJdW0NIMl0yKUMoPU8pW05IXVtDSDJdYzNbY0hdW2NIXVtjSF1bY0hdbjM=

> <s_epik_cmdline>
J2VwaWtfYXBwJywgJy1pbWFlJywgJ2xpZ2FuZF9wcm8ubWFlJywgJy1vbWFlJywgJ2xpZ2FuZF9wcmVwLm1hZScsICctbXMnLCAnMScsICctcGgnLCAnNycsICctcGh0JywgJzAuNScsICctbnQn

> <r_lp_tautomer_probability>
1

> <r_epik_Ionization_Penalty>
  0.1897

> <r_epik_Ionization_Penalty_Charging>
  0.1805

> <r_epik_Ionization_Penalty_Neutral>
  0.0092

> <r_epik_State_Penalty>
 -0.0000

> <r_epik_Charging_Adjusted_Penalty>
0.180476587272804

> <i_epik_Tot_Q>
1

> <i_epik_Tot_abs_Q>
1

$$$$
