3si4_ligand
                    3D
 Schrodinger Suite 2020-3.
 55 57  0  0  1  0            999 V2000
   16.6960  -15.5690   23.2920 N   0  3  0  0  0  0
   17.9550  -14.8470   23.2990 C   0  0  1  0  0  0
   17.7070  -13.4920   22.6930 C   0  0  0  0  0  0
   16.7810  -12.7970   23.0920 O   0  0  0  0  0  0
   18.4400  -14.7650   24.7430 C   0  0  0  0  0  0
   19.8390  -14.2060   24.8030 C   0  0  0  0  0  0
   20.9130  -14.8860   24.2310 C   0  0  0  0  0  0
   20.0440  -13.0020   25.4600 C   0  0  0  0  0  0
   22.1940  -14.3480   24.3120 C   0  0  0  0  0  0
   21.3220  -12.4660   25.5340 C   0  0  0  0  0  0
   22.3970  -13.1350   24.9610 C   0  0  0  0  0  0
   18.5140  -13.0720   21.7160 N   0  0  0  0  0  0
   18.2630  -11.7660   21.1060 C   0  0  2  0  0  0
   16.8660  -11.7520   20.5410 C   0  0  0  0  0  0
   16.4590  -12.7100   19.8990 O   0  0  0  0  0  0
   19.2930  -11.6620   19.9880 C   0  0  0  0  0  0
   20.3510  -12.6940   20.3150 C   0  0  0  0  0  0
   19.6530  -13.7790   21.1240 C   0  0  0  0  0  0
   16.0900  -10.6930   20.7800 N   0  0  0  0  0  0
   14.7210  -10.5330   20.2950 C   0  0  0  0  0  0
   13.7290  -10.4070   21.4310 C   0  0  0  0  0  0
   13.5170   -9.1730   22.0410 C   0  0  0  0  0  0
   12.6090   -9.0770   23.0860 C   0  0  0  0  0  0
   11.9200  -10.2160   23.4870 C   0  0  0  0  0  0
   12.1690  -11.4190   22.8380 C   0  0  0  0  0  0
   13.0570  -11.4940   21.8380 N   0  0  0  0  0  0
   13.2920  -12.7830   21.1790 C   0  0  0  0  0  0
   16.3218  -15.6435   22.2603 H   0  0  0  0  0  0
   15.9619  -15.0318   23.9105 H   0  0  0  0  0  0
   16.8502  -16.5789   23.6999 H   0  0  0  0  0  0
   18.7051  -15.3718   22.6891 H   0  0  0  0  0  0
   17.7697  -14.1094   25.3182 H   0  0  0  0  0  0
   18.4393  -15.7711   25.1877 H   0  0  0  0  0  0
   20.7501  -15.8360   23.7220 H   0  0  0  0  0  0
   19.2042  -12.4784   25.9167 H   0  0  0  0  0  0
   23.0371  -14.8768   23.8673 H   0  0  0  0  0  0
   21.4833  -11.5162   26.0438 H   0  0  0  0  0  0
   23.3986  -12.7092   25.0203 H   0  0  0  0  0  0
   18.3425  -10.9518   21.8414 H   0  0  0  0  0  0
   18.8095  -11.8744   19.0231 H   0  0  0  0  0  0
   19.7145  -10.6461   19.9711 H   0  0  0  0  0  0
   20.7658  -13.1023   19.3816 H   0  0  0  0  0  0
   21.1555  -12.2222   20.8982 H   0  0  0  0  0  0
   20.2897  -14.1836   21.9246 H   0  0  0  0  0  0
   19.2861  -14.6037   20.4953 H   0  0  0  0  0  0
   16.5527   -9.9042   21.3913 H   0  0  0  0  0  0
   14.6544   -9.6247   19.6781 H   0  0  0  0  0  0
   14.4416  -11.4083   19.6902 H   0  0  0  0  0  0
   14.0670   -8.2860   21.6935 H   0  0  0  0  0  0
   12.4306   -8.1184   23.5953 H   0  0  0  0  0  0
   11.1897  -10.1567   24.3075 H   0  0  0  0  0  0
   11.6331  -12.3162   23.1476 H   0  0  0  0  0  0
   14.0463  -12.6583   20.3881 H   0  0  0  0  0  0
   12.3525  -13.1449   20.7359 H   0  0  0  0  0  0
   13.6535  -13.5125   21.9187 H   0  0  0  0  0  0
  1  2  1  0  0  0
  1 28  1  0  0  0
  1 29  1  0  0  0
  1 30  1  0  0  0
  2  3  1  0  0  0
  2  5  1  0  0  0
  2 31  1  0  0  0
  3  4  2  0  0  0
  3 12  1  0  0  0
  5  6  1  0  0  0
  5 32  1  0  0  0
  5 33  1  0  0  0
  6  7  2  0  0  0
  6  8  1  0  0  0
  7  9  1  0  0  0
  7 34  1  0  0  0
  8 10  2  0  0  0
  8 35  1  0  0  0
  9 11  2  0  0  0
  9 36  1  0  0  0
 10 11  1  0  0  0
 10 37  1  0  0  0
 11 38  1  0  0  0
 12 13  1  0  0  0
 12 18  1  0  0  0
 13 14  1  0  0  0
 13 16  1  0  0  0
 13 39  1  0  0  0
 14 15  2  0  0  0
 14 19  1  0  0  0
 16 17  1  0  0  0
 16 40  1  0  0  0
 16 41  1  0  0  0
 17 18  1  0  0  0
 17 42  1  0  0  0
 17 43  1  0  0  0
 18 44  1  0  0  0
 18 45  1  0  0  0
 19 20  1  0  0  0
 19 46  1  0  0  0
 20 21  1  0  0  0
 20 47  1  0  0  0
 20 48  1  0  0  0
 21 22  2  0  0  0
 21 26  1  0  0  0
 22 23  1  0  0  0
 22 49  1  0  0  0
 23 24  2  0  0  0
 23 50  1  0  0  0
 24 25  1  0  0  0
 24 51  1  0  0  0
 25 26  1  0  0  0
 25 52  1  0  0  0
 26 27  1  0  0  0
 27 53  1  0  0  0
 27 54  1  0  0  0
 27 55  1  0  0  0
M  CHG  1   1   1
M  END
> <s_m_source_file>
../3si4_ligand.sdf

> <i_m_source_file_index>
1

> <s_epik_input>
W2NIXTFbY0hdW2NIXVtjSF1bY0hdYzFbQ0gyXVtDQEBIXShbTkgzK10pQyg9TylOMltDQEBIXShbQ0gyXVtDSDJdW0NIMl0yKUMoPU8pW05IXVtDSDJdQzM9W0NIXVtDSF09W0NIXVtDSDJdTjNbQ0gzXQ==

> <s_epik_cmdline>
J2VwaWtfYXBwJywgJy1pbWFlJywgJ2xpZ2FuZF9wcm8ubWFlJywgJy1vbWFlJywgJ2xpZ2FuZF9wcmVwLm1hZScsICctbXMnLCAnMScsICctcGgnLCAnNycsICctcGh0JywgJzAuNScsICctbnQn

> <r_epik_Ionization_Penalty>
  0.1805

> <r_epik_Ionization_Penalty_Charging>
  0.1805

> <r_epik_Ionization_Penalty_Neutral>
  0.0000

> <r_epik_State_Penalty>
  0.1700

> <r_epik_Charging_Adjusted_Penalty>
0.350449203061821

> <i_epik_Tot_Q>
1

> <i_epik_Tot_abs_Q>
1

$$$$
