3sie_ligand
                    3D
 Schrodinger Suite 2020-3.
 57 59  0  0  1  0            999 V2000
  -24.1770   -6.4040   -1.7950 C   0  0  0  0  0  0
  -17.7680   -3.6950    1.3950 C   0  0  0  0  0  0
  -15.6730   -4.6030  -11.2370 C   0  0  0  0  0  0
  -20.5590   -8.1180   -0.2310 O   0  0  0  0  0  0
  -16.4180   -4.4920   -6.3050 O   0  0  0  0  0  0
  -17.2450   -2.1430   -6.4630 O   0  0  0  0  0  0
  -18.5340   -7.2490    1.8980 Br  0  0  0  0  0  0
  -20.1860   -3.7180   -5.9400 C   0  0  0  0  0  0
  -21.2620   -4.0490   -5.1230 C   0  0  0  0  0  0
  -18.6590   -4.5760   -4.3030 C   0  0  0  0  0  0
  -24.3410   -5.0420   -2.4870 C   0  0  0  0  0  0
  -17.1160   -4.7610    0.4960 C   0  0  0  0  0  0
  -23.3480   -4.8610   -3.6510 C   0  0  0  0  0  0
  -16.7930   -5.4300   -9.1300 C   0  0  0  0  0  0
  -16.7660   -2.9340   -9.6470 C   0  0  0  0  0  0
  -18.2500   -5.2300   -8.7190 C   0  0  0  0  0  0
  -18.2250   -2.9250   -9.2000 C   0  0  0  0  0  0
  -18.5050   -4.9780   -1.5310 N   0  0  0  0  0  0
  -20.2180   -6.5650   -1.8170 N   0  0  0  0  0  0
  -22.0460   -4.9560   -3.0720 O   0  0  0  0  0  0
  -18.8920   -4.0450   -5.5570 C   0  0  0  0  0  0
  -21.0240   -4.7050   -3.9140 C   0  0  0  0  0  0
  -18.2150   -5.4580   -0.3080 C   0  0  0  0  0  0
  -18.9250   -6.5530    0.1720 C   0  0  0  0  0  0
  -19.7210   -5.0350   -3.5510 C   0  0  0  0  0  0
  -19.3950   -5.5880   -2.3230 C   0  0  0  0  0  0
  -19.9090   -7.1500   -0.6130 C   0  0  0  0  0  0
  -16.5760   -4.3380  -10.1030 N   0  0  0  0  0  0
  -18.4830   -3.8960   -8.1010 N   0  0  2  0  0  0
  -17.5970   -3.6050   -6.6180 S   0  0  0  0  0  0
  -24.9040   -6.4879   -0.9737 H   0  0  0  0  0  0
  -23.1571   -6.4901   -1.3921 H   0  0  0  0  0  0
  -24.3526   -7.2090   -2.5238 H   0  0  0  0  0  0
  -16.9899   -3.1837    1.9808 H   0  0  0  0  0  0
  -18.4827   -4.1782    2.0774 H   0  0  0  0  0  0
  -18.2973   -2.9614    0.7691 H   0  0  0  0  0  0
  -15.6482   -5.6836  -11.4412 H   0  0  0  0  0  0
  -14.6600   -4.2534  -10.9885 H   0  0  0  0  0  0
  -16.0367   -4.0698  -12.1277 H   0  0  0  0  0  0
  -20.3591   -3.2005   -6.8836 H   0  0  0  0  0  0
  -22.2795   -3.7990   -5.4234 H   0  0  0  0  0  0
  -17.6436   -4.6319   -3.9105 H   0  0  0  0  0  0
  -25.3609   -4.9559   -2.8899 H   0  0  0  0  0  0
  -24.1655   -4.2369   -1.7583 H   0  0  0  0  0  0
  -16.4013   -4.2778   -0.1864 H   0  0  0  0  0  0
  -16.5867   -5.4946    1.1219 H   0  0  0  0  0  0
  -23.5106   -5.6519   -4.3980 H   0  0  0  0  0  0
  -23.5057   -3.8776   -4.1180 H   0  0  0  0  0  0
  -16.1470   -5.3442   -8.2438 H   0  0  0  0  0  0
  -16.6717   -6.4278   -9.5769 H   0  0  0  0  0  0
  -16.6255   -2.2006  -10.4547 H   0  0  0  0  0  0
  -16.1202   -2.6708   -8.7963 H   0  0  0  0  0  0
  -18.8957   -5.3128   -9.6057 H   0  0  0  0  0  0
  -18.5332   -5.9998   -7.9860 H   0  0  0  0  0  0
  -18.4914   -1.9210   -8.8381 H   0  0  0  0  0  0
  -18.8705   -3.1917  -10.0498 H   0  0  0  0  0  0
  -21.1148   -6.8721   -2.3751 H   0  0  0  0  0  0
  1 11  1  0  0  0
  1 31  1  0  0  0
  1 32  1  0  0  0
  1 33  1  0  0  0
  2 12  1  0  0  0
  2 34  1  0  0  0
  2 35  1  0  0  0
  2 36  1  0  0  0
  3 28  1  0  0  0
  3 37  1  0  0  0
  3 38  1  0  0  0
  3 39  1  0  0  0
  4 27  2  0  0  0
  5 30  2  0  0  0
  6 30  2  0  0  0
  7 24  1  0  0  0
  8  9  2  0  0  0
  8 21  1  0  0  0
  8 40  1  0  0  0
  9 22  1  0  0  0
  9 41  1  0  0  0
 10 21  2  0  0  0
 10 25  1  0  0  0
 10 42  1  0  0  0
 11 13  1  0  0  0
 11 43  1  0  0  0
 11 44  1  0  0  0
 12 23  1  0  0  0
 12 45  1  0  0  0
 12 46  1  0  0  0
 13 20  1  0  0  0
 13 47  1  0  0  0
 13 48  1  0  0  0
 14 16  1  0  0  0
 14 28  1  0  0  0
 14 49  1  0  0  0
 14 50  1  0  0  0
 15 17  1  0  0  0
 15 28  1  0  0  0
 15 51  1  0  0  0
 15 52  1  0  0  0
 16 29  1  0  0  0
 16 53  1  0  0  0
 16 54  1  0  0  0
 17 29  1  0  0  0
 17 55  1  0  0  0
 17 56  1  0  0  0
 18 23  1  0  0  0
 18 26  2  0  0  0
 19 26  1  0  0  0
 19 27  1  0  0  0
 19 57  1  0  0  0
 20 22  1  0  0  0
 21 30  1  0  0  0
 22 25  2  0  0  0
 23 24  2  0  0  0
 24 27  1  0  0  0
 25 26  1  0  0  0
 29 30  1  0  0  0
M  END
> <s_m_source_file>
../3sie_ligand.sdf

> <i_m_source_file_index>
1

> <s_epik_input>
W0NIM11bQ0gyXWMxbmMoW25IXWMoPU8pYzFCciktYyhbY0hdMiljKE9bQ0gyXVtDSDJdW0NIM10pW2NIXVtjSF1jMlMoPU8pKD1PKU4oW0NIMl1bQ0gyXTMpW0NIMl1bQ0gyXVtOSCtdM1tDSDNd

> <s_epik_cmdline>
J2VwaWtfYXBwJywgJy1pbWFlJywgJ2xpZ2FuZF9wcm8ubWFlJywgJy1vbWFlJywgJ2xpZ2FuZF9wcmVwLm1hZScsICctbXMnLCAnMScsICctcGgnLCAnNycsICctcGh0JywgJzAuNScsICctbnQn

> <r_lp_tautomer_probability>
1

> <r_epik_Ionization_Penalty>
  0.2689

> <r_epik_Ionization_Penalty_Charging>
  0.0844

> <r_epik_Ionization_Penalty_Neutral>
  0.1844

> <r_epik_State_Penalty>
 -0.0000

> <r_epik_Charging_Adjusted_Penalty>
0.0844301155429032

> <i_epik_Tot_Q>
0

> <i_epik_Tot_abs_Q>
0

$$$$
