3sio_ligand
                    3D
 Schrodinger Suite 2020-3.
100107  0  0  1  0            999 V2000
  -37.6130   -7.8750  -19.3830 O   0  0  0  0  0  0
  -38.4430   -8.3070  -20.1510 C   0  0  0  0  0  0
  -38.1660   -9.2050  -21.3480 C   0  0  0  0  0  0
  -39.5170   -9.2460  -22.0830 C   0  0  2  0  0  0
  -39.4040   -8.5660  -23.4510 C   0  0  0  0  0  0
  -40.4450   -8.4800  -21.1490 C   0  0  0  0  0  0
  -41.6320   -8.2880  -21.3310 O   0  0  0  0  0  0
  -39.7550   -8.0520  -20.0750 N   0  0  0  0  0  0
  -40.3650   -7.4150  -18.9800 C   0  0  0  0  0  0
  -41.0100   -8.1820  -18.0120 C   0  0  0  0  0  0
  -41.6260   -7.5840  -16.9220 C   0  0  0  0  0  0
  -41.6170   -6.2060  -16.7760 C   0  0  0  0  0  0
  -40.9840   -5.4270  -17.7230 C   0  0  0  0  0  0
  -40.3550   -6.0120  -18.8330 C   0  0  0  0  0  0
  -39.6840   -5.1300  -19.8150 C   0  0  0  0  0  0
  -39.2540   -5.5660  -20.8690 O   0  0  0  0  0  0
  -39.5180   -3.8270  -19.5160 O   0  0  0  0  0  0
  -38.5480   -3.0440  -20.2560 C   0  0  0  0  0  0
  -38.2760   -1.7610  -19.4760 C   0  0  1  0  0  0
  -39.5990   -1.2170  -18.9370 C   0  0  0  0  0  0
  -39.4780   -0.7410  -17.4850 C   0  0  0  0  0  0
  -38.1980    0.0380  -17.2370 C   0  0  2  0  0  0
  -38.3210    1.3090  -17.9020 O   0  0  0  0  0  0
  -39.0960    2.1820  -17.0660 C   0  0  0  0  0  0
  -36.9430   -0.7210  -17.6310 C   0  0  1  0  0  0
  -37.2900   -2.0650  -18.3140 C   0  0  2  0  0  0
  -36.0720   -0.0610  -18.7500 C   0  0  2  0  0  0
  -36.9670    0.3270  -19.8370 N   0  3  1  0  0  0
  -36.3100    1.1880  -20.8200 C   0  0  0  0  0  0
  -35.9200    2.5170  -20.1740 C   0  0  0  0  0  0
  -37.6980   -0.7520  -20.4760 C   0  0  0  0  0  0
  -36.0730   -0.8830  -16.3760 C   0  0  2  0  0  0
  -35.6300    0.4670  -15.7810 C   0  0  0  0  0  0
  -34.1190    0.3300  -15.4510 C   0  0  2  0  0  0
  -33.3620    0.8930  -16.6760 C   0  0  1  0  0  0
  -32.0750    1.4040  -16.3180 O   0  0  0  0  0  0
  -32.2880    2.7830  -16.0040 C   0  0  0  0  0  0
  -33.2940   -0.0280  -17.8890 C   0  0  0  0  0  0
  -34.7650   -1.6910  -16.5680 C   0  0  2  0  0  0
  -33.8810   -1.2010  -15.3680 C   0  0  1  0  0  0
  -32.4930   -1.5310  -15.4520 O   0  0  0  0  0  0
  -32.2750   -2.8430  -14.9260 C   0  0  0  0  0  0
  -34.0670   -1.3400  -17.8830 C   0  0  2  0  0  0
  -33.1390   -2.4070  -18.1880 O   0  0  0  0  0  0
  -35.0890   -1.2330  -19.0640 C   0  0  2  0  0  0
  -34.4070   -1.1090  -20.3270 O   0  0  0  0  0  0
  -36.0050   -2.4880  -19.0770 C   0  0  1  0  0  0
  -35.3980   -3.6330  -18.4990 O   0  0  0  0  0  0
  -36.1080   -4.8000  -18.9170 C   0  0  0  0  0  0
  -37.3678   -8.7620  -21.9617 H   0  0  0  0  0  0
  -37.8496  -10.1980  -20.9960 H   0  0  0  0  0  0
  -39.8834  -10.2626  -22.2888 H   0  0  0  0  0  0
  -38.7275   -9.1474  -24.0947 H   0  0  0  0  0  0
  -39.0046   -7.5491  -23.3231 H   0  0  0  0  0  0
  -40.3988   -8.5133  -23.9175 H   0  0  0  0  0  0
  -41.0310   -9.2672  -18.1124 H   0  0  0  0  0  0
  -42.1212   -8.2034  -16.1742 H   0  0  0  0  0  0
  -42.1060   -5.7411  -15.9200 H   0  0  0  0  0  0
  -40.9723   -4.3432  -17.6075 H   0  0  0  0  0  0
  -37.6190   -3.6222  -20.3684 H   0  0  0  0  0  0
  -38.9526   -2.8034  -21.2502 H   0  0  0  0  0  0
  -39.9221   -0.3637  -19.5514 H   0  0  0  0  0  0
  -40.3634   -2.0071  -18.9759 H   0  0  0  0  0  0
  -40.3274   -0.0857  -17.2420 H   0  0  0  0  0  0
  -39.4822   -1.6113  -16.8123 H   0  0  0  0  0  0
  -38.0767    0.2568  -16.1658 H   0  0  0  0  0  0
  -39.2021    3.1607  -17.5567 H   0  0  0  0  0  0
  -38.5879    2.3099  -16.0988 H   0  0  0  0  0  0
  -40.0917    1.7441  -16.9020 H   0  0  0  0  0  0
  -37.6720   -2.7894  -17.5796 H   0  0  0  0  0  0
  -35.5552    0.8920  -18.5639 H   0  0  0  0  0  0
  -37.7508    0.9056  -19.3262 H   0  0  0  0  0  0
  -35.4047    0.6897  -21.1969 H   0  0  0  0  0  0
  -36.9978    1.3806  -21.6566 H   0  0  0  0  0  0
  -35.4271    3.1569  -20.9207 H   0  0  0  0  0  0
  -35.2296    2.3298  -19.3384 H   0  0  0  0  0  0
  -36.8227    3.0208  -19.7980 H   0  0  0  0  0  0
  -37.0046   -1.2670  -21.1571 H   0  0  0  0  0  0
  -38.5163   -0.3019  -21.0573 H   0  0  0  0  0  0
  -36.7587   -1.4309  -15.7129 H   0  0  0  0  0  0
  -35.8002    1.2659  -16.5177 H   0  0  0  0  0  0
  -36.2131    0.6761  -14.8720 H   0  0  0  0  0  0
  -33.7978    0.8472  -14.5348 H   0  0  0  0  0  0
  -33.9099    1.7845  -17.0150 H   0  0  0  0  0  0
  -31.3322    3.2455  -15.7169 H   0  0  0  0  0  0
  -32.9996    2.8632  -15.1690 H   0  0  0  0  0  0
  -32.6961    3.3007  -16.8846 H   0  0  0  0  0  0
  -33.6725    0.5035  -18.7746 H   0  0  0  0  0  0
  -32.2507   -0.3310  -18.0613 H   0  0  0  0  0  0
  -34.9451   -2.7750  -16.6186 H   0  0  0  0  0  0
  -34.0681   -1.7012  -14.4063 H   0  0  0  0  0  0
  -31.2056   -3.0919  -14.9930 H   0  0  0  0  0  0
  -32.8584   -3.5725  -15.5069 H   0  0  0  0  0  0
  -32.5934   -2.8736  -13.8735 H   0  0  0  0  0  0
  -32.3314   -2.6519  -17.4825 H   0  0  0  0  0  0
  -33.7129   -0.2728  -20.4975 H   0  0  0  0  0  0
  -36.1826   -2.8856  -20.0871 H   0  0  0  0  0  0
  -35.6421   -5.6916  -18.4721 H   0  0  0  0  0  0
  -36.0736   -4.8769  -20.0138 H   0  0  0  0  0  0
  -37.1550   -4.7300  -18.5870 H   0  0  0  0  0  0
  1  2  2  0  0  0
  2  3  1  0  0  0
  2  8  1  0  0  0
  3  4  1  0  0  0
  3 50  1  0  0  0
  3 51  1  0  0  0
  4  5  1  0  0  0
  4  6  1  0  0  0
  4 52  1  0  0  0
  5 53  1  0  0  0
  5 54  1  0  0  0
  5 55  1  0  0  0
  6  7  2  0  0  0
  6  8  1  0  0  0
  8  9  1  0  0  0
  9 10  2  0  0  0
  9 14  1  0  0  0
 10 11  1  0  0  0
 10 56  1  0  0  0
 11 12  2  0  0  0
 11 57  1  0  0  0
 12 13  1  0  0  0
 12 58  1  0  0  0
 13 14  2  0  0  0
 13 59  1  0  0  0
 14 15  1  0  0  0
 15 16  2  0  0  0
 15 17  1  0  0  0
 17 18  1  0  0  0
 18 19  1  0  0  0
 18 60  1  0  0  0
 18 61  1  0  0  0
 19 20  1  0  0  0
 19 26  1  0  0  0
 19 31  1  0  0  0
 20 21  1  0  0  0
 20 62  1  0  0  0
 20 63  1  0  0  0
 21 22  1  0  0  0
 21 64  1  0  0  0
 21 65  1  0  0  0
 22 23  1  0  0  0
 22 25  1  0  0  0
 22 66  1  0  0  0
 23 24  1  0  0  0
 24 67  1  0  0  0
 24 68  1  0  0  0
 24 69  1  0  0  0
 25 26  1  0  0  0
 25 27  1  0  0  0
 25 32  1  0  0  0
 26 47  1  0  0  0
 26 70  1  0  0  0
 27 28  1  0  0  0
 27 45  1  0  0  0
 27 71  1  0  0  0
 28 29  1  0  0  0
 28 31  1  0  0  0
 28 72  1  0  0  0
 29 30  1  0  0  0
 29 73  1  0  0  0
 29 74  1  0  0  0
 30 75  1  0  0  0
 30 76  1  0  0  0
 30 77  1  0  0  0
 31 78  1  0  0  0
 31 79  1  0  0  0
 32 33  1  0  0  0
 32 39  1  0  0  0
 32 80  1  0  0  0
 33 34  1  0  0  0
 33 81  1  0  0  0
 33 82  1  0  0  0
 34 35  1  0  0  0
 34 40  1  0  0  0
 34 83  1  0  0  0
 35 36  1  0  0  0
 35 38  1  0  0  0
 35 84  1  0  0  0
 36 37  1  0  0  0
 37 85  1  0  0  0
 37 86  1  0  0  0
 37 87  1  0  0  0
 38 43  1  0  0  0
 38 88  1  0  0  0
 38 89  1  0  0  0
 39 40  1  0  0  0
 39 43  1  0  0  0
 39 90  1  0  0  0
 40 41  1  0  0  0
 40 91  1  0  0  0
 41 42  1  0  0  0
 42 92  1  0  0  0
 42 93  1  0  0  0
 42 94  1  0  0  0
 43 44  1  0  0  0
 43 45  1  0  0  0
 44 95  1  0  0  0
 45 46  1  0  0  0
 45 47  1  0  0  0
 46 96  1  0  0  0
 47 48  1  0  0  0
 47 97  1  0  0  0
 48 49  1  0  0  0
 49 98  1  0  0  0
 49 99  1  0  0  0
 49100  1  0  0  0
M  CHG  1  28   1
M  END
> <s_m_source_file>
../3sio_ligand.sdf

> <i_m_source_file_index>
1

> <s_epik_input>
Tz1DMVtDSDJdW0NASF0oW0NIM10pQyg9TylOMWMyW2NIXVtjSF1bY0hdW2NIXWMyQyg9TylPW0NIMl1bQ0BdKFtDQEBIXTNbQ0BdNDU2KShbQ0gyXVtDSDJdW0NAQEhdNE9bQ0gzXSlbQ0gyXVtOQEgrXShbQ0gyXVtDSDNdKVtDQEBIXTVbQ0BdKFtPSF0pKFtDQEhdM09bQ0gzXSlbQ0BdNyhbT0hdKVtDQEBIXThbQ0BIXTZbQ0gyXVtDQEhdKFtDQEhdKFtDSDJdNylPW0NIM10pW0NAQEhdOE9bQ0gzXQ==

> <s_epik_cmdline>
J2VwaWtfYXBwJywgJy1pbWFlJywgJ2xpZ2FuZF9wcm8ubWFlJywgJy1vbWFlJywgJ2xpZ2FuZF9wcmVwLm1hZScsICctbXMnLCAnMScsICctcGgnLCAnNycsICctcGh0JywgJzAuNScsICctbnQn

> <r_lp_tautomer_probability>
1

> <r_epik_Ionization_Penalty>
  0.0535

> <r_epik_Ionization_Penalty_Charging>
  0.0535

> <r_epik_Ionization_Penalty_Neutral>
  0.0000

> <r_epik_State_Penalty>
  0.0459

> <r_epik_Charging_Adjusted_Penalty>
0.0993956884511227

> <i_epik_Tot_Q>
1

> <i_epik_Tot_abs_Q>
1

> <s_epik_Chemistry_Notes>
This compound has an ester and may undergo hydrolysis at high or low pH.

$$$$
