3sjf_ligand
                    3D
 Schrodinger Suite 2020-3.
 54 54  0  0  1  0            999 V2000
   20.1410   45.6330   45.8170 C   0  0  0  0  0  0
   18.6580   45.3960   43.9460 N   0  0  0  0  0  0
   19.6260   46.7780   46.0570 O   0  5  0  0  0  0
   19.9730   45.0010   44.4330 C   0  0  1  0  0  0
   20.9840   45.6360   43.4270 C   0  0  0  0  0  0
   13.9150   48.8470   40.1760 C   0  0  0  0  0  0
   17.8880   45.6370   40.3950 O   0  5  0  0  0  0
   18.4290   43.6550   42.5610 O   0  0  0  0  0  0
   22.2550   49.6670   43.9380 O   0  0  0  0  0  0
   16.9490   43.9160   39.3810 O   0  0  0  0  0  0
   23.6370   50.3040   51.3770 I   0  0  0  0  0  0
   23.3800   50.9130   48.1100 C   0  0  0  0  0  0
   23.5020   48.6570   48.5380 C   0  0  0  0  0  0
   23.2520   50.6810   46.7090 C   0  0  0  0  0  0
   23.4010   48.3830   47.1280 C   0  0  0  0  0  0
   23.4200   45.9410   42.6700 C   0  0  0  0  0  0
   22.4450   45.2170   43.6730 C   0  0  0  0  0  0
   23.3970   47.4750   42.6850 C   0  0  0  0  0  0
   14.8230   46.6160   41.1390 C   0  0  0  0  0  0
   14.7380   45.1400   41.1900 C   0  0  0  0  0  0
   23.6680   47.9680   44.0550 N   0  0  0  0  0  0
   16.7460   45.1250   42.7140 N   0  0  0  0  0  0
   13.2730   47.2280   40.3730 S   0  0  0  0  0  0
   17.0410   44.7160   40.3370 C   0  0  0  0  0  0
   17.9700   44.6910   43.0490 C   0  0  0  0  0  0
   23.1040   49.0510   44.5910 C   0  0  0  0  0  0
   23.4950   49.9380   49.1520 C   0  0  0  0  0  0
   23.2950   49.3740   46.1360 C   0  0  0  0  0  0
   16.0900   44.5040   41.5590 C   0  0  2  0  0  0
   20.7520   44.9090   46.6270 O   0  0  0  0  0  0
   18.1866   46.3167   44.3203 H   0  0  0  0  0  0
   20.0625   43.9070   44.5047 H   0  0  0  0  0  0
   20.7231   45.3306   42.4030 H   0  0  0  0  0  0
   20.9395   46.7323   43.5052 H   0  0  0  0  0  0
   13.1546   49.4883   39.7065 H   0  0  0  0  0  0
   14.8098   48.8114   39.5372 H   0  0  0  0  0  0
   14.1835   49.2573   41.1607 H   0  0  0  0  0  0
   23.3917   51.9564   48.4250 H   0  0  0  0  0  0
   23.5929   47.7959   49.2001 H   0  0  0  0  0  0
   23.1157   51.5370   46.0480 H   0  0  0  0  0  0
   23.4071   47.3407   46.8092 H   0  0  0  0  0  0
   24.4575   45.6525   42.8945 H   0  0  0  0  0  0
   23.1720   45.6455   41.6399 H   0  0  0  0  0  0
   22.7351   45.4842   44.6998 H   0  0  0  0  0  0
   22.5429   44.1300   43.5355 H   0  0  0  0  0  0
   24.1678   47.8599   42.0011 H   0  0  0  0  0  0
   22.4079   47.8301   42.3599 H   0  0  0  0  0  0
   14.9312   47.0125   42.1593 H   0  0  0  0  0  0
   15.6940   46.9125   40.5361 H   0  0  0  0  0  0
   13.9972   44.8413   41.9463 H   0  0  0  0  0  0
   14.4322   44.7561   40.2056 H   0  0  0  0  0  0
   24.3762   47.4306   44.7029 H   0  0  0  0  0  0
   16.2340   45.9204   43.2754 H   0  0  0  0  0  0
   15.9094   43.4638   41.8677 H   0  0  0  0  0  0
  1  3  1  0  0  0
  1  4  1  0  0  0
  1 30  2  0  0  0
  2  4  1  0  0  0
  2 25  1  0  0  0
  2 31  1  0  0  0
  4  5  1  0  0  0
  4 32  1  0  0  0
  5 17  1  0  0  0
  5 33  1  0  0  0
  5 34  1  0  0  0
  6 23  1  0  0  0
  6 35  1  0  0  0
  6 36  1  0  0  0
  6 37  1  0  0  0
  7 24  1  0  0  0
  8 25  2  0  0  0
  9 26  2  0  0  0
 10 24  2  0  0  0
 11 27  1  0  0  0
 12 14  2  0  0  0
 12 27  1  0  0  0
 12 38  1  0  0  0
 13 15  1  0  0  0
 13 27  2  0  0  0
 13 39  1  0  0  0
 14 28  1  0  0  0
 14 40  1  0  0  0
 15 28  2  0  0  0
 15 41  1  0  0  0
 16 17  1  0  0  0
 16 18  1  0  0  0
 16 42  1  0  0  0
 16 43  1  0  0  0
 17 44  1  0  0  0
 17 45  1  0  0  0
 18 21  1  0  0  0
 18 46  1  0  0  0
 18 47  1  0  0  0
 19 20  1  0  0  0
 19 23  1  0  0  0
 19 48  1  0  0  0
 19 49  1  0  0  0
 20 29  1  0  0  0
 20 50  1  0  0  0
 20 51  1  0  0  0
 21 26  1  0  0  0
 21 52  1  0  0  0
 22 25  1  0  0  0
 22 29  1  0  0  0
 22 53  1  0  0  0
 24 29  1  0  0  0
 26 28  1  0  0  0
 29 54  1  0  0  0
M  CHG  2   3  -1   7  -1
M  END
> <s_m_source_file>
../3sjf_ligand.sdf

> <i_m_source_file_index>
1

> <s_epik_input>
W0NIM11TW0NIMl1bQ0gyXVtDQEBIXShDKD1PKVtPSF0pW05IXUMoPU8pW05IXVtDQEhdKEMoPU8pW09IXSlbQ0gyXVtDSDJdW0NIMl1bQ0gyXVtOSF1DKD1PKWMoW2NIXVtjSF0xKVtjSF1bY0hdYzFJ

> <s_epik_cmdline>
J2VwaWtfYXBwJywgJy1pbWFlJywgJ2xpZ2FuZF9wcm8ubWFlJywgJy1vbWFlJywgJ2xpZ2FuZF9wcmVwLm1hZScsICctbXMnLCAnMScsICctcGgnLCAnNycsICctcGh0JywgJzAuNScsICctbnQn

> <r_lp_tautomer_probability>
1

> <r_epik_Ionization_Penalty>
  0.0019

> <r_epik_Ionization_Penalty_Charging>
  0.0018

> <r_epik_Ionization_Penalty_Neutral>
  0.0001

> <r_epik_State_Penalty>
 -0.0000

> <r_epik_Charging_Adjusted_Penalty>
0.00181424620129317

> <i_epik_Tot_Q>
-2

> <i_epik_Tot_abs_Q>
2

$$$$
