3sji_ligand
                    3D
 Schrodinger Suite 2020-3.
 87 89  0  0  1  0            999 V2000
   -9.5350   -8.6290   -2.6810 C   0  0  0  0  0  0
   -8.1250   -7.9930   -2.4610 C   0  0  0  0  0  0
   -9.6980   -9.8300   -2.5040 O   0  0  0  0  0  0
   -7.0810   -8.8920   -1.7830 C   0  0  1  0  0  0
   -5.7710   -8.2020   -1.4790 C   0  0  0  0  0  0
   -5.1340   -7.3990   -2.5850 C   0  0  0  0  0  0
   -4.6050   -8.0900   -3.7120 C   0  0  0  0  0  0
   -4.0040   -7.3560   -4.7690 C   0  0  0  0  0  0
   -3.9430   -5.9730   -4.6940 C   0  0  0  0  0  0
   -4.5000   -5.2560   -3.5150 C   0  0  0  0  0  0
   -5.0770   -5.9670   -2.4980 C   0  0  0  0  0  0
   -7.4060  -11.1250   -0.4400 N   0  0  0  0  0  0
   -7.6700  -11.8500    0.8160 C   0  0  1  0  0  0
   -8.7800  -12.8900    0.7400 C   0  0  0  0  0  0
  -10.1690  -12.3890    0.3890 C   0  0  1  0  0  0
  -11.3120  -13.3160   -0.0970 C   0  0  2  0  0  0
  -12.5480  -12.8350    0.5280 N   0  3  0  0  0  0
  -11.1290  -14.5230   -0.7580 O   0  0  0  0  0  0
   -6.4170  -12.3810    1.4550 C   0  0  0  0  0  0
   -5.4990  -11.3310    2.0770 C   0  0  0  0  0  0
   -6.1030  -10.5570    3.2430 C   0  0  0  0  0  0
   -6.0330   -9.2440    3.2730 O   0  0  0  0  0  0
   -6.7760  -11.1620    4.0920 O   0  0  0  0  0  0
   -7.6590   -9.6740   -0.5580 C   0  0  0  0  0  0
   -8.2340   -9.0650    0.3270 O   0  0  0  0  0  0
   -6.6230   -8.5410    4.3620 C   0  0  0  0  0  0
   -6.3460   -7.0440    4.4880 C   0  0  0  0  0  0
  -10.7320   -7.7770   -3.1900 C   0  0  1  0  0  0
  -11.4790   -8.4650   -4.2230 N   0  0  0  0  0  0
  -11.6270   -7.9270   -5.5610 C   0  0  0  0  0  0
  -11.0560   -6.9050   -5.8940 O   0  0  0  0  0  0
  -11.6160   -7.2390   -2.0780 C   0  0  0  0  0  0
  -12.4630   -6.0780   -2.4870 C   0  0  0  0  0  0
   -3.3760   -5.2780   -5.6800 F   0  0  0  0  0  0
  -10.9320   -7.0560   -0.7570 C   0  0  0  0  0  0
  -12.3740  -11.3770    0.7500 C   0  0  0  0  0  0
  -10.8700  -11.1660    1.0040 C   0  0  0  0  0  0
  -12.4960   -8.6930   -6.5500 C   0  0  0  0  0  0
  -12.8370   -8.3200   -7.8240 C   0  0  0  0  0  0
  -13.6530   -9.3450   -8.3670 C   0  0  0  0  0  0
  -13.8000  -10.3570   -7.3790 O   0  0  0  0  0  0
  -13.1060   -9.9770   -6.2710 N   0  0  0  0  0  0
  -14.2690   -9.3720   -9.7510 C   0  0  0  0  0  0
   -7.6967   -7.7058   -3.4326 H   0  0  0  0  0  0
   -8.2203   -7.1011   -1.8243 H   0  0  0  0  0  0
   -6.7982   -9.6235   -2.5543 H   0  0  0  0  0  0
   -5.9137   -7.4930   -0.6501 H   0  0  0  0  0  0
   -5.0188   -8.9524   -1.1942 H   0  0  0  0  0  0
   -4.6610   -9.1773   -3.7633 H   0  0  0  0  0  0
   -3.5932   -7.8769   -5.6339 H   0  0  0  0  0  0
   -4.4486   -4.1685   -3.4616 H   0  0  0  0  0  0
   -5.4892   -5.4514   -1.6306 H   0  0  0  0  0  0
   -7.0125  -11.6644   -1.3142 H   0  0  0  0  0  0
   -8.0537  -11.0525    1.4693 H   0  0  0  0  0  0
   -8.5313  -13.6362   -0.0290 H   0  0  0  0  0  0
   -8.8827  -13.3886    1.7151 H   0  0  0  0  0  0
   -9.4462  -12.0633   -0.3735 H   0  0  0  0  0  0
  -11.5096  -13.7573   -1.0850 H   0  0  0  0  0  0
  -13.3979  -13.0302   -0.1425 H   0  0  0  0  0  0
  -12.7051  -13.3602    1.4817 H   0  0  0  0  0  0
  -10.1473  -14.7715   -1.1876 H   0  0  0  0  0  0
   -6.6845  -13.0768    2.2639 H   0  0  0  0  0  0
   -5.8162  -12.9097    0.7003 H   0  0  0  0  0  0
   -4.5903  -11.8188    2.4596 H   0  0  0  0  0  0
   -5.2228  -10.5876    1.3147 H   0  0  0  0  0  0
   -7.7182   -8.6233    4.3013 H   0  0  0  0  0  0
   -6.2747   -8.9754    5.3107 H   0  0  0  0  0  0
   -6.8674   -6.6478    5.3718 H   0  0  0  0  0  0
   -6.7074   -6.5271    3.5867 H   0  0  0  0  0  0
   -5.2638   -6.8792    4.5961 H   0  0  0  0  0  0
  -10.3471   -6.8883   -3.7115 H   0  0  0  0  0  0
  -11.9583   -9.4307   -4.0045 H   0  0  0  0  0  0
  -12.3372   -8.0452   -1.8780 H   0  0  0  0  0  0
  -12.9280   -6.2886   -3.4614 H   0  0  0  0  0  0
  -11.8366   -5.1773   -2.5667 H   0  0  0  0  0  0
  -13.2478   -5.9134   -1.7340 H   0  0  0  0  0  0
  -10.3314   -7.9487   -0.5283 H   0  0  0  0  0  0
  -11.6869   -6.9106    0.0297 H   0  0  0  0  0  0
  -10.2757   -6.1744   -0.8029 H   0  0  0  0  0  0
  -12.7082  -10.8278   -0.1425 H   0  0  0  0  0  0
  -12.9724  -11.0643    1.6184 H   0  0  0  0  0  0
  -10.6486  -11.1194    2.0805 H   0  0  0  0  0  0
  -10.5062  -10.2504    0.5149 H   0  0  0  0  0  0
  -12.5356   -7.4019   -8.3284 H   0  0  0  0  0  0
  -13.9863   -8.4593  -10.2960 H   0  0  0  0  0  0
  -15.3644   -9.4226   -9.6639 H   0  0  0  0  0  0
  -13.9036  -10.2537  -10.2978 H   0  0  0  0  0  0
  1  2  1  0  0  0
  1  3  2  0  0  0
  1 28  1  0  0  0
  2  4  1  0  0  0
  2 44  1  0  0  0
  2 45  1  0  0  0
  4  5  1  0  0  0
  4 24  1  0  0  0
  4 46  1  0  0  0
  5  6  1  0  0  0
  5 47  1  0  0  0
  5 48  1  0  0  0
  6  7  2  0  0  0
  6 11  1  0  0  0
  7  8  1  0  0  0
  7 49  1  0  0  0
  8  9  2  0  0  0
  8 50  1  0  0  0
  9 10  1  0  0  0
  9 34  1  0  0  0
 10 11  2  0  0  0
 10 51  1  0  0  0
 11 52  1  0  0  0
 12 13  1  0  0  0
 12 24  1  0  0  0
 12 53  1  0  0  0
 13 14  1  0  0  0
 13 19  1  0  0  0
 13 54  1  0  0  0
 14 15  1  0  0  0
 14 55  1  0  0  0
 14 56  1  0  0  0
 15 16  1  0  0  0
 15 37  1  0  0  0
 15 57  1  0  0  0
 16 17  1  0  0  0
 16 18  1  0  0  0
 16 58  1  0  0  0
 17 36  1  0  0  0
 17 59  1  0  0  0
 17 60  1  0  0  0
 18 61  1  0  0  0
 19 20  1  0  0  0
 19 62  1  0  0  0
 19 63  1  0  0  0
 20 21  1  0  0  0
 20 64  1  0  0  0
 20 65  1  0  0  0
 21 22  1  0  0  0
 21 23  2  0  0  0
 22 26  1  0  0  0
 24 25  2  0  0  0
 26 27  1  0  0  0
 26 66  1  0  0  0
 26 67  1  0  0  0
 27 68  1  0  0  0
 27 69  1  0  0  0
 27 70  1  0  0  0
 28 29  1  0  0  0
 28 32  1  0  0  0
 28 71  1  0  0  0
 29 30  1  0  0  0
 29 72  1  0  0  0
 30 31  2  0  0  0
 30 38  1  0  0  0
 32 33  1  0  0  0
 32 35  1  0  0  0
 32 73  1  0  0  0
 33 74  1  0  0  0
 33 75  1  0  0  0
 33 76  1  0  0  0
 35 77  1  0  0  0
 35 78  1  0  0  0
 35 79  1  0  0  0
 36 37  1  0  0  0
 36 80  1  0  0  0
 36 81  1  0  0  0
 37 82  1  0  0  0
 37 83  1  0  0  0
 38 39  1  0  0  0
 38 42  2  0  0  0
 39 40  2  0  0  0
 39 84  1  0  0  0
 40 41  1  0  0  0
 40 43  1  0  0  0
 41 42  1  0  0  0
 43 85  1  0  0  0
 43 86  1  0  0  0
 43 87  1  0  0  0
M  CHG  1  17   1
M  END
> <s_m_source_file>
../3sji_ligand.sdf

> <i_m_source_file_index>
1

> <s_epik_input>
bjFvYyhbQ0gzXSlbY0hdYzFDKD1PKVtOSF1bQ0BASF0oW0NIXShbQ0gzXSlbQ0gzXSlDKD1PKVtDSDJdW0NAQEhdKFtDSDJdYzJbY0hdW2NIXWMoRilbY0hdW2NIXTIpQyg9TylbTkhdW0NAQEhdKFtDSDJdW0NASF0zW0NAQEhdKFtPSF0pW05IMitdW0NIMl1bQ0gyXTMpW0NIMl1bQ0gyXUMoPU8pT1tDSDJdW0NIM10=

> <s_epik_cmdline>
J2VwaWtfYXBwJywgJy1pbWFlJywgJ2xpZ2FuZF9wcm8ubWFlJywgJy1vbWFlJywgJ2xpZ2FuZF9wcmVwLm1hZScsICctbXMnLCAnMScsICctcGgnLCAnNycsICctcGh0JywgJzAuNScsICctbnQn

> <r_lp_tautomer_probability>
0.999999960000001

> <r_epik_Ionization_Penalty>
  0.0649

> <r_epik_Ionization_Penalty_Charging>
  0.0078

> <r_epik_Ionization_Penalty_Neutral>
  0.0571

> <r_epik_State_Penalty>
  0.0493

> <r_epik_Charging_Adjusted_Penalty>
0.0570596233990373

> <i_epik_Tot_Q>
1

> <i_epik_Tot_abs_Q>
1

> <s_epik_Chemistry_Notes>
This compound has an ester and may undergo hydrolysis at high or low pH. This compound contains an acetal/aminal-like group ( X-CH(R)-Y where X, Y are N, S, or O) that may be acid/base labile, releasing an aldehyde.

$$$$
