3sjo_ligand
                    3D
 Schrodinger Suite 2020-3.
 87 89  0  0  1  0            999 V2000
   10.2960   -8.1980    4.1650 C   0  0  0  0  0  0
    8.9020   -7.6250    3.9430 C   0  0  0  0  0  0
   10.4740   -9.3950    4.1050 O   0  0  0  0  0  0
    7.9230   -8.5150    3.1950 C   0  0  1  0  0  0
    6.6460   -7.8040    2.7850 C   0  0  0  0  0  0
    5.9610   -7.0570    3.9000 C   0  0  0  0  0  0
    5.3060   -7.8180    4.9860 C   0  0  0  0  0  0
    4.6370   -7.0880    6.0900 C   0  0  0  0  0  0
    4.6480   -5.6890    6.1070 C   0  0  0  0  0  0
    5.3190   -4.9190    5.0090 C   0  0  0  0  0  0
    5.9760   -5.6440    3.9160 C   0  0  0  0  0  0
    8.2670  -10.7400    1.9500 N   0  0  0  0  0  0
    8.6030  -11.4730    0.7240 C   0  0  1  0  0  0
    9.7270  -12.4700    0.9600 C   0  0  0  0  0  0
   11.0400  -11.7810    1.3310 C   0  0  1  0  0  0
   12.1670  -12.6480    1.9070 C   0  0  2  0  0  0
   13.4730  -12.1950    1.2880 N   0  3  0  0  0  0
   11.9640  -13.9770    2.1310 O   0  0  0  0  0  0
    7.3760  -12.0510    0.0560 C   0  0  0  0  0  0
    6.4450  -10.9940   -0.5070 C   0  0  0  0  0  0
    7.0760  -10.1940   -1.6410 C   0  0  0  0  0  0
    7.1080   -8.9040   -1.5840 O   0  0  0  0  0  0
    7.8530  -10.7830   -2.4300 O   0  0  0  0  0  0
    8.5630   -9.3130    2.0540 C   0  0  0  0  0  0
    9.1700   -8.7450    1.1660 O   0  0  0  0  0  0
    7.7990   -8.2130   -2.5890 C   0  0  0  0  0  0
    8.2060   -6.7870   -2.2910 C   0  0  0  0  0  0
   11.4090   -7.2950    4.7210 C   0  0  1  0  0  0
   12.3650   -8.0180    5.5500 N   0  0  0  0  0  0
   12.4690   -7.7530    6.9690 C   0  0  0  0  0  0
   11.8860   -6.7960    7.4590 O   0  0  0  0  0  0
   12.1070   -6.4060    3.7090 C   0  0  0  0  0  0
   13.0860   -5.4930    4.3870 C   0  0  0  0  0  0
    4.0290   -5.0390    7.0910 F   0  0  0  0  0  0
   12.7240   -7.1740    2.5840 C   0  0  0  0  0  0
   13.1760  -10.8560    0.6680 C   0  0  0  0  0  0
   11.6780  -10.8360    0.3400 C   0  0  0  0  0  0
   13.4190   -8.5970    7.8020 C   0  0  0  0  0  0
   13.7900   -8.4180    9.2970 C   0  0  0  0  0  0
   14.7450   -9.4560    9.6350 C   0  0  0  0  0  0
   14.9830  -10.2480    8.4650 O   0  0  0  0  0  0
   14.1200   -9.6770    7.3310 N   0  0  0  0  0  0
   15.3860   -9.6700   10.9780 C   0  0  0  0  0  0
    8.4350   -7.4097    4.9154 H   0  0  0  0  0  0
    8.9761   -6.6963    3.3582 H   0  0  0  0  0  0
    7.6058   -9.2598    3.9398 H   0  0  0  0  0  0
    6.8721   -7.0684    1.9990 H   0  0  0  0  0  0
    5.9235   -8.5397    2.4019 H   0  0  0  0  0  0
    5.3149   -8.9079    4.9750 H   0  0  0  0  0  0
    4.1379   -7.6401    6.8864 H   0  0  0  0  0  0
    5.3186   -3.8291    5.0229 H   0  0  0  0  0  0
    6.4747   -5.0940    3.1179 H   0  0  0  0  0  0
    7.7918  -11.2648    2.7919 H   0  0  0  0  0  0
    8.9931  -10.7247    0.0184 H   0  0  0  0  0  0
    9.4509  -13.1458    1.7829 H   0  0  0  0  0  0
    9.8952  -13.0564    0.0447 H   0  0  0  0  0  0
   10.5853  -11.1663    2.1218 H   0  0  0  0  0  0
   12.1942  -12.6378    3.0066 H   0  0  0  0  0  0
   14.2416  -12.1153    2.0709 H   0  0  0  0  0  0
   13.7940  -12.9270    0.5323 H   0  0  0  0  0  0
   11.0206  -14.3213    2.5799 H   0  0  0  0  0  0
    7.6835  -12.6994   -0.7777 H   0  0  0  0  0  0
    6.8038  -12.6407    0.7873 H   0  0  0  0  0  0
    5.5380  -11.4763   -0.9004 H   0  0  0  0  0  0
    6.1685  -10.2872    0.2892 H   0  0  0  0  0  0
    8.7341   -8.7433   -2.8220 H   0  0  0  0  0  0
    7.1738   -8.1579   -3.4924 H   0  0  0  0  0  0
    8.7361   -6.3680   -3.1590 H   0  0  0  0  0  0
    8.8691   -6.7707   -1.4135 H   0  0  0  0  0  0
    7.3088   -6.1853   -2.0838 H   0  0  0  0  0  0
   10.9028   -6.6054    5.4125 H   0  0  0  0  0  0
   13.0205   -8.7774    5.0987 H   0  0  0  0  0  0
   11.3447   -5.7744    3.2294 H   0  0  0  0  0  0
   12.5812   -4.9551    5.2030 H   0  0  0  0  0  0
   13.4778   -4.7688    3.6576 H   0  0  0  0  0  0
   13.9167   -6.0859    4.7974 H   0  0  0  0  0  0
   11.9652   -7.8245    2.1246 H   0  0  0  0  0  0
   13.5498   -7.7898    2.9699 H   0  0  0  0  0  0
   13.1109   -6.4727    1.8300 H   0  0  0  0  0  0
   13.4284  -10.0576    1.3813 H   0  0  0  0  0  0
   13.7757  -10.7340   -0.2461 H   0  0  0  0  0  0
   11.4843  -11.1916   -0.6827 H   0  0  0  0  0  0
   11.2510   -9.8300    0.4654 H   0  0  0  0  0  0
   13.4040   -7.6526    9.9702 H   0  0  0  0  0  0
   15.0161   -8.9134   11.6856 H   0  0  0  0  0  0
   16.4780   -9.5791   10.8817 H   0  0  0  0  0  0
   15.1329  -10.6740   11.3493 H   0  0  0  0  0  0
  1  2  1  0  0  0
  1  3  2  0  0  0
  1 28  1  0  0  0
  2  4  1  0  0  0
  2 44  1  0  0  0
  2 45  1  0  0  0
  4  5  1  0  0  0
  4 24  1  0  0  0
  4 46  1  0  0  0
  5  6  1  0  0  0
  5 47  1  0  0  0
  5 48  1  0  0  0
  6  7  2  0  0  0
  6 11  1  0  0  0
  7  8  1  0  0  0
  7 49  1  0  0  0
  8  9  2  0  0  0
  8 50  1  0  0  0
  9 10  1  0  0  0
  9 34  1  0  0  0
 10 11  2  0  0  0
 10 51  1  0  0  0
 11 52  1  0  0  0
 12 13  1  0  0  0
 12 24  1  0  0  0
 12 53  1  0  0  0
 13 14  1  0  0  0
 13 19  1  0  0  0
 13 54  1  0  0  0
 14 15  1  0  0  0
 14 55  1  0  0  0
 14 56  1  0  0  0
 15 16  1  0  0  0
 15 37  1  0  0  0
 15 57  1  0  0  0
 16 17  1  0  0  0
 16 18  1  0  0  0
 16 58  1  0  0  0
 17 36  1  0  0  0
 17 59  1  0  0  0
 17 60  1  0  0  0
 18 61  1  0  0  0
 19 20  1  0  0  0
 19 62  1  0  0  0
 19 63  1  0  0  0
 20 21  1  0  0  0
 20 64  1  0  0  0
 20 65  1  0  0  0
 21 22  1  0  0  0
 21 23  2  0  0  0
 22 26  1  0  0  0
 24 25  2  0  0  0
 26 27  1  0  0  0
 26 66  1  0  0  0
 26 67  1  0  0  0
 27 68  1  0  0  0
 27 69  1  0  0  0
 27 70  1  0  0  0
 28 29  1  0  0  0
 28 32  1  0  0  0
 28 71  1  0  0  0
 29 30  1  0  0  0
 29 72  1  0  0  0
 30 31  2  0  0  0
 30 38  1  0  0  0
 32 33  1  0  0  0
 32 35  1  0  0  0
 32 73  1  0  0  0
 33 74  1  0  0  0
 33 75  1  0  0  0
 33 76  1  0  0  0
 35 77  1  0  0  0
 35 78  1  0  0  0
 35 79  1  0  0  0
 36 37  1  0  0  0
 36 80  1  0  0  0
 36 81  1  0  0  0
 37 82  1  0  0  0
 37 83  1  0  0  0
 38 39  1  0  0  0
 38 42  2  0  0  0
 39 40  2  0  0  0
 39 84  1  0  0  0
 40 41  1  0  0  0
 40 43  1  0  0  0
 41 42  1  0  0  0
 43 85  1  0  0  0
 43 86  1  0  0  0
 43 87  1  0  0  0
M  CHG  1  17   1
M  END
> <s_m_source_file>
../3sjo_ligand.sdf

> <i_m_source_file_index>
1

> <s_epik_input>
bjFvYyhbQ0gzXSlbY0hdYzFDKD1PKVtOSF1bQ0BASF0oW0NIXShbQ0gzXSlbQ0gzXSlDKD1PKVtDSDJdW0NAQEhdKFtDSDJdYzJbY0hdW2NIXWMoRilbY0hdW2NIXTIpQyg9TylbTkhdW0NAQEhdKFtDSDJdW0NASF0zW0NAQEhdKFtPSF0pW05IMitdW0NIMl1bQ0gyXTMpW0NIMl1bQ0gyXUMoPU8pT1tDSDJdW0NIM10=

> <s_epik_cmdline>
J2VwaWtfYXBwJywgJy1pbWFlJywgJ2xpZ2FuZF9wcm8ubWFlJywgJy1vbWFlJywgJ2xpZ2FuZF9wcmVwLm1hZScsICctbXMnLCAnMScsICctcGgnLCAnNycsICctcGh0JywgJzAuNScsICctbnQn

> <r_lp_tautomer_probability>
0.999999960000001

> <r_epik_Ionization_Penalty>
  0.0649

> <r_epik_Ionization_Penalty_Charging>
  0.0078

> <r_epik_Ionization_Penalty_Neutral>
  0.0571

> <r_epik_State_Penalty>
  0.0493

> <r_epik_Charging_Adjusted_Penalty>
0.0570596233990373

> <i_epik_Tot_Q>
1

> <i_epik_Tot_abs_Q>
1

> <s_epik_Chemistry_Notes>
This compound has an ester and may undergo hydrolysis at high or low pH. This compound contains an acetal/aminal-like group ( X-CH(R)-Y where X, Y are N, S, or O) that may be acid/base labile, releasing an aldehyde.

$$$$
