3sk2_ligand
                    3D
 Schrodinger Suite 2020-3.
 32 34  0  0  1  0            999 V2000
    4.1670   82.6450   25.9790 C   0  0  0  0  0  0
    3.9240   88.8940   22.6010 O   0  0  0  0  0  0
   -3.3060   84.7210   25.3720 O   0  0  0  0  0  0
    4.0820   86.9570   23.7980 O   0  5  0  0  0  0
   -0.0420   89.3320   23.2260 C   0  0  0  0  0  0
    1.3100   89.1380   23.0430 C   0  0  0  0  0  0
   -0.1960   83.0250   26.7020 C   0  0  0  0  0  0
    1.1810   82.8550   26.4850 C   0  0  0  0  0  0
   -0.7790   88.3390   23.8160 C   0  0  0  0  0  0
   -2.3720   84.3180   26.4640 C   0  0  0  0  0  0
   -0.8160   86.1890   24.8850 N   0  0  0  0  0  0
    1.8510   85.8350   24.5040 N   0  0  0  0  0  0
    3.2460   83.6670   25.4630 O   0  0  0  0  0  0
    3.3670   87.9180   23.2640 C   0  0  0  0  0  0
   -0.8750   84.1410   26.1650 C   0  0  0  0  0  0
    1.8780   83.8040   25.7140 C   0  0  0  0  0  0
    1.9290   87.9870   23.4750 C   0  0  0  0  0  0
   -0.1390   87.1750   24.2810 C   0  0  0  0  0  0
   -0.1880   85.0860   25.4150 C   0  0  0  0  0  0
    1.2310   86.9790   24.0840 C   0  0  0  0  0  0
    1.1890   84.9040   25.1970 C   0  0  0  0  0  0
    5.1770   82.8286   25.5839 H   0  0  0  0  0  0
    3.8245   81.6490   25.6616 H   0  0  0  0  0  0
    4.1889   82.6923   27.0778 H   0  0  0  0  0  0
   -4.3778   84.8482   25.5840 H   0  0  0  0  0  0
   -0.5170   90.2597   22.9068 H   0  0  0  0  0  0
    1.8995   89.9095   22.5475 H   0  0  0  0  0  0
   -0.7454   82.2896   27.2897 H   0  0  0  0  0  0
    1.7041   81.9978   26.9089 H   0  0  0  0  0  0
   -1.8578   88.4502   23.9249 H   0  0  0  0  0  0
   -2.3969   85.0719   27.2646 H   0  0  0  0  0  0
   -2.6803   83.3428   26.8690 H   0  0  0  0  0  0
  1 13  1  0  0  0
  1 22  1  0  0  0
  1 23  1  0  0  0
  1 24  1  0  0  0
  2 14  2  0  0  0
  3 10  1  0  0  0
  3 25  1  0  0  0
  4 14  1  0  0  0
  5  6  2  0  0  0
  5  9  1  0  0  0
  5 26  1  0  0  0
  6 17  1  0  0  0
  6 27  1  0  0  0
  7  8  1  0  0  0
  7 15  2  0  0  0
  7 28  1  0  0  0
  8 16  2  0  0  0
  8 29  1  0  0  0
  9 18  2  0  0  0
  9 30  1  0  0  0
 10 15  1  0  0  0
 10 31  1  0  0  0
 10 32  1  0  0  0
 11 18  1  0  0  0
 11 19  2  0  0  0
 12 20  1  0  0  0
 12 21  2  0  0  0
 13 16  1  0  0  0
 14 17  1  0  0  0
 15 19  1  0  0  0
 16 21  1  0  0  0
 17 20  2  0  0  0
 18 20  1  0  0  0
 19 21  1  0  0  0
M  CHG  1   4  -1
M  END
> <s_m_source_file>
../3sk2_ligand.sdf

> <i_m_source_file_index>
1

> <s_epik_input>
W0NIM11PYzFbY0hdW2NIXWMoW0NIMl1bT0hdKWMobjIpYzFuYyhjMjMpYyhDKD1PKVtPSF0pW2NIXVtjSF1bY0hdMw==

> <s_epik_cmdline>
J2VwaWtfYXBwJywgJy1pbWFlJywgJ2xpZ2FuZF9wcm8ubWFlJywgJy1vbWFlJywgJ2xpZ2FuZF9wcmVwLm1hZScsICctbXMnLCAnMScsICctcGgnLCAnNycsICctcGh0JywgJzAuNScsICctbnQn

> <r_lp_tautomer_probability>
1

> <r_epik_Ionization_Penalty>
  0.0000

> <r_epik_Ionization_Penalty_Charging>
  0.0000

> <r_epik_Ionization_Penalty_Neutral>
  0.0000

> <r_epik_State_Penalty>
 -0.0000

> <r_epik_Charging_Adjusted_Penalty>
1.38935075606893e-05

> <i_epik_Tot_Q>
-1

> <i_epik_Tot_abs_Q>
1

$$$$
