3ska_ligand
                    3D
 Schrodinger Suite 2020-3.
 45 48  0  0  1  0            999 V2000
   23.1410   46.1710   45.5350 C   0  0  0  0  0  0
   23.4460   47.0140   46.5570 C   0  0  0  0  0  0
   22.5840   48.1390   46.8960 C   0  0  0  0  0  0
   21.4610   48.3640   46.1740 C   0  0  0  0  0  0
   21.1090   47.5130   45.1490 N   0  0  0  0  0  0
   21.8530   46.4130   44.7760 C   0  0  0  0  0  0
   26.9720   43.5420   42.3960 C   0  0  0  0  0  0
   27.5840   44.6090   43.0630 C   0  0  0  0  0  0
   28.7680   45.1400   42.5450 C   0  0  0  0  0  0
   29.3380   44.6730   41.4100 N   0  0  0  0  0  0
   28.7310   43.6360   40.7830 C   0  0  0  0  0  0
   27.5710   43.0370   41.2310 C   0  0  0  0  0  0
   25.0390   42.7900   48.0340 C   0  0  0  0  0  0
   25.7770   41.8890   47.2540 C   0  0  0  0  0  0
   25.8830   42.0510   45.8840 C   0  0  0  0  0  0
   24.4020   43.8930   47.4550 C   0  0  0  0  0  0
   24.4890   44.0760   46.0650 C   0  0  0  0  0  0
   25.2200   43.1500   45.3090 C   0  0  0  0  0  0
   25.1160   43.5490   44.0090 N   0  0  0  0  0  0
   24.3710   44.6910   43.8820 C   0  0  0  0  0  0
   23.9640   45.0360   45.1680 C   0  0  0  0  0  0
   24.1120   45.2850   42.5770 C   0  0  0  0  0  0
   23.8030   44.6510   41.5900 O   0  0  0  0  0  0
   25.7100   42.8770   42.8560 C   0  0  0  0  0  0
   24.9450   42.5360   49.4940 C   0  0  0  0  0  0
   24.0550   46.6290   42.5910 O   0  5  0  0  0  0
   24.4710   41.3030   49.7530 F   0  0  0  0  0  0
   26.1380   42.6110   50.1120 F   0  0  0  0  0  0
   24.1600   43.4100   50.1460 F   0  0  0  0  0  0
   21.4870   45.6570   43.8610 O   0  0  0  0  0  0
   29.3730   46.1860   43.2360 N   0  0  0  0  0  0
   24.3545   46.8449   47.1351 H   0  0  0  0  0  0
   22.8420   48.7960   47.7266 H   0  0  0  0  0  0
   20.8316   49.2234   46.4049 H   0  0  0  0  0  0
   20.1877   47.6938   44.5759 H   0  0  0  0  0  0
   27.1442   45.0193   43.9720 H   0  0  0  0  0  0
   29.1863   43.2520   39.8701 H   0  0  0  0  0  0
   27.1322   42.1953   40.6952 H   0  0  0  0  0  0
   26.2754   41.0471   47.7345 H   0  0  0  0  0  0
   26.4579   41.3541   45.2742 H   0  0  0  0  0  0
   23.8470   44.5991   48.0727 H   0  0  0  0  0  0
   24.9724   42.8860   42.0400 H   0  0  0  0  0  0
   25.9268   41.8374   43.1428 H   0  0  0  0  0  0
   28.9166   46.5719   44.1595 H   0  0  0  0  0  0
   30.3075   46.6267   42.8586 H   0  0  0  0  0  0
  1  2  2  0  0  0
  1  6  1  0  0  0
  1 21  1  0  0  0
  2  3  1  0  0  0
  2 32  1  0  0  0
  3  4  2  0  0  0
  3 33  1  0  0  0
  4  5  1  0  0  0
  4 34  1  0  0  0
  5  6  1  0  0  0
  5 35  1  0  0  0
  6 30  2  0  0  0
  7  8  2  0  0  0
  7 12  1  0  0  0
  7 24  1  0  0  0
  8  9  1  0  0  0
  8 36  1  0  0  0
  9 10  2  0  0  0
  9 31  1  0  0  0
 10 11  1  0  0  0
 11 12  2  0  0  0
 11 37  1  0  0  0
 12 38  1  0  0  0
 13 14  2  0  0  0
 13 16  1  0  0  0
 13 25  1  0  0  0
 14 15  1  0  0  0
 14 39  1  0  0  0
 15 18  2  0  0  0
 15 40  1  0  0  0
 16 17  2  0  0  0
 16 41  1  0  0  0
 17 18  1  0  0  0
 17 21  1  0  0  0
 18 19  1  0  0  0
 19 20  1  0  0  0
 19 24  1  0  0  0
 20 21  2  0  0  0
 20 22  1  0  0  0
 22 23  2  0  0  0
 22 26  1  0  0  0
 24 42  1  0  0  0
 24 43  1  0  0  0
 25 27  1  0  0  0
 25 28  1  0  0  0
 25 29  1  0  0  0
 31 44  1  0  0  0
 31 45  1  0  0  0
M  CHG  1  26  -1
M  END
> <s_m_source_file>
../3ska_ligand.sdf

> <i_m_source_file_index>
1

> <s_epik_input>
Tz1jMVtuSF1bY0hdW2NIXVtjSF1jMS1jMmMoQyg9TylbT0hdKW4oYyhjMjMpW2NIXVtjSF1jKFtjSF0zKUMoRikoRilGKVtDSDJdYzRbY0hdYyhbTkgyXSluW2NIXVtjSF00

> <s_epik_cmdline>
J2VwaWtfYXBwJywgJy1pbWFlJywgJ2xpZ2FuZF9wcm8ubWFlJywgJy1vbWFlJywgJ2xpZ2FuZF9wcmVwLm1hZScsICctbXMnLCAnMScsICctcGgnLCAnNycsICctcGh0JywgJzAuNScsICctbnQn

> <r_lp_tautomer_probability>
0.998999772427852

> <r_epik_Ionization_Penalty>
  0.3002

> <r_epik_Ionization_Penalty_Charging>
  0.0007

> <r_epik_Ionization_Penalty_Neutral>
  0.2995

> <r_epik_State_Penalty>
  0.2930

> <r_epik_Charging_Adjusted_Penalty>
0.293643729958229

> <i_epik_Tot_Q>
-1

> <i_epik_Tot_abs_Q>
1

$$$$
