3skf_ligand
                    3D
 Schrodinger Suite 2020-3.
100103  0  0  1  0            999 V2000
   87.3800   59.8290   81.9580 C   0  0  0  0  0  0
   78.9510   66.5100   82.4900 C   0  0  0  0  0  0
   86.4010   58.8870   82.6460 C   0  0  0  0  0  0
   86.8570   60.8660   80.9700 C   0  0  0  0  0  0
   79.4550   65.8650   83.7800 C   0  0  0  0  0  0
   77.7220   65.9360   81.7800 C   0  0  0  0  0  0
   80.2990   59.5200   90.4450 C   0  0  0  0  0  0
   84.9100   58.9900   82.3430 C   0  0  0  0  0  0
   85.3670   60.9740   80.6650 C   0  0  0  0  0  0
   78.7240   64.6460   84.3550 C   0  0  0  0  0  0
   77.0020   64.7190   82.3560 C   0  0  0  0  0  0
   80.0870   58.7180   89.1580 C   0  0  0  0  0  0
   79.1070   60.0930   91.2210 C   0  0  0  0  0  0
   77.4740   59.0630   89.4300 C   0  0  0  0  0  0
   84.3940   60.0340   81.3610 C   0  0  0  0  0  0
   77.4940   64.0750   83.6460 C   0  0  0  0  0  0
   78.6640   58.4910   88.6540 C   0  0  0  0  0  0
   77.6830   59.8660   90.7090 C   0  0  0  0  0  0
   80.0770   61.7620   79.7970 C   0  0  3  0  0  0
   81.9500   62.4300   77.4850 C   0  0  0  0  0  0
   80.0280   61.1450   83.5080 C   0  0  0  0  0  0
   80.9250   63.9960   80.1050 C   0  0  0  0  0  0
   80.8980   63.3490   81.4970 C   0  0  0  0  0  0
   80.0500   63.1430   79.1660 C   0  0  2  0  0  0
   82.3170   62.3960   76.0000 C   0  0  0  0  0  0
   76.1640   62.8910   78.9960 C   0  0  0  0  0  0
   78.4100   64.7780   78.1390 C   0  0  0  0  0  0
   76.2890   61.7870   91.3720 C   0  0  0  0  0  0
   82.9100   60.1200   81.0680 C   0  0  0  0  0  0
   76.7680   62.8540   84.2090 C   0  0  0  0  0  0
   78.4210   57.6980   87.3690 C   0  0  0  0  0  0
   77.6060   62.5190   78.6730 C   0  0  0  0  0  0
   82.1670   60.3680   82.3690 C   0  0  0  0  0  0
   78.0640   59.7070   86.0340 C   0  0  0  0  0  0
   80.7170   60.8040   82.1810 C   0  0  2  0  0  0
   78.5890   63.6030   79.0980 C   0  0  1  0  0  0
   77.7190   61.7150   84.5880 C   0  0  1  0  0  0
   77.0530   60.4790   85.1990 C   0  0  2  0  0  0
   80.5660   61.9250   81.1950 N   0  3  3  0  0  0
   80.6190   63.0070   77.7910 N   0  0  0  0  0  0
   78.5620   61.3640   83.3990 N   0  0  0  0  0  0
   77.4800   58.4090   86.4520 N   0  3  0  0  0  0
   79.6530   60.5770   79.1310 O   0  5  0  0  0  0
   82.8600   61.9260   78.4540 O   0  0  0  0  0  0
   80.7250   61.2310   84.7440 O   0  0  0  0  0  0
   75.9530   60.8460   86.0320 O   0  0  0  0  0  0
   76.5420   60.3790   91.4100 O   0  0  0  0  0  0
   88.4470   59.7624   82.1703 H   0  0  0  0  0  0
   79.4654   67.3772   82.0759 H   0  0  0  0  0  0
   86.7649   58.1414   83.3529 H   0  0  0  0  0  0
   87.5575   61.5389   80.4753 H   0  0  0  0  0  0
   80.3299   66.2694   84.2891 H   0  0  0  0  0  0
   77.3601   66.3973   80.8611 H   0  0  0  0  0  0
   81.3109   59.6859   90.8146 H   0  0  0  0  0  0
   84.2096   58.3128   82.8318 H   0  0  0  0  0  0
   85.0026   61.7170   79.9556 H   0  0  0  0  0  0
   79.0827   64.1833   85.2744 H   0  0  0  0  0  0
   76.1324   64.3093   81.8421 H   0  0  0  0  0  0
   80.9390   58.3154   88.6101 H   0  0  0  0  0  0
   79.2738   60.6612   92.1361 H   0  0  0  0  0  0
   76.4620   58.8934   89.0622 H   0  0  0  0  0  0
   79.9655   60.7086   79.5006 H   0  0  0  0  0  0
   80.5275   65.0197   80.1687 H   0  0  0  0  0  0
   81.9605   64.0271   79.7351 H   0  0  0  0  0  0
   81.8829   63.4629   81.9734 H   0  0  0  0  0  0
   80.1326   63.8409   82.1152 H   0  0  0  0  0  0
   81.4947   62.8257   75.4092 H   0  0  0  0  0  0
   82.4875   61.3550   75.6882 H   0  0  0  0  0  0
   83.2327   62.9828   75.8351 H   0  0  0  0  0  0
   75.4948   62.0805   78.6717 H   0  0  0  0  0  0
   75.8980   63.8192   78.4690 H   0  0  0  0  0  0
   76.0584   63.0419   80.0805 H   0  0  0  0  0  0
   79.1053   65.5848   78.4139 H   0  0  0  0  0  0
   77.3760   65.1479   78.2014 H   0  0  0  0  0  0
   78.6198   64.4475   77.1110 H   0  0  0  0  0  0
   75.3840   62.0128   91.9551 H   0  0  0  0  0  0
   76.1423   62.1051   90.3293 H   0  0  0  0  0  0
   77.1463   62.3253   91.8024 H   0  0  0  0  0  0
   82.7218   60.9475   80.3681 H   0  0  0  0  0  0
   82.5695   59.1753   80.6189 H   0  0  0  0  0  0
   76.2140   63.1421   85.1145 H   0  0  0  0  0  0
   76.0651   62.4663   83.4569 H   0  0  0  0  0  0
   79.3754   57.5528   86.8418 H   0  0  0  0  0  0
   77.9875   56.7184   87.6191 H   0  0  0  0  0  0
   77.8720   61.5908   79.2000 H   0  0  0  0  0  0
   77.7117   62.3681   77.5885 H   0  0  0  0  0  0
   82.1538   59.4439   82.9656 H   0  0  0  0  0  0
   82.6745   61.1628   82.9354 H   0  0  0  0  0  0
   78.9694   59.5240   85.4367 H   0  0  0  0  0  0
   78.3261   60.2934   86.9270 H   0  0  0  0  0  0
   80.2031   59.9396   81.7353 H   0  0  0  0  0  0
   78.3539   63.8931   80.1327 H   0  0  0  0  0  0
   78.3690   62.0912   85.3917 H   0  0  0  0  0  0
   76.6192   59.8542   84.4043 H   0  0  0  0  0  0
   81.5981   61.7568   80.8536 H   0  0  0  0  0  0
   80.0398   63.3474   76.9200 H   0  0  0  0  0  0
   78.0981   61.2611   82.4069 H   0  0  0  0  0  0
   77.2983   57.7899   85.5611 H   0  0  0  0  0  0
   76.5281   58.5909   86.9724 H   0  0  0  0  0  0
   75.3686   60.0684   86.5457 H   0  0  0  0  0  0
  1  3  2  0  0  0
  1  4  1  0  0  0
  1 48  1  0  0  0
  2  5  2  0  0  0
  2  6  1  0  0  0
  2 49  1  0  0  0
  3  8  1  0  0  0
  3 50  1  0  0  0
  4  9  2  0  0  0
  4 51  1  0  0  0
  5 10  1  0  0  0
  5 52  1  0  0  0
  6 11  2  0  0  0
  6 53  1  0  0  0
  7 12  2  0  0  0
  7 13  1  0  0  0
  7 54  1  0  0  0
  8 15  2  0  0  0
  8 55  1  0  0  0
  9 15  1  0  0  0
  9 56  1  0  0  0
 10 16  2  0  0  0
 10 57  1  0  0  0
 11 16  1  0  0  0
 11 58  1  0  0  0
 12 17  1  0  0  0
 12 59  1  0  0  0
 13 18  2  0  0  0
 13 60  1  0  0  0
 14 17  2  0  0  0
 14 18  1  0  0  0
 14 61  1  0  0  0
 15 29  1  0  0  0
 16 30  1  0  0  0
 17 31  1  0  0  0
 18 47  1  0  0  0
 19 24  1  0  0  0
 19 39  1  0  0  0
 19 43  1  0  0  0
 19 62  1  0  0  0
 20 25  1  0  0  0
 20 40  1  0  0  0
 20 44  2  0  0  0
 21 35  1  0  0  0
 21 41  1  0  0  0
 21 45  2  0  0  0
 22 23  1  0  0  0
 22 24  1  0  0  0
 22 63  1  0  0  0
 22 64  1  0  0  0
 23 39  1  0  0  0
 23 65  1  0  0  0
 23 66  1  0  0  0
 24 36  1  0  0  0
 24 40  1  0  0  0
 25 67  1  0  0  0
 25 68  1  0  0  0
 25 69  1  0  0  0
 26 32  1  0  0  0
 26 70  1  0  0  0
 26 71  1  0  0  0
 26 72  1  0  0  0
 27 36  1  0  0  0
 27 73  1  0  0  0
 27 74  1  0  0  0
 27 75  1  0  0  0
 28 47  1  0  0  0
 28 76  1  0  0  0
 28 77  1  0  0  0
 28 78  1  0  0  0
 29 33  1  0  0  0
 29 79  1  0  0  0
 29 80  1  0  0  0
 30 37  1  0  0  0
 30 81  1  0  0  0
 30 82  1  0  0  0
 31 42  1  0  0  0
 31 83  1  0  0  0
 31 84  1  0  0  0
 32 36  1  0  0  0
 32 85  1  0  0  0
 32 86  1  0  0  0
 33 35  1  0  0  0
 33 87  1  0  0  0
 33 88  1  0  0  0
 34 38  1  0  0  0
 34 42  1  0  0  0
 34 89  1  0  0  0
 34 90  1  0  0  0
 35 39  1  0  0  0
 35 91  1  0  0  0
 36 92  1  0  0  0
 37 38  1  0  0  0
 37 41  1  0  0  0
 37 93  1  0  0  0
 38 46  1  0  0  0
 38 94  1  0  0  0
 39 95  1  0  0  0
 40 96  1  0  0  0
 41 97  1  0  0  0
 42 98  1  0  0  0
 42 99  1  0  0  0
 46100  1  0  0  0
M  CHG  3  39   1  42   1  43  -1
M  END
> <s_m_source_file>
../3skf_ligand.sdf

> <i_m_source_file_index>
1

> <s_epik_input>
W2NIXTFbY0hdW2NIXVtjSF1bY0hdYzFbQ0gyXVtDSDJdW0NASF0oW05IK10oW0NIMl1bQ0gyXTIpW0NIXShbT0hdKVtDQF0yKFtDQEBIXShbQ0gzXSlbQ0gyXVtDSDNdKVtOSF1DKD1PKVtDSDNdKUMoPU8pW05IXVtDQEBIXShbQ0gyXWMzW2NIXVtjSF1bY0hdW2NIXVtjSF0zKVtDQEhdKFtPSF0pW0NIMl1bTkgyK11bQ0gyXWM0W2NIXVtjSF1bY0hdYyhbY0hdNClPW0NIM10=

> <s_epik_cmdline>
J2VwaWtfYXBwJywgJy1pbWFlJywgJ2xpZ2FuZF9wcm8ubWFlJywgJy1vbWFlJywgJ2xpZ2FuZF9wcmVwLm1hZScsICctbXMnLCAnMScsICctcGgnLCAnNycsICctcGh0JywgJzAuNScsICctbnQn

> <r_lp_tautomer_probability>
1

> <r_epik_Ionization_Penalty>
  0.0915

> <r_epik_Ionization_Penalty_Charging>
  0.0915

> <r_epik_Ionization_Penalty_Neutral>
  0.0000

> <r_epik_State_Penalty>
 -0.0000

> <r_epik_Charging_Adjusted_Penalty>
0.0914847897135261

> <i_epik_Tot_Q>
1

> <i_epik_Tot_abs_Q>
3

> <s_epik_Chemistry_Notes>
This compound contains an acetal/aminal-like group ( X-CH(R)-Y where X, Y are N, S, or O) that may be acid/base labile, releasing an aldehyde.

$$$$
