3skg_ligand
                    3D
 Schrodinger Suite 2020-3.
 95 99  0  0  1  0            999 V2000
   -1.5440   16.6310   23.1560 C   0  0  0  0  0  0
   -9.8050   18.5760   30.4490 C   0  0  0  0  0  0
   -9.4670   20.0100   30.5480 C   0  0  0  0  0  0
   -2.2240   17.7460   23.7180 C   0  0  0  0  0  0
   -0.8310   15.6690   23.9750 C   0  0  0  0  0  0
   -8.9530   17.6270   30.8610 C   0  0  0  0  0  0
   -8.2730   20.2330   31.1110 C   0  0  0  0  0  0
   -2.1540   17.8640   25.1370 C   0  0  0  0  0  0
   -0.7910   15.8030   25.3690 C   0  0  0  0  0  0
   -1.9510   11.8190   33.1080 C   0  0  0  0  0  0
   -3.8930   12.0070   31.8480 C   0  0  0  0  0  0
   -2.5440   10.0750   31.4990 C   0  0  0  0  0  0
   -7.6380   17.9110   31.4680 C   0  0  0  0  0  0
   -7.3060   19.1570   31.5750 C   0  0  0  0  0  0
   -1.4540   16.9060   25.9280 C   0  0  0  0  0  0
   -3.0660   12.5370   32.8080 C   0  0  0  0  0  0
   -1.7010   10.6130   32.4410 C   0  0  0  0  0  0
   -3.6440   10.8100   31.2060 C   0  0  0  0  0  0
    0.2030   15.2720   30.0840 C   0  0  0  0  0  0
    2.6100   14.4490   28.4230 C   0  0  0  0  0  0
   -3.1840   15.3310   30.3790 C   0  0  0  0  0  0
   -6.8120   16.7550   31.9400 C   0  0  0  0  0  0
   -5.9590   19.5720   32.1480 C   0  0  0  0  0  0
    0.3720   12.8260   29.6650 C   0  0  0  0  0  0
   -0.9850   13.4510   29.2990 C   0  0  0  0  0  0
   -5.3950   17.0640   32.4840 C   0  0  2  0  0  0
    1.0500   14.0570   30.3360 C   0  0  2  0  0  0
    1.6310   14.4990   27.2780 C   0  0  0  0  0  0
    3.2930   12.5860   32.2210 C   0  0  0  0  0  0
    1.4590   12.1110   33.4640 C   0  0  0  0  0  0
   -1.4190   17.0960   27.4410 C   0  0  0  0  0  0
   -3.4220   13.8330   33.5330 C   0  0  0  0  0  0
    1.2410   13.8370   31.8500 C   0  0  0  0  0  0
   -2.3940   16.0860   28.0160 C   0  0  0  0  0  0
   -2.0320   15.8200   29.4730 C   0  0  2  0  0  0
   -4.6940   16.0010   33.4080 C   0  0  2  0  0  0
    1.8010   12.4530   32.0540 C   0  0  0  0  0  0
   -4.0740   14.8630   32.6060 C   0  0  1  0  0  0
   -5.2610   18.5100   32.9990 N   0  3  0  0  0  0
   -0.9340   14.9170   29.5370 N   0  0  0  0  0  0
    2.3120   14.2750   29.7040 N   0  0  0  0  0  0
   -3.0240   15.3180   31.7210 N   0  0  0  0  0  0
    0.5080   16.3810   30.4150 O   0  0  0  0  0  0
    3.7800   14.5910   28.1590 O   0  0  0  0  0  0
   -4.2730   15.0100   29.9070 O   0  0  0  0  0  0
   -5.4720   15.4580   34.4830 O   0  0  0  0  0  0
   -0.5770    9.9130   32.7080 F   0  0  0  0  0  0
   -4.4890   10.3920   30.2770 F   0  0  0  0  0  0
   -1.5589   16.4946   22.0747 H   0  0  0  0  0  0
  -10.7684   18.2829   30.0318 H   0  0  0  0  0  0
  -10.1234   20.8067   30.1980 H   0  0  0  0  0  0
   -2.7647   18.4652   23.1028 H   0  0  0  0  0  0
   -0.3201   14.8315   23.4999 H   0  0  0  0  0  0
   -9.2485   16.5847   30.7408 H   0  0  0  0  0  0
   -7.9700   21.2711   31.2476 H   0  0  0  0  0  0
   -2.6458   18.7040   25.6275 H   0  0  0  0  0  0
   -0.2664   15.0801   25.9937 H   0  0  0  0  0  0
   -1.2545   12.1805   33.8645 H   0  0  0  0  0  0
   -4.7929   12.5601   31.5788 H   0  0  0  0  0  0
   -2.3410    9.1181   31.0181 H   0  0  0  0  0  0
   -7.3338   16.2429   32.7619 H   0  0  0  0  0  0
   -6.6574   16.0512   31.1089 H   0  0  0  0  0  0
   -5.2708   19.8178   31.3258 H   0  0  0  0  0  0
   -6.0905   20.4540   32.7921 H   0  0  0  0  0  0
    0.2126   11.9742   30.3426 H   0  0  0  0  0  0
    0.8740   12.4779   28.7502 H   0  0  0  0  0  0
   -1.2031   13.2586   28.2381 H   0  0  0  0  0  0
   -1.7741   13.0051   29.9222 H   0  0  0  0  0  0
   -4.7968   16.9879   31.5640 H   0  0  0  0  0  0
    0.6101   14.3561   27.6620 H   0  0  0  0  0  0
    1.8672   13.7011   26.5585 H   0  0  0  0  0  0
    1.7013   15.4762   26.7779 H   0  0  0  0  0  0
    3.7352   11.5902   32.3725 H   0  0  0  0  0  0
    3.5092   13.2199   33.0936 H   0  0  0  0  0  0
    3.7235   13.0449   31.3187 H   0  0  0  0  0  0
    1.8357   11.1045   33.6989 H   0  0  0  0  0  0
    0.3667   12.1328   33.5920 H   0  0  0  0  0  0
    1.9223   12.8433   34.1416 H   0  0  0  0  0  0
   -0.3985   16.9155   27.8097 H   0  0  0  0  0  0
   -1.7218   18.1241   27.6886 H   0  0  0  0  0  0
   -4.1284   13.6153   34.3476 H   0  0  0  0  0  0
   -2.5088   14.2826   33.9500 H   0  0  0  0  0  0
    1.9385   14.5904   32.2449 H   0  0  0  0  0  0
    0.2709   13.9326   32.3597 H   0  0  0  0  0  0
   -3.4163   16.4876   27.9553 H   0  0  0  0  0  0
   -2.3332   15.1497   27.4419 H   0  0  0  0  0  0
   -1.6788   16.7761   29.8865 H   0  0  0  0  0  0
   -3.9335   16.5482   33.9844 H   0  0  0  0  0  0
    1.4596   11.7731   31.2595 H   0  0  0  0  0  0
   -4.8764   14.4455   31.9801 H   0  0  0  0  0  0
   -4.1836   18.7272   33.0453 H   0  0  0  0  0  0
   -5.6811   18.5204   34.0156 H   0  0  0  0  0  0
    3.2298   14.3183   30.3088 H   0  0  0  0  0  0
   -2.0663   15.6648   32.1365 H   0  0  0  0  0  0
   -5.9991   16.1312   35.1751 H   0  0  0  0  0  0
  1  4  2  0  0  0
  1  5  1  0  0  0
  1 49  1  0  0  0
  2  3  2  0  0  0
  2  6  1  0  0  0
  2 50  1  0  0  0
  3  7  1  0  0  0
  3 51  1  0  0  0
  4  8  1  0  0  0
  4 52  1  0  0  0
  5  9  2  0  0  0
  5 53  1  0  0  0
  6 13  2  0  0  0
  6 54  1  0  0  0
  7 14  2  0  0  0
  7 55  1  0  0  0
  8 15  2  0  0  0
  8 56  1  0  0  0
  9 15  1  0  0  0
  9 57  1  0  0  0
 10 16  2  0  0  0
 10 17  1  0  0  0
 10 58  1  0  0  0
 11 16  1  0  0  0
 11 18  2  0  0  0
 11 59  1  0  0  0
 12 17  2  0  0  0
 12 18  1  0  0  0
 12 60  1  0  0  0
 13 14  1  0  0  0
 13 22  1  0  0  0
 14 23  1  0  0  0
 15 31  1  0  0  0
 16 32  1  0  0  0
 17 47  1  0  0  0
 18 48  1  0  0  0
 19 27  1  0  0  0
 19 40  1  0  0  0
 19 43  2  0  0  0
 20 28  1  0  0  0
 20 41  1  0  0  0
 20 44  2  0  0  0
 21 35  1  0  0  0
 21 42  1  0  0  0
 21 45  2  0  0  0
 22 26  1  0  0  0
 22 61  1  0  0  0
 22 62  1  0  0  0
 23 39  1  0  0  0
 23 63  1  0  0  0
 23 64  1  0  0  0
 24 25  1  0  0  0
 24 27  1  0  0  0
 24 65  1  0  0  0
 24 66  1  0  0  0
 25 40  1  0  0  0
 25 67  1  0  0  0
 25 68  1  0  0  0
 26 36  1  0  0  0
 26 39  1  0  0  0
 26 69  1  0  0  0
 27 33  1  0  0  0
 27 41  1  0  0  0
 28 70  1  0  0  0
 28 71  1  0  0  0
 28 72  1  0  0  0
 29 37  1  0  0  0
 29 73  1  0  0  0
 29 74  1  0  0  0
 29 75  1  0  0  0
 30 37  1  0  0  0
 30 76  1  0  0  0
 30 77  1  0  0  0
 30 78  1  0  0  0
 31 34  1  0  0  0
 31 79  1  0  0  0
 31 80  1  0  0  0
 32 38  1  0  0  0
 32 81  1  0  0  0
 32 82  1  0  0  0
 33 37  1  0  0  0
 33 83  1  0  0  0
 33 84  1  0  0  0
 34 35  1  0  0  0
 34 85  1  0  0  0
 34 86  1  0  0  0
 35 40  1  0  0  0
 35 87  1  0  0  0
 36 38  1  0  0  0
 36 46  1  0  0  0
 36 88  1  0  0  0
 37 89  1  0  0  0
 38 42  1  0  0  0
 38 90  1  0  0  0
 39 91  1  0  0  0
 39 92  1  0  0  0
 41 93  1  0  0  0
 42 94  1  0  0  0
 46 95  1  0  0  0
M  CHG  1  39   1
M  END
> <s_m_source_file>
../3skg_ligand.sdf

> <i_m_source_file_index>
1

> <s_epik_input>
W2NIXTFbY0hdW2NIXVtjSF1bY0hdYzFbQ0gyXVtDSDJdW0NASF0oTihbQ0gyXVtDSDJdMilDKD1PKVtDQF0yKFtDSDJdW0NIXShbQ0gzXSlbQ0gzXSlbTkhdQyg9TylbQ0gzXSlDKD1PKVtOSF1bQ0BASF0oW0NIMl1jM1tjSF1jKEYpW2NIXWMoRilbY0hdMylbQ0BIXShbT0hdKVtDQEBIXShbQ0gyXTQpW05IMitdW0NIMl1jKGM0NSlbY0hdW2NIXVtjSF1bY0hdNQ==

> <s_epik_cmdline>
J2VwaWtfYXBwJywgJy1pbWFlJywgJ2xpZ2FuZF9wcm8ubWFlJywgJy1vbWFlJywgJ2xpZ2FuZF9wcmVwLm1hZScsICctbXMnLCAnMScsICctcGgnLCAnNycsICctcGh0JywgJzAuNScsICctbnQn

> <r_epik_Ionization_Penalty>
  0.0144

> <r_epik_Ionization_Penalty_Charging>
  0.0144

> <r_epik_Ionization_Penalty_Neutral>
  0.0000

> <r_epik_State_Penalty>
  0.0112

> <r_epik_Charging_Adjusted_Penalty>
0.0255821824022828

> <i_epik_Tot_Q>
1

> <i_epik_Tot_abs_Q>
1

$$$$
