3skk_ligand
                    3D
 Schrodinger Suite 2020-3.
 31 30  0  0  1  0            999 V2000
   24.3160  -16.2090   -5.4080 B   0  5  0  0  0  0
   25.3160  -10.2220   -5.3570 C   0  0  2  0  0  0
   26.4950   -8.4390   -6.3400 F   0  0  0  0  0  0
   25.6390   -9.6780   -4.0730 N   0  3  0  0  0  0
   23.6070   -9.6880   -6.9480 O   0  5  0  0  0  0
   23.9910   -9.6760   -5.7470 C   0  0  0  0  0  0
   27.4950  -10.3830   -6.1430 F   0  0  0  0  0  0
   25.0700  -16.2500   -4.2550 O   0  0  0  0  0  0
   25.2880  -11.7140   -5.2940 C   0  0  0  0  0  0
   23.1270  -16.8710   -5.1610 O   0  0  0  0  0  0
   25.1780  -12.5310   -6.5410 C   0  0  0  0  0  0
   24.9490  -16.9380   -6.3970 O   0  0  0  0  0  0
   25.2670  -14.0190   -6.3840 C   0  0  0  0  0  0
   23.2720   -9.1770   -4.8480 O   0  0  0  0  0  0
   24.1050  -14.7900   -5.8170 C   0  0  0  0  0  0
   26.3400   -9.7630   -6.3330 C   0  0  0  0  0  0
   24.8911  -10.0073   -3.3366 H   0  0  0  0  0  0
   25.6388   -8.5795   -4.1296 H   0  0  0  0  0  0
   26.6352  -10.0292   -3.7661 H   0  0  0  0  0  0
   25.3286  -17.2180   -3.8011 H   0  0  0  0  0  0
   26.2153  -12.0788   -4.8280 H   0  0  0  0  0  0
   24.4243  -12.0396   -4.6957 H   0  0  0  0  0  0
   23.1392  -17.9262   -4.8505 H   0  0  0  0  0  0
   24.2064  -12.3399   -7.0200 H   0  0  0  0  0  0
   25.9881  -12.2557   -7.2324 H   0  0  0  0  0  0
   25.1720  -18.0033   -6.2376 H   0  0  0  0  0  0
   25.4369  -14.4819   -7.3673 H   0  0  0  0  0  0
   26.1021  -14.2676   -5.7125 H   0  0  0  0  0  0
   23.3330  -14.7448   -6.5993 H   0  0  0  0  0  0
   23.7794  -14.2019   -4.9463 H   0  0  0  0  0  0
   26.0818   -9.9841   -7.3792 H   0  0  0  0  0  0
  1  8  1  0  0  0
  1 10  1  0  0  0
  1 12  1  0  0  0
  1 15  1  0  0  0
  2  4  1  0  0  0
  2  6  1  0  0  0
  2  9  1  0  0  0
  2 16  1  0  0  0
  3 16  1  0  0  0
  4 17  1  0  0  0
  4 18  1  0  0  0
  4 19  1  0  0  0
  5  6  1  0  0  0
  6 14  2  0  0  0
  7 16  1  0  0  0
  8 20  1  0  0  0
  9 11  1  0  0  0
  9 21  1  0  0  0
  9 22  1  0  0  0
 10 23  1  0  0  0
 11 13  1  0  0  0
 11 24  1  0  0  0
 11 25  1  0  0  0
 12 26  1  0  0  0
 13 15  1  0  0  0
 13 27  1  0  0  0
 13 28  1  0  0  0
 15 29  1  0  0  0
 15 30  1  0  0  0
 16 31  1  0  0  0
M  CHG  3   1  -1   4   1   5  -1
M  END
> <s_m_source_file>
../3skk_ligand.sdf

> <i_m_source_file_index>
1

> <s_epik_input>
W09IXVtCLV0oW09IXSkoW09IXSlbQ0gyXVtDSDJdW0NIMl1bQ0gyXVtDQEBdKFtOSDMrXSkoW0NIXShGKUYpQyg9TylbT0hd

> <s_epik_cmdline>
J2VwaWtfYXBwJywgJy1pbWFlJywgJ2xpZ2FuZF9wcm8ubWFlJywgJy1vbWFlJywgJ2xpZ2FuZF9wcmVwLm1hZScsICctbXMnLCAnMScsICctcGgnLCAnNycsICctcGh0JywgJzAuNScsICctbnQn

> <r_epik_Ionization_Penalty>
  0.3275

> <r_epik_Ionization_Penalty_Charging>
  0.3275

> <r_epik_Ionization_Penalty_Neutral>
  0.0000

> <r_epik_State_Penalty>
  0.3224

> <r_epik_Charging_Adjusted_Penalty>
0.649956741074264

> <i_epik_Tot_Q>
-1

> <i_epik_Tot_abs_Q>
3

> <s_epik_Chemistry_Notes>
This compound contains a Lewis acid (boronic acid) which adds nucleophiles to form tetrahedral complexes, lowering the experimental pKa

$$$$
