3sl0_ligand
                    3D
 Schrodinger Suite 2020-3.
 29 28  0  0  1  0            999 V2000
   41.8240  -15.1340   23.7720 B   0  0  0  0  0  0
   34.6200  -17.6850   26.4660 F   0  0  0  0  0  0
   35.6040  -17.4330   22.9480 N   0  3  0  0  0  0
   42.1290  -15.2100   22.4360 O   0  0  0  0  0  0
   35.1620  -15.9690   24.5850 C   0  0  0  0  0  0
   34.8060  -19.4450   25.1140 F   0  0  0  0  0  0
   42.8030  -15.1530   24.7270 O   0  0  0  0  0  0
   35.7480  -17.3960   24.3990 C   0  0  2  0  0  0
   35.3050  -15.3590   25.6370 O   0  0  0  0  0  0
   39.5310  -16.2560   24.4210 C   0  0  0  0  0  0
   34.4630  -15.3830   23.5470 O   0  5  0  0  0  0
   40.3070  -14.9810   24.2320 C   0  0  0  0  0  0
   37.1500  -17.1320   24.9780 C   0  0  0  0  0  0
   34.6980  -18.1200   25.2120 C   0  0  0  0  0  0
   38.0330  -16.1840   24.1860 C   0  0  0  0  0  0
   36.4280  -16.8717   22.4833 H   0  0  0  0  0  0
   34.6439  -16.9779   22.6631 H   0  0  0  0  0  0
   35.6314  -18.4772   22.6033 H   0  0  0  0  0  0
   43.1761  -15.3157   22.1160 H   0  0  0  0  0  0
   43.8574  -15.2578   24.4317 H   0  0  0  0  0  0
   39.9061  -17.0202   23.7243 H   0  0  0  0  0  0
   39.6542  -16.6104   25.4550 H   0  0  0  0  0  0
   40.2681  -14.4593   25.1997 H   0  0  0  0  0  0
   39.7526  -14.4005   23.4800 H   0  0  0  0  0  0
   37.0553  -16.6922   25.9818 H   0  0  0  0  0  0
   37.7040  -18.0800   25.0439 H   0  0  0  0  0  0
   33.6607  -17.9606   24.8826 H   0  0  0  0  0  0
   37.6710  -15.1754   24.4344 H   0  0  0  0  0  0
   37.8167  -16.4013   23.1296 H   0  0  0  0  0  0
  1  4  1  0  0  0
  1  7  1  0  0  0
  1 12  1  0  0  0
  2 14  1  0  0  0
  3  8  1  0  0  0
  3 16  1  0  0  0
  3 17  1  0  0  0
  3 18  1  0  0  0
  4 19  1  0  0  0
  5  8  1  0  0  0
  5  9  2  0  0  0
  5 11  1  0  0  0
  6 14  1  0  0  0
  7 20  1  0  0  0
  8 13  1  0  0  0
  8 14  1  0  0  0
 10 12  1  0  0  0
 10 15  1  0  0  0
 10 21  1  0  0  0
 10 22  1  0  0  0
 12 23  1  0  0  0
 12 24  1  0  0  0
 13 15  1  0  0  0
 13 25  1  0  0  0
 13 26  1  0  0  0
 14 27  1  0  0  0
 15 28  1  0  0  0
 15 29  1  0  0  0
M  CHG  2   3   1  11  -1
M  END
> <s_m_source_file>
../3sl0_ligand.sdf

> <i_m_source_file_index>
1

> <s_epik_input>
W09IXUIoW09IXSlbQ0gyXVtDSDJdW0NIMl1bQ0gyXVtDQEBdKFtOSDMrXSkoW0NIXShGKUYpQyg9TylbT0hd

> <s_epik_cmdline>
J2VwaWtfYXBwJywgJy1pbWFlJywgJ2xpZ2FuZF9wcm8ubWFlJywgJy1vbWFlJywgJ2xpZ2FuZF9wcmVwLm1hZScsICctbXMnLCAnMScsICctcGgnLCAnNycsICctcGh0JywgJzAuNScsICctbnQn

> <r_epik_Ionization_Penalty>
  0.3482

> <r_epik_Ionization_Penalty_Charging>
  0.3482

> <r_epik_Ionization_Penalty_Neutral>
  0.0000

> <r_epik_State_Penalty>
  0.3443

> <r_epik_Charging_Adjusted_Penalty>
0.69249853079977

> <i_epik_Tot_Q>
0

> <i_epik_Tot_abs_Q>
2

> <s_epik_Chemistry_Notes>
This compound contains a Lewis acid (boronic acid) which adds nucleophiles to form tetrahedral complexes, lowering the experimental pKa

$$$$
