3sl1_ligand
                    3D
 Schrodinger Suite 2020-3.
 29 28  0  0  1  0            999 V2000
   41.9280  -15.2230   23.6890 B   0  0  0  0  0  0
   35.2820  -16.1330   24.3520 C   0  0  0  0  0  0
   35.8720  -17.7880   22.7720 N   0  3  0  0  0  0
   34.7300  -15.5970   23.3990 O   0  0  0  0  0  0
   35.9450  -17.5050   24.1900 C   0  0  1  0  0  0
   42.8610  -15.3310   24.6820 O   0  0  0  0  0  0
   39.6340  -16.2730   24.3710 C   0  0  0  0  0  0
   42.2900  -15.3360   22.3710 O   0  0  0  0  0  0
   40.3960  -15.0240   24.0920 C   0  0  0  0  0  0
   35.2510  -15.5350   25.5890 O   0  5  0  0  0  0
   37.3450  -17.3140   24.6960 C   0  0  0  0  0  0
   35.1270  -18.4310   25.0450 C   0  0  0  0  0  0
   38.1880  -16.2870   24.0240 C   0  0  0  0  0  0
   36.4958  -17.0681   22.2219 H   0  0  0  0  0  0
   34.8287  -17.7023   22.4343 H   0  0  0  0  0  0
   36.2361  -18.8086   22.5826 H   0  0  0  0  0  0
   43.9222  -15.4686   24.4270 H   0  0  0  0  0  0
   40.0767  -17.1065   23.8059 H   0  0  0  0  0  0
   39.6769  -16.4960   25.4473 H   0  0  0  0  0  0
   43.3475  -15.4729   22.1009 H   0  0  0  0  0  0
   40.3334  -14.4142   25.0053 H   0  0  0  0  0  0
   39.8648  -14.5150   23.2742 H   0  0  0  0  0  0
   37.3149  -17.0162   25.7545 H   0  0  0  0  0  0
   37.9028  -18.2568   24.5961 H   0  0  0  0  0  0
   34.1170  -18.5263   24.6198 H   0  0  0  0  0  0
   35.0587  -18.0241   26.0647 H   0  0  0  0  0  0
   35.6065  -19.4205   25.0764 H   0  0  0  0  0  0
   37.7390  -15.3172   24.2847 H   0  0  0  0  0  0
   38.0715  -16.4668   22.9451 H   0  0  0  0  0  0
  1  6  1  0  0  0
  1  8  1  0  0  0
  1  9  1  0  0  0
  2  4  2  0  0  0
  2  5  1  0  0  0
  2 10  1  0  0  0
  3  5  1  0  0  0
  3 14  1  0  0  0
  3 15  1  0  0  0
  3 16  1  0  0  0
  5 11  1  0  0  0
  5 12  1  0  0  0
  6 17  1  0  0  0
  7  9  1  0  0  0
  7 13  1  0  0  0
  7 18  1  0  0  0
  7 19  1  0  0  0
  8 20  1  0  0  0
  9 21  1  0  0  0
  9 22  1  0  0  0
 11 13  1  0  0  0
 11 23  1  0  0  0
 11 24  1  0  0  0
 12 25  1  0  0  0
 12 26  1  0  0  0
 12 27  1  0  0  0
 13 28  1  0  0  0
 13 29  1  0  0  0
M  CHG  2   3   1  10  -1
M  END
> <s_m_source_file>
../3sl1_ligand.sdf

> <i_m_source_file_index>
1

> <s_epik_input>
W09IXUIoW09IXSlbQ0gyXVtDSDJdW0NIMl1bQ0gyXVtDQEBdKFtOSDMrXSkoW0NIM10pQyg9TylbT0hd

> <s_epik_cmdline>
J2VwaWtfYXBwJywgJy1pbWFlJywgJ2xpZ2FuZF9wcm8ubWFlJywgJy1vbWFlJywgJ2xpZ2FuZF9wcmVwLm1hZScsICctbXMnLCAnMScsICctcGgnLCAnNycsICctcGh0JywgJzAuNScsICctbnQn

> <r_lp_tautomer_probability>
1

> <r_epik_Ionization_Penalty>
  0.0010

> <r_epik_Ionization_Penalty_Charging>
  0.0010

> <r_epik_Ionization_Penalty_Neutral>
  0.0000

> <r_epik_State_Penalty>
 -0.0000

> <r_epik_Charging_Adjusted_Penalty>
0.00104763287965486

> <i_epik_Tot_Q>
0

> <i_epik_Tot_abs_Q>
2

> <s_epik_Chemistry_Notes>
This compound contains a Lewis acid (boronic acid) which adds nucleophiles to form tetrahedral complexes, lowering the experimental pKa

$$$$
