3sl4_ligand
                    3D
 Schrodinger Suite 2020-3.
 54 56  0  0  1  0            999 V2000
  -21.7120   10.4640   27.7740 C   0  0  0  0  0  0
  -21.7410    9.7030   26.5330 N   0  0  0  0  0  0
  -21.1610    8.3330   26.5270 C   0  0  0  0  0  0
  -21.4000    7.4820   27.7960 C   0  0  0  0  0  0
  -21.7940    8.1610   29.0070 C   0  0  0  0  0  0
  -21.9350    9.6800   29.0650 C   0  0  0  0  0  0
  -22.6440   10.1420   25.5060 C   0  0  0  0  0  0
  -22.7430    9.5140   24.4640 O   0  0  0  0  0  0
  -23.2570   11.4360   25.6380 N   0  0  0  0  0  0
  -24.0290   12.0100   24.5690 C   0  0  0  0  0  0
  -24.1120   13.4980   24.4980 C   0  0  0  0  0  0
  -21.3460    5.7780   28.1250 S   0  0  0  0  0  0
  -21.7480    5.6130   29.6500 C   0  0  0  0  0  0
  -22.0300    7.0110   30.2250 C   0  0  0  0  0  0
  -22.4590    7.3070   31.6300 C   0  0  0  0  0  0
  -22.8000    8.4910   31.9310 O   0  0  0  0  0  0
  -23.1150    8.7870   33.2470 C   0  0  0  0  0  0
  -21.9690    8.9500   34.1920 C   0  0  0  0  0  0
  -22.5810    6.3720   32.4740 O   0  0  0  0  0  0
  -21.9060    4.4320   30.4830 N   0  0  0  0  0  0
  -21.8150    3.0730   30.0170 C   0  0  0  0  0  0
  -22.1060    1.9560   30.9860 C   0  0  0  0  0  0
  -22.4100    2.3650   32.4140 C   0  0  0  0  0  0
  -23.6540    2.8230   32.7630 C   0  0  0  0  0  0
  -21.3640    2.2930   33.4340 C   0  0  0  0  0  0
  -21.6250    2.6700   34.7640 C   0  0  0  0  0  0
  -22.9100    3.1450   35.1180 C   0  0  0  0  0  0
  -23.9250    3.2200   34.1310 C   0  0  0  0  0  0
  -21.3700    2.8560   28.9110 O   0  0  0  0  0  0
  -20.7304   10.9479   27.8845 H   0  0  0  0  0  0
  -22.4990   11.2322   27.7516 H   0  0  0  0  0  0
  -21.5880    7.7577   25.6923 H   0  0  0  0  0  0
  -20.0694    8.3974   26.4073 H   0  0  0  0  0  0
  -21.2090   10.0083   29.8234 H   0  0  0  0  0  0
  -22.9560    9.8610   29.4322 H   0  0  0  0  0  0
  -23.1260   11.9886   26.5800 H   0  0  0  0  0  0
  -23.6067   11.6970   23.6027 H   0  0  0  0  0  0
  -25.0709   11.6650   24.6428 H   0  0  0  0  0  0
  -24.7304   13.7900   23.6365 H   0  0  0  0  0  0
  -23.1013   13.9165   24.3825 H   0  0  0  0  0  0
  -24.5654   13.8845   25.4227 H   0  0  0  0  0  0
  -23.6713    9.7351   33.2865 H   0  0  0  0  0  0
  -23.7347    7.9805   33.6660 H   0  0  0  0  0  0
  -22.3524    9.1812   35.1968 H   0  0  0  0  0  0
  -21.3239    9.7717   33.8477 H   0  0  0  0  0  0
  -21.3872    8.0171   34.2272 H   0  0  0  0  0  0
  -22.1120    4.5408   31.5580 H   0  0  0  0  0  0
  -22.9841    1.3906   30.6407 H   0  0  0  0  0  0
  -21.2367    1.2844   31.0432 H   0  0  0  0  0  0
  -24.4405    2.8888   32.0112 H   0  0  0  0  0  0
  -20.3689    1.9425   33.1599 H   0  0  0  0  0  0
  -20.8413    2.5966   35.5180 H   0  0  0  0  0  0
  -23.1182    3.4513   36.1431 H   0  0  0  0  0  0
  -24.9176    3.5792   34.4029 H   0  0  0  0  0  0
  1  2  1  0  0  0
  1  6  1  0  0  0
  1 30  1  0  0  0
  1 31  1  0  0  0
  2  3  1  0  0  0
  2  7  1  0  0  0
  3  4  1  0  0  0
  3 32  1  0  0  0
  3 33  1  0  0  0
  4  5  2  0  0  0
  4 12  1  0  0  0
  5  6  1  0  0  0
  5 14  1  0  0  0
  6 34  1  0  0  0
  6 35  1  0  0  0
  7  8  2  0  0  0
  7  9  1  0  0  0
  9 10  1  0  0  0
  9 36  1  0  0  0
 10 11  1  0  0  0
 10 37  1  0  0  0
 10 38  1  0  0  0
 11 39  1  0  0  0
 11 40  1  0  0  0
 11 41  1  0  0  0
 12 13  1  0  0  0
 13 14  2  0  0  0
 13 20  1  0  0  0
 14 15  1  0  0  0
 15 16  1  0  0  0
 15 19  2  0  0  0
 16 17  1  0  0  0
 17 18  1  0  0  0
 17 42  1  0  0  0
 17 43  1  0  0  0
 18 44  1  0  0  0
 18 45  1  0  0  0
 18 46  1  0  0  0
 20 21  1  0  0  0
 20 47  1  0  0  0
 21 22  1  0  0  0
 21 29  2  0  0  0
 22 23  1  0  0  0
 22 48  1  0  0  0
 22 49  1  0  0  0
 23 24  2  0  0  0
 23 25  1  0  0  0
 24 28  1  0  0  0
 24 50  1  0  0  0
 25 26  2  0  0  0
 25 51  1  0  0  0
 26 27  1  0  0  0
 26 52  1  0  0  0
 27 28  2  0  0  0
 27 53  1  0  0  0
 28 54  1  0  0  0
M  END
> <s_m_source_file>
../3sl4_ligand.sdf

> <i_m_source_file_index>
1

> <s_epik_input>
W0NIM11bQ0gyXVtOSF1DKD1PKU4oW0NIMl0xKVtDSDJdW0NIMl1jKGMxMiljKEMoPU8pT1tDSDJdW0NIM10pYyhzMilbTkhdQyg9TylbQ0gyXWMzW2NIXVtjSF1bY0hdW2NIXVtjSF0z

> <s_epik_cmdline>
J2VwaWtfYXBwJywgJy1pbWFlJywgJ2xpZ2FuZF9wcm8ubWFlJywgJy1vbWFlJywgJ2xpZ2FuZF9wcmVwLm1hZScsICctbXMnLCAnMScsICctcGgnLCAnNycsICctcGh0JywgJzAuNScsICctbnQn

> <r_lp_tautomer_probability>
1

> <r_epik_Ionization_Penalty>
  0.0001

> <r_epik_Ionization_Penalty_Charging>
  0.0000

> <r_epik_Ionization_Penalty_Neutral>
  0.0001

> <r_epik_State_Penalty>
 -0.0000

> <r_epik_Charging_Adjusted_Penalty>
0

> <i_epik_Tot_Q>
0

> <i_epik_Tot_abs_Q>
0

> <s_epik_Chemistry_Notes>
This compound has an ester and may undergo hydrolysis at high or low pH.

$$$$
