3sl5_ligand
                    3D
 Schrodinger Suite 2020-3.
 50 52  0  0  1  0            999 V2000
  -21.7130    7.3930   28.9430 C   0  0  0  0  0  0
  -21.6020    6.4030   30.0660 C   0  0  0  0  0  0
  -21.2550    5.0320   29.5550 C   0  0  0  0  0  0
  -21.0610    5.0390   27.8290 S   0  0  0  0  0  0
  -21.4320    6.7340   27.6580 C   0  0  0  0  0  0
  -21.4540    7.3890   26.3130 C   0  0  0  0  0  0
  -22.2630    8.6210   26.3670 N   0  0  0  0  0  0
  -22.8220    9.1560   27.6290 C   0  0  0  0  0  0
  -22.0420    8.8560   28.9190 C   0  0  0  0  0  0
  -21.0610    3.9390   30.3470 N   0  0  0  0  0  0
  -21.2820    2.6720   29.9760 C   0  0  0  0  0  0
  -22.4680    1.9940   30.6370 C   0  0  0  0  0  0
  -22.6130    2.4530   32.0750 C   0  0  0  0  0  0
  -23.6850    2.8930   32.8430 C   0  0  0  0  0  0
  -23.3130    3.2210   34.1570 C   0  0  0  0  0  0
  -21.9680    3.0670   34.4940 C   0  0  0  0  0  0
  -21.1930    2.4810   33.0600 S   0  0  0  0  0  0
  -20.5770    2.0700   29.1710 O   0  0  0  0  0  0
  -21.8500    6.7800   31.4840 C   0  0  0  0  0  0
  -21.8660    8.1890   31.8160 O   0  0  0  0  0  0
  -22.6760    8.6550   32.8900 C   0  0  0  0  0  0
  -22.0450    9.9180   33.4340 C   0  0  0  0  0  0
  -22.0700    5.9470   32.3560 O   0  0  0  0  0  0
  -22.5640    9.2640   25.2320 C   0  0  0  0  0  0
  -21.5500    9.6160   24.2240 O   0  0  0  0  0  0
  -20.1410    9.4300   24.4230 C   0  0  0  0  0  0
  -19.4440    9.1770   23.1000 C   0  0  0  0  0  0
  -23.7300    9.5640   24.9990 O   0  0  0  0  0  0
  -20.4269    7.6427   26.0119 H   0  0  0  0  0  0
  -21.8923    6.6995   25.5765 H   0  0  0  0  0  0
  -22.8820   10.2526   27.5676 H   0  0  0  0  0  0
  -23.8286    8.7421   27.7887 H   0  0  0  0  0  0
  -22.6548    9.1084   29.7969 H   0  0  0  0  0  0
  -21.1111    9.4416   28.9410 H   0  0  0  0  0  0
  -20.6956    4.0640   31.3770 H   0  0  0  0  0  0
  -23.3873    2.2465   30.0883 H   0  0  0  0  0  0
  -22.3211    0.9039   30.6243 H   0  0  0  0  0  0
  -24.7045    2.9746   32.4660 H   0  0  0  0  0  0
  -24.0434    3.5803   34.8820 H   0  0  0  0  0  0
  -21.5023    3.2724   35.4579 H   0  0  0  0  0  0
  -23.6904    8.8650   32.5199 H   0  0  0  0  0  0
  -22.7239    7.8850   33.6741 H   0  0  0  0  0  0
  -22.6518   10.3013   34.2676 H   0  0  0  0  0  0
  -21.9955   10.6754   32.6379 H   0  0  0  0  0  0
  -21.0290    9.6954   33.7920 H   0  0  0  0  0  0
  -19.7135   10.3326   24.8841 H   0  0  0  0  0  0
  -19.9749    8.5667   25.0841 H   0  0  0  0  0  0
  -18.3669    9.0373   23.2739 H   0  0  0  0  0  0
  -19.5991   10.0381   22.4333 H   0  0  0  0  0  0
  -19.8605    8.2722   22.6333 H   0  0  0  0  0  0
  1  2  1  0  0  0
  1  5  2  0  0  0
  1  9  1  0  0  0
  2  3  2  0  0  0
  2 19  1  0  0  0
  3  4  1  0  0  0
  3 10  1  0  0  0
  4  5  1  0  0  0
  5  6  1  0  0  0
  6  7  1  0  0  0
  6 29  1  0  0  0
  6 30  1  0  0  0
  7  8  1  0  0  0
  7 24  1  0  0  0
  8  9  1  0  0  0
  8 31  1  0  0  0
  8 32  1  0  0  0
  9 33  1  0  0  0
  9 34  1  0  0  0
 10 11  1  0  0  0
 10 35  1  0  0  0
 11 12  1  0  0  0
 11 18  2  0  0  0
 12 13  1  0  0  0
 12 36  1  0  0  0
 12 37  1  0  0  0
 13 14  2  0  0  0
 13 17  1  0  0  0
 14 15  1  0  0  0
 14 38  1  0  0  0
 15 16  2  0  0  0
 15 39  1  0  0  0
 16 17  1  0  0  0
 16 40  1  0  0  0
 19 20  1  0  0  0
 19 23  2  0  0  0
 20 21  1  0  0  0
 21 22  1  0  0  0
 21 41  1  0  0  0
 21 42  1  0  0  0
 22 43  1  0  0  0
 22 44  1  0  0  0
 22 45  1  0  0  0
 24 25  1  0  0  0
 24 28  2  0  0  0
 25 26  1  0  0  0
 26 27  1  0  0  0
 26 46  1  0  0  0
 26 47  1  0  0  0
 27 48  1  0  0  0
 27 49  1  0  0  0
 27 50  1  0  0  0
M  END
> <s_m_source_file>
../3sl5_ligand.sdf

> <i_m_source_file_index>
1

> <s_epik_input>
W0NIM11bQ0gyXU9DKD1PKU4oW0NIMl1bQ0gyXTEpW0NIMl1jKGMxMilzYyhjMkMoPU8pT1tDSDJdW0NIM10pW05IXUMoPU8pW0NIMl1jM1tjSF1bY0hdW2NIXXMz

> <s_epik_cmdline>
J2VwaWtfYXBwJywgJy1pbWFlJywgJ2xpZ2FuZF9wcm8ubWFlJywgJy1vbWFlJywgJ2xpZ2FuZF9wcmVwLm1hZScsICctbXMnLCAnMScsICctcGgnLCAnNycsICctcGh0JywgJzAuNScsICctbnQn

> <r_lp_tautomer_probability>
1

> <r_epik_Ionization_Penalty>
  0.0000

> <r_epik_Ionization_Penalty_Charging>
  0.0000

> <r_epik_Ionization_Penalty_Neutral>
  0.0000

> <r_epik_State_Penalty>
 -0.0000

> <r_epik_Charging_Adjusted_Penalty>
0

> <i_epik_Tot_Q>
0

> <i_epik_Tot_abs_Q>
0

> <s_epik_Chemistry_Notes>
This compound has an ester and may undergo hydrolysis at high or low pH.

$$$$
