3sl8_ligand
                    3D
 Schrodinger Suite 2020-3.
 57 60  0  0  1  0            999 V2000
   72.0580   -9.3670   29.6650 C   0  0  0  0  0  0
   71.7730  -10.0400   28.2930 C   0  0  0  0  0  0
   72.0160   -9.1480   27.1720 N   0  0  0  0  0  0
   71.2150   -7.9180   27.0990 C   0  0  0  0  0  0
   71.3320   -7.1430   28.4070 C   0  0  0  0  0  0
   71.7610   -7.8480   29.6770 C   0  0  0  0  0  0
   71.1130   -5.5850   28.7230 S   0  0  0  0  0  0
   71.4400   -5.3840   30.3680 C   0  0  0  0  0  0
   71.8260   -6.7130   30.9490 C   0  0  0  0  0  0
   73.2510   -9.0580   26.4110 C   0  0  0  0  0  0
   73.5880   -7.9720   25.8530 O   0  0  0  0  0  0
   74.0860  -10.0170   26.5060 O   0  0  0  0  0  0
   75.2290  -10.1000   25.7260 C   0  0  0  0  0  0
   76.3030  -11.0340   26.1880 C   0  0  0  0  0  0
   72.2140   -6.9000   32.4040 C   0  0  0  0  0  0
   71.4180   -4.1500   31.1270 N   0  0  0  0  0  0
   71.4240   -2.8130   30.5780 C   0  0  0  0  0  0
   71.4890   -1.7000   31.5820 C   0  0  0  0  0  0
   71.7690   -2.1030   33.0110 C   0  0  0  0  0  0
   73.1950   -2.6440   33.6470 S   0  0  0  0  0  0
   72.9270   -2.9530   35.2140 C   0  0  0  0  0  0
   71.4600   -2.6310   35.5340 C   0  0  0  0  0  0
   70.7260   -2.0990   34.1610 C   0  0  0  0  0  0
   71.0760   -2.5890   29.4310 O   0  0  0  0  0  0
   72.0200   -7.9490   33.1080 O   0  0  0  0  0  0
   72.5510   -5.8680   33.0380 O   0  0  0  0  0  0
   71.8820   -9.2350   32.6060 C   0  0  0  0  0  0
   70.7440  -10.1180   33.1510 C   0  0  0  0  0  0
   71.3820  -11.4670   33.5570 C   0  0  0  0  0  0
   72.6660  -11.5620   32.7340 C   0  0  0  0  0  0
   73.1220  -10.1240   32.5270 C   0  0  0  0  0  0
   71.4305   -9.8327   30.4392 H   0  0  0  0  0  0
   73.1188   -9.4986   29.9247 H   0  0  0  0  0  0
   72.4243  -10.9183   28.1731 H   0  0  0  0  0  0
   70.7202  -10.3559   28.2512 H   0  0  0  0  0  0
   71.5804   -7.2911   26.2723 H   0  0  0  0  0  0
   70.1603   -8.1771   26.9243 H   0  0  0  0  0  0
   74.9590  -10.4385   24.7148 H   0  0  0  0  0  0
   75.7049   -9.1101   25.6664 H   0  0  0  0  0  0
   77.1459  -11.0015   25.4819 H   0  0  0  0  0  0
   75.9033  -12.0577   26.2350 H   0  0  0  0  0  0
   76.6492  -10.7293   27.1866 H   0  0  0  0  0  0
   71.3942   -4.1808   32.2263 H   0  0  0  0  0  0
   72.2905   -1.0004   31.3025 H   0  0  0  0  0  0
   70.5271   -1.1668   31.6011 H   0  0  0  0  0  0
   73.6651   -3.3272   35.9234 H   0  0  0  0  0  0
   70.9841   -2.7372   36.5088 H   0  0  0  0  0  0
   69.6829   -1.7949   34.0735 H   0  0  0  0  0  0
   71.6440   -8.7531   31.6462 H   0  0  0  0  0  0
   70.2827   -9.6264   34.0202 H   0  0  0  0  0  0
   69.9860  -10.2642   32.3674 H   0  0  0  0  0  0
   71.5917  -11.4632   34.6368 H   0  0  0  0  0  0
   70.6875  -12.2868   33.3213 H   0  0  0  0  0  0
   73.4151  -12.1456   33.2893 H   0  0  0  0  0  0
   72.4515  -12.0579   31.7758 H   0  0  0  0  0  0
   73.5940  -10.0081   31.5402 H   0  0  0  0  0  0
   73.8349   -9.8295   33.3113 H   0  0  0  0  0  0
  1  2  1  0  0  0
  1  6  1  0  0  0
  1 32  1  0  0  0
  1 33  1  0  0  0
  2  3  1  0  0  0
  2 34  1  0  0  0
  2 35  1  0  0  0
  3  4  1  0  0  0
  3 10  1  0  0  0
  4  5  1  0  0  0
  4 36  1  0  0  0
  4 37  1  0  0  0
  5  6  2  0  0  0
  5  7  1  0  0  0
  6  9  1  0  0  0
  7  8  1  0  0  0
  8  9  2  0  0  0
  8 16  1  0  0  0
  9 15  1  0  0  0
 10 11  2  0  0  0
 10 12  1  0  0  0
 12 13  1  0  0  0
 13 14  1  0  0  0
 13 38  1  0  0  0
 13 39  1  0  0  0
 14 40  1  0  0  0
 14 41  1  0  0  0
 14 42  1  0  0  0
 15 25  1  0  0  0
 15 26  2  0  0  0
 16 17  1  0  0  0
 16 43  1  0  0  0
 17 18  1  0  0  0
 17 24  2  0  0  0
 18 19  1  0  0  0
 18 44  1  0  0  0
 18 45  1  0  0  0
 19 20  1  0  0  0
 19 23  2  0  0  0
 20 21  1  0  0  0
 21 22  2  0  0  0
 21 46  1  0  0  0
 22 23  1  0  0  0
 22 47  1  0  0  0
 23 48  1  0  0  0
 25 27  1  0  0  0
 27 28  1  0  0  0
 27 31  1  0  0  0
 27 49  1  0  0  0
 28 29  1  0  0  0
 28 50  1  0  0  0
 28 51  1  0  0  0
 29 30  1  0  0  0
 29 52  1  0  0  0
 29 53  1  0  0  0
 30 31  1  0  0  0
 30 54  1  0  0  0
 30 55  1  0  0  0
 31 56  1  0  0  0
 31 57  1  0  0  0
M  END
> <s_m_source_file>
../3sl8_ligand.sdf

> <i_m_source_file_index>
1

> <s_epik_input>
W0NIM11bQ0gyXU9DKD1PKU4oW0NIMl0xKVtDSDJdW0NIMl1jKGMxMiljKEMoPU8pT1tDSF0zW0NIMl1bQ0gyXVtDSDJdW0NIMl0zKWMoczIpW05IXUMoPU8pW0NIMl1jNHNbY0hdW2NIXVtjSF00

> <s_epik_cmdline>
J2VwaWtfYXBwJywgJy1pbWFlJywgJ2xpZ2FuZF9wcm8ubWFlJywgJy1vbWFlJywgJ2xpZ2FuZF9wcmVwLm1hZScsICctbXMnLCAnMScsICctcGgnLCAnNycsICctcGh0JywgJzAuNScsICctbnQn

> <r_lp_tautomer_probability>
1

> <r_epik_Ionization_Penalty>
  0.0000

> <r_epik_Ionization_Penalty_Charging>
  0.0000

> <r_epik_Ionization_Penalty_Neutral>
  0.0000

> <r_epik_State_Penalty>
 -0.0000

> <r_epik_Charging_Adjusted_Penalty>
0

> <i_epik_Tot_Q>
0

> <i_epik_Tot_abs_Q>
0

> <s_epik_Chemistry_Notes>
This compound has an ester and may undergo hydrolysis at high or low pH.

$$$$
