3sm0_ligand
                    3D
 Schrodinger Suite 2020-3.
 49 52  0  0  1  0            999 V2000
   19.0630   18.2860   16.1730 N   0  0  3  0  0  0
   14.1100   14.7760   17.7000 N   0  3  0  0  0  0
   16.3410   16.9230   19.9570 C   0  0  0  0  0  0
   15.0170   16.4290   19.3650 C   0  0  0  0  0  0
   15.2400   15.1070   18.5950 C   0  0  0  0  0  0
   12.7590   14.9490   18.2860 C   0  0  0  0  0  0
   11.6470   14.7750   17.1870 C   0  0  0  0  0  0
    9.3200   15.2820   16.7140 C   0  0  0  0  0  0
   16.6590   16.9100   21.3200 C   0  0  0  0  0  0
   18.1460   17.2660   23.2810 C   0  0  0  0  0  0
   18.9290   17.7730   20.9300 C   0  0  0  0  0  0
   18.2510   18.1030   14.9560 C   0  0  0  0  0  0
   18.5790   17.9880   17.4040 C   0  0  3  0  0  0
   17.3720   17.5130   17.7540 N   0  0  0  0  0  0
   17.3560   17.3770   19.1110 C   0  0  0  0  0  0
   10.2290   14.7440   17.8190 C   0  0  0  0  0  0
   10.1580   16.2290   15.8440 C   0  0  0  0  0  0
   11.6350   16.0450   16.2770 C   0  0  0  0  0  0
   15.7170   16.4820   22.2000 N   0  0  0  0  0  0
   15.9490   16.4450   23.4810 C   0  0  0  0  0  0
   17.1190   16.8180   24.0640 N   0  0  0  0  0  0
   19.2160   17.6130   23.7710 O   0  0  0  0  0  0
   17.9200   17.3230   21.7950 C   0  0  0  0  0  0
   18.5920   17.7800   19.5800 C   0  0  0  0  0  0
   19.3140   18.1460   18.5180 N   0  0  0  0  0  0
   20.0897   18.6734   16.0961 H   0  0  0  0  0  0
   14.1465   15.4208   16.8095 H   0  0  0  0  0  0
   14.1820   13.7222   17.3928 H   0  0  0  0  0  0
   14.2942   16.2569   20.1762 H   0  0  0  0  0  0
   14.6190   17.1866   18.6739 H   0  0  0  0  0  0
   15.3705   14.3025   19.3337 H   0  0  0  0  0  0
   16.1598   15.2119   18.0009 H   0  0  0  0  0  0
   12.6013   14.1961   19.0723 H   0  0  0  0  0  0
   12.6739   15.9561   18.7202 H   0  0  0  0  0  0
   11.8571   13.8414   16.6445 H   0  0  0  0  0  0
    8.9395   14.4439   16.1117 H   0  0  0  0  0  0
    8.4749   15.8227   17.1651 H   0  0  0  0  0  0
   19.9016   18.0878   21.3361 H   0  0  0  0  0  0
   18.8370   18.4049   14.0754 H   0  0  0  0  0  0
   17.3446   18.7227   15.0234 H   0  0  0  0  0  0
   17.9656   17.0449   14.8613 H   0  0  0  0  0  0
    9.9747   13.7110   18.0986 H   0  0  0  0  0  0
   10.2132   15.3810   18.7156 H   0  0  0  0  0  0
   10.0260   15.9663   14.7840 H   0  0  0  0  0  0
    9.8289   17.2657   16.0085 H   0  0  0  0  0  0
   11.9966   16.9108   16.8511 H   0  0  0  0  0  0
   12.2909   15.8806   15.4094 H   0  0  0  0  0  0
   15.1682   16.0933   24.1714 H   0  0  0  0  0  0
   17.2436   16.7618   25.1555 H   0  0  0  0  0  0
  1 12  1  0  0  0
  1 13  1  0  0  0
  1 26  1  0  0  0
  2  5  1  0  0  0
  2  6  1  0  0  0
  2 27  1  0  0  0
  2 28  1  0  0  0
  3  4  1  0  0  0
  3  9  2  0  0  0
  3 15  1  0  0  0
  4  5  1  0  0  0
  4 29  1  0  0  0
  4 30  1  0  0  0
  5 31  1  0  0  0
  5 32  1  0  0  0
  6  7  1  0  0  0
  6 33  1  0  0  0
  6 34  1  0  0  0
  7 16  1  0  0  0
  7 18  1  0  0  0
  7 35  1  0  0  0
  8 16  1  0  0  0
  8 17  1  0  0  0
  8 36  1  0  0  0
  8 37  1  0  0  0
  9 19  1  0  0  0
  9 23  1  0  0  0
 10 21  1  0  0  0
 10 22  2  0  0  0
 10 23  1  0  0  0
 11 23  2  0  0  0
 11 24  1  0  0  0
 11 38  1  0  0  0
 12 39  1  0  0  0
 12 40  1  0  0  0
 12 41  1  0  0  0
 13 14  1  0  0  0
 13 25  1  0  0  0
 14 15  2  0  0  0
 15 24  1  0  0  0
 16 42  1  0  0  0
 16 43  1  0  0  0
 17 18  1  0  0  0
 17 44  1  0  0  0
 17 45  1  0  0  0
 18 46  1  0  0  0
 18 47  1  0  0  0
 19 20  2  0  0  0
 20 21  1  0  0  0
 20 48  1  0  0  0
 21 49  1  0  0  0
 24 25  2  0  0  0
M  CHG  1   2   1
M  END
> <s_m_source_file>
../3sm0_ligand.sdf

> <i_m_source_file_index>
1

> <s_epik_input>
bjFbY0hdW25IXWMoPU8pYyhjMTIpW2NIXWM9M2MoPU5bQ0hdKE4zKVtOSF1bQ0gzXSljMltDSDJdW0NIMl1bTkgyK11bQ0gyXVtDSF00W0NIMl1bQ0gyXVtDSDJdW0NIMl00

> <s_epik_cmdline>
J2VwaWtfYXBwJywgJy1pbWFlJywgJ2xpZ2FuZF9wcm8ubWFlJywgJy1vbWFlJywgJ2xpZ2FuZF9wcmVwLm1hZScsICctbXMnLCAnMScsICctcGgnLCAnNycsICctcGh0JywgJzAuNScsICctbnQn

> <r_epik_Ionization_Penalty>
  0.1000

> <r_epik_Ionization_Penalty_Charging>
  0.1000

> <r_epik_Ionization_Penalty_Neutral>
  0.0000

> <r_epik_State_Penalty>
  0.0900

> <r_epik_Charging_Adjusted_Penalty>
0.189991644320025

> <i_epik_Tot_Q>
1

> <i_epik_Tot_abs_Q>
1

> <s_epik_Chemistry_Notes>
This compound has an imine and may undergo hydrolysis.

$$$$
