3sm1_ligand
                    3D
 Schrodinger Suite 2020-3.
 76 75  0  0  1  0            999 V2000
   -5.5570    2.3350    8.7090 C   0  0  0  0  0  0
   -6.8630    1.7240    9.2530 C   0  0  0  0  0  0
   -7.4860    2.5750   10.3510 C   0  0  0  0  0  0
   -7.9330    1.4430    8.2070 C   0  0  0  0  0  0
   -5.7340    3.7020    8.0740 C   0  0  0  0  0  0
   -5.6850    4.7340    8.7490 O   0  0  0  0  0  0
   -5.9340    3.7530    6.7630 N   0  0  0  0  0  0
   -6.1770    5.0000    6.0470 C   0  0  2  0  0  0
   -7.3020    4.6580    5.0550 C   0  0  0  0  0  0
   -7.1610    3.7640    4.2040 O   0  0  0  0  0  0
   -4.9380    5.5340    5.2670 C   0  0  0  0  0  0
   -5.3120    6.6050    4.2230 C   0  0  0  0  0  0
   -3.8800    6.0900    6.2320 C   0  0  0  0  0  0
   -8.4030    5.3740    5.1580 N   0  0  0  0  0  0
   -9.5320    5.1990    4.2360 C   0  0  2  0  0  0
   -9.8190    6.5530    3.5930 C   0  0  0  0  0  0
   -9.7560    7.5620    4.2860 O   0  0  0  0  0  0
  -10.7850    4.7040    5.0200 C   0  0  0  0  0  0
  -12.0510    4.7800    4.1830 C   0  0  0  0  0  0
  -10.5830    3.2690    5.5220 C   0  0  0  0  0  0
  -10.1770    6.5700    2.2950 N   0  0  0  0  0  0
  -10.5110    7.8280    1.6200 C   0  0  1  0  0  0
  -10.2050    7.7500    0.1180 C   0  0  0  0  0  0
   -8.7080    7.5630   -0.1880 C   0  0  0  0  0  0
   -7.8540    8.7060    0.3530 C   0  0  0  0  0  0
   -8.4400    7.4010   -1.6930 C   0  0  0  0  0  0
  -11.9590    8.2280    2.0080 C   0  0  1  0  0  0
  -12.3420    9.5130    1.5330 O   0  0  0  0  0  0
  -12.9520    7.1970    1.5080 C   0  0  0  0  0  0
  -14.3670    7.4150    2.0100 C   0  0  0  0  0  0
  -14.6740    7.3690    3.3860 O   0  0  0  0  0  0
  -15.2860    7.4800    1.0490 N   0  0  0  0  0  0
   -4.8354    2.4496    9.5313 H   0  0  0  0  0  0
   -5.1343    1.6717    7.9400 H   0  0  0  0  0  0
   -6.5445    0.7521    9.6579 H   0  0  0  0  0  0
   -6.7302    2.7916   11.1203 H   0  0  0  0  0  0
   -8.3261    2.0294   10.8056 H   0  0  0  0  0  0
   -7.8518    3.5188    9.9204 H   0  0  0  0  0  0
   -7.5056    0.8280    7.4013 H   0  0  0  0  0  0
   -8.2961    2.3937    7.7894 H   0  0  0  0  0  0
   -8.7703    0.9043    8.6746 H   0  0  0  0  0  0
   -5.9107    2.7996    6.2148 H   0  0  0  0  0  0
   -6.4329    5.7561    6.8038 H   0  0  0  0  0  0
   -4.5057    4.6826    4.7209 H   0  0  0  0  0  0
   -6.0695    6.1990    3.5365 H   0  0  0  0  0  0
   -4.4155    6.8900    3.6528 H   0  0  0  0  0  0
   -5.7178    7.4901    4.7349 H   0  0  0  0  0  0
   -3.6190    5.3201    6.9730 H   0  0  0  0  0  0
   -4.2829    6.9740    6.7480 H   0  0  0  0  0  0
   -2.9806    6.3740    5.6659 H   0  0  0  0  0  0
   -8.4617    6.1204    5.9639 H   0  0  0  0  0  0
   -9.2382    4.4599    3.4761 H   0  0  0  0  0  0
  -10.9308    5.3703    5.8830 H   0  0  0  0  0  0
  -12.1924    5.8104    3.8249 H   0  0  0  0  0  0
  -12.9145    4.4832    4.7965 H   0  0  0  0  0  0
  -11.9625    4.1014    3.3218 H   0  0  0  0  0  0
   -9.6659    3.2180    6.1273 H   0  0  0  0  0  0
  -10.4931    2.5890    4.6621 H   0  0  0  0  0  0
  -11.4451    2.9708    6.1367 H   0  0  0  0  0  0
  -10.2168    5.6209    1.7404 H   0  0  0  0  0  0
   -9.8336    8.6127    1.9880 H   0  0  0  0  0  0
  -10.7426    6.8971   -0.3219 H   0  0  0  0  0  0
  -10.5300    8.6801   -0.3712 H   0  0  0  0  0  0
   -8.4117    6.6400    0.3320 H   0  0  0  0  0  0
   -8.0421    8.8262    1.4301 H   0  0  0  0  0  0
   -8.1140    9.6377   -0.1708 H   0  0  0  0  0  0
   -6.7903    8.4781    0.1897 H   0  0  0  0  0  0
   -9.0535    6.5779   -2.0881 H   0  0  0  0  0  0
   -7.3756    7.1748   -1.8536 H   0  0  0  0  0  0
   -8.6992    8.3344   -2.2141 H   0  0  0  0  0  0
  -12.0167    8.3450    3.1002 H   0  0  0  0  0  0
  -11.7407   10.3969    1.7922 H   0  0  0  0  0  0
  -12.9878    7.2253    0.4089 H   0  0  0  0  0  0
  -12.6390    6.1958    1.8390 H   0  0  0  0  0  0
  -14.9770    7.5131   -0.0062 H   0  0  0  0  0  0
  -16.3544    7.5006    1.3101 H   0  0  0  0  0  0
  1  2  1  0  0  0
  1  5  1  0  0  0
  1 33  1  0  0  0
  1 34  1  0  0  0
  2  3  1  0  0  0
  2  4  1  0  0  0
  2 35  1  0  0  0
  3 36  1  0  0  0
  3 37  1  0  0  0
  3 38  1  0  0  0
  4 39  1  0  0  0
  4 40  1  0  0  0
  4 41  1  0  0  0
  5  6  2  0  0  0
  5  7  1  0  0  0
  7  8  1  0  0  0
  7 42  1  0  0  0
  8  9  1  0  0  0
  8 11  1  0  0  0
  8 43  1  0  0  0
  9 10  2  0  0  0
  9 14  1  0  0  0
 11 12  1  0  0  0
 11 13  1  0  0  0
 11 44  1  0  0  0
 12 45  1  0  0  0
 12 46  1  0  0  0
 12 47  1  0  0  0
 13 48  1  0  0  0
 13 49  1  0  0  0
 13 50  1  0  0  0
 14 15  1  0  0  0
 14 51  1  0  0  0
 15 16  1  0  0  0
 15 18  1  0  0  0
 15 52  1  0  0  0
 16 17  2  0  0  0
 16 21  1  0  0  0
 18 19  1  0  0  0
 18 20  1  0  0  0
 18 53  1  0  0  0
 19 54  1  0  0  0
 19 55  1  0  0  0
 19 56  1  0  0  0
 20 57  1  0  0  0
 20 58  1  0  0  0
 20 59  1  0  0  0
 21 22  1  0  0  0
 21 60  1  0  0  0
 22 23  1  0  0  0
 22 27  1  0  0  0
 22 61  1  0  0  0
 23 24  1  0  0  0
 23 62  1  0  0  0
 23 63  1  0  0  0
 24 25  1  0  0  0
 24 26  1  0  0  0
 24 64  1  0  0  0
 25 65  1  0  0  0
 25 66  1  0  0  0
 25 67  1  0  0  0
 26 68  1  0  0  0
 26 69  1  0  0  0
 26 70  1  0  0  0
 27 28  1  0  0  0
 27 29  1  0  0  0
 27 71  1  0  0  0
 28 72  1  0  0  0
 29 30  1  0  0  0
 29 73  1  0  0  0
 29 74  1  0  0  0
 30 31  2  0  0  0
 30 32  1  0  0  0
 32 75  1  0  0  0
 32 76  1  0  0  0
M  END
> <s_m_source_file>
../3sm1_ligand.sdf

> <i_m_source_file_index>
1

> <s_epik_input>
W0NIM11bQ0hdKFtDSDNdKVtDSDJdQyg9TylbTkhdW0NAQEhdKFtDSF0oW0NIM10pW0NIM10pQyg9TylbTkhdW0NAQEhdKFtDSF0oW0NIM10pW0NIM10pQyg9TylbTkhdW0NAQEhdKFtDSDJdW0NIXShbQ0gzXSlbQ0gzXSlbQ0BASF0oW09IXSlbQ0gyXUMoPU8pW05IMl0=

> <s_epik_cmdline>
J2VwaWtfYXBwJywgJy1pbWFlJywgJ2xpZ2FuZF9wcm8ubWFlJywgJy1vbWFlJywgJ2xpZ2FuZF9wcmVwLm1hZScsICctbXMnLCAnMScsICctcGgnLCAnNycsICctcGh0JywgJzAuNScsICctbnQn

> <r_lp_tautomer_probability>
1

> <r_epik_Ionization_Penalty>
  0.0000

> <r_epik_Ionization_Penalty_Charging>
  0.0000

> <r_epik_Ionization_Penalty_Neutral>
  0.0000

> <r_epik_State_Penalty>
 -0.0000

> <r_epik_Charging_Adjusted_Penalty>
0

> <i_epik_Tot_Q>
0

> <i_epik_Tot_abs_Q>
0

$$$$
