3sm2_ligand
                    3D
 Schrodinger Suite 2020-3.
 70 72  0  0  1  0            999 V2000
   -2.6620    1.3630   16.0670 C   0  0  0  0  0  0
   -4.6390    1.2380   14.7350 C   0  0  0  0  0  0
   -2.9240    2.7800   12.6580 C   0  0  0  0  0  0
   -3.3930    2.0530   14.9290 C   0  0  2  0  0  0
   -2.4950    3.1570   10.2390 C   0  0  2  0  0  0
   -3.2700    2.2460    9.2490 C   0  0  1  0  0  0
   -1.1280    3.7010    9.7720 C   0  0  0  0  0  0
   -0.4530    4.4740   10.8970 C   0  0  0  0  0  0
    0.6890    3.9330   11.5090 C   0  0  0  0  0  0
   -0.9390    5.7200   11.3510 C   0  0  0  0  0  0
    1.3410    4.5870   12.5630 C   0  0  0  0  0  0
   -0.2850    6.3630   12.4130 C   0  0  0  0  0  0
    0.8290    5.7990   13.0210 C   0  0  0  0  0  0
   -3.7390    2.9320    7.9510 C   0  0  0  0  0  0
   -6.1960    3.2670    7.7960 C   0  0  0  0  0  0
   -6.8620    2.3120    8.8180 C   0  0  0  0  0  0
   -4.6780    5.8180    6.4790 C   0  0  0  0  0  0
   -3.5070    5.9290    5.7220 C   0  0  0  0  0  0
   -3.5800    6.3140    4.3760 C   0  0  0  0  0  0
   -4.8250    6.5590    3.7970 C   0  0  0  0  0  0
   -5.9830    6.4460    4.5520 C   0  0  0  0  0  0
   -5.9140    6.0730    5.8960 C   0  0  0  0  0  0
   -7.0530    2.9420   10.1890 C   0  0  0  0  0  0
   -8.2310    1.8280    8.3490 C   0  0  0  0  0  0
   -4.4800    0.0600   15.6950 C   0  0  0  0  0  0
   -2.2760    2.4850   11.5190 N   0  0  0  0  0  0
   -4.8990    3.7890    8.2890 N   0  0  2  0  0  0
   -4.9270    6.9220    2.4880 N   0  0  0  0  0  0
   -2.5610    1.9330   13.7820 O   0  0  0  0  0  0
   -3.7670    3.6550   12.7940 O   0  0  0  0  0  0
   -2.5190    1.0630    8.9000 O   0  0  0  0  0  0
   -3.2230    5.6300    8.4100 O   0  0  0  0  0  0
   -5.5280    6.0800    8.8380 O   0  0  0  0  0  0
   -3.0950    0.0100   16.0000 O   0  0  0  0  0  0
   -4.5770    5.3690    8.0220 S   0  0  0  0  0  0
   -1.5765    1.4543   15.9143 H   0  0  0  0  0  0
   -2.9391    1.8356   17.0208 H   0  0  0  0  0  0
   -5.5194    1.8503   14.9797 H   0  0  0  0  0  0
   -4.7018    0.9077   13.6876 H   0  0  0  0  0  0
   -3.6020    3.1246   15.0629 H   0  0  0  0  0  0
   -3.1658    4.0164   10.3854 H   0  0  0  0  0  0
   -4.1565    1.8988    9.8000 H   0  0  0  0  0  0
   -0.4815    2.8620    9.4752 H   0  0  0  0  0  0
   -1.2746    4.3725    8.9132 H   0  0  0  0  0  0
    1.0789    2.9787   11.1548 H   0  0  0  0  0  0
   -1.8110    6.1763   10.8824 H   0  0  0  0  0  0
    2.2331    4.1550   13.0165 H   0  0  0  0  0  0
   -0.6585    7.3237   12.7676 H   0  0  0  0  0  0
    1.3047    6.3067   13.8600 H   0  0  0  0  0  0
   -2.9196    3.5410    7.5415 H   0  0  0  0  0  0
   -4.0297    2.1668    7.2162 H   0  0  0  0  0  0
   -6.0142    2.7277    6.8547 H   0  0  0  0  0  0
   -6.8611    4.1223    7.6060 H   0  0  0  0  0  0
   -6.1711    1.4611    8.9107 H   0  0  0  0  0  0
   -2.5399    5.7166    6.1777 H   0  0  0  0  0  0
   -2.6699    6.4212    3.7859 H   0  0  0  0  0  0
   -6.9511    6.6492    4.0943 H   0  0  0  0  0  0
   -6.8261    5.9821    6.4859 H   0  0  0  0  0  0
   -6.0847    3.3052   10.5637 H   0  0  0  0  0  0
   -7.4571    2.1915   10.8843 H   0  0  0  0  0  0
   -7.7554    3.7849   10.1105 H   0  0  0  0  0  0
   -8.1355    1.3638    7.3563 H   0  0  0  0  0  0
   -8.9213    2.6824    8.2894 H   0  0  0  0  0  0
   -8.6230    1.0889    9.0632 H   0  0  0  0  0  0
   -5.0855    0.2371   16.5961 H   0  0  0  0  0  0
   -4.8181   -0.8632   15.2017 H   0  0  0  0  0  0
   -1.5360    1.6747   11.5953 H   0  0  0  0  0  0
   -4.0210    7.0174    1.8715 H   0  0  0  0  0  0
   -5.9154    7.1197    2.0475 H   0  0  0  0  0  0
   -2.0940    0.4280    9.6913 H   0  0  0  0  0  0
  1  4  1  0  0  0
  1 34  1  0  0  0
  1 36  1  0  0  0
  1 37  1  0  0  0
  2  4  1  0  0  0
  2 25  1  0  0  0
  2 38  1  0  0  0
  2 39  1  0  0  0
  3 26  1  0  0  0
  3 29  1  0  0  0
  3 30  2  0  0  0
  4 29  1  0  0  0
  4 40  1  0  0  0
  5  6  1  0  0  0
  5  7  1  0  0  0
  5 26  1  0  0  0
  5 41  1  0  0  0
  6 14  1  0  0  0
  6 31  1  0  0  0
  6 42  1  0  0  0
  7  8  1  0  0  0
  7 43  1  0  0  0
  7 44  1  0  0  0
  8  9  2  0  0  0
  8 10  1  0  0  0
  9 11  1  0  0  0
  9 45  1  0  0  0
 10 12  2  0  0  0
 10 46  1  0  0  0
 11 13  2  0  0  0
 11 47  1  0  0  0
 12 13  1  0  0  0
 12 48  1  0  0  0
 13 49  1  0  0  0
 14 27  1  0  0  0
 14 50  1  0  0  0
 14 51  1  0  0  0
 15 16  1  0  0  0
 15 27  1  0  0  0
 15 52  1  0  0  0
 15 53  1  0  0  0
 16 23  1  0  0  0
 16 24  1  0  0  0
 16 54  1  0  0  0
 17 18  2  0  0  0
 17 22  1  0  0  0
 17 35  1  0  0  0
 18 19  1  0  0  0
 18 55  1  0  0  0
 19 20  2  0  0  0
 19 56  1  0  0  0
 20 21  1  0  0  0
 20 28  1  0  0  0
 21 22  2  0  0  0
 21 57  1  0  0  0
 22 58  1  0  0  0
 23 59  1  0  0  0
 23 60  1  0  0  0
 23 61  1  0  0  0
 24 62  1  0  0  0
 24 63  1  0  0  0
 24 64  1  0  0  0
 25 34  1  0  0  0
 25 65  1  0  0  0
 25 66  1  0  0  0
 26 67  1  0  0  0
 27 35  1  0  0  0
 28 68  1  0  0  0
 28 69  1  0  0  0
 31 70  1  0  0  0
 32 35  2  0  0  0
 33 35  2  0  0  0
M  END
> <s_m_source_file>
../3sm2_ligand.sdf

> <i_m_source_file_index>
1

> <s_epik_input>
W0NIMl0xW0NIMl1PW0NIMl1bQ0BIXTFPQyg9TylbTkhdW0NAQEhdKFtDSDJdYzJbY0hdW2NIXVtjSF1bY0hdW2NIXTIpW0NASF0oW09IXSlbQ0gyXU4oW0NIMl1bQ0hdKFtDSDNdKVtDSDNdKVMoPU8pKD1PKWMzW2NIXVtjSF1jKFtOSDJdKVtjSF1bY0hdMw==

> <s_epik_cmdline>
J2VwaWtfYXBwJywgJy1pbWFlJywgJ2xpZ2FuZF9wcm8ubWFlJywgJy1vbWFlJywgJ2xpZ2FuZF9wcmVwLm1hZScsICctbXMnLCAnMScsICctcGgnLCAnNycsICctcGh0JywgJzAuNScsICctbnQn

> <r_lp_tautomer_probability>
1

> <r_epik_Ionization_Penalty>
  0.0000

> <r_epik_Ionization_Penalty_Charging>
  0.0000

> <r_epik_Ionization_Penalty_Neutral>
  0.0000

> <r_epik_State_Penalty>
 -0.0000

> <r_epik_Charging_Adjusted_Penalty>
0

> <i_epik_Tot_Q>
0

> <i_epik_Tot_abs_Q>
0

> <s_epik_Chemistry_Notes>
This compound has an ester and may undergo hydrolysis at high or low pH.

$$$$
