3smq_ligand
                    3D
 Schrodinger Suite 2020-3.
 39 41  0  0  1  0            999 V2000
    3.0980   -4.5800   12.0230 O   0  0  0  0  0  0
    5.0630   -6.2080    6.9110 C   0  0  0  0  0  0
   -0.8350   -4.8290   13.5660 C   0  0  0  0  0  0
   -1.2720   -5.2010   14.8350 C   0  0  0  0  0  0
    1.3850   -5.5820   14.0960 C   0  0  0  0  0  0
    6.2640   -6.4890    6.2600 C   0  0  0  0  0  0
    7.3630   -5.4440    6.5670 C   0  0  0  0  0  0
    6.8700   -3.9940    6.7030 C   0  0  0  0  0  0
    3.2780   -3.9240    9.3750 C   0  0  0  0  0  0
    5.7460   -3.8830    7.7470 C   0  0  0  0  0  0
    3.3460   -4.9480    8.2400 C   0  0  0  0  0  0
    0.3250   -6.6670   17.6510 N   0  0  0  0  0  0
   -0.6260   -6.1840   17.0100 N   0  0  0  0  0  0
    2.0290   -4.1700   10.1110 N   0  0  0  0  0  0
    0.8270   -4.6470   11.9500 N   0  0  0  0  0  0
    1.6630   -6.6310   16.7100 S   0  0  0  0  0  0
    4.7380   -5.0380    7.6110 C   0  0  3  0  0  0
    2.0390   -4.4890   11.3990 C   0  0  0  0  0  0
    0.4960   -5.0080   13.1920 C   0  0  0  0  0  0
   -0.3900   -5.7680   15.7440 C   0  0  0  0  0  0
    0.9350   -5.9420   15.3610 C   0  0  0  0  0  0
    4.2489   -6.9478    6.9068 H   0  0  0  0  0  0
   -1.5406   -4.3937   12.8584 H   0  0  0  0  0  0
   -2.3136   -5.0458   15.1160 H   0  0  0  0  0  0
    2.4249   -5.7478   13.8146 H   0  0  0  0  0  0
    6.3452   -7.3759    5.6143 H   0  0  0  0  0  0
    7.8546   -5.6974    7.5179 H   0  0  0  0  0  0
    8.1076   -5.4463    5.7573 H   0  0  0  0  0  0
    7.7051   -3.3508    7.0175 H   0  0  0  0  0  0
    6.4837   -3.6456    5.7338 H   0  0  0  0  0  0
    4.1476   -4.0515   10.0365 H   0  0  0  0  0  0
    3.2841   -2.9081    8.9532 H   0  0  0  0  0  0
    6.1796   -3.9151    8.7574 H   0  0  0  0  0  0
    5.2093   -2.9329    7.6083 H   0  0  0  0  0  0
    3.0861   -5.9437    8.6285 H   0  0  0  0  0  0
    2.6356   -4.6662    7.4488 H   0  0  0  0  0  0
    1.0613   -4.0909    9.5940 H   0  0  0  0  0  0
   -0.0775   -4.4703   11.3494 H   0  0  0  0  0  0
    5.1253   -5.4852    8.5383 H   0  0  0  0  0  0
  1 18  2  0  0  0
  2  6  2  0  0  0
  2 17  1  0  0  0
  2 22  1  0  0  0
  3  4  1  0  0  0
  3 19  2  0  0  0
  3 23  1  0  0  0
  4 20  2  0  0  0
  4 24  1  0  0  0
  5 19  1  0  0  0
  5 21  2  0  0  0
  5 25  1  0  0  0
  6  7  1  0  0  0
  6 26  1  0  0  0
  7  8  1  0  0  0
  7 27  1  0  0  0
  7 28  1  0  0  0
  8 10  1  0  0  0
  8 29  1  0  0  0
  8 30  1  0  0  0
  9 11  1  0  0  0
  9 14  1  0  0  0
  9 31  1  0  0  0
  9 32  1  0  0  0
 10 17  1  0  0  0
 10 33  1  0  0  0
 10 34  1  0  0  0
 11 17  1  0  0  0
 11 35  1  0  0  0
 11 36  1  0  0  0
 12 13  2  0  0  0
 12 16  1  0  0  0
 13 20  1  0  0  0
 14 18  1  0  0  0
 14 37  1  0  0  0
 15 18  1  0  0  0
 15 19  1  0  0  0
 15 38  1  0  0  0
 16 21  1  0  0  0
 17 39  1  0  0  0
 20 21  1  0  0  0
M  END
> <s_m_source_file>
../3smq_ligand.sdf

> <i_m_source_file_index>
1

> <s_epik_input>
bjFuc2MoYzEyKVtjSF1jKFtjSF1bY0hdMilbTkhdQyg9TylbTkhdW0NIMl1bQ0gyXVtDSF0zW0NIXT1bQ0hdW0NIMl1bQ0gyXVtDSDJdMw==

> <s_epik_cmdline>
J2VwaWtfYXBwJywgJy1pbWFlJywgJ2xpZ2FuZF9wcm8ubWFlJywgJy1vbWFlJywgJ2xpZ2FuZF9wcmVwLm1hZScsICctbXMnLCAnMScsICctcGgnLCAnNycsICctcGh0JywgJzAuNScsICctbnQn

> <r_lp_tautomer_probability>
1

> <r_epik_Ionization_Penalty>
  0.0000

> <r_epik_Ionization_Penalty_Charging>
  0.0000

> <r_epik_Ionization_Penalty_Neutral>
  0.0000

> <r_epik_State_Penalty>
 -0.0000

> <r_epik_Charging_Adjusted_Penalty>
0

> <i_epik_Tot_Q>
0

> <i_epik_Tot_abs_Q>
0

$$$$
