3sn7_ligand
                    3D
 Schrodinger Suite 2020-3.
 42 45  0  0  1  0            999 V2000
   17.4080  -11.0410  -35.1670 C   0  0  0  0  0  0
   20.4070  -10.0460  -38.9650 F   0  0  0  0  0  0
   17.7320   -7.2280  -34.9590 N   0  0  0  0  0  0
   22.7030  -14.2690  -37.9940 O   0  0  0  0  0  0
   18.0160   -9.6870  -34.8110 C   0  0  0  0  0  0
   20.1100  -10.8650  -32.3660 N   0  0  0  0  0  0
   17.2700   -8.5170  -35.2270 C   0  0  0  0  0  0
   20.6080  -11.5370  -34.3870 N   0  0  0  0  0  0
   18.9230   -7.0220  -34.2070 C   0  0  0  0  0  0
   22.0960  -13.9040  -35.2640 N   0  0  0  0  0  0
   19.7460   -8.0930  -33.7210 C   0  0  0  0  0  0
   19.2770   -9.4380  -34.0550 C   0  0  0  0  0  0
   20.0080  -10.6190  -33.6240 C   0  0  0  0  0  0
   20.7930  -12.0610  -32.1760 C   0  0  0  0  0  0
   21.1330  -12.5230  -33.4480 C   0  0  0  0  0  0
   20.8610  -11.7240  -35.8030 C   0  0  0  0  0  0
   20.4660  -10.8150  -36.7750 C   0  0  0  0  0  0
   20.7930  -11.0110  -38.1280 C   0  0  0  0  0  0
   21.5180  -12.1570  -38.6050 C   0  0  0  0  0  0
   21.9580  -13.1630  -37.6350 C   0  0  0  0  0  0
   21.6410  -12.9440  -36.2170 C   0  0  0  0  0  0
   21.8860  -13.7030  -33.9740 C   0  0  0  0  0  0
   22.4060  -14.7110  -33.0680 C   0  0  0  0  0  0
   23.1510  -14.3620  -39.3610 C   0  0  0  0  0  0
   21.1010  -12.5790  -30.7960 C   0  0  0  0  0  0
   16.4748  -10.8876  -35.7288 H   0  0  0  0  0  0
   17.1929  -11.6003  -34.2445 H   0  0  0  0  0  0
   18.1181  -11.6109  -35.7842 H   0  0  0  0  0  0
   16.3283   -8.6463  -35.7604 H   0  0  0  0  0  0
   19.2257   -5.9978  -33.9889 H   0  0  0  0  0  0
   20.6544   -7.9170  -33.1449 H   0  0  0  0  0  0
   19.8928   -9.9347  -36.4842 H   0  0  0  0  0  0
   21.7359  -12.2751  -39.6665 H   0  0  0  0  0  0
   22.9244  -15.4906  -33.6455 H   0  0  0  0  0  0
   21.5752  -15.1624  -32.5059 H   0  0  0  0  0  0
   23.1124  -14.2437  -32.3661 H   0  0  0  0  0  0
   23.7275  -15.2891  -39.4956 H   0  0  0  0  0  0
   23.7875  -13.4967  -39.5979 H   0  0  0  0  0  0
   22.2798  -14.3712  -40.0325 H   0  0  0  0  0  0
   20.6426  -11.9182  -30.0456 H   0  0  0  0  0  0
   22.1907  -12.6018  -30.6477 H   0  0  0  0  0  0
   20.6947  -13.5954  -30.6867 H   0  0  0  0  0  0
  1  5  1  0  0  0
  1 26  1  0  0  0
  1 27  1  0  0  0
  1 28  1  0  0  0
  2 18  1  0  0  0
  3  7  2  0  0  0
  3  9  1  0  0  0
  4 20  1  0  0  0
  4 24  1  0  0  0
  5  7  1  0  0  0
  5 12  2  0  0  0
  6 13  2  0  0  0
  6 14  1  0  0  0
  7 29  1  0  0  0
  8 13  1  0  0  0
  8 15  1  0  0  0
  8 16  1  0  0  0
  9 11  2  0  0  0
  9 30  1  0  0  0
 10 21  1  0  0  0
 10 22  2  0  0  0
 11 12  1  0  0  0
 11 31  1  0  0  0
 12 13  1  0  0  0
 14 15  2  0  0  0
 14 25  1  0  0  0
 15 22  1  0  0  0
 16 17  1  0  0  0
 16 21  2  0  0  0
 17 18  2  0  0  0
 17 32  1  0  0  0
 18 19  1  0  0  0
 19 20  2  0  0  0
 19 33  1  0  0  0
 20 21  1  0  0  0
 22 23  1  0  0  0
 23 34  1  0  0  0
 23 35  1  0  0  0
 23 36  1  0  0  0
 24 37  1  0  0  0
 24 38  1  0  0  0
 24 39  1  0  0  0
 25 40  1  0  0  0
 25 41  1  0  0  0
 25 42  1  0  0  0
M  END
> <s_m_source_file>
../3sn7_ligand.sdf

> <i_m_source_file_index>
1

> <s_epik_input>
W0NIM11jMVtjSF1uW2NIXVtjSF1jMS1jMm5jKFtDSDNdKWMobjIzKWMoW0NIM10pbmM0YzNbY0hdYyhGKVtjSF1jNE9bQ0gzXQ==

> <s_epik_cmdline>
J2VwaWtfYXBwJywgJy1pbWFlJywgJ2xpZ2FuZF9wcm8ubWFlJywgJy1vbWFlJywgJ2xpZ2FuZF9wcmVwLm1hZScsICctbXMnLCAnMScsICctcGgnLCAnNycsICctcGh0JywgJzAuNScsICctbnQn

> <r_epik_Ionization_Penalty>
  0.0269

> <r_epik_Ionization_Penalty_Charging>
  0.0000

> <r_epik_Ionization_Penalty_Neutral>
  0.0269

> <r_epik_State_Penalty>
  0.0208

> <r_epik_Charging_Adjusted_Penalty>
0.0207653653656399

> <i_epik_Tot_Q>
0

> <i_epik_Tot_abs_Q>
0

$$$$
