3sn8_ligand
                    3D
 Schrodinger Suite 2020-3.
 60 62  0  0  1  0            999 V2000
   16.7550    1.1700   23.0170 C   0  0  0  0  0  0
   15.6770    1.1720   22.4280 O   0  0  0  0  0  0
   17.1540    2.2940   23.9610 C   0  0  0  0  0  0
   17.1340    3.6520   23.2900 C   0  0  0  0  0  0
   17.0380    4.8060   24.2620 C   0  0  0  0  0  0
   16.7600    4.6000   25.6120 C   0  0  0  0  0  0
   16.6880    5.7020   26.4640 C   0  0  0  0  0  0
   16.8720    7.0020   25.9860 C   0  0  0  0  0  0
   17.1480    7.2030   24.6380 C   0  0  0  0  0  0
   17.2260    6.1080   23.7740 C   0  0  0  0  0  0
   17.6450    0.1720   22.8700 N   0  0  0  0  0  0
   17.3100   -0.9730   22.0310 C   0  0  2  0  0  0
   16.7340   -1.9350   23.0280 C   0  0  0  0  0  0
   17.4100   -2.8660   23.4690 O   0  0  0  0  0  0
   18.6110   -1.5010   21.4550 C   0  0  0  0  0  0
   18.8590   -0.7340   20.1920 C   0  0  0  0  0  0
   18.1810   -1.0860   19.0220 C   0  0  0  0  0  0
   19.7680    0.3370   20.2060 C   0  0  0  0  0  0
   18.4090   -0.3670   17.8560 C   0  0  0  0  0  0
   20.0150    1.0550   19.0410 C   0  0  0  0  0  0
   19.3310    0.6910   17.8720 C   0  0  0  0  0  0
   15.4800   -1.6410   23.4110 N   0  0  0  0  0  0
   14.7190   -2.3680   24.4270 C   0  0  2  0  0  0
   14.4120   -3.8170   24.0690 C   0  0  0  0  0  0
   13.9420   -4.5450   24.9570 O   0  0  0  0  0  0
   13.4170   -1.5400   24.5430 C   0  0  0  0  0  0
   13.4260   -0.1830   25.2440 C   0  0  0  0  0  0
   12.2190    0.5500   25.2440 C   0  0  0  0  0  0
   14.5490    0.3330   25.9000 C   0  0  0  0  0  0
   12.1390    1.7800   25.9010 C   0  0  0  0  0  0
   14.4830    1.5800   26.5440 C   0  0  0  0  0  0
   13.2720    2.2940   26.5430 C   0  0  0  0  0  0
   16.4546    2.3259   24.8094 H   0  0  0  0  0  0
   18.1737    2.1158   24.3330 H   0  0  0  0  0  0
   18.0584    3.7877   22.7094 H   0  0  0  0  0  0
   16.2659    3.7160   22.6175 H   0  0  0  0  0  0
   16.6012    3.5925   25.9964 H   0  0  0  0  0  0
   16.4842    5.5460   27.5234 H   0  0  0  0  0  0
   16.7998    7.8520   26.6645 H   0  0  0  0  0  0
   17.3031    8.2122   24.2565 H   0  0  0  0  0  0
   17.4339    6.2658   22.7157 H   0  0  0  0  0  0
   18.6200    0.2155   23.3775 H   0  0  0  0  0  0
   16.6169   -0.7474   21.2071 H   0  0  0  0  0  0
   19.4240   -1.3408   22.1784 H   0  0  0  0  0  0
   18.5107   -2.5768   21.2485 H   0  0  0  0  0  0
   17.4781   -1.9191   19.0245 H   0  0  0  0  0  0
   20.2798    0.6053   21.1302 H   0  0  0  0  0  0
   17.8779   -0.6215   16.9388 H   0  0  0  0  0  0
   20.7245    1.8824   19.0365 H   0  0  0  0  0  0
   19.5204    1.2441   16.9521 H   0  0  0  0  0  0
   15.0278   -0.7805   22.8961 H   0  0  0  0  0  0
   15.3324   -2.4447   25.3369 H   0  0  0  0  0  0
   14.5935   -4.2237   23.0632 H   0  0  0  0  0  0
   13.0360   -1.3129   23.5364 H   0  0  0  0  0  0
   12.6635   -2.1175   25.0986 H   0  0  0  0  0  0
   11.3445    0.1535   24.7282 H   0  0  0  0  0  0
   15.4792   -0.2350   25.9115 H   0  0  0  0  0  0
   11.2013    2.3356   25.9138 H   0  0  0  0  0  0
   15.3628    1.9901   27.0399 H   0  0  0  0  0  0
   13.2145    3.2584   27.0476 H   0  0  0  0  0  0
  1  2  2  0  0  0
  1  3  1  0  0  0
  1 11  1  0  0  0
  3  4  1  0  0  0
  3 33  1  0  0  0
  3 34  1  0  0  0
  4  5  1  0  0  0
  4 35  1  0  0  0
  4 36  1  0  0  0
  5  6  2  0  0  0
  5 10  1  0  0  0
  6  7  1  0  0  0
  6 37  1  0  0  0
  7  8  2  0  0  0
  7 38  1  0  0  0
  8  9  1  0  0  0
  8 39  1  0  0  0
  9 10  2  0  0  0
  9 40  1  0  0  0
 10 41  1  0  0  0
 11 12  1  0  0  0
 11 42  1  0  0  0
 12 13  1  0  0  0
 12 15  1  0  0  0
 12 43  1  0  0  0
 13 14  2  0  0  0
 13 22  1  0  0  0
 15 16  1  0  0  0
 15 44  1  0  0  0
 15 45  1  0  0  0
 16 17  2  0  0  0
 16 18  1  0  0  0
 17 19  1  0  0  0
 17 46  1  0  0  0
 18 20  2  0  0  0
 18 47  1  0  0  0
 19 21  2  0  0  0
 19 48  1  0  0  0
 20 21  1  0  0  0
 20 49  1  0  0  0
 21 50  1  0  0  0
 22 23  1  0  0  0
 22 51  1  0  0  0
 23 24  1  0  0  0
 23 26  1  0  0  0
 23 52  1  0  0  0
 24 25  2  0  0  0
 24 53  1  0  0  0
 26 27  1  0  0  0
 26 54  1  0  0  0
 26 55  1  0  0  0
 27 28  2  0  0  0
 27 29  1  0  0  0
 28 30  1  0  0  0
 28 56  1  0  0  0
 29 31  2  0  0  0
 29 57  1  0  0  0
 30 32  2  0  0  0
 30 58  1  0  0  0
 31 32  1  0  0  0
 31 59  1  0  0  0
 32 60  1  0  0  0
M  END
> <s_m_source_file>
../3sn8_ligand.sdf

> <i_m_source_file_index>
1

> <s_epik_input>
W2NIXTFbY0hdW2NIXVtjSF1bY0hdYzFbQ0gyXVtDSDJdQyg9TylbTkhdW0NAQEhdKFtDSDJdYzJbY0hdW2NIXVtjSF1bY0hdW2NIXTIpQyg9TylbTkhdW0NASF0oW0NIXT1PKVtDSDJdYzNbY0hdW2NIXVtjSF1bY0hdW2NIXTM=

> <s_epik_cmdline>
J2VwaWtfYXBwJywgJy1pbWFlJywgJ2xpZ2FuZF9wcm8ubWFlJywgJy1vbWFlJywgJ2xpZ2FuZF9wcmVwLm1hZScsICctbXMnLCAnMScsICctcGgnLCAnNycsICctcGh0JywgJzAuNScsICctbnQn

> <r_lp_tautomer_probability>
1

> <r_epik_Ionization_Penalty>
  0.0010

> <r_epik_Ionization_Penalty_Charging>
  0.0000

> <r_epik_Ionization_Penalty_Neutral>
  0.0010

> <r_epik_State_Penalty>
 -0.0000

> <r_epik_Charging_Adjusted_Penalty>
0

> <i_epik_Tot_Q>
0

> <i_epik_Tot_abs_Q>
0

$$$$
