3sna_ligand
                    3D
 Schrodinger Suite 2020-3.
 82 82  0  0  1  0            999 V2000
   21.4660   10.7070   22.9990 C   0  0  0  0  0  0
   20.5050   11.0540   23.6850 O   0  0  0  0  0  0
   22.5050   11.7020   22.5310 C   0  0  0  0  0  0
   21.6380    9.4180   22.6660 N   0  0  0  0  0  0
   21.3180    8.9060   21.3260 C   0  0  2  0  0  0
   20.8280    7.4470   21.2800 C   0  0  0  0  0  0
   21.4600    6.5640   21.8750 O   0  0  0  0  0  0
   22.5170    9.0820   20.3940 C   0  0  0  0  0  0
   22.1210    9.6580   19.0710 C   0  0  0  0  0  0
   21.8720   10.8610   18.9480 O   0  0  0  0  0  0
   22.0360    8.8030   18.0700 N   0  0  0  0  0  0
   19.7170    7.2230   20.5570 N   0  0  0  0  0  0
   19.0130    5.9210   20.4270 C   0  0  2  0  0  0
   18.8320    5.1250   21.7540 C   0  0  0  0  0  0
   19.1890    5.6330   22.8270 O   0  0  0  0  0  0
   19.6410    5.0720   19.3160 C   0  0  0  0  0  0
   18.8400    3.9320   19.0820 O   0  0  0  0  0  0
   18.2500    3.9130   21.6720 N   0  0  0  0  0  0
   18.0230    2.9710   22.8290 C   0  0  2  0  0  0
   17.5400    1.5720   22.3520 C   0  0  0  0  0  0
   16.3250    1.3020   22.3120 O   0  0  0  0  0  0
   16.9940    3.5110   23.8590 C   0  0  0  0  0  0
   17.5890    4.2890   25.0040 C   0  0  0  0  0  0
   17.4510    5.6820   25.0610 C   0  0  0  0  0  0
   18.2450    3.6350   26.0440 C   0  0  0  0  0  0
   17.9940    6.4200   26.1190 C   0  0  0  0  0  0
   18.7910    4.3630   27.1210 C   0  0  0  0  0  0
   18.6650    5.7590   27.1570 C   0  0  0  0  0  0
   18.4770    0.6870   21.9990 N   0  0  0  0  0  0
   18.1160   -0.6510   21.5020 C   0  0  2  0  0  0
   17.6120   -1.5890   22.6120 C   0  0  0  0  0  0
   18.3930   -2.0740   23.4370 O   0  0  0  0  0  0
   19.2730   -1.2860   20.7110 C   0  0  0  0  0  0
   19.2330   -0.9460   19.3270 O   0  0  0  0  0  0
   14.9440   -3.5150   23.9570 C   0  0  0  0  0  0
   16.4530   -1.8300   23.0760 N   0  0  0  0  0  0
   14.3440   -3.9630   25.1760 O   0  0  0  0  0  0
   15.4150   -2.0680   24.0760 C   0  0  1  0  0  0
   14.2570   -1.0920   23.8480 C   0  0  0  0  0  0
   12.7910    0.6050   24.9490 C   0  0  0  0  0  0
   14.1680   -0.0160   24.9280 C   0  0  0  0  0  0
   12.1970    0.8160   23.9130 O   0  0  0  0  0  0
   12.2730    0.9110   26.1300 N   0  0  0  0  0  0
   22.2306   12.7092   22.8778 H   0  0  0  0  0  0
   22.5525   11.6929   21.4321 H   0  0  0  0  0  0
   23.4873   11.4274   22.9428 H   0  0  0  0  0  0
   22.0326    8.7376   23.4350 H   0  0  0  0  0  0
   20.4706    9.5409   21.0279 H   0  0  0  0  0  0
   23.2463    9.7615   20.8592 H   0  0  0  0  0  0
   22.9888    8.1046   20.2149 H   0  0  0  0  0  0
   22.2690    7.7404   18.2330 H   0  0  0  0  0  0
   21.7321    9.1527   17.0723 H   0  0  0  0  0  0
   19.3325    8.1108   20.0337 H   0  0  0  0  0  0
   18.0000    6.2229   20.1225 H   0  0  0  0  0  0
   19.7087    5.6673   18.3935 H   0  0  0  0  0  0
   20.6487    4.7546   19.6223 H   0  0  0  0  0  0
   19.1342    3.2013   18.3142 H   0  0  0  0  0  0
   17.9295    3.6274   20.6592 H   0  0  0  0  0  0
   19.0168    2.9068   23.2961 H   0  0  0  0  0  0
   16.2878    4.1854   23.3526 H   0  0  0  0  0  0
   16.4427    2.6688   24.3026 H   0  0  0  0  0  0
   16.9116    6.1998   24.2679 H   0  0  0  0  0  0
   18.3373    2.5491   26.0252 H   0  0  0  0  0  0
   17.8954    7.5054   26.1357 H   0  0  0  0  0  0
   19.3105    3.8411   27.9247 H   0  0  0  0  0  0
   19.0861    6.3265   27.9868 H   0  0  0  0  0  0
   19.5352    0.9745   22.0856 H   0  0  0  0  0  0
   17.2727   -0.4556   20.8233 H   0  0  0  0  0  0
   20.2323   -0.9361   21.1201 H   0  0  0  0  0  0
   19.2165   -2.3814   20.7944 H   0  0  0  0  0  0
   20.0028   -1.3330   18.6431 H   0  0  0  0  0  0
   15.8112   -4.1490   23.7206 H   0  0  0  0  0  0
   14.2091   -3.5799   23.1411 H   0  0  0  0  0  0
   16.1982   -1.8386   22.0060 H   0  0  0  0  0  0
   13.9524   -4.9881   25.2520 H   0  0  0  0  0  0
   15.8515   -1.8959   25.0709 H   0  0  0  0  0  0
   14.3890   -0.5862   22.8801 H   0  0  0  0  0  0
   13.3062   -1.6452   23.8460 H   0  0  0  0  0  0
   14.3707   -0.4657   25.9112 H   0  0  0  0  0  0
   14.9100    0.7702   24.7244 H   0  0  0  0  0  0
   12.8406    0.7053   27.0495 H   0  0  0  0  0  0
   11.2755    1.3707   26.1906 H   0  0  0  0  0  0
  1  2  2  0  0  0
  1  3  1  0  0  0
  1  4  1  0  0  0
  3 44  1  0  0  0
  3 45  1  0  0  0
  3 46  1  0  0  0
  4  5  1  0  0  0
  4 47  1  0  0  0
  5  6  1  0  0  0
  5  8  1  0  0  0
  5 48  1  0  0  0
  6  7  2  0  0  0
  6 12  1  0  0  0
  8  9  1  0  0  0
  8 49  1  0  0  0
  8 50  1  0  0  0
  9 10  2  0  0  0
  9 11  1  0  0  0
 11 51  1  0  0  0
 11 52  1  0  0  0
 12 13  1  0  0  0
 12 53  1  0  0  0
 13 14  1  0  0  0
 13 16  1  0  0  0
 13 54  1  0  0  0
 14 15  2  0  0  0
 14 18  1  0  0  0
 16 17  1  0  0  0
 16 55  1  0  0  0
 16 56  1  0  0  0
 17 57  1  0  0  0
 18 19  1  0  0  0
 18 58  1  0  0  0
 19 20  1  0  0  0
 19 22  1  0  0  0
 19 59  1  0  0  0
 20 21  2  0  0  0
 20 29  1  0  0  0
 22 23  1  0  0  0
 22 60  1  0  0  0
 22 61  1  0  0  0
 23 24  2  0  0  0
 23 25  1  0  0  0
 24 26  1  0  0  0
 24 62  1  0  0  0
 25 27  2  0  0  0
 25 63  1  0  0  0
 26 28  2  0  0  0
 26 64  1  0  0  0
 27 28  1  0  0  0
 27 65  1  0  0  0
 28 66  1  0  0  0
 29 30  1  0  0  0
 29 67  1  0  0  0
 30 31  1  0  0  0
 30 33  1  0  0  0
 30 68  1  0  0  0
 31 32  2  0  0  0
 31 36  1  0  0  0
 33 34  1  0  0  0
 33 69  1  0  0  0
 33 70  1  0  0  0
 34 71  1  0  0  0
 35 37  1  0  0  0
 35 38  1  0  0  0
 35 72  1  0  0  0
 35 73  1  0  0  0
 36 38  1  0  0  0
 36 74  1  0  0  0
 37 75  1  0  0  0
 38 39  1  0  0  0
 38 76  1  0  0  0
 39 41  1  0  0  0
 39 77  1  0  0  0
 39 78  1  0  0  0
 40 41  1  0  0  0
 40 42  2  0  0  0
 40 43  1  0  0  0
 41 79  1  0  0  0
 41 80  1  0  0  0
 43 81  1  0  0  0
 43 82  1  0  0  0
M  END
> <s_m_source_file>
../3sna_ligand.sdf

> <i_m_source_file_index>
1

> <s_epik_input>
Tz1DKFtDSDNdKVtOSF1bQ0BASF0oW0NIMl1DKD1PKVtOSDJdKUMoPU8pW05IXVtDQEBIXShbQ0gyXVtPSF0pQyg9TylbTkhdW0NAQEhdKFtDSDJdYzFbY0hdW2NIXVtjSF1bY0hdW2NIXTEpQyg9TylbTkhdW0NAQEhdKFtDSDJdW09IXSlDKD1PKVtOSF1bQ0BIXShbQ0gyXVtPSF0pW0NIMl1bQ0gyXUMoPU8pW05IMl0=

> <s_epik_cmdline>
J2VwaWtfYXBwJywgJy1pbWFlJywgJ2xpZ2FuZF9wcm8ubWFlJywgJy1vbWFlJywgJ2xpZ2FuZF9wcmVwLm1hZScsICctbXMnLCAnMScsICctcGgnLCAnNycsICctcGh0JywgJzAuNScsICctbnQn

> <r_lp_tautomer_probability>
1

> <r_epik_Ionization_Penalty>
  0.0000

> <r_epik_Ionization_Penalty_Charging>
  0.0000

> <r_epik_Ionization_Penalty_Neutral>
  0.0000

> <r_epik_State_Penalty>
 -0.0000

> <r_epik_Charging_Adjusted_Penalty>
0

> <i_epik_Tot_Q>
0

> <i_epik_Tot_abs_Q>
0

$$$$
