3snb_ligand
                    3D
 Schrodinger Suite 2020-3.
 79 79  0  0  1  0            999 V2000
   21.6180   10.6720   20.2590 C   0  0  0  0  0  0
   20.8950   11.1670   19.3840 O   0  0  0  0  0  0
   22.9360   11.3100   20.6420 C   0  0  0  0  0  0
   21.2650    9.5830   20.9510 N   0  0  0  0  0  0
   21.4340    8.4150   20.4010 C   0  0  2  0  0  0
   20.1270    7.6470   20.5850 C   0  0  0  0  0  0
   19.2950    8.0080   21.4240 O   0  0  0  0  0  0
   22.5510    7.7450   21.2180 C   0  0  0  0  0  0
   23.9330    7.8750   20.5670 C   0  0  0  0  0  0
   24.0180    8.0850   19.3340 O   0  5  0  0  0  0
   24.9400    7.7500   21.2990 O   0  0  0  0  0  0
   19.9570    6.5910   19.7900 N   0  0  0  0  0  0
   18.8150    5.6700   19.8960 C   0  0  2  0  0  0
   19.1200    4.4900   20.8360 C   0  0  0  0  0  0
   20.2550    4.3400   21.2940 O   0  0  0  0  0  0
   18.4350    5.1540   18.5050 C   0  0  0  0  0  0
   19.5860    4.7650   17.7700 O   0  0  0  0  0  0
   18.1120    3.6580   21.1250 N   0  0  0  0  0  0
   18.2900    2.5280   22.0520 C   0  0  2  0  0  0
   17.4530    1.2990   21.6860 C   0  0  0  0  0  0
   16.2200    1.3260   21.7610 O   0  0  0  0  0  0
   17.9980    2.9500   23.5040 C   0  0  0  0  0  0
   18.8110    2.2010   24.5420 C   0  0  0  0  0  0
   19.7300    2.8800   25.3450 C   0  0  0  0  0  0
   18.6600    0.8240   24.7230 C   0  0  0  0  0  0
   20.4830    2.2000   26.3140 C   0  0  0  0  0  0
   19.4170    0.1400   25.6810 C   0  0  0  0  0  0
   20.3270    0.8310   26.4780 C   0  0  0  0  0  0
   18.1470    0.2190   21.3260 N   0  0  0  0  0  0
   17.5190   -1.0450   20.9330 C   0  0  2  0  0  0
   17.0170   -1.8520   22.1410 C   0  0  0  0  0  0
   17.2090   -3.0740   22.2180 O   0  0  0  0  0  0
   18.4880   -1.8810   20.0750 C   0  0  0  0  0  0
   18.6960   -1.3030   18.6670 C   0  0  0  0  0  0
   17.7100   -1.1260   17.9140 O   0  5  0  0  0  0
   19.8620   -1.0490   18.3010 O   0  0  0  0  0  0
   14.4920   -3.6710   23.8330 C   0  0  0  0  0  0
   15.9100   -1.9180   22.8810 N   0  0  0  0  0  0
   15.2790   -4.6070   23.8130 O   0  0  0  0  0  0
   14.9540   -2.2240   23.9370 C   0  0  1  0  0  0
   13.7310   -1.3140   23.8000 C   0  0  0  0  0  0
   12.5080    0.6980   24.4640 C   0  0  0  0  0  0
   13.8950    0.0810   24.4050 C   0  0  0  0  0  0
   11.8350    0.8240   23.4480 O   0  0  0  0  0  0
   12.0720    1.0670   25.6670 N   0  0  0  0  0  0
   23.1153   12.1904   20.0073 H   0  0  0  0  0  0
   23.7499   10.5837   20.5001 H   0  0  0  0  0  0
   22.9006   11.6196   21.6970 H   0  0  0  0  0  0
   20.8403    9.6582   21.9629 H   0  0  0  0  0  0
   21.6786    8.5989   19.3444 H   0  0  0  0  0  0
   22.6065    8.2099   22.2134 H   0  0  0  0  0  0
   22.3332    6.6722   21.3261 H   0  0  0  0  0  0
   20.7281    6.4250   19.0233 H   0  0  0  0  0  0
   17.9951    6.2655   20.3240 H   0  0  0  0  0  0
   17.7717    4.2823   18.6059 H   0  0  0  0  0  0
   17.9151    5.9479   17.9488 H   0  0  0  0  0  0
   19.4791    4.3712   16.7485 H   0  0  0  0  0  0
   17.1341    3.8333   20.6529 H   0  0  0  0  0  0
   19.3505    2.2659   21.9230 H   0  0  0  0  0  0
   18.2227    4.0197   23.6272 H   0  0  0  0  0  0
   16.9371    2.7696   23.7320 H   0  0  0  0  0  0
   19.8642    3.9541   25.2170 H   0  0  0  0  0  0
   17.9440    0.2758   24.1107 H   0  0  0  0  0  0
   21.1902    2.7468   26.9377 H   0  0  0  0  0  0
   19.2943   -0.9361   25.8038 H   0  0  0  0  0  0
   20.9136    0.2988   27.2268 H   0  0  0  0  0  0
   19.2432    0.3095   21.3335 H   0  0  0  0  0  0
   16.6439   -0.7421   20.3392 H   0  0  0  0  0  0
   19.4709   -1.9226   20.5672 H   0  0  0  0  0  0
   18.0912   -2.9007   19.9618 H   0  0  0  0  0  0
   13.4101   -3.8608   23.7749 H   0  0  0  0  0  0
   15.6033   -1.3015   22.0232 H   0  0  0  0  0  0
   15.4866   -2.0552   24.8846 H   0  0  0  0  0  0
   13.4980   -1.1708   22.7345 H   0  0  0  0  0  0
   12.8705   -1.7778   24.3043 H   0  0  0  0  0  0
   14.3279   -0.0049   25.4126 H   0  0  0  0  0  0
   14.5629    0.6804   23.7688 H   0  0  0  0  0  0
   12.7145    0.9332   26.5498 H   0  0  0  0  0  0
   11.0693    1.5056   25.7779 H   0  0  0  0  0  0
  1  2  2  0  0  0
  1  3  1  0  0  0
  1  4  1  0  0  0
  3 46  1  0  0  0
  3 47  1  0  0  0
  3 48  1  0  0  0
  4  5  1  0  0  0
  4 49  1  0  0  0
  5  6  1  0  0  0
  5  8  1  0  0  0
  5 50  1  0  0  0
  6  7  2  0  0  0
  6 12  1  0  0  0
  8  9  1  0  0  0
  8 51  1  0  0  0
  8 52  1  0  0  0
  9 10  1  0  0  0
  9 11  2  0  0  0
 12 13  1  0  0  0
 12 53  1  0  0  0
 13 14  1  0  0  0
 13 16  1  0  0  0
 13 54  1  0  0  0
 14 15  2  0  0  0
 14 18  1  0  0  0
 16 17  1  0  0  0
 16 55  1  0  0  0
 16 56  1  0  0  0
 17 57  1  0  0  0
 18 19  1  0  0  0
 18 58  1  0  0  0
 19 20  1  0  0  0
 19 22  1  0  0  0
 19 59  1  0  0  0
 20 21  2  0  0  0
 20 29  1  0  0  0
 22 23  1  0  0  0
 22 60  1  0  0  0
 22 61  1  0  0  0
 23 24  2  0  0  0
 23 25  1  0  0  0
 24 26  1  0  0  0
 24 62  1  0  0  0
 25 27  2  0  0  0
 25 63  1  0  0  0
 26 28  2  0  0  0
 26 64  1  0  0  0
 27 28  1  0  0  0
 27 65  1  0  0  0
 28 66  1  0  0  0
 29 30  1  0  0  0
 29 67  1  0  0  0
 30 31  1  0  0  0
 30 33  1  0  0  0
 30 68  1  0  0  0
 31 32  2  0  0  0
 31 38  1  0  0  0
 33 34  1  0  0  0
 33 69  1  0  0  0
 33 70  1  0  0  0
 34 35  1  0  0  0
 34 36  2  0  0  0
 37 39  2  0  0  0
 37 40  1  0  0  0
 37 71  1  0  0  0
 38 40  1  0  0  0
 38 72  1  0  0  0
 40 41  1  0  0  0
 40 73  1  0  0  0
 41 43  1  0  0  0
 41 74  1  0  0  0
 41 75  1  0  0  0
 42 43  1  0  0  0
 42 44  2  0  0  0
 42 45  1  0  0  0
 43 76  1  0  0  0
 43 77  1  0  0  0
 45 78  1  0  0  0
 45 79  1  0  0  0
M  CHG  2  10  -1  35  -1
M  END
> <s_m_source_file>
../3snb_ligand.sdf

> <i_m_source_file_index>
1

> <s_epik_input>
Tz1DKFtDSDNdKVtOSF1bQ0BASF0oW0NIMl1DKD1PKVtPSF0pQyg9TylbTkhdW0NAQEhdKFtDSDJdW09IXSlDKD1PKVtOSF1bQ0BASF0oW0NIMl1jMVtjSF1bY0hdW2NIXVtjSF1bY0hdMSlDKD1PKVtOSF1bQ0BASF0oW0NIMl1DKD1PKVtPSF0pQyg9TylbTkhdW0NASF0oW0NIXT1PKVtDSDJdW0NIMl1DKD1PKVtOSDJd

> <s_epik_cmdline>
J2VwaWtfYXBwJywgJy1pbWFlJywgJ2xpZ2FuZF9wcm8ubWFlJywgJy1vbWFlJywgJ2xpZ2FuZF9wcmVwLm1hZScsICctbXMnLCAnMScsICctcGgnLCAnNycsICctcGh0JywgJzAuNScsICctbnQn

> <r_lp_tautomer_probability>
1

> <r_epik_Ionization_Penalty>
  0.0032

> <r_epik_Ionization_Penalty_Charging>
  0.0026

> <r_epik_Ionization_Penalty_Neutral>
  0.0006

> <r_epik_State_Penalty>
 -0.0000

> <r_epik_Charging_Adjusted_Penalty>
0.00264273680396741

> <i_epik_Tot_Q>
-2

> <i_epik_Tot_abs_Q>
2

$$$$
