3snc_ligand
                    3D
 Schrodinger Suite 2020-3.
 76 75  0  0  1  0            999 V2000
   29.4170   51.4660   -6.1850 C   0  0  0  0  0  0
   28.5910   51.9920   -6.9480 O   0  0  0  0  0  0
   30.7210   52.1430   -5.8340 C   0  0  0  0  0  0
   29.0960   50.4700   -5.4140 N   0  0  0  0  0  0
   28.8550   49.1030   -5.9060 C   0  0  2  0  0  0
   27.4240   48.6070   -5.5590 C   0  0  0  0  0  0
   26.5300   49.4290   -5.3160 O   0  0  0  0  0  0
   29.9600   48.1280   -5.4120 C   0  0  0  0  0  0
   31.3720   48.4580   -5.9740 C   0  0  0  0  0  0
   32.3460   48.5540   -5.2200 O   0  0  0  0  0  0
   31.4760   48.6050   -7.2880 N   0  0  0  0  0  0
   27.2070   47.2830   -5.5490 N   0  0  0  0  0  0
   25.8810   46.6820   -5.2330 C   0  0  2  0  0  0
   25.9430   45.3800   -4.3960 C   0  0  0  0  0  0
   26.9250   44.6200   -4.4820 O   0  0  0  0  0  0
   25.0650   46.4590   -6.5150 C   0  0  0  0  0  0
   25.9040   46.1970   -7.6260 O   0  0  0  0  0  0
   24.8980   45.1450   -3.5870 N   0  0  0  0  0  0
   24.7420   43.8910   -2.8200 C   0  0  2  0  0  0
   24.0850   42.7690   -3.6460 C   0  0  0  0  0  0
   22.8720   42.7930   -3.8880 O   0  0  0  0  0  0
   23.8960   44.0620   -1.5000 C   0  0  2  0  0  0
   24.1650   45.3220   -0.8790 O   0  0  0  0  0  0
   24.1800   42.9180   -0.5020 C   0  0  0  0  0  0
   24.8950   41.7910   -4.0600 N   0  0  0  0  0  0
   24.3990   40.4950   -4.5530 C   0  0  2  0  0  0
   23.6190   39.7820   -3.4450 C   0  0  0  0  0  0
   24.2060   39.4070   -2.4100 O   0  0  0  0  0  0
   25.5660   39.5990   -4.9920 C   0  0  0  0  0  0
   26.2940   40.1680   -6.0680 O   0  0  0  0  0  0
   21.6000   37.6680   -2.4630 C   0  0  0  0  0  0
   22.4180   39.9200   -3.0350 N   0  0  0  0  0  0
   21.1160   36.8180   -1.4160 O   0  0  0  0  0  0
   21.7060   39.1350   -2.0100 C   0  0  1  0  0  0
   20.3330   39.7160   -1.6930 C   0  0  0  0  0  0
   19.1770   41.8000   -1.0720 C   0  0  0  0  0  0
   20.4960   41.0760   -1.0430 C   0  0  0  0  0  0
   18.4910   41.7850   -2.0900 O   0  0  0  0  0  0
   18.8480   42.4240    0.0600 N   0  0  0  0  0  0
   30.9067   52.9681   -6.5374 H   0  0  0  0  0  0
   31.5419   51.4137   -5.8993 H   0  0  0  0  0  0
   30.6639   52.5401   -4.8098 H   0  0  0  0  0  0
   29.0071   50.6917   -4.3403 H   0  0  0  0  0  0
   28.9248   49.1884   -7.0005 H   0  0  0  0  0  0
   30.0232   48.1711   -4.3147 H   0  0  0  0  0  0
   29.7114   47.1032   -5.7250 H   0  0  0  0  0  0
   30.5835   48.5117   -7.9242 H   0  0  0  0  0  0
   32.4547   48.8202   -7.7416 H   0  0  0  0  0  0
   28.0622   46.6338   -5.7881 H   0  0  0  0  0  0
   25.4067   47.4481   -4.6020 H   0  0  0  0  0  0
   24.3924   45.5997   -6.3767 H   0  0  0  0  0  0
   24.4705   47.3586   -6.7324 H   0  0  0  0  0  0
   25.4633   46.0161   -8.6175 H   0  0  0  0  0  0
   24.1377   45.9360   -3.5084 H   0  0  0  0  0  0
   25.7948   43.6542   -2.6066 H   0  0  0  0  0  0
   22.8211   44.1043   -1.7297 H   0  0  0  0  0  0
   24.0181   46.2553   -1.4423 H   0  0  0  0  0  0
   23.9719   41.9512   -0.9836 H   0  0  0  0  0  0
   23.5352   43.0338    0.3817 H   0  0  0  0  0  0
   25.2352   42.9543   -0.1933 H   0  0  0  0  0  0
   25.9767   41.9872   -4.0210 H   0  0  0  0  0  0
   23.7483   40.7257   -5.4093 H   0  0  0  0  0  0
   26.2558   39.4553   -4.1473 H   0  0  0  0  0  0
   25.1767   38.6231   -5.3175 H   0  0  0  0  0  0
   27.1601   39.6359   -6.4883 H   0  0  0  0  0  0
   22.5994   37.3315   -2.7759 H   0  0  0  0  0  0
   20.9124   37.6216   -3.3204 H   0  0  0  0  0  0
   21.9048   40.7450   -3.5508 H   0  0  0  0  0  0
   20.9891   35.7404   -1.5968 H   0  0  0  0  0  0
   22.3107   39.2146   -1.0946 H   0  0  0  0  0  0
   19.7559   39.8217   -2.6235 H   0  0  0  0  0  0
   19.7999   39.0430   -1.0053 H   0  0  0  0  0  0
   20.8235   40.9474   -0.0008 H   0  0  0  0  0  0
   21.2488   41.6582   -1.5947 H   0  0  0  0  0  0
   19.5248   42.3850    0.9263 H   0  0  0  0  0  0
   17.8999   42.9776    0.1273 H   0  0  0  0  0  0
  1  2  2  0  0  0
  1  3  1  0  0  0
  1  4  1  0  0  0
  3 40  1  0  0  0
  3 41  1  0  0  0
  3 42  1  0  0  0
  4  5  1  0  0  0
  4 43  1  0  0  0
  5  6  1  0  0  0
  5  8  1  0  0  0
  5 44  1  0  0  0
  6  7  2  0  0  0
  6 12  1  0  0  0
  8  9  1  0  0  0
  8 45  1  0  0  0
  8 46  1  0  0  0
  9 10  2  0  0  0
  9 11  1  0  0  0
 11 47  1  0  0  0
 11 48  1  0  0  0
 12 13  1  0  0  0
 12 49  1  0  0  0
 13 14  1  0  0  0
 13 16  1  0  0  0
 13 50  1  0  0  0
 14 15  2  0  0  0
 14 18  1  0  0  0
 16 17  1  0  0  0
 16 51  1  0  0  0
 16 52  1  0  0  0
 17 53  1  0  0  0
 18 19  1  0  0  0
 18 54  1  0  0  0
 19 20  1  0  0  0
 19 22  1  0  0  0
 19 55  1  0  0  0
 20 21  2  0  0  0
 20 25  1  0  0  0
 22 23  1  0  0  0
 22 24  1  0  0  0
 22 56  1  0  0  0
 23 57  1  0  0  0
 24 58  1  0  0  0
 24 59  1  0  0  0
 24 60  1  0  0  0
 25 26  1  0  0  0
 25 61  1  0  0  0
 26 27  1  0  0  0
 26 29  1  0  0  0
 26 62  1  0  0  0
 27 28  2  0  0  0
 27 32  1  0  0  0
 29 30  1  0  0  0
 29 63  1  0  0  0
 29 64  1  0  0  0
 30 65  1  0  0  0
 31 33  1  0  0  0
 31 34  1  0  0  0
 31 66  1  0  0  0
 31 67  1  0  0  0
 32 34  1  0  0  0
 32 68  1  0  0  0
 33 69  1  0  0  0
 34 35  1  0  0  0
 34 70  1  0  0  0
 35 37  1  0  0  0
 35 71  1  0  0  0
 35 72  1  0  0  0
 36 37  1  0  0  0
 36 38  2  0  0  0
 36 39  1  0  0  0
 37 73  1  0  0  0
 37 74  1  0  0  0
 39 75  1  0  0  0
 39 76  1  0  0  0
M  END
> <s_m_source_file>
../3snc_ligand.sdf

> <i_m_source_file_index>
1

> <s_epik_input>
Tz1DKFtDSDNdKVtOSF1bQ0BASF0oW0NIMl1DKD1PKVtOSDJdKUMoPU8pW05IXVtDQEBIXShbQ0gyXVtPSF0pQyg9TylbTkhdW0NAQEhdKFtDQEhdKFtPSF0pW0NIM10pQyg9TylbTkhdW0NAQEhdKFtDSDJdW09IXSlDKD1PKVtOSF1bQ0BIXShbQ0gyXVtPSF0pW0NIMl1bQ0gyXUMoPU8pW05IMl0=

> <s_epik_cmdline>
J2VwaWtfYXBwJywgJy1pbWFlJywgJ2xpZ2FuZF9wcm8ubWFlJywgJy1vbWFlJywgJ2xpZ2FuZF9wcmVwLm1hZScsICctbXMnLCAnMScsICctcGgnLCAnNycsICctcGh0JywgJzAuNScsICctbnQn

> <r_lp_tautomer_probability>
1

> <r_epik_Ionization_Penalty>
  0.0000

> <r_epik_Ionization_Penalty_Charging>
  0.0000

> <r_epik_Ionization_Penalty_Neutral>
  0.0000

> <r_epik_State_Penalty>
 -0.0000

> <r_epik_Charging_Adjusted_Penalty>
0

> <i_epik_Tot_Q>
0

> <i_epik_Tot_abs_Q>
0

$$$$
