3snd_ligand
                    3D
 Schrodinger Suite 2020-3.
 41 40  0  0  1  0            999 V2000
  -17.3060  -30.9410    5.4030 N   0  3  0  0  0  0
  -17.9530  -30.0670    6.4930 C   0  0  2  0  0  0
  -17.0460  -28.9820    7.1200 C   0  0  0  0  0  0
  -16.5350  -29.0330    8.2720 O   0  0  0  0  0  0
  -18.6260  -30.9160    7.5850 C   0  0  0  0  0  0
  -19.9320  -30.3270    8.1780 C   0  0  0  0  0  0
  -21.1280  -30.4290    7.1740 C   0  0  0  0  0  0
  -20.3300  -30.9150    9.5430 C   0  0  0  0  0  0
  -15.4050  -26.0990    7.1100 C   0  0  0  0  0  0
  -16.3340  -28.2700    6.3530 N   0  0  0  0  0  0
  -14.3270  -25.1510    7.0140 O   0  0  0  0  0  0
  -15.1170  -27.4430    6.4340 C   0  0  1  0  0  0
  -14.5590  -27.3270    5.0170 C   0  0  0  0  0  0
  -13.7170  -28.6830    3.0990 C   0  0  0  0  0  0
  -14.0290  -28.6940    4.5820 C   0  0  0  0  0  0
  -14.5300  -28.2720    2.2900 O   0  0  0  0  0  0
  -12.5190  -29.1600    2.7340 N   0  0  0  0  0  0
  -16.8381  -30.2954    4.6452 H   0  0  0  0  0  0
  -18.0772  -31.5649    4.9276 H   0  0  0  0  0  0
  -16.5405  -31.5870    5.8575 H   0  0  0  0  0  0
  -18.7243  -29.5085    5.9424 H   0  0  0  0  0  0
  -18.8891  -31.9015    7.1732 H   0  0  0  0  0  0
  -17.9324  -31.0446    8.4290 H   0  0  0  0  0  0
  -19.6941  -29.2703    8.3697 H   0  0  0  0  0  0
  -20.8294  -30.0054    6.2038 H   0  0  0  0  0  0
  -21.9878  -29.8685    7.5698 H   0  0  0  0  0  0
  -21.4075  -31.4848    7.0428 H   0  0  0  0  0  0
  -19.4807  -30.8366   10.2377 H   0  0  0  0  0  0
  -20.6068  -31.9725    9.4200 H   0  0  0  0  0  0
  -21.1870  -30.3562    9.9471 H   0  0  0  0  0  0
  -15.6164  -26.3078    8.1691 H   0  0  0  0  0  0
  -16.3037  -25.6820    6.6320 H   0  0  0  0  0  0
  -16.8661  -28.3733    5.3958 H   0  0  0  0  0  0
  -14.4299  -24.1535    7.4661 H   0  0  0  0  0  0
  -14.3754  -27.9387    7.0777 H   0  0  0  0  0  0
  -15.3577  -27.0025    4.3338 H   0  0  0  0  0  0
  -13.7429  -26.5895    5.0035 H   0  0  0  0  0  0
  -13.1115  -28.9268    5.1424 H   0  0  0  0  0  0
  -14.7883  -29.4634    4.7857 H   0  0  0  0  0  0
  -11.8148  -29.5212    3.4980 H   0  0  0  0  0  0
  -12.2399  -29.1903    1.6704 H   0  0  0  0  0  0
  1  2  1  0  0  0
  1 18  1  0  0  0
  1 19  1  0  0  0
  1 20  1  0  0  0
  2  3  1  0  0  0
  2  5  1  0  0  0
  2 21  1  0  0  0
  3  4  2  0  0  0
  3 10  1  0  0  0
  5  6  1  0  0  0
  5 22  1  0  0  0
  5 23  1  0  0  0
  6  7  1  0  0  0
  6  8  1  0  0  0
  6 24  1  0  0  0
  7 25  1  0  0  0
  7 26  1  0  0  0
  7 27  1  0  0  0
  8 28  1  0  0  0
  8 29  1  0  0  0
  8 30  1  0  0  0
  9 11  1  0  0  0
  9 12  1  0  0  0
  9 31  1  0  0  0
  9 32  1  0  0  0
 10 12  1  0  0  0
 10 33  1  0  0  0
 11 34  1  0  0  0
 12 13  1  0  0  0
 12 35  1  0  0  0
 13 15  1  0  0  0
 13 36  1  0  0  0
 13 37  1  0  0  0
 14 15  1  0  0  0
 14 16  2  0  0  0
 14 17  1  0  0  0
 15 38  1  0  0  0
 15 39  1  0  0  0
 17 40  1  0  0  0
 17 41  1  0  0  0
M  CHG  1   1   1
M  END
> <s_m_source_file>
../3snd_ligand.sdf

> <i_m_source_file_index>
1

> <s_epik_input>
W0NIM11bQ0hdKFtDSDNdKVtDSDJdW0NASF0oW05IMytdKUMoPU8pW05IXVtDQEhdKFtDSDJdW09IXSlbQ0gyXVtDSDJdQyg9TylbTkgyXQ==

> <s_epik_cmdline>
J2VwaWtfYXBwJywgJy1pbWFlJywgJ2xpZ2FuZF9wcm8ubWFlJywgJy1vbWFlJywgJ2xpZ2FuZF9wcmVwLm1hZScsICctbXMnLCAnMScsICctcGgnLCAnNycsICctcGh0JywgJzAuNScsICctbnQn

> <r_epik_Ionization_Penalty>
  0.0823

> <r_epik_Ionization_Penalty_Charging>
  0.0823

> <r_epik_Ionization_Penalty_Neutral>
  0.0000

> <r_epik_State_Penalty>
  0.0730

> <r_epik_Charging_Adjusted_Penalty>
0.155263260531226

> <i_epik_Tot_Q>
1

> <i_epik_Tot_abs_Q>
1

$$$$
