3sni_ligand
                    3D
 Schrodinger Suite 2020-3.
 41 44  0  0  1  0            999 V2000
   17.3740  -11.1860  -34.8170 C   0  0  0  0  0  0
   19.3420   -7.3570  -34.9590 N   0  0  0  0  0  0
   20.2970  -10.7660  -38.9190 O   0  0  0  0  0  0
   18.0910   -9.8680  -34.8500 C   0  0  0  0  0  0
   20.1340  -10.9330  -32.3180 N   0  0  0  0  0  0
   17.4490   -8.7800  -35.4640 C   0  0  0  0  0  0
   20.7830  -11.7920  -34.2550 N   0  0  0  0  0  0
   18.1140   -7.5620  -35.4920 C   0  0  0  0  0  0
   20.5120  -11.2460  -36.5840 N   0  0  0  0  0  0
   19.9460   -8.4170  -34.3650 C   0  0  0  0  0  0
   22.3090  -14.0430  -34.9140 N   0  0  0  0  0  0
   19.3740   -9.6880  -34.2830 C   0  0  0  0  0  0
   20.0890  -10.7760  -33.6270 C   0  0  0  0  0  0
   20.8810  -12.0640  -32.0730 C   0  0  0  0  0  0
   21.2970  -12.6250  -33.2700 C   0  0  0  0  0  0
   21.0140  -12.0620  -35.6300 C   0  0  0  0  0  0
   21.7830  -13.1990  -35.9140 C   0  0  0  0  0  0
   22.0290  -13.4870  -37.2580 C   0  0  0  0  0  0
   21.5270  -12.6620  -38.2660 C   0  0  0  0  0  0
   20.7790  -11.5520  -37.8800 C   0  0  0  0  0  0
   20.0090   -9.4050  -38.5940 C   0  0  0  0  0  0
   22.0820  -13.7820  -33.6570 C   0  0  0  0  0  0
   22.6650  -14.7200  -32.6360 C   0  0  0  0  0  0
   21.1060  -12.4810  -30.6700 C   0  0  0  0  0  0
   16.3989  -11.0855  -35.3161 H   0  0  0  0  0  0
   17.2211  -11.4941  -33.7722 H   0  0  0  0  0  0
   17.9765  -11.9443  -35.3385 H   0  0  0  0  0  0
   16.4583   -8.8889  -35.9053 H   0  0  0  0  0  0
   17.6175   -6.7189  -35.9724 H   0  0  0  0  0  0
   20.9331   -8.2679  -33.9273 H   0  0  0  0  0  0
   22.6188  -14.3646  -37.5227 H   0  0  0  0  0  0
   21.7137  -12.8787  -39.3178 H   0  0  0  0  0  0
   19.6367   -8.8852  -39.4891 H   0  0  0  0  0  0
   20.9252   -8.9113  -38.2377 H   0  0  0  0  0  0
   19.2434   -9.3706  -37.8049 H   0  0  0  0  0  0
   23.2183  -15.5211  -33.1479 H   0  0  0  0  0  0
   21.8541  -15.1595  -32.0366 H   0  0  0  0  0  0
   23.3490  -14.1653  -31.9768 H   0  0  0  0  0  0
   20.6100  -11.7706  -29.9923 H   0  0  0  0  0  0
   22.1857  -12.4949  -30.4603 H   0  0  0  0  0  0
   20.6894  -13.4872  -30.5153 H   0  0  0  0  0  0
  1  4  1  0  0  0
  1 25  1  0  0  0
  1 26  1  0  0  0
  1 27  1  0  0  0
  2  8  2  0  0  0
  2 10  1  0  0  0
  3 20  1  0  0  0
  3 21  1  0  0  0
  4  6  2  0  0  0
  4 12  1  0  0  0
  5 13  2  0  0  0
  5 14  1  0  0  0
  6  8  1  0  0  0
  6 28  1  0  0  0
  7 13  1  0  0  0
  7 15  1  0  0  0
  7 16  1  0  0  0
  8 29  1  0  0  0
  9 16  1  0  0  0
  9 20  2  0  0  0
 10 12  2  0  0  0
 10 30  1  0  0  0
 11 17  1  0  0  0
 11 22  2  0  0  0
 12 13  1  0  0  0
 14 15  2  0  0  0
 14 24  1  0  0  0
 15 22  1  0  0  0
 16 17  2  0  0  0
 17 18  1  0  0  0
 18 19  2  0  0  0
 18 31  1  0  0  0
 19 20  1  0  0  0
 19 32  1  0  0  0
 21 33  1  0  0  0
 21 34  1  0  0  0
 21 35  1  0  0  0
 22 23  1  0  0  0
 23 36  1  0  0  0
 23 37  1  0  0  0
 23 38  1  0  0  0
 24 39  1  0  0  0
 24 40  1  0  0  0
 24 41  1  0  0  0
M  END
> <s_m_source_file>
../3sni_ligand.sdf

> <i_m_source_file_index>
1

> <s_epik_input>
W0NIM11jMVtjSF1bY0hdbltjSF1jMS1jMm5jKFtDSDNdKWMobjIzKWMoW0NIM10pbmM0YzNuYyhPW0NIM10pW2NIXVtjSF00

> <s_epik_cmdline>
J2VwaWtfYXBwJywgJy1pbWFlJywgJ2xpZ2FuZF9wcm8ubWFlJywgJy1vbWFlJywgJ2xpZ2FuZF9wcmVwLm1hZScsICctbXMnLCAnMScsICctcGgnLCAnNycsICctcGh0JywgJzAuNScsICctbnQn

> <r_epik_Ionization_Penalty>
  0.0123

> <r_epik_Ionization_Penalty_Charging>
  0.0000

> <r_epik_Ionization_Penalty_Neutral>
  0.0123

> <r_epik_State_Penalty>
  0.0075

> <r_epik_Charging_Adjusted_Penalty>
0.00748225330520249

> <i_epik_Tot_Q>
0

> <i_epik_Tot_abs_Q>
0

$$$$
