3snl_ligand
                    3D
 Schrodinger Suite 2020-3.
 41 44  0  0  1  0            999 V2000
   14.8990  -40.8760  -20.2600 C   0  0  0  0  0  0
   14.1700  -37.4510  -23.9710 F   0  0  0  0  0  0
   11.4050  -40.3000  -21.5770 N   0  0  0  0  0  0
   19.0790  -35.1640  -20.9710 Cl  0  0  0  0  0  0
   13.5440  -40.2590  -20.4340 C   0  0  0  0  0  0
   15.9920  -36.6960  -24.8820 F   0  0  0  0  0  0
   13.7460  -38.5910  -17.4100 N   0  0  0  0  0  0
   12.6450  -40.7900  -21.3530 C   0  0  0  0  0  0
   15.8260  -38.8030  -24.3740 F   0  0  0  0  0  0
   15.1220  -37.7410  -18.9430 N   0  0  0  0  0  0
   11.0310  -39.2260  -20.8530 C   0  0  0  0  0  0
   17.4170  -36.1670  -18.6740 N   0  0  0  0  0  0
   11.8420  -38.6180  -19.9130 C   0  0  0  0  0  0
   13.1210  -39.1410  -19.6980 C   0  0  0  0  0  0
   13.9820  -38.5020  -18.7070 C   0  0  0  0  0  0
   14.7330  -37.8860  -16.7760 C   0  0  0  0  0  0
   15.6000  -37.3480  -17.7050 C   0  0  0  0  0  0
   15.7950  -37.3480  -20.1300 C   0  0  0  0  0  0
   15.3710  -37.7060  -21.4160 C   0  0  0  0  0  0
   16.0840  -37.2840  -22.5520 C   0  0  0  0  0  0
   17.2290  -36.4980  -22.3800 C   0  0  0  0  0  0
   17.6540  -36.1390  -21.0970 C   0  0  0  0  0  0
   16.9500  -36.5540  -19.9530 C   0  0  0  0  0  0
   16.7820  -36.5400  -17.6080 C   0  0  0  0  0  0
   17.3130  -36.1060  -16.2700 C   0  0  0  0  0  0
   15.5270  -37.5510  -23.9310 C   0  0  0  0  0  0
   14.7300  -37.8070  -15.2970 C   0  0  0  0  0  0
   15.0011  -41.7344  -20.9403 H   0  0  0  0  0  0
   15.0163  -41.2160  -19.2205 H   0  0  0  0  0  0
   15.6739  -40.1304  -20.4916 H   0  0  0  0  0  0
   12.9611  -41.6586  -21.9307 H   0  0  0  0  0  0
   10.0351  -38.8147  -21.0178 H   0  0  0  0  0  0
   11.4926  -37.7510  -19.3524 H   0  0  0  0  0  0
   14.4779  -38.3189  -21.5376 H   0  0  0  0  0  0
   17.7927  -36.1637  -23.2510 H   0  0  0  0  0  0
   18.2188  -35.4988  -16.4144 H   0  0  0  0  0  0
   17.5584  -36.9931  -15.6676 H   0  0  0  0  0  0
   16.5503  -35.5086  -15.7491 H   0  0  0  0  0  0
   13.8709  -38.3688  -14.9016 H   0  0  0  0  0  0
   14.6543  -36.7545  -14.9862 H   0  0  0  0  0  0
   15.6625  -38.2390  -14.9049 H   0  0  0  0  0  0
  1  5  1  0  0  0
  1 28  1  0  0  0
  1 29  1  0  0  0
  1 30  1  0  0  0
  2 26  1  0  0  0
  3  8  2  0  0  0
  3 11  1  0  0  0
  4 22  1  0  0  0
  5  8  1  0  0  0
  5 14  2  0  0  0
  6 26  1  0  0  0
  7 15  2  0  0  0
  7 16  1  0  0  0
  8 31  1  0  0  0
  9 26  1  0  0  0
 10 15  1  0  0  0
 10 17  1  0  0  0
 10 18  1  0  0  0
 11 13  2  0  0  0
 11 32  1  0  0  0
 12 23  1  0  0  0
 12 24  2  0  0  0
 13 14  1  0  0  0
 13 33  1  0  0  0
 14 15  1  0  0  0
 16 17  2  0  0  0
 16 27  1  0  0  0
 17 24  1  0  0  0
 18 19  1  0  0  0
 18 23  2  0  0  0
 19 20  2  0  0  0
 19 34  1  0  0  0
 20 21  1  0  0  0
 20 26  1  0  0  0
 21 22  2  0  0  0
 21 35  1  0  0  0
 22 23  1  0  0  0
 24 25  1  0  0  0
 25 36  1  0  0  0
 25 37  1  0  0  0
 25 38  1  0  0  0
 27 39  1  0  0  0
 27 40  1  0  0  0
 27 41  1  0  0  0
M  END
> <s_m_source_file>
../3snl_ligand.sdf

> <i_m_source_file_index>
1

> <s_epik_input>
W0NIM11jMVtjSF1uW2NIXVtjSF1jMS1jMm5jKFtDSDNdKWMobjIzKWMoW0NIM10pbmM0YzNbY0hdYyhDKEYpKEYpRilbY0hdYzRDbA==

> <s_epik_cmdline>
J2VwaWtfYXBwJywgJy1pbWFlJywgJ2xpZ2FuZF9wcm8ubWFlJywgJy1vbWFlJywgJ2xpZ2FuZF9wcmVwLm1hZScsICctbXMnLCAnMScsICctcGgnLCAnNycsICctcGh0JywgJzAuNScsICctbnQn

> <r_epik_Ionization_Penalty>
  0.0214

> <r_epik_Ionization_Penalty_Charging>
  0.0000

> <r_epik_Ionization_Penalty_Neutral>
  0.0214

> <r_epik_State_Penalty>
  0.0108

> <r_epik_Charging_Adjusted_Penalty>
0.0107528661267854

> <i_epik_Tot_Q>
0

> <i_epik_Tot_abs_Q>
0

$$$$
