3so6_ligand
                    3D
 Schrodinger Suite 2020-3.
209211  0  0  1  0            999 V2000
   10.2690   62.7570    4.8290 N   0  3  0  0  0  0
   11.2640   62.1000    5.8200 C   0  0  2  0  0  0
   10.5990   61.1210    6.7780 C   0  0  0  0  0  0
    9.4070   61.2030    7.0730 O   0  0  0  0  0  0
   11.9570   63.1760    6.6910 C   0  0  0  0  0  0
   10.8850   63.9210    7.3220 O   0  0  0  0  0  0
   11.3880   60.1890    7.1970 N   0  0  0  0  0  0
   10.9720   59.2960    8.2180 C   0  0  2  0  0  0
   12.0610   59.5080    9.2440 C   0  0  0  0  0  0
   13.2070   59.4380    8.8970 O   0  0  0  0  0  0
   11.0230   57.9070    7.5650 C   0  0  2  0  0  0
    9.9260   57.7560    6.5130 C   0  0  0  0  0  0
   10.8330   56.8590    8.6290 C   0  0  0  0  0  0
    9.9150   56.3390    5.7650 C   0  0  0  0  0  0
   11.7390   59.7480   10.5030 N   0  0  0  0  0  0
   12.7060   60.0740   11.5590 C   0  0  2  0  0  0
   12.3540   59.4770   12.8770 C   0  0  0  0  0  0
   11.1590   59.3230   13.1340 O   0  0  0  0  0  0
   12.6970   61.6070   11.7550 C   0  0  0  0  0  0
   12.7680   62.3320   10.4420 C   0  0  0  0  0  0
   13.6540   62.0570    9.6530 O   0  0  0  0  0  0
   11.7780   63.1280   10.1570 N   0  0  0  0  0  0
   13.3560   59.1760   13.6870 N   0  0  0  0  0  0
   13.0920   58.5380   15.0110 C   0  0  2  0  0  0
   13.9980   59.0240   16.0500 C   0  0  0  0  0  0
   15.1950   59.1790   15.8100 O   0  0  0  0  0  0
   13.2270   57.0200   14.9640 C   0  0  0  0  0  0
   12.2570   56.3710   14.0130 C   0  0  0  0  0  0
   12.5790   56.1370   12.6850 C   0  0  0  0  0  0
   11.0040   55.9770   14.4850 C   0  0  0  0  0  0
   11.6880   55.5680   11.8180 C   0  0  0  0  0  0
   10.0960   55.3160   13.6110 C   0  0  0  0  0  0
   10.4110   55.1620   12.2570 C   0  0  0  0  0  0
   13.4570   59.2220   17.2450 N   0  0  0  0  0  0
   14.2540   59.5600   18.4180 C   0  0  2  0  0  0
   14.5700   58.2350   19.1530 C   0  0  0  0  0  0
   13.6980   57.3790   19.2450 O   0  0  0  0  0  0
   13.4330   60.3960   19.4130 C   0  0  0  0  0  0
   13.1130   61.8040   18.9780 C   0  0  0  0  0  0
   13.5110   62.2880   17.9160 O   0  0  0  0  0  0
   12.4480   62.4710   19.8120 O   0  0  0  0  0  0
   15.7700   58.0910   19.7370 N   0  0  0  0  0  0
   16.0940   56.8910   20.5010 C   0  0  2  0  0  0
   15.7000   57.0610   21.9770 C   0  0  0  0  0  0
   16.3000   57.8300   22.6730 O   0  0  0  0  0  0
   17.5920   56.6610   20.3970 C   0  0  0  0  0  0
   18.0250   55.3970   21.0900 C   0  0  0  0  0  0
   17.1960   54.6400   21.5830 O   0  0  0  0  0  0
   19.3240   55.1640   21.1910 N   0  0  0  0  0  0
   14.7450   56.2510   22.4560 N   0  0  0  0  0  0
   14.3940   56.3680   23.8740 C   0  0  2  0  0  0
   15.4370   55.9490   24.8360 C   0  0  0  0  0  0
   15.3180   56.3210   26.0170 O   0  0  0  0  0  0
   13.1220   55.4950   23.9860 C   0  0  0  0  0  0
   13.1080   54.6360   22.8810 C   0  0  0  0  0  0
   13.9610   55.2460   21.7480 C   0  0  0  0  0  0
   16.4840   55.2400   24.3810 N   0  0  0  0  0  0
   17.5100   54.8140   25.2830 C   0  0  2  0  0  0
   18.7410   55.7410   25.2030 C   0  0  0  0  0  0
   19.7320   55.4280   25.8460 O   0  0  0  0  0  0
   17.8600   53.3000   25.1050 C   0  0  0  0  0  0
   18.8520   52.9930   23.9320 C   0  0  0  0  0  0
   18.0890   52.5670   26.2940 C   0  0  0  0  0  0
   18.6560   56.8510   24.4620 N   0  0  0  0  0  0
   19.8090   57.7830   24.3860 C   0  0  2  0  0  0
   20.1380   58.3030   25.7930 C   0  0  0  0  0  0
   19.2550   58.7660   26.5820 O   0  0  0  0  0  0
   19.3870   58.9570   23.5160 C   0  0  0  0  0  0
   20.4460   60.0300   23.4510 C   0  0  0  0  0  0
   21.7530   59.7420   22.9910 C   0  0  0  0  0  0
   20.1730   61.2990   23.8990 C   0  0  0  0  0  0
   22.7130   60.7880   22.8980 C   0  0  0  0  0  0
   21.1100   62.3340   23.7920 C   0  0  0  0  0  0
   22.3760   62.0830   23.2960 C   0  0  0  0  0  0
   23.3710   63.0120   23.1510 O   0  0  0  0  0  0
   21.4100   58.1180   26.0960 N   0  0  0  0  0  0
   21.9690   58.6110   27.3720 C   0  0  2  0  0  0
   21.3200   57.9550   28.5930 C   0  0  0  0  0  0
   21.3680   58.4980   29.7340 O   0  0  0  0  0  0
   21.8700   60.1470   27.5100 C   0  0  0  0  0  0
   22.7770   60.8940   26.5930 C   0  0  0  0  0  0
   22.7410   62.4360   26.8780 C   0  0  0  0  0  0
   21.6920   63.0080   27.2890 O   0  0  0  0  0  0
   23.8340   63.0980   26.5610 N   0  0  0  0  0  0
   20.7780   56.7550   28.4320 N   0  0  0  0  0  0
   20.0270   56.1820   29.5930 C   0  0  2  0  0  0
   20.8980   55.2520   30.3410 C   0  0  0  0  0  0
   20.4040   54.4700   31.1780 O   0  0  0  0  0  0
   18.7160   55.5280   29.1340 C   0  0  0  0  0  0
   17.6690   56.5690   28.7330 C   0  0  0  0  0  0
   16.5890   56.8650   29.6760 C   0  0  0  0  0  0
   15.6050   57.8400   29.0950 C   0  0  0  0  0  0
   15.7800   59.2490   29.5640 N   0  3  0  0  0  0
   22.1900   55.3000   30.0600 N   0  0  0  0  0  0
   23.1360   54.6630   31.0220 C   0  0  2  0  0  0
   23.0180   55.4070   32.3710 C   0  0  0  0  0  0
   22.6300   56.5720   32.4790 O   0  0  0  0  0  0
   24.6230   54.7650   30.5600 C   0  0  2  0  0  0
   24.9790   56.1590   30.3480 O   0  0  0  0  0  0
   24.7930   53.9580   29.2950 C   0  0  0  0  0  0
   23.2120   54.6330   33.4150 N   0  0  0  0  0  0
   22.8780   55.1750   34.7220 C   0  0  2  0  0  0
   24.1400   55.5060   35.5080 C   0  0  0  0  0  0
   24.0212   55.9349   36.6868 O   0  0  0  0  0  0
   21.9420   54.3240   35.5380 C   0  0  2  0  0  0
   22.4140   52.9930   35.6050 O   0  0  0  0  0  0
   20.5940   54.3340   34.9820 C   0  0  0  0  0  0
   25.2787   55.3542   34.9903 O   0  0  0  0  0  0
    9.7882   61.9767    4.2208 H   0  0  0  0  0  0
   10.8116   63.4521    4.1715 H   0  0  0  0  0  0
    9.5013   63.3083    5.3917 H   0  0  0  0  0  0
   11.9802   61.5416    5.1993 H   0  0  0  0  0  0
   12.5973   62.6856    7.4391 H   0  0  0  0  0  0
   12.5723   63.8254    6.0509 H   0  0  0  0  0  0
   11.1197   64.7536    8.0014 H   0  0  0  0  0  0
   12.3906   60.0907    6.7552 H   0  0  0  0  0  0
    9.9707   59.4788    8.6350 H   0  0  0  0  0  0
   12.0002   57.7682    7.0793 H   0  0  0  0  0  0
    8.9418   57.8741    6.9900 H   0  0  0  0  0  0
   10.0526   58.5263    5.7380 H   0  0  0  0  0  0
   11.6204   56.9624    9.3902 H   0  0  0  0  0  0
   10.8921   55.8594    8.1737 H   0  0  0  0  0  0
    9.8478   56.9896    9.1005 H   0  0  0  0  0  0
    9.0975   56.3191    5.0293 H   0  0  0  0  0  0
    9.7646   55.5365    6.5021 H   0  0  0  0  0  0
   10.8754   56.1887    5.2501 H   0  0  0  0  0  0
   10.6660   59.6908   10.7384 H   0  0  0  0  0  0
   13.6598   59.6359   11.2300 H   0  0  0  0  0  0
   11.7704   61.9057   12.2671 H   0  0  0  0  0  0
   13.5641   61.9040   12.3631 H   0  0  0  0  0  0
   11.0067   63.3387   10.9124 H   0  0  0  0  0  0
   11.7129   63.5899    9.1608 H   0  0  0  0  0  0
   14.3885   59.3986   13.3798 H   0  0  0  0  0  0
   12.0689   58.8469   15.2713 H   0  0  0  0  0  0
   14.2430   56.7522   14.6385 H   0  0  0  0  0  0
   13.0412   56.6042   15.9653 H   0  0  0  0  0  0
   13.5689   56.4140   12.3224 H   0  0  0  0  0  0
   10.7220   56.1748   15.5191 H   0  0  0  0  0  0
   11.9684   55.4264   10.7742 H   0  0  0  0  0  0
    9.1532   54.9290   13.9975 H   0  0  0  0  0  0
    9.6881   54.7391   11.5593 H   0  0  0  0  0  0
   12.3650   59.1226   17.3321 H   0  0  0  0  0  0
   15.1273   60.1147   18.0444 H   0  0  0  0  0  0
   12.4667   59.9033   19.5961 H   0  0  0  0  0  0
   13.9848   60.4845   20.3605 H   0  0  0  0  0  0
   12.1653   63.5097   19.5856 H   0  0  0  0  0  0
   16.5141   58.8944   19.6330 H   0  0  0  0  0  0
   15.5255   56.0601   20.0578 H   0  0  0  0  0  0
   17.8785   56.5841   19.3377 H   0  0  0  0  0  0
   18.1255   57.5038   20.8608 H   0  0  0  0  0  0
   20.0446   55.8611   20.7384 H   0  0  0  0  0  0
   19.6829   54.2733   21.7275 H   0  0  0  0  0  0
   14.3018   57.4329   24.1340 H   0  0  0  0  0  0
   12.3100   55.4515   24.7267 H   0  0  0  0  0  0
   12.5413   53.6942   22.9237 H   0  0  0  0  0  0
   13.3549   55.7344   20.9708 H   0  0  0  0  0  0
   14.6376   54.5156   21.2803 H   0  0  0  0  0  0
   16.5513   54.9872   23.3126 H   0  0  0  0  0  0
   17.0389   54.9507   26.2676 H   0  0  0  0  0  0
   18.5904   53.6099   23.0597 H   0  0  0  0  0  0
   18.7830   51.9288   23.6625 H   0  0  0  0  0  0
   19.8791   53.2248   24.2503 H   0  0  0  0  0  0
   17.4392   52.7201   27.1683 H   0  0  0  0  0  0
   18.9168   51.8443   26.3438 H   0  0  0  0  0  0
   17.7316   57.0734   23.9088 H   0  0  0  0  0  0
   20.6743   57.2538   23.9603 H   0  0  0  0  0  0
   19.1956   58.6042   22.4918 H   0  0  0  0  0  0
   18.4707   59.4066   23.9261 H   0  0  0  0  0  0
   22.0228   58.7242   22.7094 H   0  0  0  0  0  0
   19.2022   61.5059   24.3494 H   0  0  0  0  0  0
   23.7120   60.5782   22.5158 H   0  0  0  0  0  0
   20.8398   63.3436   24.1016 H   0  0  0  0  0  0
   24.3484   62.7123   22.7450 H   0  0  0  0  0  0
   22.0560   57.5874   25.3810 H   0  0  0  0  0  0
   23.0218   58.2993   27.3051 H   0  0  0  0  0  0
   20.8424   60.4697   27.2865 H   0  0  0  0  0  0
   22.1312   60.4405   28.5374 H   0  0  0  0  0  0
   23.8093   60.5391   26.7290 H   0  0  0  0  0  0
   22.4655   60.7254   25.5516 H   0  0  0  0  0  0
   24.7229   62.5549   26.2076 H   0  0  0  0  0  0
   23.8583   64.1942   26.6496 H   0  0  0  0  0  0
   20.8620   56.1841   27.4955 H   0  0  0  0  0  0
   19.7774   56.9932   30.2927 H   0  0  0  0  0  0
   18.9124   54.8842   28.2640 H   0  0  0  0  0  0
   18.3024   54.9214   29.9531 H   0  0  0  0  0  0
   18.1626   57.5359   28.5554 H   0  0  0  0  0  0
   17.1606   56.2425   27.8138 H   0  0  0  0  0  0
   16.0544   55.9363   29.9245 H   0  0  0  0  0  0
   17.0121   57.3011   30.5930 H   0  0  0  0  0  0
   15.7042   57.8522   27.9996 H   0  0  0  0  0  0
   14.5834   57.5362   29.3672 H   0  0  0  0  0  0
   15.0216   59.8899   29.0906 H   0  0  0  0  0  0
   16.7840   59.6048   29.2893 H   0  0  0  0  0  0
   15.6632   59.2888   30.6571 H   0  0  0  0  0  0
   22.5744   55.7885   29.1525 H   0  0  0  0  0  0
   22.8346   53.6064   31.0754 H   0  0  0  0  0  0
   25.3375   54.4044   31.3146 H   0  0  0  0  0  0
   24.9078   56.8772   31.1781 H   0  0  0  0  0  0
   24.5164   52.9110   29.4881 H   0  0  0  0  0  0
   25.8421   54.0058   28.9678 H   0  0  0  0  0  0
   24.1443   54.3694   28.5077 H   0  0  0  0  0  0
   23.6104   53.6113   33.3287 H   0  0  0  0  0  0
   22.3129   56.0843   34.4694 H   0  0  0  0  0  0
   21.8945   54.6964   36.5720 H   0  0  0  0  0  0
   23.4192   52.7852   36.0003 H   0  0  0  0  0  0
   20.2266   55.3695   34.9298 H   0  0  0  0  0  0
   19.9277   53.7405   35.6252 H   0  0  0  0  0  0
   20.6109   53.8995   33.9716 H   0  0  0  0  0  0
   26.1825   55.5968   35.5685 H   0  0  0  0  0  0
  1  2  1  0  0  0
  1109  1  0  0  0
  1110  1  0  0  0
  1111  1  0  0  0
  2  3  1  0  0  0
  2  5  1  0  0  0
  2112  1  0  0  0
  3  4  2  0  0  0
  3  7  1  0  0  0
  5  6  1  0  0  0
  5113  1  0  0  0
  5114  1  0  0  0
  6115  1  0  0  0
  7  8  1  0  0  0
  7116  1  0  0  0
  8  9  1  0  0  0
  8 11  1  0  0  0
  8117  1  0  0  0
  9 10  2  0  0  0
  9 15  1  0  0  0
 11 12  1  0  0  0
 11 13  1  0  0  0
 11118  1  0  0  0
 12 14  1  0  0  0
 12119  1  0  0  0
 12120  1  0  0  0
 13121  1  0  0  0
 13122  1  0  0  0
 13123  1  0  0  0
 14124  1  0  0  0
 14125  1  0  0  0
 14126  1  0  0  0
 15 16  1  0  0  0
 15127  1  0  0  0
 16 17  1  0  0  0
 16 19  1  0  0  0
 16128  1  0  0  0
 17 18  2  0  0  0
 17 23  1  0  0  0
 19 20  1  0  0  0
 19129  1  0  0  0
 19130  1  0  0  0
 20 21  2  0  0  0
 20 22  1  0  0  0
 22131  1  0  0  0
 22132  1  0  0  0
 23 24  1  0  0  0
 23133  1  0  0  0
 24 25  1  0  0  0
 24 27  1  0  0  0
 24134  1  0  0  0
 25 26  2  0  0  0
 25 34  1  0  0  0
 27 28  1  0  0  0
 27135  1  0  0  0
 27136  1  0  0  0
 28 29  2  0  0  0
 28 30  1  0  0  0
 29 31  1  0  0  0
 29137  1  0  0  0
 30 32  2  0  0  0
 30138  1  0  0  0
 31 33  2  0  0  0
 31139  1  0  0  0
 32 33  1  0  0  0
 32140  1  0  0  0
 33141  1  0  0  0
 34 35  1  0  0  0
 34142  1  0  0  0
 35 36  1  0  0  0
 35 38  1  0  0  0
 35143  1  0  0  0
 36 37  2  0  0  0
 36 42  1  0  0  0
 38 39  1  0  0  0
 38144  1  0  0  0
 38145  1  0  0  0
 39 40  2  0  0  0
 39 41  1  0  0  0
 41146  1  0  0  0
 42 43  1  0  0  0
 42147  1  0  0  0
 43 44  1  0  0  0
 43 46  1  0  0  0
 43148  1  0  0  0
 44 45  2  0  0  0
 44 50  1  0  0  0
 46 47  1  0  0  0
 46149  1  0  0  0
 46150  1  0  0  0
 47 48  2  0  0  0
 47 49  1  0  0  0
 49151  1  0  0  0
 49152  1  0  0  0
 50 51  1  0  0  0
 50 56  1  0  0  0
 51 52  1  0  0  0
 51 54  1  0  0  0
 51153  1  0  0  0
 52 53  2  0  0  0
 52 57  1  0  0  0
 54 55  2  0  0  0
 54154  1  0  0  0
 55 56  1  0  0  0
 55155  1  0  0  0
 56156  1  0  0  0
 56157  1  0  0  0
 57 58  1  0  0  0
 57158  1  0  0  0
 58 59  1  0  0  0
 58 61  1  0  0  0
 58159  1  0  0  0
 59 60  2  0  0  0
 59 64  1  0  0  0
 61 62  1  0  0  0
 61 63  2  0  0  0
 62160  1  0  0  0
 62161  1  0  0  0
 62162  1  0  0  0
 63163  1  0  0  0
 63164  1  0  0  0
 64 65  1  0  0  0
 64165  1  0  0  0
 65 66  1  0  0  0
 65 68  1  0  0  0
 65166  1  0  0  0
 66 67  2  0  0  0
 66 76  1  0  0  0
 68 69  1  0  0  0
 68167  1  0  0  0
 68168  1  0  0  0
 69 70  2  0  0  0
 69 71  1  0  0  0
 70 72  1  0  0  0
 70169  1  0  0  0
 71 73  2  0  0  0
 71170  1  0  0  0
 72 74  2  0  0  0
 72171  1  0  0  0
 73 74  1  0  0  0
 73172  1  0  0  0
 74 75  1  0  0  0
 75173  1  0  0  0
 76 77  1  0  0  0
 76174  1  0  0  0
 77 78  1  0  0  0
 77 80  1  0  0  0
 77175  1  0  0  0
 78 79  2  0  0  0
 78 85  1  0  0  0
 80 81  1  0  0  0
 80176  1  0  0  0
 80177  1  0  0  0
 81 82  1  0  0  0
 81178  1  0  0  0
 81179  1  0  0  0
 82 83  2  0  0  0
 82 84  1  0  0  0
 84180  1  0  0  0
 84181  1  0  0  0
 85 86  1  0  0  0
 85182  1  0  0  0
 86 87  1  0  0  0
 86 89  1  0  0  0
 86183  1  0  0  0
 87 88  2  0  0  0
 87 94  1  0  0  0
 89 90  1  0  0  0
 89184  1  0  0  0
 89185  1  0  0  0
 90 91  1  0  0  0
 90186  1  0  0  0
 90187  1  0  0  0
 91 92  1  0  0  0
 91188  1  0  0  0
 91189  1  0  0  0
 92 93  1  0  0  0
 92190  1  0  0  0
 92191  1  0  0  0
 93192  1  0  0  0
 93193  1  0  0  0
 93194  1  0  0  0
 94 95  1  0  0  0
 94195  1  0  0  0
 95 96  1  0  0  0
 95 98  1  0  0  0
 95196  1  0  0  0
 96 97  2  0  0  0
 96101  1  0  0  0
 98 99  1  0  0  0
 98100  1  0  0  0
 98197  1  0  0  0
 99198  1  0  0  0
100199  1  0  0  0
100200  1  0  0  0
100201  1  0  0  0
101102  1  0  0  0
101202  1  0  0  0
102103  1  0  0  0
102105  1  0  0  0
102203  1  0  0  0
103104  2  0  0  0
103108  1  0  0  0
105106  1  0  0  0
105107  1  0  0  0
105204  1  0  0  0
106205  1  0  0  0
107206  1  0  0  0
107207  1  0  0  0
107208  1  0  0  0
108209  1  0  0  0
M  CHG  2   1   1  93   1
M  END
> <s_m_source_file>
../3so6_ligand.sdf

> <i_m_source_file_index>
1

> <s_epik_input>
W09IXVtDSDJdW0NASF0oW05IMytdKUMoPU8pW05IXVtDQEBIXShbQ0BASF0oW0NIM10pW0NIMl1bQ0gzXSlDKD1PKVtOSF1bQ0BASF0oW0NIMl1DKD1PKVtOSDJdKUMoPU8pW05IXVtDQEBIXShbQ0gyXWMxW2NIXVtjSF1bY0hdW2NIXVtjSF0xKUMoPU8pW05IXVtDQEBIXShbQ0gyXUMoPU8pW09IXSlDKD1PKVtOSF1bQ0BASF0oW0NIMl1DKD1PKVtOSDJdKUMoPU8pTjJbQ0BASF0oW0NIXT1bQ0hdW0NIMl0yKUMoPU8pW05IXVtDQEBIXShDKFtDSDNdKT1bQ0gyXSlDKD1PKVtOSF1bQ0BASF0oW0NIMl1jM1tjSF1bY0hdYyhbT0hdKVtjSF1bY0hdMylDKD1PKVtOSF1bQ0BASF0oW0NIMl1bQ0gyXUMoPU8pW05IMl0pQyg9TylbTkhdW0NAQEhdKFtDSDJdW0NIMl1bQ0gyXVtDSDJdW05IMytdKUMoPU8pW05IXVtDQEBIXShbQ0BIXShbT0hdKVtDSDNdKUMoPU8pW05IXVtDQEhdKEMoPU8pW09IXSlbQ0BIXShbT0hdKVtDSDNd

> <s_epik_cmdline>
J2VwaWtfYXBwJywgJy1pbWFlJywgJ2xpZ2FuZF9wcm8ubWFlJywgJy1vbWFlJywgJ2xpZ2FuZF9wcmVwLm1hZScsICctbXMnLCAnMScsICctcGgnLCAnNycsICctcGh0JywgJzAuNScsICctbnQn

> <s_epik_pKa_notes>
Molecule size exceeds maximum supported for generating protonation states

$$$$
