3so9_ligand
                    3D
 Schrodinger Suite 2020-3.
 75 78  0  0  1  0            999 V2000
   15.9970   -8.6550  -16.3070 N   0  0  0  0  0  0
   15.5710   -8.8720  -15.0410 C   0  0  0  0  0  0
   16.0760   -9.9620  -14.3290 C   0  0  0  0  0  0
   15.6590  -10.1860  -13.0230 C   0  0  0  0  0  0
   14.7860   -9.2880  -12.3990 C   0  0  0  0  0  0
   14.2210   -8.2340  -13.1410 C   0  0  0  0  0  0
   14.6500   -7.9980  -14.4440 C   0  0  0  0  0  0
   14.2530   -9.6630  -10.9430 S   0  0  0  0  0  0
   14.6520  -11.0040  -10.6670 O   0  0  0  0  0  0
   12.8250   -9.6020  -10.9810 O   0  0  0  0  0  0
   14.7630   -8.8060   -9.7910 N   0  0  3  0  0  0
   15.5650   -9.4750   -8.7700 C   0  0  0  0  0  0
   16.3140   -8.3820   -8.0130 C   0  0  0  0  0  0
   17.7120   -8.1400   -8.5910 C   0  0  0  0  0  0
   16.3590   -8.6990   -6.5220 C   0  0  0  0  0  0
   14.4670   -7.3740   -9.6990 C   0  0  0  0  0  0
   13.4520   -7.0740   -8.5770 C   0  0  1  0  0  0
   12.9560   -5.7420   -8.8220 O   0  0  0  0  0  0
   12.2250   -7.9810   -8.4910 C   0  0  1  0  0  0
   11.6240   -7.9130   -7.1620 N   0  0  0  0  0  0
   11.9570   -8.6660   -6.1180 C   0  0  0  0  0  0
   11.8420   -9.8810   -6.0760 O   0  0  0  0  0  0
   12.4610   -7.9310   -4.9770 O   0  0  0  0  0  0
   12.0940   -8.4170   -3.6880 C   0  0  1  0  0  0
   12.4380   -7.3400   -2.6560 C   0  0  0  0  0  0
   11.2870   -7.1770   -1.8110 O   0  0  0  0  0  0
   10.1600   -7.8750   -2.3190 C   0  0  1  0  0  0
    9.2120   -6.9140   -2.7690 O   0  0  0  0  0  0
    8.8050   -7.1660   -4.1200 C   0  0  0  0  0  0
    9.7920   -8.1700   -4.6960 C   0  0  0  0  0  0
   10.6100   -8.6740   -3.5260 C   0  0  1  0  0  0
   11.1480   -7.5010   -9.4690 C   0  0  0  0  0  0
    8.8070   -6.9960   -8.6780 C   0  0  0  0  0  0
    7.5570   -7.4120   -8.2260 C   0  0  0  0  0  0
    7.2830   -8.7670   -8.0570 C   0  0  0  0  0  0
    8.2640   -9.7080   -8.3440 C   0  0  0  0  0  0
    9.5110   -9.2870   -8.7980 C   0  0  0  0  0  0
    9.7880   -7.9360   -8.9710 C   0  0  0  0  0  0
   16.7192   -9.3436  -16.7699 H   0  0  0  0  0  0
   15.6211   -7.7900  -16.8731 H   0  0  0  0  0  0
   16.7950  -10.6348  -14.7965 H   0  0  0  0  0  0
   16.0129  -11.0640  -12.4827 H   0  0  0  0  0  0
   13.4500   -7.6045  -12.6968 H   0  0  0  0  0  0
   14.2723   -7.1385  -14.9978 H   0  0  0  0  0  0
   14.9035  -10.0360   -8.0935 H   0  0  0  0  0  0
   16.2690  -10.1687   -9.2529 H   0  0  0  0  0  0
   15.7558   -7.4425   -8.1385 H   0  0  0  0  0  0
   17.6310   -7.9158   -9.6649 H   0  0  0  0  0  0
   18.3280   -9.0403   -8.4498 H   0  0  0  0  0  0
   18.1807   -7.2901   -8.0733 H   0  0  0  0  0  0
   15.3367   -8.8648   -6.1514 H   0  0  0  0  0  0
   16.8128   -7.8553   -5.9813 H   0  0  0  0  0  0
   16.9600   -9.6055   -6.3579 H   0  0  0  0  0  0
   15.3936   -6.8211   -9.4854 H   0  0  0  0  0  0
   14.0433   -7.0251  -10.6523 H   0  0  0  0  0  0
   13.9822   -7.1676   -7.6178 H   0  0  0  0  0  0
   13.6601   -4.9030   -8.9238 H   0  0  0  0  0  0
   12.5459   -9.0161   -8.6795 H   0  0  0  0  0  0
   10.8204   -7.1900   -6.9581 H   0  0  0  0  0  0
   12.6532   -9.3618   -3.6193 H   0  0  0  0  0  0
   13.3084   -7.6625   -2.0658 H   0  0  0  0  0  0
   12.6743   -6.3985   -3.1734 H   0  0  0  0  0  0
    9.7185   -8.4787   -1.5124 H   0  0  0  0  0  0
    7.7839   -7.5751   -4.1251 H   0  0  0  0  0  0
    8.8262   -6.2259   -4.6908 H   0  0  0  0  0  0
    9.2408   -8.9913   -5.1773 H   0  0  0  0  0  0
   10.4302   -7.6712   -5.4402 H   0  0  0  0  0  0
   10.4596   -9.7602   -3.4390 H   0  0  0  0  0  0
   11.1797   -6.4037   -9.5397 H   0  0  0  0  0  0
   11.3329   -7.9379  -10.4614 H   0  0  0  0  0  0
    9.0159   -5.9334   -8.8019 H   0  0  0  0  0  0
    6.7881   -6.6722   -8.0031 H   0  0  0  0  0  0
    6.3038   -9.0876   -7.7013 H   0  0  0  0  0  0
    8.0584  -10.7706   -8.2144 H   0  0  0  0  0  0
   10.2801  -10.0266   -9.0207 H   0  0  0  0  0  0
  1  2  1  0  0  0
  1 39  1  0  0  0
  1 40  1  0  0  0
  2  3  2  0  0  0
  2  7  1  0  0  0
  3  4  1  0  0  0
  3 41  1  0  0  0
  4  5  2  0  0  0
  4 42  1  0  0  0
  5  6  1  0  0  0
  5  8  1  0  0  0
  6  7  2  0  0  0
  6 43  1  0  0  0
  7 44  1  0  0  0
  8  9  2  0  0  0
  8 10  2  0  0  0
  8 11  1  0  0  0
 11 12  1  0  0  0
 11 16  1  0  0  0
 12 13  1  0  0  0
 12 45  1  0  0  0
 12 46  1  0  0  0
 13 14  1  0  0  0
 13 15  1  0  0  0
 13 47  1  0  0  0
 14 48  1  0  0  0
 14 49  1  0  0  0
 14 50  1  0  0  0
 15 51  1  0  0  0
 15 52  1  0  0  0
 15 53  1  0  0  0
 16 17  1  0  0  0
 16 54  1  0  0  0
 16 55  1  0  0  0
 17 18  1  0  0  0
 17 19  1  0  0  0
 17 56  1  0  0  0
 18 57  1  0  0  0
 19 20  1  0  0  0
 19 32  1  0  0  0
 19 58  1  0  0  0
 20 21  1  0  0  0
 20 59  1  0  0  0
 21 22  2  0  0  0
 21 23  1  0  0  0
 23 24  1  0  0  0
 24 25  1  0  0  0
 24 31  1  0  0  0
 24 60  1  0  0  0
 25 26  1  0  0  0
 25 61  1  0  0  0
 25 62  1  0  0  0
 26 27  1  0  0  0
 27 28  1  0  0  0
 27 31  1  0  0  0
 27 63  1  0  0  0
 28 29  1  0  0  0
 29 30  1  0  0  0
 29 64  1  0  0  0
 29 65  1  0  0  0
 30 31  1  0  0  0
 30 66  1  0  0  0
 30 67  1  0  0  0
 31 68  1  0  0  0
 32 38  1  0  0  0
 32 69  1  0  0  0
 32 70  1  0  0  0
 33 34  2  0  0  0
 33 38  1  0  0  0
 33 71  1  0  0  0
 34 35  1  0  0  0
 34 72  1  0  0  0
 35 36  2  0  0  0
 35 73  1  0  0  0
 36 37  1  0  0  0
 36 74  1  0  0  0
 37 38  2  0  0  0
 37 75  1  0  0  0
M  END
> <s_m_source_file>
../3so9_ligand.sdf

> <i_m_source_file_index>
1

> <s_epik_input>
W05IMl1jMVtjSF1bY0hdYyhbY0hdW2NIXTEpUyg9TykoPU8pTihbQ0gyXVtDSF0oW0NIM10pW0NIM10pW0NIMl1bQ0BASF0oW09IXSlbQ0BASF0oW05IXUMoPU8pT1tDQEBIXShbQ0gyXU8yKVtDQEBIXShbQ0BASF0yMylbQ0gyXVtDSDJdTzMpW0NIMl1jNFtjSF1bY0hdW2NIXVtjSF1bY0hdNA==

> <s_epik_cmdline>
J2VwaWtfYXBwJywgJy1pbWFlJywgJ2xpZ2FuZF9wcm8ubWFlJywgJy1vbWFlJywgJ2xpZ2FuZF9wcmVwLm1hZScsICctbXMnLCAnMScsICctcGgnLCAnNycsICctcGh0JywgJzAuNScsICctbnQn

> <r_lp_tautomer_probability>
1

> <r_epik_Ionization_Penalty>
  0.0000

> <r_epik_Ionization_Penalty_Charging>
  0.0000

> <r_epik_Ionization_Penalty_Neutral>
  0.0000

> <r_epik_State_Penalty>
 -0.0000

> <r_epik_Charging_Adjusted_Penalty>
0

> <i_epik_Tot_Q>
0

> <i_epik_Tot_abs_Q>
0

> <s_epik_Chemistry_Notes>
This compound has an ester and may undergo hydrolysis at high or low pH. This compound contains an acetal/aminal-like group ( X-CH(R)-Y where X, Y are N, S, or O) that may be acid/base labile, releasing an aldehyde.

$$$$
