3soq_ligand
                    3D
 Schrodinger Suite 2020-3.
113112  0  0  1  0            999 V2000
  -22.8760   18.9420   -6.9650 C   0  0  0  0  0  0
  -22.0440   18.7400   -6.0820 O   0  0  0  0  0  0
  -23.8490   20.1150   -6.8680 C   0  0  0  0  0  0
  -22.9870   18.1800   -8.0500 N   0  0  0  0  0  0
  -22.1550   16.9970   -8.2890 C   0  0  2  0  0  0
  -20.7250   17.0290   -7.7290 C   0  0  0  0  0  0
  -19.9670   17.9720   -7.9670 O   0  0  0  0  0  0
  -22.0980   16.6920   -9.7930 C   0  0  0  0  0  0
  -23.2940   15.8890  -10.2800 C   0  0  0  0  0  0
  -23.2970   15.5670  -11.5680 O   0  0  0  0  0  0
  -24.2030   15.5660   -9.5130 N   0  0  0  0  0  0
  -20.3690   15.9900   -6.9800 N   0  0  0  0  0  0
  -18.9760   15.7380   -6.6350 C   0  0  2  0  0  0
  -18.5130   14.5160   -7.4130 C   0  0  0  0  0  0
  -19.2640   13.5500   -7.5620 O   0  0  0  0  0  0
  -18.8070   15.4910   -5.1390 C   0  0  0  0  0  0
  -17.4820   15.0650   -4.8470 O   0  0  0  0  0  0
  -17.2790   14.5520   -7.9020 N   0  0  0  0  0  0
  -16.7800   13.4670   -8.7420 C   0  0  2  0  0  0
  -15.9030   12.4630   -8.0030 C   0  0  0  0  0  0
  -15.3940   11.5190   -8.6100 O   0  0  0  0  0  0
  -16.0260   14.0120   -9.9570 C   0  0  0  0  0  0
  -15.9400   13.0020  -11.0850 C   0  0  0  0  0  0
  -16.9140   12.3070  -11.3840 O   0  0  0  0  0  0
  -14.7710   12.9050  -11.7100 N   0  0  0  0  0  0
  -15.7310   12.6640   -6.6980 N   0  0  0  0  0  0
  -14.9120   11.7650   -5.8880 C   0  0  2  0  0  0
  -15.6450   10.4550   -5.6030 C   0  0  0  0  0  0
  -16.8570   10.4460   -5.3870 O   0  0  0  0  0  0
  -14.5030   12.4390   -4.5800 C   0  0  0  0  0  0
  -14.9070    9.3500   -5.5990 N   0  0  0  0  0  0
  -15.5110    8.0510   -5.3240 C   0  0  2  0  0  0
  -15.9140    7.8980   -3.8560 C   0  0  0  0  0  0
  -16.9490    7.3050   -3.5500 O   0  0  0  0  0  0
  -14.5830    6.8870   -5.7180 C   0  0  2  0  0  0
  -14.5590    6.7110   -7.2340 C   0  0  0  0  0  0
  -15.0580    5.5870   -5.0780 C   0  0  0  0  0  0
  -13.8260    5.4620   -7.6860 C   0  0  0  0  0  0
  -15.1040    8.4390   -2.9500 N   0  0  0  0  0  0
  -15.3450    8.2400   -1.5220 C   0  0  2  0  0  0
  -16.4420    9.1340   -0.9420 C   0  0  0  0  0  0
  -17.3280    8.6470   -0.2360 O   0  0  0  0  0  0
  -14.0460    8.3770   -0.7200 C   0  0  0  0  0  0
  -13.0630    7.2360   -0.9600 C   0  0  0  0  0  0
  -11.8780    7.2890   -0.0040 C   0  0  0  0  0  0
  -10.9360    6.1120   -0.2400 C   0  0  0  0  0  0
   -9.7480    6.1240    0.6680 N   0  3  0  0  0  0
  -16.3790   10.4290   -1.2410 N   0  0  0  0  0  0
  -17.3400   11.4050   -0.7180 C   0  0  2  0  0  0
  -17.0320   11.8330    0.7190 C   0  0  0  0  0  0
  -17.1360   11.0350    1.6530 O   0  0  0  0  0  0
  -18.7800   10.8810   -0.8160 C   0  0  0  0  0  0
  -19.2210   10.6400   -2.2490 C   0  0  0  0  0  0
  -19.0250   11.4870   -3.1220 O   0  0  0  0  0  0
  -19.8200    9.4790   -2.4980 N   0  0  0  0  0  0
  -16.6560   13.0970    0.8870 N   0  0  0  0  0  0
  -23.6639   20.6688   -5.9358 H   0  0  0  0  0  0
  -24.8816   19.7360   -6.8704 H   0  0  0  0  0  0
  -23.7023   20.7851   -7.7279 H   0  0  0  0  0  0
  -23.7482   18.4751   -8.7872 H   0  0  0  0  0  0
  -22.6990   16.2412   -7.7035 H   0  0  0  0  0  0
  -22.0757   17.6356  -10.3579 H   0  0  0  0  0  0
  -21.1912   16.1103  -10.0151 H   0  0  0  0  0  0
  -24.1570   15.8556   -8.4528 H   0  0  0  0  0  0
  -25.0603   14.9881   -9.8886 H   0  0  0  0  0  0
  -21.1564   15.3121   -6.6188 H   0  0  0  0  0  0
  -18.4115   16.6407   -6.9117 H   0  0  0  0  0  0
  -19.0110   16.4212   -4.5885 H   0  0  0  0  0  0
  -19.5112   14.7108   -4.8143 H   0  0  0  0  0  0
  -17.1917   14.8431   -3.8095 H   0  0  0  0  0  0
  -16.6309   15.4097   -7.6689 H   0  0  0  0  0  0
  -17.7066   12.9546   -9.0400 H   0  0  0  0  0  0
  -16.5429   14.9046  -10.3391 H   0  0  0  0  0  0
  -15.0007   14.2800   -9.6623 H   0  0  0  0  0  0
  -13.9306   13.5469  -11.4073 H   0  0  0  0  0  0
  -14.6439   12.1828  -12.5299 H   0  0  0  0  0  0
  -16.2224   13.5306   -6.2315 H   0  0  0  0  0  0
  -14.0204   11.5599   -6.4988 H   0  0  0  0  0  0
  -13.9771   13.3795   -4.8010 H   0  0  0  0  0  0
  -13.8366   11.7701   -4.0156 H   0  0  0  0  0  0
  -15.4007   12.6528   -3.9813 H   0  0  0  0  0  0
  -13.8291    9.4226   -5.8062 H   0  0  0  0  0  0
  -16.4088    8.0653   -5.9594 H   0  0  0  0  0  0
  -13.5675    7.1168   -5.3631 H   0  0  0  0  0  0
  -15.5899    6.6429   -7.6116 H   0  0  0  0  0  0
  -14.0558    7.5735   -7.6954 H   0  0  0  0  0  0
  -15.0790    5.7030   -3.9843 H   0  0  0  0  0  0
  -14.3692    4.7727   -5.3472 H   0  0  0  0  0  0
  -16.0684    5.3475   -5.4408 H   0  0  0  0  0  0
  -13.8487    5.4007   -8.7841 H   0  0  0  0  0  0
  -14.3160    4.5746   -7.2589 H   0  0  0  0  0  0
  -12.7818    5.5052   -7.3427 H   0  0  0  0  0  0
  -14.2462    9.0409   -3.2844 H   0  0  0  0  0  0
  -15.7175    7.2057   -1.4833 H   0  0  0  0  0  0
  -13.5400    9.3131   -0.9987 H   0  0  0  0  0  0
  -14.2786    8.3920    0.3550 H   0  0  0  0  0  0
  -13.5761    6.2737   -0.8162 H   0  0  0  0  0  0
  -12.6763    7.2953   -1.9881 H   0  0  0  0  0  0
  -11.3215    8.2247   -0.1614 H   0  0  0  0  0  0
  -12.2417    7.2487    1.0334 H   0  0  0  0  0  0
  -11.4771    5.1695   -0.0701 H   0  0  0  0  0  0
  -10.5657    6.1406   -1.2754 H   0  0  0  0  0  0
   -9.1107    5.2545    0.4494 H   0  0  0  0  0  0
  -10.0855    6.0776    1.7139 H   0  0  0  0  0  0
   -9.1740    7.0487    0.5086 H   0  0  0  0  0  0
  -15.5679   10.7583   -1.9070 H   0  0  0  0  0  0
  -17.2015   12.2733   -1.3790 H   0  0  0  0  0  0
  -18.8607    9.9271   -0.2742 H   0  0  0  0  0  0
  -19.4683   11.6147   -0.3711 H   0  0  0  0  0  0
  -19.9730    8.7536   -1.6853 H   0  0  0  0  0  0
  -20.1624    9.2441   -3.5166 H   0  0  0  0  0  0
  -16.5792   13.7680    0.0188 H   0  0  0  0  0  0
  -16.4217   13.4719    1.8943 H   0  0  0  0  0  0
  1  2  2  0  0  0
  1  3  1  0  0  0
  1  4  1  0  0  0
  3 57  1  0  0  0
  3 58  1  0  0  0
  3 59  1  0  0  0
  4  5  1  0  0  0
  4 60  1  0  0  0
  5  6  1  0  0  0
  5  8  1  0  0  0
  5 61  1  0  0  0
  6  7  2  0  0  0
  6 12  1  0  0  0
  8  9  1  0  0  0
  8 62  1  0  0  0
  8 63  1  0  0  0
  9 10  2  0  0  0
  9 11  1  0  0  0
 11 64  1  0  0  0
 11 65  1  0  0  0
 12 13  1  0  0  0
 12 66  1  0  0  0
 13 14  1  0  0  0
 13 16  1  0  0  0
 13 67  1  0  0  0
 14 15  2  0  0  0
 14 18  1  0  0  0
 16 17  1  0  0  0
 16 68  1  0  0  0
 16 69  1  0  0  0
 17 70  1  0  0  0
 18 19  1  0  0  0
 18 71  1  0  0  0
 19 20  1  0  0  0
 19 22  1  0  0  0
 19 72  1  0  0  0
 20 21  2  0  0  0
 20 26  1  0  0  0
 22 23  1  0  0  0
 22 73  1  0  0  0
 22 74  1  0  0  0
 23 24  2  0  0  0
 23 25  1  0  0  0
 25 75  1  0  0  0
 25 76  1  0  0  0
 26 27  1  0  0  0
 26 77  1  0  0  0
 27 28  1  0  0  0
 27 30  1  0  0  0
 27 78  1  0  0  0
 28 29  2  0  0  0
 28 31  1  0  0  0
 30 79  1  0  0  0
 30 80  1  0  0  0
 30 81  1  0  0  0
 31 32  1  0  0  0
 31 82  1  0  0  0
 32 33  1  0  0  0
 32 35  1  0  0  0
 32 83  1  0  0  0
 33 34  2  0  0  0
 33 39  1  0  0  0
 35 36  1  0  0  0
 35 37  1  0  0  0
 35 84  1  0  0  0
 36 38  1  0  0  0
 36 85  1  0  0  0
 36 86  1  0  0  0
 37 87  1  0  0  0
 37 88  1  0  0  0
 37 89  1  0  0  0
 38 90  1  0  0  0
 38 91  1  0  0  0
 38 92  1  0  0  0
 39 40  1  0  0  0
 39 93  1  0  0  0
 40 41  1  0  0  0
 40 43  1  0  0  0
 40 94  1  0  0  0
 41 42  2  0  0  0
 41 48  1  0  0  0
 43 44  1  0  0  0
 43 95  1  0  0  0
 43 96  1  0  0  0
 44 45  1  0  0  0
 44 97  1  0  0  0
 44 98  1  0  0  0
 45 46  1  0  0  0
 45 99  1  0  0  0
 45100  1  0  0  0
 46 47  1  0  0  0
 46101  1  0  0  0
 46102  1  0  0  0
 47103  1  0  0  0
 47104  1  0  0  0
 47105  1  0  0  0
 48 49  1  0  0  0
 48106  1  0  0  0
 49 50  1  0  0  0
 49 52  1  0  0  0
 49107  1  0  0  0
 50 51  2  0  0  0
 50 56  1  0  0  0
 52 53  1  0  0  0
 52108  1  0  0  0
 52109  1  0  0  0
 53 54  2  0  0  0
 53 55  1  0  0  0
 55110  1  0  0  0
 55111  1  0  0  0
 56112  1  0  0  0
 56113  1  0  0  0
M  CHG  1  47   1
M  END
> <s_m_source_file>
../3soq_ligand.sdf

> <i_m_source_file_index>
1

> <s_epik_input>
Tz1DKFtDSDNdKVtOSF1bQ0BASF0oW0NIMl1DKD1PKVtOSDJdKUMoPU8pW05IXVtDQEBIXShbQ0gyXVtPSF0pQyg9TylbTkhdW0NAQEhdKFtDSDJdQyg9TylbTkgyXSlDKD1PKVtOSF1bQ0BASF0oW0NIM10pQyg9TylbTkhdW0NAQEhdKFtDQEBIXShbQ0gzXSlbQ0gyXVtDSDNdKUMoPU8pW05IXVtDQEBIXShbQ0gyXVtDSDJdW0NIMl1bQ0gyXVtOSDMrXSlDKD1PKVtOSF1bQ0BIXShDKD1PKVtOSDJdKVtDSDJdQyg9TylbTkgyXQ==

> <s_epik_cmdline>
J2VwaWtfYXBwJywgJy1pbWFlJywgJ2xpZ2FuZF9wcm8ubWFlJywgJy1vbWFlJywgJ2xpZ2FuZF9wcmVwLm1hZScsICctbXMnLCAnMScsICctcGgnLCAnNycsICctcGh0JywgJzAuNScsICctbnQn

> <r_lp_tautomer_probability>
1

> <r_epik_Ionization_Penalty>
  0.0004

> <r_epik_Ionization_Penalty_Charging>
  0.0004

> <r_epik_Ionization_Penalty_Neutral>
  0.0000

> <r_epik_State_Penalty>
 -0.0000

> <r_epik_Charging_Adjusted_Penalty>
0.000447057270174381

> <i_epik_Tot_Q>
1

> <i_epik_Tot_abs_Q>
1

$$$$
