3sou_ligand
                    3D
 Schrodinger Suite 2020-3.
138137  0  0  1  0            999 V2000
   29.6500   12.9720   87.7300 N   0  3  0  0  0  0
   29.4010   12.3020   86.4570 C   0  0  2  0  0  0
   29.3280   13.3140   85.3200 C   0  0  0  0  0  0
   29.0060   14.4780   85.5380 O   0  0  0  0  0  0
   28.1070   11.4800   86.5310 C   0  0  0  0  0  0
   29.6410   12.8680   84.1120 N   0  0  0  0  0  0
   29.5280   13.7300   82.9440 C   0  0  2  0  0  0
   28.0790   13.8730   82.5450 C   0  0  0  0  0  0
   27.3380   12.8920   82.5850 O   0  0  0  0  0  0
   30.2710   13.1270   81.7630 C   0  0  0  0  0  0
   31.7570   13.0420   81.9340 C   0  0  0  0  0  0
   32.3740   12.6100   80.6160 C   0  0  0  0  0  0
   32.0550   11.2200   80.2980 N   0  0  0  0  0  0
   31.6320   10.8130   79.1090 C   0  0  0  0  0  0
   31.4660   11.6950   78.1350 N   0  3  0  0  0  0
   31.3650    9.5300   78.9000 N   0  0  0  0  0  0
   27.6740   15.0830   82.1650 N   0  0  0  0  0  0
   26.3620   15.2740   81.5550 C   0  0  2  0  0  0
   26.5790   15.8470   80.1640 C   0  0  0  0  0  0
   27.6700   16.3370   79.8490 O   0  0  0  0  0  0
   25.4180   16.1710   82.3970 C   0  0  2  0  0  0
   26.0900   17.3850   82.7670 O   0  0  0  0  0  0
   24.9780   15.4380   83.6640 C   0  0  0  0  0  0
   25.5660   15.7620   79.3180 N   0  0  0  0  0  0
   25.7200   16.2250   77.9500 C   0  0  2  0  0  0
   26.0630   17.7160   77.9310 C   0  0  0  0  0  0
   26.7650   18.1980   77.0380 O   0  0  0  0  0  0
   24.4600   15.9340   77.1450 C   0  0  0  0  0  0
   24.5050   16.4830   75.7400 C   0  0  0  0  0  0
   23.5530   15.7270   74.8660 C   0  0  0  0  0  0
   24.0740   14.3340   74.5640 C   0  0  0  0  0  0
   23.0940   13.6590   73.6640 N   0  3  0  0  0  0
   25.5810   18.4270   78.9430 N   0  0  0  0  0  0
   25.8530   19.8490   79.1180 C   0  0  2  0  0  0
   25.9730   20.1610   80.6060 C   0  0  0  0  0  0
   25.3450   19.5020   81.4380 O   0  0  0  0  0  0
   24.7250   20.6780   78.5010 C   0  0  0  0  0  0
   24.5410   22.0550   79.1190 C   0  0  0  0  0  0
   23.2100   22.6770   78.7320 C   0  0  0  0  0  0
   22.3200   22.8620   79.5730 O   0  0  0  0  0  0
   23.0590   22.9860   77.4480 N   0  0  0  0  0  0
   26.7860   21.1540   80.9580 N   0  0  0  0  0  0
   26.9580   21.4980   82.3610 C   0  0  2  0  0  0
   26.7060   22.9870   82.6040 C   0  0  0  0  0  0
   26.8440   23.8060   81.6880 O   0  0  0  0  0  0
   28.3590   21.0800   82.8760 C   0  0  2  0  0  0
   28.2300   20.3770   84.1220 O   0  0  0  0  0  0
   29.2670   22.2990   83.0500 C   0  0  0  0  0  0
   26.3210   23.3260   83.8340 N   0  0  0  0  0  0
   26.0640   24.7180   84.2000 C   0  0  2  0  0  0
   27.3140   25.5550   83.9690 C   0  0  0  0  0  0
   27.2680   26.5850   83.2860 O   0  0  0  0  0  0
   25.6050   24.8220   85.6530 C   0  0  0  0  0  0
   28.4350   25.1080   84.5310 N   0  0  0  0  0  0
   29.7030   25.7920   84.3030 C   0  0  2  0  0  0
   30.0540   25.7800   82.8160 C   0  0  0  0  0  0
   30.7540   26.6690   82.3250 O   0  0  0  0  0  0
   30.8410   25.1630   85.1220 C   0  0  0  0  0  0
   32.0970   26.0300   85.1320 C   0  0  0  0  0  0
   33.3110   25.3530   85.7690 C   0  0  0  0  0  0
   33.3140   25.4460   87.2230 N   0  0  0  0  0  0
   34.3560   25.8270   87.9560 C   0  0  0  0  0  0
   35.5000   26.1790   87.3810 N   0  0  0  0  0  0
   34.2480   25.8660   89.2760 N   0  3  0  0  0  0
   29.6232   24.8506   82.0823 O   0  5  0  0  0  0
   30.5795   13.5562   87.6612 H   0  0  0  0  0  0
   29.7476   12.2202   88.5271 H   0  0  0  0  0  0
   28.8105   13.6443   87.9608 H   0  0  0  0  0  0
   30.2634   11.6386   86.2950 H   0  0  0  0  0  0
   28.1790   10.7564   87.3564 H   0  0  0  0  0  0
   27.9599   10.9416   85.5831 H   0  0  0  0  0  0
   27.2547   12.1529   86.7065 H   0  0  0  0  0  0
   29.9902   11.8311   83.9986 H   0  0  0  0  0  0
   29.9610   14.6954   83.2449 H   0  0  0  0  0  0
   29.9124   12.1018   81.5889 H   0  0  0  0  0  0
   30.0891   13.7364   80.8655 H   0  0  0  0  0  0
   32.1495   14.0274   82.2254 H   0  0  0  0  0  0
   31.9946   12.3067   82.7168 H   0  0  0  0  0  0
   31.9902   13.2468   79.8053 H   0  0  0  0  0  0
   33.4680   12.7090   80.6733 H   0  0  0  0  0  0
   32.1614   10.4414   81.0677 H   0  0  0  0  0  0
   31.6882   12.7577   78.3116 H   0  0  0  0  0  0
   31.5040    8.8001   79.7111 H   0  0  0  0  0  0
   31.0047    9.1964   77.9157 H   0  0  0  0  0  0
   28.3412   15.9445   82.3156 H   0  0  0  0  0  0
   25.9049   14.2746   81.5073 H   0  0  0  0  0  0
   24.5435   16.4804   81.8058 H   0  0  0  0  0  0
   26.4835   18.0551   81.9884 H   0  0  0  0  0  0
   24.4621   14.5064   83.3882 H   0  0  0  0  0  0
   24.2943   16.0791   84.2398 H   0  0  0  0  0  0
   25.8609   15.2010   84.2758 H   0  0  0  0  0  0
   24.6062   15.3402   79.6512 H   0  0  0  0  0  0
   26.5559   15.6498   77.5254 H   0  0  0  0  0  0
   24.3162   14.8461   77.0696 H   0  0  0  0  0  0
   23.5915   16.3847   77.6476 H   0  0  0  0  0  0
   24.2203   17.5454   75.7522 H   0  0  0  0  0  0
   25.5242   16.3812   75.3390 H   0  0  0  0  0  0
   22.5818   15.6360   75.3745 H   0  0  0  0  0  0
   23.4205   16.2658   73.9162 H   0  0  0  0  0  0
   25.0541   14.4082   74.0701 H   0  0  0  0  0  0
   24.1782   13.7700   75.5026 H   0  0  0  0  0  0
   23.4496   12.6448   73.4296 H   0  0  0  0  0  0
   22.9929   14.2364   72.7332 H   0  0  0  0  0  0
   22.1170   13.5982   74.1657 H   0  0  0  0  0  0
   24.9497   17.8943   79.6694 H   0  0  0  0  0  0
   26.8019   20.0573   78.6020 H   0  0  0  0  0  0
   24.9270   20.8330   77.4309 H   0  0  0  0  0  0
   23.7704   20.1446   78.6204 H   0  0  0  0  0  0
   24.5766   21.9726   80.2153 H   0  0  0  0  0  0
   25.3455   22.7217   78.7751 H   0  0  0  0  0  0
   23.8791   22.8029   76.7381 H   0  0  0  0  0  0
   22.1140   23.4248   77.0954 H   0  0  0  0  0  0
   27.3290   21.7155   80.1835 H   0  0  0  0  0  0
   26.1781   20.9177   82.8758 H   0  0  0  0  0  0
   28.8336   20.3673   82.1855 H   0  0  0  0  0  0
   27.6097   19.4704   84.1804 H   0  0  0  0  0  0
   29.3579   22.8285   82.0901 H   0  0  0  0  0  0
   30.2625   21.9701   83.3831 H   0  0  0  0  0  0
   28.8335   22.9748   83.8019 H   0  0  0  0  0  0
   26.1976   22.5289   84.5819 H   0  0  0  0  0  0
   25.2558   25.0658   83.5398 H   0  0  0  0  0  0
   24.7020   24.2105   85.7969 H   0  0  0  0  0  0
   25.3789   25.8717   85.8918 H   0  0  0  0  0  0
   26.4035   24.4587   86.3166 H   0  0  0  0  0  0
   28.3994   24.2148   85.1720 H   0  0  0  0  0  0
   29.5310   26.8231   84.6454 H   0  0  0  0  0  0
   30.5124   25.0283   86.1631 H   0  0  0  0  0  0
   31.1057   24.1858   84.6918 H   0  0  0  0  0  0
   32.3726   26.2881   84.0988 H   0  0  0  0  0  0
   31.9021   26.9513   85.7005 H   0  0  0  0  0  0
   33.3181   24.2860   85.5015 H   0  0  0  0  0  0
   34.2316   25.8294   85.4009 H   0  0  0  0  0  0
   32.4080   25.1911   87.7923 H   0  0  0  0  0  0
   35.5971   26.1491   86.2857 H   0  0  0  0  0  0
   36.3506   26.5004   88.0000 H   0  0  0  0  0  0
   33.3034   25.5759   89.7594 H   0  0  0  0  0  0
   31.1059   11.3648   77.1495 H   0  0  0  0  0  0
   35.1029   26.1885   89.8885 H   0  0  0  0  0  0
  1  2  1  0  0  0
  1 66  1  0  0  0
  1 67  1  0  0  0
  1 68  1  0  0  0
  2  3  1  0  0  0
  2  5  1  0  0  0
  2 69  1  0  0  0
  3  4  2  0  0  0
  3  6  1  0  0  0
  5 70  1  0  0  0
  5 71  1  0  0  0
  5 72  1  0  0  0
  6  7  1  0  0  0
  6 73  1  0  0  0
  7  8  1  0  0  0
  7 10  1  0  0  0
  7 74  1  0  0  0
  8  9  2  0  0  0
  8 17  1  0  0  0
 10 11  1  0  0  0
 10 75  1  0  0  0
 10 76  1  0  0  0
 11 12  1  0  0  0
 11 77  1  0  0  0
 11 78  1  0  0  0
 12 13  1  0  0  0
 12 79  1  0  0  0
 12 80  1  0  0  0
 13 14  1  0  0  0
 13 81  1  0  0  0
 14 15  2  0  0  0
 14 16  1  0  0  0
 15 82  1  0  0  0
 15137  1  0  0  0
 16 83  1  0  0  0
 16 84  1  0  0  0
 17 18  1  0  0  0
 17 85  1  0  0  0
 18 19  1  0  0  0
 18 21  1  0  0  0
 18 86  1  0  0  0
 19 20  2  0  0  0
 19 24  1  0  0  0
 21 22  1  0  0  0
 21 23  1  0  0  0
 21 87  1  0  0  0
 22 88  1  0  0  0
 23 89  1  0  0  0
 23 90  1  0  0  0
 23 91  1  0  0  0
 24 25  1  0  0  0
 24 92  1  0  0  0
 25 26  1  0  0  0
 25 28  1  0  0  0
 25 93  1  0  0  0
 26 27  2  0  0  0
 26 33  1  0  0  0
 28 29  1  0  0  0
 28 94  1  0  0  0
 28 95  1  0  0  0
 29 30  1  0  0  0
 29 96  1  0  0  0
 29 97  1  0  0  0
 30 31  1  0  0  0
 30 98  1  0  0  0
 30 99  1  0  0  0
 31 32  1  0  0  0
 31100  1  0  0  0
 31101  1  0  0  0
 32102  1  0  0  0
 32103  1  0  0  0
 32104  1  0  0  0
 33 34  1  0  0  0
 33105  1  0  0  0
 34 35  1  0  0  0
 34 37  1  0  0  0
 34106  1  0  0  0
 35 36  2  0  0  0
 35 42  1  0  0  0
 37 38  1  0  0  0
 37107  1  0  0  0
 37108  1  0  0  0
 38 39  1  0  0  0
 38109  1  0  0  0
 38110  1  0  0  0
 39 40  2  0  0  0
 39 41  1  0  0  0
 41111  1  0  0  0
 41112  1  0  0  0
 42 43  1  0  0  0
 42113  1  0  0  0
 43 44  1  0  0  0
 43 46  1  0  0  0
 43114  1  0  0  0
 44 45  2  0  0  0
 44 49  1  0  0  0
 46 47  1  0  0  0
 46 48  1  0  0  0
 46115  1  0  0  0
 47116  1  0  0  0
 48117  1  0  0  0
 48118  1  0  0  0
 48119  1  0  0  0
 49 50  1  0  0  0
 49120  1  0  0  0
 50 51  1  0  0  0
 50 53  1  0  0  0
 50121  1  0  0  0
 51 52  2  0  0  0
 51 54  1  0  0  0
 53122  1  0  0  0
 53123  1  0  0  0
 53124  1  0  0  0
 54 55  1  0  0  0
 54125  1  0  0  0
 55 56  1  0  0  0
 55 58  1  0  0  0
 55126  1  0  0  0
 56 57  2  0  0  0
 56 65  1  0  0  0
 58 59  1  0  0  0
 58127  1  0  0  0
 58128  1  0  0  0
 59 60  1  0  0  0
 59129  1  0  0  0
 59130  1  0  0  0
 60 61  1  0  0  0
 60131  1  0  0  0
 60132  1  0  0  0
 61 62  1  0  0  0
 61133  1  0  0  0
 62 63  1  0  0  0
 62 64  2  0  0  0
 63134  1  0  0  0
 63135  1  0  0  0
 64136  1  0  0  0
 64138  1  0  0  0
M  CHG  5   1   1  15   1  32   1  64   1  65  -1
M  END
> <s_m_source_file>
../3sou_ligand.sdf

> <i_m_source_file_index>
1

> <s_epik_input>
W0hdL049QyhbTkgyXSlcW05IXVtDSDJdW0NIMl1bQ0gyXVtDQEhdKFtOSF1DKD1PKVtDQEBIXShbTkgzK10pW0NIM10pQyg9TylbTkhdW0NAQEhdKFtDQEhdKFtPSF0pW0NIM10pQyg9TylbTkhdW0NAQEhdKFtDSDJdW0NIMl1bQ0gyXVtDSDJdW05IMytdKUMoPU8pW05IXVtDQEBIXShbQ0gyXVtDSDJdQyg9TylbTkgyXSlDKD1PKVtOSF1bQ0BASF0oW0NASF0oW09IXSlbQ0gzXSlDKD1PKVtOSF1bQ0BASF0oW0NIM10pQyg9TylbTkhdW0NASF0oQyg9TylbT0hdKVtDSDJdW0NIMl1bQ0gyXVtOSF0vQyhbTkgyXSk9TlxbSF0=

> <s_epik_cmdline>
J2VwaWtfYXBwJywgJy1pbWFlJywgJ2xpZ2FuZF9wcm8ubWFlJywgJy1vbWFlJywgJ2xpZ2FuZF9wcmVwLm1hZScsICctbXMnLCAnMScsICctcGgnLCAnNycsICctcGh0JywgJzAuNScsICctbnQn

> <r_epik_Ionization_Penalty>
  0.1257

> <r_epik_Ionization_Penalty_Charging>
  0.1257

> <r_epik_Ionization_Penalty_Neutral>
  0.0000

> <r_epik_State_Penalty>
  0.1145

> <r_epik_Charging_Adjusted_Penalty>
0.240198644602196

> <i_epik_Tot_Q>
3

> <i_epik_Tot_abs_Q>
5

> <s_epik_Chemistry_Notes>
This compound has an imine and may undergo hydrolysis.

$$$$
