3sov_ligand
                    3D
 Schrodinger Suite 2020-3.
110110  0  0  1  0            999 V2000
  -14.9760   16.2170   -3.3870 N   0  3  0  0  0  0
  -15.8630   15.0720   -3.3220 C   0  0  2  0  0  0
  -16.7100   14.9130   -4.5960 C   0  0  0  0  0  0
  -17.0240   13.7930   -4.9510 O   0  0  0  0  0  0
  -16.7690   15.1070   -2.0770 C   0  0  0  0  0  0
  -17.2440   13.7120   -1.6190 C   0  0  0  0  0  0
  -16.0440   12.8530   -1.1940 C   0  0  0  0  0  0
  -18.2830   13.7800   -0.4840 C   0  0  0  0  0  0
  -17.1130   16.0160   -5.2690 N   0  0  0  0  0  0
  -17.8010   15.7150   -6.5260 C   0  0  2  0  0  0
  -16.8790   14.8250   -7.4050 C   0  0  0  0  0  0
  -15.6370   15.0600   -7.5730 O   0  0  0  0  0  0
  -17.9850   17.0980   -7.1770 C   0  0  0  0  0  0
  -18.1190   18.0070   -6.0030 C   0  0  0  0  0  0
  -17.1150   17.4680   -4.9980 C   0  0  0  0  0  0
  -17.5160   13.7890   -7.9490 N   0  0  0  0  0  0
  -16.9150   12.7370   -8.8270 C   0  0  2  0  0  0
  -16.0290   11.7470   -8.0850 C   0  0  0  0  0  0
  -15.5420   10.7930   -8.6860 O   0  0  0  0  0  0
  -16.0920   13.3010  -10.0030 C   0  0  0  0  0  0
  -15.9960   12.3090  -11.1360 C   0  0  0  0  0  0
  -16.9710   11.6350  -11.4730 O   0  0  0  0  0  0
  -14.8340   12.2170  -11.7650 N   0  0  0  0  0  0
  -15.7070   12.0000   -6.8170 N   0  0  0  0  0  0
  -14.8830   11.0300   -6.0820 C   0  0  2  0  0  0
  -15.6920    9.7480   -5.8380 C   0  0  0  0  0  0
  -16.9170    9.7920   -5.6660 O   0  0  0  0  0  0
  -14.3820   11.6240   -4.7490 C   0  0  0  0  0  0
  -14.9940    8.6220   -5.7690 N   0  0  0  0  0  0
  -15.6650    7.3660   -5.4220 C   0  0  2  0  0  0
  -15.9060    7.4160   -3.9060 C   0  0  0  0  0  0
  -14.9450    7.5490   -3.1430 O   0  0  0  0  0  0
  -14.8760    6.1580   -5.8330 C   0  0  2  0  0  0
  -14.9440    6.0310   -7.3690 C   0  0  0  0  0  0
  -15.4550    4.8720   -5.2140 C   0  0  0  0  0  0
  -14.0090    5.0050   -7.9160 C   0  0  0  0  0  0
  -17.1810    7.3720   -3.5050 N   0  0  0  0  0  0
  -17.5360    7.5550   -2.1130 C   0  0  0  0  0  0
  -17.2370    6.3480   -1.2670 C   0  0  0  0  0  0
  -17.0620    5.2290   -1.7750 O   0  0  0  0  0  0
  -17.1430    6.6230    0.0340 N   0  0  0  0  0  0
  -17.0470    5.6250    1.0830 C   0  0  2  0  0  0
  -16.4210    4.3080    0.6050 C   0  0  0  0  0  0
  -15.2028    4.0605    0.8111 O   0  5  0  0  0  0
  -18.4430    5.4280    1.6880 C   0  0  0  0  0  0
  -18.8670    4.0000    1.8470 C   0  0  0  0  0  0
  -18.2340    3.3550    3.0740 C   0  0  0  0  0  0
  -18.4740    1.9120    3.0710 N   0  0  0  0  0  0
  -19.6790    1.3450    3.1060 C   0  0  0  0  0  0
  -20.7810    2.0870    3.1790 N   0  0  0  0  0  0
  -19.7820    0.0270    3.0770 N   0  3  0  0  0  0
  -17.1338    3.4639   -0.0008 O   0  0  0  0  0  0
  -14.3519   16.1465   -4.2900 H   0  0  0  0  0  0
  -14.3312   16.2324   -2.4959 H   0  0  0  0  0  0
  -15.5720   17.1408   -3.4244 H   0  0  0  0  0  0
  -15.1532   14.2352   -3.2450 H   0  0  0  0  0  0
  -16.2209   15.5593   -1.2373 H   0  0  0  0  0  0
  -17.6667   15.7048   -2.2934 H   0  0  0  0  0  0
  -17.7407   13.2403   -2.4797 H   0  0  0  0  0  0
  -15.3120   12.8143   -2.0142 H   0  0  0  0  0  0
  -16.3868   11.8343   -0.9601 H   0  0  0  0  0  0
  -15.5737   13.2952   -0.3033 H   0  0  0  0  0  0
  -19.1351   14.3979   -0.8035 H   0  0  0  0  0  0
  -17.8214   14.2258    0.4094 H   0  0  0  0  0  0
  -18.6345   12.7649   -0.2474 H   0  0  0  0  0  0
  -18.7489   15.1872   -6.3445 H   0  0  0  0  0  0
  -17.1055   17.3324   -7.7947 H   0  0  0  0  0  0
  -18.8851   17.0889   -7.8092 H   0  0  0  0  0  0
  -17.8847   19.0374   -6.3085 H   0  0  0  0  0  0
  -19.1496   17.9632   -5.6210 H   0  0  0  0  0  0
  -17.4236   17.6463   -3.9573 H   0  0  0  0  0  0
  -16.1039   17.8717   -5.1549 H   0  0  0  0  0  0
  -18.5860   13.7495   -7.6969 H   0  0  0  0  0  0
  -17.8193   12.2261   -9.1894 H   0  0  0  0  0  0
  -16.5718   14.2159  -10.3808 H   0  0  0  0  0  0
  -15.0741   13.5361   -9.6587 H   0  0  0  0  0  0
  -13.9823   12.8325  -11.4398 H   0  0  0  0  0  0
  -14.7207   11.5251  -12.6126 H   0  0  0  0  0  0
  -16.0490   12.9196   -6.3197 H   0  0  0  0  0  0
  -14.0175   10.8144   -6.7258 H   0  0  0  0  0  0
  -13.8064   12.5398   -4.9490 H   0  0  0  0  0  0
  -13.7394   10.8909   -4.2394 H   0  0  0  0  0  0
  -15.2431   11.8648   -4.1083 H   0  0  0  0  0  0
  -13.9129    8.6302   -5.9718 H   0  0  0  0  0  0
  -16.5970    7.2911   -6.0015 H   0  0  0  0  0  0
  -13.8478    6.3048   -5.4707 H   0  0  0  0  0  0
  -15.9631    5.7450   -7.6685 H   0  0  0  0  0  0
  -14.6840    6.9960   -7.8286 H   0  0  0  0  0  0
  -15.4153    4.9431   -4.1170 H   0  0  0  0  0  0
  -14.8636    4.0063   -5.5470 H   0  0  0  0  0  0
  -16.4995    4.7482   -5.5359 H   0  0  0  0  0  0
  -14.1076    4.9657   -9.0109 H   0  0  0  0  0  0
  -14.2546    4.0210   -7.4902 H   0  0  0  0  0  0
  -12.9755    5.2720   -7.6502 H   0  0  0  0  0  0
  -17.9665    7.1930   -4.2540 H   0  0  0  0  0  0
  -16.9698    8.4022   -1.6985 H   0  0  0  0  0  0
  -18.6137    7.7602   -2.0334 H   0  0  0  0  0  0
  -17.1413    7.6926    0.2907 H   0  0  0  0  0  0
  -16.3497    6.0405    1.8254 H   0  0  0  0  0  0
  -18.4754    5.8802    2.6902 H   0  0  0  0  0  0
  -19.1932    5.9100    1.0439 H   0  0  0  0  0  0
  -19.9604    3.9523    1.9571 H   0  0  0  0  0  0
  -18.5625    3.4261    0.9594 H   0  0  0  0  0  0
  -17.1494    3.5383    3.0662 H   0  0  0  0  0  0
  -18.6727    3.7897    3.9843 H   0  0  0  0  0  0
  -17.6250    1.2133    3.0381 H   0  0  0  0  0  0
  -20.7047    3.1841    3.2036 H   0  0  0  0  0  0
  -21.7683    1.6034    3.2147 H   0  0  0  0  0  0
  -18.8762   -0.5943    3.0167 H   0  0  0  0  0  0
  -20.7734   -0.4481    3.1132 H   0  0  0  0  0  0
  1  2  1  0  0  0
  1 53  1  0  0  0
  1 54  1  0  0  0
  1 55  1  0  0  0
  2  3  1  0  0  0
  2  5  1  0  0  0
  2 56  1  0  0  0
  3  4  2  0  0  0
  3  9  1  0  0  0
  5  6  1  0  0  0
  5 57  1  0  0  0
  5 58  1  0  0  0
  6  7  1  0  0  0
  6  8  1  0  0  0
  6 59  1  0  0  0
  7 60  1  0  0  0
  7 61  1  0  0  0
  7 62  1  0  0  0
  8 63  1  0  0  0
  8 64  1  0  0  0
  8 65  1  0  0  0
  9 10  1  0  0  0
  9 15  1  0  0  0
 10 11  1  0  0  0
 10 13  1  0  0  0
 10 66  1  0  0  0
 11 12  2  0  0  0
 11 16  1  0  0  0
 13 14  1  0  0  0
 13 67  1  0  0  0
 13 68  1  0  0  0
 14 15  1  0  0  0
 14 69  1  0  0  0
 14 70  1  0  0  0
 15 71  1  0  0  0
 15 72  1  0  0  0
 16 17  1  0  0  0
 16 73  1  0  0  0
 17 18  1  0  0  0
 17 20  1  0  0  0
 17 74  1  0  0  0
 18 19  2  0  0  0
 18 24  1  0  0  0
 20 21  1  0  0  0
 20 75  1  0  0  0
 20 76  1  0  0  0
 21 22  2  0  0  0
 21 23  1  0  0  0
 23 77  1  0  0  0
 23 78  1  0  0  0
 24 25  1  0  0  0
 24 79  1  0  0  0
 25 26  1  0  0  0
 25 28  1  0  0  0
 25 80  1  0  0  0
 26 27  2  0  0  0
 26 29  1  0  0  0
 28 81  1  0  0  0
 28 82  1  0  0  0
 28 83  1  0  0  0
 29 30  1  0  0  0
 29 84  1  0  0  0
 30 31  1  0  0  0
 30 33  1  0  0  0
 30 85  1  0  0  0
 31 32  2  0  0  0
 31 37  1  0  0  0
 33 34  1  0  0  0
 33 35  1  0  0  0
 33 86  1  0  0  0
 34 36  1  0  0  0
 34 87  1  0  0  0
 34 88  1  0  0  0
 35 89  1  0  0  0
 35 90  1  0  0  0
 35 91  1  0  0  0
 36 92  1  0  0  0
 36 93  1  0  0  0
 36 94  1  0  0  0
 37 38  1  0  0  0
 37 95  1  0  0  0
 38 39  1  0  0  0
 38 96  1  0  0  0
 38 97  1  0  0  0
 39 40  2  0  0  0
 39 41  1  0  0  0
 41 42  1  0  0  0
 41 98  1  0  0  0
 42 43  1  0  0  0
 42 45  1  0  0  0
 42 99  1  0  0  0
 43 44  1  0  0  0
 43 52  2  0  0  0
 45 46  1  0  0  0
 45100  1  0  0  0
 45101  1  0  0  0
 46 47  1  0  0  0
 46102  1  0  0  0
 46103  1  0  0  0
 47 48  1  0  0  0
 47104  1  0  0  0
 47105  1  0  0  0
 48 49  1  0  0  0
 48106  1  0  0  0
 49 50  1  0  0  0
 49 51  2  0  0  0
 50107  1  0  0  0
 50108  1  0  0  0
 51109  1  0  0  0
 51110  1  0  0  0
M  CHG  3   1   1  44  -1  51   1
M  END
> <s_m_source_file>
../3sov_ligand.sdf

> <i_m_source_file_index>
1

> <s_epik_input>
W0NIM11bQ0hdKFtDSDNdKVtDSDJdW0NASF0oW05IMytdKUMoPU8pTjFbQ0BASF0oW0NIMl1bQ0gyXVtDSDJdMSlDKD1PKVtOSF1bQ0BASF0oW0NIMl1DKD1PKVtOSDJdKUMoPU8pW05IXVtDQEBIXShbQ0gzXSlDKD1PKVtOSF1bQ0BASF0oW0NAQEhdKFtDSDNdKVtDSDJdW0NIM10pQyg9TylbTkhdW0NIMl1DKD1PKVtOSF1bQ0BIXShDKD1PKVtPSF0pW0NIMl1bQ0gyXVtDSDJdW05IXS9DKFtOSDJdKT1OXFtIXQ==

> <s_epik_cmdline>
J2VwaWtfYXBwJywgJy1pbWFlJywgJ2xpZ2FuZF9wcm8ubWFlJywgJy1vbWFlJywgJ2xpZ2FuZF9wcmVwLm1hZScsICctbXMnLCAnMScsICctcGgnLCAnNycsICctcGh0JywgJzAuNScsICctbnQn

> <r_epik_Ionization_Penalty>
  0.0838

> <r_epik_Ionization_Penalty_Charging>
  0.0838

> <r_epik_Ionization_Penalty_Neutral>
  0.0000

> <r_epik_State_Penalty>
  0.0743

> <r_epik_Charging_Adjusted_Penalty>
0.158091832213697

> <i_epik_Tot_Q>
1

> <i_epik_Tot_abs_Q>
3

> <s_epik_Chemistry_Notes>
This compound has an imine and may undergo hydrolysis.

$$$$
