3sow_ligand
                    3D
 Schrodinger Suite 2020-3.
113112  0  0  1  0            999 V2000
  -13.4560   13.0360    4.3480 N   0  3  0  0  0  0
  -12.7570   13.1040    5.6340 C   0  0  2  0  0  0
  -13.7040   13.2600    6.8180 C   0  0  0  0  0  0
  -14.8390   13.7190    6.6790 O   0  0  0  0  0  0
  -11.7250   14.2230    5.6320 C   0  0  0  0  0  0
  -13.2120   12.8770    7.9880 N   0  0  0  0  0  0
  -13.9950   12.9000    9.2180 C   0  0  2  0  0  0
  -14.0360   14.3180    9.7920 C   0  0  0  0  0  0
  -13.0030   14.9810    9.9250 O   0  0  0  0  0  0
  -13.3640   11.9310   10.2180 C   0  0  0  0  0  0
  -14.1920   11.5810   11.4440 C   0  0  0  0  0  0
  -13.4330   10.5290   12.2420 C   0  0  0  0  0  0
  -11.9990   10.6660   11.9780 N   0  0  0  0  0  0
  -11.0730   10.8510   12.9140 C   0  0  0  0  0  0
  -11.4210   10.8990   14.1950 N   0  3  0  0  0  0
   -9.7950   10.9760   12.5650 N   0  0  0  0  0  0
  -15.2350   14.7880   10.1090 N   0  0  0  0  0  0
  -15.3870   16.0710   10.7790 C   0  0  2  0  0  0
  -15.7590   15.8910   12.2550 C   0  0  0  0  0  0
  -16.1050   14.7910   12.6960 O   0  0  0  0  0  0
  -16.4510   16.9290   10.1030 C   0  0  2  0  0  0
  -17.7270   16.3000   10.2540 O   0  0  0  0  0  0
  -16.1370   17.1010    8.6060 C   0  0  0  0  0  0
  -15.6650   16.9770   13.0150 N   0  0  0  0  0  0
  -16.0630   16.9650   14.4110 C   0  0  1  0  0  0
  -15.7550   18.2700   15.1520 C   0  0  0  0  0  0
  -16.0690   18.3090   16.6310 C   0  0  0  0  0  0
  -15.3360   17.3240   17.5320 C   0  0  0  0  0  0
  -15.3280   17.6590   19.0210 C   0  0  0  0  0  0
  -14.8990   16.6310   19.9790 N   0  3  0  0  0  0
  -17.4880   16.5200   14.5970 C   0  0  0  0  0  0
  -17.8010   15.7770   15.5190 O   0  0  0  0  0  0
  -13.5400   16.2240   19.6540 C   0  0  0  0  0  0
  -16.0200   15.7580   20.2120 C   0  0  0  0  0  0
  -14.7050   17.2020   21.3140 C   0  0  0  0  0  0
  -18.3570   16.9780   13.7020 N   0  0  0  0  0  0
  -19.7710   16.6320   13.7620 C   0  0  2  0  0  0
  -19.9900   15.1270   13.5610 C   0  0  0  0  0  0
  -21.0210   14.5840   13.9600 O   0  0  0  0  0  0
  -20.5570   17.4360   12.7280 C   0  0  0  0  0  0
  -22.0530   17.2970   12.8840 C   0  0  0  0  0  0
  -22.8070   18.4040   12.1920 C   0  0  0  0  0  0
  -23.1740   18.2850   11.0210 O   0  0  0  0  0  0
  -23.0390   19.5010   12.9130 N   0  0  0  0  0  0
  -19.0200   14.4600   12.9380 N   0  0  0  0  0  0
  -19.0420   13.0010   12.8130 C   0  0  2  0  0  0
  -17.8360   12.3740   13.5070 C   0  0  0  0  0  0
  -17.8410   12.1650   14.7180 O   0  0  0  0  0  0
  -19.0650   12.5470   11.3370 C   0  0  2  0  0  0
  -18.7410   11.1510   11.2630 O   0  0  0  0  0  0
  -18.0470   13.3200   10.5320 C   0  0  0  0  0  0
  -16.8201   12.0660   12.8282 O   0  5  0  0  0  0
  -14.1947   12.2214    4.3748 H   0  0  0  0  0  0
  -12.7288   12.8452    3.5450 H   0  0  0  0  0  0
  -13.9692   13.9903    4.1588 H   0  0  0  0  0  0
  -12.2597   12.1264    5.7182 H   0  0  0  0  0  0
  -11.0495   14.0973    4.7730 H   0  0  0  0  0  0
  -11.1429   14.1866    6.5646 H   0  0  0  0  0  0
  -12.2369   15.1937    5.5569 H   0  0  0  0  0  0
  -12.1678   12.5316    8.0071 H   0  0  0  0  0  0
  -15.0167   12.5830    8.9620 H   0  0  0  0  0  0
  -13.1516   10.9746    9.7178 H   0  0  0  0  0  0
  -12.4268   12.3597   10.6026 H   0  0  0  0  0  0
  -14.3434   12.4837   12.0541 H   0  0  0  0  0  0
  -15.1680   11.1851   11.1265 H   0  0  0  0  0  0
  -13.6261   10.6730   13.3153 H   0  0  0  0  0  0
  -13.7697    9.5262   11.9402 H   0  0  0  0  0  0
  -11.6228   10.6179   10.9455 H   0  0  0  0  0  0
  -12.4778   10.7955   14.4821 H   0  0  0  0  0  0
   -9.5082   10.9361   11.5038 H   0  0  0  0  0  0
   -9.0253   11.1193   13.3377 H   0  0  0  0  0  0
  -16.1235   14.1904    9.8570 H   0  0  0  0  0  0
  -14.3961   16.5379   10.6787 H   0  0  0  0  0  0
  -16.5268   17.9068   10.6012 H   0  0  0  0  0  0
  -18.1229   16.0935   11.2593 H   0  0  0  0  0  0
  -15.1558   17.5847    8.4904 H   0  0  0  0  0  0
  -16.9116   17.7266    8.1384 H   0  0  0  0  0  0
  -16.1192   16.1146    8.1194 H   0  0  0  0  0  0
  -15.2745   17.9004   12.5623 H   0  0  0  0  0  0
  -15.4167   16.1811   14.8326 H   0  0  0  0  0  0
  -14.6808   18.4926   15.0714 H   0  0  0  0  0  0
  -16.3342   19.0912   14.7046 H   0  0  0  0  0  0
  -15.8267   19.3046   17.0311 H   0  0  0  0  0  0
  -17.1385   18.1026   16.7844 H   0  0  0  0  0  0
  -15.8011   16.3310   17.4445 H   0  0  0  0  0  0
  -14.2810   17.2629   17.2267 H   0  0  0  0  0  0
  -14.6500   18.5060   19.2026 H   0  0  0  0  0  0
  -16.3452   17.9282   19.3418 H   0  0  0  0  0  0
  -13.5237   15.7656   18.6542 H   0  0  0  0  0  0
  -13.1881   15.4940   20.3979 H   0  0  0  0  0  0
  -12.8811   17.1048   19.6643 H   0  0  0  0  0  0
  -16.2875   15.2468   19.2755 H   0  0  0  0  0  0
  -16.8779   16.3491   20.5650 H   0  0  0  0  0  0
  -15.7510   15.0112   20.9735 H   0  0  0  0  0  0
  -13.8605   17.9066   21.2922 H   0  0  0  0  0  0
  -14.4910   16.3951   22.0303 H   0  0  0  0  0  0
  -15.6178   17.7330   21.6218 H   0  0  0  0  0  0
  -17.9848   17.6340   12.9013 H   0  0  0  0  0  0
  -20.0915   16.9102   14.7768 H   0  0  0  0  0  0
  -20.3088   18.5030   12.8273 H   0  0  0  0  0  0
  -20.2933   17.0908   11.7174 H   0  0  0  0  0  0
  -22.3795   16.3403   12.4503 H   0  0  0  0  0  0
  -22.3143   17.3235   13.9522 H   0  0  0  0  0  0
  -22.6907   19.5583   13.9548 H   0  0  0  0  0  0
  -23.5787   20.3489   12.4661 H   0  0  0  0  0  0
  -18.1860   15.0361   12.5108 H   0  0  0  0  0  0
  -19.9731   12.7089   13.3207 H   0  0  0  0  0  0
  -20.0664   12.6710   10.8990 H   0  0  0  0  0  0
  -19.3662   10.4128   11.7866 H   0  0  0  0  0  0
  -18.2815   14.3937   10.5785 H   0  0  0  0  0  0
  -18.0753   12.9835    9.4851 H   0  0  0  0  0  0
  -17.0430   13.1456   10.9462 H   0  0  0  0  0  0
  -10.6524   11.0422   14.9687 H   0  0  0  0  0  0
  1  2  1  0  0  0
  1 53  1  0  0  0
  1 54  1  0  0  0
  1 55  1  0  0  0
  2  3  1  0  0  0
  2  5  1  0  0  0
  2 56  1  0  0  0
  3  4  2  0  0  0
  3  6  1  0  0  0
  5 57  1  0  0  0
  5 58  1  0  0  0
  5 59  1  0  0  0
  6  7  1  0  0  0
  6 60  1  0  0  0
  7  8  1  0  0  0
  7 10  1  0  0  0
  7 61  1  0  0  0
  8  9  2  0  0  0
  8 17  1  0  0  0
 10 11  1  0  0  0
 10 62  1  0  0  0
 10 63  1  0  0  0
 11 12  1  0  0  0
 11 64  1  0  0  0
 11 65  1  0  0  0
 12 13  1  0  0  0
 12 66  1  0  0  0
 12 67  1  0  0  0
 13 14  1  0  0  0
 13 68  1  0  0  0
 14 15  2  0  0  0
 14 16  1  0  0  0
 15 69  1  0  0  0
 15113  1  0  0  0
 16 70  1  0  0  0
 16 71  1  0  0  0
 17 18  1  0  0  0
 17 72  1  0  0  0
 18 19  1  0  0  0
 18 21  1  0  0  0
 18 73  1  0  0  0
 19 20  2  0  0  0
 19 24  1  0  0  0
 21 22  1  0  0  0
 21 23  1  0  0  0
 21 74  1  0  0  0
 22 75  1  0  0  0
 23 76  1  0  0  0
 23 77  1  0  0  0
 23 78  1  0  0  0
 24 25  1  0  0  0
 24 79  1  0  0  0
 25 26  1  0  0  0
 25 31  1  0  0  0
 25 80  1  0  0  0
 26 27  1  0  0  0
 26 81  1  0  0  0
 26 82  1  0  0  0
 27 28  1  0  0  0
 27 83  1  0  0  0
 27 84  1  0  0  0
 28 29  1  0  0  0
 28 85  1  0  0  0
 28 86  1  0  0  0
 29 30  1  0  0  0
 29 87  1  0  0  0
 29 88  1  0  0  0
 30 33  1  0  0  0
 30 34  1  0  0  0
 30 35  1  0  0  0
 31 32  2  0  0  0
 31 36  1  0  0  0
 33 89  1  0  0  0
 33 90  1  0  0  0
 33 91  1  0  0  0
 34 92  1  0  0  0
 34 93  1  0  0  0
 34 94  1  0  0  0
 35 95  1  0  0  0
 35 96  1  0  0  0
 35 97  1  0  0  0
 36 37  1  0  0  0
 36 98  1  0  0  0
 37 38  1  0  0  0
 37 40  1  0  0  0
 37 99  1  0  0  0
 38 39  2  0  0  0
 38 45  1  0  0  0
 40 41  1  0  0  0
 40100  1  0  0  0
 40101  1  0  0  0
 41 42  1  0  0  0
 41102  1  0  0  0
 41103  1  0  0  0
 42 43  2  0  0  0
 42 44  1  0  0  0
 44104  1  0  0  0
 44105  1  0  0  0
 45 46  1  0  0  0
 45106  1  0  0  0
 46 47  1  0  0  0
 46 49  1  0  0  0
 46107  1  0  0  0
 47 48  2  0  0  0
 47 52  1  0  0  0
 49 50  1  0  0  0
 49 51  1  0  0  0
 49108  1  0  0  0
 50109  1  0  0  0
 51110  1  0  0  0
 51111  1  0  0  0
 51112  1  0  0  0
M  CHG  4   1   1  15   1  30   1  52  -1
M  END
> <s_m_source_file>
../3sow_ligand.sdf

> <i_m_source_file_index>
1

> <s_epik_input>
W0hdL049QyhbTkgyXSlcW05IXVtDSDJdW0NIMl1bQ0gyXVtDQEhdKFtOSF1DKD1PKVtDQEBIXShbTkgzK10pW0NIM10pQyg9TylbTkhdW0NAQEhdKFtDQEhdKFtPSF0pW0NIM10pQyg9TylbTkhdW0NAQEhdKFtDSDJdW0NIMl1bQ0gyXVtDSDJdW04rXShbQ0gzXSkoW0NIM10pW0NIM10pQyg9TylbTkhdW0NAQEhdKFtDSDJdW0NIMl1DKD1PKVtOSDJdKUMoPU8pW05IXVtDQEhdKEMoPU8pW09IXSlbQ0BIXShbT0hdKVtDSDNd

> <s_epik_cmdline>
J2VwaWtfYXBwJywgJy1pbWFlJywgJ2xpZ2FuZF9wcm8ubWFlJywgJy1vbWFlJywgJ2xpZ2FuZF9wcmVwLm1hZScsICctbXMnLCAnMScsICctcGgnLCAnNycsICctcGh0JywgJzAuNScsICctbnQn

> <r_epik_Ionization_Penalty>
  0.1252

> <r_epik_Ionization_Penalty_Charging>
  0.1252

> <r_epik_Ionization_Penalty_Neutral>
  0.0000

> <r_epik_State_Penalty>
  0.1145

> <r_epik_Charging_Adjusted_Penalty>
0.239736109172051

> <i_epik_Tot_Q>
2

> <i_epik_Tot_abs_Q>
4

> <s_epik_Chemistry_Notes>
This compound has an imine and may undergo hydrolysis.

$$$$
