3sqq_ligand
                    3D
 Schrodinger Suite 2020-3.
 42 44  0  0  1  0            999 V2000
  -95.7030   10.6110  -50.3950 N   0  0  0  0  0  0
  -97.0260   11.1690  -48.5350 N   0  0  0  0  0  0
  -94.0870    9.7070  -52.0970 N   0  0  0  0  0  0
  -99.9650    9.3320  -42.8290 N   0  0  0  0  0  0
  -94.1410    8.9760  -49.7020 C   0  0  0  0  0  0
  -94.5990    9.7570  -50.8010 C   0  0  0  0  0  0
  -95.9800   10.4200  -49.0610 C   0  0  0  0  0  0
  -97.8340   10.8440  -47.4320 C   0  0  0  0  0  0
  -93.0200    7.9930  -49.9040 C   0  0  0  0  0  0
  -92.6050    7.1520  -48.7390 C   0  0  0  0  0  0
  -91.2760    7.1740  -48.2250 C   0  0  0  0  0  0
  -90.9940    6.3470  -47.1150 C   0  0  0  0  0  0
  -91.9840    5.5300  -46.5360 C   0  0  0  0  0  0
  -93.3010    5.5000  -47.0460 C   0  0  0  0  0  0
  -93.6160    6.3230  -48.1630 C   0  0  0  0  0  0
  -97.6700    9.6530  -46.6900 C   0  0  0  0  0  0
  -98.5400    9.4330  -45.6220 C   0  0  0  0  0  0
  -99.5230   10.3940  -45.3440 C   0  0  0  0  0  0
  -99.6730   11.5760  -46.0820 C   0  0  0  0  0  0
  -98.8160   11.8100  -47.1420 C   0  0  0  0  0  0
  -90.1750    8.0560  -48.8280 C   0  0  0  0  0  0
  -92.4920    7.8800  -51.0250 O   0  0  0  0  0  0
 -100.9730   11.3310  -43.2960 O   0  0  0  0  0  0
 -101.4580    9.0060  -44.4850 O   0  0  0  0  0  0
  -94.9840    9.3050  -48.3360 S   0  0  0  0  0  0
 -100.6370   10.1240  -44.0380 S   0  0  0  0  0  0
  -97.2969   12.1322  -48.9919 H   0  0  0  0  0  0
  -94.5098   10.3528  -52.8807 H   0  0  0  0  0  0
  -93.2602    9.0218  -52.3357 H   0  0  0  0  0  0
 -100.7062    9.1856  -42.0295 H   0  0  0  0  0  0
  -99.1147    9.9107  -42.4391 H   0  0  0  0  0  0
  -89.9873    6.3412  -46.6972 H   0  0  0  0  0  0
  -91.7291    4.9086  -45.6775 H   0  0  0  0  0  0
  -94.0591    4.8605  -46.5938 H   0  0  0  0  0  0
  -94.6241    6.3210  -48.5774 H   0  0  0  0  0  0
  -96.8922    8.9324  -46.9428 H   0  0  0  0  0  0
  -98.4574    8.5314  -45.0151 H   0  0  0  0  0  0
 -100.4497   12.2965  -45.8256 H   0  0  0  0  0  0
  -98.8988   12.7191  -47.7376 H   0  0  0  0  0  0
  -90.5834    8.6227  -49.6777 H   0  0  0  0  0  0
  -89.3459    7.4217  -49.1748 H   0  0  0  0  0  0
  -89.8063    8.7560  -48.0638 H   0  0  0  0  0  0
  1  6  1  0  0  0
  1  7  2  0  0  0
  2  7  1  0  0  0
  2  8  1  0  0  0
  2 27  1  0  0  0
  3  6  1  0  0  0
  3 28  1  0  0  0
  3 29  1  0  0  0
  4 26  1  0  0  0
  4 30  1  0  0  0
  4 31  1  0  0  0
  5  6  2  0  0  0
  5  9  1  0  0  0
  5 25  1  0  0  0
  7 25  1  0  0  0
  8 16  2  0  0  0
  8 20  1  0  0  0
  9 10  1  0  0  0
  9 22  2  0  0  0
 10 11  2  0  0  0
 10 15  1  0  0  0
 11 12  1  0  0  0
 11 21  1  0  0  0
 12 13  2  0  0  0
 12 32  1  0  0  0
 13 14  1  0  0  0
 13 33  1  0  0  0
 14 15  2  0  0  0
 14 34  1  0  0  0
 15 35  1  0  0  0
 16 17  1  0  0  0
 16 36  1  0  0  0
 17 18  2  0  0  0
 17 37  1  0  0  0
 18 19  1  0  0  0
 18 26  1  0  0  0
 19 20  2  0  0  0
 19 38  1  0  0  0
 20 39  1  0  0  0
 21 40  1  0  0  0
 21 41  1  0  0  0
 21 42  1  0  0  0
 23 26  2  0  0  0
 24 26  2  0  0  0
M  END
> <s_m_source_file>
../3sqq_ligand.sdf

> <i_m_source_file_index>
1

> <s_epik_input>
W05IMl1TKD1PKSg9TyljKFtjSF1bY0hdMSlbY0hdW2NIXWMxW05IXWMoczIpbmMoW05IMl0pYzJDKD1PKWMzYyhbQ0gzXSlbY0hdW2NIXVtjSF1bY0hdMw==

> <s_epik_cmdline>
J2VwaWtfYXBwJywgJy1pbWFlJywgJ2xpZ2FuZF9wcm8ubWFlJywgJy1vbWFlJywgJ2xpZ2FuZF9wcmVwLm1hZScsICctbXMnLCAnMScsICctcGgnLCAnNycsICctcGh0JywgJzAuNScsICctbnQn

> <r_lp_tautomer_probability>
1

> <r_epik_Ionization_Penalty>
  0.0006

> <r_epik_Ionization_Penalty_Charging>
  0.0000

> <r_epik_Ionization_Penalty_Neutral>
  0.0006

> <r_epik_State_Penalty>
 -0.0000

> <r_epik_Charging_Adjusted_Penalty>
0

> <i_epik_Tot_Q>
0

> <i_epik_Tot_abs_Q>
0

$$$$
