3sr4_ligand
                    3D
 Schrodinger Suite 2020-3.
 49 51  0  0  1  0            999 V2000
   41.9410   53.5070    0.9770 C   0  0  0  0  0  0
   41.8210   51.1390    1.6040 N   0  3  0  0  0  0
   42.6880   53.1120    0.0640 O   0  0  0  0  0  0
   47.5070   43.5170    9.6100 C   0  0  0  0  0  0
   43.8450   43.6580    8.6140 N   0  0  0  0  0  0
   42.8050   44.4990    8.1900 C   0  0  0  0  0  0
   43.0890   45.8580    8.0330 N   0  0  0  0  0  0
   44.3460   46.3640    8.2820 C   0  0  0  0  0  0
   45.3930   45.5200    8.7080 C   0  0  0  0  0  0
   45.1330   44.1380    8.8760 C   0  0  0  0  0  0
   46.0760   43.2570    9.2760 N   0  0  0  0  0  0
   46.4920   46.2840    8.8670 N   0  0  0  0  0  0
   46.1950   47.5650    8.5630 C   0  0  0  0  0  0
   44.8630   47.6280    8.1970 N   0  0  0  0  0  0
   41.5150   52.5300    2.0760 C   0  0  1  0  0  0
   42.2020   52.8070    3.4450 C   0  0  0  0  0  0
   44.5390   53.0040    5.0270 S   0  0  0  0  0  0
   43.7410   52.6700    3.4400 C   0  0  0  0  0  0
   44.0960   48.8200    7.7710 C   0  0  1  0  0  0
   44.2880   50.0150    8.6790 C   0  0  2  0  0  0
   43.4780   49.9340    9.8240 O   0  0  0  0  0  0
   43.9240   51.1840    7.7670 C   0  0  2  0  0  0
   42.6310   51.7140    7.9980 O   0  0  0  0  0  0
   44.0840   50.6210    6.3560 C   0  0  2  0  0  0
   44.5190   49.2700    6.4920 O   0  0  0  0  0  0
   45.1310   51.3730    5.5460 C   0  0  0  0  0  0
   41.5690   54.6990    0.9840 O   0  5  0  0  0  0
   41.3274   50.9631    0.6368 H   0  0  0  0  0  0
   41.4514   50.4118    2.3420 H   0  0  0  0  0  0
   42.9085   51.0224    1.4872 H   0  0  0  0  0  0
   47.9931   42.5737    9.8998 H   0  0  0  0  0  0
   47.5648   44.2309   10.4449 H   0  0  0  0  0  0
   48.0179   43.9380    8.7315 H   0  0  0  0  0  0
   41.8085   44.1052    7.9897 H   0  0  0  0  0  0
   45.6721   42.2361    9.3437 H   0  0  0  0  0  0
   46.8870   48.4063    8.5997 H   0  0  0  0  0  0
   40.4309   52.6347    2.2303 H   0  0  0  0  0  0
   41.9773   53.8346    3.7667 H   0  0  0  0  0  0
   41.8240   52.0970    4.1953 H   0  0  0  0  0  0
   44.0168   51.6434    3.1572 H   0  0  0  0  0  0
   44.1698   53.3777    2.7152 H   0  0  0  0  0  0
   43.0515   48.4776    7.7294 H   0  0  0  0  0  0
   45.2717   50.0921    9.1651 H   0  0  0  0  0  0
   43.6431   49.1323   10.5589 H   0  0  0  0  0  0
   44.5066   52.0947    7.9700 H   0  0  0  0  0  0
   42.3827   52.1518    8.9761 H   0  0  0  0  0  0
   43.1235   50.6472    5.8205 H   0  0  0  0  0  0
   45.3764   50.7723    4.6578 H   0  0  0  0  0  0
   46.0299   51.4904    6.1691 H   0  0  0  0  0  0
  1  3  2  0  0  0
  1 15  1  0  0  0
  1 27  1  0  0  0
  2 15  1  0  0  0
  2 28  1  0  0  0
  2 29  1  0  0  0
  2 30  1  0  0  0
  4 11  1  0  0  0
  4 31  1  0  0  0
  4 32  1  0  0  0
  4 33  1  0  0  0
  5  6  1  0  0  0
  5 10  2  0  0  0
  6  7  2  0  0  0
  6 34  1  0  0  0
  7  8  1  0  0  0
  8  9  2  0  0  0
  8 14  1  0  0  0
  9 10  1  0  0  0
  9 12  1  0  0  0
 10 11  1  0  0  0
 11 35  1  0  0  0
 12 13  2  0  0  0
 13 14  1  0  0  0
 13 36  1  0  0  0
 14 19  1  0  0  0
 15 16  1  0  0  0
 15 37  1  0  0  0
 16 18  1  0  0  0
 16 38  1  0  0  0
 16 39  1  0  0  0
 17 18  1  0  0  0
 17 26  1  0  0  0
 18 40  1  0  0  0
 18 41  1  0  0  0
 19 20  1  0  0  0
 19 25  1  0  0  0
 19 42  1  0  0  0
 20 21  1  0  0  0
 20 22  1  0  0  0
 20 43  1  0  0  0
 21 44  1  0  0  0
 22 23  1  0  0  0
 22 24  1  0  0  0
 22 45  1  0  0  0
 23 46  1  0  0  0
 24 25  1  0  0  0
 24 26  1  0  0  0
 24 47  1  0  0  0
 26 48  1  0  0  0
 26 49  1  0  0  0
M  CHG  2   2   1  27  -1
M  END
> <s_m_source_file>
../3sr4_ligand.sdf

> <i_m_source_file_index>
1

> <s_epik_input>
Tz1DKFtPSF0pW0NAQEhdKFtOSDMrXSlbQ0gyXVtDSDJdU1tDSDJdW0NAQEhdKE8xKVtDQEBIXShbT0hdKVtDQEBIXShbT0hdKVtDQEBIXTFuMltjSF1uYyhjMjMpYyhuW2NIXW4zKVtOSF1bQ0gzXQ==

> <s_epik_cmdline>
J2VwaWtfYXBwJywgJy1pbWFlJywgJ2xpZ2FuZF9wcm8ubWFlJywgJy1vbWFlJywgJ2xpZ2FuZF9wcmVwLm1hZScsICctbXMnLCAnMScsICctcGgnLCAnNycsICctcGh0JywgJzAuNScsICctbnQn

> <r_lp_tautomer_probability>
1

> <r_epik_Ionization_Penalty>
  0.0028

> <r_epik_Ionization_Penalty_Charging>
  0.0022

> <r_epik_Ionization_Penalty_Neutral>
  0.0007

> <r_epik_State_Penalty>
 -0.0000

> <r_epik_Charging_Adjusted_Penalty>
0.00216156469931729

> <i_epik_Tot_Q>
0

> <i_epik_Tot_abs_Q>
2

> <s_epik_Chemistry_Notes>
This compound contains an acetal/aminal-like group ( X-CH(R)-Y where X, Y are N, S, or O) that may be acid/base labile, releasing an aldehyde.

$$$$
