3srg_ligand
                    3D
 Schrodinger Suite 2020-3.
 18 19  0  0  1  0            999 V2000
   -5.2940  -23.4870   29.3260 O   0  0  0  0  0  0
   -6.8670  -21.9580   28.7200 N   0  0  0  0  0  0
   -7.7100  -20.9320   28.9720 C   0  0  0  0  0  0
   -8.4900  -20.3990   27.9500 C   0  0  0  0  0  0
   -9.3660  -19.3280   28.2060 C   0  0  0  0  0  0
   -9.4950  -18.8220   29.5090 C   0  0  0  0  0  0
   -8.7250  -19.3730   30.5430 C   0  0  0  0  0  0
   -7.8190  -20.4190   30.2880 C   0  0  0  0  0  0
   -7.0170  -20.9890   31.3150 C   0  0  0  0  0  0
   -6.1650  -22.0720   31.0040 C   0  0  0  0  0  0
   -6.1180  -22.5180   29.6840 C   0  0  0  0  0  0
   -6.7788  -22.3595   27.6997 H   0  0  0  0  0  0
   -8.4218  -20.8140   26.9444 H   0  0  0  0  0  0
   -9.9447  -18.8911   27.3922 H   0  0  0  0  0  0
  -10.1886  -18.0069   29.7153 H   0  0  0  0  0  0
   -8.8295  -18.9864   31.5568 H   0  0  0  0  0  0
   -7.0593  -20.5947   32.3303 H   0  0  0  0  0  0
   -5.5598  -22.5468   31.7763 H   0  0  0  0  0  0
  1 11  2  0  0  0
  2  3  1  0  0  0
  2 11  1  0  0  0
  2 12  1  0  0  0
  3  4  2  0  0  0
  3  8  1  0  0  0
  4  5  1  0  0  0
  4 13  1  0  0  0
  5  6  2  0  0  0
  5 14  1  0  0  0
  6  7  1  0  0  0
  6 15  1  0  0  0
  7  8  2  0  0  0
  7 16  1  0  0  0
  8  9  1  0  0  0
  9 10  2  0  0  0
  9 17  1  0  0  0
 10 11  1  0  0  0
 10 18  1  0  0  0
M  END
> <s_m_source_file>
../3srg_ligand.sdf

> <i_m_source_file_index>
1

> <s_epik_input>
Tz1jKFtuSF0xKVtjSF1bY0hdYyhjMTIpW2NIXVtjSF1bY0hdW2NIXTI=

> <s_epik_cmdline>
J2VwaWtfYXBwJywgJy1pbWFlJywgJ2xpZ2FuZF9wcm8ubWFlJywgJy1vbWFlJywgJ2xpZ2FuZF9wcmVwLm1hZScsICctbXMnLCAnMScsICctcGgnLCAnNycsICctcGh0JywgJzAuNScsICctbnQn

> <r_lp_tautomer_probability>
1

> <r_epik_Ionization_Penalty>
  0.0000

> <r_epik_Ionization_Penalty_Charging>
  0.0000

> <r_epik_Ionization_Penalty_Neutral>
  0.0000

> <r_epik_State_Penalty>
 -0.0000

> <r_epik_Charging_Adjusted_Penalty>
4.84762555007819e-05

> <i_epik_Tot_Q>
0

> <i_epik_Tot_abs_Q>
0

$$$$
