3stj_ligand
                    3D
 Schrodinger Suite 2020-3.
 53 52  0  0  1  0            999 V2000
  -46.6580   88.8420  -25.3080 N   0  3  0  0  0  0
  -45.8130   89.8950  -24.7440 C   0  0  2  0  0  0
  -44.3490   89.4210  -24.5050 C   0  0  0  0  0  0
  -44.0950   88.2140  -24.3860 O   0  0  0  0  0  0
  -46.4150   90.4040  -23.4390 C   0  0  0  0  0  0
  -43.3990   90.3890  -24.4260 N   0  0  0  0  0  0
  -41.9730   90.1400  -24.2010 C   0  0  2  0  0  0
  -41.6820   89.8110  -22.7420 C   0  0  0  0  0  0
  -41.9910   90.6040  -21.8450 O   0  0  0  0  0  0
  -41.1440   91.3460  -24.6280 C   0  0  0  0  0  0
  -41.0750   88.6430  -22.5130 N   0  0  0  0  0  0
  -40.6890   88.2140  -21.1750 C   0  0  2  0  0  0
  -39.2010   88.4730  -20.9600 C   0  0  0  0  0  0
  -38.4300   88.4450  -21.9210 O   0  0  0  0  0  0
  -41.0110   86.7360  -20.9800 C   0  0  0  0  0  0
  -38.8030   88.7400  -19.7070 N   0  0  0  0  0  0
  -37.4040   88.9610  -19.3680 C   0  0  2  0  0  0
  -36.6480   87.6200  -19.2770 C   0  0  0  0  0  0
  -37.1810   86.6330  -18.7650 O   0  0  0  0  0  0
  -37.2870   89.7280  -18.0600 C   0  0  0  0  0  0
  -35.4230   87.5900  -19.8140 N   0  0  0  0  0  0
  -34.5170   86.4410  -19.8090 C   0  0  2  0  0  0
  -33.1040   86.9180  -19.5140 C   0  0  0  0  0  0
  -32.3120   86.1138  -18.9539 O   0  5  0  0  0  0
  -34.5600   85.6990  -21.1430 C   0  0  0  0  0  0
  -32.7357   88.0833  -19.8206 O   0  0  0  0  0  0
  -46.2158   88.4814  -26.2485 H   0  0  0  0  0  0
  -47.6625   89.2445  -25.5056 H   0  0  0  0  0  0
  -46.7309   88.0085  -24.5939 H   0  0  0  0  0  0
  -45.8262   90.6874  -25.5068 H   0  0  0  0  0  0
  -47.4483   90.7365  -23.6170 H   0  0  0  0  0  0
  -45.8176   91.2482  -23.0643 H   0  0  0  0  0  0
  -46.4134   89.5945  -22.6942 H   0  0  0  0  0  0
  -43.7654   91.4194  -24.5442 H   0  0  0  0  0  0
  -41.7357   89.2670  -24.8267 H   0  0  0  0  0  0
  -41.3555   91.5819  -25.6814 H   0  0  0  0  0  0
  -40.0747   91.1158  -24.5113 H   0  0  0  0  0  0
  -41.4037   92.2105  -23.9994 H   0  0  0  0  0  0
  -40.8682   87.9968  -23.3788 H   0  0  0  0  0  0
  -41.2820   88.8146  -20.4695 H   0  0  0  0  0  0
  -42.0868   86.5710  -21.1392 H   0  0  0  0  0  0
  -40.7411   86.4338  -19.9574 H   0  0  0  0  0  0
  -40.4373   86.1373  -21.7028 H   0  0  0  0  0  0
  -39.5733   88.7896  -18.9233 H   0  0  0  0  0  0
  -36.9981   89.5744  -20.1859 H   0  0  0  0  0  0
  -37.8314   90.6802  -18.1434 H   0  0  0  0  0  0
  -36.2268   89.9292  -17.8465 H   0  0  0  0  0  0
  -37.7182   89.1293  -17.2441 H   0  0  0  0  0  0
  -35.1132   88.5326  -20.2889 H   0  0  0  0  0  0
  -34.8703   85.7678  -19.0140 H   0  0  0  0  0  0
  -35.5877   85.3609  -21.3415 H   0  0  0  0  0  0
  -33.8893   84.8282  -21.0999 H   0  0  0  0  0  0
  -34.2339   86.3735  -21.9484 H   0  0  0  0  0  0
  1  2  1  0  0  0
  1 27  1  0  0  0
  1 28  1  0  0  0
  1 29  1  0  0  0
  2  3  1  0  0  0
  2  5  1  0  0  0
  2 30  1  0  0  0
  3  4  2  0  0  0
  3  6  1  0  0  0
  5 31  1  0  0  0
  5 32  1  0  0  0
  5 33  1  0  0  0
  6  7  1  0  0  0
  6 34  1  0  0  0
  7  8  1  0  0  0
  7 10  1  0  0  0
  7 35  1  0  0  0
  8  9  2  0  0  0
  8 11  1  0  0  0
 10 36  1  0  0  0
 10 37  1  0  0  0
 10 38  1  0  0  0
 11 12  1  0  0  0
 11 39  1  0  0  0
 12 13  1  0  0  0
 12 15  1  0  0  0
 12 40  1  0  0  0
 13 14  2  0  0  0
 13 16  1  0  0  0
 15 41  1  0  0  0
 15 42  1  0  0  0
 15 43  1  0  0  0
 16 17  1  0  0  0
 16 44  1  0  0  0
 17 18  1  0  0  0
 17 20  1  0  0  0
 17 45  1  0  0  0
 18 19  2  0  0  0
 18 21  1  0  0  0
 20 46  1  0  0  0
 20 47  1  0  0  0
 20 48  1  0  0  0
 21 22  1  0  0  0
 21 49  1  0  0  0
 22 23  1  0  0  0
 22 25  1  0  0  0
 22 50  1  0  0  0
 23 24  1  0  0  0
 23 26  2  0  0  0
 25 51  1  0  0  0
 25 52  1  0  0  0
 25 53  1  0  0  0
M  CHG  2   1   1  24  -1
M  END
> <s_m_source_file>
../3stj_ligand.sdf

> <i_m_source_file_index>
1

> <s_epik_input>
W05IMytdW0NAQEhdKFtDSDNdKUMoPU8pW05IXVtDQEBIXShbQ0gzXSlDKD1PKVtOSF1bQ0BASF0oW0NIM10pQyg9TylbTkhdW0NAQEhdKFtDSDNdKUMoPU8pW05IXVtDQEBIXShbQ0gzXSlDKD1PKVtPSF0=

> <s_epik_cmdline>
J2VwaWtfYXBwJywgJy1pbWFlJywgJ2xpZ2FuZF9wcm8ubWFlJywgJy1vbWFlJywgJ2xpZ2FuZF9wcmVwLm1hZScsICctbXMnLCAnMScsICctcGgnLCAnNycsICctcGh0JywgJzAuNScsICctbnQn

> <r_epik_Ionization_Penalty>
  0.1241

> <r_epik_Ionization_Penalty_Charging>
  0.1241

> <r_epik_Ionization_Penalty_Neutral>
  0.0000

> <r_epik_State_Penalty>
  0.1134

> <r_epik_Charging_Adjusted_Penalty>
0.237502898569041

> <i_epik_Tot_Q>
0

> <i_epik_Tot_abs_Q>
2

$$$$
