3str_ligand
                    3D
 Schrodinger Suite 2020-3.
 77 81  0  0  1  0            999 V2000
   27.2360  -12.8080    9.5350 C   0  0  0  0  0  0
   25.8260  -12.5320    9.5980 N   0  0  0  0  0  0
   25.1710  -12.1040    8.4800 C   0  0  0  0  0  0
   25.6580  -11.9330    7.3720 O   0  0  0  0  0  0
   23.7500  -11.8630    8.6930 C   0  0  0  0  0  0
   22.8800  -12.9130    8.5250 C   0  0  0  0  0  0
   21.5410  -12.6890    8.7220 C   0  0  0  0  0  0
   21.1000  -11.4380    9.0820 C   0  0  0  0  0  0
   21.9870  -10.3980    9.2420 C   0  0  0  0  0  0
   21.4810   -9.0550    9.6330 C   0  0  0  0  0  0
   23.3300  -10.6040    9.0440 C   0  0  0  0  0  0
   24.2500   -9.5650    9.2130 N   0  0  0  0  0  0
   24.3350   -8.4930    8.3220 C   0  0  0  0  0  0
   25.2440   -7.5480    8.5800 N   0  0  0  0  0  0
   25.3030   -6.5330    7.7120 C   0  0  0  0  0  0
   24.5100   -6.4590    6.6460 N   0  0  0  0  0  0
   23.6250   -7.4440    6.4620 C   0  0  0  0  0  0
   23.5080   -8.4870    7.2810 N   0  0  0  0  0  0
   22.7870   -7.4030    5.3380 N   0  0  0  0  0  0
   21.6050   -8.2240    5.4430 C   0  0  0  0  0  0
   21.0690   -8.4000    4.0390 C   0  0  0  0  0  0
   20.8710   -7.0920    3.4390 N   0  0  0  0  0  0
   22.0690   -6.2810    3.3660 C   0  0  0  0  0  0
   22.5970   -6.0840    4.7740 C   0  0  0  0  0  0
   20.3020   -7.2590    2.1660 C   0  0  0  0  0  0
   20.6040   -8.3610    1.4010 C   0  0  0  0  0  0
   20.0410   -8.5240    0.1570 C   0  0  0  0  0  0
   19.1620   -7.5890   -0.3340 C   0  0  0  0  0  0
   18.8490   -6.4880    0.4230 C   0  0  0  0  0  0
   19.4220   -6.3330    1.6620 C   0  0  0  0  0  0
   19.0160   -4.9490    2.5940 Cl  0  0  0  0  0  0
   26.2500   -5.5100    7.9230 N   0  0  0  0  0  0
   26.6120   -5.4410    9.3240 C   0  0  0  0  0  0
   26.3900   -3.7440    9.9060 S   0  0  0  0  0  0
   26.3250   -3.1050    8.2140 C   0  0  0  0  0  0
   25.7640   -4.2440    7.3790 C   0  0  1  0  0  0
   26.2760   -4.0570    5.9830 C   0  0  0  0  0  0
   25.6570   -3.4030    5.1590 O   0  0  0  0  0  0
   27.4800   -4.6640    5.7280 N   0  0  0  0  0  0
   28.0630   -4.4310    4.4280 C   0  0  0  0  0  0
   29.3640   -3.7290    4.6520 C   0  0  0  0  0  0
   30.4300   -4.3200    4.7120 O   0  0  0  0  0  0
   29.2430   -2.3720    4.7880 N   0  0  0  0  0  0
   30.5010   -1.8280    5.1470 O   0  0  0  0  0  0
   27.5892  -13.1393   10.5226 H   0  0  0  0  0  0
   27.7753  -11.8959    9.2397 H   0  0  0  0  0  0
   27.4219  -13.5999    8.7945 H   0  0  0  0  0  0
   25.2810  -12.6662   10.5440 H   0  0  0  0  0  0
   23.2449  -13.9003    8.2420 H   0  0  0  0  0  0
   20.8272  -13.5026    8.5931 H   0  0  0  0  0  0
   20.0354  -11.2676    9.2426 H   0  0  0  0  0  0
   20.3872   -9.0930    9.7428 H   0  0  0  0  0  0
   21.7463   -8.3228    8.8562 H   0  0  0  0  0  0
   21.9354   -8.7561   10.5892 H   0  0  0  0  0  0
   24.9387   -9.5743   10.0707 H   0  0  0  0  0  0
   21.8716   -9.1958    5.8839 H   0  0  0  0  0  0
   20.8652   -7.7214    6.0834 H   0  0  0  0  0  0
   21.7901   -8.9764    3.4408 H   0  0  0  0  0  0
   20.1107   -8.9387    4.0772 H   0  0  0  0  0  0
   22.8218   -6.7936    2.7491 H   0  0  0  0  0  0
   21.8260   -5.3078    2.9146 H   0  0  0  0  0  0
   21.8754   -5.5237    5.3867 H   0  0  0  0  0  0
   23.5583   -5.5496    4.7592 H   0  0  0  0  0  0
   21.2954   -9.1116    1.7838 H   0  0  0  0  0  0
   20.2932   -9.3989   -0.4422 H   0  0  0  0  0  0
   18.7157   -7.7211   -1.3196 H   0  0  0  0  0  0
   18.1507   -5.7418    0.0440 H   0  0  0  0  0  0
   25.9678   -6.1191    9.9030 H   0  0  0  0  0  0
   27.6633   -5.7406    9.4463 H   0  0  0  0  0  0
   25.6724   -2.2201    8.1811 H   0  0  0  0  0  0
   27.3379   -2.8258    7.8883 H   0  0  0  0  0  0
   24.6649   -4.2863    7.3910 H   0  0  0  0  0  0
   28.0000   -5.3022    6.4576 H   0  0  0  0  0  0
   28.2230   -5.3935    3.9201 H   0  0  0  0  0  0
   27.3835   -3.8082    3.8277 H   0  0  0  0  0  0
   28.3726   -1.7107    4.6652 H   0  0  0  0  0  0
   30.6073   -0.7443    5.3029 H   0  0  0  0  0  0
  1  2  1  0  0  0
  1 45  1  0  0  0
  1 46  1  0  0  0
  1 47  1  0  0  0
  2  3  1  0  0  0
  2 48  1  0  0  0
  3  4  2  0  0  0
  3  5  1  0  0  0
  5  6  2  0  0  0
  5 11  1  0  0  0
  6  7  1  0  0  0
  6 49  1  0  0  0
  7  8  2  0  0  0
  7 50  1  0  0  0
  8  9  1  0  0  0
  8 51  1  0  0  0
  9 10  1  0  0  0
  9 11  2  0  0  0
 10 52  1  0  0  0
 10 53  1  0  0  0
 10 54  1  0  0  0
 11 12  1  0  0  0
 12 13  1  0  0  0
 12 55  1  0  0  0
 13 14  2  0  0  0
 13 18  1  0  0  0
 14 15  1  0  0  0
 15 16  2  0  0  0
 15 32  1  0  0  0
 16 17  1  0  0  0
 17 18  2  0  0  0
 17 19  1  0  0  0
 19 20  1  0  0  0
 19 24  1  0  0  0
 20 21  1  0  0  0
 20 56  1  0  0  0
 20 57  1  0  0  0
 21 22  1  0  0  0
 21 58  1  0  0  0
 21 59  1  0  0  0
 22 23  1  0  0  0
 22 25  1  0  0  0
 23 24  1  0  0  0
 23 60  1  0  0  0
 23 61  1  0  0  0
 24 62  1  0  0  0
 24 63  1  0  0  0
 25 26  2  0  0  0
 25 30  1  0  0  0
 26 27  1  0  0  0
 26 64  1  0  0  0
 27 28  2  0  0  0
 27 65  1  0  0  0
 28 29  1  0  0  0
 28 66  1  0  0  0
 29 30  2  0  0  0
 29 67  1  0  0  0
 30 31  1  0  0  0
 32 33  1  0  0  0
 32 36  1  0  0  0
 33 34  1  0  0  0
 33 68  1  0  0  0
 33 69  1  0  0  0
 34 35  1  0  0  0
 35 36  1  0  0  0
 35 70  1  0  0  0
 35 71  1  0  0  0
 36 37  1  0  0  0
 36 72  1  0  0  0
 37 38  2  0  0  0
 37 39  1  0  0  0
 39 40  1  0  0  0
 39 73  1  0  0  0
 40 41  1  0  0  0
 40 74  1  0  0  0
 40 75  1  0  0  0
 41 42  2  0  0  0
 41 43  1  0  0  0
 43 44  1  0  0  0
 43 76  1  0  0  0
 44 77  1  0  0  0
M  END
> <s_m_source_file>
../3str_ligand.sdf

> <i_m_source_file_index>
1

> <s_epik_input>
W0NIM11bTkhdQyg9TyljMVtjSF1bY0hdW2NIXWMoW0NIM10pYzFbTkhdYzJuYyhOM1tDSDJdU1tDSDJdW0NASF0zQyg9TylbTkhdW0NIMl1DKD1PKVtOSF1bT0hdKW5jKG4yKU40W0NIMl1bQ0gyXU4oW0NIMl1bQ0gyXTQpYzVbY0hdW2NIXVtjSF1bY0hdYzVDbA==

> <s_epik_cmdline>
J2VwaWtfYXBwJywgJy1pbWFlJywgJ2xpZ2FuZF9wcm8ubWFlJywgJy1vbWFlJywgJ2xpZ2FuZF9wcmVwLm1hZScsICctbXMnLCAnMScsICctcGgnLCAnNycsICctcGh0JywgJzAuNScsICctbnQn

> <r_lp_tautomer_probability>
1

> <r_epik_Ionization_Penalty>
  0.0698

> <r_epik_Ionization_Penalty_Charging>
  0.0000

> <r_epik_Ionization_Penalty_Neutral>
  0.0698

> <r_epik_State_Penalty>
 -0.0000

> <r_epik_Charging_Adjusted_Penalty>
0

> <i_epik_Tot_Q>
0

> <i_epik_Tot_abs_Q>
0

> <s_epik_Chemistry_Notes>
This compound contains an acetal/aminal-like group ( X-CH(R)-Y where X, Y are N, S, or O) that may be acid/base labile, releasing an aldehyde. This compound has a N-S or N-O group and may undergo hydrolysis at high or low pH.

$$$$
