3su4_ligand
                    3D
 Schrodinger Suite 2020-3.
105110  0  0  1  0            999 V2000
   37.7570   -0.3560    3.9760 C   0  0  0  0  0  0
   39.6980   -1.2750    5.0960 N   0  0  0  0  0  0
   37.9380   -0.9490    2.9150 O   0  0  0  0  0  0
   38.9260   -0.0270    4.9060 C   0  0  1  0  0  0
   39.9090    0.9630    4.2970 C   0  0  0  0  0  0
   41.2380    0.5210    4.8800 C   0  0  2  0  0  0
   39.2540   -2.4980    5.4480 C   0  0  0  0  0  0
   38.0430   -2.6120    5.6780 O   0  0  0  0  0  0
   40.1770   -3.7260    5.6260 C   0  0  1  0  0  0
   39.7950   -4.3900    6.8790 N   0  0  0  0  0  0
   40.4480   -4.2010    8.0150 C   0  0  0  0  0  0
   39.9660   -4.8910    9.0860 O   0  0  0  0  0  0
   40.0660   -4.7130    4.4330 C   0  0  0  0  0  0
   41.4380   -3.4710    8.1200 O   0  0  0  0  0  0
   41.6720    2.0630    6.5820 C   0  0  0  0  0  0
   41.9590    2.9110    5.7390 O   0  0  0  0  0  0
   41.6830    2.4520    7.8260 N   0  0  0  0  0  0
   34.1770   -2.4950    2.6780 C   0  0  0  0  0  0
   35.1490   -3.1580    1.7020 C   0  0  0  0  0  0
   38.6110   -5.1260    4.2050 C   0  0  0  0  0  0
   36.5490   -0.0160    4.4310 N   0  0  0  0  0  0
   35.3230   -0.3710    3.7110 C   0  0  1  0  0  0
   35.0470    0.3980    2.4040 C   0  0  0  0  0  0
   34.9110   -1.8360    3.8450 C   0  0  1  0  0  0
   34.1220   -0.7460    4.5700 C   0  0  0  0  0  0
   41.9760    3.7880    8.3730 C   0  0  0  0  0  0
   41.8210    3.6520    9.8630 C   0  0  0  0  0  0
   41.4910    2.3300   10.1630 C   0  0  0  0  0  0
   41.3930    1.4980    8.8900 C   0  0  0  0  0  0
   41.9520    4.5900   10.8820 C   0  0  0  0  0  0
   41.7380    4.1860   12.1840 C   0  0  0  0  0  0
   41.4160    2.8560   12.4860 C   0  0  0  0  0  0
   41.2780    1.9150   11.4710 C   0  0  0  0  0  0
   40.9460    0.4910   11.8710 C   0  0  0  0  0  0
   35.8410    1.4370    2.1500 N   0  0  0  0  0  0
   34.1160    0.0580    1.6700 O   0  5  0  0  0  0
   35.5350    2.2460    0.7700 S   0  0  0  0  0  0
   36.7810    3.5550    0.6790 C   0  0  0  0  0  0
   35.6720    1.3470   -0.4130 O   0  0  0  0  0  0
   34.1890    2.8910    0.7930 O   0  0  0  0  0  0
   36.4480    4.6580   -0.3010 C   0  0  0  0  0  0
   36.2590    4.8870    1.2080 C   0  0  0  0  0  0
   39.5330    0.0340   11.5140 C   0  0  0  0  0  0
   39.3260   -1.4170   11.9600 C   0  0  0  0  0  0
   39.8800   -2.4180   10.9220 C   0  0  0  0  0  0
   39.7790   -3.8930   11.3620 C   0  0  0  0  0  0
   40.6020   -4.6780   10.3650 C   0  0  0  0  0  0
   40.4300   -4.1080   12.7380 C   0  0  0  0  0  0
   38.3030   -4.3770   11.3840 C   0  0  0  0  0  0
   40.6070   -4.0270    3.1660 C   0  0  0  0  0  0
   40.8530   -5.9750    4.6970 C   0  0  0  0  0  0
   41.1110   -0.9860    4.8150 C   0  0  0  0  0  0
   41.3610    0.7700    6.2830 O   0  0  0  0  0  0
   38.5190    0.3807    5.8430 H   0  0  0  0  0  0
   39.8791    0.8819    3.2004 H   0  0  0  0  0  0
   39.6334    1.9849    4.5967 H   0  0  0  0  0  0
   42.0828    1.0381    4.4015 H   0  0  0  0  0  0
   41.2276   -3.4121    5.7136 H   0  0  0  0  0  0
   38.9353   -5.0760    6.8980 H   0  0  0  0  0  0
   33.5989   -1.7216    2.1511 H   0  0  0  0  0  0
   33.4908   -3.2529    3.0838 H   0  0  0  0  0  0
   34.5841   -3.6196    0.8787 H   0  0  0  0  0  0
   35.7271   -3.9314    2.2289 H   0  0  0  0  0  0
   35.8351   -2.4000    1.2962 H   0  0  0  0  0  0
   38.0023   -4.2311    4.0085 H   0  0  0  0  0  0
   38.2307   -5.6387    5.1009 H   0  0  0  0  0  0
   38.5537   -5.8053    3.3417 H   0  0  0  0  0  0
   36.4895    0.5464    5.3745 H   0  0  0  0  0  0
   35.4490   -2.7541    4.1239 H   0  0  0  0  0  0
   34.2971   -0.4220    5.6065 H   0  0  0  0  0  0
   33.2217   -0.2502    4.1780 H   0  0  0  0  0  0
   42.2475    4.6848    7.8162 H   0  0  0  0  0  0
   41.1604    0.4372    8.7966 H   0  0  0  0  0  0
   42.2182    5.6227   10.6566 H   0  0  0  0  0  0
   41.8208    4.9137   12.9912 H   0  0  0  0  0  0
   41.2726    2.5566   13.5242 H   0  0  0  0  0  0
   41.6377   -0.2016   11.3691 H   0  0  0  0  0  0
   41.0463    0.3835   12.9611 H   0  0  0  0  0  0
   37.7397    3.0412    0.8433 H   0  0  0  0  0  0
   37.3489    4.9245   -0.8731 H   0  0  0  0  0  0
   35.6647    4.3113   -0.9911 H   0  0  0  0  0  0
   35.3231    4.7203    1.7614 H   0  0  0  0  0  0
   37.0073    5.3335    1.8793 H   0  0  0  0  0  0
   38.8000    0.6778   12.0222 H   0  0  0  0  0  0
   39.3893    0.1030   10.4256 H   0  0  0  0  0  0
   39.8459   -1.5848   12.9147 H   0  0  0  0  0  0
   38.2510   -1.6112   12.0889 H   0  0  0  0  0  0
   39.3183   -2.3193    9.9814 H   0  0  0  0  0  0
   40.9434   -2.2048   10.7382 H   0  0  0  0  0  0
   40.8216   -5.6496   10.8316 H   0  0  0  0  0  0
   41.5392   -4.1207   10.2202 H   0  0  0  0  0  0
   41.4735   -3.7614   12.7081 H   0  0  0  0  0  0
   40.4062   -5.1781   12.9917 H   0  0  0  0  0  0
   39.8761   -3.5384   13.4987 H   0  0  0  0  0  0
   37.8500   -4.2174   10.3944 H   0  0  0  0  0  0
   37.7419   -3.8083   12.1401 H   0  0  0  0  0  0
   38.2720   -5.4480   11.6331 H   0  0  0  0  0  0
   40.0340   -3.1080    2.9736 H   0  0  0  0  0  0
   40.5059   -4.7085    2.3085 H   0  0  0  0  0  0
   41.6678   -3.7743    3.3104 H   0  0  0  0  0  0
   40.4665   -6.4655    5.6026 H   0  0  0  0  0  0
   41.9138   -5.7221    4.8413 H   0  0  0  0  0  0
   40.7518   -6.6563    3.8394 H   0  0  0  0  0  0
   41.7427   -1.4748    5.5713 H   0  0  0  0  0  0
   41.3720   -1.3679    3.8170 H   0  0  0  0  0  0
  1  3  2  0  0  0
  1  4  1  0  0  0
  1 21  1  0  0  0
  2  4  1  0  0  0
  2  7  1  0  0  0
  2 52  1  0  0  0
  4  5  1  0  0  0
  4 54  1  0  0  0
  5  6  1  0  0  0
  5 55  1  0  0  0
  5 56  1  0  0  0
  6 52  1  0  0  0
  6 53  1  0  0  0
  6 57  1  0  0  0
  7  8  2  0  0  0
  7  9  1  0  0  0
  9 10  1  0  0  0
  9 13  1  0  0  0
  9 58  1  0  0  0
 10 11  1  0  0  0
 10 59  1  0  0  0
 11 12  1  0  0  0
 11 14  2  0  0  0
 12 47  1  0  0  0
 13 20  1  0  0  0
 13 50  1  0  0  0
 13 51  1  0  0  0
 15 16  2  0  0  0
 15 17  1  0  0  0
 15 53  1  0  0  0
 17 26  1  0  0  0
 17 29  1  0  0  0
 18 19  1  0  0  0
 18 24  1  0  0  0
 18 60  1  0  0  0
 18 61  1  0  0  0
 19 62  1  0  0  0
 19 63  1  0  0  0
 19 64  1  0  0  0
 20 65  1  0  0  0
 20 66  1  0  0  0
 20 67  1  0  0  0
 21 22  1  0  0  0
 21 68  1  0  0  0
 22 23  1  0  0  0
 22 24  1  0  0  0
 22 25  1  0  0  0
 23 35  2  0  0  0
 23 36  1  0  0  0
 24 25  1  0  0  0
 24 69  1  0  0  0
 25 70  1  0  0  0
 25 71  1  0  0  0
 26 27  2  0  0  0
 26 72  1  0  0  0
 27 28  1  0  0  0
 27 30  1  0  0  0
 28 29  2  0  0  0
 28 33  1  0  0  0
 29 73  1  0  0  0
 30 31  2  0  0  0
 30 74  1  0  0  0
 31 32  1  0  0  0
 31 75  1  0  0  0
 32 33  2  0  0  0
 32 76  1  0  0  0
 33 34  1  0  0  0
 34 43  1  0  0  0
 34 77  1  0  0  0
 34 78  1  0  0  0
 35 37  1  0  0  0
 37 38  1  0  0  0
 37 39  2  0  0  0
 37 40  2  0  0  0
 38 41  1  0  0  0
 38 42  1  0  0  0
 38 79  1  0  0  0
 41 42  1  0  0  0
 41 80  1  0  0  0
 41 81  1  0  0  0
 42 82  1  0  0  0
 42 83  1  0  0  0
 43 44  1  0  0  0
 43 84  1  0  0  0
 43 85  1  0  0  0
 44 45  1  0  0  0
 44 86  1  0  0  0
 44 87  1  0  0  0
 45 46  1  0  0  0
 45 88  1  0  0  0
 45 89  1  0  0  0
 46 47  1  0  0  0
 46 48  1  0  0  0
 46 49  1  0  0  0
 47 90  1  0  0  0
 47 91  1  0  0  0
 48 92  1  0  0  0
 48 93  1  0  0  0
 48 94  1  0  0  0
 49 95  1  0  0  0
 49 96  1  0  0  0
 49 97  1  0  0  0
 50 98  1  0  0  0
 50 99  1  0  0  0
 50100  1  0  0  0
 51101  1  0  0  0
 51102  1  0  0  0
 51103  1  0  0  0
 52104  1  0  0  0
 52105  1  0  0  0
M  CHG  1  36  -1
M  END
> <s_m_source_file>
../3su4_ligand.sdf

> <i_m_source_file_index>
1

> <s_epik_input>
W0NIMl0xW0NIMl1bQ0hdMVMoPU8pKD1PKVtOSF1DKD1PKVtDQEBdMihbQ0BASF0oW0NIMl0yKVtDSDJdW0NIM10pW05IXUMoPU8pW0NAQEhdKE4zNClbQ0gyXVtDQEhdKFtDSDJdNClPQyg9TyluNVtjSF1jNmMoW2NIXTUpYyhbY0hdW2NIXVtjSF02KVtDSDJdW0NIMl1bQ0gyXVtDSDJdQyhbQ0gzXSkoW0NIM10pW0NIMl1PQyg9TylbTkhdW0NASF0oQzM9TylDKFtDSDNdKShbQ0gzXSlbQ0gzXQ==

> <s_epik_cmdline>
J2VwaWtfYXBwJywgJy1pbWFlJywgJ2xpZ2FuZF9wcm8ubWFlJywgJy1vbWFlJywgJ2xpZ2FuZF9wcmVwLm1hZScsICctbXMnLCAnMScsICctcGgnLCAnNycsICctcGh0JywgJzAuNScsICctbnQn

> <r_epik_Ionization_Penalty>
  0.0108

> <r_epik_Ionization_Penalty_Charging>
  0.0107

> <r_epik_Ionization_Penalty_Neutral>
  0.0001

> <r_epik_State_Penalty>
  0.0082

> <r_epik_Charging_Adjusted_Penalty>
0.0189370220040517

> <i_epik_Tot_Q>
-1

> <i_epik_Tot_abs_Q>
1

> <s_epik_Chemistry_Notes>
This compound has an ester and may undergo hydrolysis at high or low pH.

$$$$
