3su6_ligand
                    3D
 Schrodinger Suite 2020-3.
107112  0  0  1  0            999 V2000
  -13.1670   -8.2360   14.1050 C   0  0  0  0  0  0
  -15.0370   -9.7380   13.5600 N   0  0  0  0  0  0
  -13.3300   -7.4750   13.1520 O   0  0  0  0  0  0
  -13.6390   -9.7030   14.0420 C   0  0  1  0  0  0
  -12.8810  -10.5150   13.0170 C   0  0  0  0  0  0
  -13.9050  -11.5560   12.5820 C   0  0  2  0  0  0
  -16.0220   -9.0110   14.1010 C   0  0  0  0  0  0
  -15.7780   -8.2560   15.0510 O   0  0  0  0  0  0
  -17.4090   -9.0830   13.5160 C   0  0  1  0  0  0
  -18.3520   -9.3380   14.6020 N   0  0  0  0  0  0
  -18.9620  -10.5050   14.7420 C   0  0  0  0  0  0
  -19.7660  -10.5530   15.8190 O   0  0  0  0  0  0
  -17.7850   -7.7940   12.7300 C   0  0  0  0  0  0
  -18.8460  -11.4490   13.9560 O   0  0  0  0  0  0
  -13.2810  -13.5920   13.6730 C   0  0  0  0  0  0
  -12.4010  -13.7490   12.8300 O   0  0  0  0  0  0
  -13.4530  -14.4660   14.6440 N   0  0  0  0  0  0
  -13.6390   -4.1830   15.5280 C   0  0  0  0  0  0
  -14.0700   -3.9800   14.0860 C   0  0  0  0  0  0
  -19.1540   -8.0200   12.0660 C   0  0  0  0  0  0
  -12.5760   -7.8850   15.2410 N   0  0  0  0  0  0
  -12.2780   -6.5050   15.5610 C   0  0  1  0  0  0
  -11.0370   -5.8800   14.9480 C   0  0  0  0  0  0
  -13.5550   -5.6760   15.8630 C   0  0  1  0  0  0
  -12.6100   -6.0870   16.9800 C   0  0  0  0  0  0
  -12.7530  -15.7370   14.9020 C   0  0  0  0  0  0
  -13.3740  -16.3040   16.1690 C   0  0  0  0  0  0
  -14.3540  -15.4340   16.6200 C   0  0  0  0  0  0
  -14.4700  -14.2330   15.6840 C   0  0  0  0  0  0
  -13.1160  -17.4750   16.8810 C   0  0  0  0  0  0
  -13.8390  -17.7470   18.0370 C   0  0  0  0  0  0
  -14.8170  -16.8640   18.4820 C   0  0  0  0  0  0
  -15.0890  -15.6930   17.7730 C   0  0  0  0  0  0
  -16.1640  -14.7590   18.3250 C   0  0  0  0  0  0
  -10.2690   -6.6940   14.2140 N   0  0  0  0  0  0
  -10.7760   -4.7070   15.2180 O   0  5  0  0  0  0
   -8.9790   -5.9850   13.5920 S   0  0  0  0  0  0
   -8.2210   -7.2790   12.6340 C   0  0  0  0  0  0
   -9.3660   -4.9470   12.6480 O   0  0  0  0  0  0
   -8.0190   -5.5150   14.5760 O   0  0  0  0  0  0
   -6.8040   -6.9940   12.1820 C   0  0  0  0  0  0
   -7.0620   -8.0220   13.2870 C   0  0  0  0  0  0
  -17.5460  -15.0480   17.7650 C   0  0  0  0  0  0
  -18.5210  -13.9560   18.2230 C   0  0  0  0  0  0
  -18.9900  -13.1330   17.0240 C   0  0  0  0  0  0
  -20.3290  -12.4280   17.2550 C   0  0  0  0  0  0
  -20.6290  -11.6860   15.9650 C   0  0  0  0  0  0
  -21.4510  -13.4460   17.4810 C   0  0  0  0  0  0
  -20.2540  -11.4410   18.4320 C   0  0  0  0  0  0
  -17.8560   -6.5380   13.5990 C   0  0  0  0  0  0
  -16.7360   -7.5650   11.6480 C   0  0  0  0  0  0
  -15.2010  -10.7410   12.4810 C   0  0  0  0  0  0
  -14.1000  -12.5160   13.6520 O   0  0  0  0  0  0
  -13.5221  -10.1345   15.0470 H   0  0  0  0  0  0
  -12.5655   -9.8605   12.1911 H   0  0  0  0  0  0
  -11.9943  -10.9643   13.4880 H   0  0  0  0  0  0
  -13.6080  -12.1258   11.6892 H   0  0  0  0  0  0
  -17.4617   -9.9409   12.8295 H   0  0  0  0  0  0
  -18.5739   -8.5480   15.3346 H   0  0  0  0  0  0
  -12.6496   -3.7277   15.6825 H   0  0  0  0  0  0
  -14.3698   -3.7085   16.1994 H   0  0  0  0  0  0
  -14.1236   -2.9033   13.8675 H   0  0  0  0  0  0
  -15.0594   -4.4353   13.9315 H   0  0  0  0  0  0
  -13.3391   -4.4545   13.4146 H   0  0  0  0  0  0
  -19.9152   -8.1859   12.8425 H   0  0  0  0  0  0
  -19.1020   -8.9010   11.4093 H   0  0  0  0  0  0
  -19.4237   -7.1348   11.4713 H   0  0  0  0  0  0
  -12.3116   -8.6834   15.9499 H   0  0  0  0  0  0
  -14.6212   -5.8022   15.6236 H   0  0  0  0  0  0
  -12.7275   -6.9824   17.6080 H   0  0  0  0  0  0
  -11.7959   -5.4638   17.3787 H   0  0  0  0  0  0
  -12.8987  -16.4156   14.0486 H   0  0  0  0  0  0
  -11.6787  -15.5431   15.0370 H   0  0  0  0  0  0
  -14.2527  -13.2885   16.2042 H   0  0  0  0  0  0
  -15.4646  -14.1744   15.2177 H   0  0  0  0  0  0
  -12.3532  -18.1719   16.5338 H   0  0  0  0  0  0
  -13.6378  -18.6592   18.5987 H   0  0  0  0  0  0
  -15.3751  -17.0881   19.3911 H   0  0  0  0  0  0
  -16.2173  -14.8670   19.4184 H   0  0  0  0  0  0
  -15.9116  -13.7189   18.0712 H   0  0  0  0  0  0
   -9.0858   -7.6767   12.0827 H   0  0  0  0  0  0
   -6.7067   -7.2273   11.1114 H   0  0  0  0  0  0
   -6.5728   -5.9315   12.3482 H   0  0  0  0  0  0
   -7.0506   -7.8079   14.3659 H   0  0  0  0  0  0
   -7.1844   -9.1037   13.1292 H   0  0  0  0  0  0
  -17.5007  -15.0621   16.6660 H   0  0  0  0  0  0
  -17.8925  -16.0260   18.1302 H   0  0  0  0  0  0
  -19.3936  -14.4219   18.7041 H   0  0  0  0  0  0
  -18.0172  -13.2923   18.9411 H   0  0  0  0  0  0
  -18.2438  -12.3573   16.7973 H   0  0  0  0  0  0
  -19.1105  -13.7920   16.1515 H   0  0  0  0  0  0
  -21.6760  -11.3493   15.9844 H   0  0  0  0  0  0
  -20.4801  -12.3719   15.1181 H   0  0  0  0  0  0
  -21.4903  -14.1431   16.6310 H   0  0  0  0  0  0
  -22.4125  -12.9187   17.5676 H   0  0  0  0  0  0
  -21.2559  -14.0072   18.4067 H   0  0  0  0  0  0
  -19.4442  -10.7182   18.2534 H   0  0  0  0  0  0
  -20.0537  -11.9937   19.3618 H   0  0  0  0  0  0
  -21.2104  -10.9052   18.5227 H   0  0  0  0  0  0
  -18.6084   -6.6806   14.3887 H   0  0  0  0  0  0
  -18.1373   -5.6764   12.9757 H   0  0  0  0  0  0
  -16.8734   -6.3535   14.0578 H   0  0  0  0  0  0
  -16.6674   -8.4578   11.0091 H   0  0  0  0  0  0
  -15.7599   -7.3746   12.1181 H   0  0  0  0  0  0
  -17.0238   -6.6974   11.0361 H   0  0  0  0  0  0
  -16.1000  -11.3444   12.6749 H   0  0  0  0  0  0
  -15.3064  -10.2261   11.5147 H   0  0  0  0  0  0
  1  3  2  0  0  0
  1  4  1  0  0  0
  1 21  1  0  0  0
  2  4  1  0  0  0
  2  7  1  0  0  0
  2 52  1  0  0  0
  4  5  1  0  0  0
  4 54  1  0  0  0
  5  6  1  0  0  0
  5 55  1  0  0  0
  5 56  1  0  0  0
  6 52  1  0  0  0
  6 53  1  0  0  0
  6 57  1  0  0  0
  7  8  2  0  0  0
  7  9  1  0  0  0
  9 10  1  0  0  0
  9 13  1  0  0  0
  9 58  1  0  0  0
 10 11  1  0  0  0
 10 59  1  0  0  0
 11 12  1  0  0  0
 11 14  2  0  0  0
 12 47  1  0  0  0
 13 20  1  0  0  0
 13 50  1  0  0  0
 13 51  1  0  0  0
 15 16  2  0  0  0
 15 17  1  0  0  0
 15 53  1  0  0  0
 17 26  1  0  0  0
 17 29  1  0  0  0
 18 19  1  0  0  0
 18 24  1  0  0  0
 18 60  1  0  0  0
 18 61  1  0  0  0
 19 62  1  0  0  0
 19 63  1  0  0  0
 19 64  1  0  0  0
 20 65  1  0  0  0
 20 66  1  0  0  0
 20 67  1  0  0  0
 21 22  1  0  0  0
 21 68  1  0  0  0
 22 23  1  0  0  0
 22 24  1  0  0  0
 22 25  1  0  0  0
 23 35  2  0  0  0
 23 36  1  0  0  0
 24 25  1  0  0  0
 24 69  1  0  0  0
 25 70  1  0  0  0
 25 71  1  0  0  0
 26 27  1  0  0  0
 26 72  1  0  0  0
 26 73  1  0  0  0
 27 28  2  0  0  0
 27 30  1  0  0  0
 28 29  1  0  0  0
 28 33  1  0  0  0
 29 74  1  0  0  0
 29 75  1  0  0  0
 30 31  2  0  0  0
 30 76  1  0  0  0
 31 32  1  0  0  0
 31 77  1  0  0  0
 32 33  2  0  0  0
 32 78  1  0  0  0
 33 34  1  0  0  0
 34 43  1  0  0  0
 34 79  1  0  0  0
 34 80  1  0  0  0
 35 37  1  0  0  0
 37 38  1  0  0  0
 37 39  2  0  0  0
 37 40  2  0  0  0
 38 41  1  0  0  0
 38 42  1  0  0  0
 38 81  1  0  0  0
 41 42  1  0  0  0
 41 82  1  0  0  0
 41 83  1  0  0  0
 42 84  1  0  0  0
 42 85  1  0  0  0
 43 44  1  0  0  0
 43 86  1  0  0  0
 43 87  1  0  0  0
 44 45  1  0  0  0
 44 88  1  0  0  0
 44 89  1  0  0  0
 45 46  1  0  0  0
 45 90  1  0  0  0
 45 91  1  0  0  0
 46 47  1  0  0  0
 46 48  1  0  0  0
 46 49  1  0  0  0
 47 92  1  0  0  0
 47 93  1  0  0  0
 48 94  1  0  0  0
 48 95  1  0  0  0
 48 96  1  0  0  0
 49 97  1  0  0  0
 49 98  1  0  0  0
 49 99  1  0  0  0
 50100  1  0  0  0
 50101  1  0  0  0
 50102  1  0  0  0
 51103  1  0  0  0
 51104  1  0  0  0
 51105  1  0  0  0
 52106  1  0  0  0
 52107  1  0  0  0
M  CHG  1  36  -1
M  END
> <s_m_source_file>
../3su6_ligand.sdf

> <i_m_source_file_index>
1

> <s_epik_input>
W0NIMl0xW0NIMl1bQ0hdMVMoPU8pKD1PKVtOSF1DKD1PKVtDQEBdMihbQ0BASF0oW0NIMl0yKVtDSDJdW0NIM10pW05IXUMoPU8pW0NAQEhdKE4zNClbQ0gyXVtDQEhdKFtDSDJdNClPQyg9TylONVtDSDJdYzZjKFtDSDJdNSljKFtjSF1bY0hdW2NIXTYpW0NIMl1bQ0gyXVtDSDJdW0NIMl1DKFtDSDNdKShbQ0gzXSlbQ0gyXU9DKD1PKVtOSF1bQ0BIXShDMz1PKUMoW0NIM10pKFtDSDNdKVtDSDNd

> <s_epik_cmdline>
J2VwaWtfYXBwJywgJy1pbWFlJywgJ2xpZ2FuZF9wcm8ubWFlJywgJy1vbWFlJywgJ2xpZ2FuZF9wcmVwLm1hZScsICctbXMnLCAnMScsICctcGgnLCAnNycsICctcGh0JywgJzAuNScsICctbnQn

> <r_epik_Ionization_Penalty>
  0.0106

> <r_epik_Ionization_Penalty_Charging>
  0.0105

> <r_epik_Ionization_Penalty_Neutral>
  0.0001

> <r_epik_State_Penalty>
  0.0081

> <r_epik_Charging_Adjusted_Penalty>
0.0186085690029815

> <i_epik_Tot_Q>
-1

> <i_epik_Tot_abs_Q>
1

> <s_epik_Chemistry_Notes>
This compound has an ester and may undergo hydrolysis at high or low pH.

$$$$
