3suf_ligand
                    3D
 Schrodinger Suite 2020-3.
103109  0  0  1  0            999 V2000
   11.9670    9.2330   16.2490 C   0  0  0  0  0  0
   13.1790   11.1600   16.6610 N   0  0  0  0  0  0
   12.3930    9.0700   15.1330 O   0  0  0  0  0  0
   11.8800   10.4800   16.7840 C   0  0  1  0  0  0
   10.8070   11.3290   16.1040 C   0  0  0  0  0  0
   14.0500   11.3540   17.6550 C   0  0  0  0  0  0
   11.9050    4.9880   20.5400 N   0  0  0  0  0  0
   13.9780    2.4260   21.8770 C   0  0  0  0  0  0
   11.3410    3.2140   21.8120 C   0  0  0  0  0  0
   17.5070   12.2810   17.9860 C   0  0  0  0  0  0
   17.0570   10.9210   18.3390 C   0  0  2  0  0  0
   16.1280   12.0790   18.4040 C   0  0  2  0  0  0
    6.2580    1.8730   13.6300 C   0  0  0  0  0  0
    7.5360    1.6750   14.3040 C   0  0  0  0  0  0
    8.1450    3.0380   11.6750 O   0  0  0  0  0  0
    7.8500    3.9580   12.7230 S   0  0  0  0  0  0
   11.1930    6.0590   12.9250 C   0  0  2  0  0  0
    9.9970    7.3770   14.9610 O   0  0  0  0  0  0
   10.9810    6.7660   15.2020 C   0  0  0  0  0  0
   10.5390   12.5230   16.9120 C   0  0  0  0  0  0
   10.6070    7.9580   11.3420 C   0  0  0  0  0  0
   13.6170    3.5450   21.1830 C   0  0  0  0  0  0
   17.4860   10.3440   19.6660 C   0  0  0  0  0  0
    9.1050    4.6760   13.2140 N   0  0  0  0  0  0
   11.5890    7.3410   12.2930 C   0  0  2  0  0  0
   15.8020    8.4220   19.7290 C   0  0  0  0  0  0
   13.0020    1.7160   22.5270 C   0  0  0  0  0  0
   12.4530    6.7610   19.2260 O   0  0  0  0  0  0
    9.5160    1.2150   22.7010 C   0  0  0  0  0  0
   10.7970    1.3520   23.1630 O   0  0  0  0  0  0
   17.2940    8.8380   19.6960 C   0  0  0  0  0  0
   15.6030    7.0420   20.2600 C   0  0  0  0  0  0
   12.8010    5.6890   19.9010 C   0  0  0  0  0  0
   14.1310    5.3250   19.9010 C   0  0  0  0  0  0
   12.2880    3.9210   21.1630 C   0  0  0  0  0  0
   14.5180    4.2550   20.5600 N   0  0  0  0  0  0
   15.0610    6.0670   19.2660 C   0  0  0  0  0  0
   11.6810    2.0800   22.4910 C   0  0  0  0  0  0
    6.9040    4.9170   12.2060 O   0  0  0  0  0  0
    6.9880    3.0060   14.1420 C   0  0  0  0  0  0
    9.6900    5.4220   11.2440 O   0  5  0  0  0  0
   12.2550    6.1090   11.8790 C   0  0  0  0  0  0
    9.8980    5.3610   12.4160 C   0  0  0  0  0  0
   11.6070    6.0840   14.3040 N   0  0  0  0  0  0
   11.2260    8.7650   10.2590 C   0  0  0  0  0  0
   13.7370   10.8730   18.7060 O   0  0  0  0  0  0
   15.1830   12.0460   17.4110 O   0  0  0  0  0  0
   10.7850    6.0760   17.5030 C   0  0  0  0  0  0
   11.5330    6.8220   16.4520 C   0  0  2  0  0  0
   11.5010    8.2140   16.9350 N   0  0  0  0  0  0
   10.9200    8.2400   18.2640 C   0  0  0  0  0  0
   11.0830    6.8910   18.7650 C   0  0  2  0  0  0
    9.5070   10.6400   15.9970 C   0  0  0  0  0  0
   11.2740   11.7900   14.7460 C   0  0  0  0  0  0
   13.5014   11.5582   15.6876 H   0  0  0  0  0  0
   11.6346   10.2589   17.8332 H   0  0  0  0  0  0
   15.0189    2.1044   21.9134 H   0  0  0  0  0  0
   10.3036    3.5482   21.7944 H   0  0  0  0  0  0
   18.3311   12.5787   18.6510 H   0  0  0  0  0  0
   17.8552   12.2928   16.9426 H   0  0  0  0  0  0
   17.0820    9.9515   17.8200 H   0  0  0  0  0  0
   15.4585   12.5648   19.1290 H   0  0  0  0  0  0
    5.7021    1.0077   13.2398 H   0  0  0  0  0  0
    7.9441    0.6604   14.4222 H   0  0  0  0  0  0
   10.1954   12.2195   17.9119 H   0  0  0  0  0  0
    9.7604   13.1283   16.4247 H   0  0  0  0  0  0
   11.4602   13.1168   17.0054 H   0  0  0  0  0  0
   10.0197    7.1651   10.8558 H   0  0  0  0  0  0
    9.9319    8.6275   11.8952 H   0  0  0  0  0  0
   18.5499   10.5661   19.8356 H   0  0  0  0  0  0
   16.8851   10.7910   20.4717 H   0  0  0  0  0  0
   11.9525    8.3094   12.6672 H   0  0  0  0  0  0
   15.2421    9.1158   20.3733 H   0  0  0  0  0  0
   15.3896    8.4544   18.7097 H   0  0  0  0  0  0
   13.2869    0.8293   23.0933 H   0  0  0  0  0  0
    8.9429    0.5796   23.3923 H   0  0  0  0  0  0
    9.5335    0.7498   21.7044 H   0  0  0  0  0  0
    9.0421    2.2055   22.6351 H   0  0  0  0  0  0
   17.7465    8.3927   18.7977 H   0  0  0  0  0  0
   17.7774    8.4245   20.5934 H   0  0  0  0  0  0
   16.5661    6.6409   20.6086 H   0  0  0  0  0  0
   14.8925    7.0710   21.0993 H   0  0  0  0  0  0
   14.6110    6.6136   18.4241 H   0  0  0  0  0  0
   15.8771    5.4296   18.8950 H   0  0  0  0  0  0
    6.6795    3.6920   14.9446 H   0  0  0  0  0  0
   13.1993    5.7298   12.2968 H   0  0  0  0  0  0
   11.9563    5.4859   11.0231 H   0  0  0  0  0  0
   12.4871    5.5072   14.6246 H   0  0  0  0  0  0
   10.4373    9.1772    9.6124 H   0  0  0  0  0  0
   11.8934    8.1264    9.6617 H   0  0  0  0  0  0
   11.8056    9.5888   10.7011 H   0  0  0  0  0  0
    9.7149    6.0589   17.2491 H   0  0  0  0  0  0
   11.1645    5.0452   17.5614 H   0  0  0  0  0  0
   12.5202    6.3847   16.2415 H   0  0  0  0  0  0
   11.4564    8.9731   18.8844 H   0  0  0  0  0  0
    9.8596    8.5241   18.1951 H   0  0  0  0  0  0
   10.4727    6.6198   19.6391 H   0  0  0  0  0  0
    9.1829   10.3115   16.9955 H   0  0  0  0  0  0
    9.6089    9.7650   15.3382 H   0  0  0  0  0  0
    8.7599   11.3298   15.5775 H   0  0  0  0  0  0
   12.2432   12.3007   14.8454 H   0  0  0  0  0  0
   10.5352   12.4852   14.3207 H   0  0  0  0  0  0
   11.3842   10.9204   14.0815 H   0  0  0  0  0  0
  1  3  2  0  0  0
  1  4  1  0  0  0
  1 50  1  0  0  0
  2  4  1  0  0  0
  2  6  1  0  0  0
  2 55  1  0  0  0
  4  5  1  0  0  0
  4 56  1  0  0  0
  5 20  1  0  0  0
  5 53  1  0  0  0
  5 54  1  0  0  0
  6 46  2  0  0  0
  6 47  1  0  0  0
  7 33  2  0  0  0
  7 35  1  0  0  0
  8 22  2  0  0  0
  8 27  1  0  0  0
  8 57  1  0  0  0
  9 35  2  0  0  0
  9 38  1  0  0  0
  9 58  1  0  0  0
 10 11  1  0  0  0
 10 12  1  0  0  0
 10 59  1  0  0  0
 10 60  1  0  0  0
 11 12  1  0  0  0
 11 23  1  0  0  0
 11 61  1  0  0  0
 12 47  1  0  0  0
 12 62  1  0  0  0
 13 14  2  0  0  0
 13 40  1  0  0  0
 13 63  1  0  0  0
 14 40  1  0  0  0
 14 64  1  0  0  0
 15 16  2  0  0  0
 16 24  1  0  0  0
 16 39  2  0  0  0
 16 40  1  0  0  0
 17 25  1  0  0  0
 17 42  1  0  0  0
 17 43  1  0  0  0
 17 44  1  0  0  0
 18 19  2  0  0  0
 19 44  1  0  0  0
 19 49  1  0  0  0
 20 65  1  0  0  0
 20 66  1  0  0  0
 20 67  1  0  0  0
 21 25  1  0  0  0
 21 45  1  0  0  0
 21 68  1  0  0  0
 21 69  1  0  0  0
 22 35  1  0  0  0
 22 36  1  0  0  0
 23 31  1  0  0  0
 23 70  1  0  0  0
 23 71  1  0  0  0
 24 43  2  0  0  0
 25 42  1  0  0  0
 25 72  1  0  0  0
 26 31  1  0  0  0
 26 32  1  0  0  0
 26 73  1  0  0  0
 26 74  1  0  0  0
 27 38  2  0  0  0
 27 75  1  0  0  0
 28 33  1  0  0  0
 28 52  1  0  0  0
 29 30  1  0  0  0
 29 76  1  0  0  0
 29 77  1  0  0  0
 29 78  1  0  0  0
 30 38  1  0  0  0
 31 79  1  0  0  0
 31 80  1  0  0  0
 32 37  1  0  0  0
 32 81  1  0  0  0
 32 82  1  0  0  0
 33 34  1  0  0  0
 34 36  2  0  0  0
 34 37  1  0  0  0
 37 83  1  0  0  0
 37 84  1  0  0  0
 40 85  1  0  0  0
 41 43  1  0  0  0
 42 86  1  0  0  0
 42 87  1  0  0  0
 44 88  1  0  0  0
 45 89  1  0  0  0
 45 90  1  0  0  0
 45 91  1  0  0  0
 48 49  1  0  0  0
 48 52  1  0  0  0
 48 92  1  0  0  0
 48 93  1  0  0  0
 49 50  1  0  0  0
 49 94  1  0  0  0
 50 51  1  0  0  0
 51 52  1  0  0  0
 51 95  1  0  0  0
 51 96  1  0  0  0
 52 97  1  0  0  0
 53 98  1  0  0  0
 53 99  1  0  0  0
 53100  1  0  0  0
 54101  1  0  0  0
 54102  1  0  0  0
 54103  1  0  0  0
M  CHG  1  41  -1
M  END
> <s_m_source_file>
../3suf_ligand.sdf

> <i_m_source_file_index>
1

> <s_epik_input>
W0NIXTE9W0NIXVtDSF0xUyg9TykoPU8pW05IXUMoPU8pW0NAQF0yKFtDQEBIXShbQ0gyXTIpW0NIMl1bQ0gzXSlbTkhdQyg9TylbQ0BASF0oTjNDKD1PKVtDQEhdKEMoW0NIM10pKFtDSDNdKVtDSDNdKVtOSF1DKD1PKU9bQ0BIXShbQ0gyXTQpW0NAQEhdNDUpW0NIMl1bQ0BIXShbQ0gyXTMpT2M2YyhbQ0gyXVtDSDJdW0NIMl1bQ0gyXVtDSDJdNSluYzdjKG42KVtjSF1jKFtjSF1bY0hdNylPW0NIM10=

> <s_epik_cmdline>
J2VwaWtfYXBwJywgJy1pbWFlJywgJ2xpZ2FuZF9wcm8ubWFlJywgJy1vbWFlJywgJ2xpZ2FuZF9wcmVwLm1hZScsICctbXMnLCAnMScsICctcGgnLCAnNycsICctcGh0JywgJzAuNScsICctbnQn

> <r_lp_tautomer_probability>
1

> <r_epik_Ionization_Penalty>
  0.0014

> <r_epik_Ionization_Penalty_Charging>
  0.0014

> <r_epik_Ionization_Penalty_Neutral>
  0.0000

> <r_epik_State_Penalty>
 -0.0000

> <r_epik_Charging_Adjusted_Penalty>
0.00141028357999573

> <i_epik_Tot_Q>
-1

> <i_epik_Tot_abs_Q>
1

> <s_epik_Chemistry_Notes>
This compound has an ester and may undergo hydrolysis at high or low pH.

$$$$
