3sut_ligand
                    3D
 Schrodinger Suite 2020-3.
 46 47  0  0  1  0            999 V2000
   32.4220  -20.5560   17.9330 C   0  0  0  0  0  0
   33.3760  -19.8100   17.0460 C   0  0  0  0  0  0
   33.3110  -19.8900   15.8240 O   0  0  0  0  0  0
   34.2730  -19.0900   17.7120 N   0  0  0  0  0  0
   35.2680  -18.2410   17.0460 C   0  0  2  0  0  0
   34.6120  -16.8860   16.5930 C   0  0  1  0  0  0
   34.7150  -15.8780   17.6110 O   0  0  0  0  0  0
   35.2680  -16.3990   15.2920 C   0  0  2  0  0  0
   34.6490  -15.1640   14.8480 O   0  0  0  0  0  0
   35.0590  -17.4870   14.2510 C   0  0  1  0  0  0
   35.5360  -17.0210   12.8770 C   0  0  0  0  0  0
   35.2140  -18.0650   11.9610 O   0  0  0  0  0  0
   35.7710  -18.7020   14.6590 O   0  0  0  0  0  0
   36.0560  -18.8410   16.0060 C   0  0  2  0  0  0
   36.8030  -19.9320   16.1370 N   0  0  1  0  0  0
   38.1310  -19.6790   15.6270 O   0  0  0  0  0  0
   39.0970  -20.5490   15.2760 C   0  0  0  0  0  0
   39.3150  -21.4650   16.0880 O   0  0  0  0  0  0
   39.9950  -20.1600   14.3350 N   0  0  0  0  0  0
   41.1710  -20.7840   14.1310 C   0  0  0  0  0  0
   41.3800  -22.1050   14.5820 C   0  0  0  0  0  0
   42.5750  -22.7890   14.3050 C   0  0  0  0  0  0
   43.5440  -22.1400   13.5280 C   0  0  0  0  0  0
   43.3400  -20.8420   13.0340 C   0  0  0  0  0  0
   42.1480  -20.1700   13.3250 C   0  0  0  0  0  0
   31.7140  -21.1255   17.3130 H   0  0  0  0  0  0
   31.8683  -19.8410   18.5592 H   0  0  0  0  0  0
   32.9847  -21.2481   18.5767 H   0  0  0  0  0  0
   34.2480  -19.1501   18.8101 H   0  0  0  0  0  0
   36.0598  -18.1548   17.8047 H   0  0  0  0  0  0
   33.5251  -16.9935   16.4624 H   0  0  0  0  0  0
   34.2954  -16.0615   18.6111 H   0  0  0  0  0  0
   36.3325  -16.1551   15.4240 H   0  0  0  0  0  0
   34.7011  -14.2647   15.4793 H   0  0  0  0  0  0
   33.9914  -17.7459   14.1937 H   0  0  0  0  0  0
   35.0199  -16.0879   12.6067 H   0  0  0  0  0  0
   36.6214  -16.8445   12.9061 H   0  0  0  0  0  0
   35.4638  -17.9579   10.8951 H   0  0  0  0  0  0
   36.7577  -18.0833   16.3848 H   0  0  0  0  0  0
   36.8626  -20.1838   17.1236 H   0  0  0  0  0  0
   39.7777  -19.2944   13.6920 H   0  0  0  0  0  0
   40.5992  -22.6038   15.1562 H   0  0  0  0  0  0
   42.7441  -23.7969   14.6840 H   0  0  0  0  0  0
   44.4777  -22.6550   13.3020 H   0  0  0  0  0  0
   44.1064  -20.3602   12.4268 H   0  0  0  0  0  0
   41.9757  -19.1699   12.9272 H   0  0  0  0  0  0
  1  2  1  0  0  0
  1 26  1  0  0  0
  1 27  1  0  0  0
  1 28  1  0  0  0
  2  3  2  0  0  0
  2  4  1  0  0  0
  4  5  1  0  0  0
  4 29  1  0  0  0
  5  6  1  0  0  0
  5 14  1  0  0  0
  5 30  1  0  0  0
  6  7  1  0  0  0
  6  8  1  0  0  0
  6 31  1  0  0  0
  7 32  1  0  0  0
  8  9  1  0  0  0
  8 10  1  0  0  0
  8 33  1  0  0  0
  9 34  1  0  0  0
 10 11  1  0  0  0
 10 13  1  0  0  0
 10 35  1  0  0  0
 11 12  1  0  0  0
 11 36  1  0  0  0
 11 37  1  0  0  0
 12 38  1  0  0  0
 13 14  1  0  0  0
 14 15  1  0  0  0
 14 39  1  0  0  0
 15 16  1  0  0  0
 15 40  1  0  0  0
 16 17  1  0  0  0
 17 18  2  0  0  0
 17 19  1  0  0  0
 19 20  1  0  0  0
 19 41  1  0  0  0
 20 21  2  0  0  0
 20 25  1  0  0  0
 21 22  1  0  0  0
 21 42  1  0  0  0
 22 23  2  0  0  0
 22 43  1  0  0  0
 23 24  1  0  0  0
 23 44  1  0  0  0
 24 25  2  0  0  0
 24 45  1  0  0  0
 25 46  1  0  0  0
M  END
> <s_m_source_file>
../3sut_ligand.sdf

> <i_m_source_file_index>
1

> <s_epik_input>
W0NIM11DKD1PKVtOSF1bQ0BASF0xW0NAQEhdKFtPSF0pW0NASF0oW09IXSlbQ0BASF0oW0NIMl1bT0hdKU9bQ0BASF0xW05IMitdT0MoPU8pW05IXWMyW2NIXVtjSF1bY0hdW2NIXVtjSF0y

> <s_epik_cmdline>
J2VwaWtfYXBwJywgJy1pbWFlJywgJ2xpZ2FuZF9wcm8ubWFlJywgJy1vbWFlJywgJ2xpZ2FuZF9wcmVwLm1hZScsICctbXMnLCAnMScsICctcGgnLCAnNycsICctcGh0JywgJzAuNScsICctbnQn

> <r_lp_tautomer_probability>
1

> <r_epik_Ionization_Penalty>
  0.0000

> <r_epik_Ionization_Penalty_Charging>
  0.0000

> <r_epik_Ionization_Penalty_Neutral>
  0.0000

> <r_epik_State_Penalty>
 -0.0000

> <r_epik_Charging_Adjusted_Penalty>
0

> <i_epik_Tot_Q>
0

> <i_epik_Tot_abs_Q>
0

> <s_epik_Chemistry_Notes>
This compound contains an acetal/aminal-like group ( X-CH(R)-Y where X, Y are N, S, or O) that may be acid/base labile, releasing an aldehyde. This compound has a N-S or N-O group and may undergo hydrolysis at high or low pH.

$$$$
