3suu_ligand
                    3D
 Schrodinger Suite 2020-3.
 46 47  0  0  1  0            999 V2000
   36.1910   18.5890  -16.0950 C   0  0  2  0  0  0
   35.2290   17.9830  -17.1500 C   0  0  1  0  0  0
   34.4030   16.8240  -16.5560 C   0  0  2  0  0  0
   34.9710   16.3290  -15.2180 C   0  0  2  0  0  0
   34.9530   17.4980  -14.2210 C   0  0  1  0  0  0
   35.4560   17.0660  -12.8490 C   0  0  0  0  0  0
   33.4330   19.6920  -17.1760 C   0  0  0  0  0  0
   32.5050   20.5000  -18.0730 C   0  0  0  0  0  0
   34.2910   18.9070  -17.8230 N   0  0  0  0  0  0
   34.3870   15.7610  -17.5010 O   0  0  0  0  0  0
   36.3120   15.8520  -15.4180 O   0  0  0  0  0  0
   35.7630   18.6190  -14.6960 O   0  0  0  0  0  0
   35.2640   18.1420  -11.9300 O   0  0  0  0  0  0
   33.3700   19.7720  -15.9560 O   0  0  0  0  0  0
   39.8310   20.5740  -14.5920 N   0  0  0  0  0  0
   38.8700   20.7410  -15.5030 C   0  0  0  0  0  0
   37.8340   19.9010  -15.3130 O   0  0  0  0  0  0
   38.8860   21.5650  -16.4170 O   0  0  0  0  0  0
   40.9790   21.2430  -14.4410 C   0  0  0  0  0  0
   41.9950   20.6350  -13.7020 C   0  0  0  0  0  0
   43.1990   21.3020  -13.4840 C   0  0  0  0  0  0
   43.3710   22.5820  -14.0090 C   0  0  0  0  0  0
   42.3590   23.2020  -14.7380 C   0  0  0  0  0  0
   41.1530   22.5320  -14.9480 C   0  0  0  0  0  0
   36.9110   19.8020  -16.4330 N   0  0  1  0  0  0
   36.9882   17.8311  -16.1021 H   0  0  0  0  0  0
   35.8991   17.6730  -17.9654 H   0  0  0  0  0  0
   33.3566   17.1270  -16.4034 H   0  0  0  0  0  0
   34.4200   15.4627  -14.8232 H   0  0  0  0  0  0
   33.9208   17.8702  -14.1434 H   0  0  0  0  0  0
   34.8922   16.1832  -12.5131 H   0  0  0  0  0  0
   36.5253   16.8158  -12.9125 H   0  0  0  0  0  0
   32.7299   20.2792  -19.1269 H   0  0  0  0  0  0
   32.6543   21.5732  -17.8832 H   0  0  0  0  0  0
   31.4605   20.2312  -17.8569 H   0  0  0  0  0  0
   34.2767   18.9730  -18.9209 H   0  0  0  0  0  0
   34.0097   15.9360  -18.5193 H   0  0  0  0  0  0
   36.5010   15.0142  -16.1053 H   0  0  0  0  0  0
   35.5656   18.0276  -10.8784 H   0  0  0  0  0  0
   39.7313   19.7925  -13.8244 H   0  0  0  0  0  0
   41.8462   19.6352  -13.2941 H   0  0  0  0  0  0
   43.9961   20.8290  -12.9104 H   0  0  0  0  0  0
   44.3128   23.1061  -13.8463 H   0  0  0  0  0  0
   42.5080   24.2035  -15.1416 H   0  0  0  0  0  0
   40.3498   23.0134  -15.5059 H   0  0  0  0  0  0
   37.3700   19.7684  -17.3432 H   0  0  0  0  0  0
  1  2  1  0  0  0
  1 12  1  0  0  0
  1 25  1  0  0  0
  1 26  1  0  0  0
  2  3  1  0  0  0
  2  9  1  0  0  0
  2 27  1  0  0  0
  3  4  1  0  0  0
  3 10  1  0  0  0
  3 28  1  0  0  0
  4  5  1  0  0  0
  4 11  1  0  0  0
  4 29  1  0  0  0
  5  6  1  0  0  0
  5 12  1  0  0  0
  5 30  1  0  0  0
  6 13  1  0  0  0
  6 31  1  0  0  0
  6 32  1  0  0  0
  7  8  1  0  0  0
  7  9  1  0  0  0
  7 14  2  0  0  0
  8 33  1  0  0  0
  8 34  1  0  0  0
  8 35  1  0  0  0
  9 36  1  0  0  0
 10 37  1  0  0  0
 11 38  1  0  0  0
 13 39  1  0  0  0
 15 16  1  0  0  0
 15 19  1  0  0  0
 15 40  1  0  0  0
 16 17  1  0  0  0
 16 18  2  0  0  0
 17 25  1  0  0  0
 19 20  2  0  0  0
 19 24  1  0  0  0
 20 21  1  0  0  0
 20 41  1  0  0  0
 21 22  2  0  0  0
 21 42  1  0  0  0
 22 23  1  0  0  0
 22 43  1  0  0  0
 23 24  2  0  0  0
 23 44  1  0  0  0
 24 45  1  0  0  0
 25 46  1  0  0  0
M  END
> <s_m_source_file>
../3suu_ligand.sdf

> <i_m_source_file_index>
1

> <s_epik_input>
W09IXVtDSDJdW0NAQEhdKE8xKVtDQEhdKFtPSF0pW0NASF0oW09IXSlbQ0BASF0oW05IXUMoPU8pW0NIM10pW0NASF0xW05IMitdT0MoPU8pW05IXWMyW2NIXVtjSF1bY0hdW2NIXVtjSF0y

> <s_epik_cmdline>
J2VwaWtfYXBwJywgJy1pbWFlJywgJ2xpZ2FuZF9wcm8ubWFlJywgJy1vbWFlJywgJ2xpZ2FuZF9wcmVwLm1hZScsICctbXMnLCAnMScsICctcGgnLCAnNycsICctcGh0JywgJzAuNScsICctbnQn

> <r_lp_tautomer_probability>
1

> <r_epik_Ionization_Penalty>
  0.0000

> <r_epik_Ionization_Penalty_Charging>
  0.0000

> <r_epik_Ionization_Penalty_Neutral>
  0.0000

> <r_epik_State_Penalty>
 -0.0000

> <r_epik_Charging_Adjusted_Penalty>
0

> <i_epik_Tot_Q>
0

> <i_epik_Tot_abs_Q>
0

> <s_epik_Chemistry_Notes>
This compound contains an acetal/aminal-like group ( X-CH(R)-Y where X, Y are N, S, or O) that may be acid/base labile, releasing an aldehyde. This compound has a N-S or N-O group and may undergo hydrolysis at high or low pH.

$$$$
