3suv_ligand
                    3D
 Schrodinger Suite 2020-3.
 31 31  0  0  1  0            999 V2000
   31.8880   20.0740  -18.0120 C   0  0  0  0  0  0
   33.0200   19.5080  -17.1690 C   0  0  0  0  0  0
   33.0660   19.7470  -15.9650 O   0  0  0  0  0  0
   33.9160   18.7580  -17.8360 N   0  0  0  0  0  0
   35.1130   18.1460  -17.2010 C   0  0  1  0  0  0
   35.9250   19.2500  -16.5020 C   0  0  0  0  0  0
   37.1890   18.6740  -15.9880 N   0  3  0  0  0  0
   36.8930   17.7430  -14.8750 C   0  0  2  0  0  0
   38.2060   17.2350  -14.2770 C   0  0  0  0  0  0
   39.0380   16.7230  -15.3240 O   0  0  0  0  0  0
   36.0390   16.5640  -15.3790 C   0  0  1  0  0  0
   35.5780   15.7870  -14.2640 O   0  0  0  0  0  0
   34.8120   16.9820  -16.2340 C   0  0  2  0  0  0
   34.4220   15.8340  -16.9920 O   0  0  0  0  0  0
   31.2167   20.6673  -17.3737 H   0  0  0  0  0  0
   31.3237   19.2483  -18.4700 H   0  0  0  0  0  0
   32.3048   20.7159  -18.8021 H   0  0  0  0  0  0
   33.7250   18.6074  -18.9088 H   0  0  0  0  0  0
   35.6696   17.6982  -18.0375 H   0  0  0  0  0  0
   36.1502   20.0509  -17.2216 H   0  0  0  0  0  0
   35.3403   19.6618  -15.6662 H   0  0  0  0  0  0
   37.6985   18.1283  -16.7959 H   0  0  0  0  0  0
   37.8398   19.4831  -15.6250 H   0  0  0  0  0  0
   36.3305   18.3062  -14.1158 H   0  0  0  0  0  0
   38.7221   18.0630  -13.7690 H   0  0  0  0  0  0
   37.9936   16.4355  -13.5520 H   0  0  0  0  0  0
   40.0298   16.3107  -15.0865 H   0  0  0  0  0  0
   36.6957   15.9183  -15.9806 H   0  0  0  0  0  0
   36.2990   15.3926  -13.5328 H   0  0  0  0  0  0
   33.9706   17.2792  -15.5908 H   0  0  0  0  0  0
   33.5642   15.8934  -17.6781 H   0  0  0  0  0  0
  1  2  1  0  0  0
  1 15  1  0  0  0
  1 16  1  0  0  0
  1 17  1  0  0  0
  2  3  2  0  0  0
  2  4  1  0  0  0
  4  5  1  0  0  0
  4 18  1  0  0  0
  5  6  1  0  0  0
  5 13  1  0  0  0
  5 19  1  0  0  0
  6  7  1  0  0  0
  6 20  1  0  0  0
  6 21  1  0  0  0
  7  8  1  0  0  0
  7 22  1  0  0  0
  7 23  1  0  0  0
  8  9  1  0  0  0
  8 11  1  0  0  0
  8 24  1  0  0  0
  9 10  1  0  0  0
  9 25  1  0  0  0
  9 26  1  0  0  0
 10 27  1  0  0  0
 11 12  1  0  0  0
 11 13  1  0  0  0
 11 28  1  0  0  0
 12 29  1  0  0  0
 13 14  1  0  0  0
 13 30  1  0  0  0
 14 31  1  0  0  0
M  CHG  1   7   1
M  END
> <s_m_source_file>
../3suv_ligand.sdf

> <i_m_source_file_index>
1

> <s_epik_input>
W0NIM11DKD1PKVtOSF1bQ0BIXTFbQ0gyXVtOSDIrXVtDQEhdKFtDSDJdW09IXSlbQ0BASF0oW09IXSlbQ0BASF0xW09IXQ==

> <s_epik_cmdline>
J2VwaWtfYXBwJywgJy1pbWFlJywgJ2xpZ2FuZF9wcm8ubWFlJywgJy1vbWFlJywgJ2xpZ2FuZF9wcmVwLm1hZScsICctbXMnLCAnMScsICctcGgnLCAnNycsICctcGh0JywgJzAuNScsICctbnQn

> <r_epik_Ionization_Penalty>
  0.0237

> <r_epik_Ionization_Penalty_Charging>
  0.0237

> <r_epik_Ionization_Penalty_Neutral>
  0.0000

> <r_epik_State_Penalty>
  0.0192

> <r_epik_Charging_Adjusted_Penalty>
0.0428409455883798

> <i_epik_Tot_Q>
1

> <i_epik_Tot_abs_Q>
1

$$$$
