3suw_ligand
                    3D
 Schrodinger Suite 2020-3.
 35 36  0  0  1  0            999 V2000
   33.2480   19.8410  -15.7720 O   0  0  0  0  0  0
   33.1730   19.5670  -16.9790 C   0  0  0  0  0  0
   32.0320   20.1210  -17.8330 C   0  0  0  0  0  0
   34.0240   18.7900  -17.6570 N   0  0  0  0  0  0
   35.2240   18.1370  -17.0710 C   0  0  2  0  0  0
   34.8470   16.9430  -16.1580 C   0  0  1  0  0  0
   34.3320   15.8820  -16.9380 O   0  0  0  0  0  0
   36.0380   16.3970  -15.3160 C   0  0  2  0  0  0
   35.5190   15.6520  -14.2210 O   0  0  0  0  0  0
   36.1330   19.1680  -16.3460 C   0  0  0  0  0  0
   37.3200   18.4010  -15.8570 N   0  3  2  0  0  0
   36.9060   17.5080  -14.7560 C   0  0  2  0  0  0
   38.4090   19.1990  -15.2600 C   0  0  0  0  0  0
   39.2370   18.1000  -14.5660 C   0  0  0  0  0  0
   38.2240   17.0150  -14.1400 C   0  0  2  0  0  0
   38.5830   15.7220  -14.6760 O   0  0  0  0  0  0
   31.3774   20.7471  -17.2088 H   0  0  0  0  0  0
   31.4502   19.2873  -18.2531 H   0  0  0  0  0  0
   32.4476   20.7272  -18.6514 H   0  0  0  0  0  0
   33.7851   18.6480  -18.7213 H   0  0  0  0  0  0
   35.7728   17.7345  -17.9352 H   0  0  0  0  0  0
   34.0287   17.2640  -15.4967 H   0  0  0  0  0  0
   33.4791   16.0572  -17.6102 H   0  0  0  0  0  0
   36.6622   15.7209  -15.9187 H   0  0  0  0  0  0
   34.8580   14.7922  -14.4048 H   0  0  0  0  0  0
   36.4329   19.9544  -17.0543 H   0  0  0  0  0  0
   35.5801   19.6197  -15.5092 H   0  0  0  0  0  0
   37.7018   17.8998  -16.7587 H   0  0  0  0  0  0
   36.2852   18.0188  -14.0052 H   0  0  0  0  0  0
   38.9576   19.7240  -16.0559 H   0  0  0  0  0  0
   37.9840   19.9344  -14.5611 H   0  0  0  0  0  0
   39.9783   17.6982  -15.2725 H   0  0  0  0  0  0
   39.7549   18.5265  -13.6943 H   0  0  0  0  0  0
   38.1870   16.8196  -13.0581 H   0  0  0  0  0  0
   37.9566   14.8439  -14.4601 H   0  0  0  0  0  0
  1  2  2  0  0  0
  2  3  1  0  0  0
  2  4  1  0  0  0
  3 17  1  0  0  0
  3 18  1  0  0  0
  3 19  1  0  0  0
  4  5  1  0  0  0
  4 20  1  0  0  0
  5  6  1  0  0  0
  5 10  1  0  0  0
  5 21  1  0  0  0
  6  7  1  0  0  0
  6  8  1  0  0  0
  6 22  1  0  0  0
  7 23  1  0  0  0
  8  9  1  0  0  0
  8 12  1  0  0  0
  8 24  1  0  0  0
  9 25  1  0  0  0
 10 11  1  0  0  0
 10 26  1  0  0  0
 10 27  1  0  0  0
 11 12  1  0  0  0
 11 13  1  0  0  0
 11 28  1  0  0  0
 12 15  1  0  0  0
 12 29  1  0  0  0
 13 14  1  0  0  0
 13 30  1  0  0  0
 13 31  1  0  0  0
 14 15  1  0  0  0
 14 32  1  0  0  0
 14 33  1  0  0  0
 15 16  1  0  0  0
 15 34  1  0  0  0
 16 35  1  0  0  0
M  CHG  1  11   1
M  END
> <s_m_source_file>
../3suw_ligand.sdf

> <i_m_source_file_index>
1

> <s_epik_input>
Tz1DKFtDSDNdKVtOSF1bQ0BASF0oW0NIMl0xKVtDQEBIXShbT0hdKVtDQEhdKFtPSF0pW0NASF0oW05AQEgrXTEyKVtDQEBIXShbT0hdKVtDSDJdW0NIMl0y

> <s_epik_cmdline>
J2VwaWtfYXBwJywgJy1pbWFlJywgJ2xpZ2FuZF9wcm8ubWFlJywgJy1vbWFlJywgJ2xpZ2FuZF9wcmVwLm1hZScsICctbXMnLCAnMScsICctcGgnLCAnNycsICctcGh0JywgJzAuNScsICctbnQn

> <r_lp_tautomer_probability>
1

> <r_epik_Ionization_Penalty>
  0.0077

> <r_epik_Ionization_Penalty_Charging>
  0.0077

> <r_epik_Ionization_Penalty_Neutral>
  0.0000

> <r_epik_State_Penalty>
 -0.0000

> <r_epik_Charging_Adjusted_Penalty>
0.00770990738342108

> <i_epik_Tot_Q>
1

> <i_epik_Tot_abs_Q>
1

$$$$
