3sv2_ligand
                    3D
 Schrodinger Suite 2020-3.
 51 53  0  0  1  0            999 V2000
   16.4180  -15.5200   23.1810 N   0  3  0  0  0  0
   17.7190  -14.8760   23.1360 C   0  0  1  0  0  0
   17.5440  -13.4940   22.5390 C   0  0  0  0  0  0
   16.6280  -12.7610   22.9230 O   0  0  0  0  0  0
   18.2270  -14.7850   24.5750 C   0  0  0  0  0  0
   19.6320  -14.2480   24.6420 C   0  0  0  0  0  0
   19.8640  -13.0460   25.3050 C   0  0  0  0  0  0
   20.6930  -14.9330   24.0500 C   0  0  0  0  0  0
   21.1510  -12.5260   25.3690 C   0  0  0  0  0  0
   21.9780  -14.4170   24.1370 C   0  0  0  0  0  0
   22.2170  -13.2070   24.7870 C   0  0  0  0  0  0
   18.3880  -13.0960   21.5830 N   0  0  0  0  0  0
   18.1900  -11.7780   20.9800 C   0  0  2  0  0  0
   16.8140  -11.6760   20.3860 C   0  0  0  0  0  0
   16.3240  -12.6040   19.7390 O   0  0  0  0  0  0
   19.2130  -11.6680   19.8660 C   0  0  0  0  0  0
   20.2390  -12.7270   20.1870 C   0  0  0  0  0  0
   19.5080  -13.8260   20.9680 C   0  0  0  0  0  0
   14.8270  -10.2230   20.1030 C   0  0  0  0  0  0
   13.7650  -10.5290   21.1300 C   0  0  0  0  0  0
   13.1850   -9.5250   21.9130 C   0  0  0  0  0  0
   12.2070   -9.8740   22.8340 C   0  0  0  0  0  0
   12.3610  -12.1220   22.2190 C   0  0  0  0  0  0
   13.3520  -11.8470   21.2870 C   0  0  0  0  0  0
   16.1610  -10.5290   20.5910 N   0  0  0  0  0  0
   11.8080  -11.1510   22.9530 N   0  0  0  0  0  0
   16.0156  -15.6053   22.1608 H   0  0  0  0  0  0
   15.7325  -14.9190   23.7965 H   0  0  0  0  0  0
   16.5206  -16.5235   23.6198 H   0  0  0  0  0  0
   18.4048  -15.4633   22.5076 H   0  0  0  0  0  0
   17.5741  -14.1141   25.1526 H   0  0  0  0  0  0
   18.2190  -15.7861   25.0307 H   0  0  0  0  0  0
   19.0366  -12.5131   25.7736 H   0  0  0  0  0  0
   20.5135  -15.8693   23.5215 H   0  0  0  0  0  0
   21.3273  -11.5785   25.8783 H   0  0  0  0  0  0
   22.8097  -14.9636   23.6923 H   0  0  0  0  0  0
   23.2264  -12.7989   24.8390 H   0  0  0  0  0  0
   18.2985  -11.0036   21.7537 H   0  0  0  0  0  0
   18.7229  -11.8523   18.8986 H   0  0  0  0  0  0
   19.6511  -10.6590   19.8687 H   0  0  0  0  0  0
   20.6598  -13.1252   19.2519 H   0  0  0  0  0  0
   21.0442  -12.2858   20.7928 H   0  0  0  0  0  0
   20.1311  -14.2734   21.7564 H   0  0  0  0  0  0
   19.1144  -14.6203   20.3167 H   0  0  0  0  0  0
   14.6463  -10.8228   19.1988 H   0  0  0  0  0  0
   14.7921   -9.1538   19.8468 H   0  0  0  0  0  0
   13.4959   -8.4862   21.8016 H   0  0  0  0  0  0
   11.7596   -9.1063   23.4652 H   0  0  0  0  0  0
   12.0268  -13.1505   22.3553 H   0  0  0  0  0  0
   13.7958  -12.6454   20.6924 H   0  0  0  0  0  0
   16.7148   -9.7844   21.1816 H   0  0  0  0  0  0
  1  2  1  0  0  0
  1 27  1  0  0  0
  1 28  1  0  0  0
  1 29  1  0  0  0
  2  3  1  0  0  0
  2  5  1  0  0  0
  2 30  1  0  0  0
  3  4  2  0  0  0
  3 12  1  0  0  0
  5  6  1  0  0  0
  5 31  1  0  0  0
  5 32  1  0  0  0
  6  7  2  0  0  0
  6  8  1  0  0  0
  7  9  1  0  0  0
  7 33  1  0  0  0
  8 10  2  0  0  0
  8 34  1  0  0  0
  9 11  2  0  0  0
  9 35  1  0  0  0
 10 11  1  0  0  0
 10 36  1  0  0  0
 11 37  1  0  0  0
 12 13  1  0  0  0
 12 18  1  0  0  0
 13 14  1  0  0  0
 13 16  1  0  0  0
 13 38  1  0  0  0
 14 15  2  0  0  0
 14 25  1  0  0  0
 16 17  1  0  0  0
 16 39  1  0  0  0
 16 40  1  0  0  0
 17 18  1  0  0  0
 17 41  1  0  0  0
 17 42  1  0  0  0
 18 43  1  0  0  0
 18 44  1  0  0  0
 19 20  1  0  0  0
 19 25  1  0  0  0
 19 45  1  0  0  0
 19 46  1  0  0  0
 20 21  2  0  0  0
 20 24  1  0  0  0
 21 22  1  0  0  0
 21 47  1  0  0  0
 22 26  2  0  0  0
 22 48  1  0  0  0
 23 24  2  0  0  0
 23 26  1  0  0  0
 23 49  1  0  0  0
 24 50  1  0  0  0
 25 51  1  0  0  0
M  CHG  1   1   1
M  END
> <s_m_source_file>
../3sv2_ligand.sdf

> <i_m_source_file_index>
1

> <s_epik_input>
W2NIXTFbY0hdW2NIXVtjSF1bY0hdYzFbQ0gyXVtDQEBIXShbTkgzK10pQyg9TylOMltDQEBIXShbQ0gyXVtDSDJdW0NIMl0yKUMoPU8pW05IXVtDSDJdYzNbY0hdW2NIXW5bY0hdW2NIXTM=

> <s_epik_cmdline>
J2VwaWtfYXBwJywgJy1pbWFlJywgJ2xpZ2FuZF9wcm8ubWFlJywgJy1vbWFlJywgJ2xpZ2FuZF9wcmVwLm1hZScsICctbXMnLCAnMScsICctcGgnLCAnNycsICctcGh0JywgJzAuNScsICctbnQn

> <r_epik_Ionization_Penalty>
  0.1889

> <r_epik_Ionization_Penalty_Charging>
  0.1805

> <r_epik_Ionization_Penalty_Neutral>
  0.0084

> <r_epik_State_Penalty>
  0.1700

> <r_epik_Charging_Adjusted_Penalty>
0.350449203061821

> <i_epik_Tot_Q>
1

> <i_epik_Tot_abs_Q>
1

$$$$
