3sv6_ligand
                    3D
 Schrodinger Suite 2020-3.
104108  0  0  1  0            999 V2000
  -23.8170   -9.5390   13.4650 C   0  0  0  0  0  0
  -25.7680   -8.7300   12.5370 C   0  0  0  0  0  0
  -26.1470  -10.0360   12.2190 C   0  0  0  0  0  0
  -22.4830   -9.2690   14.1800 C   0  0  0  0  0  0
  -24.2070  -10.8410   13.1410 C   0  0  0  0  0  0
  -22.1210   -8.1240   14.4280 O   0  0  0  0  0  0
  -24.6150   -8.5050   13.1550 N   0  0  0  0  0  0
  -25.3630  -11.0600   12.5250 N   0  0  0  0  0  0
  -21.7990  -10.3520   14.4960 N   0  0  0  0  0  0
  -20.5020  -10.2620   15.1860 C   0  0  2  0  0  0
  -19.3940  -10.1610   14.1470 C   0  0  0  0  0  0
  -19.2800  -11.0130   13.2620 O   0  0  0  0  0  0
  -20.3110  -11.4900   16.0670 C   0  0  0  0  0  0
  -21.4240  -11.5610   17.1250 C   0  0  0  0  0  0
  -21.2230  -12.7570   18.0530 C   0  0  0  0  0  0
  -19.8350  -12.7230   18.7120 C   0  0  0  0  0  0
  -18.7280  -12.6440   17.6560 C   0  0  0  0  0  0
  -18.9350  -11.4340   16.7400 C   0  0  0  0  0  0
  -18.6430   -9.0740   14.2630 N   0  0  0  0  0  0
  -17.5300   -8.8030   13.3430 C   0  0  1  0  0  0
  -17.6910   -7.4340   12.6560 C   0  0  0  0  0  0
  -17.8120   -6.2560   13.6200 C   0  0  0  0  0  0
  -18.9450   -7.4560   11.7660 C   0  0  0  0  0  0
  -16.4730   -7.1820   11.7430 C   0  0  0  0  0  0
  -16.2010   -8.9330   14.1170 C   0  0  0  0  0  0
  -15.9570   -8.1990   15.0930 O   0  0  0  0  0  0
  -13.1120   -8.8820   14.0310 C   0  0  0  0  0  0
  -15.3170   -9.8560   13.7460 N   0  0  0  0  0  0
  -13.0890   -8.5310   12.8500 O   0  0  0  0  0  0
  -14.0210  -10.0270   14.4370 C   0  0  1  0  0  0
  -13.4570  -11.3660   13.9710 C   0  0  2  0  0  0
  -14.1430  -11.6610   12.6290 C   0  0  2  0  0  0
  -13.8150  -12.5080   14.9020 C   0  0  0  0  0  0
  -13.8610  -13.7250   13.9800 C   0  0  0  0  0  0
  -15.4400  -10.8180   12.6110 C   0  0  0  0  0  0
  -14.4250  -13.1680   12.6650 C   0  0  0  0  0  0
   -9.1640   -6.1430   13.0990 N   0  0  0  0  0  0
  -12.4380   -8.2720   15.0090 N   0  0  0  0  0  0
  -11.6590   -7.0550   14.7010 C   0  0  2  0  0  0
  -10.1640   -7.1840   14.9970 C   0  0  2  0  0  0
  -12.2910   -5.8610   15.4430 C   0  0  0  0  0  0
  -13.5620   -5.4220   14.6760 C   0  0  0  0  0  0
  -14.2460   -4.2370   15.3400 C   0  0  0  0  0  0
   -9.3980   -6.0150   14.3980 C   0  0  0  0  0  0
   -8.4840   -5.0930   12.3450 C   0  0  0  0  0  0
   -7.0370   -5.4010   12.0270 C   0  0  0  0  0  0
   -8.1000   -5.4890   10.9260 C   0  0  0  0  0  0
   -9.6320   -8.3780   14.4540 O   0  0  0  0  0  0
   -9.0870   -5.0460   15.0810 O   0  0  0  0  0  0
  -26.4192   -7.8952   12.2777 H   0  0  0  0  0  0
  -27.0965  -10.2149   11.7144 H   0  0  0  0  0  0
  -23.5598  -11.6805   13.3949 H   0  0  0  0  0  0
  -22.2155  -11.3358   14.2340 H   0  0  0  0  0  0
  -20.5035   -9.3595   15.8149 H   0  0  0  0  0  0
  -20.3644  -12.3898   15.4365 H   0  0  0  0  0  0
  -21.4153  -10.6414   17.7286 H   0  0  0  0  0  0
  -22.3988  -11.6626   16.6255 H   0  0  0  0  0  0
  -21.9872  -12.7398   18.8440 H   0  0  0  0  0  0
  -21.3141  -13.6887   17.4754 H   0  0  0  0  0  0
  -19.7615  -11.8422   19.3668 H   0  0  0  0  0  0
  -19.6896  -13.6361   19.3080 H   0  0  0  0  0  0
  -17.7520  -12.5484   18.1544 H   0  0  0  0  0  0
  -18.7392  -13.5579   17.0439 H   0  0  0  0  0  0
  -18.1498  -11.4340   15.9696 H   0  0  0  0  0  0
  -18.8582  -10.5164   17.3418 H   0  0  0  0  0  0
  -18.8713   -8.3664   15.0736 H   0  0  0  0  0  0
  -17.5733   -9.5647   12.5506 H   0  0  0  0  0  0
  -18.6754   -6.4123   14.2834 H   0  0  0  0  0  0
  -17.9526   -5.3270   13.0479 H   0  0  0  0  0  0
  -16.8952   -6.1801   14.2231 H   0  0  0  0  0  0
  -19.8338   -7.6343   12.3891 H   0  0  0  0  0  0
  -18.8520   -8.2602   11.0213 H   0  0  0  0  0  0
  -19.0461   -6.4893   11.2511 H   0  0  0  0  0  0
  -15.5569   -7.1605   12.3515 H   0  0  0  0  0  0
  -16.5940   -6.2175   11.2282 H   0  0  0  0  0  0
  -16.3998   -7.9884   10.9984 H   0  0  0  0  0  0
  -14.1448  -10.0109   15.5299 H   0  0  0  0  0  0
  -12.3597  -11.2991   13.9335 H   0  0  0  0  0  0
  -13.5542  -11.4177   11.7323 H   0  0  0  0  0  0
  -13.0429  -12.6029   15.6797 H   0  0  0  0  0  0
  -14.7877  -12.3052   15.3739 H   0  0  0  0  0  0
  -12.8461  -14.1313   13.8582 H   0  0  0  0  0  0
  -14.5134  -14.4938   14.4198 H   0  0  0  0  0  0
  -16.3281  -11.4496   12.7603 H   0  0  0  0  0  0
  -15.5405  -10.2612   11.6677 H   0  0  0  0  0  0
  -15.5104  -13.3392   12.6145 H   0  0  0  0  0  0
  -13.9370  -13.6530   11.8067 H   0  0  0  0  0  0
   -9.4924   -7.0611   12.5898 H   0  0  0  0  0  0
  -12.4586   -8.6667   16.0355 H   0  0  0  0  0  0
  -11.7271   -6.9318   13.6100 H   0  0  0  0  0  0
  -10.0151   -7.2626   16.0840 H   0  0  0  0  0  0
  -12.5565   -6.1643   16.4665 H   0  0  0  0  0  0
  -11.5707   -5.0305   15.4819 H   0  0  0  0  0  0
  -13.2895   -5.1315   13.6507 H   0  0  0  0  0  0
  -14.2770   -6.2573   14.6426 H   0  0  0  0  0  0
  -15.1409   -3.9600   14.7635 H   0  0  0  0  0  0
  -13.5521   -3.3841   15.3724 H   0  0  0  0  0  0
  -14.5396   -4.5099   16.3644 H   0  0  0  0  0  0
   -9.0305   -4.2602   12.8117 H   0  0  0  0  0  0
   -6.4186   -4.5165   12.2398 H   0  0  0  0  0  0
   -6.6968   -6.2439   12.6465 H   0  0  0  0  0  0
   -8.6420   -6.4028   10.6410 H   0  0  0  0  0  0
   -8.3637   -4.6755   10.2342 H   0  0  0  0  0  0
  -10.0456   -9.3516   14.7558 H   0  0  0  0  0  0
  1  4  1  0  0  0
  1  5  2  0  0  0
  1  7  1  0  0  0
  2  3  1  0  0  0
  2  7  2  0  0  0
  2 50  1  0  0  0
  3  8  2  0  0  0
  3 51  1  0  0  0
  4  6  2  0  0  0
  4  9  1  0  0  0
  5  8  1  0  0  0
  5 52  1  0  0  0
  9 10  1  0  0  0
  9 53  1  0  0  0
 10 11  1  0  0  0
 10 13  1  0  0  0
 10 54  1  0  0  0
 11 12  2  0  0  0
 11 19  1  0  0  0
 13 14  1  0  0  0
 13 18  1  0  0  0
 13 55  1  0  0  0
 14 15  1  0  0  0
 14 56  1  0  0  0
 14 57  1  0  0  0
 15 16  1  0  0  0
 15 58  1  0  0  0
 15 59  1  0  0  0
 16 17  1  0  0  0
 16 60  1  0  0  0
 16 61  1  0  0  0
 17 18  1  0  0  0
 17 62  1  0  0  0
 17 63  1  0  0  0
 18 64  1  0  0  0
 18 65  1  0  0  0
 19 20  1  0  0  0
 19 66  1  0  0  0
 20 21  1  0  0  0
 20 25  1  0  0  0
 20 67  1  0  0  0
 21 22  1  0  0  0
 21 23  1  0  0  0
 21 24  1  0  0  0
 22 68  1  0  0  0
 22 69  1  0  0  0
 22 70  1  0  0  0
 23 71  1  0  0  0
 23 72  1  0  0  0
 23 73  1  0  0  0
 24 74  1  0  0  0
 24 75  1  0  0  0
 24 76  1  0  0  0
 25 26  2  0  0  0
 25 28  1  0  0  0
 27 29  2  0  0  0
 27 30  1  0  0  0
 27 38  1  0  0  0
 28 30  1  0  0  0
 28 35  1  0  0  0
 30 31  1  0  0  0
 30 77  1  0  0  0
 31 32  1  0  0  0
 31 33  1  0  0  0
 31 78  1  0  0  0
 32 35  1  0  0  0
 32 36  1  0  0  0
 32 79  1  0  0  0
 33 34  1  0  0  0
 33 80  1  0  0  0
 33 81  1  0  0  0
 34 36  1  0  0  0
 34 82  1  0  0  0
 34 83  1  0  0  0
 35 84  1  0  0  0
 35 85  1  0  0  0
 36 86  1  0  0  0
 36 87  1  0  0  0
 37 44  1  0  0  0
 37 45  1  0  0  0
 37 88  1  0  0  0
 38 39  1  0  0  0
 38 89  1  0  0  0
 39 40  1  0  0  0
 39 41  1  0  0  0
 39 90  1  0  0  0
 40 44  1  0  0  0
 40 48  1  0  0  0
 40 91  1  0  0  0
 41 42  1  0  0  0
 41 92  1  0  0  0
 41 93  1  0  0  0
 42 43  1  0  0  0
 42 94  1  0  0  0
 42 95  1  0  0  0
 43 96  1  0  0  0
 43 97  1  0  0  0
 43 98  1  0  0  0
 44 49  2  0  0  0
 45 46  1  0  0  0
 45 47  1  0  0  0
 45 99  1  0  0  0
 46 47  1  0  0  0
 46100  1  0  0  0
 46101  1  0  0  0
 47102  1  0  0  0
 47103  1  0  0  0
 48104  1  0  0  0
M  END
> <s_m_source_file>
../3sv6_ligand.sdf

> <i_m_source_file_index>
1

> <s_epik_input>
bjFbY0hdW2NIXW5bY0hdYzFDKD1PKVtOSF1bQ0BASF0oW0NIXTJbQ0gyXVtDSDJdW0NIMl1bQ0gyXVtDSDJdMilDKD1PKVtOSF1bQ0BASF0oQyhbQ0gzXSkoW0NIM10pW0NIM10pQyg9TylOKFtDSDJdW0NAQEhdKFtDQEBIXTM0KVtDSDJdW0NIMl1bQ0gyXTQpW0NAQEhdM0MoPU8pW05IXVtDQEBIXShbQ0gyXVtDSDJdW0NIM10pW0NAQEhdKFtPSF0pQyg9TylbTkhdW0NIXTVbQ0gyXVtDSDJdNQ==

> <s_epik_cmdline>
J2VwaWtfYXBwJywgJy1pbWFlJywgJ2xpZ2FuZF9wcm8ubWFlJywgJy1vbWFlJywgJ2xpZ2FuZF9wcmVwLm1hZScsICctbXMnLCAnMScsICctcGgnLCAnNycsICctcGh0JywgJzAuNScsICctbnQn

> <r_lp_tautomer_probability>
1

> <r_epik_Ionization_Penalty>
  0.0000

> <r_epik_Ionization_Penalty_Charging>
  0.0000

> <r_epik_Ionization_Penalty_Neutral>
  0.0000

> <r_epik_State_Penalty>
 -0.0000

> <r_epik_Charging_Adjusted_Penalty>
0

> <i_epik_Tot_Q>
0

> <i_epik_Tot_abs_Q>
0

$$$$
