3sv7_ligand
                    3D
 Schrodinger Suite 2020-3.
104108  0  0  1  0            999 V2000
  -23.8730   -9.2040   13.2750 C   0  0  0  0  0  0
  -25.4500  -10.5990   12.3170 C   0  0  0  0  0  0
  -26.0850   -9.4860   11.7580 C   0  0  0  0  0  0
  -22.6080   -9.0100   14.1290 C   0  0  0  0  0  0
  -24.5140   -8.1000   12.7110 C   0  0  0  0  0  0
  -22.2640   -7.8860   14.5030 O   0  0  0  0  0  0
  -24.3600  -10.4400   13.0570 N   0  0  0  0  0  0
  -25.6040   -8.2670   11.9700 N   0  0  0  0  0  0
  -21.9580  -10.1360   14.4080 N   0  0  0  0  0  0
  -20.6890  -10.1580   15.1740 C   0  0  2  0  0  0
  -19.5460  -10.1090   14.1640 C   0  0  0  0  0  0
  -19.4390  -10.9700   13.2920 O   0  0  0  0  0  0
  -20.5810  -11.4000   16.0770 C   0  0  0  0  0  0
  -21.7240  -11.4240   17.1070 C   0  0  0  0  0  0
  -21.6230  -12.6650   17.9990 C   0  0  0  0  0  0
  -20.2640  -12.7180   18.7100 C   0  0  0  0  0  0
  -19.1070  -12.6770   17.7060 C   0  0  0  0  0  0
  -19.2220  -11.4510   16.8000 C   0  0  0  0  0  0
  -18.7500   -9.0580   14.2920 N   0  0  0  0  0  0
  -17.5980   -8.8340   13.4010 C   0  0  1  0  0  0
  -17.7250   -7.4650   12.6920 C   0  0  0  0  0  0
  -17.7690   -6.2500   13.6480 C   0  0  0  0  0  0
  -19.0190   -7.4810   11.8390 C   0  0  0  0  0  0
  -16.5090   -7.2970   11.7630 C   0  0  0  0  0  0
  -16.3040   -8.9400   14.2070 C   0  0  0  0  0  0
  -16.1180   -8.1830   15.1670 O   0  0  0  0  0  0
  -13.2110   -8.7970   14.1280 C   0  0  0  0  0  0
  -15.3740   -9.8290   13.8460 N   0  0  0  0  0  0
  -13.1730   -8.4150   12.9540 O   0  0  0  0  0  0
  -14.0760   -9.9800   14.5380 C   0  0  1  0  0  0
  -13.4740  -11.2880   14.0360 C   0  0  2  0  0  0
  -14.1470  -11.5370   12.6820 C   0  0  2  0  0  0
  -13.8810  -12.4750   14.9040 C   0  0  0  0  0  0
  -13.8540  -13.6430   13.9200 C   0  0  0  0  0  0
  -15.4900  -10.7860   12.7230 C   0  0  0  0  0  0
  -14.3900  -13.0430   12.6140 C   0  0  0  0  0  0
   -9.3210   -6.0730   13.1230 N   0  0  0  0  0  0
  -12.5200   -8.1990   15.0950 N   0  0  0  0  0  0
  -11.7870   -6.9770   14.7710 C   0  0  2  0  0  0
  -10.2940   -7.1160   15.0360 C   0  0  2  0  0  0
  -12.3970   -5.8250   15.5780 C   0  0  0  0  0  0
  -13.8320   -5.5530   15.0990 C   0  0  0  0  0  0
  -14.2380   -4.1250   15.4330 C   0  0  0  0  0  0
   -9.5100   -5.9640   14.4240 C   0  0  0  0  0  0
   -8.6180   -5.0410   12.3590 C   0  0  0  0  0  0
   -7.1380   -5.3250   12.1390 C   0  0  0  0  0  0
   -8.1330   -5.4910   10.9830 C   0  0  0  0  0  0
   -9.8020   -8.3470   14.5090 O   0  0  0  0  0  0
   -9.0630   -5.0520   15.1170 O   0  0  0  0  0  0
  -25.8505  -11.5980   12.1449 H   0  0  0  0  0  0
  -26.9774   -9.6195   11.1465 H   0  0  0  0  0  0
  -24.1192   -7.0980   12.8789 H   0  0  0  0  0  0
  -22.3982  -11.0768   14.0458 H   0  0  0  0  0  0
  -20.6754   -9.2762   15.8314 H   0  0  0  0  0  0
  -20.6631  -12.2867   15.4312 H   0  0  0  0  0  0
  -21.6664  -10.5259   17.7396 H   0  0  0  0  0  0
  -22.6904  -11.4413   16.5819 H   0  0  0  0  0  0
  -22.4187  -12.6367   18.7580 H   0  0  0  0  0  0
  -21.7358  -13.5694   17.3831 H   0  0  0  0  0  0
  -20.1703  -11.8557   19.3866 H   0  0  0  0  0  0
  -20.1900  -13.6494   19.2906 H   0  0  0  0  0  0
  -18.1517  -12.6296   18.2492 H   0  0  0  0  0  0
  -19.1299  -13.5832   17.0829 H   0  0  0  0  0  0
  -18.4125  -11.4938   16.0564 H   0  0  0  0  0  0
  -19.1027  -10.5505   17.4205 H   0  0  0  0  0  0
  -18.9719   -8.3399   15.0952 H   0  0  0  0  0  0
  -17.6095   -9.6311   12.6430 H   0  0  0  0  0  0
  -18.6314   -6.3464   14.3240 H   0  0  0  0  0  0
  -17.8650   -5.3248   13.0609 H   0  0  0  0  0  0
  -16.8419   -6.2147   14.2390 H   0  0  0  0  0  0
  -19.8913   -7.6009   12.4983 H   0  0  0  0  0  0
  -18.9790   -8.3192   11.1278 H   0  0  0  0  0  0
  -19.1050   -6.5343   11.2855 H   0  0  0  0  0  0
  -15.5876   -7.2850   12.3637 H   0  0  0  0  0  0
  -16.5983   -6.3505   11.2097 H   0  0  0  0  0  0
  -16.4723   -8.1354   11.0519 H   0  0  0  0  0  0
  -14.1912   -9.9977   15.6318 H   0  0  0  0  0  0
  -12.3772  -11.2045   14.0256 H   0  0  0  0  0  0
  -13.5522  -11.2073   11.8174 H   0  0  0  0  0  0
  -13.1573  -12.5951   15.7236 H   0  0  0  0  0  0
  -14.8826  -12.2969   15.3224 H   0  0  0  0  0  0
  -12.8223  -14.0095   13.8142 H   0  0  0  0  0  0
  -14.4945  -14.4543   14.2962 H   0  0  0  0  0  0
  -16.3285  -11.4725   12.9115 H   0  0  0  0  0  0
  -15.6706  -10.2346   11.7885 H   0  0  0  0  0  0
  -15.4680  -13.2362   12.5111 H   0  0  0  0  0  0
  -13.8581  -13.4615   11.7468 H   0  0  0  0  0  0
   -9.7071   -6.9678   12.6129 H   0  0  0  0  0  0
  -12.4916   -8.6025   16.1179 H   0  0  0  0  0  0
  -11.9032   -6.8150   13.6892 H   0  0  0  0  0  0
  -10.1261   -7.1624   16.1221 H   0  0  0  0  0  0
  -12.4154   -6.0939   16.6445 H   0  0  0  0  0  0
  -11.7901   -4.9182   15.4389 H   0  0  0  0  0  0
  -13.8885   -5.6972   14.0100 H   0  0  0  0  0  0
  -14.5230   -6.2488   15.5973 H   0  0  0  0  0  0
  -15.2658   -3.9451   15.0848 H   0  0  0  0  0  0
  -13.5536   -3.4230   14.9341 H   0  0  0  0  0  0
  -14.1881   -3.9747   16.5215 H   0  0  0  0  0  0
   -9.2152   -4.2053   12.7527 H   0  0  0  0  0  0
   -6.5553   -4.4153   12.3463 H   0  0  0  0  0  0
   -6.8145   -6.1297   12.8156 H   0  0  0  0  0  0
   -8.6321   -6.4319   10.7080 H   0  0  0  0  0  0
   -8.3729   -4.7175   10.2386 H   0  0  0  0  0  0
  -10.2452   -9.3002   14.8329 H   0  0  0  0  0  0
  1  4  1  0  0  0
  1  5  2  0  0  0
  1  7  1  0  0  0
  2  3  1  0  0  0
  2  7  2  0  0  0
  2 50  1  0  0  0
  3  8  2  0  0  0
  3 51  1  0  0  0
  4  6  2  0  0  0
  4  9  1  0  0  0
  5  8  1  0  0  0
  5 52  1  0  0  0
  9 10  1  0  0  0
  9 53  1  0  0  0
 10 11  1  0  0  0
 10 13  1  0  0  0
 10 54  1  0  0  0
 11 12  2  0  0  0
 11 19  1  0  0  0
 13 14  1  0  0  0
 13 18  1  0  0  0
 13 55  1  0  0  0
 14 15  1  0  0  0
 14 56  1  0  0  0
 14 57  1  0  0  0
 15 16  1  0  0  0
 15 58  1  0  0  0
 15 59  1  0  0  0
 16 17  1  0  0  0
 16 60  1  0  0  0
 16 61  1  0  0  0
 17 18  1  0  0  0
 17 62  1  0  0  0
 17 63  1  0  0  0
 18 64  1  0  0  0
 18 65  1  0  0  0
 19 20  1  0  0  0
 19 66  1  0  0  0
 20 21  1  0  0  0
 20 25  1  0  0  0
 20 67  1  0  0  0
 21 22  1  0  0  0
 21 23  1  0  0  0
 21 24  1  0  0  0
 22 68  1  0  0  0
 22 69  1  0  0  0
 22 70  1  0  0  0
 23 71  1  0  0  0
 23 72  1  0  0  0
 23 73  1  0  0  0
 24 74  1  0  0  0
 24 75  1  0  0  0
 24 76  1  0  0  0
 25 26  2  0  0  0
 25 28  1  0  0  0
 27 29  2  0  0  0
 27 30  1  0  0  0
 27 38  1  0  0  0
 28 30  1  0  0  0
 28 35  1  0  0  0
 30 31  1  0  0  0
 30 77  1  0  0  0
 31 32  1  0  0  0
 31 33  1  0  0  0
 31 78  1  0  0  0
 32 35  1  0  0  0
 32 36  1  0  0  0
 32 79  1  0  0  0
 33 34  1  0  0  0
 33 80  1  0  0  0
 33 81  1  0  0  0
 34 36  1  0  0  0
 34 82  1  0  0  0
 34 83  1  0  0  0
 35 84  1  0  0  0
 35 85  1  0  0  0
 36 86  1  0  0  0
 36 87  1  0  0  0
 37 44  1  0  0  0
 37 45  1  0  0  0
 37 88  1  0  0  0
 38 39  1  0  0  0
 38 89  1  0  0  0
 39 40  1  0  0  0
 39 41  1  0  0  0
 39 90  1  0  0  0
 40 44  1  0  0  0
 40 48  1  0  0  0
 40 91  1  0  0  0
 41 42  1  0  0  0
 41 92  1  0  0  0
 41 93  1  0  0  0
 42 43  1  0  0  0
 42 94  1  0  0  0
 42 95  1  0  0  0
 43 96  1  0  0  0
 43 97  1  0  0  0
 43 98  1  0  0  0
 44 49  2  0  0  0
 45 46  1  0  0  0
 45 47  1  0  0  0
 45 99  1  0  0  0
 46 47  1  0  0  0
 46100  1  0  0  0
 46101  1  0  0  0
 47102  1  0  0  0
 47103  1  0  0  0
 48104  1  0  0  0
M  END
> <s_m_source_file>
../3sv7_ligand.sdf

> <i_m_source_file_index>
1

> <s_epik_input>
bjFbY0hdW2NIXW5bY0hdYzFDKD1PKVtOSF1bQ0BASF0oW0NIXTJbQ0gyXVtDSDJdW0NIMl1bQ0gyXVtDSDJdMilDKD1PKVtOSF1bQ0BASF0oQyhbQ0gzXSkoW0NIM10pW0NIM10pQyg9TylOKFtDSDJdW0NAQEhdKFtDQEBIXTM0KVtDSDJdW0NIMl1bQ0gyXTQpW0NAQEhdM0MoPU8pW05IXVtDQEBIXShbQ0gyXVtDSDJdW0NIM10pW0NAQEhdKFtPSF0pQyg9TylbTkhdW0NIXTVbQ0gyXVtDSDJdNQ==

> <s_epik_cmdline>
J2VwaWtfYXBwJywgJy1pbWFlJywgJ2xpZ2FuZF9wcm8ubWFlJywgJy1vbWFlJywgJ2xpZ2FuZF9wcmVwLm1hZScsICctbXMnLCAnMScsICctcGgnLCAnNycsICctcGh0JywgJzAuNScsICctbnQn

> <r_lp_tautomer_probability>
1

> <r_epik_Ionization_Penalty>
  0.0000

> <r_epik_Ionization_Penalty_Charging>
  0.0000

> <r_epik_Ionization_Penalty_Neutral>
  0.0000

> <r_epik_State_Penalty>
 -0.0000

> <r_epik_Charging_Adjusted_Penalty>
0

> <i_epik_Tot_Q>
0

> <i_epik_Tot_abs_Q>
0

$$$$
