3sv8_ligand
                    3D
 Schrodinger Suite 2020-3.
104108  0  0  1  0            999 V2000
   -0.2790   19.7960   15.7000 C   0  0  0  0  0  0
    0.2800   21.1790   17.4990 C   0  0  0  0  0  0
    1.1540   20.2010   17.9600 C   0  0  0  0  0  0
   -1.0760   19.5710   14.4460 C   0  0  0  0  0  0
    0.5960   18.8160   16.1770 C   0  0  0  0  0  0
   -1.9080   20.3970   14.1030 O   0  0  0  0  0  0
   -0.4150   20.9580   16.3800 N   0  0  0  0  0  0
    1.3000   19.0430   17.2960 N   0  0  0  0  0  0
   -0.8440   18.4650   13.7390 N   0  0  0  0  0  0
   -1.5800   18.1680   12.5230 C   0  0  2  0  0  0
   -2.7130   17.2290   12.7960 C   0  0  0  0  0  0
   -2.4980   16.1700   13.3750 O   0  0  0  0  0  0
   -0.6290   17.4980   11.5310 C   0  0  0  0  0  0
    0.6390   18.3330   11.3080 C   0  0  0  0  0  0
    1.5300   17.8100   10.1830 C   0  0  0  0  0  0
    0.7370   17.4570    8.9270 C   0  0  0  0  0  0
   -0.4470   16.5400    9.2330 C   0  0  0  0  0  0
   -1.3650   17.2320   10.2190 C   0  0  0  0  0  0
   -3.8920   17.6630   12.3330 N   0  0  0  0  0  0
   -5.1230   16.9030   12.4460 C   0  0  1  0  0  0
   -6.1650   17.5790   13.3390 C   0  0  0  0  0  0
   -6.5650   18.9600   12.8240 C   0  0  0  0  0  0
   -5.5780   17.7620   14.7500 C   0  0  0  0  0  0
   -7.3780   16.6460   13.4000 C   0  0  0  0  0  0
   -5.6200   16.5900   11.0490 C   0  0  0  0  0  0
   -5.9870   17.4980   10.3180 O   0  0  0  0  0  0
   -7.5860   14.9450    9.2430 C   0  0  0  0  0  0
   -5.6020   15.3020   10.6450 N   0  0  0  0  0  0
   -8.2520   14.3900   10.1220 O   0  0  0  0  0  0
   -6.0720   14.8990    9.3120 C   0  0  1  0  0  0
   -5.4980   13.5010    9.1190 C   0  0  2  0  0  0
   -4.7850   13.1080   10.4030 C   0  0  2  0  0  0
   -4.4530   13.4120    8.0070 C   0  0  0  0  0  0
   -3.0980   13.5750    8.7010 C   0  0  0  0  0  0
   -5.1660   14.1500   11.4360 C   0  0  0  0  0  0
   -3.2800   13.0960   10.1390 C   0  0  0  0  0  0
  -12.1720   13.8490    7.6410 N   0  0  0  0  0  0
   -8.1670   15.6140    8.2350 N   0  0  0  0  0  0
   -9.6270   15.7390    8.1660 C   0  0  2  0  0  0
  -10.2170   15.0790    6.9060 C   0  0  2  0  0  0
   -9.8700   17.2470    8.2020 C   0  0  0  0  0  0
   -9.4410   17.8500    9.5380 C   0  0  0  0  0  0
   -9.4570   19.3660    9.5220 C   0  0  0  0  0  0
  -11.7240   14.9580    7.0290 C   0  0  0  0  0  0
  -13.6030   13.5820    7.8110 C   0  0  0  0  0  0
  -13.9760   12.9340    9.1410 C   0  0  0  0  0  0
  -14.2050   14.4260    8.9300 C   0  0  0  0  0  0
   -9.7450   13.7220    6.7540 O   0  0  0  0  0  0
  -12.4720   15.8300    6.5810 O   0  0  0  0  0  0
    0.1633   22.1154   18.0445 H   0  0  0  0  0  0
    1.7271   20.3761   18.8705 H   0  0  0  0  0  0
    0.7057   17.8724   15.6426 H   0  0  0  0  0  0
   -0.0720   17.7688   14.0986 H   0  0  0  0  0  0
   -1.9840   19.1248   12.1606 H   0  0  0  0  0  0
   -0.3035   16.5356   11.9528 H   0  0  0  0  0  0
    0.3579   19.3646   11.0497 H   0  0  0  0  0  0
    1.2421   18.3367   12.2279 H   0  0  0  0  0  0
    2.2687   18.5790    9.9127 H   0  0  0  0  0  0
    2.0522   16.9026   10.5206 H   0  0  0  0  0  0
    0.3474   18.3779    8.4685 H   0  0  0  0  0  0
    1.3940   16.9408    8.2115 H   0  0  0  0  0  0
   -0.9949   16.3261    8.3034 H   0  0  0  0  0  0
   -0.0791   15.5985    9.6667 H   0  0  0  0  0  0
   -2.2362   16.5886   10.4113 H   0  0  0  0  0  0
   -1.7019   18.1861    9.7876 H   0  0  0  0  0  0
   -3.8975   18.6497   11.8468 H   0  0  0  0  0  0
   -4.8659   15.9656   12.9610 H   0  0  0  0  0  0
   -5.6780   19.6096   12.7897 H   0  0  0  0  0  0
   -7.3154   19.3993   13.4977 H   0  0  0  0  0  0
   -6.9897   18.8657   11.8137 H   0  0  0  0  0  0
   -4.7074   18.4326   14.7008 H   0  0  0  0  0  0
   -5.2661   16.7847   15.1469 H   0  0  0  0  0  0
   -6.3410   18.1995   15.4106 H   0  0  0  0  0  0
   -7.7937   16.5185   12.3896 H   0  0  0  0  0  0
   -8.1432   17.0821   14.0590 H   0  0  0  0  0  0
   -7.0683   15.6673   13.7953 H   0  0  0  0  0  0
   -5.7287   15.5921    8.5298 H   0  0  0  0  0  0
   -6.3433   12.8471    8.8584 H   0  0  0  0  0  0
   -5.0733   12.1098   10.7643 H   0  0  0  0  0  0
   -4.5322   12.4355    7.5068 H   0  0  0  0  0  0
   -4.6274   14.2142    7.2749 H   0  0  0  0  0  0
   -2.3435   12.9680    8.1793 H   0  0  0  0  0  0
   -2.7983   14.6331    8.6763 H   0  0  0  0  0  0
   -4.3104   14.4391   12.0640 H   0  0  0  0  0  0
   -5.9932   13.8110   12.0769 H   0  0  0  0  0  0
   -2.7780   13.7707   10.8480 H   0  0  0  0  0  0
   -2.8931   12.0744   10.2684 H   0  0  0  0  0  0
  -11.4297   13.1309    8.0196 H   0  0  0  0  0  0
   -7.5385   16.0707    7.4563 H   0  0  0  0  0  0
  -10.0868   15.2088    9.0130 H   0  0  0  0  0  0
   -9.8999   15.6619    6.0287 H   0  0  0  0  0  0
   -9.2930   17.7306    7.4000 H   0  0  0  0  0  0
  -10.9413   17.4494    8.0562 H   0  0  0  0  0  0
  -10.1261   17.5123   10.3296 H   0  0  0  0  0  0
   -8.4175   17.5244    9.7755 H   0  0  0  0  0  0
   -9.1410   19.7464   10.5046 H   0  0  0  0  0  0
  -10.4751   19.7196    9.3020 H   0  0  0  0  0  0
   -8.7665   19.7318    8.7478 H   0  0  0  0  0  0
  -13.8147   13.3671    6.7532 H   0  0  0  0  0  0
  -14.7264   12.1484    8.9684 H   0  0  0  0  0  0
  -13.0788   12.4902    9.5970 H   0  0  0  0  0  0
  -13.4978   15.2203    9.2112 H   0  0  0  0  0  0
  -15.1455   14.8785    8.5826 H   0  0  0  0  0  0
   -8.6688   13.5232    6.6430 H   0  0  0  0  0  0
  1  4  1  0  0  0
  1  5  2  0  0  0
  1  7  1  0  0  0
  2  3  1  0  0  0
  2  7  2  0  0  0
  2 50  1  0  0  0
  3  8  2  0  0  0
  3 51  1  0  0  0
  4  6  2  0  0  0
  4  9  1  0  0  0
  5  8  1  0  0  0
  5 52  1  0  0  0
  9 10  1  0  0  0
  9 53  1  0  0  0
 10 11  1  0  0  0
 10 13  1  0  0  0
 10 54  1  0  0  0
 11 12  2  0  0  0
 11 19  1  0  0  0
 13 14  1  0  0  0
 13 18  1  0  0  0
 13 55  1  0  0  0
 14 15  1  0  0  0
 14 56  1  0  0  0
 14 57  1  0  0  0
 15 16  1  0  0  0
 15 58  1  0  0  0
 15 59  1  0  0  0
 16 17  1  0  0  0
 16 60  1  0  0  0
 16 61  1  0  0  0
 17 18  1  0  0  0
 17 62  1  0  0  0
 17 63  1  0  0  0
 18 64  1  0  0  0
 18 65  1  0  0  0
 19 20  1  0  0  0
 19 66  1  0  0  0
 20 21  1  0  0  0
 20 25  1  0  0  0
 20 67  1  0  0  0
 21 22  1  0  0  0
 21 23  1  0  0  0
 21 24  1  0  0  0
 22 68  1  0  0  0
 22 69  1  0  0  0
 22 70  1  0  0  0
 23 71  1  0  0  0
 23 72  1  0  0  0
 23 73  1  0  0  0
 24 74  1  0  0  0
 24 75  1  0  0  0
 24 76  1  0  0  0
 25 26  2  0  0  0
 25 28  1  0  0  0
 27 29  2  0  0  0
 27 30  1  0  0  0
 27 38  1  0  0  0
 28 30  1  0  0  0
 28 35  1  0  0  0
 30 31  1  0  0  0
 30 77  1  0  0  0
 31 32  1  0  0  0
 31 33  1  0  0  0
 31 78  1  0  0  0
 32 35  1  0  0  0
 32 36  1  0  0  0
 32 79  1  0  0  0
 33 34  1  0  0  0
 33 80  1  0  0  0
 33 81  1  0  0  0
 34 36  1  0  0  0
 34 82  1  0  0  0
 34 83  1  0  0  0
 35 84  1  0  0  0
 35 85  1  0  0  0
 36 86  1  0  0  0
 36 87  1  0  0  0
 37 44  1  0  0  0
 37 45  1  0  0  0
 37 88  1  0  0  0
 38 39  1  0  0  0
 38 89  1  0  0  0
 39 40  1  0  0  0
 39 41  1  0  0  0
 39 90  1  0  0  0
 40 44  1  0  0  0
 40 48  1  0  0  0
 40 91  1  0  0  0
 41 42  1  0  0  0
 41 92  1  0  0  0
 41 93  1  0  0  0
 42 43  1  0  0  0
 42 94  1  0  0  0
 42 95  1  0  0  0
 43 96  1  0  0  0
 43 97  1  0  0  0
 43 98  1  0  0  0
 44 49  2  0  0  0
 45 46  1  0  0  0
 45 47  1  0  0  0
 45 99  1  0  0  0
 46 47  1  0  0  0
 46100  1  0  0  0
 46101  1  0  0  0
 47102  1  0  0  0
 47103  1  0  0  0
 48104  1  0  0  0
M  END
> <s_m_source_file>
../3sv8_ligand.sdf

> <i_m_source_file_index>
1

> <s_epik_input>
bjFbY0hdW2NIXW5bY0hdYzFDKD1PKVtOSF1bQ0BASF0oW0NIXTJbQ0gyXVtDSDJdW0NIMl1bQ0gyXVtDSDJdMilDKD1PKVtOSF1bQ0BASF0oQyhbQ0gzXSkoW0NIM10pW0NIM10pQyg9TylOKFtDSDJdW0NAQEhdKFtDQEBIXTM0KVtDSDJdW0NIMl1bQ0gyXTQpW0NAQEhdM0MoPU8pW05IXVtDQEBIXShbQ0gyXVtDSDJdW0NIM10pW0NAQEhdKFtPSF0pQyg9TylbTkhdW0NIXTVbQ0gyXVtDSDJdNQ==

> <s_epik_cmdline>
J2VwaWtfYXBwJywgJy1pbWFlJywgJ2xpZ2FuZF9wcm8ubWFlJywgJy1vbWFlJywgJ2xpZ2FuZF9wcmVwLm1hZScsICctbXMnLCAnMScsICctcGgnLCAnNycsICctcGh0JywgJzAuNScsICctbnQn

> <r_lp_tautomer_probability>
1

> <r_epik_Ionization_Penalty>
  0.0000

> <r_epik_Ionization_Penalty_Charging>
  0.0000

> <r_epik_Ionization_Penalty_Neutral>
  0.0000

> <r_epik_State_Penalty>
 -0.0000

> <r_epik_Charging_Adjusted_Penalty>
0

> <i_epik_Tot_Q>
0

> <i_epik_Tot_abs_Q>
0

$$$$
