3sv9_ligand
                    3D
 Schrodinger Suite 2020-3.
104108  0  0  1  0            999 V2000
  -24.0150   -9.2160   13.1730 C   0  0  0  0  0  0
  -25.6340   -8.5070   11.6750 C   0  0  0  0  0  0
  -26.2630   -9.7500   11.7730 C   0  0  0  0  0  0
  -22.7340   -8.9340   13.9790 C   0  0  0  0  0  0
  -24.6560  -10.4550   13.2610 C   0  0  0  0  0  0
  -22.4700   -7.8000   14.3810 O   0  0  0  0  0  0
  -24.5310   -8.2650   12.3720 N   0  0  0  0  0  0
  -25.7580  -10.6890   12.5620 N   0  0  0  0  0  0
  -21.9590   -9.9930   14.2040 N   0  0  0  0  0  0
  -20.6930   -9.8900   14.9470 C   0  0  2  0  0  0
  -19.5690   -9.6830   13.9230 C   0  0  0  0  0  0
  -19.6280  -10.2050   12.8090 O   0  0  0  0  0  0
  -20.4870  -11.1580   15.7860 C   0  0  0  0  0  0
  -21.7610  -11.5000   16.5710 C   0  0  0  0  0  0
  -21.6050  -12.8250   17.3220 C   0  0  0  0  0  0
  -20.4010  -12.7910   18.2700 C   0  0  0  0  0  0
  -19.1210  -12.3170   17.5600 C   0  0  0  0  0  0
  -19.3360  -11.0110   16.7820 C   0  0  0  0  0  0
  -18.5950   -8.8520   14.2940 N   0  0  0  0  0  0
  -17.4630   -8.5460   13.3910 C   0  0  1  0  0  0
  -17.5630   -7.1030   12.8250 C   0  0  0  0  0  0
  -17.9060   -6.0570   13.9000 C   0  0  0  0  0  0
  -18.6310   -7.0630   11.7280 C   0  0  0  0  0  0
  -16.2150   -6.7080   12.2070 C   0  0  0  0  0  0
  -16.1570   -8.7440   14.1550 C   0  0  0  0  0  0
  -15.9920   -8.1490   15.2240 O   0  0  0  0  0  0
  -13.1000   -8.5740   14.0960 C   0  0  0  0  0  0
  -15.2160   -9.5850   13.6980 N   0  0  0  0  0  0
  -12.8810   -8.2160   12.9420 O   0  0  0  0  0  0
  -13.9280   -9.8060   14.3740 C   0  0  1  0  0  0
  -13.2960  -11.0400   13.7190 C   0  0  2  0  0  0
  -14.0350  -11.2450   12.3830 C   0  0  2  0  0  0
  -13.6010  -12.3020   14.5300 C   0  0  0  0  0  0
  -13.6120  -13.3840   13.4640 C   0  0  0  0  0  0
  -15.3060  -10.3540   12.4390 C   0  0  0  0  0  0
  -14.4400  -12.7290   12.3560 C   0  0  0  0  0  0
   -9.8550   -5.4990   13.1950 N   0  0  0  0  0  0
  -12.6890   -7.9030   15.1650 N   0  0  0  0  0  0
  -11.9570   -6.6280   14.9810 C   0  0  2  0  0  0
  -10.4800   -6.9250   14.9580 C   0  0  2  0  0  0
  -12.2830   -5.6060   16.0970 C   0  0  0  0  0  0
  -13.6070   -4.8740   15.8800 C   0  0  0  0  0  0
  -14.7130   -5.8530   15.5170 C   0  0  0  0  0  0
   -9.6740   -5.7970   14.4790 C   0  0  0  0  0  0
   -9.0670   -4.5000   12.4650 C   0  0  0  0  0  0
   -7.9950   -5.1120   11.5690 C   0  0  0  0  0  0
   -9.2570   -4.5240   10.9480 C   0  0  0  0  0  0
  -10.1150   -8.0060   14.1320 O   0  0  0  0  0  0
   -8.8850   -5.2740   15.2560 O   0  0  0  0  0  0
  -26.0490   -7.7357   11.0261 H   0  0  0  0  0  0
  -27.1693   -9.9486   11.2009 H   0  0  0  0  0  0
  -24.2481  -11.2323   13.9072 H   0  0  0  0  0  0
  -22.2909  -10.9670   13.8152 H   0  0  0  0  0  0
  -20.7402   -9.0307   15.6321 H   0  0  0  0  0  0
  -20.2400  -11.9635   15.0788 H   0  0  0  0  0  0
  -21.9668  -10.7034   17.3011 H   0  0  0  0  0  0
  -22.6083  -11.5872   15.8749 H   0  0  0  0  0  0
  -22.5110  -13.0194   17.9147 H   0  0  0  0  0  0
  -21.4577  -13.6410   16.5992 H   0  0  0  0  0  0
  -20.6081  -12.1009   19.1012 H   0  0  0  0  0  0
  -20.2191  -13.8002   18.6681 H   0  0  0  0  0  0
  -18.3311  -12.1433   18.3055 H   0  0  0  0  0  0
  -18.7900  -13.0872   16.8478 H   0  0  0  0  0  0
  -18.4113  -10.7640   16.2399 H   0  0  0  0  0  0
  -19.5688  -10.2066   17.4953 H   0  0  0  0  0  0
  -18.6431   -8.3907   15.2914 H   0  0  0  0  0  0
  -17.5192   -9.2589   12.5551 H   0  0  0  0  0  0
  -18.8701   -6.3113   14.3646 H   0  0  0  0  0  0
  -17.9739   -5.0623   13.4352 H   0  0  0  0  0  0
  -17.1192   -6.0496   14.6687 H   0  0  0  0  0  0
  -19.6053   -7.3440   12.1544 H   0  0  0  0  0  0
  -18.3627   -7.7700   10.9291 H   0  0  0  0  0  0
  -18.6920   -6.0463   11.3126 H   0  0  0  0  0  0
  -15.4352   -6.7315   12.9825 H   0  0  0  0  0  0
  -16.2865   -5.6928   11.7895 H   0  0  0  0  0  0
  -15.9572   -7.4165   11.4061 H   0  0  0  0  0  0
  -14.0439   -9.9535   15.4579 H   0  0  0  0  0  0
  -12.2097  -10.8890   13.6347 H   0  0  0  0  0  0
  -13.4289  -10.9940   11.5000 H   0  0  0  0  0  0
  -12.8136  -12.4530   15.2832 H   0  0  0  0  0  0
  -14.5727  -12.1887   15.0330 H   0  0  0  0  0  0
  -12.5795  -13.6065   13.1567 H   0  0  0  0  0  0
  -14.0779  -14.2940   13.8700 H   0  0  0  0  0  0
  -16.2190  -10.9675   12.4486 H   0  0  0  0  0  0
  -15.3399   -9.6594   11.5867 H   0  0  0  0  0  0
  -15.5194  -12.8180   12.5484 H   0  0  0  0  0  0
  -14.2072  -13.1547   11.3688 H   0  0  0  0  0  0
  -10.6525   -6.0543   12.6795 H   0  0  0  0  0  0
  -12.8859   -8.2829   16.1784 H   0  0  0  0  0  0
  -12.2744   -6.2114   14.0137 H   0  0  0  0  0  0
  -10.2329   -7.2028   15.9933 H   0  0  0  0  0  0
  -12.3476   -6.1269   17.0637 H   0  0  0  0  0  0
  -11.4886   -4.8465   16.1421 H   0  0  0  0  0  0
  -13.8897   -4.3463   16.8028 H   0  0  0  0  0  0
  -13.4945   -4.1473   15.0619 H   0  0  0  0  0  0
  -15.6540   -5.3036   15.3661 H   0  0  0  0  0  0
  -14.8401   -6.5811   16.3317 H   0  0  0  0  0  0
  -14.4448   -6.3822   14.5907 H   0  0  0  0  0  0
   -9.1110   -3.7341   13.2534 H   0  0  0  0  0  0
   -7.0477   -4.5706   11.7085 H   0  0  0  0  0  0
   -7.8551   -6.1702   11.8349 H   0  0  0  0  0  0
  -10.1650   -5.0937   10.7012 H   0  0  0  0  0  0
   -9.3575   -3.4942   10.5747 H   0  0  0  0  0  0
  -10.5795   -8.9922   14.2794 H   0  0  0  0  0  0
  1  4  1  0  0  0
  1  5  2  0  0  0
  1  7  1  0  0  0
  2  3  1  0  0  0
  2  7  2  0  0  0
  2 50  1  0  0  0
  3  8  2  0  0  0
  3 51  1  0  0  0
  4  6  2  0  0  0
  4  9  1  0  0  0
  5  8  1  0  0  0
  5 52  1  0  0  0
  9 10  1  0  0  0
  9 53  1  0  0  0
 10 11  1  0  0  0
 10 13  1  0  0  0
 10 54  1  0  0  0
 11 12  2  0  0  0
 11 19  1  0  0  0
 13 14  1  0  0  0
 13 18  1  0  0  0
 13 55  1  0  0  0
 14 15  1  0  0  0
 14 56  1  0  0  0
 14 57  1  0  0  0
 15 16  1  0  0  0
 15 58  1  0  0  0
 15 59  1  0  0  0
 16 17  1  0  0  0
 16 60  1  0  0  0
 16 61  1  0  0  0
 17 18  1  0  0  0
 17 62  1  0  0  0
 17 63  1  0  0  0
 18 64  1  0  0  0
 18 65  1  0  0  0
 19 20  1  0  0  0
 19 66  1  0  0  0
 20 21  1  0  0  0
 20 25  1  0  0  0
 20 67  1  0  0  0
 21 22  1  0  0  0
 21 23  1  0  0  0
 21 24  1  0  0  0
 22 68  1  0  0  0
 22 69  1  0  0  0
 22 70  1  0  0  0
 23 71  1  0  0  0
 23 72  1  0  0  0
 23 73  1  0  0  0
 24 74  1  0  0  0
 24 75  1  0  0  0
 24 76  1  0  0  0
 25 26  2  0  0  0
 25 28  1  0  0  0
 27 29  2  0  0  0
 27 30  1  0  0  0
 27 38  1  0  0  0
 28 30  1  0  0  0
 28 35  1  0  0  0
 30 31  1  0  0  0
 30 77  1  0  0  0
 31 32  1  0  0  0
 31 33  1  0  0  0
 31 78  1  0  0  0
 32 35  1  0  0  0
 32 36  1  0  0  0
 32 79  1  0  0  0
 33 34  1  0  0  0
 33 80  1  0  0  0
 33 81  1  0  0  0
 34 36  1  0  0  0
 34 82  1  0  0  0
 34 83  1  0  0  0
 35 84  1  0  0  0
 35 85  1  0  0  0
 36 86  1  0  0  0
 36 87  1  0  0  0
 37 44  1  0  0  0
 37 45  1  0  0  0
 37 88  1  0  0  0
 38 39  1  0  0  0
 38 89  1  0  0  0
 39 40  1  0  0  0
 39 41  1  0  0  0
 39 90  1  0  0  0
 40 44  1  0  0  0
 40 48  1  0  0  0
 40 91  1  0  0  0
 41 42  1  0  0  0
 41 92  1  0  0  0
 41 93  1  0  0  0
 42 43  1  0  0  0
 42 94  1  0  0  0
 42 95  1  0  0  0
 43 96  1  0  0  0
 43 97  1  0  0  0
 43 98  1  0  0  0
 44 49  2  0  0  0
 45 46  1  0  0  0
 45 47  1  0  0  0
 45 99  1  0  0  0
 46 47  1  0  0  0
 46100  1  0  0  0
 46101  1  0  0  0
 47102  1  0  0  0
 47103  1  0  0  0
 48104  1  0  0  0
M  END
> <s_m_source_file>
../3sv9_ligand.sdf

> <i_m_source_file_index>
1

> <s_epik_input>
bjFbY0hdW2NIXW5bY0hdYzFDKD1PKVtOSF1bQ0BASF0oW0NIXTJbQ0gyXVtDSDJdW0NIMl1bQ0gyXVtDSDJdMilDKD1PKVtOSF1bQ0BASF0oQyhbQ0gzXSkoW0NIM10pW0NIM10pQyg9TylOKFtDSDJdW0NAQEhdKFtDQEBIXTM0KVtDSDJdW0NIMl1bQ0gyXTQpW0NAQEhdM0MoPU8pW05IXVtDQEBIXShbQ0gyXVtDSDJdW0NIM10pW0NAQEhdKFtPSF0pQyg9TylbTkhdW0NIXTVbQ0gyXVtDSDJdNQ==

> <s_epik_cmdline>
J2VwaWtfYXBwJywgJy1pbWFlJywgJ2xpZ2FuZF9wcm8ubWFlJywgJy1vbWFlJywgJ2xpZ2FuZF9wcmVwLm1hZScsICctbXMnLCAnMScsICctcGgnLCAnNycsICctcGh0JywgJzAuNScsICctbnQn

> <r_lp_tautomer_probability>
1

> <r_epik_Ionization_Penalty>
  0.0000

> <r_epik_Ionization_Penalty_Charging>
  0.0000

> <r_epik_Ionization_Penalty_Neutral>
  0.0000

> <r_epik_State_Penalty>
 -0.0000

> <r_epik_Charging_Adjusted_Penalty>
0

> <i_epik_Tot_Q>
0

> <i_epik_Tot_abs_Q>
0

$$$$
