3svj_ligand
                    3D
 Schrodinger Suite 2020-3.
 72 76  0  0  1  0            999 V2000
   20.0290   -8.6810    0.1580 C   0  0  0  0  0  0
   19.2690   -7.6980   -0.4310 C   0  0  0  0  0  0
   21.3210  -12.6650    8.8860 C   0  0  0  0  0  0
   22.6600  -12.8690    8.6580 C   0  0  0  0  0  0
   20.8740  -11.4310    9.2950 C   0  0  0  0  0  0
   20.4940   -8.5240    1.4440 C   0  0  0  0  0  0
   18.9760   -6.5540    0.2720 C   0  0  0  0  0  0
   23.5280  -11.8210    8.8510 C   0  0  0  0  0  0
   21.7550  -10.3910    9.4830 C   0  0  0  0  0  0
   20.2060   -7.3830    2.1540 C   0  0  0  0  0  0
   23.0990  -10.5790    9.2600 C   0  0  0  0  0  0
   19.4450   -6.4050    1.5550 C   0  0  0  0  0  0
   23.3600   -7.5640    6.5550 C   0  0  0  0  0  0
   25.0340   -6.5900    7.7530 C   0  0  0  0  0  0
   24.0680   -8.5070    8.4870 C   0  0  0  0  0  0
   24.9470  -12.0580    8.5980 C   0  0  0  0  0  0
   26.0060   -4.5660    5.7340 C   0  0  0  0  0  0
   20.8040   -8.4960    4.1170 C   0  0  0  0  0  0
   21.8960   -6.4250    3.4160 C   0  0  0  0  0  0
   21.2920   -8.2640    5.5330 C   0  0  0  0  0  0
   22.4590   -6.2390    4.8060 C   0  0  0  0  0  0
   26.3060   -3.2010    7.7740 C   0  0  0  0  0  0
   26.2000   -5.3140    9.3230 C   0  0  0  0  0  0
   25.5850   -4.3850    7.1670 C   0  0  2  0  0  0
   21.2500   -9.0650    9.9290 C   0  0  0  0  0  0
   26.9900  -12.9670    9.5400 C   0  0  0  0  0  0
   27.3660   -5.8800    4.2280 C   0  0  0  0  0  0
   24.2420   -6.5700    6.6820 N   0  0  0  0  0  0
   23.2430   -8.5610    7.4370 N   0  0  0  0  0  0
   24.9740   -7.5460    8.6820 N   0  0  0  0  0  0
   20.6730   -7.2050    3.4680 N   0  0  0  0  0  0
   22.5410   -7.5470    5.4150 N   0  0  0  0  0  0
   25.9840   -5.5650    7.9160 N   0  0  0  0  0  0
   23.9900   -9.5200    9.4510 N   0  0  0  0  0  0
   25.6090  -12.5910    9.6650 N   0  0  0  0  0  0
   26.9060   -5.5850    5.5590 N   0  0  0  0  0  0
   25.4250  -11.7920    7.5050 O   0  0  0  0  0  0
   25.5720   -3.8780    4.8220 O   0  0  0  0  0  0
   26.3700   -3.5310    9.5500 S   0  0  0  0  0  0
   19.0750   -4.9710    2.4310 Cl  0  0  0  0  0  0
   20.2645   -9.5894   -0.3964 H   0  0  0  0  0  0
   18.9012   -7.8253   -1.4491 H   0  0  0  0  0  0
   20.6130  -13.4813    8.7427 H   0  0  0  0  0  0
   23.0267  -13.8419    8.3308 H   0  0  0  0  0  0
   19.8099  -11.2747    9.4723 H   0  0  0  0  0  0
   21.0946   -9.3097    1.9023 H   0  0  0  0  0  0
   18.3745   -5.7687   -0.1859 H   0  0  0  0  0  0
   21.5309   -9.1199    3.5763 H   0  0  0  0  0  0
   19.8304   -9.0072    4.1438 H   0  0  0  0  0  0
   21.6762   -5.4416    2.9748 H   0  0  0  0  0  0
   22.6314   -6.9516    2.7900 H   0  0  0  0  0  0
   20.5466   -7.6731    6.0855 H   0  0  0  0  0  0
   21.4369   -9.2324    6.0342 H   0  0  0  0  0  0
   23.4569   -5.7810    4.7391 H   0  0  0  0  0  0
   21.7930   -5.5838    5.3867 H   0  0  0  0  0  0
   27.3153   -3.1261    7.3432 H   0  0  0  0  0  0
   25.7455   -2.2797    7.5570 H   0  0  0  0  0  0
   25.3416   -5.6907    9.8986 H   0  0  0  0  0  0
   27.1154   -5.8283    9.6509 H   0  0  0  0  0  0
   24.4935   -4.2596    7.2215 H   0  0  0  0  0  0
   20.1580   -9.1113   10.0528 H   0  0  0  0  0  0
   21.5017   -8.3044    9.1753 H   0  0  0  0  0  0
   21.7169   -8.7988   10.8888 H   0  0  0  0  0  0
   27.3473  -13.3741   10.4974 H   0  0  0  0  0  0
   27.5877  -12.0835    9.2714 H   0  0  0  0  0  0
   27.0923  -13.7313    8.7555 H   0  0  0  0  0  0
   28.0780   -6.7177    4.2634 H   0  0  0  0  0  0
   27.8633   -4.9937    3.8071 H   0  0  0  0  0  0
   26.5084   -6.1541    3.5960 H   0  0  0  0  0  0
   24.6211   -9.4878   10.3514 H   0  0  0  0  0  0
   25.0848  -12.7329   10.6216 H   0  0  0  0  0  0
   27.2765   -6.1727    6.4118 H   0  0  0  0  0  0
  1  2  2  0  0  0
  1  6  1  0  0  0
  1 41  1  0  0  0
  2  7  1  0  0  0
  2 42  1  0  0  0
  3  4  2  0  0  0
  3  5  1  0  0  0
  3 43  1  0  0  0
  4  8  1  0  0  0
  4 44  1  0  0  0
  5  9  2  0  0  0
  5 45  1  0  0  0
  6 10  2  0  0  0
  6 46  1  0  0  0
  7 12  2  0  0  0
  7 47  1  0  0  0
  8 11  2  0  0  0
  8 16  1  0  0  0
  9 11  1  0  0  0
  9 25  1  0  0  0
 10 12  1  0  0  0
 10 31  1  0  0  0
 11 34  1  0  0  0
 12 40  1  0  0  0
 13 28  2  0  0  0
 13 29  1  0  0  0
 13 32  1  0  0  0
 14 28  1  0  0  0
 14 30  2  0  0  0
 14 33  1  0  0  0
 15 29  2  0  0  0
 15 30  1  0  0  0
 15 34  1  0  0  0
 16 35  1  0  0  0
 16 37  2  0  0  0
 17 24  1  0  0  0
 17 36  1  0  0  0
 17 38  2  0  0  0
 18 20  1  0  0  0
 18 31  1  0  0  0
 18 48  1  0  0  0
 18 49  1  0  0  0
 19 21  1  0  0  0
 19 31  1  0  0  0
 19 50  1  0  0  0
 19 51  1  0  0  0
 20 32  1  0  0  0
 20 52  1  0  0  0
 20 53  1  0  0  0
 21 32  1  0  0  0
 21 54  1  0  0  0
 21 55  1  0  0  0
 22 24  1  0  0  0
 22 39  1  0  0  0
 22 56  1  0  0  0
 22 57  1  0  0  0
 23 33  1  0  0  0
 23 39  1  0  0  0
 23 58  1  0  0  0
 23 59  1  0  0  0
 24 33  1  0  0  0
 24 60  1  0  0  0
 25 61  1  0  0  0
 25 62  1  0  0  0
 25 63  1  0  0  0
 26 35  1  0  0  0
 26 64  1  0  0  0
 26 65  1  0  0  0
 26 66  1  0  0  0
 27 36  1  0  0  0
 27 67  1  0  0  0
 27 68  1  0  0  0
 27 69  1  0  0  0
 34 70  1  0  0  0
 35 71  1  0  0  0
 36 72  1  0  0  0
M  END
> <s_m_source_file>
../3svj_ligand.sdf

> <i_m_source_file_index>
1

> <s_epik_input>
Q2xjMVtjSF1bY0hdW2NIXVtjSF1jMU4yW0NIMl1bQ0gyXU4oW0NIMl1bQ0gyXTIpYzNuYyhONFtDSDJdU1tDSDJdW0NASF00Qyg9TylbTkhdW0NIM10pbmMobjMpW05IXWM1YyhbQ0gzXSlbY0hdW2NIXVtjSF1jNUMoPU8pW05IXVtDSDNd

> <s_epik_cmdline>
J2VwaWtfYXBwJywgJy1pbWFlJywgJ2xpZ2FuZF9wcm8ubWFlJywgJy1vbWFlJywgJ2xpZ2FuZF9wcmVwLm1hZScsICctbXMnLCAnMScsICctcGgnLCAnNycsICctcGh0JywgJzAuNScsICctbnQn

> <r_lp_tautomer_probability>
0.999999999999623

> <r_epik_Ionization_Penalty>
  0.0659

> <r_epik_Ionization_Penalty_Charging>
  0.0000

> <r_epik_Ionization_Penalty_Neutral>
  0.0659

> <r_epik_State_Penalty>
  0.0521

> <r_epik_Charging_Adjusted_Penalty>
0.0521054450260582

> <i_epik_Tot_Q>
0

> <i_epik_Tot_abs_Q>
0

> <s_epik_Chemistry_Notes>
This compound contains an acetal/aminal-like group ( X-CH(R)-Y where X, Y are N, S, or O) that may be acid/base labile, releasing an aldehyde.

$$$$
