3svv_ligand
                    3D
 Schrodinger Suite 2020-3.
 48 50  0  0  1  0            999 V2000
  -12.0730   10.2680    5.8780 C   0  0  0  0  0  0
   -9.4150   12.0090    8.1380 C   0  0  0  0  0  0
   -9.1730   15.5000    9.5380 C   0  0  0  0  0  0
   -9.7240   11.4470   10.4880 C   0  0  0  0  0  0
  -10.7960   10.6110   10.1410 C   0  0  0  0  0  0
   -6.5120   15.0970    9.5460 O   0  0  0  0  0  0
  -13.5840   12.6370    7.3760 N   0  0  0  0  0  0
  -10.8200   11.0610    6.3360 C   0  0  0  0  0  0
  -14.2340   11.5900    6.6850 C   0  0  0  0  0  0
  -10.4800   11.1650    7.8080 C   0  0  0  0  0  0
  -13.4990   10.5940    6.0480 C   0  0  0  0  0  0
  -11.1780   10.4540    8.8070 C   0  0  0  0  0  0
  -15.5780    9.5390    5.3510 N   0  0  0  0  0  0
  -14.2140    9.5410    5.3680 C   0  0  0  0  0  0
   -9.0400   12.1460    9.4900 C   0  0  0  0  0  0
  -13.2770    8.7200    4.8450 N   0  0  0  0  0  0
   -7.9410   13.0110    9.8440 N   0  0  0  0  0  0
  -16.2660   10.5070    5.9720 C   0  0  0  0  0  0
  -15.5950   11.5310    6.6170 N   0  0  0  0  0  0
  -13.5640    7.5240    4.0640 C   0  0  0  0  0  0
   -7.7580   14.4940    9.1370 S   0  0  0  0  0  0
  -12.6880    6.3690    4.5320 C   0  0  0  0  0  0
  -13.2660    7.8250    2.6140 C   0  0  0  0  0  0
   -9.2540   15.8240   11.0140 C   0  0  0  0  0  0
  -12.0380    9.1430    5.1500 N   0  0  0  0  0  0
   -7.5600   14.4380    7.7010 O   0  0  0  0  0  0
   -8.8814   12.5542    7.3595 H   0  0  0  0  0  0
   -9.1163   16.4495    8.9855 H   0  0  0  0  0  0
  -10.0933   14.9669    9.2573 H   0  0  0  0  0  0
   -9.4261   11.5507   11.5314 H   0  0  0  0  0  0
  -11.3373   10.0775   10.9223 H   0  0  0  0  0  0
  -12.4853   12.6680    7.4201 H   0  0  0  0  0  0
  -14.1766   13.4212    7.8698 H   0  0  0  0  0  0
   -9.9198   10.6146    5.8884 H   0  0  0  0  0  0
  -10.9100   12.1082    6.0116 H   0  0  0  0  0  0
  -12.0026    9.7924    8.5416 H   0  0  0  0  0  0
   -7.2177   12.6684   10.5986 H   0  0  0  0  0  0
  -17.3558   10.4877    5.9690 H   0  0  0  0  0  0
  -14.6256    7.2755    4.2100 H   0  0  0  0  0  0
  -12.9044    6.1492    5.5879 H   0  0  0  0  0  0
  -11.6287    6.6453    4.4246 H   0  0  0  0  0  0
  -12.8984    5.4785    3.9215 H   0  0  0  0  0  0
  -13.8982    8.6590    2.2752 H   0  0  0  0  0  0
  -13.4762    6.9342    2.0039 H   0  0  0  0  0  0
  -12.2066    8.1010    2.5071 H   0  0  0  0  0  0
  -10.1421   16.4443   11.2050 H   0  0  0  0  0  0
   -8.3509   16.3729   11.3190 H   0  0  0  0  0  0
   -9.3279   14.8903   11.5908 H   0  0  0  0  0  0
  1  8  1  0  0  0
  1 11  1  0  0  0
  1 25  2  0  0  0
  2 10  2  0  0  0
  2 15  1  0  0  0
  2 27  1  0  0  0
  3 21  1  0  0  0
  3 24  1  0  0  0
  3 28  1  0  0  0
  3 29  1  0  0  0
  4  5  1  0  0  0
  4 15  2  0  0  0
  4 30  1  0  0  0
  5 12  2  0  0  0
  5 31  1  0  0  0
  6 21  2  0  0  0
  7  9  1  0  0  0
  7 32  1  0  0  0
  7 33  1  0  0  0
  8 10  1  0  0  0
  8 34  1  0  0  0
  8 35  1  0  0  0
  9 11  2  0  0  0
  9 19  1  0  0  0
 10 12  1  0  0  0
 11 14  1  0  0  0
 12 36  1  0  0  0
 13 14  2  0  0  0
 13 18  1  0  0  0
 14 16  1  0  0  0
 15 17  1  0  0  0
 16 20  1  0  0  0
 16 25  1  0  0  0
 17 21  1  0  0  0
 17 37  1  0  0  0
 18 19  2  0  0  0
 18 38  1  0  0  0
 20 22  1  0  0  0
 20 23  1  0  0  0
 20 39  1  0  0  0
 21 26  2  0  0  0
 22 40  1  0  0  0
 22 41  1  0  0  0
 22 42  1  0  0  0
 23 43  1  0  0  0
 23 44  1  0  0  0
 23 45  1  0  0  0
 24 46  1  0  0  0
 24 47  1  0  0  0
 24 48  1  0  0  0
M  END
> <s_m_source_file>
../3svv_ligand.sdf

> <i_m_source_file_index>
1

> <s_epik_input>
W0NIM11bQ0gyXVMoPU8pKD1PKVtOSF1jKFtjSF1bY0hdW2NIXTEpW2NIXWMxW0NIMl1jMm5uKFtDSF0oW0NIM10pW0NIM10pYyhjMjMpbltjSF1uYzNbTkgyXQ==

> <s_epik_cmdline>
J2VwaWtfYXBwJywgJy1pbWFlJywgJ2xpZ2FuZF9wcm8ubWFlJywgJy1vbWFlJywgJ2xpZ2FuZF9wcmVwLm1hZScsICctbXMnLCAnMScsICctcGgnLCAnNycsICctcGh0JywgJzAuNScsICctbnQn

> <r_epik_Ionization_Penalty>
  0.0137

> <r_epik_Ionization_Penalty_Charging>
  0.0000

> <r_epik_Ionization_Penalty_Neutral>
  0.0137

> <r_epik_State_Penalty>
  0.0091

> <r_epik_Charging_Adjusted_Penalty>
0.00914661601002853

> <i_epik_Tot_Q>
0

> <i_epik_Tot_abs_Q>
0

$$$$
