3sw2_ligand
                    3D
 Schrodinger Suite 2020-3.
 68 73  0  0  1  0            999 V2000
   10.0510   45.2140   62.5900 C   0  0  0  0  0  0
   10.1080   43.4220   65.8670 C   0  0  0  0  0  0
    8.6980   45.3160   62.3670 C   0  0  0  0  0  0
   11.4520   43.3150   66.1130 C   0  0  0  0  0  0
    8.2350   44.1610   64.4360 C   0  0  0  0  0  0
   11.9360   44.4680   64.0310 C   0  0  0  0  0  0
    9.6270   44.0540   64.6940 C   0  0  0  0  0  0
   10.5520   44.5910   63.7670 C   0  0  0  0  0  0
    7.7510   44.7820   63.2990 C   0  0  0  0  0  0
   12.3850   43.8410   65.1790 C   0  0  0  0  0  0
    5.7650   40.8930   54.7310 C   0  0  0  0  0  0
    4.8200   40.1370   55.3440 C   0  0  0  0  0  0
    7.1250   40.4640   54.7400 C   0  0  0  0  0  0
    7.4710   39.2820   55.3620 C   0  0  0  0  0  0
    5.1670   38.8840   56.0210 C   0  0  0  0  0  0
    7.0540   42.3240   60.4260 C   0  0  0  0  0  0
    7.9560   39.7730   58.6200 C   0  0  0  0  0  0
    4.2810   41.9170   59.8760 C   0  0  0  0  0  0
    4.7190   41.8210   61.3210 C   0  0  0  0  0  0
    9.0780   37.3610   55.5110 C   0  0  0  0  0  0
    5.3290   41.3740   58.9090 C   0  0  0  0  0  0
    9.4570   39.5580   56.6500 C   0  0  0  0  0  0
    6.8970   37.2450   56.6800 C   0  0  0  0  0  0
    9.0120   37.6090   58.0200 C   0  0  0  0  0  0
    8.9130   38.8710   55.3900 C   0  0  2  0  0  0
    6.0060   42.6550   61.5170 C   0  0  2  0  0  0
    8.3940   36.9100   56.7920 C   0  0  2  0  0  0
    7.7130   41.2630   58.3440 C   0  0  0  0  0  0
    6.5380   38.4930   56.0080 N   0  0  0  0  0  0
    6.6930   41.6910   59.2590 N   0  0  0  0  0  0
    8.8020   39.0060   57.8180 N   0  0  0  0  0  0
    5.7970   44.0740   61.6460 N   0  0  3  0  0  0
    4.3400   38.1460   56.6040 O   0  0  0  0  0  0
    8.2440   42.6140   60.5830 O   0  0  0  0  0  0
    7.4020   39.2410   59.6020 O   0  0  0  0  0  0
    5.4370   44.2590   64.1310 O   0  0  0  0  0  0
    5.7180   46.2160   62.7930 O   0  0  0  0  0  0
    6.0710   44.8800   63.0350 S   0  0  0  0  0  0
   14.0540   43.6650   65.5290 Cl  0  0  0  0  0  0
   10.7489   45.6157   61.8554 H   0  0  0  0  0  0
    9.3974   43.0140   66.5858 H   0  0  0  0  0  0
    8.3400   45.8121   61.4649 H   0  0  0  0  0  0
   11.8042   42.8279   67.0223 H   0  0  0  0  0  0
    7.5289   43.7425   65.1532 H   0  0  0  0  0  0
   12.6575   44.8723   63.3210 H   0  0  0  0  0  0
    5.4865   41.8226   54.2346 H   0  0  0  0  0  0
    3.7815   40.4680   55.3329 H   0  0  0  0  0  0
    7.8909   41.0697   54.2556 H   0  0  0  0  0  0
    3.3571   41.3373   59.7337 H   0  0  0  0  0  0
    4.0964   42.9703   59.6180 H   0  0  0  0  0  0
    3.9229   42.2112   61.9721 H   0  0  0  0  0  0
    4.9178   40.7693   61.5748 H   0  0  0  0  0  0
    8.6147   36.8708   54.6421 H   0  0  0  0  0  0
   10.1486   37.1107   55.5456 H   0  0  0  0  0  0
    5.2574   40.2771   58.8688 H   0  0  0  0  0  0
    5.1529   41.7899   57.9060 H   0  0  0  0  0  0
   10.5414   39.3876   56.7214 H   0  0  0  0  0  0
    9.2586   40.6385   56.5932 H   0  0  0  0  0  0
    6.3848   36.4512   56.1165 H   0  0  0  0  0  0
    6.4614   37.3191   57.6874 H   0  0  0  0  0  0
    8.5096   37.2577   58.9333 H   0  0  0  0  0  0
   10.0843   37.3705   58.0766 H   0  0  0  0  0  0
    9.4192   39.1555   54.4557 H   0  0  0  0  0  0
    6.3948   42.4345   62.5221 H   0  0  0  0  0  0
    8.5364   35.8259   56.9125 H   0  0  0  0  0  0
    8.6455   41.8230   58.5076 H   0  0  0  0  0  0
    7.3845   41.3942   57.3024 H   0  0  0  0  0  0
    5.5989   44.6842   60.7525 H   0  0  0  0  0  0
  1  3  2  0  0  0
  1  8  1  0  0  0
  1 40  1  0  0  0
  2  4  1  0  0  0
  2  7  2  0  0  0
  2 41  1  0  0  0
  3  9  1  0  0  0
  3 42  1  0  0  0
  4 10  2  0  0  0
  4 43  1  0  0  0
  5  7  1  0  0  0
  5  9  2  0  0  0
  5 44  1  0  0  0
  6  8  2  0  0  0
  6 10  1  0  0  0
  6 45  1  0  0  0
  7  8  1  0  0  0
  9 38  1  0  0  0
 10 39  1  0  0  0
 11 12  2  0  0  0
 11 13  1  0  0  0
 11 46  1  0  0  0
 12 15  1  0  0  0
 12 47  1  0  0  0
 13 14  2  0  0  0
 13 48  1  0  0  0
 14 25  1  0  0  0
 14 29  1  0  0  0
 15 29  1  0  0  0
 15 33  2  0  0  0
 16 26  1  0  0  0
 16 30  1  0  0  0
 16 34  2  0  0  0
 17 28  1  0  0  0
 17 31  1  0  0  0
 17 35  2  0  0  0
 18 19  1  0  0  0
 18 21  1  0  0  0
 18 49  1  0  0  0
 18 50  1  0  0  0
 19 26  1  0  0  0
 19 51  1  0  0  0
 19 52  1  0  0  0
 20 25  1  0  0  0
 20 27  1  0  0  0
 20 53  1  0  0  0
 20 54  1  0  0  0
 21 30  1  0  0  0
 21 55  1  0  0  0
 21 56  1  0  0  0
 22 25  1  0  0  0
 22 31  1  0  0  0
 22 57  1  0  0  0
 22 58  1  0  0  0
 23 27  1  0  0  0
 23 29  1  0  0  0
 23 59  1  0  0  0
 23 60  1  0  0  0
 24 27  1  0  0  0
 24 31  1  0  0  0
 24 61  1  0  0  0
 24 62  1  0  0  0
 25 63  1  0  0  0
 26 32  1  0  0  0
 26 64  1  0  0  0
 27 65  1  0  0  0
 28 30  1  0  0  0
 28 66  1  0  0  0
 28 67  1  0  0  0
 32 38  1  0  0  0
 32 68  1  0  0  0
 36 38  2  0  0  0
 37 38  2  0  0  0
M  END
> <s_m_source_file>
../3sw2_ligand.sdf

> <i_m_source_file_index>
1

> <s_epik_input>
W2NIXTFbY0hdYyhDbClbY0hdYyhjMTIpW2NIXVtjSF1jKFtjSF0yKVMoPU8pKD1PKVtOSF1bQ0BIXShDMz1PKVtDSDJdW0NIMl1bQ0gyXU4zW0NIMl1DKD1PKU4oW0NIMl00KVtDSDJdW0NASF01W0NIMl1bQ0BASF00W0NIMl1uKGM1NiljKD1PKVtjSF1bY0hdW2NIXTY=

> <s_epik_cmdline>
J2VwaWtfYXBwJywgJy1pbWFlJywgJ2xpZ2FuZF9wcm8ubWFlJywgJy1vbWFlJywgJ2xpZ2FuZF9wcmVwLm1hZScsICctbXMnLCAnMScsICctcGgnLCAnNycsICctcGh0JywgJzAuNScsICctbnQn

> <r_lp_tautomer_probability>
1

> <r_epik_Ionization_Penalty>
  0.0016

> <r_epik_Ionization_Penalty_Charging>
  0.0000

> <r_epik_Ionization_Penalty_Neutral>
  0.0016

> <r_epik_State_Penalty>
 -0.0000

> <r_epik_Charging_Adjusted_Penalty>
2.24128061263665e-06

> <i_epik_Tot_Q>
0

> <i_epik_Tot_abs_Q>
0

$$$$
