3sw9_ligand
                    3D
 Schrodinger Suite 2020-3.
 89 88  0  0  1  0            999 V2000
   41.8530  -26.9320   10.8260 N   0  3  0  0  0  0
   40.4330  -27.1350   11.1510 C   0  0  2  0  0  0
   39.6070  -27.5400    9.9220 C   0  0  0  0  0  0
   39.9680  -27.2010    8.7900 O   0  0  0  0  0  0
   39.7880  -25.8850   11.8070 C   0  0  2  0  0  0
   39.6160  -24.8540   10.8240 O   0  0  0  0  0  0
   40.6490  -25.3730   12.9700 C   0  0  0  0  0  0
   38.4990  -28.2510   10.1540 N   0  0  0  0  0  0
   37.7590  -28.9190    9.0740 C   0  0  2  0  0  0
   36.8700  -27.9850    8.2570 C   0  0  0  0  0  0
   35.8640  -27.4990    8.7630 O   0  0  0  0  0  0
   36.9350  -30.0830    9.6270 C   0  0  0  0  0  0
   37.2310  -27.7670    6.9920 N   0  0  0  0  0  0
   36.5040  -26.8460    6.1200 C   0  0  2  0  0  0
   35.8550  -27.5570    4.9390 C   0  0  0  0  0  0
   36.5250  -28.3160    4.2240 O   0  0  0  0  0  0
   37.4440  -25.7700    5.5610 C   0  0  0  0  0  0
   38.4480  -25.1970    6.5530 C   0  0  0  0  0  0
   37.8940  -24.0250    7.3630 C   0  0  0  0  0  0
   38.8920  -23.5220    8.3070 N   0  0  0  0  0  0
   39.8320  -22.6310    7.9980 C   0  0  0  0  0  0
   40.7100  -22.2360    8.9170 N   0  0  0  0  0  0
   39.8950  -22.1320    6.7670 N   0  3  0  0  0  0
   34.5590  -27.2930    4.7310 N   0  0  0  0  0  0
   33.8580  -27.6920    3.5030 C   0  0  2  0  0  0
   34.2640  -26.7680    2.3440 C   0  0  0  0  0  0
   34.4870  -25.5820    2.5570 O   0  0  0  0  0  0
   32.3360  -27.6260    3.6920 C   0  0  0  0  0  0
   31.8120  -28.0940    5.0520 C   0  0  0  0  0  0
   30.2850  -28.0370    5.0790 C   0  0  0  0  0  0
   29.7060  -28.1510    6.4850 C   0  0  0  0  0  0
   28.2090  -28.0300    6.4530 N   0  3  0  0  0  0
   34.3880  -27.3130    1.1310 N   0  0  0  0  0  0
   34.5850  -26.4950   -0.0800 C   0  0  2  0  0  0
   33.8860  -27.1120   -1.2920 C   0  0  0  0  0  0
   33.5590  -28.3020   -1.2970 O   0  0  0  0  0  0
   36.0800  -26.2480   -0.4450 C   0  0  0  0  0  0
   36.2000  -25.0360   -1.3900 C   0  0  0  0  0  0
   36.9330  -26.0400    0.7960 C   0  0  0  0  0  0
   33.6406  -26.3958   -2.2992 O   0  5  0  0  0  0
   42.2579  -27.8452   10.3655 H   0  0  0  0  0  0
   42.4113  -26.7070   11.7467 H   0  0  0  0  0  0
   41.9517  -26.0919   10.1228 H   0  0  0  0  0  0
   40.4736  -27.9697   11.8663 H   0  0  0  0  0  0
   38.7735  -26.1078   12.1690 H   0  0  0  0  0  0
   39.0226  -25.0505    9.9189 H   0  0  0  0  0  0
   40.7722  -26.1730   13.7149 H   0  0  0  0  0  0
   40.1558  -24.5086   13.4385 H   0  0  0  0  0  0
   41.6360  -25.0706   12.5900 H   0  0  0  0  0  0
   38.1447  -28.3275   11.1926 H   0  0  0  0  0  0
   38.5558  -29.2777    8.4058 H   0  0  0  0  0  0
   37.5867  -30.7477   10.2130 H   0  0  0  0  0  0
   36.4910  -30.6466    8.7932 H   0  0  0  0  0  0
   36.1348  -29.6917   10.2724 H   0  0  0  0  0  0
   38.1090  -28.3085    6.6101 H   0  0  0  0  0  0
   35.7311  -26.4238    6.7790 H   0  0  0  0  0  0
   38.0323  -26.1915    4.7326 H   0  0  0  0  0  0
   36.8507  -24.9196    5.1938 H   0  0  0  0  0  0
   38.7478  -25.9801    7.2650 H   0  0  0  0  0  0
   39.3342  -24.8359    6.0106 H   0  0  0  0  0  0
   37.6108  -23.2095    6.6813 H   0  0  0  0  0  0
   37.0094  -24.3550    7.9274 H   0  0  0  0  0  0
   38.8957  -23.8810    9.3468 H   0  0  0  0  0  0
   40.6613  -22.6463    9.9364 H   0  0  0  0  0  0
   41.4843  -21.4992    8.6571 H   0  0  0  0  0  0
   39.1713  -22.4558    6.0046 H   0  0  0  0  0  0
   34.0176  -26.7556    5.5235 H   0  0  0  0  0  0
   34.1680  -28.7297    3.3103 H   0  0  0  0  0  0
   31.9965  -26.5864    3.5734 H   0  0  0  0  0  0
   31.8452  -28.2602    2.9391 H   0  0  0  0  0  0
   32.1364  -29.1293    5.2334 H   0  0  0  0  0  0
   32.2101  -27.4412    5.8428 H   0  0  0  0  0  0
   29.9463  -27.0796    4.6562 H   0  0  0  0  0  0
   29.8765  -28.8661    4.4826 H   0  0  0  0  0  0
   29.9750  -29.1274    6.9143 H   0  0  0  0  0  0
   30.1146  -27.3480    7.1160 H   0  0  0  0  0  0
   27.8124  -28.1148    7.4755 H   0  0  0  0  0  0
   27.7895  -28.8330    5.8292 H   0  0  0  0  0  0
   27.9290  -27.0536    6.0309 H   0  0  0  0  0  0
   34.3390  -28.4091    1.0524 H   0  0  0  0  0  0
   34.1075  -25.5480    0.2118 H   0  0  0  0  0  0
   36.4776  -27.1415   -0.9485 H   0  0  0  0  0  0
   35.5774  -25.2030   -2.2814 H   0  0  0  0  0  0
   37.2497  -24.9107   -1.6941 H   0  0  0  0  0  0
   35.8585  -24.1295   -0.8688 H   0  0  0  0  0  0
   36.8357  -26.9129    1.4583 H   0  0  0  0  0  0
   36.5947  -25.1377    1.3265 H   0  0  0  0  0  0
   37.9858  -25.9189    0.5012 H   0  0  0  0  0  0
   40.6709  -21.3954    6.5112 H   0  0  0  0  0  0
  1  2  1  0  0  0
  1 41  1  0  0  0
  1 42  1  0  0  0
  1 43  1  0  0  0
  2  3  1  0  0  0
  2  5  1  0  0  0
  2 44  1  0  0  0
  3  4  2  0  0  0
  3  8  1  0  0  0
  5  6  1  0  0  0
  5  7  1  0  0  0
  5 45  1  0  0  0
  6 46  1  0  0  0
  7 47  1  0  0  0
  7 48  1  0  0  0
  7 49  1  0  0  0
  8  9  1  0  0  0
  8 50  1  0  0  0
  9 10  1  0  0  0
  9 12  1  0  0  0
  9 51  1  0  0  0
 10 11  2  0  0  0
 10 13  1  0  0  0
 12 52  1  0  0  0
 12 53  1  0  0  0
 12 54  1  0  0  0
 13 14  1  0  0  0
 13 55  1  0  0  0
 14 15  1  0  0  0
 14 17  1  0  0  0
 14 56  1  0  0  0
 15 16  2  0  0  0
 15 24  1  0  0  0
 17 18  1  0  0  0
 17 57  1  0  0  0
 17 58  1  0  0  0
 18 19  1  0  0  0
 18 59  1  0  0  0
 18 60  1  0  0  0
 19 20  1  0  0  0
 19 61  1  0  0  0
 19 62  1  0  0  0
 20 21  1  0  0  0
 20 63  1  0  0  0
 21 22  1  0  0  0
 21 23  2  0  0  0
 22 64  1  0  0  0
 22 65  1  0  0  0
 23 66  1  0  0  0
 23 89  1  0  0  0
 24 25  1  0  0  0
 24 67  1  0  0  0
 25 26  1  0  0  0
 25 28  1  0  0  0
 25 68  1  0  0  0
 26 27  2  0  0  0
 26 33  1  0  0  0
 28 29  1  0  0  0
 28 69  1  0  0  0
 28 70  1  0  0  0
 29 30  1  0  0  0
 29 71  1  0  0  0
 29 72  1  0  0  0
 30 31  1  0  0  0
 30 73  1  0  0  0
 30 74  1  0  0  0
 31 32  1  0  0  0
 31 75  1  0  0  0
 31 76  1  0  0  0
 32 77  1  0  0  0
 32 78  1  0  0  0
 32 79  1  0  0  0
 33 34  1  0  0  0
 33 80  1  0  0  0
 34 35  1  0  0  0
 34 37  1  0  0  0
 34 81  1  0  0  0
 35 36  2  0  0  0
 35 40  1  0  0  0
 37 38  1  0  0  0
 37 39  1  0  0  0
 37 82  1  0  0  0
 38 83  1  0  0  0
 38 84  1  0  0  0
 38 85  1  0  0  0
 39 86  1  0  0  0
 39 87  1  0  0  0
 39 88  1  0  0  0
M  CHG  4   1   1  23   1  32   1  40  -1
M  END
> <s_m_source_file>
../3sw9_ligand.sdf

> <i_m_source_file_index>
1

> <s_epik_input>
W09IXVtDQEhdKFtDSDNdKVtDQEhdKFtOSDMrXSlDKD1PKVtOSF1bQ0BASF0oW0NIM10pQyg9TylbTkhdW0NAQEhdKFtDSDJdW0NIMl1bQ0gyXVtOSF0vQyhbTkgyXSk9TlxbSF0pQyg9TylbTkhdW0NASF0oQyg9TylbTkhdW0NASF0oQyg9TylbT0hdKVtDSF0oW0NIM10pW0NIM10pW0NIMl1bQ0gyXVtDSDJdW0NIMl1bTkgzK10=

> <s_epik_cmdline>
J2VwaWtfYXBwJywgJy1pbWFlJywgJ2xpZ2FuZF9wcm8ubWFlJywgJy1vbWFlJywgJ2xpZ2FuZF9wcmVwLm1hZScsICctbXMnLCAnMScsICctcGgnLCAnNycsICctcGh0JywgJzAuNScsICctbnQn

> <r_epik_Ionization_Penalty>
  0.0815

> <r_epik_Ionization_Penalty_Charging>
  0.0815

> <r_epik_Ionization_Penalty_Neutral>
  0.0000

> <r_epik_State_Penalty>
  0.0717

> <r_epik_Charging_Adjusted_Penalty>
0.153186262619258

> <i_epik_Tot_Q>
2

> <i_epik_Tot_abs_Q>
4

> <s_epik_Chemistry_Notes>
This compound has an imine and may undergo hydrolysis.

$$$$
