3sww_ligand
                    3D
 Schrodinger Suite 2020-3.
 45 47  0  0  1  0            999 V2000
   47.4920   49.1780   37.1850 C   0  0  0  0  0  0
   47.3570   48.7020   38.4730 C   0  0  0  0  0  0
   48.4700   50.6910   39.3500 C   0  0  0  0  0  0
   48.1080   50.3960   36.9650 C   0  0  0  0  0  0
   48.2770   50.9190   35.5920 C   0  0  0  0  0  0
   49.4990   50.7830   34.9660 C   0  0  0  0  0  0
   47.2530   51.5740   34.8820 C   0  0  0  0  0  0
   47.8410   49.4750   39.5290 C   0  0  0  0  0  0
   48.5910   51.1260   38.0500 C   0  0  0  0  0  0
   49.6700   51.3040   33.6750 C   0  0  0  0  0  0
   47.5140   52.0690   33.5880 C   0  0  0  0  0  0
   51.0550   51.0200   33.2140 C   0  0  0  0  0  0
   50.7740   50.1510   35.4430 C   0  0  0  0  0  0
   46.4840   52.7710   32.7570 C   0  0  0  0  0  0
   55.2990   51.9390   35.8610 C   0  0  0  0  0  0
   45.8890   51.7420   35.5030 C   0  0  0  0  0  0
   53.0290   49.8000   34.1790 C   0  0  0  0  0  0
   53.8620   50.0310   35.5200 C   0  0  0  0  0  0
   48.7200   51.9360   32.9470 N   0  0  0  0  0  0
   51.6560   50.3210   34.2530 N   0  0  0  0  0  0
   45.9580   52.7170   36.5580 N   0  3  0  0  0  0
   51.5850   51.2810   32.1410 O   0  0  0  0  0  0
   53.9400   51.4400   35.7520 O   0  0  0  0  0  0
   47.6770   48.8860   41.1160 Cl  0  0  0  0  0  0
   49.3490   52.6190   37.7680 Cl  0  0  0  0  0  0
   47.1145   48.5960   36.3442 H   0  0  0  0  0  0
   46.8810   47.7398   38.6621 H   0  0  0  0  0  0
   48.8490   51.2730   40.1901 H   0  0  0  0  0  0
   51.1376   50.6855   36.3330 H   0  0  0  0  0  0
   50.5878   49.0975   35.6986 H   0  0  0  0  0  0
   45.5443   52.8458   33.3239 H   0  0  0  0  0  0
   46.3097   52.2023   31.8317 H   0  0  0  0  0  0
   46.8417   53.7803   32.5052 H   0  0  0  0  0  0
   55.2779   53.0244   36.0381 H   0  0  0  0  0  0
   55.8422   51.7302   34.9275 H   0  0  0  0  0  0
   55.8065   51.4404   36.6999 H   0  0  0  0  0  0
   45.1765   52.0814   34.7367 H   0  0  0  0  0  0
   45.5528   50.7793   35.9155 H   0  0  0  0  0  0
   53.5322   50.3074   33.3428 H   0  0  0  0  0  0
   52.9644   48.7223   33.9685 H   0  0  0  0  0  0
   53.3517   49.5348   36.3587 H   0  0  0  0  0  0
   54.8706   49.6081   35.4026 H   0  0  0  0  0  0
   44.9627   52.8388   37.0103 H   0  0  0  0  0  0
   46.2939   53.6800   36.1459 H   0  0  0  0  0  0
   46.6702   52.3778   37.3247 H   0  0  0  0  0  0
  1  2  2  0  0  0
  1  4  1  0  0  0
  1 26  1  0  0  0
  2  8  1  0  0  0
  2 27  1  0  0  0
  3  8  2  0  0  0
  3  9  1  0  0  0
  3 28  1  0  0  0
  4  5  1  0  0  0
  4  9  2  0  0  0
  5  6  2  0  0  0
  5  7  1  0  0  0
  6 10  1  0  0  0
  6 13  1  0  0  0
  7 11  2  0  0  0
  7 16  1  0  0  0
  8 24  1  0  0  0
  9 25  1  0  0  0
 10 12  1  0  0  0
 10 19  2  0  0  0
 11 14  1  0  0  0
 11 19  1  0  0  0
 12 20  1  0  0  0
 12 22  2  0  0  0
 13 20  1  0  0  0
 13 29  1  0  0  0
 13 30  1  0  0  0
 14 31  1  0  0  0
 14 32  1  0  0  0
 14 33  1  0  0  0
 15 23  1  0  0  0
 15 34  1  0  0  0
 15 35  1  0  0  0
 15 36  1  0  0  0
 16 21  1  0  0  0
 16 37  1  0  0  0
 16 38  1  0  0  0
 17 18  1  0  0  0
 17 20  1  0  0  0
 17 39  1  0  0  0
 17 40  1  0  0  0
 18 23  1  0  0  0
 18 41  1  0  0  0
 18 42  1  0  0  0
 21 43  1  0  0  0
 21 44  1  0  0  0
 21 45  1  0  0  0
M  CHG  1  21   1
M  END
> <s_m_source_file>
../3sww_ligand.sdf

> <i_m_source_file_index>
1

> <s_epik_input>
Q2xjMVtjSF1jKENsKVtjSF1bY0hdYzEtYzJjKFtDSDJdW05IMytdKWMoW0NIM10pbmMoYzIzKUMoPU8pTihbQ0gyXTMpW0NIMl1bQ0gyXU9bQ0gzXQ==

> <s_epik_cmdline>
J2VwaWtfYXBwJywgJy1pbWFlJywgJ2xpZ2FuZF9wcm8ubWFlJywgJy1vbWFlJywgJ2xpZ2FuZF9wcmVwLm1hZScsICctbXMnLCAnMScsICctcGgnLCAnNycsICctcGh0JywgJzAuNScsICctbnQn

> <r_epik_Ionization_Penalty>
  0.0712

> <r_epik_Ionization_Penalty_Charging>
  0.0712

> <r_epik_Ionization_Penalty_Neutral>
  0.0000

> <r_epik_State_Penalty>
  0.0624

> <r_epik_Charging_Adjusted_Penalty>
0.133612156812833

> <i_epik_Tot_Q>
1

> <i_epik_Tot_abs_Q>
1

$$$$
