3sx4_ligand
                    3D
 Schrodinger Suite 2020-3.
 49 52  0  0  1  0            999 V2000
   54.7610   49.1450   35.2790 C   0  0  0  0  0  0
   55.0240   47.9750   34.5730 C   0  0  0  0  0  0
   47.1290   48.7440   36.9820 C   0  0  0  0  0  0
   53.5090   49.7260   35.2480 C   0  0  0  0  0  0
   54.0350   47.3790   33.8310 C   0  0  0  0  0  0
   46.9500   48.2300   38.2580 C   0  0  0  0  0  0
   47.9920   50.2010   39.2270 C   0  0  0  0  0  0
   47.7200   49.9830   36.8440 C   0  0  0  0  0  0
   47.9430   50.5060   35.5240 C   0  0  0  0  0  0
   49.1610   50.2820   34.9590 C   0  0  0  0  0  0
   47.0420   51.2610   34.7870 C   0  0  0  0  0  0
   52.5140   49.1270   34.4910 C   0  0  0  0  0  0
   52.7750   47.9610   33.7910 C   0  0  0  0  0  0
   47.3900   48.9790   39.3410 C   0  0  0  0  0  0
   48.1630   50.6900   37.9540 C   0  0  0  0  0  0
   49.4460   50.7790   33.7050 C   0  0  0  0  0  0
   47.4170   51.7190   33.5240 C   0  0  0  0  0  0
   50.8260   50.3900   33.3310 C   0  0  0  0  0  0
   50.3060   49.5460   35.5020 C   0  0  0  0  0  0
   46.4940   52.5140   32.6870 C   0  0  0  0  0  0
   52.1090   46.2940   32.3360 C   0  0  0  0  0  0
   45.6750   51.5540   35.3160 C   0  0  0  0  0  0
   48.6370   51.4920   32.9360 N   0  0  0  0  0  0
   51.2670   49.6730   34.4430 N   0  0  0  0  0  0
   45.7920   52.1690   36.5920 N   0  3  0  0  0  0
   51.4420   50.6270   32.3210 O   0  0  0  0  0  0
   51.7480   47.4310   33.0780 O   0  0  0  0  0  0
   47.1790   48.3600   40.8800 Cl  0  0  0  0  0  0
   48.9070   52.2080   37.7520 Cl  0  0  0  0  0  0
   55.5545   49.6092   35.8646 H   0  0  0  0  0  0
   56.0186   47.5305   34.6094 H   0  0  0  0  0  0
   46.8091   48.1801   36.1058 H   0  0  0  0  0  0
   53.3066   50.6388   35.8083 H   0  0  0  0  0  0
   54.2362   46.4603   33.2800 H   0  0  0  0  0  0
   46.4748   47.2604   38.4069 H   0  0  0  0  0  0
   48.3204   50.7603   40.1030 H   0  0  0  0  0  0
   50.6327   50.0169   36.4409 H   0  0  0  0  0  0
   50.0129   48.5039   35.6971 H   0  0  0  0  0  0
   45.5428   52.6540   33.2215 H   0  0  0  0  0  0
   46.3085   51.9843   31.7410 H   0  0  0  0  0  0
   46.9438   53.4953   32.4757 H   0  0  0  0  0  0
   51.2320   45.9209   31.7868 H   0  0  0  0  0  0
   52.4745   45.5121   33.0179 H   0  0  0  0  0  0
   52.9031   46.5588   31.6224 H   0  0  0  0  0  0
   45.1520   52.2317   34.6252 H   0  0  0  0  0  0
   45.1085   50.6156   35.4081 H   0  0  0  0  0  0
   44.7889   52.3874   36.9871 H   0  0  0  0  0  0
   46.3605   53.1059   36.4967 H   0  0  0  0  0  0
   46.3171   51.4897   37.2796 H   0  0  0  0  0  0
  1  2  2  0  0  0
  1  4  1  0  0  0
  1 30  1  0  0  0
  2  5  1  0  0  0
  2 31  1  0  0  0
  3  6  2  0  0  0
  3  8  1  0  0  0
  3 32  1  0  0  0
  4 12  2  0  0  0
  4 33  1  0  0  0
  5 13  2  0  0  0
  5 34  1  0  0  0
  6 14  1  0  0  0
  6 35  1  0  0  0
  7 14  2  0  0  0
  7 15  1  0  0  0
  7 36  1  0  0  0
  8  9  1  0  0  0
  8 15  2  0  0  0
  9 10  2  0  0  0
  9 11  1  0  0  0
 10 16  1  0  0  0
 10 19  1  0  0  0
 11 17  2  0  0  0
 11 22  1  0  0  0
 12 13  1  0  0  0
 12 24  1  0  0  0
 13 27  1  0  0  0
 14 28  1  0  0  0
 15 29  1  0  0  0
 16 18  1  0  0  0
 16 23  2  0  0  0
 17 20  1  0  0  0
 17 23  1  0  0  0
 18 24  1  0  0  0
 18 26  2  0  0  0
 19 24  1  0  0  0
 19 37  1  0  0  0
 19 38  1  0  0  0
 20 39  1  0  0  0
 20 40  1  0  0  0
 20 41  1  0  0  0
 21 27  1  0  0  0
 21 42  1  0  0  0
 21 43  1  0  0  0
 21 44  1  0  0  0
 22 25  1  0  0  0
 22 45  1  0  0  0
 22 46  1  0  0  0
 25 47  1  0  0  0
 25 48  1  0  0  0
 25 49  1  0  0  0
M  CHG  1  25   1
M  END
> <s_m_source_file>
../3sx4_ligand.sdf

> <i_m_source_file_index>
1

> <s_epik_input>
W0NIM11PYzFbY0hdW2NIXVtjSF1bY0hdYzFOKFtDSDJdMilDKD1PKWMoYzIzKW5jKFtDSDNdKWMoW0NIMl1bTkgzK10pYzMtYzRbY0hdW2NIXWMoQ2wpW2NIXWM0Q2w=

> <s_epik_cmdline>
J2VwaWtfYXBwJywgJy1pbWFlJywgJ2xpZ2FuZF9wcm8ubWFlJywgJy1vbWFlJywgJ2xpZ2FuZF9wcmVwLm1hZScsICctbXMnLCAnMScsICctcGgnLCAnNycsICctcGh0JywgJzAuNScsICctbnQn

> <r_lp_tautomer_probability>
1

> <r_epik_Ionization_Penalty>
  0.0714

> <r_epik_Ionization_Penalty_Charging>
  0.0713

> <r_epik_Ionization_Penalty_Neutral>
  0.0002

> <r_epik_State_Penalty>
  0.0625

> <r_epik_Charging_Adjusted_Penalty>
0.133814225398637

> <i_epik_Tot_Q>
1

> <i_epik_Tot_abs_Q>
1

$$$$
