3sx9_ligand
                    3D
 Schrodinger Suite 2020-3.
 57 61  0  0  1  0            999 V2000
   16.5260   11.8170   63.0580 N   0  0  0  0  0  0
   17.7270   12.3800   62.8390 C   0  0  0  0  0  0
   17.8120   13.7090   62.8750 N   0  0  0  0  0  0
   16.7330   14.4880   63.1410 C   0  0  0  0  0  0
   15.4840   13.9280   63.3830 C   0  0  0  0  0  0
   15.4010   12.5320   63.3340 C   0  0  0  0  0  0
    5.0910   14.2090   65.1440 C   0  0  0  0  0  0
   14.2670   11.8820   63.5530 N   0  0  0  0  0  0
    9.5210   13.6840   66.6250 C   0  0  0  0  0  0
   12.4140   15.7080   63.0720 C   0  0  0  0  0  0
   10.8910   13.6700   66.3660 C   0  0  0  0  0  0
   11.0440   15.7380   63.3180 C   0  0  0  0  0  0
    9.1620   15.0650   64.6840 C   0  0  0  0  0  0
   12.7590   14.3360   65.0170 C   0  0  0  0  0  0
    6.5150   14.6940   64.8940 C   0  0  0  0  0  0
   19.8750   18.0230   60.1110 C   0  0  0  0  0  0
   17.6210   17.8220   59.2860 C   0  0  0  0  0  0
   19.4530   17.7330   61.5470 C   0  0  0  0  0  0
   17.1260   17.2620   60.6370 C   0  0  0  0  0  0
   17.6880   16.7680   63.0420 C   0  0  0  0  0  0
   15.4160   16.1210   63.5050 N   0  0  0  0  0  0
   18.7640   18.7370   59.4670 N   0  3  0  0  0  0
    7.3180   14.3870   66.0480 O   0  0  0  0  0  0
    8.6540   14.3810   65.7830 C   0  0  0  0  0  0
   13.2850   15.0070   63.9110 C   0  0  0  0  0  0
   14.6550   15.0270   63.6230 C   0  0  0  0  0  0
   10.5280   15.0580   64.4200 C   0  0  0  0  0  0
   11.3910   14.3560   65.2670 C   0  0  0  0  0  0
   18.2420   16.7940   61.5880 C   0  0  0  0  0  0
   16.5790   15.8020   63.2350 N   0  0  0  0  0  0
   18.6056   11.7670   62.6379 H   0  0  0  0  0  0
    4.4665   14.4382   64.2679 H   0  0  0  0  0  0
    4.6809   14.7166   66.0295 H   0  0  0  0  0  0
    5.0985   13.1224   65.3149 H   0  0  0  0  0  0
   14.2447   10.7833   63.5049 H   0  0  0  0  0  0
   13.3481   12.4412   63.7828 H   0  0  0  0  0  0
    9.1260   13.1485   67.4883 H   0  0  0  0  0  0
   12.8146   16.2408   62.2096 H   0  0  0  0  0  0
   11.5667   13.1229   67.0234 H   0  0  0  0  0  0
   10.3792   16.2896   62.6532 H   0  0  0  0  0  0
    8.4858   15.6100   64.0253 H   0  0  0  0  0  0
   13.4245   13.7934   65.6883 H   0  0  0  0  0  0
    6.9251   14.1864   64.0085 H   0  0  0  0  0  0
    6.5076   15.7806   64.7231 H   0  0  0  0  0  0
   20.7834   18.6433   60.1140 H   0  0  0  0  0  0
   20.0795   17.0758   59.5905 H   0  0  0  0  0  0
   17.9389   16.9911   58.6391 H   0  0  0  0  0  0
   16.8055   18.3756   58.7976 H   0  0  0  0  0  0
   20.2858   17.2563   62.0847 H   0  0  0  0  0  0
   19.1846   18.6750   62.0477 H   0  0  0  0  0  0
   16.5594   18.0393   61.1706 H   0  0  0  0  0  0
   16.4763   16.3926   60.4577 H   0  0  0  0  0  0
   18.4937   16.4876   63.7364 H   0  0  0  0  0  0
   17.3062   17.7651   63.3068 H   0  0  0  0  0  0
   18.4564   19.5830   60.0991 H   0  0  0  0  0  0
   19.0891   19.1120   58.4853 H   0  0  0  0  0  0
   18.5727   15.7991   61.2552 H   0  0  0  0  0  0
  1  2  1  0  0  0
  1  6  2  0  0  0
  2  3  2  0  0  0
  2 31  1  0  0  0
  3  4  1  0  0  0
  4  5  2  0  0  0
  4 30  1  0  0  0
  5  6  1  0  0  0
  5 26  1  0  0  0
  6  8  1  0  0  0
  7 15  1  0  0  0
  7 32  1  0  0  0
  7 33  1  0  0  0
  7 34  1  0  0  0
  8 35  1  0  0  0
  8 36  1  0  0  0
  9 11  2  0  0  0
  9 24  1  0  0  0
  9 37  1  0  0  0
 10 12  1  0  0  0
 10 25  2  0  0  0
 10 38  1  0  0  0
 11 28  1  0  0  0
 11 39  1  0  0  0
 12 27  2  0  0  0
 12 40  1  0  0  0
 13 24  2  0  0  0
 13 27  1  0  0  0
 13 41  1  0  0  0
 14 25  1  0  0  0
 14 28  2  0  0  0
 14 42  1  0  0  0
 15 23  1  0  0  0
 15 43  1  0  0  0
 15 44  1  0  0  0
 16 18  1  0  0  0
 16 22  1  0  0  0
 16 45  1  0  0  0
 16 46  1  0  0  0
 17 19  1  0  0  0
 17 22  1  0  0  0
 17 47  1  0  0  0
 17 48  1  0  0  0
 18 29  1  0  0  0
 18 49  1  0  0  0
 18 50  1  0  0  0
 19 29  1  0  0  0
 19 51  1  0  0  0
 19 52  1  0  0  0
 20 29  1  0  0  0
 20 30  1  0  0  0
 20 53  1  0  0  0
 20 54  1  0  0  0
 21 26  2  0  0  0
 21 30  1  0  0  0
 22 55  1  0  0  0
 22 56  1  0  0  0
 23 24  1  0  0  0
 25 26  1  0  0  0
 27 28  1  0  0  0
 29 57  1  0  0  0
M  CHG  1  22   1
M  END
> <s_m_source_file>
../3sx9_ligand.sdf

> <i_m_source_file_index>
1

> <s_epik_input>
W0NIMl0xW0NIMl1bTkgyK11bQ0gyXVtDSDJdW0NIXTFbQ0gyXW4ybmMoYyhjMjMpYyhbTkgyXSluW2NIXW4zKS1jKFtjSF1bY0hdNClbY0hdYyhjNDUpW2NIXVtjSF1jKFtjSF01KU9bQ0gyXVtDSDNd

> <s_epik_cmdline>
J2VwaWtfYXBwJywgJy1pbWFlJywgJ2xpZ2FuZF9wcm8ubWFlJywgJy1vbWFlJywgJ2xpZ2FuZF9wcmVwLm1hZScsICctbXMnLCAnMScsICctcGgnLCAnNycsICctcGh0JywgJzAuNScsICctbnQn

> <r_lp_tautomer_probability>
1

> <r_epik_Ionization_Penalty>
  0.0010

> <r_epik_Ionization_Penalty_Charging>
  0.0004

> <r_epik_Ionization_Penalty_Neutral>
  0.0005

> <r_epik_State_Penalty>
 -0.0000

> <r_epik_Charging_Adjusted_Penalty>
0.000433073767326883

> <i_epik_Tot_Q>
1

> <i_epik_Tot_abs_Q>
1

$$$$
