3sxf_ligand
                    3D
 Schrodinger Suite 2020-3.
 47 50  0  0  1  0            999 V2000
   21.3720   12.2890   63.4150 N   0  0  0  0  0  0
   22.5370   12.8910   63.1740 C   0  0  0  0  0  0
   22.6300   14.2140   63.1340 N   0  0  0  0  0  0
   21.5400   14.9820   63.3220 C   0  0  0  0  0  0
   20.3080   14.4000   63.5810 C   0  0  0  0  0  0
   20.2480   12.9960   63.6290 C   0  0  0  0  0  0
    9.7400   14.7350   65.3460 C   0  0  0  0  0  0
   22.2130   18.5680   63.8350 C   0  0  0  0  0  0
   22.5730   17.4960   61.5790 C   0  0  0  0  0  0
   19.1200   12.3230   63.8630 N   0  0  0  0  0  0
   14.2700   13.9950   66.6360 C   0  0  0  0  0  0
   17.2070   16.2240   63.2320 C   0  0  0  0  0  0
   15.6440   13.9980   66.3900 C   0  0  0  0  0  0
   15.8350   16.2290   63.4800 C   0  0  0  0  0  0
   13.9380   15.4910   64.7760 C   0  0  0  0  0  0
   17.5490   14.7280   65.0800 C   0  0  0  0  0  0
   11.2110   14.9390   64.9500 C   0  0  0  0  0  0
   20.1780   16.6110   63.5670 N   0  0  0  0  0  0
   12.0790   14.7300   66.0940 O   0  0  0  0  0  0
   13.4130   14.7400   65.8230 C   0  0  0  0  0  0
   18.0770   15.4600   64.0140 C   0  0  0  0  0  0
   19.4460   15.4990   63.7380 C   0  0  0  0  0  0
   15.3130   15.4840   64.5300 C   0  0  0  0  0  0
   16.1720   14.7390   65.3400 C   0  0  0  0  0  0
   22.4540   17.2540   63.0880 C   0  0  0  0  0  0
   21.3550   16.2990   63.3300 N   0  0  0  0  0  0
   23.4282   12.2860   63.0070 H   0  0  0  0  0  0
    9.0980   14.8973   64.4677 H   0  0  0  0  0  0
    9.4699   15.4521   66.1352 H   0  0  0  0  0  0
    9.5994   13.7096   65.7186 H   0  0  0  0  0  0
   23.0450   19.2599   63.6376 H   0  0  0  0  0  0
   22.1496   18.3694   64.9151 H   0  0  0  0  0  0
   21.2712   19.0190   63.4891 H   0  0  0  0  0  0
   23.3896   18.2070   61.3850 H   0  0  0  0  0  0
   21.6278   17.9105   61.1985 H   0  0  0  0  0  0
   22.7870   16.5442   61.0708 H   0  0  0  0  0  0
   19.1310   11.2234   63.8895 H   0  0  0  0  0  0
   18.1790   12.8678   64.0295 H   0  0  0  0  0  0
   13.8658   13.4110   67.4629 H   0  0  0  0  0  0
   17.6070   16.8253   62.4156 H   0  0  0  0  0  0
   16.3083   13.4141   67.0270 H   0  0  0  0  0  0
   15.1704   16.8188   62.8486 H   0  0  0  0  0  0
   13.2755   16.0856   64.1469 H   0  0  0  0  0  0
   18.2140   14.1430   65.7153 H   0  0  0  0  0  0
   11.4811   14.2219   64.1608 H   0  0  0  0  0  0
   11.3516   15.9644   64.5774 H   0  0  0  0  0  0
   23.3759   16.8002   63.4806 H   0  0  0  0  0  0
  1  2  1  0  0  0
  1  6  2  0  0  0
  2  3  2  0  0  0
  2 27  1  0  0  0
  3  4  1  0  0  0
  4  5  2  0  0  0
  4 26  1  0  0  0
  5  6  1  0  0  0
  5 22  1  0  0  0
  6 10  1  0  0  0
  7 17  1  0  0  0
  7 28  1  0  0  0
  7 29  1  0  0  0
  7 30  1  0  0  0
  8 25  1  0  0  0
  8 31  1  0  0  0
  8 32  1  0  0  0
  8 33  1  0  0  0
  9 25  1  0  0  0
  9 34  1  0  0  0
  9 35  1  0  0  0
  9 36  1  0  0  0
 10 37  1  0  0  0
 10 38  1  0  0  0
 11 13  2  0  0  0
 11 20  1  0  0  0
 11 39  1  0  0  0
 12 14  1  0  0  0
 12 21  2  0  0  0
 12 40  1  0  0  0
 13 24  1  0  0  0
 13 41  1  0  0  0
 14 23  2  0  0  0
 14 42  1  0  0  0
 15 20  2  0  0  0
 15 23  1  0  0  0
 15 43  1  0  0  0
 16 21  1  0  0  0
 16 24  2  0  0  0
 16 44  1  0  0  0
 17 19  1  0  0  0
 17 45  1  0  0  0
 17 46  1  0  0  0
 18 22  2  0  0  0
 18 26  1  0  0  0
 19 20  1  0  0  0
 21 22  1  0  0  0
 23 24  1  0  0  0
 25 26  1  0  0  0
 25 47  1  0  0  0
M  END
> <s_m_source_file>
../3sxf_ligand.sdf

> <i_m_source_file_index>
1

> <s_epik_input>
bjFbY0hdbmMoW05IMl0pYyhjMTIpYyhubjJbQ0hdKFtDSDNdKVtDSDNdKS1jKFtjSF1bY0hdMylbY0hdYyhjMzQpW2NIXVtjSF1jKFtjSF00KU9bQ0gyXVtDSDNd

> <s_epik_cmdline>
J2VwaWtfYXBwJywgJy1pbWFlJywgJ2xpZ2FuZF9wcm8ubWFlJywgJy1vbWFlJywgJ2xpZ2FuZF9wcmVwLm1hZScsICctbXMnLCAnMScsICctcGgnLCAnNycsICctcGh0JywgJzAuNScsICctbnQn

> <r_lp_tautomer_probability>
1

> <r_epik_Ionization_Penalty>
  0.0007

> <r_epik_Ionization_Penalty_Charging>
  0.0000

> <r_epik_Ionization_Penalty_Neutral>
  0.0007

> <r_epik_State_Penalty>
 -0.0000

> <r_epik_Charging_Adjusted_Penalty>
0

> <i_epik_Tot_Q>
0

> <i_epik_Tot_abs_Q>
0

$$$$
