3sxu_ligand
                    3D
 Schrodinger Suite 2020-3.
 68 69  0  0  1  0            999 V2000
  -69.9860  -10.5510   27.8900 N   0  3  0  0  0  0
  -71.1330   -9.9480   27.1460 C   0  0  2  0  0  0
  -70.7570   -9.6830   25.6920 C   0  0  0  0  0  0
  -69.7560   -9.0160   25.4100 O   0  0  0  0  0  0
  -71.5970   -8.6500   27.8210 C   0  0  0  0  0  0
  -71.9740   -8.8480   29.2810 C   0  0  0  0  0  0
  -71.4370   -9.7770   29.9250 O   0  5  0  0  0  0
  -72.8080   -8.0680   29.7890 O   0  0  0  0  0  0
  -71.5670  -10.2150   24.7780 N   0  0  0  0  0  0
  -71.3210  -10.1010   23.3390 C   0  0  2  0  0  0
  -71.8220   -8.7490   22.8190 C   0  0  0  0  0  0
  -73.0160   -8.4510   22.9230 O   0  0  0  0  0  0
  -71.9790  -11.2710   22.5600 C   0  0  2  0  0  0
  -71.4390  -12.6170   23.0630 C   0  0  0  0  0  0
  -71.7430  -11.1210   21.0600 C   0  0  0  0  0  0
  -72.3350  -13.8070   22.7650 C   0  0  0  0  0  0
  -70.9070   -7.9270   22.2580 N   0  0  0  0  0  0
  -71.2280   -6.5640   21.8190 C   0  0  2  0  0  0
  -71.8160   -6.4640   20.4020 C   0  0  0  0  0  0
  -71.7090   -5.4130   19.7620 O   0  0  0  0  0  0
  -69.8710   -5.8380   21.8970 C   0  0  0  0  0  0
  -68.8410   -6.8930   22.2680 C   0  0  0  0  0  0
  -69.4790   -8.2250   22.0650 C   0  0  0  0  0  0
  -72.4350   -7.5430   19.9260 N   0  0  0  0  0  0
  -73.1260   -7.5410   18.6320 C   0  0  2  0  0  0
  -74.3070   -8.5110   18.6090 C   0  0  0  0  0  0
  -74.4510   -9.3670   19.4830 O   0  0  0  0  0  0
  -72.1570   -7.8200   17.4660 C   0  0  0  0  0  0
  -71.2870   -9.0340   17.6630 C   0  0  0  0  0  0
  -71.7450  -10.3040   17.3150 C   0  0  0  0  0  0
  -70.0000   -8.9050   18.1810 C   0  0  0  0  0  0
  -70.9390  -11.4300   17.4930 C   0  0  0  0  0  0
  -69.1850  -10.0230   18.3620 C   0  0  0  0  0  0
  -69.6570  -11.2890   18.0170 C   0  0  0  0  0  0
  -75.1510   -8.4600   17.7130 O   0  5  0  0  0  0
  -69.6710  -11.4783   27.3891 H   0  0  0  0  0  0
  -70.2963  -10.7781   28.9206 H   0  0  0  0  0  0
  -69.1465   -9.8405   27.9079 H   0  0  0  0  0  0
  -71.9477  -10.6866   27.1729 H   0  0  0  0  0  0
  -70.7877   -7.9061   27.7806 H   0  0  0  0  0  0
  -72.4808   -8.2591   27.2956 H   0  0  0  0  0  0
  -72.4511  -10.7579   25.1435 H   0  0  0  0  0  0
  -70.2277  -10.1539   23.2301 H   0  0  0  0  0  0
  -73.0663  -11.2513   22.7253 H   0  0  0  0  0  0
  -70.4674  -12.8221   22.5899 H   0  0  0  0  0  0
  -71.3138  -12.5768   24.1551 H   0  0  0  0  0  0
  -72.1371  -10.1512   20.7220 H   0  0  0  0  0  0
  -72.2578  -11.9326   20.5249 H   0  0  0  0  0  0
  -70.6640  -11.1711   20.8518 H   0  0  0  0  0  0
  -71.8711  -14.7231   23.1594 H   0  0  0  0  0  0
  -72.4681  -13.9024   21.6773 H   0  0  0  0  0  0
  -73.3145  -13.6571   23.2425 H   0  0  0  0  0  0
  -72.0209   -6.1734   22.4737 H   0  0  0  0  0  0
  -69.6396   -5.3875   20.9205 H   0  0  0  0  0  0
  -69.9205   -5.0493   22.6622 H   0  0  0  0  0  0
  -67.9571   -6.7855   21.6221 H   0  0  0  0  0  0
  -68.5449   -6.7626   23.3194 H   0  0  0  0  0  0
  -69.1565   -8.9703   22.8069 H   0  0  0  0  0  0
  -69.3213   -8.6239   21.0521 H   0  0  0  0  0  0
  -72.4165   -8.4567   20.5382 H   0  0  0  0  0  0
  -73.5181   -6.5169   18.5460 H   0  0  0  0  0  0
  -72.7319   -7.9815   16.5422 H   0  0  0  0  0  0
  -71.4848   -6.9593   17.3339 H   0  0  0  0  0  0
  -72.7456  -10.4193   16.8984 H   0  0  0  0  0  0
  -69.6247   -7.9172   18.4485 H   0  0  0  0  0  0
  -71.3128  -12.4175   17.2222 H   0  0  0  0  0  0
  -68.1818   -9.9071   18.7721 H   0  0  0  0  0  0
  -69.0242  -12.1654   18.1572 H   0  0  0  0  0  0
  1  2  1  0  0  0
  1 36  1  0  0  0
  1 37  1  0  0  0
  1 38  1  0  0  0
  2  3  1  0  0  0
  2  5  1  0  0  0
  2 39  1  0  0  0
  3  4  2  0  0  0
  3  9  1  0  0  0
  5  6  1  0  0  0
  5 40  1  0  0  0
  5 41  1  0  0  0
  6  7  1  0  0  0
  6  8  2  0  0  0
  9 10  1  0  0  0
  9 42  1  0  0  0
 10 11  1  0  0  0
 10 13  1  0  0  0
 10 43  1  0  0  0
 11 12  2  0  0  0
 11 17  1  0  0  0
 13 14  1  0  0  0
 13 15  1  0  0  0
 13 44  1  0  0  0
 14 16  1  0  0  0
 14 45  1  0  0  0
 14 46  1  0  0  0
 15 47  1  0  0  0
 15 48  1  0  0  0
 15 49  1  0  0  0
 16 50  1  0  0  0
 16 51  1  0  0  0
 16 52  1  0  0  0
 17 18  1  0  0  0
 17 23  1  0  0  0
 18 19  1  0  0  0
 18 21  1  0  0  0
 18 53  1  0  0  0
 19 20  2  0  0  0
 19 24  1  0  0  0
 21 22  1  0  0  0
 21 54  1  0  0  0
 21 55  1  0  0  0
 22 23  1  0  0  0
 22 56  1  0  0  0
 22 57  1  0  0  0
 23 58  1  0  0  0
 23 59  1  0  0  0
 24 25  1  0  0  0
 24 60  1  0  0  0
 25 26  1  0  0  0
 25 28  1  0  0  0
 25 61  1  0  0  0
 26 27  2  0  0  0
 26 35  1  0  0  0
 28 29  1  0  0  0
 28 62  1  0  0  0
 28 63  1  0  0  0
 29 30  2  0  0  0
 29 31  1  0  0  0
 30 32  1  0  0  0
 30 64  1  0  0  0
 31 33  2  0  0  0
 31 65  1  0  0  0
 32 34  2  0  0  0
 32 66  1  0  0  0
 33 34  1  0  0  0
 33 67  1  0  0  0
 34 68  1  0  0  0
M  CHG  3   1   1   7  -1  35  -1
M  END
> <s_m_source_file>
../3sxu_ligand.sdf

> <i_m_source_file_index>
1

> <s_epik_input>
W09IXUMoPU8pW0NIMl1bQ0BIXShbTkgzK10pQyg9TylbTkhdW0NAQEhdKFtDQEBIXShbQ0gzXSlbQ0gyXVtDSDNdKUMoPU8pTjFbQ0BASF0oW0NIMl1bQ0gyXVtDSDJdMSlDKD1PKVtOSF1bQ0BIXShDKD1PKVtPSF0pW0NIMl1jMltjSF1bY0hdW2NIXVtjSF1bY0hdMg==

> <s_epik_cmdline>
J2VwaWtfYXBwJywgJy1pbWFlJywgJ2xpZ2FuZF9wcm8ubWFlJywgJy1vbWFlJywgJ2xpZ2FuZF9wcmVwLm1hZScsICctbXMnLCAnMScsICctcGgnLCAnNycsICctcGh0JywgJzAuNScsICctbnQn

> <r_epik_Ionization_Penalty>
  0.0218

> <r_epik_Ionization_Penalty_Charging>
  0.0218

> <r_epik_Ionization_Penalty_Neutral>
  0.0000

> <r_epik_State_Penalty>
  0.0155

> <r_epik_Charging_Adjusted_Penalty>
0.0373289402426479

> <i_epik_Tot_Q>
-1

> <i_epik_Tot_abs_Q>
3

$$$$
