3sym_ligand
                    3D
 Schrodinger Suite 2020-3.
 37 38  0  0  1  0            999 V2000
   35.4460   23.6790   28.5790 C   0  0  0  0  0  0
   37.5560   24.4340   29.2400 F   0  0  0  0  0  0
   34.0590   23.5780   28.8140 N   0  0  0  0  0  0
   36.2410   24.3630   29.4830 C   0  0  0  0  0  0
   35.6780   24.9610   30.6270 C   0  0  0  0  0  0
   36.3660   25.5960   31.4320 O   0  0  0  0  0  0
   34.3020   24.8610   30.8630 N   0  0  0  0  0  0
   33.4920   24.1670   29.9630 C   0  0  0  0  0  0
   32.2870   24.0740   30.1940 O   0  0  0  0  0  0
   33.1880   22.8650   27.8630 C   0  0  1  0  0  0
   33.5520   23.1870   26.3850 C   0  0  2  0  0  0
   33.7100   24.5930   26.1930 O   0  0  0  0  0  0
   32.4960   22.5890   25.4140 C   0  0  1  0  0  0
   32.9720   22.5240   24.0760 O   0  0  0  0  0  0
   32.2110   21.1210   25.8210 C   0  0  2  0  0  0
   31.0840   20.6420   25.0890 O   0  0  0  0  0  0
   32.0420   20.8900   27.3480 C   0  0  2  0  0  0
   33.1610   21.4250   28.0870 O   0  0  0  0  0  0
   32.0070   19.4220   27.7640 C   0  0  0  0  0  0
   33.1240   18.7230   27.2370 O   0  0  0  0  0  0
   31.2510   23.5010   25.4080 C   0  0  0  0  0  0
   30.5590   23.7770   26.6240 O   0  0  0  0  0  0
   35.8882   23.2226   27.6934 H   0  0  0  0  0  0
   33.8617   25.3287   31.7560 H   0  0  0  0  0  0
   32.1734   23.2052   28.1175 H   0  0  0  0  0  0
   34.5517   22.8020   26.1355 H   0  0  0  0  0  0
   34.4256   25.1555   26.8107 H   0  0  0  0  0  0
   33.8621   21.9234   23.8375 H   0  0  0  0  0  0
   33.0523   20.4902   25.4981 H   0  0  0  0  0  0
   31.0592   20.7365   23.9933 H   0  0  0  0  0  0
   31.1130   21.4105   27.6238 H   0  0  0  0  0  0
   32.0296   19.3513   28.8615 H   0  0  0  0  0  0
   31.0856   18.9555   27.3855 H   0  0  0  0  0  0
   33.2493   17.6500   27.4446 H   0  0  0  0  0  0
   31.5274   24.4962   25.0297 H   0  0  0  0  0  0
   30.4789   23.0632   24.7583 H   0  0  0  0  0  0
   29.6719   24.4274   26.6166 H   0  0  0  0  0  0
  1  3  1  0  0  0
  1  4  2  0  0  0
  1 23  1  0  0  0
  2  4  1  0  0  0
  3  8  1  0  0  0
  3 10  1  0  0  0
  4  5  1  0  0  0
  5  6  2  0  0  0
  5  7  1  0  0  0
  7  8  1  0  0  0
  7 24  1  0  0  0
  8  9  2  0  0  0
 10 11  1  0  0  0
 10 18  1  0  0  0
 10 25  1  0  0  0
 11 12  1  0  0  0
 11 13  1  0  0  0
 11 26  1  0  0  0
 12 27  1  0  0  0
 13 14  1  0  0  0
 13 15  1  0  0  0
 13 21  1  0  0  0
 14 28  1  0  0  0
 15 16  1  0  0  0
 15 17  1  0  0  0
 15 29  1  0  0  0
 16 30  1  0  0  0
 17 18  1  0  0  0
 17 19  1  0  0  0
 17 31  1  0  0  0
 19 20  1  0  0  0
 19 32  1  0  0  0
 19 33  1  0  0  0
 20 34  1  0  0  0
 21 22  1  0  0  0
 21 35  1  0  0  0
 21 36  1  0  0  0
 22 37  1  0  0  0
M  END
> <s_m_source_file>
../3sym_ligand.sdf

> <i_m_source_file_index>
1

> <s_epik_input>
Tz1jMVtuSF1jKD1PKWMoRilbY0hdbjFbQ0BASF0oW0NASF0oW09IXSlbQ0BdMihbT0hdKVtDSDJdW09IXSlPW0NAQEhdKFtDQEhdMltPSF0pW0NIMl1bT0hd

> <s_epik_cmdline>
J2VwaWtfYXBwJywgJy1pbWFlJywgJ2xpZ2FuZF9wcm8ubWFlJywgJy1vbWFlJywgJ2xpZ2FuZF9wcmVwLm1hZScsICctbXMnLCAnMScsICctcGgnLCAnNycsICctcGh0JywgJzAuNScsICctbnQn

> <r_lp_tautomer_probability>
0.999537046341301

> <r_epik_Ionization_Penalty>
  0.0707

> <r_epik_Ionization_Penalty_Charging>
  0.0707

> <r_epik_Ionization_Penalty_Neutral>
  0.0000

> <r_epik_State_Penalty>
  0.0621

> <r_epik_Charging_Adjusted_Penalty>
0.132801275754374

> <i_epik_Tot_Q>
0

> <i_epik_Tot_abs_Q>
0

> <s_epik_Chemistry_Notes>
This compound contains an acetal/aminal-like group ( X-CH(R)-Y where X, Y are N, S, or O) that may be acid/base labile, releasing an aldehyde.

$$$$
