3sz1_ligand
                    3D
 Schrodinger Suite 2020-3.
 31 33  0  0  1  0            999 V2000
   36.8060  -22.3400   41.8430 C   0  0  0  0  0  0
   34.7180  -21.4410   41.4730 O   0  0  0  0  0  0
   35.9230  -21.2870   42.0110 C   0  0  0  0  0  0
   37.8020  -18.8800   44.0150 O   0  0  0  0  0  0
   36.2520  -20.1270   42.7220 C   0  0  0  0  0  0
   40.2110  -20.1420   44.3810 O   0  0  0  0  0  0
   37.5270  -20.0300   43.3170 C   0  0  0  0  0  0
   38.8410  -23.4110   42.1940 O   0  0  0  0  0  0
   38.4750  -21.1180   43.1590 C   0  0  0  0  0  0
   44.4170  -25.6550   42.5200 O   0  0  0  0  0  0
   38.0640  -22.2850   42.4050 C   0  0  0  0  0  0
   43.1840  -27.9510   41.8420 O   0  0  0  0  0  0
   39.7830  -21.1150   43.7220 C   0  0  0  0  0  0
   40.6000  -22.2620   43.5190 C   0  0  0  0  0  0
   40.1160  -23.3940   42.7490 C   0  0  0  0  0  0
   40.9020  -24.5460   42.5120 C   0  0  0  0  0  0
   42.3250  -24.4880   42.6400 C   0  0  0  0  0  0
   43.0740  -25.6550   42.4080 C   0  0  0  0  0  0
   42.4320  -26.8520   42.0460 C   0  0  0  0  0  0
   41.0360  -26.9200   41.8980 C   0  0  0  0  0  0
   40.2710  -25.7670   42.1500 C   0  0  0  0  0  0
   36.5062  -23.2143   41.2653 H   0  0  0  0  0  0
   34.4769  -22.3593   40.9175 H   0  0  0  0  0  0
   37.0396  -18.0915   44.0982 H   0  0  0  0  0  0
   35.5343  -19.3118   42.8143 H   0  0  0  0  0  0
   44.9454  -24.7323   42.8018 H   0  0  0  0  0  0
   44.2767  -27.8990   41.9575 H   0  0  0  0  0  0
   41.6020  -22.2914   43.9470 H   0  0  0  0  0  0
   42.8201  -23.5559   42.9125 H   0  0  0  0  0  0
   40.5549  -27.8495   41.5934 H   0  0  0  0  0  0
   39.1850  -25.8102   42.0670 H   0  0  0  0  0  0
  1  3  2  0  0  0
  1 11  1  0  0  0
  1 22  1  0  0  0
  2  3  1  0  0  0
  2 23  1  0  0  0
  3  5  1  0  0  0
  4  7  1  0  0  0
  4 24  1  0  0  0
  5  7  2  0  0  0
  5 25  1  0  0  0
  6 13  2  0  0  0
  7  9  1  0  0  0
  8 11  1  0  0  0
  8 15  1  0  0  0
  9 11  2  0  0  0
  9 13  1  0  0  0
 10 18  1  0  0  0
 10 26  1  0  0  0
 12 19  1  0  0  0
 12 27  1  0  0  0
 13 14  1  0  0  0
 14 15  2  0  0  0
 14 28  1  0  0  0
 15 16  1  0  0  0
 16 17  2  0  0  0
 16 21  1  0  0  0
 17 18  1  0  0  0
 17 29  1  0  0  0
 18 19  2  0  0  0
 19 20  1  0  0  0
 20 21  2  0  0  0
 20 30  1  0  0  0
 21 31  1  0  0  0
M  END
> <s_m_source_file>
../3sz1_ligand.sdf

> <i_m_source_file_index>
1

> <s_epik_input>
W09IXWMxW2NIXWMoW09IXSlbY0hdYyhjMTIpb2MoW2NIXWMyPU8pLWMzW2NIXWMoW09IXSljKFtPSF0pW2NIXVtjSF0z

> <s_epik_cmdline>
J2VwaWtfYXBwJywgJy1pbWFlJywgJ2xpZ2FuZF9wcm8ubWFlJywgJy1vbWFlJywgJ2xpZ2FuZF9wcmVwLm1hZScsICctbXMnLCAnMScsICctcGgnLCAnNycsICctcGh0JywgJzAuNScsICctbnQn

> <r_lp_tautomer_probability>
0.999999999999776

> <r_epik_Ionization_Penalty>
  0.0508

> <r_epik_Ionization_Penalty_Charging>
  0.0000

> <r_epik_Ionization_Penalty_Neutral>
  0.0508

> <r_epik_State_Penalty>
  0.0342

> <r_epik_Charging_Adjusted_Penalty>
0.0342161590699068

> <i_epik_Tot_Q>
0

> <i_epik_Tot_abs_Q>
0

$$$$
