3sz9_ligand
                    3D
 Schrodinger Suite 2020-3.
 26 26  0  0  1  0            999 V2000
   72.0260   57.4960   72.1570 C   0  0  0  0  0  0
   71.0340   58.4340   71.9010 C   0  0  0  0  0  0
   70.8280   58.8790   70.5990 C   0  0  0  0  0  0
   71.6060   58.3920   69.5590 C   0  0  0  0  0  0
   72.5960   57.4580   69.8190 C   0  0  0  0  0  0
   72.8050   57.0070   71.1180 C   0  0  0  0  0  0
   72.2640   56.9980   73.5640 C   0  0  0  0  0  0
   71.0920   57.4150   74.4450 C   0  0  0  0  0  0
   71.3880   58.8780   68.1600 C   0  0  0  0  0  0
   71.0170   60.0290   67.9710 O   0  0  0  0  0  0
   71.6120   58.0020   66.9920 C   0  0  0  0  0  0
   70.8920   58.3520   65.7100 C   0  0  0  0  0  0
   70.4205   58.8192   72.7155 H   0  0  0  0  0  0
   70.0503   59.6150   70.3949 H   0  0  0  0  0  0
   73.2117   57.0763   69.0046 H   0  0  0  0  0  0
   73.5812   56.2689   71.3200 H   0  0  0  0  0  0
   72.3488   55.9013   73.5553 H   0  0  0  0  0  0
   73.1948   57.4347   73.9550 H   0  0  0  0  0  0
   71.2587   57.0556   75.4712 H   0  0  0  0  0  0
   70.1628   56.9784   74.0499 H   0  0  0  0  0  0
   71.0088   58.5118   74.4496 H   0  0  0  0  0  0
   72.6814   58.0009   66.7342 H   0  0  0  0  0  0
   71.2924   56.9779   67.2350 H   0  0  0  0  0  0
   71.1513   57.6189   64.9320 H   0  0  0  0  0  0
   71.1949   59.3574   65.3821 H   0  0  0  0  0  0
   69.8058   58.3344   65.8830 H   0  0  0  0  0  0
  1  2  2  0  0  0
  1  6  1  0  0  0
  1  7  1  0  0  0
  2  3  1  0  0  0
  2 13  1  0  0  0
  3  4  2  0  0  0
  3 14  1  0  0  0
  4  5  1  0  0  0
  4  9  1  0  0  0
  5  6  2  0  0  0
  5 15  1  0  0  0
  6 16  1  0  0  0
  7  8  1  0  0  0
  7 17  1  0  0  0
  7 18  1  0  0  0
  8 19  1  0  0  0
  8 20  1  0  0  0
  8 21  1  0  0  0
  9 10  2  0  0  0
  9 11  1  0  0  0
 11 12  1  0  0  0
 11 22  1  0  0  0
 11 23  1  0  0  0
 12 24  1  0  0  0
 12 25  1  0  0  0
 12 26  1  0  0  0
M  END
> <s_m_source_file>
../3sz9_ligand.sdf

> <i_m_source_file_index>
1

> <s_epik_input>
W0NIM11bQ0gyXWMxW2NIXVtjSF1jKFtjSF1bY0hdMSlDKD1PKVtDSDJdW0NIM10=

> <s_epik_cmdline>
J2VwaWtfYXBwJywgJy1pbWFlJywgJ2xpZ2FuZF9wcm8ubWFlJywgJy1vbWFlJywgJ2xpZ2FuZF9wcmVwLm1hZScsICctbXMnLCAnMScsICctcGgnLCAnNycsICctcGh0JywgJzAuNScsICctbnQn

> <r_lp_tautomer_probability>
1

> <r_epik_Ionization_Penalty>
  0.0000

> <r_epik_Ionization_Penalty_Charging>
  0.0000

> <r_epik_Ionization_Penalty_Neutral>
  0.0000

> <r_epik_State_Penalty>
 -0.0000

> <r_epik_Charging_Adjusted_Penalty>
0

> <i_epik_Tot_Q>
0

> <i_epik_Tot_abs_Q>
0

$$$$
