3szm_ligand
                    3D
 Schrodinger Suite 2020-3.
 97 97  0  0  1  0            999 V2000
   24.6150    6.6810   65.4290 N   0  3  0  0  0  0
   25.8090    7.2370   66.0610 C   0  0  2  0  0  0
   25.4580    8.1330   67.2560 C   0  0  0  0  0  0
   24.6820    9.0880   67.1370 O   0  0  0  0  0  0
   26.6420    8.0300   65.0480 C   0  0  0  0  0  0
   25.8980    9.1850   64.3940 C   0  0  0  0  0  0
   24.8390    8.7210   63.4100 C   0  0  0  0  0  0
   24.8580    7.5790   62.9490 O   0  0  0  0  0  0
   23.9080    9.6090   63.0850 N   0  0  0  0  0  0
   26.0550    7.8220   68.4050 N   0  0  0  0  0  0
   25.8100    8.5680   69.6350 C   0  0  2  0  0  0
   26.4740    9.9420   69.5930 C   0  0  0  0  0  0
   27.5380   10.1110   68.9930 O   0  0  0  0  0  0
   26.3090    7.7780   70.8390 C   0  0  0  0  0  0
   25.8430   10.9230   70.2310 N   0  0  0  0  0  0
   26.4250   12.2560   70.3200 C   0  0  1  0  0  0
   25.5080   13.2070   71.0970 C   0  0  0  0  0  0
   24.2680   13.3410   70.4270 O   0  0  0  0  0  0
   27.8260   12.1810   70.9370 C   0  0  0  0  0  0
   28.0540   11.4930   71.9310 O   0  0  0  0  0  0
   23.0350   13.8920   71.3270 P   0  0  0  0  0  0
   23.5010   15.1790   72.1850 O   0  5  0  0  0  0
   22.5540   12.7300   72.3060 O   0  0  0  0  0  0
   21.8590   14.3260   70.3230 O   0  5  0  0  0  0
   28.7650   12.8870   70.3220 N   0  0  0  0  0  0
   30.1500   12.8420   70.7500 C   0  0  2  0  0  0
   30.2580   13.4790   72.1220 C   0  0  0  0  0  0
   29.5220   14.4160   72.4510 O   0  0  0  0  0  0
   31.0520   13.5420   69.7210 C   0  0  0  0  0  0
   32.5250   13.3970   69.9910 C   0  0  0  0  0  0
   33.3790   13.9010   68.8390 C   0  0  0  0  0  0
   32.8640   14.2270   67.7640 O   0  0  0  0  0  0
   34.6970   13.9690   69.0610 N   0  0  0  0  0  0
   31.1540   12.9300   72.9260 N   0  0  0  0  0  0
   31.5050   13.5010   74.2070 C   0  0  2  0  0  0
   32.8160   14.2970   74.0680 C   0  0  0  0  0  0
   33.8380   13.7730   73.6270 O   0  0  0  0  0  0
   31.6870   12.3730   75.2100 C   0  0  0  0  0  0
   32.0420   12.8300   76.6150 C   0  0  0  0  0  0
   32.2750   11.6630   77.5740 C   0  0  0  0  0  0
   32.7700   10.5900   77.1300 O   0  5  0  0  0  0
   31.9460   11.8280   78.7720 O   0  0  0  0  0  0
   32.7860   15.5680   74.4410 N   0  0  0  0  0  0
   33.9930   16.3910   74.4310 C   0  0  2  0  0  0
   34.5480   16.6210   75.8290 C   0  0  0  0  0  0
   35.6220   17.1900   75.9730 O   0  0  0  0  0  0
   33.6890   17.7240   73.7670 C   0  0  0  0  0  0
   33.1950   17.5880   72.3510 C   0  0  0  0  0  0
   31.8260   17.5570   72.0640 C   0  0  0  0  0  0
   34.0880   17.4790   71.2920 C   0  0  0  0  0  0
   31.3540   17.4360   70.7390 C   0  0  0  0  0  0
   33.6300   17.3520   69.9590 C   0  0  0  0  0  0
   32.2600   17.3270   69.6920 C   0  0  0  0  0  0
   31.8020   17.2160   68.3860 O   0  0  0  0  0  0
   33.9570   16.2670   76.8500 O   0  5  0  0  0  0
   24.0344    6.1174   66.1742 H   0  0  0  0  0  0
   24.9126    6.0085   64.6109 H   0  0  0  0  0  0
   23.9990    7.4984   65.0261 H   0  0  0  0  0  0
   26.3638    6.3542   66.4116 H   0  0  0  0  0  0
   27.5217    8.4575   65.5513 H   0  0  0  0  0  0
   26.9713    7.3604   64.2398 H   0  0  0  0  0  0
   25.3972    9.7841   65.1688 H   0  0  0  0  0  0
   26.6118    9.8175   63.8458 H   0  0  0  0  0  0
   23.9330   10.6176   63.5233 H   0  0  0  0  0  0
   23.1112    9.3365   62.3773 H   0  0  0  0  0  0
   26.7526    6.9715   68.4073 H   0  0  0  0  0  0
   24.7185    8.6936   69.6877 H   0  0  0  0  0  0
   25.8231    6.7913   70.8571 H   0  0  0  0  0  0
   26.0650    8.3238   71.7623 H   0  0  0  0  0  0
   27.3990    7.6487   70.7665 H   0  0  0  0  0  0
   24.8676   10.7166   70.6957 H   0  0  0  0  0  0
   26.5028   12.6187   69.2844 H   0  0  0  0  0  0
   25.3322   12.8044   72.1055 H   0  0  0  0  0  0
   25.9855   14.1949   71.1746 H   0  0  0  0  0  0
   28.4731   13.5172   69.4690 H   0  0  0  0  0  0
   30.4376   11.7823   70.8152 H   0  0  0  0  0  0
   30.8644   13.1208   68.7223 H   0  0  0  0  0  0
   30.8305   14.6194   69.7120 H   0  0  0  0  0  0
   32.7918   13.9741   70.8887 H   0  0  0  0  0  0
   32.7655   12.3358   70.1524 H   0  0  0  0  0  0
   35.1068   13.6669   70.0361 H   0  0  0  0  0  0
   35.3705   14.3270   68.2684 H   0  0  0  0  0  0
   31.6383   12.0028   72.5858 H   0  0  0  0  0  0
   30.6755   14.1569   74.5099 H   0  0  0  0  0  0
   30.7530   11.7971   75.2875 H   0  0  0  0  0  0
   32.4990   11.7113   74.8743 H   0  0  0  0  0  0
   32.9639   13.4293   76.5837 H   0  0  0  0  0  0
   31.2215   13.4403   77.0204 H   0  0  0  0  0  0
   31.8275   16.0013   74.7627 H   0  0  0  0  0  0
   34.7338   15.8176   73.8545 H   0  0  0  0  0  0
   32.9104   18.2496   74.3393 H   0  0  0  0  0  0
   34.6018   18.3373   73.7409 H   0  0  0  0  0  0
   31.1082   17.6278   72.8812 H   0  0  0  0  0  0
   35.1595   17.4915   71.4914 H   0  0  0  0  0  0
   30.2826   17.4282   70.5385 H   0  0  0  0  0  0
   34.3465   17.2738   69.1413 H   0  0  0  0  0  0
   30.7213   17.1968   68.1819 H   0  0  0  0  0  0
  1  2  1  0  0  0
  1 56  1  0  0  0
  1 57  1  0  0  0
  1 58  1  0  0  0
  2  3  1  0  0  0
  2  5  1  0  0  0
  2 59  1  0  0  0
  3  4  2  0  0  0
  3 10  1  0  0  0
  5  6  1  0  0  0
  5 60  1  0  0  0
  5 61  1  0  0  0
  6  7  1  0  0  0
  6 62  1  0  0  0
  6 63  1  0  0  0
  7  8  2  0  0  0
  7  9  1  0  0  0
  9 64  1  0  0  0
  9 65  1  0  0  0
 10 11  1  0  0  0
 10 66  1  0  0  0
 11 12  1  0  0  0
 11 14  1  0  0  0
 11 67  1  0  0  0
 12 13  2  0  0  0
 12 15  1  0  0  0
 14 68  1  0  0  0
 14 69  1  0  0  0
 14 70  1  0  0  0
 15 16  1  0  0  0
 15 71  1  0  0  0
 16 17  1  0  0  0
 16 19  1  0  0  0
 16 72  1  0  0  0
 17 18  1  0  0  0
 17 73  1  0  0  0
 17 74  1  0  0  0
 18 21  1  0  0  0
 19 20  2  0  0  0
 19 25  1  0  0  0
 21 22  1  0  0  0
 21 23  2  0  0  0
 21 24  1  0  0  0
 25 26  1  0  0  0
 25 75  1  0  0  0
 26 27  1  0  0  0
 26 29  1  0  0  0
 26 76  1  0  0  0
 27 28  2  0  0  0
 27 34  1  0  0  0
 29 30  1  0  0  0
 29 77  1  0  0  0
 29 78  1  0  0  0
 30 31  1  0  0  0
 30 79  1  0  0  0
 30 80  1  0  0  0
 31 32  2  0  0  0
 31 33  1  0  0  0
 33 81  1  0  0  0
 33 82  1  0  0  0
 34 35  1  0  0  0
 34 83  1  0  0  0
 35 36  1  0  0  0
 35 38  1  0  0  0
 35 84  1  0  0  0
 36 37  2  0  0  0
 36 43  1  0  0  0
 38 39  1  0  0  0
 38 85  1  0  0  0
 38 86  1  0  0  0
 39 40  1  0  0  0
 39 87  1  0  0  0
 39 88  1  0  0  0
 40 41  1  0  0  0
 40 42  2  0  0  0
 43 44  1  0  0  0
 43 89  1  0  0  0
 44 45  1  0  0  0
 44 47  1  0  0  0
 44 90  1  0  0  0
 45 46  2  0  0  0
 45 55  1  0  0  0
 47 48  1  0  0  0
 47 91  1  0  0  0
 47 92  1  0  0  0
 48 49  2  0  0  0
 48 50  1  0  0  0
 49 51  1  0  0  0
 49 93  1  0  0  0
 50 52  2  0  0  0
 50 94  1  0  0  0
 51 53  2  0  0  0
 51 95  1  0  0  0
 52 53  1  0  0  0
 52 96  1  0  0  0
 53 54  1  0  0  0
 54 97  1  0  0  0
M  CHG  5   1   1  22  -1  24  -1  41  -1  55  -1
M  END
> <s_m_source_file>
../3szm_ligand.sdf

> <i_m_source_file_index>
1

> <s_epik_input>
Tz1DKFtOSDJdKVtDSDJdW0NIMl1bQ0BIXShbTkgzK10pQyg9TylbTkhdW0NAQEhdKFtDSDNdKUMoPU8pW05IXVtDQEBIXShbQ0gyXU9QKD1PKShbT0hdKVtPSF0pQyg9TylbTkhdW0NAQEhdKFtDSDJdW0NIMl1DKD1PKVtOSDJdKUMoPU8pW05IXVtDQEBIXShbQ0gyXVtDSDJdQyg9TylbT0hdKUMoPU8pW05IXVtDQEhdKEMoPU8pW09IXSlbQ0gyXWMxW2NIXVtjSF1jKFtPSF0pW2NIXVtjSF0x

> <s_epik_cmdline>
J2VwaWtfYXBwJywgJy1pbWFlJywgJ2xpZ2FuZF9wcm8ubWFlJywgJy1vbWFlJywgJ2xpZ2FuZF9wcmVwLm1hZScsICctbXMnLCAnMScsICctcGgnLCAnNycsICctcGh0JywgJzAuNScsICctbnQn

> <r_lp_tautomer_probability>
0.999999999997365

> <r_epik_Ionization_Penalty>
  0.2622

> <r_epik_Ionization_Penalty_Charging>
  0.2616

> <r_epik_Ionization_Penalty_Neutral>
  0.0006

> <r_epik_State_Penalty>
  0.2216

> <r_epik_Charging_Adjusted_Penalty>
0.483157375721892

> <i_epik_Tot_Q>
-3

> <i_epik_Tot_abs_Q>
5

$$$$
