3t01_ligand
                    3D
 Schrodinger Suite 2020-3.
  8  7  0  0  1  0            999 V2000
   -1.1550   32.9560   21.3010 C   0  0  0  0  0  0
    0.8280   32.2500   19.8230 O   0  5  0  0  0  0
   -0.9680   30.5410   20.3340 O   0  0  0  0  0  0
    0.6150   31.3080   22.1430 O   0  0  0  0  0  0
   -0.8010   34.1260   21.0380 O   0  0  0  0  0  0
   -2.2420   32.7390   21.8840 O   0  5  0  0  0  0
   -0.0980   31.6660   20.8620 P   0  0  0  0  0  0
   -1.5406   30.6782   19.4049 H   0  0  0  0  0  0
  1  5  2  0  0  0
  1  6  1  0  0  0
  1  7  1  0  0  0
  2  7  1  0  0  0
  3  7  1  0  0  0
  3  8  1  0  0  0
  4  7  2  0  0  0
M  CHG  2   2  -1   6  -1
M  END
> <s_m_source_file>
../3t01_ligand.sdf

> <i_m_source_file_index>
1

> <s_epik_input>
Tz1DKFtPSF0pUCg9TykoW09IXSlbT0hd

> <s_epik_cmdline>
J2VwaWtfYXBwJywgJy1pbWFlJywgJ2xpZ2FuZF9wcm8ubWFlJywgJy1vbWFlJywgJ2xpZ2FuZF9wcmVwLm1hZScsICctbXMnLCAnMScsICctcGgnLCAnNycsICctcGh0JywgJzAuNScsICctbnQn

> <r_lp_tautomer_probability>
1

> <r_epik_Ionization_Penalty>
  0.0086

> <r_epik_Ionization_Penalty_Charging>
  0.0002

> <r_epik_Ionization_Penalty_Neutral>
  0.0085

> <r_epik_State_Penalty>
 -0.0000

> <r_epik_Charging_Adjusted_Penalty>
0.000150402791654004

> <i_epik_Tot_Q>
-2

> <i_epik_Tot_abs_Q>
2

$$$$
