3t03_ligand
                    3D
 Schrodinger Suite 2020-3.
 43 45  0  0  1  0            999 V2000
  -17.7410   22.0290  -17.4400 C   0  0  0  0  0  0
  -15.1420   20.3890   -7.7010 C   0  0  0  0  0  0
  -18.7080   26.4060  -10.3380 O   0  0  0  0  0  0
  -19.7640   22.4480  -12.8040 O   0  0  0  0  0  0
  -21.4580   27.8980  -18.7520 Br  0  0  0  0  0  0
  -19.3750   23.9980  -14.9160 C   0  0  0  0  0  0
  -16.4810   21.2160   -9.8760 C   0  0  0  0  0  0
  -17.2540   21.8640   -7.5540 C   0  0  0  0  0  0
  -19.4870   25.7140  -18.9040 C   0  0  0  0  0  0
  -17.5650   22.0150  -10.4880 C   0  0  0  0  0  0
  -18.3790   22.6620   -8.1600 C   0  0  0  0  0  0
  -18.7290   24.5370  -18.4930 C   0  0  0  0  0  0
  -20.4800   26.0290  -16.4870 C   0  0  0  0  0  0
  -19.6440   23.5260  -10.1130 C   0  0  0  0  0  0
  -18.0710   23.0630  -16.5940 O   0  0  0  0  0  0
  -18.6260   26.1050  -12.9910 S   0  0  0  0  0  0
  -16.2880   21.1430   -8.3900 C   0  0  0  0  0  0
  -20.3900   26.4300  -18.0100 C   0  0  0  0  0  0
  -18.5020   22.7440   -9.5960 C   0  0  0  0  0  0
  -19.7120   24.8060  -16.1050 C   0  0  0  0  0  0
  -18.8220   24.1030  -17.0690 C   0  0  0  0  0  0
  -18.9100   25.6910  -11.2910 C   0  0  0  0  0  0
  -19.4140   23.6720  -12.5180 C   0  0  0  0  0  0
  -19.1530   24.5850  -13.5890 C   0  0  3  0  0  0
  -19.3140   24.3230  -11.2880 N   0  0  0  0  0  0
  -17.1397   21.2867  -16.8946 H   0  0  0  0  0  0
  -17.1596   22.4203  -18.2879 H   0  0  0  0  0  0
  -18.6598   21.5535  -17.8137 H   0  0  0  0  0  0
  -14.5116   19.9055   -8.4618 H   0  0  0  0  0  0
  -15.5582   19.6237   -7.0293 H   0  0  0  0  0  0
  -14.5351   21.0975   -7.1182 H   0  0  0  0  0  0
  -20.1821   23.2760  -14.7226 H   0  0  0  0  0  0
  -18.4341   23.4569  -15.0950 H   0  0  0  0  0  0
  -15.8015   20.6632  -10.5247 H   0  0  0  0  0  0
  -17.1556   21.8214   -6.4693 H   0  0  0  0  0  0
  -19.3732   26.0748  -19.9262 H   0  0  0  0  0  0
  -17.6737   22.0676  -11.5713 H   0  0  0  0  0  0
  -19.0957   23.1743   -7.5181 H   0  0  0  0  0  0
  -18.1122   23.9904  -19.2064 H   0  0  0  0  0  0
  -21.0609   26.6031  -15.7652 H   0  0  0  0  0  0
  -20.4586   22.8427  -10.3950 H   0  0  0  0  0  0
  -19.9982   24.2168   -9.3337 H   0  0  0  0  0  0
  -18.1117   24.2309  -13.6066 H   0  0  0  0  0  0
  1 15  1  0  0  0
  1 26  1  0  0  0
  1 27  1  0  0  0
  1 28  1  0  0  0
  2 17  1  0  0  0
  2 29  1  0  0  0
  2 30  1  0  0  0
  2 31  1  0  0  0
  3 22  2  0  0  0
  4 23  2  0  0  0
  5 18  1  0  0  0
  6 20  1  0  0  0
  6 24  1  0  0  0
  6 32  1  0  0  0
  6 33  1  0  0  0
  7 10  2  0  0  0
  7 17  1  0  0  0
  7 34  1  0  0  0
  8 11  1  0  0  0
  8 17  2  0  0  0
  8 35  1  0  0  0
  9 12  2  0  0  0
  9 18  1  0  0  0
  9 36  1  0  0  0
 10 19  1  0  0  0
 10 37  1  0  0  0
 11 19  2  0  0  0
 11 38  1  0  0  0
 12 21  1  0  0  0
 12 39  1  0  0  0
 13 18  2  0  0  0
 13 20  1  0  0  0
 13 40  1  0  0  0
 14 19  1  0  0  0
 14 25  1  0  0  0
 14 41  1  0  0  0
 14 42  1  0  0  0
 15 21  1  0  0  0
 16 22  1  0  0  0
 16 24  1  0  0  0
 20 21  2  0  0  0
 22 25  1  0  0  0
 23 24  1  0  0  0
 23 25  1  0  0  0
 24 43  1  0  0  0
M  END
> <s_m_source_file>
../3t03_ligand.sdf

> <i_m_source_file_index>
1

> <s_epik_input>
QnJjMVtjSF1bY0hdYyhPW0NIM10pYyhbY0hdMSlbQ0gyXVtDSF0oU0MyPU8pQyg9TylOMltDSDJdYyhbY0hdW2NIXTMpW2NIXVtjSF1jM1tDSDNd

> <s_epik_cmdline>
J2VwaWtfYXBwJywgJy1pbWFlJywgJ2xpZ2FuZF9wcm8ubWFlJywgJy1vbWFlJywgJ2xpZ2FuZF9wcmVwLm1hZScsICctbXMnLCAnMScsICctcGgnLCAnNycsICctcGh0JywgJzAuNScsICctbnQn

> <r_lp_tautomer_probability>
1

> <r_epik_Ionization_Penalty>
  0.0000

> <r_epik_Ionization_Penalty_Charging>
  0.0000

> <r_epik_Ionization_Penalty_Neutral>
  0.0000

> <r_epik_State_Penalty>
 -0.0000

> <r_epik_Charging_Adjusted_Penalty>
0

> <i_epik_Tot_Q>
0

> <i_epik_Tot_abs_Q>
0

$$$$
