3t07_ligand
                    3D
 Schrodinger Suite 2020-3.
 39 43  0  0  1  0            999 V2000
   -9.4760    1.1630    3.1150 C   0  0  0  0  0  0
  -11.4350    1.1700    1.8630 N   0  0  0  0  0  0
   -8.8820    1.5090    4.1370 O   0  0  0  0  0  0
  -10.5650    2.0590    2.5930 C   0  0  1  0  0  0
   -9.1420   -0.0410    2.3980 N   0  0  0  0  0  0
  -14.7080   -0.6240    1.5210 N   0  0  0  0  0  0
  -13.5710    2.4070    4.6240 N   0  0  0  0  0  0
  -16.3390   -4.0040   -1.8690 Br  0  0  0  0  0  0
  -13.4040    6.3340    8.0210 Br  0  0  0  0  0  0
  -13.6020   -3.0480   -1.5220 C   0  0  0  0  0  0
  -11.3270    5.4640    6.0840 C   0  0  0  0  0  0
  -12.6490   -2.2430   -0.8770 C   0  0  0  0  0  0
  -10.8490    4.6130    5.0630 C   0  0  0  0  0  0
  -13.5460   -0.0720    1.8220 C   0  0  0  0  0  0
  -12.7790    1.8880    3.7060 C   0  0  0  0  0  0
  -15.3940   -2.2220   -0.1060 C   0  0  0  0  0  0
  -13.3950    4.2660    6.1690 C   0  0  0  0  0  0
   -9.8460   -0.4940    1.1390 C   0  0  0  0  0  0
  -11.2630    0.0070    1.2610 C   0  0  0  0  0  0
  -14.9480   -3.0160   -1.1190 C   0  0  3  0  0  0
  -12.6070    5.2870    6.6380 C   0  0  3  0  0  0
  -12.5440   -0.5020    1.0390 C   0  0  0  0  0  0
  -11.6050    2.5270    3.6580 C   0  0  0  0  0  0
  -14.4750   -1.4460    0.5240 C   0  0  0  0  0  0
  -12.9410    3.4310    5.1750 C   0  0  0  0  0  0
  -13.1050   -1.4330    0.1640 C   0  0  0  0  0  0
  -11.6690    3.5760    4.5980 C   0  0  0  0  0  0
  -10.0556    2.8762    2.0613 H   0  0  0  0  0  0
   -8.3226   -0.6434    2.8170 H   0  0  0  0  0  0
  -13.2964   -3.7080   -2.3472 H   0  0  0  0  0  0
  -10.6946    6.2822    6.4590 H   0  0  0  0  0  0
  -11.5975   -2.2702   -1.1990 H   0  0  0  0  0  0
   -9.8444    4.7685    4.6429 H   0  0  0  0  0  0
  -13.4798    0.6576    2.6425 H   0  0  0  0  0  0
  -13.1229    1.0363    3.1007 H   0  0  0  0  0  0
  -16.4477   -2.1916    0.2083 H   0  0  0  0  0  0
  -14.3982    4.1186    6.5956 H   0  0  0  0  0  0
   -9.3429   -0.0613    0.2617 H   0  0  0  0  0  0
   -9.8139   -1.5917    1.0757 H   0  0  0  0  0  0
  1  3  2  0  0  0
  1  4  1  0  0  0
  1  5  1  0  0  0
  2  4  1  0  0  0
  2 19  2  0  0  0
  4 23  1  0  0  0
  4 28  1  0  0  0
  5 18  1  0  0  0
  5 29  1  0  0  0
  6 14  2  0  0  0
  6 24  1  0  0  0
  7 15  2  0  0  0
  7 25  1  0  0  0
  8 20  1  0  0  0
  9 21  1  0  0  0
 10 12  2  0  0  0
 10 20  1  0  0  0
 10 30  1  0  0  0
 11 13  2  0  0  0
 11 21  1  0  0  0
 11 31  1  0  0  0
 12 26  1  0  0  0
 12 32  1  0  0  0
 13 27  1  0  0  0
 13 33  1  0  0  0
 14 22  1  0  0  0
 14 34  1  0  0  0
 15 23  1  0  0  0
 15 35  1  0  0  0
 16 20  1  0  0  0
 16 24  2  0  0  0
 16 36  1  0  0  0
 17 21  1  0  0  0
 17 25  2  0  0  0
 17 37  1  0  0  0
 18 19  1  0  0  0
 18 38  1  0  0  0
 18 39  1  0  0  0
 19 22  1  0  0  0
 22 26  2  0  0  0
 23 27  2  0  0  0
 24 26  1  0  0  0
 25 27  1  0  0  0
M  END
> <s_m_source_file>
../3t07_ligand.sdf

> <i_m_source_file_index>
1

> <s_epik_input>
QnJbQ0hdKFtDSF09MSlbQ0hdPVtDSF1DKEMxMik9QyhbQ0hdPU4yKVtDQEBIXShDMz1PKU49QyhbQ0gyXVtOSF0zKUMoW0NIXT1ONCk9QyhDNDUpW0NIXT1bQ0hdW0NIXShCcilbQ0hdPTU=

> <s_epik_cmdline>
J2VwaWtfYXBwJywgJy1pbWFlJywgJ2xpZ2FuZF9wcm8ubWFlJywgJy1vbWFlJywgJ2xpZ2FuZF9wcmVwLm1hZScsICctbXMnLCAnMScsICctcGgnLCAnNycsICctcGh0JywgJzAuNScsICctbnQn

> <r_epik_Ionization_Penalty>
  0.0742

> <r_epik_Ionization_Penalty_Charging>
  0.0000

> <r_epik_Ionization_Penalty_Neutral>
  0.0742

> <r_epik_State_Penalty>
  0.0654

> <r_epik_Charging_Adjusted_Penalty>
0.0653501012515791

> <i_epik_Tot_Q>
0

> <i_epik_Tot_abs_Q>
0

> <s_epik_Chemistry_Notes>
This compound has an imine and may undergo hydrolysis.

$$$$
