3t08_ligand
                    3D
 Schrodinger Suite 2020-3.
 33 33  0  0  1  0            999 V2000
  -14.6760  -27.5230  -26.4000 C   0  0  1  0  0  0
  -13.3840  -27.3280  -25.6060 C   0  0  2  0  0  0
  -13.5120  -26.1960  -24.7450 O   0  0  0  0  0  0
  -12.1940  -27.1100  -26.5390 C   0  0  1  0  0  0
  -10.9950  -27.1630  -25.7700 O   0  0  0  0  0  0
  -12.1430  -28.1460  -27.6650 C   0  0  1  0  0  0
  -11.7450  -29.4210  -27.1280 O   0  0  0  0  0  0
  -13.5240  -28.2240  -28.3360 C   0  0  2  0  0  0
  -14.4970  -28.5720  -27.3510 O   0  0  0  0  0  0
  -13.6380  -29.2130  -29.4910 C   0  0  0  0  0  0
  -12.4290  -29.2080  -30.2640 O   0  0  0  0  0  0
  -15.9820  -28.0010  -25.3310 S   0  0  0  0  0  0
  -17.4290  -27.4040  -26.1670 C   0  0  0  0  0  0
  -17.7570  -28.2470  -27.4010 C   0  0  0  0  0  0
  -18.6010  -27.4200  -25.1900 C   0  0  0  0  0  0
  -14.7879  -26.6201  -27.0182 H   0  0  0  0  0  0
  -13.2109  -28.1971  -24.9543 H   0  0  0  0  0  0
  -14.3165  -26.1632  -23.9956 H   0  0  0  0  0  0
  -12.2402  -26.1043  -26.9822 H   0  0  0  0  0  0
  -10.8593  -26.4840  -24.9152 H   0  0  0  0  0  0
  -11.3680  -27.9084  -28.4086 H   0  0  0  0  0  0
  -10.7770  -29.5241  -26.6159 H   0  0  0  0  0  0
  -13.7572  -27.2252  -28.7335 H   0  0  0  0  0  0
  -13.8081  -30.2241  -29.0925 H   0  0  0  0  0  0
  -14.4812  -28.9269  -30.1369 H   0  0  0  0  0  0
  -12.3343  -29.8650  -31.1411 H   0  0  0  0  0  0
  -17.3918  -26.3824  -26.5732 H   0  0  0  0  0  0
  -16.9046  -28.2267  -28.0960 H   0  0  0  0  0  0
  -18.6469  -27.8358  -27.9000 H   0  0  0  0  0  0
  -17.9553  -29.2845  -27.0941 H   0  0  0  0  0  0
  -18.3519  -26.8108  -24.3086 H   0  0  0  0  0  0
  -18.8022  -28.4547  -24.8756 H   0  0  0  0  0  0
  -19.4937  -27.0060  -25.6815 H   0  0  0  0  0  0
  1  2  1  0  0  0
  1  9  1  0  0  0
  1 12  1  0  0  0
  1 16  1  0  0  0
  2  3  1  0  0  0
  2  4  1  0  0  0
  2 17  1  0  0  0
  3 18  1  0  0  0
  4  5  1  0  0  0
  4  6  1  0  0  0
  4 19  1  0  0  0
  5 20  1  0  0  0
  6  7  1  0  0  0
  6  8  1  0  0  0
  6 21  1  0  0  0
  7 22  1  0  0  0
  8  9  1  0  0  0
  8 10  1  0  0  0
  8 23  1  0  0  0
 10 11  1  0  0  0
 10 24  1  0  0  0
 10 25  1  0  0  0
 11 26  1  0  0  0
 12 13  1  0  0  0
 13 14  1  0  0  0
 13 15  1  0  0  0
 13 27  1  0  0  0
 14 28  1  0  0  0
 14 29  1  0  0  0
 14 30  1  0  0  0
 15 31  1  0  0  0
 15 32  1  0  0  0
 15 33  1  0  0  0
M  END
> <s_m_source_file>
../3t08_ligand.sdf

> <i_m_source_file_index>
1

> <s_epik_input>
W0NIM11bQ0hdKFtDSDNdKVNbQ0BIXTFbQ0BIXShbT0hdKVtDQEBIXShbT0hdKVtDQEBIXShbT0hdKVtDQEhdKE8xKVtDSDJdW09IXQ==

> <s_epik_cmdline>
J2VwaWtfYXBwJywgJy1pbWFlJywgJ2xpZ2FuZF9wcm8ubWFlJywgJy1vbWFlJywgJ2xpZ2FuZF9wcmVwLm1hZScsICctbXMnLCAnMScsICctcGgnLCAnNycsICctcGh0JywgJzAuNScsICctbnQn

> <r_lp_tautomer_probability>
1

> <r_epik_Ionization_Penalty>
  0.0000

> <r_epik_Ionization_Penalty_Charging>
  0.0000

> <r_epik_Ionization_Penalty_Neutral>
  0.0000

> <r_epik_State_Penalty>
 -0.0000

> <r_epik_Charging_Adjusted_Penalty>
0

> <i_epik_Tot_Q>
0

> <i_epik_Tot_abs_Q>
0

> <s_epik_Chemistry_Notes>
This compound contains an acetal/aminal-like group ( X-CH(R)-Y where X, Y are N, S, or O) that may be acid/base labile, releasing an aldehyde.

$$$$
