3t0b_ligand
                    3D
 Schrodinger Suite 2020-3.
 33 33  0  0  1  0            999 V2000
  -14.8130  -27.5580  -26.1290 C   0  0  1  0  0  0
  -13.4780  -27.3620  -25.3940 C   0  0  2  0  0  0
  -13.5430  -26.2460  -24.5130 O   0  0  0  0  0  0
  -12.2960  -27.1720  -26.3490 C   0  0  1  0  0  0
  -11.0720  -27.2180  -25.6120 O   0  0  0  0  0  0
  -12.2850  -28.2570  -27.4240 C   0  0  1  0  0  0
  -11.9260  -29.5160  -26.8270 O   0  0  0  0  0  0
  -13.6730  -28.3040  -28.0770 C   0  0  2  0  0  0
  -14.6490  -28.6080  -27.0850 O   0  0  0  0  0  0
  -13.8300  -29.3120  -29.2030 C   0  0  0  0  0  0
  -12.7310  -29.2430  -30.1150 O   0  0  0  0  0  0
  -16.0700  -28.0390  -24.9790 S   0  0  0  0  0  0
  -17.6840  -28.2500  -25.6890 C   0  0  0  0  0  0
  -18.6780  -27.3260  -24.9880 C   0  0  0  0  0  0
  -17.7310  -28.0770  -27.2060 C   0  0  0  0  0  0
  -14.9749  -26.6649  -26.7505 H   0  0  0  0  0  0
  -13.3056  -28.2400  -24.7541 H   0  0  0  0  0  0
  -14.3304  -26.1955  -23.7466 H   0  0  0  0  0  0
  -12.3360  -26.1760  -26.8142 H   0  0  0  0  0  0
  -10.8972  -26.5070  -24.7911 H   0  0  0  0  0  0
  -11.5082  -28.0919  -28.1851 H   0  0  0  0  0  0
  -10.9555  -29.6282  -26.3216 H   0  0  0  0  0  0
  -13.8747  -27.3036  -28.4875 H   0  0  0  0  0  0
  -13.8741  -30.3275  -28.7825 H   0  0  0  0  0  0
  -14.7581  -29.1033  -29.7553 H   0  0  0  0  0  0
  -12.6975  -29.9120  -30.9875 H   0  0  0  0  0  0
  -18.1242  -29.2548  -25.6076 H   0  0  0  0  0  0
  -18.6158  -27.4782  -23.9004 H   0  0  0  0  0  0
  -19.6972  -27.5549  -25.3326 H   0  0  0  0  0  0
  -18.4367  -26.2796  -25.2262 H   0  0  0  0  0  0
  -17.0041  -28.7563  -27.6752 H   0  0  0  0  0  0
  -17.4811  -27.0374  -27.4644 H   0  0  0  0  0  0
  -18.7416  -28.3127  -27.5708 H   0  0  0  0  0  0
  1  2  1  0  0  0
  1  9  1  0  0  0
  1 12  1  0  0  0
  1 16  1  0  0  0
  2  3  1  0  0  0
  2  4  1  0  0  0
  2 17  1  0  0  0
  3 18  1  0  0  0
  4  5  1  0  0  0
  4  6  1  0  0  0
  4 19  1  0  0  0
  5 20  1  0  0  0
  6  7  1  0  0  0
  6  8  1  0  0  0
  6 21  1  0  0  0
  7 22  1  0  0  0
  8  9  1  0  0  0
  8 10  1  0  0  0
  8 23  1  0  0  0
 10 11  1  0  0  0
 10 24  1  0  0  0
 10 25  1  0  0  0
 11 26  1  0  0  0
 12 13  1  0  0  0
 13 14  1  0  0  0
 13 15  1  0  0  0
 13 27  1  0  0  0
 14 28  1  0  0  0
 14 29  1  0  0  0
 14 30  1  0  0  0
 15 31  1  0  0  0
 15 32  1  0  0  0
 15 33  1  0  0  0
M  END
> <s_m_source_file>
../3t0b_ligand.sdf

> <i_m_source_file_index>
1

> <s_epik_input>
W0NIM11bQ0hdKFtDSDNdKVNbQ0BIXTFbQ0BIXShbT0hdKVtDQEBIXShbT0hdKVtDQEBIXShbT0hdKVtDQEhdKE8xKVtDSDJdW09IXQ==

> <s_epik_cmdline>
J2VwaWtfYXBwJywgJy1pbWFlJywgJ2xpZ2FuZF9wcm8ubWFlJywgJy1vbWFlJywgJ2xpZ2FuZF9wcmVwLm1hZScsICctbXMnLCAnMScsICctcGgnLCAnNycsICctcGh0JywgJzAuNScsICctbnQn

> <r_lp_tautomer_probability>
1

> <r_epik_Ionization_Penalty>
  0.0000

> <r_epik_Ionization_Penalty_Charging>
  0.0000

> <r_epik_Ionization_Penalty_Neutral>
  0.0000

> <r_epik_State_Penalty>
 -0.0000

> <r_epik_Charging_Adjusted_Penalty>
0

> <i_epik_Tot_Q>
0

> <i_epik_Tot_abs_Q>
0

> <s_epik_Chemistry_Notes>
This compound contains an acetal/aminal-like group ( X-CH(R)-Y where X, Y are N, S, or O) that may be acid/base labile, releasing an aldehyde.

$$$$
