3t0m_ligand
                    3D
 Schrodinger Suite 2020-3.
 42 43  0  0  1  0            999 V2000
   21.1890    7.2430   -5.2040 C   0  0  0  0  0  0
   21.3420    6.9050  -11.4640 C   0  0  0  0  0  0
   25.2550    9.4420   -8.5610 O   0  0  0  0  0  0
   21.8320   12.5200   -9.2150 O   0  0  0  0  0  0
   20.8760   14.7540   -9.6380 O   0  5  0  0  0  0
   21.7290   13.1780  -11.6870 O   0  0  0  0  0  0
   26.1210   15.6270  -10.3040 C   0  0  0  0  0  0
   24.9960   16.4440  -10.1750 C   0  0  0  0  0  0
   25.9910   14.2230  -10.3950 C   0  0  0  0  0  0
   21.0850    7.1970   -7.9000 C   0  0  0  0  0  0
   23.7070   15.8770  -10.1770 C   0  0  0  0  0  0
   21.3030    7.0790   -9.2690 C   0  0  0  0  0  0
   22.4050    9.1920   -7.8540 C   0  0  0  0  0  0
   25.4280   11.3100  -10.0330 C   0  0  0  0  0  0
   23.4040    9.9960   -9.8000 N   0  0  0  0  0  0
   21.4360    8.4560   -5.8570 O   0  0  0  0  0  0
   22.3290    7.9170  -11.2110 O   0  0  0  0  0  0
   24.4460   12.3170  -10.4440 O   0  0  0  0  0  0
   24.6680   10.1710   -9.3820 C   0  0  0  0  0  0
   21.6280    8.2680   -7.1960 C   0  0  0  0  0  0
   22.6550    9.0680   -9.2110 C   0  0  0  0  0  0
   22.1040    8.0260   -9.9070 C   0  0  0  0  0  0
   24.6950   13.6730  -10.3660 C   0  0  0  0  0  0
   23.5780   14.4960  -10.2240 C   0  0  0  0  0  0
   21.8790   13.6880  -10.2030 P   0  0  0  0  0  0
   21.0391    7.4286   -4.1302 H   0  0  0  0  0  0
   22.0479    6.5700   -5.3434 H   0  0  0  0  0  0
   20.2859    6.7771   -5.6252 H   0  0  0  0  0  0
   21.3490    6.6451  -12.5328 H   0  0  0  0  0  0
   20.3479    7.2846  -11.1854 H   0  0  0  0  0  0
   21.5731    6.0101  -10.8675 H   0  0  0  0  0  0
   20.8158   12.6489  -11.9971 H   0  0  0  0  0  0
   27.1127   16.0784  -10.3349 H   0  0  0  0  0  0
   25.1158   17.5225  -10.0726 H   0  0  0  0  0  0
   26.8692   13.5836  -10.4851 H   0  0  0  0  0  0
   20.4879    6.4494   -7.3778 H   0  0  0  0  0  0
   22.8230   16.5138  -10.1421 H   0  0  0  0  0  0
   20.8556    6.2607   -9.8332 H   0  0  0  0  0  0
   22.8288   10.0310   -7.3021 H   0  0  0  0  0  0
   25.9764   10.9507  -10.9163 H   0  0  0  0  0  0
   26.1353   11.7575   -9.3193 H   0  0  0  0  0  0
   23.0041   10.6149  -10.6167 H   0  0  0  0  0  0
  1 16  1  0  0  0
  1 26  1  0  0  0
  1 27  1  0  0  0
  1 28  1  0  0  0
  2 17  1  0  0  0
  2 29  1  0  0  0
  2 30  1  0  0  0
  2 31  1  0  0  0
  3 19  2  0  0  0
  4 25  2  0  0  0
  5 25  1  0  0  0
  6 25  1  0  0  0
  6 32  1  0  0  0
  7  8  2  0  0  0
  7  9  1  0  0  0
  7 33  1  0  0  0
  8 11  1  0  0  0
  8 34  1  0  0  0
  9 23  2  0  0  0
  9 35  1  0  0  0
 10 12  2  0  0  0
 10 20  1  0  0  0
 10 36  1  0  0  0
 11 24  2  0  0  0
 11 37  1  0  0  0
 12 22  1  0  0  0
 12 38  1  0  0  0
 13 20  2  0  0  0
 13 21  1  0  0  0
 13 39  1  0  0  0
 14 18  1  0  0  0
 14 19  1  0  0  0
 14 40  1  0  0  0
 14 41  1  0  0  0
 15 19  1  0  0  0
 15 21  1  0  0  0
 15 42  1  0  0  0
 16 20  1  0  0  0
 17 22  1  0  0  0
 18 23  1  0  0  0
 21 22  2  0  0  0
 23 24  1  0  0  0
 24 25  1  0  0  0
M  CHG  1   5  -1
M  END
> <s_m_source_file>
../3t0m_ligand.sdf

> <i_m_source_file_index>
1

> <s_epik_input>
W0NIM11PYzFbY0hdW2NIXWMoT1tDSDNdKWMoW2NIXTEpW05IXUMoPU8pW0NIMl1PYzJbY0hdW2NIXVtjSF1bY0hdYzJQKD1PKShbT0hdKVtPSF0=

> <s_epik_cmdline>
J2VwaWtfYXBwJywgJy1pbWFlJywgJ2xpZ2FuZF9wcm8ubWFlJywgJy1vbWFlJywgJ2xpZ2FuZF9wcmVwLm1hZScsICctbXMnLCAnMScsICctcGgnLCAnNycsICctcGh0JywgJzAuNScsICctbnQn

> <r_lp_tautomer_probability>
1

> <r_epik_Ionization_Penalty>
  0.2794

> <r_epik_Ionization_Penalty_Charging>
  0.0000

> <r_epik_Ionization_Penalty_Neutral>
  0.2794

> <r_epik_State_Penalty>
  0.2719

> <r_epik_Charging_Adjusted_Penalty>
0.271945680581061

> <i_epik_Tot_Q>
-1

> <i_epik_Tot_abs_Q>
1

$$$$
