3t0t_ligand
                    3D
 Schrodinger Suite 2020-3.
 35 37  0  0  1  0            999 V2000
   27.1840    0.6450  -12.0500 C   0  0  0  0  0  0
   29.1600   -1.6040  -15.9720 O   0  0  0  0  0  0
   29.4630   -1.9300  -11.9330 O   0  5  0  0  0  0
   33.0090   -5.8460  -14.8230 Br  0  0  0  0  0  0
   23.8950    4.1860  -17.0780 C   0  0  0  0  0  0
   23.4280    4.6900  -15.8690 C   0  0  0  0  0  0
   31.8420   -4.5620  -12.6560 C   0  0  0  0  0  0
   31.0400   -3.6760  -11.9800 C   0  0  0  0  0  0
   24.8310    3.1700  -17.0600 C   0  0  0  0  0  0
   23.8900    4.1840  -14.6490 C   0  0  0  0  0  0
   31.0470   -3.6530  -14.7420 C   0  0  0  0  0  0
   27.7810   -0.1180  -14.3510 N   0  0  0  0  0  0
   26.1780    1.6940  -15.5550 N   0  0  0  0  0  0
   28.5650   -0.9420  -13.8940 N   0  0  0  0  0  0
   25.4430    2.4760  -13.6670 N   0  3  0  0  0  0
   27.0830    0.6870  -13.5770 C   0  0  3  0  0  0
   29.2760   -1.7040  -14.7430 C   0  0  0  0  0  0
   31.8510   -4.5580  -14.0310 C   0  0  0  0  0  0
   30.2420   -2.7810  -12.6580 C   0  0  0  0  0  0
   30.2280   -2.7480  -14.0500 C   0  0  0  0  0  0
   26.2620    1.5850  -14.2290 C   0  0  0  0  0  0
   25.3010    2.6560  -15.8500 C   0  0  0  0  0  0
   24.8310    3.1550  -14.6410 C   0  0  0  0  0  0
   27.8920   -0.1419  -11.7509 H   0  0  0  0  0  0
   26.1936    0.4288  -11.6229 H   0  0  0  0  0  0
   27.5389    1.6179  -11.6791 H   0  0  0  0  0  0
   23.5288    4.5857  -18.0237 H   0  0  0  0  0  0
   22.6901    5.4922  -15.8718 H   0  0  0  0  0  0
   32.4680   -5.2645  -12.1058 H   0  0  0  0  0  0
   31.0347   -3.6809  -10.8900 H   0  0  0  0  0  0
   25.2064    2.7656  -18.0000 H   0  0  0  0  0  0
   23.5163    4.5920  -13.7099 H   0  0  0  0  0  0
   31.0590   -3.6534  -15.8319 H   0  0  0  0  0  0
   27.8975    1.4255  -13.6106 H   0  0  0  0  0  0
   25.3720    2.5433  -12.5714 H   0  0  0  0  0  0
  1 16  1  0  0  0
  1 24  1  0  0  0
  1 25  1  0  0  0
  1 26  1  0  0  0
  2 17  2  0  0  0
  3 19  1  0  0  0
  4 18  1  0  0  0
  5  6  2  0  0  0
  5  9  1  0  0  0
  5 27  1  0  0  0
  6 10  1  0  0  0
  6 28  1  0  0  0
  7  8  2  0  0  0
  7 18  1  0  0  0
  7 29  1  0  0  0
  8 19  1  0  0  0
  8 30  1  0  0  0
  9 22  2  0  0  0
  9 31  1  0  0  0
 10 23  2  0  0  0
 10 32  1  0  0  0
 11 18  2  0  0  0
 11 20  1  0  0  0
 11 33  1  0  0  0
 12 14  2  0  0  0
 12 16  1  0  0  0
 13 21  2  0  0  0
 13 22  1  0  0  0
 14 17  1  0  0  0
 15 21  1  0  0  0
 15 23  1  0  0  0
 15 35  1  0  0  0
 16 21  1  0  0  0
 16 34  1  0  0  0
 17 20  1  0  0  0
 19 20  2  0  0  0
 22 23  1  0  0  0
M  CHG  2   3  -1  15   1
M  END
> <s_m_source_file>
../3t0t_ligand.sdf

> <i_m_source_file_index>
1

> <s_epik_input>
W2NIXTFbY0hdW2NIXVtjSF1jKGMxMilbbkhdYyhuMilbQ0hdKFtDSDNdKS9OPU4vQyg9TyljKFtjSF0zKWMoW09IXSlbY0hdW2NIXWMzQnI=

> <s_epik_cmdline>
J2VwaWtfYXBwJywgJy1pbWFlJywgJ2xpZ2FuZF9wcm8ubWFlJywgJy1vbWFlJywgJ2xpZ2FuZF9wcmVwLm1hZScsICctbXMnLCAnMScsICctcGgnLCAnNycsICctcGh0JywgJzAuNScsICctbnQn

> <r_epik_Ionization_Penalty>
  0.1129

> <r_epik_Ionization_Penalty_Charging>
  0.1129

> <r_epik_Ionization_Penalty_Neutral>
  0.0000

> <r_epik_State_Penalty>
  0.4102

> <r_epik_Charging_Adjusted_Penalty>
0.52318410072949

> <i_epik_Tot_Q>
0

> <i_epik_Tot_abs_Q>
2

> <s_epik_Chemistry_Notes>
This compound has an imine and may undergo hydrolysis.

$$$$
