3t0w_ligand
                    3D
 Schrodinger Suite 2020-3.
 61 64  0  0  1  0            999 V2000
  -19.0910   -1.2140  -17.8120 C   0  0  0  0  0  0
  -18.7750   -1.1180  -15.4250 C   0  0  0  0  0  0
  -19.6120   -1.0940  -16.5290 C   0  0  0  0  0  0
  -20.8710   -0.9490  -16.0780 N   0  0  0  0  0  0
  -20.9150   -0.8840  -14.7350 C   0  0  0  0  0  0
  -19.5310   -0.9630  -14.1490 C   0  0  0  0  0  0
  -22.1870   -0.7180  -13.9180 C   0  0  0  0  0  0
  -22.1590   -0.6190  -12.4120 C   0  0  0  0  0  0
  -23.3600   -0.5440  -11.8210 C   0  0  0  0  0  0
  -23.5090   -0.4280  -10.3530 C   0  0  0  0  0  0
  -24.7590   -0.4260   -9.7270 C   0  0  0  0  0  0
  -24.8230   -0.3090   -8.3410 C   0  0  0  0  0  0
  -23.7040   -0.1830   -7.6110 N   0  3  0  0  0  0
  -22.4990   -0.1750   -8.1920 C   0  0  0  0  0  0
  -22.3690   -0.2990   -9.5710 C   0  0  0  0  0  0
  -26.0600   -0.3140   -7.6980 C   0  0  0  0  0  0
  -27.2320   -0.4380   -8.4340 C   0  0  0  0  0  0
  -27.1740   -0.5630   -9.8190 C   0  0  0  0  0  0
  -25.9370   -0.5580  -10.4600 C   0  0  0  0  0  0
  -23.7960   -0.0570   -6.1500 C   0  0  0  0  0  0
  -23.9460   -1.4360   -5.5130 C   0  0  0  0  0  0
  -23.8060   -1.3880   -3.9920 C   0  0  0  0  0  0
  -25.0910   -0.5860   -3.3060 S   0  0  0  0  0  0
  -19.2880   -2.1740  -13.2570 C   0  0  0  0  0  0
  -19.1320    0.3340  -13.4570 C   0  0  0  0  0  0
  -22.0830   -0.8870  -16.9310 C   0  0  0  0  0  0
  -17.7210   -1.3590  -17.9950 C   0  0  0  0  0  0
  -25.2990   -1.0880   -1.9270 O   0  5  0  0  0  0
  -16.8770   -1.3740  -16.8920 C   0  0  0  0  0  0
  -26.3160   -0.8230   -4.1000 O   0  0  0  0  0  0
  -17.4030   -1.2580  -15.6040 C   0  0  0  0  0  0
  -24.7930    0.8610   -3.2860 O   0  0  0  0  0  0
  -19.7570   -1.1944  -18.6747 H   0  0  0  0  0  0
  -23.1626   -0.6669  -14.4235 H   0  0  0  0  0  0
  -21.2439   -0.6058  -11.8017 H   0  0  0  0  0  0
  -24.2754   -0.5679  -12.4305 H   0  0  0  0  0  0
  -21.6062   -0.0698   -7.5756 H   0  0  0  0  0  0
  -21.3819   -0.2950  -10.0334 H   0  0  0  0  0  0
  -26.1028   -1.1563   -6.9919 H   0  0  0  0  0  0
  -28.1968   -0.4374   -7.9267 H   0  0  0  0  0  0
  -28.0979   -0.6654  -10.4072 H   0  0  0  0  0  0
  -25.8841   -0.6588  -11.5541 H   0  0  0  0  0  0
  -22.8832    0.4211   -5.7650 H   0  0  0  0  0  0
  -24.6699    0.5580   -5.8893 H   0  0  0  0  0  0
  -24.9392   -1.8441   -5.7518 H   0  0  0  0  0  0
  -23.1691   -2.1081   -5.9064 H   0  0  0  0  0  0
  -23.7745   -2.4131   -3.5942 H   0  0  0  0  0  0
  -22.8770   -0.8626   -3.7257 H   0  0  0  0  0  0
  -19.5875   -3.0882  -13.7904 H   0  0  0  0  0  0
  -19.8812   -2.0758  -12.3359 H   0  0  0  0  0  0
  -18.2198   -2.2322  -13.0008 H   0  0  0  0  0  0
  -19.3218    1.1825  -14.1308 H   0  0  0  0  0  0
  -18.0623    0.2999  -13.2027 H   0  0  0  0  0  0
  -19.7237    0.4562  -12.5378 H   0  0  0  0  0  0
  -21.7908   -0.9597  -17.9890 H   0  0  0  0  0  0
  -22.6040    0.0664  -16.7591 H   0  0  0  0  0  0
  -22.7529   -1.7218  -16.6774 H   0  0  0  0  0  0
  -17.3106   -1.4605  -18.9997 H   0  0  0  0  0  0
  -15.8010   -1.4766  -17.0324 H   0  0  0  0  0  0
  -16.7391   -1.2771  -14.7397 H   0  0  0  0  0  0
  -26.1924    0.6307   -7.1503 H   0  0  0  0  0  0
  1  3  2  0  0  0
  1 27  1  0  0  0
  1 33  1  0  0  0
  2  3  1  0  0  0
  2  6  1  0  0  0
  2 31  2  0  0  0
  3  4  1  0  0  0
  4  5  1  0  0  0
  4 26  1  0  0  0
  5  6  1  0  0  0
  5  7  2  0  0  0
  6 24  1  0  0  0
  6 25  1  0  0  0
  7  8  1  0  0  0
  7 34  1  0  0  0
  8  9  2  0  0  0
  8 35  1  0  0  0
  9 10  1  0  0  0
  9 36  1  0  0  0
 10 11  2  0  0  0
 10 15  1  0  0  0
 11 12  1  0  0  0
 11 19  1  0  0  0
 12 13  2  0  0  0
 12 16  1  0  0  0
 13 14  1  0  0  0
 13 20  1  0  0  0
 14 15  2  0  0  0
 14 37  1  0  0  0
 15 38  1  0  0  0
 16 17  1  0  0  0
 16 39  1  0  0  0
 16 61  1  0  0  0
 17 18  1  0  0  0
 17 40  1  0  0  0
 18 19  2  0  0  0
 18 41  1  0  0  0
 19 42  1  0  0  0
 20 21  1  0  0  0
 20 43  1  0  0  0
 20 44  1  0  0  0
 21 22  1  0  0  0
 21 45  1  0  0  0
 21 46  1  0  0  0
 22 23  1  0  0  0
 22 47  1  0  0  0
 22 48  1  0  0  0
 23 28  1  0  0  0
 23 30  2  0  0  0
 23 32  2  0  0  0
 24 49  1  0  0  0
 24 50  1  0  0  0
 24 51  1  0  0  0
 25 52  1  0  0  0
 25 53  1  0  0  0
 25 54  1  0  0  0
 26 55  1  0  0  0
 26 56  1  0  0  0
 26 57  1  0  0  0
 27 29  2  0  0  0
 27 58  1  0  0  0
 29 31  1  0  0  0
 29 59  1  0  0  0
 31 60  1  0  0  0
M  CHG  2  13   1  28  -1
M  END
> <s_m_source_file>
../3t0w_ligand.sdf

> <i_m_source_file_index>
1

> <s_epik_input>
W2NIXTFbY0hdW2NIXVtjSF1jKGMxMilbTitdKFtDSDNdKT1DKEMyKFtDSDNdKVtDSDNdKVtDSDJdL1tDSF09W0NIXS9DPTNbQ0hdPVtDSF1OKEMoQzM0KT1bQ0hdW0NIMl1bQ0hdPVtDSF00KVtDSDJdW0NIMl1bQ0gyXVMoPU8pKD1PKVtPSF0=

> <s_epik_cmdline>
J2VwaWtfYXBwJywgJy1pbWFlJywgJ2xpZ2FuZF9wcm8ubWFlJywgJy1vbWFlJywgJ2xpZ2FuZF9wcmVwLm1hZScsICctbXMnLCAnMScsICctcGgnLCAnNycsICctcGh0JywgJzAuNScsICctbnQn

> <r_lp_tautomer_probability>
1

> <r_epik_Ionization_Penalty>
  0.0000

> <r_epik_Ionization_Penalty_Charging>
  0.0000

> <r_epik_Ionization_Penalty_Neutral>
  0.0000

> <r_epik_State_Penalty>
 -0.0000

> <r_epik_Charging_Adjusted_Penalty>
3.27536272244001e-08

> <i_epik_Tot_Q>
0

> <i_epik_Tot_abs_Q>
2

> <s_epik_Chemistry_Notes>
This compound has an imine and may undergo hydrolysis.

$$$$
