3t0x_ligand
                    3D
 Schrodinger Suite 2020-3.
 62 65  0  0  1  0            999 V2000
   20.6780   -2.8900   -8.6810 C   0  0  0  0  0  0
   22.9360   -2.7410   -9.4870 C   0  0  0  0  0  0
   22.0430   -2.7250   -8.4300 C   0  0  0  0  0  0
   22.7530   -2.5440   -7.2810 N   0  3  0  0  0  0
   24.0670   -2.4440   -7.5680 C   0  0  0  0  0  0
   24.3520   -2.5420   -9.0310 C   0  0  0  0  0  0
   25.1130   -2.2260   -6.5090 C   0  0  0  0  0  0
   26.4020   -2.1360   -6.8420 C   0  0  0  0  0  0
   27.1670   -1.9260   -5.7450 C   0  0  0  0  0  0
   28.6580   -1.8210   -5.6620 C   0  0  0  0  0  0
   29.3110   -1.7270   -4.4220 C   0  0  0  0  0  0
   30.7100   -1.6800   -4.3550 C   0  0  0  0  0  0
   31.4510   -1.7220   -5.4860 N   0  3  0  0  0  0
   30.8360   -1.8530   -6.6740 C   0  0  0  0  0  0
   29.4500   -1.9070   -6.7960 C   0  0  0  0  0  0
   31.3300   -1.5580   -3.1120 C   0  0  0  0  0  0
   30.5880   -1.4800   -1.9360 C   0  0  0  0  0  0
   29.1990   -1.5330   -2.0010 C   0  0  0  0  0  0
   28.5710   -1.6520   -3.2420 C   0  0  0  0  0  0
   32.9310   -1.7200   -5.4720 C   0  0  0  0  0  0
   33.6480   -0.5740   -4.7680 C   0  0  0  0  0  0
   34.7900   -1.0630   -3.8620 C   0  0  0  0  0  0
   36.1950   -1.4810   -4.6710 S   0  0  0  0  0  0
   25.3080   -3.6800   -9.3840 C   0  0  0  0  0  0
   24.8500   -1.1730   -9.5160 C   0  0  0  0  0  0
   22.1680   -2.4660   -5.9160 C   0  0  0  0  0  0
   20.1930   -3.0700   -9.9800 C   0  0  0  0  0  0
   37.1570   -2.0320   -3.6990 O   0  0  0  0  0  0
   21.0940   -3.0840  -11.0440 C   0  0  0  0  0  0
   36.8000   -0.2980   -5.3190 O   0  5  0  0  0  0
   22.4640   -2.9200  -10.7990 C   0  0  0  0  0  0
   35.9400   -2.5080   -5.6970 O   0  0  0  0  0  0
   19.9768   -2.8781   -7.8466 H   0  0  0  0  0  0
   24.8100   -2.1407   -5.4550 H   0  0  0  0  0  0
   26.7061   -2.2326   -7.8947 H   0  0  0  0  0  0
   26.8924   -0.9653   -5.2850 H   0  0  0  0  0  0
   27.0027   -2.7388   -5.0223 H   0  0  0  0  0  0
   31.4450   -1.9194   -7.5755 H   0  0  0  0  0  0
   28.9903   -2.0163   -7.7783 H   0  0  0  0  0  0
   31.9825   -2.4269   -2.9409 H   0  0  0  0  0  0
   31.0904   -1.3784   -0.9740 H   0  0  0  0  0  0
   28.5963   -1.4817   -1.0823 H   0  0  0  0  0  0
   27.4732   -1.6882   -3.3017 H   0  0  0  0  0  0
   33.2942   -2.6295   -4.9711 H   0  0  0  0  0  0
   33.3074   -1.6953   -6.5053 H   0  0  0  0  0  0
   34.0781    0.1056   -5.5185 H   0  0  0  0  0  0
   32.9312   -0.0224   -4.1419 H   0  0  0  0  0  0
   35.0579   -0.2693   -3.1491 H   0  0  0  0  0  0
   34.4632   -1.9566   -3.3101 H   0  0  0  0  0  0
   24.8990   -4.6311   -9.0123 H   0  0  0  0  0  0
   26.2868   -3.4945   -8.9176 H   0  0  0  0  0  0
   25.4265   -3.7338  -10.4763 H   0  0  0  0  0  0
   24.1229   -0.3973   -9.2337 H   0  0  0  0  0  0
   24.9618   -1.1901  -10.6102 H   0  0  0  0  0  0
   25.8221   -0.9509   -9.0515 H   0  0  0  0  0  0
   21.0756   -2.5789   -5.9783 H   0  0  0  0  0  0
   22.4109   -1.4911   -5.4682 H   0  0  0  0  0  0
   22.5848   -3.2703   -5.2920 H   0  0  0  0  0  0
   19.1253   -3.1976  -10.1584 H   0  0  0  0  0  0
   20.7338   -3.2221  -12.0634 H   0  0  0  0  0  0
   23.1681   -2.9313  -11.6310 H   0  0  0  0  0  0
   31.9321   -0.6376   -3.0913 H   0  0  0  0  0  0
  1  3  2  0  0  0
  1 27  1  0  0  0
  1 33  1  0  0  0
  2  3  1  0  0  0
  2  6  1  0  0  0
  2 31  2  0  0  0
  3  4  1  0  0  0
  4  5  2  0  0  0
  4 26  1  0  0  0
  5  6  1  0  0  0
  5  7  1  0  0  0
  6 24  1  0  0  0
  6 25  1  0  0  0
  7  8  2  0  0  0
  7 34  1  0  0  0
  8  9  1  0  0  0
  8 35  1  0  0  0
  9 10  1  0  0  0
  9 36  1  0  0  0
  9 37  1  0  0  0
 10 11  2  0  0  0
 10 15  1  0  0  0
 11 12  1  0  0  0
 11 19  1  0  0  0
 12 13  2  0  0  0
 12 16  1  0  0  0
 13 14  1  0  0  0
 13 20  1  0  0  0
 14 15  2  0  0  0
 14 38  1  0  0  0
 15 39  1  0  0  0
 16 17  1  0  0  0
 16 40  1  0  0  0
 16 62  1  0  0  0
 17 18  1  0  0  0
 17 41  1  0  0  0
 18 19  2  0  0  0
 18 42  1  0  0  0
 19 43  1  0  0  0
 20 21  1  0  0  0
 20 44  1  0  0  0
 20 45  1  0  0  0
 21 22  1  0  0  0
 21 46  1  0  0  0
 21 47  1  0  0  0
 22 23  1  0  0  0
 22 48  1  0  0  0
 22 49  1  0  0  0
 23 28  2  0  0  0
 23 30  1  0  0  0
 23 32  2  0  0  0
 24 50  1  0  0  0
 24 51  1  0  0  0
 24 52  1  0  0  0
 25 53  1  0  0  0
 25 54  1  0  0  0
 25 55  1  0  0  0
 26 56  1  0  0  0
 26 57  1  0  0  0
 26 58  1  0  0  0
 27 29  2  0  0  0
 27 59  1  0  0  0
 29 31  1  0  0  0
 29 60  1  0  0  0
 31 61  1  0  0  0
M  CHG  3   4   1  13   1  30  -1
M  END
> <s_m_source_file>
../3t0x_ligand.sdf

> <i_m_source_file_index>
1

> <s_epik_input>
W2NIXTFbY0hdW2NIXVtjSF1jKGMxMilbTitdKFtDSDNdKT1DKEMyKFtDSDNdKVtDSDNdKS9bQ0hdPVtDSF0vW0NIMl1DPTNbQ0hdPVtDSF1OKEMoQzM0KT1bQ0hdW0NIMl1bQ0hdPVtDSF00KVtDSDJdW0NIMl1bQ0gyXVMoPU8pKD1PKVtPSF0=

> <s_epik_cmdline>
J2VwaWtfYXBwJywgJy1pbWFlJywgJ2xpZ2FuZF9wcm8ubWFlJywgJy1vbWFlJywgJ2xpZ2FuZF9wcmVwLm1hZScsICctbXMnLCAnMScsICctcGgnLCAnNycsICctcGh0JywgJzAuNScsICctbnQn

> <r_lp_tautomer_probability>
1

> <r_epik_Ionization_Penalty>
  0.0000

> <r_epik_Ionization_Penalty_Charging>
  0.0000

> <r_epik_Ionization_Penalty_Neutral>
  0.0000

> <r_epik_State_Penalty>
 -0.0000

> <r_epik_Charging_Adjusted_Penalty>
2.67500939608299e-08

> <i_epik_Tot_Q>
1

> <i_epik_Tot_abs_Q>
3

> <s_epik_Chemistry_Notes>
This compound has an imine and may undergo hydrolysis.

$$$$
