3t19_ligand
                    3D
 Schrodinger Suite 2020-3.
 46 50  0  0  1  0            999 V2000
   11.3870   12.3610   15.3650 C   0  0  0  0  0  0
    7.3070   12.5430   15.1800 N   0  0  0  0  0  0
   11.1930   11.9960   17.6970 O   0  0  0  0  0  0
   10.8630   12.6530   14.0860 C   0  0  0  0  0  0
   13.0790   12.2250   15.5890 Cl  0  0  0  0  0  0
    9.4630   12.6800   13.8960 C   0  0  0  0  0  0
   10.6900   16.4660   19.9800 Cl  0  0  0  0  0  0
    8.6530   12.5210   15.0010 C   0  0  0  0  0  0
   10.1380   10.3050   19.7970 Cl  0  0  0  0  0  0
    9.1410   12.2940   16.2680 C   0  0  0  0  0  0
   10.5510   12.2230   16.4720 C   0  0  0  0  0  0
   10.9250   14.0770   18.8440 C   0  0  0  0  0  0
   10.7920   12.7110   18.8120 C   0  0  0  0  0  0
   10.2640   12.0120   19.9180 C   0  0  0  0  0  0
    9.8560   12.6620   21.1000 C   0  0  0  0  0  0
    9.9930   14.0700   21.1620 C   0  0  0  0  0  0
   10.5190   14.7490   20.0180 C   0  0  0  0  0  0
    6.9790   12.3500   16.5090 N   0  0  0  0  0  0
    8.1080   12.1730   17.1640 N   0  0  0  0  0  0
    6.2360   12.6060   14.1440 C   0  0  0  0  0  0
    6.2490   11.0760   13.8690 C   0  0  0  0  0  0
    6.6750   10.6380   12.6720 N   0  3  0  0  0  0
    6.6550    9.2840   12.7590 N   0  0  0  0  0  0
    6.2670    8.7940   13.9660 C   0  0  0  0  0  0
    5.9720    9.9290   14.7460 C   0  0  0  0  0  0
    6.1700    7.4620   14.3640 N   0  0  0  0  0  0
    5.7460    7.2680   15.6980 C   0  0  0  0  0  0
    5.3980    8.3070   16.6000 C   0  0  0  0  0  0
    5.5220    9.6450   16.1100 C   0  0  0  0  0  0
    9.2650   11.8870   22.2500 C   0  0  0  0  0  0
   10.1720   11.2490   23.2260 N   0  3  0  0  0  0
   11.5340   12.8561   13.2514 H   0  0  0  0  0  0
    9.0351   12.8225   12.9037 H   0  0  0  0  0  0
   11.3300   14.6241   17.9927 H   0  0  0  0  0  0
    9.7055   14.6215   22.0571 H   0  0  0  0  0  0
    5.3177   13.0153   14.5904 H   0  0  0  0  0  0
    6.5627   13.2546   13.3178 H   0  0  0  0  0  0
    5.6813    6.2425   16.0618 H   0  0  0  0  0  0
    5.0544    8.0964   17.6128 H   0  0  0  0  0  0
    5.2746   10.4762   16.7703 H   0  0  0  0  0  0
    8.6338   12.5539   22.8557 H   0  0  0  0  0  0
    8.6547   11.0594   21.8593 H   0  0  0  0  0  0
    9.5786   10.7295   23.9928 H   0  0  0  0  0  0
   10.7959   12.0185   23.7042 H   0  0  0  0  0  0
   10.8168   10.5240   22.7078 H   0  0  0  0  0  0
    6.9464   11.3593   11.8871 H   0  0  0  0  0  0
  1  4  2  0  0  0
  1  5  1  0  0  0
  1 11  1  0  0  0
  2  8  1  0  0  0
  2 18  1  0  0  0
  2 20  1  0  0  0
  3 11  1  0  0  0
  3 13  1  0  0  0
  4  6  1  0  0  0
  4 32  1  0  0  0
  6  8  2  0  0  0
  6 33  1  0  0  0
  7 17  1  0  0  0
  8 10  1  0  0  0
  9 14  1  0  0  0
 10 11  2  0  0  0
 10 19  1  0  0  0
 12 13  2  0  0  0
 12 17  1  0  0  0
 12 34  1  0  0  0
 13 14  1  0  0  0
 14 15  2  0  0  0
 15 16  1  0  0  0
 15 30  1  0  0  0
 16 17  2  0  0  0
 16 35  1  0  0  0
 18 19  2  0  0  0
 20 21  1  0  0  0
 20 36  1  0  0  0
 20 37  1  0  0  0
 21 22  2  0  0  0
 21 25  1  0  0  0
 22 23  1  0  0  0
 22 46  1  0  0  0
 23 24  1  0  0  0
 24 25  2  0  0  0
 24 26  1  0  0  0
 25 29  1  0  0  0
 26 27  2  0  0  0
 27 28  1  0  0  0
 27 38  1  0  0  0
 28 29  2  0  0  0
 28 39  1  0  0  0
 29 40  1  0  0  0
 30 31  1  0  0  0
 30 41  1  0  0  0
 30 42  1  0  0  0
 31 43  1  0  0  0
 31 44  1  0  0  0
 31 45  1  0  0  0
M  CHG  2  22   1  31   1
M  END
> <s_m_source_file>
../3t19_ligand.sdf

> <i_m_source_file_index>
1

> <s_epik_input>
Q2xjMWMoW0NIMl1bTkgzK10pW2NIXWMoQ2wpW2NIXWMxT2MoYyhDbClbY0hdW2NIXTIpYyhjMjMpbm5uM1tDSDJdYyhuW25IXTQpYyhjNDUpW2NIXVtjSF1bY0hdbjU=

> <s_epik_cmdline>
J2VwaWtfYXBwJywgJy1pbWFlJywgJ2xpZ2FuZF9wcm8ubWFlJywgJy1vbWFlJywgJ2xpZ2FuZF9wcmVwLm1hZScsICctbXMnLCAnMScsICctcGgnLCAnNycsICctcGh0JywgJzAuNScsICctbnQn

> <r_lp_tautomer_probability>
1

> <r_epik_Ionization_Penalty>
  0.0518

> <r_epik_Ionization_Penalty_Charging>
  0.0518

> <r_epik_Ionization_Penalty_Neutral>
  0.0000

> <r_epik_State_Penalty>
 -0.0000

> <r_epik_Charging_Adjusted_Penalty>
0.0518036756710957

> <i_epik_Tot_Q>
2

> <i_epik_Tot_abs_Q>
2

$$$$
