3t1n_ligand
                    3D
 Schrodinger Suite 2020-3.
 64 64  0  0  1  0            999 V2000
   -6.8270   -3.8590   16.5740 N   0  3  0  0  0  0
   -5.7870   -4.3460   15.7150 C   0  0  1  0  0  0
   -5.4010   -3.2650   14.7650 C   0  0  0  0  0  0
   -6.1100   -3.2390   13.5840 O   0  0  0  0  0  0
   -4.6300   -4.7780   16.5520 C   0  0  0  0  0  0
   -3.9660   -3.9390   17.2150 O   0  0  0  0  0  0
   -6.3570   -1.8980   12.8330 P   0  0  0  0  0  0
   -7.5970   -2.0460   11.9860 O   0  0  0  0  0  0
   -6.5830   -0.7890   13.8330 O   0  5  0  0  0  0
   -5.1690   -1.5780   11.9560 O   0  5  0  0  0  0
   -4.3670   -6.0790   16.5490 N   0  0  0  0  0  0
   -3.3240   -6.6600   17.3840 C   0  0  2  0  0  0
   -1.9520   -6.0460   17.1310 C   0  0  0  0  0  0
   -1.5760   -5.7780   15.9900 O   0  0  0  0  0  0
   -3.2580   -8.1680   17.1530 C   0  0  0  0  0  0
   -4.4570   -8.8920   17.7200 C   0  0  0  0  0  0
   -4.7910   -8.6480   18.8990 O   0  5  0  0  0  0
   -5.0740   -9.6930   16.9880 O   0  0  0  0  0  0
   -1.2080   -5.8300   18.2110 N   0  0  0  0  0  0
    0.1600   -5.3490   18.1120 C   0  0  2  0  0  0
    1.0950   -6.5390   17.9240 C   0  0  0  0  0  0
    0.7340   -7.6740   18.2390 O   0  0  0  0  0  0
    0.5440   -4.5740   19.3720 C   0  0  0  0  0  0
    1.8030   -3.7350   19.2300 C   0  0  0  0  0  0
    2.3510   -3.2880   20.5700 C   0  0  0  0  0  0
    1.8710   -3.7930   21.6070 O   0  0  0  0  0  0
    3.2610   -2.4320   20.5890 O   0  5  0  0  0  0
    2.2890   -6.2820   17.4030 N   0  0  0  0  0  0
    3.2680   -7.3400   17.1880 C   0  0  2  0  0  0
    4.6900   -6.8100   17.3370 C   0  0  0  0  0  0
    4.9220   -5.6770   17.7620 O   0  5  0  0  0  0
    3.0820   -7.9620   15.8010 C   0  0  0  0  0  0
    1.7530   -8.6480   15.6140 C   0  0  0  0  0  0
    1.5080   -9.8880   16.1840 C   0  0  0  0  0  0
    0.7530   -8.0560   14.8590 C   0  0  0  0  0  0
    0.2890  -10.5180   16.0100 C   0  0  0  0  0  0
   -0.4660   -8.6840   14.6820 C   0  0  0  0  0  0
   -0.6980   -9.9150   15.2580 C   0  0  0  0  0  0
    5.6490   -7.5210   17.0460 O   0  0  0  0  0  0
   -7.6851   -3.5379   15.9652 H   0  0  0  0  0  0
   -6.4512   -3.0054   17.1571 H   0  0  0  0  0  0
   -7.1424   -4.6602   17.2585 H   0  0  0  0  0  0
   -6.1688   -5.2083   15.1487 H   0  0  0  0  0  0
   -5.5532   -2.2857   15.2424 H   0  0  0  0  0  0
   -4.3417   -3.3786   14.4910 H   0  0  0  0  0  0
   -4.9658   -6.7236   15.8887 H   0  0  0  0  0  0
   -3.6317   -6.4162   18.4115 H   0  0  0  0  0  0
   -3.2182   -8.3721   16.0728 H   0  0  0  0  0  0
   -2.3570   -8.5739   17.6362 H   0  0  0  0  0  0
   -1.6525   -6.0247   19.1982 H   0  0  0  0  0  0
    0.1965   -4.6809   17.2389 H   0  0  0  0  0  0
   -0.2716   -3.8874   19.6430 H   0  0  0  0  0  0
    0.7188   -5.2797   20.1975 H   0  0  0  0  0  0
    2.5813   -4.3246   18.7235 H   0  0  0  0  0  0
    1.5796   -2.8361   18.6366 H   0  0  0  0  0  0
    2.5324   -5.2441   17.1320 H   0  0  0  0  0  0
    3.0703   -8.0829   17.9748 H   0  0  0  0  0  0
    3.1542   -7.1766   15.0343 H   0  0  0  0  0  0
    3.8648   -8.7154   15.6290 H   0  0  0  0  0  0
    2.2849  -10.3718   16.7760 H   0  0  0  0  0  0
    0.9296   -7.0836   14.3992 H   0  0  0  0  0  0
    0.1082  -11.4909   16.4670 H   0  0  0  0  0  0
   -1.2439   -8.2057   14.0869 H   0  0  0  0  0  0
   -1.6589  -10.4106   15.1196 H   0  0  0  0  0  0
  1  2  1  0  0  0
  1 40  1  0  0  0
  1 41  1  0  0  0
  1 42  1  0  0  0
  2  3  1  0  0  0
  2  5  1  0  0  0
  2 43  1  0  0  0
  3  4  1  0  0  0
  3 44  1  0  0  0
  3 45  1  0  0  0
  4  7  1  0  0  0
  5  6  2  0  0  0
  5 11  1  0  0  0
  7  8  2  0  0  0
  7  9  1  0  0  0
  7 10  1  0  0  0
 11 12  1  0  0  0
 11 46  1  0  0  0
 12 13  1  0  0  0
 12 15  1  0  0  0
 12 47  1  0  0  0
 13 14  2  0  0  0
 13 19  1  0  0  0
 15 16  1  0  0  0
 15 48  1  0  0  0
 15 49  1  0  0  0
 16 17  1  0  0  0
 16 18  2  0  0  0
 19 20  1  0  0  0
 19 50  1  0  0  0
 20 21  1  0  0  0
 20 23  1  0  0  0
 20 51  1  0  0  0
 21 22  2  0  0  0
 21 28  1  0  0  0
 23 24  1  0  0  0
 23 52  1  0  0  0
 23 53  1  0  0  0
 24 25  1  0  0  0
 24 54  1  0  0  0
 24 55  1  0  0  0
 25 26  2  0  0  0
 25 27  1  0  0  0
 28 29  1  0  0  0
 28 56  1  0  0  0
 29 30  1  0  0  0
 29 32  1  0  0  0
 29 57  1  0  0  0
 30 31  1  0  0  0
 30 39  2  0  0  0
 32 33  1  0  0  0
 32 58  1  0  0  0
 32 59  1  0  0  0
 33 34  2  0  0  0
 33 35  1  0  0  0
 34 36  1  0  0  0
 34 60  1  0  0  0
 35 37  2  0  0  0
 35 61  1  0  0  0
 36 38  2  0  0  0
 36 62  1  0  0  0
 37 38  1  0  0  0
 37 63  1  0  0  0
 38 64  1  0  0  0
M  CHG  6   1   1   9  -1  10  -1  17  -1  27  -1  31  -1
M  END
> <s_m_source_file>
../3t1n_ligand.sdf

> <i_m_source_file_index>
1

> <s_epik_input>
Tz1QKFtPSF0pKFtPSF0pT1tDSDJdW0NASF0oW05IMytdKUMoPU8pW05IXVtDQEBIXShbQ0gyXUMoPU8pW09IXSlDKD1PKVtOSF1bQ0BASF0oW0NIMl1bQ0gyXUMoPU8pW09IXSlDKD1PKVtOSF1bQ0BIXShDKD1PKVtPSF0pW0NIMl1jMVtjSF1bY0hdW2NIXVtjSF1bY0hdMQ==

> <s_epik_cmdline>
J2VwaWtfYXBwJywgJy1pbWFlJywgJ2xpZ2FuZF9wcm8ubWFlJywgJy1vbWFlJywgJ2xpZ2FuZF9wcmVwLm1hZScsICctbXMnLCAnMScsICctcGgnLCAnNycsICctcGh0JywgJzAuNScsICctbnQn

> <r_epik_Ionization_Penalty>
  0.3554

> <r_epik_Ionization_Penalty_Charging>
  0.3554

> <r_epik_Ionization_Penalty_Neutral>
  0.0000

> <r_epik_State_Penalty>
  0.3186

> <r_epik_Charging_Adjusted_Penalty>
0.673989297867351

> <i_epik_Tot_Q>
-4

> <i_epik_Tot_abs_Q>
6

$$$$
