3t2c_ligand
                    3D
 Schrodinger Suite 2020-3.
 14 13  0  0  1  0            999 V2000
  -60.7510   28.7310   19.4270 P   0  0  0  0  0  0
  -61.5690   28.2550   20.6050 O   0  5  0  0  0  0
  -59.8980   27.5850   19.0020 O   0  5  0  0  0  0
  -59.9230   29.9540   19.5420 O   0  0  0  0  0  0
  -61.7640   29.3030   18.2740 O   0  0  0  0  0  0
  -62.8830   28.5340   17.8000 C   0  0  0  0  0  0
  -63.1390   28.9800   16.3900 C   0  0  0  0  0  0
  -64.3640   29.7100   16.3350 C   0  0  0  0  0  0
  -64.6720   30.3160   15.1620 O   0  0  0  0  0  0
  -62.6331   27.4633   17.8347 H   0  0  0  0  0  0
  -63.7576   28.7272   18.4386 H   0  0  0  0  0  0
  -62.5489   28.8260   15.4745 H   0  0  0  0  0  0
  -65.0130   29.7630   17.2216 H   0  0  0  0  0  0
  -65.6051   30.8909   15.0683 H   0  0  0  0  0  0
  1  2  1  0  0  0
  1  3  1  0  0  0
  1  4  2  0  0  0
  1  5  1  0  0  0
  5  6  1  0  0  0
  6  7  1  0  0  0
  6 10  1  0  0  0
  6 11  1  0  0  0
  7  8  2  0  0  0
  7 12  1  0  0  0
  8  9  1  0  0  0
  8 13  1  0  0  0
  9 14  1  0  0  0
M  CHG  2   2  -1   3  -1
M  END
> <s_m_source_file>
../3t2c_ligand.sdf

> <i_m_source_file_index>
1

> <s_epik_input>
W09IXVAoPU8pKFtPSF0pT1tDSDJdL1tDSF09W0NIXS9bT0hd

> <s_epik_cmdline>
J2VwaWtfYXBwJywgJy1pbWFlJywgJ2xpZ2FuZF9wcm8ubWFlJywgJy1vbWFlJywgJ2xpZ2FuZF9wcmVwLm1hZScsICctbXMnLCAnMScsICctcGgnLCAnNycsICctcGh0JywgJzAuNScsICctbnQn

> <r_lp_tautomer_probability>
4.99975001249937e-05

> <r_epik_Ionization_Penalty>
  0.1130

> <r_epik_Ionization_Penalty_Charging>
  0.1099

> <r_epik_Ionization_Penalty_Neutral>
  0.0031

> <r_epik_State_Penalty>
  0.0997

> <r_epik_Charging_Adjusted_Penalty>
0.209559744843421

> <i_epik_Tot_Q>
-2

> <i_epik_Tot_abs_Q>
2

$$$$
