3t2p_ligand
                    3D
 Schrodinger Suite 2020-3.
 33 33  0  0  1  0            999 V2000
  -14.2450  -28.2200  -26.3620 C   0  0  1  0  0  0
  -12.9980  -27.9940  -25.5100 C   0  0  2  0  0  0
  -13.1910  -26.8410  -24.6820 O   0  0  0  0  0  0
  -11.7560  -27.7990  -26.3900 C   0  0  1  0  0  0
  -10.5790  -27.8620  -25.5740 O   0  0  0  0  0  0
  -11.6490  -28.8220  -27.5240 C   0  0  1  0  0  0
  -11.2280  -30.0880  -26.9940 O   0  0  0  0  0  0
  -13.0010  -28.9390  -28.2340 C   0  0  2  0  0  0
  -13.9870  -29.2940  -27.2670 O   0  0  0  0  0  0
  -13.0800  -29.9470  -29.3780 C   0  0  0  0  0  0
  -11.9180  -29.9000  -30.2200 O   0  0  0  0  0  0
  -15.6310  -28.6300  -25.3530 S   0  0  0  0  0  0
  -17.0790  -28.2580  -26.3050 C   0  0  0  0  0  0
  -17.2620  -29.2510  -27.4540 C   0  0  0  0  0  0
  -18.3000  -28.2780  -25.3860 C   0  0  0  0  0  0
  -14.3276  -27.3467  -27.0257 H   0  0  0  0  0  0
  -12.8482  -28.8426  -24.8263 H   0  0  0  0  0  0
  -14.0382  -26.8025  -23.9815 H   0  0  0  0  0  0
  -11.7890  -26.7921  -26.8317 H   0  0  0  0  0  0
  -10.4760  -27.1958  -24.7048 H   0  0  0  0  0  0
  -10.8643  -28.5498  -28.2452 H   0  0  0  0  0  0
  -10.2731  -30.1680  -26.4539 H   0  0  0  0  0  0
  -13.2289  -27.9496  -28.6572 H   0  0  0  0  0  0
  -13.1637  -30.9635  -28.9659 H   0  0  0  0  0  0
  -13.9618  -29.7291  -29.9984 H   0  0  0  0  0  0
  -11.8388  -30.5734  -31.0862 H   0  0  0  0  0  0
  -17.1100  -27.2830  -26.8133 H   0  0  0  0  0  0
  -16.3762  -29.2249  -28.1057 H   0  0  0  0  0  0
  -18.1540  -28.9773  -28.0366 H   0  0  0  0  0  0
  -17.3874  -30.2648  -27.0460 H   0  0  0  0  0  0
  -18.1534  -27.5597  -24.5659 H   0  0  0  0  0  0
  -18.4293  -29.2881  -24.9701 H   0  0  0  0  0  0
  -19.1960  -28.0006  -25.9607 H   0  0  0  0  0  0
  1  2  1  0  0  0
  1  9  1  0  0  0
  1 12  1  0  0  0
  1 16  1  0  0  0
  2  3  1  0  0  0
  2  4  1  0  0  0
  2 17  1  0  0  0
  3 18  1  0  0  0
  4  5  1  0  0  0
  4  6  1  0  0  0
  4 19  1  0  0  0
  5 20  1  0  0  0
  6  7  1  0  0  0
  6  8  1  0  0  0
  6 21  1  0  0  0
  7 22  1  0  0  0
  8  9  1  0  0  0
  8 10  1  0  0  0
  8 23  1  0  0  0
 10 11  1  0  0  0
 10 24  1  0  0  0
 10 25  1  0  0  0
 11 26  1  0  0  0
 12 13  1  0  0  0
 13 14  1  0  0  0
 13 15  1  0  0  0
 13 27  1  0  0  0
 14 28  1  0  0  0
 14 29  1  0  0  0
 14 30  1  0  0  0
 15 31  1  0  0  0
 15 32  1  0  0  0
 15 33  1  0  0  0
M  END
> <s_m_source_file>
../3t2p_ligand.sdf

> <i_m_source_file_index>
1

> <s_epik_input>
W0NIM11bQ0hdKFtDSDNdKVNbQ0BIXTFbQ0BIXShbT0hdKVtDQEBIXShbT0hdKVtDQEBIXShbT0hdKVtDQEhdKE8xKVtDSDJdW09IXQ==

> <s_epik_cmdline>
J2VwaWtfYXBwJywgJy1pbWFlJywgJ2xpZ2FuZF9wcm8ubWFlJywgJy1vbWFlJywgJ2xpZ2FuZF9wcmVwLm1hZScsICctbXMnLCAnMScsICctcGgnLCAnNycsICctcGh0JywgJzAuNScsICctbnQn

> <r_lp_tautomer_probability>
1

> <r_epik_Ionization_Penalty>
  0.0000

> <r_epik_Ionization_Penalty_Charging>
  0.0000

> <r_epik_Ionization_Penalty_Neutral>
  0.0000

> <r_epik_State_Penalty>
 -0.0000

> <r_epik_Charging_Adjusted_Penalty>
0

> <i_epik_Tot_Q>
0

> <i_epik_Tot_abs_Q>
0

> <s_epik_Chemistry_Notes>
This compound contains an acetal/aminal-like group ( X-CH(R)-Y where X, Y are N, S, or O) that may be acid/base labile, releasing an aldehyde.

$$$$
