3t2t_ligand
                    3D
 Schrodinger Suite 2020-3.
 47 48  0  0  1  0            999 V2000
   23.4040    0.6600   19.0450 C   0  0  1  0  0  0
   24.3500   -0.4120   18.9810 O   0  0  0  0  0  0
   23.8970    1.7930   18.1680 C   0  0  1  0  0  0
   24.0470    1.2990   16.8390 O   0  0  0  0  0  0
   22.9450    2.9830   18.1340 C   0  0  1  0  0  0
   23.2580    3.6890   16.9380 O   0  0  0  0  0  0
   21.4740    2.5740   18.1050 C   0  0  1  0  0  0
   21.0990    2.3900   16.7390 O   0  0  0  0  0  0
   21.1590    1.2810   18.8470 C   0  0  2  0  0  0
   22.1290    0.2840   18.5310 O   0  0  0  0  0  0
   19.7780    0.7520   18.4610 C   0  0  0  0  0  0
   19.4300   -0.3430   19.3170 O   0  0  0  0  0  0
   22.4750    5.5700   18.0150 O   0  0  0  0  0  0
   22.9670    5.1010   17.0010 C   0  0  0  0  0  0
   23.3040    5.9240   15.7950 C   0  0  0  0  0  0
   23.3610    7.3060   15.8630 C   0  0  0  0  0  0
   23.6840    8.0320   14.7250 C   0  0  0  0  0  0
   23.9540    7.3860   13.5240 C   0  0  0  0  0  0
   24.2990    8.1790   12.2910 C   0  0  0  0  0  0
   23.8990    6.0010   13.4590 C   0  0  0  0  0  0
   23.5710    5.2760   14.5940 C   0  0  0  0  0  0
   25.3440    1.7380   16.3560 C   0  0  0  0  0  0
   25.6950    3.0130   16.5130 O   0  0  0  0  0  0
   26.1750    0.8810   15.7940 C   0  0  0  0  0  0
   23.7810   -1.6820   19.3070 C   0  0  0  0  0  0
   23.2836    0.8914   20.1136 H   0  0  0  0  0  0
   24.8790    2.1244   18.5365 H   0  0  0  0  0  0
   23.0958    3.6367   19.0058 H   0  0  0  0  0  0
   20.8818    3.3838   18.5562 H   0  0  0  0  0  0
   21.2405    3.2061   16.0151 H   0  0  0  0  0  0
   21.2310    1.4559   19.9306 H   0  0  0  0  0  0
   19.0339    1.5546   18.5713 H   0  0  0  0  0  0
   19.7955    0.4094   17.4159 H   0  0  0  0  0  0
   18.4653   -0.8558   19.1894 H   0  0  0  0  0  0
   23.1540    7.8192   16.8021 H   0  0  0  0  0  0
   23.7264    9.1201   14.7735 H   0  0  0  0  0  0
   24.2945    9.2522   12.5322 H   0  0  0  0  0  0
   23.5563    7.9766   11.5052 H   0  0  0  0  0  0
   25.2981    7.8873   11.9351 H   0  0  0  0  0  0
   24.1122    5.4867   12.5219 H   0  0  0  0  0  0
   23.5219    4.1882   14.5446 H   0  0  0  0  0  0
   25.7057   -0.1131   15.7553 H   0  0  0  0  0  0
   27.1010    0.8266   16.3853 H   0  0  0  0  0  0
   26.4111    1.2151   14.7729 H   0  0  0  0  0  0
   24.5563   -2.4594   19.2394 H   0  0  0  0  0  0
   22.9688   -1.9118   18.6017 H   0  0  0  0  0  0
   23.3800   -1.6522   20.3309 H   0  0  0  0  0  0
  1  2  1  0  0  0
  1  3  1  0  0  0
  1 10  1  0  0  0
  1 26  1  0  0  0
  2 25  1  0  0  0
  3  4  1  0  0  0
  3  5  1  0  0  0
  3 27  1  0  0  0
  4 22  1  0  0  0
  5  6  1  0  0  0
  5  7  1  0  0  0
  5 28  1  0  0  0
  6 14  1  0  0  0
  7  8  1  0  0  0
  7  9  1  0  0  0
  7 29  1  0  0  0
  8 30  1  0  0  0
  9 10  1  0  0  0
  9 11  1  0  0  0
  9 31  1  0  0  0
 11 12  1  0  0  0
 11 32  1  0  0  0
 11 33  1  0  0  0
 12 34  1  0  0  0
 13 14  2  0  0  0
 14 15  1  0  0  0
 15 16  2  0  0  0
 15 21  1  0  0  0
 16 17  1  0  0  0
 16 35  1  0  0  0
 17 18  2  0  0  0
 17 36  1  0  0  0
 18 19  1  0  0  0
 18 20  1  0  0  0
 19 37  1  0  0  0
 19 38  1  0  0  0
 19 39  1  0  0  0
 20 21  2  0  0  0
 20 40  1  0  0  0
 21 41  1  0  0  0
 22 23  2  0  0  0
 22 24  1  0  0  0
 24 42  1  0  0  0
 24 43  1  0  0  0
 24 44  1  0  0  0
 25 45  1  0  0  0
 25 46  1  0  0  0
 25 47  1  0  0  0
M  END
> <s_m_source_file>
../3t2t_ligand.sdf

> <i_m_source_file_index>
1

> <s_epik_input>
W09IXVtDSDJdW0NAQEhdKE8xKVtDQEhdKFtPSF0pW0NAQEhdKFtDQEBIXShbQ0BASF0xT1tDSDNdKU9DKD1PKVtDSDNdKU9DKD1PKWMyW2NIXVtjSF1jKFtDSDNdKVtjSF1bY0hdMg==

> <s_epik_cmdline>
J2VwaWtfYXBwJywgJy1pbWFlJywgJ2xpZ2FuZF9wcm8ubWFlJywgJy1vbWFlJywgJ2xpZ2FuZF9wcmVwLm1hZScsICctbXMnLCAnMScsICctcGgnLCAnNycsICctcGh0JywgJzAuNScsICctbnQn

> <r_lp_tautomer_probability>
1

> <r_epik_Ionization_Penalty>
  0.0000

> <r_epik_Ionization_Penalty_Charging>
  0.0000

> <r_epik_Ionization_Penalty_Neutral>
  0.0000

> <r_epik_State_Penalty>
 -0.0000

> <r_epik_Charging_Adjusted_Penalty>
0

> <i_epik_Tot_Q>
0

> <i_epik_Tot_abs_Q>
0

> <s_epik_Chemistry_Notes>
This compound has an ester and may undergo hydrolysis at high or low pH. This compound contains an acetal/aminal-like group ( X-CH(R)-Y where X, Y are N, S, or O) that may be acid/base labile, releasing an aldehyde.

$$$$
