3t2v_ligand
                    3D
 Schrodinger Suite 2020-3.
 47 46  0  0  1  0            999 V2000
  -33.9510  -17.3520  -41.2190 O   0  0  0  0  0  0
  -34.0330  -18.4540  -40.3110 C   0  0  1  0  0  0
  -34.5280  -19.7330  -41.0620 C   0  0  1  0  0  0
  -36.0100  -19.5200  -41.4330 C   0  0  0  0  0  0
  -36.6450  -18.5410  -40.9570 O   0  5  0  0  0  0
  -36.6040  -20.3100  -42.2120 O   0  0  0  0  0  0
  -32.6790  -18.6280  -39.6050 C   0  0  0  0  0  0
  -32.8450  -19.2280  -38.1980 C   0  0  0  0  0  0
  -31.7820  -20.2770  -37.8220 C   0  0  0  0  0  0
  -31.7050  -21.4470  -38.8130 C   0  0  0  0  0  0
  -31.9950  -22.7980  -38.1760 C   0  0  0  0  0  0
  -32.4830  -23.7830  -39.2280 C   0  0  0  0  0  0
  -33.5930  -20.1050  -42.2560 C   0  0  0  0  0  0
  -33.9360  -21.3460  -43.1040 C   0  0  0  0  0  0
  -34.4300  -22.6070  -42.3520 C   0  0  0  0  0  0
  -35.6900  -23.2020  -42.9770 C   0  0  0  0  0  0
  -35.8720  -24.6740  -42.6200 C   0  0  0  0  0  0
  -35.7650  -25.5280  -43.8770 C   0  0  0  0  0  0
  -34.8270  -17.0692  -41.8212 H   0  0  0  0  0  0
  -34.7806  -18.1751  -39.5538 H   0  0  0  0  0  0
  -34.4867  -20.6222  -40.4158 H   0  0  0  0  0  0
  -32.0412  -19.3017  -40.1960 H   0  0  0  0  0  0
  -32.1873  -17.6488  -39.5084 H   0  0  0  0  0  0
  -32.7826  -18.4260  -37.4477 H   0  0  0  0  0  0
  -33.8241  -19.7239  -38.1240 H   0  0  0  0  0  0
  -30.7907  -19.8009  -37.7944 H   0  0  0  0  0  0
  -32.0149  -20.6965  -36.8322 H   0  0  0  0  0  0
  -32.4407  -21.2958  -39.6166 H   0  0  0  0  0  0
  -30.6947  -21.4955  -39.2453 H   0  0  0  0  0  0
  -31.0768  -23.1905  -37.7146 H   0  0  0  0  0  0
  -32.7714  -22.6811  -37.4056 H   0  0  0  0  0  0
  -32.6885  -24.7540  -38.7538 H   0  0  0  0  0  0
  -31.7094  -23.9083  -39.9999 H   0  0  0  0  0  0
  -33.4040  -23.3988  -39.6908 H   0  0  0  0  0  0
  -33.5683  -19.2731  -42.9753 H   0  0  0  0  0  0
  -32.5768  -20.2953  -41.8805 H   0  0  0  0  0  0
  -34.7388  -21.0952  -43.8129 H   0  0  0  0  0  0
  -33.0433  -21.6683  -43.6601 H   0  0  0  0  0  0
  -33.6448  -23.3771  -42.3724 H   0  0  0  0  0  0
  -34.6598  -22.3452  -41.3086 H   0  0  0  0  0  0
  -36.5723  -22.6522  -42.6176 H   0  0  0  0  0  0
  -35.6291  -23.1216  -44.0724 H   0  0  0  0  0  0
  -35.0913  -24.9776  -41.9070 H   0  0  0  0  0  0
  -36.8622  -24.8210  -42.1641 H   0  0  0  0  0  0
  -35.8971  -26.5876  -43.6127 H   0  0  0  0  0  0
  -34.7749  -25.3848  -44.3344 H   0  0  0  0  0  0
  -36.5458  -25.2282  -44.5915 H   0  0  0  0  0  0
  1  2  1  0  0  0
  1 19  1  0  0  0
  2  3  1  0  0  0
  2  7  1  0  0  0
  2 20  1  0  0  0
  3  4  1  0  0  0
  3 13  1  0  0  0
  3 21  1  0  0  0
  4  5  1  0  0  0
  4  6  2  0  0  0
  7  8  1  0  0  0
  7 22  1  0  0  0
  7 23  1  0  0  0
  8  9  1  0  0  0
  8 24  1  0  0  0
  8 25  1  0  0  0
  9 10  1  0  0  0
  9 26  1  0  0  0
  9 27  1  0  0  0
 10 11  1  0  0  0
 10 28  1  0  0  0
 10 29  1  0  0  0
 11 12  1  0  0  0
 11 30  1  0  0  0
 11 31  1  0  0  0
 12 32  1  0  0  0
 12 33  1  0  0  0
 12 34  1  0  0  0
 13 14  1  0  0  0
 13 35  1  0  0  0
 13 36  1  0  0  0
 14 15  1  0  0  0
 14 37  1  0  0  0
 14 38  1  0  0  0
 15 16  1  0  0  0
 15 39  1  0  0  0
 15 40  1  0  0  0
 16 17  1  0  0  0
 16 41  1  0  0  0
 16 42  1  0  0  0
 17 18  1  0  0  0
 17 43  1  0  0  0
 17 44  1  0  0  0
 18 45  1  0  0  0
 18 46  1  0  0  0
 18 47  1  0  0  0
M  CHG  1   5  -1
M  END
> <s_m_source_file>
../3t2v_ligand.sdf

> <i_m_source_file_index>
1

> <s_epik_input>
W0NIM11bQ0gyXVtDSDJdW0NIMl1bQ0gyXVtDSDJdW0NAQEhdKFtPSF0pW0NAQEhdKEMoPU8pW09IXSlbQ0gyXVtDSDJdW0NIMl1bQ0gyXVtDSDJdW0NIM10=

> <s_epik_cmdline>
J2VwaWtfYXBwJywgJy1pbWFlJywgJ2xpZ2FuZF9wcm8ubWFlJywgJy1vbWFlJywgJ2xpZ2FuZF9wcmVwLm1hZScsICctbXMnLCAnMScsICctcGgnLCAnNycsICctcGh0JywgJzAuNScsICctbnQn

> <r_lp_tautomer_probability>
1

> <r_epik_Ionization_Penalty>
  0.0023

> <r_epik_Ionization_Penalty_Charging>
  0.0023

> <r_epik_Ionization_Penalty_Neutral>
  0.0000

> <r_epik_State_Penalty>
 -0.0000

> <r_epik_Charging_Adjusted_Penalty>
0.0023403700278774

> <i_epik_Tot_Q>
-1

> <i_epik_Tot_abs_Q>
1

$$$$
