3t2w_ligand
                    3D
 Schrodinger Suite 2020-3.
 31 32  0  0  1  0            999 V2000
   -6.4190  -26.4210   -3.9230 C   0  0  0  0  0  0
   -6.6420  -27.6440   -3.7260 O   0  5  0  0  0  0
   -6.9470  -25.8890   -4.9220 O   0  0  0  0  0  0
   -5.5200  -25.6040   -3.0020 C   0  0  0  0  0  0
   -5.5530  -25.9500   -1.5090 C   0  0  0  0  0  0
   -6.9470  -25.8560   -0.8700 C   0  0  0  0  0  0
   -6.9460  -26.2140    0.6170 C   0  0  0  0  0  0
   -8.3630  -25.9720    1.2150 C   0  0  2  0  0  0
   -8.8250  -24.3380    1.3950 S   0  0  0  0  0  0
  -10.3160  -24.9010    2.2590 C   0  0  0  0  0  0
   -9.8080  -25.9850    3.2360 C   0  0  2  0  0  0
   -9.2650  -25.4600    4.4710 N   0  0  0  0  0  0
   -7.9570  -25.7900    4.5540 C   0  0  0  0  0  0
   -7.1920  -25.4290    5.6400 O   0  0  0  0  0  0
   -7.5250  -26.4390    3.4910 N   0  0  0  0  0  0
   -8.6090  -26.6730    2.5540 C   0  0  2  0  0  0
   -4.4712  -25.7265   -3.3102 H   0  0  0  0  0  0
   -5.7990  -24.5418   -3.0650 H   0  0  0  0  0  0
   -5.2011  -26.9820   -1.3639 H   0  0  0  0  0  0
   -4.8987  -25.2586   -0.9578 H   0  0  0  0  0  0
   -7.3260  -24.8279   -0.9666 H   0  0  0  0  0  0
   -7.6320  -26.5488   -1.3807 H   0  0  0  0  0  0
   -6.6744  -27.2729    0.7390 H   0  0  0  0  0  0
   -6.2146  -25.5847    1.1452 H   0  0  0  0  0  0
   -8.9398  -26.5341    0.4658 H   0  0  0  0  0  0
  -10.7752  -24.0531    2.7884 H   0  0  0  0  0  0
  -11.0311  -25.3081    1.5290 H   0  0  0  0  0  0
  -10.6579  -26.6193    3.5280 H   0  0  0  0  0  0
   -9.9106  -24.8949    5.1594 H   0  0  0  0  0  0
   -6.5102  -26.7937    3.2578 H   0  0  0  0  0  0
   -8.6962  -27.7536    2.3676 H   0  0  0  0  0  0
  1  2  1  0  0  0
  1  3  2  0  0  0
  1  4  1  0  0  0
  4  5  1  0  0  0
  4 17  1  0  0  0
  4 18  1  0  0  0
  5  6  1  0  0  0
  5 19  1  0  0  0
  5 20  1  0  0  0
  6  7  1  0  0  0
  6 21  1  0  0  0
  6 22  1  0  0  0
  7  8  1  0  0  0
  7 23  1  0  0  0
  7 24  1  0  0  0
  8  9  1  0  0  0
  8 16  1  0  0  0
  8 25  1  0  0  0
  9 10  1  0  0  0
 10 11  1  0  0  0
 10 26  1  0  0  0
 10 27  1  0  0  0
 11 12  1  0  0  0
 11 16  1  0  0  0
 11 28  1  0  0  0
 12 13  1  0  0  0
 12 29  1  0  0  0
 13 14  2  0  0  0
 13 15  1  0  0  0
 15 16  1  0  0  0
 15 30  1  0  0  0
 16 31  1  0  0  0
M  CHG  1   2  -1
M  END
> <s_m_source_file>
../3t2w_ligand.sdf

> <i_m_source_file_index>
1

> <s_epik_input>
W09IXUMoPU8pW0NIMl1bQ0gyXVtDSDJdW0NIMl1bQ0BIXShTW0NIMl0xKVtDQEhdKFtDQEhdMTIpW05IXUMoPU8pW05IXTI=

> <s_epik_cmdline>
J2VwaWtfYXBwJywgJy1pbWFlJywgJ2xpZ2FuZF9wcm8ubWFlJywgJy1vbWFlJywgJ2xpZ2FuZF9wcmVwLm1hZScsICctbXMnLCAnMScsICctcGgnLCAnNycsICctcGh0JywgJzAuNScsICctbnQn

> <r_lp_tautomer_probability>
1

> <r_epik_Ionization_Penalty>
  0.0045

> <r_epik_Ionization_Penalty_Charging>
  0.0044

> <r_epik_Ionization_Penalty_Neutral>
  0.0000

> <r_epik_State_Penalty>
 -0.0000

> <r_epik_Charging_Adjusted_Penalty>
0.00443833021372702

> <i_epik_Tot_Q>
-1

> <i_epik_Tot_abs_Q>
1

$$$$
