3t3d_ligand
                    3D
 Schrodinger Suite 2020-3.
 33 34  0  0  1  0            999 V2000
   34.2160   23.4570   28.6970 N   0  0  0  0  0  0
   32.4240   24.1830   29.9280 O   0  0  0  0  0  0
   33.6310   24.1580   29.7470 C   0  0  0  0  0  0
   34.4330   24.8720   30.6190 N   0  0  0  0  0  0
   35.8140   24.8820   30.4440 C   0  0  0  0  0  0
   36.4180   25.5650   31.2620 O   0  0  0  0  0  0
   36.4450   24.1850   29.4000 C   0  0  0  0  0  0
   35.6360   23.4910   28.5160 C   0  0  0  0  0  0
   33.3180   22.7340   27.7870 C   0  0  2  0  0  0
   33.2840   21.3050   28.0060 O   0  0  0  0  0  0
   32.1950   20.7060   27.3030 C   0  0  2  0  0  0
   32.2430   19.2710   27.8060 C   0  0  0  0  0  0
   33.2610   18.5140   27.1470 O   0  0  0  0  0  0
   32.4560   20.8860   25.7680 C   0  0  1  0  0  0
   31.4070   20.2670   24.9980 O   0  0  0  0  0  0
   32.6280   22.3660   25.3840 C   0  0  2  0  0  0
   33.0300   22.4610   24.0630 O   0  0  0  0  0  0
   33.7050   23.0060   26.3090 C   0  0  1  0  0  0
   33.8950   24.4130   26.0910 O   0  0  0  0  0  0
   33.9795   25.4316   31.4504 H   0  0  0  0  0  0
   37.5294   24.1903   29.2901 H   0  0  0  0  0  0
   36.0849   22.9650   27.6734 H   0  0  0  0  0  0
   32.3131   23.0826   28.0673 H   0  0  0  0  0  0
   31.2210   21.1630   27.5322 H   0  0  0  0  0  0
   32.4532   19.2678   28.8857 H   0  0  0  0  0  0
   31.2742   18.7845   27.6196 H   0  0  0  0  0  0
   33.4152   17.4564   27.4071 H   0  0  0  0  0  0
   33.3632   20.3431   25.4643 H   0  0  0  0  0  0
   31.1610   19.2066   25.1562 H   0  0  0  0  0  0
   31.6724   22.9107   25.3928 H   0  0  0  0  0  0
   32.3905   22.0593   23.2632 H   0  0  0  0  0  0
   34.7009   22.6191   26.0471 H   0  0  0  0  0  0
   34.6323   24.9677   26.6899 H   0  0  0  0  0  0
  1  3  1  0  0  0
  1  8  1  0  0  0
  1  9  1  0  0  0
  2  3  2  0  0  0
  3  4  1  0  0  0
  4  5  1  0  0  0
  4 20  1  0  0  0
  5  6  2  0  0  0
  5  7  1  0  0  0
  7  8  2  0  0  0
  7 21  1  0  0  0
  8 22  1  0  0  0
  9 10  1  0  0  0
  9 18  1  0  0  0
  9 23  1  0  0  0
 10 11  1  0  0  0
 11 12  1  0  0  0
 11 14  1  0  0  0
 11 24  1  0  0  0
 12 13  1  0  0  0
 12 25  1  0  0  0
 12 26  1  0  0  0
 13 27  1  0  0  0
 14 15  1  0  0  0
 14 16  1  0  0  0
 14 28  1  0  0  0
 15 29  1  0  0  0
 16 17  1  0  0  0
 16 18  1  0  0  0
 16 30  1  0  0  0
 17 31  1  0  0  0
 18 19  1  0  0  0
 18 32  1  0  0  0
 19 33  1  0  0  0
M  END
> <s_m_source_file>
../3t3d_ligand.sdf

> <i_m_source_file_index>
1

> <s_epik_input>
W2NIXTFbY0hdYyg9TylbbkhdYyg9TyluMVtDQEBIXTJPW0NASF0oW0NIMl1bT0hdKVtDQEBIXShbT0hdKVtDQEhdKFtPSF0pW0NASF0yW09IXQ==

> <s_epik_cmdline>
J2VwaWtfYXBwJywgJy1pbWFlJywgJ2xpZ2FuZF9wcm8ubWFlJywgJy1vbWFlJywgJ2xpZ2FuZF9wcmVwLm1hZScsICctbXMnLCAnMScsICctcGgnLCAnNycsICctcGh0JywgJzAuNScsICctbnQn

> <r_lp_tautomer_probability>
1

> <r_epik_Ionization_Penalty>
  0.0043

> <r_epik_Ionization_Penalty_Charging>
  0.0043

> <r_epik_Ionization_Penalty_Neutral>
  0.0000

> <r_epik_State_Penalty>
 -0.0000

> <r_epik_Charging_Adjusted_Penalty>
0.00429016282176997

> <i_epik_Tot_Q>
0

> <i_epik_Tot_abs_Q>
0

> <s_epik_Chemistry_Notes>
This compound contains an acetal/aminal-like group ( X-CH(R)-Y where X, Y are N, S, or O) that may be acid/base labile, releasing an aldehyde.

$$$$
