3t3e_ligand
                    3D
 Schrodinger Suite 2020-3.
 33 34  0  0  1  0            999 V2000
   34.0910   23.4150   28.7620 N   0  0  0  0  0  0
   37.9410   23.9470   29.6410 Cl  0  0  0  0  0  0
   33.4180   24.1410   29.7510 C   0  0  0  0  0  0
   32.1990   24.1990   29.7530 O   0  0  0  0  0  0
   34.1320   24.8450   30.6820 N   0  0  0  0  0  0
   35.5290   24.8180   30.6560 C   0  0  0  0  0  0
   36.0900   25.4830   31.5090 O   0  0  0  0  0  0
   36.2170   24.0770   29.6870 C   0  0  0  0  0  0
   35.4960   23.3800   28.7350 C   0  0  0  0  0  0
   33.2680   22.7260   27.8040 C   0  0  1  0  0  0
   33.6950   23.0390   26.3370 C   0  0  2  0  0  0
   33.8200   24.4520   26.1690 O   0  0  0  0  0  0
   32.6370   22.4050   25.3900 C   0  0  1  0  0  0
   33.0680   22.3430   24.0410 O   0  0  0  0  0  0
   32.3680   20.9530   25.8460 C   0  0  2  0  0  0
   31.2900   20.4790   25.0900 O   0  0  0  0  0  0
   32.0650   20.7990   27.3690 C   0  0  2  0  0  0
   33.1990   21.2880   28.0890 O   0  0  0  0  0  0
   32.0500   19.3520   27.8050 C   0  0  0  0  0  0
   33.2080   18.6560   27.3040 O   0  0  0  0  0  0
   33.6064   25.4315   31.4500 H   0  0  0  0  0  0
   36.0147   22.8061   27.9671 H   0  0  0  0  0  0
   32.2520   23.1011   27.9967 H   0  0  0  0  0  0
   34.7058   22.6927   26.0754 H   0  0  0  0  0  0
   34.5370   25.0175   26.7823 H   0  0  0  0  0  0
   31.7454   23.0481   25.3505 H   0  0  0  0  0  0
   33.3200   23.2676   23.5011 H   0  0  0  0  0  0
   33.2303   20.3140   25.6048 H   0  0  0  0  0  0
   31.3324   20.5112   23.9913 H   0  0  0  0  0  0
   31.1307   21.3272   27.6101 H   0  0  0  0  0  0
   32.0523   19.3001   28.9038 H   0  0  0  0  0  0
   31.1453   18.8614   27.4167 H   0  0  0  0  0  0
   33.3500   17.5893   27.5321 H   0  0  0  0  0  0
  1  3  1  0  0  0
  1  9  1  0  0  0
  1 10  1  0  0  0
  2  8  1  0  0  0
  3  4  2  0  0  0
  3  5  1  0  0  0
  5  6  1  0  0  0
  5 21  1  0  0  0
  6  7  2  0  0  0
  6  8  1  0  0  0
  8  9  2  0  0  0
  9 22  1  0  0  0
 10 11  1  0  0  0
 10 18  1  0  0  0
 10 23  1  0  0  0
 11 12  1  0  0  0
 11 13  1  0  0  0
 11 24  1  0  0  0
 12 25  1  0  0  0
 13 14  1  0  0  0
 13 15  1  0  0  0
 13 26  1  0  0  0
 14 27  1  0  0  0
 15 16  1  0  0  0
 15 17  1  0  0  0
 15 28  1  0  0  0
 16 29  1  0  0  0
 17 18  1  0  0  0
 17 19  1  0  0  0
 17 30  1  0  0  0
 19 20  1  0  0  0
 19 31  1  0  0  0
 19 32  1  0  0  0
 20 33  1  0  0  0
M  END
> <s_m_source_file>
../3t3e_ligand.sdf

> <i_m_source_file_index>
1

> <s_epik_input>
Q2xjKFtjSF0xKWMoPU8pW25IXWMoPU8pbjFbQ0BIXTJbQ0BIXShbT0hdKVtDQEBIXShbT0hdKVtDQEhdKFtPSF0pW0NASF0oTzIpW0NIMl1bT0hd

> <s_epik_cmdline>
J2VwaWtfYXBwJywgJy1pbWFlJywgJ2xpZ2FuZF9wcm8ubWFlJywgJy1vbWFlJywgJ2xpZ2FuZF9wcmVwLm1hZScsICctbXMnLCAnMScsICctcGgnLCAnNycsICctcGh0JywgJzAuNScsICctbnQn

> <r_lp_tautomer_probability>
0.999537046341301

> <r_epik_Ionization_Penalty>
  0.0894

> <r_epik_Ionization_Penalty_Charging>
  0.0894

> <r_epik_Ionization_Penalty_Neutral>
  0.0000

> <r_epik_State_Penalty>
  0.0798

> <r_epik_Charging_Adjusted_Penalty>
0.16914352441226

> <i_epik_Tot_Q>
0

> <i_epik_Tot_abs_Q>
0

> <s_epik_Chemistry_Notes>
This compound contains an acetal/aminal-like group ( X-CH(R)-Y where X, Y are N, S, or O) that may be acid/base labile, releasing an aldehyde.

$$$$
