3t3g_ligand
                    3D
 Schrodinger Suite 2020-3.
 33 34  0  0  1  0            999 V2000
   34.0340   23.5280   28.9300 N   0  0  0  0  0  0
   38.0860   23.9480   29.9230 Br  0  0  0  0  0  0
   33.3570   24.3680   29.8510 C   0  0  0  0  0  0
   32.1300   24.4920   29.8320 O   0  0  0  0  0  0
   34.1310   25.1020   30.8030 N   0  0  0  0  0  0
   35.5310   24.9760   30.8270 C   0  0  0  0  0  0
   36.1480   25.6520   31.6370 O   0  0  0  0  0  0
   36.1830   24.1420   29.9100 C   0  0  0  0  0  0
   35.4410   23.4270   28.9630 C   0  0  0  0  0  0
   33.2410   22.7710   27.9410 C   0  0  1  0  0  0
   33.6860   23.1110   26.5190 C   0  0  2  0  0  0
   33.8200   24.5510   26.3780 O   0  0  0  0  0  0
   32.6670   22.4490   25.5770 C   0  0  1  0  0  0
   33.1710   22.4480   24.2510 O   0  0  0  0  0  0
   32.3800   20.9790   25.9870 C   0  0  2  0  0  0
   31.2850   20.4980   25.2420 O   0  0  0  0  0  0
   32.1340   20.7860   27.4910 C   0  0  2  0  0  0
   33.3270   21.3250   28.0360 O   0  0  0  0  0  0
   32.1720   19.3620   28.0130 C   0  0  0  0  0  0
   33.3050   18.6850   27.4530 O   0  0  0  0  0  0
   33.6314   25.7690   31.5210 H   0  0  0  0  0  0
   35.9541   22.7870   28.2452 H   0  0  0  0  0  0
   32.2083   23.0432   28.2046 H   0  0  0  0  0  0
   34.7015   22.7766   26.2602 H   0  0  0  0  0  0
   34.5278   25.1024   27.0144 H   0  0  0  0  0  0
   31.7468   23.0513   25.5576 H   0  0  0  0  0  0
   33.4406   23.3969   23.7644 H   0  0  0  0  0  0
   33.2287   20.3381   25.7060 H   0  0  0  0  0  0
   31.2974   20.5597   24.1438 H   0  0  0  0  0  0
   31.1718   21.2368   27.7757 H   0  0  0  0  0  0
   32.2550   19.3756   29.1098 H   0  0  0  0  0  0
   31.2487   18.8399   27.7216 H   0  0  0  0  0  0
   33.5030   17.6351   27.7147 H   0  0  0  0  0  0
  1  3  1  0  0  0
  1  9  1  0  0  0
  1 10  1  0  0  0
  2  8  1  0  0  0
  3  4  2  0  0  0
  3  5  1  0  0  0
  5  6  1  0  0  0
  5 21  1  0  0  0
  6  7  2  0  0  0
  6  8  1  0  0  0
  8  9  2  0  0  0
  9 22  1  0  0  0
 10 11  1  0  0  0
 10 18  1  0  0  0
 10 23  1  0  0  0
 11 12  1  0  0  0
 11 13  1  0  0  0
 11 24  1  0  0  0
 12 25  1  0  0  0
 13 14  1  0  0  0
 13 15  1  0  0  0
 13 26  1  0  0  0
 14 27  1  0  0  0
 15 16  1  0  0  0
 15 17  1  0  0  0
 15 28  1  0  0  0
 16 29  1  0  0  0
 17 18  1  0  0  0
 17 19  1  0  0  0
 17 30  1  0  0  0
 19 20  1  0  0  0
 19 31  1  0  0  0
 19 32  1  0  0  0
 20 33  1  0  0  0
M  END
> <s_m_source_file>
../3t3g_ligand.sdf

> <i_m_source_file_index>
1

> <s_epik_input>
QnJjKFtjSF0xKWMoPU8pW25IXWMoPU8pbjFbQ0BIXTJbQ0BIXShbT0hdKVtDQEBIXShbT0hdKVtDQEhdKFtPSF0pW0NASF0oTzIpW0NIMl1bT0hd

> <s_epik_cmdline>
J2VwaWtfYXBwJywgJy1pbWFlJywgJ2xpZ2FuZF9wcm8ubWFlJywgJy1vbWFlJywgJ2xpZ2FuZF9wcmVwLm1hZScsICctbXMnLCAnMScsICctcGgnLCAnNycsICctcGh0JywgJzAuNScsICctbnQn

> <r_lp_tautomer_probability>
0.999537046341301

> <r_epik_Ionization_Penalty>
  0.1046

> <r_epik_Ionization_Penalty_Charging>
  0.1046

> <r_epik_Ionization_Penalty_Neutral>
  0.0000

> <r_epik_State_Penalty>
  0.0945

> <r_epik_Charging_Adjusted_Penalty>
0.199055859847644

> <i_epik_Tot_Q>
0

> <i_epik_Tot_abs_Q>
0

> <s_epik_Chemistry_Notes>
This compound contains an acetal/aminal-like group ( X-CH(R)-Y where X, Y are N, S, or O) that may be acid/base labile, releasing an aldehyde.

$$$$
