3t3h_ligand
                    3D
 Schrodinger Suite 2020-3.
 33 34  0  0  1  0            999 V2000
   38.1540   23.5600   30.1550 I   0  0  0  0  0  0
   33.9570   23.4420   28.9090 N   0  0  0  0  0  0
   33.2990   24.3500   29.7320 C   0  0  0  0  0  0
   32.0870   24.5350   29.6100 O   0  0  0  0  0  0
   34.0290   25.0860   30.6810 N   0  0  0  0  0  0
   35.4100   24.8850   30.8160 C   0  0  0  0  0  0
   36.0100   25.5320   31.6600 O   0  0  0  0  0  0
   36.0700   23.9760   29.9920 C   0  0  0  0  0  0
   35.3230   23.2640   29.0430 C   0  0  0  0  0  0
   33.1890   22.7020   27.8670 C   0  0  1  0  0  0
   33.6510   23.0250   26.4160 C   0  0  2  0  0  0
   33.6920   24.4600   26.1840 O   0  0  0  0  0  0
   32.6460   22.3380   25.4780 C   0  0  1  0  0  0
   32.9630   22.4940   24.1160 O   0  0  0  0  0  0
   32.3990   20.8900   25.8260 C   0  0  2  0  0  0
   31.2280   20.5070   25.1000 O   0  0  0  0  0  0
   32.1260   20.7190   27.3290 C   0  0  2  0  0  0
   33.2280   21.2730   27.9590 O   0  0  0  0  0  0
   32.1550   19.2830   27.9090 C   0  0  0  0  0  0
   33.0890   18.4730   27.2030 O   0  0  0  0  0  0
   33.5169   25.8211   31.3193 H   0  0  0  0  0  0
   35.8315   22.5514   28.3935 H   0  0  0  0  0  0
   32.1613   22.9984   28.1237 H   0  0  0  0  0  0
   34.6869   22.7163   26.2119 H   0  0  0  0  0  0
   34.3654   25.0943   26.7791 H   0  0  0  0  0  0
   31.6892   22.8765   25.5456 H   0  0  0  0  0  0
   33.1699   23.4954   23.7107 H   0  0  0  0  0  0
   33.2461   20.2573   25.5224 H   0  0  0  0  0  0
   31.2208   20.5581   24.0012 H   0  0  0  0  0  0
   31.1612   21.2076   27.5303 H   0  0  0  0  0  0
   32.4479   19.3214   28.9686 H   0  0  0  0  0  0
   31.1557   18.8317   27.8209 H   0  0  0  0  0  0
   33.2323   17.4210   27.4905 H   0  0  0  0  0  0
  1  8  1  0  0  0
  2  3  1  0  0  0
  2  9  1  0  0  0
  2 10  1  0  0  0
  3  4  2  0  0  0
  3  5  1  0  0  0
  5  6  1  0  0  0
  5 21  1  0  0  0
  6  7  2  0  0  0
  6  8  1  0  0  0
  8  9  2  0  0  0
  9 22  1  0  0  0
 10 11  1  0  0  0
 10 18  1  0  0  0
 10 23  1  0  0  0
 11 12  1  0  0  0
 11 13  1  0  0  0
 11 24  1  0  0  0
 12 25  1  0  0  0
 13 14  1  0  0  0
 13 15  1  0  0  0
 13 26  1  0  0  0
 14 27  1  0  0  0
 15 16  1  0  0  0
 15 17  1  0  0  0
 15 28  1  0  0  0
 16 29  1  0  0  0
 17 18  1  0  0  0
 17 19  1  0  0  0
 17 30  1  0  0  0
 19 20  1  0  0  0
 19 31  1  0  0  0
 19 32  1  0  0  0
 20 33  1  0  0  0
M  END
> <s_m_source_file>
../3t3h_ligand.sdf

> <i_m_source_file_index>
1

> <s_epik_input>
SWMoW2NIXTEpYyg9TylbbkhdYyg9TyluMVtDQEhdMltDQEhdKFtPSF0pW0NAQEhdKFtPSF0pW0NASF0oW09IXSlbQ0BIXShPMilbQ0gyXVtPSF0=

> <s_epik_cmdline>
J2VwaWtfYXBwJywgJy1pbWFlJywgJ2xpZ2FuZF9wcm8ubWFlJywgJy1vbWFlJywgJ2xpZ2FuZF9wcmVwLm1hZScsICctbXMnLCAnMScsICctcGgnLCAnNycsICctcGh0JywgJzAuNScsICctbnQn

> <r_lp_tautomer_probability>
0.999537046341301

> <r_epik_Ionization_Penalty>
  0.0337

> <r_epik_Ionization_Penalty_Charging>
  0.0337

> <r_epik_Ionization_Penalty_Neutral>
  0.0000

> <r_epik_State_Penalty>
  0.0280

> <r_epik_Charging_Adjusted_Penalty>
0.0617351961013123

> <i_epik_Tot_Q>
0

> <i_epik_Tot_abs_Q>
0

> <s_epik_Chemistry_Notes>
This compound contains an acetal/aminal-like group ( X-CH(R)-Y where X, Y are N, S, or O) that may be acid/base labile, releasing an aldehyde.

$$$$
