3t3i_ligand
                    3D
 Schrodinger Suite 2020-3.
 36 37  0  0  1  0            999 V2000
   38.4630   25.0800   29.9080 F   0  0  0  0  0  0
   34.1360   23.5760   29.0840 N   0  0  0  0  0  0
   33.4320   24.4210   29.9760 C   0  0  0  0  0  0
   38.0880   23.6760   31.4960 F   0  0  0  0  0  0
   32.2030   24.5150   29.8800 O   0  0  0  0  0  0
   38.1470   22.9950   29.5230 F   0  0  0  0  0  0
   34.1260   25.1690   30.9520 N   0  0  0  0  0  0
   35.5350   25.0470   31.0260 C   0  0  0  0  0  0
   36.1460   25.6910   31.8730 O   0  0  0  0  0  0
   36.2370   24.2020   30.1390 C   0  0  0  0  0  0
   35.5320   23.4710   29.1690 C   0  0  0  0  0  0
   37.7740   24.0210   30.2480 C   0  0  0  0  0  0
   33.3590   22.8260   28.0450 C   0  0  1  0  0  0
   33.8120   23.0720   26.5670 C   0  0  2  0  0  0
   34.0130   24.4840   26.3240 O   0  0  0  0  0  0
   32.7760   22.4310   25.5950 C   0  0  1  0  0  0
   33.1630   22.5040   24.2090 O   0  0  0  0  0  0
   32.5270   20.9550   25.9730 C   0  0  2  0  0  0
   31.3750   20.4920   25.2400 O   0  0  0  0  0  0
   32.3290   20.7520   27.5130 C   0  0  2  0  0  0
   33.3170   21.4150   28.3100 O   0  0  0  0  0  0
   32.4490   19.3460   28.0630 C   0  0  0  0  0  0
   33.0860   18.4500   27.1620 O   0  0  0  0  0  0
   33.5721   25.8296   31.6352 H   0  0  0  0  0  0
   36.0711   22.8204   28.4804 H   0  0  0  0  0  0
   32.3303   23.1853   28.1957 H   0  0  0  0  0  0
   34.8129   22.6640   26.3626 H   0  0  0  0  0  0
   34.7209   25.0535   26.9441 H   0  0  0  0  0  0
   31.8536   23.0297   25.6233 H   0  0  0  0  0  0
   33.3847   23.4790   23.7505 H   0  0  0  0  0  0
   33.3724   20.3331   25.6436 H   0  0  0  0  0  0
   31.3557   20.5646   24.1426 H   0  0  0  0  0  0
   31.3218   21.1684   27.6618 H   0  0  0  0  0  0
   33.0405   19.3643   28.9902 H   0  0  0  0  0  0
   31.4456   18.9487   28.2759 H   0  0  0  0  0  0
   33.2334   17.3974   27.4453 H   0  0  0  0  0  0
  1 12  1  0  0  0
  2  3  1  0  0  0
  2 11  1  0  0  0
  2 13  1  0  0  0
  3  5  2  0  0  0
  3  7  1  0  0  0
  4 12  1  0  0  0
  6 12  1  0  0  0
  7  8  1  0  0  0
  7 24  1  0  0  0
  8  9  2  0  0  0
  8 10  1  0  0  0
 10 11  2  0  0  0
 10 12  1  0  0  0
 11 25  1  0  0  0
 13 14  1  0  0  0
 13 21  1  0  0  0
 13 26  1  0  0  0
 14 15  1  0  0  0
 14 16  1  0  0  0
 14 27  1  0  0  0
 15 28  1  0  0  0
 16 17  1  0  0  0
 16 18  1  0  0  0
 16 29  1  0  0  0
 17 30  1  0  0  0
 18 19  1  0  0  0
 18 20  1  0  0  0
 18 31  1  0  0  0
 19 32  1  0  0  0
 20 21  1  0  0  0
 20 22  1  0  0  0
 20 33  1  0  0  0
 22 23  1  0  0  0
 22 34  1  0  0  0
 22 35  1  0  0  0
 23 36  1  0  0  0
M  END
> <s_m_source_file>
../3t3i_ligand.sdf

> <i_m_source_file_index>
1

> <s_epik_input>
RkMoRikoRiljKFtjSF0xKWMoPU8pW25IXWMoPU8pbjFbQ0BIXTJbQ0BIXShbT0hdKVtDQEBIXShbT0hdKVtDQEhdKFtPSF0pW0NASF0oTzIpW0NIMl1bT0hd

> <s_epik_cmdline>
J2VwaWtfYXBwJywgJy1pbWFlJywgJ2xpZ2FuZF9wcm8ubWFlJywgJy1vbWFlJywgJ2xpZ2FuZF9wcmVwLm1hZScsICctbXMnLCAnMScsICctcGgnLCAnNycsICctcGh0JywgJzAuNScsICctbnQn

> <r_lp_tautomer_probability>
0.999537046341301

> <r_epik_Ionization_Penalty>
  0.1780

> <r_epik_Ionization_Penalty_Charging>
  0.1780

> <r_epik_Ionization_Penalty_Neutral>
  0.0000

> <r_epik_State_Penalty>
  0.1675

> <r_epik_Charging_Adjusted_Penalty>
0.345495241277273

> <i_epik_Tot_Q>
0

> <i_epik_Tot_abs_Q>
0

> <s_epik_Chemistry_Notes>
This compound contains an acetal/aminal-like group ( X-CH(R)-Y where X, Y are N, S, or O) that may be acid/base labile, releasing an aldehyde.

$$$$
