3t3v_ligand
                    3D
 Schrodinger Suite 2020-3.
 44 47  0  0  1  0            999 V2000
   16.6860   11.6230   62.7000 N   0  0  0  0  0  0
   17.8850   12.1170   62.3690 C   0  0  0  0  0  0
   18.0170   13.4350   62.2370 N   0  0  0  0  0  0
   16.9710   14.2700   62.4460 C   0  0  0  0  0  0
   15.7240   13.7780   62.8070 C   0  0  0  0  0  0
   15.5970   12.3920   62.9250 C   0  0  0  0  0  0
    6.8550   14.7480   64.6840 C   0  0  0  0  0  0
   17.8850   17.8650   62.7010 C   0  0  0  0  0  0
   18.0400   16.6460   60.5130 C   0  0  0  0  0  0
   14.4590   11.7960   63.2550 N   0  0  0  0  0  0
    9.9480   13.5400   66.1590 C   0  0  0  0  0  0
   12.6770   15.6350   62.5240 C   0  0  0  0  0  0
   11.2900   13.5470   65.8390 C   0  0  0  0  0  0
   11.3180   15.6600   62.8480 C   0  0  0  0  0  0
    9.4920   14.9730   64.2820 C   0  0  0  0  0  0
   13.1130   14.2080   64.4130 C   0  0  0  0  0  0
   15.6940   15.9700   62.6590 N   0  0  0  0  0  0
    7.7340   14.2360   65.7280 O   0  0  0  0  0  0
    9.0440   14.2530   65.3790 C   0  0  0  0  0  0
   13.5810   14.9030   63.2960 C   0  0  0  0  0  0
   14.9310   14.9120   62.9470 C   0  0  0  0  0  0
   10.8480   14.9590   63.9550 C   0  0  0  0  0  0
   11.7540   14.2350   64.7370 C   0  0  0  0  0  0
   17.9820   16.4920   62.0380 C   0  0  0  0  0  0
   16.8490   15.5990   62.3930 N   0  0  0  0  0  0
   18.7356   11.4540   62.2108 H   0  0  0  0  0  0
    5.8117   14.7065   65.0302 H   0  0  0  0  0  0
    6.9654   14.1340   63.7780 H   0  0  0  0  0  0
    7.1246   15.7898   64.4560 H   0  0  0  0  0  0
   18.7476   18.4784   62.4017 H   0  0  0  0  0  0
   17.8822   17.7448   63.7944 H   0  0  0  0  0  0
   16.9553   18.3603   62.3842 H   0  0  0  0  0  0
   18.8772   17.3064   60.2428 H   0  0  0  0  0  0
   17.0971   17.0830   60.1525 H   0  0  0  0  0  0
   18.1873   15.6590   60.0502 H   0  0  0  0  0  0
   14.4150   10.6997   63.3338 H   0  0  0  0  0  0
   13.5592   12.3980   63.4499 H   0  0  0  0  0  0
    9.5964   12.9758   67.0228 H   0  0  0  0  0  0
   13.0352   16.1932   61.6590 H   0  0  0  0  0  0
   11.9943   13.0007   66.4664 H   0  0  0  0  0  0
   10.6233   16.2306   62.2316 H   0  0  0  0  0  0
    8.7886   15.5467   63.6785 H   0  0  0  0  0  0
   13.8090   13.6434   65.0334 H   0  0  0  0  0  0
   18.8863   16.0028   62.4292 H   0  0  0  0  0  0
  1  2  1  0  0  0
  1  6  2  0  0  0
  2  3  2  0  0  0
  2 26  1  0  0  0
  3  4  1  0  0  0
  4  5  2  0  0  0
  4 25  1  0  0  0
  5  6  1  0  0  0
  5 21  1  0  0  0
  6 10  1  0  0  0
  7 18  1  0  0  0
  7 27  1  0  0  0
  7 28  1  0  0  0
  7 29  1  0  0  0
  8 24  1  0  0  0
  8 30  1  0  0  0
  8 31  1  0  0  0
  8 32  1  0  0  0
  9 24  1  0  0  0
  9 33  1  0  0  0
  9 34  1  0  0  0
  9 35  1  0  0  0
 10 36  1  0  0  0
 10 37  1  0  0  0
 11 13  2  0  0  0
 11 19  1  0  0  0
 11 38  1  0  0  0
 12 14  1  0  0  0
 12 20  2  0  0  0
 12 39  1  0  0  0
 13 23  1  0  0  0
 13 40  1  0  0  0
 14 22  2  0  0  0
 14 41  1  0  0  0
 15 19  2  0  0  0
 15 22  1  0  0  0
 15 42  1  0  0  0
 16 20  1  0  0  0
 16 23  2  0  0  0
 16 43  1  0  0  0
 17 21  2  0  0  0
 17 25  1  0  0  0
 18 19  1  0  0  0
 20 21  1  0  0  0
 22 23  1  0  0  0
 24 25  1  0  0  0
 24 44  1  0  0  0
M  END
> <s_m_source_file>
../3t3v_ligand.sdf

> <i_m_source_file_index>
1

> <s_epik_input>
bjFbY0hdbmMoW05IMl0pYyhjMTIpYyhubjJbQ0hdKFtDSDNdKVtDSDNdKS1jKFtjSF1bY0hdMylbY0hdYyhjMzQpW2NIXVtjSF1jKFtjSF00KU9bQ0gzXQ==

> <s_epik_cmdline>
J2VwaWtfYXBwJywgJy1pbWFlJywgJ2xpZ2FuZF9wcm8ubWFlJywgJy1vbWFlJywgJ2xpZ2FuZF9wcmVwLm1hZScsICctbXMnLCAnMScsICctcGgnLCAnNycsICctcGh0JywgJzAuNScsICctbnQn

> <r_lp_tautomer_probability>
1

> <r_epik_Ionization_Penalty>
  0.0007

> <r_epik_Ionization_Penalty_Charging>
  0.0000

> <r_epik_Ionization_Penalty_Neutral>
  0.0007

> <r_epik_State_Penalty>
 -0.0000

> <r_epik_Charging_Adjusted_Penalty>
0

> <i_epik_Tot_Q>
0

> <i_epik_Tot_abs_Q>
0

$$$$
