3t3y_ligand
                    3D
 Schrodinger Suite 2020-3.
 19 19  0  0  1  0            999 V2000
   -4.5550    2.0150   -1.0340 C   0  0  0  0  0  0
   -3.3510    2.3330    1.0150 N   0  0  0  0  0  0
   -4.3460    3.2900   -1.3020 O   0  5  0  0  0  0
   -4.2540    1.5010    0.3520 C   0  0  0  0  0  0
   -1.5960    2.4280    4.2610 N   0  3  0  0  0  0
   -4.9610    1.2460   -1.8950 O   0  0  0  0  0  0
   -2.9920    2.0360    2.3550 C   0  0  0  0  0  0
   -3.4660    1.0410    2.8880 O   0  0  0  0  0  0
   -2.0390    2.8830    3.0840 C   0  0  0  0  0  0
   -2.1360    4.5090    1.3480 O   0  5  0  0  0  0
   -0.7130    3.1390    4.9650 C   0  0  0  0  0  0
   -0.2720    4.3590    4.4890 C   0  0  0  0  0  0
   -0.7400    4.8560    3.2640 C   0  0  0  0  0  0
   -1.6430    4.0900    2.5440 C   0  0  0  0  0  0
   -4.6457    0.6039    0.8537 H   0  0  0  0  0  0
   -0.3397    2.7575    5.9154 H   0  0  0  0  0  0
    0.4449    4.9393    5.0699 H   0  0  0  0  0  0
   -0.4017    5.8213    2.8873 H   0  0  0  0  0  0
   -1.9595    1.4657    4.6508 H   0  0  0  0  0  0
  1  3  1  0  0  0
  1  4  1  0  0  0
  1  6  2  0  0  0
  2  4  2  0  0  0
  2  7  1  0  0  0
  4 15  1  0  0  0
  5  9  2  0  0  0
  5 11  1  0  0  0
  5 19  1  0  0  0
  7  8  2  0  0  0
  7  9  1  0  0  0
  9 14  1  0  0  0
 10 14  1  0  0  0
 11 12  2  0  0  0
 11 16  1  0  0  0
 12 13  1  0  0  0
 12 17  1  0  0  0
 13 14  2  0  0  0
 13 18  1  0  0  0
M  CHG  3   3  -1   5   1  10  -1
M  END
> <s_m_source_file>
../3t3y_ligand.sdf

> <i_m_source_file_index>
1

> <s_epik_input>
W09IXUMoPU8pXFtDSF09TlxDKD1PKWMxbltjSF1bY0hdW2NIXWMxW09IXQ==

> <s_epik_cmdline>
J2VwaWtfYXBwJywgJy1pbWFlJywgJ2xpZ2FuZF9wcm8ubWFlJywgJy1vbWFlJywgJ2xpZ2FuZF9wcmVwLm1hZScsICctbXMnLCAnMScsICctcGgnLCAnNycsICctcGh0JywgJzAuNScsICctbnQn

> <r_epik_Ionization_Penalty>
  0.2187

> <r_epik_Ionization_Penalty_Charging>
  0.2187

> <r_epik_Ionization_Penalty_Neutral>
  0.0000

> <r_epik_State_Penalty>
  0.3134

> <r_epik_Charging_Adjusted_Penalty>
0.532078526420768

> <i_epik_Tot_Q>
-1

> <i_epik_Tot_abs_Q>
3

> <s_epik_Chemistry_Notes>
This compound has an imine and may undergo hydrolysis.

$$$$
