3t4h_ligand
                    3D
 Schrodinger Suite 2020-3.
 32 32  0  0  1  0            999 V2000
   -4.1580    1.3920   -0.8140 C   0  0  0  0  0  0
   -3.2520    0.3820    1.1900 N   0  0  0  0  0  0
   -4.4760    2.3710   -1.5030 O   0  0  0  0  0  0
   -3.7560    1.6610    0.6620 C   0  0  1  0  0  0
   -2.5490    2.6300    0.6760 C   0  0  0  0  0  0
   -2.8990   -1.2870    2.8840 C   0  0  0  0  0  0
   -3.4690    0.0420    2.4750 C   0  0  0  0  0  0
   -4.0980    0.7110    3.2780 O   0  0  0  0  0  0
   -3.0490   -1.6930    4.0630 O   0  5  0  0  0  0
   -2.3020   -1.9900    2.0410 O   0  0  0  0  0  0
   -1.6770    2.9870    2.2780 S   0  0  0  0  0  0
   -2.7150    4.0820    3.2620 C   0  0  0  0  0  0
   -2.2250    4.2980    4.5690 C   0  0  0  0  0  0
   -1.1060    3.6620    5.1100 C   0  0  0  0  0  0
   -0.7140    3.9290    6.4330 C   0  0  0  0  0  0
   -1.4410    4.8210    7.2370 C   0  0  0  0  0  0
   -2.5620    5.4530    6.6850 C   0  0  0  0  0  0
   -2.9330    5.1740    5.3790 C   0  0  0  0  0  0
   -3.3610    6.3270    7.3040 N   0  3  0  0  0  0
   -3.1520    6.6820    8.5050 O   0  0  0  0  0  0
   -4.4630    6.8510    6.5510 O   0  5  0  0  0  0
   -4.1060    0.2190   -1.2520 O   0  5  0  0  0  0
   -2.6944   -0.3025    0.5338 H   0  0  0  0  0  0
   -4.5985    2.0336    1.2631 H   0  0  0  0  0  0
   -1.7577    2.2395    0.0193 H   0  0  0  0  0  0
   -2.8687    3.6192    0.3166 H   0  0  0  0  0  0
   -2.7832    5.0632    2.7694 H   0  0  0  0  0  0
   -3.7213    3.6477    3.3550 H   0  0  0  0  0  0
   -0.5354    2.9572    4.5052 H   0  0  0  0  0  0
    0.1682    3.4358    6.8411 H   0  0  0  0  0  0
   -1.1401    5.0169    8.2662 H   0  0  0  0  0  0
   -3.8177    5.6631    4.9714 H   0  0  0  0  0  0
  1  3  2  0  0  0
  1  4  1  0  0  0
  1 22  1  0  0  0
  2  4  1  0  0  0
  2  7  1  0  0  0
  2 23  1  0  0  0
  4  5  1  0  0  0
  4 24  1  0  0  0
  5 11  1  0  0  0
  5 25  1  0  0  0
  5 26  1  0  0  0
  6  7  1  0  0  0
  6  9  1  0  0  0
  6 10  2  0  0  0
  7  8  2  0  0  0
 11 12  1  0  0  0
 12 13  1  0  0  0
 12 27  1  0  0  0
 12 28  1  0  0  0
 13 14  2  0  0  0
 13 18  1  0  0  0
 14 15  1  0  0  0
 14 29  1  0  0  0
 15 16  2  0  0  0
 15 30  1  0  0  0
 16 17  1  0  0  0
 16 31  1  0  0  0
 17 18  2  0  0  0
 17 19  1  0  0  0
 18 32  1  0  0  0
 19 20  2  0  0  0
 19 21  1  0  0  0
M  CHG  4   9  -1  19   1  21  -1  22  -1
M  END
> <s_m_source_file>
../3t4h_ligand.sdf

> <i_m_source_file_index>
1

> <s_epik_input>
W09IXUMoPU8pQyg9TylbTkhdW0NASF0oQyg9TylbT0hdKVtDSDJdU1tDSDJdYzFbY0hdW2NIXVtjSF1jKFtjSF0xKVtOK10oPU8pW08tXQ==

> <s_epik_cmdline>
J2VwaWtfYXBwJywgJy1pbWFlJywgJ2xpZ2FuZF9wcm8ubWFlJywgJy1vbWFlJywgJ2xpZ2FuZF9wcmVwLm1hZScsICctbXMnLCAnMScsICctcGgnLCAnNycsICctcGh0JywgJzAuNScsICctbnQn

> <r_lp_tautomer_probability>
1

> <r_epik_Ionization_Penalty>
  0.0003

> <r_epik_Ionization_Penalty_Charging>
  0.0003

> <r_epik_Ionization_Penalty_Neutral>
  0.0000

> <r_epik_State_Penalty>
 -0.0000

> <r_epik_Charging_Adjusted_Penalty>
0.000257862913831421

> <i_epik_Tot_Q>
-2

> <i_epik_Tot_abs_Q>
4

$$$$
