3t4n_ligand
                    3D
 Schrodinger Suite 2020-3.
 39 41  0  0  1  0            999 V2000
  -29.1960   64.4980   -0.4530 P   0  0  0  0  0  0
  -30.3820   65.1050    0.2520 O   0  0  0  0  0  0
  -27.9540   64.3820    0.3990 O   0  5  0  0  0  0
  -29.5270   63.2880   -1.2910 O   0  5  0  0  0  0
  -27.5150   65.4970   -2.5280 P   0  0  2  0  0  0
  -28.0350   65.7100   -3.9250 O   0  5  0  0  0  0
  -26.6860   64.2710   -2.2520 O   0  0  0  0  0  0
  -28.7840   65.6090   -1.5410 O   0  0  0  0  0  0
  -26.6500   66.7880   -2.1040 O   0  0  0  0  0  0
  -26.1000   66.9940   -0.7990 C   0  0  0  0  0  0
  -25.7910   68.4850   -0.6070 C   0  0  1  0  0  0
  -25.2160   69.0370   -1.8000 O   0  0  0  0  0  0
  -27.0240   69.3280   -0.3150 C   0  0  1  0  0  0
  -26.6700   70.3960    0.5710 O   0  0  0  0  0  0
  -27.4140   69.9030   -1.6630 C   0  0  1  0  0  0
  -28.0380   71.1860   -1.5620 O   0  0  0  0  0  0
  -26.0870   70.0000   -2.4020 C   0  0  2  0  0  0
  -26.2120   69.7010   -3.8520 N   0  0  0  0  0  0
  -27.0320   68.8070   -4.4520 C   0  0  0  0  0  0
  -26.8590   68.8150   -5.7970 N   0  0  0  0  0  0
  -25.9090   69.7300   -6.0670 C   0  0  0  0  0  0
  -25.2310   70.2450   -7.2770 C   0  0  0  0  0  0
  -25.5590   69.7650   -8.4970 N   0  0  0  0  0  0
  -24.2830   71.2030   -7.1180 N   0  0  0  0  0  0
  -23.9510   71.6960   -5.9070 C   0  0  0  0  0  0
  -24.5190   71.2710   -4.7630 N   0  0  0  0  0  0
  -25.4830   70.3110   -4.7840 C   0  0  0  0  0  0
  -26.8259   66.6681   -0.0395 H   0  0  0  0  0  0
  -25.1736   66.4101   -0.6951 H   0  0  0  0  0  0
  -25.0637   68.5572    0.2151 H   0  0  0  0  0  0
  -27.8342   68.7865    0.1953 H   0  0  0  0  0  0
  -26.3570   70.1745    1.6020 H   0  0  0  0  0  0
  -28.1988   69.3250   -2.1728 H   0  0  0  0  0  0
  -29.0082   71.2872   -1.0536 H   0  0  0  0  0  0
  -25.6558   71.0087   -2.3211 H   0  0  0  0  0  0
  -27.7378   68.1656   -3.9242 H   0  0  0  0  0  0
  -26.3319   68.9882   -8.5928 H   0  0  0  0  0  0
  -25.0530   70.1511   -9.3942 H   0  0  0  0  0  0
  -23.1887   72.4732   -5.8524 H   0  0  0  0  0  0
  1  2  2  0  0  0
  1  3  1  0  0  0
  1  4  1  0  0  0
  1  8  1  0  0  0
  5  6  1  0  0  0
  5  7  2  0  0  0
  5  8  1  0  0  0
  5  9  1  0  0  0
  9 10  1  0  0  0
 10 11  1  0  0  0
 10 28  1  0  0  0
 10 29  1  0  0  0
 11 12  1  0  0  0
 11 13  1  0  0  0
 11 30  1  0  0  0
 12 17  1  0  0  0
 13 14  1  0  0  0
 13 15  1  0  0  0
 13 31  1  0  0  0
 14 32  1  0  0  0
 15 16  1  0  0  0
 15 17  1  0  0  0
 15 33  1  0  0  0
 16 34  1  0  0  0
 17 18  1  0  0  0
 17 35  1  0  0  0
 18 19  1  0  0  0
 18 27  1  0  0  0
 19 20  2  0  0  0
 19 36  1  0  0  0
 20 21  1  0  0  0
 21 22  2  0  0  0
 21 27  1  0  0  0
 22 23  1  0  0  0
 22 24  1  0  0  0
 23 37  1  0  0  0
 23 38  1  0  0  0
 24 25  2  0  0  0
 25 26  1  0  0  0
 25 39  1  0  0  0
 26 27  2  0  0  0
M  CHG  3   3  -1   4  -1   6  -1
M  END
> <s_m_source_file>
../3t4n_ligand.sdf

> <i_m_source_file_index>
1

> <s_epik_input>
Tz1QKFtPSF0pKFtPSF0pT1tQQEBdKD1PKShbT0hdKU9bQ0gyXVtDQEhdMU9bQ0BIXShbQ0BIXShbT0hdKVtDQEBIXTFbT0hdKW4oW2NIXW4yKWMoYzIzKW5bY0hdbmMzW05IMl0=

> <s_epik_cmdline>
J2VwaWtfYXBwJywgJy1pbWFlJywgJ2xpZ2FuZF9wcm8ubWFlJywgJy1vbWFlJywgJ2xpZ2FuZF9wcmVwLm1hZScsICctbXMnLCAnMScsICctcGgnLCAnNycsICctcGh0JywgJzAuNScsICctbnQn

> <r_lp_tautomer_probability>
0.999997216410988

> <r_epik_Ionization_Penalty>
  0.1037

> <r_epik_Ionization_Penalty_Charging>
  0.1033

> <r_epik_Ionization_Penalty_Neutral>
  0.0004

> <r_epik_State_Penalty>
  0.0922

> <r_epik_Charging_Adjusted_Penalty>
0.19546844050481

> <i_epik_Tot_Q>
-3

> <i_epik_Tot_abs_Q>
3

> <s_epik_Chemistry_Notes>
This compound contains an acetal/aminal-like group ( X-CH(R)-Y where X, Y are N, S, or O) that may be acid/base labile, releasing an aldehyde.

$$$$
