3t4p_ligand
                    3D
 Schrodinger Suite 2020-3.
 69 70  0  0  1  0            999 V2000
  -20.2060   -0.2040   13.0130 N   0  3  0  0  0  0
  -20.6690   -0.0310   11.5950 C   0  0  2  0  0  0
  -19.6890    0.9030   10.8080 C   0  0  0  0  0  0
  -18.4360    0.8270   10.9610 O   0  0  0  0  0  0
  -22.1190    0.5660   11.5530 C   0  0  0  0  0  0
  -22.9120    0.1590   10.2830 C   0  0  0  0  0  0
  -22.3780    0.1710    9.1500 O   0  5  0  0  0  0
  -24.0920   -0.1970   10.4150 O   0  0  0  0  0  0
  -20.2680    1.7820    9.9710 N   0  0  0  0  0  0
  -19.7180    1.8400    8.6190 C   0  0  2  0  0  0
  -18.5530    2.7490    8.4690 C   0  0  0  0  0  0
  -18.3730    3.7290    9.2360 O   0  0  0  0  0  0
  -20.7520    1.9940    7.5130 C   0  0  0  0  0  0
  -21.5630    3.1130    7.7690 C   0  0  0  0  0  0
  -22.6790    3.1800    8.6210 C   0  0  0  0  0  0
  -21.3330    4.4180    7.2910 C   0  0  0  0  0  0
  -23.1570    4.4610    8.6360 N   0  3  0  0  0  0
  -22.3540    5.2440    7.8330 C   0  0  0  0  0  0
  -20.3870    4.9770    6.4190 C   0  0  0  0  0  0
  -22.4350    6.5980    7.5510 C   0  0  0  0  0  0
  -20.4700    6.3090    6.1440 C   0  0  0  0  0  0
  -21.4950    7.1120    6.6900 C   0  0  0  0  0  0
  -17.7020    2.3240    7.5440 N   0  0  0  0  0  0
  -16.4540    2.9560    7.3910 C   0  0  2  0  0  0
  -16.2440    3.0210    5.8820 C   0  0  0  0  0  0
  -15.9120    1.9950    5.2580 O   0  0  0  0  0  0
  -15.3660    2.1130    8.0410 C   0  0  0  0  0  0
  -14.1560    2.8130    7.9080 O   0  0  0  0  0  0
  -16.5130    4.1920    5.3140 N   0  0  0  0  0  0
  -16.5600    4.2950    3.8020 C   0  0  2  0  0  0
  -15.8560    5.6430    3.3970 C   0  0  0  0  0  0
  -16.3460    6.7480    3.8180 O   0  0  0  0  0  0
  -18.0570    4.2330    3.2670 C   0  0  2  0  0  0
  -18.6850    2.8400    3.5400 C   0  0  0  0  0  0
  -18.0840    4.5690    1.6980 C   0  0  0  0  0  0
  -20.2490    2.7180    3.1590 C   0  0  0  0  0  0
  -14.8440    5.5730    2.6160 O   0  5  0  0  0  0
  -19.1890   -0.6230   13.0181 H   0  0  0  0  0  0
  -20.8871   -0.8882   13.5402 H   0  0  0  0  0  0
  -20.2028    0.7725   13.5194 H   0  0  0  0  0  0
  -20.6638   -1.0402   11.1573 H   0  0  0  0  0  0
  -22.6866    0.2121   12.4263 H   0  0  0  0  0  0
  -22.0640    1.6645   11.5720 H   0  0  0  0  0  0
  -21.1075    2.4350   10.2517 H   0  0  0  0  0  0
  -19.2963    0.8286    8.5224 H   0  0  0  0  0  0
  -20.2401    2.1298    6.5489 H   0  0  0  0  0  0
  -21.3806    1.0923    7.4706 H   0  0  0  0  0  0
  -23.0264    2.2770    9.1444 H   0  0  0  0  0  0
  -19.6057    4.3617    5.9729 H   0  0  0  0  0  0
  -23.2086    7.2268    7.9917 H   0  0  0  0  0  0
  -19.7285    6.7648    5.4878 H   0  0  0  0  0  0
  -21.5421    8.1674    6.4216 H   0  0  0  0  0  0
  -17.9726    1.4770    6.8965 H   0  0  0  0  0  0
  -16.4889    3.9391    7.8832 H   0  0  0  0  0  0
  -15.6069    1.9590    9.1032 H   0  0  0  0  0  0
  -15.3049    1.1388    7.5339 H   0  0  0  0  0  0
  -13.2260    2.3852    8.3106 H   0  0  0  0  0  0
  -16.7008    5.0824    5.9320 H   0  0  0  0  0  0
  -16.0169    3.4338    3.3856 H   0  0  0  0  0  0
  -18.6706    4.9582    3.8216 H   0  0  0  0  0  0
  -18.1543    2.0769    2.9517 H   0  0  0  0  0  0
  -18.5994    2.6027    4.6107 H   0  0  0  0  0  0
  -17.6351    5.5586    1.5272 H   0  0  0  0  0  0
  -19.1246    4.5719    1.3415 H   0  0  0  0  0  0
  -17.5108    3.8068    1.1499 H   0  0  0  0  0  0
  -20.6035    1.7017    3.3860 H   0  0  0  0  0  0
  -20.3820    2.9217    2.0862 H   0  0  0  0  0  0
  -20.8271    3.4475    3.7452 H   0  0  0  0  0  0
  -24.0482    4.7085    9.2313 H   0  0  0  0  0  0
  1  2  1  0  0  0
  1 38  1  0  0  0
  1 39  1  0  0  0
  1 40  1  0  0  0
  2  3  1  0  0  0
  2  5  1  0  0  0
  2 41  1  0  0  0
  3  4  2  0  0  0
  3  9  1  0  0  0
  5  6  1  0  0  0
  5 42  1  0  0  0
  5 43  1  0  0  0
  6  7  1  0  0  0
  6  8  2  0  0  0
  9 10  1  0  0  0
  9 44  1  0  0  0
 10 11  1  0  0  0
 10 13  1  0  0  0
 10 45  1  0  0  0
 11 12  2  0  0  0
 11 23  1  0  0  0
 13 14  1  0  0  0
 13 46  1  0  0  0
 13 47  1  0  0  0
 14 15  2  0  0  0
 14 16  1  0  0  0
 15 17  1  0  0  0
 15 48  1  0  0  0
 16 18  2  0  0  0
 16 19  1  0  0  0
 17 18  1  0  0  0
 17 69  1  0  0  0
 18 20  1  0  0  0
 19 21  2  0  0  0
 19 49  1  0  0  0
 20 22  2  0  0  0
 20 50  1  0  0  0
 21 22  1  0  0  0
 21 51  1  0  0  0
 22 52  1  0  0  0
 23 24  1  0  0  0
 23 53  1  0  0  0
 24 25  1  0  0  0
 24 27  1  0  0  0
 24 54  1  0  0  0
 25 26  2  0  0  0
 25 29  1  0  0  0
 27 28  1  0  0  0
 27 55  1  0  0  0
 27 56  1  0  0  0
 28 57  1  0  0  0
 29 30  1  0  0  0
 29 58  1  0  0  0
 30 31  1  0  0  0
 30 33  1  0  0  0
 30 59  1  0  0  0
 31 32  2  0  0  0
 31 37  1  0  0  0
 33 34  1  0  0  0
 33 35  1  0  0  0
 33 60  1  0  0  0
 34 36  1  0  0  0
 34 61  1  0  0  0
 34 62  1  0  0  0
 35 63  1  0  0  0
 35 64  1  0  0  0
 35 65  1  0  0  0
 36 66  1  0  0  0
 36 67  1  0  0  0
 36 68  1  0  0  0
M  CHG  4   1   1   7  -1  17   1  37  -1
M  END
> <s_m_source_file>
../3t4p_ligand.sdf

> <i_m_source_file_index>
1

> <s_epik_input>
W0NIM11bQ0gyXVtDQEhdKFtDSDNdKVtDQEBIXShDKD1PKVtPSF0pW05IXUMoPU8pW0NASF0oW0NIMl1bT0hdKVtOSF1DKD1PKVtDQEBIXShbTkhdQyg9TylbQ0BASF0oW05IMytdKVtDSDJdQyg9TylbT0hdKVtDSDJdYzFbY0hdW25IXWMoYzEyKVtjSF1bY0hdW2NIXVtjSF0y

> <s_epik_cmdline>
J2VwaWtfYXBwJywgJy1pbWFlJywgJ2xpZ2FuZF9wcm8ubWFlJywgJy1vbWFlJywgJ2xpZ2FuZF9wcmVwLm1hZScsICctbXMnLCAnMScsICctcGgnLCAnNycsICctcGh0JywgJzAuNScsICctbnQn

> <r_epik_Ionization_Penalty>
  0.0211

> <r_epik_Ionization_Penalty_Charging>
  0.0211

> <r_epik_Ionization_Penalty_Neutral>
  0.0000

> <r_epik_State_Penalty>
  0.0167

> <r_epik_Charging_Adjusted_Penalty>
0.0378664336045158

> <i_epik_Tot_Q>
0

> <i_epik_Tot_abs_Q>
4

$$$$
