3t4v_ligand
                    3D
 Schrodinger Suite 2020-3.
 36 37  0  0  1  0            999 V2000
   -1.7340    5.2050    6.3600 C   0  0  0  0  0  0
   -3.3650    0.5850    1.0330 N   0  0  0  0  0  0
   -1.5000   -1.2090    1.8320 O   0  0  0  0  0  0
   -3.0860    3.9080    0.1400 S   0  0  0  0  0  0
   -2.1510   -0.6860    2.7790 C   0  0  0  0  0  0
   -4.1270    0.0620   -1.4300 O   0  0  0  0  0  0
   -3.2460    0.2300    2.4010 C   0  0  0  0  0  0
   -4.7060    2.1220   -1.7700 O   0  5  0  0  0  0
   -4.3950    1.4060    0.4960 C   0  0  2  0  0  0
   -4.0120    0.6340    3.2280 O   0  0  0  0  0  0
   -4.4070    1.1960   -0.9840 C   0  0  0  0  0  0
   -1.9180   -0.9550    3.9970 O   0  5  0  0  0  0
   -4.3410    2.8650    0.8490 C   0  0  0  0  0  0
   -2.6680    4.9440    1.5220 C   0  0  0  0  0  0
   -2.0630    4.3640    2.7620 C   0  0  0  0  0  0
   -1.3280    3.1830    2.7080 C   0  0  0  0  0  0
   -0.7400    2.6940    3.8680 C   0  0  0  0  0  0
   -0.8740    3.3530    5.0910 C   0  0  0  0  0  0
   -2.1910    5.0380    3.9700 C   0  0  0  0  0  0
   -1.5940    4.5390    5.1390 C   0  0  0  0  0  0
   -0.2890    2.8320    6.2630 C   0  0  0  0  0  0
   -0.4140    3.5120    7.4730 C   0  0  0  0  0  0
   -1.1550    4.7010    7.5180 C   0  0  0  0  0  0
   -2.3052    6.1323    6.4042 H   0  0  0  0  0  0
   -2.5862    0.1768    0.3720 H   0  0  0  0  0  0
   -5.3046    1.0428    0.9966 H   0  0  0  0  0  0
   -4.2452    2.8692    1.9448 H   0  0  0  0  0  0
   -5.3346    3.2430    0.5664 H   0  0  0  0  0  0
   -1.9321    5.6979    1.2057 H   0  0  0  0  0  0
   -3.5740    5.4478    1.8899 H   0  0  0  0  0  0
   -1.2150    2.6474    1.7654 H   0  0  0  0  0  0
   -0.1595    1.7726    3.8217 H   0  0  0  0  0  0
   -2.7619    5.9656    4.0109 H   0  0  0  0  0  0
    0.2635    1.8933    6.2226 H   0  0  0  0  0  0
    0.0594    3.1235    8.3747 H   0  0  0  0  0  0
   -1.2771    5.2308    8.4627 H   0  0  0  0  0  0
  1 20  2  0  0  0
  1 23  1  0  0  0
  1 24  1  0  0  0
  2  7  1  0  0  0
  2  9  1  0  0  0
  2 25  1  0  0  0
  3  5  2  0  0  0
  4 13  1  0  0  0
  4 14  1  0  0  0
  5  7  1  0  0  0
  5 12  1  0  0  0
  6 11  2  0  0  0
  7 10  2  0  0  0
  8 11  1  0  0  0
  9 11  1  0  0  0
  9 13  1  0  0  0
  9 26  1  0  0  0
 13 27  1  0  0  0
 13 28  1  0  0  0
 14 15  1  0  0  0
 14 29  1  0  0  0
 14 30  1  0  0  0
 15 16  1  0  0  0
 15 19  2  0  0  0
 16 17  2  0  0  0
 16 31  1  0  0  0
 17 18  1  0  0  0
 17 32  1  0  0  0
 18 20  1  0  0  0
 18 21  2  0  0  0
 19 20  1  0  0  0
 19 33  1  0  0  0
 21 22  1  0  0  0
 21 34  1  0  0  0
 22 23  2  0  0  0
 22 35  1  0  0  0
 23 36  1  0  0  0
M  CHG  2   8  -1  12  -1
M  END
> <s_m_source_file>
../3t4v_ligand.sdf

> <i_m_source_file_index>
1

> <s_epik_input>
W2NIXTFbY0hdW2NIXVtjSF1jKGMxMilbY0hdYyhbY0hdW2NIXTIpW0NIMl1TW0NIMl1bQ0BASF0oQyg9TylbT0hdKVtOSF1DKD1PKUMoPU8pW09IXQ==

> <s_epik_cmdline>
J2VwaWtfYXBwJywgJy1pbWFlJywgJ2xpZ2FuZF9wcm8ubWFlJywgJy1vbWFlJywgJ2xpZ2FuZF9wcmVwLm1hZScsICctbXMnLCAnMScsICctcGgnLCAnNycsICctcGh0JywgJzAuNScsICctbnQn

> <r_lp_tautomer_probability>
1

> <r_epik_Ionization_Penalty>
  0.0003

> <r_epik_Ionization_Penalty_Charging>
  0.0003

> <r_epik_Ionization_Penalty_Neutral>
  0.0000

> <r_epik_State_Penalty>
 -0.0000

> <r_epik_Charging_Adjusted_Penalty>
0.000257862913831421

> <i_epik_Tot_Q>
-2

> <i_epik_Tot_abs_Q>
2

$$$$
