3t5i_ligand
                    3D
 Schrodinger Suite 2020-3.
 40 39  0  0  1  0            999 V2000
   34.1860   -9.5890   13.3900 N   0  3  0  0  0  0
   32.8120   -9.8620   13.7930 C   0  0  2  0  0  0
   32.7480  -11.0160   14.7880 C   0  0  0  0  0  0
   31.7930  -11.1340   15.5560 O   0  0  0  0  0  0
   31.9460  -10.1730   12.5710 C   0  0  0  0  0  0
   32.7380  -10.6290   11.4880 O   0  0  0  0  0  0
   33.7710  -11.8650   14.7690 N   0  0  0  0  0  0
   33.8330  -13.0100   15.6690 C   0  0  2  0  0  0
   34.4540  -12.6260   17.0070 C   0  0  0  0  0  0
   34.3810  -13.3820   17.9760 O   0  0  0  0  0  0
   34.6260  -14.1510   15.0290 C   0  0  0  0  0  0
   35.9710  -14.1510   15.4750 O   0  0  0  0  0  0
   35.0190  -11.4650   17.0660 N   0  0  0  0  0  0
   35.6810  -10.9550   18.2760 C   0  0  2  0  0  0
   35.1930   -9.5330   18.5640 C   0  0  0  0  0  0
   35.1170   -8.6960   17.6660 O   0  0  0  0  0  0
   37.2010  -10.9480   18.1080 C   0  0  0  0  0  0
   38.0660  -10.0630   19.4570 S   0  0  0  0  0  0
   34.8610   -9.2910   19.8600 O   0  0  0  0  0  0
   34.0660   -8.1040   19.9350 C   0  0  0  0  0  0
   34.7923   -9.3679   14.2808 H   0  0  0  0  0  0
   34.2038   -8.7242   12.7104 H   0  0  0  0  0  0
   34.5986  -10.4689   12.8747 H   0  0  0  0  0  0
   32.4679   -8.9383   14.2812 H   0  0  0  0  0  0
   31.2169  -10.9555   12.8279 H   0  0  0  0  0  0
   31.4126   -9.2632   12.2585 H   0  0  0  0  0  0
   32.2623  -10.8954   10.5326 H   0  0  0  0  0  0
   34.5841  -11.6858   14.0501 H   0  0  0  0  0  0
   32.7864  -13.3104   15.8254 H   0  0  0  0  0  0
   34.1662  -15.1133   15.2985 H   0  0  0  0  0  0
   34.6183  -14.0345   13.9352 H   0  0  0  0  0  0
   36.6731  -14.9127   15.1050 H   0  0  0  0  0  0
   34.9890  -10.8497   16.1547 H   0  0  0  0  0  0
   35.4047  -11.6413   19.0900 H   0  0  0  0  0  0
   37.5732  -11.9830   18.0951 H   0  0  0  0  0  0
   37.4630  -10.4523   17.1616 H   0  0  0  0  0  0
   39.1634   -9.9880   19.4505 H   0  0  0  0  0  0
   33.7974   -7.9083   20.9836 H   0  0  0  0  0  0
   33.1501   -8.2380   19.3407 H   0  0  0  0  0  0
   34.6393   -7.2531   19.5383 H   0  0  0  0  0  0
  1  2  1  0  0  0
  1 21  1  0  0  0
  1 22  1  0  0  0
  1 23  1  0  0  0
  2  3  1  0  0  0
  2  5  1  0  0  0
  2 24  1  0  0  0
  3  4  2  0  0  0
  3  7  1  0  0  0
  5  6  1  0  0  0
  5 25  1  0  0  0
  5 26  1  0  0  0
  6 27  1  0  0  0
  7  8  1  0  0  0
  7 28  1  0  0  0
  8  9  1  0  0  0
  8 11  1  0  0  0
  8 29  1  0  0  0
  9 10  2  0  0  0
  9 13  1  0  0  0
 11 12  1  0  0  0
 11 30  1  0  0  0
 11 31  1  0  0  0
 12 32  1  0  0  0
 13 14  1  0  0  0
 13 33  1  0  0  0
 14 15  1  0  0  0
 14 17  1  0  0  0
 14 34  1  0  0  0
 15 16  2  0  0  0
 15 19  1  0  0  0
 17 18  1  0  0  0
 17 35  1  0  0  0
 17 36  1  0  0  0
 18 37  1  0  0  0
 19 20  1  0  0  0
 20 38  1  0  0  0
 20 39  1  0  0  0
 20 40  1  0  0  0
M  CHG  1   1   1
M  END
> <s_m_source_file>
../3t5i_ligand.sdf

> <i_m_source_file_index>
1

> <s_epik_input>
W09IXVtDSDJdW0NASF0oW05IMytdKUMoPU8pW05IXVtDQEBIXShbQ0gyXVtPSF0pQyg9TylbTkhdW0NAQEhdKFtDSDJdW1NIXSlDKD1PKU9bQ0gzXQ==

> <s_epik_cmdline>
J2VwaWtfYXBwJywgJy1pbWFlJywgJ2xpZ2FuZF9wcm8ubWFlJywgJy1vbWFlJywgJ2xpZ2FuZF9wcmVwLm1hZScsICctbXMnLCAnMScsICctcGgnLCAnNycsICctcGh0JywgJzAuNScsICctbnQn

> <r_lp_tautomer_probability>
1

> <r_epik_Ionization_Penalty>
  0.1859

> <r_epik_Ionization_Penalty_Charging>
  0.1656

> <r_epik_Ionization_Penalty_Neutral>
  0.0203

> <r_epik_State_Penalty>
 -0.0000

> <r_epik_Charging_Adjusted_Penalty>
0.165612241991682

> <i_epik_Tot_Q>
1

> <i_epik_Tot_abs_Q>
1

> <s_epik_Chemistry_Notes>
This compound has an ester and may undergo hydrolysis at high or low pH.

$$$$
