3t5u_ligand
                    3D
 Schrodinger Suite 2020-3.
 18 18  0  0  1  0            999 V2000
   -5.7290    2.5010   16.0620 C   0  0  0  0  0  0
   -5.3440   -0.2420   15.9170 N   0  0  3  0  0  0
   -7.4220    0.7610   16.8340 O   0  0  0  0  0  0
   -5.9960    0.9500   16.8370 S   0  0  0  0  0  0
   -6.1530    3.6760   16.7270 C   0  0  0  0  0  0
   -5.3020    0.9690   18.0930 O   0  0  0  0  0  0
   -5.9430    4.9200   16.1000 C   0  0  0  0  0  0
   -3.9270   -0.2150   15.9740 O   0  0  0  0  0  0
   -5.3300    4.9880   14.8430 C   0  0  0  0  0  0
   -4.9160    3.8230   14.1940 C   0  0  0  0  0  0
   -5.1080    2.5600   14.7900 C   0  0  0  0  0  0
   -5.8867   -0.9144   15.3750 H   0  0  0  0  0  0
   -6.6323    3.6197   17.7044 H   0  0  0  0  0  0
   -6.2602    5.8366   16.5973 H   0  0  0  0  0  0
   -3.3396   -0.9535   15.4086 H   0  0  0  0  0  0
   -5.1749    5.9567   14.3679 H   0  0  0  0  0  0
   -4.4393    3.8909   13.2161 H   0  0  0  0  0  0
   -4.7861    1.6499   14.2839 H   0  0  0  0  0  0
  1  4  1  0  0  0
  1  5  2  0  0  0
  1 11  1  0  0  0
  2  4  1  0  0  0
  2  8  1  0  0  0
  2 12  1  0  0  0
  3  4  2  0  0  0
  4  6  2  0  0  0
  5  7  1  0  0  0
  5 13  1  0  0  0
  7  9  2  0  0  0
  7 14  1  0  0  0
  8 15  1  0  0  0
  9 10  1  0  0  0
  9 16  1  0  0  0
 10 11  2  0  0  0
 10 17  1  0  0  0
 11 18  1  0  0  0
M  END
> <s_m_source_file>
../3t5u_ligand.sdf

> <i_m_source_file_index>
1

> <s_epik_input>
W09IXVtOSF1TKD1PKSg9TyljMVtjSF1bY0hdW2NIXVtjSF1bY0hdMQ==

> <s_epik_cmdline>
J2VwaWtfYXBwJywgJy1pbWFlJywgJ2xpZ2FuZF9wcm8ubWFlJywgJy1vbWFlJywgJ2xpZ2FuZF9wcmVwLm1hZScsICctbXMnLCAnMScsICctcGgnLCAnNycsICctcGh0JywgJzAuNScsICctbnQn

> <r_lp_tautomer_probability>
1

> <r_epik_Ionization_Penalty>
  0.0039

> <r_epik_Ionization_Penalty_Charging>
  0.0000

> <r_epik_Ionization_Penalty_Neutral>
  0.0039

> <r_epik_State_Penalty>
 -0.0000

> <r_epik_Charging_Adjusted_Penalty>
0

> <i_epik_Tot_Q>
0

> <i_epik_Tot_abs_Q>
0

> <s_epik_Chemistry_Notes>
This compound has a N-S or N-O group and may undergo hydrolysis at high or low pH.

$$$$
