3t60_ligand
                    3D
 Schrodinger Suite 2020-3.
 62 66  0  0  1  0            999 V2000
   -5.6520   25.7220   -1.0160 N   0  0  0  0  0  0
   -9.0410   28.3750    0.5650 O   0  0  0  0  0  0
   -5.1560   24.5720   -1.6280 C   0  0  0  0  0  0
   -9.2460   26.9770   -3.9140 N   0  0  1  0  0  0
   -5.8610   23.5750   -1.6300 O   0  0  0  0  0  0
   -3.9330   24.5570   -2.1750 N   0  0  0  0  0  0
   -3.1820   25.6630   -2.1410 C   0  0  0  0  0  0
   -2.0680   25.6520   -2.6660 O   0  0  0  0  0  0
   -3.6510   26.8560   -1.5580 C   0  0  0  0  0  0
   -4.9260   26.8740   -0.9960 C   0  0  0  0  0  0
   -6.9960   25.7970   -0.5180 C   0  0  1  0  0  0
   -8.7140   27.4210   -5.1760 C   0  0  0  0  0  0
   -9.5340   26.4380   -6.0870 C   0  0  0  0  0  0
  -10.8330   26.0010   -5.7150 C   0  0  0  0  0  0
   -7.4030   26.5020    0.7230 C   0  0  0  0  0  0
  -11.6090   25.1370   -6.5420 C   0  0  0  0  0  0
  -11.1410   24.6460   -7.7600 C   0  0  0  0  0  0
   -9.8590   25.0720   -8.1510 C   0  0  0  0  0  0
   -9.1120   25.9460   -7.3370 C   0  0  0  0  0  0
   -7.2600   27.2370   -5.3730 C   0  0  0  0  0  0
   -6.2920   28.2180   -5.6750 C   0  0  0  0  0  0
   -4.9290   27.9200   -5.6980 C   0  0  0  0  0  0
   -4.5070   26.6340   -5.4300 C   0  0  0  0  0  0
   -5.4380   25.6500   -5.1130 C   0  0  0  0  0  0
   -6.7980   25.9400   -5.0600 C   0  0  0  0  0  0
   -8.1150   27.5720   -0.1510 C   0  0  1  0  0  0
   -9.1990   28.7660   -5.7100 C   0  0  0  0  0  0
   -9.3860   29.8140   -4.8000 C   0  0  0  0  0  0
   -9.8450   31.0780   -5.1940 C   0  0  0  0  0  0
  -10.1150   31.3640   -6.5390 C   0  0  0  0  0  0
   -9.9170   30.3790   -7.4980 C   0  0  0  0  0  0
   -9.4340   29.1210   -7.0620 C   0  0  0  0  0  0
   -8.8120   26.8910   -1.3450 C   0  0  2  0  0  0
   -8.0780   25.6840   -1.4460 O   0  0  0  0  0  0
   -8.7670   27.6680   -2.6810 C   0  0  0  0  0  0
   -8.7117   28.9362    1.4519 H   0  0  0  0  0  0
  -10.3386   27.1040   -3.9117 H   0  0  0  0  0  0
   -3.5532   23.6393   -2.6477 H   0  0  0  0  0  0
   -3.0274   27.7499   -1.5465 H   0  0  0  0  0  0
   -5.3306   27.7841   -0.5531 H   0  0  0  0  0  0
   -6.7152   24.7956   -0.1597 H   0  0  0  0  0  0
  -11.2505   26.3372   -4.7659 H   0  0  0  0  0  0
   -8.0205   25.8322    1.3395 H   0  0  0  0  0  0
   -6.5065   26.7974    1.2878 H   0  0  0  0  0  0
  -12.6063   24.8493   -6.2093 H   0  0  0  0  0  0
  -11.7353   23.9699   -8.3747 H   0  0  0  0  0  0
   -9.4389   24.7222   -9.0940 H   0  0  0  0  0  0
   -8.1355   26.2648   -7.7016 H   0  0  0  0  0  0
   -6.6172   29.2346   -5.8960 H   0  0  0  0  0  0
   -4.2016   28.6990   -5.9265 H   0  0  0  0  0  0
   -3.4455   26.3893   -5.4666 H   0  0  0  0  0  0
   -5.0969   24.6363   -4.9029 H   0  0  0  0  0  0
   -7.5086   25.1637   -4.7761 H   0  0  0  0  0  0
   -7.3852   28.3314   -0.4682 H   0  0  0  0  0  0
   -9.1664   29.6401   -3.7466 H   0  0  0  0  0  0
   -9.9946   31.8521   -4.4413 H   0  0  0  0  0  0
  -10.4770   32.3501   -6.8298 H   0  0  0  0  0  0
  -10.1263   30.5678   -8.5509 H   0  0  0  0  0  0
   -9.2274   28.3691   -7.8236 H   0  0  0  0  0  0
   -9.8824   26.7090   -1.1688 H   0  0  0  0  0  0
   -7.7126   27.9548   -2.8076 H   0  0  0  0  0  0
   -9.3736   28.5689   -2.5064 H   0  0  0  0  0  0
  1  3  1  0  0  0
  1 10  1  0  0  0
  1 11  1  0  0  0
  2 26  1  0  0  0
  2 36  1  0  0  0
  3  5  2  0  0  0
  3  6  1  0  0  0
  4 12  1  0  0  0
  4 35  1  0  0  0
  4 37  1  0  0  0
  6  7  1  0  0  0
  6 38  1  0  0  0
  7  8  2  0  0  0
  7  9  1  0  0  0
  9 10  2  0  0  0
  9 39  1  0  0  0
 10 40  1  0  0  0
 11 15  1  0  0  0
 11 34  1  0  0  0
 11 41  1  0  0  0
 12 13  1  0  0  0
 12 20  1  0  0  0
 12 27  1  0  0  0
 13 14  2  0  0  0
 13 19  1  0  0  0
 14 16  1  0  0  0
 14 42  1  0  0  0
 15 26  1  0  0  0
 15 43  1  0  0  0
 15 44  1  0  0  0
 16 17  2  0  0  0
 16 45  1  0  0  0
 17 18  1  0  0  0
 17 46  1  0  0  0
 18 19  2  0  0  0
 18 47  1  0  0  0
 19 48  1  0  0  0
 20 21  2  0  0  0
 20 25  1  0  0  0
 21 22  1  0  0  0
 21 49  1  0  0  0
 22 23  2  0  0  0
 22 50  1  0  0  0
 23 24  1  0  0  0
 23 51  1  0  0  0
 24 25  2  0  0  0
 24 52  1  0  0  0
 25 53  1  0  0  0
 26 33  1  0  0  0
 26 54  1  0  0  0
 27 28  2  0  0  0
 27 32  1  0  0  0
 28 29  1  0  0  0
 28 55  1  0  0  0
 29 30  2  0  0  0
 29 56  1  0  0  0
 30 31  1  0  0  0
 30 57  1  0  0  0
 31 32  2  0  0  0
 31 58  1  0  0  0
 32 59  1  0  0  0
 33 34  1  0  0  0
 33 35  1  0  0  0
 33 60  1  0  0  0
 35 61  1  0  0  0
 35 62  1  0  0  0
M  END
> <s_m_source_file>
../3t60_ligand.sdf

> <i_m_source_file_index>
1

> <s_epik_input>
W2NIXTFbY0hdYyg9TylbbkhdYyg9TyluMVtDQEhdMltDSDJdW0NASF0oW09IXSlbQ0BIXShPMilbQ0gyXVtOSDIrXUMoYzNbY0hdW2NIXVtjSF1bY0hdW2NIXTMpKGM0W2NIXVtjSF1bY0hdW2NIXVtjSF00KWM1W2NIXVtjSF1bY0hdW2NIXVtjSF01

> <s_epik_cmdline>
J2VwaWtfYXBwJywgJy1pbWFlJywgJ2xpZ2FuZF9wcm8ubWFlJywgJy1vbWFlJywgJ2xpZ2FuZF9wcmVwLm1hZScsICctbXMnLCAnMScsICctcGgnLCAnNycsICctcGh0JywgJzAuNScsICctbnQn

> <r_lp_tautomer_probability>
0.999537046341301

> <r_epik_Ionization_Penalty>
  0.1958

> <r_epik_Ionization_Penalty_Charging>
  0.0020

> <r_epik_Ionization_Penalty_Neutral>
  0.1938

> <r_epik_State_Penalty>
  0.1835

> <r_epik_Charging_Adjusted_Penalty>
0.185554141384972

> <i_epik_Tot_Q>
0

> <i_epik_Tot_abs_Q>
0

> <s_epik_Chemistry_Notes>
This compound contains an acetal/aminal-like group ( X-CH(R)-Y where X, Y are N, S, or O) that may be acid/base labile, releasing an aldehyde.

$$$$
