3t64_ligand
                    3D
 Schrodinger Suite 2020-3.
 53 56  0  0  1  0            999 V2000
   -5.9640   25.7710   -0.8820 N   0  0  0  0  0  0
   -5.4540   24.6600   -1.5370 C   0  0  0  0  0  0
   -6.1020   23.6150   -1.6120 O   0  0  0  0  0  0
   -4.1800   24.7290   -2.1160 N   0  0  0  0  0  0
   -3.4520   25.9080   -2.0460 C   0  0  0  0  0  0
   -2.3450   25.9210   -2.5750 O   0  0  0  0  0  0
   -3.9510   27.0320   -1.3800 C   0  0  0  0  0  0
   -5.2280   26.9610   -0.7950 C   0  0  0  0  0  0
   -7.3370   25.6430   -0.3210 C   0  0  1  0  0  0
   -8.9150   27.3350   -5.2680 C   0  0  0  0  0  0
   -9.4370   26.5790   -6.5100 C   0  0  0  0  0  0
   -9.4420   27.2280   -7.7440 C   0  0  0  0  0  0
   -7.7150   26.8020    0.5760 C   0  0  0  0  0  0
   -9.8990   26.5880   -8.8910 C   0  0  0  0  0  0
  -10.3380   25.2760   -8.8070 C   0  0  0  0  0  0
  -10.3250   24.6220   -7.5830 C   0  0  0  0  0  0
   -9.8740   25.2660   -6.4370 C   0  0  0  0  0  0
   -7.4060   27.1260   -5.2960 C   0  0  0  0  0  0
   -6.5960   28.1430   -5.8020 C   0  0  0  0  0  0
   -5.2150   27.9510   -5.8340 C   0  0  0  0  0  0
   -4.6520   26.7590   -5.3860 C   0  0  0  0  0  0
   -5.4650   25.7480   -4.9060 C   0  0  0  0  0  0
   -6.8420   25.9210   -4.8550 C   0  0  0  0  0  0
   -8.4930   27.7450   -0.3210 C   0  0  2  0  0  0
   -9.5870   28.2850    0.4360 O   0  0  0  0  0  0
   -9.0440   26.9030   -1.4640 C   0  0  2  0  0  0
   -8.1510   25.7350   -1.5210 O   0  0  0  0  0  0
   -9.1460   27.7540   -2.8030 C   0  0  0  0  0  0
   -9.5240   26.8980   -3.9780 N   0  3  0  0  0  0
   -3.7588   23.8494   -2.6249 H   0  0  0  0  0  0
   -3.3610   27.9463   -1.3155 H   0  0  0  0  0  0
   -5.6429   27.8258   -0.2772 H   0  0  0  0  0  0
   -7.4586   24.7166    0.2595 H   0  0  0  0  0  0
   -9.2013   28.3970   -5.2831 H   0  0  0  0  0  0
   -9.0816   28.2545   -7.8109 H   0  0  0  0  0  0
   -8.3284   26.4340    1.4117 H   0  0  0  0  0  0
   -6.8026   27.2731    0.9705 H   0  0  0  0  0  0
   -9.9118   27.1128   -9.8463 H   0  0  0  0  0  0
  -10.6922   24.7597   -9.6992 H   0  0  0  0  0  0
  -10.6727   23.5909   -7.5197 H   0  0  0  0  0  0
   -9.8640   24.7394   -5.4827 H   0  0  0  0  0  0
   -7.0350   29.0718   -6.1661 H   0  0  0  0  0  0
   -4.5694   28.7428   -6.2139 H   0  0  0  0  0  0
   -3.5709   26.6225   -5.4135 H   0  0  0  0  0  0
   -5.0229   24.8114   -4.5663 H   0  0  0  0  0  0
   -7.4807   25.1241   -4.4741 H   0  0  0  0  0  0
   -7.8973   28.6005   -0.6721 H   0  0  0  0  0  0
   -9.3892   28.9250    1.3085 H   0  0  0  0  0  0
  -10.0530   26.5083   -1.2738 H   0  0  0  0  0  0
   -9.9111   28.5352   -2.6835 H   0  0  0  0  0  0
   -8.1735   28.2225   -3.0147 H   0  0  0  0  0  0
  -10.6204   26.9274   -4.0616 H   0  0  0  0  0  0
   -9.2011   25.8717   -3.7491 H   0  0  0  0  0  0
  1  2  1  0  0  0
  1  8  1  0  0  0
  1  9  1  0  0  0
  2  3  2  0  0  0
  2  4  1  0  0  0
  4  5  1  0  0  0
  4 30  1  0  0  0
  5  6  2  0  0  0
  5  7  1  0  0  0
  7  8  2  0  0  0
  7 31  1  0  0  0
  8 32  1  0  0  0
  9 13  1  0  0  0
  9 27  1  0  0  0
  9 33  1  0  0  0
 10 11  1  0  0  0
 10 18  1  0  0  0
 10 29  1  0  0  0
 10 34  1  0  0  0
 11 12  2  0  0  0
 11 17  1  0  0  0
 12 14  1  0  0  0
 12 35  1  0  0  0
 13 24  1  0  0  0
 13 36  1  0  0  0
 13 37  1  0  0  0
 14 15  2  0  0  0
 14 38  1  0  0  0
 15 16  1  0  0  0
 15 39  1  0  0  0
 16 17  2  0  0  0
 16 40  1  0  0  0
 17 41  1  0  0  0
 18 19  2  0  0  0
 18 23  1  0  0  0
 19 20  1  0  0  0
 19 42  1  0  0  0
 20 21  2  0  0  0
 20 43  1  0  0  0
 21 22  1  0  0  0
 21 44  1  0  0  0
 22 23  2  0  0  0
 22 45  1  0  0  0
 23 46  1  0  0  0
 24 25  1  0  0  0
 24 26  1  0  0  0
 24 47  1  0  0  0
 25 48  1  0  0  0
 26 27  1  0  0  0
 26 28  1  0  0  0
 26 49  1  0  0  0
 28 29  1  0  0  0
 28 50  1  0  0  0
 28 51  1  0  0  0
 29 52  1  0  0  0
 29 53  1  0  0  0
M  CHG  1  29   1
M  END
> <s_m_source_file>
../3t64_ligand.sdf

> <i_m_source_file_index>
1

> <s_epik_input>
W2NIXTFbY0hdYyg9TylbbkhdYyg9TyluMVtDQEhdMltDSDJdW0NASF0oW09IXSlbQ0BIXShPMilbQ0gyXVtOSDIrXVtDSF0oYzNbY0hdW2NIXVtjSF1bY0hdW2NIXTMpYzRbY0hdW2NIXVtjSF1bY0hdW2NIXTQ=

> <s_epik_cmdline>
J2VwaWtfYXBwJywgJy1pbWFlJywgJ2xpZ2FuZF9wcm8ubWFlJywgJy1vbWFlJywgJ2xpZ2FuZF9wcmVwLm1hZScsICctbXMnLCAnMScsICctcGgnLCAnNycsICctcGh0JywgJzAuNScsICctbnQn

> <r_lp_tautomer_probability>
0.999537046341301

> <r_epik_Ionization_Penalty>
  0.2679

> <r_epik_Ionization_Penalty_Charging>
  0.2679

> <r_epik_Ionization_Penalty_Neutral>
  0.0000

> <r_epik_State_Penalty>
  0.2574

> <r_epik_Charging_Adjusted_Penalty>
0.525327316366396

> <i_epik_Tot_Q>
1

> <i_epik_Tot_abs_Q>
1

> <s_epik_Chemistry_Notes>
This compound contains an acetal/aminal-like group ( X-CH(R)-Y where X, Y are N, S, or O) that may be acid/base labile, releasing an aldehyde.

$$$$
