3t6b_ligand
                    3D
 Schrodinger Suite 2020-3.
 94 97  0  0  1  0            999 V2000
   22.6620   14.8870   56.5560 N   0  3  0  0  0  0
   21.9220   16.1400   56.4230 C   0  0  2  0  0  0
   21.6820   16.5190   54.9610 C   0  0  0  0  0  0
   22.5490   16.3480   54.1050 O   0  0  0  0  0  0
   22.6340   17.3000   57.1240 C   0  0  0  0  0  0
   21.8320   18.5630   56.9450 C   0  0  0  0  0  0
   22.8120   16.9930   58.5990 C   0  0  0  0  0  0
   20.5010   17.0510   54.6840 N   0  0  0  0  0  0
   20.0580   17.2340   53.3110 C   0  0  2  0  0  0
   19.9000   18.7040   52.9200 C   0  0  0  0  0  0
   19.6540   19.5620   53.7670 O   0  0  0  0  0  0
   18.7280   16.4790   53.0850 C   0  0  0  0  0  0
   17.8770   17.1760   52.0560 C   0  0  0  0  0  0
   18.9940   15.0180   52.7040 C   0  0  0  0  0  0
   20.0950   18.9860   51.6340 N   0  0  0  0  0  0
   19.6810   20.2480   51.0370 C   0  0  2  0  0  0
   18.5990   19.9510   50.0020 C   0  0  0  0  0  0
   18.8740   19.3250   48.9770 O   0  0  0  0  0  0
   20.8580   20.9520   50.3660 C   0  0  0  0  0  0
   20.5330   22.3520   49.8830 C   0  0  0  0  0  0
   20.9330   23.4690   50.6070 C   0  0  0  0  0  0
   19.8150   22.5550   48.7090 C   0  0  0  0  0  0
   20.6350   24.7450   50.1710 C   0  0  0  0  0  0
   19.5150   23.8240   48.2640 C   0  0  0  0  0  0
   19.9250   24.9170   48.9970 C   0  0  0  0  0  0
   19.6220   26.1860   48.5540 O   0  0  0  0  0  0
   17.3600   20.3870   50.2710 N   0  0  0  0  0  0
   16.2200   20.1250   49.3890 C   0  0  2  0  0  0
   16.2120   21.0490   48.1780 C   0  0  0  0  0  0
   16.7760   22.1390   48.2350 O   0  0  0  0  0  0
   15.0290   20.4560   50.2810 C   0  0  0  0  0  0
   15.5330   21.5740   51.1240 C   0  0  0  0  0  0
   16.9730   21.2220   51.4220 C   0  0  0  0  0  0
   15.5690   20.6280   47.0980 N   0  0  0  0  0  0
   15.4040   21.5100   45.9510 C   0  0  2  0  0  0
   14.1120   22.3030   46.1010 C   0  0  0  0  0  0
   13.6180   22.4530   47.2190 O   0  0  0  0  0  0
   15.4240   20.7260   44.6370 C   0  0  0  0  0  0
   14.5810   19.4960   44.6520 C   0  0  0  0  0  0
   14.9780   18.2370   44.9940 C   0  0  0  0  0  0
   13.1930   19.4010   44.3120 C   0  0  0  0  0  0
   13.9230   17.3620   44.8870 N   0  3  0  0  0  0
   12.8160   18.0510   44.4690 C   0  0  0  0  0  0
   12.2320   20.3270   43.8920 C   0  0  0  0  0  0
   11.5230   17.6020   44.2200 C   0  0  0  0  0  0
   10.9450   19.8800   43.6460 C   0  0  0  0  0  0
   10.6030   18.5290   43.8080 C   0  0  0  0  0  0
   13.5430   22.8180   45.1350 O   0  5  0  0  0  0
   22.1171   14.0828   56.0398 H   0  0  0  0  0  0
   22.7662   14.6341   57.6214 H   0  0  0  0  0  0
   23.6597   15.0009   56.1069 H   0  0  0  0  0  0
   20.9661   15.9144   56.9183 H   0  0  0  0  0  0
   23.6292   17.4520   56.6808 H   0  0  0  0  0  0
   21.7117   18.7719   55.8717 H   0  0  0  0  0  0
   22.3570   19.4019   57.4253 H   0  0  0  0  0  0
   20.8418   18.4372   57.4073 H   0  0  0  0  0  0
   23.3986   16.0695   58.7131 H   0  0  0  0  0  0
   21.8256   16.8611   59.0677 H   0  0  0  0  0  0
   23.3408   17.8258   59.0856 H   0  0  0  0  0  0
   19.8509   17.3567   55.5170 H   0  0  0  0  0  0
   20.8819   16.8146   52.7150 H   0  0  0  0  0  0
   18.1422   16.4861   54.0160 H   0  0  0  0  0  0
   17.7090   18.2185   52.3643 H   0  0  0  0  0  0
   16.9100   16.6590   51.9689 H   0  0  0  0  0  0
   18.3906   17.1595   51.0834 H   0  0  0  0  0  0
   19.6166   14.5449   53.4776 H   0  0  0  0  0  0
   19.5184   14.9807   51.7378 H   0  0  0  0  0  0
   18.0378   14.4802   52.6232 H   0  0  0  0  0  0
   20.5899   18.2217   51.0168 H   0  0  0  0  0  0
   19.3052   20.8792   51.8557 H   0  0  0  0  0  0
   21.6904   21.0361   51.0801 H   0  0  0  0  0  0
   21.1829   20.3700   49.4910 H   0  0  0  0  0  0
   21.4909   23.3357   51.5339 H   0  0  0  0  0  0
   19.4832   21.6933   48.1298 H   0  0  0  0  0  0
   20.9575   25.6112   50.7487 H   0  0  0  0  0  0
   18.9569   23.9628   47.3381 H   0  0  0  0  0  0
   19.9459   27.0629   49.1338 H   0  0  0  0  0  0
   16.2601   19.0944   49.0065 H   0  0  0  0  0  0
   14.1741   20.7533   49.6558 H   0  0  0  0  0  0
   14.7585   19.5706   50.8750 H   0  0  0  0  0  0
   15.4533   22.5186   50.5661 H   0  0  0  0  0  0
   14.9327   21.6395   52.0434 H   0  0  0  0  0  0
   17.0813   20.6407   52.3496 H   0  0  0  0  0  0
   17.6228   22.1085   51.4669 H   0  0  0  0  0  0
   15.1592   19.6075   47.0706 H   0  0  0  0  0  0
   16.2677   22.1911   45.9643 H   0  0  0  0  0  0
   15.0513   21.3651   43.8230 H   0  0  0  0  0  0
   16.4540   20.4110   44.4136 H   0  0  0  0  0  0
   16.0187   18.0522   45.2986 H   0  0  0  0  0  0
   12.4910   21.3777   43.7613 H   0  0  0  0  0  0
   11.2529   16.5538   44.3478 H   0  0  0  0  0  0
   10.1844   20.5898   43.3209 H   0  0  0  0  0  0
    9.5815   18.2099   43.6012 H   0  0  0  0  0  0
   14.0647   16.2977   45.1262 H   0  0  0  0  0  0
  1  2  1  0  0  0
  1 49  1  0  0  0
  1 50  1  0  0  0
  1 51  1  0  0  0
  2  3  1  0  0  0
  2  5  1  0  0  0
  2 52  1  0  0  0
  3  4  2  0  0  0
  3  8  1  0  0  0
  5  6  1  0  0  0
  5  7  1  0  0  0
  5 53  1  0  0  0
  6 54  1  0  0  0
  6 55  1  0  0  0
  6 56  1  0  0  0
  7 57  1  0  0  0
  7 58  1  0  0  0
  7 59  1  0  0  0
  8  9  1  0  0  0
  8 60  1  0  0  0
  9 10  1  0  0  0
  9 12  1  0  0  0
  9 61  1  0  0  0
 10 11  2  0  0  0
 10 15  1  0  0  0
 12 13  1  0  0  0
 12 14  1  0  0  0
 12 62  1  0  0  0
 13 63  1  0  0  0
 13 64  1  0  0  0
 13 65  1  0  0  0
 14 66  1  0  0  0
 14 67  1  0  0  0
 14 68  1  0  0  0
 15 16  1  0  0  0
 15 69  1  0  0  0
 16 17  1  0  0  0
 16 19  1  0  0  0
 16 70  1  0  0  0
 17 18  2  0  0  0
 17 27  1  0  0  0
 19 20  1  0  0  0
 19 71  1  0  0  0
 19 72  1  0  0  0
 20 21  2  0  0  0
 20 22  1  0  0  0
 21 23  1  0  0  0
 21 73  1  0  0  0
 22 24  2  0  0  0
 22 74  1  0  0  0
 23 25  2  0  0  0
 23 75  1  0  0  0
 24 25  1  0  0  0
 24 76  1  0  0  0
 25 26  1  0  0  0
 26 77  1  0  0  0
 27 28  1  0  0  0
 27 33  1  0  0  0
 28 29  1  0  0  0
 28 31  1  0  0  0
 28 78  1  0  0  0
 29 30  2  0  0  0
 29 34  1  0  0  0
 31 32  1  0  0  0
 31 79  1  0  0  0
 31 80  1  0  0  0
 32 33  1  0  0  0
 32 81  1  0  0  0
 32 82  1  0  0  0
 33 83  1  0  0  0
 33 84  1  0  0  0
 34 35  1  0  0  0
 34 85  1  0  0  0
 35 36  1  0  0  0
 35 38  1  0  0  0
 35 86  1  0  0  0
 36 37  2  0  0  0
 36 48  1  0  0  0
 38 39  1  0  0  0
 38 87  1  0  0  0
 38 88  1  0  0  0
 39 40  2  0  0  0
 39 41  1  0  0  0
 40 42  1  0  0  0
 40 89  1  0  0  0
 41 43  2  0  0  0
 41 44  1  0  0  0
 42 43  1  0  0  0
 42 94  1  0  0  0
 43 45  1  0  0  0
 44 46  2  0  0  0
 44 90  1  0  0  0
 45 47  2  0  0  0
 45 91  1  0  0  0
 46 47  1  0  0  0
 46 92  1  0  0  0
 47 93  1  0  0  0
M  CHG  3   1   1  42   1  48  -1
M  END
> <s_m_source_file>
../3t6b_ligand.sdf

> <i_m_source_file_index>
1

> <s_epik_input>
W0NIM11bQ0hdKFtDSDNdKVtDQEhdKFtOSDMrXSlDKD1PKVtOSF1bQ0BASF0oW0NIXShbQ0gzXSlbQ0gzXSlDKD1PKVtOSF1bQ0BASF0oW0NIMl1jMVtjSF1bY0hdYyhbT0hdKVtjSF1bY0hdMSlDKD1PKU4yW0NAQEhdKFtDSDJdW0NIMl1bQ0gyXTIpQyg9TylbTkhdW0NASF0oQyg9TylbT0hdKVtDSDJdYzNbY0hdW25IXWMoYzM0KVtjSF1bY0hdW2NIXVtjSF00

> <s_epik_cmdline>
J2VwaWtfYXBwJywgJy1pbWFlJywgJ2xpZ2FuZF9wcm8ubWFlJywgJy1vbWFlJywgJ2xpZ2FuZF9wcmVwLm1hZScsICctbXMnLCAnMScsICctcGgnLCAnNycsICctcGh0JywgJzAuNScsICctbnQn

> <r_epik_Ionization_Penalty>
  0.0809

> <r_epik_Ionization_Penalty_Charging>
  0.0799

> <r_epik_Ionization_Penalty_Neutral>
  0.0010

> <r_epik_State_Penalty>
  0.0706

> <r_epik_Charging_Adjusted_Penalty>
0.150540113136003

> <i_epik_Tot_Q>
1

> <i_epik_Tot_abs_Q>
3

$$$$
