3t6j_ligand
                    3D
 Schrodinger Suite 2020-3.
 94 97  0  0  1  0            999 V2000
  -36.2570  -15.7390   25.0410 N   0  3  0  0  0  0
  -35.8150  -16.5270   23.9000 C   0  0  2  0  0  0
  -37.0020  -17.2640   23.2850 C   0  0  0  0  0  0
  -37.8840  -17.7510   23.9930 O   0  0  0  0  0  0
  -34.6890  -17.5110   24.2810 C   0  0  0  0  0  0
  -35.2340  -18.6390   25.1400 C   0  0  0  0  0  0
  -34.0150  -18.0570   23.0320 C   0  0  0  0  0  0
  -37.0030  -17.3510   21.9610 N   0  0  0  0  0  0
  -38.2020  -17.6940   21.2030 C   0  0  2  0  0  0
  -38.5040  -19.1840   21.0460 C   0  0  0  0  0  0
  -37.6150  -19.9880   20.7790 O   0  0  0  0  0  0
  -38.1470  -17.0600   19.7970 C   0  0  0  0  0  0
  -39.1600  -17.7140   18.8690 C   0  0  0  0  0  0
  -38.3670  -15.5570   19.8870 C   0  0  0  0  0  0
  -39.7720  -19.5310   21.2440 N   0  0  0  0  0  0
  -40.3360  -20.7850   20.7610 C   0  0  2  0  0  0
  -41.4250  -20.4320   19.7580 C   0  0  0  0  0  0
  -42.4270  -19.8190   20.1260 O   0  0  0  0  0  0
  -40.9260  -21.6070   21.9070 C   0  0  0  0  0  0
  -41.5130  -22.9330   21.4630 C   0  0  0  0  0  0
  -40.6990  -24.0410   21.2550 C   0  0  0  0  0  0
  -42.8780  -23.0760   21.2510 C   0  0  0  0  0  0
  -41.2280  -25.2540   20.8490 C   0  0  0  0  0  0
  -43.4180  -24.2870   20.8430 C   0  0  0  0  0  0
  -42.5870  -25.3710   20.6450 C   0  0  0  0  0  0
  -43.1140  -26.5760   20.2390 O   0  0  0  0  0  0
  -41.2410  -20.8190   18.4860 N   0  0  0  0  0  0
  -42.1290  -20.3530   17.4170 C   0  0  2  0  0  0
  -43.3960  -21.1920   17.2730 C   0  0  0  0  0  0
  -43.5650  -22.1930   17.9700 O   0  0  0  0  0  0
  -41.2600  -20.4950   16.1660 C   0  0  0  0  0  0
  -40.2240  -21.5530   16.5170 C   0  0  0  0  0  0
  -40.2980  -21.8360   17.9990 C   0  0  0  0  0  0
  -44.2690  -20.7820   16.3580 N   0  0  0  0  0  0
  -45.5280  -21.4800   16.1300 C   0  0  2  0  0  0
  -45.4300  -22.4530   14.9600 C   0  0  0  0  0  0
  -44.3420  -22.7350   14.4570 O   0  0  0  0  0  0
  -46.6710  -20.4850   15.9070 C   0  0  0  0  0  0
  -46.3280  -19.3420   14.9940 C   0  0  0  0  0  0
  -45.7600  -18.1550   15.3510 C   0  0  0  0  0  0
  -46.5440  -19.2740   13.5780 C   0  0  0  0  0  0
  -45.6020  -17.3540   14.2460 N   0  3  0  0  0  0
  -46.0750  -18.0170   13.1450 C   0  0  0  0  0  0
  -47.0850  -20.1530   12.6340 C   0  0  0  0  0  0
  -46.1300  -17.6190   11.8090 C   0  0  0  0  0  0
  -47.1380  -19.7550   11.3080 C   0  0  0  0  0  0
  -46.6630  -18.4990   10.9090 C   0  0  0  0  0  0
  -46.4410  -22.9880   14.5020 O   0  5  0  0  0  0
  -37.0573  -15.0536   24.7253 H   0  0  0  0  0  0
  -35.4105  -15.1575   25.4350 H   0  0  0  0  0  0
  -36.6373  -16.4104   25.8250 H   0  0  0  0  0  0
  -35.4184  -15.7913   23.1848 H   0  0  0  0  0  0
  -33.9257  -16.9828   24.8712 H   0  0  0  0  0  0
  -35.7155  -18.2184   26.0352 H   0  0  0  0  0  0
  -34.4089  -19.3000   25.4438 H   0  0  0  0  0  0
  -35.9723  -19.2153   24.5631 H   0  0  0  0  0  0
  -33.6298  -17.2219   22.4284 H   0  0  0  0  0  0
  -34.7455  -18.6296   22.4417 H   0  0  0  0  0  0
  -33.1822  -18.7143   23.3224 H   0  0  0  0  0  0
  -36.0573  -17.1541   21.4349 H   0  0  0  0  0  0
  -38.9788  -17.2754   21.8598 H   0  0  0  0  0  0
  -37.1521  -17.2261   19.3582 H   0  0  0  0  0  0
  -38.9729  -18.7972   18.8270 H   0  0  0  0  0  0
  -39.0632  -17.2858   17.8604 H   0  0  0  0  0  0
  -40.1762  -17.5318   19.2487 H   0  0  0  0  0  0
  -37.6199  -15.1170   20.5639 H   0  0  0  0  0  0
  -39.3766  -15.3568   20.2752 H   0  0  0  0  0  0
  -38.2636  -15.1108   18.8869 H   0  0  0  0  0  0
  -40.4030  -18.8223   21.8003 H   0  0  0  0  0  0
  -39.5186  -21.3605   20.3021 H   0  0  0  0  0  0
  -40.1393  -21.8262   22.6439 H   0  0  0  0  0  0
  -41.7324  -21.0361   22.3905 H   0  0  0  0  0  0
  -39.6244  -23.9527   21.4146 H   0  0  0  0  0  0
  -43.5366  -22.2218   21.4079 H   0  0  0  0  0  0
  -40.5742  -26.1118   20.6914 H   0  0  0  0  0  0
  -44.4916  -24.3818   20.6799 H   0  0  0  0  0  0
  -42.4523  -27.4404   20.0810 H   0  0  0  0  0  0
  -42.4740  -19.3341   17.6466 H   0  0  0  0  0  0
  -41.8865  -20.8087   15.3180 H   0  0  0  0  0  0
  -40.7883  -19.5284   15.9355 H   0  0  0  0  0  0
  -40.4333  -22.4730   15.9515 H   0  0  0  0  0  0
  -39.2206  -21.1838   16.2582 H   0  0  0  0  0  0
  -39.3282  -21.7075   18.5020 H   0  0  0  0  0  0
  -40.6945  -22.8384   18.2178 H   0  0  0  0  0  0
  -44.0195  -19.8898   15.7649 H   0  0  0  0  0  0
  -45.6978  -22.0514   17.0545 H   0  0  0  0  0  0
  -47.5296  -21.0071   15.4595 H   0  0  0  0  0  0
  -46.9697  -20.0476   16.8711 H   0  0  0  0  0  0
  -45.5018  -17.9632   16.4029 H   0  0  0  0  0  0
  -47.4576  -21.1319   12.9357 H   0  0  0  0  0  0
  -45.7616  -16.6425   11.4945 H   0  0  0  0  0  0
  -47.5566  -20.4309   10.5623 H   0  0  0  0  0  0
  -46.7197  -18.2172    9.8576 H   0  0  0  0  0  0
  -45.1533  -16.3551   14.3504 H   0  0  0  0  0  0
  1  2  1  0  0  0
  1 49  1  0  0  0
  1 50  1  0  0  0
  1 51  1  0  0  0
  2  3  1  0  0  0
  2  5  1  0  0  0
  2 52  1  0  0  0
  3  4  2  0  0  0
  3  8  1  0  0  0
  5  6  1  0  0  0
  5  7  1  0  0  0
  5 53  1  0  0  0
  6 54  1  0  0  0
  6 55  1  0  0  0
  6 56  1  0  0  0
  7 57  1  0  0  0
  7 58  1  0  0  0
  7 59  1  0  0  0
  8  9  1  0  0  0
  8 60  1  0  0  0
  9 10  1  0  0  0
  9 12  1  0  0  0
  9 61  1  0  0  0
 10 11  2  0  0  0
 10 15  1  0  0  0
 12 13  1  0  0  0
 12 14  1  0  0  0
 12 62  1  0  0  0
 13 63  1  0  0  0
 13 64  1  0  0  0
 13 65  1  0  0  0
 14 66  1  0  0  0
 14 67  1  0  0  0
 14 68  1  0  0  0
 15 16  1  0  0  0
 15 69  1  0  0  0
 16 17  1  0  0  0
 16 19  1  0  0  0
 16 70  1  0  0  0
 17 18  2  0  0  0
 17 27  1  0  0  0
 19 20  1  0  0  0
 19 71  1  0  0  0
 19 72  1  0  0  0
 20 21  2  0  0  0
 20 22  1  0  0  0
 21 23  1  0  0  0
 21 73  1  0  0  0
 22 24  2  0  0  0
 22 74  1  0  0  0
 23 25  2  0  0  0
 23 75  1  0  0  0
 24 25  1  0  0  0
 24 76  1  0  0  0
 25 26  1  0  0  0
 26 77  1  0  0  0
 27 28  1  0  0  0
 27 33  1  0  0  0
 28 29  1  0  0  0
 28 31  1  0  0  0
 28 78  1  0  0  0
 29 30  2  0  0  0
 29 34  1  0  0  0
 31 32  1  0  0  0
 31 79  1  0  0  0
 31 80  1  0  0  0
 32 33  1  0  0  0
 32 81  1  0  0  0
 32 82  1  0  0  0
 33 83  1  0  0  0
 33 84  1  0  0  0
 34 35  1  0  0  0
 34 85  1  0  0  0
 35 36  1  0  0  0
 35 38  1  0  0  0
 35 86  1  0  0  0
 36 37  2  0  0  0
 36 48  1  0  0  0
 38 39  1  0  0  0
 38 87  1  0  0  0
 38 88  1  0  0  0
 39 40  2  0  0  0
 39 41  1  0  0  0
 40 42  1  0  0  0
 40 89  1  0  0  0
 41 43  2  0  0  0
 41 44  1  0  0  0
 42 43  1  0  0  0
 42 94  1  0  0  0
 43 45  1  0  0  0
 44 46  2  0  0  0
 44 90  1  0  0  0
 45 47  2  0  0  0
 45 91  1  0  0  0
 46 47  1  0  0  0
 46 92  1  0  0  0
 47 93  1  0  0  0
M  CHG  3   1   1  42   1  48  -1
M  END
> <s_m_source_file>
../3t6j_ligand.sdf

> <i_m_source_file_index>
1

> <s_epik_input>
W0NIM11bQ0hdKFtDSDNdKVtDQEhdKFtOSDMrXSlDKD1PKVtOSF1bQ0BASF0oW0NIXShbQ0gzXSlbQ0gzXSlDKD1PKVtOSF1bQ0BASF0oW0NIMl1jMVtjSF1bY0hdYyhbT0hdKVtjSF1bY0hdMSlDKD1PKU4yW0NAQEhdKFtDSDJdW0NIMl1bQ0gyXTIpQyg9TylbTkhdW0NASF0oQyg9TylbT0hdKVtDSDJdYzNbY0hdW25IXWMoYzM0KVtjSF1bY0hdW2NIXVtjSF00

> <s_epik_cmdline>
J2VwaWtfYXBwJywgJy1pbWFlJywgJ2xpZ2FuZF9wcm8ubWFlJywgJy1vbWFlJywgJ2xpZ2FuZF9wcmVwLm1hZScsICctbXMnLCAnMScsICctcGgnLCAnNycsICctcGh0JywgJzAuNScsICctbnQn

> <r_epik_Ionization_Penalty>
  0.0809

> <r_epik_Ionization_Penalty_Charging>
  0.0799

> <r_epik_Ionization_Penalty_Neutral>
  0.0010

> <r_epik_State_Penalty>
  0.0706

> <r_epik_Charging_Adjusted_Penalty>
0.150540113136003

> <i_epik_Tot_Q>
1

> <i_epik_Tot_abs_Q>
3

$$$$
