3t6r_ligand
                    3D
 Schrodinger Suite 2020-3.
 90 89  0  0  1  0            999 V2000
   -9.7860   15.6740   85.4600 N   0  3  0  0  0  0
  -10.3220   15.0500   84.2050 C   0  0  2  0  0  0
  -10.5730   16.1730   83.2220 C   0  0  0  0  0  0
  -10.9300   17.2910   83.6400 O   0  0  0  0  0  0
  -11.6210   14.3120   84.5000 C   0  0  0  0  0  0
  -10.4020   15.8910   81.9330 N   0  0  0  0  0  0
  -10.6400   16.8870   80.8800 C   0  0  2  0  0  0
  -12.1210   16.9260   80.4830 C   0  0  0  0  0  0
  -12.7700   15.8750   80.4070 O   0  0  0  0  0  0
   -9.8140   16.5520   79.6390 C   0  0  0  0  0  0
   -8.3120   16.5720   79.8290 C   0  0  0  0  0  0
   -7.5770   16.0600   78.5770 C   0  0  0  0  0  0
   -7.9570   14.6910   78.2280 N   0  0  0  0  0  0
   -8.5170   14.3490   77.0690 C   0  0  0  0  0  0
   -8.8380   13.0790   76.8250 N   0  3  0  0  0  0
   -8.7620   15.2860   76.1470 N   0  0  0  0  0  0
  -12.6380   18.1320   80.2380 N   0  0  0  0  0  0
  -13.9530   18.3090   79.6280 C   0  0  2  0  0  0
  -13.8300   18.8820   78.2150 C   0  0  0  0  0  0
  -12.7700   19.4150   77.8190 O   0  0  0  0  0  0
  -14.9250   19.2100   80.4720 C   0  0  2  0  0  0
  -14.3450   20.5140   80.6720 O   0  0  0  0  0  0
  -15.2140   18.5490   81.8210 C   0  0  0  0  0  0
  -14.9100   18.7710   77.4480 N   0  0  0  0  0  0
  -14.8890   19.2320   76.0710 C   0  0  2  0  0  0
  -14.6830   20.7540   76.0020 C   0  0  0  0  0  0
  -14.0010   21.2210   75.1080 O   0  0  0  0  0  0
  -16.1520   18.7850   75.3170 C   0  0  0  0  0  0
  -16.2760   19.3670   73.9170 C   0  0  0  0  0  0
  -17.3320   18.6600   73.0750 C   0  0  0  0  0  0
  -16.8090   17.3720   72.4570 C   0  0  0  0  0  0
  -17.9370   16.6690   71.8180 N   0  3  0  0  0  0
  -15.2650   21.5060   76.9400 N   0  0  0  0  0  0
  -14.9490   22.9440   77.1120 C   0  0  2  0  0  0
  -14.2880   23.2580   78.4590 C   0  0  0  0  0  0
  -14.8630   22.9890   79.5240 O   0  0  0  0  0  0
  -16.1900   23.8230   76.9590 C   0  0  0  0  0  0
  -16.3170   24.5510   75.6130 C   0  0  0  0  0  0
  -17.4690   25.5640   75.6060 C   0  0  0  0  0  0
  -17.9690   25.9750   76.6690 O   0  0  0  0  0  0
  -17.8990   25.9650   74.4110 N   0  0  0  0  0  0
  -13.1485   23.7951   78.4841 O   0  5  0  0  0  0
   -8.8486   16.2037   85.2347 H   0  0  0  0  0  0
   -9.5935   14.8892   86.2064 H   0  0  0  0  0  0
  -10.5230   16.3865   85.8589 H   0  0  0  0  0  0
   -9.5971   14.3287   83.7997 H   0  0  0  0  0  0
  -11.4265   13.4989   85.2148 H   0  0  0  0  0  0
  -12.0238   13.8914   83.5668 H   0  0  0  0  0  0
  -12.3510   15.0127   84.9314 H   0  0  0  0  0  0
  -10.0720   14.8762   81.6658 H   0  0  0  0  0  0
  -10.3297   17.8484   81.3153 H   0  0  0  0  0  0
  -10.0686   15.5399   79.2913 H   0  0  0  0  0  0
  -10.0352   17.2793   78.8440 H   0  0  0  0  0  0
   -7.9815   17.6018   80.0294 H   0  0  0  0  0  0
   -8.0413   15.9281   80.6788 H   0  0  0  0  0  0
   -7.8164   16.7077   77.7207 H   0  0  0  0  0  0
   -6.4919   16.0759   78.7566 H   0  0  0  0  0  0
   -7.7835   13.8729   78.9426 H   0  0  0  0  0  0
   -8.6377   12.3060   77.5815 H   0  0  0  0  0  0
   -8.4981   16.3353   76.3455 H   0  0  0  0  0  0
   -9.2274   15.0075   75.1900 H   0  0  0  0  0  0
  -12.0363   19.0109   80.5127 H   0  0  0  0  0  0
  -14.3248   17.2742   79.5953 H   0  0  0  0  0  0
  -15.8706   19.4032   79.9442 H   0  0  0  0  0  0
  -14.0727   21.1337   79.8049 H   0  0  0  0  0  0
  -15.6560   17.5554   81.6553 H   0  0  0  0  0  0
  -15.9177   19.1728   82.3917 H   0  0  0  0  0  0
  -14.2761   18.4435   82.3860 H   0  0  0  0  0  0
  -15.8252   18.3253   77.8649 H   0  0  0  0  0  0
  -14.0162   18.7349   75.6225 H   0  0  0  0  0  0
  -16.1492   17.6898   75.2139 H   0  0  0  0  0  0
  -17.0445   19.0981   75.8787 H   0  0  0  0  0  0
  -16.5557   20.4287   73.9847 H   0  0  0  0  0  0
  -15.3124   19.2743   73.3947 H   0  0  0  0  0  0
  -18.1967   18.4085   73.7068 H   0  0  0  0  0  0
  -17.6547   19.3233   72.2589 H   0  0  0  0  0  0
  -16.0413   17.6109   71.7063 H   0  0  0  0  0  0
  -16.3693   16.7404   73.2429 H   0  0  0  0  0  0
  -17.5768   15.7336   71.3650 H   0  0  0  0  0  0
  -18.3738   17.3098   71.0379 H   0  0  0  0  0  0
  -18.7018   16.4393   72.5745 H   0  0  0  0  0  0
  -16.0020   21.0223   77.5979 H   0  0  0  0  0  0
  -14.2353   23.1391   76.2980 H   0  0  0  0  0  0
  -17.0931   23.2040   77.0654 H   0  0  0  0  0  0
  -16.1857   24.6018   77.7358 H   0  0  0  0  0  0
  -15.3843   25.0941   75.4005 H   0  0  0  0  0  0
  -16.5038   23.8170   74.8153 H   0  0  0  0  0  0
  -17.4269   25.5749   73.4972 H   0  0  0  0  0  0
  -18.7263   26.6863   74.3377 H   0  0  0  0  0  0
   -9.3033   12.8036   75.8671 H   0  0  0  0  0  0
  1  2  1  0  0  0
  1 43  1  0  0  0
  1 44  1  0  0  0
  1 45  1  0  0  0
  2  3  1  0  0  0
  2  5  1  0  0  0
  2 46  1  0  0  0
  3  4  2  0  0  0
  3  6  1  0  0  0
  5 47  1  0  0  0
  5 48  1  0  0  0
  5 49  1  0  0  0
  6  7  1  0  0  0
  6 50  1  0  0  0
  7  8  1  0  0  0
  7 10  1  0  0  0
  7 51  1  0  0  0
  8  9  2  0  0  0
  8 17  1  0  0  0
 10 11  1  0  0  0
 10 52  1  0  0  0
 10 53  1  0  0  0
 11 12  1  0  0  0
 11 54  1  0  0  0
 11 55  1  0  0  0
 12 13  1  0  0  0
 12 56  1  0  0  0
 12 57  1  0  0  0
 13 14  1  0  0  0
 13 58  1  0  0  0
 14 15  2  0  0  0
 14 16  1  0  0  0
 15 59  1  0  0  0
 15 90  1  0  0  0
 16 60  1  0  0  0
 16 61  1  0  0  0
 17 18  1  0  0  0
 17 62  1  0  0  0
 18 19  1  0  0  0
 18 21  1  0  0  0
 18 63  1  0  0  0
 19 20  2  0  0  0
 19 24  1  0  0  0
 21 22  1  0  0  0
 21 23  1  0  0  0
 21 64  1  0  0  0
 22 65  1  0  0  0
 23 66  1  0  0  0
 23 67  1  0  0  0
 23 68  1  0  0  0
 24 25  1  0  0  0
 24 69  1  0  0  0
 25 26  1  0  0  0
 25 28  1  0  0  0
 25 70  1  0  0  0
 26 27  2  0  0  0
 26 33  1  0  0  0
 28 29  1  0  0  0
 28 71  1  0  0  0
 28 72  1  0  0  0
 29 30  1  0  0  0
 29 73  1  0  0  0
 29 74  1  0  0  0
 30 31  1  0  0  0
 30 75  1  0  0  0
 30 76  1  0  0  0
 31 32  1  0  0  0
 31 77  1  0  0  0
 31 78  1  0  0  0
 32 79  1  0  0  0
 32 80  1  0  0  0
 32 81  1  0  0  0
 33 34  1  0  0  0
 33 82  1  0  0  0
 34 35  1  0  0  0
 34 37  1  0  0  0
 34 83  1  0  0  0
 35 36  2  0  0  0
 35 42  1  0  0  0
 37 38  1  0  0  0
 37 84  1  0  0  0
 37 85  1  0  0  0
 38 39  1  0  0  0
 38 86  1  0  0  0
 38 87  1  0  0  0
 39 40  2  0  0  0
 39 41  1  0  0  0
 41 88  1  0  0  0
 41 89  1  0  0  0
M  CHG  4   1   1  15   1  32   1  42  -1
M  END
> <s_m_source_file>
../3t6r_ligand.sdf

> <i_m_source_file_index>
1

> <s_epik_input>
W0hdL049QyhbTkgyXSlcW05IXVtDSDJdW0NIMl1bQ0gyXVtDQEhdKFtOSF1DKD1PKVtDQEBIXShbTkgzK10pW0NIM10pQyg9TylbTkhdW0NAQEhdKFtDQEhdKFtPSF0pW0NIM10pQyg9TylbTkhdW0NAQEhdKFtDSDJdW0NIMl1bQ0gyXVtDSDJdW05IMytdKUMoPU8pW05IXVtDQEhdKEMoPU8pW09IXSlbQ0gyXVtDSDJdQyg9TylbTkgyXQ==

> <s_epik_cmdline>
J2VwaWtfYXBwJywgJy1pbWFlJywgJ2xpZ2FuZF9wcm8ubWFlJywgJy1vbWFlJywgJ2xpZ2FuZF9wcmVwLm1hZScsICctbXMnLCAnMScsICctcGgnLCAnNycsICctcGh0JywgJzAuNScsICctbnQn

> <r_epik_Ionization_Penalty>
  0.1256

> <r_epik_Ionization_Penalty_Charging>
  0.1256

> <r_epik_Ionization_Penalty_Neutral>
  0.0000

> <r_epik_State_Penalty>
  0.1145

> <r_epik_Charging_Adjusted_Penalty>
0.240170803420975

> <i_epik_Tot_Q>
2

> <i_epik_Tot_abs_Q>
4

> <s_epik_Chemistry_Notes>
This compound has an imine and may undergo hydrolysis.

$$$$
