3t6y_ligand
                    3D
 Schrodinger Suite 2020-3.
 53 56  0  0  1  0            999 V2000
   -6.0010   25.7660   -0.9900 N   0  0  0  0  0  0
   -5.4830   24.6610   -1.5510 C   0  0  0  0  0  0
   -6.1590   23.6410   -1.5360 O   0  0  0  0  0  0
   -4.2150   24.6960   -2.1180 N   0  0  0  0  0  0
   -3.4730   25.8920   -2.0900 C   0  0  0  0  0  0
   -2.3430   25.9120   -2.5830 O   0  0  0  0  0  0
   -3.9830   27.0370   -1.4990 C   0  0  0  0  0  0
   -5.2400   26.9580   -0.9370 C   0  0  0  0  0  0
   -7.3390   25.6510   -0.4070 C   0  0  1  0  0  0
   -8.8740   26.7450   -5.1960 C   0  0  1  0  0  0
   -7.5320   27.0900   -5.3840 C   0  0  0  0  0  0
   -6.6400   26.0940   -4.9480 C   0  0  0  0  0  0
   -7.5420   26.7690    0.5820 C   0  0  0  0  0  0
   -5.2710   26.2000   -4.9840 C   0  0  0  0  0  0
   -4.7540   27.3580   -5.5110 C   0  0  0  0  0  0
   -5.6240   28.3460   -5.9660 C   0  0  0  0  0  0
   -7.0130   28.2490   -5.9060 C   0  0  0  0  0  0
   -9.7610   26.1760   -6.1630 C   0  0  0  0  0  0
  -10.9300   25.6630   -5.7420 N   0  3  0  0  0  0
  -11.8340   25.2760   -6.8470 C   0  0  0  0  0  0
  -11.0280   25.6000   -8.0930 C   0  0  0  0  0  0
   -9.8000   26.1630   -7.5280 N   0  0  0  0  0  0
   -8.8650   26.6520   -8.4510 C   0  0  0  0  0  0
   -8.2530   27.8200   -0.2140 C   0  0  1  0  0  0
   -8.9980   27.1100   -1.3370 C   0  0  2  0  0  0
   -8.4050   25.7830   -1.4030 O   0  0  0  0  0  0
   -9.1890   28.1880    0.7270 O   0  0  0  0  0  0
   -8.9470   27.7010   -2.7830 C   0  0  0  0  0  0
   -9.2580   26.5840   -3.7490 N   0  0  1  0  0  0
   -3.7963   23.7925   -2.5853 H   0  0  0  0  0  0
   -3.4121   27.9653   -1.4791 H   0  0  0  0  0  0
   -5.6571   27.8341   -0.4404 H   0  0  0  0  0  0
   -7.3900   24.6424    0.0290 H   0  0  0  0  0  0
   -9.0339   27.6121   -5.8537 H   0  0  0  0  0  0
   -7.0657   25.1715   -4.5531 H   0  0  0  0  0  0
   -8.1453   26.4059    1.4271 H   0  0  0  0  0  0
   -6.5649   27.1143    0.9507 H   0  0  0  0  0  0
   -4.6262   25.4036   -4.6123 H   0  0  0  0  0  0
   -3.6753   27.5023   -5.5725 H   0  0  0  0  0  0
   -5.1922   29.2501   -6.3951 H   0  0  0  0  0  0
   -7.6570   29.0553   -6.2570 H   0  0  0  0  0  0
  -12.8386   24.8581   -6.7825 H   0  0  0  0  0  0
  -11.2952   25.4515   -9.1393 H   0  0  0  0  0  0
   -7.9906   27.0468   -7.9129 H   0  0  0  0  0  0
   -9.3231   27.4558   -9.0461 H   0  0  0  0  0  0
   -8.5477   25.8370   -9.1182 H   0  0  0  0  0  0
   -7.6619   28.6689   -0.5882 H   0  0  0  0  0  0
  -10.0571   27.1298   -1.0404 H   0  0  0  0  0  0
   -8.8745   28.7210    1.6364 H   0  0  0  0  0  0
   -9.6916   28.5052   -2.8769 H   0  0  0  0  0  0
   -7.9432   28.1062   -2.9783 H   0  0  0  0  0  0
  -10.3466   26.4464   -3.6717 H   0  0  0  0  0  0
  -11.1326   25.5673   -4.6651 H   0  0  0  0  0  0
  1  2  1  0  0  0
  1  8  1  0  0  0
  1  9  1  0  0  0
  2  3  2  0  0  0
  2  4  1  0  0  0
  4  5  1  0  0  0
  4 30  1  0  0  0
  5  6  2  0  0  0
  5  7  1  0  0  0
  7  8  2  0  0  0
  7 31  1  0  0  0
  8 32  1  0  0  0
  9 13  1  0  0  0
  9 26  1  0  0  0
  9 33  1  0  0  0
 10 11  1  0  0  0
 10 18  1  0  0  0
 10 29  1  0  0  0
 10 34  1  0  0  0
 11 12  2  0  0  0
 11 17  1  0  0  0
 12 14  1  0  0  0
 12 35  1  0  0  0
 13 24  1  0  0  0
 13 36  1  0  0  0
 13 37  1  0  0  0
 14 15  2  0  0  0
 14 38  1  0  0  0
 15 16  1  0  0  0
 15 39  1  0  0  0
 16 17  2  0  0  0
 16 40  1  0  0  0
 17 41  1  0  0  0
 18 19  2  0  0  0
 18 22  1  0  0  0
 19 20  1  0  0  0
 19 53  1  0  0  0
 20 21  2  0  0  0
 20 42  1  0  0  0
 21 22  1  0  0  0
 21 43  1  0  0  0
 22 23  1  0  0  0
 23 44  1  0  0  0
 23 45  1  0  0  0
 23 46  1  0  0  0
 24 25  1  0  0  0
 24 27  1  0  0  0
 24 47  1  0  0  0
 25 26  1  0  0  0
 25 28  1  0  0  0
 25 48  1  0  0  0
 27 49  1  0  0  0
 28 29  1  0  0  0
 28 50  1  0  0  0
 28 51  1  0  0  0
 29 52  1  0  0  0
M  CHG  1  19   1
M  END
> <s_m_source_file>
../3t6y_ligand.sdf

> <i_m_source_file_index>
1

> <s_epik_input>
W2NIXTFbY0hdYyg9TylbbkhdYyg9TyluMVtDQEhdMltDSDJdW0NASF0oW09IXSlbQ0BIXShPMilbQ0gyXVtOSDIrXVtDQEBIXShjM1tjSF1bY0hdW2NIXVtjSF1bY0hdMyljNG5bY0hdW2NIXW40W0NIM10=

> <s_epik_cmdline>
J2VwaWtfYXBwJywgJy1pbWFlJywgJ2xpZ2FuZF9wcm8ubWFlJywgJy1vbWFlJywgJ2xpZ2FuZF9wcmVwLm1hZScsICctbXMnLCAnMScsICctcGgnLCAnNycsICctcGh0JywgJzAuNScsICctbnQn

> <r_lp_tautomer_probability>
1

> <r_epik_Ionization_Penalty>
  0.1634

> <r_epik_Ionization_Penalty_Charging>
  0.0020

> <r_epik_Ionization_Penalty_Neutral>
  0.1614

> <r_epik_State_Penalty>
 -0.0000

> <r_epik_Charging_Adjusted_Penalty>
0.00201983330877819

> <i_epik_Tot_Q>
1

> <i_epik_Tot_abs_Q>
1

> <s_epik_Chemistry_Notes>
This compound contains an acetal/aminal-like group ( X-CH(R)-Y where X, Y are N, S, or O) that may be acid/base labile, releasing an aldehyde.

$$$$
