3t70_ligand
                    3D
 Schrodinger Suite 2020-3.
 55 58  0  0  1  0            999 V2000
   -6.1200   25.7830   -1.1280 N   0  0  0  0  0  0
   -5.5760   24.6530   -1.7560 C   0  0  0  0  0  0
   -6.2290   23.6150   -1.8780 O   0  0  0  0  0  0
   -4.2700   24.7090   -2.2370 N   0  0  0  0  0  0
   -3.5100   25.8750   -2.1140 C   0  0  0  0  0  0
   -2.3670   25.8690   -2.5650 O   0  0  0  0  0  0
   -4.0420   27.0140   -1.4960 C   0  0  0  0  0  0
   -5.3540   26.9640   -1.0050 C   0  0  0  0  0  0
   -7.5370   25.6960   -0.6470 C   0  0  1  0  0  0
   -8.8280   27.4690   -5.5480 C   0  0  0  0  0  0
   -9.3890   26.8000   -6.8320 C   0  0  0  0  0  0
   -9.4790   27.5730   -7.9960 C   0  0  0  0  0  0
   -8.0200   26.7940    0.2990 C   0  0  0  0  0  0
   -9.9770   27.0220   -9.1760 C   0  0  0  0  0  0
  -10.3820   25.6890   -9.1930 C   0  0  0  0  0  0
  -10.2910   24.9110   -8.0380 C   0  0  0  0  0  0
   -9.7920   25.4670   -6.8580 C   0  0  0  0  0  0
   -7.3180   27.1660   -5.4650 C   0  0  0  0  0  0
   -6.4160   28.1670   -5.8230 C   0  0  0  0  0  0
   -5.0400   27.9450   -5.7610 C   0  0  0  0  0  0
   -4.5550   26.7070   -5.3430 C   0  0  0  0  0  0
   -5.4560   25.7020   -4.9940 C   0  0  0  0  0  0
   -6.8350   25.9220   -5.0480 C   0  0  0  0  0  0
   -8.6940   27.8140   -0.5950 C   0  0  2  0  0  0
   -9.8360   28.3330    0.1050 O   0  0  0  0  0  0
   -9.1570   27.0080   -1.8140 C   0  0  2  0  0  0
   -8.3140   25.8140   -1.8790 O   0  0  0  0  0  0
  -11.0080   27.4910   -4.4110 C   0  0  0  0  0  0
   -9.0360   27.8470   -3.1120 C   0  0  0  0  0  0
   -9.5750   27.1260   -4.2960 N   0  0  2  0  0  0
   -3.8240   23.8278   -2.7213 H   0  0  0  0  0  0
   -3.4470   27.9221   -1.3988 H   0  0  0  0  0  0
   -5.7862   27.8420   -0.5251 H   0  0  0  0  0  0
   -7.6506   24.7531   -0.0920 H   0  0  0  0  0  0
   -8.9949   28.5554   -5.5901 H   0  0  0  0  0  0
   -9.1570   28.6142   -7.9795 H   0  0  0  0  0  0
   -8.7233   26.3662    1.0286 H   0  0  0  0  0  0
   -7.1587   27.2258    0.8298 H   0  0  0  0  0  0
  -10.0489   27.6294  -10.0782 H   0  0  0  0  0  0
  -10.7716   25.2519  -10.1124 H   0  0  0  0  0  0
  -10.6096   23.8688   -8.0568 H   0  0  0  0  0  0
   -9.7179   24.8577   -5.9573 H   0  0  0  0  0  0
   -6.7905   29.1351   -6.1555 H   0  0  0  0  0  0
   -4.3458   28.7380   -6.0389 H   0  0  0  0  0  0
   -3.4814   26.5263   -5.2895 H   0  0  0  0  0  0
   -5.0793   24.7304   -4.6743 H   0  0  0  0  0  0
   -7.5288   25.1297   -4.7671 H   0  0  0  0  0  0
   -8.0725   28.6864   -0.8453 H   0  0  0  0  0  0
   -9.6962   28.9404    1.0114 H   0  0  0  0  0  0
  -10.2010   26.6780   -1.7086 H   0  0  0  0  0  0
  -11.4487   26.9774   -5.2782 H   0  0  0  0  0  0
  -11.0997   28.5791   -4.5437 H   0  0  0  0  0  0
  -11.5383   27.1872   -3.4964 H   0  0  0  0  0  0
   -9.5991   28.7848   -2.9962 H   0  0  0  0  0  0
   -7.9773   28.0763   -3.3031 H   0  0  0  0  0  0
  1  2  1  0  0  0
  1  8  1  0  0  0
  1  9  1  0  0  0
  2  3  2  0  0  0
  2  4  1  0  0  0
  4  5  1  0  0  0
  4 31  1  0  0  0
  5  6  2  0  0  0
  5  7  1  0  0  0
  7  8  2  0  0  0
  7 32  1  0  0  0
  8 33  1  0  0  0
  9 13  1  0  0  0
  9 27  1  0  0  0
  9 34  1  0  0  0
 10 11  1  0  0  0
 10 18  1  0  0  0
 10 30  1  0  0  0
 10 35  1  0  0  0
 11 12  2  0  0  0
 11 17  1  0  0  0
 12 14  1  0  0  0
 12 36  1  0  0  0
 13 24  1  0  0  0
 13 37  1  0  0  0
 13 38  1  0  0  0
 14 15  2  0  0  0
 14 39  1  0  0  0
 15 16  1  0  0  0
 15 40  1  0  0  0
 16 17  2  0  0  0
 16 41  1  0  0  0
 17 42  1  0  0  0
 18 19  2  0  0  0
 18 23  1  0  0  0
 19 20  1  0  0  0
 19 43  1  0  0  0
 20 21  2  0  0  0
 20 44  1  0  0  0
 21 22  1  0  0  0
 21 45  1  0  0  0
 22 23  2  0  0  0
 22 46  1  0  0  0
 23 47  1  0  0  0
 24 25  1  0  0  0
 24 26  1  0  0  0
 24 48  1  0  0  0
 25 49  1  0  0  0
 26 27  1  0  0  0
 26 29  1  0  0  0
 26 50  1  0  0  0
 28 30  1  0  0  0
 28 51  1  0  0  0
 28 52  1  0  0  0
 28 53  1  0  0  0
 29 30  1  0  0  0
 29 54  1  0  0  0
 29 55  1  0  0  0
M  END
> <s_m_source_file>
../3t70_ligand.sdf

> <i_m_source_file_index>
1

> <s_epik_input>
W2NIXTFbY0hdYyg9TylbbkhdYyg9TyluMVtDQEhdMltDSDJdW0NASF0oW09IXSlbQ0BIXShPMilbQ0gyXVtOQEBIK10oW0NIM10pW0NIXShjM1tjSF1bY0hdW2NIXVtjSF1bY0hdMyljNFtjSF1bY0hdW2NIXVtjSF1bY0hdNA==

> <s_epik_cmdline>
J2VwaWtfYXBwJywgJy1pbWFlJywgJ2xpZ2FuZF9wcm8ubWFlJywgJy1vbWFlJywgJ2xpZ2FuZF9wcmVwLm1hZScsICctbXMnLCAnMScsICctcGgnLCAnNycsICctcGh0JywgJzAuNScsICctbnQn

> <r_lp_tautomer_probability>
0.999537046341301

> <r_epik_Ionization_Penalty>
  0.3185

> <r_epik_Ionization_Penalty_Charging>
  0.0020

> <r_epik_Ionization_Penalty_Neutral>
  0.3165

> <r_epik_State_Penalty>
  0.3108

> <r_epik_Charging_Adjusted_Penalty>
0.312794866352478

> <i_epik_Tot_Q>
0

> <i_epik_Tot_abs_Q>
0

> <s_epik_Chemistry_Notes>
This compound contains an acetal/aminal-like group ( X-CH(R)-Y where X, Y are N, S, or O) that may be acid/base labile, releasing an aldehyde.

$$$$
