3t7g_ligand
                    3D
 Schrodinger Suite 2020-3.
176175  0  0  1  0            999 V2000
   37.5870  -30.7610   25.0810 N   0  3  0  0  0  0
   37.2260  -31.2710   23.7600 C   0  0  2  0  0  0
   35.7100  -31.4670   23.6050 C   0  0  0  0  0  0
   35.2600  -32.3560   22.8780 O   0  0  0  0  0  0
   37.9580  -32.5830   23.4770 C   0  0  0  0  0  0
   34.9300  -30.6290   24.2830 N   0  0  0  0  0  0
   33.4770  -30.7630   24.2590 C   0  0  2  0  0  0
   32.9230  -30.7210   22.8360 C   0  0  0  0  0  0
   32.1100  -31.5620   22.4560 O   0  0  0  0  0  0
   32.7810  -29.7140   25.1500 C   0  0  2  0  0  0
   33.0990  -29.9790   26.6310 C   0  0  0  0  0  0
   31.2750  -29.7220   24.9080 C   0  0  0  0  0  0
   32.5990  -28.9100   27.5990 C   0  0  0  0  0  0
   33.3810  -29.7580   22.0440 N   0  0  0  0  0  0
   32.9000  -29.6050   20.6710 C   0  0  2  0  0  0
   33.2470  -30.8110   19.7920 C   0  0  0  0  0  0
   32.4830  -31.1790   18.8980 O   0  0  0  0  0  0
   33.4510  -28.3130   20.0480 C   0  0  0  0  0  0
   34.3870  -31.4360   20.0570 N   0  0  0  0  0  0
   34.7990  -32.6130   19.2940 C   0  0  2  0  0  0
   33.9120  -33.8170   19.6120 C   0  0  0  0  0  0
   33.4530  -34.5200   18.7140 O   0  0  0  0  0  0
   36.2670  -32.9540   19.5750 C   0  0  0  0  0  0
   33.6760  -34.0420   20.8990 N   0  0  0  0  0  0
   32.8150  -35.1320   21.3600 C   0  0  2  0  0  0
   31.4170  -35.0660   20.7330 C   0  0  0  0  0  0
   30.9330  -36.0480   20.1750 O   0  0  0  0  0  0
   32.7150  -35.1000   22.8890 C   0  0  0  0  0  0
   31.8260  -36.0970   23.6310 C   0  0  0  0  0  0
   32.1490  -36.0500   25.1110 C   0  0  0  0  0  0
   30.3320  -35.8320   23.4110 C   0  0  0  0  0  0
   30.7740  -33.9080   20.8430 N   0  0  0  0  0  0
   29.4260  -33.7000   20.3180 C   0  0  2  0  0  0
   29.3220  -33.9710   18.8140 C   0  0  0  0  0  0
   28.3470  -34.5660   18.3480 O   0  0  0  0  0  0
   28.9270  -32.2790   20.6140 C   0  0  2  0  0  0
   28.8820  -32.0350   22.1220 C   0  0  0  0  0  0
   27.5580  -32.0440   20.0000 C   0  0  0  0  0  0
   28.0610  -33.0490   22.8750 C   0  0  0  0  0  0
   30.3230  -33.5180   18.0620 N   0  0  0  0  0  0
   30.4070  -33.7800   16.6290 C   0  0  2  0  0  0
   30.4900  -35.2730   16.3290 C   0  0  0  0  0  0
   29.8430  -35.7620   15.4060 O   0  0  0  0  0  0
   31.6340  -33.0740   16.0170 C   0  0  0  0  0  0
   31.3050  -35.9950   17.0980 N   0  0  0  0  0  0
   31.4780  -37.4360   16.8970 C   0  0  2  0  0  0
   30.1930  -38.2200   17.2130 C   0  0  0  0  0  0
   30.0200  -39.3420   16.7480 O   0  0  0  0  0  0
   32.6330  -37.9810   17.7540 C   0  0  0  0  0  0
   33.9670  -37.3560   17.4040 C   0  0  0  0  0  0
   34.0600  -36.6540   16.3570 O   0  0  0  0  0  0
   34.9540  -37.5560   18.1630 O   0  0  0  0  0  0
   29.3090  -37.6260   18.0060 N   0  0  0  0  0  0
   28.0850  -38.2990   18.4430 C   0  0  2  0  0  0
   26.8550  -37.9230   17.6170 C   0  0  0  0  0  0
   25.7620  -38.4740   17.8220 O   0  0  0  0  0  0
   27.8120  -37.9970   19.9110 C   0  0  0  0  0  0
   28.7840  -38.6330   20.8520 C   0  0  0  0  0  0
   28.3000  -38.5180   22.5680 S   0  0  0  0  0  0
   26.7460  -39.4440   22.5840 C   0  0  0  0  0  0
   27.0280  -36.9770   16.6990 N   0  0  0  0  0  0
   25.9380  -36.5820   15.8170 C   0  0  2  0  0  0
   25.4720  -37.7360   14.9380 C   0  0  0  0  0  0
   26.2740  -38.4210   14.3170 O   0  0  0  0  0  0
   26.3240  -35.3950   14.9340 C   0  0  0  0  0  0
   25.2320  -35.0570   13.9290 C   0  0  0  0  0  0
   25.4330  -33.7100   13.2590 C   0  0  0  0  0  0
   24.5480  -33.3110   12.4680 O   0  0  0  0  0  0
   26.4690  -33.0590   13.5280 O   0  0  0  0  0  0
   24.1640  -37.9370   14.8810 N   0  0  0  0  0  0
   23.6060  -38.9940   14.0580 C   0  0  2  0  0  0
   22.7980  -38.4170   12.9030 C   0  0  0  0  0  0
   22.6460  -37.1990   12.7840 O   0  0  0  0  0  0
   22.7450  -39.9680   14.8830 C   0  0  2  0  0  0
   21.5690  -39.2410   15.5350 C   0  0  0  0  0  0
   23.6010  -40.6640   15.9360 C   0  0  0  0  0  0
   20.5860  -40.1800   16.2160 C   0  0  0  0  0  0
   22.2980  -39.3060   12.0500 N   0  0  0  0  0  0
   21.5380  -38.9240   10.8670 C   0  0  2  0  0  0
   20.0960  -39.3840   11.0040 C   0  0  0  0  0  0
   19.8030  -40.3110   11.7620 O   0  0  0  0  0  0
   22.1660  -39.5280    9.6080 C   0  0  0  0  0  0
   19.1922  -38.8130   10.3372 O   0  0  0  0  0  0
   37.0525  -29.8181   25.2686 H   0  0  0  0  0  0
   38.6716  -30.5820   25.1211 H   0  0  0  0  0  0
   37.3086  -31.4991   25.8476 H   0  0  0  0  0  0
   37.5588  -30.4858   23.0653 H   0  0  0  0  0  0
   39.0414  -32.4304   23.5910 H   0  0  0  0  0  0
   37.7399  -32.9104   22.4497 H   0  0  0  0  0  0
   37.6194  -33.3522   24.1867 H   0  0  0  0  0  0
   35.3985  -29.8244   24.8688 H   0  0  0  0  0  0
   33.3106  -31.7674   24.6755 H   0  0  0  0  0  0
   33.1535  -28.7131   24.8865 H   0  0  0  0  0  0
   32.6355  -30.9270   26.9416 H   0  0  0  0  0  0
   34.1888  -30.0420   26.7665 H   0  0  0  0  0  0
   31.0737  -29.5306   23.8437 H   0  0  0  0  0  0
   30.8015  -28.9382   25.5175 H   0  0  0  0  0  0
   30.8638  -30.7030   25.1883 H   0  0  0  0  0  0
   32.8738  -29.1888   28.6270 H   0  0  0  0  0  0
   31.5048  -28.8280   27.5214 H   0  0  0  0  0  0
   33.0581  -27.9429   27.3462 H   0  0  0  0  0  0
   34.1387  -29.0668   22.4416 H   0  0  0  0  0  0
   31.8061  -29.5519   20.7733 H   0  0  0  0  0  0
   33.1939  -27.4577   20.6901 H   0  0  0  0  0  0
   33.0089  -28.1691   19.0511 H   0  0  0  0  0  0
   34.5447  -28.3873   19.9568 H   0  0  0  0  0  0
   35.0261  -31.0541   20.8668 H   0  0  0  0  0  0
   34.6682  -32.3281   18.2396 H   0  0  0  0  0  0
   36.8967  -32.0823   19.3434 H   0  0  0  0  0  0
   36.5725  -33.8042   18.9474 H   0  0  0  0  0  0
   36.3850  -33.2201   20.6358 H   0  0  0  0  0  0
   34.1549  -33.3730   21.6291 H   0  0  0  0  0  0
   33.3090  -36.0534   21.0180 H   0  0  0  0  0  0
   33.7112  -35.2654   23.3251 H   0  0  0  0  0  0
   32.3319  -34.1204   23.2110 H   0  0  0  0  0  0
   32.0421  -37.0999   23.2341 H   0  0  0  0  0  0
   33.2222  -36.2411   25.2583 H   0  0  0  0  0  0
   31.5640  -36.8178   25.6385 H   0  0  0  0  0  0
   31.8952  -35.0570   25.5103 H   0  0  0  0  0  0
   30.1078  -35.8682   22.3347 H   0  0  0  0  0  0
   30.0738  -34.8384   23.8061 H   0  0  0  0  0  0
   29.7426  -36.5993   23.9343 H   0  0  0  0  0  0
   31.2980  -33.0869   21.3541 H   0  0  0  0  0  0
   28.8329  -34.4500   20.8618 H   0  0  0  0  0  0
   29.6245  -31.5609   20.1581 H   0  0  0  0  0  0
   29.9029  -32.0720   22.5300 H   0  0  0  0  0  0
   28.4434  -31.0459   22.3205 H   0  0  0  0  0  0
   27.6067  -32.2234   18.9158 H   0  0  0  0  0  0
   27.2460  -31.0058   20.1862 H   0  0  0  0  0  0
   26.8298  -32.7327   20.4532 H   0  0  0  0  0  0
   28.0758  -32.8087   23.9483 H   0  0  0  0  0  0
   28.4836  -34.0524   22.7180 H   0  0  0  0  0  0
   27.0241  -33.0263   22.5085 H   0  0  0  0  0  0
   31.1054  -32.9262   18.5597 H   0  0  0  0  0  0
   29.4651  -33.3767   16.2287 H   0  0  0  0  0  0
   31.5807  -31.9961   16.2297 H   0  0  0  0  0  0
   31.6435  -33.2330   14.9286 H   0  0  0  0  0  0
   32.5530  -33.4894   16.4563 H   0  0  0  0  0  0
   31.8553  -35.4816   17.9003 H   0  0  0  0  0  0
   31.7141  -37.5233   15.8262 H   0  0  0  0  0  0
   32.4320  -37.7729   18.8153 H   0  0  0  0  0  0
   32.7204  -39.0671   17.6035 H   0  0  0  0  0  0
   35.0216  -36.1926   16.0878 H   0  0  0  0  0  0
   29.5185  -36.5974   18.3349 H   0  0  0  0  0  0
   28.3051  -39.3646   18.2813 H   0  0  0  0  0  0
   27.8616  -36.9108   20.0773 H   0  0  0  0  0  0
   26.8107  -38.3638   20.1808 H   0  0  0  0  0  0
   28.8830  -39.7015   20.6100 H   0  0  0  0  0  0
   29.7637  -38.1426   20.7540 H   0  0  0  0  0  0
   26.3335  -39.4504   23.6037 H   0  0  0  0  0  0
   26.9318  -40.4777   22.2571 H   0  0  0  0  0  0
   26.0278  -38.9669   21.9009 H   0  0  0  0  0  0
   28.0107  -36.4908   16.6107 H   0  0  0  0  0  0
   25.1374  -36.2950   16.5146 H   0  0  0  0  0  0
   26.4980  -34.5104   15.5643 H   0  0  0  0  0  0
   27.2420  -35.6351   14.3776 H   0  0  0  0  0  0
   25.2117  -35.8217   13.1386 H   0  0  0  0  0  0
   24.2583  -35.0321   14.4401 H   0  0  0  0  0  0
   26.6410  -32.0798   13.0573 H   0  0  0  0  0  0
   23.4982  -37.2885   15.4694 H   0  0  0  0  0  0
   24.4896  -39.5189   13.6659 H   0  0  0  0  0  0
   22.3321  -40.7351   14.2113 H   0  0  0  0  0  0
   21.9462  -38.5449   16.2986 H   0  0  0  0  0  0
   21.0147  -38.6794   14.7686 H   0  0  0  0  0  0
   24.4394  -41.1794   15.4448 H   0  0  0  0  0  0
   22.9881  -41.3974   16.4805 H   0  0  0  0  0  0
   23.9928  -39.9171   16.6422 H   0  0  0  0  0  0
   19.7686  -39.5945   16.6621 H   0  0  0  0  0  0
   21.1049  -40.7452   17.0043 H   0  0  0  0  0  0
   20.1734  -40.8797   15.4742 H   0  0  0  0  0  0
   22.4789  -40.3689   12.2680 H   0  0  0  0  0  0
   21.5790  -37.8257   10.8207 H   0  0  0  0  0  0
   23.2085  -39.1885    9.5193 H   0  0  0  0  0  0
   21.5982  -39.2038    8.7234 H   0  0  0  0  0  0
   22.1424  -40.6256    9.6769 H   0  0  0  0  0  0
   18.1470  -39.1422   10.4328 H   0  0  0  0  0  0
  1  2  1  0  0  0
  1 84  1  0  0  0
  1 85  1  0  0  0
  1 86  1  0  0  0
  2  3  1  0  0  0
  2  5  1  0  0  0
  2 87  1  0  0  0
  3  4  2  0  0  0
  3  6  1  0  0  0
  5 88  1  0  0  0
  5 89  1  0  0  0
  5 90  1  0  0  0
  6  7  1  0  0  0
  6 91  1  0  0  0
  7  8  1  0  0  0
  7 10  1  0  0  0
  7 92  1  0  0  0
  8  9  2  0  0  0
  8 14  1  0  0  0
 10 11  1  0  0  0
 10 12  1  0  0  0
 10 93  1  0  0  0
 11 13  1  0  0  0
 11 94  1  0  0  0
 11 95  1  0  0  0
 12 96  1  0  0  0
 12 97  1  0  0  0
 12 98  1  0  0  0
 13 99  1  0  0  0
 13100  1  0  0  0
 13101  1  0  0  0
 14 15  1  0  0  0
 14102  1  0  0  0
 15 16  1  0  0  0
 15 18  1  0  0  0
 15103  1  0  0  0
 16 17  2  0  0  0
 16 19  1  0  0  0
 18104  1  0  0  0
 18105  1  0  0  0
 18106  1  0  0  0
 19 20  1  0  0  0
 19107  1  0  0  0
 20 21  1  0  0  0
 20 23  1  0  0  0
 20108  1  0  0  0
 21 22  2  0  0  0
 21 24  1  0  0  0
 23109  1  0  0  0
 23110  1  0  0  0
 23111  1  0  0  0
 24 25  1  0  0  0
 24112  1  0  0  0
 25 26  1  0  0  0
 25 28  1  0  0  0
 25113  1  0  0  0
 26 27  2  0  0  0
 26 32  1  0  0  0
 28 29  1  0  0  0
 28114  1  0  0  0
 28115  1  0  0  0
 29 30  1  0  0  0
 29 31  1  0  0  0
 29116  1  0  0  0
 30117  1  0  0  0
 30118  1  0  0  0
 30119  1  0  0  0
 31120  1  0  0  0
 31121  1  0  0  0
 31122  1  0  0  0
 32 33  1  0  0  0
 32123  1  0  0  0
 33 34  1  0  0  0
 33 36  1  0  0  0
 33124  1  0  0  0
 34 35  2  0  0  0
 34 40  1  0  0  0
 36 37  1  0  0  0
 36 38  1  0  0  0
 36125  1  0  0  0
 37 39  1  0  0  0
 37126  1  0  0  0
 37127  1  0  0  0
 38128  1  0  0  0
 38129  1  0  0  0
 38130  1  0  0  0
 39131  1  0  0  0
 39132  1  0  0  0
 39133  1  0  0  0
 40 41  1  0  0  0
 40134  1  0  0  0
 41 42  1  0  0  0
 41 44  1  0  0  0
 41135  1  0  0  0
 42 43  2  0  0  0
 42 45  1  0  0  0
 44136  1  0  0  0
 44137  1  0  0  0
 44138  1  0  0  0
 45 46  1  0  0  0
 45139  1  0  0  0
 46 47  1  0  0  0
 46 49  1  0  0  0
 46140  1  0  0  0
 47 48  2  0  0  0
 47 53  1  0  0  0
 49 50  1  0  0  0
 49141  1  0  0  0
 49142  1  0  0  0
 50 51  1  0  0  0
 50 52  2  0  0  0
 51143  1  0  0  0
 53 54  1  0  0  0
 53144  1  0  0  0
 54 55  1  0  0  0
 54 57  1  0  0  0
 54145  1  0  0  0
 55 56  2  0  0  0
 55 61  1  0  0  0
 57 58  1  0  0  0
 57146  1  0  0  0
 57147  1  0  0  0
 58 59  1  0  0  0
 58148  1  0  0  0
 58149  1  0  0  0
 59 60  1  0  0  0
 60150  1  0  0  0
 60151  1  0  0  0
 60152  1  0  0  0
 61 62  1  0  0  0
 61153  1  0  0  0
 62 63  1  0  0  0
 62 65  1  0  0  0
 62154  1  0  0  0
 63 64  2  0  0  0
 63 70  1  0  0  0
 65 66  1  0  0  0
 65155  1  0  0  0
 65156  1  0  0  0
 66 67  1  0  0  0
 66157  1  0  0  0
 66158  1  0  0  0
 67 68  2  0  0  0
 67 69  1  0  0  0
 69159  1  0  0  0
 70 71  1  0  0  0
 70160  1  0  0  0
 71 72  1  0  0  0
 71 74  1  0  0  0
 71161  1  0  0  0
 72 73  2  0  0  0
 72 78  1  0  0  0
 74 75  1  0  0  0
 74 76  1  0  0  0
 74162  1  0  0  0
 75 77  1  0  0  0
 75163  1  0  0  0
 75164  1  0  0  0
 76165  1  0  0  0
 76166  1  0  0  0
 76167  1  0  0  0
 77168  1  0  0  0
 77169  1  0  0  0
 77170  1  0  0  0
 78 79  1  0  0  0
 78171  1  0  0  0
 79 80  1  0  0  0
 79 82  1  0  0  0
 79172  1  0  0  0
 80 81  2  0  0  0
 80 83  1  0  0  0
 82173  1  0  0  0
 82174  1  0  0  0
 82175  1  0  0  0
 83176  1  0  0  0
M  CHG  1   1   1
M  END
> <s_m_source_file>
../3t7g_ligand.sdf

> <i_m_source_file_index>
1

> <s_epik_input>
W05IMytdW0NAQEhdKFtDSDNdKUMoPU8pW05IXVtDQEBIXShbQ0BASF0oW0NIM10pW0NIMl1bQ0gzXSlDKD1PKVtOSF1bQ0BASF0oW0NIM10pQyg9TylbTkhdW0NAQEhdKFtDSDNdKUMoPU8pW05IXVtDQEBIXShbQ0gyXVtDSF0oW0NIM10pW0NIM10pQyg9TylbTkhdW0NAQEhdKFtDQEBIXShbQ0gzXSlbQ0gyXVtDSDNdKUMoPU8pW05IXVtDQEBIXShbQ0gzXSlDKD1PKVtOSF1bQ0BASF0oW0NIMl1DKD1PKVtPSF0pQyg9TylbTkhdW0NAQEhdKFtDSDJdW0NIMl1TW0NIM10pQyg9TylbTkhdW0NAQEhdKFtDSDJdW0NIMl1DKD1PKVtPSF0pQyg9TylbTkhdW0NAQEhdKFtDQEBIXShbQ0gzXSlbQ0gyXVtDSDNdKUMoPU8pW05IXVtDQEBIXShbQ0gzXSlDKD1PKVtPSF0=

> <s_epik_cmdline>
J2VwaWtfYXBwJywgJy1pbWFlJywgJ2xpZ2FuZF9wcm8ubWFlJywgJy1vbWFlJywgJ2xpZ2FuZF9wcmVwLm1hZScsICctbXMnLCAnMScsICctcGgnLCAnNycsICctcGh0JywgJzAuNScsICctbnQn

> <s_epik_pKa_notes>
Molecule size exceeds maximum supported for generating protonation states

$$$$
