3t83_ligand
                    3D
 Schrodinger Suite 2020-3.
 51 51  0  0  1  0            999 V2000
   17.2500    0.1640   12.0210 C   0  0  0  0  0  0
   16.9470    0.2990   13.3080 O   0  0  0  0  0  0
   16.5780    1.1660   11.2220 C   0  0  1  0  0  0
   17.0280    2.6100   11.5970 C   0  0  2  0  0  0
   17.2010    2.7990   13.2620 C   0  0  1  0  0  0
   17.6150    1.3570   13.9260 C   0  0  1  0  0  0
   18.5050   -0.2200   11.6140 O   0  0  0  0  0  0
   16.6380    0.9710    9.8500 O   0  0  0  0  0  0
   15.6410    1.1640    9.0760 C   0  0  0  0  0  0
   14.6960    1.9050    9.4540 O   0  0  0  0  0  0
   15.8760    0.9360    7.6080 C   0  0  0  0  0  0
   15.9440    2.1330    6.7210 C   0  0  0  0  0  0
   16.3310    3.6600   10.9970 O   0  0  0  0  0  0
   16.8990    4.5000   10.2080 C   0  0  0  0  0  0
   18.0100    4.2240    9.7000 O   0  0  0  0  0  0
   16.0330    5.5950    9.6370 C   0  0  0  0  0  0
   16.4810    6.2490    8.3450 C   0  0  0  0  0  0
   17.9540    3.9120   13.6600 O   0  0  0  0  0  0
   17.3890    5.0340   13.9370 C   0  0  0  0  0  0
   16.1500    5.1520   13.8350 O   0  0  0  0  0  0
   18.2450    6.2150   14.3090 C   0  0  0  0  0  0
   19.3530    6.5700   13.3590 C   0  0  0  0  0  0
   17.4650    1.4870   15.4260 C   0  0  0  0  0  0
   16.1520    1.8700   15.7610 O   0  0  0  0  0  0
   15.5310    1.1290   16.8980 S   0  0  0  0  0  0
   14.1040    1.4670   16.9110 O   0  0  0  0  0  0
   16.2480    1.5170   18.1050 O   0  0  0  0  0  0
   15.8200   -0.3960   16.7090 N   0  0  0  0  0  0
   15.5154    0.9440   11.4000 H   0  0  0  0  0  0
   17.9126    2.7962   10.9703 H   0  0  0  0  0  0
   16.3419    3.2467   13.7831 H   0  0  0  0  0  0
   18.6169    0.9390   13.7487 H   0  0  0  0  0  0
   16.8359    0.4178    7.4665 H   0  0  0  0  0  0
   15.0626    0.3195    7.1978 H   0  0  0  0  0  0
   16.1189    1.8113    5.6838 H   0  0  0  0  0  0
   16.7683    2.7844    7.0468 H   0  0  0  0  0  0
   14.9949    2.6861    6.7782 H   0  0  0  0  0  0
   15.0300    5.1962    9.4250 H   0  0  0  0  0  0
   15.9547    6.4171   10.3637 H   0  0  0  0  0  0
   15.7548    7.0224    8.0545 H   0  0  0  0  0  0
   16.5443    5.4891    7.5521 H   0  0  0  0  0  0
   17.4690    6.7100    8.4908 H   0  0  0  0  0  0
   17.6162    7.1144   14.3844 H   0  0  0  0  0  0
   18.7309    6.0252   15.2774 H   0  0  0  0  0  0
   19.8993    7.4440   13.7431 H   0  0  0  0  0  0
   18.9281    6.8076   12.3726 H   0  0  0  0  0  0
   20.0429    5.7183   13.2656 H   0  0  0  0  0  0
   17.6868    0.5203   15.9018 H   0  0  0  0  0  0
   18.1649    2.2488   15.7999 H   0  0  0  0  0  0
   15.3694   -0.9602   17.5389 H   0  0  0  0  0  0
   16.9069   -0.5646   16.6985 H   0  0  0  0  0  0
  1  2  1  0  0  0
  1  3  1  0  0  0
  1  7  2  0  0  0
  2  6  1  0  0  0
  3  4  1  0  0  0
  3  8  1  0  0  0
  3 29  1  0  0  0
  4  5  1  0  0  0
  4 13  1  0  0  0
  4 30  1  0  0  0
  5  6  1  0  0  0
  5 18  1  0  0  0
  5 31  1  0  0  0
  6 23  1  0  0  0
  6 32  1  0  0  0
  8  9  1  0  0  0
  9 10  2  0  0  0
  9 11  1  0  0  0
 11 12  1  0  0  0
 11 33  1  0  0  0
 11 34  1  0  0  0
 12 35  1  0  0  0
 12 36  1  0  0  0
 12 37  1  0  0  0
 13 14  1  0  0  0
 14 15  2  0  0  0
 14 16  1  0  0  0
 16 17  1  0  0  0
 16 38  1  0  0  0
 16 39  1  0  0  0
 17 40  1  0  0  0
 17 41  1  0  0  0
 17 42  1  0  0  0
 18 19  1  0  0  0
 19 20  2  0  0  0
 19 21  1  0  0  0
 21 22  1  0  0  0
 21 43  1  0  0  0
 21 44  1  0  0  0
 22 45  1  0  0  0
 22 46  1  0  0  0
 22 47  1  0  0  0
 23 24  1  0  0  0
 23 48  1  0  0  0
 23 49  1  0  0  0
 24 25  1  0  0  0
 25 26  2  0  0  0
 25 27  2  0  0  0
 25 28  1  0  0  0
 28 50  1  0  0  0
 28 51  1  0  0  0
M  END
> <s_m_source_file>
../3t83_ligand.sdf

> <i_m_source_file_index>
1

> <s_epik_input>
Tz1TKD1PKShbTkgyXSlPW0NIMl1bQ0BASF0oT0MxPU8pW0NAQEhdKE9DKD1PKVtDSDJdW0NIM10pW0NASF0oT0MoPU8pW0NIMl1bQ0gzXSlbQ0BIXTFPQyg9TylbQ0gyXVtDSDNd

> <s_epik_cmdline>
J2VwaWtfYXBwJywgJy1pbWFlJywgJ2xpZ2FuZF9wcm8ubWFlJywgJy1vbWFlJywgJ2xpZ2FuZF9wcmVwLm1hZScsICctbXMnLCAnMScsICctcGgnLCAnNycsICctcGh0JywgJzAuNScsICctbnQn

> <r_epik_Ionization_Penalty>
  0.0132

> <r_epik_Ionization_Penalty_Charging>
  0.0000

> <r_epik_Ionization_Penalty_Neutral>
  0.0132

> <r_epik_State_Penalty>
  0.0103

> <r_epik_Charging_Adjusted_Penalty>
0.0102979679857917

> <i_epik_Tot_Q>
0

> <i_epik_Tot_abs_Q>
0

> <s_epik_Chemistry_Notes>
This compound has an ester and may undergo hydrolysis at high or low pH.

$$$$
