3t84_ligand
                    3D
 Schrodinger Suite 2020-3.
 34 34  0  0  1  0            999 V2000
   16.8280   -0.9160   11.7370 C   0  0  1  0  0  0
   16.7780   -0.7360   13.1360 O   0  0  0  0  0  0
   16.3060    0.2350   11.0090 C   0  0  1  0  0  0
   16.9720    1.4900   11.2790 C   0  0  2  0  0  0
   17.0290    1.7470   12.7340 C   0  0  2  0  0  0
   17.3890    0.5030   13.5480 C   0  0  1  0  0  0
   18.1020   -1.2750   11.2620 O   0  0  0  0  0  0
   16.2090   -0.0490    9.6460 O   0  0  0  0  0  0
   16.5180    2.5410   10.4690 O   0  0  0  0  0  0
   15.8980    2.4350   13.2230 O   0  0  0  0  0  0
   14.8500    4.0770   14.6020 C   0  0  0  0  0  0
   16.0510    3.4480   13.9750 C   0  0  0  0  0  0
   17.1990    3.8120   14.3640 O   0  0  0  0  0  0
   17.4320    0.6120   15.0700 C   0  0  0  0  0  0
   16.2230    0.9770   15.6230 O   0  0  0  0  0  0
   15.4380    0.0960   16.5130 S   0  0  0  0  0  0
   14.0740    0.4180   16.9500 O   0  0  0  0  0  0
   16.0570    0.6770   17.7030 O   0  0  0  0  0  0
   15.8140   -1.4290   16.4490 N   0  0  0  0  0  0
   16.1924   -1.7961   11.5595 H   0  0  0  0  0  0
   15.2754    0.4050   11.3538 H   0  0  0  0  0  0
   18.0082    1.4383   10.9135 H   0  0  0  0  0  0
   17.8072    2.5111   12.8769 H   0  0  0  0  0  0
   18.4299    0.3751   13.2160 H   0  0  0  0  0  0
   18.6353   -2.1273   11.7083 H   0  0  0  0  0  0
   15.7223   -0.9767    9.3108 H   0  0  0  0  0  0
   16.4545    2.4074    9.3790 H   0  0  0  0  0  0
   13.9387    3.6531   14.1550 H   0  0  0  0  0  0
   14.8724    5.1631   14.4288 H   0  0  0  0  0  0
   14.8546    3.8780   15.6838 H   0  0  0  0  0  0
   17.7134   -0.3608   15.4994 H   0  0  0  0  0  0
   18.1734    1.3702   15.3625 H   0  0  0  0  0  0
   15.1756   -1.9935   17.1445 H   0  0  0  0  0  0
   16.8690   -1.5587   16.7321 H   0  0  0  0  0  0
  1  2  1  0  0  0
  1  3  1  0  0  0
  1  7  1  0  0  0
  1 20  1  0  0  0
  2  6  1  0  0  0
  3  4  1  0  0  0
  3  8  1  0  0  0
  3 21  1  0  0  0
  4  5  1  0  0  0
  4  9  1  0  0  0
  4 22  1  0  0  0
  5  6  1  0  0  0
  5 10  1  0  0  0
  5 23  1  0  0  0
  6 14  1  0  0  0
  6 24  1  0  0  0
  7 25  1  0  0  0
  8 26  1  0  0  0
  9 27  1  0  0  0
 10 12  1  0  0  0
 11 12  1  0  0  0
 11 28  1  0  0  0
 11 29  1  0  0  0
 11 30  1  0  0  0
 12 13  2  0  0  0
 14 15  1  0  0  0
 14 31  1  0  0  0
 14 32  1  0  0  0
 15 16  1  0  0  0
 16 17  2  0  0  0
 16 18  2  0  0  0
 16 19  1  0  0  0
 19 33  1  0  0  0
 19 34  1  0  0  0
M  END
> <s_m_source_file>
../3t84_ligand.sdf

> <i_m_source_file_index>
1

> <s_epik_input>
Tz1TKD1PKShbTkgyXSlPW0NIMl1bQ0BASF0oT1tDQEBIXTFbT0hdKVtDQEBIXShbQ0BIXShbT0hdKVtDQEhdMVtPSF0pT0MoPU8pW0NIM10=

> <s_epik_cmdline>
J2VwaWtfYXBwJywgJy1pbWFlJywgJ2xpZ2FuZF9wcm8ubWFlJywgJy1vbWFlJywgJ2xpZ2FuZF9wcmVwLm1hZScsICctbXMnLCAnMScsICctcGgnLCAnNycsICctcGh0JywgJzAuNScsICctbnQn

> <r_lp_tautomer_probability>
1

> <r_epik_Ionization_Penalty>
  0.0074

> <r_epik_Ionization_Penalty_Charging>
  0.0000

> <r_epik_Ionization_Penalty_Neutral>
  0.0074

> <r_epik_State_Penalty>
 -0.0000

> <r_epik_Charging_Adjusted_Penalty>
0

> <i_epik_Tot_Q>
0

> <i_epik_Tot_abs_Q>
0

> <s_epik_Chemistry_Notes>
This compound has an ester and may undergo hydrolysis at high or low pH. This compound contains an acetal/aminal-like group ( X-CH(R)-Y where X, Y are N, S, or O) that may be acid/base labile, releasing an aldehyde.

$$$$
