3t85_ligand
                    3D
 Schrodinger Suite 2020-3.
 39 39  0  0  1  0            999 V2000
   16.9100    1.9370   11.6300 C   0  0  1  0  0  0
   16.8830    2.0640   13.0700 O   0  0  0  0  0  0
   16.5680    3.1850   10.8550 C   0  0  2  0  0  0
   17.0400    4.4280   11.4420 C   0  0  2  0  0  0
   16.8440    4.5030   12.8700 C   0  0  1  0  0  0
   17.4380    3.2840   13.5290 C   0  0  1  0  0  0
   18.1250    1.4390   11.2350 O   0  0  0  0  0  0
   15.1630    3.2430   10.7540 O   0  0  0  0  0  0
   16.3210    5.5110   10.8810 O   0  0  0  0  0  0
   16.9150    6.3120   10.0940 C   0  0  0  0  0  0
   16.2040    7.5370    9.5780 C   0  0  0  0  0  0
   18.1010    6.0840    9.7800 O   0  0  0  0  0  0
   17.5150    5.6200   13.3900 O   0  0  0  0  0  0
   17.8020    7.8540   14.2910 C   0  0  0  0  0  0
   16.9330    6.6940   13.8560 C   0  0  0  0  0  0
   15.6940    6.9050   13.6370 O   0  0  0  0  0  0
   17.4160    2.9590   15.0090 C   0  0  0  0  0  0
   16.3320    3.5160   15.6880 O   0  0  0  0  0  0
   15.4200    2.6410   16.4770 S   0  0  0  0  0  0
   14.0320    3.0260   16.7900 O   0  0  0  0  0  0
   15.9420    3.1630   17.7480 O   0  0  0  0  0  0
   15.8140    1.1460   16.6140 N   0  0  0  0  0  0
   16.1644    1.1641   11.3920 H   0  0  0  0  0  0
   17.0345    3.1432    9.8597 H   0  0  0  0  0  0
   18.1163    4.4940   11.2247 H   0  0  0  0  0  0
   15.7673    4.6334   13.0535 H   0  0  0  0  0  0
   18.4536    3.5667   13.2150 H   0  0  0  0  0  0
   18.5244    0.5274   11.7035 H   0  0  0  0  0  0
   14.6064    2.3934   10.3317 H   0  0  0  0  0  0
   15.1752    7.5548    9.9668 H   0  0  0  0  0  0
   16.1801    7.5112    8.4786 H   0  0  0  0  0  0
   16.7380    8.4388    9.9121 H   0  0  0  0  0  0
   18.8348    7.5042   14.4361 H   0  0  0  0  0  0
   17.4180    8.2656   15.2361 H   0  0  0  0  0  0
   17.7849    8.6354   13.5170 H   0  0  0  0  0  0
   17.3626    1.8686   15.1442 H   0  0  0  0  0  0
   18.3318    3.3427   15.4823 H   0  0  0  0  0  0
   15.0581    0.6214   17.2168 H   0  0  0  0  0  0
   16.7943    1.0689   17.1070 H   0  0  0  0  0  0
  1  2  1  0  0  0
  1  3  1  0  0  0
  1  7  1  0  0  0
  1 23  1  0  0  0
  2  6  1  0  0  0
  3  4  1  0  0  0
  3  8  1  0  0  0
  3 24  1  0  0  0
  4  5  1  0  0  0
  4  9  1  0  0  0
  4 25  1  0  0  0
  5  6  1  0  0  0
  5 13  1  0  0  0
  5 26  1  0  0  0
  6 17  1  0  0  0
  6 27  1  0  0  0
  7 28  1  0  0  0
  8 29  1  0  0  0
  9 10  1  0  0  0
 10 11  1  0  0  0
 10 12  2  0  0  0
 11 30  1  0  0  0
 11 31  1  0  0  0
 11 32  1  0  0  0
 13 15  1  0  0  0
 14 15  1  0  0  0
 14 33  1  0  0  0
 14 34  1  0  0  0
 14 35  1  0  0  0
 15 16  2  0  0  0
 17 18  1  0  0  0
 17 36  1  0  0  0
 17 37  1  0  0  0
 18 19  1  0  0  0
 19 20  2  0  0  0
 19 21  2  0  0  0
 19 22  1  0  0  0
 22 38  1  0  0  0
 22 39  1  0  0  0
M  END
> <s_m_source_file>
../3t85_ligand.sdf

> <i_m_source_file_index>
1

> <s_epik_input>
Tz1TKD1PKShbTkgyXSlPW0NIMl1bQ0BASF0oT1tDQEBIXTFbT0hdKVtDQEBIXShPQyg9TylbQ0gzXSlbQ0BASF0oW0NAQEhdMVtPSF0pT0MoPU8pW0NIM10=

> <s_epik_cmdline>
J2VwaWtfYXBwJywgJy1pbWFlJywgJ2xpZ2FuZF9wcm8ubWFlJywgJy1vbWFlJywgJ2xpZ2FuZF9wcmVwLm1hZScsICctbXMnLCAnMScsICctcGgnLCAnNycsICctcGh0JywgJzAuNScsICctbnQn

> <r_lp_tautomer_probability>
1

> <r_epik_Ionization_Penalty>
  0.0086

> <r_epik_Ionization_Penalty_Charging>
  0.0000

> <r_epik_Ionization_Penalty_Neutral>
  0.0086

> <r_epik_State_Penalty>
 -0.0000

> <r_epik_Charging_Adjusted_Penalty>
0

> <i_epik_Tot_Q>
0

> <i_epik_Tot_abs_Q>
0

> <s_epik_Chemistry_Notes>
This compound has an ester and may undergo hydrolysis at high or low pH. This compound contains an acetal/aminal-like group ( X-CH(R)-Y where X, Y are N, S, or O) that may be acid/base labile, releasing an aldehyde.

$$$$
