3t8s_ligand
                    3D
 Schrodinger Suite 2020-3.
 33 33  0  0  1  0            999 V2000
  -37.8860   -5.8440   26.0430 C   0  0  2  0  0  0
  -36.5920   -6.4210   26.6520 C   0  0  1  0  0  0
  -35.3340   -6.0540   25.8660 C   0  0  1  0  0  0
  -35.2600   -4.5640   25.5350 C   0  0  2  0  0  0
  -36.5350   -4.0720   24.8440 C   0  0  1  0  0  0
  -37.7960   -4.3550   25.6590 C   0  0  1  0  0  0
  -38.9620   -6.0780   26.9700 O   0  0  0  0  0  0
  -36.4530   -6.0340   28.0350 O   0  0  0  0  0  0
  -34.1840   -6.4800   26.6240 O   0  0  0  0  0  0
  -34.1510   -4.3460   24.6660 O   0  0  0  0  0  0
  -36.4180   -2.6630   24.6490 O   0  0  0  0  0  0
  -38.9470   -3.9470   24.8900 O   0  0  0  0  0  0
  -40.3850   -6.7460   26.5360 P   0  0  0  0  0  0
  -41.2960   -5.5530   26.2840 O   0  5  0  0  0  0
  -40.7750   -7.6260   27.7080 O   0  5  0  0  0  0
  -40.1310   -7.5600   25.2840 O   0  0  0  0  0  0
  -32.6260   -4.5020   25.1610 P   0  0  0  0  0  0
  -32.5800   -3.9240   26.5810 O   0  5  0  0  0  0
  -32.4340   -5.9950   25.0440 O   0  0  0  0  0  0
  -31.8610   -3.6940   24.1260 O   0  5  0  0  0  0
  -35.9860   -2.0540   23.2020 P   0  0  0  0  0  0
  -36.1760   -0.5640   23.4190 O   0  0  0  0  0  0
  -34.5140   -2.3930   23.0000 O   0  5  0  0  0  0
  -36.9320   -2.7280   22.2080 O   0  5  0  0  0  0
  -38.1330   -6.3877   25.1192 H   0  0  0  0  0  0
  -36.6769   -7.5177   26.6619 H   0  0  0  0  0  0
  -35.3073   -6.6019   24.9125 H   0  0  0  0  0  0
  -35.0811   -3.9824   26.4514 H   0  0  0  0  0  0
  -36.6336   -4.5490   23.8577 H   0  0  0  0  0  0
  -37.8113   -3.7459   26.5749 H   0  0  0  0  0  0
  -37.2712   -6.2259   28.7447 H   0  0  0  0  0  0
  -34.0912   -7.5297   26.9393 H   0  0  0  0  0  0
  -39.9579   -4.0693   25.3060 H   0  0  0  0  0  0
  1  2  1  0  0  0
  1  6  1  0  0  0
  1  7  1  0  0  0
  1 25  1  0  0  0
  2  3  1  0  0  0
  2  8  1  0  0  0
  2 26  1  0  0  0
  3  4  1  0  0  0
  3  9  1  0  0  0
  3 27  1  0  0  0
  4  5  1  0  0  0
  4 10  1  0  0  0
  4 28  1  0  0  0
  5  6  1  0  0  0
  5 11  1  0  0  0
  5 29  1  0  0  0
  6 12  1  0  0  0
  6 30  1  0  0  0
  7 13  1  0  0  0
  8 31  1  0  0  0
  9 32  1  0  0  0
 10 17  1  0  0  0
 11 21  1  0  0  0
 12 33  1  0  0  0
 13 14  1  0  0  0
 13 15  1  0  0  0
 13 16  2  0  0  0
 17 18  1  0  0  0
 17 19  2  0  0  0
 17 20  1  0  0  0
 21 22  2  0  0  0
 21 23  1  0  0  0
 21 24  1  0  0  0
M  CHG  6  14  -1  15  -1  18  -1  20  -1  23  -1  24  -1
M  END
> <s_m_source_file>
../3t8s_ligand.sdf

> <i_m_source_file_index>
1

> <s_epik_input>
W09IXVAoPU8pKFtPSF0pT1tDQEBIXTFbQ0BIXShbT0hdKVtDQEhdKFtPSF0pW0NAQEhdKE9QKD1PKShbT0hdKVtPSF0pW0NAQEhdKFtDQEhdMVtPSF0pT1AoPU8pKFtPSF0pW09IXQ==

> <s_epik_cmdline>
J2VwaWtfYXBwJywgJy1pbWFlJywgJ2xpZ2FuZF9wcm8ubWFlJywgJy1vbWFlJywgJ2xpZ2FuZF9wcmVwLm1hZScsICctbXMnLCAnMScsICctcGgnLCAnNycsICctcGh0JywgJzAuNScsICctbnQn

> <r_epik_Ionization_Penalty>
  0.3495

> <r_epik_Ionization_Penalty_Charging>
  0.3495

> <r_epik_Ionization_Penalty_Neutral>
  0.0000

> <r_epik_State_Penalty>
  0.1949

> <r_epik_Charging_Adjusted_Penalty>
0.544395994108791

> <i_epik_Tot_Q>
-6

> <i_epik_Tot_abs_Q>
6

$$$$
