3t8v_ligand
                    3D
 Schrodinger Suite 2020-3.
 83 84  0  0  1  0            999 V2000
   17.1810   10.1600    9.1020 C   0  0  0  0  0  0
   17.7000    8.5330   11.6650 N   0  0  0  0  0  0
   17.5120   10.5880   12.4180 O   0  0  0  0  0  0
   16.4170   10.2120   10.3750 C   0  0  1  0  0  0
   15.3610    3.7680   18.2320 N   0  0  0  0  0  0
   16.6370    7.4320   13.7240 O   0  0  0  0  0  0
   17.2900    9.8390   11.6300 C   0  0  0  0  0  0
   15.0070    6.6780   15.9580 O   0  0  0  0  0  0
   18.6740    7.8900   12.5170 C   0  0  0  0  0  0
   17.0630    5.4080   17.9540 O   0  0  0  0  0  0
   18.0080    7.7510   13.8370 C   0  0  0  0  0  0
   15.3430   11.2020   10.4350 N   0  0  0  0  0  0
   16.3470    6.1440   14.0830 C   0  0  0  0  0  0
   11.6960   11.9490   12.3850 N   0  3  0  0  0  0
   14.9950    6.0270   14.7500 C   0  0  0  0  0  0
   14.9870    6.1370   17.3150 C   0  0  0  0  0  0
   15.9090    5.0740   17.8530 C   0  0  0  0  0  0
   14.4000    9.8790   11.7200 O   0  0  0  0  0  0
   14.8540    3.2950   19.5880 C   0  0  0  0  0  0
   12.2300   11.2290   18.7310 O   0  0  0  0  0  0
   15.7450    2.4660   20.4030 C   0  0  0  0  0  0
   13.1400   12.7170   10.3530 O   0  0  0  0  0  0
   13.4670    2.8700   20.0240 C   0  0  0  0  0  0
   14.5130   10.9860   11.1860 C   0  0  0  0  0  0
   13.8220   12.2620   11.3210 C   0  0  2  0  0  0
   13.0250   12.0510   12.4680 C   0  0  1  0  0  0
   13.3320   13.0210   13.5500 C   0  0  0  0  0  0
   13.0210   12.5130   14.9800 C   0  0  0  0  0  0
   12.8930   13.3220   15.9910 C   0  0  0  0  0  0
   12.6200   12.7210   17.1860 C   0  0  0  0  0  0
   12.5080   11.4460   17.5540 C   0  0  0  0  0  0
   12.5880   10.6400   16.6480 C   0  0  0  0  0  0
   12.8120   11.1470   15.4230 C   0  0  0  0  0  0
   11.9270   10.0960   19.4650 C   0  0  0  0  0  0
   13.2360    9.3660   19.6940 C   0  0  0  0  0  0
   13.3370    7.9020   19.8050 C   0  0  0  0  0  0
   14.5520    7.3470   20.1750 C   0  0  0  0  0  0
   15.6870    8.1620   20.4000 C   0  0  0  0  0  0
   15.5790    9.5520   20.3000 C   0  0  0  0  0  0
   14.4600   10.1590   19.9250 C   0  0  0  0  0  0
   17.9576    9.3841    9.1719 H   0  0  0  0  0  0
   17.6535   11.1361    8.9178 H   0  0  0  0  0  0
   16.4976    9.9213    8.2737 H   0  0  0  0  0  0
   17.1643    7.9479   10.9030 H   0  0  0  0  0  0
   15.6416    9.4339   10.3172 H   0  0  0  0  0  0
   15.3431    3.0855   17.3695 H   0  0  0  0  0  0
   18.9408    6.9101   12.0943 H   0  0  0  0  0  0
   19.5746    8.5181   12.5834 H   0  0  0  0  0  0
   18.1195    8.7051   14.3730 H   0  0  0  0  0  0
   18.5250    6.9553   14.3934 H   0  0  0  0  0  0
   15.3719   12.0852    9.7799 H   0  0  0  0  0  0
   16.3420    5.5059   13.1870 H   0  0  0  0  0  0
   17.1084    5.7797   14.7884 H   0  0  0  0  0  0
   11.4319   11.2357   11.5903 H   0  0  0  0  0  0
   11.2666   12.9343   12.1509 H   0  0  0  0  0  0
   11.2949   11.5930   13.3454 H   0  0  0  0  0  0
   14.7617    4.9638   14.9088 H   0  0  0  0  0  0
   14.2311    6.4767   14.0987 H   0  0  0  0  0  0
   15.1648    6.9486   18.0359 H   0  0  0  0  0  0
   14.0066    5.6792   17.5128 H   0  0  0  0  0  0
   14.8386    4.3851   19.7346 H   0  0  0  0  0  0
   16.7911    2.7019   20.1582 H   0  0  0  0  0  0
   15.5502    1.4037   20.1943 H   0  0  0  0  0  0
   15.5628    2.6698   21.4685 H   0  0  0  0  0  0
   13.6267   12.9314    9.3901 H   0  0  0  0  0  0
   12.7145    3.4428   19.4622 H   0  0  0  0  0  0
   13.3460    3.0624   21.1003 H   0  0  0  0  0  0
   13.3334    1.7962   19.8261 H   0  0  0  0  0  0
   14.4892   13.1358   11.2837 H   0  0  0  0  0  0
   13.2476   10.9837   12.6144 H   0  0  0  0  0  0
   14.4032   13.2698   13.5263 H   0  0  0  0  0  0
   12.7397   13.9359   13.4012 H   0  0  0  0  0  0
   12.9964   14.4025   15.8910 H   0  0  0  0  0  0
   12.4621   13.4258   18.0024 H   0  0  0  0  0  0
   12.4842    9.5684   16.8185 H   0  0  0  0  0  0
   12.8417   10.4044   14.6257 H   0  0  0  0  0  0
   11.4692   10.3900   20.4210 H   0  0  0  0  0  0
   11.2223    9.4696   18.8984 H   0  0  0  0  0  0
   12.4746    7.2676   19.6006 H   0  0  0  0  0  0
   14.6346    6.2667   20.2945 H   0  0  0  0  0  0
   16.6447    7.7060   20.6511 H   0  0  0  0  0  0
   16.4496   10.1624   20.5399 H   0  0  0  0  0  0
   14.4445   11.2402   19.7879 H   0  0  0  0  0  0
  1  4  1  0  0  0
  1 41  1  0  0  0
  1 42  1  0  0  0
  1 43  1  0  0  0
  2  7  1  0  0  0
  2  9  1  0  0  0
  2 44  1  0  0  0
  3  7  2  0  0  0
  4  7  1  0  0  0
  4 12  1  0  0  0
  4 45  1  0  0  0
  5 17  1  0  0  0
  5 19  1  0  0  0
  5 46  1  0  0  0
  6 11  1  0  0  0
  6 13  1  0  0  0
  8 15  1  0  0  0
  8 16  1  0  0  0
  9 11  1  0  0  0
  9 47  1  0  0  0
  9 48  1  0  0  0
 10 17  2  0  0  0
 11 49  1  0  0  0
 11 50  1  0  0  0
 12 24  1  0  0  0
 12 51  1  0  0  0
 13 15  1  0  0  0
 13 52  1  0  0  0
 13 53  1  0  0  0
 14 26  1  0  0  0
 14 54  1  0  0  0
 14 55  1  0  0  0
 14 56  1  0  0  0
 15 57  1  0  0  0
 15 58  1  0  0  0
 16 17  1  0  0  0
 16 59  1  0  0  0
 16 60  1  0  0  0
 18 24  2  0  0  0
 19 21  1  0  0  0
 19 23  1  0  0  0
 19 61  1  0  0  0
 20 31  1  0  0  0
 20 34  1  0  0  0
 21 62  1  0  0  0
 21 63  1  0  0  0
 21 64  1  0  0  0
 22 25  1  0  0  0
 22 65  1  0  0  0
 23 66  1  0  0  0
 23 67  1  0  0  0
 23 68  1  0  0  0
 24 25  1  0  0  0
 25 26  1  0  0  0
 25 69  1  0  0  0
 26 27  1  0  0  0
 26 70  1  0  0  0
 27 28  1  0  0  0
 27 71  1  0  0  0
 27 72  1  0  0  0
 28 29  2  0  0  0
 28 33  1  0  0  0
 29 30  1  0  0  0
 29 73  1  0  0  0
 30 31  2  0  0  0
 30 74  1  0  0  0
 31 32  1  0  0  0
 32 33  2  0  0  0
 32 75  1  0  0  0
 33 76  1  0  0  0
 34 35  1  0  0  0
 34 77  1  0  0  0
 34 78  1  0  0  0
 35 36  2  0  0  0
 35 40  1  0  0  0
 36 37  1  0  0  0
 36 79  1  0  0  0
 37 38  2  0  0  0
 37 80  1  0  0  0
 38 39  1  0  0  0
 38 81  1  0  0  0
 39 40  2  0  0  0
 39 82  1  0  0  0
 40 83  1  0  0  0
M  CHG  1  14   1
M  END
> <s_m_source_file>
../3t8v_ligand.sdf

> <i_m_source_file_index>
1

> <s_epik_input>
W0NIM11bQ0hdKFtDSDNdKVtOSF1DKD1PKVtDSDJdT1tDSDJdW0NIMl1PW0NIMl1bQ0gyXVtOSF1DKD1PKVtDQEhdKFtDSDNdKVtOSF1DKD1PKVtDQEBIXShbT0hdKVtDQEhdKFtOSDMrXSlbQ0gyXWMxW2NIXVtjSF1jKFtjSF1bY0hdMSlPW0NIMl1jMltjSF1bY0hdW2NIXVtjSF1bY0hdMg==

> <s_epik_cmdline>
J2VwaWtfYXBwJywgJy1pbWFlJywgJ2xpZ2FuZF9wcm8ubWFlJywgJy1vbWFlJywgJ2xpZ2FuZF9wcmVwLm1hZScsICctbXMnLCAnMScsICctcGgnLCAnNycsICctcGh0JywgJzAuNScsICctbnQn

> <r_lp_tautomer_probability>
1

> <r_epik_Ionization_Penalty>
  0.0414

> <r_epik_Ionization_Penalty_Charging>
  0.0413

> <r_epik_Ionization_Penalty_Neutral>
  0.0001

> <r_epik_State_Penalty>
  0.0348

> <r_epik_Charging_Adjusted_Penalty>
0.0760557702643682

> <i_epik_Tot_Q>
1

> <i_epik_Tot_abs_Q>
1

$$$$
