3t8w_ligand
                    3D
 Schrodinger Suite 2020-3.
144148  0  0  1  0            999 V2000
   76.5630   62.7420   32.0840 C   0  0  0  0  0  0
   83.2310   63.8050   30.3610 N   0  0  0  0  0  0
   82.4700   62.5250   32.0460 O   0  0  0  0  0  0
   77.4740   63.6510   31.7780 C   0  0  0  0  0  0
   89.3820   62.5000   28.3330 N   0  0  0  0  0  0
   89.8290   60.4720   29.2050 O   0  0  0  0  0  0
   78.7990   63.2450   31.1730 C   0  0  0  0  0  0
   91.6270   63.6140   29.4950 N   0  0  0  0  0  0
   87.5030   66.1150   34.5460 O   0  0  0  0  0  0
   79.9370   63.6830   32.0910 C   0  0  0  0  0  0
   88.9960   70.3760   30.5470 N   0  0  0  0  0  0
   92.5970   63.4310   27.4930 O   0  0  0  0  0  0
   81.0770   64.3290   31.3050 C   0  0  0  0  0  0
   88.8860   73.7290   30.9320 N   0  0  0  0  0  0
   93.1380   66.1190   29.5470 O   0  0  0  0  0  0
   82.3220   63.4630   31.2750 C   0  0  0  0  0  0
   84.7250   75.8400   30.2110 N   0  3  0  0  0  0
   90.6310   68.2580   31.1320 O   0  0  0  0  0  0
   84.4970   63.1240   30.1560 C   0  0  0  0  0  0
   89.3490   61.8950   25.5120 N   0  0  0  0  0  0
   88.6790   71.4410   32.5060 O   0  0  0  0  0  0
   85.0840   63.4500   28.7850 C   0  0  0  0  0  0
   87.6900   73.2930   29.0520 O   0  0  0  0  0  0
   86.5940   63.6580   28.8340 C   0  0  0  0  0  0
   87.4020   76.1220   29.4620 O   0  0  0  0  0  0
   87.2410   63.3020   27.4990 C   0  0  0  0  0  0
   87.7340   60.4430   26.0420 O   0  0  0  0  0  0
   88.1650   62.0990   27.6510 C   0  0  1  0  0  0
   90.1180   61.6520   29.0540 C   0  0  0  0  0  0
   91.3400   62.2010   29.7420 C   0  0  2  0  0  0
   91.1590   61.9720   31.2460 C   0  0  0  0  0  0
   90.1280   62.9350   31.8130 C   0  0  0  0  0  0
   88.7800   62.5690   31.9250 C   0  0  0  0  0  0
   87.8440   63.4800   32.4250 C   0  0  0  0  0  0
   88.2570   64.7570   32.8140 C   0  0  0  0  0  0
   87.2990   65.7480   33.4020 C   0  0  0  0  0  0
   86.1340   66.2910   32.6140 C   0  0  0  0  0  0
   84.9100   66.5580   33.2410 C   0  0  0  0  0  0
   83.8170   67.0450   32.5180 C   0  0  0  0  0  0
   83.9680   67.3210   31.1580 C   0  0  0  0  0  0
   85.1910   67.0790   30.5290 C   0  0  0  0  0  0
   86.2720   66.5660   31.2530 C   0  0  0  0  0  0
   89.6010   65.1150   32.7220 C   0  0  0  0  0  0
   90.5330   64.2130   32.2120 C   0  0  0  0  0  0
   92.2370   64.1230   28.4290 C   0  0  0  0  0  0
   92.4330   65.6320   28.4020 C   0  0  0  0  0  0
   92.2880   66.6170   30.5790 C   0  0  0  0  0  0
   91.4900   67.8170   30.0900 C   0  0  0  0  0  0
   89.2840   67.9260   30.8120 C   0  0  0  0  0  0
   88.3570   69.1310   30.9380 C   0  0  0  0  0  0
   89.1250   71.4130   31.3700 C   0  0  0  0  0  0
   89.7950   72.6220   30.7900 C   0  0  2  0  0  0
   91.1160   72.9220   31.4880 C   0  0  0  0  0  0
   92.1910   72.0220   30.9270 C   0  0  0  0  0  0
   92.3280   71.8510   29.5420 C   0  0  0  0  0  0
   93.2970   70.9790   29.0450 C   0  0  0  0  0  0
   94.1690   70.3340   29.9200 C   0  0  0  0  0  0
   95.1510   69.4730   29.4140 C   0  0  0  0  0  0
   96.0070   68.8000   30.2900 C   0  0  0  0  0  0
   95.8930   68.9990   31.6710 C   0  0  0  0  0  0
   94.8920   69.8350   32.1790 C   0  0  0  0  0  0
   94.0400   70.5160   31.3050 C   0  0  0  0  0  0
   93.0570   71.3740   31.8080 C   0  0  0  0  0  0
   87.8920   73.9340   30.0730 C   0  0  0  0  0  0
   87.0310   75.1020   30.3910 C   0  0  2  0  0  0
   85.5640   74.6680   30.3320 C   0  0  1  0  0  0
   85.2180   74.0130   31.6670 C   0  0  0  0  0  0
   84.2130   72.8920   31.5310 C   0  0  0  0  0  0
   83.0060   72.9470   32.2450 C   0  0  0  0  0  0
   82.0840   71.8880   32.1630 C   0  0  0  0  0  0
   82.3820   70.7760   31.3700 C   0  0  0  0  0  0
   83.6070   70.7030   30.6910 C   0  0  0  0  0  0
   84.5190   71.7630   30.7620 C   0  0  0  0  0  0
   88.4070   61.4210   26.3320 C   0  0  0  0  0  0
   76.7651   61.6767   31.8988 H   0  0  0  0  0  0
   75.6033   63.0514   32.5236 H   0  0  0  0  0  0
   82.9649   64.6710   29.7370 H   0  0  0  0  0  0
   77.2719   64.7163   31.9632 H   0  0  0  0  0  0
   89.7319   63.5408   28.2672 H   0  0  0  0  0  0
   78.8272   62.1520   31.0519 H   0  0  0  0  0  0
   78.9163   63.7259   30.1906 H   0  0  0  0  0  0
   91.3294   64.3730   30.2335 H   0  0  0  0  0  0
   79.5591   64.4153   32.8196 H   0  0  0  0  0  0
   80.3356   62.8074   32.6243 H   0  0  0  0  0  0
   89.3995   70.4915   29.5302 H   0  0  0  0  0  0
   80.7563   64.4988   30.2666 H   0  0  0  0  0  0
   81.3431   65.2905   31.7684 H   0  0  0  0  0  0
   89.0036   74.4334   31.7686 H   0  0  0  0  0  0
   84.9397   76.3479   29.2592 H   0  0  0  0  0  0
   84.9298   76.5254   31.0467 H   0  0  0  0  0  0
   83.6675   75.5380   30.2351 H   0  0  0  0  0  0
   85.2131   63.4409   30.9285 H   0  0  0  0  0  0
   84.3435   62.0368   30.2223 H   0  0  0  0  0  0
   89.5332   61.4052   24.5444 H   0  0  0  0  0  0
   89.9405   62.7751   25.8043 H   0  0  0  0  0  0
   84.8775   62.6216   28.0914 H   0  0  0  0  0  0
   84.6262   64.3732   28.4002 H   0  0  0  0  0  0
   86.8117   64.7122   29.0605 H   0  0  0  0  0  0
   87.0271   63.0178   29.6167 H   0  0  0  0  0  0
   88.4373   76.4928   29.4367 H   0  0  0  0  0  0
   86.4582   63.0582   26.7656 H   0  0  0  0  0  0
   87.8291   64.1581   27.1367 H   0  0  0  0  0  0
   87.7222   61.3326   28.3041 H   0  0  0  0  0  0
   92.2141   61.7036   29.2963 H   0  0  0  0  0  0
   90.8183   60.9409   31.4215 H   0  0  0  0  0  0
   92.1182   62.1336   31.7596 H   0  0  0  0  0  0
   88.4602   61.5721   31.6218 H   0  0  0  0  0  0
   86.7955   63.1947   32.5110 H   0  0  0  0  0  0
   84.8080   66.3829   34.3120 H   0  0  0  0  0  0
   82.8582   67.2073   33.0105 H   0  0  0  0  0  0
   83.1318   67.7251   30.5874 H   0  0  0  0  0  0
   85.3040   67.2915   29.4659 H   0  0  0  0  0  0
   87.2231   66.3809   30.7537 H   0  0  0  0  0  0
   89.9239   66.1031   33.0498 H   0  0  0  0  0  0
   91.5797   64.5041   32.1239 H   0  0  0  0  0  0
   91.4383   66.0996   28.3576 H   0  0  0  0  0  0
   92.9965   65.8817   27.4909 H   0  0  0  0  0  0
   91.5873   65.8280   30.8895 H   0  0  0  0  0  0
   92.8988   66.9247   31.4405 H   0  0  0  0  0  0
   90.8879   67.5301   29.2152 H   0  0  0  0  0  0
   92.1765   68.6302   29.8119 H   0  0  0  0  0  0
   89.2331   67.5585   29.7765 H   0  0  0  0  0  0
   88.9267   67.1429   31.4969 H   0  0  0  0  0  0
   88.0342   69.1984   31.9874 H   0  0  0  0  0  0
   87.4821   68.9505   30.2961 H   0  0  0  0  0  0
   89.9898   72.4725   29.7178 H   0  0  0  0  0  0
   91.3899   73.9737   31.3181 H   0  0  0  0  0  0
   91.0097   72.7406   32.5677 H   0  0  0  0  0  0
   91.6800   72.3972   28.8565 H   0  0  0  0  0  0
   93.3720   70.8022   27.9721 H   0  0  0  0  0  0
   95.2475   69.3280   28.3380 H   0  0  0  0  0  0
   96.7634   68.1201   29.8980 H   0  0  0  0  0  0
   96.5846   68.5023   32.3515 H   0  0  0  0  0  0
   94.7769   69.9550   33.2562 H   0  0  0  0  0  0
   92.9679   71.5355   32.8823 H   0  0  0  0  0  0
   87.2094   75.5438   31.3824 H   0  0  0  0  0  0
   85.3718   74.0198   29.4643 H   0  0  0  0  0  0
   86.1297   73.5921   32.1161 H   0  0  0  0  0  0
   84.7894   74.7660   32.3447 H   0  0  0  0  0  0
   82.7821   73.8144   32.8659 H   0  0  0  0  0  0
   81.1444   71.9340   32.7135 H   0  0  0  0  0  0
   81.6607   69.9639   31.2792 H   0  0  0  0  0  0
   83.8503   69.8166   30.1051 H   0  0  0  0  0  0
   85.4635   71.7093   30.2206 H   0  0  0  0  0  0
  1  4  2  0  0  0
  1 75  1  0  0  0
  1 76  1  0  0  0
  2 16  1  0  0  0
  2 19  1  0  0  0
  2 77  1  0  0  0
  3 16  2  0  0  0
  4  7  1  0  0  0
  4 78  1  0  0  0
  5 28  1  0  0  0
  5 29  1  0  0  0
  5 79  1  0  0  0
  6 29  2  0  0  0
  7 10  1  0  0  0
  7 80  1  0  0  0
  7 81  1  0  0  0
  8 30  1  0  0  0
  8 45  1  0  0  0
  8 82  1  0  0  0
  9 36  2  0  0  0
 10 13  1  0  0  0
 10 83  1  0  0  0
 10 84  1  0  0  0
 11 50  1  0  0  0
 11 51  1  0  0  0
 11 85  1  0  0  0
 12 45  2  0  0  0
 13 16  1  0  0  0
 13 86  1  0  0  0
 13 87  1  0  0  0
 14 52  1  0  0  0
 14 64  1  0  0  0
 14 88  1  0  0  0
 15 46  1  0  0  0
 15 47  1  0  0  0
 17 66  1  0  0  0
 17 89  1  0  0  0
 17 90  1  0  0  0
 17 91  1  0  0  0
 18 48  1  0  0  0
 18 49  1  0  0  0
 19 22  1  0  0  0
 19 92  1  0  0  0
 19 93  1  0  0  0
 20 74  1  0  0  0
 20 94  1  0  0  0
 20 95  1  0  0  0
 21 51  2  0  0  0
 22 24  1  0  0  0
 22 96  1  0  0  0
 22 97  1  0  0  0
 23 64  2  0  0  0
 24 26  1  0  0  0
 24 98  1  0  0  0
 24 99  1  0  0  0
 25 65  1  0  0  0
 25100  1  0  0  0
 26 28  1  0  0  0
 26101  1  0  0  0
 26102  1  0  0  0
 27 74  2  0  0  0
 28 74  1  0  0  0
 28103  1  0  0  0
 29 30  1  0  0  0
 30 31  1  0  0  0
 30104  1  0  0  0
 31 32  1  0  0  0
 31105  1  0  0  0
 31106  1  0  0  0
 32 33  2  0  0  0
 32 44  1  0  0  0
 33 34  1  0  0  0
 33107  1  0  0  0
 34 35  2  0  0  0
 34108  1  0  0  0
 35 36  1  0  0  0
 35 43  1  0  0  0
 36 37  1  0  0  0
 37 38  2  0  0  0
 37 42  1  0  0  0
 38 39  1  0  0  0
 38109  1  0  0  0
 39 40  2  0  0  0
 39110  1  0  0  0
 40 41  1  0  0  0
 40111  1  0  0  0
 41 42  2  0  0  0
 41112  1  0  0  0
 42113  1  0  0  0
 43 44  2  0  0  0
 43114  1  0  0  0
 44115  1  0  0  0
 45 46  1  0  0  0
 46116  1  0  0  0
 46117  1  0  0  0
 47 48  1  0  0  0
 47118  1  0  0  0
 47119  1  0  0  0
 48120  1  0  0  0
 48121  1  0  0  0
 49 50  1  0  0  0
 49122  1  0  0  0
 49123  1  0  0  0
 50124  1  0  0  0
 50125  1  0  0  0
 51 52  1  0  0  0
 52 53  1  0  0  0
 52126  1  0  0  0
 53 54  1  0  0  0
 53127  1  0  0  0
 53128  1  0  0  0
 54 55  2  0  0  0
 54 63  1  0  0  0
 55 56  1  0  0  0
 55129  1  0  0  0
 56 57  2  0  0  0
 56130  1  0  0  0
 57 58  1  0  0  0
 57 62  1  0  0  0
 58 59  2  0  0  0
 58131  1  0  0  0
 59 60  1  0  0  0
 59132  1  0  0  0
 60 61  2  0  0  0
 60133  1  0  0  0
 61 62  1  0  0  0
 61134  1  0  0  0
 62 63  2  0  0  0
 63135  1  0  0  0
 64 65  1  0  0  0
 65 66  1  0  0  0
 65136  1  0  0  0
 66 67  1  0  0  0
 66137  1  0  0  0
 67 68  1  0  0  0
 67138  1  0  0  0
 67139  1  0  0  0
 68 69  2  0  0  0
 68 73  1  0  0  0
 69 70  1  0  0  0
 69140  1  0  0  0
 70 71  2  0  0  0
 70141  1  0  0  0
 71 72  1  0  0  0
 71142  1  0  0  0
 72 73  2  0  0  0
 72143  1  0  0  0
 73144  1  0  0  0
M  CHG  1  17   1
M  END
> <s_m_source_file>
../3t8w_ligand.sdf

> <i_m_source_file_index>
1

> <s_epik_input>
W0NIMl09W0NIXVtDSDJdW0NIMl1bQ0gyXUMoPU8pW05IXVtDSDJdW0NIMl1bQ0gyXVtDSDJdW0NAQEhdKEMoPU8pW05IMl0pW05IXUMoPU8pW0NASF0oW0NIMl1jMVtjSF1bY0hdYyhbY0hdW2NIXTEpQyg9TyljMltjSF1bY0hdW2NIXVtjSF1bY0hdMilbTkhdQyg9TylbQ0gyXU9bQ0gyXVtDSDJdT1tDSDJdW0NIMl1bTkhdQyg9TylbQ0BIXShbQ0gyXWMoW2NIXVtjSF0zKVtjSF1jKGMzNClbY0hdW2NIXVtjSF1bY0hdNClbTkhdQyg9TylbQ0BASF0oW09IXSlbQ0BIXShbTkgzK10pW0NIMl1jNVtjSF1bY0hdW2NIXVtjSF1bY0hdNQ==

> <s_epik_cmdline>
J2VwaWtfYXBwJywgJy1pbWFlJywgJ2xpZ2FuZF9wcm8ubWFlJywgJy1vbWFlJywgJ2xpZ2FuZF9wcmVwLm1hZScsICctbXMnLCAnMScsICctcGgnLCAnNycsICctcGh0JywgJzAuNScsICctbnQn

> <r_epik_Ionization_Penalty>
  0.0420

> <r_epik_Ionization_Penalty_Charging>
  0.0419

> <r_epik_Ionization_Penalty_Neutral>
  0.0001

> <r_epik_State_Penalty>
  0.0354

> <r_epik_Charging_Adjusted_Penalty>
0.0773160326113565

> <i_epik_Tot_Q>
1

> <i_epik_Tot_abs_Q>
1

$$$$
