3t9t_ligand
                    3D
 Schrodinger Suite 2020-3.
 58 61  0  0  1  0            999 V2000
   -1.9210    7.1390    8.4490 C   0  0  0  0  0  0
   -1.0540    6.9140    9.5170 C   0  0  0  0  0  0
   -1.1050    5.7200   10.2300 C   0  0  0  0  0  0
   -3.7870    6.4000    6.9330 C   0  0  0  0  0  0
   -8.5800    2.6600   10.9270 C   0  0  0  0  0  0
   -8.2370    4.4370   12.5330 C   0  0  0  0  0  0
   -7.4530    1.2600    8.4700 C   0  0  0  0  0  0
  -11.4350    3.1850   11.8580 C   0  0  0  0  0  0
   -9.0120    2.1240   14.5890 C   0  0  0  0  0  0
   -8.5850    2.6970   15.7210 C   0  0  0  0  0  0
  -11.2890    2.3770   14.5550 O   0  0  0  0  0  0
  -10.2510    2.5520   13.9160 C   0  0  0  0  0  0
   -9.1980    3.8920   16.3970 C   0  0  0  0  0  0
   -8.9740    3.9130   17.8350 N   0  3  0  0  0  0
  -10.1560    3.4450   18.5460 C   0  0  0  0  0  0
   -8.6320    5.2620   18.2690 C   0  0  0  0  0  0
  -10.2270    3.0390   12.6660 N   0  0  0  0  0  0
   -9.0070    3.3830   12.0540 C   0  0  0  0  0  0
   -8.6120    5.1550   13.6080 F   0  0  0  0  0  0
   -7.0300    4.7490   11.9010 C   0  0  0  0  0  0
   -6.5970    4.0290   10.7900 C   0  0  0  0  0  0
   -5.4090    4.3760   10.2090 N   0  0  0  0  0  0
   -7.3780    2.9840   10.2850 C   0  0  0  0  0  0
   -6.8980    2.2770    9.1550 N   0  0  0  0  0  0
   -6.6370    0.9180    7.4420 N   0  0  0  0  0  0
   -5.5540    1.7250    7.4650 C   0  0  0  0  0  0
   -5.7420    2.6040    8.5770 C   0  0  0  0  0  0
   -4.9450    3.7200    9.1260 C   0  0  0  0  0  0
   -3.7930    3.9970    8.4800 N   0  0  0  0  0  0
   -2.9030    4.9640    8.8230 C   0  0  0  0  0  0
   -2.8460    6.1500    8.0920 C   0  0  0  0  0  0
   -2.0330    4.7330    9.8930 C   0  0  0  0  0  0
   -1.8793    8.0774    7.8960 H   0  0  0  0  0  0
   -0.3301    7.6796    9.7960 H   0  0  0  0  0  0
   -0.4153    5.5542   11.0576 H   0  0  0  0  0  0
   -3.5766    7.3874    6.4963 H   0  0  0  0  0  0
   -4.8264    6.3718    7.2920 H   0  0  0  0  0  0
   -3.6418    5.6225    6.1686 H   0  0  0  0  0  0
   -9.1899    1.8395   10.5490 H   0  0  0  0  0  0
   -8.4065    0.7866    8.7041 H   0  0  0  0  0  0
  -12.3114    2.8850   12.4513 H   0  0  0  0  0  0
  -11.3593    2.5452   10.9664 H   0  0  0  0  0  0
  -11.5440    4.2347   11.5479 H   0  0  0  0  0  0
   -8.4327    1.3073   14.1334 H   0  0  0  0  0  0
   -7.7062    2.2926   16.2446 H   0  0  0  0  0  0
   -8.7640    4.8123   15.9791 H   0  0  0  0  0  0
  -10.2852    3.8904   16.2295 H   0  0  0  0  0  0
   -8.1375    3.2369   18.0654 H   0  0  0  0  0  0
  -10.4058    2.4272   18.2119 H   0  0  0  0  0  0
  -11.0006    4.1176   18.3357 H   0  0  0  0  0  0
   -9.9542    3.4368   19.6273 H   0  0  0  0  0  0
   -7.7389    5.6062   17.7268 H   0  0  0  0  0  0
   -8.4263    5.2584   19.3496 H   0  0  0  0  0  0
   -9.4727    5.9392   18.0580 H   0  0  0  0  0  0
   -6.4191    5.5670   12.2828 H   0  0  0  0  0  0
   -4.7092    1.7093    6.7764 H   0  0  0  0  0  0
   -3.5069    3.4148    7.5916 H   0  0  0  0  0  0
   -2.0785    3.7994   10.4537 H   0  0  0  0  0  0
  1  2  2  0  0  0
  1 31  1  0  0  0
  1 33  1  0  0  0
  2  3  1  0  0  0
  2 34  1  0  0  0
  3 32  2  0  0  0
  3 35  1  0  0  0
  4 31  1  0  0  0
  4 36  1  0  0  0
  4 37  1  0  0  0
  4 38  1  0  0  0
  5 18  1  0  0  0
  5 23  2  0  0  0
  5 39  1  0  0  0
  6 18  2  0  0  0
  6 19  1  0  0  0
  6 20  1  0  0  0
  7 24  1  0  0  0
  7 25  2  0  0  0
  7 40  1  0  0  0
  8 17  1  0  0  0
  8 41  1  0  0  0
  8 42  1  0  0  0
  8 43  1  0  0  0
  9 10  2  0  0  0
  9 12  1  0  0  0
  9 44  1  0  0  0
 10 13  1  0  0  0
 10 45  1  0  0  0
 11 12  2  0  0  0
 12 17  1  0  0  0
 13 14  1  0  0  0
 13 46  1  0  0  0
 13 47  1  0  0  0
 14 15  1  0  0  0
 14 16  1  0  0  0
 14 48  1  0  0  0
 15 49  1  0  0  0
 15 50  1  0  0  0
 15 51  1  0  0  0
 16 52  1  0  0  0
 16 53  1  0  0  0
 16 54  1  0  0  0
 17 18  1  0  0  0
 20 21  2  0  0  0
 20 55  1  0  0  0
 21 22  1  0  0  0
 21 23  1  0  0  0
 22 28  2  0  0  0
 23 24  1  0  0  0
 24 27  1  0  0  0
 25 26  1  0  0  0
 26 27  2  0  0  0
 26 56  1  0  0  0
 27 28  1  0  0  0
 28 29  1  0  0  0
 29 30  1  0  0  0
 29 57  1  0  0  0
 30 31  2  0  0  0
 30 32  1  0  0  0
 32 58  1  0  0  0
M  CHG  1  14   1
M  END
> <s_m_source_file>
../3t9t_ligand.sdf

> <i_m_source_file_index>
1

> <s_epik_input>
W2NIXTFbY0hdW2NIXVtjSF1jKFtDSDNdKWMxW05IXWMobjIpYyhbY0hdbltjSF0zKW4zYyhjMjQpW2NIXWMoYyhGKVtjSF00KU4oW0NIM10pQyg9TykvW0NIXT1bQ0hdXFtDSDJdW05IK10oW0NIM10pW0NIM10=

> <s_epik_cmdline>
J2VwaWtfYXBwJywgJy1pbWFlJywgJ2xpZ2FuZF9wcm8ubWFlJywgJy1vbWFlJywgJ2xpZ2FuZF9wcmVwLm1hZScsICctbXMnLCAnMScsICctcGgnLCAnNycsICctcGh0JywgJzAuNScsICctbnQn

> <r_epik_Ionization_Penalty>
  0.3687

> <r_epik_Ionization_Penalty_Charging>
  0.3562

> <r_epik_Ionization_Penalty_Neutral>
  0.0125

> <r_epik_State_Penalty>
  0.3527

> <r_epik_Charging_Adjusted_Penalty>
0.708870384614945

> <i_epik_Tot_Q>
1

> <i_epik_Tot_abs_Q>
1

$$$$
