3ta0_ligand
                    3D
 Schrodinger Suite 2020-3.
 43 45  0  0  1  0            999 V2000
  -57.7280  -16.6320  -15.4520 P   0  0  0  0  0  0
  -58.2010  -16.0980  -14.0800 O   0  5  0  0  0  0
  -56.1890  -16.5250  -15.4880 O   0  5  0  0  0  0
  -58.1390  -18.0420  -15.7170 O   0  0  0  0  0  0
  -58.9860  -14.5780  -17.0300 P   0  0  2  0  0  0
  -60.3390  -14.8180  -16.3440 O   0  5  0  0  0  0
  -59.6020  -14.5910  -18.4230 O   0  0  0  0  0  0
  -58.1100  -15.8580  -16.7680 O   0  0  0  0  0  0
  -57.2060  -12.8850  -15.7380 P   0  0  1  0  0  0
  -57.2900  -13.2740  -14.2700 O   0  0  0  0  0  0
  -56.1310  -13.8010  -16.3900 O   0  5  0  0  0  0
  -58.5190  -13.1720  -16.4930 O   0  0  0  0  0  0
  -56.8100  -11.3260  -16.0130 O   0  0  0  0  0  0
  -57.0340  -10.3010  -15.0610 C   0  0  0  0  0  0
  -56.3150   -9.0200  -15.5250 C   0  0  1  0  0  0
  -54.8890   -9.2240  -15.5190 O   0  0  0  0  0  0
  -56.6550   -8.6000  -16.9420 C   0  0  1  0  0  0
  -57.8780   -7.9290  -17.0350 O   0  0  0  0  0  0
  -55.4570   -7.7520  -17.3840 C   0  0  1  0  0  0
  -55.5460   -6.4160  -16.8460 O   0  0  0  0  0  0
  -54.3440   -8.5450  -16.7130 C   0  0  2  0  0  0
  -53.6640   -9.5080  -17.5430 N   0  0  0  0  0  0
  -53.9830  -10.8250  -17.7140 C   0  0  0  0  0  0
  -53.1530  -11.4470  -18.5180 N   0  0  0  0  0  0
  -52.2430  -10.5040  -18.8920 C   0  0  0  0  0  0
  -51.1000  -10.5500  -19.7370 C   0  0  0  0  0  0
  -50.7080  -11.7050  -20.3640 N   0  0  0  0  0  0
  -50.3630   -9.3850  -19.9080 N   0  0  0  0  0  0
  -50.7730   -8.2340  -19.2780 C   0  0  0  0  0  0
  -51.8520   -8.0830  -18.4410 N   0  0  0  0  0  0
  -52.5440   -9.2550  -18.2930 C   0  0  0  0  0  0
  -58.1139  -10.1100  -14.9752 H   0  0  0  0  0  0
  -56.6384  -10.6153  -14.0839 H   0  0  0  0  0  0
  -56.5893   -8.2239  -14.8171 H   0  0  0  0  0  0
  -56.8950   -9.4372  -17.6139 H   0  0  0  0  0  0
  -58.8085   -8.4387  -16.7444 H   0  0  0  0  0  0
  -55.3436   -7.5532  -18.4599 H   0  0  0  0  0  0
  -56.3044   -5.7179  -17.2299 H   0  0  0  0  0  0
  -53.5357   -7.8433  -16.4593 H   0  0  0  0  0  0
  -54.8348  -11.3073  -17.2345 H   0  0  0  0  0  0
  -51.2903  -12.6285  -20.2298 H   0  0  0  0  0  0
  -49.8113  -11.7079  -21.0011 H   0  0  0  0  0  0
  -50.1753   -7.3415  -19.4632 H   0  0  0  0  0  0
  1  2  1  0  0  0
  1  3  1  0  0  0
  1  4  2  0  0  0
  1  8  1  0  0  0
  5  6  1  0  0  0
  5  7  2  0  0  0
  5  8  1  0  0  0
  5 12  1  0  0  0
  9 10  2  0  0  0
  9 11  1  0  0  0
  9 12  1  0  0  0
  9 13  1  0  0  0
 13 14  1  0  0  0
 14 15  1  0  0  0
 14 32  1  0  0  0
 14 33  1  0  0  0
 15 16  1  0  0  0
 15 17  1  0  0  0
 15 34  1  0  0  0
 16 21  1  0  0  0
 17 18  1  0  0  0
 17 19  1  0  0  0
 17 35  1  0  0  0
 18 36  1  0  0  0
 19 20  1  0  0  0
 19 21  1  0  0  0
 19 37  1  0  0  0
 20 38  1  0  0  0
 21 22  1  0  0  0
 21 39  1  0  0  0
 22 23  1  0  0  0
 22 31  1  0  0  0
 23 24  2  0  0  0
 23 40  1  0  0  0
 24 25  1  0  0  0
 25 26  2  0  0  0
 25 31  1  0  0  0
 26 27  1  0  0  0
 26 28  1  0  0  0
 27 41  1  0  0  0
 27 42  1  0  0  0
 28 29  2  0  0  0
 29 30  1  0  0  0
 29 43  1  0  0  0
 30 31  2  0  0  0
M  CHG  4   2  -1   3  -1   6  -1  11  -1
M  END
> <s_m_source_file>
../3ta0_ligand.sdf

> <i_m_source_file_index>
1

> <s_epik_input>
W09IXVAoPU8pKFtPSF0pT1tQQEBdKD1PKShbT0hdKU9bUEBAXSg9TykoW09IXSlPW0NIMl1bQ0BIXTFPW0NASF0oW0NASF0oW09IXSlbQ0BASF0xW09IXSluKFtjSF1uMiljKGMyMyluW2NIXW5jM1tOSDJd

> <s_epik_cmdline>
J2VwaWtfYXBwJywgJy1pbWFlJywgJ2xpZ2FuZF9wcm8ubWFlJywgJy1vbWFlJywgJ2xpZ2FuZF9wcmVwLm1hZScsICctbXMnLCAnMScsICctcGgnLCAnNycsICctcGh0JywgJzAuNScsICctbnQn

> <r_lp_tautomer_probability>
0.999997216410988

> <r_epik_Ionization_Penalty>
  0.0818

> <r_epik_Ionization_Penalty_Charging>
  0.0813

> <r_epik_Ionization_Penalty_Neutral>
  0.0004

> <r_epik_State_Penalty>
  0.0708

> <r_epik_Charging_Adjusted_Penalty>
0.152157994418768

> <i_epik_Tot_Q>
-4

> <i_epik_Tot_abs_Q>
4

> <s_epik_Chemistry_Notes>
This compound contains an acetal/aminal-like group ( X-CH(R)-Y where X, Y are N, S, or O) that may be acid/base labile, releasing an aldehyde.

$$$$
