3ta1_ligand
                    3D
 Schrodinger Suite 2020-3.
 39 41  0  0  1  0            999 V2000
    4.4500  -14.4340  -14.8080 P   0  0  0  0  0  0
    5.2200  -15.3710  -15.7710 O   0  5  0  0  0  0
    3.6410  -15.2120  -13.8340 O   0  0  0  0  0  0
    5.5160  -13.6110  -14.1080 O   0  5  0  0  0  0
    3.8330  -12.6540  -16.8640 P   0  0  1  0  0  0
    4.5180  -13.4840  -17.9300 O   0  0  0  0  0  0
    2.5180  -12.0450  -17.3070 O   0  5  0  0  0  0
    3.5200  -13.5490  -15.6440 O   0  0  0  0  0  0
    4.8920  -11.4950  -16.4640 O   0  0  0  0  0  0
    4.5140  -10.6570  -15.4110 C   0  0  0  0  0  0
    5.2720   -9.3360  -15.6180 C   0  0  1  0  0  0
    6.6890   -9.5730  -15.6290 O   0  0  0  0  0  0
    4.9460   -8.7260  -16.9780 C   0  0  1  0  0  0
    3.7570   -7.9130  -16.9820 O   0  0  0  0  0  0
    6.2390   -7.9110  -17.3100 C   0  0  1  0  0  0
    6.1580   -6.6840  -16.6060 O   0  0  0  0  0  0
    7.3300   -8.7740  -16.6930 C   0  0  2  0  0  0
    8.0440   -9.7080  -17.5980 N   0  0  0  0  0  0
    7.7420  -11.0130  -17.9150 C   0  0  0  0  0  0
    8.6530  -11.5580  -18.7230 N   0  0  0  0  0  0
    9.5900  -10.5500  -18.9230 C   0  0  0  0  0  0
   10.7950  -10.4790  -19.6850 C   0  0  0  0  0  0
   11.2720  -11.5970  -20.3690 N   0  0  0  0  0  0
   11.4920   -9.2940  -19.6930 N   0  0  0  0  0  0
   11.0330   -8.2200  -19.0260 C   0  0  0  0  0  0
    9.8830   -8.2170  -18.2580 N   0  0  0  0  0  0
    9.2260   -9.3930  -18.2630 C   0  0  0  0  0  0
    3.4261  -10.4971  -15.4420 H   0  0  0  0  0  0
    4.7888  -11.1242  -14.4538 H   0  0  0  0  0  0
    5.0338   -8.6578  -14.7853 H   0  0  0  0  0  0
    4.6320   -9.4693  -17.7257 H   0  0  0  0  0  0
    2.7794   -8.3672  -16.7630 H   0  0  0  0  0  0
    6.4183   -7.6253  -18.3570 H   0  0  0  0  0  0
    5.4220   -5.9243  -16.9078 H   0  0  0  0  0  0
    8.1212   -8.0978  -16.3370 H   0  0  0  0  0  0
    6.8610  -11.5398  -17.5485 H   0  0  0  0  0  0
   10.7012  -12.5372  -20.3518 H   0  0  0  0  0  0
   12.2190  -11.5386  -20.9256 H   0  0  0  0  0  0
   11.6034   -7.2937  -19.0952 H   0  0  0  0  0  0
  1  2  1  0  0  0
  1  3  2  0  0  0
  1  4  1  0  0  0
  1  8  1  0  0  0
  5  6  2  0  0  0
  5  7  1  0  0  0
  5  8  1  0  0  0
  5  9  1  0  0  0
  9 10  1  0  0  0
 10 11  1  0  0  0
 10 28  1  0  0  0
 10 29  1  0  0  0
 11 12  1  0  0  0
 11 13  1  0  0  0
 11 30  1  0  0  0
 12 17  1  0  0  0
 13 14  1  0  0  0
 13 15  1  0  0  0
 13 31  1  0  0  0
 14 32  1  0  0  0
 15 16  1  0  0  0
 15 17  1  0  0  0
 15 33  1  0  0  0
 16 34  1  0  0  0
 17 18  1  0  0  0
 17 35  1  0  0  0
 18 19  1  0  0  0
 18 27  1  0  0  0
 19 20  2  0  0  0
 19 36  1  0  0  0
 20 21  1  0  0  0
 21 22  2  0  0  0
 21 27  1  0  0  0
 22 23  1  0  0  0
 22 24  1  0  0  0
 23 37  1  0  0  0
 23 38  1  0  0  0
 24 25  2  0  0  0
 25 26  1  0  0  0
 25 39  1  0  0  0
 26 27  2  0  0  0
M  CHG  3   2  -1   4  -1   7  -1
M  END
> <s_m_source_file>
../3ta1_ligand.sdf

> <i_m_source_file_index>
1

> <s_epik_input>
W09IXVAoPU8pKFtPSF0pT1tQQEBdKD1PKShbT0hdKU9bQ0gyXVtDQEhdMU9bQ0BIXShbQ0BIXShbT0hdKVtDQEBIXTFbT0hdKW4oW2NIXW4yKWMoYzIzKW5bY0hdbmMzW05IMl0=

> <s_epik_cmdline>
J2VwaWtfYXBwJywgJy1pbWFlJywgJ2xpZ2FuZF9wcm8ubWFlJywgJy1vbWFlJywgJ2xpZ2FuZF9wcmVwLm1hZScsICctbXMnLCAnMScsICctcGgnLCAnNycsICctcGh0JywgJzAuNScsICctbnQn

> <r_lp_tautomer_probability>
0.999997216410988

> <r_epik_Ionization_Penalty>
  0.1037

> <r_epik_Ionization_Penalty_Charging>
  0.1033

> <r_epik_Ionization_Penalty_Neutral>
  0.0004

> <r_epik_State_Penalty>
  0.0922

> <r_epik_Charging_Adjusted_Penalty>
0.19546844050481

> <i_epik_Tot_Q>
-3

> <i_epik_Tot_abs_Q>
3

> <s_epik_Chemistry_Notes>
This compound contains an acetal/aminal-like group ( X-CH(R)-Y where X, Y are N, S, or O) that may be acid/base labile, releasing an aldehyde.

$$$$
