3tam_ligand
                    3D
 Schrodinger Suite 2020-3.
 44 47  0  0  1  0            999 V2000
   10.8920   12.2740   15.8080 C   0  0  0  0  0  0
    8.0650   12.4240   15.3740 N   0  0  0  0  0  0
   10.6010   11.5280   17.9940 O   0  0  0  0  0  0
   10.2250   15.8730   20.5460 Cl  0  0  0  0  0  0
   10.3260   12.7320   14.5600 C   0  0  0  0  0  0
    8.9730   12.7600   14.3940 C   0  0  0  0  0  0
    8.5070   11.9540   16.6470 C   0  0  0  0  0  0
   10.0440   11.9130   16.8010 C   0  0  3  0  0  0
   10.3600   12.1910   19.1510 C   0  0  0  0  0  0
   12.3960   12.2560   15.8910 C   0  0  0  0  0  0
   10.1040   11.3690   20.2570 C   0  0  0  0  0  0
    9.9160   11.9710   21.5020 C   0  0  0  0  0  0
    9.9460   13.4050   21.6650 C   0  0  0  0  0  0
   10.1850   14.1810   20.4870 C   0  0  0  0  0  0
   10.4020   13.5830   19.2260 C   0  0  0  0  0  0
    7.7480   11.5940   17.5800 O   0  0  0  0  0  0
    6.4720   11.0820   14.4480 C   0  0  0  0  0  0
    6.7570   10.8120   13.1260 N   0  3  0  0  0  0
    6.5790    9.4780   13.0210 N   0  0  0  0  0  0
    6.2210    8.8770   14.1930 C   0  0  0  0  0  0
    6.1310    9.8900   15.1740 C   0  0  0  0  0  0
    5.9940    7.5660   14.4010 N   0  0  0  0  0  0
    5.6820    7.2510   15.7350 C   0  0  0  0  0  0
    5.5270    8.1440   16.8230 C   0  0  0  0  0  0
    5.7690    9.5060   16.5260 C   0  0  0  0  0  0
    6.6150   12.4790   15.0240 C   0  0  0  0  0  0
    9.6830   11.1460   22.6000 C   0  0  0  0  0  0
    9.4950   10.4750   23.4920 N   0  0  0  0  0  0
   10.9867   13.0583   13.7433 H   0  0  0  0  0  0
    8.8412   12.0943   13.5283 H   0  0  0  0  0  0
    8.8084   13.8023   14.0834 H   0  0  0  0  0  0
   11.0751   11.7802   16.4417 H   0  0  0  0  0  0
   12.8200   12.6001   14.9361 H   0  0  0  0  0  0
   12.7396   11.2315   16.0968 H   0  0  0  0  0  0
   12.7265   12.9232   16.7007 H   0  0  0  0  0  0
   10.0530   10.2857   20.1474 H   0  0  0  0  0  0
    9.7941   13.8734   22.6374 H   0  0  0  0  0  0
   10.5958   14.1891   18.3411 H   0  0  0  0  0  0
    5.5428    6.1933   15.9585 H   0  0  0  0  0  0
    5.2414    7.8059   17.8191 H   0  0  0  0  0  0
    5.6842   10.2615   17.3071 H   0  0  0  0  0  0
    6.0249   12.6632   15.9339 H   0  0  0  0  0  0
    6.4422   13.2925   14.3040 H   0  0  0  0  0  0
    7.0489   11.6280   12.4485 H   0  0  0  0  0  0
  1  5  2  0  0  0
  1  8  1  0  0  0
  1 10  1  0  0  0
  2  6  1  0  0  0
  2  7  1  0  0  0
  2 26  1  0  0  0
  3  8  1  0  0  0
  3  9  1  0  0  0
  4 14  1  0  0  0
  5  6  1  0  0  0
  5 29  1  0  0  0
  6 30  1  0  0  0
  6 31  1  0  0  0
  7  8  1  0  0  0
  7 16  2  0  0  0
  8 32  1  0  0  0
  9 11  2  0  0  0
  9 15  1  0  0  0
 10 33  1  0  0  0
 10 34  1  0  0  0
 10 35  1  0  0  0
 11 12  1  0  0  0
 11 36  1  0  0  0
 12 13  2  0  0  0
 12 27  1  0  0  0
 13 14  1  0  0  0
 13 37  1  0  0  0
 14 15  2  0  0  0
 15 38  1  0  0  0
 17 18  2  0  0  0
 17 21  1  0  0  0
 17 26  1  0  0  0
 18 19  1  0  0  0
 18 44  1  0  0  0
 19 20  1  0  0  0
 20 21  2  0  0  0
 20 22  1  0  0  0
 21 25  1  0  0  0
 22 23  2  0  0  0
 23 24  1  0  0  0
 23 39  1  0  0  0
 24 25  2  0  0  0
 24 40  1  0  0  0
 25 41  1  0  0  0
 26 42  1  0  0  0
 26 43  1  0  0  0
 27 28  3  0  0  0
M  CHG  1  18   1
M  END
> <s_m_source_file>
../3tam_ligand.sdf

> <i_m_source_file_index>
1

> <s_epik_input>
bjFbY0hdW2NIXVtjSF1jKGMxMiljKG5bbkhdMilbQ0gyXU4oW0NIMl1bQ0hdPUMzW0NIM10pQyg9TylbQ0hdM09jNFtjSF1jKEMjTilbY0hdYyhDbClbY0hdNA==

> <s_epik_cmdline>
J2VwaWtfYXBwJywgJy1pbWFlJywgJ2xpZ2FuZF9wcm8ubWFlJywgJy1vbWFlJywgJ2xpZ2FuZF9wcmVwLm1hZScsICctbXMnLCAnMScsICctcGgnLCAnNycsICctcGh0JywgJzAuNScsICctbnQn

> <r_epik_Ionization_Penalty>
  0.0000

> <r_epik_Ionization_Penalty_Charging>
  0.0000

> <r_epik_Ionization_Penalty_Neutral>
  0.0000

> <r_epik_State_Penalty>
  0.0139

> <r_epik_Charging_Adjusted_Penalty>
0.0138623341093075

> <i_epik_Tot_Q>
1

> <i_epik_Tot_abs_Q>
1

$$$$
