3tay_ligand
                    3D
 Schrodinger Suite 2020-3.
 43 43  0  0  1  0            999 V2000
  -33.0300   39.1750   21.9960 C   0  0  0  0  0  0
  -32.9430   40.7070   21.8010 C   0  0  1  0  0  0
  -33.5240   41.0360   20.5190 O   0  0  0  0  0  0
  -33.7840   41.4780   22.8470 C   0  0  0  0  0  0
  -33.0640   41.6730   24.2000 C   0  0  2  0  0  0
  -33.7510   42.6740   24.9500 O   0  0  0  0  0  0
  -31.5870   42.0920   24.0570 C   0  0  1  0  0  0
  -30.9630   42.1400   25.4010 N   0  0  0  0  0  0
  -30.8580   41.1390   23.0990 C   0  0  1  0  0  0
  -31.5680   41.1690   21.8130 O   0  0  0  0  0  0
  -29.3980   41.4580   22.7390 C   0  0  2  0  0  0
  -29.2970   42.8390   22.3530 O   0  0  0  0  0  0
  -28.9030   40.5570   21.5950 C   0  0  2  0  0  0
  -29.3290   39.2050   21.8000 O   0  0  0  0  0  0
  -27.3820   40.5780   21.4730 C   0  0  0  0  0  0
  -27.0150   39.7480   20.3720 O   0  0  0  0  0  0
  -30.0060   43.0140   25.7480 C   0  0  0  0  0  0
  -29.5170   43.8460   24.9890 O   0  0  0  0  0  0
  -29.4990   42.9240   27.1940 C   0  0  0  0  0  0
  -30.1850   41.9260   27.9510 O   0  0  0  0  0  0
  -32.9670   40.2900   19.4210 C   0  0  0  0  0  0
  -31.9570   38.5340   22.0650 O   0  5  0  0  0  0
  -34.1700   38.6740   22.0320 O   0  0  0  0  0  0
  -34.0264   42.4778   22.4577 H   0  0  0  0  0  0
  -34.7147   40.9270   23.0475 H   0  0  0  0  0  0
  -33.1176   40.7346   24.7715 H   0  0  0  0  0  0
  -34.8242   42.5615   25.1636 H   0  0  0  0  0  0
  -31.4917   43.1096   23.6504 H   0  0  0  0  0  0
  -31.2808   41.4320   26.1805 H   0  0  0  0  0  0
  -30.8737   40.1665   23.6129 H   0  0  0  0  0  0
  -28.7485   41.3370   23.6185 H   0  0  0  0  0  0
  -29.6087   43.6295   23.0515 H   0  0  0  0  0  0
  -29.3639   40.8873   20.6524 H   0  0  0  0  0  0
  -30.3991   38.9766   21.9129 H   0  0  0  0  0  0
  -27.0423   41.6098   21.3000 H   0  0  0  0  0  0
  -26.9343   40.1955   22.4021 H   0  0  0  0  0  0
  -25.9547   39.6226   20.1072 H   0  0  0  0  0  0
  -28.4282   42.6722   27.1921 H   0  0  0  0  0  0
  -29.6471   43.8918   27.6954 H   0  0  0  0  0  0
  -29.9198   41.7561   29.0050 H   0  0  0  0  0  0
  -33.4573   40.5946   18.4846 H   0  0  0  0  0  0
  -33.1305   39.2151   19.5877 H   0  0  0  0  0  0
  -31.8876   40.4904   19.3517 H   0  0  0  0  0  0
  1  2  1  0  0  0
  1 22  1  0  0  0
  1 23  2  0  0  0
  2  3  1  0  0  0
  2  4  1  0  0  0
  2 10  1  0  0  0
  3 21  1  0  0  0
  4  5  1  0  0  0
  4 24  1  0  0  0
  4 25  1  0  0  0
  5  6  1  0  0  0
  5  7  1  0  0  0
  5 26  1  0  0  0
  6 27  1  0  0  0
  7  8  1  0  0  0
  7  9  1  0  0  0
  7 28  1  0  0  0
  8 17  1  0  0  0
  8 29  1  0  0  0
  9 10  1  0  0  0
  9 11  1  0  0  0
  9 30  1  0  0  0
 11 12  1  0  0  0
 11 13  1  0  0  0
 11 31  1  0  0  0
 12 32  1  0  0  0
 13 14  1  0  0  0
 13 15  1  0  0  0
 13 33  1  0  0  0
 14 34  1  0  0  0
 15 16  1  0  0  0
 15 35  1  0  0  0
 15 36  1  0  0  0
 16 37  1  0  0  0
 17 18  2  0  0  0
 17 19  1  0  0  0
 19 20  1  0  0  0
 19 38  1  0  0  0
 19 39  1  0  0  0
 20 40  1  0  0  0
 21 41  1  0  0  0
 21 42  1  0  0  0
 21 43  1  0  0  0
M  CHG  1  22  -1
M  END
> <s_m_source_file>
../3tay_ligand.sdf

> <i_m_source_file_index>
1

> <s_epik_input>
W0NIM11PW0NAXTEoQyg9TylbT0hdKVtDSDJdW0NASF0oW09IXSlbQ0BASF0oW05IXUMoPU8pW0NIMl1bT0hdKVtDQEBIXShPMSlbQ0BIXShbT0hdKVtDQEhdKFtPSF0pW0NIMl1bT0hd

> <s_epik_cmdline>
J2VwaWtfYXBwJywgJy1pbWFlJywgJ2xpZ2FuZF9wcm8ubWFlJywgJy1vbWFlJywgJ2xpZ2FuZF9wcmVwLm1hZScsICctbXMnLCAnMScsICctcGgnLCAnNycsICctcGh0JywgJzAuNScsICctbnQn

> <r_lp_tautomer_probability>
1

> <r_epik_Ionization_Penalty>
  0.0000

> <r_epik_Ionization_Penalty_Charging>
  0.0000

> <r_epik_Ionization_Penalty_Neutral>
  0.0000

> <r_epik_State_Penalty>
 -0.0000

> <r_epik_Charging_Adjusted_Penalty>
1.76653680238976e-05

> <i_epik_Tot_Q>
-1

> <i_epik_Tot_abs_Q>
1

$$$$
