3tc5_ligand
                    3D
 Schrodinger Suite 2020-3.
 60 63  0  0  1  0            999 V2000
   37.9660  -11.4600   16.0100 F   0  0  0  0  0  0
   43.1900  -17.7430   13.2270 P   0  0  0  0  0  0
   37.9350  -16.0040   16.3660 C   0  0  0  0  0  0
   38.9410  -14.0300   18.3400 O   0  0  0  0  0  0
   38.2880  -14.8620   15.4010 C   0  0  2  0  0  0
   37.0880   -7.4820   18.6000 O   0  0  0  0  0  0
   39.4660  -14.0280   15.9440 C   0  0  0  0  0  0
   39.0860  -14.3910   13.1320 O   0  0  0  0  0  0
   39.0350  -13.1850   17.1780 C   0  0  1  0  0  0
   38.9320  -17.7810   13.9730 O   0  0  0  0  0  0
   37.7300  -12.3650   16.9590 C   0  0  1  0  0  0
   41.6540  -17.6710   13.8230 O   0  0  0  0  0  0
   43.0790  -17.7940   11.6270 O   0  5  0  0  0  0
   37.2920  -11.5890   18.2210 C   0  0  1  0  0  0
   43.8360  -16.3180   13.6070 O   0  5  0  0  0  0
   36.8800  -12.5070   19.3790 C   0  0  0  0  0  0
   43.9510  -18.8980   13.7550 O   0  0  0  0  0  0
   38.3410  -10.7900   18.6800 C   0  0  0  0  0  0
   38.2580   -9.4060   18.8110 C   0  0  0  0  0  0
   37.1110   -8.7050   18.4600 C   0  0  0  0  0  0
   36.0020   -9.3870   17.9690 C   0  0  0  0  0  0
   36.0500  -10.7750   17.8400 C   0  0  0  0  0  0
   34.8630  -11.5550   17.2820 C   0  0  0  0  0  0
   35.3240  -12.4170   16.0920 C   0  0  0  0  0  0
   36.5890  -13.2450   16.4000 C   0  0  1  0  0  0
   37.0980  -13.9520   15.1390 C   0  0  2  0  0  0
   36.1200  -14.8650   14.4000 C   0  0  0  0  0  0
   37.0510  -15.7190   13.5120 C   0  0  1  0  0  0
   36.8390  -15.4120   12.0210 C   0  0  0  0  0  0
   38.4960  -15.3980   13.9720 C   0  0  2  0  0  0
   39.4020  -16.6430   13.9270 C   0  0  0  0  0  0
   40.9170  -16.4350   13.7880 C   0  0  0  0  0  0
   37.7915  -15.5976   17.3781 H   0  0  0  0  0  0
   38.7530  -16.7393   16.3787 H   0  0  0  0  0  0
   37.0078  -16.4927   16.0322 H   0  0  0  0  0  0
   39.7885  -14.6712   18.6238 H   0  0  0  0  0  0
   40.2828  -14.7002   16.2457 H   0  0  0  0  0  0
   39.8240  -13.3450   15.1596 H   0  0  0  0  0  0
   38.5965  -13.4123   13.0199 H   0  0  0  0  0  0
   39.8342  -12.4684   17.4183 H   0  0  0  0  0  0
   37.7425  -13.1149   19.6897 H   0  0  0  0  0  0
   36.0646  -13.1682   19.0504 H   0  0  0  0  0  0
   36.5374  -11.8961   20.2272 H   0  0  0  0  0  0
   39.2719  -11.3127   18.9449 H   0  0  0  0  0  0
   39.1153   -8.8381   19.2014 H   0  0  0  0  0  0
   35.0918   -8.8392   17.6834 H   0  0  0  0  0  0
   34.4507  -12.2062   18.0668 H   0  0  0  0  0  0
   34.0877  -10.8513   16.9447 H   0  0  0  0  0  0
   34.5240  -13.1200   15.8168 H   0  0  0  0  0  0
   35.5516  -11.7667   15.2345 H   0  0  0  0  0  0
   36.3015  -13.9924   17.1541 H   0  0  0  0  0  0
   37.3321  -13.0725   14.5212 H   0  0  0  0  0  0
   35.5591  -15.4681   15.1291 H   0  0  0  0  0  0
   35.4188  -14.2531   13.8136 H   0  0  0  0  0  0
   36.8323  -16.7921   13.6155 H   0  0  0  0  0  0
   35.8033  -15.6543   11.7404 H   0  0  0  0  0  0
   37.5330  -16.0176   11.4197 H   0  0  0  0  0  0
   37.0289  -14.3444   11.8359 H   0  0  0  0  0  0
   41.2452  -15.7888   14.6155 H   0  0  0  0  0  0
   41.1002  -15.9258   12.8303 H   0  0  0  0  0  0
  1 11  1  0  0  0
  2 12  1  0  0  0
  2 13  1  0  0  0
  2 15  1  0  0  0
  2 17  2  0  0  0
  3  5  1  0  0  0
  3 33  1  0  0  0
  3 34  1  0  0  0
  3 35  1  0  0  0
  4  9  1  0  0  0
  4 36  1  0  0  0
  5  7  1  0  0  0
  5 26  1  0  0  0
  5 30  1  0  0  0
  6 20  2  0  0  0
  7  9  1  0  0  0
  7 37  1  0  0  0
  7 38  1  0  0  0
  8 30  1  0  0  0
  8 39  1  0  0  0
  9 11  1  0  0  0
  9 40  1  0  0  0
 10 31  2  0  0  0
 11 14  1  0  0  0
 11 25  1  0  0  0
 12 32  1  0  0  0
 14 16  1  0  0  0
 14 18  1  0  0  0
 14 22  1  0  0  0
 16 41  1  0  0  0
 16 42  1  0  0  0
 16 43  1  0  0  0
 18 19  2  0  0  0
 18 44  1  0  0  0
 19 20  1  0  0  0
 19 45  1  0  0  0
 20 21  1  0  0  0
 21 22  2  0  0  0
 21 46  1  0  0  0
 22 23  1  0  0  0
 23 24  1  0  0  0
 23 47  1  0  0  0
 23 48  1  0  0  0
 24 25  1  0  0  0
 24 49  1  0  0  0
 24 50  1  0  0  0
 25 26  1  0  0  0
 25 51  1  0  0  0
 26 27  1  0  0  0
 26 52  1  0  0  0
 27 28  1  0  0  0
 27 53  1  0  0  0
 27 54  1  0  0  0
 28 29  1  0  0  0
 28 30  1  0  0  0
 28 55  1  0  0  0
 29 56  1  0  0  0
 29 57  1  0  0  0
 29 58  1  0  0  0
 30 31  1  0  0  0
 31 32  1  0  0  0
 32 59  1  0  0  0
 32 60  1  0  0  0
M  CHG  2  13  -1  15  -1
M  END
> <s_m_source_file>
../3tc5_ligand.sdf

> <i_m_source_file_index>
1

> <s_epik_input>
W0NIXTE9W0NIXUMoPU8pW0NIXT1DKFtDSDJdW0NIMl0yKVtDQEBdMShbQ0gzXSlbQ0BAXShGKShbQ0BASF0oW09IXSlbQ0gyXTMpW0NAQEhdMltDQEBIXShbQ0BdMzRbQ0gzXSlbQ0gyXVtDQEBIXShbQ0gzXSlbQ0BdNChbT0hdKUMoPU8pW0NIMl1PUCg9TykoW09IXSlbT0hd

> <s_epik_cmdline>
J2VwaWtfYXBwJywgJy1pbWFlJywgJ2xpZ2FuZF9wcm8ubWFlJywgJy1vbWFlJywgJ2xpZ2FuZF9wcmVwLm1hZScsICctbXMnLCAnMScsICctcGgnLCAnNycsICctcGh0JywgJzAuNScsICctbnQn

> <r_lp_tautomer_probability>
0.99990000499975

> <r_epik_Ionization_Penalty>
  0.0741

> <r_epik_Ionization_Penalty_Charging>
  0.0741

> <r_epik_Ionization_Penalty_Neutral>
  0.0000

> <r_epik_State_Penalty>
  0.0652

> <r_epik_Charging_Adjusted_Penalty>
0.139332565708152

> <i_epik_Tot_Q>
-2

> <i_epik_Tot_abs_Q>
2

$$$$
