3tcp_ligand
                    3D
 Schrodinger Suite 2020-3.
 59 62  0  0  1  0            999 V2000
    3.2030  -17.3630   12.9520 C   0  0  0  0  0  0
    0.7580  -17.4990   10.2840 F   0  0  0  0  0  0
    4.1910  -17.2690   15.7150 N   0  0  0  0  0  0
    5.0680  -15.7990   18.4230 C   0  0  1  0  0  0
    2.9440  -21.2910   19.7400 N   0  0  0  0  0  0
    3.7640  -20.9110   20.8810 C   0  0  0  0  0  0
    4.5510  -17.7050   16.9850 N   0  0  0  0  0  0
    3.4270  -19.5530   21.4960 C   0  0  0  0  0  0
    4.3200  -19.2500   22.6950 C   0  0  0  0  0  0
    5.6380  -18.6380   22.2770 C   0  0  0  0  0  0
    2.5000  -17.9760   13.9940 C   0  0  0  0  0  0
    1.1950  -18.4260   13.7890 C   0  0  0  0  0  0
    0.6110  -18.2660   12.5340 C   0  0  0  0  0  0
    1.3210  -17.6540   11.4940 C   0  0  0  0  0  0
    2.6200  -17.2060   11.6990 C   0  0  0  0  0  0
    2.0470  -20.1180   16.4680 C   0  0  0  0  0  0
    2.0790  -20.8340   17.6070 N   0  0  0  0  0  0
    2.9430  -20.5580   18.6040 C   0  0  0  0  0  0
    3.8110  -19.5280   18.4830 N   0  0  0  0  0  0
    2.9310  -19.0550   16.3330 C   0  0  0  0  0  0
    3.7690  -18.7820   17.3100 C   0  0  0  0  0  0
    3.1810  -18.1100   15.3170 C   0  0  0  0  0  0
    5.5860  -17.1080   17.8270 C   0  0  0  0  0  0
    3.7350  -15.9770   19.1660 C   0  0  0  0  0  0
    6.1080  -15.2520   19.3990 C   0  0  0  0  0  0
    5.6610  -13.9150   19.9980 C   0  0  0  0  0  0
    4.3100  -14.0260   20.7130 C   0  0  2  0  0  0
    3.2490  -14.6650   19.8020 C   0  0  0  0  0  0
    3.9110  -12.6910   21.1150 N   0  3  0  0  0  0
    4.2180  -17.0047   13.1235 H   0  0  0  0  0  0
    4.9010  -15.1011   17.5893 H   0  0  0  0  0  0
    2.3104  -22.1886   19.7927 H   0  0  0  0  0  0
    3.6469  -21.6566   21.6812 H   0  0  0  0  0  0
    4.8195  -20.8645   20.5748 H   0  0  0  0  0  0
    3.5719  -18.7637   20.7437 H   0  0  0  0  0  0
    2.3793  -19.5521   21.8312 H   0  0  0  0  0  0
    3.8084  -18.5419   23.3635 H   0  0  0  0  0  0
    4.5308  -20.1819   23.2400 H   0  0  0  0  0  0
    6.2482  -18.4365   23.1698 H   0  0  0  0  0  0
    5.4511  -17.6962   21.7404 H   0  0  0  0  0  0
    6.1734  -19.3362   21.6168 H   0  0  0  0  0  0
    0.6396  -18.8966   14.6003 H   0  0  0  0  0  0
   -0.4054  -18.6197   12.3608 H   0  0  0  0  0  0
    3.1759  -16.7369   10.8872 H   0  0  0  0  0  0
    1.3453  -20.3659   15.6716 H   0  0  0  0  0  0
    6.4805  -16.9057   17.2196 H   0  0  0  0  0  0
    5.8439  -17.8039   18.6389 H   0  0  0  0  0  0
    2.9650  -16.3217   18.4601 H   0  0  0  0  0  0
    3.8580  -16.7212   19.9666 H   0  0  0  0  0  0
    6.2552  -15.9706   20.2187 H   0  0  0  0  0  0
    7.0607  -15.0976   18.8712 H   0  0  0  0  0  0
    6.4082  -13.5727   20.7291 H   0  0  0  0  0  0
    5.5637  -13.1682   19.1962 H   0  0  0  0  0  0
    4.3916  -14.6298   21.6288 H   0  0  0  0  0  0
    3.0026  -13.9428   19.0098 H   0  0  0  0  0  0
    2.3538  -14.8619   20.4101 H   0  0  0  0  0  0
    4.6853  -12.2569   21.7646 H   0  0  0  0  0  0
    2.9588  -12.7424   21.6634 H   0  0  0  0  0  0
    3.7862  -12.0611   20.2219 H   0  0  0  0  0  0
  1 11  2  0  0  0
  1 15  1  0  0  0
  1 30  1  0  0  0
  2 14  1  0  0  0
  3  7  1  0  0  0
  3 22  2  0  0  0
  4 23  1  0  0  0
  4 24  1  0  0  0
  4 25  1  0  0  0
  4 31  1  0  0  0
  5  6  1  0  0  0
  5 18  1  0  0  0
  5 32  1  0  0  0
  6  8  1  0  0  0
  6 33  1  0  0  0
  6 34  1  0  0  0
  7 21  1  0  0  0
  7 23  1  0  0  0
  8  9  1  0  0  0
  8 35  1  0  0  0
  8 36  1  0  0  0
  9 10  1  0  0  0
  9 37  1  0  0  0
  9 38  1  0  0  0
 10 39  1  0  0  0
 10 40  1  0  0  0
 10 41  1  0  0  0
 11 12  1  0  0  0
 11 22  1  0  0  0
 12 13  2  0  0  0
 12 42  1  0  0  0
 13 14  1  0  0  0
 13 43  1  0  0  0
 14 15  2  0  0  0
 15 44  1  0  0  0
 16 17  1  0  0  0
 16 20  2  0  0  0
 16 45  1  0  0  0
 17 18  2  0  0  0
 18 19  1  0  0  0
 19 21  2  0  0  0
 20 21  1  0  0  0
 20 22  1  0  0  0
 23 46  1  0  0  0
 23 47  1  0  0  0
 24 28  1  0  0  0
 24 48  1  0  0  0
 24 49  1  0  0  0
 25 26  1  0  0  0
 25 50  1  0  0  0
 25 51  1  0  0  0
 26 27  1  0  0  0
 26 52  1  0  0  0
 26 53  1  0  0  0
 27 28  1  0  0  0
 27 29  1  0  0  0
 27 54  1  0  0  0
 28 55  1  0  0  0
 28 56  1  0  0  0
 29 57  1  0  0  0
 29 58  1  0  0  0
 29 59  1  0  0  0
M  CHG  1  29   1
M  END
> <s_m_source_file>
../3tcp_ligand.sdf

> <i_m_source_file_index>
1

> <s_epik_input>
W2NIXTFbY0hdYyhGKVtjSF1bY0hdYzEtYzJubihbQ0gyXVtDQEhdM1tDSDJdW0NIMl1bQ0BIXShbTkgzK10pW0NIMl1bQ0gyXTMpYyhjMjQpbmMobltjSF00KVtOSF1bQ0gyXVtDSDJdW0NIMl1bQ0gzXQ==

> <s_epik_cmdline>
J2VwaWtfYXBwJywgJy1pbWFlJywgJ2xpZ2FuZF9wcm8ubWFlJywgJy1vbWFlJywgJ2xpZ2FuZF9wcmVwLm1hZScsICctbXMnLCAnMScsICctcGgnLCAnNycsICctcGh0JywgJzAuNScsICctbnQn

> <r_lp_tautomer_probability>
1

> <r_epik_Ionization_Penalty>
  0.0002

> <r_epik_Ionization_Penalty_Charging>
  0.0002

> <r_epik_Ionization_Penalty_Neutral>
  0.0000

> <r_epik_State_Penalty>
 -0.0000

> <r_epik_Charging_Adjusted_Penalty>
0.000187656636354587

> <i_epik_Tot_Q>
1

> <i_epik_Tot_abs_Q>
1

$$$$
