3td4_ligand
                    3D
 Schrodinger Suite 2020-3.
 27 26  0  0  1  0            999 V2000
   22.5490    1.0090   30.0020 C   0  0  0  0  0  0
   21.4150    1.9200   30.3680 C   0  0  2  0  0  0
   20.7920    2.5830   29.0850 C   0  0  0  0  0  0
   20.4200    1.6020   28.0020 C   0  0  0  0  0  0
   19.0930    2.0760   27.3030 C   0  0  0  0  0  0
   19.4270    3.0420   26.1780 C   0  0  2  0  0  0
   18.1670    3.8350   25.7830 C   0  0  0  0  0  0
   23.5700    1.5790   29.5070 O   0  5  0  0  0  0
   22.4150   -0.2280   30.1640 O   0  0  0  0  0  0
   17.9270    3.8710   24.5670 O   0  0  0  0  0  0
   17.4070    4.4110   26.5810 O   0  5  0  0  0  0
   22.0200    2.9840   31.1580 N   0  3  0  0  0  0
   20.0250    2.2620   25.0780 N   0  3  0  0  0  0
   20.6608    1.3685   30.9485 H   0  0  0  0  0  0
   19.8744    3.1234   29.3604 H   0  0  0  0  0  0
   21.5153    3.2874   28.6483 H   0  0  0  0  0  0
   21.2295    1.5518   27.2589 H   0  0  0  0  0  0
   20.2671    0.6070   28.4453 H   0  0  0  0  0  0
   18.5638    1.2040   26.8913 H   0  0  0  0  0  0
   18.4505    2.5806   28.0397 H   0  0  0  0  0  0
   20.1946    3.7765   26.4632 H   0  0  0  0  0  0
   22.4678    2.5563   32.0672 H   0  0  0  0  0  0
   21.2486    3.7162   31.4387 H   0  0  0  0  0  0
   22.8004    3.4828   30.5646 H   0  0  0  0  0  0
   20.9145    1.7304   25.4469 H   0  0  0  0  0  0
   20.3154    2.9410   24.2627 H   0  0  0  0  0  0
   19.2909    1.5330   24.7042 H   0  0  0  0  0  0
  1  2  1  0  0  0
  1  8  1  0  0  0
  1  9  2  0  0  0
  2  3  1  0  0  0
  2 12  1  0  0  0
  2 14  1  0  0  0
  3  4  1  0  0  0
  3 15  1  0  0  0
  3 16  1  0  0  0
  4  5  1  0  0  0
  4 17  1  0  0  0
  4 18  1  0  0  0
  5  6  1  0  0  0
  5 19  1  0  0  0
  5 20  1  0  0  0
  6  7  1  0  0  0
  6 13  1  0  0  0
  6 21  1  0  0  0
  7 10  2  0  0  0
  7 11  1  0  0  0
 12 22  1  0  0  0
 12 23  1  0  0  0
 12 24  1  0  0  0
 13 25  1  0  0  0
 13 26  1  0  0  0
 13 27  1  0  0  0
M  CHG  4   8  -1  11  -1  12   1  13   1
M  END
> <s_m_source_file>
../3td4_ligand.sdf

> <i_m_source_file_index>
1

> <s_epik_input>
W09IXUMoPU8pW0NAQEhdKFtOSDMrXSlbQ0gyXVtDSDJdW0NIMl1bQ0BASF0oW05IMytdKUMoPU8pW09IXQ==

> <s_epik_cmdline>
J2VwaWtfYXBwJywgJy1pbWFlJywgJ2xpZ2FuZF9wcm8ubWFlJywgJy1vbWFlJywgJ2xpZ2FuZF9wcmVwLm1hZScsICctbXMnLCAnMScsICctcGgnLCAnNycsICctcGh0JywgJzAuNScsICctbnQn

> <r_lp_tautomer_probability>
1

> <r_epik_Ionization_Penalty>
  0.0026

> <r_epik_Ionization_Penalty_Charging>
  0.0026

> <r_epik_Ionization_Penalty_Neutral>
  0.0000

> <r_epik_State_Penalty>
 -0.0000

> <r_epik_Charging_Adjusted_Penalty>
0.00259025781612228

> <i_epik_Tot_Q>
0

> <i_epik_Tot_abs_Q>
4

$$$$
