3tdc_ligand
                    3D
 Schrodinger Suite 2020-3.
 73 77  0  0  1  0            999 V2000
   35.9370   61.2440   46.1500 C   0  0  0  0  0  0
   35.0590   60.1460   46.1880 C   0  0  0  0  0  0
   35.4730   58.9060   45.6720 C   0  0  0  0  0  0
   36.7670   58.7710   45.1120 C   0  0  0  0  0  0
   37.6350   59.8740   45.0740 C   0  0  0  0  0  0
   37.2170   61.1120   45.5930 C   0  0  0  0  0  0
   38.2440   62.4710   45.5610 S   0  0  0  0  0  0
   36.9790   63.3840   46.3370 C   0  0  0  0  0  0
   37.0770   64.7110   46.6780 N   0  0  0  0  0  0
   38.1720   65.4290   46.3820 C   0  0  0  0  0  0
   39.1210   64.9240   45.8080 O   0  0  0  0  0  0
   38.2430   66.7160   46.7170 N   0  0  0  0  0  0
   35.7820   62.5700   46.6020 C   0  0  0  0  0  0
   34.5180   63.0480   47.2420 C   0  0  0  0  0  0
   34.2030   62.6710   48.4900 N   0  0  0  0  0  0
   33.7900   63.7850   46.5840 O   0  0  0  0  0  0
   32.9610   63.1150   49.1350 C   0  0  0  0  0  0
   33.3990   63.9400   50.3420 C   0  0  0  0  0  0
   35.0400   61.7770   49.2950 C   0  0  0  0  0  0
   35.3880   62.4900   50.6000 C   0  0  0  0  0  0
   34.1730   63.0710   51.3290 C   0  0  0  0  0  0
   34.6120   63.8950   52.4810 N   0  3  1  0  0  0
   33.4490   64.5240   53.1540 C   0  0  0  0  0  0
   33.9000   65.4190   54.3030 C   0  0  0  0  0  0
   34.7400   64.6300   55.3140 C   0  0  0  0  0  0
   35.4450   63.0930   53.4110 C   0  0  0  0  0  0
   35.9030   63.8940   54.6340 C   0  0  2  0  0  0
   36.5620   62.9540   55.5990 C   0  0  0  0  0  0
   36.0920   61.9070   56.0260 O   0  0  0  0  0  0
   37.8710   63.4110   55.9780 O   0  0  0  0  0  0
   37.0230   64.8840   54.3390 C   0  0  0  0  0  0
   38.1320   64.6760   55.3820 C   0  0  0  0  0  0
   38.0550   65.7460   56.4730 C   0  0  0  0  0  0
   39.5130   64.6330   54.7230 C   0  0  0  0  0  0
   39.3770   67.5980   46.4550 C   0  0  0  0  0  0
   39.2730   68.8660   47.2750 C   0  0  0  0  0  0
   34.0624   60.2562   46.6155 H   0  0  0  0  0  0
   34.7994   58.0496   45.7027 H   0  0  0  0  0  0
   37.0891   57.8103   44.7103 H   0  0  0  0  0  0
   38.6308   59.7707   44.6430 H   0  0  0  0  0  0
   36.2478   65.2063   47.2045 H   0  0  0  0  0  0
   37.3516   67.1043   47.2315 H   0  0  0  0  0  0
   32.3759   63.7198   48.4266 H   0  0  0  0  0  0
   32.3727   62.2374   49.4410 H   0  0  0  0  0  0
   34.0458   64.7644   50.0074 H   0  0  0  0  0  0
   32.5122   64.3513   50.8464 H   0  0  0  0  0  0
   34.4872   60.8501   49.5078 H   0  0  0  0  0  0
   35.9590   61.5367   48.7402 H   0  0  0  0  0  0
   35.8731   61.7810   51.2871 H   0  0  0  0  0  0
   36.0732   63.3246   50.3904 H   0  0  0  0  0  0
   33.5387   62.2695   51.7355 H   0  0  0  0  0  0
   35.2445   64.7150   52.1101 H   0  0  0  0  0  0
   32.8922   65.1354   52.4286 H   0  0  0  0  0  0
   32.7897   63.7403   53.5555 H   0  0  0  0  0  0
   34.5080   66.2457   53.9069 H   0  0  0  0  0  0
   33.0178   65.8268   54.8182 H   0  0  0  0  0  0
   35.1571   65.3202   56.0620 H   0  0  0  0  0  0
   34.1052   63.8851   55.8162 H   0  0  0  0  0  0
   34.8655   62.2301   53.7709 H   0  0  0  0  0  0
   36.3434   62.7377   52.8850 H   0  0  0  0  0  0
   37.4156   64.7028   53.3275 H   0  0  0  0  0  0
   36.6315   65.9100   54.4020 H   0  0  0  0  0  0
   37.0495   65.7431   56.9191 H   0  0  0  0  0  0
   38.2582   66.7335   56.0330 H   0  0  0  0  0  0
   38.8020   65.5306   57.2512 H   0  0  0  0  0  0
   39.5250   63.8530   53.9474 H   0  0  0  0  0  0
   40.2751   64.4061   55.4831 H   0  0  0  0  0  0
   39.7312   65.6090   54.2649 H   0  0  0  0  0  0
   40.3118   67.0814   46.7183 H   0  0  0  0  0  0
   39.3942   67.8662   45.3883 H   0  0  0  0  0  0
   40.1365   69.5129   47.0609 H   0  0  0  0  0  0
   39.2623   68.6109   48.3449 H   0  0  0  0  0  0
   38.3446   69.3957   47.0150 H   0  0  0  0  0  0
  1  2  2  0  0  0
  1  6  1  0  0  0
  1 13  1  0  0  0
  2  3  1  0  0  0
  2 37  1  0  0  0
  3  4  2  0  0  0
  3 38  1  0  0  0
  4  5  1  0  0  0
  4 39  1  0  0  0
  5  6  2  0  0  0
  5 40  1  0  0  0
  6  7  1  0  0  0
  7  8  1  0  0  0
  8  9  1  0  0  0
  8 13  2  0  0  0
  9 10  1  0  0  0
  9 41  1  0  0  0
 10 11  2  0  0  0
 10 12  1  0  0  0
 12 35  1  0  0  0
 12 42  1  0  0  0
 13 14  1  0  0  0
 14 15  1  0  0  0
 14 16  2  0  0  0
 15 17  1  0  0  0
 15 19  1  0  0  0
 17 18  1  0  0  0
 17 43  1  0  0  0
 17 44  1  0  0  0
 18 21  1  0  0  0
 18 45  1  0  0  0
 18 46  1  0  0  0
 19 20  1  0  0  0
 19 47  1  0  0  0
 19 48  1  0  0  0
 20 21  1  0  0  0
 20 49  1  0  0  0
 20 50  1  0  0  0
 21 22  1  0  0  0
 21 51  1  0  0  0
 22 23  1  0  0  0
 22 26  1  0  0  0
 22 52  1  0  0  0
 23 24  1  0  0  0
 23 53  1  0  0  0
 23 54  1  0  0  0
 24 25  1  0  0  0
 24 55  1  0  0  0
 24 56  1  0  0  0
 25 27  1  0  0  0
 25 57  1  0  0  0
 25 58  1  0  0  0
 26 27  1  0  0  0
 26 59  1  0  0  0
 26 60  1  0  0  0
 27 28  1  0  0  0
 27 31  1  0  0  0
 28 29  2  0  0  0
 28 30  1  0  0  0
 30 32  1  0  0  0
 31 32  1  0  0  0
 31 61  1  0  0  0
 31 62  1  0  0  0
 32 33  1  0  0  0
 32 34  1  0  0  0
 33 63  1  0  0  0
 33 64  1  0  0  0
 33 65  1  0  0  0
 34 66  1  0  0  0
 34 67  1  0  0  0
 34 68  1  0  0  0
 35 36  1  0  0  0
 35 69  1  0  0  0
 35 70  1  0  0  0
 36 71  1  0  0  0
 36 72  1  0  0  0
 36 73  1  0  0  0
M  CHG  1  22   1
M  END
> <s_m_source_file>
../3tdc_ligand.sdf

> <i_m_source_file_index>
1

> <s_epik_input>
W2NIXTFbY0hdW2NIXVtjSF1jKGMxMilzYyhbTkhdQyg9TylbTkhdW0NIMl1bQ0gzXSljMkMoPU8pTjNbQ0gyXVtDSDJdW0NIXShbQ0gyXVtDSDJdMylbTkBIK10oW0NIMl00KVtDSDJdW0NIMl1bQ0gyXVtDQEBdNDVDKD1PKU9DKFtDSDJdNSkoW0NIM10pW0NIM10=

> <s_epik_cmdline>
J2VwaWtfYXBwJywgJy1pbWFlJywgJ2xpZ2FuZF9wcm8ubWFlJywgJy1vbWFlJywgJ2xpZ2FuZF9wcmVwLm1hZScsICctbXMnLCAnMScsICctcGgnLCAnNycsICctcGh0JywgJzAuNScsICctbnQn

> <r_epik_Ionization_Penalty>
  0.0152

> <r_epik_Ionization_Penalty_Charging>
  0.0152

> <r_epik_Ionization_Penalty_Neutral>
  0.0000

> <r_epik_State_Penalty>
  0.0119

> <r_epik_Charging_Adjusted_Penalty>
0.0270839846906799

> <i_epik_Tot_Q>
1

> <i_epik_Tot_abs_Q>
1

> <s_epik_Chemistry_Notes>
This compound has an ester and may undergo hydrolysis at high or low pH.

$$$$
