3tdh_ligand
                    3D
 Schrodinger Suite 2020-3.
 35 37  0  0  1  0            999 V2000
   31.0100   66.2800    1.8060 P   0  0  0  0  0  0
   31.5640   66.3330    3.2080 O   0  0  0  0  0  0
   32.0400   66.4830    0.7190 O   0  5  0  0  0  0
   30.0760   65.1130    1.5680 O   0  5  0  0  0  0
   30.0630   67.5810    1.7080 O   0  0  0  0  0  0
   29.3370   67.9020    0.5170 C   0  0  0  0  0  0
   29.0890   69.4110    0.4310 C   0  0  1  0  0  0
   28.4920   69.9020    1.6380 O   0  0  0  0  0  0
   30.3770   70.1930    0.2380 C   0  0  1  0  0  0
   30.1430   71.2340   -0.7130 O   0  0  0  0  0  0
   30.6950   70.7710    1.6060 C   0  0  1  0  0  0
   31.3340   72.0480    1.5290 O   0  0  0  0  0  0
   29.3370   70.8590    2.2880 C   0  0  2  0  0  0
   29.4090   70.5260    3.7320 N   0  0  0  0  0  0
   30.1530   69.5610    4.3100 C   0  0  0  0  0  0
   29.9640   69.5340    5.6550 N   0  0  0  0  0  0
   29.0750   70.5000    5.9540 C   0  0  0  0  0  0
   28.4200   71.0180    7.1800 C   0  0  0  0  0  0
   28.6890   70.4880    8.3920 N   0  0  0  0  0  0
   27.5460   72.0420    7.0480 N   0  0  0  0  0  0
   27.2610   72.5880    5.8490 C   0  0  0  0  0  0
   27.8130   72.1650    4.6960 N   0  0  0  0  0  0
   28.7100   71.1480    4.6820 C   0  0  0  0  0  0
   29.9163   67.5842   -0.3624 H   0  0  0  0  0  0
   28.3685   67.3805    0.5261 H   0  0  0  0  0  0
   28.3841   69.5882   -0.3947 H   0  0  0  0  0  0
   31.2109   69.6133   -0.1845 H   0  0  0  0  0  0
   29.8990   70.9819   -1.7555 H   0  0  0  0  0  0
   31.4510   70.1973    2.1622 H   0  0  0  0  0  0
   32.3249   72.1398    1.0602 H   0  0  0  0  0  0
   28.9083   71.8687    2.2059 H   0  0  0  0  0  0
   30.8195   68.8898    3.7683 H   0  0  0  0  0  0
   29.4023   69.6555    8.4822 H   0  0  0  0  0  0
   28.1949   70.8886    9.2894 H   0  0  0  0  0  0
   26.5488   73.4123    5.8109 H   0  0  0  0  0  0
  1  2  2  0  0  0
  1  3  1  0  0  0
  1  4  1  0  0  0
  1  5  1  0  0  0
  5  6  1  0  0  0
  6  7  1  0  0  0
  6 24  1  0  0  0
  6 25  1  0  0  0
  7  8  1  0  0  0
  7  9  1  0  0  0
  7 26  1  0  0  0
  8 13  1  0  0  0
  9 10  1  0  0  0
  9 11  1  0  0  0
  9 27  1  0  0  0
 10 28  1  0  0  0
 11 12  1  0  0  0
 11 13  1  0  0  0
 11 29  1  0  0  0
 12 30  1  0  0  0
 13 14  1  0  0  0
 13 31  1  0  0  0
 14 15  1  0  0  0
 14 23  1  0  0  0
 15 16  2  0  0  0
 15 32  1  0  0  0
 16 17  1  0  0  0
 17 18  2  0  0  0
 17 23  1  0  0  0
 18 19  1  0  0  0
 18 20  1  0  0  0
 19 33  1  0  0  0
 19 34  1  0  0  0
 20 21  2  0  0  0
 21 22  1  0  0  0
 21 35  1  0  0  0
 22 23  2  0  0  0
M  CHG  2   3  -1   4  -1
M  END
> <s_m_source_file>
../3tdh_ligand.sdf

> <i_m_source_file_index>
1

> <s_epik_input>
Tz1QKFtPSF0pKFtPSF0pT1tDSDJdW0NASF0xT1tDQEhdKFtDQEhdKFtPSF0pW0NAQEhdMVtPSF0pbihbY0hdbjIpYyhjMjMpbltjSF1uYzNbTkgyXQ==

> <s_epik_cmdline>
J2VwaWtfYXBwJywgJy1pbWFlJywgJ2xpZ2FuZF9wcm8ubWFlJywgJy1vbWFlJywgJ2xpZ2FuZF9wcmVwLm1hZScsICctbXMnLCAnMScsICctcGgnLCAnNycsICctcGh0JywgJzAuNScsICctbnQn

> <r_lp_tautomer_probability>
0.999997216410988

> <r_epik_Ionization_Penalty>
  0.1025

> <r_epik_Ionization_Penalty_Charging>
  0.1020

> <r_epik_Ionization_Penalty_Neutral>
  0.0004

> <r_epik_State_Penalty>
  0.0920

> <r_epik_Charging_Adjusted_Penalty>
0.194024004396068

> <i_epik_Tot_Q>
-2

> <i_epik_Tot_abs_Q>
2

> <s_epik_Chemistry_Notes>
This compound contains an acetal/aminal-like group ( X-CH(R)-Y where X, Y are N, S, or O) that may be acid/base labile, releasing an aldehyde.

$$$$
