3tdj_ligand
                    3D
 Schrodinger Suite 2020-3.
 26 27  0  0  1  0            999 V2000
   76.3260   21.0600   27.1780 C   0  0  0  0  0  0
   73.4220   16.4640   30.4290 O   0  0  0  0  0  0
   75.6990   16.8530   31.8970 O   0  0  0  0  0  0
   78.0100   14.4980   27.6530 F   0  0  0  0  0  0
   77.2390   16.6730   26.7250 C   0  0  0  0  0  0
   76.4900   17.8160   26.8850 C   0  0  0  0  0  0
   76.5480   15.7950   28.9630 C   0  0  0  0  0  0
   74.9760   20.3490   27.2950 C   0  0  0  0  0  0
   73.9850   19.4250   29.4530 C   0  0  0  0  0  0
   74.5690   18.8030   30.6960 N   0  0  3  0  0  0
   77.2620   15.6210   27.8020 C   0  0  0  0  0  0
   75.7570   18.0000   28.0630 C   0  0  0  0  0  0
   75.7960   16.9650   29.1100 C   0  0  0  0  0  0
   74.9030   19.2740   28.2660 N   0  0  0  0  0  0
   74.8400   17.2720   30.5800 S   0  0  0  0  0  0
   76.2594   21.8502   26.4157 H   0  0  0  0  0  0
   77.0989   20.3336   26.8866 H   0  0  0  0  0  0
   76.5901   21.5072   28.1477 H   0  0  0  0  0  0
   77.8190   16.5282   25.8135 H   0  0  0  0  0  0
   76.4677   18.5723   26.1004 H   0  0  0  0  0  0
   76.5672   15.0404   29.7494 H   0  0  0  0  0  0
   74.2031   21.0754   27.5864 H   0  0  0  0  0  0
   74.7119   19.9018   26.3254 H   0  0  0  0  0  0
   73.0285   18.9374   29.2137 H   0  0  0  0  0  0
   73.8165   20.4984   29.6245 H   0  0  0  0  0  0
   74.9195   19.4434   31.5188 H   0  0  0  0  0  0
  1  8  1  0  0  0
  1 16  1  0  0  0
  1 17  1  0  0  0
  1 18  1  0  0  0
  2 15  2  0  0  0
  3 15  2  0  0  0
  4 11  1  0  0  0
  5  6  2  0  0  0
  5 11  1  0  0  0
  5 19  1  0  0  0
  6 12  1  0  0  0
  6 20  1  0  0  0
  7 11  2  0  0  0
  7 13  1  0  0  0
  7 21  1  0  0  0
  8 14  1  0  0  0
  8 22  1  0  0  0
  8 23  1  0  0  0
  9 10  1  0  0  0
  9 14  1  0  0  0
  9 24  1  0  0  0
  9 25  1  0  0  0
 10 15  1  0  0  0
 10 26  1  0  0  0
 12 13  2  0  0  0
 12 14  1  0  0  0
 13 15  1  0  0  0
M  END
> <s_m_source_file>
../3tdj_ligand.sdf

> <i_m_source_file_index>
1

> <s_epik_input>
W0NIM11bQ0gyXU4xW0NIMl1bTkhdUyg9TykoPU8pYyhjMTIpW2NIXWMoRilbY0hdW2NIXTI=

> <s_epik_cmdline>
J2VwaWtfYXBwJywgJy1pbWFlJywgJ2xpZ2FuZF9wcm8ubWFlJywgJy1vbWFlJywgJ2xpZ2FuZF9wcmVwLm1hZScsICctbXMnLCAnMScsICctcGgnLCAnNycsICctcGh0JywgJzAuNScsICctbnQn

> <r_lp_tautomer_probability>
1

> <r_epik_Ionization_Penalty>
  0.0004

> <r_epik_Ionization_Penalty_Charging>
  0.0000

> <r_epik_Ionization_Penalty_Neutral>
  0.0004

> <r_epik_State_Penalty>
 -0.0000

> <r_epik_Charging_Adjusted_Penalty>
0

> <i_epik_Tot_Q>
0

> <i_epik_Tot_abs_Q>
0

> <s_epik_Chemistry_Notes>
This compound contains an acetal/aminal-like group ( X-CH(R)-Y where X, Y are N, S, or O) that may be acid/base labile, releasing an aldehyde.

$$$$
