3te5_ligand
                    3D
 Schrodinger Suite 2020-3.
 71 75  0  0  1  0            999 V2000
  -31.3670   65.9410   -2.5540 P   0  0  2  0  0  0
  -30.5940   64.7030   -2.7850 O   0  5  0  0  0  0
  -31.9620   66.6370   -3.7010 O   0  0  0  0  0  0
  -30.5200   66.9200   -1.5820 O   0  0  0  0  0  0
  -29.3780   67.6670   -1.9520 C   0  0  0  0  0  0
  -29.2660   68.9630   -1.1200 C   0  0  1  0  0  0
  -28.7670   69.9790   -1.9970 O   0  0  0  0  0  0
  -30.6040   69.5430   -0.6580 C   0  0  1  0  0  0
  -30.3610   70.5530    0.3480 O   0  0  0  0  0  0
  -31.1600   70.1810   -1.9290 C   0  0  1  0  0  0
  -31.9650   71.3480   -1.6520 O   0  0  0  0  0  0
  -29.9010   70.5870   -2.6850 C   0  0  2  0  0  0
  -29.9320   70.1460   -4.1040 N   0  0  0  0  0  0
  -30.6840   69.2250   -4.7090 C   0  0  0  0  0  0
  -30.3490   69.1960   -5.9940 N   0  0  0  0  0  0
  -29.3850   70.1000   -6.1880 C   0  0  0  0  0  0
  -28.7000   70.4650   -7.2760 C   0  0  0  0  0  0
  -28.9970   69.8410   -8.4060 N   0  0  0  0  0  0
  -27.7560   71.4180   -7.2360 N   0  0  0  0  0  0
  -27.4710   72.0510   -6.0220 C   0  0  0  0  0  0
  -28.1930   71.6480   -4.9010 N   0  0  0  0  0  0
  -29.1280   70.6870   -5.0120 C   0  0  0  0  0  0
  -32.5240   65.7380   -1.4490 O   0  0  0  0  0  0
  -33.2730   64.3720   -1.1670 P   0  0  2  0  0  0
  -33.6020   63.7590   -2.4700 O   0  0  0  0  0  0
  -34.3600   64.6960   -0.2170 O   0  5  0  0  0  0
  -32.1360   63.4410   -0.5240 O   0  0  0  0  0  0
  -31.9450   63.2570    0.8790 C   0  0  0  0  0  0
  -30.4520   63.0180    1.1420 C   0  0  1  0  0  0
  -29.9120   62.0800    0.1740 O   0  0  0  0  0  0
  -29.6810   64.3290    0.9420 C   0  0  1  0  0  0
  -28.9160   64.5960    2.1320 O   0  0  0  0  0  0
  -28.7740   64.0390   -0.2440 C   0  0  1  0  0  0
  -27.5140   64.7230   -0.1190 O   0  0  0  0  0  0
  -28.5730   62.5440   -0.0970 C   0  0  2  0  0  0
  -27.9550   61.9450   -1.3100 N   0  0  0  0  0  0
  -26.6290   61.4620   -1.2270 C   0  0  0  0  0  0
  -26.0040   60.8910   -2.3430 C   0  0  0  0  0  0
  -24.6850   60.4220   -2.2340 C   0  0  0  0  0  0
  -24.0420   60.5790   -1.1950 O   0  0  0  0  0  0
  -24.1810   59.8030   -3.3060 N   0  0  0  0  0  0
  -26.7170   60.8100   -3.5480 C   0  0  0  0  0  0
  -28.0310   61.2810   -3.6430 C   0  0  0  0  0  0
  -28.6620   61.8490   -2.5330 C   0  0  0  0  0  0
  -28.4744   67.0627   -1.7841 H   0  0  0  0  0  0
  -29.4457   67.9375   -3.0161 H   0  0  0  0  0  0
  -28.6108   68.7563   -0.2609 H   0  0  0  0  0  0
  -31.2877   68.8306   -0.1731 H   0  0  0  0  0  0
  -29.9580   70.2652    1.3302 H   0  0  0  0  0  0
  -31.8596   69.5333   -2.4776 H   0  0  0  0  0  0
  -32.9165   71.2438   -1.1100 H   0  0  0  0  0  0
  -29.7838   71.6806   -2.7038 H   0  0  0  0  0  0
  -31.4419   68.6040   -4.2316 H   0  0  0  0  0  0
  -29.7743   69.0627   -8.4166 H   0  0  0  0  0  0
  -28.4663   70.1010   -9.3338 H   0  0  0  0  0  0
  -26.7122   72.8307   -5.9554 H   0  0  0  0  0  0
  -32.2808   64.1565    1.4158 H   0  0  0  0  0  0
  -32.5289   62.3885    1.2178 H   0  0  0  0  0  0
  -30.3242   62.5884    2.1465 H   0  0  0  0  0  0
  -30.2918   65.2333    0.8037 H   0  0  0  0  0  0
  -29.4306   64.8241    3.0770 H   0  0  0  0  0  0
  -29.1446   64.3875   -1.2193 H   0  0  0  0  0  0
  -27.4729   65.8192   -0.2000 H   0  0  0  0  0  0
  -27.8927   62.2253    0.7065 H   0  0  0  0  0  0
  -26.0876   61.5384   -0.2725 H   0  0  0  0  0  0
  -24.7934   59.6863   -4.2123 H   0  0  0  0  0  0
  -23.1538   59.4103   -3.2820 H   0  0  0  0  0  0
  -26.2265   60.3672   -4.4274 H   0  0  0  0  0  0
  -28.5747   61.2056   -4.5962 H   0  0  0  0  0  0
  -29.5641   61.2364   -2.3879 H   0  0  0  0  0  0
  -28.9524   62.8555   -2.8687 H   0  0  0  0  0  0
  1  2  1  0  0  0
  1  3  2  0  0  0
  1  4  1  0  0  0
  1 23  1  0  0  0
  4  5  1  0  0  0
  5  6  1  0  0  0
  5 45  1  0  0  0
  5 46  1  0  0  0
  6  7  1  0  0  0
  6  8  1  0  0  0
  6 47  1  0  0  0
  7 12  1  0  0  0
  8  9  1  0  0  0
  8 10  1  0  0  0
  8 48  1  0  0  0
  9 49  1  0  0  0
 10 11  1  0  0  0
 10 12  1  0  0  0
 10 50  1  0  0  0
 11 51  1  0  0  0
 12 13  1  0  0  0
 12 52  1  0  0  0
 13 14  1  0  0  0
 13 22  1  0  0  0
 14 15  2  0  0  0
 14 53  1  0  0  0
 15 16  1  0  0  0
 16 17  2  0  0  0
 16 22  1  0  0  0
 17 18  1  0  0  0
 17 19  1  0  0  0
 18 54  1  0  0  0
 18 55  1  0  0  0
 19 20  2  0  0  0
 20 21  1  0  0  0
 20 56  1  0  0  0
 21 22  2  0  0  0
 23 24  1  0  0  0
 24 25  2  0  0  0
 24 26  1  0  0  0
 24 27  1  0  0  0
 27 28  1  0  0  0
 28 29  1  0  0  0
 28 57  1  0  0  0
 28 58  1  0  0  0
 29 30  1  0  0  0
 29 31  1  0  0  0
 29 59  1  0  0  0
 30 35  1  0  0  0
 31 32  1  0  0  0
 31 33  1  0  0  0
 31 60  1  0  0  0
 32 61  1  0  0  0
 33 34  1  0  0  0
 33 35  1  0  0  0
 33 62  1  0  0  0
 34 63  1  0  0  0
 35 36  1  0  0  0
 35 64  1  0  0  0
 36 37  1  0  0  0
 36 44  1  0  0  0
 37 38  2  0  0  0
 37 65  1  0  0  0
 38 39  1  0  0  0
 38 42  1  0  0  0
 39 40  2  0  0  0
 39 41  1  0  0  0
 41 66  1  0  0  0
 41 67  1  0  0  0
 42 43  2  0  0  0
 42 68  1  0  0  0
 43 44  1  0  0  0
 43 69  1  0  0  0
 44 70  1  0  0  0
 44 71  1  0  0  0
M  CHG  2   2  -1  26  -1
M  END
> <s_m_source_file>
../3te5_ligand.sdf

> <i_m_source_file_index>
1

> <s_epik_input>
W05IMl1jMW5bY0hdbmMoYzEyKW4oW2NIXW4yKVtDQEBIXShbQ0BIXShbT0hdKVtDQEBIXTNbT0hdKU9bQ0BASF0zW0NIMl1PW1BAQF0oPU8pKFtPSF0pT1tQQF0oPU8pKFtPSF0pT1tDSDJdW0NASF00T1tDQEhdKFtDQEhdKFtPSF0pW0NAQEhdNFtPSF0pTjVbQ0hdPUMoQyg9TylbTkgyXSlbQ0hdPVtDSF1bQ0gyXTU=

> <s_epik_cmdline>
J2VwaWtfYXBwJywgJy1pbWFlJywgJ2xpZ2FuZF9wcm8ubWFlJywgJy1vbWFlJywgJ2xpZ2FuZF9wcmVwLm1hZScsICctbXMnLCAnMScsICctcGgnLCAnNycsICctcGh0JywgJzAuNScsICctbnQn

> <r_lp_tautomer_probability>
1

> <r_epik_Ionization_Penalty>
  0.0010

> <r_epik_Ionization_Penalty_Charging>
  0.0006

> <r_epik_Ionization_Penalty_Neutral>
  0.0004

> <r_epik_State_Penalty>
 -0.0000

> <r_epik_Charging_Adjusted_Penalty>
0.00055403440658356

> <i_epik_Tot_Q>
-2

> <i_epik_Tot_abs_Q>
2

> <s_epik_Chemistry_Notes>
This compound contains an acetal/aminal-like group ( X-CH(R)-Y where X, Y are N, S, or O) that may be acid/base labile, releasing an aldehyde.

$$$$
