3tf6_ligand
                    3D
 Schrodinger Suite 2020-3.
 16 16  0  0  1  0            999 V2000
   28.5090   82.0240   62.9500 C   0  0  0  0  0  0
   29.7559   81.9038   63.0852 O   0  0  0  0  0  0
   27.6670   80.8400   62.5360 C   0  0  0  0  0  0
   26.8420   80.9670   61.4410 C   0  0  0  0  0  0
   26.0460   79.9180   61.0470 C   0  0  0  0  0  0
   27.7040   79.6370   63.2390 C   0  0  0  0  0  0
   28.5320   79.5260   64.3250 O   0  0  0  0  0  0
   26.9120   78.5510   62.8370 C   0  0  0  0  0  0
   26.0830   78.7140   61.7320 C   0  0  0  0  0  0
   26.9390   77.3210   63.4940 O   0  0  0  0  0  0
   27.9609   83.1387   63.1614 O   0  5  0  0  0  0
   26.8200   81.9037   60.8840 H   0  0  0  0  0  0
   25.3817   80.0339   60.1906 H   0  0  0  0  0  0
   29.1504   80.3813   64.6349 H   0  0  0  0  0  0
   25.4559   77.8860   61.4015 H   0  0  0  0  0  0
   27.5902   77.1791   64.3691 H   0  0  0  0  0  0
  1  2  2  0  0  0
  1  3  1  0  0  0
  1 11  1  0  0  0
  3  4  2  0  0  0
  3  6  1  0  0  0
  4  5  1  0  0  0
  4 12  1  0  0  0
  5  9  2  0  0  0
  5 13  1  0  0  0
  6  7  1  0  0  0
  6  8  2  0  0  0
  7 14  1  0  0  0
  8  9  1  0  0  0
  8 10  1  0  0  0
  9 15  1  0  0  0
 10 16  1  0  0  0
M  CHG  1  11  -1
M  END
> <s_m_source_file>
../3tf6_ligand.sdf

> <i_m_source_file_index>
1

> <s_epik_input>
Tz1DKFtPSF0pYzFbY0hdW2NIXVtjSF1jKFtPSF0pYzFbT0hd

> <s_epik_cmdline>
J2VwaWtfYXBwJywgJy1pbWFlJywgJ2xpZ2FuZF9wcm8ubWFlJywgJy1vbWFlJywgJ2xpZ2FuZF9wcmVwLm1hZScsICctbXMnLCAnMScsICctcGgnLCAnNycsICctcGh0JywgJzAuNScsICctbnQn

> <r_lp_tautomer_probability>
1

> <r_epik_Ionization_Penalty>
  0.0017

> <r_epik_Ionization_Penalty_Charging>
  0.0000

> <r_epik_Ionization_Penalty_Neutral>
  0.0016

> <r_epik_State_Penalty>
 -0.0000

> <r_epik_Charging_Adjusted_Penalty>
4.56206219586118e-05

> <i_epik_Tot_Q>
-1

> <i_epik_Tot_abs_Q>
1

$$$$
