3tf7_ligand
                    3D
 Schrodinger Suite 2020-3.
151154  0  0  1  0            999 V2000
  -11.6560  -38.3080  -35.4320 N   0  3  0  0  0  0
  -12.7930  -37.4640  -34.9700 C   0  0  2  0  0  0
  -14.1270  -38.2010  -35.0010 C   0  0  0  0  0  0
  -14.3370  -39.1250  -35.7940 O   0  0  0  0  0  0
  -12.8880  -36.1680  -35.7790 C   0  0  0  0  0  0
  -11.7890  -35.1610  -35.4870 C   0  0  0  0  0  0
  -11.6630  -34.8300  -34.0170 C   0  0  0  0  0  0
  -12.4860  -34.1030  -33.4620 O   0  0  0  0  0  0
  -10.6220  -35.3520  -33.3780 N   0  0  0  0  0  0
  -15.0240  -37.7640  -34.1260 N   0  0  0  0  0  0
  -16.3110  -38.4020  -33.9320 C   0  0  2  0  0  0
  -17.3760  -37.7330  -34.7900 C   0  0  0  0  0  0
  -17.1410  -36.6590  -35.3500 O   0  0  0  0  0  0
  -16.6770  -38.3460  -32.4460 C   0  0  0  0  0  0
  -15.7970  -39.1240  -31.4520 C   0  0  0  0  0  0
  -16.1460  -38.8980  -29.9800 C   0  0  0  0  0  0
  -15.7720  -40.6080  -31.7730 C   0  0  0  0  0  0
  -18.5360  -38.3790  -34.9110 N   0  0  0  0  0  0
  -19.6600  -37.8160  -35.6610 C   0  0  2  0  0  0
  -20.1910  -36.5540  -34.9730 C   0  0  0  0  0  0
  -19.9780  -36.3690  -33.7670 O   0  0  0  0  0  0
  -20.7810  -38.8500  -35.8310 C   0  0  0  0  0  0
  -21.3790  -39.1750  -34.5910 O   0  0  0  0  0  0
  -20.8730  -35.6750  -35.7350 N   0  0  0  0  0  0
  -21.4700  -34.4960  -35.1170 C   0  0  2  0  0  0
  -22.5130  -34.9020  -34.0830 C   0  0  0  0  0  0
  -22.9480  -36.0600  -34.0650 O   0  0  0  0  0  0
  -22.1400  -33.7850  -36.2970 C   0  0  0  0  0  0
  -22.3380  -34.8530  -37.3250 C   0  0  0  0  0  0
  -21.1410  -35.7220  -37.1830 C   0  0  0  0  0  0
  -22.8890  -33.9570  -33.2260 N   0  0  0  0  0  0
  -23.9080  -34.1780  -32.2100 C   0  0  2  0  0  0
  -25.1710  -34.7240  -32.8840 C   0  0  0  0  0  0
  -25.6980  -34.0980  -33.8080 O   0  0  0  0  0  0
  -24.1950  -32.8650  -31.4860 C   0  0  0  0  0  0
  -24.9740  -33.0200  -30.2150 C   0  0  0  0  0  0
  -24.3240  -33.2860  -29.0140 C   0  0  0  0  0  0
  -26.3570  -32.8710  -30.2110 C   0  0  0  0  0  0
  -25.0400  -33.4190  -27.8310 C   0  0  0  0  0  0
  -27.0860  -33.0010  -29.0350 C   0  0  0  0  0  0
  -26.4270  -33.2730  -27.8400 C   0  0  0  0  0  0
  -25.6420  -35.9090  -32.4460 N   0  0  0  0  0  0
  -26.7690  -36.5610  -33.1200 C   0  0  2  0  0  0
  -28.0860  -35.8050  -32.9790 C   0  0  0  0  0  0
  -28.2590  -35.0190  -32.0460 O   0  0  0  0  0  0
  -26.8590  -37.9300  -32.4280 C   0  0  0  0  0  0
  -26.1740  -37.7580  -31.1290 C   0  0  0  0  0  0
  -25.1090  -36.7290  -31.3410 C   0  0  0  0  0  0
  -28.9920  -36.0480  -33.9220 N   0  0  0  0  0  0
  -30.3460  -35.5100  -33.8880 C   0  0  2  0  0  0
  -31.1040  -36.0150  -32.6570 C   0  0  0  0  0  0
  -30.7280  -37.0240  -32.0620 O   0  0  0  0  0  0
  -31.0880  -35.9350  -35.1520 C   0  0  0  0  0  0
  -31.1720  -34.8720  -36.2090 C   0  0  0  0  0  0
  -32.4100  -34.3380  -36.5660 C   0  0  0  0  0  0
  -30.0320  -34.4220  -36.8660 C   0  0  0  0  0  0
  -32.5110  -33.3650  -37.5520 C   0  0  0  0  0  0
  -30.1190  -33.4470  -37.8490 C   0  0  0  0  0  0
  -31.3620  -32.9140  -38.1940 C   0  0  0  0  0  0
  -32.1690  -35.3140  -32.2780 N   0  0  0  0  0  0
  -33.0100  -35.7410  -31.1630 C   0  0  2  0  0  0
  -34.0080  -36.8050  -31.6070 C   0  0  0  0  0  0
  -34.5730  -36.7190  -32.6980 O   0  0  0  0  0  0
  -33.7490  -34.5500  -30.5500 C   0  0  0  0  0  0
  -32.9240  -33.8140  -29.5060 C   0  0  0  0  0  0
  -31.8740  -34.3330  -29.0730 O   0  0  0  0  0  0
  -33.3360  -32.7070  -29.1050 O   0  0  0  0  0  0
  -34.2210  -37.7990  -30.7480 N   0  0  0  0  0  0
  -35.1270  -38.9110  -31.0220 C   0  0  2  0  0  0
  -36.6030  -38.5100  -31.0910 C   0  0  0  0  0  0
  -36.9590  -37.3470  -30.9010 O   0  0  0  0  0  0
  -34.9290  -40.0070  -29.9730 C   0  0  0  0  0  0
  -33.5950  -40.7580  -29.8930 C   0  0  0  0  0  0
  -33.5030  -41.7110  -28.7120 C   0  0  0  0  0  0
  -33.3410  -41.4940  -31.1940 C   0  0  0  0  0  0
  -37.4702  -39.3875  -31.3472 O   0  0  0  0  0  0
  -11.6156  -39.2291  -34.8320 H   0  0  0  0  0  0
  -10.7145  -37.7516  -35.3134 H   0  0  0  0  0  0
  -11.7982  -38.5665  -36.4917 H   0  0  0  0  0  0
  -12.5576  -37.2342  -33.9203 H   0  0  0  0  0  0
  -12.8312  -36.4009  -36.8526 H   0  0  0  0  0  0
  -13.8443  -35.6696  -35.5620 H   0  0  0  0  0  0
  -10.8224  -35.5659  -35.8213 H   0  0  0  0  0  0
  -11.9989  -34.2235  -36.0228 H   0  0  0  0  0  0
   -9.9125  -35.9968  -33.9173 H   0  0  0  0  0  0
  -10.4695  -35.1395  -32.3096 H   0  0  0  0  0  0
  -14.7551  -36.8768  -33.5339 H   0  0  0  0  0  0
  -16.2008  -39.4449  -34.2641 H   0  0  0  0  0  0
  -16.6435  -37.3026  -32.0992 H   0  0  0  0  0  0
  -17.6910  -38.7476  -32.3027 H   0  0  0  0  0  0
  -14.7826  -38.7196  -31.5843 H   0  0  0  0  0  0
  -16.1590  -37.8187  -29.7678 H   0  0  0  0  0  0
  -15.3926  -39.3874  -29.3453 H   0  0  0  0  0  0
  -17.1373  -39.3253  -29.7684 H   0  0  0  0  0  0
  -15.5196  -40.7494  -32.8343 H   0  0  0  0  0  0
  -16.7615  -41.0437  -31.5702 H   0  0  0  0  0  0
  -15.0168  -41.1059  -31.1470 H   0  0  0  0  0  0
  -18.6348  -39.3620  -34.4274 H   0  0  0  0  0  0
  -19.2492  -37.5554  -36.6476 H   0  0  0  0  0  0
  -21.5573  -38.4432  -36.4958 H   0  0  0  0  0  0
  -20.3677  -39.7701  -36.2699 H   0  0  0  0  0  0
  -22.2008  -39.9051  -34.5513 H   0  0  0  0  0  0
  -20.7077  -33.8990  -34.5951 H   0  0  0  0  0  0
  -23.0969  -33.3526  -35.9692 H   0  0  0  0  0  0
  -21.4819  -32.9835  -36.6637 H   0  0  0  0  0  0
  -23.2704  -35.3970  -37.1136 H   0  0  0  0  0  0
  -22.3992  -34.3945  -38.3230 H   0  0  0  0  0  0
  -20.2686  -35.3353  -37.7301 H   0  0  0  0  0  0
  -21.3329  -36.7616  -37.4868 H   0  0  0  0  0  0
  -22.3965  -32.9768  -33.3069 H   0  0  0  0  0  0
  -23.5134  -34.9122  -31.4922 H   0  0  0  0  0  0
  -23.2453  -32.3756  -31.2240 H   0  0  0  0  0  0
  -24.7791  -32.2040  -32.1432 H   0  0  0  0  0  0
  -23.2392  -33.3914  -29.0011 H   0  0  0  0  0  0
  -26.8762  -32.6492  -31.1433 H   0  0  0  0  0  0
  -24.5193  -33.6368  -26.8985 H   0  0  0  0  0  0
  -28.1703  -32.8903  -29.0487 H   0  0  0  0  0  0
  -26.9931  -33.3717  -26.9138 H   0  0  0  0  0  0
  -26.5681  -36.5890  -34.2011 H   0  0  0  0  0  0
  -27.9158  -38.2039  -32.2931 H   0  0  0  0  0  0
  -26.3601  -38.6884  -33.0493 H   0  0  0  0  0  0
  -26.8995  -37.4219  -30.3736 H   0  0  0  0  0  0
  -25.7361  -38.7171  -30.8156 H   0  0  0  0  0  0
  -24.1498  -37.1740  -31.6443 H   0  0  0  0  0  0
  -24.9554  -36.0953  -30.4551 H   0  0  0  0  0  0
  -28.6761  -36.6901  -34.7574 H   0  0  0  0  0  0
  -30.2372  -34.4165  -33.8381 H   0  0  0  0  0  0
  -30.5771  -36.7977  -35.6045 H   0  0  0  0  0  0
  -32.1205  -36.2139  -34.8948 H   0  0  0  0  0  0
  -33.3114  -34.6894  -36.0639 H   0  0  0  0  0  0
  -29.0595  -34.8399  -36.6058 H   0  0  0  0  0  0
  -33.4852  -32.9569  -37.8214 H   0  0  0  0  0  0
  -29.2172  -33.0974  -38.3516 H   0  0  0  0  0  0
  -31.4324  -32.1463  -38.9645 H   0  0  0  0  0  0
  -32.4102  -34.3919  -32.8272 H   0  0  0  0  0  0
  -32.3139  -36.1714  -30.4280 H   0  0  0  0  0  0
  -34.0055  -33.8307  -31.3417 H   0  0  0  0  0  0
  -34.6698  -34.9017  -30.0617 H   0  0  0  0  0  0
  -31.2715  -33.8072  -28.3177 H   0  0  0  0  0  0
  -33.6758  -37.7561  -29.7936 H   0  0  0  0  0  0
  -34.8289  -39.2451  -32.0268 H   0  0  0  0  0  0
  -35.0543  -39.5790  -28.9674 H   0  0  0  0  0  0
  -35.6731  -40.8020  -30.1284 H   0  0  0  0  0  0
  -32.8057  -40.0087  -29.7332 H   0  0  0  0  0  0
  -33.6901  -41.1584  -27.7795 H   0  0  0  0  0  0
  -32.4982  -42.1574  -28.6785 H   0  0  0  0  0  0
  -34.2542  -42.5068  -28.8236 H   0  0  0  0  0  0
  -33.4120  -40.7880  -32.0345 H   0  0  0  0  0  0
  -34.0914  -42.2887  -31.3182 H   0  0  0  0  0  0
  -32.3354  -41.9393  -31.1731 H   0  0  0  0  0  0
  -38.5336  -39.1111  -31.3993 H   0  0  0  0  0  0
  1  2  1  0  0  0
  1 77  1  0  0  0
  1 78  1  0  0  0
  1 79  1  0  0  0
  2  3  1  0  0  0
  2  5  1  0  0  0
  2 80  1  0  0  0
  3  4  2  0  0  0
  3 10  1  0  0  0
  5  6  1  0  0  0
  5 81  1  0  0  0
  5 82  1  0  0  0
  6  7  1  0  0  0
  6 83  1  0  0  0
  6 84  1  0  0  0
  7  8  2  0  0  0
  7  9  1  0  0  0
  9 85  1  0  0  0
  9 86  1  0  0  0
 10 11  1  0  0  0
 10 87  1  0  0  0
 11 12  1  0  0  0
 11 14  1  0  0  0
 11 88  1  0  0  0
 12 13  2  0  0  0
 12 18  1  0  0  0
 14 15  1  0  0  0
 14 89  1  0  0  0
 14 90  1  0  0  0
 15 16  1  0  0  0
 15 17  1  0  0  0
 15 91  1  0  0  0
 16 92  1  0  0  0
 16 93  1  0  0  0
 16 94  1  0  0  0
 17 95  1  0  0  0
 17 96  1  0  0  0
 17 97  1  0  0  0
 18 19  1  0  0  0
 18 98  1  0  0  0
 19 20  1  0  0  0
 19 22  1  0  0  0
 19 99  1  0  0  0
 20 21  2  0  0  0
 20 24  1  0  0  0
 22 23  1  0  0  0
 22100  1  0  0  0
 22101  1  0  0  0
 23102  1  0  0  0
 24 25  1  0  0  0
 24 30  1  0  0  0
 25 26  1  0  0  0
 25 28  1  0  0  0
 25103  1  0  0  0
 26 27  2  0  0  0
 26 31  1  0  0  0
 28 29  1  0  0  0
 28104  1  0  0  0
 28105  1  0  0  0
 29 30  1  0  0  0
 29106  1  0  0  0
 29107  1  0  0  0
 30108  1  0  0  0
 30109  1  0  0  0
 31 32  1  0  0  0
 31110  1  0  0  0
 32 33  1  0  0  0
 32 35  1  0  0  0
 32111  1  0  0  0
 33 34  2  0  0  0
 33 42  1  0  0  0
 35 36  1  0  0  0
 35112  1  0  0  0
 35113  1  0  0  0
 36 37  2  0  0  0
 36 38  1  0  0  0
 37 39  1  0  0  0
 37114  1  0  0  0
 38 40  2  0  0  0
 38115  1  0  0  0
 39 41  2  0  0  0
 39116  1  0  0  0
 40 41  1  0  0  0
 40117  1  0  0  0
 41118  1  0  0  0
 42 43  1  0  0  0
 42 48  1  0  0  0
 43 44  1  0  0  0
 43 46  1  0  0  0
 43119  1  0  0  0
 44 45  2  0  0  0
 44 49  1  0  0  0
 46 47  1  0  0  0
 46120  1  0  0  0
 46121  1  0  0  0
 47 48  1  0  0  0
 47122  1  0  0  0
 47123  1  0  0  0
 48124  1  0  0  0
 48125  1  0  0  0
 49 50  1  0  0  0
 49126  1  0  0  0
 50 51  1  0  0  0
 50 53  1  0  0  0
 50127  1  0  0  0
 51 52  2  0  0  0
 51 60  1  0  0  0
 53 54  1  0  0  0
 53128  1  0  0  0
 53129  1  0  0  0
 54 55  2  0  0  0
 54 56  1  0  0  0
 55 57  1  0  0  0
 55130  1  0  0  0
 56 58  2  0  0  0
 56131  1  0  0  0
 57 59  2  0  0  0
 57132  1  0  0  0
 58 59  1  0  0  0
 58133  1  0  0  0
 59134  1  0  0  0
 60 61  1  0  0  0
 60135  1  0  0  0
 61 62  1  0  0  0
 61 64  1  0  0  0
 61136  1  0  0  0
 62 63  2  0  0  0
 62 68  1  0  0  0
 64 65  1  0  0  0
 64137  1  0  0  0
 64138  1  0  0  0
 65 66  1  0  0  0
 65 67  2  0  0  0
 66139  1  0  0  0
 68 69  1  0  0  0
 68140  1  0  0  0
 69 70  1  0  0  0
 69 72  1  0  0  0
 69141  1  0  0  0
 70 71  2  0  0  0
 70 76  1  0  0  0
 72 73  1  0  0  0
 72142  1  0  0  0
 72143  1  0  0  0
 73 74  1  0  0  0
 73 75  1  0  0  0
 73144  1  0  0  0
 74145  1  0  0  0
 74146  1  0  0  0
 74147  1  0  0  0
 75148  1  0  0  0
 75149  1  0  0  0
 75150  1  0  0  0
 76151  1  0  0  0
M  CHG  1   1   1
M  END
> <s_m_source_file>
../3tf7_ligand.sdf

> <i_m_source_file_index>
1

> <s_epik_input>
Tz1DKFtOSDJdKVtDSDJdW0NIMl1bQ0BIXShbTkgzK10pQyg9TylbTkhdW0NAQEhdKFtDSDJdW0NIXShbQ0gzXSlbQ0gzXSlDKD1PKVtOSF1bQ0BASF0oW0NIMl1bT0hdKUMoPU8pTjFbQ0BASF0oW0NIMl1bQ0gyXVtDSDJdMSlDKD1PKVtOSF1bQ0BASF0oW0NIMl1jMltjSF1bY0hdW2NIXVtjSF1bY0hdMilDKD1PKU4zW0NAQEhdKFtDSDJdW0NIMl1bQ0gyXTMpQyg9TylbTkhdW0NAQEhdKFtDSDJdYzRbY0hdW2NIXVtjSF1bY0hdW2NIXTQpQyg9TylbTkhdW0NAQEhdKFtDSDJdQyg9TylbT0hdKUMoPU8pW05IXVtDQEhdKEMoPU8pW09IXSlbQ0gyXVtDSF0oW0NIM10pW0NIM10=

> <s_epik_cmdline>
J2VwaWtfYXBwJywgJy1pbWFlJywgJ2xpZ2FuZF9wcm8ubWFlJywgJy1vbWFlJywgJ2xpZ2FuZF9wcmVwLm1hZScsICctbXMnLCAnMScsICctcGgnLCAnNycsICctcGh0JywgJzAuNScsICctbnQn

> <s_epik_pKa_notes>
Molecule size exceeds maximum supported for generating protonation states

$$$$
