3tfk_ligand
                    3D
 Schrodinger Suite 2020-3.
140140  0  0  1  0            999 V2000
   15.0110  -30.4440  -16.0570 N   0  3  0  0  0  0
   15.3540  -30.7420  -14.6710 C   0  0  2  0  0  0
   15.8660  -32.1780  -14.5160 C   0  0  0  0  0  0
   15.5230  -33.0630  -15.3030 O   0  0  0  0  0  0
   14.1530  -30.4830  -13.7550 C   0  0  0  0  0  0
   14.3950  -30.8040  -12.2830 C   0  0  0  0  0  0
   15.5540  -30.0270  -11.6850 C   0  0  0  0  0  0
   15.5280  -28.7980  -11.6160 O   0  0  0  0  0  0
   16.5790  -30.7450  -11.2460 N   0  0  0  0  0  0
   16.6860  -32.3960  -13.4930 N   0  0  0  0  0  0
   17.3450  -33.6790  -13.2870 C   0  0  2  0  0  0
   17.1690  -34.2130  -11.8630 C   0  0  0  0  0  0
   16.4210  -33.6530  -11.0660 O   0  0  0  0  0  0
   18.8280  -33.5580  -13.6360 C   0  0  0  0  0  0
   19.4370  -32.2050  -13.2680 C   0  0  0  0  0  0
   19.4730  -32.0480  -11.7650 C   0  0  0  0  0  0
   20.8290  -32.0370  -13.8480 C   0  0  0  0  0  0
   17.8770  -35.2950  -11.5570 N   0  0  0  0  0  0
   17.7540  -35.9880  -10.2730 C   0  0  2  0  0  0
   18.0870  -35.1450   -9.0500 C   0  0  0  0  0  0
   18.6520  -34.0620   -9.1610 O   0  0  0  0  0  0
   18.6270  -37.2400  -10.2680 C   0  0  0  0  0  0
   19.0820  -37.5290   -8.9610 O   0  0  0  0  0  0
   17.7170  -35.6590   -7.8820 N   0  0  0  0  0  0
   18.0250  -35.0120   -6.6140 C   0  0  2  0  0  0
   19.3040  -35.6210   -6.0490 C   0  0  0  0  0  0
   19.7110  -36.7080   -6.4610 O   0  0  0  0  0  0
   16.8750  -35.2090   -5.6200 C   0  0  0  0  0  0
   16.8860  -34.1830   -4.5000 C   0  0  0  0  0  0
   17.8640  -33.4120   -4.4060 O   0  0  0  0  0  0
   15.9180  -34.1500   -3.7100 O   0  5  0  0  0  0
   19.9320  -34.9170   -5.1130 N   0  0  0  0  0  0
   21.0920  -35.4350   -4.3940 C   0  0  2  0  0  0
   20.9270  -36.9190   -4.0670 C   0  0  0  0  0  0
   19.8950  -37.3290   -3.5310 O   0  0  0  0  0  0
   21.3140  -34.6690   -3.0720 C   0  0  0  0  0  0
   22.1370  -35.4990   -2.1130 C   0  0  0  0  0  0
   21.9760  -33.3220   -3.3270 C   0  0  0  0  0  0
   21.9410  -37.7330   -4.3950 N   0  0  0  0  0  0
   21.8930  -39.1640   -4.0730 C   0  0  2  0  0  0
   22.0210  -39.3550   -2.5690 C   0  0  0  0  0  0
   22.5760  -38.4860   -1.8990 O   0  0  0  0  0  0
   23.1380  -39.7280   -4.7720 C   0  0  0  0  0  0
   23.6040  -38.6510   -5.7130 C   0  0  0  0  0  0
   23.1950  -37.3630   -5.0700 C   0  0  0  0  0  0
   21.5170  -40.4610   -2.0370 N   0  0  0  0  0  0
   21.6980  -40.7200   -0.6150 C   0  0  2  0  0  0
   23.1760  -40.9710   -0.3380 C   0  0  0  0  0  0
   23.8650  -41.6010   -1.1400 O   0  0  0  0  0  0
   20.8430  -41.9000   -0.1490 C   0  0  0  0  0  0
   19.3480  -41.6670   -0.2980 C   0  0  0  0  0  0
   18.3500  -42.6450    0.8420 S   0  0  0  0  0  0
   19.0800  -44.2630    0.6290 C   0  0  0  0  0  0
   23.6600  -40.4620    0.7910 N   0  0  0  0  0  0
   25.0720  -40.5880    1.1490 C   0  0  2  0  0  0
   25.6070  -42.0100    1.0450 C   0  0  0  0  0  0
   24.8860  -42.9820    1.2690 O   0  0  0  0  0  0
   25.3230  -40.0450    2.5520 C   0  0  0  0  0  0
   25.2860  -38.5440    2.5970 C   0  0  0  0  0  0
   25.3710  -37.9290    1.5140 O   0  0  0  0  0  0
   25.1800  -37.9740    3.7030 O   0  5  0  0  0  0
   26.8850  -42.1170    0.7000 N   0  0  0  0  0  0
   27.5530  -43.4050    0.6210 C   0  0  2  0  0  0
   27.8990  -43.8790    2.0260 C   0  0  0  0  0  0
   28.0690  -43.0610    2.9320 O   0  5  0  0  0  0
   28.8180  -43.2870   -0.2270 C   0  0  0  0  0  0
   28.5980  -42.7920   -1.6590 C   0  0  0  0  0  0
   29.8890  -42.2550   -2.2550 C   0  0  0  0  0  0
   28.0110  -43.8950   -2.5270 C   0  0  0  0  0  0
   28.0080  -45.0770    2.2910 O   0  0  0  0  0  0
   15.8830  -30.6351  -16.6997 H   0  0  0  0  0  0
   14.7166  -29.3876  -16.1429 H   0  0  0  0  0  0
   14.1747  -31.0846  -16.3736 H   0  0  0  0  0  0
   16.1697  -30.0472  -14.4220 H   0  0  0  0  0  0
   13.8742  -29.4202  -13.8076 H   0  0  0  0  0  0
   13.3035  -31.1014  -14.0804 H   0  0  0  0  0  0
   13.4944  -30.5580  -11.7012 H   0  0  0  0  0  0
   14.6210  -31.8750  -12.1736 H   0  0  0  0  0  0
   16.5578  -31.8417  -11.3286 H   0  0  0  0  0  0
   17.4503  -30.2438  -10.7992 H   0  0  0  0  0  0
   16.8606  -31.5688  -12.7893 H   0  0  0  0  0  0
   16.8322  -34.3675  -13.9747 H   0  0  0  0  0  0
   19.3958  -34.3304  -13.0966 H   0  0  0  0  0  0
   18.9620  -33.6938  -14.7193 H   0  0  0  0  0  0
   18.8056  -31.4124  -13.6959 H   0  0  0  0  0  0
   18.4582  -32.1722  -11.3590 H   0  0  0  0  0  0
   19.8500  -31.0466  -11.5099 H   0  0  0  0  0  0
   20.1369  -32.8110  -11.3325 H   0  0  0  0  0  0
   20.7873  -32.1537  -14.9410 H   0  0  0  0  0  0
   21.4978  -32.7999  -13.4230 H   0  0  0  0  0  0
   21.2109  -31.0356  -13.6004 H   0  0  0  0  0  0
   18.5791  -35.6669  -12.3177 H   0  0  0  0  0  0
   16.6792  -36.2177  -10.2277 H   0  0  0  0  0  0
   18.0429  -38.0957  -10.6376 H   0  0  0  0  0  0
   19.4986  -37.0819  -10.9202 H   0  0  0  0  0  0
   19.7254  -38.4033   -8.7834 H   0  0  0  0  0  0
   17.1594  -36.6071   -7.8945 H   0  0  0  0  0  0
   18.1569  -33.9412   -6.8285 H   0  0  0  0  0  0
   15.9144  -35.1205   -6.1485 H   0  0  0  0  0  0
   16.9518  -36.2069   -5.1635 H   0  0  0  0  0  0
   19.5489  -33.9110   -4.8868 H   0  0  0  0  0  0
   21.9250  -35.2840   -5.0963 H   0  0  0  0  0  0
   20.3411  -34.4772   -2.5959 H   0  0  0  0  0  0
   21.6396  -36.4655   -1.9446 H   0  0  0  0  0  0
   22.2342  -34.9650   -1.1562 H   0  0  0  0  0  0
   23.1360  -35.6703   -2.5405 H   0  0  0  0  0  0
   21.3601  -32.7373   -4.0261 H   0  0  0  0  0  0
   22.9740  -33.4804   -3.7617 H   0  0  0  0  0  0
   22.0722  -32.7751   -2.3774 H   0  0  0  0  0  0
   20.9434  -39.6157   -4.3958 H   0  0  0  0  0  0
   23.9067  -39.9607   -4.0203 H   0  0  0  0  0  0
   22.8688  -40.6447   -5.3171 H   0  0  0  0  0  0
   24.6958  -38.7147   -5.8313 H   0  0  0  0  0  0
   23.1207  -38.7851   -6.6920 H   0  0  0  0  0  0
   22.9967  -36.5641   -5.7997 H   0  0  0  0  0  0
   23.9214  -37.0068   -4.3247 H   0  0  0  0  0  0
   20.9659  -41.1798   -2.6612 H   0  0  0  0  0  0
   21.3568  -39.8152   -0.0908 H   0  0  0  0  0  0
   21.0961  -42.7923   -0.7403 H   0  0  0  0  0  0
   21.0394  -42.0975    0.9151 H   0  0  0  0  0  0
   19.1213  -40.6075   -0.1081 H   0  0  0  0  0  0
   19.0356  -41.9315   -1.3190 H   0  0  0  0  0  0
   18.5634  -44.9865    1.2769 H   0  0  0  0  0  0
   20.1453  -44.2232    0.9002 H   0  0  0  0  0  0
   18.9804  -44.5748   -0.4212 H   0  0  0  0  0  0
   22.9671  -39.9349    1.4633 H   0  0  0  0  0  0
   25.5790  -39.9781    0.3868 H   0  0  0  0  0  0
   24.5502  -40.4256    3.2361 H   0  0  0  0  0  0
   26.3140  -40.3720    2.8999 H   0  0  0  0  0  0
   27.4393  -41.1950    0.4707 H   0  0  0  0  0  0
   26.8476  -44.1022    0.1452 H   0  0  0  0  0  0
   29.5121  -42.5773    0.2468 H   0  0  0  0  0  0
   29.2994  -44.2729   -0.3066 H   0  0  0  0  0  0
   27.8758  -41.9627   -1.6340 H   0  0  0  0  0  0
   30.2893  -41.4609   -1.6075 H   0  0  0  0  0  0
   29.6882  -41.8455   -3.2560 H   0  0  0  0  0  0
   30.6237  -43.0699   -2.3328 H   0  0  0  0  0  0
   27.0798  -44.2633   -2.0718 H   0  0  0  0  0  0
   28.7322  -44.7218   -2.6067 H   0  0  0  0  0  0
   27.7967  -43.4974   -3.5300 H   0  0  0  0  0  0
  1  2  1  0  0  0
  1 71  1  0  0  0
  1 72  1  0  0  0
  1 73  1  0  0  0
  2  3  1  0  0  0
  2  5  1  0  0  0
  2 74  1  0  0  0
  3  4  2  0  0  0
  3 10  1  0  0  0
  5  6  1  0  0  0
  5 75  1  0  0  0
  5 76  1  0  0  0
  6  7  1  0  0  0
  6 77  1  0  0  0
  6 78  1  0  0  0
  7  8  2  0  0  0
  7  9  1  0  0  0
  9 79  1  0  0  0
  9 80  1  0  0  0
 10 11  1  0  0  0
 10 81  1  0  0  0
 11 12  1  0  0  0
 11 14  1  0  0  0
 11 82  1  0  0  0
 12 13  2  0  0  0
 12 18  1  0  0  0
 14 15  1  0  0  0
 14 83  1  0  0  0
 14 84  1  0  0  0
 15 16  1  0  0  0
 15 17  1  0  0  0
 15 85  1  0  0  0
 16 86  1  0  0  0
 16 87  1  0  0  0
 16 88  1  0  0  0
 17 89  1  0  0  0
 17 90  1  0  0  0
 17 91  1  0  0  0
 18 19  1  0  0  0
 18 92  1  0  0  0
 19 20  1  0  0  0
 19 22  1  0  0  0
 19 93  1  0  0  0
 20 21  2  0  0  0
 20 24  1  0  0  0
 22 23  1  0  0  0
 22 94  1  0  0  0
 22 95  1  0  0  0
 23 96  1  0  0  0
 24 25  1  0  0  0
 24 97  1  0  0  0
 25 26  1  0  0  0
 25 28  1  0  0  0
 25 98  1  0  0  0
 26 27  2  0  0  0
 26 32  1  0  0  0
 28 29  1  0  0  0
 28 99  1  0  0  0
 28100  1  0  0  0
 29 30  2  0  0  0
 29 31  1  0  0  0
 32 33  1  0  0  0
 32101  1  0  0  0
 33 34  1  0  0  0
 33 36  1  0  0  0
 33102  1  0  0  0
 34 35  2  0  0  0
 34 39  1  0  0  0
 36 37  1  0  0  0
 36 38  1  0  0  0
 36103  1  0  0  0
 37104  1  0  0  0
 37105  1  0  0  0
 37106  1  0  0  0
 38107  1  0  0  0
 38108  1  0  0  0
 38109  1  0  0  0
 39 40  1  0  0  0
 39 45  1  0  0  0
 40 41  1  0  0  0
 40 43  1  0  0  0
 40110  1  0  0  0
 41 42  2  0  0  0
 41 46  1  0  0  0
 43 44  1  0  0  0
 43111  1  0  0  0
 43112  1  0  0  0
 44 45  1  0  0  0
 44113  1  0  0  0
 44114  1  0  0  0
 45115  1  0  0  0
 45116  1  0  0  0
 46 47  1  0  0  0
 46117  1  0  0  0
 47 48  1  0  0  0
 47 50  1  0  0  0
 47118  1  0  0  0
 48 49  2  0  0  0
 48 54  1  0  0  0
 50 51  1  0  0  0
 50119  1  0  0  0
 50120  1  0  0  0
 51 52  1  0  0  0
 51121  1  0  0  0
 51122  1  0  0  0
 52 53  1  0  0  0
 53123  1  0  0  0
 53124  1  0  0  0
 53125  1  0  0  0
 54 55  1  0  0  0
 54126  1  0  0  0
 55 56  1  0  0  0
 55 58  1  0  0  0
 55127  1  0  0  0
 56 57  2  0  0  0
 56 62  1  0  0  0
 58 59  1  0  0  0
 58128  1  0  0  0
 58129  1  0  0  0
 59 60  2  0  0  0
 59 61  1  0  0  0
 62 63  1  0  0  0
 62130  1  0  0  0
 63 64  1  0  0  0
 63 66  1  0  0  0
 63131  1  0  0  0
 64 65  1  0  0  0
 64 70  2  0  0  0
 66 67  1  0  0  0
 66132  1  0  0  0
 66133  1  0  0  0
 67 68  1  0  0  0
 67 69  1  0  0  0
 67134  1  0  0  0
 68135  1  0  0  0
 68136  1  0  0  0
 68137  1  0  0  0
 69138  1  0  0  0
 69139  1  0  0  0
 69140  1  0  0  0
M  CHG  4   1   1  31  -1  61  -1  65  -1
M  END
> <s_m_source_file>
../3tfk_ligand.sdf

> <i_m_source_file_index>
1

> <s_epik_input>
Tz1DKFtOSDJdKVtDSDJdW0NIMl1bQ0BIXShbTkgzK10pQyg9TylbTkhdW0NAQEhdKFtDSDJdW0NIXShbQ0gzXSlbQ0gzXSlDKD1PKVtOSF1bQ0BASF0oW0NIMl1bT0hdKUMoPU8pW05IXVtDQEBIXShbQ0gyXUMoPU8pW09IXSlDKD1PKVtOSF1bQ0BASF0oW0NIXShbQ0gzXSlbQ0gzXSlDKD1PKU4xW0NAQEhdKFtDSDJdW0NIMl1bQ0gyXTEpQyg9TylbTkhdW0NAQEhdKFtDSDJdW0NIMl1TW0NIM10pQyg9TylbTkhdW0NAQEhdKFtDSDJdQyg9TylbT0hdKUMoPU8pW05IXVtDQEhdKEMoPU8pW09IXSlbQ0gyXVtDSF0oW0NIM10pW0NIM10=

> <s_epik_cmdline>
J2VwaWtfYXBwJywgJy1pbWFlJywgJ2xpZ2FuZF9wcm8ubWFlJywgJy1vbWFlJywgJ2xpZ2FuZF9wcmVwLm1hZScsICctbXMnLCAnMScsICctcGgnLCAnNycsICctcGh0JywgJzAuNScsICctbnQn

> <r_epik_Ionization_Penalty>
  0.1723

> <r_epik_Ionization_Penalty_Charging>
  0.1723

> <r_epik_Ionization_Penalty_Neutral>
  0.0000

> <r_epik_State_Penalty>
  0.1555

> <r_epik_Charging_Adjusted_Penalty>
0.327779228730561

> <i_epik_Tot_Q>
-2

> <i_epik_Tot_abs_Q>
4

$$$$
