3tfn_ligand
                    3D
 Schrodinger Suite 2020-3.
 63 66  0  0  1  0            999 V2000
    6.0010   21.1640    5.6370 O   0  0  0  0  0  0
    2.0990   23.8690    7.6700 O   0  0  0  0  0  0
    7.2810   21.9940    7.1850 O   0  5  0  0  0  0
   -4.4530   29.5170    8.2570 C   0  0  0  0  0  0
   -1.2460   29.9900    2.8400 C   0  0  0  0  0  0
   -3.4110   30.1130    8.8770 C   0  0  0  0  0  0
   -4.2150   28.6750    7.2120 C   0  0  0  0  0  0
   -1.8510   28.8670    3.3480 C   0  0  0  0  0  0
   -0.3920   30.7400    3.6070 C   0  0  0  0  0  0
   -2.1520   29.8650    8.4190 C   0  0  0  0  0  0
   -2.9530   28.4400    6.7530 C   0  0  0  0  0  0
   -1.6200   28.4690    4.6410 C   0  0  0  0  0  0
   -0.1660   30.3500    4.8940 C   0  0  0  0  0  0
    2.6910   21.3420    4.8520 C   0  0  0  0  0  0
    4.0930   21.2180    4.3640 C   0  0  0  0  0  0
    2.8360   27.2930    6.9880 C   0  0  0  0  0  0
    1.4420   26.2840    8.7390 C   0  0  0  0  0  0
    1.5740   27.9630    6.4000 C   0  0  0  0  0  0
    0.7630   27.6380    8.5700 C   0  0  0  0  0  0
    2.8740   22.0050    6.2170 C   0  0  0  0  0  0
    4.5510   22.6410    4.6520 C   0  0  0  0  0  0
    5.0620   22.7740    7.0270 C   0  0  0  0  0  0
    3.5040   24.4940    5.9290 C   0  0  0  0  0  0
    6.2160   21.9270    6.5630 C   0  0  0  0  0  0
    2.6110   24.8150    7.1140 C   0  0  0  0  0  0
   -1.9100   29.0070    7.4090 C   0  0  0  0  0  0
   -0.7480   29.1970    5.4140 C   0  0  0  0  0  0
   -0.4880   28.8700    6.8990 C   0  0  0  0  0  0
    2.3530   26.0470    7.5970 N   0  0  0  0  0  0
    0.3370   27.6960    7.1750 N   0  3  0  0  0  0
    3.9930   23.0090    5.9750 C   0  0  0  0  0  0
   -5.4735   29.7076    8.5891 H   0  0  0  0  0  0
   -1.4476   30.2898    1.8116 H   0  0  0  0  0  0
   -3.5740   30.7778    9.7252 H   0  0  0  0  0  0
   -5.0561   28.1762    6.7304 H   0  0  0  0  0  0
   -2.5226   28.2848    2.7170 H   0  0  0  0  0  0
    0.0941   31.6258    3.1982 H   0  0  0  0  0  0
   -1.3116   30.3786    8.8859 H   0  0  0  0  0  0
   -2.7860   27.8108    5.8788 H   0  0  0  0  0  0
   -2.1200   27.5900    5.0479 H   0  0  0  0  0  0
    0.4834   30.9531    5.5285 H   0  0  0  0  0  0
    2.1121   21.9609    4.1507 H   0  0  0  0  0  0
    2.2367   20.3425    4.9201 H   0  0  0  0  0  0
    4.6147   20.4405    4.9413 H   0  0  0  0  0  0
    4.0876   20.9425    3.2991 H   0  0  0  0  0  0
    3.5576   27.0983    6.1809 H   0  0  0  0  0  0
    3.2917   27.9606    7.7341 H   0  0  0  0  0  0
    2.0175   26.2769    9.6764 H   0  0  0  0  0  0
    0.6788   25.4925    8.7713 H   0  0  0  0  0  0
    1.7151   29.0537    6.3765 H   0  0  0  0  0  0
    1.4048   27.5930    5.3780 H   0  0  0  0  0  0
   -0.0963   27.7051    9.2534 H   0  0  0  0  0  0
    1.4798   28.4393    8.8026 H   0  0  0  0  0  0
    1.9336   22.4897    6.5182 H   0  0  0  0  0  0
    3.1483   21.2427    6.9611 H   0  0  0  0  0  0
    5.6503   22.6763    4.6676 H   0  0  0  0  0  0
    4.1737   23.3135    3.8675 H   0  0  0  0  0  0
    4.5694   22.2864    7.8812 H   0  0  0  0  0  0
    5.4331   23.7631    7.3335 H   0  0  0  0  0  0
    2.9442   24.6502    4.9951 H   0  0  0  0  0  0
    4.3841   25.1538    5.9437 H   0  0  0  0  0  0
    0.2293   29.4643    7.4841 H   0  0  0  0  0  0
   -0.2206   26.7758    6.9461 H   0  0  0  0  0  0
  1 24  2  0  0  0
  2 25  2  0  0  0
  3 24  1  0  0  0
  4  6  2  0  0  0
  4  7  1  0  0  0
  4 32  1  0  0  0
  5  8  2  0  0  0
  5  9  1  0  0  0
  5 33  1  0  0  0
  6 10  1  0  0  0
  6 34  1  0  0  0
  7 11  2  0  0  0
  7 35  1  0  0  0
  8 12  1  0  0  0
  8 36  1  0  0  0
  9 13  2  0  0  0
  9 37  1  0  0  0
 10 26  2  0  0  0
 10 38  1  0  0  0
 11 26  1  0  0  0
 11 39  1  0  0  0
 12 27  2  0  0  0
 12 40  1  0  0  0
 13 27  1  0  0  0
 13 41  1  0  0  0
 14 15  1  0  0  0
 14 20  1  0  0  0
 14 42  1  0  0  0
 14 43  1  0  0  0
 15 21  1  0  0  0
 15 44  1  0  0  0
 15 45  1  0  0  0
 16 18  1  0  0  0
 16 29  1  0  0  0
 16 46  1  0  0  0
 16 47  1  0  0  0
 17 19  1  0  0  0
 17 29  1  0  0  0
 17 48  1  0  0  0
 17 49  1  0  0  0
 18 30  1  0  0  0
 18 50  1  0  0  0
 18 51  1  0  0  0
 19 30  1  0  0  0
 19 52  1  0  0  0
 19 53  1  0  0  0
 20 31  1  0  0  0
 20 54  1  0  0  0
 20 55  1  0  0  0
 21 31  1  0  0  0
 21 56  1  0  0  0
 21 57  1  0  0  0
 22 24  1  0  0  0
 22 31  1  0  0  0
 22 58  1  0  0  0
 22 59  1  0  0  0
 23 25  1  0  0  0
 23 31  1  0  0  0
 23 60  1  0  0  0
 23 61  1  0  0  0
 25 29  1  0  0  0
 26 28  1  0  0  0
 27 28  1  0  0  0
 28 30  1  0  0  0
 28 62  1  0  0  0
 30 63  1  0  0  0
M  CHG  2   3  -1  30   1
M  END
> <s_m_source_file>
../3tfn_ligand.sdf

> <i_m_source_file_index>
1

> <s_epik_input>
W0NIMl0xW0NIMl1bQ0gyXVtDSDJdQzEoW0NIMl1DKD1PKVtPSF0pW0NIMl1DKD1PKU4yW0NIMl1bQ0gyXVtOSCtdKFtDSDJdW0NIMl0yKVtDSF0oYzNbY0hdW2NIXVtjSF1bY0hdW2NIXTMpYzRbY0hdW2NIXVtjSF1bY0hdW2NIXTQ=

> <s_epik_cmdline>
J2VwaWtfYXBwJywgJy1pbWFlJywgJ2xpZ2FuZF9wcm8ubWFlJywgJy1vbWFlJywgJ2xpZ2FuZF9wcmVwLm1hZScsICctbXMnLCAnMScsICctcGgnLCAnNycsICctcGh0JywgJzAuNScsICctbnQn

> <r_epik_Ionization_Penalty>
  0.1358

> <r_epik_Ionization_Penalty_Charging>
  0.1358

> <r_epik_Ionization_Penalty_Neutral>
  0.0000

> <r_epik_State_Penalty>
  0.1225

> <r_epik_Charging_Adjusted_Penalty>
0.258296548035894

> <i_epik_Tot_Q>
0

> <i_epik_Tot_abs_Q>
2

$$$$
