3tfv_ligand
                    3D
 Schrodinger Suite 2020-3.
 53 54  0  0  1  0            999 V2000
  -23.1920   21.1710    8.2320 C   0  0  0  0  0  0
  -26.6090    6.7850    5.5980 O   0  5  0  0  0  0
  -27.3570    4.8960    4.7150 O   0  0  0  0  0  0
  -31.7160    5.8370    1.8140 Br  0  0  0  0  0  0
  -28.5750   11.8330    9.8520 C   0  0  0  0  0  0
  -29.2320   11.0730    8.9240 C   0  0  0  0  0  0
  -31.1750    7.8020    3.6980 C   0  0  0  0  0  0
  -27.5070   12.5920    9.4860 C   0  0  0  0  0  0
  -30.4660    8.4350    4.6960 C   0  0  0  0  0  0
  -27.7540   11.8310    7.2480 C   0  0  0  0  0  0
  -29.4960    6.1060    3.5790 C   0  0  0  0  0  0
  -22.8390   19.8200    7.6600 C   0  0  0  0  0  0
  -24.0620   18.9560    7.5750 C   0  0  0  0  0  0
  -23.6890   17.4920    7.6500 C   0  0  0  0  0  0
  -24.8330   16.6040    7.1780 C   0  0  0  0  0  0
  -24.6540   15.1720    7.6310 C   0  0  0  0  0  0
  -24.5970   14.2330    6.4540 C   0  0  0  0  0  0
  -25.7900   13.3180    6.4940 C   0  0  0  0  0  0
  -29.5620   10.2130    6.6290 C   0  0  0  0  0  0
  -26.0560   13.3640    7.8380 O   0  0  0  0  0  0
  -28.4800    8.7850    6.3740 S   0  0  0  0  0  0
  -27.4770    6.1020    5.0040 C   0  0  0  0  0  0
  -30.6930    6.6420    3.1440 C   0  0  0  0  0  0
  -28.8370   11.0750    7.6240 C   0  0  0  0  0  0
  -27.0990   12.5940    8.1810 C   0  0  0  0  0  0
  -29.2780    7.9140    5.1360 C   0  0  0  0  0  0
  -28.7820    6.7450    4.5750 C   0  0  0  0  0  0
  -22.2866   21.7932    8.2884 H   0  0  0  0  0  0
  -23.6128   21.0436    9.2403 H   0  0  0  0  0  0
  -23.9338   21.6609    7.5842 H   0  0  0  0  0  0
  -28.9086   11.8306   10.8897 H   0  0  0  0  0  0
  -30.0800   10.4603    9.2300 H   0  0  0  0  0  0
  -32.1181    8.2222    3.3486 H   0  0  0  0  0  0
  -26.9808   13.1937   10.2271 H   0  0  0  0  0  0
  -30.8522    9.3540    5.1370 H   0  0  0  0  0  0
  -27.4160   11.8248    6.2117 H   0  0  0  0  0  0
  -29.1167    5.1838    3.1388 H   0  0  0  0  0  0
  -22.4182   19.9474    6.6517 H   0  0  0  0  0  0
  -22.0971   19.3300    8.3077 H   0  0  0  0  0  0
  -24.7376   19.1938    8.4098 H   0  0  0  0  0  0
  -24.5775   19.1430    6.6214 H   0  0  0  0  0  0
  -22.8135   17.3035    7.0112 H   0  0  0  0  0  0
  -23.4476   17.2279    8.6902 H   0  0  0  0  0  0
  -25.7821   16.9803    7.5874 H   0  0  0  0  0  0
  -24.8773   16.6162    6.0790 H   0  0  0  0  0  0
  -23.7161   15.0815    8.1986 H   0  0  0  0  0  0
  -25.4997   14.8816    8.2717 H   0  0  0  0  0  0
  -24.6085   14.8144    5.5203 H   0  0  0  0  0  0
  -23.6732   13.6379    6.5041 H   0  0  0  0  0  0
  -26.5889   13.7292    5.8594 H   0  0  0  0  0  0
  -25.5020   12.3235    6.1226 H   0  0  0  0  0  0
  -29.7122   10.7347    5.6723 H   0  0  0  0  0  0
  -30.5332    9.8725    7.0174 H   0  0  0  0  0  0
  1 12  1  0  0  0
  1 28  1  0  0  0
  1 29  1  0  0  0
  1 30  1  0  0  0
  2 22  1  0  0  0
  3 22  2  0  0  0
  4 23  1  0  0  0
  5  6  2  0  0  0
  5  8  1  0  0  0
  5 31  1  0  0  0
  6 24  1  0  0  0
  6 32  1  0  0  0
  7  9  2  0  0  0
  7 23  1  0  0  0
  7 33  1  0  0  0
  8 25  2  0  0  0
  8 34  1  0  0  0
  9 26  1  0  0  0
  9 35  1  0  0  0
 10 24  2  0  0  0
 10 25  1  0  0  0
 10 36  1  0  0  0
 11 23  2  0  0  0
 11 27  1  0  0  0
 11 37  1  0  0  0
 12 13  1  0  0  0
 12 38  1  0  0  0
 12 39  1  0  0  0
 13 14  1  0  0  0
 13 40  1  0  0  0
 13 41  1  0  0  0
 14 15  1  0  0  0
 14 42  1  0  0  0
 14 43  1  0  0  0
 15 16  1  0  0  0
 15 44  1  0  0  0
 15 45  1  0  0  0
 16 17  1  0  0  0
 16 46  1  0  0  0
 16 47  1  0  0  0
 17 18  1  0  0  0
 17 48  1  0  0  0
 17 49  1  0  0  0
 18 20  1  0  0  0
 18 50  1  0  0  0
 18 51  1  0  0  0
 19 21  1  0  0  0
 19 24  1  0  0  0
 19 52  1  0  0  0
 19 53  1  0  0  0
 20 25  1  0  0  0
 21 26  1  0  0  0
 22 27  1  0  0  0
 26 27  2  0  0  0
M  CHG  1   2  -1
M  END
> <s_m_source_file>
../3tfv_ligand.sdf

> <i_m_source_file_index>
1

> <s_epik_input>
W0NIM11bQ0gyXVtDSDJdW0NIMl1bQ0gyXVtDSDJdW0NIMl1bQ0gyXU9jKFtjSF0xKVtjSF1bY0hdW2NIXWMxW0NIMl1TYyhbY0hdW2NIXWMyQnIpYyhbY0hdMilDKD1PKVtPSF0=

> <s_epik_cmdline>
J2VwaWtfYXBwJywgJy1pbWFlJywgJ2xpZ2FuZF9wcm8ubWFlJywgJy1vbWFlJywgJ2xpZ2FuZF9wcmVwLm1hZScsICctbXMnLCAnMScsICctcGgnLCAnNycsICctcGh0JywgJzAuNScsICctbnQn

> <r_lp_tautomer_probability>
1

> <r_epik_Ionization_Penalty>
  0.0001

> <r_epik_Ionization_Penalty_Charging>
  0.0001

> <r_epik_Ionization_Penalty_Neutral>
  0.0000

> <r_epik_State_Penalty>
 -0.0000

> <r_epik_Charging_Adjusted_Penalty>
0.000126895309964583

> <i_epik_Tot_Q>
-1

> <i_epik_Tot_abs_Q>
1

$$$$
