3tg5_ligand
                    3D
 Schrodinger Suite 2020-3.
138138  0  0  1  0            999 V2000
    7.5460  -10.4470   -7.2090 N   0  0  0  0  0  0
    7.5260  -10.2520   -8.6910 C   0  0  2  0  0  0
    8.7350   -9.4750   -9.2110 C   0  0  0  0  0  0
    9.7600   -9.3770   -8.5300 O   0  0  0  0  0  0
    6.2130   -9.6010   -9.1390 C   0  0  0  0  0  0
    5.2520  -10.5600   -9.7710 C   0  0  0  0  0  0
    5.3930  -11.0040  -11.0680 N   0  0  0  0  0  0
    4.1390  -11.1610   -9.2870 C   0  0  0  0  0  0
    4.4100  -11.8380  -11.3560 C   0  0  0  0  0  0
    3.6350  -11.9500  -10.2920 N   0  0  0  0  0  0
    8.5980   -8.9260  -10.4190 N   0  0  0  0  0  0
    9.6830   -8.2300  -11.1110 C   0  0  2  0  0  0
   10.1470   -6.9580  -10.3980 C   0  0  0  0  0  0
    9.4390   -6.4160   -9.5490 O   0  0  0  0  0  0
    9.2850   -7.9170  -12.5620 C   0  0  0  0  0  0
    8.8150   -9.0520  -13.4800 C   0  0  0  0  0  0
    8.6270   -8.5350  -14.9010 C   0  0  0  0  0  0
    9.7770  -10.2330  -13.4700 C   0  0  0  0  0  0
   11.3410   -6.4940  -10.7580 N   0  0  0  0  0  0
   11.9700   -5.3370  -10.1150 C   0  0  2  0  0  0
   11.1430   -4.0610  -10.2770 C   0  0  0  0  0  0
   10.7780   -3.6870  -11.3940 O   0  0  0  0  0  0
   13.3910   -5.1380  -10.6540 C   0  0  0  0  0  0
   14.3380   -6.2820  -10.3140 C   0  0  0  0  0  0
   15.5650   -6.3090  -11.2130 C   0  0  0  0  0  0
   16.3890   -7.5600  -10.9510 C   0  0  0  0  0  0
   17.5170   -7.7220  -11.9080 N   0  3  0  0  0  0
   10.8410   -3.4110   -9.1520 N   0  0  0  0  0  0
   10.0510   -2.1740   -9.1430 C   0  0  2  0  0  0
   10.2730   -1.3320   -7.8850 C   0  0  0  0  0  0
   10.7300   -1.8370   -6.8610 O   0  0  0  0  0  0
    8.5610   -2.4860   -9.2930 C   0  0  0  0  0  0
    8.0840   -3.2350   -8.1940 O   0  0  0  0  0  0
    9.9360   -0.0490   -7.9800 N   0  0  0  0  0  0
   10.0660    0.8910   -6.8690 C   0  0  2  0  0  0
    8.8410    0.8460   -5.9730 C   0  0  0  0  0  0
    8.9110    1.1870   -4.7950 O   0  0  0  0  0  0
   10.2570    2.3140   -7.3910 C   0  0  0  0  0  0
   11.5290    2.5110   -8.1750 C   0  0  0  0  0  0
   11.4960    3.8120   -8.9510 C   0  0  0  0  0  0
   12.7100    3.9300   -9.8450 C   0  0  0  0  0  0
   12.8280    2.7570  -10.7590 N   0  3  0  0  0  0
    7.7150    0.4510   -6.5550 N   0  0  0  0  0  0
    6.4720    0.2770   -5.8190 C   0  0  2  0  0  0
    5.7500   -0.9680   -6.3320 C   0  0  0  0  0  0
    6.2520   -1.6650   -7.2120 O   0  0  0  0  0  0
    5.5870    1.5250   -5.9420 C   0  0  0  0  0  0
    4.6320    1.7160   -4.7700 C   0  0  0  0  0  0
    4.3320    3.1820   -4.5170 C   0  0  0  0  0  0
    3.9760    3.4220   -3.0530 C   0  0  0  0  0  0
    5.1430    3.2530   -2.1400 N   0  3  0  0  0  0
    4.5760   -1.2450   -5.7730 N   0  0  0  0  0  0
    3.7800   -2.4070   -6.1580 C   0  0  0  0  0  0
    3.0970   -2.9940   -4.9420 C   0  0  0  0  0  0
    2.7570   -4.1800   -4.9170 O   0  0  0  0  0  0
    2.9010   -2.1390   -3.9390 N   0  0  0  0  0  0
    2.3350   -2.5020   -2.6410 C   0  0  2  0  0  0
    1.1470   -3.4580   -2.7370 C   0  0  0  0  0  0
    0.8585   -4.2243   -1.7793 O   0  5  0  0  0  0
    1.9070   -1.2380   -1.8950 C   0  0  0  0  0  0
    3.0120   -0.2200   -1.6460 C   0  0  0  0  0  0
    2.5720    0.9100   -0.7300 C   0  0  0  0  0  0
    1.3800    1.1810   -0.5770 O   0  0  0  0  0  0
    3.5390    1.5750   -0.1120 N   0  0  0  0  0  0
    0.4482   -3.4803   -3.7852 O   0  0  0  0  0  0
    7.4798   -9.4691   -6.7096 H   0  0  0  0  0  0
    6.6905  -11.0703   -6.9096 H   0  0  0  0  0  0
    7.5950  -11.2653   -9.1134 H   0  0  0  0  0  0
    5.9426   -8.5398   -9.0348 H   0  0  0  0  0  0
    3.6294  -11.1185   -8.3131 H   0  0  0  0  0  0
    4.2633  -12.3468  -12.3087 H   0  0  0  0  0  0
    7.6104   -9.0158  -10.8950 H   0  0  0  0  0  0
   10.5114   -8.9527  -11.0736 H   0  0  0  0  0  0
    8.4489   -7.2023  -12.5668 H   0  0  0  0  0  0
   10.1442   -7.4797  -13.0917 H   0  0  0  0  0  0
    7.8504   -9.4172  -13.0977 H   0  0  0  0  0  0
    7.9307   -7.6835  -14.8922 H   0  0  0  0  0  0
    8.2170   -9.3374  -15.5319 H   0  0  0  0  0  0
    9.5976   -8.2109  -15.3047 H   0  0  0  0  0  0
    9.9026  -10.5949  -12.4388 H   0  0  0  0  0  0
   10.7518   -9.9152  -13.8684 H   0  0  0  0  0  0
    9.3712  -11.0417  -14.0956 H   0  0  0  0  0  0
   11.8584   -7.0177  -11.5753 H   0  0  0  0  0  0
   11.9979   -5.5902   -9.0449 H   0  0  0  0  0  0
   13.3588   -5.0531  -11.7502 H   0  0  0  0  0  0
   13.8196   -4.2191  -10.2275 H   0  0  0  0  0  0
   14.6820   -6.1766   -9.2745 H   0  0  0  0  0  0
   13.8115   -7.2408  -10.4306 H   0  0  0  0  0  0
   15.2480   -6.3038  -12.2663 H   0  0  0  0  0  0
   16.1859   -5.4234  -11.0126 H   0  0  0  0  0  0
   16.8139   -7.5136   -9.9374 H   0  0  0  0  0  0
   15.7456   -8.4479  -11.0385 H   0  0  0  0  0  0
   18.0726   -8.6405  -11.6678 H   0  0  0  0  0  0
   18.1903   -6.8555  -11.8313 H   0  0  0  0  0  0
   17.1219   -7.7898  -12.9324 H   0  0  0  0  0  0
   11.2082   -3.8360   -8.2062 H   0  0  0  0  0  0
   10.4289   -1.6151  -10.0118 H   0  0  0  0  0  0
    7.9934   -1.5455   -9.3501 H   0  0  0  0  0  0
    8.3990   -3.0684  -10.2120 H   0  0  0  0  0  0
    7.0278   -3.5396   -8.1529 H   0  0  0  0  0  0
    9.5445    0.2951   -8.9487 H   0  0  0  0  0  0
   10.9517    0.5577   -6.3082 H   0  0  0  0  0  0
    9.4208    2.5759   -8.0559 H   0  0  0  0  0  0
   10.2850    3.0148   -6.5436 H   0  0  0  0  0  0
   12.3852    2.5349   -7.4848 H   0  0  0  0  0  0
   11.6540    1.6807   -8.8857 H   0  0  0  0  0  0
   10.5902    3.8443   -9.5743 H   0  0  0  0  0  0
   11.4877    4.6581   -8.2481 H   0  0  0  0  0  0
   12.6287    4.8416  -10.4553 H   0  0  0  0  0  0
   13.6176    3.9830   -9.2258 H   0  0  0  0  0  0
   13.7189    2.8747  -11.3934 H   0  0  0  0  0  0
   11.9316    2.6950  -11.3935 H   0  0  0  0  0  0
   12.9205    1.8364  -10.1640 H   0  0  0  0  0  0
    7.7460    0.2532   -7.6366 H   0  0  0  0  0  0
    6.7519    0.1409   -4.7640 H   0  0  0  0  0  0
    6.2225    2.4212   -5.9962 H   0  0  0  0  0  0
    4.9762    1.4529   -6.8540 H   0  0  0  0  0  0
    3.6830    1.2021   -4.9829 H   0  0  0  0  0  0
    5.0810    1.2942   -3.8587 H   0  0  0  0  0  0
    5.2162    3.7859   -4.7687 H   0  0  0  0  0  0
    3.4834    3.4959   -5.1426 H   0  0  0  0  0  0
    3.5993    4.4482   -2.9307 H   0  0  0  0  0  0
    3.1998    2.7071   -2.7424 H   0  0  0  0  0  0
    4.8268    3.4377   -1.1027 H   0  0  0  0  0  0
    5.9312    3.9689   -2.4161 H   0  0  0  0  0  0
    5.5317    2.2277   -2.2278 H   0  0  0  0  0  0
    4.2091   -0.5607   -4.9938 H   0  0  0  0  0  0
    3.0169   -2.1026   -6.8894 H   0  0  0  0  0  0
    4.4353   -3.1679   -6.6070 H   0  0  0  0  0  0
    3.1972   -1.0985   -4.1383 H   0  0  0  0  0  0
    3.1574   -3.0275   -2.1335 H   0  0  0  0  0  0
    1.1288   -0.7173   -2.4723 H   0  0  0  0  0  0
    1.5087   -1.5124   -0.9071 H   0  0  0  0  0  0
    3.8718   -0.7197   -1.1758 H   0  0  0  0  0  0
    3.3241    0.2238   -2.6029 H   0  0  0  0  0  0
    4.5904    1.2980   -0.2788 H   0  0  0  0  0  0
    3.2895    2.4035    0.5673 H   0  0  0  0  0  0
    6.2353  -10.6516  -11.6815 H   0  0  0  0  0  0
  1  2  1  0  0  0
  1 66  1  0  0  0
  1 67  1  0  0  0
  2  3  1  0  0  0
  2  5  1  0  0  0
  2 68  1  0  0  0
  3  4  2  0  0  0
  3 11  1  0  0  0
  5  6  2  0  0  0
  5 69  1  0  0  0
  6  7  1  0  0  0
  6  8  1  0  0  0
  7  9  1  0  0  0
  7138  1  0  0  0
  8 10  2  0  0  0
  8 70  1  0  0  0
  9 10  1  0  0  0
  9 71  1  0  0  0
 11 12  1  0  0  0
 11 72  1  0  0  0
 12 13  1  0  0  0
 12 15  1  0  0  0
 12 73  1  0  0  0
 13 14  2  0  0  0
 13 19  1  0  0  0
 15 16  1  0  0  0
 15 74  1  0  0  0
 15 75  1  0  0  0
 16 17  1  0  0  0
 16 18  1  0  0  0
 16 76  1  0  0  0
 17 77  1  0  0  0
 17 78  1  0  0  0
 17 79  1  0  0  0
 18 80  1  0  0  0
 18 81  1  0  0  0
 18 82  1  0  0  0
 19 20  1  0  0  0
 19 83  1  0  0  0
 20 21  1  0  0  0
 20 23  1  0  0  0
 20 84  1  0  0  0
 21 22  2  0  0  0
 21 28  1  0  0  0
 23 24  1  0  0  0
 23 85  1  0  0  0
 23 86  1  0  0  0
 24 25  1  0  0  0
 24 87  1  0  0  0
 24 88  1  0  0  0
 25 26  1  0  0  0
 25 89  1  0  0  0
 25 90  1  0  0  0
 26 27  1  0  0  0
 26 91  1  0  0  0
 26 92  1  0  0  0
 27 93  1  0  0  0
 27 94  1  0  0  0
 27 95  1  0  0  0
 28 29  1  0  0  0
 28 96  1  0  0  0
 29 30  1  0  0  0
 29 32  1  0  0  0
 29 97  1  0  0  0
 30 31  2  0  0  0
 30 34  1  0  0  0
 32 33  1  0  0  0
 32 98  1  0  0  0
 32 99  1  0  0  0
 33100  1  0  0  0
 34 35  1  0  0  0
 34101  1  0  0  0
 35 36  1  0  0  0
 35 38  1  0  0  0
 35102  1  0  0  0
 36 37  2  0  0  0
 36 43  1  0  0  0
 38 39  1  0  0  0
 38103  1  0  0  0
 38104  1  0  0  0
 39 40  1  0  0  0
 39105  1  0  0  0
 39106  1  0  0  0
 40 41  1  0  0  0
 40107  1  0  0  0
 40108  1  0  0  0
 41 42  1  0  0  0
 41109  1  0  0  0
 41110  1  0  0  0
 42111  1  0  0  0
 42112  1  0  0  0
 42113  1  0  0  0
 43 44  1  0  0  0
 43114  1  0  0  0
 44 45  1  0  0  0
 44 47  1  0  0  0
 44115  1  0  0  0
 45 46  2  0  0  0
 45 52  1  0  0  0
 47 48  1  0  0  0
 47116  1  0  0  0
 47117  1  0  0  0
 48 49  1  0  0  0
 48118  1  0  0  0
 48119  1  0  0  0
 49 50  1  0  0  0
 49120  1  0  0  0
 49121  1  0  0  0
 50 51  1  0  0  0
 50122  1  0  0  0
 50123  1  0  0  0
 51124  1  0  0  0
 51125  1  0  0  0
 51126  1  0  0  0
 52 53  1  0  0  0
 52127  1  0  0  0
 53 54  1  0  0  0
 53128  1  0  0  0
 53129  1  0  0  0
 54 55  2  0  0  0
 54 56  1  0  0  0
 56 57  1  0  0  0
 56130  1  0  0  0
 57 58  1  0  0  0
 57 60  1  0  0  0
 57131  1  0  0  0
 58 59  1  0  0  0
 58 65  2  0  0  0
 60 61  1  0  0  0
 60132  1  0  0  0
 60133  1  0  0  0
 61 62  1  0  0  0
 61134  1  0  0  0
 61135  1  0  0  0
 62 63  2  0  0  0
 62 64  1  0  0  0
 64136  1  0  0  0
 64137  1  0  0  0
M  CHG  4  27   1  42   1  51   1  59  -1
M  END
> <s_m_source_file>
../3tg5_ligand.sdf

> <i_m_source_file_index>
1

> <s_epik_input>
W0NIXTE9TltDSDJdTj1DMVtDSDJdW0NASF0oW05IMytdKUMoPU8pW05IXVtDQEBIXShbQ0gyXVtDSF0oW0NIM10pW0NIM10pQyg9TylbTkhdW0NAQEhdKFtDSDJdW0NIMl1bQ0gyXVtDSDJdW05IMytdKUMoPU8pW05IXVtDQEBIXShbQ0gyXVtPSF0pQyg9TylbTkhdW0NAQEhdKFtDSDJdW0NIMl1bQ0gyXVtDSDJdW05IMytdKUMoPU8pW05IXVtDQEBIXShbQ0gyXVtDSDJdW0NIMl1bQ0gyXVtOSDMrXSlDKD1PKVtOSF1bQ0gyXUMoPU8pW05IXVtDQEhdKEMoPU8pW09IXSlbQ0gyXVtDSDJdQyg9TylbTkgyXQ==

> <s_epik_cmdline>
J2VwaWtfYXBwJywgJy1pbWFlJywgJ2xpZ2FuZF9wcm8ubWFlJywgJy1vbWFlJywgJ2xpZ2FuZF9wcmVwLm1hZScsICctbXMnLCAnMScsICctcGgnLCAnNycsICctcGh0JywgJzAuNScsICctbnQn

> <r_epik_Ionization_Penalty>
  0.1068

> <r_epik_Ionization_Penalty_Charging>
  0.0015

> <r_epik_Ionization_Penalty_Neutral>
  0.1053

> <r_epik_State_Penalty>
  0.0952

> <r_epik_Charging_Adjusted_Penalty>
0.0966780180569295

> <i_epik_Tot_Q>
2

> <i_epik_Tot_abs_Q>
4

> <s_epik_Chemistry_Notes>
This compound has an imine and may undergo hydrolysis.

$$$$
