3tge_ligand
                    3D
 Schrodinger Suite 2020-3.
 67 70  0  0  1  0            999 V2000
   20.8840  -12.5400   16.9910 C   0  0  0  0  0  0
   20.8210  -11.5500   18.1050 N   0  3  0  0  0  0
   19.8020  -14.1890   18.3880 O   0  0  0  0  0  0
   20.9370  -13.9530   17.6010 C   0  0  0  0  0  0
   20.1680   -8.8560   12.3830 N   0  0  0  0  0  0
   13.8060   -3.3740    9.9730 O   0  0  0  0  0  0
   19.6920  -13.2780   19.4470 C   0  0  0  0  0  0
   20.3650   -8.2420   15.1820 N   0  0  0  0  0  0
   21.7320  -10.4940   12.7060 O   0  0  0  0  0  0
   19.6090  -11.8340   18.9310 C   0  0  0  0  0  0
   14.6180   -4.1550   11.9200 N   0  0  0  0  0  0
   20.8750   -7.1760   10.0350 O   0  0  0  0  0  0
   19.5130   -7.5490   14.3140 C   0  0  0  0  0  0
   17.8040   -5.8310   14.1370 N   0  0  0  0  0  0
   19.3930   -7.8240   12.9390 C   0  0  0  0  0  0
   21.9290   -9.9770   15.4170 N   0  0  0  0  0  0
   21.0480   -9.5920   13.1840 C   0  0  0  0  0  0
   21.0790   -9.2180   14.6400 C   0  0  0  0  0  0
   16.7160   -5.3770   12.0240 C   0  0  0  0  0  0
   15.5670   -4.8190   12.6100 C   0  0  0  0  0  0
   14.8320   -4.0330   10.5710 C   0  0  0  0  0  0
   15.9600   -4.5250    9.9010 C   0  0  0  0  0  0
   16.9080   -5.1960   10.6560 C   0  0  0  0  0  0
   18.6930   -6.5270   14.8550 C   0  0  0  0  0  0
   17.6980   -6.1260   12.8020 C   0  0  0  0  0  0
   18.4730   -7.0940   12.1730 C   0  0  0  0  0  0
   13.9260   -3.1390    8.5890 C   0  0  0  0  0  0
   20.0470   -9.1940   10.9490 C   0  0  0  0  0  0
   21.1660   -8.5530   10.1100 C   0  0  0  0  0  0
   21.8690   -6.4590    9.3310 C   0  0  0  0  0  0
   21.3930   -5.0070    9.2730 C   0  0  0  0  0  0
   20.2510   -4.8430    8.2870 C   0  0  0  0  0  0
   22.0340   -9.7480   16.8580 C   0  0  0  0  0  0
   20.7440  -10.1460   17.6050 C   0  0  0  0  0  0
   19.9908  -12.4363   16.3574 H   0  0  0  0  0  0
   21.7850  -12.3560   16.3875 H   0  0  0  0  0  0
   21.7427  -11.6477   18.6974 H   0  0  0  0  0  0
   20.9745  -14.6996   16.7940 H   0  0  0  0  0  0
   21.8345  -14.0475   18.2299 H   0  0  0  0  0  0
   18.7825  -13.4966   20.0257 H   0  0  0  0  0  0
   20.5725  -13.3671   20.1003 H   0  0  0  0  0  0
   19.5719  -11.1355   19.7799 H   0  0  0  0  0  0
   18.7071  -11.7091   18.3138 H   0  0  0  0  0  0
   22.5326  -10.7630   14.9396 H   0  0  0  0  0  0
   15.4352   -4.9296   13.6863 H   0  0  0  0  0  0
   16.0866   -4.3852    8.8274 H   0  0  0  0  0  0
   17.8076   -5.5838   10.1780 H   0  0  0  0  0  0
   18.7923   -6.2952   15.9154 H   0  0  0  0  0  0
   18.3674   -7.2818   11.1045 H   0  0  0  0  0  0
   13.0360   -2.6016    8.2298 H   0  0  0  0  0  0
   14.0126   -4.0996    8.0601 H   0  0  0  0  0  0
   14.8232   -2.5323    8.3966 H   0  0  0  0  0  0
   20.1054  -10.2852   10.8233 H   0  0  0  0  0  0
   19.0809   -8.8321   10.5672 H   0  0  0  0  0  0
   21.1886   -8.9787    9.0960 H   0  0  0  0  0  0
   22.1458   -8.6951   10.5893 H   0  0  0  0  0  0
   22.8268   -6.5389    9.8660 H   0  0  0  0  0  0
   21.9775   -6.8790    8.3202 H   0  0  0  0  0  0
   21.0445   -4.6954   10.2687 H   0  0  0  0  0  0
   22.2251   -4.3607    8.9569 H   0  0  0  0  0  0
   19.9314   -3.7906    8.2678 H   0  0  0  0  0  0
   19.4066   -5.4771    8.5952 H   0  0  0  0  0  0
   20.5873   -5.1424    7.2834 H   0  0  0  0  0  0
   22.8633  -10.3454   17.2647 H   0  0  0  0  0  0
   22.2236   -8.6811   17.0469 H   0  0  0  0  0  0
   19.8941  -10.0492   16.9134 H   0  0  0  0  0  0
   20.6052   -9.4613   18.4546 H   0  0  0  0  0  0
  1  2  1  0  0  0
  1  4  1  0  0  0
  1 35  1  0  0  0
  1 36  1  0  0  0
  2 10  1  0  0  0
  2 34  1  0  0  0
  2 37  1  0  0  0
  3  4  1  0  0  0
  3  7  1  0  0  0
  4 38  1  0  0  0
  4 39  1  0  0  0
  5 15  1  0  0  0
  5 17  1  0  0  0
  5 28  1  0  0  0
  6 21  1  0  0  0
  6 27  1  0  0  0
  7 10  1  0  0  0
  7 40  1  0  0  0
  7 41  1  0  0  0
  8 13  1  0  0  0
  8 18  2  0  0  0
  9 17  2  0  0  0
 10 42  1  0  0  0
 10 43  1  0  0  0
 11 20  2  0  0  0
 11 21  1  0  0  0
 12 29  1  0  0  0
 12 30  1  0  0  0
 13 15  2  0  0  0
 13 24  1  0  0  0
 14 24  2  0  0  0
 14 25  1  0  0  0
 15 26  1  0  0  0
 16 18  1  0  0  0
 16 33  1  0  0  0
 16 44  1  0  0  0
 17 18  1  0  0  0
 19 20  1  0  0  0
 19 23  2  0  0  0
 19 25  1  0  0  0
 20 45  1  0  0  0
 21 22  2  0  0  0
 22 23  1  0  0  0
 22 46  1  0  0  0
 23 47  1  0  0  0
 24 48  1  0  0  0
 25 26  2  0  0  0
 26 49  1  0  0  0
 27 50  1  0  0  0
 27 51  1  0  0  0
 27 52  1  0  0  0
 28 29  1  0  0  0
 28 53  1  0  0  0
 28 54  1  0  0  0
 29 55  1  0  0  0
 29 56  1  0  0  0
 30 31  1  0  0  0
 30 57  1  0  0  0
 30 58  1  0  0  0
 31 32  1  0  0  0
 31 59  1  0  0  0
 31 60  1  0  0  0
 32 61  1  0  0  0
 32 62  1  0  0  0
 32 63  1  0  0  0
 33 34  1  0  0  0
 33 64  1  0  0  0
 33 65  1  0  0  0
 34 66  1  0  0  0
 34 67  1  0  0  0
M  CHG  1   2   1
M  END
> <s_m_source_file>
../3tge_ligand.sdf

> <i_m_source_file_index>
1

> <s_epik_input>
W0NIMl0xW0NIMl1PW0NIMl1bQ0gyXVtOSCtdMVtDSDJdW0NIMl1bTkhdYyhuMiljKD1PKW4oW0NIMl1bQ0gyXU9bQ0gyXVtDSDJdW0NIM10pYyhjMjMpW2NIXWMobltjSF0zKS1jNFtjSF1uYyhPW0NIM10pW2NIXVtjSF00

> <s_epik_cmdline>
J2VwaWtfYXBwJywgJy1pbWFlJywgJ2xpZ2FuZF9wcm8ubWFlJywgJy1vbWFlJywgJ2xpZ2FuZF9wcmVwLm1hZScsICctbXMnLCAnMScsICctcGgnLCAnNycsICctcGh0JywgJzAuNScsICctbnQn

> <r_lp_tautomer_probability>
1

> <r_epik_Ionization_Penalty>
  0.1655

> <r_epik_Ionization_Penalty_Charging>
  0.1653

> <r_epik_Ionization_Penalty_Neutral>
  0.0002

> <r_epik_State_Penalty>
  0.1547

> <r_epik_Charging_Adjusted_Penalty>
0.320009133873788

> <i_epik_Tot_Q>
1

> <i_epik_Tot_abs_Q>
1

$$$$
