3tgs_ligand
                    3D
 Schrodinger Suite 2020-3.
 48 49  0  0  1  0            999 V2000
  -24.0410   -8.8800   19.8170 C   0  0  0  0  0  0
  -23.4370   -8.2350   20.8930 C   0  0  0  0  0  0
  -23.2810   -6.8390   20.9530 C   0  0  0  0  0  0
  -23.7310   -5.9880   19.9520 C   0  0  0  0  0  0
  -24.3310   -6.6370   18.8470 C   0  0  0  0  0  0
  -24.4790   -8.0410   18.8020 C   0  0  0  0  0  0
  -23.5120   -4.5430   19.9570 N   0  0  0  0  0  0
  -22.3550   -3.9260   20.5280 C   0  0  0  0  0  0
  -24.1740  -10.3620   19.7810 Cl  0  0  0  0  0  0
  -22.1480   -2.3520   20.3500 C   0  0  0  0  0  0
  -21.0670   -1.7530   21.0010 N   0  0  0  0  0  0
  -20.5010   -0.4820   20.5230 C   0  0  0  0  0  0
  -19.5080    0.0800   21.5220 C   0  0  0  0  0  0
  -18.9070    1.3980   21.0010 C   0  0  0  0  0  0
  -18.1480    1.2450   19.7360 N   0  3  0  0  0  0
  -18.7820    0.3930   18.6880 C   0  0  0  0  0  0
  -19.7240   -0.7570   19.1980 C   0  0  0  0  0  0
  -17.9680    1.9890   22.0740 C   0  0  0  0  0  0
  -20.0740    2.4060   20.8170 C   0  0  0  0  0  0
  -19.5520    1.2700   17.6780 C   0  0  0  0  0  0
  -17.6680   -0.2710   17.8670 C   0  0  0  0  0  0
  -22.9800   -1.6790   19.7450 O   0  0  0  0  0  0
  -21.4910   -4.5170   21.0940 O   0  0  0  0  0  0
  -23.0697   -8.8376   21.7237 H   0  0  0  0  0  0
  -22.7858   -6.4062   21.8222 H   0  0  0  0  0  0
  -24.6881   -6.0382   18.0091 H   0  0  0  0  0  0
  -24.9591   -8.4858   17.9303 H   0  0  0  0  0  0
  -24.2579   -3.8721   19.5059 H   0  0  0  0  0  0
  -20.6387   -2.2478   21.8851 H   0  0  0  0  0  0
  -21.3487    0.2108   20.4160 H   0  0  0  0  0  0
  -20.0182    0.2728   22.4773 H   0  0  0  0  0  0
  -18.6962   -0.6453   21.6797 H   0  0  0  0  0  0
  -17.9995    2.2330   19.2757 H   0  0  0  0  0  0
  -17.1699    0.7886   19.9481 H   0  0  0  0  0  0
  -19.0797   -1.6391   19.3271 H   0  0  0  0  0  0
  -20.4407   -0.9424   18.3844 H   0  0  0  0  0  0
  -17.1223    1.3050   22.2380 H   0  0  0  0  0  0
  -18.5225    2.1188   23.0151 H   0  0  0  0  0  0
  -17.5901    2.9643   21.7335 H   0  0  0  0  0  0
  -20.7720    2.0242   20.0573 H   0  0  0  0  0  0
  -19.6721    3.3766   20.4909 H   0  0  0  0  0  0
  -20.6045    2.5311   21.7725 H   0  0  0  0  0  0
  -20.3759    1.7854   18.1934 H   0  0  0  0  0  0
  -19.9601    0.6352   16.8777 H   0  0  0  0  0  0
  -18.8687    2.0144   17.2432 H   0  0  0  0  0  0
  -17.0673   -0.9198   18.5214 H   0  0  0  0  0  0
  -17.0235    0.5050   17.4284 H   0  0  0  0  0  0
  -18.1149   -0.8741   17.0629 H   0  0  0  0  0  0
  1  2  2  0  0  0
  1  6  1  0  0  0
  1  9  1  0  0  0
  2  3  1  0  0  0
  2 24  1  0  0  0
  3  4  2  0  0  0
  3 25  1  0  0  0
  4  5  1  0  0  0
  4  7  1  0  0  0
  5  6  2  0  0  0
  5 26  1  0  0  0
  6 27  1  0  0  0
  7  8  1  0  0  0
  7 28  1  0  0  0
  8 10  1  0  0  0
  8 23  2  0  0  0
 10 11  1  0  0  0
 10 22  2  0  0  0
 11 12  1  0  0  0
 11 29  1  0  0  0
 12 13  1  0  0  0
 12 17  1  0  0  0
 12 30  1  0  0  0
 13 14  1  0  0  0
 13 31  1  0  0  0
 13 32  1  0  0  0
 14 15  1  0  0  0
 14 18  1  0  0  0
 14 19  1  0  0  0
 15 16  1  0  0  0
 15 33  1  0  0  0
 15 34  1  0  0  0
 16 17  1  0  0  0
 16 20  1  0  0  0
 16 21  1  0  0  0
 17 35  1  0  0  0
 17 36  1  0  0  0
 18 37  1  0  0  0
 18 38  1  0  0  0
 18 39  1  0  0  0
 19 40  1  0  0  0
 19 41  1  0  0  0
 19 42  1  0  0  0
 20 43  1  0  0  0
 20 44  1  0  0  0
 20 45  1  0  0  0
 21 46  1  0  0  0
 21 47  1  0  0  0
 21 48  1  0  0  0
M  CHG  1  15   1
M  END
> <s_m_source_file>
../3tgs_ligand.sdf

> <i_m_source_file_index>
1

> <s_epik_input>
Q2xjMVtjSF1bY0hdYyhbY0hdW2NIXTEpW05IXUMoPU8pQyg9TylbTkhdW0NIXShbQ0gyXUMyKFtDSDNdKVtDSDNdKVtDSDJdQyhbTkgyK10yKShbQ0gzXSlbQ0gzXQ==

> <s_epik_cmdline>
J2VwaWtfYXBwJywgJy1pbWFlJywgJ2xpZ2FuZF9wcm8ubWFlJywgJy1vbWFlJywgJ2xpZ2FuZF9wcmVwLm1hZScsICctbXMnLCAnMScsICctcGgnLCAnNycsICctcGh0JywgJzAuNScsICctbnQn

> <r_lp_tautomer_probability>
1

> <r_epik_Ionization_Penalty>
  0.0002

> <r_epik_Ionization_Penalty_Charging>
  0.0002

> <r_epik_Ionization_Penalty_Neutral>
  0.0000

> <r_epik_State_Penalty>
 -0.0000

> <r_epik_Charging_Adjusted_Penalty>
0.00016210291949958

> <i_epik_Tot_Q>
1

> <i_epik_Tot_abs_Q>
1

$$$$
