3th0_ligand
                    3D
 Schrodinger Suite 2020-3.
165172  0  0  1  0            999 V2000
    8.9600  -16.3730   28.8110 C   0  0  2  0  0  0
    8.1030  -16.8460   27.6230 C   0  0  1  0  0  0
    6.6170  -16.7010   27.9790 C   0  0  2  0  0  0
    6.2660  -17.3290   29.3380 C   0  0  2  0  0  0
    7.3350  -17.0720   30.4230 C   0  0  1  0  0  0
    7.1840  -18.0330   31.6270 C   0  0  0  0  0  0
    8.4130  -16.1000   26.4220 O   0  0  0  0  0  0
    5.8210  -17.3180   26.9760 O   0  0  0  0  0  0
    6.1020  -18.7270   29.1490 O   0  0  0  0  0  0
    8.6900  -17.2490   29.9250 O   0  0  0  0  0  0
    6.3450  -17.4700   32.6460 O   0  0  0  0  0  0
    9.7200  -14.7930   31.4080 C   0  0  2  0  0  0
    9.5750  -14.4170   29.9320 C   0  0  2  0  0  0
    9.0680  -12.9950   29.7770 C   0  0  2  0  0  0
    7.7150  -12.8600   30.5080 C   0  0  1  0  0  0
    7.8080  -13.3560   31.9650 C   0  0  1  0  0  0
    6.4010  -13.4970   32.5670 C   0  0  0  0  0  0
    8.5420  -15.0910   29.2380 O   0  0  0  0  0  0
    8.9240  -12.6030   28.3800 O   0  0  0  0  0  0
    7.3370  -11.4750   30.4810 O   0  0  0  0  0  0
    8.4350  -14.6670   32.0650 O   0  0  0  0  0  0
    6.2790  -12.5940   33.6670 O   0  0  0  0  0  0
   11.8970  -12.3670   35.5770 C   0  0  1  0  0  0
   11.0600  -13.6330   35.7140 C   0  0  1  0  0  0
   10.3310  -13.9080   34.3990 C   0  0  1  0  0  0
   11.2930  -14.0150   33.2300 C   0  0  2  0  0  0
   12.2500  -12.8000   33.2470 C   0  0  2  0  0  0
   13.3390  -13.0700   32.2000 C   0  0  0  0  0  0
   11.9370  -14.7220   36.0390 O   0  0  0  0  0  0
    9.5880  -15.1380   34.5170 O   0  0  0  0  0  0
   10.6340  -13.8400   31.9520 O   0  0  0  0  0  0
   12.8700  -12.5630   34.5480 O   0  0  0  0  0  0
   11.8250   -7.8560   36.5730 C   0  0  2  0  0  0
   11.3110   -9.2800   36.6110 C   0  0  1  0  0  0
   11.6370  -10.0070   35.3010 C   0  0  2  0  0  0
   11.0790   -9.2360   34.1050 C   0  0  2  0  0  0
   11.6140   -7.7910   34.1410 C   0  0  1  0  0  0
   10.9240   -6.9410   33.0430 C   0  0  0  0  0  0
   11.9670   -9.9590   37.6950 O   0  0  0  0  0  0
   10.9830  -11.2940   35.2810 O   0  0  0  0  0  0
    9.6540   -9.2290   34.1780 O   0  0  0  0  0  0
   11.2940   -7.1910   35.4000 O   0  0  0  0  0  0
   11.7210   -5.7990   32.7540 O   0  0  0  0  0  0
   14.0670   -5.6190   35.9980 C   0  0  2  0  0  0
   13.8480   -6.6930   37.0430 C   0  0  2  0  0  0
   15.1750   -7.1010   37.6520 C   0  0  2  0  0  0
   16.0940   -7.5910   36.5190 C   0  0  1  0  0  0
   16.2130   -6.5520   35.3830 C   0  0  1  0  0  0
   16.9000   -7.1640   34.1540 C   0  0  0  0  0  0
   13.2640   -7.8640   36.4850 O   0  0  0  0  0  0
   14.9290   -8.2260   38.5810 O   0  0  0  0  0  0
   17.4180   -7.9080   37.0490 O   0  0  0  0  0  0
   14.9270   -6.0970   34.9310 O   0  0  0  0  0  0
   17.1010   -6.1420   33.1710 O   0  0  0  0  0  0
   15.3820   -0.5090   36.5890 C   0  0  2  0  0  0
   16.3790   -1.4450   35.9390 C   0  0  1  0  0  0
   15.9410   -2.9170   35.6340 C   0  0  1  0  0  0
   14.5340   -3.2810   36.1290 C   0  0  2  0  0  0
   14.1170   -2.4040   37.2990 C   0  0  2  0  0  0
   12.6850   -2.6960   37.7220 C   0  0  0  0  0  0
   16.2530   -0.5640   37.7280 O   0  0  0  0  0  0
   17.1830   -0.7620   34.9770 O   0  0  0  0  0  0
   16.1830   -3.3120   34.2940 O   0  0  0  0  0  0
   14.7000   -4.5800   36.6920 O   0  0  0  0  0  0
   14.0960   -1.0370   36.8960 O   0  0  0  0  0  0
    9.9110  -11.6210   27.9980 C   0  0  2  0  0  0
    9.5180  -10.9620   26.6640 C   0  0  2  0  0  0
    8.2390  -10.3110   26.8170 O   0  0  0  0  0  0
    9.4600  -12.0240   25.5560 C   0  0  0  0  0  0
   10.8190  -12.7170   25.4410 C   0  0  2  0  0  0
   10.7670  -13.8010   24.4830 O   0  0  0  0  0  0
   11.1810  -13.2760   26.8240 C   0  0  2  0  0  0
   11.2230  -12.1860   27.8010 O   0  0  0  0  0  0
   12.5150  -14.0330   26.7770 C   0  0  0  0  0  0
   15.3840   -7.9060   39.8770 C   0  0  2  0  0  0
   15.3420   -9.1920   40.7160 C   0  0  2  0  0  0
   16.0530  -10.2300   40.0290 O   0  0  0  0  0  0
   13.9030   -9.6290   41.0030 C   0  0  0  0  0  0
   13.1100   -8.4530   41.5860 C   0  0  2  0  0  0
   11.7300   -8.8230   41.8040 O   0  0  0  0  0  0
   13.1710   -7.2630   40.6340 C   0  0  2  0  0  0
   14.5520   -6.8870   40.4350 O   0  0  0  0  0  0
   12.4200   -6.0060   41.1640 C   0  0  0  0  0  0
   10.0314  -16.3265   28.5662 H   0  0  0  0  0  0
    8.3463  -17.8864   27.3614 H   0  0  0  0  0  0
    6.3564  -15.6323   27.9790 H   0  0  0  0  0  0
    5.3022  -16.9354   29.6933 H   0  0  0  0  0  0
    7.2327  -16.0151   30.7101 H   0  0  0  0  0  0
    6.7342  -18.9778   31.2878 H   0  0  0  0  0  0
    8.1740  -18.2338   32.0623 H   0  0  0  0  0  0
    9.4393  -16.0968   26.0261 H   0  0  0  0  0  0
    5.9217  -17.0073   25.9256 H   0  0  0  0  0  0
    5.3776  -19.1009   28.4105 H   0  0  0  0  0  0
    6.1425  -18.0366   33.5668 H   0  0  0  0  0  0
   10.0820  -15.8137   31.6009 H   0  0  0  0  0  0
   10.5499  -14.6770   29.4938 H   0  0  0  0  0  0
    9.8300  -12.3061   30.1703 H   0  0  0  0  0  0
    6.9225  -13.4195   29.9893 H   0  0  0  0  0  0
    8.4488  -12.6543   32.5191 H   0  0  0  0  0  0
    5.6488  -13.2560   31.8014 H   0  0  0  0  0  0
    6.2526  -14.5301   32.9143 H   0  0  0  0  0  0
    7.2229  -10.9547   29.5186 H   0  0  0  0  0  0
    5.3385  -12.5433   34.2353 H   0  0  0  0  0  0
   12.4782  -12.0764   36.4645 H   0  0  0  0  0  0
   10.3377  -13.5611   36.5405 H   0  0  0  0  0  0
    9.6108  -13.1011   34.1984 H   0  0  0  0  0  0
   11.7383  -15.0189   33.2917 H   0  0  0  0  0  0
   11.6896  -11.8700   33.0704 H   0  0  0  0  0  0
   12.8702  -13.2482   31.2210 H   0  0  0  0  0  0
   13.9198  -13.9563   32.4953 H   0  0  0  0  0  0
   14.0075  -12.1990   32.1333 H   0  0  0  0  0  0
   12.5408  -14.6866   36.9578 H   0  0  0  0  0  0
    8.8364  -15.2524   35.3120 H   0  0  0  0  0  0
   11.5354   -7.2922   37.4720 H   0  0  0  0  0  0
   10.2278   -9.2930   36.8021 H   0  0  0  0  0  0
   12.7248  -10.1562   35.2345 H   0  0  0  0  0  0
   11.3210   -9.7324   33.1537 H   0  0  0  0  0  0
   12.7104   -7.7945   34.0523 H   0  0  0  0  0  0
   10.8063   -7.5453   32.1314 H   0  0  0  0  0  0
    9.9347   -6.6165   33.3981 H   0  0  0  0  0  0
   11.8554   -9.5877   38.7244 H   0  0  0  0  0  0
    9.0979  -10.1780   34.1648 H   0  0  0  0  0  0
   11.3897   -5.0749   31.9951 H   0  0  0  0  0  0
   13.1505   -5.2499   35.5145 H   0  0  0  0  0  0
   13.1294   -6.3158   37.7855 H   0  0  0  0  0  0
   15.6259   -6.2688   38.2125 H   0  0  0  0  0  0
   15.6886   -8.5287   36.1113 H   0  0  0  0  0  0
   16.7404   -5.6736   35.7833 H   0  0  0  0  0  0
   17.8707   -7.5884   34.4499 H   0  0  0  0  0  0
   16.2644   -7.9588   33.7364 H   0  0  0  0  0  0
   17.5230   -8.6343   37.8685 H   0  0  0  0  0  0
   17.5830   -6.3873   32.2132 H   0  0  0  0  0  0
   15.0285    0.4136   36.1055 H   0  0  0  0  0  0
   17.1548   -1.6257   36.6976 H   0  0  0  0  0  0
   16.6348   -3.5975   36.1494 H   0  0  0  0  0  0
   13.7837   -3.2434   35.3255 H   0  0  0  0  0  0
   14.8473   -2.5436   38.1097 H   0  0  0  0  0  0
   12.6064   -3.7422   38.0526 H   0  0  0  0  0  0
   12.0097   -2.5290   36.8699 H   0  0  0  0  0  0
   12.4036   -2.0279   38.5493 H   0  0  0  0  0  0
   17.2851   -0.1917   37.6496 H   0  0  0  0  0  0
   17.5054    0.2728   35.1648 H   0  0  0  0  0  0
   17.1573   -3.1052   33.8271 H   0  0  0  0  0  0
    9.9625  -10.9491   28.8674 H   0  0  0  0  0  0
   10.2213  -10.1648   26.3816 H   0  0  0  0  0  0
    8.1106   -9.5215   27.5721 H   0  0  0  0  0  0
    8.6887  -12.7687   25.8019 H   0  0  0  0  0  0
    9.2124  -11.5420   24.5987 H   0  0  0  0  0  0
   11.5808  -12.0271   25.0489 H   0  0  0  0  0  0
   10.5211  -13.5940   23.4310 H   0  0  0  0  0  0
   10.3980  -13.9648   27.1738 H   0  0  0  0  0  0
   12.4509  -14.8431   26.0356 H   0  0  0  0  0  0
   12.7299  -14.4591   27.7681 H   0  0  0  0  0  0
   13.3204  -13.3394   26.4936 H   0  0  0  0  0  0
   16.3878   -7.4626   39.8007 H   0  0  0  0  0  0
   15.8701   -9.0465   41.6699 H   0  0  0  0  0  0
   17.1052  -10.0809   39.7450 H   0  0  0  0  0  0
   13.4273   -9.9609   40.0684 H   0  0  0  0  0  0
   13.9088  -10.4580   41.7260 H   0  0  0  0  0  0
   13.5057   -8.1852   42.5768 H   0  0  0  0  0  0
   11.4847   -9.6659   42.4668 H   0  0  0  0  0  0
   12.7457   -7.5941   39.6751 H   0  0  0  0  0  0
   11.3609   -6.2538   41.3283 H   0  0  0  0  0  0
   12.4964   -5.1946   40.4252 H   0  0  0  0  0  0
   12.8722   -5.6817   42.1129 H   0  0  0  0  0  0
  1  2  1  0  0  0
  1 10  1  0  0  0
  1 18  1  0  0  0
  1 84  1  0  0  0
  2  3  1  0  0  0
  2  7  1  0  0  0
  2 85  1  0  0  0
  3  4  1  0  0  0
  3  8  1  0  0  0
  3 86  1  0  0  0
  4  5  1  0  0  0
  4  9  1  0  0  0
  4 87  1  0  0  0
  5  6  1  0  0  0
  5 10  1  0  0  0
  5 88  1  0  0  0
  6 11  1  0  0  0
  6 89  1  0  0  0
  6 90  1  0  0  0
  7 91  1  0  0  0
  8 92  1  0  0  0
  9 93  1  0  0  0
 11 94  1  0  0  0
 12 13  1  0  0  0
 12 21  1  0  0  0
 12 31  1  0  0  0
 12 95  1  0  0  0
 13 14  1  0  0  0
 13 18  1  0  0  0
 13 96  1  0  0  0
 14 15  1  0  0  0
 14 19  1  0  0  0
 14 97  1  0  0  0
 15 16  1  0  0  0
 15 20  1  0  0  0
 15 98  1  0  0  0
 16 17  1  0  0  0
 16 21  1  0  0  0
 16 99  1  0  0  0
 17 22  1  0  0  0
 17100  1  0  0  0
 17101  1  0  0  0
 19 66  1  0  0  0
 20102  1  0  0  0
 22103  1  0  0  0
 23 24  1  0  0  0
 23 32  1  0  0  0
 23 40  1  0  0  0
 23104  1  0  0  0
 24 25  1  0  0  0
 24 29  1  0  0  0
 24105  1  0  0  0
 25 26  1  0  0  0
 25 30  1  0  0  0
 25106  1  0  0  0
 26 27  1  0  0  0
 26 31  1  0  0  0
 26107  1  0  0  0
 27 28  1  0  0  0
 27 32  1  0  0  0
 27108  1  0  0  0
 28109  1  0  0  0
 28110  1  0  0  0
 28111  1  0  0  0
 29112  1  0  0  0
 30113  1  0  0  0
 33 34  1  0  0  0
 33 42  1  0  0  0
 33 50  1  0  0  0
 33114  1  0  0  0
 34 35  1  0  0  0
 34 39  1  0  0  0
 34115  1  0  0  0
 35 36  1  0  0  0
 35 40  1  0  0  0
 35116  1  0  0  0
 36 37  1  0  0  0
 36 41  1  0  0  0
 36117  1  0  0  0
 37 38  1  0  0  0
 37 42  1  0  0  0
 37118  1  0  0  0
 38 43  1  0  0  0
 38119  1  0  0  0
 38120  1  0  0  0
 39121  1  0  0  0
 41122  1  0  0  0
 43123  1  0  0  0
 44 45  1  0  0  0
 44 53  1  0  0  0
 44 64  1  0  0  0
 44124  1  0  0  0
 45 46  1  0  0  0
 45 50  1  0  0  0
 45125  1  0  0  0
 46 47  1  0  0  0
 46 51  1  0  0  0
 46126  1  0  0  0
 47 48  1  0  0  0
 47 52  1  0  0  0
 47127  1  0  0  0
 48 49  1  0  0  0
 48 53  1  0  0  0
 48128  1  0  0  0
 49 54  1  0  0  0
 49129  1  0  0  0
 49130  1  0  0  0
 51 75  1  0  0  0
 52131  1  0  0  0
 54132  1  0  0  0
 55 56  1  0  0  0
 55 61  1  0  0  0
 55 65  1  0  0  0
 55133  1  0  0  0
 56 57  1  0  0  0
 56 62  1  0  0  0
 56134  1  0  0  0
 57 58  1  0  0  0
 57 63  1  0  0  0
 57135  1  0  0  0
 58 59  1  0  0  0
 58 64  1  0  0  0
 58136  1  0  0  0
 59 60  1  0  0  0
 59 65  1  0  0  0
 59137  1  0  0  0
 60138  1  0  0  0
 60139  1  0  0  0
 60140  1  0  0  0
 61141  1  0  0  0
 62142  1  0  0  0
 63143  1  0  0  0
 66 67  1  0  0  0
 66 73  1  0  0  0
 66144  1  0  0  0
 67 68  1  0  0  0
 67 69  1  0  0  0
 67145  1  0  0  0
 68146  1  0  0  0
 69 70  1  0  0  0
 69147  1  0  0  0
 69148  1  0  0  0
 70 71  1  0  0  0
 70 72  1  0  0  0
 70149  1  0  0  0
 71150  1  0  0  0
 72 73  1  0  0  0
 72 74  1  0  0  0
 72151  1  0  0  0
 74152  1  0  0  0
 74153  1  0  0  0
 74154  1  0  0  0
 75 76  1  0  0  0
 75 82  1  0  0  0
 75155  1  0  0  0
 76 77  1  0  0  0
 76 78  1  0  0  0
 76156  1  0  0  0
 77157  1  0  0  0
 78 79  1  0  0  0
 78158  1  0  0  0
 78159  1  0  0  0
 79 80  1  0  0  0
 79 81  1  0  0  0
 79160  1  0  0  0
 80161  1  0  0  0
 81 82  1  0  0  0
 81 83  1  0  0  0
 81162  1  0  0  0
 83163  1  0  0  0
 83164  1  0  0  0
 83165  1  0  0  0
M  END
> <s_m_source_file>
../3th0_ligand.sdf

> <i_m_source_file_index>
1

> <s_epik_input>
W09IXVtDSDJdW0NAQEhdKE8xKVtDQEhdKFtPSF0pW0NASF0oW09IXSlbQ0BASF0oW09IXSlbQ0BIXTFPW0NAQEhdKFtDQEhdKFtDQEhdKFtPSF0pW0NASF0oTzIpW0NIMl1bT0hdKU9bQ0BASF0zW0NASF0oW09IXSlbQ0gyXVtDQEhdKFtPSF0pW0NASF0oTzMpW0NIM10pW0NASF0yT1tDQEBIXShbQ0BASF0oTzQpW0NIM10pW0NAQEhdKFtPSF0pW0NAQEhdKFtPSF0pW0NAQEhdNE9bQ0BASF0oW0NAQEhdKFtPSF0pW0NASF0oTzUpW0NIMl1bT0hdKVtDQEBIXShbT0hdKVtDQEhdNU9bQ0BIXShbQ0BIXTZPW0NAQEhdKFtDQEBIXShPNylbQ0gzXSlbQ0BASF0oW09IXSlbQ0BASF0oW09IXSlbQ0BASF03W09IXSlbQ0BIXShbQ0BIXShbT0hdKVtDQEhdKE82KVtDSDJdW09IXSlPW0NAQEhdOFtDQEhdKFtPSF0pW0NIMl1bQ0BIXShbT0hdKVtDQEhdKE84KVtDSDNd

> <s_epik_cmdline>
J2VwaWtfYXBwJywgJy1pbWFlJywgJ2xpZ2FuZF9wcm8ubWFlJywgJy1vbWFlJywgJ2xpZ2FuZF9wcmVwLm1hZScsICctbXMnLCAnMScsICctcGgnLCAnNycsICctcGh0JywgJzAuNScsICctbnQn

> <s_epik_pKa_notes>
Molecule size exceeds maximum supported for generating protonation states

> <s_epik_Chemistry_Notes>
This compound contains an acetal/aminal-like group ( X-CH(R)-Y where X, Y are N, S, or O) that may be acid/base labile, releasing an aldehyde.

$$$$
