3th8_ligand
                    3D
 Schrodinger Suite 2020-3.
 53 53  0  0  1  0            999 V2000
  -13.0810   -4.1000   -0.2720 C   0  0  0  0  0  0
   -3.6140    9.2780   -2.0070 O   0  0  0  0  0  0
   -6.6200    6.6110    0.6770 O   0  0  0  0  0  0
   -2.9090   10.1880   -0.1470 O   0  5  0  0  0  0
   -4.7130    8.5600    1.2270 O   0  0  0  0  0  0
   -5.4040    7.6160   -1.0690 C   0  0  0  0  0  0
  -10.8670    2.4850   -3.9440 C   0  0  0  0  0  0
   -9.5090    2.6680   -3.6940 C   0  0  0  0  0  0
  -11.6690    1.9080   -2.9680 C   0  0  0  0  0  0
   -9.7260    1.7200   -1.4990 C   0  0  0  0  0  0
  -13.9140   -3.0390    0.4790 C   0  0  0  0  0  0
  -13.4890   -1.6040    0.1180 C   0  0  0  0  0  0
  -12.1840   -1.1710    0.8130 C   0  0  0  0  0  0
  -12.3450    0.2330    1.4530 C   0  0  0  0  0  0
   -7.2220    3.5680   -1.1820 C   0  0  0  0  0  0
   -8.0260    4.9030   -1.2260 C   0  0  0  0  0  0
  -11.6990    1.3080    0.5650 C   0  0  0  0  0  0
   -7.5550    2.5280   -2.3030 C   0  0  0  0  0  0
   -7.0630    5.9830   -1.4660 N   0  0  0  0  0  0
  -11.9400    0.9720   -0.8130 O   0  0  0  0  0  0
   -3.6460    9.3780   -0.7900 C   0  0  0  0  0  0
   -6.4510    6.6980   -0.5240 C   0  0  0  0  0  0
   -4.5970    8.4970   -0.1180 C   0  0  3  0  0  0
   -8.9320    2.3060   -2.4880 C   0  0  0  0  0  0
  -11.1000    1.5320   -1.7430 C   0  0  0  0  0  0
  -13.4205   -5.1053    0.0180 H   0  0  0  0  0  0
  -12.0184   -3.9828   -0.0127 H   0  0  0  0  0  0
  -13.2106   -3.9678   -1.3563 H   0  0  0  0  0  0
   -5.4246    7.9034    1.7490 H   0  0  0  0  0  0
   -4.6416    7.0279   -1.6008 H   0  0  0  0  0  0
   -5.8685    8.3295   -1.7655 H   0  0  0  0  0  0
  -11.2966    2.7921   -4.8976 H   0  0  0  0  0  0
   -8.8825    3.1086   -4.4695 H   0  0  0  0  0  0
  -12.7314    1.7489   -3.1527 H   0  0  0  0  0  0
   -9.2871    1.4121   -0.5500 H   0  0  0  0  0  0
  -14.9766   -3.1562    0.2197 H   0  0  0  0  0  0
  -13.7845   -3.1712    1.5633 H   0  0  0  0  0  0
  -13.3297   -1.5310   -0.9680 H   0  0  0  0  0  0
  -14.2786   -0.9006    0.4209 H   0  0  0  0  0  0
  -11.9310   -1.8949    1.6017 H   0  0  0  0  0  0
  -11.3698   -1.1342    0.0742 H   0  0  0  0  0  0
  -13.4145    0.4622    1.5699 H   0  0  0  0  0  0
  -11.8576    0.2446    2.4391 H   0  0  0  0  0  0
   -6.1475    3.7839   -1.2758 H   0  0  0  0  0  0
   -7.4113    3.0573   -0.2263 H   0  0  0  0  0  0
   -8.7668    4.8582   -2.0379 H   0  0  0  0  0  0
   -8.5424    5.0518   -0.2662 H   0  0  0  0  0  0
  -12.1427    2.2881    0.7942 H   0  0  0  0  0  0
  -10.6166    1.3413    0.7582 H   0  0  0  0  0  0
   -7.1518    2.8822   -3.2632 H   0  0  0  0  0  0
   -7.1013    1.5583   -2.0501 H   0  0  0  0  0  0
   -6.7931    6.2605   -2.4956 H   0  0  0  0  0  0
   -4.7045    8.2550    0.9497 H   0  0  0  0  0  0
  1 11  1  0  0  0
  1 26  1  0  0  0
  1 27  1  0  0  0
  1 28  1  0  0  0
  2 21  2  0  0  0
  3 22  2  0  0  0
  4 21  1  0  0  0
  5 23  1  0  0  0
  5 29  1  0  0  0
  6 22  1  0  0  0
  6 23  1  0  0  0
  6 30  1  0  0  0
  6 31  1  0  0  0
  7  8  2  0  0  0
  7  9  1  0  0  0
  7 32  1  0  0  0
  8 24  1  0  0  0
  8 33  1  0  0  0
  9 25  2  0  0  0
  9 34  1  0  0  0
 10 24  2  0  0  0
 10 25  1  0  0  0
 10 35  1  0  0  0
 11 12  1  0  0  0
 11 36  1  0  0  0
 11 37  1  0  0  0
 12 13  1  0  0  0
 12 38  1  0  0  0
 12 39  1  0  0  0
 13 14  1  0  0  0
 13 40  1  0  0  0
 13 41  1  0  0  0
 14 17  1  0  0  0
 14 42  1  0  0  0
 14 43  1  0  0  0
 15 16  1  0  0  0
 15 18  1  0  0  0
 15 44  1  0  0  0
 15 45  1  0  0  0
 16 19  1  0  0  0
 16 46  1  0  0  0
 16 47  1  0  0  0
 17 20  1  0  0  0
 17 48  1  0  0  0
 17 49  1  0  0  0
 18 24  1  0  0  0
 18 50  1  0  0  0
 18 51  1  0  0  0
 19 22  1  0  0  0
 19 52  1  0  0  0
 20 25  1  0  0  0
 21 23  1  0  0  0
 23 53  1  0  0  0
M  CHG  1   4  -1
M  END
> <s_m_source_file>
../3th8_ligand.sdf

> <i_m_source_file_index>
1

> <s_epik_input>
W0NIM11bQ0gyXVtDSDJdW0NIMl1bQ0gyXVtDSDJdT2MoW2NIXTEpW2NIXVtjSF1bY0hdYzFbQ0gyXVtDSDJdW0NIMl1bTkhdQyg9TylbQ0gyXVtDSF0oW09IXSlDKD1PKVtPSF0=

> <s_epik_cmdline>
J2VwaWtfYXBwJywgJy1pbWFlJywgJ2xpZ2FuZF9wcm8ubWFlJywgJy1vbWFlJywgJ2xpZ2FuZF9wcmVwLm1hZScsICctbXMnLCAnMScsICctcGgnLCAnNycsICctcGh0JywgJzAuNScsICctbnQn

> <r_lp_tautomer_probability>
1

> <r_epik_Ionization_Penalty>
  0.0011

> <r_epik_Ionization_Penalty_Charging>
  0.0011

> <r_epik_Ionization_Penalty_Neutral>
  0.0000

> <r_epik_State_Penalty>
 -0.0000

> <r_epik_Charging_Adjusted_Penalty>
0.0010687231426361

> <i_epik_Tot_Q>
-1

> <i_epik_Tot_abs_Q>
1

$$$$
