3thb_ligand
                    3D
 Schrodinger Suite 2020-3.
 57 60  0  0  1  0            999 V2000
  -43.7040   14.5920   10.1920 C   0  0  0  0  0  0
  -43.3870    9.2340   14.5070 Cl  0  0  0  0  0  0
  -43.9720   15.2870    9.0200 C   0  0  0  0  0  0
  -44.4590   14.6390    7.9710 N   0  0  0  0  0  0
  -44.6950   13.3240    8.0240 C   0  0  0  0  0  0
  -44.4510   12.6260    9.1430 N   0  0  0  0  0  0
  -43.9730   13.2390   10.2340 C   0  0  0  0  0  0
  -42.7710   12.5350   12.2780 C   0  0  0  0  0  0
  -43.7490   12.3770   11.2960 C   0  0  0  0  0  0
  -41.8720   13.5280   12.3680 N   0  0  0  0  0  0
  -41.9350   14.7990   11.9400 C   0  0  0  0  0  0
  -43.1510   15.4650   11.3120 C   0  0  0  0  0  0
  -44.4760   10.3170   12.3000 C   0  0  0  0  0  0
  -43.5000   10.4580   13.2840 C   0  0  0  0  0  0
  -42.6390   11.5640   13.2740 C   0  0  0  0  0  0
  -44.6030   11.2770   11.3010 C   0  0  0  0  0  0
  -40.5110   15.8090   12.1380 S   0  0  0  0  0  0
  -45.1690   12.7210    6.9510 N   0  0  0  0  0  0
  -45.6610   11.4780    6.9640 C   0  0  0  0  0  0
  -44.8990   10.3990    7.4070 C   0  0  0  0  0  0
  -45.4740    9.1310    7.3870 C   0  0  0  0  0  0
  -46.7750    8.9770    6.9180 C   0  0  0  0  0  0
  -47.4790   10.0100    6.5040 N   0  0  0  0  0  0
  -46.9620   11.2440    6.5070 C   0  0  0  0  0  0
  -44.7020    7.8800    7.8550 C   0  0  0  0  0  0
  -44.6830    7.6950    9.3730 C   0  0  0  0  0  0
  -43.9520    6.4090    9.7920 C   0  0  0  0  0  0
  -42.5830    6.2500    9.2250 N   0  3  0  0  0  0
  -41.6290    7.3510    9.5130 C   0  0  0  0  0  0
  -42.0310    4.9810    9.7500 C   0  0  0  0  0  0
  -47.8360   12.3900    6.0060 C   0  0  0  0  0  0
  -43.7831   16.3590    8.9629 H   0  0  0  0  0  0
  -42.8569   16.4430   10.9033 H   0  0  0  0  0  0
  -43.9237   15.6067   12.0820 H   0  0  0  0  0  0
  -45.1410    9.4535   12.3128 H   0  0  0  0  0  0
  -41.8700   11.6661   14.0397 H   0  0  0  0  0  0
  -45.3646   11.1690   10.5287 H   0  0  0  0  0  0
  -45.1722   13.2432    5.9829 H   0  0  0  0  0  0
  -43.8781   10.5438    7.7604 H   0  0  0  0  0  0
  -47.2199    7.9823    6.8928 H   0  0  0  0  0  0
  -45.1653    6.9805    7.4234 H   0  0  0  0  0  0
  -43.6557    7.9491    7.5225 H   0  0  0  0  0  0
  -44.1688    8.5480    9.8399 H   0  0  0  0  0  0
  -45.7154    7.6390    9.7485 H   0  0  0  0  0  0
  -43.8442    6.3886   10.8865 H   0  0  0  0  0  0
  -44.5324    5.5339    9.4644 H   0  0  0  0  0  0
  -42.6917    6.2571    8.1304 H   0  0  0  0  0  0
  -42.0336    8.2975    9.1251 H   0  0  0  0  0  0
  -40.6654    7.1376    9.0272 H   0  0  0  0  0  0
  -41.4814    7.4333   10.5999 H   0  0  0  0  0  0
  -42.7333    4.1609    9.5398 H   0  0  0  0  0  0
  -41.8827    5.0674   10.8365 H   0  0  0  0  0  0
  -41.0667    4.7717    9.2638 H   0  0  0  0  0  0
  -47.2749   13.3340    6.0699 H   0  0  0  0  0  0
  -48.7415   12.4589    6.6267 H   0  0  0  0  0  0
  -48.1216   12.2032    4.9603 H   0  0  0  0  0  0
  -40.9032   13.3501   12.8576 H   0  0  0  0  0  0
  1  3  2  0  0  0
  1  7  1  0  0  0
  1 12  1  0  0  0
  2 14  1  0  0  0
  3  4  1  0  0  0
  3 32  1  0  0  0
  4  5  2  0  0  0
  5  6  1  0  0  0
  5 18  1  0  0  0
  6  7  2  0  0  0
  7  9  1  0  0  0
  8  9  2  0  0  0
  8 10  1  0  0  0
  8 15  1  0  0  0
  9 16  1  0  0  0
 10 11  1  0  0  0
 10 57  1  0  0  0
 11 12  1  0  0  0
 11 17  2  0  0  0
 12 33  1  0  0  0
 12 34  1  0  0  0
 13 14  1  0  0  0
 13 16  2  0  0  0
 13 35  1  0  0  0
 14 15  2  0  0  0
 15 36  1  0  0  0
 16 37  1  0  0  0
 18 19  1  0  0  0
 18 38  1  0  0  0
 19 20  2  0  0  0
 19 24  1  0  0  0
 20 21  1  0  0  0
 20 39  1  0  0  0
 21 22  2  0  0  0
 21 25  1  0  0  0
 22 23  1  0  0  0
 22 40  1  0  0  0
 23 24  2  0  0  0
 24 31  1  0  0  0
 25 26  1  0  0  0
 25 41  1  0  0  0
 25 42  1  0  0  0
 26 27  1  0  0  0
 26 43  1  0  0  0
 26 44  1  0  0  0
 27 28  1  0  0  0
 27 45  1  0  0  0
 27 46  1  0  0  0
 28 29  1  0  0  0
 28 30  1  0  0  0
 28 47  1  0  0  0
 29 48  1  0  0  0
 29 49  1  0  0  0
 29 50  1  0  0  0
 30 51  1  0  0  0
 30 52  1  0  0  0
 30 53  1  0  0  0
 31 54  1  0  0  0
 31 55  1  0  0  0
 31 56  1  0  0  0
M  CHG  1  28   1
M  END
> <s_m_source_file>
../3thb_ligand.sdf

> <i_m_source_file_index>
1

> <s_epik_input>
W2NIXTFbY0hdYyhDbClbY0hdYyhOPUMoW0NIMl0yKVtTSF0pYzFjKGMyMyluYyhuW2NIXTMpW05IXWM0W2NIXWMoW2NIXW5jNFtDSDNdKVtDSDJdW0NIMl1bQ0gyXVtOSCtdKFtDSDNdKVtDSDNd

> <s_epik_cmdline>
J2VwaWtfYXBwJywgJy1pbWFlJywgJ2xpZ2FuZF9wcm8ubWFlJywgJy1vbWFlJywgJ2xpZ2FuZF9wcmVwLm1hZScsICctbXMnLCAnMScsICctcGgnLCAnNycsICctcGh0JywgJzAuNScsICctbnQn

> <r_lp_tautomer_probability>
0.999999987635999

> <r_epik_Ionization_Penalty>
  0.0352

> <r_epik_Ionization_Penalty_Charging>
  0.0021

> <r_epik_Ionization_Penalty_Neutral>
  0.0331

> <r_epik_State_Penalty>
  0.0274

> <r_epik_Charging_Adjusted_Penalty>
0.0294985359807591

> <i_epik_Tot_Q>
1

> <i_epik_Tot_abs_Q>
1

$$$$
