3ti1_ligand
                    3D
 Schrodinger Suite 2020-3.
 57 59  0  0  1  0            999 V2000
  -88.6640  -11.7370  -83.7510 C   0  0  0  0  0  0
  -96.3790   -7.0050  -87.8600 C   0  0  0  0  0  0
  -95.4980   -7.9290  -88.4510 C   0  0  0  0  0  0
  -95.1970   -7.2550  -85.7530 C   0  0  0  0  0  0
  -90.9250   -8.9540  -82.5940 C   0  0  0  0  0  0
  -96.2290   -6.6710  -86.5110 C   0  0  0  0  0  0
  -94.3290   -8.1800  -86.3510 C   0  0  0  0  0  0
  -93.2050   -8.9080  -85.8020 C   0  0  0  0  0  0
  -92.6690   -9.7020  -86.8320 C   0  0  0  0  0  0
  -88.8190   -9.6600  -81.2000 C   0  0  0  0  0  0
  -91.4170   -7.8530  -81.6910 C   0  0  0  0  0  0
  -92.8110   -8.7210  -84.3220 C   0  0  0  0  0  0
  -89.7260  -10.6570  -83.5080 C   0  0  0  0  0  0
  -94.4520   -8.5230  -87.6670 C   0  0  0  0  0  0
  -91.5340   -9.3570  -83.7920 C   0  0  0  0  0  0
  -89.7870   -9.7480  -82.4050 C   0  0  0  0  0  0
  -90.7910  -10.4010  -84.3350 N   0  3  0  0  0  0
  -93.4160   -9.4650  -87.9550 N   0  0  0  0  0  0
  -89.3410   -9.4500  -79.8490 N   0  0  0  0  0  0
  -91.5900  -10.5590  -86.7520 O   0  0  0  0  0  0
  -87.5780   -9.7840  -81.3780 O   0  0  0  0  0  0
  -97.0350   -5.8140  -85.9080 F   0  0  0  0  0  0
  -88.4410   -9.3820  -78.7420 C   0  0  0  0  0  0
  -88.6380   -8.3370  -77.6700 C   0  0  0  0  0  0
  -88.8810   -6.9440  -78.0590 N   0  3  0  0  0  0
  -90.1050   -6.4500  -77.4910 C   0  0  0  0  0  0
  -87.7840   -6.1150  -77.6800 C   0  0  0  0  0  0
  -87.6640   -5.7050  -76.2090 C   0  0  0  0  0  0
  -90.8970   -7.3200  -76.5720 C   0  0  0  0  0  0
  -87.9302  -11.7206  -82.9317 H   0  0  0  0  0  0
  -88.1528  -11.5405  -84.7050 H   0  0  0  0  0  0
  -89.1475  -12.7243  -83.7906 H   0  0  0  0  0  0
  -97.1747   -6.5517  -88.4512 H   0  0  0  0  0  0
  -95.6093   -8.1936  -89.5025 H   0  0  0  0  0  0
  -95.0726   -6.9889  -84.7033 H   0  0  0  0  0  0
  -92.3358   -7.4176  -82.1108 H   0  0  0  0  0  0
  -90.6455   -7.0731  -81.6098 H   0  0  0  0  0  0
  -91.6289   -8.2644  -80.6931 H   0  0  0  0  0  0
  -93.4526   -8.1291  -83.6526 H   0  0  0  0  0  0
  -93.1712   -9.9780  -88.8968 H   0  0  0  0  0  0
  -90.4236   -9.3446  -79.6850 H   0  0  0  0  0  0
  -88.4642  -10.3341  -78.1916 H   0  0  0  0  0  0
  -87.4211   -9.1958  -79.1095 H   0  0  0  0  0  0
  -89.5096   -8.6034  -77.0541 H   0  0  0  0  0  0
  -87.7411   -8.2895  -77.0350 H   0  0  0  0  0  0
  -88.9760   -6.8867  -79.1534 H   0  0  0  0  0  0
  -89.8954   -5.5494  -76.8951 H   0  0  0  0  0  0
  -90.8091   -6.1999  -78.2982 H   0  0  0  0  0  0
  -86.8392   -6.6291  -77.9103 H   0  0  0  0  0  0
  -87.8309   -5.1675  -78.2368 H   0  0  0  0  0  0
  -86.7744   -5.0717  -76.0763 H   0  0  0  0  0  0
  -87.5698   -6.6053  -75.5840 H   0  0  0  0  0  0
  -88.5616   -5.1436  -75.9105 H   0  0  0  0  0  0
  -91.7948   -6.7792  -76.2381 H   0  0  0  0  0  0
  -90.2830   -7.5857  -75.6988 H   0  0  0  0  0  0
  -91.1967   -8.2361  -77.1020 H   0  0  0  0  0  0
  -90.9300  -10.9926  -85.2519 H   0  0  0  0  0  0
  1 13  1  0  0  0
  1 30  1  0  0  0
  1 31  1  0  0  0
  1 32  1  0  0  0
  2  3  2  0  0  0
  2  6  1  0  0  0
  2 33  1  0  0  0
  3 14  1  0  0  0
  3 34  1  0  0  0
  4  6  2  0  0  0
  4  7  1  0  0  0
  4 35  1  0  0  0
  5 11  1  0  0  0
  5 15  2  0  0  0
  5 16  1  0  0  0
  6 22  1  0  0  0
  7  8  1  0  0  0
  7 14  2  0  0  0
  8  9  1  0  0  0
  8 12  2  0  0  0
  9 18  1  0  0  0
  9 20  2  0  0  0
 10 16  1  0  0  0
 10 19  1  0  0  0
 10 21  2  0  0  0
 11 36  1  0  0  0
 11 37  1  0  0  0
 11 38  1  0  0  0
 12 15  1  0  0  0
 12 39  1  0  0  0
 13 16  2  0  0  0
 13 17  1  0  0  0
 14 18  1  0  0  0
 15 17  1  0  0  0
 17 57  1  0  0  0
 18 40  1  0  0  0
 19 23  1  0  0  0
 19 41  1  0  0  0
 23 24  1  0  0  0
 23 42  1  0  0  0
 23 43  1  0  0  0
 24 25  1  0  0  0
 24 44  1  0  0  0
 24 45  1  0  0  0
 25 26  1  0  0  0
 25 27  1  0  0  0
 25 46  1  0  0  0
 26 29  1  0  0  0
 26 47  1  0  0  0
 26 48  1  0  0  0
 27 28  1  0  0  0
 27 49  1  0  0  0
 27 50  1  0  0  0
 28 51  1  0  0  0
 28 52  1  0  0  0
 28 53  1  0  0  0
 29 54  1  0  0  0
 29 55  1  0  0  0
 29 56  1  0  0  0
M  CHG  2  17   1  25   1
M  END
> <s_m_source_file>
../3ti1_ligand.sdf

> <i_m_source_file_index>
1

> <s_epik_input>
W0NIM11bQ0gyXVtOSCtdKFtDSDJdW0NIM10pW0NIMl1bQ0gyXVtOSF1DKD1PKWMxYyhbQ0gzXSlbbkhdYyhjMVtDSDNdKVxbQ0hdPUNcMkMoPU8pW05IXWMoYzIzKVtjSF1bY0hdYyhGKVtjSF0z

> <s_epik_cmdline>
J2VwaWtfYXBwJywgJy1pbWFlJywgJ2xpZ2FuZF9wcm8ubWFlJywgJy1vbWFlJywgJ2xpZ2FuZF9wcmVwLm1hZScsICctbXMnLCAnMScsICctcGgnLCAnNycsICctcGh0JywgJzAuNScsICctbnQn

> <r_lp_tautomer_probability>
1

> <r_epik_Ionization_Penalty>
  0.0090

> <r_epik_Ionization_Penalty_Charging>
  0.0088

> <r_epik_Ionization_Penalty_Neutral>
  0.0001

> <r_epik_State_Penalty>
 -0.0000

> <r_epik_Charging_Adjusted_Penalty>
0.00884676482543356

> <i_epik_Tot_Q>
2

> <i_epik_Tot_abs_Q>
2

$$$$
