3ti3_ligand
                    3D
 Schrodinger Suite 2020-3.
 48 48  0  0  1  0            999 V2000
   29.4460   13.2070  -22.7790 C   0  0  1  0  0  0
   30.8780   13.7230  -22.6260 C   0  0  0  0  0  0
   31.2210   14.5310  -21.3690 C   0  0  1  0  0  0
   30.0190   14.8570  -20.4400 C   0  0  2  0  0  0
   28.5810   14.5620  -20.9410 C   0  0  1  0  0  0
   28.3670   13.7620  -22.0880 O   0  0  0  0  0  0
   29.0450   12.5680  -24.0610 C   0  0  0  0  0  0
   30.0140   11.9730  -24.8350 O   0  5  0  0  0  0
   27.8520   12.4960  -24.3280 O   0  0  0  0  0  0
   27.4890   14.4280  -19.9420 C   0  0  1  0  0  0
   26.1260   14.6870  -20.5460 C   0  0  1  0  0  0
   25.0060   14.3680  -19.5850 C   0  0  0  0  0  0
   24.9720   15.1890  -18.4370 O   0  0  0  0  0  0
   27.6190   13.1670  -19.4160 O   0  0  0  0  0  0
   27.6650   13.0100  -18.0390 C   0  0  0  0  0  0
   26.0210   15.9410  -21.1130 O   0  0  0  0  0  0
   32.5430   14.3650  -20.8130 N   0  0  0  0  0  0
   33.3070   15.3990  -20.1700 C   0  0  0  0  0  0
   34.4020   15.0350  -19.5400 N   0  3  0  0  0  0
   32.9740   16.6840  -20.2710 N   0  0  0  0  0  0
   30.8320   15.4290  -18.0860 C   0  0  0  0  0  0
   30.9680   16.5840  -17.1480 C   0  0  0  0  0  0
   31.0600   14.2780  -17.7250 O   0  0  0  0  0  0
   30.1530   15.7300  -19.3080 N   0  0  0  0  0  0
   29.5316   12.4369  -21.9982 H   0  0  0  0  0  0
   31.5754   12.8723  -22.6182 H   0  0  0  0  0  0
   31.1201   14.3879  -23.4682 H   0  0  0  0  0  0
   31.5606   15.5179  -21.7163 H   0  0  0  0  0  0
   30.2972   14.1698  -19.6274 H   0  0  0  0  0  0
   28.3853   15.5095  -21.4644 H   0  0  0  0  0  0
   27.6005   15.1147  -19.0899 H   0  0  0  0  0  0
   26.0009   14.0741  -21.4508 H   0  0  0  0  0  0
   24.0392   14.4895  -20.0954 H   0  0  0  0  0  0
   25.1078   13.3302  -19.2347 H   0  0  0  0  0  0
   24.1934   15.0370  -17.6750 H   0  0  0  0  0  0
   27.7705   11.9426  -17.7950 H   0  0  0  0  0  0
   26.7365   13.3977  -17.5946 H   0  0  0  0  0  0
   28.5245   13.5651  -17.6352 H   0  0  0  0  0  0
   26.7804   16.2856  -21.8303 H   0  0  0  0  0  0
   33.0421   13.3861  -20.8639 H   0  0  0  0  0  0
   34.6646   13.9695  -19.4644 H   0  0  0  0  0  0
   32.0548   16.9739  -20.8011 H   0  0  0  0  0  0
   33.6181   17.4558  -19.8244 H   0  0  0  0  0  0
   31.4999   16.2595  -16.2415 H   0  0  0  0  0  0
   29.9688   16.9537  -16.8744 H   0  0  0  0  0  0
   31.5355   17.3891  -17.6376 H   0  0  0  0  0  0
   29.7091   16.7361  -19.3338 H   0  0  0  0  0  0
   35.0555   15.7959  -19.0885 H   0  0  0  0  0  0
  1  2  1  0  0  0
  1  6  1  0  0  0
  1  7  1  0  0  0
  1 25  1  0  0  0
  2  3  1  0  0  0
  2 26  1  0  0  0
  2 27  1  0  0  0
  3  4  1  0  0  0
  3 17  1  0  0  0
  3 28  1  0  0  0
  4  5  1  0  0  0
  4 24  1  0  0  0
  4 29  1  0  0  0
  5  6  1  0  0  0
  5 10  1  0  0  0
  5 30  1  0  0  0
  7  8  1  0  0  0
  7  9  2  0  0  0
 10 11  1  0  0  0
 10 14  1  0  0  0
 10 31  1  0  0  0
 11 12  1  0  0  0
 11 16  1  0  0  0
 11 32  1  0  0  0
 12 13  1  0  0  0
 12 33  1  0  0  0
 12 34  1  0  0  0
 13 35  1  0  0  0
 14 15  1  0  0  0
 15 36  1  0  0  0
 15 37  1  0  0  0
 15 38  1  0  0  0
 16 39  1  0  0  0
 17 18  1  0  0  0
 17 40  1  0  0  0
 18 19  2  0  0  0
 18 20  1  0  0  0
 19 41  1  0  0  0
 19 48  1  0  0  0
 20 42  1  0  0  0
 20 43  1  0  0  0
 21 22  1  0  0  0
 21 23  2  0  0  0
 21 24  1  0  0  0
 22 44  1  0  0  0
 22 45  1  0  0  0
 22 46  1  0  0  0
 24 47  1  0  0  0
M  CHG  2   8  -1  19   1
M  END
> <s_m_source_file>
../3ti3_ligand.sdf

> <i_m_source_file_index>
1

> <s_epik_input>
W09IXUMoPU8pW0NASF0xW0NIMl1bQ0BIXShbTkhdL0MoPU5cW0hdKVtOSDJdKVtDQEBIXShbTkhdQyg9TylbQ0gzXSlbQ0BASF0oTzEpW0NASF0oT1tDSDNdKVtDQEhdKFtPSF0pW0NIMl1bT0hd

> <s_epik_cmdline>
J2VwaWtfYXBwJywgJy1pbWFlJywgJ2xpZ2FuZF9wcm8ubWFlJywgJy1vbWFlJywgJ2xpZ2FuZF9wcmVwLm1hZScsICctbXMnLCAnMScsICctcGgnLCAnNycsICctcGh0JywgJzAuNScsICctbnQn

> <r_lp_tautomer_probability>
1

> <r_epik_Ionization_Penalty>
  0.0001

> <r_epik_Ionization_Penalty_Charging>
  0.0001

> <r_epik_Ionization_Penalty_Neutral>
  0.0000

> <r_epik_State_Penalty>
 -0.0000

> <r_epik_Charging_Adjusted_Penalty>
0.00014315671762345

> <i_epik_Tot_Q>
0

> <i_epik_Tot_abs_Q>
2

> <s_epik_Chemistry_Notes>
This compound has an imine and may undergo hydrolysis.

$$$$
