3ti5_ligand
                    3D
 Schrodinger Suite 2020-3.
 45 45  0  0  1  0            999 V2000
   29.0240   12.4410  -24.0780 C   0  0  0  0  0  0
   27.8730   12.3690  -24.3830 O   0  0  0  0  0  0
   30.0650   12.1270  -24.8870 O   0  5  0  0  0  0
   29.4050   13.2860  -22.8880 C   0  0  1  0  0  0
   30.8790   13.7170  -22.6450 C   0  0  0  0  0  0
   31.1660   14.6100  -21.4310 C   0  0  1  0  0  0
   30.0280   14.8170  -20.4450 C   0  0  1  0  0  0
   30.2020   15.6980  -19.3560 N   0  0  0  0  0  0
   30.8210   15.4040  -18.1520 C   0  0  0  0  0  0
   31.1100   14.3280  -17.8420 O   0  0  0  0  0  0
   30.9730   16.6000  -17.2400 C   0  0  0  0  0  0
   28.6070   14.6200  -20.9450 C   0  0  1  0  0  0
   28.3660   13.8060  -22.0820 O   0  0  0  0  0  0
   27.4970   14.3380  -19.9630 C   0  0  2  0  0  0
   27.6230   13.0810  -19.5520 O   0  0  0  0  0  0
   26.1260   14.6560  -20.5820 C   0  0  2  0  0  0
   26.0440   15.8100  -21.2620 O   0  0  0  0  0  0
   25.0100   14.4560  -19.5970 C   0  0  0  0  0  0
   24.9810   15.3170  -18.6010 O   0  0  0  0  0  0
   32.4530   14.4330  -20.9040 N   0  0  0  0  0  0
   33.3070   15.4480  -20.3950 C   0  0  0  0  0  0
   32.8510   16.6330  -20.3820 N   0  3  0  0  0  0
   34.3720   15.0980  -19.7310 N   0  0  0  0  0  0
   29.0830   12.6540  -22.0473 H   0  0  0  0  0  0
   31.5036   12.8229  -22.5018 H   0  0  0  0  0  0
   31.2435   14.2834  -23.5146 H   0  0  0  0  0  0
   31.3303   15.6377  -21.7871 H   0  0  0  0  0  0
   30.2183   13.9843  -19.7519 H   0  0  0  0  0  0
   29.8276   16.7304  -19.4185 H   0  0  0  0  0  0
   30.6312   17.5055  -17.7627 H   0  0  0  0  0  0
   32.0305   16.7154  -16.9599 H   0  0  0  0  0  0
   30.3680   16.4493  -16.3338 H   0  0  0  0  0  0
   28.5272   15.6443  -21.3381 H   0  0  0  0  0  0
   27.6057   14.8671  -19.0047 H   0  0  0  0  0  0
   28.5642   12.7442  -19.0929 H   0  0  0  0  0  0
   25.9583   14.0396  -21.4775 H   0  0  0  0  0  0
   26.8088   16.0624  -22.0113 H   0  0  0  0  0  0
   24.0436   14.5435  -20.1151 H   0  0  0  0  0  0
   25.0945   13.4567  -19.1450 H   0  0  0  0  0  0
   24.1966   15.2437  -17.8333 H   0  0  0  0  0  0
   32.8942   13.4265  -20.8564 H   0  0  0  0  0  0
   31.9480   16.8812  -20.9590 H   0  0  0  0  0  0
   34.7294   14.0585  -19.7730 H   0  0  0  0  0  0
   34.9137   15.8420  -19.1285 H   0  0  0  0  0  0
   33.3590   17.4114  -19.7938 H   0  0  0  0  0  0
  1  2  2  0  0  0
  1  3  1  0  0  0
  1  4  1  0  0  0
  4  5  1  0  0  0
  4 13  1  0  0  0
  4 24  1  0  0  0
  5  6  1  0  0  0
  5 25  1  0  0  0
  5 26  1  0  0  0
  6  7  1  0  0  0
  6 20  1  0  0  0
  6 27  1  0  0  0
  7  8  1  0  0  0
  7 12  1  0  0  0
  7 28  1  0  0  0
  8  9  1  0  0  0
  8 29  1  0  0  0
  9 10  2  0  0  0
  9 11  1  0  0  0
 11 30  1  0  0  0
 11 31  1  0  0  0
 11 32  1  0  0  0
 12 13  1  0  0  0
 12 14  1  0  0  0
 12 33  1  0  0  0
 14 15  1  0  0  0
 14 16  1  0  0  0
 14 34  1  0  0  0
 15 35  1  0  0  0
 16 17  1  0  0  0
 16 18  1  0  0  0
 16 36  1  0  0  0
 17 37  1  0  0  0
 18 19  1  0  0  0
 18 38  1  0  0  0
 18 39  1  0  0  0
 19 40  1  0  0  0
 20 21  1  0  0  0
 20 41  1  0  0  0
 21 22  2  0  0  0
 21 23  1  0  0  0
 22 42  1  0  0  0
 22 45  1  0  0  0
 23 43  1  0  0  0
 23 44  1  0  0  0
M  CHG  2   3  -1  22   1
M  END
> <s_m_source_file>
../3ti5_ligand.sdf

> <i_m_source_file_index>
1

> <s_epik_input>
Tz1DKFtPSF0pW0NASF0xW0NIMl1bQ0BIXShbTkhdL0MoPU5cW0hdKVtOSDJdKVtDQEBIXShbTkhdQyg9TylbQ0gzXSlbQ0BASF0oTzEpW0NASF0oW09IXSlbQ0BIXShbT0hdKVtDSDJdW09IXQ==

> <s_epik_cmdline>
J2VwaWtfYXBwJywgJy1pbWFlJywgJ2xpZ2FuZF9wcm8ubWFlJywgJy1vbWFlJywgJ2xpZ2FuZF9wcmVwLm1hZScsICctbXMnLCAnMScsICctcGgnLCAnNycsICctcGh0JywgJzAuNScsICctbnQn

> <r_lp_tautomer_probability>
1

> <r_epik_Ionization_Penalty>
  0.0001

> <r_epik_Ionization_Penalty_Charging>
  0.0001

> <r_epik_Ionization_Penalty_Neutral>
  0.0000

> <r_epik_State_Penalty>
 -0.0000

> <r_epik_Charging_Adjusted_Penalty>
0.000137447957460867

> <i_epik_Tot_Q>
0

> <i_epik_Tot_abs_Q>
2

> <s_epik_Chemistry_Notes>
This compound has an imine and may undergo hydrolysis.

$$$$
