3ti6_ligand
                    3D
 Schrodinger Suite 2020-3.
 46 46  0  0  1  0            999 V2000
  -28.8990   12.3580   24.4070 C   0  0  0  0  0  0
  -29.7550   12.0040   25.1990 O   0  0  0  0  0  0
  -27.5650   12.1950   24.6830 O   0  5  0  0  0  0
  -29.2740   13.1040   23.1830 C   0  0  2  0  0  0
  -30.7500   13.1290   22.6440 C   0  0  0  0  0  0
  -31.0140   14.2530   21.6620 C   0  0  1  0  0  0
  -30.0040   14.4900   20.5740 C   0  0  1  0  0  0
  -30.3110   15.5470   19.6230 N   0  0  0  0  0  0
  -30.8280   15.2780   18.2920 C   0  0  0  0  0  0
  -30.9290   14.1280   17.8900 O   0  0  0  0  0  0
  -31.1200   16.4540   17.3790 C   0  0  0  0  0  0
  -28.5320   14.2930   20.8980 C   0  0  1  0  0  0
  -28.1360   13.4220   22.1250 C   0  0  0  0  0  0
  -27.5770   14.3410   19.8470 O   0  0  0  0  0  0
  -26.9160   15.5440   19.4870 C   0  0  0  0  0  0
  -25.9590   16.0650   20.5520 C   0  0  0  0  0  0
  -26.3140   15.4430   18.1010 C   0  0  0  0  0  0
  -27.1970   14.8830   17.0190 C   0  0  0  0  0  0
  -24.8040   15.2040   20.9520 C   0  0  0  0  0  0
  -32.3890   14.5390   21.3670 N   0  3  0  0  0  0
  -29.3480   13.9095   23.9285 H   0  0  0  0  0  0
  -30.9681   12.1822   22.1283 H   0  0  0  0  0  0
  -31.4459   13.2564   23.4863 H   0  0  0  0  0  0
  -30.8617   15.1592   22.2666 H   0  0  0  0  0  0
  -30.2197   13.6229   19.9324 H   0  0  0  0  0  0
  -30.1533   16.5996   19.9008 H   0  0  0  0  0  0
  -30.9705   17.3932   17.9317 H   0  0  0  0  0  0
  -32.1611   16.3965   17.0286 H   0  0  0  0  0  0
  -30.4401   16.4249   16.5148 H   0  0  0  0  0  0
  -28.3287   15.3450   21.1467 H   0  0  0  0  0  0
  -27.3170   13.9648   22.6195 H   0  0  0  0  0  0
  -27.7514   12.4805   21.7060 H   0  0  0  0  0  0
  -27.7446   16.2665   19.4510 H   0  0  0  0  0  0
  -25.5038   17.0053   20.2075 H   0  0  0  0  0  0
  -26.5123   16.2459   21.4853 H   0  0  0  0  0  0
  -26.0181   16.4447   17.7559 H   0  0  0  0  0  0
  -25.4295   14.7898   18.1321 H   0  0  0  0  0  0
  -26.6442   14.8634   16.0682 H   0  0  0  0  0  0
  -28.0904   15.5156   16.9108 H   0  0  0  0  0  0
  -27.5019   13.8606   17.2870 H   0  0  0  0  0  0
  -24.2132   15.7186   21.7241 H   0  0  0  0  0  0
  -24.1702   15.0097   20.0742 H   0  0  0  0  0  0
  -25.1788   14.2503   21.3520 H   0  0  0  0  0  0
  -33.0068   14.3194   22.2502 H   0  0  0  0  0  0
  -32.7204   13.9155   20.5235 H   0  0  0  0  0  0
  -32.4937   15.6012   21.1012 H   0  0  0  0  0  0
  1  2  2  0  0  0
  1  3  1  0  0  0
  1  4  1  0  0  0
  4  5  1  0  0  0
  4 13  1  0  0  0
  4 21  1  0  0  0
  5  6  1  0  0  0
  5 22  1  0  0  0
  5 23  1  0  0  0
  6  7  1  0  0  0
  6 20  1  0  0  0
  6 24  1  0  0  0
  7  8  1  0  0  0
  7 12  1  0  0  0
  7 25  1  0  0  0
  8  9  1  0  0  0
  8 26  1  0  0  0
  9 10  2  0  0  0
  9 11  1  0  0  0
 11 27  1  0  0  0
 11 28  1  0  0  0
 11 29  1  0  0  0
 12 13  1  0  0  0
 12 14  1  0  0  0
 12 30  1  0  0  0
 13 31  1  0  0  0
 13 32  1  0  0  0
 14 15  1  0  0  0
 15 16  1  0  0  0
 15 17  1  0  0  0
 15 33  1  0  0  0
 16 19  1  0  0  0
 16 34  1  0  0  0
 16 35  1  0  0  0
 17 18  1  0  0  0
 17 36  1  0  0  0
 17 37  1  0  0  0
 18 38  1  0  0  0
 18 39  1  0  0  0
 18 40  1  0  0  0
 19 41  1  0  0  0
 19 42  1  0  0  0
 19 43  1  0  0  0
 20 44  1  0  0  0
 20 45  1  0  0  0
 20 46  1  0  0  0
M  CHG  2   3  -1  20   1
M  END
> <s_m_source_file>
../3ti6_ligand.sdf

> <i_m_source_file_index>
1

> <s_epik_input>
Tz1DKFtPSF0pW0NAQEhdMVtDSDJdW0NASF0oW05IMytdKVtDQEBIXShbTkhdQyg9TylbQ0gzXSlbQ0BASF0oW0NIMl0xKU9bQ0hdKFtDSDJdW0NIM10pW0NIMl1bQ0gzXQ==

> <s_epik_cmdline>
J2VwaWtfYXBwJywgJy1pbWFlJywgJ2xpZ2FuZF9wcm8ubWFlJywgJy1vbWFlJywgJ2xpZ2FuZF9wcmVwLm1hZScsICctbXMnLCAnMScsICctcGgnLCAnNycsICctcGh0JywgJzAuNScsICctbnQn

> <r_lp_tautomer_probability>
1

> <r_epik_Ionization_Penalty>
  0.0019

> <r_epik_Ionization_Penalty_Charging>
  0.0019

> <r_epik_Ionization_Penalty_Neutral>
  0.0000

> <r_epik_State_Penalty>
 -0.0000

> <r_epik_Charging_Adjusted_Penalty>
0.00188816947072547

> <i_epik_Tot_Q>
0

> <i_epik_Tot_abs_Q>
2

$$$$
