3ti8_ligand
                    3D
 Schrodinger Suite 2020-3.
 48 48  0  0  1  0            999 V2000
   21.0230  -22.4130  -53.8270 C   0  0  1  0  0  0
   20.3500  -21.1210  -53.3690 C   0  0  0  0  0  0
   21.2170  -20.1380  -52.5740 C   0  0  1  0  0  0
   22.6590  -20.6070  -52.2260 C   0  0  2  0  0  0
   23.0120  -22.1040  -52.4560 C   0  0  1  0  0  0
   22.0870  -22.9530  -53.1080 O   0  0  0  0  0  0
   20.2320  -23.4100  -54.6070 C   0  0  0  0  0  0
   18.9860  -23.0460  -55.0440 O   0  5  0  0  0  0
   20.5340  -24.5860  -54.4980 O   0  0  0  0  0  0
   24.4430  -22.5050  -52.6270 C   0  0  1  0  0  0
   24.6500  -23.9580  -52.2490 C   0  0  1  0  0  0
   26.0920  -24.3940  -52.3760 C   0  0  0  0  0  0
   27.0140  -23.7160  -51.5580 O   0  0  0  0  0  0
   24.8350  -22.1760  -53.9020 O   0  0  0  0  0  0
   25.8990  -21.3040  -54.0700 C   0  0  0  0  0  0
   24.0700  -24.2820  -51.0350 O   0  0  0  0  0  0
   20.9880  -18.7400  -52.7820 N   0  0  0  0  0  0
   21.0730  -17.7540  -51.7450 C   0  0  0  0  0  0
   21.0770  -16.4930  -52.1190 N   0  3  0  0  0  0
   20.9930  -18.0970  -50.4590 N   0  0  0  0  0  0
   24.2190  -18.6990  -51.6250 C   0  0  0  0  0  0
   24.8620  -17.9790  -50.4810 C   0  0  0  0  0  0
   24.3660  -18.3370  -52.7880 O   0  0  0  0  0  0
   23.4660  -19.8650  -51.3000 N   0  0  0  0  0  0
   21.7390  -21.9744  -54.5376 H   0  0  0  0  0  0
   19.9931  -20.5623  -54.2468 H   0  0  0  0  0  0
   19.4977  -21.3627  -52.7169 H   0  0  0  0  0  0
   20.7046  -20.0580  -51.6039 H   0  0  0  0  0  0
   23.2427  -20.0150  -52.9463 H   0  0  0  0  0  0
   22.7571  -22.5154  -51.4682 H   0  0  0  0  0  0
   25.1364  -21.9024  -52.0219 H   0  0  0  0  0  0
   24.0436  -24.5995  -52.9053 H   0  0  0  0  0  0
   26.1773  -25.4593  -52.1154 H   0  0  0  0  0  0
   26.4314  -24.2415  -53.4112 H   0  0  0  0  0  0
   28.0812  -23.9797  -51.5965 H   0  0  0  0  0  0
   26.0800  -21.1490  -55.1439 H   0  0  0  0  0  0
   26.7996  -21.7305  -53.6042 H   0  0  0  0  0  0
   25.6619  -20.3405  -53.5953 H   0  0  0  0  0  0
   23.0226  -24.0111  -50.8361 H   0  0  0  0  0  0
   20.7298  -18.3681  -53.7845 H   0  0  0  0  0  0
   21.1439  -16.2361  -53.1865 H   0  0  0  0  0  0
   20.9915  -19.1589  -50.1721 H   0  0  0  0  0  0
   20.9285  -17.3181  -49.6850 H   0  0  0  0  0  0
   25.4095  -17.1035  -50.8600 H   0  0  0  0  0  0
   25.5619  -18.6556  -49.9688 H   0  0  0  0  0  0
   24.0871  -17.6488  -49.7735 H   0  0  0  0  0  0
   23.5358  -20.1870  -50.2505 H   0  0  0  0  0  0
   21.0135  -15.6953  -51.3643 H   0  0  0  0  0  0
  1  2  1  0  0  0
  1  6  1  0  0  0
  1  7  1  0  0  0
  1 25  1  0  0  0
  2  3  1  0  0  0
  2 26  1  0  0  0
  2 27  1  0  0  0
  3  4  1  0  0  0
  3 17  1  0  0  0
  3 28  1  0  0  0
  4  5  1  0  0  0
  4 24  1  0  0  0
  4 29  1  0  0  0
  5  6  1  0  0  0
  5 10  1  0  0  0
  5 30  1  0  0  0
  7  8  1  0  0  0
  7  9  2  0  0  0
 10 11  1  0  0  0
 10 14  1  0  0  0
 10 31  1  0  0  0
 11 12  1  0  0  0
 11 16  1  0  0  0
 11 32  1  0  0  0
 12 13  1  0  0  0
 12 33  1  0  0  0
 12 34  1  0  0  0
 13 35  1  0  0  0
 14 15  1  0  0  0
 15 36  1  0  0  0
 15 37  1  0  0  0
 15 38  1  0  0  0
 16 39  1  0  0  0
 17 18  1  0  0  0
 17 40  1  0  0  0
 18 19  2  0  0  0
 18 20  1  0  0  0
 19 41  1  0  0  0
 19 48  1  0  0  0
 20 42  1  0  0  0
 20 43  1  0  0  0
 21 22  1  0  0  0
 21 23  2  0  0  0
 21 24  1  0  0  0
 22 44  1  0  0  0
 22 45  1  0  0  0
 22 46  1  0  0  0
 24 47  1  0  0  0
M  CHG  2   8  -1  19   1
M  END
> <s_m_source_file>
../3ti8_ligand.sdf

> <i_m_source_file_index>
1

> <s_epik_input>
W09IXUMoPU8pW0NASF0xW0NIMl1bQ0BIXShbTkhdL0MoPU5cW0hdKVtOSDJdKVtDQEBIXShbTkhdQyg9TylbQ0gzXSlbQ0BASF0oTzEpW0NASF0oT1tDSDNdKVtDQEhdKFtPSF0pW0NIMl1bT0hd

> <s_epik_cmdline>
J2VwaWtfYXBwJywgJy1pbWFlJywgJ2xpZ2FuZF9wcm8ubWFlJywgJy1vbWFlJywgJ2xpZ2FuZF9wcmVwLm1hZScsICctbXMnLCAnMScsICctcGgnLCAnNycsICctcGh0JywgJzAuNScsICctbnQn

> <r_lp_tautomer_probability>
1

> <r_epik_Ionization_Penalty>
  0.0001

> <r_epik_Ionization_Penalty_Charging>
  0.0001

> <r_epik_Ionization_Penalty_Neutral>
  0.0000

> <r_epik_State_Penalty>
 -0.0000

> <r_epik_Charging_Adjusted_Penalty>
0.00014315671762345

> <i_epik_Tot_Q>
0

> <i_epik_Tot_abs_Q>
2

> <s_epik_Chemistry_Notes>
This compound has an imine and may undergo hydrolysis.

$$$$
