3tia_ligand
                    3D
 Schrodinger Suite 2020-3.
 48 48  0  0  1  0            999 V2000
   45.9820   28.4600   22.1320 C   0  0  2  0  0  0
   45.4350   27.0640   22.3060 C   0  0  0  0  0  0
   45.5370   26.0690   21.1460 C   0  0  1  0  0  0
   46.5390   26.4790   20.0440 C   0  0  2  0  0  0
   46.6910   28.0330   19.8570 C   0  0  1  0  0  0
   46.7590   28.7320   21.0600 O   0  0  0  0  0  0
   45.9250   29.4930   23.2420 C   0  0  0  0  0  0
   45.1980   29.1880   24.2990 O   0  5  0  0  0  0
   46.3090   30.5710   22.9650 O   0  0  0  0  0  0
   47.9320   28.4150   19.0310 C   0  0  1  0  0  0
   47.9020   29.8630   18.6880 C   0  0  1  0  0  0
   49.0970   30.3550   17.9340 C   0  0  0  0  0  0
   49.2700   29.7280   16.7390 O   0  0  0  0  0  0
   49.0290   28.1790   19.7770 O   0  0  0  0  0  0
   49.9620   27.3380   19.3710 C   0  0  0  0  0  0
   46.8070   30.2580   18.1040 O   0  0  0  0  0  0
   45.5420   24.6850   21.5230 N   0  0  0  0  0  0
   44.9480   23.6490   20.7690 C   0  0  0  0  0  0
   45.1460   22.4130   21.1240 N   0  0  0  0  0  0
   44.2680   23.9640   19.7100 N   0  3  0  0  0  0
   47.3260   24.6090   18.6610 C   0  0  0  0  0  0
   46.9880   23.9670   17.3560 C   0  0  0  0  0  0
   48.1420   24.2210   19.3800 O   0  0  0  0  0  0
   46.5570   25.7380   18.8480 N   0  0  0  0  0  0
   45.3221   28.8071   21.3233 H   0  0  0  0  0  0
   45.9556   26.5673   23.1380 H   0  0  0  0  0  0
   44.3586   27.1168   22.5263 H   0  0  0  0  0  0
   44.5458   26.0460   20.6696 H   0  0  0  0  0  0
   47.4862   26.0202   20.3639 H   0  0  0  0  0  0
   45.7629   28.4124   19.4046 H   0  0  0  0  0  0
   48.0602   27.8036   18.1256 H   0  0  0  0  0  0
   47.7776   30.3998   19.6400 H   0  0  0  0  0  0
   48.9861   31.4307   17.7326 H   0  0  0  0  0  0
   50.0038   30.1857   18.5332 H   0  0  0  0  0  0
   50.1155   30.0026   16.0911 H   0  0  0  0  0  0
   50.7649   27.2910   20.1214 H   0  0  0  0  0  0
   50.3758   27.6843   18.4124 H   0  0  0  0  0  0
   49.5227   26.3379   19.2409 H   0  0  0  0  0  0
   45.8289   29.9845   18.5264 H   0  0  0  0  0  0
   46.0322   24.3710   22.4563 H   0  0  0  0  0  0
   45.7285   22.1874   22.0294 H   0  0  0  0  0  0
   44.7309   21.5937   20.5187 H   0  0  0  0  0  0
   44.1230   25.0214   19.4438 H   0  0  0  0  0  0
   47.6072   23.0684   17.2182 H   0  0  0  0  0  0
   47.1828   24.6756   16.5375 H   0  0  0  0  0  0
   45.9250   23.6841   17.3510 H   0  0  0  0  0  0
   45.9341   26.0515   17.9973 H   0  0  0  0  0  0
   43.8364   23.1737   19.0782 H   0  0  0  0  0  0
  1  2  1  0  0  0
  1  6  1  0  0  0
  1  7  1  0  0  0
  1 25  1  0  0  0
  2  3  1  0  0  0
  2 26  1  0  0  0
  2 27  1  0  0  0
  3  4  1  0  0  0
  3 17  1  0  0  0
  3 28  1  0  0  0
  4  5  1  0  0  0
  4 24  1  0  0  0
  4 29  1  0  0  0
  5  6  1  0  0  0
  5 10  1  0  0  0
  5 30  1  0  0  0
  7  8  1  0  0  0
  7  9  2  0  0  0
 10 11  1  0  0  0
 10 14  1  0  0  0
 10 31  1  0  0  0
 11 12  1  0  0  0
 11 16  1  0  0  0
 11 32  1  0  0  0
 12 13  1  0  0  0
 12 33  1  0  0  0
 12 34  1  0  0  0
 13 35  1  0  0  0
 14 15  1  0  0  0
 15 36  1  0  0  0
 15 37  1  0  0  0
 15 38  1  0  0  0
 16 39  1  0  0  0
 17 18  1  0  0  0
 17 40  1  0  0  0
 18 19  1  0  0  0
 18 20  2  0  0  0
 19 41  1  0  0  0
 19 42  1  0  0  0
 20 43  1  0  0  0
 20 48  1  0  0  0
 21 22  1  0  0  0
 21 23  2  0  0  0
 21 24  1  0  0  0
 22 44  1  0  0  0
 22 45  1  0  0  0
 22 46  1  0  0  0
 24 47  1  0  0  0
M  CHG  2   8  -1  20   1
M  END
> <s_m_source_file>
../3tia_ligand.sdf

> <i_m_source_file_index>
1

> <s_epik_input>
W09IXUMoPU8pW0NAQEhdMVtDSDJdW0NASF0oW05IXS9DKFtOSDJdKT1OXFtIXSlbQ0BASF0oW05IXUMoPU8pW0NIM10pW0NAQEhdKE8xKVtDQEhdKE9bQ0gzXSlbQ0BIXShbT0hdKVtDSDJdW09IXQ==

> <s_epik_cmdline>
J2VwaWtfYXBwJywgJy1pbWFlJywgJ2xpZ2FuZF9wcm8ubWFlJywgJy1vbWFlJywgJ2xpZ2FuZF9wcmVwLm1hZScsICctbXMnLCAnMScsICctcGgnLCAnNycsICctcGh0JywgJzAuNScsICctbnQn

> <r_lp_tautomer_probability>
1

> <r_epik_Ionization_Penalty>
  0.0001

> <r_epik_Ionization_Penalty_Charging>
  0.0001

> <r_epik_Ionization_Penalty_Neutral>
  0.0000

> <r_epik_State_Penalty>
 -0.0000

> <r_epik_Charging_Adjusted_Penalty>
0.000101776872218888

> <i_epik_Tot_Q>
0

> <i_epik_Tot_abs_Q>
2

> <s_epik_Chemistry_Notes>
This compound has an imine and may undergo hydrolysis.

$$$$
