3tib_ligand
                    3D
 Schrodinger Suite 2020-3.
 50 50  0  0  1  0            999 V2000
   23.4600  -21.9400   -5.6590 C   0  0  1  0  0  0
   23.3210  -20.7880   -4.7060 C   0  0  0  0  0  0
   24.4180  -19.6990   -4.7330 C   0  0  1  0  0  0
   25.7180  -20.0880   -5.5020 C   0  0  2  0  0  0
   25.8240  -21.5890   -5.9170 C   0  0  1  0  0  0
   24.7150  -22.4220   -5.7780 O   0  0  0  0  0  0
   22.3700  -23.0020   -5.5840 C   0  0  0  0  0  0
   22.6160  -24.2790   -5.8490 O   0  5  0  0  0  0
   21.3210  -22.6910   -5.2320 O   0  0  0  0  0  0
   26.9290  -21.9720   -6.8780 C   0  0  1  0  0  0
   27.5800  -23.3310   -6.6590 C   0  0  1  0  0  0
   28.7780  -23.6620   -7.5280 C   0  0  0  0  0  0
   29.7840  -22.7310   -7.6870 O   0  0  0  0  0  0
   29.9420  -22.1040   -8.8250 C   0  0  0  0  0  0
   30.6350  -21.1080   -9.0180 O   0  0  0  0  0  0
   26.6880  -21.6240   -8.1610 O   0  0  0  0  0  0
   27.2210  -20.5590   -8.7770 C   0  0  0  0  0  0
   27.6930  -23.7260   -5.3940 O   0  0  0  0  0  0
   24.0510  -18.3550   -4.8070 N   0  0  0  0  0  0
   24.7050  -17.2730   -4.1710 C   0  0  0  0  0  0
   24.4170  -16.1020   -4.5260 N   0  3  0  0  0  0
   25.5330  -17.4420   -3.2180 N   0  0  0  0  0  0
   27.3380  -18.2670   -6.0480 C   0  0  0  0  0  0
   28.4660  -17.4480   -5.6010 C   0  0  0  0  0  0
   26.7740  -18.0070   -6.9930 O   0  0  0  0  0  0
   26.9320  -19.3640   -5.3040 N   0  0  0  0  0  0
   23.4311  -21.5046   -6.6687 H   0  0  0  0  0  0
   22.3799  -20.2559   -4.9088 H   0  0  0  0  0  0
   23.3134  -21.1656   -3.6729 H   0  0  0  0  0  0
   24.6320  -19.5242   -3.6683 H   0  0  0  0  0  0
   25.6854  -19.4557   -6.4015 H   0  0  0  0  0  0
   26.0618  -22.2050   -5.0373 H   0  0  0  0  0  0
   27.7403  -21.2389   -6.7578 H   0  0  0  0  0  0
   26.8006  -24.0785   -6.8680 H   0  0  0  0  0  0
   29.2913  -24.5467   -7.1232 H   0  0  0  0  0  0
   28.4403  -23.8714   -8.5537 H   0  0  0  0  0  0
   29.3789  -22.5519   -9.6570 H   0  0  0  0  0  0
   26.8556  -20.5141   -9.8136 H   0  0  0  0  0  0
   28.3175  -20.6468   -8.7782 H   0  0  0  0  0  0
   26.9272  -19.6424   -8.2446 H   0  0  0  0  0  0
   26.8767  -23.5327   -4.6824 H   0  0  0  0  0  0
   23.1769  -18.0556   -5.4039 H   0  0  0  0  0  0
   23.7040  -15.9358   -5.3470 H   0  0  0  0  0  0
   25.7976  -18.4591   -2.8931 H   0  0  0  0  0  0
   25.9835  -16.5709   -2.7198 H   0  0  0  0  0  0
   28.6333  -16.6314   -6.3187 H   0  0  0  0  0  0
   29.3698  -18.0718   -5.5380 H   0  0  0  0  0  0
   28.2424  -17.0254   -4.6103 H   0  0  0  0  0  0
   27.6295  -19.6667   -4.5091 H   0  0  0  0  0  0
   24.8779  -15.2435   -4.0156 H   0  0  0  0  0  0
  1  2  1  0  0  0
  1  6  1  0  0  0
  1  7  1  0  0  0
  1 27  1  0  0  0
  2  3  1  0  0  0
  2 28  1  0  0  0
  2 29  1  0  0  0
  3  4  1  0  0  0
  3 19  1  0  0  0
  3 30  1  0  0  0
  4  5  1  0  0  0
  4 26  1  0  0  0
  4 31  1  0  0  0
  5  6  1  0  0  0
  5 10  1  0  0  0
  5 32  1  0  0  0
  7  8  1  0  0  0
  7  9  2  0  0  0
 10 11  1  0  0  0
 10 16  1  0  0  0
 10 33  1  0  0  0
 11 12  1  0  0  0
 11 18  1  0  0  0
 11 34  1  0  0  0
 12 13  1  0  0  0
 12 35  1  0  0  0
 12 36  1  0  0  0
 13 14  1  0  0  0
 14 15  2  0  0  0
 14 37  1  0  0  0
 16 17  1  0  0  0
 17 38  1  0  0  0
 17 39  1  0  0  0
 17 40  1  0  0  0
 18 41  1  0  0  0
 19 20  1  0  0  0
 19 42  1  0  0  0
 20 21  2  0  0  0
 20 22  1  0  0  0
 21 43  1  0  0  0
 21 50  1  0  0  0
 22 44  1  0  0  0
 22 45  1  0  0  0
 23 24  1  0  0  0
 23 25  2  0  0  0
 23 26  1  0  0  0
 24 46  1  0  0  0
 24 47  1  0  0  0
 24 48  1  0  0  0
 26 49  1  0  0  0
M  CHG  2   8  -1  21   1
M  END
> <s_m_source_file>
../3tib_ligand.sdf

> <i_m_source_file_index>
1

> <s_epik_input>
W09IXUMoPU8pW0NASF0xW0NIMl1bQ0BIXShbTkhdL0MoPU5cW0hdKVtOSDJdKVtDQEBIXShbTkhdQyg9TylbQ0gzXSlbQ0BASF0oTzEpW0NASF0oT1tDSDNdKVtDQEhdKFtPSF0pW0NIMl1PW0NIXT1P

> <s_epik_cmdline>
J2VwaWtfYXBwJywgJy1pbWFlJywgJ2xpZ2FuZF9wcm8ubWFlJywgJy1vbWFlJywgJ2xpZ2FuZF9wcmVwLm1hZScsICctbXMnLCAnMScsICctcGgnLCAnNycsICctcGh0JywgJzAuNScsICctbnQn

> <r_lp_tautomer_probability>
1

> <r_epik_Ionization_Penalty>
  0.0002

> <r_epik_Ionization_Penalty_Charging>
  0.0001

> <r_epik_Ionization_Penalty_Neutral>
  0.0000

> <r_epik_State_Penalty>
 -0.0000

> <r_epik_Charging_Adjusted_Penalty>
0.000143688521399254

> <i_epik_Tot_Q>
0

> <i_epik_Tot_abs_Q>
2

> <s_epik_Chemistry_Notes>
This compound has an ester and may undergo hydrolysis at high or low pH. This compound has an imine and may undergo hydrolysis.

$$$$
