3tic_ligand
                    3D
 Schrodinger Suite 2020-3.
 45 45  0  0  1  0            999 V2000
   13.8540  -29.1530   49.8070 C   0  0  0  0  0  0
   13.6200  -30.2020   50.2090 O   0  0  0  0  0  0
   15.0610  -28.7400   49.3930 O   0  5  0  0  0  0
   12.7930  -28.0930   49.9100 C   0  0  1  0  0  0
   13.0170  -26.7640   49.1270 C   0  0  0  0  0  0
   11.8780  -25.7830   49.1020 C   0  0  1  0  0  0
   10.6100  -26.2220   49.7770 C   0  0  1  0  0  0
    9.4490  -25.4420   49.6310 N   0  0  0  0  0  0
    9.1020  -24.2530   50.2530 C   0  0  0  0  0  0
    9.6850  -23.7680   51.1120 O   0  0  0  0  0  0
    7.8780  -23.6110   49.6690 C   0  0  0  0  0  0
   10.3910  -27.6860   50.1150 C   0  0  1  0  0  0
   11.4340  -28.5830   50.0200 O   0  0  0  0  0  0
    9.3310  -28.1210   51.1180 C   0  0  2  0  0  0
    9.7350  -27.8390   52.3520 O   0  0  0  0  0  0
    8.9220  -29.5600   50.9640 C   0  0  2  0  0  0
    8.7140  -29.9360   49.7230 O   0  0  0  0  0  0
    7.8680  -29.9990   51.9340 C   0  0  0  0  0  0
    6.7540  -29.3200   51.8070 O   0  0  0  0  0  0
   12.2010  -24.4090   49.0650 N   0  0  0  0  0  0
   11.5470  -23.4410   48.2690 C   0  0  0  0  0  0
   10.6250  -23.7260   47.3880 N   0  0  0  0  0  0
   11.9530  -22.2250   48.4580 N   0  3  0  0  0  0
   12.8935  -27.7930   50.9635 H   0  0  0  0  0  0
   13.8657  -26.2187   49.5656 H   0  0  0  0  0  0
   13.2328  -26.9915   48.0726 H   0  0  0  0  0  0
   11.5698  -25.7099   48.0486 H   0  0  0  0  0  0
   10.8328  -25.7347   50.7377 H   0  0  0  0  0  0
    8.6559  -25.7605   48.9385 H   0  0  0  0  0  0
    7.4815  -24.2444   48.8618 H   0  0  0  0  0  0
    8.1402  -22.6224   49.2641 H   0  0  0  0  0  0
    7.1150  -23.4956   50.4529 H   0  0  0  0  0  0
   10.0320  -27.9206   49.1020 H   0  0  0  0  0  0
    8.4249  -27.5009   51.0519 H   0  0  0  0  0  0
   10.0631  -26.8197   52.6039 H   0  0  0  0  0  0
    9.8044  -30.2055   51.0850 H   0  0  0  0  0  0
    9.4332  -29.6615   48.9372 H   0  0  0  0  0  0
    7.6372  -31.0617   51.7686 H   0  0  0  0  0  0
    8.2343  -29.8590   52.9617 H   0  0  0  0  0  0
    5.8970  -29.5422   52.4598 H   0  0  0  0  0  0
   13.0189  -24.0193   49.6888 H   0  0  0  0  0  0
   10.3001  -24.7677   47.2493 H   0  0  0  0  0  0
   10.1738  -22.9242   46.7851 H   0  0  0  0  0  0
   12.7309  -22.0150   49.2069 H   0  0  0  0  0  0
   11.5197  -21.4028   47.8696 H   0  0  0  0  0  0
  1  2  2  0  0  0
  1  3  1  0  0  0
  1  4  1  0  0  0
  4  5  1  0  0  0
  4 13  1  0  0  0
  4 24  1  0  0  0
  5  6  1  0  0  0
  5 25  1  0  0  0
  5 26  1  0  0  0
  6  7  1  0  0  0
  6 20  1  0  0  0
  6 27  1  0  0  0
  7  8  1  0  0  0
  7 12  1  0  0  0
  7 28  1  0  0  0
  8  9  1  0  0  0
  8 29  1  0  0  0
  9 10  2  0  0  0
  9 11  1  0  0  0
 11 30  1  0  0  0
 11 31  1  0  0  0
 11 32  1  0  0  0
 12 13  1  0  0  0
 12 14  1  0  0  0
 12 33  1  0  0  0
 14 15  1  0  0  0
 14 16  1  0  0  0
 14 34  1  0  0  0
 15 35  1  0  0  0
 16 17  1  0  0  0
 16 18  1  0  0  0
 16 36  1  0  0  0
 17 37  1  0  0  0
 18 19  1  0  0  0
 18 38  1  0  0  0
 18 39  1  0  0  0
 19 40  1  0  0  0
 20 21  1  0  0  0
 20 41  1  0  0  0
 21 22  1  0  0  0
 21 23  2  0  0  0
 22 42  1  0  0  0
 22 43  1  0  0  0
 23 44  1  0  0  0
 23 45  1  0  0  0
M  CHG  2   3  -1  23   1
M  END
> <s_m_source_file>
../3tic_ligand.sdf

> <i_m_source_file_index>
1

> <s_epik_input>
Tz1DKFtPSF0pW0NASF0xW0NIMl1bQ0BIXShbTkhdL0MoW05IMl0pPU5cW0hdKVtDQEBIXShbTkhdQyg9TylbQ0gzXSlbQ0BASF0oTzEpW0NASF0oW09IXSlbQ0BIXShbT0hdKVtDSDJdW09IXQ==

> <s_epik_cmdline>
J2VwaWtfYXBwJywgJy1pbWFlJywgJ2xpZ2FuZF9wcm8ubWFlJywgJy1vbWFlJywgJ2xpZ2FuZF9wcmVwLm1hZScsICctbXMnLCAnMScsICctcGgnLCAnNycsICctcGh0JywgJzAuNScsICctbnQn

> <r_lp_tautomer_probability>
1

> <r_epik_Ionization_Penalty>
  0.0001

> <r_epik_Ionization_Penalty_Charging>
  0.0001

> <r_epik_Ionization_Penalty_Neutral>
  0.0000

> <r_epik_State_Penalty>
 -0.0000

> <r_epik_Charging_Adjusted_Penalty>
9.91098658302066e-05

> <i_epik_Tot_Q>
0

> <i_epik_Tot_abs_Q>
2

> <s_epik_Chemistry_Notes>
This compound has an imine and may undergo hydrolysis.

$$$$
