3tif_ligand
                    3D
 Schrodinger Suite 2020-3.
 39 41  0  0  1  0            999 V2000
   30.6760    4.8350  -12.9890 P   0  0  0  0  0  0
   29.9120    5.3370  -14.1710 O   0  5  0  0  0  0
   29.7150    4.1720  -12.0200 O   0  5  0  0  0  0
   31.3610    5.9480  -12.2680 O   0  0  0  0  0  0
   31.8660    3.5110  -14.9890 P   0  0  1  0  0  0
   31.5610    2.1790  -15.6540 O   0  0  0  0  0  0
   32.6160    4.5780  -15.8650 O   0  5  0  0  0  0
   31.7520    3.7610  -13.4400 O   0  0  0  0  0  0
   33.2390    2.8070  -14.6770 O   0  0  0  0  0  0
   33.3520    1.5620  -14.0700 C   0  0  0  0  0  0
   34.7310    0.9910  -13.7970 C   0  0  1  0  0  0
   35.3480    0.4240  -14.9360 O   0  0  0  0  0  0
   35.6940    1.9810  -13.2020 C   0  0  1  0  0  0
   36.3230    1.5480  -12.0290 O   0  0  0  0  0  0
   36.6790    2.2090  -14.2200 C   0  0  1  0  0  0
   37.9490    2.4900  -13.7070 O   0  0  0  0  0  0
   36.6710    0.9710  -15.0570 C   0  0  2  0  0  0
   36.9860    1.1890  -16.4590 N   0  0  0  0  0  0
   36.2600    1.9240  -17.3250 C   0  0  0  0  0  0
   36.8500    1.8880  -18.5310 N   0  0  0  0  0  0
   37.9670    1.1200  -18.4150 C   0  0  0  0  0  0
   38.9550    0.7380  -19.3270 C   0  0  0  0  0  0
   38.8890    1.1700  -20.6670 N   0  0  0  0  0  0
   39.9660   -0.0440  -18.9220 N   0  0  0  0  0  0
   40.0270   -0.4630  -17.6430 C   0  0  0  0  0  0
   39.0920   -0.1180  -16.7380 N   0  0  0  0  0  0
   38.0590    0.6740  -17.1050 C   0  0  0  0  0  0
   32.8683    1.5903  -13.0825 H   0  0  0  0  0  0
   32.8617    0.8026  -14.6968 H   0  0  0  0  0  0
   34.5612    0.1514  -13.1069 H   0  0  0  0  0  0
   35.1933    2.9001  -12.8636 H   0  0  0  0  0  0
   35.7236    1.3220  -11.1347 H   0  0  0  0  0  0
   36.4615    3.1395  -14.7649 H   0  0  0  0  0  0
   38.1020    3.3746  -13.0714 H   0  0  0  0  0  0
   37.4443    0.2681  -14.7137 H   0  0  0  0  0  0
   35.3422    2.4609  -17.0852 H   0  0  0  0  0  0
   38.0589    1.8115  -20.9978 H   0  0  0  0  0  0
   39.6675    0.8656  -21.3820 H   0  0  0  0  0  0
   40.8561   -1.0988  -17.3325 H   0  0  0  0  0  0
  1  2  1  0  0  0
  1  3  1  0  0  0
  1  4  2  0  0  0
  1  8  1  0  0  0
  5  6  2  0  0  0
  5  7  1  0  0  0
  5  8  1  0  0  0
  5  9  1  0  0  0
  9 10  1  0  0  0
 10 11  1  0  0  0
 10 28  1  0  0  0
 10 29  1  0  0  0
 11 12  1  0  0  0
 11 13  1  0  0  0
 11 30  1  0  0  0
 12 17  1  0  0  0
 13 14  1  0  0  0
 13 15  1  0  0  0
 13 31  1  0  0  0
 14 32  1  0  0  0
 15 16  1  0  0  0
 15 17  1  0  0  0
 15 33  1  0  0  0
 16 34  1  0  0  0
 17 18  1  0  0  0
 17 35  1  0  0  0
 18 19  1  0  0  0
 18 27  1  0  0  0
 19 20  2  0  0  0
 19 36  1  0  0  0
 20 21  1  0  0  0
 21 22  2  0  0  0
 21 27  1  0  0  0
 22 23  1  0  0  0
 22 24  1  0  0  0
 23 37  1  0  0  0
 23 38  1  0  0  0
 24 25  2  0  0  0
 25 26  1  0  0  0
 25 39  1  0  0  0
 26 27  2  0  0  0
M  CHG  3   2  -1   3  -1   7  -1
M  END
> <s_m_source_file>
../3tif_ligand.sdf

> <i_m_source_file_index>
1

> <s_epik_input>
W09IXVAoPU8pKFtPSF0pT1tQQEBdKD1PKShbT0hdKU9bQ0gyXVtDQEhdMU9bQ0BIXShbQ0BIXShbT0hdKVtDQEBIXTFbT0hdKW4oW2NIXW4yKWMoYzIzKW5bY0hdbmMzW05IMl0=

> <s_epik_cmdline>
J2VwaWtfYXBwJywgJy1pbWFlJywgJ2xpZ2FuZF9wcm8ubWFlJywgJy1vbWFlJywgJ2xpZ2FuZF9wcmVwLm1hZScsICctbXMnLCAnMScsICctcGgnLCAnNycsICctcGh0JywgJzAuNScsICctbnQn

> <r_lp_tautomer_probability>
0.999997216410988

> <r_epik_Ionization_Penalty>
  0.1037

> <r_epik_Ionization_Penalty_Charging>
  0.1033

> <r_epik_Ionization_Penalty_Neutral>
  0.0004

> <r_epik_State_Penalty>
  0.0922

> <r_epik_Charging_Adjusted_Penalty>
0.19546844050481

> <i_epik_Tot_Q>
-3

> <i_epik_Tot_abs_Q>
3

> <s_epik_Chemistry_Notes>
This compound contains an acetal/aminal-like group ( X-CH(R)-Y where X, Y are N, S, or O) that may be acid/base labile, releasing an aldehyde.

$$$$
