3tiw_ligand
                    3D
 Schrodinger Suite 2020-3.
318317  0  0  1  0            999 V2000
    0.4620   -9.6460  -26.7420 N   0  3  0  0  0  0
    0.9140   -9.5810  -25.3600 C   0  0  2  0  0  0
    2.3450  -10.0900  -25.2260 C   0  0  0  0  0  0
    2.8680  -10.7550  -26.1230 O   0  0  0  0  0  0
    0.0090  -10.4080  -24.4350 C   0  0  0  0  0  0
   -1.4290   -9.9770  -24.5940 C   0  0  0  0  0  0
    0.1570  -11.8900  -24.7360 C   0  0  0  0  0  0
    2.9800   -9.7720  -24.1030 N   0  0  0  0  0  0
    4.3410  -10.2150  -23.8700 C   0  0  2  0  0  0
    4.4560  -10.8280  -22.4900 C   0  0  0  0  0  0
    3.5960  -10.6250  -21.6400 O   0  0  0  0  0  0
    5.3800   -9.0730  -24.0520 C   0  0  2  0  0  0
    5.1140   -8.0170  -23.1280 O   0  0  0  0  0  0
    5.3410   -8.5180  -25.4690 C   0  0  0  0  0  0
    5.5230  -11.5920  -22.2940 N   0  0  0  0  0  0
    5.7690  -12.3170  -21.0570 C   0  0  2  0  0  0
    6.6980  -11.5050  -20.1700 C   0  0  0  0  0  0
    7.7170  -10.9990  -20.6330 O   0  0  0  0  0  0
    6.4080  -13.6650  -21.3810 C   0  0  0  0  0  0
    6.6740  -14.6360  -20.2300 C   0  0  0  0  0  0
    5.4030  -14.9420  -19.4560 C   0  0  0  0  0  0
    7.3000  -15.9090  -20.7620 C   0  0  0  0  0  0
    6.3550  -11.3830  -18.8940 N   0  0  0  0  0  0
    7.0890  -10.4840  -18.0140 C   0  0  2  0  0  0
    8.5830  -10.7990  -17.9000 C   0  0  0  0  0  0
    9.4110   -9.8920  -17.9200 O   0  0  0  0  0  0
    6.4630  -10.4260  -16.6170 C   0  0  0  0  0  0
    7.1320   -9.3990  -15.7330 C   0  0  0  0  0  0
    6.4050   -9.2320  -14.4290 C   0  0  0  0  0  0
    6.7520  -10.2730  -13.4750 N   0  0  0  0  0  0
    6.2960  -10.3150  -12.2260 C   0  0  0  0  0  0
    6.6610  -11.2950  -11.4170 N   0  0  0  0  0  0
    5.4710   -9.3760  -11.7880 N   0  0  0  0  0  0
    8.9340  -12.0750  -17.7760 N   0  0  0  0  0  0
   10.3260  -12.4120  -17.5130 C   0  0  2  0  0  0
   11.2110  -11.9670  -18.6710 C   0  0  0  0  0  0
   12.3630  -11.5760  -18.4740 O   0  0  0  0  0  0
   10.4990  -13.8970  -17.1990 C   0  0  0  0  0  0
   10.2270  -14.8490  -18.3380 C   0  0  0  0  0  0
   10.7310  -16.2580  -18.0060 C   0  0  0  0  0  0
   10.4920  -17.2000  -19.0960 N   0  0  0  0  0  0
   11.1670  -17.2090  -20.2440 C   0  0  0  0  0  0
   12.1380  -16.3300  -20.4620 N   0  0  0  0  0  0
   10.8750  -18.1010  -21.1800 N   0  0  0  0  0  0
   10.6560  -11.9880  -19.8750 N   0  0  0  0  0  0
   11.3950  -11.5300  -21.0400 C   0  0  2  0  0  0
   11.6920  -10.0380  -21.0010 C   0  0  0  0  0  0
   12.7390   -9.6040  -21.4570 O   0  0  0  0  0  0
   10.6660  -11.9110  -22.3260 C   0  0  0  0  0  0
   10.5780  -13.4060  -22.5350 C   0  0  0  0  0  0
   10.4310  -13.7670  -23.9960 C   0  0  0  0  0  0
   10.4710  -15.2140  -24.1640 N   0  0  0  0  0  0
    9.4420  -15.9540  -24.5530 C   0  0  0  0  0  0
    8.2880  -15.3840  -24.8460 N   0  0  0  0  0  0
    9.5710  -17.2660  -24.6650 N   0  0  0  0  0  0
   10.7760   -9.2490  -20.4550 N   0  0  0  0  0  0
   11.0090   -7.8140  -20.3160 C   0  0  2  0  0  0
   12.1290   -7.5250  -19.3140 C   0  0  0  0  0  0
   13.0000   -6.6880  -19.5560 O   0  0  0  0  0  0
    9.7260   -7.1050  -19.8910 C   0  0  0  0  0  0
    9.8240   -5.5930  -19.9130 C   0  0  0  0  0  0
    8.2820   -4.8170  -19.4080 S   0  0  0  0  0  0
    8.1370   -5.4730  -17.7490 C   0  0  0  0  0  0
   12.0920   -8.2320  -18.1920 N   0  0  0  0  0  0
   13.1200   -8.1450  -17.1770 C   0  0  2  0  0  0
   14.4900   -8.5690  -17.7070 C   0  0  0  0  0  0
   15.4940   -7.9100  -17.4460 O   0  0  0  0  0  0
   12.7300   -9.0070  -15.9810 C   0  0  0  0  0  0
   11.8690   -8.3520  -14.9010 C   0  0  0  0  0  0
   10.7210   -7.5540  -15.4900 C   0  0  0  0  0  0
   11.3720   -9.4190  -13.9470 C   0  0  0  0  0  0
   14.5350   -9.6690  -18.4460 N   0  0  0  0  0  0
   15.7840  -10.1320  -19.0410 C   0  0  2  0  0  0
   16.3400   -9.1550  -20.0730 C   0  0  0  0  0  0
   17.5320   -8.8750  -20.0730 O   0  0  0  0  0  0
   15.6000  -11.5080  -19.6580 C   0  0  0  0  0  0
   15.4800   -8.6260  -20.9410 N   0  0  0  0  0  0
   15.9330   -7.7460  -22.0250 C   0  0  2  0  0  0
   16.5370   -6.4500  -21.5110 C   0  0  0  0  0  0
   17.4820   -5.9310  -22.0930 O   0  0  0  0  0  0
   14.8090   -7.4550  -22.9910 C   0  0  0  0  0  0
   15.9900   -5.9350  -20.4160 N   0  0  0  0  0  0
   16.4930   -4.7160  -19.8090 C   0  0  2  0  0  0
   17.8670   -4.9610  -19.2270 C   0  0  0  0  0  0
   18.7280   -4.0950  -19.2850 O   0  0  0  0  0  0
   15.5460   -4.2320  -18.7310 C   0  0  0  0  0  0
   18.0620   -6.1430  -18.6500 N   0  0  0  0  0  0
   19.3340   -6.4970  -18.0320 C   0  0  2  0  0  0
   20.3960   -6.7370  -19.0940 C   0  0  0  0  0  0
   21.5530   -6.3520  -18.9280 O   0  0  0  0  0  0
   19.1730   -7.7240  -17.1580 C   0  0  0  0  0  0
   19.9940   -7.3820  -20.1830 N   0  0  0  0  0  0
   20.9010   -7.6500  -21.2850 C   0  0  2  0  0  0
   21.3600   -6.3490  -21.9360 C   0  0  0  0  0  0
   22.5090   -6.2320  -22.3420 O   0  0  0  0  0  0
   20.2560   -8.6070  -22.2900 C   0  0  0  0  0  0
   20.1460  -10.0140  -21.7340 C   0  0  0  0  0  0
   19.0270  -10.8320  -22.3460 C   0  0  0  0  0  0
   18.2850  -10.3010  -23.1940 O   0  0  0  0  0  0
   18.8860  -12.0150  -21.9720 O   0  0  0  0  0  0
   20.4690   -5.3660  -22.0210 N   0  0  0  0  0  0
   20.8380   -4.0570  -22.5410 C   0  0  2  0  0  0
   21.8810   -3.4050  -21.6510 C   0  0  0  0  0  0
   22.8330   -2.8040  -22.1370 O   0  0  0  0  0  0
   19.6170   -3.1500  -22.6610 C   0  0  0  0  0  0
   18.6950   -3.5300  -23.7960 C   0  0  0  0  0  0
   17.6500   -2.4590  -24.0480 C   0  0  0  0  0  0
   16.2950   -2.9190  -23.7470 N   0  0  0  0  0  0
   15.6290   -2.6260  -22.6320 C   0  0  0  0  0  0
   16.1840   -1.8670  -21.6920 N   0  0  0  0  0  0
   14.4000   -3.0910  -22.4590 N   0  0  0  0  0  0
   21.6940   -3.5250  -20.3420 N   0  0  0  0  0  0
   22.6660   -2.9900  -19.4020 C   0  0  2  0  0  0
   24.0330   -3.6480  -19.5900 C   0  0  0  0  0  0
   25.0670   -2.9810  -19.5470 O   0  0  0  0  0  0
   22.1790   -3.1420  -17.9610 C   0  0  0  0  0  0
   20.9250   -2.3610  -17.6870 C   0  0  0  0  0  0
   20.7300   -2.1020  -16.2150 C   0  0  0  0  0  0
   20.4480   -3.3200  -15.4770 N   0  0  0  0  0  0
   19.2560   -3.8990  -15.4120 C   0  0  0  0  0  0
   19.0980   -5.0000  -14.7010 N   0  0  0  0  0  0
   18.2220   -3.3850  -16.0510 N   0  0  0  0  0  0
   24.0430   -4.9560  -19.8200 N   0  0  0  0  0  0
   25.3100   -5.6600  -19.9770 C   0  0  2  0  0  0
   25.9770   -5.4220  -21.3390 C   0  0  0  0  0  0
   27.1980   -5.4880  -21.4490 O   0  0  0  0  0  0
   25.1850   -7.1540  -19.6270 C   0  0  0  0  0  0
   24.2710   -8.1650  -20.3320 C   0  0  0  0  0  0
   24.7830   -8.5160  -21.7150 C   0  0  0  0  0  0
   24.1510   -9.4370  -19.4960 C   0  0  0  0  0  0
   25.1870   -5.1170  -22.3650 N   0  0  0  0  0  0
   25.7450   -4.7600  -23.6690 C   0  0  2  0  0  0
   26.0700   -3.2630  -23.7490 C   0  0  0  0  0  0
   25.8620   -2.6220  -24.7810 O   0  0  0  0  0  0
   24.7950   -5.1550  -24.7990 C   0  0  0  0  0  0
   23.5700   -4.2710  -24.9180 C   0  0  0  0  0  0
   23.1090   -4.1070  -26.3540 C   0  0  0  0  0  0
   22.9910   -5.0820  -27.0980 O   0  0  0  0  0  0
   22.8530   -2.8650  -26.7540 N   0  0  0  0  0  0
   26.5860   -2.7170  -22.6520 N   0  0  0  0  0  0
   26.8840   -1.2940  -22.5600 C   0  0  2  0  0  0
   27.7920   -1.0140  -21.3620 C   0  0  0  0  0  0
   28.9386   -0.5158  -21.5192 O   0  0  0  0  0  0
   25.5840   -0.4930  -22.4440 C   0  0  0  0  0  0
   25.6470    0.8940  -23.0580 C   0  0  0  0  0  0
   26.6390    1.7840  -22.3250 C   0  0  0  0  0  0
   27.3010    2.7740  -23.2740 C   0  0  0  0  0  0
   28.1210    2.0960  -24.3210 N   0  3  0  0  0  0
   27.3875   -1.2857  -20.2000 O   0  0  0  0  0  0
    1.1307   -9.0444  -27.3752 H   0  0  0  0  0  0
   -0.5623   -9.2512  -26.8117 H   0  0  0  0  0  0
    0.4760  -10.6915  -27.0836 H   0  0  0  0  0  0
    0.8575   -8.5105  -25.1132 H   0  0  0  0  0  0
    0.3001  -10.2386  -23.3878 H   0  0  0  0  0  0
   -1.5165   -8.9031  -24.3724 H   0  0  0  0  0  0
   -2.0619  -10.5477  -23.8985 H   0  0  0  0  0  0
   -1.7564  -10.1661  -25.6270 H   0  0  0  0  0  0
    1.2097  -12.1853  -24.6151 H   0  0  0  0  0  0
   -0.1630  -12.0879  -25.7696 H   0  0  0  0  0  0
   -0.4685  -12.4695  -24.0411 H   0  0  0  0  0  0
    2.4617   -9.1656  -23.3456 H   0  0  0  0  0  0
    4.5054  -10.9869  -24.6363 H   0  0  0  0  0  0
    6.3946   -9.4271  -23.8172 H   0  0  0  0  0  0
    5.0990   -8.2224  -22.0475 H   0  0  0  0  0  0
    5.5453   -9.3273  -26.1855 H   0  0  0  0  0  0
    6.1033   -7.7323  -25.5761 H   0  0  0  0  0  0
    4.3462   -8.0934  -25.6692 H   0  0  0  0  0  0
    6.2405  -11.6625  -23.1248 H   0  0  0  0  0  0
    4.7969  -12.4560  -20.5614 H   0  0  0  0  0  0
    5.7605  -14.2202  -22.0756 H   0  0  0  0  0  0
    7.3911  -13.5023  -21.8468 H   0  0  0  0  0  0
    7.3781  -14.1661  -19.5275 H   0  0  0  0  0  0
    4.9677  -14.0042  -19.0805 H   0  0  0  0  0  0
    5.6398  -15.6017  -18.6082 H   0  0  0  0  0  0
    4.6813  -15.4417  -20.1190 H   0  0  0  0  0  0
    8.2168  -15.6624  -21.3176 H   0  0  0  0  0  0
    6.5896  -16.4144  -21.4327 H   0  0  0  0  0  0
    7.5481  -16.5744  -19.9220 H   0  0  0  0  0  0
    5.5093  -11.9671  -18.5021 H   0  0  0  0  0  0
    6.9777   -9.5234  -18.5383 H   0  0  0  0  0  0
    5.3988  -10.1612  -16.7028 H   0  0  0  0  0  0
    6.5584  -11.4084  -16.1314 H   0  0  0  0  0  0
    8.1627   -9.7168  -15.5170 H   0  0  0  0  0  0
    7.1483   -8.4270  -16.2477 H   0  0  0  0  0  0
    6.6654   -8.2594  -13.9860 H   0  0  0  0  0  0
    5.3202   -9.2758  -14.6058 H   0  0  0  0  0  0
    7.4288  -11.0877  -13.7719 H   0  0  0  0  0  0
    7.3459  -12.0776  -11.7752 H   0  0  0  0  0  0
    5.1639   -8.5582  -12.4565 H   0  0  0  0  0  0
    5.0930   -9.4139  -10.7557 H   0  0  0  0  0  0
    8.1832  -12.8734  -17.8704 H   0  0  0  0  0  0
   10.5975  -11.8406  -16.6131 H   0  0  0  0  0  0
   11.5354  -14.0866  -16.8829 H   0  0  0  0  0  0
    9.8107  -14.1834  -16.3901 H   0  0  0  0  0  0
    9.1442  -14.8961  -18.5258 H   0  0  0  0  0  0
   10.7411  -14.4940  -19.2434 H   0  0  0  0  0  0
   11.8137  -16.2245  -17.8145 H   0  0  0  0  0  0
   10.2118  -16.6318  -17.1112 H   0  0  0  0  0  0
    9.7102  -17.9676  -18.9981 H   0  0  0  0  0  0
   12.3888  -15.5853  -19.6922 H   0  0  0  0  0  0
   12.6917  -16.3465  -21.4124 H   0  0  0  0  0  0
   10.0725  -18.8339  -21.0101 H   0  0  0  0  0  0
    9.6257  -12.3568  -19.9872 H   0  0  0  0  0  0
   12.3539  -12.0647  -20.9729 H   0  0  0  0  0  0
    9.6394  -11.5170  -22.2960 H   0  0  0  0  0  0
   11.1976  -11.4839  -23.1891 H   0  0  0  0  0  0
   11.4925  -13.8840  -22.1538 H   0  0  0  0  0  0
    9.7052  -13.8011  -21.9945 H   0  0  0  0  0  0
    9.4696  -13.3875  -24.3725 H   0  0  0  0  0  0
   11.2536  -13.3153  -24.5699 H   0  0  0  0  0  0
   11.4015  -15.7654  -23.9637 H   0  0  0  0  0  0
    8.1743  -14.2937  -24.7549 H   0  0  0  0  0  0
   10.5300  -17.7471  -24.4224 H   0  0  0  0  0  0
    8.7192  -17.8757  -25.0008 H   0  0  0  0  0  0
    9.8308   -9.6892  -20.1047 H   0  0  0  0  0  0
   11.3165   -7.4747  -21.3161 H   0  0  0  0  0  0
    8.9084   -7.3882  -20.5702 H   0  0  0  0  0  0
    9.4675   -7.3996  -18.8632 H   0  0  0  0  0  0
   10.6169   -5.2669  -19.2238 H   0  0  0  0  0  0
   10.0628   -5.2558  -20.9324 H   0  0  0  0  0  0
    7.2194   -5.0870  -17.2810 H   0  0  0  0  0  0
    9.0096   -5.1638  -17.1549 H   0  0  0  0  0  0
    8.0928   -6.5713  -17.7916 H   0  0  0  0  0  0
   11.2342   -8.9057  -18.0497 H   0  0  0  0  0  0
   13.1572   -7.0795  -16.9062 H   0  0  0  0  0  0
   12.1543   -9.8775  -16.3286 H   0  0  0  0  0  0
   13.6386   -9.3507  -15.4649 H   0  0  0  0  0  0
   12.4819   -7.6296  -14.3420 H   0  0  0  0  0  0
   11.1185   -6.7911  -16.1756 H   0  0  0  0  0  0
   10.1619   -7.0633  -14.6797 H   0  0  0  0  0  0
   10.0503   -8.2291  -16.0418 H   0  0  0  0  0  0
   12.2293   -9.9757  -13.5407 H   0  0  0  0  0  0
   10.7071  -10.1109  -14.4849 H   0  0  0  0  0  0
   10.8187   -8.9450  -13.1228 H   0  0  0  0  0  0
   13.6059  -10.2356  -18.6068 H   0  0  0  0  0  0
   16.4868  -10.1833  -18.1963 H   0  0  0  0  0  0
   15.1991  -12.1985  -18.9013 H   0  0  0  0  0  0
   16.5702  -11.8812  -20.0177 H   0  0  0  0  0  0
   14.8974  -11.4405  -20.5017 H   0  0  0  0  0  0
   14.4107   -8.8605  -20.8334 H   0  0  0  0  0  0
   16.7208   -8.3184  -22.5367 H   0  0  0  0  0  0
   14.3828   -8.4020  -23.3536 H   0  0  0  0  0  0
   15.1979   -6.8779  -23.8429 H   0  0  0  0  0  0
   14.0278   -6.8731  -22.4800 H   0  0  0  0  0  0
   15.1324   -6.4589  -19.9687 H   0  0  0  0  0  0
   16.5510   -3.9676  -20.6131 H   0  0  0  0  0  0
   14.5515   -4.0580  -19.1677 H   0  0  0  0  0  0
   15.9275   -3.2936  -18.3021 H   0  0  0  0  0  0
   15.4711   -4.9929  -17.9401 H   0  0  0  0  0  0
   17.2301   -6.8627  -18.6474 H   0  0  0  0  0  0
   19.6207   -5.6369  -17.4091 H   0  0  0  0  0  0
   18.4023   -7.5333  -16.3967 H   0  0  0  0  0  0
   20.1292   -7.9498  -16.6633 H   0  0  0  0  0  0
   18.8706   -8.5797  -17.7795 H   0  0  0  0  0  0
   18.9472   -7.7155  -20.2387 H   0  0  0  0  0  0
   21.7788   -8.1415  -20.8401 H   0  0  0  0  0  0
   19.2444   -8.2523  -22.5369 H   0  0  0  0  0  0
   20.8654   -8.6431  -23.2051 H   0  0  0  0  0  0
   21.0846  -10.5564  -21.9207 H   0  0  0  0  0  0
   19.9591   -9.9668  -20.6510 H   0  0  0  0  0  0
   18.0829  -12.6344  -22.3978 H   0  0  0  0  0  0
   19.4373   -5.5554  -21.6899 H   0  0  0  0  0  0
   21.2607   -4.2502  -23.5380 H   0  0  0  0  0  0
   19.0320   -3.1977  -21.7307 H   0  0  0  0  0  0
   19.9450   -2.1146  -22.8351 H   0  0  0  0  0  0
   19.2826   -3.6655  -24.7160 H   0  0  0  0  0  0
   18.1778   -4.4690  -23.5496 H   0  0  0  0  0  0
   17.8603   -1.5851  -23.4138 H   0  0  0  0  0  0
   17.6794   -2.1597  -25.1061 H   0  0  0  0  0  0
   15.7566   -3.5526  -24.4672 H   0  0  0  0  0  0
   17.2037   -1.4782  -21.8300 H   0  0  0  0  0  0
   15.6235   -1.6278  -20.7762 H   0  0  0  0  0  0
   13.9357   -3.7194  -23.2332 H   0  0  0  0  0  0
   20.7930   -4.0352  -19.9708 H   0  0  0  0  0  0
   22.7391   -1.9210  -19.6508 H   0  0  0  0  0  0
   21.9675   -4.2017  -17.7553 H   0  0  0  0  0  0
   22.9569   -2.7828  -17.2712 H   0  0  0  0  0  0
   20.9776   -1.3904  -18.2020 H   0  0  0  0  0  0
   20.0545   -2.9243  -18.0544 H   0  0  0  0  0  0
   21.6434   -1.6531  -15.7976 H   0  0  0  0  0  0
   19.8847   -1.4127  -16.0728 H   0  0  0  0  0  0
   21.2520   -3.8254  -14.9219 H   0  0  0  0  0  0
   19.9538   -5.4360  -14.1648 H   0  0  0  0  0  0
   18.1105   -5.4814  -14.6447 H   0  0  0  0  0  0
   18.3436   -2.4679  -16.6460 H   0  0  0  0  0  0
   23.0944   -5.5082  -19.8920 H   0  0  0  0  0  0
   25.9482   -5.1741  -19.2243 H   0  0  0  0  0  0
   26.1639   -7.6415  -19.7457 H   0  0  0  0  0  0
   24.8467   -7.2596  -18.5857 H   0  0  0  0  0  0
   23.2809   -7.7010  -20.4518 H   0  0  0  0  0  0
   24.8695   -7.5997  -22.3174 H   0  0  0  0  0  0
   24.0807   -9.2093  -22.2009 H   0  0  0  0  0  0
   25.7703   -8.9936  -21.6302 H   0  0  0  0  0  0
   23.7795   -9.1825  -18.4924 H   0  0  0  0  0  0
   25.1383   -9.9146  -19.4113 H   0  0  0  0  0  0
   23.4488  -10.1303  -19.9820 H   0  0  0  0  0  0
   24.0968   -5.1365  -22.2200 H   0  0  0  0  0  0
   26.6737   -5.3449  -23.7428 H   0  0  0  0  0  0
   25.3265   -5.1011  -25.7605 H   0  0  0  0  0  0
   24.4371   -6.1821  -24.6350 H   0  0  0  0  0  0
   22.7417   -4.7132  -24.3449 H   0  0  0  0  0  0
   23.7990   -3.2715  -24.5197 H   0  0  0  0  0  0
   22.9728   -2.0257  -26.0531 H   0  0  0  0  0  0
   22.5214   -2.6768  -27.7858 H   0  0  0  0  0  0
   26.7877   -3.3776  -21.7959 H   0  0  0  0  0  0
   27.4095   -1.0335  -23.4906 H   0  0  0  0  0  0
   24.7733   -1.0338  -22.9542 H   0  0  0  0  0  0
   25.3268   -0.3632  -21.3824 H   0  0  0  0  0  0
   25.9607    0.8156  -24.1094 H   0  0  0  0  0  0
   24.6536    1.3636  -23.0058 H   0  0  0  0  0  0
   26.1145    2.3489  -21.5403 H   0  0  0  0  0  0
   27.4218    1.1613  -21.8674 H   0  0  0  0  0  0
   26.5273    3.3695  -23.7808 H   0  0  0  0  0  0
   27.9629    3.4422  -22.7036 H   0  0  0  0  0  0
   28.5755    2.8525  -24.9777 H   0  0  0  0  0  0
   27.4781    1.4316  -24.9170 H   0  0  0  0  0  0
   28.9137    1.5043  -23.8398 H   0  0  0  0  0  0
   28.0339   -1.0877  -19.3323 H   0  0  0  0  0  0
  1  2  1  0  0  0
  1150  1  0  0  0
  1151  1  0  0  0
  1152  1  0  0  0
  2  3  1  0  0  0
  2  5  1  0  0  0
  2153  1  0  0  0
  3  4  2  0  0  0
  3  8  1  0  0  0
  5  6  1  0  0  0
  5  7  1  0  0  0
  5154  1  0  0  0
  6155  1  0  0  0
  6156  1  0  0  0
  6157  1  0  0  0
  7158  1  0  0  0
  7159  1  0  0  0
  7160  1  0  0  0
  8  9  1  0  0  0
  8161  1  0  0  0
  9 10  1  0  0  0
  9 12  1  0  0  0
  9162  1  0  0  0
 10 11  2  0  0  0
 10 15  1  0  0  0
 12 13  1  0  0  0
 12 14  1  0  0  0
 12163  1  0  0  0
 13164  1  0  0  0
 14165  1  0  0  0
 14166  1  0  0  0
 14167  1  0  0  0
 15 16  1  0  0  0
 15168  1  0  0  0
 16 17  1  0  0  0
 16 19  1  0  0  0
 16169  1  0  0  0
 17 18  2  0  0  0
 17 23  1  0  0  0
 19 20  1  0  0  0
 19170  1  0  0  0
 19171  1  0  0  0
 20 21  1  0  0  0
 20 22  1  0  0  0
 20172  1  0  0  0
 21173  1  0  0  0
 21174  1  0  0  0
 21175  1  0  0  0
 22176  1  0  0  0
 22177  1  0  0  0
 22178  1  0  0  0
 23 24  1  0  0  0
 23179  1  0  0  0
 24 25  1  0  0  0
 24 27  1  0  0  0
 24180  1  0  0  0
 25 26  2  0  0  0
 25 34  1  0  0  0
 27 28  1  0  0  0
 27181  1  0  0  0
 27182  1  0  0  0
 28 29  1  0  0  0
 28183  1  0  0  0
 28184  1  0  0  0
 29 30  1  0  0  0
 29185  1  0  0  0
 29186  1  0  0  0
 30 31  1  0  0  0
 30187  1  0  0  0
 31 32  2  0  0  0
 31 33  1  0  0  0
 32188  1  0  0  0
 33189  1  0  0  0
 33190  1  0  0  0
 34 35  1  0  0  0
 34191  1  0  0  0
 35 36  1  0  0  0
 35 38  1  0  0  0
 35192  1  0  0  0
 36 37  2  0  0  0
 36 45  1  0  0  0
 38 39  1  0  0  0
 38193  1  0  0  0
 38194  1  0  0  0
 39 40  1  0  0  0
 39195  1  0  0  0
 39196  1  0  0  0
 40 41  1  0  0  0
 40197  1  0  0  0
 40198  1  0  0  0
 41 42  1  0  0  0
 41199  1  0  0  0
 42 43  1  0  0  0
 42 44  2  0  0  0
 43200  1  0  0  0
 43201  1  0  0  0
 44202  1  0  0  0
 45 46  1  0  0  0
 45203  1  0  0  0
 46 47  1  0  0  0
 46 49  1  0  0  0
 46204  1  0  0  0
 47 48  2  0  0  0
 47 56  1  0  0  0
 49 50  1  0  0  0
 49205  1  0  0  0
 49206  1  0  0  0
 50 51  1  0  0  0
 50207  1  0  0  0
 50208  1  0  0  0
 51 52  1  0  0  0
 51209  1  0  0  0
 51210  1  0  0  0
 52 53  1  0  0  0
 52211  1  0  0  0
 53 54  2  0  0  0
 53 55  1  0  0  0
 54212  1  0  0  0
 55213  1  0  0  0
 55214  1  0  0  0
 56 57  1  0  0  0
 56215  1  0  0  0
 57 58  1  0  0  0
 57 60  1  0  0  0
 57216  1  0  0  0
 58 59  2  0  0  0
 58 64  1  0  0  0
 60 61  1  0  0  0
 60217  1  0  0  0
 60218  1  0  0  0
 61 62  1  0  0  0
 61219  1  0  0  0
 61220  1  0  0  0
 62 63  1  0  0  0
 63221  1  0  0  0
 63222  1  0  0  0
 63223  1  0  0  0
 64 65  1  0  0  0
 64224  1  0  0  0
 65 66  1  0  0  0
 65 68  1  0  0  0
 65225  1  0  0  0
 66 67  2  0  0  0
 66 72  1  0  0  0
 68 69  1  0  0  0
 68226  1  0  0  0
 68227  1  0  0  0
 69 70  1  0  0  0
 69 71  1  0  0  0
 69228  1  0  0  0
 70229  1  0  0  0
 70230  1  0  0  0
 70231  1  0  0  0
 71232  1  0  0  0
 71233  1  0  0  0
 71234  1  0  0  0
 72 73  1  0  0  0
 72235  1  0  0  0
 73 74  1  0  0  0
 73 76  1  0  0  0
 73236  1  0  0  0
 74 75  2  0  0  0
 74 77  1  0  0  0
 76237  1  0  0  0
 76238  1  0  0  0
 76239  1  0  0  0
 77 78  1  0  0  0
 77240  1  0  0  0
 78 79  1  0  0  0
 78 81  1  0  0  0
 78241  1  0  0  0
 79 80  2  0  0  0
 79 82  1  0  0  0
 81242  1  0  0  0
 81243  1  0  0  0
 81244  1  0  0  0
 82 83  1  0  0  0
 82245  1  0  0  0
 83 84  1  0  0  0
 83 86  1  0  0  0
 83246  1  0  0  0
 84 85  2  0  0  0
 84 87  1  0  0  0
 86247  1  0  0  0
 86248  1  0  0  0
 86249  1  0  0  0
 87 88  1  0  0  0
 87250  1  0  0  0
 88 89  1  0  0  0
 88 91  1  0  0  0
 88251  1  0  0  0
 89 90  2  0  0  0
 89 92  1  0  0  0
 91252  1  0  0  0
 91253  1  0  0  0
 91254  1  0  0  0
 92 93  1  0  0  0
 92255  1  0  0  0
 93 94  1  0  0  0
 93 96  1  0  0  0
 93256  1  0  0  0
 94 95  2  0  0  0
 94101  1  0  0  0
 96 97  1  0  0  0
 96257  1  0  0  0
 96258  1  0  0  0
 97 98  1  0  0  0
 97259  1  0  0  0
 97260  1  0  0  0
 98 99  2  0  0  0
 98100  1  0  0  0
100261  1  0  0  0
101102  1  0  0  0
101262  1  0  0  0
102103  1  0  0  0
102105  1  0  0  0
102263  1  0  0  0
103104  2  0  0  0
103112  1  0  0  0
105106  1  0  0  0
105264  1  0  0  0
105265  1  0  0  0
106107  1  0  0  0
106266  1  0  0  0
106267  1  0  0  0
107108  1  0  0  0
107268  1  0  0  0
107269  1  0  0  0
108109  1  0  0  0
108270  1  0  0  0
109110  1  0  0  0
109111  2  0  0  0
110271  1  0  0  0
110272  1  0  0  0
111273  1  0  0  0
112113  1  0  0  0
112274  1  0  0  0
113114  1  0  0  0
113116  1  0  0  0
113275  1  0  0  0
114115  2  0  0  0
114123  1  0  0  0
116117  1  0  0  0
116276  1  0  0  0
116277  1  0  0  0
117118  1  0  0  0
117278  1  0  0  0
117279  1  0  0  0
118119  1  0  0  0
118280  1  0  0  0
118281  1  0  0  0
119120  1  0  0  0
119282  1  0  0  0
120121  1  0  0  0
120122  2  0  0  0
121283  1  0  0  0
121284  1  0  0  0
122285  1  0  0  0
123124  1  0  0  0
123286  1  0  0  0
124125  1  0  0  0
124127  1  0  0  0
124287  1  0  0  0
125126  2  0  0  0
125131  1  0  0  0
127128  1  0  0  0
127288  1  0  0  0
127289  1  0  0  0
128129  1  0  0  0
128130  1  0  0  0
128290  1  0  0  0
129291  1  0  0  0
129292  1  0  0  0
129293  1  0  0  0
130294  1  0  0  0
130295  1  0  0  0
130296  1  0  0  0
131132  1  0  0  0
131297  1  0  0  0
132133  1  0  0  0
132135  1  0  0  0
132298  1  0  0  0
133134  2  0  0  0
133140  1  0  0  0
135136  1  0  0  0
135299  1  0  0  0
135300  1  0  0  0
136137  1  0  0  0
136301  1  0  0  0
136302  1  0  0  0
137138  2  0  0  0
137139  1  0  0  0
139303  1  0  0  0
139304  1  0  0  0
140141  1  0  0  0
140305  1  0  0  0
141142  1  0  0  0
141144  1  0  0  0
141306  1  0  0  0
142143  2  0  0  0
142149  1  0  0  0
144145  1  0  0  0
144307  1  0  0  0
144308  1  0  0  0
145146  1  0  0  0
145309  1  0  0  0
145310  1  0  0  0
146147  1  0  0  0
146311  1  0  0  0
146312  1  0  0  0
147148  1  0  0  0
147313  1  0  0  0
147314  1  0  0  0
148315  1  0  0  0
148316  1  0  0  0
148317  1  0  0  0
149318  1  0  0  0
M  CHG  2   1   1 148   1
M  END
> <s_m_source_file>
../3tiw_ligand.sdf

> <i_m_source_file_index>
1

> <s_epik_input>
W0NIM11bQ0hdKFtDSDNdKVtDQEhdKFtOSDMrXSlDKD1PKVtOSF1bQ0BASF0oW0NASF0oW09IXSlbQ0gzXSlDKD1PKVtOSF1bQ0BASF0oW0NIMl1bQ0hdKFtDSDNdKVtDSDNdKUMoPU8pW05IXVtDQEBIXShbQ0gyXVtDSDJdW0NIMl1bTkhdL0MoPU5cW0hdKVtOSDJdKUMoPU8pW05IXVtDQEBIXShbQ0gyXVtDSDJdW0NIMl1bTkhdL0MoW05IMl0pPU5cW0hdKUMoPU8pW05IXVtDQEBIXShbQ0gyXVtDSDJdW0NIMl1bTkhdL0MoPU5cW0hdKVtOSDJdKUMoPU8pW05IXVtDQEBIXShbQ0gyXVtDSDJdU1tDSDNdKUMoPU8pW05IXVtDQEBIXShbQ0gyXVtDSF0oW0NIM10pW0NIM10pQyg9TylbTkhdW0NAQEhdKFtDSDNdKUMoPU8pW05IXVtDQEBIXShbQ0gzXSlDKD1PKVtOSF1bQ0BASF0oW0NIM10pQyg9TylbTkhdW0NAQEhdKFtDSDNdKUMoPU8pW05IXVtDQEBIXShbQ0gyXVtDSDJdQyg9TylbT0hdKUMoPU8pW05IXVtDQEBIXShbQ0gyXVtDSDJdW0NIMl1bTkhdL0MoW05IMl0pPU5cW0hdKUMoPU8pW05IXVtDQEBIXShbQ0gyXVtDSDJdW0NIMl1bTkhdL0MoW05IMl0pPU5cW0hdKUMoPU8pW05IXVtDQEBIXShbQ0gyXVtDSF0oW0NIM10pW0NIM10pQyg9TylbTkhdW0NAQEhdKFtDSDJdW0NIMl1DKD1PKVtOSDJdKUMoPU8pW05IXVtDQEhdKEMoPU8pW09IXSlbQ0gyXVtDSDJdW0NIMl1bQ0gyXVtOSDMrXQ==

> <s_epik_cmdline>
J2VwaWtfYXBwJywgJy1pbWFlJywgJ2xpZ2FuZF9wcm8ubWFlJywgJy1vbWFlJywgJ2xpZ2FuZF9wcmVwLm1hZScsICctbXMnLCAnMScsICctcGgnLCAnNycsICctcGh0JywgJzAuNScsICctbnQn

> <s_epik_pKa_notes>
Molecule size exceeds maximum supported for generating protonation states

> <s_epik_Chemistry_Notes>
This compound has an imine and may undergo hydrolysis.

$$$$
