3tiz_ligand
                    3D
 Schrodinger Suite 2020-3.
 35 37  0  0  1  0            999 V2000
  -90.1190  -10.2350  -84.3970 N   0  0  0  0  0  0
  -89.1210  -10.5340  -83.3710 C   0  0  0  0  0  0
  -88.6360  -11.8450  -83.2180 C   0  0  0  0  0  0
  -87.6730  -12.1390  -82.2230 C   0  0  0  0  0  0
  -87.1990  -11.1400  -81.4000 C   0  0  0  0  0  0
  -87.6850   -9.8340  -81.5470 C   0  0  0  0  0  0
  -88.6550   -9.5360  -82.5440 C   0  0  0  0  0  0
  -91.1510   -9.2220  -84.2110 C   0  0  0  0  0  0
  -92.1190   -8.9200  -85.3990 C   0  0  0  0  0  0
  -92.0300   -9.6690  -86.5900 C   0  0  0  0  0  0
  -92.8840   -9.4130  -87.6640 C   0  0  0  0  0  0
  -93.8680   -8.3930  -87.5520 C   0  0  0  0  0  0
  -93.9740   -7.6180  -86.3390 C   0  0  0  0  0  0
  -93.1240   -7.8700  -85.2750 C   0  0  0  0  0  0
  -93.2350   -7.0970  -84.0800 C   0  0  0  0  0  0
  -94.2140   -6.0710  -83.9710 C   0  0  0  0  0  0
  -95.0830   -5.8230  -85.0550 C   0  0  0  0  0  0
  -94.9750   -6.5710  -86.2230 C   0  0  0  0  0  0
  -86.2690  -11.4330  -80.4370 O   0  0  0  0  0  0
  -91.0750  -10.6610  -86.7050 O   0  0  0  0  0  0
  -90.0719  -10.8063  -85.3358 H   0  0  0  0  0  0
  -89.0033  -12.6386  -83.8687 H   0  0  0  0  0  0
  -87.3052  -13.1585  -82.1073 H   0  0  0  0  0  0
  -87.3179   -9.0422  -80.8940 H   0  0  0  0  0  0
  -89.0293   -8.5182  -82.6534 H   0  0  0  0  0  0
  -91.8086   -9.5168  -83.3800 H   0  0  0  0  0  0
  -90.6789   -8.2557  -83.9799 H   0  0  0  0  0  0
  -92.7969   -9.9919  -88.5835 H   0  0  0  0  0  0
  -94.5439   -8.1958  -88.3841 H   0  0  0  0  0  0
  -92.5639   -7.2947  -83.2441 H   0  0  0  0  0  0
  -94.2924   -5.4811  -83.0578 H   0  0  0  0  0  0
  -95.8408   -5.0434  -84.9769 H   0  0  0  0  0  0
  -95.6465   -6.3701  -87.0577 H   0  0  0  0  0  0
  -85.8937  -12.4614  -80.3296 H   0  0  0  0  0  0
  -90.3966  -10.8714  -85.8650 H   0  0  0  0  0  0
  1  2  1  0  0  0
  1  8  1  0  0  0
  1 21  1  0  0  0
  2  3  2  0  0  0
  2  7  1  0  0  0
  3  4  1  0  0  0
  3 22  1  0  0  0
  4  5  2  0  0  0
  4 23  1  0  0  0
  5  6  1  0  0  0
  5 19  1  0  0  0
  6  7  2  0  0  0
  6 24  1  0  0  0
  7 25  1  0  0  0
  8  9  1  0  0  0
  8 26  1  0  0  0
  8 27  1  0  0  0
  9 10  2  0  0  0
  9 14  1  0  0  0
 10 11  1  0  0  0
 10 20  1  0  0  0
 11 12  2  0  0  0
 11 28  1  0  0  0
 12 13  1  0  0  0
 12 29  1  0  0  0
 13 14  2  0  0  0
 13 18  1  0  0  0
 14 15  1  0  0  0
 15 16  2  0  0  0
 15 30  1  0  0  0
 16 17  1  0  0  0
 16 31  1  0  0  0
 17 18  2  0  0  0
 17 32  1  0  0  0
 18 33  1  0  0  0
 19 34  1  0  0  0
 20 35  1  0  0  0
M  END
> <s_m_source_file>
../3tiz_ligand.sdf

> <i_m_source_file_index>
1

> <s_epik_input>
W2NIXTFbY0hdYyhbT0hdKVtjSF1bY0hdYzFbTkhdW0NIMl1jKGMoW09IXSlbY0hdW2NIXTIpYyhjMjMpW2NIXVtjSF1bY0hdW2NIXTM=

> <s_epik_cmdline>
J2VwaWtfYXBwJywgJy1pbWFlJywgJ2xpZ2FuZF9wcm8ubWFlJywgJy1vbWFlJywgJ2xpZ2FuZF9wcmVwLm1hZScsICctbXMnLCAnMScsICctcGgnLCAnNycsICctcGh0JywgJzAuNScsICctbnQn

> <r_lp_tautomer_probability>
1

> <r_epik_Ionization_Penalty>
  0.0010

> <r_epik_Ionization_Penalty_Charging>
  0.0000

> <r_epik_Ionization_Penalty_Neutral>
  0.0010

> <r_epik_State_Penalty>
 -0.0000

> <r_epik_Charging_Adjusted_Penalty>
0

> <i_epik_Tot_Q>
0

> <i_epik_Tot_abs_Q>
0

$$$$
