3tjc_ligand
                    3D
 Schrodinger Suite 2020-3.
 46 49  0  0  1  0            999 V2000
  109.1460   63.6500    5.2620 C   0  0  0  0  0  0
  118.4380   68.6310   10.9070 N   0  0  0  0  0  0
  109.4940   62.9280    4.0980 O   0  0  0  0  0  0
  114.6260   66.5190   10.8280 S   0  0  0  0  0  0
  112.8430   64.5170    9.1160 C   0  0  0  0  0  0
  118.8000   67.9060    8.7460 N   0  0  0  0  0  0
  114.5320   67.6480   13.5010 O   0  0  0  0  0  0
  110.9210   62.9900    3.7670 C   0  0  0  0  0  0
  116.1090   68.9820   14.2930 N   0  0  0  0  0  0
  111.6500   62.2340    4.8630 C   0  0  0  0  0  0
  111.3110   62.9430    6.0930 N   0  0  0  0  0  0
  113.4580   64.0570    6.2970 C   0  0  0  0  0  0
  109.8480   63.0030    6.4180 C   0  0  0  0  0  0
  116.1990   66.4170    8.7990 C   0  0  0  0  0  0
  116.6900   67.1590    9.7790 C   0  0  0  0  0  0
  115.9430   67.3130   10.9880 C   0  0  0  0  0  0
  117.9900   67.8970    9.8260 C   0  0  0  0  0  0
  116.4020   68.0800   12.1220 C   0  0  0  0  0  0
  115.5960   68.1970   13.3340 C   0  0  0  0  0  0
  117.6970   68.7430   12.0450 C   0  0  0  0  0  0
  114.9510   65.9510    9.2760 C   0  0  0  0  0  0
  115.2220   69.4780   15.3450 C   0  0  0  0  0  0
  114.0590   65.0510    8.4900 C   0  0  0  0  0  0
  111.9270   63.7680    8.3390 C   0  0  0  0  0  0
  112.2250   63.5440    6.9090 C   0  0  0  0  0  0
  114.3700   64.8020    7.0700 C   0  0  0  0  0  0
  109.4666   64.6967    5.1538 H   0  0  0  0  0  0
  108.0558   63.6133    5.4041 H   0  0  0  0  0  0
  112.6467   64.6963   10.1731 H   0  0  0  0  0  0
  119.7562   68.4487    8.7802 H   0  0  0  0  0  0
  118.5038   67.3707    7.8319 H   0  0  0  0  0  0
  111.0906   62.5216    2.7863 H   0  0  0  0  0  0
  111.2440   64.0409    3.7322 H   0  0  0  0  0  0
  117.1748   69.2542   14.2985 H   0  0  0  0  0  0
  111.3007   61.1911    4.8838 H   0  0  0  0  0  0
  112.7319   62.2544    4.6653 H   0  0  0  0  0  0
  113.6671   63.8613    5.2453 H   0  0  0  0  0  0
  109.6839   63.5999    7.3273 H   0  0  0  0  0  0
  109.4492   61.9889    6.5682 H   0  0  0  0  0  0
  116.6576   66.2095    7.8322 H   0  0  0  0  0  0
  118.0695   69.3229   12.8894 H   0  0  0  0  0  0
  115.7968   70.1017   16.0454 H   0  0  0  0  0  0
  114.7839   68.6268   15.8867 H   0  0  0  0  0  0
  114.4183   70.0785   14.8940 H   0  0  0  0  0  0
  111.0191   63.3641    8.7870 H   0  0  0  0  0  0
  115.2884   65.1872    6.6270 H   0  0  0  0  0  0
  1  3  1  0  0  0
  1 13  1  0  0  0
  1 27  1  0  0  0
  1 28  1  0  0  0
  2 17  2  0  0  0
  2 20  1  0  0  0
  3  8  1  0  0  0
  4 16  1  0  0  0
  4 21  1  0  0  0
  5 23  2  0  0  0
  5 24  1  0  0  0
  5 29  1  0  0  0
  6 17  1  0  0  0
  6 30  1  0  0  0
  6 31  1  0  0  0
  7 19  2  0  0  0
  8 10  1  0  0  0
  8 32  1  0  0  0
  8 33  1  0  0  0
  9 19  1  0  0  0
  9 22  1  0  0  0
  9 34  1  0  0  0
 10 11  1  0  0  0
 10 35  1  0  0  0
 10 36  1  0  0  0
 11 13  1  0  0  0
 11 25  1  0  0  0
 12 25  1  0  0  0
 12 26  2  0  0  0
 12 37  1  0  0  0
 13 38  1  0  0  0
 13 39  1  0  0  0
 14 15  1  0  0  0
 14 21  2  0  0  0
 14 40  1  0  0  0
 15 16  2  0  0  0
 15 17  1  0  0  0
 16 18  1  0  0  0
 18 19  1  0  0  0
 18 20  2  0  0  0
 20 41  1  0  0  0
 21 23  1  0  0  0
 22 42  1  0  0  0
 22 43  1  0  0  0
 22 44  1  0  0  0
 23 26  1  0  0  0
 24 25  2  0  0  0
 24 45  1  0  0  0
 26 46  1  0  0  0
M  END
> <s_m_source_file>
../3tjc_ligand.sdf

> <i_m_source_file_index>
1

> <s_epik_input>
W0NIMl0xW0NIMl1PW0NIMl1bQ0gyXU4xYyhbY0hdW2NIXTIpW2NIXVtjSF1jMi1jKFtjSF0zKXNjKGMzNCljKEMoPU8pW05IXVtDSDNdKVtjSF1uYzRbTkgyXQ==

> <s_epik_cmdline>
J2VwaWtfYXBwJywgJy1pbWFlJywgJ2xpZ2FuZF9wcm8ubWFlJywgJy1vbWFlJywgJ2xpZ2FuZF9wcmVwLm1hZScsICctbXMnLCAnMScsICctcGgnLCAnNycsICctcGh0JywgJzAuNScsICctbnQn

> <r_lp_tautomer_probability>
1

> <r_epik_Ionization_Penalty>
  0.0046

> <r_epik_Ionization_Penalty_Charging>
  0.0000

> <r_epik_Ionization_Penalty_Neutral>
  0.0046

> <r_epik_State_Penalty>
 -0.0000

> <r_epik_Charging_Adjusted_Penalty>
0

> <i_epik_Tot_Q>
0

> <i_epik_Tot_abs_Q>
0

$$$$
