3tjd_ligand
                    3D
 Schrodinger Suite 2020-3.
 50 52  0  0  1  0            999 V2000
  111.6190   60.4580    5.6300 C   0  0  0  0  0  0
  117.9580   67.9850   11.0670 N   0  0  0  0  0  0
  109.4440   62.8930    5.3700 O   0  0  0  0  0  0
  113.9580   66.5050   10.3760 S   0  0  0  0  0  0
  112.0330   64.8190    8.2820 C   0  0  0  0  0  0
  118.4060   67.4210    8.8200 N   0  0  0  0  0  0
  113.8550   67.0920   13.3520 O   0  0  0  0  0  0
  110.7490   63.1730    4.8880 S   0  0  0  0  0  0
  111.4300   59.0750    4.9820 C   0  0  0  0  0  0
  115.2660   68.5830   14.1290 N   0  0  0  0  0  0
  110.7910   63.9390    3.7030 O   0  0  0  0  0  0
  110.6120   60.5210    6.7440 C   0  0  0  0  0  0
  111.5760   61.6350    4.6800 N   0  0  3  0  0  0
  112.9340   64.4410    5.5320 C   0  0  0  0  0  0
  112.9790   60.4450    6.2490 C   0  0  0  0  0  0
  115.6680   66.3170    8.4550 C   0  0  0  0  0  0
  116.1750   66.9200    9.6350 C   0  0  0  0  0  0
  115.3970   67.1030   10.7940 C   0  0  0  0  0  0
  117.5310   67.4320    9.8730 C   0  0  0  0  0  0
  115.7790   67.6510   12.0100 C   0  0  0  0  0  0
  114.8760   67.7330   13.1870 C   0  0  0  0  0  0
  117.1250   68.1070   12.1320 C   0  0  0  0  0  0
  114.3270   66.0170    8.7840 C   0  0  0  0  0  0
  114.4140   68.7250   15.2730 C   0  0  0  0  0  0
  113.3650   65.3070    7.8330 C   0  0  0  0  0  0
  111.1630   64.1490    7.3690 C   0  0  0  0  0  0
  111.6760   64.0000    6.0460 C   0  0  0  0  0  0
  113.7850   65.1010    6.4440 C   0  0  0  0  0  0
  111.7193   64.9739    9.3143 H   0  0  0  0  0  0
  119.4318   67.7951    8.9534 H   0  0  0  0  0  0
  118.0832   67.0380    7.8406 H   0  0  0  0  0  0
  110.4392   59.0250    4.5069 H   0  0  0  0  0  0
  111.5063   58.2950    5.7538 H   0  0  0  0  0  0
  112.2094   58.9165    4.2221 H   0  0  0  0  0  0
  116.1967   69.1654   14.0607 H   0  0  0  0  0  0
  109.5969   60.5320    6.3204 H   0  0  0  0  0  0
  110.7735   61.4359    7.3329 H   0  0  0  0  0  0
  110.7286   59.6412    7.3939 H   0  0  0  0  0  0
  112.2364   61.6564    3.8005 H   0  0  0  0  0  0
  113.2205   64.2768    4.4932 H   0  0  0  0  0  0
  113.0546   59.6009    6.9503 H   0  0  0  0  0  0
  113.1442   61.3879    6.7909 H   0  0  0  0  0  0
  113.7393   60.3366    5.4614 H   0  0  0  0  0  0
  116.1897   66.1295    7.5165 H   0  0  0  0  0  0
  117.4789   68.5461   13.0648 H   0  0  0  0  0  0
  114.8534   69.4547   15.9691 H   0  0  0  0  0  0
  114.3120   67.7527   15.7771 H   0  0  0  0  0  0
  113.4228   69.0766   14.9506 H   0  0  0  0  0  0
  110.1802   63.7790    7.6611 H   0  0  0  0  0  0
  114.7599   65.4595    6.1136 H   0  0  0  0  0  0
  1  9  1  0  0  0
  1 12  1  0  0  0
  1 13  1  0  0  0
  1 15  1  0  0  0
  2 19  2  0  0  0
  2 22  1  0  0  0
  3  8  2  0  0  0
  4 18  1  0  0  0
  4 23  1  0  0  0
  5 25  2  0  0  0
  5 26  1  0  0  0
  5 29  1  0  0  0
  6 19  1  0  0  0
  6 30  1  0  0  0
  6 31  1  0  0  0
  7 21  2  0  0  0
  8 11  2  0  0  0
  8 13  1  0  0  0
  8 27  1  0  0  0
  9 32  1  0  0  0
  9 33  1  0  0  0
  9 34  1  0  0  0
 10 21  1  0  0  0
 10 24  1  0  0  0
 10 35  1  0  0  0
 12 36  1  0  0  0
 12 37  1  0  0  0
 12 38  1  0  0  0
 13 39  1  0  0  0
 14 27  1  0  0  0
 14 28  2  0  0  0
 14 40  1  0  0  0
 15 41  1  0  0  0
 15 42  1  0  0  0
 15 43  1  0  0  0
 16 17  1  0  0  0
 16 23  2  0  0  0
 16 44  1  0  0  0
 17 18  2  0  0  0
 17 19  1  0  0  0
 18 20  1  0  0  0
 20 21  1  0  0  0
 20 22  2  0  0  0
 22 45  1  0  0  0
 23 25  1  0  0  0
 24 46  1  0  0  0
 24 47  1  0  0  0
 24 48  1  0  0  0
 25 28  1  0  0  0
 26 27  2  0  0  0
 26 49  1  0  0  0
 28 50  1  0  0  0
M  END
> <s_m_source_file>
../3tjd_ligand.sdf

> <i_m_source_file_index>
1

> <s_epik_input>
W0NIM11DKFtDSDNdKShbQ0gzXSlbTkhdUyg9TykoPU8pYyhbY0hdW2NIXTEpW2NIXVtjSF1jMS1jKFtjSF0yKXNjKGMyMyljKEMoPU8pW05IXVtDSDNdKVtjSF1uYzNbTkgyXQ==

> <s_epik_cmdline>
J2VwaWtfYXBwJywgJy1pbWFlJywgJ2xpZ2FuZF9wcm8ubWFlJywgJy1vbWFlJywgJ2xpZ2FuZF9wcmVwLm1hZScsICctbXMnLCAnMScsICctcGgnLCAnNycsICctcGh0JywgJzAuNScsICctbnQn

> <r_lp_tautomer_probability>
1

> <r_epik_Ionization_Penalty>
  0.0046

> <r_epik_Ionization_Penalty_Charging>
  0.0000

> <r_epik_Ionization_Penalty_Neutral>
  0.0046

> <r_epik_State_Penalty>
 -0.0000

> <r_epik_Charging_Adjusted_Penalty>
0

> <i_epik_Tot_Q>
0

> <i_epik_Tot_abs_Q>
0

$$$$
