3tjh_ligand
                    3D
 Schrodinger Suite 2020-3.
156160  0  0  1  0            999 V2000
  -14.8360   -4.7610   33.1740 N   0  3  0  0  0  0
  -16.0050   -5.5730   33.4860 C   0  0  2  0  0  0
  -16.0600   -6.7910   32.5670 C   0  0  0  0  0  0
  -15.9860   -6.6530   31.3470 O   0  0  0  0  0  0
  -17.2800   -4.7390   33.3470 C   0  0  0  0  0  0
  -18.3830   -5.3870   33.9560 O   0  0  0  0  0  0
  -16.1900   -7.9900   33.1530 N   0  0  0  0  0  0
  -16.1380   -9.2470   32.3980 C   0  0  2  0  0  0
  -17.3430   -9.4460   31.4810 C   0  0  0  0  0  0
  -18.3760   -8.8040   31.6640 O   0  0  0  0  0  0
  -16.1210  -10.3140   33.4970 C   0  0  0  0  0  0
  -16.8120   -9.6740   34.6450 C   0  0  0  0  0  0
  -16.4240   -8.2200   34.5890 C   0  0  0  0  0  0
  -17.2030  -10.3450   30.5120 N   0  0  0  0  0  0
  -18.2230  -10.5490   29.4910 C   0  0  2  0  0  0
  -18.8080  -11.9550   29.5410 C   0  0  0  0  0  0
  -18.0780  -12.9360   29.6820 O   0  0  0  0  0  0
  -17.6310  -10.2890   28.1030 C   0  0  0  0  0  0
  -18.5000  -10.6030   26.8830 C   0  0  0  0  0  0
  -19.7470   -9.7320   26.8660 C   0  0  0  0  0  0
  -17.6990  -10.4190   25.6050 C   0  0  0  0  0  0
  -20.1290  -12.0450   29.4240 N   0  0  0  0  0  0
  -20.7990  -13.3360   29.3370 C   0  0  2  0  0  0
  -20.4930  -13.9930   27.9980 C   0  0  0  0  0  0
  -20.5620  -13.3510   26.9490 O   0  0  0  0  0  0
  -22.3150  -13.1750   29.4950 C   0  0  0  0  0  0
  -22.7130  -12.6950   30.8790 C   0  0  0  0  0  0
  -22.5050  -13.4500   31.8520 O   0  0  0  0  0  0
  -23.2490  -11.5730   30.9910 O   0  0  0  0  0  0
  -20.1420  -15.2720   28.0350 N   0  0  0  0  0  0
  -19.9770  -16.0430   26.8130 C   0  0  2  0  0  0
  -21.3330  -16.6140   26.4340 C   0  0  0  0  0  0
  -22.1490  -16.9100   27.3030 O   0  0  0  0  0  0
  -18.9640  -17.1710   27.0130 C   0  0  0  0  0  0
  -17.6970  -16.6590   27.3850 O   0  0  0  0  0  0
  -21.5800  -16.7640   25.1390 N   0  0  0  0  0  0
  -22.8740  -17.2520   24.6840 C   0  0  2  0  0  0
  -22.7850  -18.6520   24.0880 C   0  0  0  0  0  0
  -22.9500  -19.6480   24.7930 O   0  0  0  0  0  0
  -23.5020  -16.2710   23.6910 C   0  0  0  0  0  0
  -24.0700  -14.9980   24.3200 C   0  0  0  0  0  0
  -24.6300  -14.0680   23.2570 C   0  0  0  0  0  0
  -25.1390  -15.3520   25.3420 C   0  0  0  0  0  0
  -22.5150  -18.7250   22.7900 N   0  0  0  0  0  0
  -22.4840  -20.0030   22.0890 C   0  0  2  0  0  0
  -21.3680  -20.9150   22.5950 C   0  0  0  0  0  0
  -20.1960  -20.5400   22.6070 O   0  0  0  0  0  0
  -22.3830  -19.7770   20.5800 C   0  0  0  0  0  0
  -23.4930  -18.9140   20.0680 C   0  0  0  0  0  0
  -24.7070  -19.3300   19.6010 C   0  0  0  0  0  0
  -23.5050  -17.4840   19.9940 C   0  0  0  0  0  0
  -25.4700  -18.2480   19.2320 N   0  0  0  0  0  0
  -24.7530  -17.1000   19.4630 C   0  0  0  0  0  0
  -22.5790  -16.4860   20.3210 C   0  0  0  0  0  0
  -25.1020  -15.7700   19.2530 C   0  0  0  0  0  0
  -22.9250  -15.1640   20.1090 C   0  0  0  0  0  0
  -24.1750  -14.8180   19.5810 C   0  0  0  0  0  0
  -21.7520  -22.1150   23.0200 N   0  0  0  0  0  0
  -20.8150  -23.0750   23.5950 C   0  0  2  0  0  0
  -19.7830  -23.5780   22.5920 C   0  0  0  0  0  0
  -19.9240  -23.3890   21.3840 O   0  0  0  0  0  0
  -21.5670  -24.2790   24.1650 C   0  0  0  0  0  0
  -22.4910  -23.9610   25.2970 C   0  0  0  0  0  0
  -22.1420  -23.5530   26.5500 C   0  0  0  0  0  0
  -23.9220  -24.0550   25.2880 C   0  0  0  0  0  0
  -23.2670  -23.3750   27.3190 N   0  0  0  0  0  0
  -24.3700  -23.6770   26.5690 C   0  0  0  0  0  0
  -24.8640  -24.4190   24.3210 C   0  0  0  0  0  0
  -25.7220  -23.6510   26.9060 C   0  0  0  0  0  0
  -26.2050  -24.3910   24.6600 C   0  0  0  0  0  0
  -26.6210  -24.0090   25.9410 C   0  0  0  0  0  0
  -18.7490  -24.2310   23.1110 N   0  0  0  0  0  0
  -17.7660  -24.9060   22.2780 C   0  0  2  0  0  0
  -18.4270  -26.0580   21.5270 C   0  0  0  0  0  0
  -18.0740  -26.3500   20.3840 O   0  0  0  0  0  0
  -16.6000  -25.4620   23.1210 C   0  0  2  0  0  0
  -15.8050  -24.3210   23.7560 C   0  0  0  0  0  0
  -15.6900  -26.3280   22.2640 C   0  0  0  0  0  0
  -15.1050  -23.4310   22.7490 C   0  0  0  0  0  0
  -19.3260  -26.7180   22.0490 O   0  0  0  0  0  0
  -13.9271   -5.3718   33.2776 H   0  0  0  0  0  0
  -14.7860   -3.9086   33.8675 H   0  0  0  0  0  0
  -14.9125   -4.3897   32.1414 H   0  0  0  0  0  0
  -15.8824   -5.8990   34.5294 H   0  0  0  0  0  0
  -17.1342   -3.7626   33.8322 H   0  0  0  0  0  0
  -17.5054   -4.5886   32.2809 H   0  0  0  0  0  0
  -19.3757   -4.9135   33.9414 H   0  0  0  0  0  0
  -15.2604   -9.2406   31.7348 H   0  0  0  0  0  0
  -16.6525  -11.2107   33.1457 H   0  0  0  0  0  0
  -15.0801  -10.5756   33.7380 H   0  0  0  0  0  0
  -17.8990   -9.8040   34.5374 H   0  0  0  0  0  0
  -16.4776  -10.1431   35.5821 H   0  0  0  0  0  0
  -15.5014   -8.0082   35.1493 H   0  0  0  0  0  0
  -17.2272   -7.5557   34.9406 H   0  0  0  0  0  0
  -16.2812  -10.9450   30.4962 H   0  0  0  0  0  0
  -19.0134   -9.8240   29.7350 H   0  0  0  0  0  0
  -17.3764   -9.2232   28.0068 H   0  0  0  0  0  0
  -16.7231  -10.8961   27.9720 H   0  0  0  0  0  0
  -18.8243  -11.6525   26.9405 H   0  0  0  0  0  0
  -20.3108   -9.8807   27.7987 H   0  0  0  0  0  0
  -20.3770  -10.0104   26.0084 H   0  0  0  0  0  0
  -19.4549   -8.6751   26.7786 H   0  0  0  0  0  0
  -16.8034  -11.0568   25.6386 H   0  0  0  0  0  0
  -17.3958   -9.3658   25.5108 H   0  0  0  0  0  0
  -18.3179  -10.7011   24.7405 H   0  0  0  0  0  0
  -20.7180  -11.1165   29.3933 H   0  0  0  0  0  0
  -20.3911  -13.9365   30.1634 H   0  0  0  0  0  0
  -22.6837  -12.4395   28.7648 H   0  0  0  0  0  0
  -22.8068  -14.1433   29.3203 H   0  0  0  0  0  0
  -22.7831  -13.1288   32.8667 H   0  0  0  0  0  0
  -19.9752  -15.7482   29.0125 H   0  0  0  0  0  0
  -19.6009  -15.3559   26.0407 H   0  0  0  0  0  0
  -19.3178  -17.8450   27.8071 H   0  0  0  0  0  0
  -18.8537  -17.7353   26.0752 H   0  0  0  0  0  0
  -16.8577  -17.3465   27.5664 H   0  0  0  0  0  0
  -20.7972  -16.5162   24.4070 H   0  0  0  0  0  0
  -23.4828  -17.3076   25.5985 H   0  0  0  0  0  0
  -22.7436  -15.9527   22.9606 H   0  0  0  0  0  0
  -24.3335  -16.7633   23.1653 H   0  0  0  0  0  0
  -23.2569  -14.4639   24.8334 H   0  0  0  0  0  0
  -23.8413  -13.8254   22.5296 H   0  0  0  0  0  0
  -24.9885  -13.1426   23.7314 H   0  0  0  0  0  0
  -25.4657  -14.5627   22.7404 H   0  0  0  0  0  0
  -24.7125  -16.0247   26.1006 H   0  0  0  0  0  0
  -25.9775  -15.8537   24.8368 H   0  0  0  0  0  0
  -25.5002  -14.4336   25.8278 H   0  0  0  0  0  0
  -22.3119  -17.7925   22.2429 H   0  0  0  0  0  0
  -23.4436  -20.4820   22.3334 H   0  0  0  0  0  0
  -21.4281  -19.2836   20.3463 H   0  0  0  0  0  0
  -22.4324  -20.7451   20.0601 H   0  0  0  0  0  0
  -25.0250  -20.3702   19.5310 H   0  0  0  0  0  0
  -21.6046  -16.7460   20.7345 H   0  0  0  0  0  0
  -26.0746  -15.4969   18.8437 H   0  0  0  0  0  0
  -22.2123  -14.3775   20.3572 H   0  0  0  0  0  0
  -24.4153  -13.7659   19.4277 H   0  0  0  0  0  0
  -22.8169  -22.3743   22.9264 H   0  0  0  0  0  0
  -20.3047  -22.4948   24.3779 H   0  0  0  0  0  0
  -22.1794  -24.7367   23.3742 H   0  0  0  0  0  0
  -20.8444  -25.0174   24.5427 H   0  0  0  0  0  0
  -21.1197  -23.3915   26.8921 H   0  0  0  0  0  0
  -24.5486  -24.7184   23.3215 H   0  0  0  0  0  0
  -26.0503  -23.3560   27.9026 H   0  0  0  0  0  0
  -26.9510  -24.6714   23.9164 H   0  0  0  0  0  0
  -27.6858  -23.9969   26.1739 H   0  0  0  0  0  0
  -18.6488  -24.2515   24.2062 H   0  0  0  0  0  0
  -17.4075  -24.1313   21.5843 H   0  0  0  0  0  0
  -18.5593  -27.1830   19.8544 H   0  0  0  0  0  0
  -17.0077  -26.0905   23.9265 H   0  0  0  0  0  0
  -16.4835  -23.6825   24.3409 H   0  0  0  0  0  0
  -15.0314  -24.7372   24.4181 H   0  0  0  0  0  0
  -16.2762  -27.1432   21.8148 H   0  0  0  0  0  0
  -14.8915  -26.7525   22.8902 H   0  0  0  0  0  0
  -15.2441  -25.7147   21.4671 H   0  0  0  0  0  0
  -14.5571  -22.6379   23.2790 H   0  0  0  0  0  0
  -15.8509  -22.9772   22.0799 H   0  0  0  0  0  0
  -14.3989  -24.0319   22.1571 H   0  0  0  0  0  0
  1  2  1  0  0  0
  1 81  1  0  0  0
  1 82  1  0  0  0
  1 83  1  0  0  0
  2  3  1  0  0  0
  2  5  1  0  0  0
  2 84  1  0  0  0
  3  4  2  0  0  0
  3  7  1  0  0  0
  5  6  1  0  0  0
  5 85  1  0  0  0
  5 86  1  0  0  0
  6 87  1  0  0  0
  7  8  1  0  0  0
  7 13  1  0  0  0
  8  9  1  0  0  0
  8 11  1  0  0  0
  8 88  1  0  0  0
  9 10  2  0  0  0
  9 14  1  0  0  0
 11 12  1  0  0  0
 11 89  1  0  0  0
 11 90  1  0  0  0
 12 13  1  0  0  0
 12 91  1  0  0  0
 12 92  1  0  0  0
 13 93  1  0  0  0
 13 94  1  0  0  0
 14 15  1  0  0  0
 14 95  1  0  0  0
 15 16  1  0  0  0
 15 18  1  0  0  0
 15 96  1  0  0  0
 16 17  2  0  0  0
 16 22  1  0  0  0
 18 19  1  0  0  0
 18 97  1  0  0  0
 18 98  1  0  0  0
 19 20  1  0  0  0
 19 21  1  0  0  0
 19 99  1  0  0  0
 20100  1  0  0  0
 20101  1  0  0  0
 20102  1  0  0  0
 21103  1  0  0  0
 21104  1  0  0  0
 21105  1  0  0  0
 22 23  1  0  0  0
 22106  1  0  0  0
 23 24  1  0  0  0
 23 26  1  0  0  0
 23107  1  0  0  0
 24 25  2  0  0  0
 24 30  1  0  0  0
 26 27  1  0  0  0
 26108  1  0  0  0
 26109  1  0  0  0
 27 28  1  0  0  0
 27 29  2  0  0  0
 28110  1  0  0  0
 30 31  1  0  0  0
 30111  1  0  0  0
 31 32  1  0  0  0
 31 34  1  0  0  0
 31112  1  0  0  0
 32 33  2  0  0  0
 32 36  1  0  0  0
 34 35  1  0  0  0
 34113  1  0  0  0
 34114  1  0  0  0
 35115  1  0  0  0
 36 37  1  0  0  0
 36116  1  0  0  0
 37 38  1  0  0  0
 37 40  1  0  0  0
 37117  1  0  0  0
 38 39  2  0  0  0
 38 44  1  0  0  0
 40 41  1  0  0  0
 40118  1  0  0  0
 40119  1  0  0  0
 41 42  1  0  0  0
 41 43  1  0  0  0
 41120  1  0  0  0
 42121  1  0  0  0
 42122  1  0  0  0
 42123  1  0  0  0
 43124  1  0  0  0
 43125  1  0  0  0
 43126  1  0  0  0
 44 45  1  0  0  0
 44127  1  0  0  0
 45 46  1  0  0  0
 45 48  1  0  0  0
 45128  1  0  0  0
 46 47  2  0  0  0
 46 58  1  0  0  0
 48 49  1  0  0  0
 48129  1  0  0  0
 48130  1  0  0  0
 49 50  2  0  0  0
 49 51  1  0  0  0
 50 52  1  0  0  0
 50131  1  0  0  0
 51 53  2  0  0  0
 51 54  1  0  0  0
 52 53  1  0  0  0
 53 55  1  0  0  0
 54 56  2  0  0  0
 54132  1  0  0  0
 55 57  2  0  0  0
 55133  1  0  0  0
 56 57  1  0  0  0
 56134  1  0  0  0
 57135  1  0  0  0
 58 59  1  0  0  0
 58136  1  0  0  0
 59 60  1  0  0  0
 59 62  1  0  0  0
 59137  1  0  0  0
 60 61  2  0  0  0
 60 72  1  0  0  0
 62 63  1  0  0  0
 62138  1  0  0  0
 62139  1  0  0  0
 63 64  2  0  0  0
 63 65  1  0  0  0
 64 66  1  0  0  0
 64140  1  0  0  0
 65 67  2  0  0  0
 65 68  1  0  0  0
 66 67  1  0  0  0
 67 69  1  0  0  0
 68 70  2  0  0  0
 68141  1  0  0  0
 69 71  2  0  0  0
 69142  1  0  0  0
 70 71  1  0  0  0
 70143  1  0  0  0
 71144  1  0  0  0
 72 73  1  0  0  0
 72145  1  0  0  0
 73 74  1  0  0  0
 73 76  1  0  0  0
 73146  1  0  0  0
 74 75  1  0  0  0
 74 80  2  0  0  0
 75147  1  0  0  0
 76 77  1  0  0  0
 76 78  1  0  0  0
 76148  1  0  0  0
 77 79  1  0  0  0
 77149  1  0  0  0
 77150  1  0  0  0
 78151  1  0  0  0
 78152  1  0  0  0
 78153  1  0  0  0
 79154  1  0  0  0
 79155  1  0  0  0
 79156  1  0  0  0
M  CHG  1   1   1
M  END
> <s_m_source_file>
../3tjh_ligand.sdf

> <i_m_source_file_index>
1

> <s_epik_input>
W09IXVtDSDJdW0NASF0oW05IMytdKUMoPU8pTjFbQ0BASF0oW0NIMl1bQ0gyXVtDSDJdMSlDKD1PKVtOSF1bQ0BASF0oW0NIMl1bQ0hdKFtDSDNdKVtDSDNdKUMoPU8pW05IXVtDQEBIXShbQ0gyXUMoPU8pW09IXSlDKD1PKVtOSF1bQ0BASF0oW0NIMl1bT0hdKUMoPU8pW05IXVtDQEBIXShbQ0gyXVtDSF0oW0NIM10pW0NIM10pQyg9TylbTkhdW0NAQEhdKFtDSDJdYzJbY0hdW25IXWMoYzIzKVtjSF1bY0hdW2NIXVtjSF0zKUMoPU8pW05IXVtDQEhdKEMoPU8pW05IXVtDQEhdKEMoPU8pW09IXSlbQ0BASF0oW0NIM10pW0NIMl1bQ0gzXSlbQ0gyXWM0W2NIXVtuSF1jKGM0NSlbY0hdW2NIXVtjSF1bY0hdNQ==

> <s_epik_cmdline>
J2VwaWtfYXBwJywgJy1pbWFlJywgJ2xpZ2FuZF9wcm8ubWFlJywgJy1vbWFlJywgJ2xpZ2FuZF9wcmVwLm1hZScsICctbXMnLCAnMScsICctcGgnLCAnNycsICctcGh0JywgJzAuNScsICctbnQn

> <s_epik_pKa_notes>
Molecule size exceeds maximum supported for generating protonation states

$$$$
