3tjm_ligand
                    3D
 Schrodinger Suite 2020-3.
 58 57  0  0  1  0            999 V2000
    3.6210   66.1570   47.7730 C   0  0  0  0  0  0
    3.2590   66.3180   46.0270 P   0  0  0  0  0  0
    4.1580   64.8250   48.1740 C   0  0  0  0  0  0
    2.6040   67.7190   45.6960 O   0  0  0  0  0  0
    4.2120   64.7270   49.6840 C   0  0  0  0  0  0
    2.8210   64.6400   50.2600 C   0  0  0  0  0  0
    2.8430   64.3710   51.7360 C   0  0  0  0  0  0
    2.7280   65.6720   52.4880 C   0  0  0  0  0  0
    2.2810   65.7810   53.7550 C   0  0  0  0  0  0
    1.8280   64.6260   54.6020 C   0  0  0  0  0  0
    0.7860   65.1320   55.5630 C   0  0  0  0  0  0
    1.1900   67.9270   45.7020 C   0  0  0  0  0  0
    0.2620   64.4010   56.5620 C   0  0  0  0  0  0
    0.6600   62.9850   56.8380 C   0  0  0  0  0  0
    0.5630   62.7360   58.3130 C   0  0  0  0  0  0
    0.6190   61.4890   58.8030 C   0  0  0  0  0  0
    1.9420   60.8010   58.9810 C   0  0  0  0  0  0
    1.7860   59.3200   58.8310 C   0  0  0  0  0  0
    1.6580   59.0020   57.3730 C   0  0  0  0  0  0
    0.3340   58.3400   57.1690 C   0  0  0  0  0  0
    0.5540   57.1800   56.2570 C   0  0  0  0  0  0
    2.4100   65.0640   45.5450 O   0  0  0  0  0  0
    4.3740   66.9051   48.0618 H   0  0  0  0  0  0
    2.7015   66.3189   48.3546 H   0  0  0  0  0  0
    3.5038   64.0326   47.7813 H   0  0  0  0  0  0
    5.1715   64.7000   47.7650 H   0  0  0  0  0  0
    4.7745   63.8270   49.9731 H   0  0  0  0  0  0
    4.7115   65.6182   50.0917 H   0  0  0  0  0  0
    2.2940   65.5906   50.0907 H   0  0  0  0  0  0
    2.2712   63.8235   49.7690 H   0  0  0  0  0  0
    1.9984   63.7186   52.0024 H   0  0  0  0  0  0
    3.7878   63.8756   52.0044 H   0  0  0  0  0  0
    3.0382   66.5709   51.9350 H   0  0  0  0  0  0
    2.2297   66.7684   54.2371 H   0  0  0  0  0  0
    1.4011   63.8437   53.9572 H   0  0  0  0  0  0
    2.6869   64.2174   55.1546 H   0  0  0  0  0  0
    0.4554   66.1697   55.4089 H   0  0  0  0  0  0
    0.9723   68.9737   45.4433 H   0  0  0  0  0  0
    0.7912   67.7061   46.7031 H   0  0  0  0  0  0
    0.7183   67.2612   44.9642 H   0  0  0  0  0  0
   -0.4985   64.8401   57.2245 H   0  0  0  0  0  0
   -0.0143   62.3030   56.2993 H   0  0  0  0  0  0
    1.6938   62.8220   56.4992 H   0  0  0  0  0  0
    1.3870   63.2526   58.8270 H   0  0  0  0  0  0
   -0.3987   63.1173   58.6868 H   0  0  0  0  0  0
    0.1769   61.4706   59.8101 H   0  0  0  0  0  0
    0.0578   60.8104   58.1438 H   0  0  0  0  0  0
    2.6496   61.1648   58.2214 H   0  0  0  0  0  0
    2.3368   61.0192   59.9843 H   0  0  0  0  0  0
    2.6683   58.8141   59.2499 H   0  0  0  0  0  0
    0.8846   58.9900   59.3682 H   0  0  0  0  0  0
    1.7156   59.9320   56.7885 H   0  0  0  0  0  0
    2.4738   58.3284   57.0716 H   0  0  0  0  0  0
   -0.0591   57.9999   58.1384 H   0  0  0  0  0  0
   -0.3689   59.0568   56.7194 H   0  0  0  0  0  0
   -0.4020   56.6648   56.0820 H   0  0  0  0  0  0
    1.2680   56.4815   56.7178 H   0  0  0  0  0  0
    0.9582   57.5385   55.2988 H   0  0  0  0  0  0
  1  2  1  0  0  0
  1  3  1  0  0  0
  1 23  1  0  0  0
  1 24  1  0  0  0
  2  4  1  0  0  0
  2 22  1  0  0  0
  3  5  1  0  0  0
  3 25  1  0  0  0
  3 26  1  0  0  0
  4 12  1  0  0  0
  5  6  1  0  0  0
  5 27  1  0  0  0
  5 28  1  0  0  0
  6  7  1  0  0  0
  6 29  1  0  0  0
  6 30  1  0  0  0
  7  8  1  0  0  0
  7 31  1  0  0  0
  7 32  1  0  0  0
  8  9  2  0  0  0
  8 33  1  0  0  0
  9 10  1  0  0  0
  9 34  1  0  0  0
 10 11  1  0  0  0
 10 35  1  0  0  0
 10 36  1  0  0  0
 11 13  2  0  0  0
 11 37  1  0  0  0
 12 38  1  0  0  0
 12 39  1  0  0  0
 12 40  1  0  0  0
 13 14  1  0  0  0
 13 41  1  0  0  0
 14 15  1  0  0  0
 14 42  1  0  0  0
 14 43  1  0  0  0
 15 16  1  0  0  0
 15 44  1  0  0  0
 15 45  1  0  0  0
 16 17  1  0  0  0
 16 46  1  0  0  0
 16 47  1  0  0  0
 17 18  1  0  0  0
 17 48  1  0  0  0
 17 49  1  0  0  0
 18 19  1  0  0  0
 18 50  1  0  0  0
 18 51  1  0  0  0
 19 20  1  0  0  0
 19 52  1  0  0  0
 19 53  1  0  0  0
 20 21  1  0  0  0
 20 54  1  0  0  0
 20 55  1  0  0  0
 21 56  1  0  0  0
 21 57  1  0  0  0
 21 58  1  0  0  0
M  END
> <s_m_source_file>
../3tjm_ligand.sdf

> <i_m_source_file_index>
1

> <s_epik_input>
W0NIM11PUChbT0hdKVtDSDJdW0NIMl1bQ0gyXVtDSDJdW0NIMl0vW0NIXT1bQ0hdXFtDSDJdL1tDSF09W0NIXVxbQ0gyXVtDSDJdW0NIMl1bQ0gyXVtDSDJdW0NIMl1bQ0gyXVtDSDNd

> <s_epik_cmdline>
J2VwaWtfYXBwJywgJy1pbWFlJywgJ2xpZ2FuZF9wcm8ubWFlJywgJy1vbWFlJywgJ2xpZ2FuZF9wcmVwLm1hZScsICctbXMnLCAnMScsICctcGgnLCAnNycsICctcGh0JywgJzAuNScsICctbnQn

> <r_lp_tautomer_probability>
1

> <r_epik_Ionization_Penalty>
  0.0000

> <r_epik_Ionization_Penalty_Charging>
  0.0000

> <r_epik_Ionization_Penalty_Neutral>
  0.0000

> <r_epik_State_Penalty>
 -0.0000

> <r_epik_Charging_Adjusted_Penalty>
0

> <i_epik_Tot_Q>
0

> <i_epik_Tot_abs_Q>
0

$$$$
