3tk2_ligand
                    3D
 Schrodinger Suite 2020-3.
 23 23  0  0  1  0            999 V2000
    5.0910   -8.0660  -17.0100 N   0  3  0  0  0  0
    6.1950   -7.7130  -16.0650 C   0  0  2  0  0  0
    7.4980   -8.3110  -16.5690 C   0  0  0  0  0  0
    8.4770   -8.4640  -15.8120 O   0  5  0  0  0  0
    5.9930   -8.2650  -14.6590 C   0  0  0  0  0  0
    5.0510   -7.4180  -13.8680 C   0  0  0  0  0  0
    3.6960   -7.8150  -13.7200 C   0  0  0  0  0  0
    5.5270   -6.2140  -13.3290 C   0  0  0  0  0  0
    2.8040   -6.9950  -13.0240 C   0  0  0  0  0  0
    4.6010   -5.3860  -12.6400 C   0  0  0  0  0  0
    3.2500   -5.7760  -12.4830 C   0  0  0  0  0  0
    7.6000   -8.6650  -17.7130 O   0  0  0  0  0  0
    5.3041   -7.6360  -17.9998 H   0  0  0  0  0  0
    4.1408   -7.6614  -16.6313 H   0  0  0  0  0  0
    5.0161   -9.1602  -17.0940 H   0  0  0  0  0  0
    6.1972   -6.6135  -16.0335 H   0  0  0  0  0  0
    5.5785   -9.2821  -14.7205 H   0  0  0  0  0  0
    6.9593   -8.2940  -14.1341 H   0  0  0  0  0  0
    3.3525   -8.7567  -14.1481 H   0  0  0  0  0  0
    6.5722   -5.9234  -13.4352 H   0  0  0  0  0  0
    1.7647   -7.2995  -12.9007 H   0  0  0  0  0  0
    4.9365   -4.4352  -12.2257 H   0  0  0  0  0  0
    2.5556   -5.1322  -11.9432 H   0  0  0  0  0  0
  1  2  1  0  0  0
  1 13  1  0  0  0
  1 14  1  0  0  0
  1 15  1  0  0  0
  2  3  1  0  0  0
  2  5  1  0  0  0
  2 16  1  0  0  0
  3  4  1  0  0  0
  3 12  2  0  0  0
  5  6  1  0  0  0
  5 17  1  0  0  0
  5 18  1  0  0  0
  6  7  2  0  0  0
  6  8  1  0  0  0
  7  9  1  0  0  0
  7 19  1  0  0  0
  8 10  2  0  0  0
  8 20  1  0  0  0
  9 11  2  0  0  0
  9 21  1  0  0  0
 10 11  1  0  0  0
 10 22  1  0  0  0
 11 23  1  0  0  0
M  CHG  2   1   1   4  -1
M  END
> <s_m_source_file>
../3tk2_ligand.sdf

> <i_m_source_file_index>
1

> <s_epik_input>
W09IXUMoPU8pW0NAQEhdKFtOSDMrXSlbQ0gyXWMxW2NIXVtjSF1bY0hdW2NIXVtjSF0x

> <s_epik_cmdline>
J2VwaWtfYXBwJywgJy1pbWFlJywgJ2xpZ2FuZF9wcm8ubWFlJywgJy1vbWFlJywgJ2xpZ2FuZF9wcmVwLm1hZScsICctbXMnLCAnMScsICctcGgnLCAnNycsICctcGh0JywgJzAuNScsICctbnQn

> <r_lp_tautomer_probability>
1

> <r_epik_Ionization_Penalty>
  0.0030

> <r_epik_Ionization_Penalty_Charging>
  0.0030

> <r_epik_Ionization_Penalty_Neutral>
  0.0000

> <r_epik_State_Penalty>
 -0.0000

> <r_epik_Charging_Adjusted_Penalty>
0.00304771503799203

> <i_epik_Tot_Q>
0

> <i_epik_Tot_abs_Q>
2

$$$$
