3tki_ligand
                    3D
 Schrodinger Suite 2020-3.
 55 58  0  0  1  0            999 V2000
   23.5040   -2.7800    8.0990 C   0  0  0  0  0  0
   22.5550   -1.6670    8.0230 N   0  0  0  0  0  0
   23.7560   -2.5540    5.7210 O   0  0  0  0  0  0
   15.9950   -1.5420   10.1210 S   0  0  0  0  0  0
   23.5330   -3.5060    6.7670 C   0  0  0  0  0  0
   22.6500   -1.6520    5.6010 C   0  0  0  0  0  0
   22.5820   -0.7910    6.8510 C   0  0  0  0  0  0
   13.3620   -1.1200   10.9120 C   0  0  0  0  0  0
   13.3150   -2.3430   11.5720 C   0  0  0  0  0  0
   12.2170   -2.5940   12.3860 C   0  0  0  0  0  0
   11.2350   -1.6320   12.4890 C   0  0  0  0  0  0
   11.2400   -0.4490   11.8520 N   0  0  0  0  0  0
   12.3260   -0.2260   11.1010 C   0  0  0  0  0  0
   16.7370   -0.2540    9.2330 C   0  0  0  0  0  0
   14.5080   -0.6780   10.1340 C   0  0  0  0  0  0
   14.6770    0.5110    9.4520 C   0  0  0  0  0  0
   15.9260    0.7410    8.9430 N   0  0  0  0  0  0
   21.0320   -3.0120    9.3910 C   0  0  0  0  0  0
   19.7940   -3.1500    9.9780 C   0  0  0  0  0  0
   18.7930   -2.2740    9.8470 N   0  3  0  0  0  0
   19.0090   -1.2020    9.0760 C   0  0  0  0  0  0
   20.2350   -0.9920    8.4730 C   0  0  0  0  0  0
   21.2750   -1.8990    8.6070 C   0  0  0  0  0  0
   18.0420   -0.2130    8.8430 N   0  0  0  0  0  0
   12.0230   -3.8400   13.1550 C   0  0  0  0  0  0
   10.9660   -3.9920   13.7680 O   0  0  0  0  0  0
   13.0790   -4.7220   13.1570 N   0  0  0  0  0  0
   13.0040   -5.9670   13.8920 C   0  0  0  0  0  0
   14.1020   -6.0830   14.9330 C   0  0  0  0  0  0
   14.1750   -4.8330   15.7470 N   0  3  0  0  0  0
   24.5072   -2.3915    8.3286 H   0  0  0  0  0  0
   23.1903   -3.4759    8.8910 H   0  0  0  0  0  0
   24.3447   -4.2484    6.7717 H   0  0  0  0  0  0
   22.5713   -4.0152    6.6059 H   0  0  0  0  0  0
   22.7916   -1.0139    4.7163 H   0  0  0  0  0  0
   21.7182   -2.2266    5.4932 H   0  0  0  0  0  0
   21.6703   -0.1759    6.8319 H   0  0  0  0  0  0
   23.4647   -0.1367    6.9025 H   0  0  0  0  0  0
   14.1109   -3.0785   11.4551 H   0  0  0  0  0  0
   10.3871   -1.8483   13.1389 H   0  0  0  0  0  0
   12.3984    0.7385   10.5984 H   0  0  0  0  0  0
   13.8627    1.2247    9.3265 H   0  0  0  0  0  0
   21.8053   -3.7653    9.5414 H   0  0  0  0  0  0
   19.6184   -4.0338   10.5913 H   0  0  0  0  0  0
   20.3878   -0.0917    7.8779 H   0  0  0  0  0  0
   18.4235    0.6576    8.2893 H   0  0  0  0  0  0
   13.9883   -4.4714   12.5909 H   0  0  0  0  0  0
   12.0347   -6.0302   14.4083 H   0  0  0  0  0  0
   13.1034   -6.8114   13.1941 H   0  0  0  0  0  0
   13.8890   -6.9334   15.5974 H   0  0  0  0  0  0
   15.0677   -6.2428   14.4311 H   0  0  0  0  0  0
   14.9739   -4.9300   16.4969 H   0  0  0  0  0  0
   13.2131   -4.6695   16.2549 H   0  0  0  0  0  0
   14.3918   -3.9789   15.0886 H   0  0  0  0  0  0
   17.8376   -2.4494   10.3631 H   0  0  0  0  0  0
  1  2  1  0  0  0
  1  5  1  0  0  0
  1 31  1  0  0  0
  1 32  1  0  0  0
  2  7  1  0  0  0
  2 23  1  0  0  0
  3  5  1  0  0  0
  3  6  1  0  0  0
  4 14  1  0  0  0
  4 15  1  0  0  0
  5 33  1  0  0  0
  5 34  1  0  0  0
  6  7  1  0  0  0
  6 35  1  0  0  0
  6 36  1  0  0  0
  7 37  1  0  0  0
  7 38  1  0  0  0
  8  9  2  0  0  0
  8 13  1  0  0  0
  8 15  1  0  0  0
  9 10  1  0  0  0
  9 39  1  0  0  0
 10 11  2  0  0  0
 10 25  1  0  0  0
 11 12  1  0  0  0
 11 40  1  0  0  0
 12 13  2  0  0  0
 13 41  1  0  0  0
 14 17  2  0  0  0
 14 24  1  0  0  0
 15 16  2  0  0  0
 16 17  1  0  0  0
 16 42  1  0  0  0
 18 19  2  0  0  0
 18 23  1  0  0  0
 18 43  1  0  0  0
 19 20  1  0  0  0
 19 44  1  0  0  0
 20 21  2  0  0  0
 20 55  1  0  0  0
 21 22  1  0  0  0
 21 24  1  0  0  0
 22 23  2  0  0  0
 22 45  1  0  0  0
 24 46  1  0  0  0
 25 26  2  0  0  0
 25 27  1  0  0  0
 27 28  1  0  0  0
 27 47  1  0  0  0
 28 29  1  0  0  0
 28 48  1  0  0  0
 28 49  1  0  0  0
 29 30  1  0  0  0
 29 50  1  0  0  0
 29 51  1  0  0  0
 30 52  1  0  0  0
 30 53  1  0  0  0
 30 54  1  0  0  0
M  CHG  2  20   1  30   1
M  END
> <s_m_source_file>
../3tki_ligand.sdf

> <i_m_source_file_index>
1

> <s_epik_input>
W0NIMl0xW0NIMl1PW0NIMl1bQ0gyXU4xYyhbY0hdMilbY0hdW2NIXW5jMltOSF1jM3NjKFtjSF1uMyktYzRbY0hdYyhbY0hdbltjSF00KUMoPU8pW05IXVtDSDJdW0NIMl1bTkgzK10=

> <s_epik_cmdline>
J2VwaWtfYXBwJywgJy1pbWFlJywgJ2xpZ2FuZF9wcm8ubWFlJywgJy1vbWFlJywgJ2xpZ2FuZF9wcmVwLm1hZScsICctbXMnLCAnMScsICctcGgnLCAnNycsICctcGh0JywgJzAuNScsICctbnQn

> <r_lp_tautomer_probability>
0.999993852037798

> <r_epik_Ionization_Penalty>
  0.1742

> <r_epik_Ionization_Penalty_Charging>
  0.1742

> <r_epik_Ionization_Penalty_Neutral>
  0.0001

> <r_epik_State_Penalty>
  0.1611

> <r_epik_Charging_Adjusted_Penalty>
0.335223424140241

> <i_epik_Tot_Q>
2

> <i_epik_Tot_abs_Q>
2

$$$$
