3tkm_ligand
                    3D
 Schrodinger Suite 2020-3.
 47 49  0  0  1  0            999 V2000
    4.8670    6.9830   29.2390 C   0  0  0  0  0  0
   10.9620    4.7300   26.7940 C   0  0  0  0  0  0
    7.0120   10.9350   24.9670 O   0  0  0  0  0  0
    5.3840    9.6060   24.9310 O   0  5  0  0  0  0
   12.8320    3.7960   33.9580 F   0  0  0  0  0  0
   11.4840    3.4920   36.1250 F   0  0  0  0  0  0
   10.4250    1.8530   36.1910 F   0  0  0  0  0  0
   12.3150    1.7620   35.7210 F   0  0  0  0  0  0
    7.2190    5.8440   25.9160 C   0  0  0  0  0  0
    9.7860    2.1920   32.1300 C   0  0  0  0  0  0
    6.9770    7.1720   26.1770 C   0  0  0  0  0  0
    9.9320    2.0030   33.4830 C   0  0  0  0  0  0
    5.9410    5.2770   27.7940 C   0  0  0  0  0  0
   11.7070    3.5050   31.9840 C   0  0  0  0  0  0
    6.6530    9.7730   26.9060 C   0  0  0  0  0  0
    8.7230    2.9860   26.4070 C   0  0  0  0  0  0
   11.0100    3.9220   29.1750 N   0  0  0  0  0  0
    5.9490    8.7930   27.5210 O   0  0  0  0  0  0
    6.9190    3.1820   26.4680 S   0  0  0  0  0  0
    9.1840    2.3510   29.1170 S   0  0  0  0  0  0
    6.3030   10.1300   25.4930 C   0  0  0  0  0  0
    5.7100    6.5970   28.0570 C   0  0  0  0  0  0
   10.4940    3.9240   27.9640 C   0  0  0  0  0  0
    6.6960    4.8760   26.7250 C   0  0  0  0  0  0
   11.8430    3.3000   33.3200 C   0  0  0  0  0  0
   10.6590    2.9160   31.3470 C   0  0  0  0  0  0
    6.2170    7.5460   27.2430 C   0  0  0  0  0  0
    9.4470    3.1190   27.7460 C   0  0  0  0  0  0
   10.9900    2.5910   34.0770 C   0  0  0  0  0  0
   10.4050    3.1160   29.9940 C   0  0  0  0  0  0
   11.3030    2.4440   35.5620 C   0  0  0  0  0  0
    4.5501    6.0763   29.7751 H   0  0  0  0  0  0
    3.9797    7.5331   28.8925 H   0  0  0  0  0  0
    5.4540    7.6223   29.9148 H   0  0  0  0  0  0
   11.8211    5.3478   27.0945 H   0  0  0  0  0  0
   10.1458    5.3808   26.4471 H   0  0  0  0  0  0
   11.2632    4.0541   25.9801 H   0  0  0  0  0  0
    7.8312    5.5624   25.0593 H   0  0  0  0  0  0
    8.9221    1.7391   31.6434 H   0  0  0  0  0  0
    7.3987    7.9348   25.5225 H   0  0  0  0  0  0
    9.2223    1.4028   34.0524 H   0  0  0  0  0  0
    5.5125    4.5222   28.4533 H   0  0  0  0  0  0
   12.4180    4.1244   31.4373 H   0  0  0  0  0  0
    6.5413   10.7123   27.4675 H   0  0  0  0  0  0
    7.7160    9.4925   26.8683 H   0  0  0  0  0  0
    8.9703    1.9866   26.0196 H   0  0  0  0  0  0
    9.1530    3.7525   25.7454 H   0  0  0  0  0  0
  1 22  1  0  0  0
  1 32  1  0  0  0
  1 33  1  0  0  0
  1 34  1  0  0  0
  2 23  1  0  0  0
  2 35  1  0  0  0
  2 36  1  0  0  0
  2 37  1  0  0  0
  3 21  2  0  0  0
  4 21  1  0  0  0
  5 25  1  0  0  0
  6 31  1  0  0  0
  7 31  1  0  0  0
  8 31  1  0  0  0
  9 11  2  0  0  0
  9 24  1  0  0  0
  9 38  1  0  0  0
 10 12  2  0  0  0
 10 26  1  0  0  0
 10 39  1  0  0  0
 11 27  1  0  0  0
 11 40  1  0  0  0
 12 29  1  0  0  0
 12 41  1  0  0  0
 13 22  1  0  0  0
 13 24  2  0  0  0
 13 42  1  0  0  0
 14 25  1  0  0  0
 14 26  2  0  0  0
 14 43  1  0  0  0
 15 18  1  0  0  0
 15 21  1  0  0  0
 15 44  1  0  0  0
 15 45  1  0  0  0
 16 19  1  0  0  0
 16 28  1  0  0  0
 16 46  1  0  0  0
 16 47  1  0  0  0
 17 23  1  0  0  0
 17 30  2  0  0  0
 18 27  1  0  0  0
 19 24  1  0  0  0
 20 28  1  0  0  0
 20 30  1  0  0  0
 22 27  2  0  0  0
 23 28  2  0  0  0
 25 29  2  0  0  0
 26 30  1  0  0  0
 29 31  1  0  0  0
M  CHG  1   4  -1
M  END
> <s_m_source_file>
../3tkm_ligand.sdf

> <i_m_source_file_index>
1

> <s_epik_input>
Tz1DKFtPSF0pW0NIMl1PYzFbY0hdW2NIXWMoW2NIXWMxW0NIM10pU1tDSDJdYzJzYyhuYzJbQ0gzXSktYyhbY0hdYzNGKVtjSF1bY0hdYzNDKEYpKEYpRg==

> <s_epik_cmdline>
J2VwaWtfYXBwJywgJy1pbWFlJywgJ2xpZ2FuZF9wcm8ubWFlJywgJy1vbWFlJywgJ2xpZ2FuZF9wcmVwLm1hZScsICctbXMnLCAnMScsICctcGgnLCAnNycsICctcGh0JywgJzAuNScsICctbnQn

> <r_lp_tautomer_probability>
1

> <r_epik_Ionization_Penalty>
  0.0001

> <r_epik_Ionization_Penalty_Charging>
  0.0001

> <r_epik_Ionization_Penalty_Neutral>
  0.0000

> <r_epik_State_Penalty>
 -0.0000

> <r_epik_Charging_Adjusted_Penalty>
9.04618265869122e-05

> <i_epik_Tot_Q>
-1

> <i_epik_Tot_abs_Q>
1

$$$$
