3tkw_ligand
                    3D
 Schrodinger Suite 2020-3.
 75 78  0  0  1  0            999 V2000
  -16.8750   26.1950  -21.1310 N   0  0  0  0  0  0
  -15.9990   25.5120  -20.4360 C   0  0  0  0  0  0
  -15.5820   24.3470  -21.0680 C   0  0  0  0  0  0
  -14.6470   23.5180  -20.4380 C   0  0  0  0  0  0
  -14.1450   23.8660  -19.1950 C   0  0  0  0  0  0
  -14.5510   25.0220  -18.5550 C   0  0  0  0  0  0
  -15.4810   25.8450  -19.1810 C   0  0  0  0  0  0
  -12.9690   22.8620  -18.3610 S   0  0  0  0  0  0
  -11.9750   22.3610  -19.3540 O   0  0  0  0  0  0
  -12.3610   23.6910  -17.2770 O   0  0  0  0  0  0
  -13.7060   21.5720  -17.7020 N   0  0  1  0  0  0
  -14.8000   21.8230  -16.7950 C   0  0  0  0  0  0
  -14.7620   20.8190  -15.6420 C   0  0  0  0  0  0
  -13.4030   20.8610  -14.9230 C   0  0  0  0  0  0
  -15.9180   21.0490  -14.6610 C   0  0  0  0  0  0
  -13.9340   20.5210  -18.6830 C   0  0  0  0  0  0
  -13.1620   19.2550  -18.3170 C   0  0  1  0  0  0
  -13.6170   18.1480  -19.1090 O   0  0  0  0  0  0
  -11.6500   19.3880  -18.5590 C   0  0  1  0  0  0
  -11.0230   18.2120  -17.9500 N   0  0  0  0  0  0
  -10.1500   18.2790  -16.9390 C   0  0  0  0  0  0
   -9.8550   19.3480  -16.4010 O   0  0  0  0  0  0
   -9.6010   17.1200  -16.5390 O   0  0  0  0  0  0
   -8.5260   17.0920  -15.6360 C   0  0  1  0  0  0
   -8.7100   15.8470  -14.7530 C   0  0  0  0  0  0
   -8.2900   14.7780  -15.6160 O   0  0  0  0  0  0
   -7.1900   15.2470  -16.3940 C   0  0  1  0  0  0
   -7.3580   14.8840  -17.7770 O   0  0  0  0  0  0
   -7.6450   16.0470  -18.5340 C   0  0  0  0  0  0
   -7.0730   17.2360  -17.7570 C   0  0  0  0  0  0
   -7.1770   16.7660  -16.2940 C   0  0  1  0  0  0
  -11.3390   19.4330  -20.0590 C   0  0  0  0  0  0
   -9.1180   18.4550  -20.7980 C   0  0  0  0  0  0
   -7.7400   18.5460  -20.9540 C   0  0  0  0  0  0
   -7.0640   19.6970  -20.5670 C   0  0  0  0  0  0
   -7.7860   20.7660  -20.0520 C   0  0  0  0  0  0
   -9.1640   20.6950  -19.8970 C   0  0  0  0  0  0
   -9.8250   19.5350  -20.2800 C   0  0  0  0  0  0
  -17.2065   25.8259  -22.1128 H   0  0  0  0  0  0
  -17.2789   27.1374  -20.7327 H   0  0  0  0  0  0
  -15.9801   24.0808  -22.0471 H   0  0  0  0  0  0
  -14.3147   22.6008  -20.9243 H   0  0  0  0  0  0
  -14.1491   25.2841  -17.5763 H   0  0  0  0  0  0
  -15.8096   26.7597  -18.6877 H   0  0  0  0  0  0
  -14.7147   22.8425  -16.3909 H   0  0  0  0  0  0
  -15.7537   21.7207  -17.3336 H   0  0  0  0  0  0
  -14.8918   19.8150  -16.0724 H   0  0  0  0  0  0
  -12.5969   20.6931  -15.6524 H   0  0  0  0  0  0
  -13.3708   20.0755  -14.1536 H   0  0  0  0  0  0
  -13.2693   21.8445  -14.4488 H   0  0  0  0  0  0
  -16.8733   21.0130  -15.2051 H   0  0  0  0  0  0
  -15.8042   22.0340  -14.1847 H   0  0  0  0  0  0
  -15.9057   20.2650  -13.8895 H   0  0  0  0  0  0
  -15.0069   20.2816  -18.7212 H   0  0  0  0  0  0
  -13.5996   20.8646  -19.6730 H   0  0  0  0  0  0
  -13.3770   19.0347  -17.2609 H   0  0  0  0  0  0
  -14.6790   17.8617  -19.0954 H   0  0  0  0  0  0
  -11.2380   20.2953  -18.0931 H   0  0  0  0  0  0
  -11.2634   17.2054  -18.3229 H   0  0  0  0  0  0
   -8.5847   18.0976  -15.1941 H   0  0  0  0  0  0
   -8.0817   15.9385  -13.8548 H   0  0  0  0  0  0
   -9.7654   15.7615  -14.4550 H   0  0  0  0  0  0
   -6.2801   14.7489  -16.0279 H   0  0  0  0  0  0
   -7.1733   15.9655  -19.5244 H   0  0  0  0  0  0
   -8.7339   16.1472  -18.6536 H   0  0  0  0  0  0
   -6.0348   17.4154  -18.0733 H   0  0  0  0  0  0
   -7.6781   18.1319  -17.9599 H   0  0  0  0  0  0
   -6.3678   17.2311  -15.7119 H   0  0  0  0  0  0
  -11.7130   18.5165  -20.5386 H   0  0  0  0  0  0
  -11.8295   20.3087  -20.5091 H   0  0  0  0  0  0
   -9.6421   17.5419  -21.0802 H   0  0  0  0  0  0
   -7.1865   17.7103  -21.3821 H   0  0  0  0  0  0
   -5.9804   19.7601  -20.6664 H   0  0  0  0  0  0
   -7.2614   21.6771  -19.7643 H   0  0  0  0  0  0
   -9.7183   21.5364  -19.4813 H   0  0  0  0  0  0
  1  2  1  0  0  0
  1 39  1  0  0  0
  1 40  1  0  0  0
  2  3  2  0  0  0
  2  7  1  0  0  0
  3  4  1  0  0  0
  3 41  1  0  0  0
  4  5  2  0  0  0
  4 42  1  0  0  0
  5  6  1  0  0  0
  5  8  1  0  0  0
  6  7  2  0  0  0
  6 43  1  0  0  0
  7 44  1  0  0  0
  8  9  2  0  0  0
  8 10  2  0  0  0
  8 11  1  0  0  0
 11 12  1  0  0  0
 11 16  1  0  0  0
 12 13  1  0  0  0
 12 45  1  0  0  0
 12 46  1  0  0  0
 13 14  1  0  0  0
 13 15  1  0  0  0
 13 47  1  0  0  0
 14 48  1  0  0  0
 14 49  1  0  0  0
 14 50  1  0  0  0
 15 51  1  0  0  0
 15 52  1  0  0  0
 15 53  1  0  0  0
 16 17  1  0  0  0
 16 54  1  0  0  0
 16 55  1  0  0  0
 17 18  1  0  0  0
 17 19  1  0  0  0
 17 56  1  0  0  0
 18 57  1  0  0  0
 19 20  1  0  0  0
 19 32  1  0  0  0
 19 58  1  0  0  0
 20 21  1  0  0  0
 20 59  1  0  0  0
 21 22  2  0  0  0
 21 23  1  0  0  0
 23 24  1  0  0  0
 24 25  1  0  0  0
 24 31  1  0  0  0
 24 60  1  0  0  0
 25 26  1  0  0  0
 25 61  1  0  0  0
 25 62  1  0  0  0
 26 27  1  0  0  0
 27 28  1  0  0  0
 27 31  1  0  0  0
 27 63  1  0  0  0
 28 29  1  0  0  0
 29 30  1  0  0  0
 29 64  1  0  0  0
 29 65  1  0  0  0
 30 31  1  0  0  0
 30 66  1  0  0  0
 30 67  1  0  0  0
 31 68  1  0  0  0
 32 38  1  0  0  0
 32 69  1  0  0  0
 32 70  1  0  0  0
 33 34  2  0  0  0
 33 38  1  0  0  0
 33 71  1  0  0  0
 34 35  1  0  0  0
 34 72  1  0  0  0
 35 36  2  0  0  0
 35 73  1  0  0  0
 36 37  1  0  0  0
 36 74  1  0  0  0
 37 38  2  0  0  0
 37 75  1  0  0  0
M  END
> <s_m_source_file>
../3tkw_ligand.sdf

> <i_m_source_file_index>
1

> <s_epik_input>
W05IMl1jMVtjSF1bY0hdYyhbY0hdW2NIXTEpUyg9TykoPU8pTihbQ0gyXVtDSF0oW0NIM10pW0NIM10pW0NIMl1bQ0BASF0oW09IXSlbQ0BASF0oW05IXUMoPU8pT1tDQEBIXShbQ0gyXU8yKVtDQEBIXShbQ0BASF0yMylbQ0gyXVtDSDJdTzMpW0NIMl1jNFtjSF1bY0hdW2NIXVtjSF1bY0hdNA==

> <s_epik_cmdline>
J2VwaWtfYXBwJywgJy1pbWFlJywgJ2xpZ2FuZF9wcm8ubWFlJywgJy1vbWFlJywgJ2xpZ2FuZF9wcmVwLm1hZScsICctbXMnLCAnMScsICctcGgnLCAnNycsICctcGh0JywgJzAuNScsICctbnQn

> <r_lp_tautomer_probability>
1

> <r_epik_Ionization_Penalty>
  0.0000

> <r_epik_Ionization_Penalty_Charging>
  0.0000

> <r_epik_Ionization_Penalty_Neutral>
  0.0000

> <r_epik_State_Penalty>
 -0.0000

> <r_epik_Charging_Adjusted_Penalty>
0

> <i_epik_Tot_Q>
0

> <i_epik_Tot_abs_Q>
0

> <s_epik_Chemistry_Notes>
This compound has an ester and may undergo hydrolysis at high or low pH. This compound contains an acetal/aminal-like group ( X-CH(R)-Y where X, Y are N, S, or O) that may be acid/base labile, releasing an aldehyde.

$$$$
