3tkz_ligand
                    3D
 Schrodinger Suite 2020-3.
131133  0  0  1  0            999 V2000
   10.5460   21.7990   29.1110 N   0  3  0  0  0  0
   10.3990   20.9960   27.8530 C   0  0  2  0  0  0
   11.4780   19.9000   27.7120 C   0  0  0  0  0  0
   12.6740   20.1310   27.9470 O   0  0  0  0  0  0
   10.2980   21.9050   26.5760 C   0  0  0  0  0  0
    9.8570   23.3290   26.9220 C   0  0  0  0  0  0
   11.5850   21.9210   25.8040 C   0  0  0  0  0  0
   11.0480   18.6970   27.3500 N   0  0  0  0  0  0
   11.9690   17.5780   27.1890 C   0  0  2  0  0  0
   12.4500   17.4070   25.7190 C   0  0  0  0  0  0
   11.6530   17.0370   24.8160 O   0  0  0  0  0  0
   11.3590   16.2590   27.6790 C   0  0  2  0  0  0
   10.8680   16.3940   29.1530 C   0  0  0  0  0  0
   12.3550   15.1030   27.4580 C   0  0  0  0  0  0
    9.5020   15.6620   29.4790 C   0  0  0  0  0  0
   13.7540   17.6540   25.5210 N   0  0  0  0  0  0
   14.4480   17.4250   24.2470 C   0  0  2  0  0  0
   14.9020   16.0040   24.1620 C   0  0  0  0  0  0
   15.2960   15.3870   25.1630 O   0  0  0  0  0  0
   15.6390   18.3620   23.9560 C   0  0  0  0  0  0
   15.1450   19.6810   23.4840 C   0  0  0  0  0  0
   14.6660   20.5970   24.3830 C   0  0  0  0  0  0
   15.0360   19.9740   22.1220 C   0  0  0  0  0  0
   14.1620   21.8070   23.9660 C   0  0  0  0  0  0
   14.5290   21.1890   21.7010 C   0  0  0  0  0  0
   14.0960   22.1110   22.6100 C   0  0  0  0  0  0
   13.5770   23.2210   22.3130 O   0  0  0  0  0  0
   14.3280   24.5730   21.7720 P   0  0  0  0  0  0
   15.0020   24.1170   20.5300 O   0  0  0  0  0  0
   13.4500   25.7890   21.6180 O   0  5  0  0  0  0
   15.4320   24.9050   22.8330 O   0  5  0  0  0  0
   14.8090   15.4560   22.9770 N   0  0  0  0  0  0
   15.4590   14.2250   22.6880 C   0  0  2  0  0  0
   16.5740   14.5890   21.7450 C   0  0  0  0  0  0
   16.4170   15.5230   20.9380 O   0  0  0  0  0  0
   14.5050   13.2410   22.0550 C   0  0  0  0  0  0
   13.6970   12.4550   23.0700 C   0  0  0  0  0  0
   13.4800   11.0850   22.8970 C   0  0  0  0  0  0
   13.1730   13.0880   24.2060 C   0  0  0  0  0  0
   12.7200   10.3480   23.8380 C   0  0  0  0  0  0
   12.4220   12.3690   25.1580 C   0  0  0  0  0  0
   12.2030   10.9940   24.9710 C   0  0  0  0  0  0
   17.6840   13.8640   21.8680 N   0  0  0  0  0  0
   18.9400   14.1400   21.1490 C   0  0  2  0  0  0
   19.3540   12.7880   20.6030 C   0  0  0  0  0  0
   19.0570   11.7680   21.2420 O   0  0  0  0  0  0
   20.0320   14.7620   22.0920 C   0  0  0  0  0  0
   19.6630   16.2040   22.5120 C   0  0  0  0  0  0
   20.2400   13.8960   23.3610 C   0  0  0  0  0  0
   19.9720   12.7450   19.3930 N   0  0  0  0  0  0
   20.3740   11.4760   18.7350 C   0  0  2  0  0  0
   21.4990   10.7700   19.5170 C   0  0  0  0  0  0
   22.1080   11.3970   20.3980 O   0  0  0  0  0  0
   20.8870   11.9180   17.3580 C   0  0  0  0  0  0
   20.4420   13.3080   17.1990 C   0  0  0  0  0  0
   20.2430   13.9230   18.5420 C   0  0  0  0  0  0
   21.7550    9.4990   19.1970 N   0  0  0  0  0  0
   22.6400    8.6390   20.0090 C   0  0  2  0  0  0
   24.1480    8.8180   19.7290 C   0  0  0  0  0  0
   24.6340    8.6800   18.5740 O   0  5  0  0  0  0
   22.2170    7.1690   19.8580 C   0  0  0  0  0  0
   22.4150    6.2360   21.0590 C   0  0  0  0  0  0
   22.1670    6.9640   22.4230 C   0  0  0  0  0  0
   21.5670    4.9580   20.9110 C   0  0  0  0  0  0
   24.9160    9.1109   20.6839 O   0  0  0  0  0  0
   10.6124   21.1199   29.9738 H   0  0  0  0  0  0
    9.6733   22.4580   29.2294 H   0  0  0  0  0  0
   11.4601   22.4080   29.0525 H   0  0  0  0  0  0
    9.4416   20.4718   27.9892 H   0  0  0  0  0  0
    9.5429   21.4816   25.8974 H   0  0  0  0  0  0
    8.9136   23.2937   27.4866 H   0  0  0  0  0  0
    9.7084   23.9022   25.9950 H   0  0  0  0  0  0
   10.6321   23.8146   27.5331 H   0  0  0  0  0  0
   11.8828   20.8891   25.5663 H   0  0  0  0  0  0
   12.3695   22.3990   26.4090 H   0  0  0  0  0  0
   11.4458   22.4866   24.8709 H   0  0  0  0  0  0
    9.9722   18.5541   27.1707 H   0  0  0  0  0  0
   12.8045   17.8732   27.8407 H   0  0  0  0  0  0
   10.4725   16.0221   27.0724 H   0  0  0  0  0  0
   11.6215   15.9668   29.8310 H   0  0  0  0  0  0
   10.7187   17.4569   29.3939 H   0  0  0  0  0  0
   12.6531   15.0732   26.3996 H   0  0  0  0  0  0
   11.8777   14.1504   27.7315 H   0  0  0  0  0  0
   13.2448   15.2607   28.0852 H   0  0  0  0  0  0
    9.2462   15.8176   30.5375 H   0  0  0  0  0  0
    9.6070   14.5850   29.2816 H   0  0  0  0  0  0
    8.7041   16.0751   28.8444 H   0  0  0  0  0  0
   14.3071   18.0511   26.3849 H   0  0  0  0  0  0
   13.6630   17.6355   23.5057 H   0  0  0  0  0  0
   16.2270   18.5037   24.8748 H   0  0  0  0  0  0
   16.2758   17.9150   23.1784 H   0  0  0  0  0  0
   14.6846   20.3629   25.4474 H   0  0  0  0  0  0
   15.3539   19.2372   21.3844 H   0  0  0  0  0  0
   13.8125   22.5314   24.7017 H   0  0  0  0  0  0
   14.4745   21.4126   20.6356 H   0  0  0  0  0  0
   14.2176   15.9615   22.1994 H   0  0  0  0  0  0
   15.8161   13.7788   23.6279 H   0  0  0  0  0  0
   13.7950   13.7809   21.4113 H   0  0  0  0  0  0
   15.0718   12.5181   21.4499 H   0  0  0  0  0  0
   13.9003   10.5782   22.0283 H   0  0  0  0  0  0
   13.3492   14.1532   24.3555 H   0  0  0  0  0  0
   12.5378    9.2846   23.6827 H   0  0  0  0  0  0
   12.0143   12.8761   26.0325 H   0  0  0  0  0  0
   11.6310   10.4286   25.7067 H   0  0  0  0  0  0
   17.6224   13.0113   22.5601 H   0  0  0  0  0  0
   18.7595   14.8665   20.3430 H   0  0  0  0  0  0
   20.9767   14.7967   21.5296 H   0  0  0  0  0  0
   19.5148   16.8210   21.6135 H   0  0  0  0  0  0
   20.4765   16.6288   23.1184 H   0  0  0  0  0  0
   18.7353   16.1878   23.1028 H   0  0  0  0  0  0
   20.5026   12.8695   23.0654 H   0  0  0  0  0  0
   19.3118   13.8815   23.9512 H   0  0  0  0  0  0
   21.0531   14.3226   23.9668 H   0  0  0  0  0  0
   19.5212   10.7826   18.6915 H   0  0  0  0  0  0
   21.9842   11.8429   17.3341 H   0  0  0  0  0  0
   20.4580   11.2682   16.5810 H   0  0  0  0  0  0
   21.2040   13.8759   16.6451 H   0  0  0  0  0  0
   19.4934   13.3279   16.6425 H   0  0  0  0  0  0
   19.3815   14.6061   18.5764 H   0  0  0  0  0  0
   21.1388   14.4438   18.9112 H   0  0  0  0  0  0
   21.2785    9.0975   18.2905 H   0  0  0  0  0  0
   22.4747    8.9953   21.0365 H   0  0  0  0  0  0
   21.1419    7.1183   19.6309 H   0  0  0  0  0  0
   22.7869    6.7057   19.0392 H   0  0  0  0  0  0
   23.4697    5.9238   21.0468 H   0  0  0  0  0  0
   22.7945    7.8659   22.4766 H   0  0  0  0  0  0
   22.4249    6.2880   23.2516 H   0  0  0  0  0  0
   21.1074    7.2494   22.4989 H   0  0  0  0  0  0
   21.7790    4.4878   19.9394 H   0  0  0  0  0  0
   20.4996    5.2176   20.9676 H   0  0  0  0  0  0
   21.8171    4.2562   21.7203 H   0  0  0  0  0  0
  1  2  1  0  0  0
  1 66  1  0  0  0
  1 67  1  0  0  0
  1 68  1  0  0  0
  2  3  1  0  0  0
  2  5  1  0  0  0
  2 69  1  0  0  0
  3  4  2  0  0  0
  3  8  1  0  0  0
  5  6  1  0  0  0
  5  7  1  0  0  0
  5 70  1  0  0  0
  6 71  1  0  0  0
  6 72  1  0  0  0
  6 73  1  0  0  0
  7 74  1  0  0  0
  7 75  1  0  0  0
  7 76  1  0  0  0
  8  9  1  0  0  0
  8 77  1  0  0  0
  9 10  1  0  0  0
  9 12  1  0  0  0
  9 78  1  0  0  0
 10 11  2  0  0  0
 10 16  1  0  0  0
 12 13  1  0  0  0
 12 14  1  0  0  0
 12 79  1  0  0  0
 13 15  1  0  0  0
 13 80  1  0  0  0
 13 81  1  0  0  0
 14 82  1  0  0  0
 14 83  1  0  0  0
 14 84  1  0  0  0
 15 85  1  0  0  0
 15 86  1  0  0  0
 15 87  1  0  0  0
 16 17  1  0  0  0
 16 88  1  0  0  0
 17 18  1  0  0  0
 17 20  1  0  0  0
 17 89  1  0  0  0
 18 19  2  0  0  0
 18 32  1  0  0  0
 20 21  1  0  0  0
 20 90  1  0  0  0
 20 91  1  0  0  0
 21 22  2  0  0  0
 21 23  1  0  0  0
 22 24  1  0  0  0
 22 92  1  0  0  0
 23 25  2  0  0  0
 23 93  1  0  0  0
 24 26  2  0  0  0
 24 94  1  0  0  0
 25 26  1  0  0  0
 25 95  1  0  0  0
 26 27  1  0  0  0
 27 28  1  0  0  0
 28 29  2  0  0  0
 28 30  1  0  0  0
 28 31  1  0  0  0
 32 33  1  0  0  0
 32 96  1  0  0  0
 33 34  1  0  0  0
 33 36  1  0  0  0
 33 97  1  0  0  0
 34 35  2  0  0  0
 34 43  1  0  0  0
 36 37  1  0  0  0
 36 98  1  0  0  0
 36 99  1  0  0  0
 37 38  2  0  0  0
 37 39  1  0  0  0
 38 40  1  0  0  0
 38100  1  0  0  0
 39 41  2  0  0  0
 39101  1  0  0  0
 40 42  2  0  0  0
 40102  1  0  0  0
 41 42  1  0  0  0
 41103  1  0  0  0
 42104  1  0  0  0
 43 44  1  0  0  0
 43105  1  0  0  0
 44 45  1  0  0  0
 44 47  1  0  0  0
 44106  1  0  0  0
 45 46  2  0  0  0
 45 50  1  0  0  0
 47 48  1  0  0  0
 47 49  1  0  0  0
 47107  1  0  0  0
 48108  1  0  0  0
 48109  1  0  0  0
 48110  1  0  0  0
 49111  1  0  0  0
 49112  1  0  0  0
 49113  1  0  0  0
 50 51  1  0  0  0
 50 56  1  0  0  0
 51 52  1  0  0  0
 51 54  1  0  0  0
 51114  1  0  0  0
 52 53  2  0  0  0
 52 57  1  0  0  0
 54 55  1  0  0  0
 54115  1  0  0  0
 54116  1  0  0  0
 55 56  1  0  0  0
 55117  1  0  0  0
 55118  1  0  0  0
 56119  1  0  0  0
 56120  1  0  0  0
 57 58  1  0  0  0
 57121  1  0  0  0
 58 59  1  0  0  0
 58 61  1  0  0  0
 58122  1  0  0  0
 59 60  1  0  0  0
 59 65  2  0  0  0
 61 62  1  0  0  0
 61123  1  0  0  0
 61124  1  0  0  0
 62 63  1  0  0  0
 62 64  1  0  0  0
 62125  1  0  0  0
 63126  1  0  0  0
 63127  1  0  0  0
 63128  1  0  0  0
 64129  1  0  0  0
 64130  1  0  0  0
 64131  1  0  0  0
M  CHG  4   1   1  30  -1  31  -1  60  -1
M  END
> <s_m_source_file>
../3tkz_ligand.sdf

> <i_m_source_file_index>
1

> <s_epik_input>
W0NIM11bQ0hdKFtDSDNdKVtDQEhdKFtOSDMrXSlDKD1PKVtOSF1bQ0BASF0oW0NAQEhdKFtDSDNdKVtDSDJdW0NIM10pQyg9TylbTkhdW0NAQEhdKFtDSDJdYzFbY0hdW2NIXWMoW2NIXVtjSF0xKU9QKD1PKShbT0hdKVtPSF0pQyg9TylbTkhdW0NAQEhdKFtDSDJdYzJbY0hdW2NIXVtjSF1bY0hdW2NIXTIpQyg9TylbTkhdW0NAQEhdKFtDSF0oW0NIM10pW0NIM10pQyg9TylOM1tDQEBIXShbQ0gyXVtDSDJdW0NIMl0zKUMoPU8pW05IXVtDQEhdKEMoPU8pW09IXSlbQ0gyXVtDSF0oW0NIM10pW0NIM10=

> <s_epik_cmdline>
J2VwaWtfYXBwJywgJy1pbWFlJywgJ2xpZ2FuZF9wcm8ubWFlJywgJy1vbWFlJywgJ2xpZ2FuZF9wcmVwLm1hZScsICctbXMnLCAnMScsICctcGgnLCAnNycsICctcGh0JywgJzAuNScsICctbnQn

> <r_lp_tautomer_probability>
1

> <r_epik_Ionization_Penalty>
  0.1648

> <r_epik_Ionization_Penalty_Charging>
  0.1648

> <r_epik_Ionization_Penalty_Neutral>
  0.0000

> <r_epik_State_Penalty>
 -0.0000

> <r_epik_Charging_Adjusted_Penalty>
0.164797394023099

> <i_epik_Tot_Q>
-2

> <i_epik_Tot_abs_Q>
4

$$$$
