3tl0_ligand
                    3D
 Schrodinger Suite 2020-3.
109109  0  0  1  0            999 V2000
   20.5420   11.6500    8.2340 N   0  3  0  0  0  0
   20.0110   11.3080    9.5910 C   0  0  2  0  0  0
   18.8350   12.2100    9.8170 C   0  0  0  0  0  0
   18.9290   13.4370    9.6160 O   0  0  0  0  0  0
   21.0810   11.5240   10.6860 C   0  0  0  0  0  0
   22.4400   10.8620   10.4580 C   0  0  0  0  0  0
   23.2080   10.8100   11.7480 C   0  0  0  0  0  0
   22.3190    9.4680    9.9550 C   0  0  0  0  0  0
   17.7270   11.6140   10.2400 N   0  0  0  0  0  0
   16.5300   12.3590   10.5430 C   0  0  2  0  0  0
   16.5140   12.8280   12.0370 C   0  0  0  0  0  0
   16.3970   11.9690   12.9500 O   0  0  0  0  0  0
   15.3350   11.4740   10.2390 C   0  0  0  0  0  0
   14.0200   12.0720   10.7440 C   0  0  0  0  0  0
   13.7410   13.2800   10.5550 O   0  0  0  0  0  0
   13.2050   11.2420   11.4110 N   0  0  0  0  0  0
   16.6150   14.1490   12.2710 N   0  0  0  0  0  0
   16.5840   14.7650   13.6030 C   0  0  2  0  0  0
   15.1750   15.2240   13.8890 C   0  0  0  0  0  0
   14.6380   15.9870   13.1100 O   0  0  0  0  0  0
   17.5770   15.9730   13.7280 C   0  0  0  0  0  0
   18.9580   15.5090   14.0460 C   0  0  0  0  0  0
   19.7620   14.9800   13.0670 C   0  0  0  0  0  0
   19.4390   15.5240   15.3760 C   0  0  0  0  0  0
   21.0240   14.4850   13.3550 C   0  0  0  0  0  0
   20.6870   15.0270   15.6740 C   0  0  0  0  0  0
   21.5000   14.5480   14.6770 C   0  0  0  0  0  0
   22.6320   14.0620   14.9310 O   0  0  0  0  0  0
   23.9860   14.8460   15.4210 P   0  0  0  0  0  0
   23.5790   15.4440   16.7420 O   0  0  0  0  0  0
   25.2660   13.9560   15.4890 O   0  5  0  0  0  0
   24.1370   16.0720   14.4920 O   0  5  0  0  0  0
   14.5510   14.7750   14.9760 N   0  0  0  0  0  0
   13.1680   15.1680   15.2720 C   0  0  2  0  0  0
   13.0860   16.6210   15.6510 C   0  0  0  0  0  0
   14.0140   17.1490   16.2700 O   0  0  0  0  0  0
   12.5780   14.3360   16.4260 C   0  0  0  0  0  0
   11.9430   17.2390   15.3410 N   0  0  0  0  0  0
   11.6270   18.6000   15.7720 C   0  0  2  0  0  0
   10.5340   18.4510   16.8570 C   0  0  0  0  0  0
    9.4330   17.9590   16.5560 O   0  0  0  0  0  0
   11.1720   19.4520   14.5400 C   0  0  0  0  0  0
   10.8360   18.8440   18.1060 N   0  0  0  0  0  0
    9.9650   18.5600   19.2770 C   0  0  2  0  0  0
    8.8490   19.5970   19.6880 C   0  0  0  0  0  0
    8.8970   20.7410   19.2710 O   0  0  0  0  0  0
   10.8650   18.2120   20.4930 C   0  0  0  0  0  0
   11.3610   16.7660   20.7670 C   0  0  0  0  0  0
   11.2010   15.7330   19.6270 C   0  0  0  0  0  0
   12.8000   16.7510   21.2770 C   0  0  0  0  0  0
    7.8640   19.1720   20.4920 N   0  0  0  0  0  0
    6.9110   20.0360   21.2690 C   0  0  2  0  0  0
    5.4950   20.1650   20.6570 C   0  0  0  0  0  0
    4.5020   19.6440   21.2060 O   0  0  0  0  0  0
    7.4780   21.4300   21.6320 C   0  0  0  0  0  0
    5.3416   20.8081   19.5844 O   0  5  0  0  0  0
   19.7572   11.4854    7.4810 H   0  0  0  0  0  0
   21.4078   11.0105    8.0072 H   0  0  0  0  0  0
   20.8513   12.7055    8.2166 H   0  0  0  0  0  0
   19.7036   10.2521    9.6170 H   0  0  0  0  0  0
   21.2865   12.5995   10.7907 H   0  0  0  0  0  0
   20.7119   11.1264   11.6429 H   0  0  0  0  0  0
   22.9739   11.4499    9.6969 H   0  0  0  0  0  0
   23.3174   11.8277   12.1509 H   0  0  0  0  0  0
   24.2034   10.3791   11.5650 H   0  0  0  0  0  0
   22.6655   10.1851   12.4727 H   0  0  0  0  0  0
   21.7599    9.4673    9.0077 H   0  0  0  0  0  0
   21.7848    8.8557   10.6965 H   0  0  0  0  0  0
   23.3227    9.0498    9.7887 H   0  0  0  0  0  0
   17.7387   10.5204   10.3575 H   0  0  0  0  0  0
   16.5405   13.2331    9.8752 H   0  0  0  0  0  0
   15.2486   11.3356    9.1512 H   0  0  0  0  0  0
   15.4705   10.4958   10.7235 H   0  0  0  0  0  0
   13.4893   10.1890   11.5538 H   0  0  0  0  0  0
   12.2521   11.6141   11.8154 H   0  0  0  0  0  0
   16.7274   14.7789   11.3762 H   0  0  0  0  0  0
   16.8762   13.9674   14.3019 H   0  0  0  0  0  0
   17.6039   16.5254   12.7771 H   0  0  0  0  0  0
   17.2395   16.6434   14.5321 H   0  0  0  0  0  0
   19.3994   14.9486   12.0395 H   0  0  0  0  0  0
   18.8159   15.9327   16.1715 H   0  0  0  0  0  0
   21.6400   14.0522   12.5668 H   0  0  0  0  0  0
   21.0321   15.0136   16.7078 H   0  0  0  0  0  0
   15.0885   14.0991   15.6573 H   0  0  0  0  0  0
   12.6267   14.9944   14.3303 H   0  0  0  0  0  0
   12.6276   13.2673   16.1702 H   0  0  0  0  0  0
   11.5294   14.6259   16.5882 H   0  0  0  0  0  0
   13.1556   14.5206   17.3437 H   0  0  0  0  0  0
   11.2226   16.6740   14.7312 H   0  0  0  0  0  0
   12.5235   19.0788   16.1926 H   0  0  0  0  0  0
   11.9955   19.5149   13.8135 H   0  0  0  0  0  0
   10.9000   20.4640   14.8744 H   0  0  0  0  0  0
   10.3008   18.9757   14.0665 H   0  0  0  0  0  0
   11.7758   19.3994   18.2414 H   0  0  0  0  0  0
    9.3925   17.7095   18.8784 H   0  0  0  0  0  0
   11.8026   18.7838   20.4308 H   0  0  0  0  0  0
   10.3392   18.4701   21.4241 H   0  0  0  0  0  0
   10.6777   16.4187   21.5559 H   0  0  0  0  0  0
   10.1632   15.7470   19.2625 H   0  0  0  0  0  0
   11.4433   14.7289   20.0054 H   0  0  0  0  0  0
   11.8827   15.9885   18.8024 H   0  0  0  0  0  0
   12.9095   17.4868   22.0873 H   0  0  0  0  0  0
   13.4833   17.0075   20.4540 H   0  0  0  0  0  0
   13.0439   15.7480   21.6570 H   0  0  0  0  0  0
    7.7887   18.0763   20.5542 H   0  0  0  0  0  0
    6.8175   19.4437   22.1912 H   0  0  0  0  0  0
    8.4829   21.3158   22.0645 H   0  0  0  0  0  0
    6.8165   21.9154   22.3646 H   0  0  0  0  0  0
    7.5374   22.0492   20.7248 H   0  0  0  0  0  0
  1  2  1  0  0  0
  1 57  1  0  0  0
  1 58  1  0  0  0
  1 59  1  0  0  0
  2  3  1  0  0  0
  2  5  1  0  0  0
  2 60  1  0  0  0
  3  4  2  0  0  0
  3  9  1  0  0  0
  5  6  1  0  0  0
  5 61  1  0  0  0
  5 62  1  0  0  0
  6  7  1  0  0  0
  6  8  1  0  0  0
  6 63  1  0  0  0
  7 64  1  0  0  0
  7 65  1  0  0  0
  7 66  1  0  0  0
  8 67  1  0  0  0
  8 68  1  0  0  0
  8 69  1  0  0  0
  9 10  1  0  0  0
  9 70  1  0  0  0
 10 11  1  0  0  0
 10 13  1  0  0  0
 10 71  1  0  0  0
 11 12  2  0  0  0
 11 17  1  0  0  0
 13 14  1  0  0  0
 13 72  1  0  0  0
 13 73  1  0  0  0
 14 15  2  0  0  0
 14 16  1  0  0  0
 16 74  1  0  0  0
 16 75  1  0  0  0
 17 18  1  0  0  0
 17 76  1  0  0  0
 18 19  1  0  0  0
 18 21  1  0  0  0
 18 77  1  0  0  0
 19 20  2  0  0  0
 19 33  1  0  0  0
 21 22  1  0  0  0
 21 78  1  0  0  0
 21 79  1  0  0  0
 22 23  2  0  0  0
 22 24  1  0  0  0
 23 25  1  0  0  0
 23 80  1  0  0  0
 24 26  2  0  0  0
 24 81  1  0  0  0
 25 27  2  0  0  0
 25 82  1  0  0  0
 26 27  1  0  0  0
 26 83  1  0  0  0
 27 28  1  0  0  0
 28 29  1  0  0  0
 29 30  2  0  0  0
 29 31  1  0  0  0
 29 32  1  0  0  0
 33 34  1  0  0  0
 33 84  1  0  0  0
 34 35  1  0  0  0
 34 37  1  0  0  0
 34 85  1  0  0  0
 35 36  2  0  0  0
 35 38  1  0  0  0
 37 86  1  0  0  0
 37 87  1  0  0  0
 37 88  1  0  0  0
 38 39  1  0  0  0
 38 89  1  0  0  0
 39 40  1  0  0  0
 39 42  1  0  0  0
 39 90  1  0  0  0
 40 41  2  0  0  0
 40 43  1  0  0  0
 42 91  1  0  0  0
 42 92  1  0  0  0
 42 93  1  0  0  0
 43 44  1  0  0  0
 43 94  1  0  0  0
 44 45  1  0  0  0
 44 47  1  0  0  0
 44 95  1  0  0  0
 45 46  2  0  0  0
 45 51  1  0  0  0
 47 48  1  0  0  0
 47 96  1  0  0  0
 47 97  1  0  0  0
 48 49  1  0  0  0
 48 50  1  0  0  0
 48 98  1  0  0  0
 49 99  1  0  0  0
 49100  1  0  0  0
 49101  1  0  0  0
 50102  1  0  0  0
 50103  1  0  0  0
 50104  1  0  0  0
 51 52  1  0  0  0
 51105  1  0  0  0
 52 53  1  0  0  0
 52 55  1  0  0  0
 52106  1  0  0  0
 53 54  2  0  0  0
 53 56  1  0  0  0
 55107  1  0  0  0
 55108  1  0  0  0
 55109  1  0  0  0
M  CHG  4   1   1  31  -1  32  -1  56  -1
M  END
> <s_m_source_file>
../3tl0_ligand.sdf

> <i_m_source_file_index>
1

> <s_epik_input>
W0NIM11bQ0hdKFtDSDNdKVtDSDJdW0NASF0oW05IMytdKUMoPU8pW05IXVtDQEBIXShbQ0gyXUMoPU8pW05IMl0pQyg9TylbTkhdW0NAQEhdKFtDSDJdYzFbY0hdW2NIXWMoW2NIXVtjSF0xKU9QKD1PKShbT0hdKVtPSF0pQyg9TylbTkhdW0NAQEhdKFtDSDNdKUMoPU8pW05IXVtDQEBIXShbQ0gzXSlDKD1PKVtOSF1bQ0BASF0oW0NIMl1bQ0hdKFtDSDNdKVtDSDNdKUMoPU8pW05IXVtDQEBIXShbQ0gzXSlDKD1PKVtPSF0=

> <s_epik_cmdline>
J2VwaWtfYXBwJywgJy1pbWFlJywgJ2xpZ2FuZF9wcm8ubWFlJywgJy1vbWFlJywgJ2xpZ2FuZF9wcmVwLm1hZScsICctbXMnLCAnMScsICctcGgnLCAnNycsICctcGh0JywgJzAuNScsICctbnQn

> <r_lp_tautomer_probability>
1

> <r_epik_Ionization_Penalty>
  0.1787

> <r_epik_Ionization_Penalty_Charging>
  0.1787

> <r_epik_Ionization_Penalty_Neutral>
  0.0000

> <r_epik_State_Penalty>
 -0.0000

> <r_epik_Charging_Adjusted_Penalty>
0.17867217053251

> <i_epik_Tot_Q>
-2

> <i_epik_Tot_abs_Q>
4

$$$$
