3tl5_ligand
                    3D
 Schrodinger Suite 2020-3.
 66 70  0  0  1  0            999 V2000
   21.0200   65.7900   19.2150 C   0  0  0  0  0  0
   20.0860   64.9020   19.9670 C   0  0  0  0  0  0
   18.7620   65.2660   20.3570 C   0  0  0  0  0  0
   18.1200   63.9210   21.2060 S   0  0  0  0  0  0
   19.4820   62.8590   21.1040 C   0  0  0  0  0  0
   20.4790   63.5450   20.3960 C   0  0  0  0  0  0
   21.6950   62.9300   20.1670 N   0  0  0  0  0  0
   21.9460   61.6680   20.5820 C   0  0  0  0  0  0
   20.9920   60.9990   21.2730 N   0  0  0  0  0  0
   19.7780   61.5380   21.5420 C   0  0  0  0  0  0
   18.8250   60.7480   22.2850 N   0  0  0  0  0  0
   17.5770   60.5850   21.6980 C   0  0  0  0  0  0
   16.5880   60.2940   22.7760 C   0  0  0  0  0  0
   16.9340   59.2050   23.6030 O   0  0  0  0  0  0
   18.2130   59.3380   24.1220 C   0  0  0  0  0  0
   19.2090   59.6380   23.0530 C   0  0  0  0  0  0
   23.2990   60.9960   20.3290 C   0  0  0  0  0  0
   23.8280   60.1210   21.2890 C   0  0  0  0  0  0
   25.0220   59.5340   21.0820 N   0  0  0  0  0  0
   25.7110   59.7790   19.9600 C   0  0  0  0  0  0
   25.2240   60.6010   19.0210 N   0  0  0  0  0  0
   24.0370   61.2310   19.1670 C   0  0  0  0  0  0
   26.9810   59.1480   19.7550 N   0  0  0  0  0  0
   18.0260   66.5790   20.1130 C   0  0  0  0  0  0
   17.5140   66.6880   18.9470 N   0  3  0  0  0  0
   16.7030   67.7820   18.9210 C   0  0  0  0  0  0
   16.1440   68.0160   17.5430 C   0  0  0  0  0  0
   15.6730   66.9270   16.9190 N   0  0  0  0  0  0
   16.2890   65.7740   17.1690 C   0  0  0  0  0  0
   16.7630   65.6090   18.5910 C   0  0  0  0  0  0
   14.5730   66.9900   15.9820 C   0  0  0  0  0  0
   14.2080   65.9550   15.4450 O   0  0  0  0  0  0
   13.8750   68.3070   15.7170 C   0  0  2  0  0  0
   12.5130   68.1450   15.1030 C   0  0  0  0  0  0
   14.6480   69.1230   14.9160 O   0  0  0  0  0  0
   20.5224   66.7471   18.9996 H   0  0  0  0  0  0
   21.3063   65.3048   18.2702 H   0  0  0  0  0  0
   21.9198   65.9727   19.8208 H   0  0  0  0  0  0
   17.2976   61.5077   21.1683 H   0  0  0  0  0  0
   17.6140   59.7492   20.9839 H   0  0  0  0  0  0
   16.4872   61.1739   23.4283 H   0  0  0  0  0  0
   15.6128   60.0582   22.3250 H   0  0  0  0  0  0
   18.2286   60.1602   24.8526 H   0  0  0  0  0  0
   18.5067   58.4012   24.6181 H   0  0  0  0  0  0
   19.2967   58.7550   22.4029 H   0  0  0  0  0  0
   20.1794   59.8401   23.5299 H   0  0  0  0  0  0
   23.2719   59.9159   22.2038 H   0  0  0  0  0  0
   23.6649   61.9061   18.3964 H   0  0  0  0  0  0
   27.3890   58.4715   20.5204 H   0  0  0  0  0  0
   27.5480   59.3401   18.8322 H   0  0  0  0  0  0
   17.2025   66.6775   20.8356 H   0  0  0  0  0  0
   18.7248   67.4195   20.2366 H   0  0  0  0  0  0
   18.3931   66.7667   18.2906 H   0  0  0  0  0  0
   15.8650   67.6338   19.6180 H   0  0  0  0  0  0
   17.2769   68.6711   19.2214 H   0  0  0  0  0  0
   15.3060   68.7261   17.6030 H   0  0  0  0  0  0
   16.9297   68.4301   16.8940 H   0  0  0  0  0  0
   15.6025   64.9394   16.9636 H   0  0  0  0  0  0
   17.1767   65.6854   16.5254 H   0  0  0  0  0  0
   17.3715   64.6962   18.6712 H   0  0  0  0  0  0
   15.8938   65.5302   19.2606 H   0  0  0  0  0  0
   13.7850   68.8546   16.6668 H   0  0  0  0  0  0
   11.8977   67.4946   15.7421 H   0  0  0  0  0  0
   12.6120   67.6916   14.1057 H   0  0  0  0  0  0
   12.0324   69.1302   15.0119 H   0  0  0  0  0  0
   15.6829   69.3574   15.2058 H   0  0  0  0  0  0
  1  2  1  0  0  0
  1 36  1  0  0  0
  1 37  1  0  0  0
  1 38  1  0  0  0
  2  3  2  0  0  0
  2  6  1  0  0  0
  3  4  1  0  0  0
  3 24  1  0  0  0
  4  5  1  0  0  0
  5  6  2  0  0  0
  5 10  1  0  0  0
  6  7  1  0  0  0
  7  8  2  0  0  0
  8  9  1  0  0  0
  8 17  1  0  0  0
  9 10  2  0  0  0
 10 11  1  0  0  0
 11 12  1  0  0  0
 11 16  1  0  0  0
 12 13  1  0  0  0
 12 39  1  0  0  0
 12 40  1  0  0  0
 13 14  1  0  0  0
 13 41  1  0  0  0
 13 42  1  0  0  0
 14 15  1  0  0  0
 15 16  1  0  0  0
 15 43  1  0  0  0
 15 44  1  0  0  0
 16 45  1  0  0  0
 16 46  1  0  0  0
 17 18  2  0  0  0
 17 22  1  0  0  0
 18 19  1  0  0  0
 18 47  1  0  0  0
 19 20  2  0  0  0
 20 21  1  0  0  0
 20 23  1  0  0  0
 21 22  2  0  0  0
 22 48  1  0  0  0
 23 49  1  0  0  0
 23 50  1  0  0  0
 24 25  1  0  0  0
 24 51  1  0  0  0
 24 52  1  0  0  0
 25 26  1  0  0  0
 25 30  1  0  0  0
 25 53  1  0  0  0
 26 27  1  0  0  0
 26 54  1  0  0  0
 26 55  1  0  0  0
 27 28  1  0  0  0
 27 56  1  0  0  0
 27 57  1  0  0  0
 28 29  1  0  0  0
 28 31  1  0  0  0
 29 30  1  0  0  0
 29 58  1  0  0  0
 29 59  1  0  0  0
 30 60  1  0  0  0
 30 61  1  0  0  0
 31 32  2  0  0  0
 31 33  1  0  0  0
 33 34  1  0  0  0
 33 35  1  0  0  0
 33 62  1  0  0  0
 34 63  1  0  0  0
 34 64  1  0  0  0
 34 65  1  0  0  0
 35 66  1  0  0  0
M  CHG  1  25   1
M  END
> <s_m_source_file>
../3tl5_ligand.sdf

> <i_m_source_file_index>
1

> <s_epik_input>
W0NIM11bQ0BIXShbT0hdKUMoPU8pTihbQ0gyXVtDSDJdMSlbQ0gyXVtDSDJdW05IK10xW0NIMl1jKHMyKWMoW0NIM10pYyhjMjMpbmMoLWM0W2NIXW5jKFtOSDJdKW5bY0hdNCluYzNONVtDSDJdW0NIMl1PW0NIMl1bQ0gyXTU=

> <s_epik_cmdline>
J2VwaWtfYXBwJywgJy1pbWFlJywgJ2xpZ2FuZF9wcm8ubWFlJywgJy1vbWFlJywgJ2xpZ2FuZF9wcmVwLm1hZScsICctbXMnLCAnMScsICctcGgnLCAnNycsICctcGh0JywgJzAuNScsICctbnQn

> <r_lp_tautomer_probability>
0.999999987636

> <r_epik_Ionization_Penalty>
  0.1026

> <r_epik_Ionization_Penalty_Charging>
  0.1024

> <r_epik_Ionization_Penalty_Neutral>
  0.0003

> <r_epik_State_Penalty>
  0.0923

> <r_epik_Charging_Adjusted_Penalty>
0.194697257351723

> <i_epik_Tot_Q>
1

> <i_epik_Tot_abs_Q>
1

$$$$
