3tlh_ligand
                    3D
 Schrodinger Suite 2020-3.
 66 67  0  0  1  0            999 V2000
  -10.8980   15.6660   28.1900 C   0  0  2  0  0  0
  -10.6990   17.0740   27.5780 C   0  0  0  0  0  0
  -11.6950   17.9760   28.0890 O   0  0  0  0  0  0
  -12.2740   15.1240   27.7430 C   0  0  0  0  0  0
  -12.4980   13.6760   28.1510 C   0  0  0  0  0  0
  -13.4090   13.3590   29.1750 C   0  0  0  0  0  0
  -13.6320   12.0100   29.5310 C   0  0  0  0  0  0
  -12.8530   11.0060   28.9270 C   0  0  0  0  0  0
  -11.9990   11.3240   27.8520 C   0  0  0  0  0  0
  -11.7950   12.6610   27.4670 C   0  0  0  0  0  0
  -10.8640   15.6730   29.6610 N   0  0  0  0  0  0
  -10.1580   15.1010   31.9390 C   0  0  2  0  0  0
  -10.0020   14.9730   30.3970 C   0  0  0  0  0  0
   -9.1330   14.2470   29.9260 O   0  0  0  0  0  0
   -8.8090   15.3800   32.6590 C   0  0  0  0  0  0
   -8.1090   16.5860   32.0050 C   0  0  0  0  0  0
   -9.0100   15.6490   34.1650 C   0  0  0  0  0  0
  -10.7810   13.8790   32.5180 N   0  0  0  0  0  0
  -11.9140   13.9480   33.2250 C   0  0  0  0  0  0
  -12.2480   15.0360   33.6770 O   0  0  0  0  0  0
  -12.6740   12.5910   33.3750 C   0  0  2  0  0  0
  -14.1920   12.7440   33.5010 C   0  0  0  0  0  0
  -12.2180   11.8320   34.5640 N   0  0  0  0  0  0
  -12.4200   12.1700   35.8190 C   0  0  0  0  0  0
  -13.2290   13.0360   36.1140 O   0  0  0  0  0  0
  -11.6970   11.4700   36.7340 O   0  0  0  0  0  0
  -12.4270   11.2850   37.9560 C   0  0  0  0  0  0
  -12.8110    9.8050   37.9640 C   0  0  0  0  0  0
  -11.9130    8.8230   38.4190 C   0  0  0  0  0  0
  -12.2810    7.4590   38.4450 C   0  0  0  0  0  0
  -13.5420    7.0720   37.9440 C   0  0  0  0  0  0
  -14.4580    8.0550   37.5130 C   0  0  0  0  0  0
  -14.0920    9.4160   37.5090 C   0  0  0  0  0  0
  -10.0576   15.0241   27.8871 H   0  0  0  0  0  0
   -9.6996   17.4505   27.8417 H   0  0  0  0  0  0
  -10.7913   17.0145   26.4835 H   0  0  0  0  0  0
  -11.7063   19.0259   27.7610 H   0  0  0  0  0  0
  -13.0719   15.7287   28.1987 H   0  0  0  0  0  0
  -12.3519   15.1801   26.6472 H   0  0  0  0  0  0
  -13.9432   14.1547   29.6942 H   0  0  0  0  0  0
  -14.3967   11.7508   30.2632 H   0  0  0  0  0  0
  -12.9101    9.9803   29.2912 H   0  0  0  0  0  0
  -11.4908   10.5245   27.3128 H   0  0  0  0  0  0
  -11.1084   12.9083   26.6574 H   0  0  0  0  0  0
  -11.5832   16.2853   30.2249 H   0  0  0  0  0  0
  -10.8468   15.9374   32.1288 H   0  0  0  0  0  0
   -8.1743   14.4870   32.5604 H   0  0  0  0  0  0
   -7.9677   16.3902   30.9318 H   0  0  0  0  0  0
   -7.1300   16.7441   32.4810 H   0  0  0  0  0  0
   -8.7294   17.4849   32.1352 H   0  0  0  0  0  0
   -9.5100   14.7856   34.6281 H   0  0  0  0  0  0
   -9.6313   16.5470   34.2973 H   0  0  0  0  0  0
   -8.0319   15.8062   34.6431 H   0  0  0  0  0  0
  -10.3090   12.8969   32.3674 H   0  0  0  0  0  0
  -12.4398   12.0087   32.4716 H   0  0  0  0  0  0
  -14.5771   13.3041   32.6361 H   0  0  0  0  0  0
  -14.4300   13.2891   34.4263 H   0  0  0  0  0  0
  -14.6596   11.7488   33.5311 H   0  0  0  0  0  0
  -11.6560   10.8951   34.4361 H   0  0  0  0  0  0
  -11.7836   11.5431   38.8101 H   0  0  0  0  0  0
  -13.3140   11.9356   37.9553 H   0  0  0  0  0  0
  -10.9194    9.1181   38.7563 H   0  0  0  0  0  0
  -11.5969    6.7125   38.8485 H   0  0  0  0  0  0
  -13.8079    6.0163   37.8900 H   0  0  0  0  0  0
  -15.4537    7.7603   37.1815 H   0  0  0  0  0  0
  -14.7965   10.1687   37.1551 H   0  0  0  0  0  0
  1  2  1  0  0  0
  1  4  1  0  0  0
  1 11  1  0  0  0
  1 34  1  0  0  0
  2  3  1  0  0  0
  2 35  1  0  0  0
  2 36  1  0  0  0
  3 37  1  0  0  0
  4  5  1  0  0  0
  4 38  1  0  0  0
  4 39  1  0  0  0
  5  6  2  0  0  0
  5 10  1  0  0  0
  6  7  1  0  0  0
  6 40  1  0  0  0
  7  8  2  0  0  0
  7 41  1  0  0  0
  8  9  1  0  0  0
  8 42  1  0  0  0
  9 10  2  0  0  0
  9 43  1  0  0  0
 10 44  1  0  0  0
 11 13  1  0  0  0
 11 45  1  0  0  0
 12 13  1  0  0  0
 12 15  1  0  0  0
 12 18  1  0  0  0
 12 46  1  0  0  0
 13 14  2  0  0  0
 15 16  1  0  0  0
 15 17  1  0  0  0
 15 47  1  0  0  0
 16 48  1  0  0  0
 16 49  1  0  0  0
 16 50  1  0  0  0
 17 51  1  0  0  0
 17 52  1  0  0  0
 17 53  1  0  0  0
 18 19  1  0  0  0
 18 54  1  0  0  0
 19 20  2  0  0  0
 19 21  1  0  0  0
 21 22  1  0  0  0
 21 23  1  0  0  0
 21 55  1  0  0  0
 22 56  1  0  0  0
 22 57  1  0  0  0
 22 58  1  0  0  0
 23 24  1  0  0  0
 23 59  1  0  0  0
 24 25  2  0  0  0
 24 26  1  0  0  0
 26 27  1  0  0  0
 27 28  1  0  0  0
 27 60  1  0  0  0
 27 61  1  0  0  0
 28 29  2  0  0  0
 28 33  1  0  0  0
 29 30  1  0  0  0
 29 62  1  0  0  0
 30 31  2  0  0  0
 30 63  1  0  0  0
 31 32  1  0  0  0
 31 64  1  0  0  0
 32 33  2  0  0  0
 32 65  1  0  0  0
 33 66  1  0  0  0
M  END
> <s_m_source_file>
../3tlh_ligand.sdf

> <i_m_source_file_index>
1

> <s_epik_input>
W2NIXTFbY0hdW2NIXVtjSF1bY0hdYzFbQ0gyXVtDQEBIXShbQ0gyXVtPSF0pW05IXUMoPU8pW0NASF0oW0NIXShbQ0gzXSlbQ0gzXSlbTkhdQyg9TylbQ0BIXShbQ0gzXSlbTkhdQyg9TylPW0NIMl1jMltjSF1bY0hdW2NIXVtjSF1bY0hdMg==

> <s_epik_cmdline>
J2VwaWtfYXBwJywgJy1pbWFlJywgJ2xpZ2FuZF9wcm8ubWFlJywgJy1vbWFlJywgJ2xpZ2FuZF9wcmVwLm1hZScsICctbXMnLCAnMScsICctcGgnLCAnNycsICctcGh0JywgJzAuNScsICctbnQn

> <r_lp_tautomer_probability>
1

> <r_epik_Ionization_Penalty>
  0.0000

> <r_epik_Ionization_Penalty_Charging>
  0.0000

> <r_epik_Ionization_Penalty_Neutral>
  0.0000

> <r_epik_State_Penalty>
 -0.0000

> <r_epik_Charging_Adjusted_Penalty>
0

> <i_epik_Tot_Q>
0

> <i_epik_Tot_abs_Q>
0

> <s_epik_Chemistry_Notes>
This compound has an ester and may undergo hydrolysis at high or low pH.

$$$$
