3tll_ligand
                    3D
 Schrodinger Suite 2020-3.
 33 35  0  0  1  0            999 V2000
   17.5470   17.5420   17.3130 N   0  0  0  0  0  0
   19.5340   18.1670   17.9430 N   0  3  0  0  0  0
   18.8410   18.0110   16.8850 C   0  0  0  0  0  0
   18.2510   17.9700   14.5420 C   0  0  0  0  0  0
   18.8250   17.8400   19.1360 C   0  0  0  0  0  0
   19.1840   17.8660   20.4440 C   0  0  0  0  0  0
   18.1170   17.4510   21.4030 C   0  0  0  0  0  0
   16.0980   16.6700   23.1160 C   0  0  0  0  0  0
   16.8010   17.0430   20.8620 C   0  0  0  0  0  0
   16.4930   17.0070   19.5400 C   0  0  0  0  0  0
   17.5260   17.4310   18.6210 C   0  0  0  0  0  0
   19.1530   18.2310   15.6410 N   0  0  0  0  0  0
   18.2580   17.4530   22.7500 C   0  0  0  0  0  0
   19.3710   17.8760   23.3190 O   0  0  0  0  0  0
   17.2680   17.1280   23.5770 N   0  0  0  0  0  0
   15.1750   16.3130   23.9690 N   0  0  0  0  0  0
   13.8360   15.8110   23.6820 C   0  0  0  0  0  0
   15.8430   16.6250   21.8390 N   0  0  0  0  0  0
   13.8340   14.2760   23.8680 C   0  0  0  0  0  0
   18.7417   18.2355   13.5940 H   0  0  0  0  0  0
   17.3395   18.5734   14.6646 H   0  0  0  0  0  0
   17.9855   16.9026   14.5312 H   0  0  0  0  0  0
   20.1789   18.1679   20.7712 H   0  0  0  0  0  0
   15.5159   16.6751   19.1890 H   0  0  0  0  0  0
   20.1571   18.6350   15.4444 H   0  0  0  0  0  0
   15.5077   16.4276   25.0112 H   0  0  0  0  0  0
   13.1154   16.2728   24.3730 H   0  0  0  0  0  0
   13.5641   16.0630   22.6464 H   0  0  0  0  0  0
   12.8293   13.8821   23.6547 H   0  0  0  0  0  0
   14.1113   14.0319   24.9041 H   0  0  0  0  0  0
   14.5600   13.8221   23.1775 H   0  0  0  0  0  0
   20.5726   18.5226   17.8728 H   0  0  0  0  0  0
   17.4259   17.2422   24.6596 H   0  0  0  0  0  0
  1  3  2  0  0  0
  1 11  1  0  0  0
  2  3  1  0  0  0
  2  5  1  0  0  0
  2 32  1  0  0  0
  3 12  1  0  0  0
  4 12  1  0  0  0
  4 20  1  0  0  0
  4 21  1  0  0  0
  4 22  1  0  0  0
  5  6  1  0  0  0
  5 11  2  0  0  0
  6  7  2  0  0  0
  6 23  1  0  0  0
  7  9  1  0  0  0
  7 13  1  0  0  0
  8 15  1  0  0  0
  8 16  1  0  0  0
  8 18  2  0  0  0
  9 10  2  0  0  0
  9 18  1  0  0  0
 10 11  1  0  0  0
 10 24  1  0  0  0
 12 25  1  0  0  0
 13 14  2  0  0  0
 13 15  1  0  0  0
 15 33  1  0  0  0
 16 17  1  0  0  0
 16 26  1  0  0  0
 17 19  1  0  0  0
 17 27  1  0  0  0
 17 28  1  0  0  0
 19 29  1  0  0  0
 19 30  1  0  0  0
 19 31  1  0  0  0
M  CHG  1   2   1
M  END
> <s_m_source_file>
../3tll_ligand.sdf

> <i_m_source_file_index>
1

> <s_epik_input>
W0NIM11bTkhdYyhbbkhdMSluYyhjMTIpW2NIXWMzYyhbY0hdMiljKD1PKW5jKFtuSF0zKVtOSF1bQ0gyXVtDSDNd

> <s_epik_cmdline>
J2VwaWtfYXBwJywgJy1pbWFlJywgJ2xpZ2FuZF9wcm8ubWFlJywgJy1vbWFlJywgJ2xpZ2FuZF9wcmVwLm1hZScsICctbXMnLCAnMScsICctcGgnLCAnNycsICctcGh0JywgJzAuNScsICctbnQn

> <r_lp_tautomer_probability>
1

> <r_epik_Ionization_Penalty>
  0.0015

> <r_epik_Ionization_Penalty_Charging>
  0.0015

> <r_epik_Ionization_Penalty_Neutral>
  0.0001

> <r_epik_State_Penalty>
 -0.0000

> <r_epik_Charging_Adjusted_Penalty>
0.00145427160290931

> <i_epik_Tot_Q>
1

> <i_epik_Tot_abs_Q>
1

> <s_epik_Chemistry_Notes>
This compound has an imine and may undergo hydrolysis.

$$$$
