3tmk_ligand
                    3D
 Schrodinger Suite 2020-3.
 80 84  0  0  1  0            999 V2000
    4.2900   -1.7260  139.9840 N   0  0  0  0  0  0
    4.5280   -0.4690  140.4720 C   0  0  0  0  0  0
    5.0070   -2.2480  138.8960 C   0  0  0  0  0  0
    4.8670   -3.3860  138.4690 O   0  0  0  0  0  0
    5.8980   -1.4020  138.3190 N   0  0  0  0  0  0
    6.1270   -0.0800  138.6370 C   0  0  0  0  0  0
    6.8850    0.6150  137.9270 O   0  0  0  0  0  0
    5.4030    0.3610  139.8740 C   0  0  0  0  0  0
    5.6150    1.7650  140.4360 C   0  0  0  0  0  0
    0.3640   -1.7110  142.3440 C   0  0  0  0  0  0
    1.2010   -2.5780  141.4880 C   0  0  1  0  0  0
    2.0850   -1.6600  140.8260 O   0  0  0  0  0  0
    3.1850   -2.5270  140.5010 C   0  0  2  0  0  0
    3.4540   -3.1800  141.8870 C   0  0  0  0  0  0
    2.0550   -3.4850  142.3590 C   0  0  2  0  0  0
    1.8610   -4.8440  142.1230 O   0  0  0  0  0  0
    0.5740   -0.2150  144.5230 P   0  0  2  0  0  0
   -0.4000    0.8180  144.0390 O   0  5  0  0  0  0
    1.7070    0.2920  145.3480 O   0  0  0  0  0  0
    1.1650   -1.1710  143.3890 O   0  0  0  0  0  0
   -0.2090   -1.2920  145.3720 O   0  0  0  0  0  0
   -1.3500   -1.2000  146.5580 P   0  0  2  0  0  0
   -2.6630   -1.6900  146.0730 O   0  0  0  0  0  0
   -1.2530    0.2370  146.9620 O   0  5  0  0  0  0
   -0.8640   -2.1200  147.7120 O   0  0  0  0  0  0
    0.3250   -3.0530  148.0890 P   0  0  1  0  0  0
   -0.0620   -4.4670  148.0180 O   0  0  0  0  0  0
    1.6970   -2.5930  147.7130 O   0  5  0  0  0  0
    0.1100   -2.5000  149.6540 O   0  0  0  0  0  0
    0.9870   -1.8290  150.7720 P   0  0  2  0  0  0
    1.1030   -0.3450  150.5690 O   0  5  0  0  0  0
    2.1480   -2.6840  150.9140 O   0  0  0  0  0  0
    0.0170   -1.9630  152.1370 O   0  0  0  0  0  0
   -0.8840   -0.9520  152.9780 P   0  0  1  0  0  0
    0.0520   -0.0940  153.7560 O   0  5  0  0  0  0
   -1.8250   -0.1820  152.1320 O   0  0  0  0  0  0
   -1.6450   -2.0510  153.8540 O   0  0  0  0  0  0
   -2.5910   -3.0070  153.5380 C   0  0  0  0  0  0
   -3.3330   -3.4480  154.8180 C   0  0  1  0  0  0
   -2.5140   -4.1400  155.7540 O   0  0  0  0  0  0
   -2.4840   -3.4000  156.9880 C   0  0  2  0  0  0
   -3.0080   -1.9750  156.6130 C   0  0  2  0  0  0
   -3.6380   -1.1960  157.6750 O   0  0  0  0  0  0
   -4.0170   -2.2960  155.5450 C   0  0  2  0  0  0
   -5.1340   -2.9300  156.2020 O   0  0  0  0  0  0
   -1.0670   -3.4090  157.6030 N   0  0  0  0  0  0
   -0.5260   -4.2800  158.5250 C   0  0  0  0  0  0
   -1.1370   -5.3540  159.1040 N   0  0  0  0  0  0
   -0.2780   -5.9920  159.9290 C   0  0  0  0  0  0
    0.9930   -5.6500  160.2400 N   0  0  0  0  0  0
    1.5110   -4.4860  159.7730 C   0  0  0  0  0  0
    2.7160   -4.0260  160.1650 N   0  0  0  0  0  0
    0.7290   -3.8050  158.8230 C   0  0  0  0  0  0
    1.0000   -2.6730  158.1040 N   0  0  0  0  0  0
   -0.0670   -2.5170  157.3620 C   0  0  0  0  0  0
    3.9979   -0.1334  141.3633 H   0  0  0  0  0  0
    6.5392   -1.7549  137.4978 H   0  0  0  0  0  0
    5.0004    1.8952  141.3389 H   0  0  0  0  0  0
    5.3212    2.5100  139.6819 H   0  0  0  0  0  0
    6.6761    1.9011  140.6920 H   0  0  0  0  0  0
   -0.0544   -0.8928  141.7394 H   0  0  0  0  0  0
   -0.4557   -2.3038  142.7761 H   0  0  0  0  0  0
    0.5997   -3.1639  140.7773 H   0  0  0  0  0  0
    2.9955   -3.2288  139.6754 H   0  0  0  0  0  0
    4.0723   -4.0801  141.7544 H   0  0  0  0  0  0
    3.9827   -2.4639  142.5333 H   0  0  0  0  0  0
    1.8173   -3.3854  143.4284 H   0  0  0  0  0  0
    0.9031   -5.3166  142.3858 H   0  0  0  0  0  0
   -3.3141   -2.5854  152.8243 H   0  0  0  0  0  0
   -2.0949   -3.8783  153.0857 H   0  0  0  0  0  0
   -4.0670   -4.2020  154.4975 H   0  0  0  0  0  0
   -3.1255   -3.9025  157.7269 H   0  0  0  0  0  0
   -2.2018   -1.2758  156.3462 H   0  0  0  0  0  0
   -3.0464   -0.8706  158.5434 H   0  0  0  0  0  0
   -4.3569   -1.4314  154.9560 H   0  0  0  0  0  0
   -6.0043   -3.2574  155.6142 H   0  0  0  0  0  0
   -0.6573   -6.8968  160.4040 H   0  0  0  0  0  0
    3.3017   -4.5838  160.9105 H   0  0  0  0  0  0
    3.1135   -3.0928  159.7394 H   0  0  0  0  0  0
   -0.1487   -1.7332  156.6090 H   0  0  0  0  0  0
  1 13  1  0  0  0
  1  3  1  0  0  0
  1  2  1  0  0  0
  2  8  2  0  0  0
  2 56  1  0  0  0
  3  5  1  0  0  0
  3  4  2  0  0  0
  5  6  1  0  0  0
  5 57  1  0  0  0
  6  8  1  0  0  0
  6  7  2  0  0  0
  8  9  1  0  0  0
  9 58  1  0  0  0
  9 59  1  0  0  0
  9 60  1  0  0  0
 10 11  1  0  0  0
 10 20  1  0  0  0
 10 61  1  0  0  0
 10 62  1  0  0  0
 11 12  1  0  0  0
 11 15  1  0  0  0
 11 63  1  0  0  0
 12 13  1  0  0  0
 13 14  1  0  0  0
 13 64  1  0  0  0
 14 15  1  0  0  0
 14 65  1  0  0  0
 14 66  1  0  0  0
 15 16  1  0  0  0
 15 67  1  0  0  0
 16 68  1  0  0  0
 17 20  1  0  0  0
 17 21  1  0  0  0
 17 19  2  0  0  0
 17 18  1  0  0  0
 21 22  1  0  0  0
 22 25  1  0  0  0
 22 24  1  0  0  0
 22 23  2  0  0  0
 25 26  1  0  0  0
 26 29  1  0  0  0
 26 28  1  0  0  0
 26 27  2  0  0  0
 29 30  1  0  0  0
 30 33  1  0  0  0
 30 32  2  0  0  0
 30 31  1  0  0  0
 33 34  1  0  0  0
 34 37  1  0  0  0
 34 36  2  0  0  0
 34 35  1  0  0  0
 37 38  1  0  0  0
 38 39  1  0  0  0
 38 69  1  0  0  0
 38 70  1  0  0  0
 39 44  1  0  0  0
 39 40  1  0  0  0
 39 71  1  0  0  0
 40 41  1  0  0  0
 41 46  1  0  0  0
 41 42  1  0  0  0
 41 72  1  0  0  0
 42 44  1  0  0  0
 42 43  1  0  0  0
 42 73  1  0  0  0
 43 74  1  0  0  0
 44 45  1  0  0  0
 44 75  1  0  0  0
 45 76  1  0  0  0
 46 55  1  0  0  0
 46 47  1  0  0  0
 47 53  2  0  0  0
 47 48  1  0  0  0
 48 49  2  0  0  0
 49 50  1  0  0  0
 49 77  1  0  0  0
 50 51  2  0  0  0
 51 53  1  0  0  0
 51 52  1  0  0  0
 52 78  1  0  0  0
 52 79  1  0  0  0
 53 54  1  0  0  0
 54 55  2  0  0  0
 55 80  1  0  0  0
M  CHG  5  18  -1  24  -1  28  -1  31  -1  35  -1
M  END
> <s_m_source_file>
../3tmk_ligand.sdf

> <i_m_source_file_index>
1

> <s_epik_input>
Tz1jMVtuSF1jKD1PKWMoW0NIM10pW2NIXW4xW0NAQEhdKFtDSDJdW0NAQEhdMltPSF0pT1tDQEBIXTJbQ0gyXU9bUEBAXSg9TykoW09IXSlPW1BAXSg9TykoW09IXSlPW1BAQF0oPU8pKFtPSF0pT1tQQEBdKD1PKShbT0hdKU9bUEBdKD1PKShbT0hdKU9bQ0gyXVtDQEhdM09bQ0BIXShbQ0BIXShbT0hdKVtDQEBIXTNbT0hdKW40W2NIXW5jKGM0NSljKFtOSDJdKW5bY0hdbjU=

> <s_epik_cmdline>
J2VwaWtfYXBwJywgJy1pbWFlJywgJ2xpZ2FuZF9wcm8ubWFlJywgJy1vbWFlJywgJ2xpZ2FuZF9wcmVwLm1hZScsICctbXMnLCAnMScsICctcGgnLCAnNycsICctcGh0JywgJzAuNScsICctbnQn

> <r_lp_tautomer_probability>
1

> <r_epik_Ionization_Penalty>
  0.0028

> <r_epik_Ionization_Penalty_Charging>
  0.0024

> <r_epik_Ionization_Penalty_Neutral>
  0.0004

> <r_epik_State_Penalty>
 -0.0000

> <r_epik_Charging_Adjusted_Penalty>
0.00238803718471536

> <i_epik_Tot_Q>
-5

> <i_epik_Tot_abs_Q>
5

> <s_epik_Chemistry_Notes>
This compound contains an acetal/aminal-like group ( X-CH(R)-Y where X, Y are N, S, or O) that may be acid/base labile, releasing an aldehyde.

$$$$
