3tn8_ligand
                    3D
 Schrodinger Suite 2020-3.
 26 27  0  0  1  0            999 V2000
   47.4620  -14.9800  -13.2600 C   0  0  0  0  0  0
   47.9050  -13.6720  -13.0960 C   0  0  0  0  0  0
   49.2430  -13.3680  -13.2230 C   0  0  0  0  0  0
   46.1400  -15.2670  -13.1260 O   0  0  0  0  0  0
   50.1510  -14.3890  -13.5140 C   0  0  0  0  0  0
   49.7020  -15.7030  -13.6730 C   0  0  0  0  0  0
   48.3630  -15.9950  -13.5480 C   0  0  0  0  0  0
   51.4830  -14.1110  -13.6370 N   0  0  0  0  0  0
   52.3450  -15.0700  -13.5740 N   0  0  0  0  0  0
   53.6620  -14.8120  -13.7830 C   0  0  0  0  0  0
   54.6660  -15.7650  -13.9190 C   0  0  0  0  0  0
   54.5010  -17.1370  -13.8550 N   0  0  0  0  0  0
   55.8250  -15.1030  -14.1190 N   0  3  0  0  0  0
   55.5620  -13.7280  -14.1090 N   0  0  0  0  0  0
   54.2840  -13.5380  -13.9100 C   0  0  0  0  0  0
   53.6600  -12.2940  -13.8350 N   0  0  0  0  0  0
   47.1896  -12.8826  -12.8656 H   0  0  0  0  0  0
   49.5892  -12.3420  -13.0978 H   0  0  0  0  0  0
   45.4233  -14.4643  -12.8977 H   0  0  0  0  0  0
   50.4136  -16.4978  -13.8964 H   0  0  0  0  0  0
   48.0119  -17.0191  -13.6747 H   0  0  0  0  0  0
   53.5011  -17.5634  -13.6865 H   0  0  0  0  0  0
   55.3697  -17.8015  -13.9726 H   0  0  0  0  0  0
   52.5751  -12.2323  -13.6642 H   0  0  0  0  0  0
   54.2524  -11.3739  -13.9467 H   0  0  0  0  0  0
   56.8519  -15.4654  -14.2742 H   0  0  0  0  0  0
  1  2  2  0  0  0
  1  4  1  0  0  0
  1  7  1  0  0  0
  2  3  1  0  0  0
  2 17  1  0  0  0
  3  5  2  0  0  0
  3 18  1  0  0  0
  4 19  1  0  0  0
  5  6  1  0  0  0
  5  8  1  0  0  0
  6  7  2  0  0  0
  6 20  1  0  0  0
  7 21  1  0  0  0
  8  9  2  0  0  0
  9 10  1  0  0  0
 10 11  2  0  0  0
 10 15  1  0  0  0
 11 12  1  0  0  0
 11 13  1  0  0  0
 12 22  1  0  0  0
 12 23  1  0  0  0
 13 14  1  0  0  0
 13 26  1  0  0  0
 14 15  2  0  0  0
 15 16  1  0  0  0
 16 24  1  0  0  0
 16 25  1  0  0  0
M  CHG  1  13   1
M  END
> <s_m_source_file>
../3tn8_ligand.sdf

> <i_m_source_file_index>
1

> <s_epik_input>
W09IXWMxW2NIXVtjSF1jKFtjSF1bY0hdMSkvTj1OL2MyYyhbTkgyXSlbbkhdbmMyW05IMl0=

> <s_epik_cmdline>
J2VwaWtfYXBwJywgJy1pbWFlJywgJ2xpZ2FuZF9wcm8ubWFlJywgJy1vbWFlJywgJ2xpZ2FuZF9wcmVwLm1hZScsICctbXMnLCAnMScsICctcGgnLCAnNycsICctcGh0JywgJzAuNScsICctbnQn

> <r_epik_Ionization_Penalty>
  0.0251

> <r_epik_Ionization_Penalty_Charging>
  0.0000

> <r_epik_Ionization_Penalty_Neutral>
  0.0251

> <r_epik_State_Penalty>
  0.4107

> <r_epik_Charging_Adjusted_Penalty>
0.410679838952604

> <i_epik_Tot_Q>
1

> <i_epik_Tot_abs_Q>
1

> <s_epik_Chemistry_Notes>
This compound has an imine and may undergo hydrolysis.

$$$$
