3tne_ligand
                    3D
 Schrodinger Suite 2020-3.
 98101  0  0  1  0            999 V2000
    2.8150  -26.1570  -28.0330 C   0  0  0  0  0  0
    3.9470  -26.5360  -27.3180 C   0  0  0  0  0  0
    3.7290  -28.1040  -26.6090 S   0  0  0  0  0  0
    2.1510  -28.2710  -27.2870 C   0  0  0  0  0  0
    1.8480  -27.1420  -27.9920 N   0  0  0  0  0  0
    5.2470  -25.8690  -27.0090 C   0  0  0  0  0  0
    4.9610  -24.5250  -26.6730 O   0  0  0  0  0  0
    5.6960  -23.4980  -27.3990 C   0  0  0  0  0  0
    6.6360  -23.8230  -28.1240 O   0  0  0  0  0  0
    5.3590  -22.2280  -27.2570 N   0  0  0  0  0  0
    6.1910  -21.2110  -27.8800 C   0  0  2  0  0  0
    6.2250  -20.0070  -26.9340 C   0  0  2  0  0  0
    6.6640  -20.3200  -25.4850 C   0  0  0  0  0  0
    8.1730  -20.3470  -25.2060 C   0  0  2  0  0  0
    5.7150  -20.9260  -29.3210 C   0  0  0  0  0  0
    5.8430  -22.1550  -30.2150 C   0  0  0  0  0  0
    6.9970  -22.3510  -30.9960 C   0  0  0  0  0  0
    7.1340  -23.4790  -31.8300 C   0  0  0  0  0  0
    6.1260  -24.4420  -31.8900 C   0  0  0  0  0  0
    4.9740  -24.2600  -31.1200 C   0  0  0  0  0  0
    4.8280  -23.1210  -30.2890 C   0  0  0  0  0  0
    4.9160  -19.4520  -26.8900 O   0  0  0  0  0  0
    8.4980  -19.5050  -23.9590 C   0  0  0  0  0  0
    9.8610  -19.7440  -23.3170 C   0  0  0  0  0  0
   10.1350  -18.9940  -22.1740 C   0  0  0  0  0  0
   11.3340  -19.1330  -21.4580 C   0  0  0  0  0  0
   12.2850  -20.0550  -21.8890 C   0  0  0  0  0  0
   12.0250  -20.8220  -23.0350 C   0  0  0  0  0  0
   10.8220  -20.6790  -23.7460 C   0  0  0  0  0  0
    8.9460  -19.7340  -26.2510 N   0  0  0  0  0  0
   11.7110  -18.9270  -27.3250 N   0  0  0  0  0  0
   10.4480  -19.2890  -27.9360 C   0  0  2  0  0  0
    9.7760  -20.3210  -27.0970 C   0  0  0  0  0  0
   10.0290  -21.5200  -27.2180 O   0  0  0  0  0  0
   10.7130  -19.8110  -29.3620 C   0  0  0  0  0  0
    9.4270  -19.9800  -30.1530 C   0  0  0  0  0  0
   11.7070  -18.9330  -30.1190 C   0  0  0  0  0  0
   12.1610  -17.7030  -27.4110 C   0  0  0  0  0  0
   13.4640  -17.4990  -27.5110 N   0  0  0  0  0  0
   14.0710  -16.2830  -26.9960 C   0  0  0  0  0  0
   11.4060  -16.7770  -27.5530 O   0  0  0  0  0  0
   14.0030  -16.3670  -25.5060 C   0  0  0  0  0  0
   12.8330  -16.6210  -24.7810 C   0  0  0  0  0  0
   13.1900  -16.6510  -23.0900 S   0  0  0  0  0  0
   14.8830  -16.3350  -23.3860 C   0  0  0  0  0  0
   15.1200  -16.2200  -24.7250 N   0  0  0  0  0  0
   15.7900  -16.2480  -22.2110 C   0  0  0  0  0  0
   15.0210  -15.8990  -20.9300 C   0  0  0  0  0  0
   16.9160  -15.2470  -22.5190 C   0  0  0  0  0  0
   14.3970  -18.4060  -28.1880 C   0  0  0  0  0  0
    2.7059  -25.2073  -28.5567 H   0  0  0  0  0  0
    1.5009  -29.1382  -27.1710 H   0  0  0  0  0  0
    5.7315  -26.3830  -26.1657 H   0  0  0  0  0  0
    5.9018  -25.9153  -27.8917 H   0  0  0  0  0  0
    4.4691  -21.9337  -26.6813 H   0  0  0  0  0  0
    7.2179  -21.5915  -27.9832 H   0  0  0  0  0  0
    6.9209  -19.2665  -27.3551 H   0  0  0  0  0  0
    6.2506  -19.5610  -24.8046 H   0  0  0  0  0  0
    6.2915  -21.3137  -25.1956 H   0  0  0  0  0  0
    8.4666  -21.4057  -25.1510 H   0  0  0  0  0  0
    4.6585  -20.6203  -29.3044 H   0  0  0  0  0  0
    6.3234  -20.1190  -29.7553 H   0  0  0  0  0  0
    7.8009  -21.6160  -30.9552 H   0  0  0  0  0  0
    8.0342  -23.6000  -32.4326 H   0  0  0  0  0  0
    6.2351  -25.3205  -32.5260 H   0  0  0  0  0  0
    4.1777  -25.0033  -31.1590 H   0  0  0  0  0  0
    3.9185  -22.9943  -29.7018 H   0  0  0  0  0  0
    4.4124  -19.1562  -27.8221 H   0  0  0  0  0  0
    8.4705  -18.4369  -24.2205 H   0  0  0  0  0  0
    7.7547  -19.7097  -23.1744 H   0  0  0  0  0  0
    9.3932  -18.2757  -21.8249 H   0  0  0  0  0  0
   11.5194  -18.5249  -20.5726 H   0  0  0  0  0  0
   13.2200  -20.1792  -21.3426 H   0  0  0  0  0  0
   12.7688  -21.5406  -23.3791 H   0  0  0  0  0  0
   10.6330  -21.2908  -24.6281 H   0  0  0  0  0  0
    8.8828  -18.6485  -26.4174 H   0  0  0  0  0  0
   12.2976  -19.6845  -26.7845 H   0  0  0  0  0  0
    9.8065  -18.3956  -27.9540 H   0  0  0  0  0  0
   11.1646  -20.8091  -29.2631 H   0  0  0  0  0  0
    8.7294  -20.6150  -29.5873 H   0  0  0  0  0  0
    9.6511  -20.4530  -31.1205 H   0  0  0  0  0  0
    8.9695  -18.9944  -30.3239 H   0  0  0  0  0  0
   12.6275  -18.8265  -29.5263 H   0  0  0  0  0  0
   11.2639  -17.9408  -30.2897 H   0  0  0  0  0  0
   11.9455  -19.3993  -31.0863 H   0  0  0  0  0  0
   15.1149  -16.2214  -27.3372 H   0  0  0  0  0  0
   13.5126  -15.4099  -27.3646 H   0  0  0  0  0  0
   11.8461  -16.7764  -25.2168 H   0  0  0  0  0  0
   16.2245  -17.2459  -22.0514 H   0  0  0  0  0  0
   14.2316  -16.6462  -20.7612 H   0  0  0  0  0  0
   14.5665  -14.9028  -21.0351 H   0  0  0  0  0  0
   15.7136  -15.8978  -20.0754 H   0  0  0  0  0  0
   17.4301  -15.5467  -23.4442 H   0  0  0  0  0  0
   17.6352  -15.2367  -21.6867 H   0  0  0  0  0  0
   16.4881  -14.2417  -22.6464 H   0  0  0  0  0  0
   13.8530  -19.2938  -28.5427 H   0  0  0  0  0  0
   15.1838  -18.7150  -27.4841 H   0  0  0  0  0  0
   14.8539  -17.8893  -29.0449 H   0  0  0  0  0  0
  1  2  2  0  0  0
  1  5  1  0  0  0
  1 51  1  0  0  0
  2  3  1  0  0  0
  2  6  1  0  0  0
  3  4  1  0  0  0
  4  5  2  0  0  0
  4 52  1  0  0  0
  6  7  1  0  0  0
  6 53  1  0  0  0
  6 54  1  0  0  0
  7  8  1  0  0  0
  8  9  2  0  0  0
  8 10  1  0  0  0
 10 11  1  0  0  0
 10 55  1  0  0  0
 11 12  1  0  0  0
 11 15  1  0  0  0
 11 56  1  0  0  0
 12 13  1  0  0  0
 12 22  1  0  0  0
 12 57  1  0  0  0
 13 14  1  0  0  0
 13 58  1  0  0  0
 13 59  1  0  0  0
 14 23  1  0  0  0
 14 30  1  0  0  0
 14 60  1  0  0  0
 15 16  1  0  0  0
 15 61  1  0  0  0
 15 62  1  0  0  0
 16 17  2  0  0  0
 16 21  1  0  0  0
 17 18  1  0  0  0
 17 63  1  0  0  0
 18 19  2  0  0  0
 18 64  1  0  0  0
 19 20  1  0  0  0
 19 65  1  0  0  0
 20 21  2  0  0  0
 20 66  1  0  0  0
 21 67  1  0  0  0
 22 68  1  0  0  0
 23 24  1  0  0  0
 23 69  1  0  0  0
 23 70  1  0  0  0
 24 25  2  0  0  0
 24 29  1  0  0  0
 25 26  1  0  0  0
 25 71  1  0  0  0
 26 27  2  0  0  0
 26 72  1  0  0  0
 27 28  1  0  0  0
 27 73  1  0  0  0
 28 29  2  0  0  0
 28 74  1  0  0  0
 29 75  1  0  0  0
 30 33  1  0  0  0
 30 76  1  0  0  0
 31 32  1  0  0  0
 31 38  1  0  0  0
 31 77  1  0  0  0
 32 33  1  0  0  0
 32 35  1  0  0  0
 32 78  1  0  0  0
 33 34  2  0  0  0
 35 36  1  0  0  0
 35 37  1  0  0  0
 35 79  1  0  0  0
 36 80  1  0  0  0
 36 81  1  0  0  0
 36 82  1  0  0  0
 37 83  1  0  0  0
 37 84  1  0  0  0
 37 85  1  0  0  0
 38 39  1  0  0  0
 38 41  2  0  0  0
 39 40  1  0  0  0
 39 50  1  0  0  0
 40 42  1  0  0  0
 40 86  1  0  0  0
 40 87  1  0  0  0
 42 43  2  0  0  0
 42 46  1  0  0  0
 43 44  1  0  0  0
 43 88  1  0  0  0
 44 45  1  0  0  0
 45 46  2  0  0  0
 45 47  1  0  0  0
 47 48  1  0  0  0
 47 49  1  0  0  0
 47 89  1  0  0  0
 48 90  1  0  0  0
 48 91  1  0  0  0
 48 92  1  0  0  0
 49 93  1  0  0  0
 49 94  1  0  0  0
 49 95  1  0  0  0
 50 96  1  0  0  0
 50 97  1  0  0  0
 50 98  1  0  0  0
M  END
> <s_m_source_file>
../3tne_ligand.sdf

> <i_m_source_file_index>
1

> <s_epik_input>
czFbY0hdbltjSF1jMVtDSDJdT0MoPU8pW05IXVtDQEBIXShbQ0gyXWMyW2NIXVtjSF1bY0hdW2NIXVtjSF0yKVtDQEBIXShbT0hdKVtDSDJdW0NASF0oW0NIMl1jM1tjSF1bY0hdW2NIXVtjSF1bY0hdMylbTkhdQyg9TylbQ0BIXShbQ0hdKFtDSDNdKVtDSDNdKVtOSF1DKD1PKU4oW0NIM10pW0NIMl1jNFtjSF1zYyhuNClbQ0hdKFtDSDNdKVtDSDNd

> <s_epik_cmdline>
J2VwaWtfYXBwJywgJy1pbWFlJywgJ2xpZ2FuZF9wcm8ubWFlJywgJy1vbWFlJywgJ2xpZ2FuZF9wcmVwLm1hZScsICctbXMnLCAnMScsICctcGgnLCAnNycsICctcGh0JywgJzAuNScsICctbnQn

> <r_lp_tautomer_probability>
1

> <r_epik_Ionization_Penalty>
  0.0002

> <r_epik_Ionization_Penalty_Charging>
  0.0000

> <r_epik_Ionization_Penalty_Neutral>
  0.0002

> <r_epik_State_Penalty>
 -0.0000

> <r_epik_Charging_Adjusted_Penalty>
0

> <i_epik_Tot_Q>
0

> <i_epik_Tot_abs_Q>
0

> <s_epik_Chemistry_Notes>
This compound has an ester and may undergo hydrolysis at high or low pH.

$$$$
