3tnh_ligand
                    3D
 Schrodinger Suite 2020-3.
 26 27  0  0  1  0            999 V2000
   47.5240  -15.2590  -12.2740 C   0  0  0  0  0  0
   47.9870  -13.9670  -12.0620 C   0  0  0  0  0  0
   49.3310  -13.6780  -12.1500 C   0  0  0  0  0  0
   46.2000  -15.4960  -12.1810 O   0  0  0  0  0  0
   50.2240  -14.7040  -12.4550 C   0  0  0  0  0  0
   49.7450  -16.0080  -12.6630 C   0  0  0  0  0  0
   48.3950  -16.2960  -12.5750 C   0  0  0  0  0  0
   51.5560  -14.4120  -12.5630 N   0  0  0  0  0  0
   52.4580  -15.3410  -12.6420 N   0  0  0  0  0  0
   53.7680  -14.9780  -12.7450 C   0  0  0  0  0  0
   54.8790  -15.8000  -12.7020 C   0  0  0  0  0  0
   54.8350  -17.1690  -12.5500 N   0  0  0  0  0  0
   55.9770  -15.0270  -12.8440 N   0  3  0  0  0  0
   55.5600  -13.7080  -12.9790 N   0  0  0  0  0  0
   54.2530  -13.6670  -12.9240 C   0  0  0  0  0  0
   53.4330  -12.5480  -13.0420 N   0  0  0  0  0  0
   47.2793  -13.1731  -11.8234 H   0  0  0  0  0  0
   49.6907  -12.6626  -11.9837 H   0  0  0  0  0  0
   45.5095  -14.6737  -11.9423 H   0  0  0  0  0  0
   50.4490  -16.8064  -12.8977 H   0  0  0  0  0  0
   48.0261  -17.3087  -12.7375 H   0  0  0  0  0  0
   53.8666  -17.6797  -12.4435 H   0  0  0  0  0  0
   55.7683  -17.7510  -12.5352 H   0  0  0  0  0  0
   52.3404  -12.6573  -12.9760 H   0  0  0  0  0  0
   53.8777  -11.5546  -13.2012 H   0  0  0  0  0  0
   57.0497  -15.2697  -12.8658 H   0  0  0  0  0  0
  1  2  2  0  0  0
  1  4  1  0  0  0
  1  7  1  0  0  0
  2  3  1  0  0  0
  2 17  1  0  0  0
  3  5  2  0  0  0
  3 18  1  0  0  0
  4 19  1  0  0  0
  5  6  1  0  0  0
  5  8  1  0  0  0
  6  7  2  0  0  0
  6 20  1  0  0  0
  7 21  1  0  0  0
  8  9  2  0  0  0
  9 10  1  0  0  0
 10 11  2  0  0  0
 10 15  1  0  0  0
 11 12  1  0  0  0
 11 13  1  0  0  0
 12 22  1  0  0  0
 12 23  1  0  0  0
 13 14  1  0  0  0
 13 26  1  0  0  0
 14 15  2  0  0  0
 15 16  1  0  0  0
 16 24  1  0  0  0
 16 25  1  0  0  0
M  CHG  1  13   1
M  END
> <s_m_source_file>
../3tnh_ligand.sdf

> <i_m_source_file_index>
1

> <s_epik_input>
W09IXWMxW2NIXVtjSF1jKFtjSF1bY0hdMSkvTj1OL2MyYyhbTkgyXSlbbkhdbmMyW05IMl0=

> <s_epik_cmdline>
J2VwaWtfYXBwJywgJy1pbWFlJywgJ2xpZ2FuZF9wcm8ubWFlJywgJy1vbWFlJywgJ2xpZ2FuZF9wcmVwLm1hZScsICctbXMnLCAnMScsICctcGgnLCAnNycsICctcGh0JywgJzAuNScsICctbnQn

> <r_epik_Ionization_Penalty>
  0.0251

> <r_epik_Ionization_Penalty_Charging>
  0.0000

> <r_epik_Ionization_Penalty_Neutral>
  0.0251

> <r_epik_State_Penalty>
  0.4107

> <r_epik_Charging_Adjusted_Penalty>
0.410679838952604

> <i_epik_Tot_Q>
1

> <i_epik_Tot_abs_Q>
1

> <s_epik_Chemistry_Notes>
This compound has an imine and may undergo hydrolysis.

$$$$
