3tpp_ligand
                    3D
 Schrodinger Suite 2020-3.
 80 83  0  0  1  0            999 V2000
   26.3450   36.1600    2.4520 C   0  0  0  0  0  0
   27.6890   35.5430    2.2710 C   0  0  0  0  0  0
   26.7370   34.7200    3.0660 C   0  0  0  0  0  0
   28.7400   36.1130    3.0810 N   0  3  0  0  0  0
   29.4950   37.0920    2.2420 C   0  0  0  0  0  0
   30.8220   37.4050    2.9060 C   0  0  2  0  0  0
   31.5150   38.3460    1.9300 C   0  0  1  0  0  0
   31.0010   39.7030    1.7940 N   0  0  0  0  0  0
   30.1900   40.0840    0.7690 C   0  0  0  0  0  0
   29.9240   39.3110   -0.1310 O   0  0  0  0  0  0
   31.5100   36.1420    3.0210 O   0  0  0  0  0  0
   33.0390   38.5410    2.3710 C   0  0  0  0  0  0
   29.7870   41.5160    0.8260 C   0  0  0  0  0  0
   30.7350   42.4270    1.3270 C   0  0  0  0  0  0
   30.3550   43.7710    1.4300 C   0  0  0  0  0  0
   29.0860   44.2090    0.9470 C   0  0  0  0  0  0
   28.1500   43.2680    0.5480 C   0  0  0  0  0  0
   28.4700   41.9470    0.4230 C   0  0  0  0  0  0
   31.3150   44.8100    1.9260 C   0  0  0  0  0  0
   26.8170   43.5970    0.1170 N   0  0  0  0  0  0
   31.4640   45.9420    1.4200 O   0  0  0  0  0  0
   26.1550   42.8100   -0.9810 C   0  0  0  0  0  0
   25.9860   44.7960    0.7960 S   0  0  0  0  0  0
   26.3030   46.2370   -0.1690 C   0  0  0  0  0  0
   24.5950   44.4440    0.7080 O   0  0  0  0  0  0
   26.5450   45.0600    2.1220 O   0  0  0  0  0  0
   33.5910   39.7890    0.2230 C   0  0  0  0  0  0
   34.2860   40.7690   -0.4490 C   0  0  0  0  0  0
   35.1450   41.6850    0.2020 C   0  0  0  0  0  0
   35.3230   41.5390    1.5960 C   0  0  0  0  0  0
   34.5870   40.5130    2.2660 C   0  0  0  0  0  0
   33.7960   39.6420    1.5800 C   0  0  0  0  0  0
   32.0780   44.3060    2.9780 N   0  0  0  0  0  0
   33.0830   45.1870    3.5950 C   0  0  2  0  0  0
   34.4230   44.4130    3.7510 C   0  0  0  0  0  0
   32.6190   45.5730    4.9960 C   0  0  0  0  0  0
   32.1930   44.5870    5.9230 C   0  0  0  0  0  0
   31.7960   45.0120    7.2010 C   0  0  0  0  0  0
   31.6650   46.3500    7.5640 C   0  0  0  0  0  0
   32.0410   47.2890    6.6000 C   0  0  0  0  0  0
   32.4990   46.8990    5.3430 C   0  0  0  0  0  0
   26.4507   37.1224    2.9740 H   0  0  0  0  0  0
   25.8820   36.3255    1.4680 H   0  0  0  0  0  0
   28.3094   35.3616    1.3810 H   0  0  0  0  0  0
   26.6349   34.7482    4.1609 H   0  0  0  0  0  0
   26.0662   33.9512    2.6549 H   0  0  0  0  0  0
   28.2979   36.6214    3.9506 H   0  0  0  0  0  0
   29.4116   35.3131    3.4262 H   0  0  0  0  0  0
   29.6749   36.6598    1.2466 H   0  0  0  0  0  0
   28.9080   38.0166    2.1396 H   0  0  0  0  0  0
   30.7861   37.8276    3.9209 H   0  0  0  0  0  0
   31.2752   37.8838    0.9610 H   0  0  0  0  0  0
   31.2657   40.4685    2.5382 H   0  0  0  0  0  0
   31.1208   35.3628    3.6928 H   0  0  0  0  0  0
   33.0801   38.8219    3.4337 H   0  0  0  0  0  0
   33.5880   37.6000    2.2190 H   0  0  0  0  0  0
   31.7307   42.0981    1.6246 H   0  0  0  0  0  0
   28.8550   45.2728    0.8924 H   0  0  0  0  0  0
   27.7470   41.2336    0.0276 H   0  0  0  0  0  0
   26.8440   42.0317   -1.3409 H   0  0  0  0  0  0
   25.8974   43.4841   -1.8112 H   0  0  0  0  0  0
   25.2396   42.3388   -0.5937 H   0  0  0  0  0  0
   25.9018   46.0946   -1.1833 H   0  0  0  0  0  0
   27.3879   46.4096   -0.2247 H   0  0  0  0  0  0
   25.8170   47.1058    0.2989 H   0  0  0  0  0  0
   32.8921   39.1414   -0.3065 H   0  0  0  0  0  0
   34.1692   40.8423   -1.5302 H   0  0  0  0  0  0
   35.6516   42.4753   -0.3520 H   0  0  0  0  0  0
   36.0026   42.1906    2.1452 H   0  0  0  0  0  0
   34.6605   40.4258    3.3500 H   0  0  0  0  0  0
   31.9448   43.2791    3.3491 H   0  0  0  0  0  0
   33.1726   46.0680    2.9424 H   0  0  0  0  0  0
   34.7924   44.1157    2.7584 H   0  0  0  0  0  0
   34.2586   43.5153    4.3651 H   0  0  0  0  0  0
   35.1657   45.0606    4.2398 H   0  0  0  0  0  0
   32.1745   43.5316    5.6513 H   0  0  0  0  0  0
   31.5781   44.2518    7.9512 H   0  0  0  0  0  0
   31.2908   46.6476    8.5435 H   0  0  0  0  0  0
   31.9745   48.3509    6.8366 H   0  0  0  0  0  0
   32.7693   47.6645    4.6156 H   0  0  0  0  0  0
  1  2  1  0  0  0
  1  3  1  0  0  0
  1 42  1  0  0  0
  1 43  1  0  0  0
  2  3  1  0  0  0
  2  4  1  0  0  0
  2 44  1  0  0  0
  3 45  1  0  0  0
  3 46  1  0  0  0
  4  5  1  0  0  0
  4 47  1  0  0  0
  4 48  1  0  0  0
  5  6  1  0  0  0
  5 49  1  0  0  0
  5 50  1  0  0  0
  6  7  1  0  0  0
  6 11  1  0  0  0
  6 51  1  0  0  0
  7  8  1  0  0  0
  7 12  1  0  0  0
  7 52  1  0  0  0
  8  9  1  0  0  0
  8 53  1  0  0  0
  9 10  2  0  0  0
  9 13  1  0  0  0
 11 54  1  0  0  0
 12 32  1  0  0  0
 12 55  1  0  0  0
 12 56  1  0  0  0
 13 14  2  0  0  0
 13 18  1  0  0  0
 14 15  1  0  0  0
 14 57  1  0  0  0
 15 16  2  0  0  0
 15 19  1  0  0  0
 16 17  1  0  0  0
 16 58  1  0  0  0
 17 18  2  0  0  0
 17 20  1  0  0  0
 18 59  1  0  0  0
 19 21  2  0  0  0
 19 33  1  0  0  0
 20 22  1  0  0  0
 20 23  1  0  0  0
 22 60  1  0  0  0
 22 61  1  0  0  0
 22 62  1  0  0  0
 23 24  1  0  0  0
 23 25  2  0  0  0
 23 26  2  0  0  0
 24 63  1  0  0  0
 24 64  1  0  0  0
 24 65  1  0  0  0
 27 28  2  0  0  0
 27 32  1  0  0  0
 27 66  1  0  0  0
 28 29  1  0  0  0
 28 67  1  0  0  0
 29 30  2  0  0  0
 29 68  1  0  0  0
 30 31  1  0  0  0
 30 69  1  0  0  0
 31 32  2  0  0  0
 31 70  1  0  0  0
 33 34  1  0  0  0
 33 71  1  0  0  0
 34 35  1  0  0  0
 34 36  1  0  0  0
 34 72  1  0  0  0
 35 73  1  0  0  0
 35 74  1  0  0  0
 35 75  1  0  0  0
 36 37  2  0  0  0
 36 41  1  0  0  0
 37 38  1  0  0  0
 37 76  1  0  0  0
 38 39  2  0  0  0
 38 77  1  0  0  0
 39 40  1  0  0  0
 39 78  1  0  0  0
 40 41  2  0  0  0
 40 79  1  0  0  0
 41 80  1  0  0  0
M  CHG  1   4   1
M  END
> <s_m_source_file>
../3tpp_ligand.sdf

> <i_m_source_file_index>
1

> <s_epik_input>
W2NIXTFbY0hdW2NIXVtjSF1bY0hdYzFbQ0gyXVtDQEBIXShbQ0BIXShbT0hdKVtDSDJdW05IMitdW0NIXTJbQ0gyXVtDSDJdMilbTkhdQyg9TyljM1tjSF1jKFtjSF1jKFtjSF0zKU4oW0NIM10pUyg9TykoPU8pW0NIM10pQyg9TylbTkhdW0NASF0oW0NIM10pYzRbY0hdW2NIXVtjSF1bY0hdW2NIXTQ=

> <s_epik_cmdline>
J2VwaWtfYXBwJywgJy1pbWFlJywgJ2xpZ2FuZF9wcm8ubWFlJywgJy1vbWFlJywgJ2xpZ2FuZF9wcmVwLm1hZScsICctbXMnLCAnMScsICctcGgnLCAnNycsICctcGh0JywgJzAuNScsICctbnQn

> <r_lp_tautomer_probability>
1

> <r_epik_Ionization_Penalty>
  0.0021

> <r_epik_Ionization_Penalty_Charging>
  0.0021

> <r_epik_Ionization_Penalty_Neutral>
  0.0000

> <r_epik_State_Penalty>
 -0.0000

> <r_epik_Charging_Adjusted_Penalty>
0.00208216025952337

> <i_epik_Tot_Q>
1

> <i_epik_Tot_abs_Q>
1

$$$$
