3tpr_ligand
                    3D
 Schrodinger Suite 2020-3.
 80 83  0  0  1  0            999 V2000
   62.4840   47.5100    8.8550 C   0  0  0  0  0  0
   63.9690   47.2340    8.8690 C   0  0  0  0  0  0
   63.2960   47.9270   10.0700 C   0  0  0  0  0  0
   64.7250   48.1590    7.9970 N   0  3  0  0  0  0
   66.1490   47.9030    8.1500 C   0  0  0  0  0  0
   66.9020   49.0400    7.4850 C   0  0  2  0  0  0
   68.3160   48.9290    7.9120 C   0  0  1  0  0  0
   68.9510   47.6670    7.4500 N   0  0  0  0  0  0
   69.0490   46.6130    8.2860 C   0  0  0  0  0  0
   68.4160   46.5130    9.3430 O   0  0  0  0  0  0
   66.4040   50.3210    7.8760 O   0  0  0  0  0  0
   69.1060   50.0840    7.3980 C   0  0  0  0  0  0
   69.7340   45.3860    7.6610 C   0  0  0  0  0  0
   70.8140   45.5120    6.7860 C   0  0  0  0  0  0
   71.3810   44.3950    6.1890 C   0  0  0  0  0  0
   70.8670   43.1050    6.4020 C   0  0  0  0  0  0
   69.7930   42.9850    7.3240 C   0  0  0  0  0  0
   69.2210   44.1290    7.9310 C   0  0  0  0  0  0
   72.4900   44.6600    5.2300 C   0  0  0  0  0  0
   69.1290   41.8320    7.5980 N   0  0  0  0  0  0
   73.2230   43.8380    4.7480 O   0  0  0  0  0  0
   68.8930   41.4820    9.0270 C   0  0  0  0  0  0
   69.4040   40.4940    6.6800 S   0  0  0  0  0  0
   70.8840   39.6150    7.2220 C   0  0  0  0  0  0
   68.1800   39.6600    7.0080 O   0  0  0  0  0  0
   69.6080   40.7220    5.1880 O   0  0  0  0  0  0
   71.1640   49.8310    8.9030 C   0  0  0  0  0  0
   72.5400   49.6690    9.0700 C   0  0  0  0  0  0
   73.4090   49.5370    8.0020 C   0  0  0  0  0  0
   72.8550   49.5970    6.7460 C   0  0  0  0  0  0
   71.4890   49.7530    6.5610 C   0  0  0  0  0  0
   70.6300   49.8740    7.6230 C   0  0  0  0  0  0
   72.4590   45.8200    4.6560 N   0  0  0  0  0  0
   73.5010   46.0490    3.7000 C   0  0  2  0  0  0
   74.1180   47.3720    4.1460 C   0  0  0  0  0  0
   72.9050   46.0870    2.2980 C   0  0  0  0  0  0
   71.7060   46.7360    2.0440 C   0  0  0  0  0  0
   71.2190   46.7490    0.7050 C   0  0  0  0  0  0
   71.8930   46.1320   -0.3330 C   0  0  0  0  0  0
   73.0930   45.4900   -0.0540 C   0  0  0  0  0  0
   73.6030   45.4760    1.2530 C   0  0  0  0  0  0
   62.2405   48.1633    8.0042 H   0  0  0  0  0  0
   61.9356   46.5614    8.7576 H   0  0  0  0  0  0
   64.6177   46.3577    8.7233 H   0  0  0  0  0  0
   63.2149   49.0151   10.2093 H   0  0  0  0  0  0
   62.9101   47.4133   10.9629 H   0  0  0  0  0  0
   64.4311   47.9978    6.9493 H   0  0  0  0  0  0
   64.5033   49.1974    8.2844 H   0  0  0  0  0  0
   66.4000   47.8548    9.2199 H   0  0  0  0  0  0
   66.4032   46.9463    7.6703 H   0  0  0  0  0  0
   66.7819   49.0157    6.3919 H   0  0  0  0  0  0
   68.3074   48.9259    9.0120 H   0  0  0  0  0  0
   69.3421   47.5914    6.4247 H   0  0  0  0  0  0
   65.3646   50.6000    7.6482 H   0  0  0  0  0  0
   68.9253   50.2007    6.3192 H   0  0  0  0  0  0
   68.7988   51.0008    7.9225 H   0  0  0  0  0  0
   71.2175   46.5010    6.5687 H   0  0  0  0  0  0
   71.2735   42.2365    5.8838 H   0  0  0  0  0  0
   68.3763   44.0199    8.6112 H   0  0  0  0  0  0
   68.7139   42.4008    9.6048 H   0  0  0  0  0  0
   69.7761   40.9630    9.4280 H   0  0  0  0  0  0
   68.0149   40.8239    9.1031 H   0  0  0  0  0  0
   70.8145   39.4102    8.3005 H   0  0  0  0  0  0
   71.7715   40.2336    7.0226 H   0  0  0  0  0  0
   70.9681   38.6654    6.6732 H   0  0  0  0  0  0
   70.5130   49.9232    9.7724 H   0  0  0  0  0  0
   72.9457   49.6456   10.0814 H   0  0  0  0  0  0
   74.4793   49.3927    8.1493 H   0  0  0  0  0  0
   73.5045   49.5202    5.8740 H   0  0  0  0  0  0
   71.0890   49.7800    5.5474 H   0  0  0  0  0  0
   71.7115   46.6026    4.8529 H   0  0  0  0  0  0
   74.2377   45.2322    3.7000 H   0  0  0  0  0  0
   74.5240   47.2630    5.1625 H   0  0  0  0  0  0
   73.3467   48.1563    4.1414 H   0  0  0  0  0  0
   74.9279   47.6501    3.4555 H   0  0  0  0  0  0
   71.1516   47.2226    2.8464 H   0  0  0  0  0  0
   70.2821   47.2634    0.4913 H   0  0  0  0  0  0
   71.4921   46.1490   -1.3464 H   0  0  0  0  0  0
   73.6414   44.9943   -0.8550 H   0  0  0  0  0  0
   74.5539   44.9832    1.4554 H   0  0  0  0  0  0
  1  2  1  0  0  0
  1  3  1  0  0  0
  1 42  1  0  0  0
  1 43  1  0  0  0
  2  3  1  0  0  0
  2  4  1  0  0  0
  2 44  1  0  0  0
  3 45  1  0  0  0
  3 46  1  0  0  0
  4  5  1  0  0  0
  4 47  1  0  0  0
  4 48  1  0  0  0
  5  6  1  0  0  0
  5 49  1  0  0  0
  5 50  1  0  0  0
  6  7  1  0  0  0
  6 11  1  0  0  0
  6 51  1  0  0  0
  7  8  1  0  0  0
  7 12  1  0  0  0
  7 52  1  0  0  0
  8  9  1  0  0  0
  8 53  1  0  0  0
  9 10  2  0  0  0
  9 13  1  0  0  0
 11 54  1  0  0  0
 12 32  1  0  0  0
 12 55  1  0  0  0
 12 56  1  0  0  0
 13 14  2  0  0  0
 13 18  1  0  0  0
 14 15  1  0  0  0
 14 57  1  0  0  0
 15 16  2  0  0  0
 15 19  1  0  0  0
 16 17  1  0  0  0
 16 58  1  0  0  0
 17 18  2  0  0  0
 17 20  1  0  0  0
 18 59  1  0  0  0
 19 21  2  0  0  0
 19 33  1  0  0  0
 20 22  1  0  0  0
 20 23  1  0  0  0
 22 60  1  0  0  0
 22 61  1  0  0  0
 22 62  1  0  0  0
 23 24  1  0  0  0
 23 25  2  0  0  0
 23 26  2  0  0  0
 24 63  1  0  0  0
 24 64  1  0  0  0
 24 65  1  0  0  0
 27 28  2  0  0  0
 27 32  1  0  0  0
 27 66  1  0  0  0
 28 29  1  0  0  0
 28 67  1  0  0  0
 29 30  2  0  0  0
 29 68  1  0  0  0
 30 31  1  0  0  0
 30 69  1  0  0  0
 31 32  2  0  0  0
 31 70  1  0  0  0
 33 34  1  0  0  0
 33 71  1  0  0  0
 34 35  1  0  0  0
 34 36  1  0  0  0
 34 72  1  0  0  0
 35 73  1  0  0  0
 35 74  1  0  0  0
 35 75  1  0  0  0
 36 37  2  0  0  0
 36 41  1  0  0  0
 37 38  1  0  0  0
 37 76  1  0  0  0
 38 39  2  0  0  0
 38 77  1  0  0  0
 39 40  1  0  0  0
 39 78  1  0  0  0
 40 41  2  0  0  0
 40 79  1  0  0  0
 41 80  1  0  0  0
M  CHG  1   4   1
M  END
> <s_m_source_file>
../3tpr_ligand.sdf

> <i_m_source_file_index>
1

> <s_epik_input>
W2NIXTFbY0hdW2NIXVtjSF1bY0hdYzFbQ0gyXVtDQEBIXShbQ0BIXShbT0hdKVtDSDJdW05IMitdW0NIXTJbQ0gyXVtDSDJdMilbTkhdQyg9TyljM1tjSF1jKFtjSF1jKFtjSF0zKU4oW0NIM10pUyg9TykoPU8pW0NIM10pQyg9TylbTkhdW0NASF0oW0NIM10pYzRbY0hdW2NIXVtjSF1bY0hdW2NIXTQ=

> <s_epik_cmdline>
J2VwaWtfYXBwJywgJy1pbWFlJywgJ2xpZ2FuZF9wcm8ubWFlJywgJy1vbWFlJywgJ2xpZ2FuZF9wcmVwLm1hZScsICctbXMnLCAnMScsICctcGgnLCAnNycsICctcGh0JywgJzAuNScsICctbnQn

> <r_lp_tautomer_probability>
1

> <r_epik_Ionization_Penalty>
  0.0021

> <r_epik_Ionization_Penalty_Charging>
  0.0021

> <r_epik_Ionization_Penalty_Neutral>
  0.0000

> <r_epik_State_Penalty>
 -0.0000

> <r_epik_Charging_Adjusted_Penalty>
0.00208216025952337

> <i_epik_Tot_Q>
1

> <i_epik_Tot_abs_Q>
1

$$$$
