3tpu_ligand
                    3D
 Schrodinger Suite 2020-3.
163168  0  0  1  0            999 V2000
   -8.1690   81.1410   79.2370 N   0  3  0  0  0  0
   -8.0470   79.9320   80.0280 C   0  0  2  0  0  0
   -7.2380   78.9050   79.2770 C   0  0  0  0  0  0
   -6.5620   79.2250   78.3100 O   0  0  0  0  0  0
   -9.4140   79.3630   80.3840 C   0  0  0  0  0  0
   -9.3760   78.3490   81.4880 C   0  0  0  0  0  0
   -8.5970   78.5540   82.6050 C   0  0  0  0  0  0
  -10.1390   77.2010   81.4190 C   0  0  0  0  0  0
   -8.5670   77.6320   83.6200 C   0  0  0  0  0  0
  -10.1120   76.2760   82.4380 C   0  0  0  0  0  0
   -9.3260   76.4940   83.5370 C   0  0  0  0  0  0
   -7.3130   77.6640   79.7250 N   0  0  0  0  0  0
   -6.4470   76.6400   79.1900 C   0  0  2  0  0  0
   -7.0090   75.6810   78.1680 C   0  0  0  0  0  0
   -8.0830   75.1270   78.3270 O   0  0  0  0  0  0
   -5.8040   75.8790   80.3400 C   0  0  0  0  0  0
   -4.7930   76.7090   81.1170 C   0  0  0  0  0  0
   -4.4650   76.0550   82.4320 C   0  0  0  0  0  0
   -3.5460   76.9170   80.2890 C   0  0  0  0  0  0
   -6.2300   75.4890   77.1180 N   0  0  0  0  0  0
   -6.4500   74.4790   76.1210 C   0  0  2  0  0  0
   -5.0890   73.8820   75.8050 C   0  0  0  0  0  0
   -4.4890   74.1390   74.7700 O   0  0  0  0  0  0
   -7.1040   75.0970   74.8900 C   0  0  0  0  0  0
   -7.3270   74.1600   73.8590 O   0  0  0  0  0  0
   -4.5720   73.1090   76.7480 N   0  0  0  0  0  0
   -3.2340   72.5290   76.5680 C   0  0  2  0  0  0
   -3.1100   71.7830   75.2410 C   0  0  0  0  0  0
   -4.1370   71.4810   74.6330 O   0  0  0  0  0  0
   -2.9990   71.6170   77.7730 C   0  0  0  0  0  0
   -3.8670   72.2430   78.8700 C   0  0  0  0  0  0
   -5.0850   72.7660   78.1530 C   0  0  0  0  0  0
   -1.8840   71.5270   74.7840 N   0  0  0  0  0  0
   -1.6890   70.8870   73.4870 C   0  0  2  0  0  0
   -0.7190   69.7250   73.5970 C   0  0  0  0  0  0
    0.4430   69.9210   73.9710 O   0  0  0  0  0  0
   -1.2050   71.8820   72.4330 C   0  0  0  0  0  0
   -1.2880   71.3540   71.0220 C   0  0  0  0  0  0
   -0.2830   70.5410   70.5010 C   0  0  0  0  0  0
   -2.3800   71.6560   70.2150 C   0  0  0  0  0  0
   -0.3520   70.0510   69.2010 C   0  0  0  0  0  0
   -2.4570   71.1660   68.9090 C   0  0  0  0  0  0
   -1.4360   70.3640   68.4040 C   0  0  0  0  0  0
   -1.2070   68.5260   73.2570 N   0  0  0  0  0  0
   -0.4890   67.2880   73.5190 C   0  0  2  0  0  0
   -0.2620   66.4000   72.3080 C   0  0  0  0  0  0
    0.5060   65.4460   72.3930 O   0  0  0  0  0  0
   -1.2570   66.4290   74.5090 C   0  0  0  0  0  0
   -1.8870   67.1020   75.6560 C   0  0  0  0  0  0
   -3.2120   67.3480   75.8270 C   0  0  0  0  0  0
   -1.2320   67.5610   76.8400 C   0  0  0  0  0  0
   -3.4300   67.9540   77.0490 N   0  0  0  0  0  0
   -2.2290   68.0980   77.6860 C   0  0  0  0  0  0
    0.0980   67.5770   77.2660 C   0  0  0  0  0  0
   -1.9330   68.6540   78.9240 C   0  0  0  0  0  0
    0.3900   68.1340   78.5000 C   0  0  0  0  0  0
   -0.6200   68.6660   79.3130 C   0  0  0  0  0  0
   -0.9640   66.6410   71.2090 N   0  0  0  0  0  0
   -0.8110   65.7680   70.0460 C   0  0  2  0  0  0
    0.6300   65.8170   69.5370 C   0  0  0  0  0  0
    1.2900   66.8540   69.6110 O   0  0  0  0  0  0
   -1.7980   66.1610   68.9520 C   0  0  0  0  0  0
   -3.2420   66.0050   69.3560 C   0  0  0  0  0  0
   -4.0250   64.9780   68.8230 C   0  0  0  0  0  0
   -3.8150   66.8840   70.2710 C   0  0  0  0  0  0
   -5.3500   64.8330   69.1960 C   0  0  0  0  0  0
   -5.1450   66.7460   70.6490 C   0  0  0  0  0  0
   -5.9190   65.7170   70.1120 C   0  0  0  0  0  0
    1.1290   64.6950   69.0560 N   0  0  0  0  0  0
    2.4930   64.6620   68.5880 C   0  0  2  0  0  0
    2.5940   65.5620   67.3760 C   0  0  0  0  0  0
    1.5940   65.9280   66.7780 O   0  0  0  0  0  0
    2.9090   63.2380   68.2550 C   0  0  0  0  0  0
    3.3350   62.4590   69.4690 C   0  0  0  0  0  0
    3.4410   63.0680   70.5540 O   0  0  0  0  0  0
    3.5770   61.2550   69.3400 O   0  0  0  0  0  0
    3.8220   65.9190   67.0150 N   0  0  0  0  0  0
    4.0620   66.7830   65.8650 C   0  0  2  0  0  0
    4.1830   65.9700   64.5810 C   0  0  0  0  0  0
    5.2860   65.6250   64.1540 O   0  0  0  0  0  0
    5.3370   67.6260   66.0500 C   0  0  2  0  0  0
    5.1380   68.6580   67.1620 C   0  0  0  0  0  0
    5.7180   68.3090   64.7450 C   0  0  0  0  0  0
    3.8480   69.4410   67.0440 C   0  0  0  0  0  0
    3.1810   65.6430   63.9440 O   0  0  0  0  0  0
   -7.1665   81.5252   78.9975 H   0  0  0  0  0  0
   -8.7251   81.8986   79.8086 H   0  0  0  0  0  0
   -8.7079   80.9164   78.3048 H   0  0  0  0  0  0
   -7.5205   80.2316   80.9462 H   0  0  0  0  0  0
  -10.0766   80.1780   80.7107 H   0  0  0  0  0  0
   -9.8471   78.8698   79.5013 H   0  0  0  0  0  0
   -7.9967   79.4604   82.6835 H   0  0  0  0  0  0
  -10.7700   77.0249   80.5479 H   0  0  0  0  0  0
   -7.9387   77.8046   84.4938 H   0  0  0  0  0  0
  -10.7158   75.3711   82.3697 H   0  0  0  0  0  0
   -9.3037   75.7632   84.3454 H   0  0  0  0  0  0
   -8.0411   77.4134   80.5106 H   0  0  0  0  0  0
   -5.7512   77.2569   78.6024 H   0  0  0  0  0  0
   -6.5825   75.5566   81.0470 H   0  0  0  0  0  0
   -5.2775   74.9968   79.9470 H   0  0  0  0  0  0
   -5.2284   77.6940   81.3409 H   0  0  0  0  0  0
   -5.3887   75.9160   83.0128 H   0  0  0  0  0  0
   -3.7699   76.6942   82.9961 H   0  0  0  0  0  0
   -3.9966   75.0768   82.2483 H   0  0  0  0  0  0
   -3.8145   77.3955   79.3356 H   0  0  0  0  0  0
   -3.0713   75.9448   80.0905 H   0  0  0  0  0  0
   -2.8445   77.5622   80.8383 H   0  0  0  0  0  0
   -5.3664   76.1652   77.0346 H   0  0  0  0  0  0
   -7.1336   73.7187   76.5266 H   0  0  0  0  0  0
   -8.0774   75.5268   75.1688 H   0  0  0  0  0  0
   -6.4548   75.8891   74.4886 H   0  0  0  0  0  0
   -7.7939   74.4806   72.9160 H   0  0  0  0  0  0
   -2.4951   73.3427   76.5242 H   0  0  0  0  0  0
   -3.3130   70.5925   77.5242 H   0  0  0  0  0  0
   -1.9300   71.6200   78.0322 H   0  0  0  0  0  0
   -4.1312   71.4747   79.6116 H   0  0  0  0  0  0
   -3.3078   73.0517   79.3632 H   0  0  0  0  0  0
   -5.4873   73.6729   78.6280 H   0  0  0  0  0  0
   -5.8788   72.0081   78.0786 H   0  0  0  0  0  0
   -1.0137   71.8041   75.3970 H   0  0  0  0  0  0
   -2.6850   70.5128   73.2077 H   0  0  0  0  0  0
   -1.8193   72.7933   72.4797 H   0  0  0  0  0  0
   -0.1530   72.1386   72.6267 H   0  0  0  0  0  0
    0.5736   70.2842   71.1242 H   0  0  0  0  0  0
   -3.1833   72.2809   70.6053 H   0  0  0  0  0  0
    0.4479   69.4211   68.8118 H   0  0  0  0  0  0
   -3.3163   71.4113   68.2849 H   0  0  0  0  0  0
   -1.4923   69.9848   67.3836 H   0  0  0  0  0  0
   -2.1890   68.4981   72.7621 H   0  0  0  0  0  0
    0.4718   67.6765   73.8876 H   0  0  0  0  0  0
   -2.0793   65.9161   73.9887 H   0  0  0  0  0  0
   -0.5797   65.6825   74.9494 H   0  0  0  0  0  0
   -3.9904   67.1027   75.1045 H   0  0  0  0  0  0
    0.8883   67.1605   76.6414 H   0  0  0  0  0  0
   -2.7158   69.0650   79.5615 H   0  0  0  0  0  0
    1.4237   68.1590   78.8450 H   0  0  0  0  0  0
   -0.3543   69.0993   80.2772 H   0  0  0  0  0  0
   -1.6588   67.4929   71.1697 H   0  0  0  0  0  0
   -1.0443   64.7486   70.3871 H   0  0  0  0  0  0
   -1.6451   67.2164   68.6821 H   0  0  0  0  0  0
   -1.6350   65.5288   68.0667 H   0  0  0  0  0  0
   -3.5877   64.2835   68.1057 H   0  0  0  0  0  0
   -3.2143   67.6886   70.6952 H   0  0  0  0  0  0
   -5.9494   64.0268   68.7732 H   0  0  0  0  0  0
   -5.5834   67.4414   71.3648 H   0  0  0  0  0  0
   -6.9624   65.6047   70.4067 H   0  0  0  0  0  0
    0.5099   63.7869   69.0108 H   0  0  0  0  0  0
    3.1331   65.0331   69.4020 H   0  0  0  0  0  0
    2.0631   62.7072   67.7938 H   0  0  0  0  0  0
    3.7558   63.2580   67.5532 H   0  0  0  0  0  0
    3.7505   62.5270   71.4604 H   0  0  0  0  0  0
    4.6694   65.5453   67.6086 H   0  0  0  0  0  0
    3.1705   67.4262   65.8257 H   0  0  0  0  0  0
    5.3577   65.0386   63.2261 H   0  0  0  0  0  0
    6.1671   66.9638   66.3371 H   0  0  0  0  0  0
    5.1229   68.1484   68.1367 H   0  0  0  0  0  0
    5.9641   69.3841   67.1406 H   0  0  0  0  0  0
    5.8560   67.5502   63.9607 H   0  0  0  0  0  0
    6.6554   68.8677   64.8836 H   0  0  0  0  0  0
    4.9181   69.0029   64.4472 H   0  0  0  0  0  0
    3.7774   70.1587   67.8746 H   0  0  0  0  0  0
    2.9940   68.7488   67.0839 H   0  0  0  0  0  0
    3.8351   69.9845   66.0877 H   0  0  0  0  0  0
  1  2  1  0  0  0
  1 86  1  0  0  0
  1 87  1  0  0  0
  1 88  1  0  0  0
  2  3  1  0  0  0
  2  5  1  0  0  0
  2 89  1  0  0  0
  3  4  2  0  0  0
  3 12  1  0  0  0
  5  6  1  0  0  0
  5 90  1  0  0  0
  5 91  1  0  0  0
  6  7  2  0  0  0
  6  8  1  0  0  0
  7  9  1  0  0  0
  7 92  1  0  0  0
  8 10  2  0  0  0
  8 93  1  0  0  0
  9 11  2  0  0  0
  9 94  1  0  0  0
 10 11  1  0  0  0
 10 95  1  0  0  0
 11 96  1  0  0  0
 12 13  1  0  0  0
 12 97  1  0  0  0
 13 14  1  0  0  0
 13 16  1  0  0  0
 13 98  1  0  0  0
 14 15  2  0  0  0
 14 20  1  0  0  0
 16 17  1  0  0  0
 16 99  1  0  0  0
 16100  1  0  0  0
 17 18  1  0  0  0
 17 19  1  0  0  0
 17101  1  0  0  0
 18102  1  0  0  0
 18103  1  0  0  0
 18104  1  0  0  0
 19105  1  0  0  0
 19106  1  0  0  0
 19107  1  0  0  0
 20 21  1  0  0  0
 20108  1  0  0  0
 21 22  1  0  0  0
 21 24  1  0  0  0
 21109  1  0  0  0
 22 23  2  0  0  0
 22 26  1  0  0  0
 24 25  1  0  0  0
 24110  1  0  0  0
 24111  1  0  0  0
 25112  1  0  0  0
 26 27  1  0  0  0
 26 32  1  0  0  0
 27 28  1  0  0  0
 27 30  1  0  0  0
 27113  1  0  0  0
 28 29  2  0  0  0
 28 33  1  0  0  0
 30 31  1  0  0  0
 30114  1  0  0  0
 30115  1  0  0  0
 31 32  1  0  0  0
 31116  1  0  0  0
 31117  1  0  0  0
 32118  1  0  0  0
 32119  1  0  0  0
 33 34  1  0  0  0
 33120  1  0  0  0
 34 35  1  0  0  0
 34 37  1  0  0  0
 34121  1  0  0  0
 35 36  2  0  0  0
 35 44  1  0  0  0
 37 38  1  0  0  0
 37122  1  0  0  0
 37123  1  0  0  0
 38 39  2  0  0  0
 38 40  1  0  0  0
 39 41  1  0  0  0
 39124  1  0  0  0
 40 42  2  0  0  0
 40125  1  0  0  0
 41 43  2  0  0  0
 41126  1  0  0  0
 42 43  1  0  0  0
 42127  1  0  0  0
 43128  1  0  0  0
 44 45  1  0  0  0
 44129  1  0  0  0
 45 46  1  0  0  0
 45 48  1  0  0  0
 45130  1  0  0  0
 46 47  2  0  0  0
 46 58  1  0  0  0
 48 49  1  0  0  0
 48131  1  0  0  0
 48132  1  0  0  0
 49 50  2  0  0  0
 49 51  1  0  0  0
 50 52  1  0  0  0
 50133  1  0  0  0
 51 53  2  0  0  0
 51 54  1  0  0  0
 52 53  1  0  0  0
 53 55  1  0  0  0
 54 56  2  0  0  0
 54134  1  0  0  0
 55 57  2  0  0  0
 55135  1  0  0  0
 56 57  1  0  0  0
 56136  1  0  0  0
 57137  1  0  0  0
 58 59  1  0  0  0
 58138  1  0  0  0
 59 60  1  0  0  0
 59 62  1  0  0  0
 59139  1  0  0  0
 60 61  2  0  0  0
 60 69  1  0  0  0
 62 63  1  0  0  0
 62140  1  0  0  0
 62141  1  0  0  0
 63 64  2  0  0  0
 63 65  1  0  0  0
 64 66  1  0  0  0
 64142  1  0  0  0
 65 67  2  0  0  0
 65143  1  0  0  0
 66 68  2  0  0  0
 66144  1  0  0  0
 67 68  1  0  0  0
 67145  1  0  0  0
 68146  1  0  0  0
 69 70  1  0  0  0
 69147  1  0  0  0
 70 71  1  0  0  0
 70 73  1  0  0  0
 70148  1  0  0  0
 71 72  2  0  0  0
 71 77  1  0  0  0
 73 74  1  0  0  0
 73149  1  0  0  0
 73150  1  0  0  0
 74 75  1  0  0  0
 74 76  2  0  0  0
 75151  1  0  0  0
 77 78  1  0  0  0
 77152  1  0  0  0
 78 79  1  0  0  0
 78 81  1  0  0  0
 78153  1  0  0  0
 79 80  1  0  0  0
 79 85  2  0  0  0
 80154  1  0  0  0
 81 82  1  0  0  0
 81 83  1  0  0  0
 81155  1  0  0  0
 82 84  1  0  0  0
 82156  1  0  0  0
 82157  1  0  0  0
 83158  1  0  0  0
 83159  1  0  0  0
 83160  1  0  0  0
 84161  1  0  0  0
 84162  1  0  0  0
 84163  1  0  0  0
M  CHG  1   1   1
M  END
> <s_m_source_file>
../3tpu_ligand.sdf

> <i_m_source_file_index>
1

> <s_epik_input>
W2NIXTFbY0hdW2NIXVtjSF1bY0hdYzFbQ0gyXVtDQEhdKFtOSDMrXSlDKD1PKVtOSF1bQ0BASF0oW0NIMl1bQ0hdKFtDSDNdKVtDSDNdKUMoPU8pW05IXVtDQEBIXShbQ0gyXVtPSF0pQyg9TylOMltDQEBIXShbQ0gyXVtDSDJdW0NIMl0yKUMoPU8pW05IXVtDQEBIXShbQ0gyXWMzW2NIXVtjSF1bY0hdW2NIXVtjSF0zKUMoPU8pW05IXVtDQEBIXShbQ0gyXWM0W2NIXVtuSF1jKGM0NSlbY0hdW2NIXVtjSF1bY0hdNSlDKD1PKVtOSF1bQ0BASF0oW0NIMl1jNltjSF1bY0hdW2NIXVtjSF1bY0hdNilDKD1PKVtOSF1bQ0BASF0oW0NIMl1DKD1PKVtPSF0pQyg9TylbTkhdW0NASF0oQyg9TylbT0hdKVtDQEBIXShbQ0gzXSlbQ0gyXVtDSDNd

> <s_epik_cmdline>
J2VwaWtfYXBwJywgJy1pbWFlJywgJ2xpZ2FuZF9wcm8ubWFlJywgJy1vbWFlJywgJ2xpZ2FuZF9wcmVwLm1hZScsICctbXMnLCAnMScsICctcGgnLCAnNycsICctcGh0JywgJzAuNScsICctbnQn

> <s_epik_pKa_notes>
Molecule size exceeds maximum supported for generating protonation states

$$$$
