3tpx_ligand
                    3D
 Schrodinger Suite 2020-3.
204207  0  0  1  0            999 V2000
   32.3650  -51.7970   -7.2690 N   0  3  0  0  0  0
   33.2460  -50.6150   -7.1090 C   0  0  2  0  0  0
   34.6740  -50.9390   -7.6240 C   0  0  0  0  0  0
   33.2750  -50.1210   -5.6610 C   0  0  0  0  0  0
   33.6410  -48.9280   -5.4600 O   0  0  0  0  0  0
   32.8780  -50.9340   -4.6800 N   0  0  0  0  0  0
   32.9550  -50.4840   -3.3060 C   0  0  2  0  0  0
   32.4530  -51.5170   -2.2800 C   0  0  0  0  0  0
   30.9140  -51.7180   -2.3280 C   0  0  0  0  0  0
   30.3240  -52.6750   -3.0520 C   0  0  0  0  0  0
   28.9640  -52.5750   -2.8450 N   0  0  0  0  0  0
   28.6970  -51.5630   -2.0050 C   0  0  0  0  0  0
   27.4860  -51.0840   -1.4800 C   0  0  0  0  0  0
   27.4870  -49.9790   -0.6040 C   0  0  0  0  0  0
   28.7580  -49.3970   -0.2450 C   0  0  0  0  0  0
   29.9570  -49.9130   -0.7480 C   0  0  0  0  0  0
   29.9500  -50.9940   -1.6470 C   0  0  0  0  0  0
   32.2030  -49.1590   -3.1670 C   0  0  0  0  0  0
   32.5190  -48.3520   -2.3030 O   0  0  0  0  0  0
   31.0470  -49.0230   -4.0590 N   0  0  0  0  0  0
   30.0430  -48.0080   -3.6590 C   0  0  1  0  0  0
   30.2610  -46.7280   -4.4740 C   0  0  0  0  0  0
   29.4060  -45.7890   -4.4950 O   0  0  0  0  0  0
   28.6960  -48.6030   -3.9840 C   0  0  0  0  0  0
   28.6090  -49.1120   -5.4410 C   0  0  0  0  0  0
   28.3300  -50.4590   -5.6430 C   0  0  0  0  0  0
   28.8100  -48.2770   -6.5530 C   0  0  0  0  0  0
   28.2480  -51.0050   -6.9320 C   0  0  0  0  0  0
   28.7250  -48.8020   -7.8510 C   0  0  0  0  0  0
   28.4390  -50.1600   -8.0330 C   0  0  0  0  0  0
   28.3480  -50.6940   -9.2870 O   0  0  0  0  0  0
   31.4650  -46.5470   -5.1590 N   0  0  0  0  0  0
   31.6290  -45.3970   -6.1080 C   0  0  2  0  0  0
   33.0890  -45.4550   -6.6950 C   0  0  0  0  0  0
   31.4850  -44.0860   -5.3920 C   0  0  0  0  0  0
   30.5710  -43.2630   -5.7650 O   0  0  0  0  0  0
   32.1070  -43.9460   -4.1310 N   0  0  0  0  0  0
   32.0810  -42.6880   -3.3960 C   0  0  1  0  0  0
   30.6610  -42.5960   -2.7570 C   0  0  0  0  0  0
   30.2140  -41.4540   -2.5280 O   0  0  0  0  0  0
   33.1400  -42.6450   -2.3160 C   0  0  0  0  0  0
   33.0960  -41.3030   -1.5790 C   0  0  0  0  0  0
   33.1050  -40.2500   -2.2340 O   0  0  0  0  0  0
   32.9190  -41.3600   -0.2330 N   0  0  0  0  0  0
   27.7480  -43.2140   -2.6760 C   0  0  0  0  0  0
   30.1250  -43.7730   -2.3090 N   0  0  0  0  0  0
   26.9010  -42.4330   -2.2580 O   0  0  0  0  0  0
   28.7730  -43.7530   -1.6560 C   0  0  2  0  0  0
   28.4640  -45.1850   -1.2400 C   0  0  0  0  0  0
   27.1360  -45.3840   -0.4850 C   0  0  0  0  0  0
   24.7170  -45.8590    0.8700 C   0  0  0  0  0  0
   23.4770  -46.0700    1.6480 C   0  0  0  0  0  0
   23.6750  -46.8700    2.7090 F   0  0  0  0  0  0
   23.0290  -44.9810    2.1520 F   0  0  0  0  0  0
   22.5080  -46.7010    0.9420 F   0  0  0  0  0  0
   26.1530  -46.2220   -1.0840 C   0  0  0  0  0  0
   26.9390  -44.7980    0.7580 C   0  0  0  0  0  0
   24.9200  -46.4520   -0.4090 C   0  0  0  0  0  0
   25.7330  -45.0140    1.4710 C   0  0  0  0  0  0
   27.7660  -43.6180   -3.9340 N   0  0  0  0  0  0
   26.7420  -43.1660   -4.9360 C   0  0  1  0  0  0
   27.0030  -41.7390   -5.2210 C   0  0  0  0  0  0
   26.0660  -40.9070   -5.2990 O   0  0  0  0  0  0
   26.8670  -43.9710   -6.2190 C   0  0  0  0  0  0
   26.2300  -45.3450   -6.1160 C   0  0  0  0  0  0
   25.1940  -45.6800   -7.2160 C   0  0  0  0  0  0
   25.5720  -46.5000   -8.1040 O   0  0  0  0  0  0
   24.0360  -45.1870   -7.1120 O   0  0  0  0  0  0
   28.2940  -41.2180   -5.1640 N   0  0  0  0  0  0
   28.4850  -39.7760   -5.2980 C   0  0  1  0  0  0
   27.9670  -39.0140   -4.1670 C   0  0  0  0  0  0
   27.4580  -37.8600   -4.3130 O   0  0  0  0  0  0
   30.0210  -39.5170   -5.4920 C   0  0  0  0  0  0
   30.3790  -38.0380   -5.3870 C   0  0  0  0  0  0
   31.2760  -37.7270   -4.1720 C   0  0  0  0  0  0
   30.9660  -36.3480   -3.5700 C   0  0  0  0  0  0
   31.5170  -36.2200   -2.2020 N   0  3  0  0  0  0
   27.9780  -39.6080   -2.8150 N   0  0  0  0  0  0
   27.4030  -38.8470   -1.7410 C   0  0  2  0  0  0
   27.6870  -39.5900   -0.3870 C   0  0  0  0  0  0
   29.2050  -39.7140   -0.0120 C   0  0  0  0  0  0
   29.7380  -38.3060   -0.0030 C   0  0  0  0  0  0
   29.3480  -40.4510    1.3270 C   0  0  0  0  0  0
   25.8480  -38.8440   -1.9100 C   0  0  0  0  0  0
   25.2530  -37.8120   -1.5490 O   0  0  0  0  0  0
   25.2990  -39.9110   -2.3710 N   0  0  0  0  0  0
   23.7850  -39.9670   -2.5070 C   0  0  2  0  0  0
   23.3700  -41.3290   -3.0250 C   0  0  0  0  0  0
   23.2930  -42.3410   -1.8360 C   0  0  0  0  0  0
   22.0610  -42.1240   -0.9210 C   0  0  0  0  0  0
   23.3440  -43.7780   -2.3570 C   0  0  0  0  0  0
   23.3250  -38.9210   -3.5070 C   0  0  0  0  0  0
   22.3110  -38.2420   -3.3030 O   0  0  0  0  0  0
   24.1330  -38.6880   -4.6070 N   0  0  0  0  0  0
   23.7720  -37.6430   -5.6210 C   0  0  2  0  0  0
   24.6230  -37.9520   -6.8860 C   0  0  0  0  0  0
   24.1720  -39.1630   -7.7000 C   0  0  0  0  0  0
   24.7190  -39.1530   -9.1720 C   0  0  0  0  0  0
   26.1760  -38.8390   -9.1760 N   0  0  0  0  0  0
   27.1710  -39.7490   -9.1830 C   0  0  0  0  0  0
   28.4200  -39.2830   -9.1750 N   0  0  0  0  0  0
   26.9660  -41.0890   -9.2090 N   0  0  0  0  0  0
   23.9870  -36.2850   -5.0210 C   0  0  0  0  0  0
   23.1870  -35.3710   -5.2930 O   0  0  0  0  0  0
   24.9030  -35.9580   -4.2140 O   0  0  0  0  0  0
   32.3719  -52.1198   -8.3205 H   0  0  0  0  0  0
   31.3391  -51.5323   -6.9734 H   0  0  0  0  0  0
   32.7305  -52.6157   -6.6317 H   0  0  0  0  0  0
   32.7927  -49.8185   -7.7174 H   0  0  0  0  0  0
   34.6174  -51.2904   -8.6648 H   0  0  0  0  0  0
   35.1211  -51.7236   -6.9959 H   0  0  0  0  0  0
   35.2954  -50.0326   -7.5763 H   0  0  0  0  0  0
   32.4945  -51.9393   -4.9088 H   0  0  0  0  0  0
   34.0343  -50.3559   -3.1365 H   0  0  0  0  0  0
   32.9243  -52.4907   -2.4794 H   0  0  0  0  0  0
   32.7157  -51.1835   -1.2652 H   0  0  0  0  0  0
   30.8266  -53.4021   -3.6899 H   0  0  0  0  0  0
   26.5461  -51.5658   -1.7493 H   0  0  0  0  0  0
   26.5544  -49.5759   -0.2092 H   0  0  0  0  0  0
   28.7841  -48.5410    0.4294 H   0  0  0  0  0  0
   30.9055  -49.4729   -0.4401 H   0  0  0  0  0  0
   30.8963  -49.6149   -4.9738 H   0  0  0  0  0  0
   30.1300  -47.7782   -2.5868 H   0  0  0  0  0  0
   28.5005  -49.4546   -3.3158 H   0  0  0  0  0  0
   27.9152  -47.8408   -3.8446 H   0  0  0  0  0  0
   28.1714  -51.1053   -4.7797 H   0  0  0  0  0  0
   29.0323  -47.2200   -6.4069 H   0  0  0  0  0  0
   28.0399  -52.0654   -7.0745 H   0  0  0  0  0  0
   28.8810  -48.1551   -8.7143 H   0  0  0  0  0  0
   28.1226  -51.7631   -9.4145 H   0  0  0  0  0  0
   32.2946  -47.2517   -5.0003 H   0  0  0  0  0  0
   30.8275  -45.4687   -6.8580 H   0  0  0  0  0  0
   33.2319  -46.4060   -7.2291 H   0  0  0  0  0  0
   33.8174  -45.3825   -5.8739 H   0  0  0  0  0  0
   33.2375  -44.6171   -7.3920 H   0  0  0  0  0  0
   32.6211  -44.8207   -3.7061 H   0  0  0  0  0  0
   32.3218  -41.8807   -4.1033 H   0  0  0  0  0  0
   32.9612  -43.4561   -1.5947 H   0  0  0  0  0  0
   34.1334  -42.7715   -2.7712 H   0  0  0  0  0  0
   32.9228  -42.3322    0.2816 H   0  0  0  0  0  0
   32.7719  -40.4339    0.3421 H   0  0  0  0  0  0
   30.6678  -44.7232   -2.4208 H   0  0  0  0  0  0
   28.7603  -43.1066   -0.7661 H   0  0  0  0  0  0
   28.4112  -45.8233   -2.1343 H   0  0  0  0  0  0
   29.2581  -45.5527   -0.5734 H   0  0  0  0  0  0
   26.3428  -46.6844   -2.0526 H   0  0  0  0  0  0
   27.7169  -44.1675    1.1886 H   0  0  0  0  0  0
   24.1458  -47.0706   -0.8630 H   0  0  0  0  0  0
   25.5723  -44.5565    2.4472 H   0  0  0  0  0  0
   28.5660  -44.3088   -4.2386 H   0  0  0  0  0  0
   25.7275  -43.2883   -4.5288 H   0  0  0  0  0  0
   26.3716  -43.4318   -7.0399 H   0  0  0  0  0  0
   27.9307  -44.1113   -6.4617 H   0  0  0  0  0  0
   27.0112  -46.1169   -6.1785 H   0  0  0  0  0  0
   25.7030  -45.4337   -5.1545 H   0  0  0  0  0  0
   24.8878  -46.7844   -8.9170 H   0  0  0  0  0  0
   29.1630  -41.8769   -5.0203 H   0  0  0  0  0  0
   27.8431  -39.4492   -6.1293 H   0  0  0  0  0  0
   30.5848  -40.0587   -4.7182 H   0  0  0  0  0  0
   30.3299  -39.8715   -6.4864 H   0  0  0  0  0  0
   30.9195  -37.7264   -6.2930 H   0  0  0  0  0  0
   29.4585  -37.4441   -5.2867 H   0  0  0  0  0  0
   31.1151  -38.4871   -3.3933 H   0  0  0  0  0  0
   32.3311  -37.7381   -4.4828 H   0  0  0  0  0  0
   31.4112  -35.5642   -4.2005 H   0  0  0  0  0  0
   29.8763  -36.2053   -3.5223 H   0  0  0  0  0  0
   31.2776  -35.2237   -1.8020 H   0  0  0  0  0  0
   32.6088  -36.3501   -2.2328 H   0  0  0  0  0  0
   31.0740  -36.9912   -1.5547 H   0  0  0  0  0  0
   28.4084  -40.6007   -2.6168 H   0  0  0  0  0  0
   27.8647  -37.8513   -1.8146 H   0  0  0  0  0  0
   27.1995  -39.0489    0.4374 H   0  0  0  0  0  0
   27.2884  -40.6139   -0.4400 H   0  0  0  0  0  0
   29.8174  -40.2922   -0.7196 H   0  0  0  0  0  0
   29.5964  -37.8540   -0.9958 H   0  0  0  0  0  0
   30.8099  -38.3213    0.2434 H   0  0  0  0  0  0
   29.1971  -37.7140    0.7499 H   0  0  0  0  0  0
   28.9359  -41.4665    1.2324 H   0  0  0  0  0  0
   28.7988  -39.9036    2.1073 H   0  0  0  0  0  0
   30.4117  -40.5109    1.6007 H   0  0  0  0  0  0
   25.9101  -40.7769   -2.6656 H   0  0  0  0  0  0
   23.3299  -39.7818   -1.5228 H   0  0  0  0  0  0
   22.3833  -41.2535   -3.5053 H   0  0  0  0  0  0
   24.1089  -41.6829   -3.7590 H   0  0  0  0  0  0
   24.1754  -42.1748   -1.2006 H   0  0  0  0  0  0
   22.0498  -41.0844   -0.5616 H   0  0  0  0  0  0
   22.1174  -42.8084   -0.0617 H   0  0  0  0  0  0
   21.1415  -42.3251   -1.4903 H   0  0  0  0  0  0
   24.2262  -43.9031   -3.0020 H   0  0  0  0  0  0
   22.4333  -43.9906   -2.9361 H   0  0  0  0  0  0
   23.4091  -44.4739   -1.5076 H   0  0  0  0  0  0
   25.0506  -39.2817   -4.7318 H   0  0  0  0  0  0
   22.7035  -37.6460   -5.8823 H   0  0  0  0  0  0
   24.5920  -37.0898   -7.5683 H   0  0  0  0  0  0
   25.6640  -38.1473   -6.5889 H   0  0  0  0  0  0
   24.5311  -40.0838   -7.2170 H   0  0  0  0  0  0
   23.0734  -39.1810   -7.7526 H   0  0  0  0  0  0
   24.5619  -40.1415   -9.6282 H   0  0  0  0  0  0
   24.1841  -38.3901   -9.7568 H   0  0  0  0  0  0
   26.5130  -37.7919   -9.1732 H   0  0  0  0  0  0
   28.6023  -38.1984   -9.1540 H   0  0  0  0  0  0
   25.9412  -41.4886   -9.2159 H   0  0  0  0  0  0
   27.8245  -41.7766   -9.2232 H   0  0  0  0  0  0
   24.9621  -34.9260   -3.8380 H   0  0  0  0  0  0
  1  2  1  0  0  0
  1106  1  0  0  0
  1107  1  0  0  0
  1108  1  0  0  0
  2  3  1  0  0  0
  2  4  1  0  0  0
  2109  1  0  0  0
  3110  1  0  0  0
  3111  1  0  0  0
  3112  1  0  0  0
  4  5  2  0  0  0
  4  6  1  0  0  0
  6  7  1  0  0  0
  6113  1  0  0  0
  7  8  1  0  0  0
  7 18  1  0  0  0
  7114  1  0  0  0
  8  9  1  0  0  0
  8115  1  0  0  0
  8116  1  0  0  0
  9 10  2  0  0  0
  9 17  1  0  0  0
 10 11  1  0  0  0
 10117  1  0  0  0
 11 12  1  0  0  0
 12 13  1  0  0  0
 12 17  2  0  0  0
 13 14  2  0  0  0
 13118  1  0  0  0
 14 15  1  0  0  0
 14119  1  0  0  0
 15 16  2  0  0  0
 15120  1  0  0  0
 16 17  1  0  0  0
 16121  1  0  0  0
 18 19  2  0  0  0
 18 20  1  0  0  0
 20 21  1  0  0  0
 20122  1  0  0  0
 21 22  1  0  0  0
 21 24  1  0  0  0
 21123  1  0  0  0
 22 23  2  0  0  0
 22 32  1  0  0  0
 24 25  1  0  0  0
 24124  1  0  0  0
 24125  1  0  0  0
 25 26  2  0  0  0
 25 27  1  0  0  0
 26 28  1  0  0  0
 26126  1  0  0  0
 27 29  2  0  0  0
 27127  1  0  0  0
 28 30  2  0  0  0
 28128  1  0  0  0
 29 30  1  0  0  0
 29129  1  0  0  0
 30 31  1  0  0  0
 31130  1  0  0  0
 32 33  1  0  0  0
 32131  1  0  0  0
 33 34  1  0  0  0
 33 35  1  0  0  0
 33132  1  0  0  0
 34133  1  0  0  0
 34134  1  0  0  0
 34135  1  0  0  0
 35 36  2  0  0  0
 35 37  1  0  0  0
 37 38  1  0  0  0
 37136  1  0  0  0
 38 39  1  0  0  0
 38 41  1  0  0  0
 38137  1  0  0  0
 39 40  2  0  0  0
 39 46  1  0  0  0
 41 42  1  0  0  0
 41138  1  0  0  0
 41139  1  0  0  0
 42 43  2  0  0  0
 42 44  1  0  0  0
 44140  1  0  0  0
 44141  1  0  0  0
 45 47  2  0  0  0
 45 48  1  0  0  0
 45 60  1  0  0  0
 46 48  1  0  0  0
 46142  1  0  0  0
 48 49  1  0  0  0
 48143  1  0  0  0
 49 50  1  0  0  0
 49144  1  0  0  0
 49145  1  0  0  0
 50 56  2  0  0  0
 50 57  1  0  0  0
 51 52  1  0  0  0
 51 58  2  0  0  0
 51 59  1  0  0  0
 52 53  1  0  0  0
 52 54  1  0  0  0
 52 55  1  0  0  0
 56 58  1  0  0  0
 56146  1  0  0  0
 57 59  2  0  0  0
 57147  1  0  0  0
 58148  1  0  0  0
 59149  1  0  0  0
 60 61  1  0  0  0
 60150  1  0  0  0
 61 62  1  0  0  0
 61 64  1  0  0  0
 61151  1  0  0  0
 62 63  2  0  0  0
 62 69  1  0  0  0
 64 65  1  0  0  0
 64152  1  0  0  0
 64153  1  0  0  0
 65 66  1  0  0  0
 65154  1  0  0  0
 65155  1  0  0  0
 66 67  1  0  0  0
 66 68  2  0  0  0
 67156  1  0  0  0
 69 70  1  0  0  0
 69157  1  0  0  0
 70 71  1  0  0  0
 70 73  1  0  0  0
 70158  1  0  0  0
 71 72  2  0  0  0
 71 78  1  0  0  0
 73 74  1  0  0  0
 73159  1  0  0  0
 73160  1  0  0  0
 74 75  1  0  0  0
 74161  1  0  0  0
 74162  1  0  0  0
 75 76  1  0  0  0
 75163  1  0  0  0
 75164  1  0  0  0
 76 77  1  0  0  0
 76165  1  0  0  0
 76166  1  0  0  0
 77167  1  0  0  0
 77168  1  0  0  0
 77169  1  0  0  0
 78 79  1  0  0  0
 78170  1  0  0  0
 79 80  1  0  0  0
 79 84  1  0  0  0
 79171  1  0  0  0
 80 81  1  0  0  0
 80172  1  0  0  0
 80173  1  0  0  0
 81 82  1  0  0  0
 81 83  1  0  0  0
 81174  1  0  0  0
 82175  1  0  0  0
 82176  1  0  0  0
 82177  1  0  0  0
 83178  1  0  0  0
 83179  1  0  0  0
 83180  1  0  0  0
 84 85  2  0  0  0
 84 86  1  0  0  0
 86 87  1  0  0  0
 86181  1  0  0  0
 87 88  1  0  0  0
 87 92  1  0  0  0
 87182  1  0  0  0
 88 89  1  0  0  0
 88183  1  0  0  0
 88184  1  0  0  0
 89 90  1  0  0  0
 89 91  1  0  0  0
 89185  1  0  0  0
 90186  1  0  0  0
 90187  1  0  0  0
 90188  1  0  0  0
 91189  1  0  0  0
 91190  1  0  0  0
 91191  1  0  0  0
 92 93  2  0  0  0
 92 94  1  0  0  0
 94 95  1  0  0  0
 94192  1  0  0  0
 95 96  1  0  0  0
 95103  1  0  0  0
 95193  1  0  0  0
 96 97  1  0  0  0
 96194  1  0  0  0
 96195  1  0  0  0
 97 98  1  0  0  0
 97196  1  0  0  0
 97197  1  0  0  0
 98 99  1  0  0  0
 98198  1  0  0  0
 98199  1  0  0  0
 99100  1  0  0  0
 99200  1  0  0  0
100101  2  0  0  0
100102  1  0  0  0
101201  1  0  0  0
102202  1  0  0  0
102203  1  0  0  0
103104  2  0  0  0
103105  1  0  0  0
105204  1  0  0  0
M  CHG  2   1   1  77   1
M  END
> <s_m_source_file>
../3tpx_ligand.sdf

> <i_m_source_file_index>
1

> <s_epik_input>
W2NIXTFbY0hdW2NIXVtjSF1jKGMxMiljKFtjSF1bbkhdMilbQ0gyXVtDQEBIXShbTkhdQyg9TylbQ0BIXShbTkgzK10pW0NIM10pQyg9TylbTkhdW0NASF0oW0NIMl1jM1tjSF1bY0hdYyhbT0hdKVtjSF1bY0hdMylDKD1PKVtOSF1bQ0BIXShbQ0gzXSlDKD1PKVtOSF1bQ0BIXShbQ0gyXUMoPU8pW05IMl0pQyg9TylbTkhdW0NASF0oW0NIMl1jNFtjSF1bY0hdYyhDKEYpKEYpRilbY0hdW2NIXTQpQyg9TylbTkhdW0NASF0oW0NIMl1bQ0gyXUMoPU8pW09IXSlDKD1PKVtOSF1bQ0BIXShbQ0gyXVtDSDJdW0NIMl1bQ0gyXVtOSDMrXSlDKD1PKVtOSF1bQ0BIXShbQ0gyXVtDSF0oW0NIM10pW0NIM10pQyg9TylbTkhdW0NASF0oW0NIMl1bQ0hdKFtDSDNdKVtDSDNdKUMoPU8pW05IXVtDQEBIXShDKD1PKVtPSF0pW0NIMl1bQ0gyXVtDSDJdW05IXS9DKD1OXFtIXSlbTkgyXQ==

> <s_epik_cmdline>
J2VwaWtfYXBwJywgJy1pbWFlJywgJ2xpZ2FuZF9wcm8ubWFlJywgJy1vbWFlJywgJ2xpZ2FuZF9wcmVwLm1hZScsICctbXMnLCAnMScsICctcGgnLCAnNycsICctcGh0JywgJzAuNScsICctbnQn

> <s_epik_pKa_notes>
Molecule size exceeds maximum supported for generating protonation states

> <s_epik_Chemistry_Notes>
This compound has an imine and may undergo hydrolysis.

$$$$
