3tsd_ligand
                    3D
 Schrodinger Suite 2020-3.
 34 36  0  0  1  0            999 V2000
  -44.3870   46.7520    1.4130 P   0  0  0  0  0  0
  -44.4730   45.2770    1.6310 O   0  0  0  0  0  0
  -45.6640   47.5440    1.0200 O   0  5  0  0  0  0
  -43.1780   47.1060    0.4300 O   0  0  0  0  0  0
  -43.9530   47.3130    2.7450 O   0  5  0  0  0  0
  -41.8760   46.5860    0.6620 C   0  0  0  0  0  0
  -40.8810   47.0950   -0.3500 C   0  0  1  0  0  0
  -40.6720   48.5140   -0.1620 O   0  0  0  0  0  0
  -39.3590   48.8650   -0.5620 C   0  0  1  0  0  0
  -38.7100   49.5970    0.5420 N   0  0  0  0  0  0
  -38.0390   50.7550    0.3990 C   0  0  0  0  0  0
  -37.7400   51.5600   -0.6360 N   0  0  0  0  0  0
  -36.5880   53.0510    0.7560 N   0  0  0  0  0  0
  -37.0240   52.6840   -0.4580 C   0  0  0  0  0  0
  -36.7410   53.4660   -1.5390 O   0  5  0  0  0  0
  -36.8560   52.2880    1.8330 C   0  0  0  0  0  0
  -36.3890   52.6750    3.1180 O   0  0  0  0  0  0
  -37.5940   51.1110    1.6760 C   0  0  0  0  0  0
  -38.0130   50.1590    2.5330 N   0  0  0  0  0  0
  -38.6960   49.2360    1.8350 C   0  0  0  0  0  0
  -38.6080   47.5760   -0.9160 C   0  0  2  0  0  0
  -38.6070   47.4280   -2.3290 O   0  0  0  0  0  0
  -39.4810   46.5080   -0.2530 C   0  0  2  0  0  0
  -39.3740   45.2260   -0.8490 O   0  0  0  0  0  0
  -41.5343   46.8865    1.6635 H   0  0  0  0  0  0
  -41.9028   45.4882    0.5978 H   0  0  0  0  0  0
  -41.3402   46.8534   -1.3200 H   0  0  0  0  0  0
  -39.4242   49.5455   -1.4238 H   0  0  0  0  0  0
  -36.0089   53.9786    0.8752 H   0  0  0  0  0  0
  -39.1616   48.3421    2.2499 H   0  0  0  0  0  0
  -37.5404   47.5280   -0.6555 H   0  0  0  0  0  0
  -38.0248   48.1209   -2.9542 H   0  0  0  0  0  0
  -39.1662   46.2285    0.7633 H   0  0  0  0  0  0
  -39.9590   44.3838   -0.4508 H   0  0  0  0  0  0
  1  2  2  0  0  0
  1  3  1  0  0  0
  1  4  1  0  0  0
  1  5  1  0  0  0
  4  6  1  0  0  0
  6  7  1  0  0  0
  6 25  1  0  0  0
  6 26  1  0  0  0
  7  8  1  0  0  0
  7 23  1  0  0  0
  7 27  1  0  0  0
  8  9  1  0  0  0
  9 10  1  0  0  0
  9 21  1  0  0  0
  9 28  1  0  0  0
 10 11  1  0  0  0
 10 20  1  0  0  0
 11 12  1  0  0  0
 11 18  2  0  0  0
 12 14  2  0  0  0
 13 14  1  0  0  0
 13 16  1  0  0  0
 13 29  1  0  0  0
 14 15  1  0  0  0
 16 17  2  0  0  0
 16 18  1  0  0  0
 18 19  1  0  0  0
 19 20  2  0  0  0
 20 30  1  0  0  0
 21 22  1  0  0  0
 21 23  1  0  0  0
 21 31  1  0  0  0
 22 32  1  0  0  0
 23 24  1  0  0  0
 23 33  1  0  0  0
 24 34  1  0  0  0
M  CHG  3   3  -1   5  -1  15  -1
M  END
> <s_m_source_file>
../3tsd_ligand.sdf

> <i_m_source_file_index>
1

> <s_epik_input>
Tz1QKFtPSF0pKFtPSF0pT1tDSDJdW0NASF0xT1tDQEhdKFtDQEhdKFtPSF0pW0NAQEhdMVtPSF0pbjJbY0hdbmMoYzIzKWMoPU8pW25IXWMoPU8pW25IXTM=

> <s_epik_cmdline>
J2VwaWtfYXBwJywgJy1pbWFlJywgJ2xpZ2FuZF9wcm8ubWFlJywgJy1vbWFlJywgJ2xpZ2FuZF9wcmVwLm1hZScsICctbXMnLCAnMScsICctcGgnLCAnNycsICctcGh0JywgJzAuNScsICctbnQn

> <r_lp_tautomer_probability>
1

> <r_epik_Ionization_Penalty>
  0.1195

> <r_epik_Ionization_Penalty_Charging>
  0.1194

> <r_epik_Ionization_Penalty_Neutral>
  0.0001

> <r_epik_State_Penalty>
 -0.0000

> <r_epik_Charging_Adjusted_Penalty>
0.119407656874599

> <i_epik_Tot_Q>
-3

> <i_epik_Tot_abs_Q>
3

> <s_epik_Chemistry_Notes>
This compound contains an acetal/aminal-like group ( X-CH(R)-Y where X, Y are N, S, or O) that may be acid/base labile, releasing an aldehyde.

$$$$
