3tsz_ligand
                    3D
 Schrodinger Suite 2020-3.
158159  0  0  1  0            999 V2000
  -55.8670   -2.0700  -21.6000 N   0  3  0  0  0  0
  -54.5700   -1.4340  -21.9770 C   0  0  2  0  0  0
  -53.6810   -2.3840  -22.7910 C   0  0  0  0  0  0
  -53.8730   -3.6020  -22.7690 O   0  0  0  0  0  0
  -53.8480   -0.9170  -20.7190 C   0  0  0  0  0  0
  -52.4590   -0.2810  -20.9370 C   0  0  0  0  0  0
  -52.4740    1.0070  -21.7640 C   0  0  0  0  0  0
  -53.5650    1.5620  -22.0310 O   0  0  0  0  0  0
  -51.3760    1.4710  -22.1460 O   0  0  0  0  0  0
  -52.7230   -1.7980  -23.5110 N   0  0  0  0  0  0
  -51.7530   -2.5160  -24.3510 C   0  0  2  0  0  0
  -52.3760   -3.5040  -25.3470 C   0  0  0  0  0  0
  -52.2450   -4.7240  -25.1990 O   0  0  0  0  0  0
  -50.6520   -3.1910  -23.5110 C   0  0  0  0  0  0
  -49.7270   -2.2220  -22.7950 C   0  0  0  0  0  0
  -49.3400   -1.0210  -23.3860 C   0  0  0  0  0  0
  -49.2100   -2.5370  -21.5360 C   0  0  0  0  0  0
  -48.4790   -0.1370  -22.7220 C   0  0  0  0  0  0
  -48.3470   -1.6600  -20.8660 C   0  0  0  0  0  0
  -47.9810   -0.4590  -21.4610 C   0  0  0  0  0  0
  -53.0670   -2.9610  -26.3470 N   0  0  0  0  0  0
  -53.5000   -3.7300  -27.5080 C   0  0  2  0  0  0
  -52.3670   -3.6990  -28.5370 C   0  0  0  0  0  0
  -51.5260   -2.7970  -28.5010 O   0  0  0  0  0  0
  -54.7810   -3.1460  -28.0880 C   0  0  0  0  0  0
  -52.3460   -4.6810  -29.4410 N   0  0  0  0  0  0
  -51.2470   -4.8280  -30.4050 C   0  0  2  0  0  0
  -51.2580   -3.7870  -31.5370 C   0  0  0  0  0  0
  -50.2320   -3.1560  -31.8070 O   0  0  0  0  0  0
  -51.2100   -6.2470  -30.9850 C   0  0  0  0  0  0
  -49.8560   -6.6290  -31.5820 C   0  0  0  0  0  0
  -49.9340   -7.7970  -32.5510 C   0  0  0  0  0  0
  -49.3610   -8.8590  -32.3050 O   0  0  0  0  0  0
  -50.6470   -7.6080  -33.6570 N   0  0  0  0  0  0
  -52.4200   -3.6280  -32.1770 N   0  0  0  0  0  0
  -52.6460   -2.7270  -33.3290 C   0  0  2  0  0  0
  -51.8130   -3.0740  -34.5660 C   0  0  0  0  0  0
  -50.5910   -3.2150  -34.4920 O   0  0  0  0  0  0
  -52.5090   -1.2080  -32.9870 C   0  0  2  0  0  0
  -51.1350   -0.8750  -32.7720 O   0  0  0  0  0  0
  -53.3390   -0.8300  -31.7530 C   0  0  0  0  0  0
  -52.4970   -3.1880  -35.7030 N   0  0  0  0  0  0
  -51.8800   -3.5780  -36.9720 C   0  0  2  0  0  0
  -50.7560   -2.6310  -37.3520 C   0  0  0  0  0  0
  -50.7340   -1.4760  -36.9190 O   0  0  0  0  0  0
  -52.9240   -3.5780  -38.0880 C   0  0  0  0  0  0
  -54.0570   -4.3560  -37.7420 O   0  0  0  0  0  0
  -49.8240   -3.1190  -38.1640 N   0  0  0  0  0  0
  -48.7650   -2.2670  -38.6800 C   0  0  2  0  0  0
  -49.3700   -1.2550  -39.6470 C   0  0  0  0  0  0
  -50.4990   -1.4280  -40.1050 O   0  0  0  0  0  0
  -47.7020   -3.1020  -39.3960 C   0  0  0  0  0  0
  -48.0730   -3.3800  -40.7340 O   0  0  0  0  0  0
  -48.6240   -0.2040  -39.9600 N   0  0  0  0  0  0
  -49.0020    0.6590  -41.0620 C   0  0  2  0  0  0
  -48.9690   -0.1320  -42.3660 C   0  0  0  0  0  0
  -48.5240   -1.2810  -42.3980 O   0  0  0  0  0  0
  -48.0980    1.8870  -41.1460 C   0  0  0  0  0  0
  -46.6250    1.5810  -41.1350 C   0  0  0  0  0  0
  -45.8920    1.6810  -39.9560 C   0  0  0  0  0  0
  -45.9580    1.2350  -42.3070 C   0  0  0  0  0  0
  -44.5230    1.4250  -39.9380 C   0  0  0  0  0  0
  -44.5830    0.9750  -42.2980 C   0  0  0  0  0  0
  -43.8670    1.0730  -41.1090 C   0  0  0  0  0  0
  -49.4500    0.4840  -43.4380 N   0  0  0  0  0  0
  -49.4700   -0.1560  -44.7430 C   0  0  2  0  0  0
  -48.0590   -0.3040  -45.3070 C   0  0  0  0  0  0
  -47.3690    0.6860  -45.5460 O   0  0  0  0  0  0
  -50.3550    0.6440  -45.6960 C   0  0  0  0  0  0
  -50.7310    0.0390  -47.0450 C   0  0  0  0  0  0
  -51.4960   -1.2690  -46.8760 C   0  0  0  0  0  0
  -51.5510    1.0510  -47.8250 C   0  0  0  0  0  0
  -47.6330   -1.5470  -45.4990 N   0  0  0  0  0  0
  -46.3270   -1.8190  -46.1030 C   0  0  2  0  0  0
  -46.4900   -2.2110  -47.5700 C   0  0  0  0  0  0
  -45.5240   -2.2210  -48.3370 O   0  0  0  0  0  0
  -45.5360   -2.9330  -45.3790 C   0  0  0  0  0  0
  -44.0650   -2.5740  -45.3540 C   0  0  0  0  0  0
  -46.0390   -3.1460  -43.9680 C   0  0  0  0  0  0
  -47.5920   -2.5260  -48.0230 O   0  0  0  0  0  0
  -56.3733   -2.4351  -22.5057 H   0  0  0  0  0  0
  -56.5057   -1.3295  -21.0962 H   0  0  0  0  0  0
  -55.6776   -2.9139  -20.9203 H   0  0  0  0  0  0
  -54.8196   -0.5843  -22.6295 H   0  0  0  0  0  0
  -54.4617   -0.1421  -20.2364 H   0  0  0  0  0  0
  -53.6912   -1.7499  -20.0178 H   0  0  0  0  0  0
  -52.0134   -0.0308  -19.9629 H   0  0  0  0  0  0
  -51.8085   -0.9932  -21.4657 H   0  0  0  0  0  0
  -53.5803    2.4877  -22.6250 H   0  0  0  0  0  0
  -52.6881   -0.7005  -23.4461 H   0  0  0  0  0  0
  -51.3255   -1.6950  -24.9453 H   0  0  0  0  0  0
  -51.1154   -3.8225  -22.7387 H   0  0  0  0  0  0
  -50.0221   -3.8130  -24.1639 H   0  0  0  0  0  0
  -49.7120   -0.7656  -24.3782 H   0  0  0  0  0  0
  -49.4829   -3.4821  -21.0665 H   0  0  0  0  0  0
  -48.1981    0.8049  -23.1931 H   0  0  0  0  0  0
  -47.9633   -1.9195  -19.8793 H   0  0  0  0  0  0
  -47.3089    0.2266  -20.9450 H   0  0  0  0  0  0
  -53.3098   -1.8906  -26.2746 H   0  0  0  0  0  0
  -53.7115   -4.7570  -27.1756 H   0  0  0  0  0  0
  -55.5764   -3.1808  -27.3289 H   0  0  0  0  0  0
  -55.0867   -3.7331  -28.9666 H   0  0  0  0  0  0
  -54.6054   -2.1022  -28.3875 H   0  0  0  0  0  0
  -53.1847   -5.3927  -29.4504 H   0  0  0  0  0  0
  -50.3584   -4.6367  -29.7855 H   0  0  0  0  0  0
  -51.4354   -6.9738  -30.1906 H   0  0  0  0  0  0
  -51.9587   -6.3354  -31.7860 H   0  0  0  0  0  0
  -49.4420   -5.7704  -32.1310 H   0  0  0  0  0  0
  -49.1664   -6.9146  -30.7740 H   0  0  0  0  0  0
  -51.1416   -6.6415  -33.8341 H   0  0  0  0  0  0
  -50.7424   -8.4181  -34.3950 H   0  0  0  0  0  0
  -53.2483   -4.2349  -31.7826 H   0  0  0  0  0  0
  -53.6960   -2.9649  -33.5546 H   0  0  0  0  0  0
  -52.8221   -0.5863  -33.8387 H   0  0  0  0  0  0
  -50.3908   -1.0772  -33.5564 H   0  0  0  0  0  0
  -54.3937   -1.0894  -31.9270 H   0  0  0  0  0  0
  -53.2527    0.2513  -31.5702 H   0  0  0  0  0  0
  -52.9656   -1.3809  -30.8772 H   0  0  0  0  0  0
  -53.5749   -2.9733  -35.6586 H   0  0  0  0  0  0
  -51.4750   -4.5863  -36.8008 H   0  0  0  0  0  0
  -53.2560   -2.5469  -38.2795 H   0  0  0  0  0  0
  -52.4817   -3.9968  -39.0039 H   0  0  0  0  0  0
  -54.8953   -4.4511  -38.4479 H   0  0  0  0  0  0
  -49.8608   -4.1819  -38.4448 H   0  0  0  0  0  0
  -48.3171   -1.7640  -37.8103 H   0  0  0  0  0  0
  -46.7494   -2.5520  -39.4065 H   0  0  0  0  0  0
  -47.5681   -4.0570  -38.8668 H   0  0  0  0  0  0
  -47.4067   -3.9732  -41.3776 H   0  0  0  0  0  0
  -47.7150    0.0116  -39.3793 H   0  0  0  0  0  0
  -50.0268    0.9910  -40.8391 H   0  0  0  0  0  0
  -48.3041    2.4309  -42.0797 H   0  0  0  0  0  0
  -48.2936    2.5458  -40.2871 H   0  0  0  0  0  0
  -46.3971    1.9640  -39.0325 H   0  0  0  0  0  0
  -46.5132    1.1658  -43.2424 H   0  0  0  0  0  0
  -43.9668    1.5012  -39.0037 H   0  0  0  0  0  0
  -44.0739    0.6963  -43.2206 H   0  0  0  0  0  0
  -42.7954    0.8741  -41.0974 H   0  0  0  0  0  0
  -49.8404    1.5056  -43.3204 H   0  0  0  0  0  0
  -49.8934   -1.1579  -44.5786 H   0  0  0  0  0  0
  -51.3197    0.8542  -45.2111 H   0  0  0  0  0  0
  -49.8578    1.5919  -45.9495 H   0  0  0  0  0  0
  -49.8137   -0.1955  -47.6050 H   0  0  0  0  0  0
  -50.8807   -1.9830  -46.3088 H   0  0  0  0  0  0
  -51.7267   -1.6894  -47.8660 H   0  0  0  0  0  0
  -52.4324   -1.0783  -46.3313 H   0  0  0  0  0  0
  -50.9772    1.9833  -47.9323 H   0  0  0  0  0  0
  -52.4878    1.2570  -47.2865 H   0  0  0  0  0  0
  -51.7821    0.6459  -48.8212 H   0  0  0  0  0  0
  -48.2825   -2.3809  -45.1944 H   0  0  0  0  0  0
  -45.7999   -0.8596  -45.9949 H   0  0  0  0  0  0
  -45.6611   -2.5062  -49.3905 H   0  0  0  0  0  0
  -45.6695   -3.8836  -45.9162 H   0  0  0  0  0  0
  -43.7074   -2.4209  -46.3829 H   0  0  0  0  0  0
  -43.4962   -3.3908  -44.8858 H   0  0  0  0  0  0
  -43.9230   -1.6495  -44.7751 H   0  0  0  0  0  0
  -47.1074   -3.4062  -43.9950 H   0  0  0  0  0  0
  -45.9010   -2.2227  -43.3863 H   0  0  0  0  0  0
  -45.4742   -3.9640  -43.4970 H   0  0  0  0  0  0
  1  2  1  0  0  0
  1 81  1  0  0  0
  1 82  1  0  0  0
  1 83  1  0  0  0
  2  3  1  0  0  0
  2  5  1  0  0  0
  2 84  1  0  0  0
  3  4  2  0  0  0
  3 10  1  0  0  0
  5  6  1  0  0  0
  5 85  1  0  0  0
  5 86  1  0  0  0
  6  7  1  0  0  0
  6 87  1  0  0  0
  6 88  1  0  0  0
  7  8  1  0  0  0
  7  9  2  0  0  0
  8 89  1  0  0  0
 10 11  1  0  0  0
 10 90  1  0  0  0
 11 12  1  0  0  0
 11 14  1  0  0  0
 11 91  1  0  0  0
 12 13  2  0  0  0
 12 21  1  0  0  0
 14 15  1  0  0  0
 14 92  1  0  0  0
 14 93  1  0  0  0
 15 16  2  0  0  0
 15 17  1  0  0  0
 16 18  1  0  0  0
 16 94  1  0  0  0
 17 19  2  0  0  0
 17 95  1  0  0  0
 18 20  2  0  0  0
 18 96  1  0  0  0
 19 20  1  0  0  0
 19 97  1  0  0  0
 20 98  1  0  0  0
 21 22  1  0  0  0
 21 99  1  0  0  0
 22 23  1  0  0  0
 22 25  1  0  0  0
 22100  1  0  0  0
 23 24  2  0  0  0
 23 26  1  0  0  0
 25101  1  0  0  0
 25102  1  0  0  0
 25103  1  0  0  0
 26 27  1  0  0  0
 26104  1  0  0  0
 27 28  1  0  0  0
 27 30  1  0  0  0
 27105  1  0  0  0
 28 29  2  0  0  0
 28 35  1  0  0  0
 30 31  1  0  0  0
 30106  1  0  0  0
 30107  1  0  0  0
 31 32  1  0  0  0
 31108  1  0  0  0
 31109  1  0  0  0
 32 33  2  0  0  0
 32 34  1  0  0  0
 34110  1  0  0  0
 34111  1  0  0  0
 35 36  1  0  0  0
 35112  1  0  0  0
 36 37  1  0  0  0
 36 39  1  0  0  0
 36113  1  0  0  0
 37 38  2  0  0  0
 37 42  1  0  0  0
 39 40  1  0  0  0
 39 41  1  0  0  0
 39114  1  0  0  0
 40115  1  0  0  0
 41116  1  0  0  0
 41117  1  0  0  0
 41118  1  0  0  0
 42 43  1  0  0  0
 42119  1  0  0  0
 43 44  1  0  0  0
 43 46  1  0  0  0
 43120  1  0  0  0
 44 45  2  0  0  0
 44 48  1  0  0  0
 46 47  1  0  0  0
 46121  1  0  0  0
 46122  1  0  0  0
 47123  1  0  0  0
 48 49  1  0  0  0
 48124  1  0  0  0
 49 50  1  0  0  0
 49 52  1  0  0  0
 49125  1  0  0  0
 50 51  2  0  0  0
 50 54  1  0  0  0
 52 53  1  0  0  0
 52126  1  0  0  0
 52127  1  0  0  0
 53128  1  0  0  0
 54 55  1  0  0  0
 54129  1  0  0  0
 55 56  1  0  0  0
 55 58  1  0  0  0
 55130  1  0  0  0
 56 57  2  0  0  0
 56 65  1  0  0  0
 58 59  1  0  0  0
 58131  1  0  0  0
 58132  1  0  0  0
 59 60  2  0  0  0
 59 61  1  0  0  0
 60 62  1  0  0  0
 60133  1  0  0  0
 61 63  2  0  0  0
 61134  1  0  0  0
 62 64  2  0  0  0
 62135  1  0  0  0
 63 64  1  0  0  0
 63136  1  0  0  0
 64137  1  0  0  0
 65 66  1  0  0  0
 65138  1  0  0  0
 66 67  1  0  0  0
 66 69  1  0  0  0
 66139  1  0  0  0
 67 68  2  0  0  0
 67 73  1  0  0  0
 69 70  1  0  0  0
 69140  1  0  0  0
 69141  1  0  0  0
 70 71  1  0  0  0
 70 72  1  0  0  0
 70142  1  0  0  0
 71143  1  0  0  0
 71144  1  0  0  0
 71145  1  0  0  0
 72146  1  0  0  0
 72147  1  0  0  0
 72148  1  0  0  0
 73 74  1  0  0  0
 73149  1  0  0  0
 74 75  1  0  0  0
 74 77  1  0  0  0
 74150  1  0  0  0
 75 76  1  0  0  0
 75 80  2  0  0  0
 76151  1  0  0  0
 77 78  1  0  0  0
 77 79  1  0  0  0
 77152  1  0  0  0
 78153  1  0  0  0
 78154  1  0  0  0
 78155  1  0  0  0
 79156  1  0  0  0
 79157  1  0  0  0
 79158  1  0  0  0
M  CHG  1   1   1
M  END
> <s_m_source_file>
../3tsz_ligand.sdf

> <i_m_source_file_index>
1

> <s_epik_input>
W09IXUMoPU8pW0NIMl1bQ0gyXVtDQEhdKFtOSDMrXSlDKD1PKVtOSF1bQ0BASF0oW0NIMl1jMVtjSF1bY0hdW2NIXVtjSF1bY0hdMSlDKD1PKVtOSF1bQ0BASF0oW0NIM10pQyg9TylbTkhdW0NAQEhdKFtDSDJdW0NIMl1DKD1PKVtOSDJdKUMoPU8pW05IXVtDQEBIXShbQ0BIXShbT0hdKVtDSDNdKUMoPU8pW05IXVtDQEBIXShbQ0gyXVtPSF0pQyg9TylbTkhdW0NAQEhdKFtDSDJdW09IXSlDKD1PKVtOSF1bQ0BASF0oW0NIMl1jMltjSF1bY0hdW2NIXVtjSF1bY0hdMilDKD1PKVtOSF1bQ0BASF0oW0NIMl1bQ0hdKFtDSDNdKVtDSDNdKUMoPU8pW05IXVtDQEhdKEMoPU8pW09IXSlbQ0hdKFtDSDNdKVtDSDNd

> <s_epik_cmdline>
J2VwaWtfYXBwJywgJy1pbWFlJywgJ2xpZ2FuZF9wcm8ubWFlJywgJy1vbWFlJywgJ2xpZ2FuZF9wcmVwLm1hZScsICctbXMnLCAnMScsICctcGgnLCAnNycsICctcGh0JywgJzAuNScsICctbnQn

> <s_epik_pKa_notes>
Molecule size exceeds maximum supported for generating protonation states

$$$$
