3tt0_ligand
                    3D
 Schrodinger Suite 2020-3.
 70 73  0  0  1  0            999 V2000
  -14.7870    7.6160   11.0550 O   0  0  0  0  0  0
  -15.0830    8.6010   11.7220 C   0  0  0  0  0  0
  -14.2230    9.6760   11.8470 N   0  0  0  0  0  0
  -12.9940    9.6860   11.1660 C   0  0  0  0  0  0
  -11.8980    8.9800   11.6190 C   0  0  0  0  0  0
  -11.9720    8.0680   13.0810 Cl  0  0  0  0  0  0
  -10.7150    9.0150   10.9080 C   0  0  0  0  0  0
   -9.6610    8.2710   11.4250 O   0  0  0  0  0  0
   -8.5480    8.2950   10.5400 C   0  0  0  0  0  0
  -10.6310    9.7380    9.7320 C   0  0  0  0  0  0
  -11.7240   10.4550    9.2800 C   0  0  0  0  0  0
  -11.7250   11.2120    8.1100 O   0  0  0  0  0  0
  -10.4850   11.0810    7.4190 C   0  0  0  0  0  0
  -12.9000   10.4130    9.9980 C   0  0  0  0  0  0
  -14.2670   11.2940    9.4520 Cl  0  0  0  0  0  0
  -16.2870    8.7110   12.4160 N   0  0  0  0  0  0
  -17.2270    7.6110   12.3330 C   0  0  0  0  0  0
  -16.6840    9.8550   13.1610 C   0  0  0  0  0  0
  -18.0240   10.0120   13.4610 C   0  0  0  0  0  0
  -18.4230   11.1230   14.1770 C   0  0  0  0  0  0
  -17.5340   12.0480   14.5600 N   0  0  0  0  0  0
  -16.2620   11.8130   14.2190 C   0  0  0  0  0  0
  -15.7790   10.7660   13.5430 N   0  0  0  0  0  0
  -19.7720   11.3540   14.5090 N   0  0  0  0  0  0
  -20.8340   10.4330   14.5710 C   0  0  0  0  0  0
  -21.2860    9.7510   13.4590 C   0  0  0  0  0  0
  -22.3480    8.8740   13.5560 C   0  0  0  0  0  0
  -22.9940    8.6710   14.7650 C   0  0  0  0  0  0
  -22.5480    9.3700   15.8690 C   0  0  0  0  0  0
  -21.4830   10.2410   15.7750 C   0  0  0  0  0  0
  -24.0890    7.7890   14.9220 N   0  0  0  0  0  0
  -25.2060    8.4450   15.6040 C   0  0  0  0  0  0
  -26.2870    7.4190   15.8840 C   0  0  0  0  0  0
  -26.6260    6.7980   14.5730 N   0  3  0  0  0  0
  -27.8920    6.0240   14.6160 C   0  0  0  0  0  0
  -29.0250    7.0140   14.7620 C   0  0  0  0  0  0
  -25.4980    6.0430   13.9490 C   0  0  0  0  0  0
  -24.3750    7.0340   13.7000 C   0  0  0  0  0  0
  -14.4992   10.5303   12.4825 H   0  0  0  0  0  0
   -7.7267    7.7012   10.9676 H   0  0  0  0  0  0
   -8.2145    9.3336   10.3984 H   0  0  0  0  0  0
   -8.8420    7.8687    9.5695 H   0  0  0  0  0  0
   -9.7026    9.7428    9.1609 H   0  0  0  0  0  0
  -10.5110   11.6866    6.5011 H   0  0  0  0  0  0
  -10.3209   10.0253    7.1572 H   0  0  0  0  0  0
   -9.6663   11.4300    8.0655 H   0  0  0  0  0  0
  -16.7906    6.8005   11.7308 H   0  0  0  0  0  0
  -18.1575    7.9587   11.8605 H   0  0  0  0  0  0
  -17.4463    7.2390   13.3447 H   0  0  0  0  0  0
  -18.7543    9.2704   13.1374 H   0  0  0  0  0  0
  -15.5343   12.5631   14.5287 H   0  0  0  0  0  0
  -20.1093   12.3692   14.7651 H   0  0  0  0  0  0
  -20.8001    9.9063   12.4957 H   0  0  0  0  0  0
  -22.6826    8.3343   12.6701 H   0  0  0  0  0  0
  -23.0451    9.2313   16.8291 H   0  0  0  0  0  0
  -21.1500   10.7834   16.6599 H   0  0  0  0  0  0
  -24.8533    8.8791   16.5512 H   0  0  0  0  0  0
  -25.6096    9.2426   14.9629 H   0  0  0  0  0  0
  -25.9045    6.6666   16.5895 H   0  0  0  0  0  0
  -27.1633    7.9197   16.3214 H   0  0  0  0  0  0
  -26.8130    7.6428   13.8938 H   0  0  0  0  0  0
  -28.0018    5.4487   13.6849 H   0  0  0  0  0  0
  -27.8713    5.3344   15.4728 H   0  0  0  0  0  0
  -29.9822    6.4732   14.7973 H   0  0  0  0  0  0
  -29.0239    7.7017   13.9035 H   0  0  0  0  0  0
  -28.8933    7.5875   15.6914 H   0  0  0  0  0  0
  -25.1666    5.2476   14.6327 H   0  0  0  0  0  0
  -25.8354    5.5958   13.0023 H   0  0  0  0  0  0
  -24.6770    7.7285   12.9022 H   0  0  0  0  0  0
  -23.4734    6.4866   13.3877 H   0  0  0  0  0  0
  1  2  2  0  0  0
  2  3  1  0  0  0
  2 16  1  0  0  0
  3  4  1  0  0  0
  3 39  1  0  0  0
  4  5  2  0  0  0
  4 14  1  0  0  0
  5  6  1  0  0  0
  5  7  1  0  0  0
  7  8  1  0  0  0
  7 10  2  0  0  0
  8  9  1  0  0  0
  9 40  1  0  0  0
  9 41  1  0  0  0
  9 42  1  0  0  0
 10 11  1  0  0  0
 10 43  1  0  0  0
 11 12  1  0  0  0
 11 14  2  0  0  0
 12 13  1  0  0  0
 13 44  1  0  0  0
 13 45  1  0  0  0
 13 46  1  0  0  0
 14 15  1  0  0  0
 16 17  1  0  0  0
 16 18  1  0  0  0
 17 47  1  0  0  0
 17 48  1  0  0  0
 17 49  1  0  0  0
 18 19  2  0  0  0
 18 23  1  0  0  0
 19 20  1  0  0  0
 19 50  1  0  0  0
 20 21  2  0  0  0
 20 24  1  0  0  0
 21 22  1  0  0  0
 22 23  2  0  0  0
 22 51  1  0  0  0
 24 25  1  0  0  0
 24 52  1  0  0  0
 25 26  2  0  0  0
 25 30  1  0  0  0
 26 27  1  0  0  0
 26 53  1  0  0  0
 27 28  2  0  0  0
 27 54  1  0  0  0
 28 29  1  0  0  0
 28 31  1  0  0  0
 29 30  2  0  0  0
 29 55  1  0  0  0
 30 56  1  0  0  0
 31 32  1  0  0  0
 31 38  1  0  0  0
 32 33  1  0  0  0
 32 57  1  0  0  0
 32 58  1  0  0  0
 33 34  1  0  0  0
 33 59  1  0  0  0
 33 60  1  0  0  0
 34 35  1  0  0  0
 34 37  1  0  0  0
 34 61  1  0  0  0
 35 36  1  0  0  0
 35 62  1  0  0  0
 35 63  1  0  0  0
 36 64  1  0  0  0
 36 65  1  0  0  0
 36 66  1  0  0  0
 37 38  1  0  0  0
 37 67  1  0  0  0
 37 68  1  0  0  0
 38 69  1  0  0  0
 38 70  1  0  0  0
M  CHG  1  34   1
M  END
> <s_m_source_file>
../3tt0_ligand.sdf

> <i_m_source_file_index>
1

> <s_epik_input>
W0NIM11PYyhjMUNsKVtjSF1jKE9bQ0gzXSljKENsKWMxW05IXUMoPU8pTihbQ0gzXSljMltjSF1jKG5bY0hdbjIpW05IXWMzW2NIXVtjSF1jKFtjSF1bY0hdMylONFtDSDJdW0NIMl1bTkgrXShbQ0gyXVtDSDNdKVtDSDJdW0NIMl00

> <s_epik_cmdline>
J2VwaWtfYXBwJywgJy1pbWFlJywgJ2xpZ2FuZF9wcm8ubWFlJywgJy1vbWFlJywgJ2xpZ2FuZF9wcmVwLm1hZScsICctbXMnLCAnMScsICctcGgnLCAnNycsICctcGh0JywgJzAuNScsICctbnQn

> <r_lp_tautomer_probability>
0.999999583200174

> <r_epik_Ionization_Penalty>
  0.1172

> <r_epik_Ionization_Penalty_Charging>
  0.1084

> <r_epik_Ionization_Penalty_Neutral>
  0.0088

> <r_epik_State_Penalty>
  0.1100

> <r_epik_Charging_Adjusted_Penalty>
0.218310893078696

> <i_epik_Tot_Q>
1

> <i_epik_Tot_abs_Q>
1

$$$$
