3tt4_ligand
                    3D
 Schrodinger Suite 2020-3.
 47 48  0  0  1  0            999 V2000
   -4.9630   10.5390  -13.5630 C   0  0  0  0  0  0
   -4.1280    9.1250  -15.5490 N   0  0  0  0  0  0
   -4.7810    9.1960  -14.2370 C   0  0  0  0  0  0
   -5.2360    8.1930  -13.7430 O   0  0  0  0  0  0
   -4.5240    8.0240  -17.7020 C   0  0  0  0  0  0
   -1.6970    7.7810  -15.2520 N   0  0  0  0  0  0
   -6.0280    8.1530  -17.5780 C   0  0  0  0  0  0
   -6.5770    9.5340  -17.6660 C   0  0  0  0  0  0
   -1.9210    7.1330  -17.2950 O   0  0  0  0  0  0
   -7.7410    9.7860  -17.2190 O   0  0  0  0  0  0
   -5.8980   10.4810  -18.1770 O   0  5  0  0  0  0
   -2.4510    7.5700  -16.2990 C   0  0  0  0  0  0
   -6.4280   10.9790  -13.7750 C   0  0  0  0  0  0
   -6.6820   12.3590  -13.2120 C   0  0  0  0  0  0
   -7.5830   12.5120  -12.1720 C   0  0  0  0  0  0
   -7.7880   13.8870  -11.5950 C   0  0  0  0  0  0
   -5.9290   13.5260  -13.7520 C   0  0  0  0  0  0
   -7.3260   16.3490  -11.5670 C   0  0  0  0  0  0
   -6.9950   17.6080  -12.1550 C   0  0  0  0  0  0
   -7.3890   18.7110  -11.3010 C   0  0  0  0  0  0
   -8.1230   16.5420  -10.0180 S   0  0  0  0  0  0
   -8.5150   19.1110   -8.9910 C   0  0  0  0  0  0
   -8.0070   18.2600  -10.1390 C   0  0  0  0  0  0
   -7.1040   14.9650  -12.1410 C   0  0  0  0  0  0
   -6.1280   14.7690  -13.2100 C   0  0  0  0  0  0
   -3.9420    7.8760  -16.2890 C   0  0  1  0  0  0
   -4.7450   10.4428  -12.4891 H   0  0  0  0  0  0
   -4.2758   11.2710  -14.0125 H   0  0  0  0  0  0
   -3.7700   10.0744  -15.9737 H   0  0  0  0  0  0
   -4.2806    7.1385  -18.3076 H   0  0  0  0  0  0
   -4.1176    8.9234  -18.1878 H   0  0  0  0  0  0
   -0.6225    7.5490  -15.2923 H   0  0  0  0  0  0
   -2.1371    8.1905  -14.3308 H   0  0  0  0  0  0
   -6.5127    7.5812  -18.3831 H   0  0  0  0  0  0
   -6.3507    7.7590  -16.6030 H   0  0  0  0  0  0
   -6.6535   10.9965  -14.8515 H   0  0  0  0  0  0
   -7.1006   10.2694  -13.2710 H   0  0  0  0  0  0
   -8.1317   11.6557  -11.7798 H   0  0  0  0  0  0
   -8.4676   14.0352  -10.7558 H   0  0  0  0  0  0
   -5.2244   13.3919  -14.5728 H   0  0  0  0  0  0
   -6.5079   17.7245  -13.1231 H   0  0  0  0  0  0
   -7.2221   19.7615  -11.5392 H   0  0  0  0  0  0
   -8.3667   20.1746   -9.2294 H   0  0  0  0  0  0
   -7.9603   18.8597   -8.0749 H   0  0  0  0  0  0
   -9.5864   18.9159   -8.8361 H   0  0  0  0  0  0
   -5.5533   15.6182  -13.5796 H   0  0  0  0  0  0
   -4.4807    7.0631  -15.7801 H   0  0  0  0  0  0
  1  3  1  0  0  0
  1 13  1  0  0  0
  1 27  1  0  0  0
  1 28  1  0  0  0
  2  3  1  0  0  0
  2 26  1  0  0  0
  2 29  1  0  0  0
  3  4  2  0  0  0
  5  7  1  0  0  0
  5 26  1  0  0  0
  5 30  1  0  0  0
  5 31  1  0  0  0
  6 12  1  0  0  0
  6 32  1  0  0  0
  6 33  1  0  0  0
  7  8  1  0  0  0
  7 34  1  0  0  0
  7 35  1  0  0  0
  8 10  2  0  0  0
  8 11  1  0  0  0
  9 12  2  0  0  0
 12 26  1  0  0  0
 13 14  1  0  0  0
 13 36  1  0  0  0
 13 37  1  0  0  0
 14 15  2  0  0  0
 14 17  1  0  0  0
 15 16  1  0  0  0
 15 38  1  0  0  0
 16 24  2  0  0  0
 16 39  1  0  0  0
 17 25  2  0  0  0
 17 40  1  0  0  0
 18 19  2  0  0  0
 18 21  1  0  0  0
 18 24  1  0  0  0
 19 20  1  0  0  0
 19 41  1  0  0  0
 20 23  2  0  0  0
 20 42  1  0  0  0
 21 23  1  0  0  0
 22 23  1  0  0  0
 22 43  1  0  0  0
 22 44  1  0  0  0
 22 45  1  0  0  0
 24 25  1  0  0  0
 25 46  1  0  0  0
 26 47  1  0  0  0
M  CHG  1  11  -1
M  END
> <s_m_source_file>
../3tt4_ligand.sdf

> <i_m_source_file_index>
1

> <s_epik_input>
Tz1DKFtPSF0pW0NIMl1bQ0gyXVtDQEBIXShDKD1PKVtOSDJdKVtOSF1DKD1PKVtDSDJdW0NIMl1jMVtjSF1bY0hdYyhbY0hdW2NIXTEpLWMyW2NIXVtjSF1jKHMyKVtDSDNd

> <s_epik_cmdline>
J2VwaWtfYXBwJywgJy1pbWFlJywgJ2xpZ2FuZF9wcm8ubWFlJywgJy1vbWFlJywgJ2xpZ2FuZF9wcmVwLm1hZScsICctbXMnLCAnMScsICctcGgnLCAnNycsICctcGh0JywgJzAuNScsICctbnQn

> <r_lp_tautomer_probability>
1

> <r_epik_Ionization_Penalty>
  0.0018

> <r_epik_Ionization_Penalty_Charging>
  0.0018

> <r_epik_Ionization_Penalty_Neutral>
  0.0000

> <r_epik_State_Penalty>
 -0.0000

> <r_epik_Charging_Adjusted_Penalty>
0.00176902474971133

> <i_epik_Tot_Q>
-1

> <i_epik_Tot_abs_Q>
1

$$$$
