3tti_ligand
                    3D
 Schrodinger Suite 2020-3.
 55 59  0  0  1  0            999 V2000
  -21.7190    6.4800  -31.8720 C   0  0  0  0  0  0
  -18.8410   13.9840  -31.8750 F   0  0  0  0  0  0
  -20.5040    6.2270  -32.4040 N   0  0  0  0  0  0
  -27.5190    4.7390  -28.9410 O   0  0  0  0  0  0
  -21.4250    8.7760  -32.1970 C   0  0  0  0  0  0
  -16.2950   14.2720  -35.8540 F   0  0  0  0  0  0
  -22.1730    7.7440  -31.7710 N   0  0  0  0  0  0
  -23.4120   10.2370  -29.5240 O   0  0  0  0  0  0
  -20.1720    8.5360  -32.7450 C   0  0  0  0  0  0
  -19.8610   11.1560  -35.5580 F   0  0  0  0  0  0
  -21.6020   10.0950  -32.2340 N   0  0  0  0  0  0
  -19.7320    7.2140  -32.8350 C   0  0  0  0  0  0
  -19.6350    9.7170  -33.0850 N   0  0  0  0  0  0
  -20.5190   10.6700  -32.7620 C   0  0  0  0  0  0
  -20.3740   11.9940  -32.9520 N   0  0  0  0  0  0
  -19.3840   12.5400  -33.6810 C   0  0  0  0  0  0
  -22.4750    5.4630  -31.4470 N   0  0  0  0  0  0
  -23.8780    5.6490  -31.0260 C   0  0  2  0  0  0
  -23.9390    5.8040  -29.4930 C   0  0  0  0  0  0
  -25.3850    5.8730  -28.9800 C   0  0  0  0  0  0
  -26.1760    4.6320  -29.4100 C   0  0  2  0  0  0
  -26.1590    4.5260  -30.9430 C   0  0  0  0  0  0
  -24.7150    4.4360  -31.4650 C   0  0  0  0  0  0
  -22.7840   10.8200  -31.7430 C   0  0  2  0  0  0
  -22.5640   11.1410  -30.2570 C   0  0  0  0  0  0
  -24.5910   10.0880  -30.3360 C   0  0  0  0  0  0
  -24.0380    9.9480  -31.7590 C   0  0  0  0  0  0
  -19.1200   12.1240  -34.9860 C   0  0  0  0  0  0
  -18.0800   12.7050  -35.7120 C   0  0  0  0  0  0
  -17.3010   13.7130  -35.1520 C   0  0  0  0  0  0
  -17.5640   14.1380  -33.8540 C   0  0  0  0  0  0
  -18.5990   13.5540  -33.1270 C   0  0  0  0  0  0
  -27.7199    4.8241  -27.8629 H   0  0  0  0  0  0
  -18.7528    6.9937  -33.2601 H   0  0  0  0  0  0
  -21.0891   12.6962  -32.4988 H   0  0  0  0  0  0
  -22.0198    4.4621  -31.4168 H   0  0  0  0  0  0
  -24.2479    6.5602  -31.5189 H   0  0  0  0  0  0
  -23.4461    4.9432  -29.0175 H   0  0  0  0  0  0
  -23.4246    6.7303  -29.1973 H   0  0  0  0  0  0
  -25.3820    5.9281  -27.8814 H   0  0  0  0  0  0
  -25.8775    6.7668  -29.3906 H   0  0  0  0  0  0
  -25.7820    3.7173  -28.9431 H   0  0  0  0  0  0
  -26.7067    3.6242  -31.2543 H   0  0  0  0  0  0
  -26.6396    5.4150  -31.3774 H   0  0  0  0  0  0
  -24.7451    4.3896  -32.5636 H   0  0  0  0  0  0
  -24.2603    3.5149  -31.0715 H   0  0  0  0  0  0
  -22.8848   11.6891  -32.4098 H   0  0  0  0  0  0
  -22.8499   12.1784  -30.0286 H   0  0  0  0  0  0
  -21.5157   10.9772  -29.9667 H   0  0  0  0  0  0
  -25.1466    9.1945  -30.0152 H   0  0  0  0  0  0
  -25.2291   10.9768  -30.2226 H   0  0  0  0  0  0
  -24.7379   10.3261  -32.5187 H   0  0  0  0  0  0
  -23.7606    8.9111  -31.9998 H   0  0  0  0  0  0
  -17.8756   12.3661  -36.7276 H   0  0  0  0  0  0
  -16.9607   14.9275  -33.4059 H   0  0  0  0  0  0
  1  3  1  0  0  0
  1  7  2  0  0  0
  1 17  1  0  0  0
  2 32  1  0  0  0
  3 12  2  0  0  0
  4 21  1  0  0  0
  4 33  1  0  0  0
  5  7  1  0  0  0
  5  9  2  0  0  0
  5 11  1  0  0  0
  6 30  1  0  0  0
  8 25  1  0  0  0
  8 26  1  0  0  0
  9 12  1  0  0  0
  9 13  1  0  0  0
 10 28  1  0  0  0
 11 14  1  0  0  0
 11 24  1  0  0  0
 12 34  1  0  0  0
 13 14  2  0  0  0
 14 15  1  0  0  0
 15 16  1  0  0  0
 15 35  1  0  0  0
 16 28  2  0  0  0
 16 32  1  0  0  0
 17 18  1  0  0  0
 17 36  1  0  0  0
 18 19  1  0  0  0
 18 23  1  0  0  0
 18 37  1  0  0  0
 19 20  1  0  0  0
 19 38  1  0  0  0
 19 39  1  0  0  0
 20 21  1  0  0  0
 20 40  1  0  0  0
 20 41  1  0  0  0
 21 22  1  0  0  0
 21 42  1  0  0  0
 22 23  1  0  0  0
 22 43  1  0  0  0
 22 44  1  0  0  0
 23 45  1  0  0  0
 23 46  1  0  0  0
 24 25  1  0  0  0
 24 27  1  0  0  0
 24 47  1  0  0  0
 25 48  1  0  0  0
 25 49  1  0  0  0
 26 27  1  0  0  0
 26 50  1  0  0  0
 26 51  1  0  0  0
 27 52  1  0  0  0
 27 53  1  0  0  0
 28 29  1  0  0  0
 29 30  2  0  0  0
 29 54  1  0  0  0
 30 31  1  0  0  0
 31 32  2  0  0  0
 31 55  1  0  0  0
M  END
> <s_m_source_file>
../3tti_ligand.sdf

> <i_m_source_file_index>
1

> <s_epik_input>
W0NIMl0xW0NIMl1bQ0BIXShbT0hdKVtDSDJdW0NIMl1bQ0BIXTFbTkhdYyhuMiluW2NIXWMoYzIzKW5jKG4zW0NAQEhdNFtDSDJdT1tDSDJdW0NIMl00KVtOSF1jNWMoRilbY0hdYyhGKVtjSF1jNUY=

> <s_epik_cmdline>
J2VwaWtfYXBwJywgJy1pbWFlJywgJ2xpZ2FuZF9wcm8ubWFlJywgJy1vbWFlJywgJ2xpZ2FuZF9wcmVwLm1hZScsICctbXMnLCAnMScsICctcGgnLCAnNycsICctcGh0JywgJzAuNScsICctbnQn

> <r_lp_tautomer_probability>
1

> <r_epik_Ionization_Penalty>
  0.0058

> <r_epik_Ionization_Penalty_Charging>
  0.0000

> <r_epik_Ionization_Penalty_Neutral>
  0.0058

> <r_epik_State_Penalty>
 -0.0000

> <r_epik_Charging_Adjusted_Penalty>
0

> <i_epik_Tot_Q>
0

> <i_epik_Tot_abs_Q>
0

$$$$
