3ttj_ligand
                    3D
 Schrodinger Suite 2020-3.
 54 58  0  0  1  0            999 V2000
   21.1560    8.4700   31.8570 C   0  0  0  0  0  0
   19.8610   10.9390   35.3800 F   0  0  0  0  0  0
   20.1700    5.9710   32.1430 N   0  0  0  0  0  0
   27.1140    5.0640   29.0550 O   0  0  0  0  0  0
   19.9580    8.2670   32.5200 C   0  0  0  0  0  0
   21.8260    7.4190   31.3590 N   0  0  0  0  0  0
   19.4760    6.9720   32.6510 C   0  0  0  0  0  0
   21.3810    9.7820   31.8910 N   0  0  0  0  0  0
   21.3360    6.1740   31.5070 C   0  0  0  0  0  0
   19.4990    9.4550   32.9200 N   0  0  0  0  0  0
   20.3730   10.3770   32.5260 C   0  0  0  0  0  0
   21.9740    5.1110   31.0090 N   0  0  0  0  0  0
   22.5480   10.4690   31.2970 C   0  0  0  0  0  0
   20.2660   11.6930   32.7460 N   0  0  0  0  0  0
   23.2270    5.1230   30.5340 C   0  0  0  0  0  0
   19.2860   12.2470   33.4750 C   0  0  0  0  0  0
   23.8390    9.7120   31.6240 C   0  0  0  0  0  0
   24.7150    9.9780   30.4070 C   0  0  0  0  0  0
   23.7390    9.8110   29.2450 C   0  0  0  0  0  0
   22.4370   10.4430   29.7540 C   0  0  0  0  0  0
   19.0830   11.8800   34.8060 C   0  0  0  0  0  0
   18.0750   12.4730   35.5550 C   0  0  0  0  0  0
   17.2580   13.4490   34.9820 C   0  0  0  0  0  0
   17.4610   13.8280   33.6570 C   0  0  0  0  0  0
   18.4740   13.2290   32.9080 C   0  0  0  0  0  0
   23.6250    6.0390   29.5660 C   0  0  0  0  0  0
   24.9270    6.0210   29.0740 C   0  0  0  0  0  0
   25.8370    5.0770   29.5430 C   0  0  0  0  0  0
   25.4380    4.1560   30.5070 C   0  0  0  0  0  0
   24.1360    4.1790   30.9970 C   0  0  0  0  0  0
   27.9360    4.0870   29.7190 C   0  0  0  0  0  0
   18.5348    6.7839   33.1677 H   0  0  0  0  0  0
   21.4680    4.1351   30.9682 H   0  0  0  0  0  0
   22.5390   11.4820   31.7256 H   0  0  0  0  0  0
   21.0074   12.3841   32.3186 H   0  0  0  0  0  0
   24.2738   10.1123   32.5517 H   0  0  0  0  0  0
   23.6141    8.6433   31.7558 H   0  0  0  0  0  0
   25.1306   10.9945   30.4695 H   0  0  0  0  0  0
   25.5366    9.2470   30.3797 H   0  0  0  0  0  0
   24.1316   10.3311   28.3588 H   0  0  0  0  0  0
   23.6179    8.7414   29.0187 H   0  0  0  0  0  0
   21.5632    9.8433   29.4593 H   0  0  0  0  0  0
   22.3208   11.4700   29.3774 H   0  0  0  0  0  0
   17.9215   12.1757   36.5924 H   0  0  0  0  0  0
   16.4648   13.9125   35.5686 H   0  0  0  0  0  0
   16.8285   14.5924   33.2056 H   0  0  0  0  0  0
   18.6320   13.5305   31.8725 H   0  0  0  0  0  0
   22.9137    6.7747   29.1907 H   0  0  0  0  0  0
   25.2346    6.7465   28.3209 H   0  0  0  0  0  0
   26.1464    3.4157   30.8786 H   0  0  0  0  0  0
   23.8270    3.4524   31.7484 H   0  0  0  0  0  0
   28.9507    4.1125   29.2950 H   0  0  0  0  0  0
   27.5037    3.0857   29.5755 H   0  0  0  0  0  0
   27.9818    4.3160   30.7939 H   0  0  0  0  0  0
  1  5  2  0  0  0
  1  6  1  0  0  0
  1  8  1  0  0  0
  2 21  1  0  0  0
  3  7  2  0  0  0
  3  9  1  0  0  0
  4 28  1  0  0  0
  4 31  1  0  0  0
  5  7  1  0  0  0
  5 10  1  0  0  0
  6  9  2  0  0  0
  7 32  1  0  0  0
  8 11  1  0  0  0
  8 13  1  0  0  0
  9 12  1  0  0  0
 10 11  2  0  0  0
 11 14  1  0  0  0
 12 15  1  0  0  0
 12 33  1  0  0  0
 13 17  1  0  0  0
 13 20  1  0  0  0
 13 34  1  0  0  0
 14 16  1  0  0  0
 14 35  1  0  0  0
 15 26  2  0  0  0
 15 30  1  0  0  0
 16 21  2  0  0  0
 16 25  1  0  0  0
 17 18  1  0  0  0
 17 36  1  0  0  0
 17 37  1  0  0  0
 18 19  1  0  0  0
 18 38  1  0  0  0
 18 39  1  0  0  0
 19 20  1  0  0  0
 19 40  1  0  0  0
 19 41  1  0  0  0
 20 42  1  0  0  0
 20 43  1  0  0  0
 21 22  1  0  0  0
 22 23  2  0  0  0
 22 44  1  0  0  0
 23 24  1  0  0  0
 23 45  1  0  0  0
 24 25  2  0  0  0
 24 46  1  0  0  0
 25 47  1  0  0  0
 26 27  1  0  0  0
 26 48  1  0  0  0
 27 28  2  0  0  0
 27 49  1  0  0  0
 28 29  1  0  0  0
 29 30  2  0  0  0
 29 50  1  0  0  0
 30 51  1  0  0  0
 31 52  1  0  0  0
 31 53  1  0  0  0
 31 54  1  0  0  0
M  END
> <s_m_source_file>
../3ttj_ligand.sdf

> <i_m_source_file_index>
1

> <s_epik_input>
W2NIXTFbY0hdW2NIXVtjSF1jKEYpYzFbTkhdYyhuMltDSF0zW0NIMl1bQ0gyXVtDSDJdW0NIMl0zKW5jKGMyNClbY0hdbmMobjQpW05IXWM1W2NIXVtjSF1jKE9bQ0gzXSlbY0hdW2NIXTU=

> <s_epik_cmdline>
J2VwaWtfYXBwJywgJy1pbWFlJywgJ2xpZ2FuZF9wcm8ubWFlJywgJy1vbWFlJywgJ2xpZ2FuZF9wcmVwLm1hZScsICctbXMnLCAnMScsICctcGgnLCAnNycsICctcGh0JywgJzAuNScsICctbnQn

> <r_lp_tautomer_probability>
1

> <r_epik_Ionization_Penalty>
  0.0015

> <r_epik_Ionization_Penalty_Charging>
  0.0000

> <r_epik_Ionization_Penalty_Neutral>
  0.0015

> <r_epik_State_Penalty>
 -0.0000

> <r_epik_Charging_Adjusted_Penalty>
0

> <i_epik_Tot_Q>
0

> <i_epik_Tot_abs_Q>
0

$$$$
