3ttn_ligand
                    3D
 Schrodinger Suite 2020-3.
 32 31  0  0  1  0            999 V2000
   26.0240   27.2880   31.8790 N   0  3  0  0  0  0
   25.6740   28.6610   32.2050 C   0  0  0  0  0  0
   24.2020   28.7490   32.5890 C   0  0  0  0  0  0
   23.9270   30.0630   33.3210 C   0  0  0  0  0  0
   22.4580   30.3970   33.1780 C   0  0  0  0  0  0
   21.6720   30.0550   34.3210 N   0  3  0  0  0  0
   20.4990   30.8570   34.6400 C   0  0  0  0  0  0
   19.2470   29.9820   34.6890 C   0  0  0  0  0  0
   18.0790   30.6230   35.4490 C   0  0  0  0  0  0
   16.8560   30.0850   34.8730 N   0  3  0  0  0  0
   27.0877   27.2363   31.6036 H   0  0  0  0  0  0
   25.4093   26.9436   31.0343 H   0  0  0  0  0  0
   25.8397   26.6454   32.7525 H   0  0  0  0  0  0
   26.2887   29.0054   33.0497 H   0  0  0  0  0  0
   25.8583   29.3037   31.3315 H   0  0  0  0  0  0
   23.5829   28.7056   31.6808 H   0  0  0  0  0  0
   23.9443   27.9076   33.2490 H   0  0  0  0  0  0
   24.1837   29.9508   34.3847 H   0  0  0  0  0  0
   24.5379   30.8638   32.8789 H   0  0  0  0  0  0
   22.3421   31.4787   33.0154 H   0  0  0  0  0  0
   22.0395   29.8503   32.3201 H   0  0  0  0  0  0
   21.2827   29.0327   34.2057 H   0  0  0  0  0  0
   22.2963   30.1098   35.2250 H   0  0  0  0  0  0
   20.6379   31.3359   35.6205 H   0  0  0  0  0  0
   20.3633   31.6307   33.8700 H   0  0  0  0  0  0
   18.9007   29.7798   33.6647 H   0  0  0  0  0  0
   19.4831   29.0319   35.1905 H   0  0  0  0  0  0
   18.1525   30.3684   36.5166 H   0  0  0  0  0  0
   18.1191   31.7157   35.3291 H   0  0  0  0  0  0
   15.9863   30.5181   35.3888 H   0  0  0  0  0  0
   16.8452   28.9914   34.9912 H   0  0  0  0  0  0
   16.8119   30.3387   33.8036 H   0  0  0  0  0  0
  1  2  1  0  0  0
  1 11  1  0  0  0
  1 12  1  0  0  0
  1 13  1  0  0  0
  2  3  1  0  0  0
  2 14  1  0  0  0
  2 15  1  0  0  0
  3  4  1  0  0  0
  3 16  1  0  0  0
  3 17  1  0  0  0
  4  5  1  0  0  0
  4 18  1  0  0  0
  4 19  1  0  0  0
  5  6  1  0  0  0
  5 20  1  0  0  0
  5 21  1  0  0  0
  6  7  1  0  0  0
  6 22  1  0  0  0
  6 23  1  0  0  0
  7  8  1  0  0  0
  7 24  1  0  0  0
  7 25  1  0  0  0
  8  9  1  0  0  0
  8 26  1  0  0  0
  8 27  1  0  0  0
  9 10  1  0  0  0
  9 28  1  0  0  0
  9 29  1  0  0  0
 10 30  1  0  0  0
 10 31  1  0  0  0
 10 32  1  0  0  0
M  CHG  3   1   1   6   1  10   1
M  END
> <s_m_source_file>
../3ttn_ligand.sdf

> <i_m_source_file_index>
1

> <s_epik_input>
W05IMytdW0NIMl1bQ0gyXVtDSDJdW0NIMl1bTkgyK11bQ0gyXVtDSDJdW0NIMl1bTkgzK10=

> <s_epik_cmdline>
J2VwaWtfYXBwJywgJy1pbWFlJywgJ2xpZ2FuZF9wcm8ubWFlJywgJy1vbWFlJywgJ2xpZ2FuZF9wcmVwLm1hZScsICctbXMnLCAnMScsICctcGgnLCAnNycsICctcGh0JywgJzAuNScsICctbnQn

> <r_lp_tautomer_probability>
1

> <r_epik_Ionization_Penalty>
  0.0057

> <r_epik_Ionization_Penalty_Charging>
  0.0057

> <r_epik_Ionization_Penalty_Neutral>
  0.0000

> <r_epik_State_Penalty>
 -0.0000

> <r_epik_Charging_Adjusted_Penalty>
0.00565241797034212

> <i_epik_Tot_Q>
3

> <i_epik_Tot_abs_Q>
3

$$$$
