3ttp_ligand
                    3D
 Schrodinger Suite 2020-3.
 75 78  0  0  1  0            999 V2000
  -10.1180   15.7390   35.0410 N   0  0  0  0  0  0
   -9.8680   15.5250   33.7290 C   0  0  0  0  0  0
   -9.2720   16.5370   33.0040 C   0  0  0  0  0  0
   -9.0040   16.3610   31.6610 C   0  0  0  0  0  0
   -9.3320   15.1620   31.0310 C   0  0  0  0  0  0
   -9.9280   14.1320   31.7540 C   0  0  0  0  0  0
  -10.1930   14.3100   33.1160 C   0  0  0  0  0  0
   -9.0120   15.0020   29.4820 S   0  0  0  0  0  0
   -7.7980   15.7080   29.1980 O   0  0  0  0  0  0
   -8.7770   13.6090   29.2320 O   0  0  0  0  0  0
  -10.2060   15.5340   28.5050 N   0  0  1  0  0  0
  -11.5450   14.9960   28.8260 C   0  0  0  0  0  0
  -12.3850   14.7400   27.5670 C   0  0  0  0  0  0
  -11.5830   14.1430   26.4120 C   0  0  0  0  0  0
  -13.5540   13.8200   27.8920 C   0  0  0  0  0  0
  -10.2440   17.0030   28.4310 C   0  0  0  0  0  0
   -9.9630   17.4030   26.9750 C   0  0  1  0  0  0
  -10.3090   18.7700   26.7610 O   0  0  0  0  0  0
   -8.5200   17.1360   26.5300 C   0  0  1  0  0  0
   -8.4960   17.3790   25.0930 N   0  0  0  0  0  0
   -8.3800   16.4490   24.1390 C   0  0  0  0  0  0
   -8.2800   15.2430   24.3030 O   0  0  0  0  0  0
   -8.3830   16.9510   22.7820 O   0  0  0  0  0  0
   -7.9640   16.0660   21.7630 C   0  0  1  0  0  0
   -8.9760   16.3060   20.6720 C   0  0  0  0  0  0
   -8.4460   17.4010   19.9050 O   0  0  0  0  0  0
   -7.1030   17.7070   20.2910 C   0  0  1  0  0  0
   -7.0080   18.9160   21.0680 O   0  0  0  0  0  0
   -6.1270   18.7650   22.1960 C   0  0  0  0  0  0
   -5.7280   17.2740   22.2030 C   0  0  0  0  0  0
   -6.6560   16.5920   21.2020 C   0  0  1  0  0  0
   -7.5180   18.1280   27.1180 C   0  0  0  0  0  0
   -5.5040   18.6740   25.7120 C   0  0  0  0  0  0
   -4.2300   18.3740   25.2270 C   0  0  0  0  0  0
   -3.6020   17.1960   25.6110 C   0  0  0  0  0  0
   -4.2400   16.3220   26.4870 C   0  0  0  0  0  0
   -5.5040   16.6240   26.9850 C   0  0  0  0  0  0
   -6.1430   17.7990   26.5910 C   0  0  0  0  0  0
   -9.8537   16.7025   35.5012 H   0  0  0  0  0  0
  -10.5856   14.9495   35.6477 H   0  0  0  0  0  0
   -9.0126   17.4764   33.4923 H   0  0  0  0  0  0
   -8.5341   17.1628   31.0914 H   0  0  0  0  0  0
  -10.1861   13.1940   31.2624 H   0  0  0  0  0  0
  -10.6495   13.5077   33.6957 H   0  0  0  0  0  0
  -11.4377   14.0428   29.3644 H   0  0  0  0  0  0
  -12.0872   15.7149   29.4578 H   0  0  0  0  0  0
  -12.7531   15.7213   27.2331 H   0  0  0  0  0  0
  -10.7368   14.8040   26.1730 H   0  0  0  0  0  0
  -12.2310   14.0430   25.5288 H   0  0  0  0  0  0
  -11.2037   13.1522   26.7026 H   0  0  0  0  0  0
  -14.1352   14.2454   28.7235 H   0  0  0  0  0  0
  -13.1720   12.8297   28.1806 H   0  0  0  0  0  0
  -14.1993   13.7204   27.0068 H   0  0  0  0  0  0
  -11.2369   17.3602   28.7416 H   0  0  0  0  0  0
   -9.4776   17.4237   29.0986 H   0  0  0  0  0  0
  -10.6337   16.8276   26.3199 H   0  0  0  0  0  0
  -11.3132   19.1314   27.0275 H   0  0  0  0  0  0
   -8.2351   16.1100   26.8060 H   0  0  0  0  0  0
   -8.5777   18.4060   24.7074 H   0  0  0  0  0  0
   -7.8877   15.0414   22.1558 H   0  0  0  0  0  0
   -9.0801   15.3966   20.0620 H   0  0  0  0  0  0
   -9.9474   16.5588   21.1220 H   0  0  0  0  0  0
   -6.5321   17.8581   19.3630 H   0  0  0  0  0  0
   -5.2505   19.4169   22.0665 H   0  0  0  0  0  0
   -6.6593   19.0449   23.1171 H   0  0  0  0  0  0
   -4.6744   17.1750   21.9027 H   0  0  0  0  0  0
   -5.8610   16.8636   23.2149 H   0  0  0  0  0  0
   -6.1047   15.7448   20.7681 H   0  0  0  0  0  0
   -7.7966   19.1499   26.8212 H   0  0  0  0  0  0
   -7.5255   18.0499   28.2152 H   0  0  0  0  0  0
   -6.0007   19.5938   25.4034 H   0  0  0  0  0  0
   -3.7285   19.0633   24.5477 H   0  0  0  0  0  0
   -2.6106   16.9561   25.2268 H   0  0  0  0  0  0
   -3.7470   15.3964   26.7843 H   0  0  0  0  0  0
   -5.9934   15.9434   27.6816 H   0  0  0  0  0  0
  1  2  1  0  0  0
  1 39  1  0  0  0
  1 40  1  0  0  0
  2  3  2  0  0  0
  2  7  1  0  0  0
  3  4  1  0  0  0
  3 41  1  0  0  0
  4  5  2  0  0  0
  4 42  1  0  0  0
  5  6  1  0  0  0
  5  8  1  0  0  0
  6  7  2  0  0  0
  6 43  1  0  0  0
  7 44  1  0  0  0
  8  9  2  0  0  0
  8 10  2  0  0  0
  8 11  1  0  0  0
 11 12  1  0  0  0
 11 16  1  0  0  0
 12 13  1  0  0  0
 12 45  1  0  0  0
 12 46  1  0  0  0
 13 14  1  0  0  0
 13 15  1  0  0  0
 13 47  1  0  0  0
 14 48  1  0  0  0
 14 49  1  0  0  0
 14 50  1  0  0  0
 15 51  1  0  0  0
 15 52  1  0  0  0
 15 53  1  0  0  0
 16 17  1  0  0  0
 16 54  1  0  0  0
 16 55  1  0  0  0
 17 18  1  0  0  0
 17 19  1  0  0  0
 17 56  1  0  0  0
 18 57  1  0  0  0
 19 20  1  0  0  0
 19 32  1  0  0  0
 19 58  1  0  0  0
 20 21  1  0  0  0
 20 59  1  0  0  0
 21 22  2  0  0  0
 21 23  1  0  0  0
 23 24  1  0  0  0
 24 25  1  0  0  0
 24 31  1  0  0  0
 24 60  1  0  0  0
 25 26  1  0  0  0
 25 61  1  0  0  0
 25 62  1  0  0  0
 26 27  1  0  0  0
 27 28  1  0  0  0
 27 31  1  0  0  0
 27 63  1  0  0  0
 28 29  1  0  0  0
 29 30  1  0  0  0
 29 64  1  0  0  0
 29 65  1  0  0  0
 30 31  1  0  0  0
 30 66  1  0  0  0
 30 67  1  0  0  0
 31 68  1  0  0  0
 32 38  1  0  0  0
 32 69  1  0  0  0
 32 70  1  0  0  0
 33 34  2  0  0  0
 33 38  1  0  0  0
 33 71  1  0  0  0
 34 35  1  0  0  0
 34 72  1  0  0  0
 35 36  2  0  0  0
 35 73  1  0  0  0
 36 37  1  0  0  0
 36 74  1  0  0  0
 37 38  2  0  0  0
 37 75  1  0  0  0
M  END
> <s_m_source_file>
../3ttp_ligand.sdf

> <i_m_source_file_index>
1

> <s_epik_input>
W05IMl1jMVtjSF1bY0hdYyhbY0hdW2NIXTEpUyg9TykoPU8pTihbQ0gyXVtDSF0oW0NIM10pW0NIM10pW0NIMl1bQ0BASF0oW09IXSlbQ0BASF0oW05IXUMoPU8pT1tDQEBIXShbQ0gyXU8yKVtDQEBIXShbQ0BASF0yMylbQ0gyXVtDSDJdTzMpW0NIMl1jNFtjSF1bY0hdW2NIXVtjSF1bY0hdNA==

> <s_epik_cmdline>
J2VwaWtfYXBwJywgJy1pbWFlJywgJ2xpZ2FuZF9wcm8ubWFlJywgJy1vbWFlJywgJ2xpZ2FuZF9wcmVwLm1hZScsICctbXMnLCAnMScsICctcGgnLCAnNycsICctcGh0JywgJzAuNScsICctbnQn

> <r_lp_tautomer_probability>
1

> <r_epik_Ionization_Penalty>
  0.0000

> <r_epik_Ionization_Penalty_Charging>
  0.0000

> <r_epik_Ionization_Penalty_Neutral>
  0.0000

> <r_epik_State_Penalty>
 -0.0000

> <r_epik_Charging_Adjusted_Penalty>
0

> <i_epik_Tot_Q>
0

> <i_epik_Tot_abs_Q>
0

> <s_epik_Chemistry_Notes>
This compound has an ester and may undergo hydrolysis at high or low pH. This compound contains an acetal/aminal-like group ( X-CH(R)-Y where X, Y are N, S, or O) that may be acid/base labile, releasing an aldehyde.

$$$$
