3ttz_ligand
                    3D
 Schrodinger Suite 2020-3.
 38 40  0  0  1  0            999 V2000
    5.7890    8.4620   23.5650 C   0  0  0  0  0  0
    1.1250    6.7100   21.7690 Cl  0  0  0  0  0  0
    4.4900    7.7050   23.4750 C   0  0  0  0  0  0
    3.6540    8.7680   21.0530 Cl  0  0  0  0  0  0
    3.5760    7.7840   22.4780 C   0  0  0  0  0  0
    2.5240    6.9190   22.7780 C   0  0  3  0  0  0
    2.8340    6.3210   23.9900 C   0  0  0  0  0  0
    4.0470    6.8220   24.4000 N   0  0  0  0  0  0
    2.0780    5.3350   24.7600 C   0  0  0  0  0  0
    2.5340    4.9900   25.8350 O   0  5  0  0  0  0
    0.9220    4.8220   24.2850 N   0  0  0  0  0  0
    0.1330    3.8280   25.0260 C   0  0  2  0  0  0
    0.8580    2.4680   25.0340 C   0  0  0  0  0  0
   -0.0310    1.4200   25.7140 C   0  0  0  0  0  0
   -1.3090    1.3830   24.9890 N   0  0  0  0  0  0
   -2.0990    2.6190   24.9790 C   0  0  0  0  0  0
   -1.2340    3.7110   24.3300 C   0  0  2  0  0  0
   -1.0060    3.3840   22.9900 F   0  0  0  0  0  0
   -1.9080    0.1570   24.7740 C   0  0  0  0  0  0
   -2.9950   -0.0470   24.0770 N   0  0  0  0  0  0
   -3.4100   -1.2860   23.9640 C   0  0  0  0  0  0
   -2.6140   -2.1980   24.6070 C   0  0  0  0  0  0
   -1.2940   -1.3230   25.3690 S   0  0  0  0  0  0
   -2.7850   -3.6030   24.6680 C   0  0  0  0  0  0
   -3.7150   -4.1450   24.1010 O   0  0  0  0  0  0
   -1.8880   -4.3430   25.3500 O   0  5  0  0  0  0
    5.8986    9.1084   22.6817 H   0  0  0  0  0  0
    6.6264    7.7498   23.6045 H   0  0  0  0  0  0
    5.7906    9.0806   24.4746 H   0  0  0  0  0  0
    0.0263    4.1786   26.0632 H   0  0  0  0  0  0
    1.0660    2.1573   23.9995 H   0  0  0  0  0  0
    1.8047    2.5604   25.5865 H   0  0  0  0  0  0
    0.4623    0.4377   25.6717 H   0  0  0  0  0  0
   -0.1942    1.7034   26.7643 H   0  0  0  0  0  0
   -3.0199    2.4609   24.3985 H   0  0  0  0  0  0
   -2.3593    2.8962   26.0112 H   0  0  0  0  0  0
   -1.7720    4.6705   24.3263 H   0  0  0  0  0  0
   -4.3060   -1.5650   23.4095 H   0  0  0  0  0  0
  1  3  1  0  0  0
  1 27  1  0  0  0
  1 28  1  0  0  0
  1 29  1  0  0  0
  2  6  1  0  0  0
  3  5  2  0  0  0
  3  8  1  0  0  0
  4  5  1  0  0  0
  5  6  1  0  0  0
  6  7  1  0  0  0
  7  8  2  0  0  0
  7  9  1  0  0  0
  9 10  1  0  0  0
  9 11  2  0  0  0
 11 12  1  0  0  0
 12 13  1  0  0  0
 12 17  1  0  0  0
 12 30  1  0  0  0
 13 14  1  0  0  0
 13 31  1  0  0  0
 13 32  1  0  0  0
 14 15  1  0  0  0
 14 33  1  0  0  0
 14 34  1  0  0  0
 15 16  1  0  0  0
 15 19  1  0  0  0
 16 17  1  0  0  0
 16 35  1  0  0  0
 16 36  1  0  0  0
 17 18  1  0  0  0
 17 37  1  0  0  0
 19 20  2  0  0  0
 19 23  1  0  0  0
 20 21  1  0  0  0
 21 22  2  0  0  0
 21 38  1  0  0  0
 22 23  1  0  0  0
 22 24  1  0  0  0
 24 25  2  0  0  0
 24 26  1  0  0  0
M  CHG  2  10  -1  26  -1
M  END
> <s_m_source_file>
../3ttz_ligand.sdf

> <i_m_source_file_index>
1

> <s_epik_input>
W0NIM11DMT1DKENsKVtDSF0oQ2wpQyg9TjEpQyg9TylbTkhdW0NAQEhdMltDSDJdW0NIMl1OKFtDSDJdW0NAQEhdMkYpYzNuW2NIXWMoczMpQyg9TylbT0hd

> <s_epik_cmdline>
J2VwaWtfYXBwJywgJy1pbWFlJywgJ2xpZ2FuZF9wcm8ubWFlJywgJy1vbWFlJywgJ2xpZ2FuZF9wcmVwLm1hZScsICctbXMnLCAnMScsICctcGgnLCAnNycsICctcGh0JywgJzAuNScsICctbnQn

> <r_lp_tautomer_probability>
1

> <r_epik_Ionization_Penalty>
  0.2552

> <r_epik_Ionization_Penalty_Charging>
  0.1265

> <r_epik_Ionization_Penalty_Neutral>
  0.1286

> <r_epik_State_Penalty>
 -0.0000

> <r_epik_Charging_Adjusted_Penalty>
0.126545092610205

> <i_epik_Tot_Q>
-2

> <i_epik_Tot_abs_Q>
2

> <s_epik_Chemistry_Notes>
This compound has an imine and may undergo hydrolysis.

$$$$
