3tu1_ligand
                    3D
 Schrodinger Suite 2020-3.
 53 55  0  0  1  0            999 V2000
    7.2600    2.2350   20.9840 C   0  0  0  0  0  0
    6.7170    3.4980   20.7750 C   0  0  0  0  0  0
    7.4630    4.6110   20.9280 F   0  0  0  0  0  0
    5.3860    3.6090   20.4110 C   0  0  0  0  0  0
    4.8660    4.8280   20.2120 F   0  0  0  0  0  0
    4.6050    2.4680   20.2480 C   0  0  0  0  0  0
    5.1530    1.2030   20.4620 C   0  0  0  0  0  0
    6.4880    1.0800   20.8290 C   0  0  0  0  0  0
    7.1230   -0.2900   21.1030 C   0  0  0  0  0  0
    6.6320   -1.3660   20.2320 N   0  0  0  0  0  0
    5.6610   -2.1920   20.5980 C   0  0  0  0  0  0
    5.0690   -2.0370   21.6680 O   0  0  0  0  0  0
    7.4400   -1.4280   19.0360 C   0  0  1  0  0  0
    8.4890   -2.4580   18.8870 C   0  0  0  0  0  0
    9.1050   -2.7100   19.9160 O   0  0  0  0  0  0
    8.8010   -2.9060   17.6550 N   0  0  0  0  0  0
    9.9610   -3.7900   17.3680 C   0  0  0  0  0  0
    9.9380   -5.0580   18.2180 C   0  0  0  0  0  0
    9.9680   -4.1620   15.8870 C   0  0  0  0  0  0
   11.2300   -2.9800   17.6630 C   0  0  0  0  0  0
    7.1730   -0.4030   17.9290 C   0  0  0  0  0  0
    8.1940    0.4940   17.7010 C   0  0  0  0  0  0
    9.4800    0.6030   18.2310 C   0  0  0  0  0  0
   10.3200    1.6060   17.7850 C   0  0  0  0  0  0
    9.8850    2.4920   16.8080 C   0  0  3  0  0  0
   10.9280    3.7540   16.2560 Cl  0  0  0  0  0  0
    8.6020    2.3730   16.2800 C   0  0  0  0  0  0
    7.7500    1.3690   16.7250 C   0  0  0  0  0  0
    6.4950    1.0340   16.3990 N   0  0  0  0  0  0
    6.1120   -0.0270   17.1220 C   0  0  0  0  0  0
    4.7310   -0.6430   16.9740 C   0  0  0  0  0  0
    4.3320   -1.4890   17.7940 O   0  5  0  0  0  0
    4.0650   -0.2090   16.0230 O   0  0  0  0  0  0
    8.3068    2.1440   21.2740 H   0  0  0  0  0  0
    3.5604    2.5635   19.9518 H   0  0  0  0  0  0
    4.5355    0.3129   20.3416 H   0  0  0  0  0  0
    8.2111   -0.2260   20.9549 H   0  0  0  0  0  0
    6.9112   -0.5917   22.1394 H   0  0  0  0  0  0
    5.3861   -3.0238   19.9328 H   0  0  0  0  0  0
    8.1726   -0.7484   19.4957 H   0  0  0  0  0  0
    8.1410   -2.5817   16.8370 H   0  0  0  0  0  0
    9.0246   -5.6302   17.9983 H   0  0  0  0  0  0
    9.9525   -4.7854   19.2836 H   0  0  0  0  0  0
   10.8204   -5.6720   17.9845 H   0  0  0  0  0  0
    9.0654   -4.7448   15.6511 H   0  0  0  0  0  0
   10.8615   -4.7637   15.6643 H   0  0  0  0  0  0
    9.9821   -3.2455   15.2788 H   0  0  0  0  0  0
   11.2472   -2.6999   18.7266 H   0  0  0  0  0  0
   11.2366   -2.0706   17.0442 H   0  0  0  0  0  0
   12.1160   -3.5887   17.4297 H   0  0  0  0  0  0
    9.8267   -0.1035   18.9995 H   0  0  0  0  0  0
   11.3326    1.7022   18.2039 H   0  0  0  0  0  0
    8.2639    3.0787   15.5069 H   0  0  0  0  0  0
  1  2  2  0  0  0
  1  8  1  0  0  0
  1 34  1  0  0  0
  2  3  1  0  0  0
  2  4  1  0  0  0
  4  5  1  0  0  0
  4  6  2  0  0  0
  6  7  1  0  0  0
  6 35  1  0  0  0
  7  8  2  0  0  0
  7 36  1  0  0  0
  8  9  1  0  0  0
  9 10  1  0  0  0
  9 37  1  0  0  0
  9 38  1  0  0  0
 10 11  1  0  0  0
 10 13  1  0  0  0
 11 12  2  0  0  0
 11 39  1  0  0  0
 13 14  1  0  0  0
 13 21  1  0  0  0
 13 40  1  0  0  0
 14 15  2  0  0  0
 14 16  1  0  0  0
 16 17  1  0  0  0
 16 41  1  0  0  0
 17 18  1  0  0  0
 17 19  1  0  0  0
 17 20  1  0  0  0
 18 42  1  0  0  0
 18 43  1  0  0  0
 18 44  1  0  0  0
 19 45  1  0  0  0
 19 46  1  0  0  0
 19 47  1  0  0  0
 20 48  1  0  0  0
 20 49  1  0  0  0
 20 50  1  0  0  0
 21 22  2  0  0  0
 21 30  1  0  0  0
 22 23  1  0  0  0
 22 28  1  0  0  0
 23 24  2  0  0  0
 23 51  1  0  0  0
 24 25  1  0  0  0
 24 52  1  0  0  0
 25 26  1  0  0  0
 25 27  1  0  0  0
 27 28  2  0  0  0
 27 53  1  0  0  0
 28 29  1  0  0  0
 29 30  2  0  0  0
 30 31  1  0  0  0
 31 32  1  0  0  0
 31 33  2  0  0  0
M  CHG  1  32  -1
M  END
> <s_m_source_file>
../3tu1_ligand.sdf

> <i_m_source_file_index>
1

> <s_epik_input>
RmMxW2NIXVtjSF1jKFtjSF1jMUYpW0NIMl1OKFtDSF09TylbQ0hdKEMoPU8pW05IXUMoW0NIM10pKFtDSDNdKVtDSDNdKUM9MkMoQyg9TylbT0hdKT1OQyhDMjMpPVtDSF1bQ0hdKENsKVtDSF09W0NIXTM=

> <s_epik_cmdline>
J2VwaWtfYXBwJywgJy1pbWFlJywgJ2xpZ2FuZF9wcm8ubWFlJywgJy1vbWFlJywgJ2xpZ2FuZF9wcmVwLm1hZScsICctbXMnLCAnMScsICctcGgnLCAnNycsICctcGh0JywgJzAuNScsICctbnQn

> <r_lp_tautomer_probability>
1

> <r_epik_Ionization_Penalty>
  0.0000

> <r_epik_Ionization_Penalty_Charging>
  0.0000

> <r_epik_Ionization_Penalty_Neutral>
  0.0000

> <r_epik_State_Penalty>
 -0.0000

> <r_epik_Charging_Adjusted_Penalty>
3.10530281733971e-08

> <i_epik_Tot_Q>
-1

> <i_epik_Tot_abs_Q>
1

> <s_epik_Chemistry_Notes>
This compound has an imine and may undergo hydrolysis.

$$$$
