3tu7_ligand
                    3D
 Schrodinger Suite 2020-3.
 68 70  0  0  1  0            999 V2000
   25.1880    6.8250   23.5700 S   0  0  0  0  0  0
   25.4090    6.4220   24.9210 O   0  0  0  0  0  0
   24.8250    8.1800   23.2980 O   0  0  0  0  0  0
   23.9730    5.7800   22.8720 C   0  0  0  0  0  0
   26.6110    6.5780   22.7990 N   0  0  3  0  0  0
   27.3440    5.3200   22.8690 C   0  0  1  0  0  0
   26.9480    4.5060   21.6280 C   0  0  0  0  0  0
   26.8810    5.0780   20.5540 O   0  0  0  0  0  0
   28.8430    5.6500   22.8740 C   0  0  0  0  0  0
   29.7150    4.4230   22.9550 C   0  0  0  0  0  0
   30.4780    4.0190   21.8630 C   0  0  0  0  0  0
   29.7700    3.6620   24.1190 C   0  0  0  0  0  0
   31.2690    2.8820   21.9310 C   0  0  0  0  0  0
   30.5640    2.5250   24.1870 C   0  0  0  0  0  0
   31.3130    2.1350   23.0950 C   0  0  0  0  0  0
   26.6090    3.2040   21.7600 N   0  0  0  0  0  0
   26.2120    2.4040   20.5940 C   0  0  2  0  0  0
   24.8490    2.8670   20.0890 C   0  0  0  0  0  0
   24.0050    3.2950   20.8750 O   0  0  0  0  0  0
   26.1330    0.9690   21.1500 C   0  0  0  0  0  0
   26.8060    1.0140   22.4990 C   0  0  0  0  0  0
   26.5430    2.4040   22.9930 C   0  0  0  0  0  0
   24.6430    2.8100   18.7790 N   0  0  0  0  0  0
   23.4130    3.3180   18.1880 C   0  0  0  0  0  0
   23.4260    4.7010   17.5500 C   0  0  0  0  0  0
   24.2250    4.7340   16.2500 C   0  0  0  0  0  0
   24.0700    6.0750   15.5150 C   0  0  0  0  0  0
   24.4140    7.2150   16.3830 N   0  0  0  0  0  0
   23.6990    7.2310   17.6770 C   0  0  0  0  0  0
   23.8340    5.8930   18.4170 C   0  0  0  0  0  0
   24.8860    8.4200   15.7470 C   0  0  0  0  0  0
   24.7240    9.6360   16.5220 N   0  0  0  0  0  0
   25.4370    8.5360   14.5790 N   0  3  0  0  0  0
   23.0132    5.9400   23.3850 H   0  0  0  0  0  0
   24.2809    4.7305   22.9892 H   0  0  0  0  0  0
   23.8604    6.0119   21.8026 H   0  0  0  0  0  0
   27.0819    7.4647   22.3495 H   0  0  0  0  0  0
   27.0835    4.7751   23.7884 H   0  0  0  0  0  0
   29.1037    6.1851   21.9490 H   0  0  0  0  0  0
   29.0760    6.2838   23.7423 H   0  0  0  0  0  0
   30.4534    4.6035   20.9433 H   0  0  0  0  0  0
   29.1831    3.9620   24.9871 H   0  0  0  0  0  0
   31.8572    2.5761   21.0658 H   0  0  0  0  0  0
   30.5960    1.9387   25.1053 H   0  0  0  0  0  0
   31.9364    1.2425   23.1494 H   0  0  0  0  0  0
   26.9245    2.5213   19.7642 H   0  0  0  0  0  0
   25.0788    0.6680   21.2396 H   0  0  0  0  0  0
   26.6537    0.2819   20.4668 H   0  0  0  0  0  0
   26.3624    0.2511   23.1557 H   0  0  0  0  0  0
   27.8811    0.8144   22.3793 H   0  0  0  0  0  0
   27.3089    2.7559   23.6998 H   0  0  0  0  0  0
   25.5472    2.5123   23.4475 H   0  0  0  0  0  0
   25.4205    2.3698   18.1374 H   0  0  0  0  0  0
   23.0865    2.6425   17.3836 H   0  0  0  0  0  0
   22.6312    3.3739   18.9598 H   0  0  0  0  0  0
   22.3510    4.8433   17.3654 H   0  0  0  0  0  0
   25.2920    4.5843   16.4715 H   0  0  0  0  0  0
   23.8732    3.9332   15.5829 H   0  0  0  0  0  0
   24.7363    6.0927   14.6400 H   0  0  0  0  0  0
   23.0276    6.1937   15.1845 H   0  0  0  0  0  0
   24.1153    8.0236   18.3162 H   0  0  0  0  0  0
   22.6301    7.4240   17.5030 H   0  0  0  0  0  0
   23.1928    5.9335   19.3099 H   0  0  0  0  0  0
   24.8841    5.7804   18.7245 H   0  0  0  0  0  0
   24.2625    9.5950   17.5197 H   0  0  0  0  0  0
   25.0627   10.5988   16.1118 H   0  0  0  0  0  0
   25.5840    7.6461   13.9494 H   0  0  0  0  0  0
   25.7574    9.5243   14.2177 H   0  0  0  0  0  0
  1  2  2  0  0  0
  1  3  2  0  0  0
  1  4  1  0  0  0
  1  5  1  0  0  0
  4 34  1  0  0  0
  4 35  1  0  0  0
  4 36  1  0  0  0
  5  6  1  0  0  0
  5 37  1  0  0  0
  6  7  1  0  0  0
  6  9  1  0  0  0
  6 38  1  0  0  0
  7  8  2  0  0  0
  7 16  1  0  0  0
  9 10  1  0  0  0
  9 39  1  0  0  0
  9 40  1  0  0  0
 10 11  2  0  0  0
 10 12  1  0  0  0
 11 13  1  0  0  0
 11 41  1  0  0  0
 12 14  2  0  0  0
 12 42  1  0  0  0
 13 15  2  0  0  0
 13 43  1  0  0  0
 14 15  1  0  0  0
 14 44  1  0  0  0
 15 45  1  0  0  0
 16 17  1  0  0  0
 16 22  1  0  0  0
 17 18  1  0  0  0
 17 20  1  0  0  0
 17 46  1  0  0  0
 18 19  2  0  0  0
 18 23  1  0  0  0
 20 21  1  0  0  0
 20 47  1  0  0  0
 20 48  1  0  0  0
 21 22  1  0  0  0
 21 49  1  0  0  0
 21 50  1  0  0  0
 22 51  1  0  0  0
 22 52  1  0  0  0
 23 24  1  0  0  0
 23 53  1  0  0  0
 24 25  1  0  0  0
 24 54  1  0  0  0
 24 55  1  0  0  0
 25 26  1  0  0  0
 25 30  1  0  0  0
 25 56  1  0  0  0
 26 27  1  0  0  0
 26 57  1  0  0  0
 26 58  1  0  0  0
 27 28  1  0  0  0
 27 59  1  0  0  0
 27 60  1  0  0  0
 28 29  1  0  0  0
 28 31  1  0  0  0
 29 30  1  0  0  0
 29 61  1  0  0  0
 29 62  1  0  0  0
 30 63  1  0  0  0
 30 64  1  0  0  0
 31 32  1  0  0  0
 31 33  2  0  0  0
 32 65  1  0  0  0
 32 66  1  0  0  0
 33 67  1  0  0  0
 33 68  1  0  0  0
M  CHG  1  33   1
M  END
> <s_m_source_file>
../3tu7_ligand.sdf

> <i_m_source_file_index>
1

> <s_epik_input>
W2NIXTFbY0hdW2NIXVtjSF1bY0hdYzFbQ0gyXVtDQEBIXShbTkhdUyg9TykoPU8pW0NIM10pQyg9TylOMltDQEBIXShbQ0gyXVtDSDJdW0NIMl0yKUMoPU8pW05IXVtDSDJdW0NIXTNbQ0gyXVtDSDJdTihbQ0gyXVtDSDJdMykvQyhbTkgyXSk9TlxbSF0=

> <s_epik_cmdline>
J2VwaWtfYXBwJywgJy1pbWFlJywgJ2xpZ2FuZF9wcm8ubWFlJywgJy1vbWFlJywgJ2xpZ2FuZF9wcmVwLm1hZScsICctbXMnLCAnMScsICctcGgnLCAnNycsICctcGh0JywgJzAuNScsICctbnQn

> <r_lp_tautomer_probability>
1

> <r_epik_Ionization_Penalty>
  0.0000

> <r_epik_Ionization_Penalty_Charging>
  0.0000

> <r_epik_Ionization_Penalty_Neutral>
  0.0000

> <r_epik_State_Penalty>
 -0.0000

> <r_epik_Charging_Adjusted_Penalty>
4.5362972963895e-06

> <i_epik_Tot_Q>
1

> <i_epik_Tot_abs_Q>
1

> <s_epik_Chemistry_Notes>
This compound has an imine and may undergo hydrolysis.

$$$$
