3tu9_ligand
                    3D
 Schrodinger Suite 2020-3.
 35 34  0  0  1  0            999 V2000
    6.3660  -30.2430   52.5290 C   0  0  0  0  0  0
    5.2890  -31.0550   52.1170 O   0  0  0  0  0  0
    4.0530  -30.4630   51.7420 C   0  0  2  0  0  0
    2.8910  -31.2170   52.4480 C   0  0  0  0  0  0
    1.6330  -30.7640   51.9920 O   0  0  0  0  0  0
    0.2750  -30.8770   52.9460 P   0  0  0  0  0  0
   -0.7800  -30.0030   52.4210 O   0  0  0  0  0  0
   -0.2130  -32.4540   52.9560 O   0  5  0  0  0  0
    0.6270  -30.3860   54.4690 O   0  5  0  0  0  0
    3.9180  -30.4860   50.1860 C   0  0  1  0  0  0
    2.6620  -29.9740   49.8010 O   0  0  0  0  0  0
    5.0550  -29.6570   49.5090 C   0  0  2  0  0  0
    4.9980  -28.3080   49.8760 O   0  0  0  0  0  0
    5.0030  -29.7330   47.9570 C   0  0  2  0  0  0
    3.9120  -30.5090   47.5400 O   0  0  0  0  0  0
    6.3190  -30.3960   47.4820 C   0  0  0  0  0  0
    6.6480  -31.4420   48.3680 O   0  0  0  0  0  0
    7.4230  -32.7670   47.7420 P   0  0  0  0  0  0
    7.6580  -33.7800   48.7760 O   0  0  0  0  0  0
    8.8700  -32.2370   47.1650 O   0  5  0  0  0  0
    6.5110  -33.3820   46.5000 O   0  5  0  0  0  0
    7.2297  -30.8775   52.7769 H   0  0  0  0  0  0
    6.0700  -29.6637   53.4160 H   0  0  0  0  0  0
    6.6383  -29.5545   51.7154 H   0  0  0  0  0  0
    4.0993  -29.4247   52.1023 H   0  0  0  0  0  0
    2.9720  -32.2938   52.2386 H   0  0  0  0  0  0
    2.9509  -31.0490   53.5334 H   0  0  0  0  0  0
    3.9059  -31.5202   49.8114 H   0  0  0  0  0  0
    1.7394  -30.4356   50.1828 H   0  0  0  0  0  0
    6.0223  -30.0017   49.9034 H   0  0  0  0  0  0
    5.0216  -28.0257   50.9389 H   0  0  0  0  0  0
    4.8051  -28.7591   47.4854 H   0  0  0  0  0  0
    2.8872  -30.1945   47.7865 H   0  0  0  0  0  0
    6.1818  -30.7973   46.4670 H   0  0  0  0  0  0
    7.1249  -29.6473   47.4745 H   0  0  0  0  0  0
  1  2  1  0  0  0
  1 22  1  0  0  0
  1 23  1  0  0  0
  1 24  1  0  0  0
  2  3  1  0  0  0
  3  4  1  0  0  0
  3 10  1  0  0  0
  3 25  1  0  0  0
  4  5  1  0  0  0
  4 26  1  0  0  0
  4 27  1  0  0  0
  5  6  1  0  0  0
  6  7  2  0  0  0
  6  8  1  0  0  0
  6  9  1  0  0  0
 10 11  1  0  0  0
 10 12  1  0  0  0
 10 28  1  0  0  0
 11 29  1  0  0  0
 12 13  1  0  0  0
 12 14  1  0  0  0
 12 30  1  0  0  0
 13 31  1  0  0  0
 14 15  1  0  0  0
 14 16  1  0  0  0
 14 32  1  0  0  0
 15 33  1  0  0  0
 16 17  1  0  0  0
 16 34  1  0  0  0
 16 35  1  0  0  0
 17 18  1  0  0  0
 18 19  2  0  0  0
 18 20  1  0  0  0
 18 21  1  0  0  0
M  CHG  4   8  -1   9  -1  20  -1  21  -1
M  END
> <s_m_source_file>
../3tu9_ligand.sdf

> <i_m_source_file_index>
1

> <s_epik_input>
Tz1QKFtPSF0pKFtPSF0pT1tDSDJdW0NAQEhdKE9bQ0gzXSlbQ0BASF0oW09IXSlbQ0BIXShbT0hdKVtDQEhdKFtPSF0pW0NIMl1PUCg9TykoW09IXSlbT0hd

> <s_epik_cmdline>
J2VwaWtfYXBwJywgJy1pbWFlJywgJ2xpZ2FuZF9wcm8ubWFlJywgJy1vbWFlJywgJ2xpZ2FuZF9wcmVwLm1hZScsICctbXMnLCAnMScsICctcGgnLCAnNycsICctcGh0JywgJzAuNScsICctbnQn

> <r_lp_tautomer_probability>
1

> <r_epik_Ionization_Penalty>
  0.2259

> <r_epik_Ionization_Penalty_Charging>
  0.2259

> <r_epik_Ionization_Penalty_Neutral>
  0.0000

> <r_epik_State_Penalty>
 -0.0000

> <r_epik_Charging_Adjusted_Penalty>
0.225850683835558

> <i_epik_Tot_Q>
-4

> <i_epik_Tot_abs_Q>
4

$$$$
