3tv5_ligand
                    3D
 Schrodinger Suite 2020-3.
 72 77  0  0  1  0            999 V2000
    6.1790   34.1550   17.0120 C   0  0  0  0  0  0
    6.8150   34.4570   15.6470 C   0  0  0  0  0  0
    5.8470   34.5870   14.6040 O   0  0  0  0  0  0
    4.6310   35.2090   15.0310 C   0  0  0  0  0  0
    3.8690   34.3850   16.0780 C   0  0  0  0  0  0
    4.8290   33.5910   16.8530 N   0  0  0  0  0  0
    4.4710   32.4240   17.4090 C   0  0  0  0  0  0
    3.3430   31.9460   17.3180 O   0  0  0  0  0  0
    5.5360   31.7150   18.1940 C   0  0  1  0  0  0
    4.9590   31.4550   19.5830 C   0  0  0  0  0  0
    6.0500   30.4980   17.4470 C   0  0  0  0  0  0
    6.9410   29.6680   18.3500 C   0  0  0  0  0  0
    6.2330   29.1550   19.6040 C   0  0  0  0  0  0
    5.4090   30.2090   20.2000 N   0  3  2  0  0  0
    4.8540   29.9730   21.5380 C   0  0  0  0  0  0
    5.8120   29.1780   22.4200 C   0  0  0  0  0  0
    5.1070   28.8400   23.7390 C   0  0  0  0  0  0
    4.5830   31.2960   22.2450 C   0  0  0  0  0  0
    3.9240   31.0140   23.5940 C   0  0  0  0  0  0
    4.8070   30.1250   24.3680 N   0  0  0  0  0  0
    5.2880   30.4440   25.5900 C   0  0  0  0  0  0
    5.9970   29.6740   26.2390 O   0  0  0  0  0  0
    4.9550   31.7790   26.2340 C   0  0  0  0  0  0
    5.8710   32.8330   26.1970 C   0  0  0  0  0  0
    7.0600   32.6850   25.4850 C   0  0  0  0  0  0
    7.9420   33.7590   25.3910 C   0  0  0  0  0  0
    7.6490   34.9790   26.0120 C   0  0  0  0  0  0
    6.4540   35.1470   26.7140 C   0  0  0  0  0  0
    5.5730   34.0660   26.8290 C   0  0  0  0  0  0
    4.3740   34.2490   27.5090 C   0  0  0  0  0  0
    3.4940   33.1790   27.6060 C   0  0  0  0  0  0
    3.7530   31.9620   26.9290 C   0  0  0  0  0  0
    2.8380   30.9060   27.0150 C   0  0  0  0  0  0
    1.6860   31.0460   27.7830 C   0  0  0  0  0  0
    1.4270   32.2480   28.4540 C   0  0  0  0  0  0
    2.3270   33.3220   28.3690 C   0  0  0  0  0  0
    6.8024   33.4290   17.5544 H   0  0  0  0  0  0
    6.1060   35.0842   17.5962 H   0  0  0  0  0  0
    7.3765   35.4011   15.7050 H   0  0  0  0  0  0
    7.4986   33.6402   15.3722 H   0  0  0  0  0  0
    4.8574   36.1883   15.4779 H   0  0  0  0  0  0
    3.9656   35.3458   14.1658 H   0  0  0  0  0  0
    3.3206   35.0622   16.7493 H   0  0  0  0  0  0
    3.1580   33.7158   15.5714 H   0  0  0  0  0  0
    6.4403   32.3307   18.3086 H   0  0  0  0  0  0
    5.2504   32.2717   20.2598 H   0  0  0  0  0  0
    3.8619   31.4042   19.5207 H   0  0  0  0  0  0
    5.1991   29.8838   17.1172 H   0  0  0  0  0  0
    6.6289   30.8235   16.5701 H   0  0  0  0  0  0
    7.3074   28.7903   17.7973 H   0  0  0  0  0  0
    7.7959   30.2760   18.6809 H   0  0  0  0  0  0
    5.5867   28.3054   19.3385 H   0  0  0  0  0  0
    6.9821   28.8296   20.3408 H   0  0  0  0  0  0
    6.2965   30.4248   19.5871 H   0  0  0  0  0  0
    3.9307   29.4050   21.3514 H   0  0  0  0  0  0
    6.1010   28.2504   21.9042 H   0  0  0  0  0  0
    6.7100   29.7803   22.6218 H   0  0  0  0  0  0
    4.1879   28.2734   23.5288 H   0  0  0  0  0  0
    5.7759   28.2336   24.3674 H   0  0  0  0  0  0
    5.5322   31.8298   22.4005 H   0  0  0  0  0  0
    3.9132   31.9117   21.6267 H   0  0  0  0  0  0
    3.7762   31.9604   24.1348 H   0  0  0  0  0  0
    2.9504   30.5283   23.4321 H   0  0  0  0  0  0
    7.2980   31.7357   25.0052 H   0  0  0  0  0  0
    8.8691   33.6485   24.8286 H   0  0  0  0  0  0
    8.3589   35.8036   25.9470 H   0  0  0  0  0  0
    6.2104   36.1081   27.1668 H   0  0  0  0  0  0
    4.1298   35.2124   27.9567 H   0  0  0  0  0  0
    3.0277   29.9750   26.4809 H   0  0  0  0  0  0
    0.9826   30.2172   27.8627 H   0  0  0  0  0  0
    0.5185   32.3503   29.0475 H   0  0  0  0  0  0
    2.1206   34.2566   28.8905 H   0  0  0  0  0  0
  1  2  1  0  0  0
  1  6  1  0  0  0
  1 37  1  0  0  0
  1 38  1  0  0  0
  2  3  1  0  0  0
  2 39  1  0  0  0
  2 40  1  0  0  0
  3  4  1  0  0  0
  4  5  1  0  0  0
  4 41  1  0  0  0
  4 42  1  0  0  0
  5  6  1  0  0  0
  5 43  1  0  0  0
  5 44  1  0  0  0
  6  7  1  0  0  0
  7  8  2  0  0  0
  7  9  1  0  0  0
  9 10  1  0  0  0
  9 11  1  0  0  0
  9 45  1  0  0  0
 10 14  1  0  0  0
 10 46  1  0  0  0
 10 47  1  0  0  0
 11 12  1  0  0  0
 11 48  1  0  0  0
 11 49  1  0  0  0
 12 13  1  0  0  0
 12 50  1  0  0  0
 12 51  1  0  0  0
 13 14  1  0  0  0
 13 52  1  0  0  0
 13 53  1  0  0  0
 14 15  1  0  0  0
 14 54  1  0  0  0
 15 16  1  0  0  0
 15 18  1  0  0  0
 15 55  1  0  0  0
 16 17  1  0  0  0
 16 56  1  0  0  0
 16 57  1  0  0  0
 17 20  1  0  0  0
 17 58  1  0  0  0
 17 59  1  0  0  0
 18 19  1  0  0  0
 18 60  1  0  0  0
 18 61  1  0  0  0
 19 20  1  0  0  0
 19 62  1  0  0  0
 19 63  1  0  0  0
 20 21  1  0  0  0
 21 22  2  0  0  0
 21 23  1  0  0  0
 23 24  2  0  0  0
 23 32  1  0  0  0
 24 25  1  0  0  0
 24 29  1  0  0  0
 25 26  2  0  0  0
 25 64  1  0  0  0
 26 27  1  0  0  0
 26 65  1  0  0  0
 27 28  2  0  0  0
 27 66  1  0  0  0
 28 29  1  0  0  0
 28 67  1  0  0  0
 29 30  2  0  0  0
 30 31  1  0  0  0
 30 68  1  0  0  0
 31 32  2  0  0  0
 31 36  1  0  0  0
 32 33  1  0  0  0
 33 34  2  0  0  0
 33 69  1  0  0  0
 34 35  1  0  0  0
 34 70  1  0  0  0
 35 36  2  0  0  0
 35 71  1  0  0  0
 36 72  1  0  0  0
M  CHG  1  14   1
M  END
> <s_m_source_file>
../3tv5_ligand.sdf

> <i_m_source_file_index>
1

> <s_epik_input>
W0NIMl0xW0NIMl1PW0NIMl1bQ0gyXU4xQyg9TylbQ0BIXTJbQ0gyXVtOQEgrXShbQ0gyXVtDSDJdW0NIMl0yKVtDSF0zW0NIMl1bQ0gyXU4oW0NIMl1bQ0gyXTMpQyg9TyljNGMoW2NIXVtjSF1bY0hdW2NIXTUpYzVbY0hdYyhjNDYpW2NIXVtjSF1bY0hdW2NIXTY=

> <s_epik_cmdline>
J2VwaWtfYXBwJywgJy1pbWFlJywgJ2xpZ2FuZF9wcm8ubWFlJywgJy1vbWFlJywgJ2xpZ2FuZF9wcmVwLm1hZScsICctbXMnLCAnMScsICctcGgnLCAnNycsICctcGh0JywgJzAuNScsICctbnQn

> <r_epik_Ionization_Penalty>
  0.0117

> <r_epik_Ionization_Penalty_Charging>
  0.0117

> <r_epik_Ionization_Penalty_Neutral>
  0.0000

> <r_epik_State_Penalty>
  0.0090

> <r_epik_Charging_Adjusted_Penalty>
0.0207478621571625

> <i_epik_Tot_Q>
1

> <i_epik_Tot_abs_Q>
1

$$$$
