3tv8_ligand
                    3D
 Schrodinger Suite 2020-3.
 25 25  0  0  1  0            999 V2000
  -17.8010   61.5930  105.6910 C   0  0  0  0  0  0
  -16.9140   60.5440  106.3290 C   0  0  2  0  0  0
  -15.8610   61.1910  107.0540 O   0  0  0  0  0  0
  -16.3890   59.6060  105.2450 C   0  0  1  0  0  0
  -15.4800   58.6600  105.8140 O   0  0  0  0  0  0
  -17.5530   58.8870  104.5690 C   0  0  1  0  0  0
  -18.2230   58.0580  105.5260 O   0  0  0  0  0  0
  -18.5250   59.9010  103.9680 C   0  0  2  0  0  0
  -18.8440   60.9210  104.9440 N   0  3  0  0  0  0
  -19.8150   59.2410  103.4970 C   0  0  0  0  0  0
  -20.6710   60.1880  102.8460 O   0  0  0  0  0  0
  -18.2471   62.2222  106.4753 H   0  0  0  0  0  0
  -17.2001   62.2198  105.0157 H   0  0  0  0  0  0
  -17.4454   59.9611  107.0957 H   0  0  0  0  0  0
  -16.1028   61.8944  107.8644 H   0  0  0  0  0  0
  -15.7957   60.1590  104.5019 H   0  0  0  0  0  0
  -14.5807   59.0102  106.3419 H   0  0  0  0  0  0
  -17.1911   58.2025  103.7876 H   0  0  0  0  0  0
  -17.6673   57.2705  106.0561 H   0  0  0  0  0  0
  -18.0364   60.4026  103.1197 H   0  0  0  0  0  0
  -19.5196   60.4041  105.6414 H   0  0  0  0  0  0
  -19.4135   61.6610  104.3625 H   0  0  0  0  0  0
  -19.5767   58.4357  102.7866 H   0  0  0  0  0  0
  -20.3489   58.8207  104.3620 H   0  0  0  0  0  0
  -21.6445   59.8663  102.4475 H   0  0  0  0  0  0
  1  2  1  0  0  0
  1  9  1  0  0  0
  1 12  1  0  0  0
  1 13  1  0  0  0
  2  3  1  0  0  0
  2  4  1  0  0  0
  2 14  1  0  0  0
  3 15  1  0  0  0
  4  5  1  0  0  0
  4  6  1  0  0  0
  4 16  1  0  0  0
  5 17  1  0  0  0
  6  7  1  0  0  0
  6  8  1  0  0  0
  6 18  1  0  0  0
  7 19  1  0  0  0
  8  9  1  0  0  0
  8 10  1  0  0  0
  8 20  1  0  0  0
  9 21  1  0  0  0
  9 22  1  0  0  0
 10 11  1  0  0  0
 10 23  1  0  0  0
 10 24  1  0  0  0
 11 25  1  0  0  0
M  CHG  1   9   1
M  END
> <s_m_source_file>
../3tv8_ligand.sdf

> <i_m_source_file_index>
1

> <s_epik_input>
W09IXVtDQEhdMVtDSDJdW05IMitdW0NASF0oW0NIMl1bT0hdKVtDQEhdKFtPSF0pW0NAQEhdMVtPSF0=

> <s_epik_cmdline>
J2VwaWtfYXBwJywgJy1pbWFlJywgJ2xpZ2FuZF9wcm8ubWFlJywgJy1vbWFlJywgJ2xpZ2FuZF9wcmVwLm1hZScsICctbXMnLCAnMScsICctcGgnLCAnNycsICctcGh0JywgJzAuNScsICctbnQn

> <r_lp_tautomer_probability>
1

> <r_epik_Ionization_Penalty>
  0.0034

> <r_epik_Ionization_Penalty_Charging>
  0.0034

> <r_epik_Ionization_Penalty_Neutral>
  0.0000

> <r_epik_State_Penalty>
 -0.0000

> <r_epik_Charging_Adjusted_Penalty>
0.00338677877254832

> <i_epik_Tot_Q>
1

> <i_epik_Tot_abs_Q>
1

$$$$
