3tvl_ligand
                    3D
 Schrodinger Suite 2020-3.
 13 12  0  0  1  0            999 V2000
   16.5160    4.1180   19.6050 P   0  0  0  0  0  0
   15.5300    5.2310   19.3400 O   0  5  0  0  0  0
   17.0850    4.1150   21.0070 O   0  5  0  0  0  0
   17.5160    3.9730   18.4940 O   0  0  0  0  0  0
   16.0490    1.2920   20.1200 P   0  0  0  0  0  0
   16.3640    1.4390   21.6090 O   0  5  0  0  0  0
   17.0440    0.6040   19.2050 O   0  0  0  0  0  0
   15.6430    2.7530   19.5060 O   0  0  0  0  0  0
   14.4850   -0.9910   20.6590 P   0  0  0  0  0  0
   14.6660   -0.6710   22.1330 O   0  5  0  0  0  0
   15.5410   -1.8940   20.0670 O   0  0  0  0  0  0
   14.6880    0.4370   19.9410 O   0  0  0  0  0  0
   13.0840   -1.4050   20.2660 O   0  5  0  0  0  0
  1  2  1  0  0  0
  1  3  1  0  0  0
  1  4  2  0  0  0
  1  8  1  0  0  0
  5  6  1  0  0  0
  5  7  2  0  0  0
  5  8  1  0  0  0
  5 12  1  0  0  0
  9 10  1  0  0  0
  9 11  2  0  0  0
  9 12  1  0  0  0
  9 13  1  0  0  0
M  CHG  5   2  -1   3  -1   6  -1  10  -1  13  -1
M  END
> <s_m_source_file>
../3tvl_ligand.sdf

> <i_m_source_file_index>
1

> <s_epik_input>
W09IXVAoPU8pKFtPSF0pT1AoPU8pKFtPSF0pT1AoPU8pKFtPSF0pW09IXQ==

> <s_epik_cmdline>
J2VwaWtfYXBwJywgJy1pbWFlJywgJ2xpZ2FuZF9wcm8ubWFlJywgJy1vbWFlJywgJ2xpZ2FuZF9wcmVwLm1hZScsICctbXMnLCAnMScsICctcGgnLCAnNycsICctcGh0JywgJzAuNScsICctbnQn

> <r_epik_Ionization_Penalty>
  0.1850

> <r_epik_Ionization_Penalty_Charging>
  0.1850

> <r_epik_Ionization_Penalty_Neutral>
  0.0000

> <r_epik_State_Penalty>
  0.1781

> <r_epik_Charging_Adjusted_Penalty>
0.363129941793699

> <i_epik_Tot_Q>
-5

> <i_epik_Tot_abs_Q>
5

$$$$
