3tvw_ligand
                    3D
 Schrodinger Suite 2020-3.
 54 58  0  0  1  0            999 V2000
    6.8730   32.4740   17.6430 C   0  0  0  0  0  0
    7.7790   33.4210   17.1500 C   0  0  0  0  0  0
    7.3960   34.2550   16.1030 C   0  0  0  0  0  0
    6.1180   34.1390   15.5490 C   0  0  0  0  0  0
    5.2070   33.1950   16.0320 C   0  0  0  0  0  0
    5.5750   32.3380   17.0780 C   0  0  0  0  0  0
    4.6780   31.4160   17.5490 O   0  0  0  0  0  0
    5.3120   30.2280   18.0390 C   0  0  0  0  0  0
    6.5210   30.4640   18.9220 C   0  0  0  0  0  0
    7.2780   31.5560   18.7340 C   0  0  0  0  0  0
    6.8970   29.4710   19.9920 C   0  0  0  0  0  0
    5.9450   29.4850   21.1100 N   0  0  0  0  0  0
    6.4660   28.5310   22.1030 C   0  0  0  0  0  0
    5.4300   28.4050   23.2250 C   0  0  0  0  0  0
    5.2870   29.7340   23.8400 N   0  0  0  0  0  0
    4.9960   30.8720   22.9390 C   0  0  0  0  0  0
    5.9420   30.8300   21.7230 C   0  0  0  0  0  0
    5.4340   29.8970   25.1770 C   0  0  0  0  0  0
    5.6460   28.9360   25.8940 O   0  0  0  0  0  0
    5.2800   31.2260   25.8160 C   0  0  0  0  0  0
    6.2790   32.2190   25.7600 C   0  0  0  0  0  0
    6.0630   33.4460   26.3700 C   0  0  0  0  0  0
    4.8700   33.7050   27.0380 C   0  0  0  0  0  0
    3.8790   32.7160   27.0960 C   0  0  0  0  0  0
    4.0790   31.4910   26.4700 C   0  0  0  0  0  0
    2.5860   32.9050   27.7960 C   0  0  0  0  0  0
    1.9640   34.0470   28.0240 N   0  0  0  0  0  0
    0.7520   33.7490   28.6760 N   0  3  0  0  0  0
    0.6670   32.4070   28.8460 C   0  0  0  0  0  0
    1.7830   31.8570   28.3140 C   0  0  0  0  0  0
    8.7761   33.5046   17.5824 H   0  0  0  0  0  0
    8.0927   34.9983   15.7154 H   0  0  0  0  0  0
    5.8273   34.7944   14.7280 H   0  0  0  0  0  0
    4.2108   33.1255   15.5952 H   0  0  0  0  0  0
    4.5933   29.6491   18.6376 H   0  0  0  0  0  0
    5.6564   29.6193   17.1900 H   0  0  0  0  0  0
    8.1532   31.7356   19.3756 H   0  0  0  0  0  0
    6.9107   28.4580   19.5636 H   0  0  0  0  0  0
    7.8945   29.7161   20.3856 H   0  0  0  0  0  0
    6.6281   27.5544   21.6234 H   0  0  0  0  0  0
    7.4192   28.9045   22.5054 H   0  0  0  0  0  0
    4.4711   28.0699   22.8027 H   0  0  0  0  0  0
    5.7801   27.6721   23.9668 H   0  0  0  0  0  0
    3.9542   30.8077   22.5918 H   0  0  0  0  0  0
    5.1437   31.8170   23.4823 H   0  0  0  0  0  0
    6.9595   31.0838   22.0551 H   0  0  0  0  0  0
    5.6027   31.5696   20.9828 H   0  0  0  0  0  0
    7.2167   32.0236   25.2398 H   0  0  0  0  0  0
    6.8348   34.2144   26.3257 H   0  0  0  0  0  0
    4.7073   34.6722   27.5136 H   0  0  0  0  0  0
    3.2936   30.7355   26.4910 H   0  0  0  0  0  0
   -0.0976   31.7637   29.3059 H   0  0  0  0  0  0
    1.9256   30.7666   28.3415 H   0  0  0  0  0  0
    0.0632   34.5603   28.9543 H   0  0  0  0  0  0
  1  2  2  0  0  0
  1  6  1  0  0  0
  1 10  1  0  0  0
  2  3  1  0  0  0
  2 31  1  0  0  0
  3  4  2  0  0  0
  3 32  1  0  0  0
  4  5  1  0  0  0
  4 33  1  0  0  0
  5  6  2  0  0  0
  5 34  1  0  0  0
  6  7  1  0  0  0
  7  8  1  0  0  0
  8  9  1  0  0  0
  8 35  1  0  0  0
  8 36  1  0  0  0
  9 10  2  0  0  0
  9 11  1  0  0  0
 10 37  1  0  0  0
 11 12  1  0  0  0
 11 38  1  0  0  0
 11 39  1  0  0  0
 12 13  1  0  0  0
 12 17  1  0  0  0
 13 14  1  0  0  0
 13 40  1  0  0  0
 13 41  1  0  0  0
 14 15  1  0  0  0
 14 42  1  0  0  0
 14 43  1  0  0  0
 15 16  1  0  0  0
 15 18  1  0  0  0
 16 17  1  0  0  0
 16 44  1  0  0  0
 16 45  1  0  0  0
 17 46  1  0  0  0
 17 47  1  0  0  0
 18 19  2  0  0  0
 18 20  1  0  0  0
 20 21  2  0  0  0
 20 25  1  0  0  0
 21 22  1  0  0  0
 21 48  1  0  0  0
 22 23  2  0  0  0
 22 49  1  0  0  0
 23 24  1  0  0  0
 23 50  1  0  0  0
 24 25  2  0  0  0
 24 26  1  0  0  0
 25 51  1  0  0  0
 26 27  2  0  0  0
 26 30  1  0  0  0
 27 28  1  0  0  0
 28 29  1  0  0  0
 28 54  1  0  0  0
 29 30  2  0  0  0
 29 52  1  0  0  0
 30 53  1  0  0  0
M  CHG  1  28   1
M  END
> <s_m_source_file>
../3tvw_ligand.sdf

> <i_m_source_file_index>
1

> <s_epik_input>
W2NIXTFbY0hdW2NIXVtjSF1jKGMxMilPW0NIMl1DKD1bQ0hdMilbQ0gyXVtOSCtdM1tDSDJdW0NIMl1OKFtDSDJdW0NIMl0zKUMoPU8pYzRbY0hdW2NIXVtjSF1jKFtjSF00KS1jNW5bbkhdW2NIXVtjSF01

> <s_epik_cmdline>
J2VwaWtfYXBwJywgJy1pbWFlJywgJ2xpZ2FuZF9wcm8ubWFlJywgJy1vbWFlJywgJ2xpZ2FuZF9wcmVwLm1hZScsICctbXMnLCAnMScsICctcGgnLCAnNycsICctcGh0JywgJzAuNScsICctbnQn

> <r_epik_Ionization_Penalty>
  0.3288

> <r_epik_Ionization_Penalty_Charging>
  0.0000

> <r_epik_Ionization_Penalty_Neutral>
  0.3288

> <r_epik_State_Penalty>
  0.3237

> <r_epik_Charging_Adjusted_Penalty>
0.323724134723638

> <i_epik_Tot_Q>
1

> <i_epik_Tot_abs_Q>
1

> <s_epik_Chemistry_Notes>
This compound has an imine and may undergo hydrolysis.

$$$$
