3tvx_ligand
                    3D
 Schrodinger Suite 2020-3.
 38 39  0  0  1  0            999 V2000
   39.9500   15.7000  -28.6970 C   0  0  0  0  0  0
   39.9740   15.3860  -27.2170 C   0  0  0  0  0  0
   40.0460   14.2180  -26.8610 O   0  0  0  0  0  0
   39.9090   16.5140  -26.2080 C   0  0  0  0  0  0
   39.7630   16.0360  -24.7610 C   0  0  0  0  0  0
   41.1300   15.8710  -24.0980 C   0  0  0  0  0  0
   41.7740   17.2370  -23.8400 C   0  0  0  0  0  0
   43.2350   17.1890  -24.0050 N   0  0  0  0  0  0
   43.9830   16.9800  -22.8900 C   0  0  0  0  0  0
   43.4590   16.8300  -21.7970 O   0  0  0  0  0  0
   45.3720   16.9450  -23.0650 C   0  0  0  0  0  0
   46.4020   16.7550  -22.1950 N   0  0  0  0  0  0
   46.3660   16.5280  -20.7480 C   0  0  0  0  0  0
   47.5530   16.8080  -22.9050 C   0  0  0  0  0  0
   47.2690   17.0230  -24.2070 N   0  0  0  0  0  0
   45.9260   17.1190  -24.3400 C   0  0  0  0  0  0
   45.1490   17.3300  -25.4320 N   0  0  0  0  0  0
   45.7430   17.5140  -26.7580 C   0  0  0  0  0  0
   43.8030   17.3600  -25.2340 C   0  0  0  0  0  0
   43.0930   17.5460  -26.2150 O   0  0  0  0  0  0
   40.0048   14.7635  -29.2714 H   0  0  0  0  0  0
   40.8104   16.3367  -28.9507 H   0  0  0  0  0  0
   39.0174   16.2280  -28.9447 H   0  0  0  0  0  0
   40.8316   17.1104  -26.2648 H   0  0  0  0  0  0
   39.0435   17.1554  -26.4303 H   0  0  0  0  0  0
   39.1800   16.7726  -24.1886 H   0  0  0  0  0  0
   39.2443   15.0661  -24.7458 H   0  0  0  0  0  0
   41.0112   15.3467  -23.1383 H   0  0  0  0  0  0
   41.7887   15.2857  -24.7565 H   0  0  0  0  0  0
   41.3692   17.9732  -24.5501 H   0  0  0  0  0  0
   41.5519   17.5588  -22.8118 H   0  0  0  0  0  0
   45.3215   16.5272  -20.4029 H   0  0  0  0  0  0
   46.9204   17.3292  -20.2373 H   0  0  0  0  0  0
   46.8291   15.5572  -20.5175 H   0  0  0  0  0  0
   48.5544   16.6946  -22.4897 H   0  0  0  0  0  0
   46.8385   17.4516  -26.6809 H   0  0  0  0  0  0
   45.4588   18.5004  -27.1534 H   0  0  0  0  0  0
   45.3778   16.7282  -27.4356 H   0  0  0  0  0  0
  1  2  1  0  0  0
  1 21  1  0  0  0
  1 22  1  0  0  0
  1 23  1  0  0  0
  2  3  2  0  0  0
  2  4  1  0  0  0
  4  5  1  0  0  0
  4 24  1  0  0  0
  4 25  1  0  0  0
  5  6  1  0  0  0
  5 26  1  0  0  0
  5 27  1  0  0  0
  6  7  1  0  0  0
  6 28  1  0  0  0
  6 29  1  0  0  0
  7  8  1  0  0  0
  7 30  1  0  0  0
  7 31  1  0  0  0
  8  9  1  0  0  0
  8 19  1  0  0  0
  9 10  2  0  0  0
  9 11  1  0  0  0
 11 12  1  0  0  0
 11 16  2  0  0  0
 12 13  1  0  0  0
 12 14  1  0  0  0
 13 32  1  0  0  0
 13 33  1  0  0  0
 13 34  1  0  0  0
 14 15  2  0  0  0
 14 35  1  0  0  0
 15 16  1  0  0  0
 16 17  1  0  0  0
 17 18  1  0  0  0
 17 19  1  0  0  0
 18 36  1  0  0  0
 18 37  1  0  0  0
 18 38  1  0  0  0
 19 20  2  0  0  0
M  END
> <s_m_source_file>
../3tvx_ligand.sdf

> <i_m_source_file_index>
1

> <s_epik_input>
W0NIM11DKD1PKVtDSDJdW0NIMl1bQ0gyXVtDSDJdbihjMT1PKWMoPU8pbihbQ0gzXSljKGMxMiluW2NIXW4yW0NIM10=

> <s_epik_cmdline>
J2VwaWtfYXBwJywgJy1pbWFlJywgJ2xpZ2FuZF9wcm8ubWFlJywgJy1vbWFlJywgJ2xpZ2FuZF9wcmVwLm1hZScsICctbXMnLCAnMScsICctcGgnLCAnNycsICctcGh0JywgJzAuNScsICctbnQn

> <r_lp_tautomer_probability>
1

> <r_epik_Ionization_Penalty>
  0.0000

> <r_epik_Ionization_Penalty_Charging>
  0.0000

> <r_epik_Ionization_Penalty_Neutral>
  0.0000

> <r_epik_State_Penalty>
 -0.0000

> <r_epik_Charging_Adjusted_Penalty>
8.07543337072878e-09

> <i_epik_Tot_Q>
0

> <i_epik_Tot_abs_Q>
0

$$$$
