3twd_ligand
                    3D
 Schrodinger Suite 2020-3.
 59 61  0  0  1  0            999 V2000
   23.8730  -26.9290  -15.6780 C   0  0  0  0  0  0
   24.7420  -25.8120  -15.4050 O   0  0  0  0  0  0
   25.3060  -25.2360  -16.5180 C   0  0  0  0  0  0
   24.9900  -25.6330  -17.8100 C   0  0  0  0  0  0
   25.6060  -24.9990  -18.8980 C   0  0  0  0  0  0
   26.5600  -23.9880  -18.6800 C   0  0  0  0  0  0
   26.8830  -23.5880  -17.3840 C   0  0  0  0  0  0
   26.2550  -24.2110  -16.3070 C   0  0  0  0  0  0
   26.5350  -23.9000  -14.9660 N   0  0  0  0  0  0
   27.5510  -23.1750  -14.4460 C   0  0  0  0  0  0
   28.4100  -22.6220  -15.1190 O   0  0  0  0  0  0
   27.5440  -23.1200  -12.9330 C   0  0  0  0  0  0
   27.9470  -21.7550  -12.3920 C   0  0  0  0  0  0
   27.9440  -21.9340  -10.8930 C   0  0  0  0  0  0
   28.8140  -22.5570  -10.3120 O   0  0  0  0  0  0
   26.9580  -21.3860  -10.2020 O   0  5  0  0  0  0
   27.3370  -23.1420  -20.0360 S   0  0  0  0  0  0
   27.9580  -24.0910  -20.8630 O   0  0  0  0  0  0
   27.9950  -22.0560  -19.4150 O   0  0  0  0  0  0
   26.0010  -22.5020  -20.8190 N   0  0  0  0  0  0
   24.9040  -21.9840  -20.0840 C   0  0  0  0  0  0
   23.6350  -22.5840  -20.2030 C   0  0  0  0  0  0
   22.5540  -22.0940  -19.4640 C   0  0  0  0  0  0
   22.7340  -21.0070  -18.6110 C   0  0  0  0  0  0
   23.9950  -20.4030  -18.4790 C   0  0  0  0  0  0
   25.0700  -20.8800  -19.2220 C   0  0  0  0  0  0
   26.0160  -22.5440  -22.2280 C   0  0  0  0  0  0
   26.5180  -21.4590  -22.9440 C   0  0  0  0  0  0
   26.5610  -21.5060  -24.3330 C   0  0  0  0  0  0
   26.1130  -22.6380  -25.0020 C   0  0  0  0  0  0
   25.6200  -23.7350  -24.2960 C   0  0  0  0  0  0
   25.5700  -23.6840  -22.9100 C   0  0  0  0  0  0
   26.1700  -22.6740  -26.3940 N   0  0  0  0  0  0
   25.3230  -25.3540  -20.1970 O   0  0  0  0  0  0
   24.2670  -26.3210  -20.3770 C   0  0  0  0  0  0
   23.4717  -27.3211  -14.7319 H   0  0  0  0  0  0
   24.4414  -27.7190  -16.1906 H   0  0  0  0  0  0
   23.0428  -26.5993  -16.3199 H   0  0  0  0  0  0
   24.2679  -26.4322  -17.9774 H   0  0  0  0  0  0
   27.6162  -22.7993  -17.2155 H   0  0  0  0  0  0
   25.8738  -24.2662  -14.1668 H   0  0  0  0  0  0
   26.5326  -23.3436  -12.5627 H   0  0  0  0  0  0
   28.2523  -23.8620  -12.5358 H   0  0  0  0  0  0
   28.9438  -21.4891  -12.7736 H   0  0  0  0  0  0
   27.2161  -21.0007  -12.7188 H   0  0  0  0  0  0
   23.4955  -23.4324  -20.8729 H   0  0  0  0  0  0
   21.5733  -22.5609  -19.5549 H   0  0  0  0  0  0
   21.8884  -20.6220  -18.0410 H   0  0  0  0  0  0
   24.1309  -19.5637  -17.7970 H   0  0  0  0  0  0
   26.0444  -20.3987  -19.1377 H   0  0  0  0  0  0
   26.8763  -20.5752  -22.4162 H   0  0  0  0  0  0
   26.9457  -20.6557  -24.8962 H   0  0  0  0  0  0
   25.2776  -24.6231  -24.8272 H   0  0  0  0  0  0
   25.1821  -24.5345  -22.3494 H   0  0  0  0  0  0
   26.5588  -21.8089  -26.9511 H   0  0  0  0  0  0
   25.8262  -23.5676  -26.9356 H   0  0  0  0  0  0
   24.1340  -26.5232  -21.4500 H   0  0  0  0  0  0
   23.3302  -25.9228  -19.9601 H   0  0  0  0  0  0
   24.5319  -27.2540  -19.8581 H   0  0  0  0  0  0
  1  2  1  0  0  0
  1 36  1  0  0  0
  1 37  1  0  0  0
  1 38  1  0  0  0
  2  3  1  0  0  0
  3  4  2  0  0  0
  3  8  1  0  0  0
  4  5  1  0  0  0
  4 39  1  0  0  0
  5  6  2  0  0  0
  5 34  1  0  0  0
  6  7  1  0  0  0
  6 17  1  0  0  0
  7  8  2  0  0  0
  7 40  1  0  0  0
  8  9  1  0  0  0
  9 10  1  0  0  0
  9 41  1  0  0  0
 10 11  2  0  0  0
 10 12  1  0  0  0
 12 13  1  0  0  0
 12 42  1  0  0  0
 12 43  1  0  0  0
 13 14  1  0  0  0
 13 44  1  0  0  0
 13 45  1  0  0  0
 14 15  2  0  0  0
 14 16  1  0  0  0
 17 18  2  0  0  0
 17 19  2  0  0  0
 17 20  1  0  0  0
 20 21  1  0  0  0
 20 27  1  0  0  0
 21 22  2  0  0  0
 21 26  1  0  0  0
 22 23  1  0  0  0
 22 46  1  0  0  0
 23 24  2  0  0  0
 23 47  1  0  0  0
 24 25  1  0  0  0
 24 48  1  0  0  0
 25 26  2  0  0  0
 25 49  1  0  0  0
 26 50  1  0  0  0
 27 28  2  0  0  0
 27 32  1  0  0  0
 28 29  1  0  0  0
 28 51  1  0  0  0
 29 30  2  0  0  0
 29 52  1  0  0  0
 30 31  1  0  0  0
 30 33  1  0  0  0
 31 32  2  0  0  0
 31 53  1  0  0  0
 32 54  1  0  0  0
 33 55  1  0  0  0
 33 56  1  0  0  0
 34 35  1  0  0  0
 35 57  1  0  0  0
 35 58  1  0  0  0
 35 59  1  0  0  0
M  CHG  1  16  -1
M  END
> <s_m_source_file>
../3twd_ligand.sdf

> <i_m_source_file_index>
1

> <s_epik_input>
W2NIXTFbY0hdW2NIXVtjSF1bY0hdYzFOKGMyW2NIXVtjSF1jKFtOSDJdKVtjSF1bY0hdMilTKD1PKSg9TyljKGMoT1tDSDNdKVtjSF1jM09bQ0gzXSlbY0hdYzNbTkhdQyg9TylbQ0gyXVtDSDJdQyg9TylbT0hd

> <s_epik_cmdline>
J2VwaWtfYXBwJywgJy1pbWFlJywgJ2xpZ2FuZF9wcm8ubWFlJywgJy1vbWFlJywgJ2xpZ2FuZF9wcmVwLm1hZScsICctbXMnLCAnMScsICctcGgnLCAnNycsICctcGh0JywgJzAuNScsICctbnQn

> <r_lp_tautomer_probability>
1

> <r_epik_Ionization_Penalty>
  0.0046

> <r_epik_Ionization_Penalty_Charging>
  0.0043

> <r_epik_Ionization_Penalty_Neutral>
  0.0002

> <r_epik_State_Penalty>
 -0.0000

> <r_epik_Charging_Adjusted_Penalty>
0.00433598534199872

> <i_epik_Tot_Q>
-1

> <i_epik_Tot_abs_Q>
1

$$$$
