3twr_ligand
                    3D
 Schrodinger Suite 2020-3.
205207  0  0  1  0            999 V2000
  -27.2430  -17.4040   39.3500 N   0  3  0  0  0  0
  -27.3750  -17.2770   37.8990 C   0  0  2  0  0  0
  -27.0980  -18.5890   37.1770 C   0  0  0  0  0  0
  -26.0950  -19.2550   37.4320 O   0  0  0  0  0  0
  -26.4520  -16.1850   37.3550 C   0  0  0  0  0  0
  -26.4800  -15.9560   35.8440 C   0  0  0  0  0  0
  -27.8980  -15.8060   35.3410 C   0  0  0  0  0  0
  -25.6700  -14.7300   35.4880 C   0  0  0  0  0  0
  -27.9990  -18.9500   36.2720 N   0  0  0  0  0  0
  -27.8420  -20.1460   35.4620 C   0  0  2  0  0  0
  -26.6890  -19.9790   34.4780 C   0  0  0  0  0  0
  -26.6160  -18.9750   33.7670 O   0  0  0  0  0  0
  -29.1370  -20.4210   34.6870 C   0  0  0  0  0  0
  -29.0520  -21.5770   33.6980 C   0  0  0  0  0  0
  -28.9670  -22.9330   34.3800 C   0  0  0  0  0  0
  -29.8030  -23.2740   35.2190 O   0  0  0  0  0  0
  -27.9570  -23.7170   34.0160 N   0  0  0  0  0  0
  -25.7860  -20.9550   34.4380 N   0  0  0  0  0  0
  -24.8180  -21.0240   33.3490 C   0  0  2  0  0  0
  -25.5070  -21.6230   32.1250 C   0  0  0  0  0  0
  -25.7010  -22.8350   32.0440 O   0  0  0  0  0  0
  -23.6020  -21.8750   33.7280 C   0  0  0  0  0  0
  -22.5150  -21.9070   32.6430 C   0  0  0  0  0  0
  -21.2810  -22.7100   33.0580 C   0  0  0  0  0  0
  -20.2740  -22.7280   31.9920 N   0  0  0  0  0  0
  -20.1750  -23.6660   31.0560 C   0  0  0  0  0  0
  -19.2280  -23.5850   30.1290 N   0  0  0  0  0  0
  -21.0220  -24.6880   31.0340 N   0  0  0  0  0  0
  -25.8830  -20.7690   31.1790 N   0  0  0  0  0  0
  -26.5510  -21.2250   29.9610 C   0  0  2  0  0  0
  -25.5400  -21.8170   28.9830 C   0  0  0  0  0  0
  -24.3520  -21.4780   29.0310 O   0  0  0  0  0  0
  -27.3060  -20.0610   29.3110 C   0  0  0  0  0  0
  -28.3540  -19.6070   30.1470 O   0  0  0  0  0  0
  -25.9950  -22.7000   28.0820 N   0  0  0  0  0  0
  -25.0310  -23.3340   27.1740 C   0  0  2  0  0  0
  -24.5700  -22.4030   26.0620 C   0  0  0  0  0  0
  -25.2150  -21.4020   25.7670 O   0  0  0  0  0  0
  -25.8280  -24.4930   26.5810 C   0  0  0  0  0  0
  -27.2310  -24.0020   26.5920 C   0  0  0  0  0  0
  -27.3660  -23.1960   27.8630 C   0  0  0  0  0  0
  -23.4320  -22.7320   25.4470 N   0  0  0  0  0  0
  -22.9450  -21.9300   24.3220 C   0  0  2  0  0  0
  -23.8910  -22.0250   23.1360 C   0  0  0  0  0  0
  -24.5950  -23.0370   22.9920 O   0  0  0  0  0  0
  -21.6000  -22.5750   23.9690 C   0  0  0  0  0  0
  -21.5090  -23.8280   24.7270 C   0  0  0  0  0  0
  -22.5070  -23.8090   25.8360 C   0  0  0  0  0  0
  -23.9260  -20.9910   22.3050 N   0  0  0  0  0  0
  -24.7310  -21.0820   21.0940 C   0  0  2  0  0  0
  -24.1480  -22.1810   20.2180 C   0  0  0  0  0  0
  -22.9290  -22.2580   20.0280 O   0  0  0  0  0  0
  -24.7780  -19.7460   20.3640 C   0  0  0  0  0  0
  -25.7650  -18.7670   20.9980 C   0  0  0  0  0  0
  -26.8460  -19.2210   21.4490 O   0  0  0  0  0  0
  -25.4750  -17.5650   21.0420 O   0  0  0  0  0  0
  -25.0200  -23.0340   19.6910 N   0  0  0  0  0  0
  -24.5860  -24.1270   18.8410 C   0  0  0  0  0  0
  -25.3670  -25.3940   19.1230 C   0  0  0  0  0  0
  -26.2820  -25.4120   19.9610 O   0  0  0  0  0  0
  -25.0150  -26.4590   18.4080 N   0  0  0  0  0  0
  -25.5650  -27.7890   18.6500 C   0  0  2  0  0  0
  -24.6060  -28.7870   18.0270 C   0  0  0  0  0  0
  -23.7990  -28.4340   17.1600 O   0  0  0  0  0  0
  -26.9660  -27.9430   18.0540 C   0  0  0  0  0  0
  -27.0180  -27.7980   16.5350 C   0  0  0  0  0  0
  -28.4350  -27.6010   16.0160 C   0  0  0  0  0  0
  -29.1990  -26.7870   16.5510 O   0  0  0  0  0  0
  -28.8040  -28.3550   14.9760 N   0  0  0  0  0  0
  -24.6940  -30.0380   18.4600 N   0  0  0  0  0  0
  -23.7160  -31.0430   18.0420 C   0  0  2  0  0  0
  -24.0160  -31.6640   16.6740 C   0  0  0  0  0  0
  -23.0960  -31.9810   15.9180 O   0  0  0  0  0  0
  -23.6080  -32.1470   19.0960 C   0  0  0  0  0  0
  -22.6550  -33.1230   18.7140 O   0  0  0  0  0  0
  -25.2960  -31.8650   16.3710 N   0  0  0  0  0  0
  -25.6960  -32.4510   15.0920 C   0  0  2  0  0  0
  -26.3260  -31.4000   14.1900 C   0  0  0  0  0  0
  -27.2530  -30.6920   14.6080 O   0  0  0  0  0  0
  -26.6990  -33.5900   15.3030 C   0  0  0  0  0  0
  -26.0720  -34.9490   15.4710 C   0  0  0  0  0  0
  -24.7280  -35.0860   15.7750 C   0  0  0  0  0  0
  -26.8360  -36.0950   15.2950 C   0  0  0  0  0  0
  -24.1630  -36.3530   15.9080 C   0  0  0  0  0  0
  -26.2810  -37.3510   15.4320 C   0  0  0  0  0  0
  -24.9400  -37.4760   15.7370 C   0  0  0  0  0  0
  -25.8200  -31.3050   12.9600 N   0  0  0  0  0  0
  -26.3880  -30.4200   11.9430 C   0  0  2  0  0  0
  -27.8010  -30.8290   11.5450 C   0  0  0  0  0  0
  -28.5910  -29.9810   11.1280 O   0  0  0  0  0  0
  -25.4880  -30.3940   10.6970 C   0  0  0  0  0  0
  -24.4330  -29.2910   10.7070 C   0  0  0  0  0  0
  -23.3200  -29.5850    9.7080 C   0  0  0  0  0  0
  -22.5220  -30.7100   10.1850 N   0  0  0  0  0  0
  -21.7960  -31.5130    9.4200 C   0  0  0  0  0  0
  -21.1260  -32.5110    9.9900 N   0  0  0  0  0  0
  -21.7440  -31.3410    8.1040 N   0  0  0  0  0  0
  -28.1150  -32.1190   11.6550 N   0  0  0  0  0  0
  -29.4680  -32.6130   11.3360 C   0  0  1  0  0  0
  -29.4750  -34.1280   11.0510 C   0  0  0  0  0  0
  -29.0460  -34.8500   12.2150 O   0  0  0  0  0  0
  -29.8680  -31.7220   13.5680 N   0  0  0  0  0  0
  -30.4130  -32.3100   12.5040 C   0  0  0  0  0  0
  -31.6000  -32.6270   12.4380 O   0  0  0  0  0  0
  -27.9168  -18.1947   39.7117 H   0  0  0  0  0  0
  -27.5086  -16.4492   39.8273 H   0  0  0  0  0  0
  -26.2043  -17.6637   39.6023 H   0  0  0  0  0  0
  -28.4300  -17.0022   37.7525 H   0  0  0  0  0  0
  -26.7188  -15.2195   37.8095 H   0  0  0  0  0  0
  -25.4085  -16.4304   37.6016 H   0  0  0  0  0  0
  -26.0373  -16.8314   35.3464 H   0  0  0  0  0  0
  -28.4776  -16.7028   35.6053 H   0  0  0  0  0  0
  -27.8883  -15.6847   34.2478 H   0  0  0  0  0  0
  -28.3596  -14.9214   35.8040 H   0  0  0  0  0  0
  -24.6412  -14.8500   35.8584 H   0  0  0  0  0  0
  -26.1254  -13.8424   35.9514 H   0  0  0  0  0  0
  -25.6541  -14.6057   34.3952 H   0  0  0  0  0  0
  -28.8860  -18.3120   36.1447 H   0  0  0  0  0  0
  -27.6189  -20.9577   36.1700 H   0  0  0  0  0  0
  -29.9428  -20.6658   35.3946 H   0  0  0  0  0  0
  -29.4154  -19.5273   34.1092 H   0  0  0  0  0  0
  -29.9469  -21.5789   33.0584 H   0  0  0  0  0  0
  -28.1547  -21.4594   33.0727 H   0  0  0  0  0  0
  -27.2349  -23.3695   33.2625 H   0  0  0  0  0  0
  -27.8434  -24.7133   34.4683 H   0  0  0  0  0  0
  -25.7729  -21.7137   35.2344 H   0  0  0  0  0  0
  -24.4880  -19.9907   33.1664 H   0  0  0  0  0  0
  -23.1429  -21.4716   34.6426 H   0  0  0  0  0  0
  -23.9214  -22.9126   33.9051 H   0  0  0  0  0  0
  -22.9216  -22.3666   31.7301 H   0  0  0  0  0  0
  -22.1872  -20.8805   32.4220 H   0  0  0  0  0  0
  -20.8333  -22.2569   33.9548 H   0  0  0  0  0  0
  -21.5753  -23.7466   33.2790 H   0  0  0  0  0  0
  -19.5269  -21.9232   31.9275 H   0  0  0  0  0  0
  -18.5207  -22.7426   30.1375 H   0  0  0  0  0  0
  -19.1507  -24.3603   29.3525 H   0  0  0  0  0  0
  -21.8105  -24.7653   31.7970 H   0  0  0  0  0  0
  -25.6814  -19.6979   31.3277 H   0  0  0  0  0  0
  -27.2560  -22.0093   30.2738 H   0  0  0  0  0  0
  -26.6109  -19.2274   29.1321 H   0  0  0  0  0  0
  -27.7360  -20.3916   28.3540 H   0  0  0  0  0  0
  -28.9936  -18.7726   29.8233 H   0  0  0  0  0  0
  -24.1248  -23.6170   27.7296 H   0  0  0  0  0  0
  -25.4686  -24.7020   25.5626 H   0  0  0  0  0  0
  -25.6956  -25.3875   27.2074 H   0  0  0  0  0  0
  -27.4092  -23.3813   25.7015 H   0  0  0  0  0  0
  -27.9197  -24.8597   26.5849 H   0  0  0  0  0  0
  -27.6762  -23.8079   28.7228 H   0  0  0  0  0  0
  -28.0516  -22.3427   27.7538 H   0  0  0  0  0  0
  -22.8845  -20.8692   24.6068 H   0  0  0  0  0  0
  -21.5607  -22.7727   22.8876 H   0  0  0  0  0  0
  -20.7824  -21.8937   24.2471 H   0  0  0  0  0  0
  -21.7178  -24.6766   24.0590 H   0  0  0  0  0  0
  -20.4968  -23.9310   25.1451 H   0  0  0  0  0  0
  -22.0498  -23.5668   26.8067 H   0  0  0  0  0  0
  -23.0605  -24.7561   25.9175 H   0  0  0  0  0  0
  -23.3579  -20.0740   22.5202 H   0  0  0  0  0  0
  -25.7583  -21.3333   21.3966 H   0  0  0  0  0  0
  -23.7809  -19.2820   20.3840 H   0  0  0  0  0  0
  -25.0858  -19.9089   19.3206 H   0  0  0  0  0  0
  -27.5774  -18.5419   21.9114 H   0  0  0  0  0  0
  -26.0894  -22.8991   19.9104 H   0  0  0  0  0  0
  -24.7362  -23.8532   17.7863 H   0  0  0  0  0  0
  -23.5194  -24.3288   19.0191 H   0  0  0  0  0  0
  -24.2772  -26.3064   17.6065 H   0  0  0  0  0  0
  -25.6455  -27.9217   19.7390 H   0  0  0  0  0  0
  -27.3602  -28.9408   18.2971 H   0  0  0  0  0  0
  -27.6302  -27.1738   18.4750 H   0  0  0  0  0  0
  -26.4213  -26.9259   16.2293 H   0  0  0  0  0  0
  -26.6088  -28.7049   16.0659 H   0  0  0  0  0  0
  -28.0916  -29.0658   14.5317 H   0  0  0  0  0  0
  -29.8201  -28.2648   14.5643 H   0  0  0  0  0  0
  -25.5126  -30.3166   19.1399 H   0  0  0  0  0  0
  -22.7818  -30.4681   17.9590 H   0  0  0  0  0  0
  -23.2979  -31.7084   20.0559 H   0  0  0  0  0  0
  -24.5857  -32.6368   19.2155 H   0  0  0  0  0  0
  -22.4593  -33.9860   19.3674 H   0  0  0  0  0  0
  -26.0608  -31.5794   17.1083 H   0  0  0  0  0  0
  -24.7632  -32.8278   14.6471 H   0  0  0  0  0  0
  -27.2895  -33.3951   16.2104 H   0  0  0  0  0  0
  -27.3711  -33.6523   14.4345 H   0  0  0  0  0  0
  -24.1093  -34.1990   15.9109 H   0  0  0  0  0  0
  -27.8926  -36.0009   15.0442 H   0  0  0  0  0  0
  -23.1046  -36.4547   16.1477 H   0  0  0  0  0  0
  -26.8980  -38.2399   15.3001 H   0  0  0  0  0  0
  -24.4961  -38.4659   15.8425 H   0  0  0  0  0  0
  -24.9424  -31.9242   12.7222 H   0  0  0  0  0  0
  -26.4307  -29.4347   12.4302 H   0  0  0  0  0  0
  -24.9522  -31.3509   10.6117 H   0  0  0  0  0  0
  -26.1068  -30.2391    9.8008 H   0  0  0  0  0  0
  -24.9018  -28.3328   10.4385 H   0  0  0  0  0  0
  -23.9919  -29.2146   11.7118 H   0  0  0  0  0  0
  -23.7604  -29.8359    8.7318 H   0  0  0  0  0  0
  -22.6775  -28.6983    9.6033 H   0  0  0  0  0  0
  -22.4918  -30.9468   11.2588 H   0  0  0  0  0  0
  -21.1706  -32.6515   11.0801 H   0  0  0  0  0  0
  -20.5274  -33.1957    9.3712 H   0  0  0  0  0  0
  -22.2988  -30.5151    7.6349 H   0  0  0  0  0  0
  -27.3385  -32.8212   11.9924 H   0  0  0  0  0  0
  -29.7709  -32.0707   10.4282 H   0  0  0  0  0  0
  -30.4935  -34.4461   10.7836 H   0  0  0  0  0  0
  -28.7916  -34.3475   10.2175 H   0  0  0  0  0  0
  -28.9902  -35.9483   12.1914 H   0  0  0  0  0  0
  -28.7990  -31.4629   13.5659 H   0  0  0  0  0  0
  -30.4870  -31.4956   14.4487 H   0  0  0  0  0  0
  1  2  1  0  0  0
  1105  1  0  0  0
  1106  1  0  0  0
  1107  1  0  0  0
  2  3  1  0  0  0
  2  5  1  0  0  0
  2108  1  0  0  0
  3  4  2  0  0  0
  3  9  1  0  0  0
  5  6  1  0  0  0
  5109  1  0  0  0
  5110  1  0  0  0
  6  7  1  0  0  0
  6  8  1  0  0  0
  6111  1  0  0  0
  7112  1  0  0  0
  7113  1  0  0  0
  7114  1  0  0  0
  8115  1  0  0  0
  8116  1  0  0  0
  8117  1  0  0  0
  9 10  1  0  0  0
  9118  1  0  0  0
 10 11  1  0  0  0
 10 13  1  0  0  0
 10119  1  0  0  0
 11 12  2  0  0  0
 11 18  1  0  0  0
 13 14  1  0  0  0
 13120  1  0  0  0
 13121  1  0  0  0
 14 15  1  0  0  0
 14122  1  0  0  0
 14123  1  0  0  0
 15 16  2  0  0  0
 15 17  1  0  0  0
 17124  1  0  0  0
 17125  1  0  0  0
 18 19  1  0  0  0
 18126  1  0  0  0
 19 20  1  0  0  0
 19 22  1  0  0  0
 19127  1  0  0  0
 20 21  2  0  0  0
 20 29  1  0  0  0
 22 23  1  0  0  0
 22128  1  0  0  0
 22129  1  0  0  0
 23 24  1  0  0  0
 23130  1  0  0  0
 23131  1  0  0  0
 24 25  1  0  0  0
 24132  1  0  0  0
 24133  1  0  0  0
 25 26  1  0  0  0
 25134  1  0  0  0
 26 27  1  0  0  0
 26 28  2  0  0  0
 27135  1  0  0  0
 27136  1  0  0  0
 28137  1  0  0  0
 29 30  1  0  0  0
 29138  1  0  0  0
 30 31  1  0  0  0
 30 33  1  0  0  0
 30139  1  0  0  0
 31 32  2  0  0  0
 31 35  1  0  0  0
 33 34  1  0  0  0
 33140  1  0  0  0
 33141  1  0  0  0
 34142  1  0  0  0
 35 36  1  0  0  0
 35 41  1  0  0  0
 36 37  1  0  0  0
 36 39  1  0  0  0
 36143  1  0  0  0
 37 38  2  0  0  0
 37 42  1  0  0  0
 39 40  1  0  0  0
 39144  1  0  0  0
 39145  1  0  0  0
 40 41  1  0  0  0
 40146  1  0  0  0
 40147  1  0  0  0
 41148  1  0  0  0
 41149  1  0  0  0
 42 43  1  0  0  0
 42 48  1  0  0  0
 43 44  1  0  0  0
 43 46  1  0  0  0
 43150  1  0  0  0
 44 45  2  0  0  0
 44 49  1  0  0  0
 46 47  1  0  0  0
 46151  1  0  0  0
 46152  1  0  0  0
 47 48  1  0  0  0
 47153  1  0  0  0
 47154  1  0  0  0
 48155  1  0  0  0
 48156  1  0  0  0
 49 50  1  0  0  0
 49157  1  0  0  0
 50 51  1  0  0  0
 50 53  1  0  0  0
 50158  1  0  0  0
 51 52  2  0  0  0
 51 57  1  0  0  0
 53 54  1  0  0  0
 53159  1  0  0  0
 53160  1  0  0  0
 54 55  1  0  0  0
 54 56  2  0  0  0
 55161  1  0  0  0
 57 58  1  0  0  0
 57162  1  0  0  0
 58 59  1  0  0  0
 58163  1  0  0  0
 58164  1  0  0  0
 59 60  2  0  0  0
 59 61  1  0  0  0
 61 62  1  0  0  0
 61165  1  0  0  0
 62 63  1  0  0  0
 62 65  1  0  0  0
 62166  1  0  0  0
 63 64  2  0  0  0
 63 70  1  0  0  0
 65 66  1  0  0  0
 65167  1  0  0  0
 65168  1  0  0  0
 66 67  1  0  0  0
 66169  1  0  0  0
 66170  1  0  0  0
 67 68  2  0  0  0
 67 69  1  0  0  0
 69171  1  0  0  0
 69172  1  0  0  0
 70 71  1  0  0  0
 70173  1  0  0  0
 71 72  1  0  0  0
 71 74  1  0  0  0
 71174  1  0  0  0
 72 73  2  0  0  0
 72 76  1  0  0  0
 74 75  1  0  0  0
 74175  1  0  0  0
 74176  1  0  0  0
 75177  1  0  0  0
 76 77  1  0  0  0
 76178  1  0  0  0
 77 78  1  0  0  0
 77 80  1  0  0  0
 77179  1  0  0  0
 78 79  2  0  0  0
 78 87  1  0  0  0
 80 81  1  0  0  0
 80180  1  0  0  0
 80181  1  0  0  0
 81 82  2  0  0  0
 81 83  1  0  0  0
 82 84  1  0  0  0
 82182  1  0  0  0
 83 85  2  0  0  0
 83183  1  0  0  0
 84 86  2  0  0  0
 84184  1  0  0  0
 85 86  1  0  0  0
 85185  1  0  0  0
 86186  1  0  0  0
 87 88  1  0  0  0
 87187  1  0  0  0
 88 89  1  0  0  0
 88 91  1  0  0  0
 88188  1  0  0  0
 89 90  2  0  0  0
 89 98  1  0  0  0
 91 92  1  0  0  0
 91189  1  0  0  0
 91190  1  0  0  0
 92 93  1  0  0  0
 92191  1  0  0  0
 92192  1  0  0  0
 93 94  1  0  0  0
 93193  1  0  0  0
 93194  1  0  0  0
 94 95  1  0  0  0
 94195  1  0  0  0
 95 96  1  0  0  0
 95 97  2  0  0  0
 96196  1  0  0  0
 96197  1  0  0  0
 97198  1  0  0  0
 98 99  1  0  0  0
 98199  1  0  0  0
 99100  1  0  0  0
 99103  1  0  0  0
 99200  1  0  0  0
100101  1  0  0  0
100201  1  0  0  0
100202  1  0  0  0
101203  1  0  0  0
102103  1  0  0  0
102204  1  0  0  0
102205  1  0  0  0
103104  2  0  0  0
M  CHG  1   1   1
M  END
> <s_m_source_file>
../3twr_ligand.sdf

> <i_m_source_file_index>
1

> <s_epik_input>
W0NIM11bQ0hdKFtDSDNdKVtDSDJdW0NASF0oW05IMytdKUMoPU8pW05IXVtDQEBIXShbQ0gyXVtDSDJdQyg9TylbTkgyXSlDKD1PKVtOSF1bQ0BASF0oW0NIMl1bQ0gyXVtDSDJdW05IXS9DKFtOSDJdKT1OXFtIXSlDKD1PKVtOSF1bQ0BASF0oW0NIMl1bT0hdKUMoPU8pTjFbQ0BASF0oW0NIMl1bQ0gyXVtDSDJdMSlDKD1PKU4yW0NAQEhdKFtDSDJdW0NIMl1bQ0gyXTIpQyg9TylbTkhdW0NAQEhdKFtDSDJdQyg9TylbT0hdKUMoPU8pW05IXVtDSDJdQyg9TylbTkhdW0NAQEhdKFtDSDJdW0NIMl1DKD1PKVtOSDJdKUMoPU8pW05IXVtDQEBIXShbQ0gyXVtPSF0pQyg9TylbTkhdW0NAQEhdKFtDSDJdYzNbY0hdW2NIXVtjSF1bY0hdW2NIXTMpQyg9TylbTkhdW0NASF0oQyg9TylbTkhdW0NAQEhdKFtDSDJdW09IXSlDKD1PKVtOSDJdKVtDSDJdW0NIMl1bQ0gyXVtOSF0vQyhbTkgyXSk9TlxbSF0=

> <s_epik_cmdline>
J2VwaWtfYXBwJywgJy1pbWFlJywgJ2xpZ2FuZF9wcm8ubWFlJywgJy1vbWFlJywgJ2xpZ2FuZF9wcmVwLm1hZScsICctbXMnLCAnMScsICctcGgnLCAnNycsICctcGh0JywgJzAuNScsICctbnQn

> <s_epik_pKa_notes>
Molecule size exceeds maximum supported for generating protonation states

> <s_epik_Chemistry_Notes>
This compound has an imine and may undergo hydrolysis.

$$$$
