3tws_ligand
                    3D
 Schrodinger Suite 2020-3.
210211  0  0  1  0            999 V2000
  -26.0040  -24.4780   37.4150 N   0  3  0  0  0  0
  -25.6940  -23.0870   37.1100 C   0  0  2  0  0  0
  -26.6400  -22.5140   36.0590 C   0  0  0  0  0  0
  -26.2450  -22.3010   34.9160 O   0  0  0  0  0  0
  -24.2430  -22.9510   36.6360 C   0  0  0  0  0  0
  -23.2320  -23.1940   37.7120 C   0  0  0  0  0  0
  -23.1310  -22.3930   38.8300 N   0  0  0  0  0  0
  -22.2870  -24.1530   37.8460 C   0  0  0  0  0  0
  -22.1630  -22.8470   39.6060 C   0  0  0  0  0  0
  -21.6360  -23.9150   39.0330 N   0  0  0  0  0  0
  -27.8880  -22.2540   36.4490 N   0  0  0  0  0  0
  -28.8860  -21.7850   35.4870 C   0  0  2  0  0  0
  -28.5150  -20.4590   34.8200 C   0  0  0  0  0  0
  -28.7490  -20.2740   33.6270 O   0  0  0  0  0  0
  -30.2780  -21.7110   36.1210 C   0  0  0  0  0  0
  -30.8520  -23.0940   36.4210 C   0  0  0  0  0  0
  -32.2610  -23.0030   36.9960 C   0  0  0  0  0  0
  -30.8300  -23.9450   35.1530 C   0  0  0  0  0  0
  -27.9350  -19.5480   35.5930 N   0  0  0  0  0  0
  -27.4980  -18.2580   35.0680 C   0  0  2  0  0  0
  -26.4570  -18.4270   33.9660 C   0  0  0  0  0  0
  -26.3740  -17.6080   33.0440 O   0  0  0  0  0  0
  -26.9370  -17.3890   36.2010 C   0  0  0  0  0  0
  -26.4670  -16.0110   35.7580 C   0  0  0  0  0  0
  -27.6080  -15.1240   35.2970 C   0  0  0  0  0  0
  -28.5550  -14.8730   36.0430 O   0  0  0  0  0  0
  -27.5230  -14.6460   34.0620 N   0  0  0  0  0  0
  -25.6700  -19.4970   34.0510 N   0  0  0  0  0  0
  -24.6320  -19.7720   33.0500 C   0  0  2  0  0  0
  -25.2190  -20.0480   31.6580 C   0  0  0  0  0  0
  -24.6490  -19.6620   30.6240 O   0  0  0  0  0  0
  -23.7440  -20.9390   33.5120 C   0  0  0  0  0  0
  -22.6590  -21.3330   32.5080 C   0  0  0  0  0  0
  -21.5460  -22.1810   33.1280 C   0  0  0  0  0  0
  -20.4820  -22.3910   32.1470 N   0  0  0  0  0  0
  -20.4470  -23.4010   31.2840 C   0  0  0  0  0  0
  -19.4610  -23.4830   30.4080 N   0  0  0  0  0  0
  -21.4020  -24.3250   31.2890 N   0  0  0  0  0  0
  -26.3630  -20.7170   31.6340 N   0  0  0  0  0  0
  -27.0250  -21.0280   30.3830 C   0  0  0  0  0  0
  -26.2230  -21.9780   29.5220 C   0  0  0  0  0  0
  -25.4370  -22.7840   30.0210 O   0  0  0  0  0  0
  -26.3940  -21.8910   28.2110 N   0  0  0  0  0  0
  -25.5810  -22.7360   27.3560 C   0  0  2  0  0  0
  -25.0990  -22.0240   26.1020 C   0  0  0  0  0  0
  -25.7150  -21.0560   25.6410 O   0  0  0  0  0  0
  -26.2680  -24.0610   27.0270 C   0  0  0  0  0  0
  -27.5360  -23.9690   25.7780 S   0  0  0  0  0  0
  -23.9780  -22.5090   25.5910 N   0  0  0  0  0  0
  -23.3490  -21.9390   24.4140 C   0  0  2  0  0  0
  -24.3150  -21.9680   23.2440 C   0  0  0  0  0  0
  -25.0640  -22.9310   23.0810 O   0  0  0  0  0  0
  -22.1040  -22.7200   24.0700 C   0  0  0  0  0  0
  -24.2900  -20.9210   22.4210 N   0  0  0  0  0  0
  -25.0380  -20.9580   21.1720 C   0  0  2  0  0  0
  -24.4270  -22.0330   20.2810 C   0  0  0  0  0  0
  -23.2080  -22.0910   20.1160 O   0  0  0  0  0  0
  -25.0300  -19.6030   20.4660 C   0  0  0  0  0  0
  -26.0080  -18.6110   21.0780 C   0  0  0  0  0  0
  -27.1340  -19.0290   21.4290 O   0  0  0  0  0  0
  -25.6540  -17.4210   21.2050 O   0  0  0  0  0  0
  -25.2840  -22.8920   19.7350 N   0  0  0  0  0  0
  -24.8390  -23.9690   18.8810 C   0  0  0  0  0  0
  -25.6420  -25.2300   19.1120 C   0  0  0  0  0  0
  -26.6080  -25.2400   19.8830 O   0  0  0  0  0  0
  -25.2420  -26.2960   18.4280 N   0  0  0  0  0  0
  -25.8320  -27.6220   18.6220 C   0  0  2  0  0  0
  -24.9220  -28.6450   17.9670 C   0  0  0  0  0  0
  -24.1070  -28.2980   17.1080 O   0  0  0  0  0  0
  -27.2460  -27.7120   18.0450 C   0  0  0  0  0  0
  -27.3210  -27.6040   16.5290 C   0  0  0  0  0  0
  -28.7490  -27.4240   16.0390 C   0  0  0  0  0  0
  -29.5100  -26.6220   16.5870 O   0  0  0  0  0  0
  -29.1240  -28.1760   15.0060 N   0  0  0  0  0  0
  -25.0560  -29.9060   18.3660 N   0  0  0  0  0  0
  -24.0990  -30.9350   17.9520 C   0  0  2  0  0  0
  -24.3720  -31.5390   16.5720 C   0  0  0  0  0  0
  -23.4390  -31.9080   15.8490 O   0  0  0  0  0  0
  -24.0390  -32.0570   18.9910 C   0  0  0  0  0  0
  -22.9770  -32.9490   18.7000 O   0  0  0  0  0  0
  -25.6490  -31.6610   16.2220 N   0  0  0  0  0  0
  -26.0430  -32.2610   14.9530 C   0  0  2  0  0  0
  -26.6420  -31.2030   14.0390 C   0  0  0  0  0  0
  -27.5450  -30.4530   14.4470 O   0  0  0  0  0  0
  -27.0760  -33.3760   15.1810 C   0  0  0  0  0  0
  -26.4800  -34.7480   15.4340 C   0  0  0  0  0  0
  -25.1240  -34.9190   15.6460 C   0  0  0  0  0  0
  -27.2970  -35.8670   15.4430 C   0  0  0  0  0  0
  -24.5990  -36.1850   15.8730 C   0  0  0  0  0  0
  -26.7780  -37.1330   15.6650 C   0  0  0  0  0  0
  -25.4270  -37.2870   15.8800 C   0  0  0  0  0  0
  -26.1420  -31.1470   12.8060 N   0  0  0  0  0  0
  -26.6620  -30.2320   11.7960 C   0  0  2  0  0  0
  -28.0730  -30.6280   11.4010 C   0  0  0  0  0  0
  -28.8630  -29.7780   10.9780 O   0  0  0  0  0  0
  -25.7500  -30.1900   10.5510 C   0  0  0  0  0  0
  -24.5870  -29.1980   10.6480 C   0  0  0  0  0  0
  -23.4760  -29.5250    9.6430 C   0  0  0  0  0  0
  -22.7010  -30.6560   10.1380 N   0  0  0  0  0  0
  -21.9690  -31.4670    9.3890 C   0  0  0  0  0  0
  -21.3140  -32.4690    9.9670 N   0  0  0  0  0  0
  -21.9050  -31.2890    8.0760 N   0  0  0  0  0  0
  -28.3860  -31.9140   11.5460 N   0  0  0  0  0  0
  -29.7270  -32.4170   11.1970 C   0  0  1  0  0  0
  -29.7360  -33.9300   10.9040 C   0  0  0  0  0  0
  -29.4170  -34.6720   12.0860 O   0  0  0  0  0  0
  -30.2560  -31.4720   13.3760 N   0  0  0  0  0  0
  -30.7430  -32.0940   12.3060 C   0  0  0  0  0  0
  -31.9260  -32.4210   12.1870 O   0  0  0  0  0  0
  -27.0479  -24.5554   37.7530 H   0  0  0  0  0  0
  -25.3337  -24.8373   38.2097 H   0  0  0  0  0  0
  -25.8643  -25.0912   36.5125 H   0  0  0  0  0  0
  -25.8460  -22.5554   38.0609 H   0  0  0  0  0  0
  -24.0492  -23.6794   35.8348 H   0  0  0  0  0  0
  -24.0758  -21.9330   36.2543 H   0  0  0  0  0  0
  -21.9900  -25.0052   37.2171 H   0  0  0  0  0  0
  -21.8519  -22.4144   40.5569 H   0  0  0  0  0  0
  -28.1649  -22.3949   37.5042 H   0  0  0  0  0  0
  -28.8668  -22.5635   34.7101 H   0  0  0  0  0  0
  -30.2207  -21.1532   37.0674 H   0  0  0  0  0  0
  -30.9670  -21.1978   35.4341 H   0  0  0  0  0  0
  -30.2251  -23.5744   37.1867 H   0  0  0  0  0  0
  -32.2463  -22.3856   37.9063 H   0  0  0  0  0  0
  -32.6220  -24.0122   37.2432 H   0  0  0  0  0  0
  -32.9312  -22.5455   36.2534 H   0  0  0  0  0  0
  -29.8032  -23.9929   34.7613 H   0  0  0  0  0  0
  -31.4901  -23.4941   34.3973 H   0  0  0  0  0  0
  -31.1809  -24.9609   35.3871 H   0  0  0  0  0  0
  -27.7871  -19.7877   36.6563 H   0  0  0  0  0  0
  -28.4009  -17.8007   34.6371 H   0  0  0  0  0  0
  -27.7143  -17.2344   36.9638 H   0  0  0  0  0  0
  -26.0719  -17.8935   36.6561 H   0  0  0  0  0  0
  -25.9663  -15.5069   36.5977 H   0  0  0  0  0  0
  -25.7619  -16.1158   34.9202 H   0  0  0  0  0  0
  -26.6567  -14.8985   33.4329 H   0  0  0  0  0  0
  -28.3189  -13.9973   33.6673 H   0  0  0  0  0  0
  -25.8126  -20.1838   34.8984 H   0  0  0  0  0  0
  -24.0458  -18.8429   32.9935 H   0  0  0  0  0  0
  -23.2351  -20.6644   34.4477 H   0  0  0  0  0  0
  -24.3673  -21.8294   33.6813 H   0  0  0  0  0  0
  -23.1090  -21.9187   31.6928 H   0  0  0  0  0  0
  -22.1950  -20.4254   32.0945 H   0  0  0  0  0  0
  -21.1351  -21.6613   34.0061 H   0  0  0  0  0  0
  -21.9552  -23.1544   33.4363 H   0  0  0  0  0  0
  -19.6389  -21.6867   32.0908 H   0  0  0  0  0  0
  -18.6680  -22.7208   30.3996 H   0  0  0  0  0  0
  -22.2250  -24.2614   32.0161 H   0  0  0  0  0  0
  -21.3695  -25.1534   30.5661 H   0  0  0  0  0  0
  -26.8094  -21.0373   32.5870 H   0  0  0  0  0  0
  -27.9975  -21.4985   30.5899 H   0  0  0  0  0  0
  -27.1802  -20.1019   29.8101 H   0  0  0  0  0  0
  -27.1277  -21.2025   27.7664 H   0  0  0  0  0  0
  -24.7012  -22.9365   27.9851 H   0  0  0  0  0  0
  -25.5206  -24.7808   26.6618 H   0  0  0  0  0  0
  -26.7489  -24.4594   27.9325 H   0  0  0  0  0  0
  -28.0815  -24.8766   25.4802 H   0  0  0  0  0  0
  -23.5232  -23.3761   26.0923 H   0  0  0  0  0  0
  -23.0858  -20.9014   24.6674 H   0  0  0  0  0  0
  -21.4084  -22.6950   24.9218 H   0  0  0  0  0  0
  -21.6214  -22.2713   23.1892 H   0  0  0  0  0  0
  -22.3749  -23.7628   23.8483 H   0  0  0  0  0  0
  -23.7041  -20.0282   22.6850 H   0  0  0  0  0  0
  -26.0781  -21.1992   21.4368 H   0  0  0  0  0  0
  -24.0237  -19.1632   20.5281 H   0  0  0  0  0  0
  -25.3066  -19.7381   19.4099 H   0  0  0  0  0  0
  -27.8633  -18.3366   21.8747 H   0  0  0  0  0  0
  -26.3557  -22.7663   19.9484 H   0  0  0  0  0  0
  -24.9528  -23.6727   17.8278 H   0  0  0  0  0  0
  -23.7811  -24.1880   19.0881 H   0  0  0  0  0  0
  -24.4358  -26.1549   17.6931 H   0  0  0  0  0  0
  -25.8975  -27.7842   19.7080 H   0  0  0  0  0  0
  -27.6924  -28.6797   18.3177 H   0  0  0  0  0  0
  -27.8612  -26.8965   18.4531 H   0  0  0  0  0  0
  -26.7318  -26.7378   16.1935 H   0  0  0  0  0  0
  -26.9160  -28.5207   16.0756 H   0  0  0  0  0  0
  -28.4108  -28.8778   14.5490 H   0  0  0  0  0  0
  -30.1470  -28.0954   14.6097 H   0  0  0  0  0  0
  -25.9019  -30.1716   19.0171 H   0  0  0  0  0  0
  -23.1553  -30.3728   17.8931 H   0  0  0  0  0  0
  -23.8777  -31.6240   19.9893 H   0  0  0  0  0  0
  -24.9865  -32.6157   18.9824 H   0  0  0  0  0  0
  -22.7929  -33.8161   19.3513 H   0  0  0  0  0  0
  -26.4170  -31.2947   16.9192 H   0  0  0  0  0  0
  -25.1180  -32.6667   14.5174 H   0  0  0  0  0  0
  -27.6933  -33.1302   16.0577 H   0  0  0  0  0  0
  -27.7194  -33.4669   14.2934 H   0  0  0  0  0  0
  -24.4618  -34.0533   15.6349 H   0  0  0  0  0  0
  -28.3672  -35.7497   15.2724 H   0  0  0  0  0  0
  -23.5298  -36.3072   16.0460 H   0  0  0  0  0  0
  -27.4361  -38.0019   15.6693 H   0  0  0  0  0  0
  -25.0124  -38.2796   16.0556 H   0  0  0  0  0  0
  -25.3087  -31.8217   12.5601 H   0  0  0  0  0  0
  -26.6783  -29.2468   12.2851 H   0  0  0  0  0  0
  -25.3091  -31.1841   10.3858 H   0  0  0  0  0  0
  -26.3437  -29.9013    9.6711 H   0  0  0  0  0  0
  -24.9534  -28.1819   10.4399 H   0  0  0  0  0  0
  -24.1586  -29.2330   11.6606 H   0  0  0  0  0  0
  -23.9241  -29.7809    8.6715 H   0  0  0  0  0  0
  -22.8193  -28.6504    9.5249 H   0  0  0  0  0  0
  -22.6954  -30.8907   11.2127 H   0  0  0  0  0  0
  -21.3730  -32.6088   11.0565 H   0  0  0  0  0  0
  -20.7130  -33.1584    9.3558 H   0  0  0  0  0  0
  -22.4504  -30.4571    7.6065 H   0  0  0  0  0  0
  -27.6231  -32.6051   11.9339 H   0  0  0  0  0  0
  -29.9773  -31.8729   10.2743 H   0  0  0  0  0  0
  -30.7345  -34.2295   10.5529 H   0  0  0  0  0  0
  -28.9908  -34.1576   10.1275 H   0  0  0  0  0  0
  -29.3798  -35.7709   12.0523 H   0  0  0  0  0  0
  -29.1893  -31.2072   13.4202 H   0  0  0  0  0  0
  -30.9200  -31.2223   14.2167 H   0  0  0  0  0  0
  1  2  1  0  0  0
  1110  1  0  0  0
  1111  1  0  0  0
  1112  1  0  0  0
  2  3  1  0  0  0
  2  5  1  0  0  0
  2113  1  0  0  0
  3  4  2  0  0  0
  3 11  1  0  0  0
  5  6  1  0  0  0
  5114  1  0  0  0
  5115  1  0  0  0
  6  7  2  0  0  0
  6  8  1  0  0  0
  7  9  1  0  0  0
  8 10  2  0  0  0
  8116  1  0  0  0
  9 10  1  0  0  0
  9117  1  0  0  0
 11 12  1  0  0  0
 11118  1  0  0  0
 12 13  1  0  0  0
 12 15  1  0  0  0
 12119  1  0  0  0
 13 14  2  0  0  0
 13 19  1  0  0  0
 15 16  1  0  0  0
 15120  1  0  0  0
 15121  1  0  0  0
 16 17  1  0  0  0
 16 18  1  0  0  0
 16122  1  0  0  0
 17123  1  0  0  0
 17124  1  0  0  0
 17125  1  0  0  0
 18126  1  0  0  0
 18127  1  0  0  0
 18128  1  0  0  0
 19 20  1  0  0  0
 19129  1  0  0  0
 20 21  1  0  0  0
 20 23  1  0  0  0
 20130  1  0  0  0
 21 22  2  0  0  0
 21 28  1  0  0  0
 23 24  1  0  0  0
 23131  1  0  0  0
 23132  1  0  0  0
 24 25  1  0  0  0
 24133  1  0  0  0
 24134  1  0  0  0
 25 26  2  0  0  0
 25 27  1  0  0  0
 27135  1  0  0  0
 27136  1  0  0  0
 28 29  1  0  0  0
 28137  1  0  0  0
 29 30  1  0  0  0
 29 32  1  0  0  0
 29138  1  0  0  0
 30 31  2  0  0  0
 30 39  1  0  0  0
 32 33  1  0  0  0
 32139  1  0  0  0
 32140  1  0  0  0
 33 34  1  0  0  0
 33141  1  0  0  0
 33142  1  0  0  0
 34 35  1  0  0  0
 34143  1  0  0  0
 34144  1  0  0  0
 35 36  1  0  0  0
 35145  1  0  0  0
 36 37  2  0  0  0
 36 38  1  0  0  0
 37146  1  0  0  0
 38147  1  0  0  0
 38148  1  0  0  0
 39 40  1  0  0  0
 39149  1  0  0  0
 40 41  1  0  0  0
 40150  1  0  0  0
 40151  1  0  0  0
 41 42  2  0  0  0
 41 43  1  0  0  0
 43 44  1  0  0  0
 43152  1  0  0  0
 44 45  1  0  0  0
 44 47  1  0  0  0
 44153  1  0  0  0
 45 46  2  0  0  0
 45 49  1  0  0  0
 47 48  1  0  0  0
 47154  1  0  0  0
 47155  1  0  0  0
 48156  1  0  0  0
 49 50  1  0  0  0
 49157  1  0  0  0
 50 51  1  0  0  0
 50 53  1  0  0  0
 50158  1  0  0  0
 51 52  2  0  0  0
 51 54  1  0  0  0
 53159  1  0  0  0
 53160  1  0  0  0
 53161  1  0  0  0
 54 55  1  0  0  0
 54162  1  0  0  0
 55 56  1  0  0  0
 55 58  1  0  0  0
 55163  1  0  0  0
 56 57  2  0  0  0
 56 62  1  0  0  0
 58 59  1  0  0  0
 58164  1  0  0  0
 58165  1  0  0  0
 59 60  1  0  0  0
 59 61  2  0  0  0
 60166  1  0  0  0
 62 63  1  0  0  0
 62167  1  0  0  0
 63 64  1  0  0  0
 63168  1  0  0  0
 63169  1  0  0  0
 64 65  2  0  0  0
 64 66  1  0  0  0
 66 67  1  0  0  0
 66170  1  0  0  0
 67 68  1  0  0  0
 67 70  1  0  0  0
 67171  1  0  0  0
 68 69  2  0  0  0
 68 75  1  0  0  0
 70 71  1  0  0  0
 70172  1  0  0  0
 70173  1  0  0  0
 71 72  1  0  0  0
 71174  1  0  0  0
 71175  1  0  0  0
 72 73  2  0  0  0
 72 74  1  0  0  0
 74176  1  0  0  0
 74177  1  0  0  0
 75 76  1  0  0  0
 75178  1  0  0  0
 76 77  1  0  0  0
 76 79  1  0  0  0
 76179  1  0  0  0
 77 78  2  0  0  0
 77 81  1  0  0  0
 79 80  1  0  0  0
 79180  1  0  0  0
 79181  1  0  0  0
 80182  1  0  0  0
 81 82  1  0  0  0
 81183  1  0  0  0
 82 83  1  0  0  0
 82 85  1  0  0  0
 82184  1  0  0  0
 83 84  2  0  0  0
 83 92  1  0  0  0
 85 86  1  0  0  0
 85185  1  0  0  0
 85186  1  0  0  0
 86 87  2  0  0  0
 86 88  1  0  0  0
 87 89  1  0  0  0
 87187  1  0  0  0
 88 90  2  0  0  0
 88188  1  0  0  0
 89 91  2  0  0  0
 89189  1  0  0  0
 90 91  1  0  0  0
 90190  1  0  0  0
 91191  1  0  0  0
 92 93  1  0  0  0
 92192  1  0  0  0
 93 94  1  0  0  0
 93 96  1  0  0  0
 93193  1  0  0  0
 94 95  2  0  0  0
 94103  1  0  0  0
 96 97  1  0  0  0
 96194  1  0  0  0
 96195  1  0  0  0
 97 98  1  0  0  0
 97196  1  0  0  0
 97197  1  0  0  0
 98 99  1  0  0  0
 98198  1  0  0  0
 98199  1  0  0  0
 99100  1  0  0  0
 99200  1  0  0  0
100101  1  0  0  0
100102  2  0  0  0
101201  1  0  0  0
101202  1  0  0  0
102203  1  0  0  0
103104  1  0  0  0
103204  1  0  0  0
104105  1  0  0  0
104108  1  0  0  0
104205  1  0  0  0
105106  1  0  0  0
105206  1  0  0  0
105207  1  0  0  0
106208  1  0  0  0
107108  1  0  0  0
107209  1  0  0  0
107210  1  0  0  0
108109  2  0  0  0
M  CHG  1   1   1
M  END
> <s_m_source_file>
../3tws_ligand.sdf

> <i_m_source_file_index>
1

> <s_epik_input>
W0NIXTE9TltDSDJdTj1DMVtDSDJdW0NASF0oW05IMytdKUMoPU8pW05IXVtDQEBIXShbQ0gyXVtDSF0oW0NIM10pW0NIM10pQyg9TylbTkhdW0NAQEhdKFtDSDJdW0NIMl1DKD1PKVtOSDJdKUMoPU8pW05IXVtDQEBIXShbQ0gyXVtDSDJdW0NIMl1bTkhdL0MoPU5cW0hdKVtOSDJdKUMoPU8pW05IXVtDSDJdQyg9TylbTkhdW0NAQEhdKFtDSDJdW1NIXSlDKD1PKVtOSF1bQ0BASF0oW0NIM10pQyg9TylbTkhdW0NAQEhdKFtDSDJdQyg9TylbT0hdKUMoPU8pW05IXVtDSDJdQyg9TylbTkhdW0NAQEhdKFtDSDJdW0NIMl1DKD1PKVtOSDJdKUMoPU8pW05IXVtDQEBIXShbQ0gyXVtPSF0pQyg9TylbTkhdW0NAQEhdKFtDSDJdYzJbY0hdW2NIXVtjSF1bY0hdW2NIXTIpQyg9TylbTkhdW0NASF0oQyg9TylbTkhdW0NAQEhdKFtDSDJdW09IXSlDKD1PKVtOSDJdKVtDSDJdW0NIMl1bQ0gyXVtOSF0vQyhbTkgyXSk9TlxbSF0=

> <s_epik_cmdline>
J2VwaWtfYXBwJywgJy1pbWFlJywgJ2xpZ2FuZF9wcm8ubWFlJywgJy1vbWFlJywgJ2xpZ2FuZF9wcmVwLm1hZScsICctbXMnLCAnMScsICctcGgnLCAnNycsICctcGh0JywgJzAuNScsICctbnQn

> <s_epik_pKa_notes>
Molecule size exceeds maximum supported for generating protonation states

> <s_epik_Chemistry_Notes>
This compound has an imine and may undergo hydrolysis.

$$$$
