3twv_ligand
                    3D
 Schrodinger Suite 2020-3.
192193  0  0  1  0            999 V2000
  -27.4940  -17.3090   36.3660 N   0  3  0  0  0  0
  -27.2920  -18.7340   36.1030 C   0  0  2  0  0  0
  -26.7440  -19.0470   34.7010 C   0  0  0  0  0  0
  -26.9520  -18.2980   33.7410 O   0  0  0  0  0  0
  -28.5890  -19.5020   36.3130 C   0  0  0  0  0  0
  -29.5260  -19.4300   35.1200 C   0  0  0  0  0  0
  -30.0210  -20.7940   34.6820 C   0  0  0  0  0  0
  -29.5090  -21.8270   35.1200 O   0  0  0  0  0  0
  -31.0240  -20.8050   33.8130 N   0  0  0  0  0  0
  -26.0540  -20.1790   34.5980 N   0  0  0  0  0  0
  -25.2980  -20.5160   33.3980 C   0  0  2  0  0  0
  -26.1300  -21.2290   32.3350 C   0  0  0  0  0  0
  -26.7750  -22.2430   32.6050 O   0  0  0  0  0  0
  -24.0840  -21.3710   33.7680 C   0  0  0  0  0  0
  -23.0650  -21.5000   32.6560 C   0  0  0  0  0  0
  -21.8100  -22.2170   33.1350 C   0  0  0  0  0  0
  -20.8290  -22.2710   32.0620 N   0  0  0  0  0  0
  -20.6050  -23.3290   31.2850 C   0  0  0  0  0  0
  -19.6920  -23.2520   30.3290 N   0  0  0  0  0  0
  -21.2640  -24.4630   31.4690 N   0  0  0  0  0  0
  -26.1070  -20.6990   31.1190 N   0  0  0  0  0  0
  -26.8530  -21.3090   30.0260 C   0  0  2  0  0  0
  -25.9120  -21.7630   28.9170 C   0  0  0  0  0  0
  -24.7060  -21.5110   28.9730 O   0  0  0  0  0  0
  -27.9020  -20.3550   29.4630 C   0  0  2  0  0  0
  -27.2470  -19.2510   28.8330 O   0  0  0  0  0  0
  -28.7840  -19.8240   30.5870 C   0  0  0  0  0  0
  -26.4700  -22.4340   27.9150 N   0  0  0  0  0  0
  -25.6800  -23.0840   26.8770 C   0  0  2  0  0  0
  -25.0460  -22.0890   25.8890 C   0  0  0  0  0  0
  -25.5490  -20.9900   25.6960 O   0  0  0  0  0  0
  -26.5450  -24.1160   26.1400 C   0  0  0  0  0  0
  -26.3640  -25.5610   26.6230 C   0  0  0  0  0  0
  -27.4530  -26.4960   26.0990 C   0  0  0  0  0  0
  -28.5550  -26.0560   25.7710 O   0  0  0  0  0  0
  -27.1500  -27.7910   26.0250 N   0  0  0  0  0  0
  -23.9120  -22.4680   25.2910 N   0  0  0  0  0  0
  -23.3420  -21.6980   24.1820 C   0  0  2  0  0  0
  -24.3410  -21.6160   23.0410 C   0  0  0  0  0  0
  -25.1730  -22.5130   22.9160 O   0  0  0  0  0  0
  -22.1490  -22.5570   23.7360 C   0  0  0  0  0  0
  -21.8040  -23.3890   24.9390 C   0  0  0  0  0  0
  -23.1050  -23.6590   25.6260 C   0  0  0  0  0  0
  -24.2870  -20.5640   22.2320 N   0  0  0  0  0  0
  -25.0570  -20.5730   20.9970 C   0  0  2  0  0  0
  -24.5000  -21.6830   20.0990 C   0  0  0  0  0  0
  -23.2810  -21.8580   19.9970 O   0  0  0  0  0  0
  -25.0390  -19.2050   20.3200 C   0  0  0  0  0  0
  -26.1020  -18.2610   20.8770 C   0  0  0  0  0  0
  -27.2450  -18.7190   21.1150 O   0  0  0  0  0  0
  -25.7960  -17.0630   21.0820 O   0  0  0  0  0  0
  -25.3960  -22.4700   19.5050 N   0  0  0  0  0  0
  -25.0070  -23.6310   18.7200 C   0  0  0  0  0  0
  -25.9080  -24.8350   18.9080 C   0  0  0  0  0  0
  -26.9260  -24.7570   19.5950 O   0  0  0  0  0  0
  -25.5360  -25.9440   18.2710 N   0  0  0  0  0  0
  -26.1650  -27.2510   18.4740 C   0  0  2  0  0  0
  -25.2440  -28.3200   17.9120 C   0  0  0  0  0  0
  -24.3880  -28.0350   17.0700 O   0  0  0  0  0  0
  -27.5540  -27.3420   17.8360 C   0  0  0  0  0  0
  -27.5730  -27.3420   16.3150 C   0  0  0  0  0  0
  -28.9860  -27.1320   15.7610 C   0  0  0  0  0  0
  -29.7250  -26.2650   16.2270 O   0  0  0  0  0  0
  -29.3660  -27.9360   14.7770 N   0  0  0  0  0  0
  -25.4120  -29.5450   18.3940 N   0  0  0  0  0  0
  -24.4990  -30.6300   18.0530 C   0  0  2  0  0  0
  -24.7040  -31.1320   16.6280 C   0  0  0  0  0  0
  -23.7450  -31.4830   15.9370 O   0  0  0  0  0  0
  -24.6810  -31.7970   19.0190 C   0  0  0  0  0  0
  -24.3710  -31.4050   20.3410 O   0  0  0  0  0  0
  -25.9610  -31.1570   16.2040 N   0  0  0  0  0  0
  -26.3450  -31.7910   14.9580 C   0  0  2  0  0  0
  -26.9080  -30.7970   13.9630 C   0  0  0  0  0  0
  -27.8390  -30.0640   14.2680 O   0  0  0  0  0  0
  -27.3720  -32.9030   15.2210 C   0  0  0  0  0  0
  -26.7610  -34.1670   15.7440 C   0  0  0  0  0  0
  -25.4290  -34.4620   15.4850 C   0  0  0  0  0  0
  -27.5000  -35.0530   16.5010 C   0  0  0  0  0  0
  -24.8500  -35.6170   15.9660 C   0  0  0  0  0  0
  -26.9250  -36.2180   16.9830 C   0  0  0  0  0  0
  -25.5980  -36.4980   16.7160 C   0  0  0  0  0  0
  -26.3350  -30.8070   12.7670 N   0  0  0  0  0  0
  -26.8100  -29.9950   11.6500 C   0  0  2  0  0  0
  -28.1690  -30.4470   11.1400 C   0  0  0  0  0  0
  -28.8600  -29.6760   10.4950 O   0  0  0  0  0  0
  -25.8200  -30.0460   10.4830 C   0  0  0  0  0  0
  -24.6230  -29.1500   10.6460 C   0  0  0  0  0  0
  -23.6590  -29.3080    9.4760 C   0  0  0  0  0  0
  -22.8390  -30.4970    9.6220 N   0  0  0  0  0  0
  -22.2410  -31.1220    8.6120 C   0  0  0  0  0  0
  -21.5170  -32.2030    8.8550 N   0  0  0  0  0  0
  -22.3740  -30.6810    7.3640 N   0  0  0  0  0  0
  -28.5480  -31.6980   11.3910 N   0  0  0  0  0  0
  -29.8950  -32.1430   10.9840 C   0  0  1  0  0  0
  -29.9530  -33.6160   10.5370 C   0  0  0  0  0  0
  -29.6530  -34.4840   11.6290 O   0  0  0  0  0  0
  -30.3390  -31.4820   13.2670 N   0  0  0  0  0  0
  -30.8870  -31.9060   12.1310 C   0  0  0  0  0  0
  -32.0920  -32.1170   11.9850 O   0  0  0  0  0  0
  -26.5481  -16.7696   36.2098 H   0  0  0  0  0  0
  -27.8271  -17.1716   37.4053 H   0  0  0  0  0  0
  -28.2586  -16.9145   35.6807 H   0  0  0  0  0  0
  -26.5302  -19.0096   36.8472 H   0  0  0  0  0  0
  -28.3617  -20.5630   36.4937 H   0  0  0  0  0  0
  -29.1235  -19.0886   37.1810 H   0  0  0  0  0  0
  -30.4040  -18.8203   35.3797 H   0  0  0  0  0  0
  -29.0009  -18.9727   34.2684 H   0  0  0  0  0  0
  -31.4482  -19.8570   33.4506 H   0  0  0  0  0  0
  -31.4312  -21.7621   33.4551 H   0  0  0  0  0  0
  -26.0649  -20.8705   35.4534 H   0  0  0  0  0  0
  -25.0005  -19.5368   32.9947 H   0  0  0  0  0  0
  -23.5698  -20.9235   34.6313 H   0  0  0  0  0  0
  -24.4162  -22.3875   34.0256 H   0  0  0  0  0  0
  -23.5001  -22.0743   31.8248 H   0  0  0  0  0  0
  -22.7813  -20.4984   32.3006 H   0  0  0  0  0  0
  -21.3817  -21.6743   33.9906 H   0  0  0  0  0  0
  -22.0676  -23.2413   33.4423 H   0  0  0  0  0  0
  -20.2043  -21.3924   31.8432 H   0  0  0  0  0  0
  -19.1403  -22.3138   30.1697 H   0  0  0  0  0  0
  -22.0240  -24.5352   32.2610 H   0  0  0  0  0  0
  -21.0514  -25.3326   30.8299 H   0  0  0  0  0  0
  -25.5160  -19.7886   30.9407 H   0  0  0  0  0  0
  -27.3525  -22.1780   30.4793 H   0  0  0  0  0  0
  -28.5039  -20.8537   28.6890 H   0  0  0  0  0  0
  -26.5609  -19.4261   27.9912 H   0  0  0  0  0  0
  -29.2944  -20.6642   31.0806 H   0  0  0  0  0  0
  -29.5325  -19.1338   30.1707 H   0  0  0  0  0  0
  -28.1616  -19.2909   31.3208 H   0  0  0  0  0  0
  -27.5682  -22.4891   27.8859 H   0  0  0  0  0  0
  -24.8631  -23.5745   27.4267 H   0  0  0  0  0  0
  -27.6078  -23.8656   26.2731 H   0  0  0  0  0  0
  -26.2969  -24.1041   25.0684 H   0  0  0  0  0  0
  -25.3934  -25.9448   26.2758 H   0  0  0  0  0  0
  -26.3966  -25.5870   27.7222 H   0  0  0  0  0  0
  -26.1523  -28.1406   26.3288 H   0  0  0  0  0  0
  -27.8975  -28.5108   25.6601 H   0  0  0  0  0  0
  -23.0932  -20.6743   24.4983 H   0  0  0  0  0  0
  -22.4461  -23.1811   22.8803 H   0  0  0  0  0  0
  -21.3159  -21.9023   23.4406 H   0  0  0  0  0  0
  -21.3209  -24.3220   24.6132 H   0  0  0  0  0  0
  -21.1162  -22.8274   25.5883 H   0  0  0  0  0  0
  -22.9984  -23.7343   26.7182 H   0  0  0  0  0  0
  -23.6057  -24.5606   25.2435 H   0  0  0  0  0  0
  -23.6679  -19.6915   22.4878 H   0  0  0  0  0  0
  -26.1042  -20.7809   21.2617 H   0  0  0  0  0  0
  -24.0564  -18.7342   20.4709 H   0  0  0  0  0  0
  -25.2259  -19.3265   19.2428 H   0  0  0  0  0  0
  -28.0289  -18.0601   21.5166 H   0  0  0  0  0  0
  -26.4601  -22.2176   19.6234 H   0  0  0  0  0  0
  -25.0285  -23.3744   17.6506 H   0  0  0  0  0  0
  -23.9899  -23.9406   19.0024 H   0  0  0  0  0  0
  -24.7053  -25.8382   17.5578 H   0  0  0  0  0  0
  -26.2897  -27.3649   19.5610 H   0  0  0  0  0  0
  -28.0431  -28.2746   18.1539 H   0  0  0  0  0  0
  -28.1613  -26.4822   18.1554 H   0  0  0  0  0  0
  -26.9321  -26.5303   15.9403 H   0  0  0  0  0  0
  -27.1974  -28.3069   15.9436 H   0  0  0  0  0  0
  -28.6729  -28.6977   14.3903 H   0  0  0  0  0  0
  -30.3743  -27.8412   14.3475 H   0  0  0  0  0  0
  -26.2632  -29.7328   19.0649 H   0  0  0  0  0  0
  -23.4990  -30.1808   18.1438 H   0  0  0  0  0  0
  -25.7254  -32.1408   18.9861 H   0  0  0  0  0  0
  -24.0141  -32.6218   18.7274 H   0  0  0  0  0  0
  -24.4509  -32.1314   21.1631 H   0  0  0  0  0  0
  -26.7233  -30.6747   16.8335 H   0  0  0  0  0  0
  -25.4034  -32.1939   14.5567 H   0  0  0  0  0  0
  -28.1038  -32.5575   15.9660 H   0  0  0  0  0  0
  -27.8920  -33.1510   14.2839 H   0  0  0  0  0  0
  -24.8318  -33.7694   14.8920 H   0  0  0  0  0  0
  -28.5449  -34.8346   16.7217 H   0  0  0  0  0  0
  -23.8029  -35.8327   15.7534 H   0  0  0  0  0  0
  -27.5200  -36.9146   17.5736 H   0  0  0  0  0  0
  -25.1448  -37.4129   17.0976 H   0  0  0  0  0  0
  -25.4637  -31.4657   12.6367 H   0  0  0  0  0  0
  -26.8914  -28.9857   12.0798 H   0  0  0  0  0  0
  -25.4402  -31.0720   10.3689 H   0  0  0  0  0  0
  -26.3282  -29.7381    9.5573 H   0  0  0  0  0  0
  -24.9532  -28.1017   10.6918 H   0  0  0  0  0  0
  -24.0949  -29.4090   11.5755 H   0  0  0  0  0  0
  -24.2297  -29.3905    8.5393 H   0  0  0  0  0  0
  -22.9966  -28.4313    9.4257 H   0  0  0  0  0  0
  -22.6803  -30.9368   10.6177 H   0  0  0  0  0  0
  -21.4053  -32.5699    9.8860 H   0  0  0  0  0  0
  -22.9751  -29.7828    7.1592 H   0  0  0  0  0  0
  -21.8828  -31.2145    6.5369 H   0  0  0  0  0  0
  -27.8670  -32.3981   11.8971 H   0  0  0  0  0  0
  -30.1296  -31.5182   10.1096 H   0  0  0  0  0  0
  -30.9621  -33.8468   10.1650 H   0  0  0  0  0  0
  -29.2191  -33.7851    9.7352 H   0  0  0  0  0  0
  -29.6509  -35.5740   11.4807 H   0  0  0  0  0  0
  -29.2534  -31.3145   13.3250 H   0  0  0  0  0  0
  -30.9716  -31.2990   14.1481 H   0  0  0  0  0  0
  1  2  1  0  0  0
  1100  1  0  0  0
  1101  1  0  0  0
  1102  1  0  0  0
  2  3  1  0  0  0
  2  5  1  0  0  0
  2103  1  0  0  0
  3  4  2  0  0  0
  3 10  1  0  0  0
  5  6  1  0  0  0
  5104  1  0  0  0
  5105  1  0  0  0
  6  7  1  0  0  0
  6106  1  0  0  0
  6107  1  0  0  0
  7  8  2  0  0  0
  7  9  1  0  0  0
  9108  1  0  0  0
  9109  1  0  0  0
 10 11  1  0  0  0
 10110  1  0  0  0
 11 12  1  0  0  0
 11 14  1  0  0  0
 11111  1  0  0  0
 12 13  2  0  0  0
 12 21  1  0  0  0
 14 15  1  0  0  0
 14112  1  0  0  0
 14113  1  0  0  0
 15 16  1  0  0  0
 15114  1  0  0  0
 15115  1  0  0  0
 16 17  1  0  0  0
 16116  1  0  0  0
 16117  1  0  0  0
 17 18  1  0  0  0
 17118  1  0  0  0
 18 19  2  0  0  0
 18 20  1  0  0  0
 19119  1  0  0  0
 20120  1  0  0  0
 20121  1  0  0  0
 21 22  1  0  0  0
 21122  1  0  0  0
 22 23  1  0  0  0
 22 25  1  0  0  0
 22123  1  0  0  0
 23 24  2  0  0  0
 23 28  1  0  0  0
 25 26  1  0  0  0
 25 27  1  0  0  0
 25124  1  0  0  0
 26125  1  0  0  0
 27126  1  0  0  0
 27127  1  0  0  0
 27128  1  0  0  0
 28 29  1  0  0  0
 28129  1  0  0  0
 29 30  1  0  0  0
 29 32  1  0  0  0
 29130  1  0  0  0
 30 31  2  0  0  0
 30 37  1  0  0  0
 32 33  1  0  0  0
 32131  1  0  0  0
 32132  1  0  0  0
 33 34  1  0  0  0
 33133  1  0  0  0
 33134  1  0  0  0
 34 35  2  0  0  0
 34 36  1  0  0  0
 36135  1  0  0  0
 36136  1  0  0  0
 37 38  1  0  0  0
 37 43  1  0  0  0
 38 39  1  0  0  0
 38 41  1  0  0  0
 38137  1  0  0  0
 39 40  2  0  0  0
 39 44  1  0  0  0
 41 42  1  0  0  0
 41138  1  0  0  0
 41139  1  0  0  0
 42 43  1  0  0  0
 42140  1  0  0  0
 42141  1  0  0  0
 43142  1  0  0  0
 43143  1  0  0  0
 44 45  1  0  0  0
 44144  1  0  0  0
 45 46  1  0  0  0
 45 48  1  0  0  0
 45145  1  0  0  0
 46 47  2  0  0  0
 46 52  1  0  0  0
 48 49  1  0  0  0
 48146  1  0  0  0
 48147  1  0  0  0
 49 50  1  0  0  0
 49 51  2  0  0  0
 50148  1  0  0  0
 52 53  1  0  0  0
 52149  1  0  0  0
 53 54  1  0  0  0
 53150  1  0  0  0
 53151  1  0  0  0
 54 55  2  0  0  0
 54 56  1  0  0  0
 56 57  1  0  0  0
 56152  1  0  0  0
 57 58  1  0  0  0
 57 60  1  0  0  0
 57153  1  0  0  0
 58 59  2  0  0  0
 58 65  1  0  0  0
 60 61  1  0  0  0
 60154  1  0  0  0
 60155  1  0  0  0
 61 62  1  0  0  0
 61156  1  0  0  0
 61157  1  0  0  0
 62 63  2  0  0  0
 62 64  1  0  0  0
 64158  1  0  0  0
 64159  1  0  0  0
 65 66  1  0  0  0
 65160  1  0  0  0
 66 67  1  0  0  0
 66 69  1  0  0  0
 66161  1  0  0  0
 67 68  2  0  0  0
 67 71  1  0  0  0
 69 70  1  0  0  0
 69162  1  0  0  0
 69163  1  0  0  0
 70164  1  0  0  0
 71 72  1  0  0  0
 71165  1  0  0  0
 72 73  1  0  0  0
 72 75  1  0  0  0
 72166  1  0  0  0
 73 74  2  0  0  0
 73 82  1  0  0  0
 75 76  1  0  0  0
 75167  1  0  0  0
 75168  1  0  0  0
 76 77  2  0  0  0
 76 78  1  0  0  0
 77 79  1  0  0  0
 77169  1  0  0  0
 78 80  2  0  0  0
 78170  1  0  0  0
 79 81  2  0  0  0
 79171  1  0  0  0
 80 81  1  0  0  0
 80172  1  0  0  0
 81173  1  0  0  0
 82 83  1  0  0  0
 82174  1  0  0  0
 83 84  1  0  0  0
 83 86  1  0  0  0
 83175  1  0  0  0
 84 85  2  0  0  0
 84 93  1  0  0  0
 86 87  1  0  0  0
 86176  1  0  0  0
 86177  1  0  0  0
 87 88  1  0  0  0
 87178  1  0  0  0
 87179  1  0  0  0
 88 89  1  0  0  0
 88180  1  0  0  0
 88181  1  0  0  0
 89 90  1  0  0  0
 89182  1  0  0  0
 90 91  2  0  0  0
 90 92  1  0  0  0
 91183  1  0  0  0
 92184  1  0  0  0
 92185  1  0  0  0
 93 94  1  0  0  0
 93186  1  0  0  0
 94 95  1  0  0  0
 94 98  1  0  0  0
 94187  1  0  0  0
 95 96  1  0  0  0
 95188  1  0  0  0
 95189  1  0  0  0
 96190  1  0  0  0
 97 98  1  0  0  0
 97191  1  0  0  0
 97192  1  0  0  0
 98 99  2  0  0  0
M  CHG  1   1   1
M  END
> <s_m_source_file>
../3twv_ligand.sdf

> <i_m_source_file_index>
1

> <s_epik_input>
Tz1DKFtOSDJdKVtDSDJdW0NIMl1bQ0BIXShbTkgzK10pQyg9TylbTkhdW0NAQEhdKFtDSDJdW0NIMl1bQ0gyXVtOSF0vQyg9TlxbSF0pW05IMl0pQyg9TylbTkhdW0NAQEhdKFtDQEhdKFtPSF0pW0NIM10pQyg9TylbTkhdW0NAQEhdKFtDSDJdW0NIMl1DKD1PKVtOSDJdKUMoPU8pTjFbQ0BASF0oW0NIMl1bQ0gyXVtDSDJdMSlDKD1PKVtOSF1bQ0BASF0oW0NIMl1DKD1PKVtPSF0pQyg9TylbTkhdW0NIMl1DKD1PKVtOSF1bQ0BASF0oW0NIMl1bQ0gyXUMoPU8pW05IMl0pQyg9TylbTkhdW0NAQEhdKFtDSDJdW09IXSlDKD1PKVtOSF1bQ0BASF0oW0NIMl1jMltjSF1bY0hdW2NIXVtjSF1bY0hdMilDKD1PKVtOSF1bQ0BIXShDKD1PKVtOSF1bQ0BASF0oW0NIMl1bT0hdKUMoPU8pW05IMl0pW0NIMl1bQ0gyXVtDSDJdW05IXS9DKD1OXFtIXSlbTkgyXQ==

> <s_epik_cmdline>
J2VwaWtfYXBwJywgJy1pbWFlJywgJ2xpZ2FuZF9wcm8ubWFlJywgJy1vbWFlJywgJ2xpZ2FuZF9wcmVwLm1hZScsICctbXMnLCAnMScsICctcGgnLCAnNycsICctcGh0JywgJzAuNScsICctbnQn

> <s_epik_pKa_notes>
Molecule size exceeds maximum supported for generating protonation states

> <s_epik_Chemistry_Notes>
This compound has an imine and may undergo hydrolysis.

$$$$
