3tww_ligand
                    3D
 Schrodinger Suite 2020-3.
189190  0  0  1  0            999 V2000
   10.7350  -12.9780    4.1480 N   0  3  0  0  0  0
   11.0580  -11.9260    3.1930 C   0  0  2  0  0  0
    9.8270  -11.0820    2.8700 C   0  0  0  0  0  0
    8.6910  -11.5090    3.0700 O   0  0  0  0  0  0
   11.6480  -12.5180    1.9090 C   0  0  0  0  0  0
   12.1200  -11.4860    0.9000 C   0  0  0  0  0  0
   13.2450  -10.6220    1.4350 C   0  0  0  0  0  0
   13.0280   -9.4810    1.8400 O   0  0  0  0  0  0
   14.4570  -11.1650    1.4370 N   0  0  0  0  0  0
   10.0680   -9.8790    2.3660 N   0  0  0  0  0  0
    8.9960   -8.9490    2.0490 C   0  0  2  0  0  0
    8.3040   -9.3940    0.7660 C   0  0  0  0  0  0
    8.9670   -9.7700   -0.1940 O   0  0  0  0  0  0
    9.5670   -7.5360    1.8940 C   0  0  0  0  0  0
    8.5200   -6.4570    1.8140 C   0  0  0  0  0  0
    9.1210   -5.0590    1.8560 C   0  0  0  0  0  0
    8.0570   -4.0820    1.6730 N   0  0  0  0  0  0
    7.7180   -3.5500    0.5040 C   0  0  0  0  0  0
    8.3900   -3.8740   -0.5880 N   0  0  0  0  0  0
    6.7130   -2.6850    0.4300 N   0  0  0  0  0  0
    6.9760   -9.3620    0.7470 N   0  0  0  0  0  0
    6.2460   -9.8410   -0.4200 C   0  0  2  0  0  0
    5.3880   -8.7620   -1.0700 C   0  0  0  0  0  0
    5.0590   -7.7600   -0.4440 O   0  0  0  0  0  0
    5.3720  -11.0300   -0.0440 C   0  0  0  0  0  0
    6.1470  -12.2400    0.3970 C   0  0  0  0  0  0
    5.4590  -13.5180   -0.0080 C   0  0  0  0  0  0
    4.5700  -14.0070    0.6930 O   0  0  0  0  0  0
    5.8550  -14.0660   -1.1560 N   0  0  0  0  0  0
    5.0280   -8.9830   -2.3330 N   0  0  0  0  0  0
    4.2220   -8.0240   -3.0780 C   0  0  2  0  0  0
    2.8360   -7.8510   -2.4720 C   0  0  0  0  0  0
    2.2450   -8.8040   -1.9580 O   0  0  0  0  0  0
    4.0740   -8.4660   -4.5400 C   0  0  0  0  0  0
    5.3340   -8.5370   -5.1750 O   0  0  0  0  0  0
    2.3090   -6.6240   -2.5390 N   0  0  0  0  0  0
    0.9270   -6.4070   -2.1210 C   0  0  2  0  0  0
   -0.0200   -7.0370   -3.1380 C   0  0  0  0  0  0
    0.3750   -7.3030   -4.2660 O   0  0  0  0  0  0
    0.7880   -4.8780   -2.1230 C   0  0  0  0  0  0
    1.8910   -4.3750   -2.9490 C   0  0  0  0  0  0
    2.9650   -5.3960   -3.0160 C   0  0  0  0  0  0
   -1.2530   -7.2940   -2.7320 N   0  0  0  0  0  0
   -2.2580   -7.7540   -3.6720 C   0  0  2  0  0  0
   -2.5170   -6.6740   -4.7010 C   0  0  0  0  0  0
   -2.7270   -5.5210   -4.3540 O   0  0  0  0  0  0
   -3.5520   -8.0910   -2.9230 C   0  0  0  0  0  0
   -3.4630   -9.4170   -2.1980 C   0  0  0  0  0  0
   -2.9860  -10.3760   -2.8290 O   0  0  0  0  0  0
   -3.8330   -9.5000   -1.0090 O   0  0  0  0  0  0
   -2.5090   -7.0460   -5.9720 N   0  0  0  0  0  0
   -2.8070   -6.0870   -7.0190 C   0  0  0  0  0  0
   -2.1250   -6.4600   -8.3080 C   0  0  0  0  0  0
   -1.5630   -7.5530   -8.4400 O   0  0  0  0  0  0
   -2.1960   -5.5590   -9.2750 N   0  0  0  0  0  0
   -1.4620   -5.7170  -10.5220 C   0  0  2  0  0  0
   -1.4550   -4.4080  -11.2700 C   0  0  0  0  0  0
   -2.3490   -3.5760  -11.0910 O   0  0  0  0  0  0
   -1.9800   -6.8720  -11.3990 C   0  0  0  0  0  0
   -3.3720   -6.7370  -11.9440 C   0  0  0  0  0  0
   -3.7520   -7.9300  -12.8240 C   0  0  0  0  0  0
   -3.5270   -9.0860  -12.4590 O   0  0  0  0  0  0
   -4.3190   -7.6500  -13.9900 N   0  0  0  0  0  0
   -0.4310   -4.2380  -12.0970 N   0  0  0  0  0  0
   -0.1640   -2.9580  -12.7520 C   0  0  2  0  0  0
   -1.1980   -2.6560  -13.8320 C   0  0  0  0  0  0
   -1.6650   -1.5260  -13.9460 O   0  0  0  0  0  0
    1.2380   -2.9660  -13.3670 C   0  0  0  0  0  0
    2.2060   -2.8610  -12.3470 O   0  0  0  0  0  0
   -1.5260   -3.6710  -14.6370 N   0  0  0  0  0  0
   -2.4600   -3.5000  -15.7490 C   0  0  2  0  0  0
   -3.7310   -4.3180  -15.5830 C   0  0  0  0  0  0
   -3.7010   -5.5010  -15.2180 O   0  0  0  0  0  0
   -1.7840   -3.8210  -17.0760 C   0  0  0  0  0  0
   -0.6210   -2.9500  -17.3620 C   0  0  0  0  0  0
   -0.7920   -1.5810  -17.5040 C   0  0  0  0  0  0
    0.6470   -3.4810  -17.4710 C   0  0  0  0  0  0
    0.2740   -0.7600  -17.7560 C   0  0  0  0  0  0
    1.7260   -2.6610  -17.7270 C   0  0  0  0  0  0
    1.5390   -1.2950  -17.8680 C   0  0  0  0  0  0
   -4.8550   -3.6790  -15.8630 N   0  0  0  0  0  0
   -6.1400   -4.3550  -15.7930 C   0  0  2  0  0  0
   -6.2310   -5.4860  -16.8150 C   0  0  0  0  0  0
   -6.8480   -6.5090  -16.5390 O   0  0  0  0  0  0
   -7.2960   -3.3640  -15.9620 C   0  0  0  0  0  0
   -7.5880   -2.5470  -14.7000 C   0  0  0  0  0  0
   -7.4290   -1.0510  -14.9990 C   0  0  0  0  0  0
   -8.6010   -0.5190  -15.6720 N   0  0  0  0  0  0
   -8.6130    0.5720  -16.4370 C   0  0  0  0  0  0
   -9.7490    0.9590  -16.9920 N   0  0  0  0  0  0
   -7.5020    1.2730  -16.6530 N   0  0  0  0  0  0
   -5.5960   -5.3000  -17.9720 N   0  0  0  0  0  0
   -5.6430   -6.2820  -19.0740 C   0  0  1  0  0  0
   -5.2810   -5.6060  -20.3990 C   0  0  0  0  0  0
   -3.9490   -5.1100  -20.3220 O   0  0  0  0  0  0
   -4.9050   -8.5350  -19.5410 N   0  0  0  0  0  0
   -4.6530   -7.4320  -18.8420 C   0  0  0  0  0  0
   -3.7040   -7.3070  -18.0710 O   0  0  0  0  0  0
   10.3139  -12.5290    5.0596 H   0  0  0  0  0  0
   11.6485  -13.5356    4.4022 H   0  0  0  0  0  0
    9.9988  -13.6636    3.7031 H   0  0  0  0  0  0
   11.8089  -11.3029    3.7008 H   0  0  0  0  0  0
   12.5183  -13.1425    2.1593 H   0  0  0  0  0  0
   10.8877  -13.1334    1.4058 H   0  0  0  0  0  0
   12.4857  -11.9967   -0.0030 H   0  0  0  0  0  0
   11.2827  -10.8243    0.6333 H   0  0  0  0  0  0
   14.6011  -12.1899    1.0643 H   0  0  0  0  0  0
   15.3167  -10.5899    1.8113 H   0  0  0  0  0  0
   11.1151   -9.5924    2.1888 H   0  0  0  0  0  0
    8.2846   -8.9774    2.8875 H   0  0  0  0  0  0
   10.2078   -7.3028    2.7571 H   0  0  0  0  0  0
   10.1616   -7.4801    0.9702 H   0  0  0  0  0  0
    7.9610   -6.5576    0.8720 H   0  0  0  0  0  0
    7.8277   -6.5541    2.6633 H   0  0  0  0  0  0
    9.6093   -4.8989    2.8286 H   0  0  0  0  0  0
    9.8637   -4.9548    1.0513 H   0  0  0  0  0  0
    7.4722   -3.7370    2.5385 H   0  0  0  0  0  0
    9.2228   -4.5902   -0.5291 H   0  0  0  0  0  0
    6.1526   -2.4140    1.3370 H   0  0  0  0  0  0
    6.4409   -2.2395   -0.5383 H   0  0  0  0  0  0
    6.4274   -8.9719    1.6170 H   0  0  0  0  0  0
    7.0378  -10.1326   -1.1257 H   0  0  0  0  0  0
    4.7075  -10.7486    0.7862 H   0  0  0  0  0  0
    4.7670  -11.3296   -0.9125 H   0  0  0  0  0  0
    7.1461  -12.2231   -0.0628 H   0  0  0  0  0  0
    6.2473  -12.2320    1.4924 H   0  0  0  0  0  0
    6.6529  -13.5911   -1.7458 H   0  0  0  0  0  0
    5.3841  -14.9934   -1.5140 H   0  0  0  0  0  0
    5.3546   -9.9173   -2.8130 H   0  0  0  0  0  0
    4.7813   -7.0806   -2.9927 H   0  0  0  0  0  0
    3.6029   -9.4593   -4.5768 H   0  0  0  0  0  0
    3.4460   -7.7422   -5.0801 H   0  0  0  0  0  0
    5.4018   -8.8401   -6.2302 H   0  0  0  0  0  0
    0.7258   -6.8707   -1.1440 H   0  0  0  0  0  0
   -0.1873   -4.5991   -2.5484 H   0  0  0  0  0  0
    0.8593   -4.5020   -1.0917 H   0  0  0  0  0  0
    1.5224   -4.1638   -3.9637 H   0  0  0  0  0  0
    2.2905   -3.4516   -2.5044 H   0  0  0  0  0  0
    3.8123   -5.1536   -2.3578 H   0  0  0  0  0  0
    3.3302   -5.5502   -4.0421 H   0  0  0  0  0  0
   -1.5133   -7.1562   -1.6722 H   0  0  0  0  0  0
   -1.8500   -8.6496   -4.1634 H   0  0  0  0  0  0
   -3.7597   -7.3077   -2.1792 H   0  0  0  0  0  0
   -4.3857   -8.1476   -3.6384 H   0  0  0  0  0  0
   -3.7697  -10.4619   -0.4792 H   0  0  0  0  0  0
   -2.2747   -8.0889   -6.2318 H   0  0  0  0  0  0
   -3.8930   -6.0584   -7.1918 H   0  0  0  0  0  0
   -2.4581   -5.0897   -6.7129 H   0  0  0  0  0  0
   -2.8297   -4.6736   -9.1182 H   0  0  0  0  0  0
   -0.4385   -5.9735  -10.2112 H   0  0  0  0  0  0
   -1.3270   -6.9873  -12.2767 H   0  0  0  0  0  0
   -1.9783   -7.8046  -10.8157 H   0  0  0  0  0  0
   -4.0879   -6.6788  -11.1109 H   0  0  0  0  0  0
   -3.4409   -5.8224  -12.5512 H   0  0  0  0  0  0
   -4.5014   -6.6035  -14.2757 H   0  0  0  0  0  0
   -4.6068   -8.4643  -14.6713 H   0  0  0  0  0  0
    0.2274   -5.0992  -12.2836 H   0  0  0  0  0  0
   -0.2413   -2.2031  -11.9557 H   0  0  0  0  0  0
    1.3909   -3.9051  -13.9190 H   0  0  0  0  0  0
    1.3410   -2.1147  -14.0560 H   0  0  0  0  0  0
    3.2758   -2.8508  -12.6029 H   0  0  0  0  0  0
   -1.0732   -4.6550  -14.4454 H   0  0  0  0  0  0
   -2.7354   -2.4358  -15.7092 H   0  0  0  0  0  0
   -1.4258   -4.8610  -17.0629 H   0  0  0  0  0  0
   -2.5059   -3.6922  -17.8959 H   0  0  0  0  0  0
   -1.7901   -1.1524  -17.4136 H   0  0  0  0  0  0
    0.7973   -4.5543  -17.3542 H   0  0  0  0  0  0
    0.1227    0.3136  -17.8677 H   0  0  0  0  0  0
    2.7251   -3.0870  -17.8184 H   0  0  0  0  0  0
    2.3910   -0.6450  -18.0671 H   0  0  0  0  0  0
   -4.8063   -2.6189  -16.1526 H   0  0  0  0  0  0
   -6.1705   -4.7851  -14.7810 H   0  0  0  0  0  0
   -7.0552   -2.6534  -16.7664 H   0  0  0  0  0  0
   -8.2142   -3.9122  -16.2197 H   0  0  0  0  0  0
   -8.6177   -2.7431  -14.3664 H   0  0  0  0  0  0
   -6.8840   -2.8353  -13.9055 H   0  0  0  0  0  0
   -7.2877   -0.5017  -14.0565 H   0  0  0  0  0  0
   -6.5538   -0.8977  -15.6475 H   0  0  0  0  0  0
   -9.5720   -1.0253  -15.5682 H   0  0  0  0  0  0
  -10.6704    0.3840  -16.8174 H   0  0  0  0  0  0
   -6.5538    0.9562  -16.1941 H   0  0  0  0  0  0
   -7.5322    2.1690  -17.2904 H   0  0  0  0  0  0
   -5.0199   -4.3701  -18.0881 H   0  0  0  0  0  0
   -6.6769   -6.6574  -19.0807 H   0  0  0  0  0  0
   -5.3559   -6.3381  -21.2166 H   0  0  0  0  0  0
   -5.9749   -4.7735  -20.5875 H   0  0  0  0  0  0
   -3.5057   -4.5884  -21.1831 H   0  0  0  0  0  0
   -5.7752   -8.5736  -20.2128 H   0  0  0  0  0  0
   -4.2433   -9.4087  -19.4473 H   0  0  0  0  0  0
  1  2  1  0  0  0
  1 99  1  0  0  0
  1100  1  0  0  0
  1101  1  0  0  0
  2  3  1  0  0  0
  2  5  1  0  0  0
  2102  1  0  0  0
  3  4  2  0  0  0
  3 10  1  0  0  0
  5  6  1  0  0  0
  5103  1  0  0  0
  5104  1  0  0  0
  6  7  1  0  0  0
  6105  1  0  0  0
  6106  1  0  0  0
  7  8  2  0  0  0
  7  9  1  0  0  0
  9107  1  0  0  0
  9108  1  0  0  0
 10 11  1  0  0  0
 10109  1  0  0  0
 11 12  1  0  0  0
 11 14  1  0  0  0
 11110  1  0  0  0
 12 13  2  0  0  0
 12 21  1  0  0  0
 14 15  1  0  0  0
 14111  1  0  0  0
 14112  1  0  0  0
 15 16  1  0  0  0
 15113  1  0  0  0
 15114  1  0  0  0
 16 17  1  0  0  0
 16115  1  0  0  0
 16116  1  0  0  0
 17 18  1  0  0  0
 17117  1  0  0  0
 18 19  2  0  0  0
 18 20  1  0  0  0
 19118  1  0  0  0
 20119  1  0  0  0
 20120  1  0  0  0
 21 22  1  0  0  0
 21121  1  0  0  0
 22 23  1  0  0  0
 22 25  1  0  0  0
 22122  1  0  0  0
 23 24  2  0  0  0
 23 30  1  0  0  0
 25 26  1  0  0  0
 25123  1  0  0  0
 25124  1  0  0  0
 26 27  1  0  0  0
 26125  1  0  0  0
 26126  1  0  0  0
 27 28  2  0  0  0
 27 29  1  0  0  0
 29127  1  0  0  0
 29128  1  0  0  0
 30 31  1  0  0  0
 30129  1  0  0  0
 31 32  1  0  0  0
 31 34  1  0  0  0
 31130  1  0  0  0
 32 33  2  0  0  0
 32 36  1  0  0  0
 34 35  1  0  0  0
 34131  1  0  0  0
 34132  1  0  0  0
 35133  1  0  0  0
 36 37  1  0  0  0
 36 42  1  0  0  0
 37 38  1  0  0  0
 37 40  1  0  0  0
 37134  1  0  0  0
 38 39  2  0  0  0
 38 43  1  0  0  0
 40 41  1  0  0  0
 40135  1  0  0  0
 40136  1  0  0  0
 41 42  1  0  0  0
 41137  1  0  0  0
 41138  1  0  0  0
 42139  1  0  0  0
 42140  1  0  0  0
 43 44  1  0  0  0
 43141  1  0  0  0
 44 45  1  0  0  0
 44 47  1  0  0  0
 44142  1  0  0  0
 45 46  2  0  0  0
 45 51  1  0  0  0
 47 48  1  0  0  0
 47143  1  0  0  0
 47144  1  0  0  0
 48 49  2  0  0  0
 48 50  1  0  0  0
 50145  1  0  0  0
 51 52  1  0  0  0
 51146  1  0  0  0
 52 53  1  0  0  0
 52147  1  0  0  0
 52148  1  0  0  0
 53 54  2  0  0  0
 53 55  1  0  0  0
 55 56  1  0  0  0
 55149  1  0  0  0
 56 57  1  0  0  0
 56 59  1  0  0  0
 56150  1  0  0  0
 57 58  2  0  0  0
 57 64  1  0  0  0
 59 60  1  0  0  0
 59151  1  0  0  0
 59152  1  0  0  0
 60 61  1  0  0  0
 60153  1  0  0  0
 60154  1  0  0  0
 61 62  2  0  0  0
 61 63  1  0  0  0
 63155  1  0  0  0
 63156  1  0  0  0
 64 65  1  0  0  0
 64157  1  0  0  0
 65 66  1  0  0  0
 65 68  1  0  0  0
 65158  1  0  0  0
 66 67  2  0  0  0
 66 70  1  0  0  0
 68 69  1  0  0  0
 68159  1  0  0  0
 68160  1  0  0  0
 69161  1  0  0  0
 70 71  1  0  0  0
 70162  1  0  0  0
 71 72  1  0  0  0
 71 74  1  0  0  0
 71163  1  0  0  0
 72 73  2  0  0  0
 72 81  1  0  0  0
 74 75  1  0  0  0
 74164  1  0  0  0
 74165  1  0  0  0
 75 76  2  0  0  0
 75 77  1  0  0  0
 76 78  1  0  0  0
 76166  1  0  0  0
 77 79  2  0  0  0
 77167  1  0  0  0
 78 80  2  0  0  0
 78168  1  0  0  0
 79 80  1  0  0  0
 79169  1  0  0  0
 80170  1  0  0  0
 81 82  1  0  0  0
 81171  1  0  0  0
 82 83  1  0  0  0
 82 85  1  0  0  0
 82172  1  0  0  0
 83 84  2  0  0  0
 83 92  1  0  0  0
 85 86  1  0  0  0
 85173  1  0  0  0
 85174  1  0  0  0
 86 87  1  0  0  0
 86175  1  0  0  0
 86176  1  0  0  0
 87 88  1  0  0  0
 87177  1  0  0  0
 87178  1  0  0  0
 88 89  1  0  0  0
 88179  1  0  0  0
 89 90  2  0  0  0
 89 91  1  0  0  0
 90180  1  0  0  0
 91181  1  0  0  0
 91182  1  0  0  0
 92 93  1  0  0  0
 92183  1  0  0  0
 93 94  1  0  0  0
 93 97  1  0  0  0
 93184  1  0  0  0
 94 95  1  0  0  0
 94185  1  0  0  0
 94186  1  0  0  0
 95187  1  0  0  0
 96 97  1  0  0  0
 96188  1  0  0  0
 96189  1  0  0  0
 97 98  2  0  0  0
M  CHG  1   1   1
M  END
> <s_m_source_file>
../3tww_ligand.sdf

> <i_m_source_file_index>
1

> <s_epik_input>
Tz1DKFtOSDJdKVtDSDJdW0NIMl1bQ0BIXShbTkgzK10pQyg9TylbTkhdW0NAQEhdKFtDSDJdW0NIMl1bQ0gyXVtOSF0vQyg9TlxbSF0pW05IMl0pQyg9TylbTkhdW0NAQEhdKFtDSDJdW0NIMl1DKD1PKVtOSDJdKUMoPU8pW05IXVtDQEBIXShbQ0gyXVtPSF0pQyg9TylOMVtDQEBIXShbQ0gyXVtDSDJdW0NIMl0xKUMoPU8pW05IXVtDQEBIXShbQ0gyXUMoPU8pW09IXSlDKD1PKVtOSF1bQ0gyXUMoPU8pW05IXVtDQEBIXShbQ0gyXVtDSDJdQyg9TylbTkgyXSlDKD1PKVtOSF1bQ0BASF0oW0NIMl1bT0hdKUMoPU8pW05IXVtDQEBIXShbQ0gyXWMyW2NIXVtjSF1bY0hdW2NIXVtjSF0yKUMoPU8pW05IXVtDQEhdKEMoPU8pW05IXVtDQEBIXShbQ0gyXVtPSF0pQyg9TylbTkgyXSlbQ0gyXVtDSDJdW0NIMl1bTkhdL0MoPU5cW0hdKVtOSDJd

> <s_epik_cmdline>
J2VwaWtfYXBwJywgJy1pbWFlJywgJ2xpZ2FuZF9wcm8ubWFlJywgJy1vbWFlJywgJ2xpZ2FuZF9wcmVwLm1hZScsICctbXMnLCAnMScsICctcGgnLCAnNycsICctcGh0JywgJzAuNScsICctbnQn

> <s_epik_pKa_notes>
Molecule size exceeds maximum supported for generating protonation states

> <s_epik_Chemistry_Notes>
This compound has an imine and may undergo hydrolysis.

$$$$
