3twx_ligand
                    3D
 Schrodinger Suite 2020-3.
188189  0  0  1  0            999 V2000
  -32.4460  -13.5520  -55.6260 N   0  3  0  0  0  0
  -32.8090  -12.2560  -55.0610 C   0  0  2  0  0  0
  -31.5890  -11.3740  -54.7720 C   0  0  0  0  0  0
  -30.4410  -11.7570  -55.0060 O   0  0  0  0  0  0
  -33.6220  -12.4380  -53.7740 C   0  0  0  0  0  0
  -34.9380  -13.1790  -53.9470 C   0  0  0  0  0  0
  -36.0130  -12.3230  -54.5850 C   0  0  0  0  0  0
  -35.7300  -11.2700  -55.1570 O   0  0  0  0  0  0
  -37.2600  -12.7680  -54.4830 N   0  0  0  0  0  0
  -31.8630  -10.1870  -54.2470 N   0  0  0  0  0  0
  -30.8310   -9.2180  -53.9100 C   0  0  2  0  0  0
  -30.2190   -9.5530  -52.5530 C   0  0  0  0  0  0
  -30.9200   -9.6120  -51.5470 O   0  0  0  0  0  0
  -31.4560   -7.8230  -53.8810 C   0  0  0  0  0  0
  -30.5030   -6.7060  -53.5660 C   0  0  0  0  0  0
  -31.1830   -5.3520  -53.6930 C   0  0  0  0  0  0
  -30.2010   -4.2900  -53.5400 N   0  0  0  0  0  0
  -29.8390   -3.7670  -52.3750 C   0  0  0  0  0  0
  -30.3990   -4.1880  -51.2430 N   0  0  0  0  0  0
  -28.9160   -2.8150  -52.3450 N   0  0  0  0  0  0
  -28.9120   -9.7760  -52.5140 N   0  0  0  0  0  0
  -28.2690  -10.1350  -51.2600 C   0  0  2  0  0  0
  -27.4780   -8.9610  -50.6950 C   0  0  0  0  0  0
  -27.1570   -8.0240  -51.4150 O   0  0  0  0  0  0
  -27.3680  -11.3550  -51.4550 C   0  0  0  0  0  0
  -28.1000  -12.5780  -51.9720 C   0  0  0  0  0  0
  -27.2090  -13.8040  -52.0110 C   0  0  0  0  0  0
  -25.9710  -13.6420  -51.9380 O   0  0  0  0  0  0
  -27.7430  -14.9280  -52.1040 O   0  0  0  0  0  0
  -27.1680   -9.0140  -49.4060 N   0  0  0  0  0  0
  -26.4710   -7.9050  -48.7390 C   0  0  2  0  0  0
  -25.0300   -7.7260  -49.2180 C   0  0  0  0  0  0
  -24.3840   -8.6760  -49.6360 O   0  0  0  0  0  0
  -26.4920   -8.1020  -47.2220 C   0  0  0  0  0  0
  -25.7950   -9.2810  -46.8670 O   0  0  0  0  0  0
  -24.5080   -6.4940  -49.1390 N   0  0  0  0  0  0
  -23.1220   -6.2760  -49.5630 C   0  0  2  0  0  0
  -22.1610   -7.0370  -48.6400 C   0  0  0  0  0  0
  -22.5360   -7.3670  -47.5040 O   0  0  0  0  0  0
  -22.9260   -4.7580  -49.3720 C   0  0  0  0  0  0
  -24.2870   -4.1950  -49.0850 C   0  0  0  0  0  0
  -25.1040   -5.3000  -48.5200 C   0  0  0  0  0  0
  -20.9440   -7.3060  -49.1030 N   0  0  0  0  0  0
  -19.9030   -7.7950  -48.1930 C   0  0  2  0  0  0
  -19.5950   -6.7410  -47.1300 C   0  0  0  0  0  0
  -19.3450   -5.5770  -47.4460 O   0  0  0  0  0  0
  -18.6330   -8.1670  -48.9610 C   0  0  0  0  0  0
  -18.7240   -9.5380  -49.5950 C   0  0  0  0  0  0
  -19.2720  -10.4500  -48.9400 O   0  0  0  0  0  0
  -18.2640   -9.6990  -50.7420 O   0  0  0  0  0  0
  -19.6230   -7.1450  -45.8630 N   0  0  0  0  0  0
  -19.3080   -6.2290  -44.7810 C   0  0  0  0  0  0
  -20.0790   -6.5630  -43.5180 C   0  0  0  0  0  0
  -20.7770   -7.5840  -43.4590 O   0  0  0  0  0  0
  -19.9210   -5.7270  -42.5000 N   0  0  0  0  0  0
  -20.7050   -5.8460  -41.2790 C   0  0  2  0  0  0
  -20.6870   -4.5290  -40.5100 C   0  0  0  0  0  0
  -19.7950   -3.6990  -40.6990 O   0  0  0  0  0  0
  -20.2190   -7.0100  -40.4030 C   0  0  0  0  0  0
  -18.8440   -6.8130  -39.7800 C   0  0  0  0  0  0
  -18.3180   -8.0920  -39.1230 C   0  0  0  0  0  0
  -18.5300   -9.1910  -39.6300 O   0  0  0  0  0  0
  -17.6330   -7.9480  -37.9920 N   0  0  0  0  0  0
  -21.6810   -4.3410  -39.6510 N   0  0  0  0  0  0
  -21.8830   -3.0480  -39.0220 C   0  0  2  0  0  0
  -20.8400   -2.7500  -37.9580 C   0  0  0  0  0  0
  -20.4180   -1.6020  -37.7990 O   0  0  0  0  0  0
  -23.2840   -2.9710  -38.4210 C   0  0  0  0  0  0
  -24.2540   -3.0830  -39.4390 O   0  0  0  0  0  0
  -20.4580   -3.7710  -37.2020 N   0  0  0  0  0  0
  -19.5560   -3.5580  -36.0780 C   0  0  2  0  0  0
  -18.2970   -4.3770  -36.2360 C   0  0  0  0  0  0
  -18.3510   -5.5560  -36.5930 O   0  0  0  0  0  0
  -20.2470   -3.8980  -34.7580 C   0  0  0  0  0  0
  -21.4330   -3.0210  -34.4620 C   0  0  0  0  0  0
  -21.2500   -1.7090  -34.0760 C   0  0  0  0  0  0
  -22.7260   -3.4940  -34.6140 C   0  0  0  0  0  0
  -22.3250   -0.8850  -33.8010 C   0  0  0  0  0  0
  -23.8110   -2.6710  -34.3460 C   0  0  0  0  0  0
  -23.6040   -1.3620  -33.9380 C   0  0  0  0  0  0
  -17.1670   -3.7430  -35.9640 N   0  0  0  0  0  0
  -15.8830   -4.4070  -36.0510 C   0  0  2  0  0  0
  -15.8060   -5.5240  -35.0120 C   0  0  0  0  0  0
  -15.2120   -6.5700  -35.2660 O   0  0  0  0  0  0
  -14.7340   -3.4100  -35.8960 C   0  0  0  0  0  0
  -14.5320   -2.5330  -37.1310 C   0  0  0  0  0  0
  -14.5200   -1.0270  -36.7620 C   0  0  0  0  0  0
  -13.2230   -0.6200  -36.2690 N   0  0  0  0  0  0
  -12.9790    0.4880  -35.5710 C   0  0  0  0  0  0
  -11.7480    0.7490  -35.1730 N   0  0  0  0  0  0
  -13.9560    1.3350  -35.2740 N   0  0  0  0  0  0
  -16.4360   -5.3240  -33.8560 N   0  0  0  0  0  0
  -16.3800   -6.3510  -32.7940 C   0  0  1  0  0  0
  -16.7120   -5.7670  -31.4200 C   0  0  0  0  0  0
  -18.0380   -5.2470  -31.4440 O   0  0  0  0  0  0
  -17.2240   -8.5560  -32.3610 N   0  0  0  0  0  0
  -17.3640   -7.4960  -33.1350 C   0  0  0  0  0  0
  -18.2020   -7.4120  -34.0400 O   0  0  0  0  0  0
  -31.8642  -13.4004  -56.5472 H   0  0  0  0  0  0
  -33.3592  -14.1195  -55.8583 H   0  0  0  0  0  0
  -31.8410  -14.1127  -54.8983 H   0  0  0  0  0  0
  -33.4124  -11.7889  -55.8533 H   0  0  0  0  0  0
  -33.0306  -13.0109  -53.0446 H   0  0  0  0  0  0
  -33.8678  -11.4519  -53.3530 H   0  0  0  0  0  0
  -34.7822  -14.0578  -54.5899 H   0  0  0  0  0  0
  -35.3073  -13.5051  -52.9635 H   0  0  0  0  0  0
  -37.4652  -13.7151  -53.9624 H   0  0  0  0  0  0
  -38.0878  -12.1896  -54.9191 H   0  0  0  0  0  0
  -32.9216   -9.9477  -54.0680 H   0  0  0  0  0  0
  -30.0561   -9.2855  -54.6878 H   0  0  0  0  0  0
  -31.8924   -7.5962  -54.8649 H   0  0  0  0  0  0
  -32.2439   -7.7901  -53.1141 H   0  0  0  0  0  0
  -30.1340   -6.8184  -52.5359 H   0  0  0  0  0  0
  -29.6545   -6.7398  -54.2652 H   0  0  0  0  0  0
  -31.6552   -5.2703  -54.6831 H   0  0  0  0  0  0
  -31.9506   -5.2524  -52.9114 H   0  0  0  0  0  0
  -29.7049   -3.8678  -54.4263 H   0  0  0  0  0  0
  -31.1644   -4.9776  -51.2685 H   0  0  0  0  0  0
  -30.0963   -3.7463  -50.2821 H   0  0  0  0  0  0
  -28.4536   -2.4675  -53.2807 H   0  0  0  0  0  0
  -28.3143   -9.6888  -53.4333 H   0  0  0  0  0  0
  -29.0891  -10.3797  -50.5689 H   0  0  0  0  0  0
  -26.5781  -11.1150  -52.1819 H   0  0  0  0  0  0
  -26.9101  -11.6301  -50.4934 H   0  0  0  0  0  0
  -28.9554  -12.7978  -51.3163 H   0  0  0  0  0  0
  -28.4608  -12.3850  -52.9931 H   0  0  0  0  0  0
  -25.2998  -14.5131  -51.9638 H   0  0  0  0  0  0
  -27.4440   -9.9128  -48.8351 H   0  0  0  0  0  0
  -27.0434   -7.0128  -49.0327 H   0  0  0  0  0  0
  -26.0113   -7.2414  -46.7338 H   0  0  0  0  0  0
  -27.5333   -8.1845  -46.8773 H   0  0  0  0  0  0
  -25.7130   -9.5743  -45.8100 H   0  0  0  0  0  0
  -22.9689   -6.6363  -50.5910 H   0  0  0  0  0  0
  -22.2382   -4.5799  -48.5322 H   0  0  0  0  0  0
  -22.5033   -4.3244  -50.2903 H   0  0  0  0  0  0
  -24.1976   -3.3695  -48.3635 H   0  0  0  0  0  0
  -24.7328   -3.8198  -50.0180 H   0  0  0  0  0  0
  -26.1649   -5.2313  -48.8026 H   0  0  0  0  0  0
  -25.0201   -5.3737  -47.4257 H   0  0  0  0  0  0
  -20.7183   -7.1614  -50.1699 H   0  0  0  0  0  0
  -20.3168   -8.6973  -47.7191 H   0  0  0  0  0  0
  -18.4605   -7.4329  -49.7618 H   0  0  0  0  0  0
  -17.7750   -8.1671  -48.2727 H   0  0  0  0  0  0
  -19.3568  -11.4598  -49.3678 H   0  0  0  0  0  0
  -19.8893   -8.1887  -45.6401 H   0  0  0  0  0  0
  -18.2330   -6.2850  -44.5544 H   0  0  0  0  0  0
  -19.5663   -5.2030  -45.0822 H   0  0  0  0  0  0
  -19.1724   -4.9269  -42.5972 H   0  0  0  0  0  0
  -21.7294   -6.0623  -41.6162 H   0  0  0  0  0  0
  -20.9234   -7.1625  -39.5720 H   0  0  0  0  0  0
  -20.1629   -7.9264  -41.0089 H   0  0  0  0  0  0
  -18.1287   -6.5099  -40.5587 H   0  0  0  0  0  0
  -18.8996   -6.0307  -39.0087 H   0  0  0  0  0  0
  -17.4669   -6.9443  -37.5736 H   0  0  0  0  0  0
  -17.2326   -8.8326  -37.4751 H   0  0  0  0  0  0
  -22.3557   -5.1778  -39.4172 H   0  0  0  0  0  0
  -21.7598   -2.3231  -39.8401 H   0  0  0  0  0  0
  -23.4196   -3.7914  -37.7008 H   0  0  0  0  0  0
  -23.4098   -2.0069  -37.9065 H   0  0  0  0  0  0
  -25.3238   -3.0479  -39.1856 H   0  0  0  0  0  0
  -20.8261   -4.7827  -37.4277 H   0  0  0  0  0  0
  -19.2959   -2.4896  -36.1076 H   0  0  0  0  0  0
  -20.6043   -4.9379  -34.7884 H   0  0  0  0  0  0
  -19.5333   -3.7796  -33.9294 H   0  0  0  0  0  0
  -20.2378   -1.3147  -33.9862 H   0  0  0  0  0  0
  -22.8924   -4.5188  -34.9461 H   0  0  0  0  0  0
  -22.1570    0.1417  -33.4759 H   0  0  0  0  0  0
  -24.8257   -3.0536  -34.4562 H   0  0  0  0  0  0
  -24.4547   -0.7141  -33.7268 H   0  0  0  0  0  0
  -17.2203   -2.6855  -35.6657 H   0  0  0  0  0  0
  -15.8372   -4.8366  -37.0626 H   0  0  0  0  0  0
  -14.9383   -2.7446  -35.0442 H   0  0  0  0  0  0
  -13.7960   -3.9563  -35.7178 H   0  0  0  0  0  0
  -13.5715   -2.7831  -37.6052 H   0  0  0  0  0  0
  -15.3503   -2.7103  -37.8445 H   0  0  0  0  0  0
  -14.7600   -0.4291  -37.6536 H   0  0  0  0  0  0
  -15.2689   -0.8352  -35.9795 H   0  0  0  0  0  0
  -12.3396   -1.2460  -36.4632 H   0  0  0  0  0  0
  -10.9322    0.0519  -35.4151 H   0  0  0  0  0  0
  -14.9847    1.1249  -35.6020 H   0  0  0  0  0  0
  -13.7373    2.2474  -34.6998 H   0  0  0  0  0  0
  -16.9986   -4.3931  -33.6918 H   0  0  0  0  0  0
  -15.3386   -6.7047  -32.7720 H   0  0  0  0  0  0
  -16.6375   -6.5569  -30.6581 H   0  0  0  0  0  0
  -16.0021   -4.9609  -31.1829 H   0  0  0  0  0  0
  -18.4626   -4.7815  -30.5424 H   0  0  0  0  0  0
  -16.4565   -8.5642  -31.5731 H   0  0  0  0  0  0
  -17.8748   -9.4312  -32.5039 H   0  0  0  0  0  0
  1  2  1  0  0  0
  1 99  1  0  0  0
  1100  1  0  0  0
  1101  1  0  0  0
  2  3  1  0  0  0
  2  5  1  0  0  0
  2102  1  0  0  0
  3  4  2  0  0  0
  3 10  1  0  0  0
  5  6  1  0  0  0
  5103  1  0  0  0
  5104  1  0  0  0
  6  7  1  0  0  0
  6105  1  0  0  0
  6106  1  0  0  0
  7  8  2  0  0  0
  7  9  1  0  0  0
  9107  1  0  0  0
  9108  1  0  0  0
 10 11  1  0  0  0
 10109  1  0  0  0
 11 12  1  0  0  0
 11 14  1  0  0  0
 11110  1  0  0  0
 12 13  2  0  0  0
 12 21  1  0  0  0
 14 15  1  0  0  0
 14111  1  0  0  0
 14112  1  0  0  0
 15 16  1  0  0  0
 15113  1  0  0  0
 15114  1  0  0  0
 16 17  1  0  0  0
 16115  1  0  0  0
 16116  1  0  0  0
 17 18  1  0  0  0
 17117  1  0  0  0
 18 19  1  0  0  0
 18 20  2  0  0  0
 19118  1  0  0  0
 19119  1  0  0  0
 20120  1  0  0  0
 21 22  1  0  0  0
 21121  1  0  0  0
 22 23  1  0  0  0
 22 25  1  0  0  0
 22122  1  0  0  0
 23 24  2  0  0  0
 23 30  1  0  0  0
 25 26  1  0  0  0
 25123  1  0  0  0
 25124  1  0  0  0
 26 27  1  0  0  0
 26125  1  0  0  0
 26126  1  0  0  0
 27 28  1  0  0  0
 27 29  2  0  0  0
 28127  1  0  0  0
 30 31  1  0  0  0
 30128  1  0  0  0
 31 32  1  0  0  0
 31 34  1  0  0  0
 31129  1  0  0  0
 32 33  2  0  0  0
 32 36  1  0  0  0
 34 35  1  0  0  0
 34130  1  0  0  0
 34131  1  0  0  0
 35132  1  0  0  0
 36 37  1  0  0  0
 36 42  1  0  0  0
 37 38  1  0  0  0
 37 40  1  0  0  0
 37133  1  0  0  0
 38 39  2  0  0  0
 38 43  1  0  0  0
 40 41  1  0  0  0
 40134  1  0  0  0
 40135  1  0  0  0
 41 42  1  0  0  0
 41136  1  0  0  0
 41137  1  0  0  0
 42138  1  0  0  0
 42139  1  0  0  0
 43 44  1  0  0  0
 43140  1  0  0  0
 44 45  1  0  0  0
 44 47  1  0  0  0
 44141  1  0  0  0
 45 46  2  0  0  0
 45 51  1  0  0  0
 47 48  1  0  0  0
 47142  1  0  0  0
 47143  1  0  0  0
 48 49  1  0  0  0
 48 50  2  0  0  0
 49144  1  0  0  0
 51 52  1  0  0  0
 51145  1  0  0  0
 52 53  1  0  0  0
 52146  1  0  0  0
 52147  1  0  0  0
 53 54  2  0  0  0
 53 55  1  0  0  0
 55 56  1  0  0  0
 55148  1  0  0  0
 56 57  1  0  0  0
 56 59  1  0  0  0
 56149  1  0  0  0
 57 58  2  0  0  0
 57 64  1  0  0  0
 59 60  1  0  0  0
 59150  1  0  0  0
 59151  1  0  0  0
 60 61  1  0  0  0
 60152  1  0  0  0
 60153  1  0  0  0
 61 62  2  0  0  0
 61 63  1  0  0  0
 63154  1  0  0  0
 63155  1  0  0  0
 64 65  1  0  0  0
 64156  1  0  0  0
 65 66  1  0  0  0
 65 68  1  0  0  0
 65157  1  0  0  0
 66 67  2  0  0  0
 66 70  1  0  0  0
 68 69  1  0  0  0
 68158  1  0  0  0
 68159  1  0  0  0
 69160  1  0  0  0
 70 71  1  0  0  0
 70161  1  0  0  0
 71 72  1  0  0  0
 71 74  1  0  0  0
 71162  1  0  0  0
 72 73  2  0  0  0
 72 81  1  0  0  0
 74 75  1  0  0  0
 74163  1  0  0  0
 74164  1  0  0  0
 75 76  2  0  0  0
 75 77  1  0  0  0
 76 78  1  0  0  0
 76165  1  0  0  0
 77 79  2  0  0  0
 77166  1  0  0  0
 78 80  2  0  0  0
 78167  1  0  0  0
 79 80  1  0  0  0
 79168  1  0  0  0
 80169  1  0  0  0
 81 82  1  0  0  0
 81170  1  0  0  0
 82 83  1  0  0  0
 82 85  1  0  0  0
 82171  1  0  0  0
 83 84  2  0  0  0
 83 92  1  0  0  0
 85 86  1  0  0  0
 85172  1  0  0  0
 85173  1  0  0  0
 86 87  1  0  0  0
 86174  1  0  0  0
 86175  1  0  0  0
 87 88  1  0  0  0
 87176  1  0  0  0
 87177  1  0  0  0
 88 89  1  0  0  0
 88178  1  0  0  0
 89 90  2  0  0  0
 89 91  1  0  0  0
 90179  1  0  0  0
 91180  1  0  0  0
 91181  1  0  0  0
 92 93  1  0  0  0
 92182  1  0  0  0
 93 94  1  0  0  0
 93 97  1  0  0  0
 93183  1  0  0  0
 94 95  1  0  0  0
 94184  1  0  0  0
 94185  1  0  0  0
 95186  1  0  0  0
 96 97  1  0  0  0
 96187  1  0  0  0
 96188  1  0  0  0
 97 98  2  0  0  0
M  CHG  1   1   1
M  END
> <s_m_source_file>
../3twx_ligand.sdf

> <i_m_source_file_index>
1

> <s_epik_input>
Tz1DKFtOSDJdKVtDSDJdW0NIMl1bQ0BIXShbTkgzK10pQyg9TylbTkhdW0NAQEhdKFtDSDJdW0NIMl1bQ0gyXVtOSF0vQyhbTkgyXSk9TlxbSF0pQyg9TylbTkhdW0NAQEhdKFtDSDJdW0NIMl1DKD1PKVtPSF0pQyg9TylbTkhdW0NAQEhdKFtDSDJdW09IXSlDKD1PKU4xW0NAQEhdKFtDSDJdW0NIMl1bQ0gyXTEpQyg9TylbTkhdW0NAQEhdKFtDSDJdQyg9TylbT0hdKUMoPU8pW05IXVtDSDJdQyg9TylbTkhdW0NAQEhdKFtDSDJdW0NIMl1DKD1PKVtOSDJdKUMoPU8pW05IXVtDQEBIXShbQ0gyXVtPSF0pQyg9TylbTkhdW0NAQEhdKFtDSDJdYzJbY0hdW2NIXVtjSF1bY0hdW2NIXTIpQyg9TylbTkhdW0NASF0oQyg9TylbTkhdW0NAQEhdKFtDSDJdW09IXSlDKD1PKVtOSDJdKVtDSDJdW0NIMl1bQ0gyXVtOSF0vQyg9TlxbSF0pW05IMl0=

> <s_epik_cmdline>
J2VwaWtfYXBwJywgJy1pbWFlJywgJ2xpZ2FuZF9wcm8ubWFlJywgJy1vbWFlJywgJ2xpZ2FuZF9wcmVwLm1hZScsICctbXMnLCAnMScsICctcGgnLCAnNycsICctcGh0JywgJzAuNScsICctbnQn

> <s_epik_pKa_notes>
Molecule size exceeds maximum supported for generating protonation states

> <s_epik_Chemistry_Notes>
This compound has an imine and may undergo hydrolysis.

$$$$
