3ty0_ligand
                    3D
 Schrodinger Suite 2020-3.
 55 60  0  0  1  0            999 V2000
   18.2580    5.0890   15.2170 C   0  0  0  0  0  0
   19.0460    5.2010   14.0880 C   0  0  0  0  0  0
   18.5860    8.1050    8.5420 C   0  0  0  0  0  0
   12.4090    3.2260   13.0600 C   0  0  0  0  0  0
   17.7500    9.1820    8.7610 C   0  0  0  0  0  0
   18.2610    6.8550    9.0270 C   0  0  0  0  0  0
   16.8800    5.0650   15.1180 C   0  0  0  0  0  0
   18.4940    5.2950   12.8240 C   0  0  0  0  0  0
   11.2010    2.5870   13.2610 C   0  0  0  0  0  0
   16.2580    7.7610    9.9410 C   0  0  0  0  0  0
   10.8540    3.6360   15.4070 C   0  0  0  0  0  0
   12.8410    4.0930   14.0540 C   0  0  0  0  0  0
   16.5650    9.0210    9.4590 C   0  0  0  0  0  0
   17.0910    6.6770    9.7360 C   0  0  0  0  0  0
   16.3460    5.1650   13.8520 C   0  0  0  0  0  0
   17.1250    5.2750   12.7390 C   0  0  0  0  0  0
   12.0580    4.2570   15.1760 C   0  0  0  0  0  0
   10.4470    2.7890   14.3970 C   0  0  0  0  0  0
   13.9580    4.9480   14.2790 C   0  0  0  0  0  0
   14.5640   10.0290    8.6890 C   0  0  0  0  0  0
   15.9940   11.4750    7.9960 C   0  0  0  0  0  0
   14.9590    5.2960   12.0340 C   0  0  0  0  0  0
   15.5920   10.1370    9.7710 C   0  0  1  0  0  0
   15.0610   10.2080   11.1760 C   0  0  0  0  0  0
    8.8540    2.1210   15.8730 C   0  0  0  0  0  0
   16.7400    5.3240   10.2570 C   0  0  0  0  0  0
   13.8610    5.5710   15.4600 N   0  0  0  0  0  0
   14.9310   10.7610    7.6490 N   0  0  0  0  0  0
   15.0220    5.1570   13.4120 N   0  0  0  0  0  0
   16.2810    5.3560   11.6260 N   0  0  0  0  0  0
   13.6350    9.2360    8.7200 O   0  5  0  0  0  0
   16.5390   12.3330    7.3210 O   0  0  0  0  0  0
   13.9640    5.3700   11.3280 O   0  0  0  0  0  0
   12.6700    5.1290   16.0230 O   0  0  0  0  0  0
   16.2970   11.2730    9.3090 O   0  0  0  0  0  0
    9.2430    2.1080   14.5010 O   0  0  0  0  0  0
   18.7288    5.0187   16.1976 H   0  0  0  0  0  0
   20.1305    5.2156   14.1965 H   0  0  0  0  0  0
   19.5104    8.2436    7.9813 H   0  0  0  0  0  0
   12.9982    3.0565   12.1587 H   0  0  0  0  0  0
   18.0249   10.1662    8.3816 H   0  0  0  0  0  0
   18.9269    6.0103    8.8505 H   0  0  0  0  0  0
   16.2457    4.9714   15.9995 H   0  0  0  0  0  0
   19.1186    5.3811   11.9348 H   0  0  0  0  0  0
   10.8326    1.9018   12.4976 H   0  0  0  0  0  0
   15.3323    7.6189   10.4987 H   0  0  0  0  0  0
   10.2695    3.7990   16.3125 H   0  0  0  0  0  0
   14.5360    9.2720   11.4173 H   0  0  0  0  0  0
   14.3620   11.0530   11.2615 H   0  0  0  0  0  0
   15.8966   10.3509   11.8770 H   0  0  0  0  0  0
    7.8994    1.5868   15.9885 H   0  0  0  0  0  0
    8.7353    3.1612   16.2106 H   0  0  0  0  0  0
    9.6273    1.6251   16.4781 H   0  0  0  0  0  0
   15.9369    4.8914    9.6423 H   0  0  0  0  0  0
   17.6258    4.6732   10.2137 H   0  0  0  0  0  0
  1  2  2  0  0  0
  1  7  1  0  0  0
  1 37  1  0  0  0
  2  8  1  0  0  0
  2 38  1  0  0  0
  3  5  2  0  0  0
  3  6  1  0  0  0
  3 39  1  0  0  0
  4  9  1  0  0  0
  4 12  2  0  0  0
  4 40  1  0  0  0
  5 13  1  0  0  0
  5 41  1  0  0  0
  6 14  2  0  0  0
  6 42  1  0  0  0
  7 15  2  0  0  0
  7 43  1  0  0  0
  8 16  2  0  0  0
  8 44  1  0  0  0
  9 18  2  0  0  0
  9 45  1  0  0  0
 10 13  2  0  0  0
 10 14  1  0  0  0
 10 46  1  0  0  0
 11 17  2  0  0  0
 11 18  1  0  0  0
 11 47  1  0  0  0
 12 17  1  0  0  0
 12 19  1  0  0  0
 13 23  1  0  0  0
 14 26  1  0  0  0
 15 16  1  0  0  0
 15 29  1  0  0  0
 16 30  1  0  0  0
 17 34  1  0  0  0
 18 36  1  0  0  0
 19 27  2  0  0  0
 19 29  1  0  0  0
 20 23  1  0  0  0
 20 28  2  0  0  0
 20 31  1  0  0  0
 21 28  1  0  0  0
 21 32  2  0  0  0
 21 35  1  0  0  0
 22 29  1  0  0  0
 22 30  1  0  0  0
 22 33  2  0  0  0
 23 24  1  0  0  0
 23 35  1  0  0  0
 24 48  1  0  0  0
 24 49  1  0  0  0
 24 50  1  0  0  0
 25 36  1  0  0  0
 25 51  1  0  0  0
 25 52  1  0  0  0
 25 53  1  0  0  0
 26 30  1  0  0  0
 26 54  1  0  0  0
 26 55  1  0  0  0
 27 34  1  0  0  0
M  CHG  1  31  -1
M  END
> <s_m_source_file>
../3ty0_ligand.sdf

> <i_m_source_file_index>
1

> <s_epik_input>
W2NIXTFbY0hdYyhPW0NIM10pW2NIXWMoYzEyKW9uYzItbjNjKD1PKW4oYyhjMzQpW2NIXVtjSF1bY0hdW2NIXTQpW0NIMl1jKFtjSF01KVtjSF1bY0hdW2NIXWM1W0NAXTYoW0NIM10pQyg9TylbTkhdQyg9TylPNg==

> <s_epik_cmdline>
J2VwaWtfYXBwJywgJy1pbWFlJywgJ2xpZ2FuZF9wcm8ubWFlJywgJy1vbWFlJywgJ2xpZ2FuZF9wcmVwLm1hZScsICctbXMnLCAnMScsICctcGgnLCAnNycsICctcGh0JywgJzAuNScsICctbnQn

> <r_lp_tautomer_probability>
1

> <r_epik_Ionization_Penalty>
  0.0252

> <r_epik_Ionization_Penalty_Charging>
  0.0252

> <r_epik_Ionization_Penalty_Neutral>
  0.0000

> <r_epik_State_Penalty>
  0.0205

> <r_epik_Charging_Adjusted_Penalty>
0.0456910614428906

> <i_epik_Tot_Q>
-1

> <i_epik_Tot_abs_Q>
1

> <s_epik_Chemistry_Notes>
This compound has an ester and may undergo hydrolysis at high or low pH.

$$$$
