3tyq_ligand
                    3D
 Schrodinger Suite 2020-3.
 49 52  0  0  1  0            999 V2000
   26.9250   43.0110   42.9140 C   0  0  0  0  0  0
   25.1150   43.1700   44.6140 N   0  0  0  0  0  0
   24.0600   46.1750   42.9430 O   0  0  0  0  0  0
   26.7260   44.0590   41.9870 C   0  0  0  0  0  0
   21.0940   47.2500   45.4970 N   0  0  0  0  0  0
   21.4810   45.3170   44.3130 O   0  0  0  0  0  0
   27.8410   44.6940   41.3950 C   0  0  0  0  0  0
   27.6490   45.7790   40.4410 N   0  3  0  0  0  0
   23.7670   44.0790   42.1630 O   0  5  0  0  0  0
   29.1470   44.2970   41.7020 C   0  0  0  0  0  0
   28.6360   46.4920   40.1830 O   0  0  0  0  0  0
   29.3440   43.2630   42.6210 C   0  0  0  0  0  0
   26.5290   45.8980   39.9120 O   0  5  0  0  0  0
   28.2460   42.6390   43.2230 C   0  0  0  0  0  0
   23.1530   45.9410   45.9300 C   0  0  0  0  0  0
   24.4370   43.8550   48.0520 C   0  0  0  0  0  0
   25.0650   42.8140   48.7580 C   0  0  0  0  0  0
   24.4980   43.8980   46.6410 C   0  0  0  0  0  0
   25.2020   42.8920   45.9610 C   0  0  0  0  0  0
   24.3800   44.3280   44.3990 C   0  0  0  0  0  0
   23.9730   44.7820   45.6580 C   0  0  0  0  0  0
   25.7540   41.8200   48.0550 C   0  0  0  0  0  0
   25.8360   41.8450   46.6510 C   0  0  0  0  0  0
   24.0830   44.9700   43.1320 C   0  0  0  0  0  0
   25.7460   42.3260   43.5730 C   0  0  0  0  0  0
   21.8470   46.1290   45.1750 C   0  0  0  0  0  0
   21.4760   48.1670   46.4540 C   0  0  0  0  0  0
   22.6190   47.9980   47.1370 C   0  0  0  0  0  0
   23.4710   46.8560   46.8660 C   0  0  0  0  0  0
   24.9970   42.7670   50.2720 C   0  0  0  0  0  0
   23.9360   41.7910   50.7480 C   0  0  0  0  0  0
   25.7156   44.3765   41.7295 H   0  0  0  0  0  0
   20.1423   47.4406   44.9793 H   0  0  0  0  0  0
   29.9989   44.7874   41.2309 H   0  0  0  0  0  0
   30.3555   42.9418   42.8695 H   0  0  0  0  0  0
   28.4184   41.8449   43.9495 H   0  0  0  0  0  0
   23.9005   44.6326   48.5957 H   0  0  0  0  0  0
   26.2359   41.0117   48.6050 H   0  0  0  0  0  0
   26.3791   41.0697   46.1105 H   0  0  0  0  0  0
   24.9843   42.0957   42.8135 H   0  0  0  0  0  0
   26.0829   41.3933   44.0489 H   0  0  0  0  0  0
   20.8464   49.0334   46.6566 H   0  0  0  0  0  0
   22.9082   48.7222   47.8986 H   0  0  0  0  0  0
   24.3929   46.7350   47.4347 H   0  0  0  0  0  0
   25.9703   42.4479   50.6730 H   0  0  0  0  0  0
   24.7509   43.7668   50.6592 H   0  0  0  0  0  0
   23.9134   41.7816   51.8477 H   0  0  0  0  0  0
   24.1727   40.7827   50.3775 H   0  0  0  0  0  0
   22.9532   42.1016   50.3637 H   0  0  0  0  0  0
  1  4  2  0  0  0
  1 14  1  0  0  0
  1 25  1  0  0  0
  2 19  1  0  0  0
  2 20  1  0  0  0
  2 25  1  0  0  0
  3 24  2  0  0  0
  4  7  1  0  0  0
  4 32  1  0  0  0
  5 26  1  0  0  0
  5 27  1  0  0  0
  5 33  1  0  0  0
  6 26  2  0  0  0
  7  8  1  0  0  0
  7 10  2  0  0  0
  8 11  2  0  0  0
  8 13  1  0  0  0
  9 24  1  0  0  0
 10 12  1  0  0  0
 10 34  1  0  0  0
 12 14  2  0  0  0
 12 35  1  0  0  0
 14 36  1  0  0  0
 15 21  1  0  0  0
 15 26  1  0  0  0
 15 29  2  0  0  0
 16 17  1  0  0  0
 16 18  2  0  0  0
 16 37  1  0  0  0
 17 22  2  0  0  0
 17 30  1  0  0  0
 18 19  1  0  0  0
 18 21  1  0  0  0
 19 23  2  0  0  0
 20 21  2  0  0  0
 20 24  1  0  0  0
 22 23  1  0  0  0
 22 38  1  0  0  0
 23 39  1  0  0  0
 25 40  1  0  0  0
 25 41  1  0  0  0
 27 28  2  0  0  0
 27 42  1  0  0  0
 28 29  1  0  0  0
 28 43  1  0  0  0
 29 44  1  0  0  0
 30 31  1  0  0  0
 30 45  1  0  0  0
 30 46  1  0  0  0
 31 47  1  0  0  0
 31 48  1  0  0  0
 31 49  1  0  0  0
M  CHG  3   8   1   9  -1  13  -1
M  END
> <s_m_source_file>
../3tyq_ligand.sdf

> <i_m_source_file_index>
1

> <s_epik_input>
W2NIXTFbY0hdW2NIXWMoW04rXSg9TylbTy1dKVtjSF1jMVtDSDJdbihjKGMyMylbY0hdW2NIXWMoW2NIXTIpW0NIMl1bQ0gzXSljKEMoPU8pW09IXSljMy1jNGMoPU8pW25IXVtjSF1bY0hdW2NIXTQ=

> <s_epik_cmdline>
J2VwaWtfYXBwJywgJy1pbWFlJywgJ2xpZ2FuZF9wcm8ubWFlJywgJy1vbWFlJywgJ2xpZ2FuZF9wcmVwLm1hZScsICctbXMnLCAnMScsICctcGgnLCAnNycsICctcGh0JywgJzAuNScsICctbnQn

> <r_lp_tautomer_probability>
1

> <r_epik_Ionization_Penalty>
  0.0013

> <r_epik_Ionization_Penalty_Charging>
  0.0013

> <r_epik_Ionization_Penalty_Neutral>
  0.0000

> <r_epik_State_Penalty>
 -0.0000

> <r_epik_Charging_Adjusted_Penalty>
0.00133778292797095

> <i_epik_Tot_Q>
-1

> <i_epik_Tot_abs_Q>
3

$$$$
