3tyv_ligand
                    3D
 Schrodinger Suite 2020-3.
 55 59  0  0  1  0            999 V2000
   29.6190   45.0430   42.6510 C   0  0  0  0  0  0
   29.2330   46.3300   44.6090 F   0  0  0  0  0  0
   25.1840   43.5020   44.4850 N   0  0  0  0  0  0
   21.5600   45.6500   44.1330 O   0  0  0  0  0  0
   24.2650   45.2990   40.4500 S   0  0  0  0  0  0
   29.1940   44.0230   41.7920 C   0  0  0  0  0  0
   27.5940   42.3560   41.2550 F   0  0  0  0  0  0
   21.0890   47.4830   45.4480 N   0  0  0  0  0  0
   24.3540   46.6540   43.0750 O   0  5  0  0  0  0
   24.3420   43.9590   47.9310 C   0  0  0  0  0  0
   26.2940   40.9330   48.3990 F   0  0  0  0  0  0
   24.0850   44.6680   41.9920 N   0  0  0  0  0  0
   23.8690   44.2510   39.5310 O   0  0  0  0  0  0
   27.6930   44.6440   44.0650 C   0  0  0  0  0  0
   23.6720   46.5930   40.3360 O   0  0  0  0  0  0
   25.8050   42.0410   46.4200 C   0  0  0  0  0  0
   24.4530   44.0760   46.5210 C   0  0  0  0  0  0
   23.9650   45.0180   45.5880 C   0  0  0  0  0  0
   24.9840   42.8910   48.5780 C   0  0  0  0  0  0
   27.2460   43.6000   43.2150 C   0  0  0  0  0  0
   25.1900   43.1230   45.8030 C   0  0  0  0  0  0
   28.8650   45.3460   43.7740 C   0  0  0  0  0  0
   28.0140   43.3160   42.0780 C   0  0  0  0  0  0
   25.6770   41.9510   47.8070 C   0  0  0  0  0  0
   24.4630   44.6690   44.3290 C   0  0  0  0  0  0
   22.5050   48.1260   47.2370 C   0  0  0  0  0  0
   23.3870   47.0160   46.9370 C   0  0  0  0  0  0
   21.3990   48.3320   46.4930 C   0  0  0  0  0  0
   23.1320   46.1590   45.9050 C   0  0  2  0  0  0
   21.8670   46.3970   45.0920 C   0  0  0  0  0  0
   24.3030   45.4280   43.1210 C   0  0  0  0  0  0
   26.6340   46.7300   40.5350 C   0  0  0  0  0  0
   26.4440   46.3480   39.0890 C   0  0  0  0  0  0
   26.0540   45.4010   40.1820 C   0  0  0  0  0  0
   24.9070   42.7410   50.0810 C   0  0  0  0  0  0
   25.9820   42.8120   43.4670 C   0  0  0  0  0  0
   30.5350   45.5944   42.4387 H   0  0  0  0  0  0
   29.7766   43.7779   40.9040 H   0  0  0  0  0  0
   23.7670   44.6872   48.5030 H   0  0  0  0  0  0
   27.1164   44.9008   44.9537 H   0  0  0  0  0  0
   26.3609   41.2978   45.8484 H   0  0  0  0  0  0
   22.7370   48.8025   48.0728 H   0  0  0  0  0  0
   24.2868   46.8481   47.5470 H   0  0  0  0  0  0
   20.7418   49.1834   46.7234 H   0  0  0  0  0  0
   24.0704   46.4029   46.4246 H   0  0  0  0  0  0
   27.6997   46.9245   40.7259 H   0  0  0  0  0  0
   26.0508   47.6365   40.7545 H   0  0  0  0  0  0
   25.7684   47.0687   38.6051 H   0  0  0  0  0  0
   27.4173   46.3567   38.5765 H   0  0  0  0  0  0
   26.4340   44.3922   40.4010 H   0  0  0  0  0  0
   24.3238   43.5727   50.5031 H   0  0  0  0  0  0
   25.9226   42.7539   50.5033 H   0  0  0  0  0  0
   24.4185   41.7873   50.3297 H   0  0  0  0  0  0
   26.2386   41.8036   43.8237 H   0  0  0  0  0  0
   25.4013   42.7349   42.5360 H   0  0  0  0  0  0
  1  6  2  0  0  0
  1 22  1  0  0  0
  1 37  1  0  0  0
  2 22  1  0  0  0
  3 21  1  0  0  0
  3 25  1  0  0  0
  3 36  1  0  0  0
  4 30  2  0  0  0
  5 12  1  0  0  0
  5 13  2  0  0  0
  5 15  2  0  0  0
  5 34  1  0  0  0
  6 23  1  0  0  0
  6 38  1  0  0  0
  7 23  1  0  0  0
  8 28  2  0  0  0
  8 30  1  0  0  0
  9 31  1  0  0  0
 10 17  2  0  0  0
 10 19  1  0  0  0
 10 39  1  0  0  0
 11 24  1  0  0  0
 12 31  2  0  0  0
 14 20  1  0  0  0
 14 22  2  0  0  0
 14 40  1  0  0  0
 16 21  2  0  0  0
 16 24  1  0  0  0
 16 41  1  0  0  0
 17 18  1  0  0  0
 17 21  1  0  0  0
 18 25  2  0  0  0
 18 29  1  0  0  0
 19 24  2  0  0  0
 19 35  1  0  0  0
 20 23  2  0  0  0
 20 36  1  0  0  0
 25 31  1  0  0  0
 26 27  2  0  0  0
 26 28  1  0  0  0
 26 42  1  0  0  0
 27 29  1  0  0  0
 27 43  1  0  0  0
 28 44  1  0  0  0
 29 30  1  0  0  0
 29 45  1  0  0  0
 32 33  1  0  0  0
 32 34  1  0  0  0
 32 46  1  0  0  0
 32 47  1  0  0  0
 33 34  1  0  0  0
 33 48  1  0  0  0
 33 49  1  0  0  0
 34 50  1  0  0  0
 35 51  1  0  0  0
 35 52  1  0  0  0
 35 53  1  0  0  0
 36 54  1  0  0  0
 36 55  1  0  0  0
M  CHG  1   9  -1
M  END
> <s_m_source_file>
../3tyv_ligand.sdf

> <i_m_source_file_index>
1

> <s_epik_input>
RmMxW2NIXVtjSF1jKEYpW2NIXWMxW0NIMl1uKGMoYzIzKVtjSF1jKEYpYyhbY0hdMilbQ0gzXSljKEMoPU8pW05IXVMoPU8pKD1PKVtDSF00W0NIMl1bQ0gyXTQpYzNbQ0BASF01W0NIXT1bQ0hdW0NIXT1OQzU9Tw==

> <s_epik_cmdline>
J2VwaWtfYXBwJywgJy1pbWFlJywgJ2xpZ2FuZF9wcm8ubWFlJywgJy1vbWFlJywgJ2xpZ2FuZF9wcmVwLm1hZScsICctbXMnLCAnMScsICctcGgnLCAnNycsICctcGh0JywgJzAuNScsICctbnQn

> <r_lp_tautomer_probability>
1

> <r_epik_Ionization_Penalty>
  0.0045

> <r_epik_Ionization_Penalty_Charging>
  0.0045

> <r_epik_Ionization_Penalty_Neutral>
  0.0000

> <r_epik_State_Penalty>
 -0.0000

> <r_epik_Charging_Adjusted_Penalty>
0.00453520164071936

> <i_epik_Tot_Q>
-1

> <i_epik_Tot_abs_Q>
1

> <s_epik_Chemistry_Notes>
This compound has an imine and may undergo hydrolysis.

$$$$
