3tz0_ligand
                    3D
 Schrodinger Suite 2020-3.
 19 18  0  0  1  0            999 V2000
   -7.7750  -29.3900   14.5210 Cl  0  0  0  0  0  0
   -7.4330  -31.7810   13.3540 C   0  0  0  0  0  0
   -6.9230  -32.8860   13.3030 O   0  0  0  0  0  0
   -7.7060  -31.1750   14.6980 C   0  0  2  0  0  0
   -8.1450  -31.3740   12.3040 O   0  5  0  0  0  0
   -9.0170  -31.7530   15.2180 C   0  0  0  0  0  0
   -9.2270  -31.4850   16.7030 C   0  0  0  0  0  0
  -10.6830  -31.7190   17.0670 C   0  0  0  0  0  0
   -8.3340  -32.3510   17.5830 C   0  0  0  0  0  0
   -6.9492  -31.5859   15.3824 H   0  0  0  0  0  0
   -9.8586  -31.3028   14.6712 H   0  0  0  0  0  0
   -9.0227  -32.8426   15.0673 H   0  0  0  0  0  0
   -8.9561  -30.4351   16.8880 H   0  0  0  0  0  0
  -11.3253  -31.0928   16.4304 H   0  0  0  0  0  0
  -10.8440  -31.4551   18.1227 H   0  0  0  0  0  0
  -10.9341  -32.7786   16.9115 H   0  0  0  0  0  0
   -7.2804  -32.1796   17.3174 H   0  0  0  0  0  0
   -8.5835  -33.4110   17.4279 H   0  0  0  0  0  0
   -8.4935  -32.0875   18.6390 H   0  0  0  0  0  0
  1  4  1  0  0  0
  2  3  2  0  0  0
  2  4  1  0  0  0
  2  5  1  0  0  0
  4  6  1  0  0  0
  4 10  1  0  0  0
  6  7  1  0  0  0
  6 11  1  0  0  0
  6 12  1  0  0  0
  7  8  1  0  0  0
  7  9  1  0  0  0
  7 13  1  0  0  0
  8 14  1  0  0  0
  8 15  1  0  0  0
  8 16  1  0  0  0
  9 17  1  0  0  0
  9 18  1  0  0  0
  9 19  1  0  0  0
M  CHG  1   5  -1
M  END
> <s_m_source_file>
../3tz0_ligand.sdf

> <i_m_source_file_index>
1

> <s_epik_input>
Tz1DKFtPSF0pW0NAQEhdKENsKVtDSDJdW0NIXShbQ0gzXSlbQ0gzXQ==

> <s_epik_cmdline>
J2VwaWtfYXBwJywgJy1pbWFlJywgJ2xpZ2FuZF9wcm8ubWFlJywgJy1vbWFlJywgJ2xpZ2FuZF9wcmVwLm1hZScsICctbXMnLCAnMScsICctcGgnLCAnNycsICctcGh0JywgJzAuNScsICctbnQn

> <r_lp_tautomer_probability>
1

> <r_epik_Ionization_Penalty>
  0.0001

> <r_epik_Ionization_Penalty_Charging>
  0.0001

> <r_epik_Ionization_Penalty_Neutral>
  0.0000

> <r_epik_State_Penalty>
 -0.0000

> <r_epik_Charging_Adjusted_Penalty>
5.22827906074035e-05

> <i_epik_Tot_Q>
-1

> <i_epik_Tot_abs_Q>
1

$$$$
