3tz4_ligand
                    3D
 Schrodinger Suite 2020-3.
 19 18  0  0  1  0            999 V2000
   -8.1750  -29.2420   14.7770 Cl  0  0  0  0  0  0
   -7.6730  -31.6310   13.6490 C   0  0  0  0  0  0
   -7.0450  -32.6690   13.6390 O   0  0  0  0  0  0
   -7.9570  -31.0180   14.9910 C   0  0  2  0  0  0
   -8.4250  -31.3380   12.5780 O   0  5  0  0  0  0
   -9.1900  -31.7190   15.5760 C   0  0  0  0  0  0
   -9.4970  -31.3490   17.0250 C   0  0  0  0  0  0
  -10.9950  -31.4060   17.2580 C   0  0  0  0  0  0
   -8.7860  -32.2460   18.0300 C   0  0  0  0  0  0
   -7.1481  -31.3383   15.6641 H   0  0  0  0  0  0
  -10.0778  -31.4553   14.9824 H   0  0  0  0  0  0
   -9.0403  -32.8084   15.5477 H   0  0  0  0  0  0
   -9.1262  -30.3263   17.1880 H   0  0  0  0  0  0
  -11.5042  -30.7570   16.5303 H   0  0  0  0  0  0
  -11.2208  -31.0612   18.2778 H   0  0  0  0  0  0
  -11.3461  -32.4412   17.1348 H   0  0  0  0  0  0
   -7.7005  -32.2016   17.8574 H   0  0  0  0  0  0
   -9.1347  -33.2821   17.9076 H   0  0  0  0  0  0
   -9.0094  -31.9021   19.0507 H   0  0  0  0  0  0
  1  4  1  0  0  0
  2  3  2  0  0  0
  2  4  1  0  0  0
  2  5  1  0  0  0
  4  6  1  0  0  0
  4 10  1  0  0  0
  6  7  1  0  0  0
  6 11  1  0  0  0
  6 12  1  0  0  0
  7  8  1  0  0  0
  7  9  1  0  0  0
  7 13  1  0  0  0
  8 14  1  0  0  0
  8 15  1  0  0  0
  8 16  1  0  0  0
  9 17  1  0  0  0
  9 18  1  0  0  0
  9 19  1  0  0  0
M  CHG  1   5  -1
M  END
> <s_m_source_file>
../3tz4_ligand.sdf

> <i_m_source_file_index>
1

> <s_epik_input>
Tz1DKFtPSF0pW0NAQEhdKENsKVtDSDJdW0NIXShbQ0gzXSlbQ0gzXQ==

> <s_epik_cmdline>
J2VwaWtfYXBwJywgJy1pbWFlJywgJ2xpZ2FuZF9wcm8ubWFlJywgJy1vbWFlJywgJ2xpZ2FuZF9wcmVwLm1hZScsICctbXMnLCAnMScsICctcGgnLCAnNycsICctcGh0JywgJzAuNScsICctbnQn

> <r_lp_tautomer_probability>
1

> <r_epik_Ionization_Penalty>
  0.0001

> <r_epik_Ionization_Penalty_Charging>
  0.0001

> <r_epik_Ionization_Penalty_Neutral>
  0.0000

> <r_epik_State_Penalty>
 -0.0000

> <r_epik_Charging_Adjusted_Penalty>
5.22827906074035e-05

> <i_epik_Tot_Q>
-1

> <i_epik_Tot_abs_Q>
1

$$$$
