3tza_ligand
                    3D
 Schrodinger Suite 2020-3.
 33 33  0  0  1  0            999 V2000
   -7.4540   27.6210   56.5340 N   0  3  0  0  0  0
   -3.8980   27.5870   57.2760 C   0  0  0  0  0  0
   -5.2440   27.9180   57.3640 C   0  0  0  0  0  0
   -6.1580   27.3220   56.4980 C   0  0  0  0  0  0
   -1.9620   26.3680   56.2940 C   0  0  0  0  0  0
   -1.7160   24.9950   56.8920 C   0  0  1  0  0  0
   -4.5090   25.5050   53.0010 C   0  0  0  0  0  0
    0.1040   24.3840   55.5150 O   0  0  0  0  0  0
   -0.2490   24.6280   56.6920 C   0  0  0  0  0  0
    0.4820   24.6060   57.7100 O   0  5  0  0  0  0
   -2.0510   25.0420   58.3160 N   0  3  0  0  0  0
   -3.4570   26.6700   56.3220 C   0  0  0  0  0  0
   -5.7480   29.0520   58.5740 Cl  0  0  0  0  0  0
   -8.4290   26.6620   56.1380 O   0  0  0  0  0  0
   -7.8500   28.9390   56.8480 O   0  5  0  0  0  0
   -5.7160   26.4170   55.5430 C   0  0  0  0  0  0
   -4.3720   26.0810   55.4490 C   0  0  0  0  0  0
   -3.9890   25.0700   54.3680 C   0  0  0  0  0  0
   -5.9850   25.1250   52.8300 C   0  0  0  0  0  0
   -6.6880   25.8970   52.1530 O   0  0  0  0  0  0
   -6.3860   24.0830   53.3880 O   0  5  0  0  0  0
   -3.1817   28.0468   57.9568 H   0  0  0  0  0  0
   -1.4223   27.1257   56.8811 H   0  0  0  0  0  0
   -1.6024   26.3850   55.2546 H   0  0  0  0  0  0
   -2.3606   24.2289   56.4365 H   0  0  0  0  0  0
   -4.4112   26.5961   52.9018 H   0  0  0  0  0  0
   -3.9232   25.0111   52.2117 H   0  0  0  0  0  0
   -3.1117   25.3081   58.4345 H   0  0  0  0  0  0
   -1.4256   25.7969   58.8151 H   0  0  0  0  0  0
   -1.8674   24.0564   58.7686 H   0  0  0  0  0  0
   -6.4330   25.9643   54.8581 H   0  0  0  0  0  0
   -4.4210   24.0931   54.6307 H   0  0  0  0  0  0
   -2.8925   24.9889   54.3344 H   0  0  0  0  0  0
  1  4  1  0  0  0
  1 14  2  0  0  0
  1 15  1  0  0  0
  2  3  2  0  0  0
  2 12  1  0  0  0
  2 22  1  0  0  0
  3  4  1  0  0  0
  3 13  1  0  0  0
  4 16  2  0  0  0
  5  6  1  0  0  0
  5 12  1  0  0  0
  5 23  1  0  0  0
  5 24  1  0  0  0
  6  9  1  0  0  0
  6 11  1  0  0  0
  6 25  1  0  0  0
  7 18  1  0  0  0
  7 19  1  0  0  0
  7 26  1  0  0  0
  7 27  1  0  0  0
  8  9  2  0  0  0
  9 10  1  0  0  0
 11 28  1  0  0  0
 11 29  1  0  0  0
 11 30  1  0  0  0
 12 17  2  0  0  0
 16 17  1  0  0  0
 16 31  1  0  0  0
 17 18  1  0  0  0
 18 32  1  0  0  0
 18 33  1  0  0  0
 19 20  2  0  0  0
 19 21  1  0  0  0
M  CHG  5   1   1  10  -1  11   1  15  -1  21  -1
M  END
> <s_m_source_file>
../3tza_ligand.sdf

> <i_m_source_file_index>
1

> <s_epik_input>
Tz1bTitdKFtPLV0pYzFbY0hdYyhbQ0gyXVtDSDJdQyg9TylbT0hdKWMoW2NIXWMxQ2wpW0NIMl1bQ0BIXShbTkgzK10pQyg9TylbT0hd

> <s_epik_cmdline>
J2VwaWtfYXBwJywgJy1pbWFlJywgJ2xpZ2FuZF9wcm8ubWFlJywgJy1vbWFlJywgJ2xpZ2FuZF9wcmVwLm1hZScsICctbXMnLCAnMScsICctcGgnLCAnNycsICctcGh0JywgJzAuNScsICctbnQn

> <r_lp_tautomer_probability>
1

> <r_epik_Ionization_Penalty>
  0.0038

> <r_epik_Ionization_Penalty_Charging>
  0.0038

> <r_epik_Ionization_Penalty_Neutral>
  0.0000

> <r_epik_State_Penalty>
 -0.0000

> <r_epik_Charging_Adjusted_Penalty>
0.00380285050609828

> <i_epik_Tot_Q>
-1

> <i_epik_Tot_abs_Q>
5

$$$$
