3tzd_ligand
                    3D
 Schrodinger Suite 2020-3.
210211  0  0  1  0            999 V2000
   22.8790   40.6680   -2.9270 N   0  3  0  0  0  0
   23.1200   39.1910   -2.8790 C   0  0  2  0  0  0
   23.8210   38.7800   -4.1760 C   0  0  0  0  0  0
   23.4800   39.2880   -5.2240 O   0  0  0  0  0  0
   21.7950   38.4220   -2.8020 C   0  0  0  0  0  0
   21.9660   36.9420   -2.4540 C   0  0  0  0  0  0
   22.1190   36.5400   -1.1300 C   0  0  0  0  0  0
   21.9790   35.9490   -3.4560 C   0  0  0  0  0  0
   22.2900   35.1840   -0.7630 C   0  0  0  0  0  0
   22.1330   34.5510   -3.0730 C   0  0  0  0  0  0
   22.3050   34.2170   -1.7310 C   0  0  0  0  0  0
   22.4360   32.8950   -1.3380 O   0  0  0  0  0  0
   24.8190   37.8810   -4.1030 N   0  0  0  0  0  0
   25.6090   37.7630   -5.3610 C   0  0  2  0  0  0
   24.9090   36.9970   -6.4680 C   0  0  0  0  0  0
   24.1650   36.0440   -6.2010 O   0  0  0  0  0  0
   26.8740   36.9870   -4.9370 C   0  0  0  0  0  0
   26.5520   36.3420   -3.6610 C   0  0  0  0  0  0
   25.3670   37.0630   -3.0020 C   0  0  0  0  0  0
   25.1710   37.4160   -7.6970 N   0  0  0  0  0  0
   24.6380   36.7260   -8.8610 C   0  0  2  0  0  0
   25.7210   36.1170   -9.7570 C   0  0  0  0  0  0
   25.3950   35.4590  -10.7530 O   0  0  0  0  0  0
   23.7150   37.6610   -9.7040 C   0  0  0  0  0  0
   22.6140   38.2170   -8.8350 C   0  0  0  0  0  0
   24.5050   38.7790  -10.3620 C   0  0  0  0  0  0
   26.9900   36.3600   -9.4160 N   0  0  0  0  0  0
   28.1410   35.8560  -10.1670 C   0  0  2  0  0  0
   29.3260   35.8450   -9.2220 C   0  0  0  0  0  0
   29.2170   36.4310   -8.1340 O   0  0  0  0  0  0
   28.4590   36.7610  -11.3670 C   0  0  0  0  0  0
   28.6630   38.2110  -10.9980 C   0  0  0  0  0  0
   28.7710   39.1170  -12.2250 C   0  0  0  0  0  0
   29.1330   40.5520  -11.8030 C   0  0  0  0  0  0
   29.3090   41.4800  -12.9690 N   0  3  0  0  0  0
   30.4500   35.2430   -9.6410 N   0  0  0  0  0  0
   31.7250   35.2560   -8.8080 C   0  0  2  0  0  0
   31.4010   34.8870   -7.3490 C   0  0  0  0  0  0
   31.6930   35.6260   -6.3810 O   0  0  0  0  0  0
   32.4380   36.6230   -8.8820 C   0  0  0  0  0  0
   33.9310   36.5810   -8.4500 C   0  0  0  0  0  0
   34.5680   37.9550   -8.5860 C   0  0  0  0  0  0
   34.3020   38.8280   -7.3230 C   0  0  0  0  0  0
   35.0440   40.1220   -7.5260 N   0  3  0  0  0  0
   30.7730   33.7260   -7.1970 N   0  0  0  0  0  0
   30.2010   33.3230   -5.9050 C   0  0  2  0  0  0
   30.3460   31.8100   -5.6610 C   0  0  0  0  0  0
   30.6490   31.0720   -6.5830 O   0  0  0  0  0  0
   28.7120   33.7030   -5.8320 C   0  0  0  0  0  0
   27.8410   32.9940   -6.8670 C   0  0  0  0  0  0
   26.3450   33.4340   -6.7360 C   0  0  0  0  0  0
   25.4850   33.1070   -7.9720 C   0  0  0  0  0  0
   25.3990   31.6410   -8.2100 N   0  3  0  0  0  0
   30.1410   31.3890   -4.4200 N   0  0  0  0  0  0
   30.1650   29.9730   -4.0540 C   0  0  2  0  0  0
   29.3610   29.7500   -2.7830 C   0  0  0  0  0  0
   29.1320   30.6700   -1.9690 O   0  0  0  0  0  0
   31.6320   29.4910   -3.8680 C   0  0  0  0  0  0
   28.9340   28.5090   -2.6300 N   0  0  0  0  0  0
   28.2750   28.0280   -1.4380 C   0  0  2  0  0  0
   29.3650   27.3660   -0.5910 C   0  0  0  0  0  0
   30.4910   27.1550   -1.0470 O   0  0  0  0  0  0
   27.1880   27.0520   -1.8860 C   0  0  0  0  0  0
   26.6630   26.0150   -0.9460 C   0  0  0  0  0  0
   25.4410   25.3160   -1.6100 C   0  0  0  0  0  0
   25.3110   25.5920   -3.0490 N   0  0  0  0  0  0
   25.6110   24.7250   -4.0280 C   0  0  0  0  0  0
   26.0520   23.4860   -3.7430 N   0  0  0  0  0  0
   25.4520   25.0980   -5.3040 N   0  0  0  0  0  0
   29.1870   27.5090    0.8700 N   0  0  0  0  0  0
   30.1230   26.9390    1.8480 C   0  0  1  0  0  0
   30.1440   27.8460    3.0630 C   0  0  0  0  0  0
   30.9780   29.0870    2.7420 C   0  0  0  0  0  0
   31.0720   30.0010    3.9780 C   0  0  0  0  0  0
   31.9720   31.1880    3.6110 C   0  0  0  0  0  0
   32.1180   32.0740    4.7950 N   0  3  0  0  0  0
   33.2620   33.0000    4.5930 C   0  0  0  0  0  0
   30.8760   32.8570    5.0740 C   0  0  0  0  0  0
   29.6650   25.5180    2.2470 C   0  0  0  0  0  0
   28.5160   25.2240    2.6410 O   0  0  0  0  0  0
   30.6760   24.4780    2.2320 N   0  0  0  0  0  0
   30.6200   23.1710    2.9450 C   0  0  2  0  0  0
   30.0870   23.3130    4.3660 C   0  0  0  0  0  0
   29.2750   22.4800    4.7990 O   0  0  0  0  0  0
   31.9970   22.5340    2.9320 C   0  0  0  0  0  0
   32.3540   22.3170    1.6000 O   0  0  0  0  0  0
   30.4900   24.3930    5.0400 N   0  0  0  0  0  0
   29.9750   24.7890    6.3850 C   0  0  2  0  0  0
   28.4470   24.9490    6.5120 C   0  0  0  0  0  0
   27.9100   24.8090    7.6150 O   0  0  0  0  0  0
   30.6850   26.0860    6.8830 C   0  0  0  0  0  0
   27.7670   25.2850    5.4100 N   0  0  0  0  0  0
   26.3030   25.3400    5.3630 C   0  0  0  0  0  0
   25.6420   23.9870    5.0910 C   0  0  0  0  0  0
   26.3220   22.9620    4.8410 O   0  0  0  0  0  0
   24.3940   23.8500    5.1070 O   0  0  0  0  0  0
   23.8429   41.1952   -2.9818 H   0  0  0  0  0  0
   22.3407   40.9813   -2.0203 H   0  0  0  0  0  0
   22.2764   40.9125   -3.8142 H   0  0  0  0  0  0
   23.7286   38.9820   -1.9868 H   0  0  0  0  0  0
   21.1555   38.8701   -2.0272 H   0  0  0  0  0  0
   21.2838   38.4740   -3.7746 H   0  0  0  0  0  0
   22.1066   37.2980   -0.3468 H   0  0  0  0  0  0
   21.8750   36.2243   -4.5055 H   0  0  0  0  0  0
   22.4092   34.9112    0.2856 H   0  0  0  0  0  0
   22.1137   33.7700   -3.8332 H   0  0  0  0  0  0
   22.5711   32.6481   -0.2746 H   0  0  0  0  0  0
   25.7685   38.7722   -5.7685 H   0  0  0  0  0  0
   27.1209   36.2401   -5.7059 H   0  0  0  0  0  0
   27.7138   37.6884   -4.8242 H   0  0  0  0  0  0
   26.2856   35.2897   -3.8390 H   0  0  0  0  0  0
   27.4256   36.3914   -2.9944 H   0  0  0  0  0  0
   25.6788   37.7203   -2.1770 H   0  0  0  0  0  0
   24.5951   36.3659   -2.6438 H   0  0  0  0  0  0
   25.8057   38.3049   -7.8274 H   0  0  0  0  0  0
   24.0765   35.9028   -8.3951 H   0  0  0  0  0  0
   23.2427   37.0907  -10.5174 H   0  0  0  0  0  0
   22.0588   37.3882   -8.3716 H   0  0  0  0  0  0
   21.9290   38.8182   -9.4509 H   0  0  0  0  0  0
   23.0516   38.8500   -8.0490 H   0  0  0  0  0  0
   25.2995   38.3471  -10.9883 H   0  0  0  0  0  0
   24.9551   39.4157   -9.5861 H   0  0  0  0  0  0
   23.8325   39.3838  -10.9880 H   0  0  0  0  0  0
   27.1461   36.9751   -8.5175 H   0  0  0  0  0  0
   27.8870   34.8473  -10.5249 H   0  0  0  0  0  0
   29.3828   36.4142  -11.8531 H   0  0  0  0  0  0
   27.6284   36.7206  -12.0870 H   0  0  0  0  0  0
   27.8122   38.5588  -10.3937 H   0  0  0  0  0  0
   29.5916   38.3145  -10.4175 H   0  0  0  0  0  0
   29.5533   38.7332  -12.8964 H   0  0  0  0  0  0
   27.8075   39.1322  -12.7555 H   0  0  0  0  0  0
   28.3324   40.9607  -11.1690 H   0  0  0  0  0  0
   30.0776   40.5412  -11.2394 H   0  0  0  0  0  0
   29.5654   42.4849  -12.6024 H   0  0  0  0  0  0
   28.3727   41.5274  -13.5444 H   0  0  0  0  0  0
   30.1179   41.1079  -13.6149 H   0  0  0  0  0  0
   30.4341   34.7307  -10.6143 H   0  0  0  0  0  0
   32.4040   34.5011   -9.2311 H   0  0  0  0  0  0
   32.4095   36.9958   -9.9165 H   0  0  0  0  0  0
   31.9283   37.3387   -8.2202 H   0  0  0  0  0  0
   34.0001   36.2592   -7.4004 H   0  0  0  0  0  0
   34.4775   35.8708   -9.0880 H   0  0  0  0  0  0
   35.6550   37.8442   -8.7130 H   0  0  0  0  0  0
   34.1470   38.4692   -9.4625 H   0  0  0  0  0  0
   33.2215   39.0085   -7.2230 H   0  0  0  0  0  0
   34.6702   38.3023   -6.4297 H   0  0  0  0  0  0
   34.8860   40.7757   -6.6555 H   0  0  0  0  0  0
   34.6697   40.6210   -8.4320 H   0  0  0  0  0  0
   36.1184   39.9148   -7.6388 H   0  0  0  0  0  0
   30.6867   33.0602   -8.0684 H   0  0  0  0  0  0
   30.7899   33.8798   -5.1613 H   0  0  0  0  0  0
   28.3154   33.4427   -4.8396 H   0  0  0  0  0  0
   28.6010   34.7846   -5.9991 H   0  0  0  0  0  0
   28.1953   33.2445   -7.8778 H   0  0  0  0  0  0
   27.9035   31.9063   -6.7156 H   0  0  0  0  0  0
   25.8863   32.9226   -5.8769 H   0  0  0  0  0  0
   26.2948   34.5223   -6.5844 H   0  0  0  0  0  0
   24.4662   33.4939   -7.8225 H   0  0  0  0  0  0
   25.9287   33.5769   -8.8622 H   0  0  0  0  0  0
   24.7787   31.4495   -9.0980 H   0  0  0  0  0  0
   24.9461   31.1533   -7.3342 H   0  0  0  0  0  0
   26.4086   31.2363   -8.3738 H   0  0  0  0  0  0
   29.9472   32.1524   -3.6521 H   0  0  0  0  0  0
   29.6804   29.4338   -4.8813 H   0  0  0  0  0  0
   32.1946   29.6614   -4.7978 H   0  0  0  0  0  0
   31.6376   28.4176   -3.6275 H   0  0  0  0  0  0
   32.1013   30.0531   -3.0472 H   0  0  0  0  0  0
   29.1051   27.8280   -3.4767 H   0  0  0  0  0  0
   27.8055   28.8485   -0.8756 H   0  0  0  0  0  0
   26.2897   27.6140   -2.1812 H   0  0  0  0  0  0
   27.5519   26.4659   -2.7428 H   0  0  0  0  0  0
   27.4505   25.2755   -0.7389 H   0  0  0  0  0  0
   26.3544   26.4951   -0.0056 H   0  0  0  0  0  0
   25.5338   24.2262   -1.4930 H   0  0  0  0  0  0
   24.5147   25.6592   -1.1261 H   0  0  0  0  0  0
   24.9437   26.5711   -3.3903 H   0  0  0  0  0  0
   26.1837   23.1764   -2.6957 H   0  0  0  0  0  0
   26.2808   22.7828   -4.5573 H   0  0  0  0  0  0
   25.0917   26.1101   -5.5404 H   0  0  0  0  0  0
   28.3067   28.0716    1.2143 H   0  0  0  0  0  0
   31.1204   26.8983    1.3860 H   0  0  0  0  0  0
   29.1158   28.1446    3.3154 H   0  0  0  0  0  0
   30.5892   27.3092    3.9137 H   0  0  0  0  0  0
   31.9915   28.7806    2.4437 H   0  0  0  0  0  0
   30.5059   29.6432    1.9187 H   0  0  0  0  0  0
   30.0662   30.3529    4.2511 H   0  0  0  0  0  0
   31.5042   29.4380    4.8184 H   0  0  0  0  0  0
   32.9607   30.8170    3.3031 H   0  0  0  0  0  0
   31.5171   31.7506    2.7824 H   0  0  0  0  0  0
   32.3096   31.4277    5.6643 H   0  0  0  0  0  0
   34.1728   32.4183    4.3881 H   0  0  0  0  0  0
   33.4092   33.6043    5.5003 H   0  0  0  0  0  0
   33.0510   33.6630    3.7410 H   0  0  0  0  0  0
   30.0328   32.1664    5.2226 H   0  0  0  0  0  0
   30.6615   33.5198    4.2227 H   0  0  0  0  0  0
   31.0196   33.4611    5.9820 H   0  0  0  0  0  0
   31.5517   24.7317    1.6165 H   0  0  0  0  0  0
   29.9115   22.5318    2.3979 H   0  0  0  0  0  0
   32.7181   23.2096    3.4153 H   0  0  0  0  0  0
   31.9649   21.5801    3.4789 H   0  0  0  0  0  0
   33.3245   21.8590    1.3583 H   0  0  0  0  0  0
   31.2529   25.0080    4.5402 H   0  0  0  0  0  0
   30.2280   23.9032    6.9861 H   0  0  0  0  0  0
   31.7745   25.9663    6.7902 H   0  0  0  0  0  0
   30.4243   26.2653    7.9365 H   0  0  0  0  0  0
   30.3568   26.9408    6.2734 H   0  0  0  0  0  0
   28.3555   25.5263    4.5126 H   0  0  0  0  0  0
   25.9186   25.7029    6.3277 H   0  0  0  0  0  0
   25.9873   26.0243    4.5617 H   0  0  0  0  0  0
   23.9462   22.8652    4.9078 H   0  0  0  0  0  0
  1  2  1  0  0  0
  1 97  1  0  0  0
  1 98  1  0  0  0
  1 99  1  0  0  0
  2  3  1  0  0  0
  2  5  1  0  0  0
  2100  1  0  0  0
  3  4  2  0  0  0
  3 13  1  0  0  0
  5  6  1  0  0  0
  5101  1  0  0  0
  5102  1  0  0  0
  6  7  2  0  0  0
  6  8  1  0  0  0
  7  9  1  0  0  0
  7103  1  0  0  0
  8 10  2  0  0  0
  8104  1  0  0  0
  9 11  2  0  0  0
  9105  1  0  0  0
 10 11  1  0  0  0
 10106  1  0  0  0
 11 12  1  0  0  0
 12107  1  0  0  0
 13 14  1  0  0  0
 13 19  1  0  0  0
 14 15  1  0  0  0
 14 17  1  0  0  0
 14108  1  0  0  0
 15 16  2  0  0  0
 15 20  1  0  0  0
 17 18  1  0  0  0
 17109  1  0  0  0
 17110  1  0  0  0
 18 19  1  0  0  0
 18111  1  0  0  0
 18112  1  0  0  0
 19113  1  0  0  0
 19114  1  0  0  0
 20 21  1  0  0  0
 20115  1  0  0  0
 21 22  1  0  0  0
 21 24  1  0  0  0
 21116  1  0  0  0
 22 23  2  0  0  0
 22 27  1  0  0  0
 24 25  1  0  0  0
 24 26  1  0  0  0
 24117  1  0  0  0
 25118  1  0  0  0
 25119  1  0  0  0
 25120  1  0  0  0
 26121  1  0  0  0
 26122  1  0  0  0
 26123  1  0  0  0
 27 28  1  0  0  0
 27124  1  0  0  0
 28 29  1  0  0  0
 28 31  1  0  0  0
 28125  1  0  0  0
 29 30  2  0  0  0
 29 36  1  0  0  0
 31 32  1  0  0  0
 31126  1  0  0  0
 31127  1  0  0  0
 32 33  1  0  0  0
 32128  1  0  0  0
 32129  1  0  0  0
 33 34  1  0  0  0
 33130  1  0  0  0
 33131  1  0  0  0
 34 35  1  0  0  0
 34132  1  0  0  0
 34133  1  0  0  0
 35134  1  0  0  0
 35135  1  0  0  0
 35136  1  0  0  0
 36 37  1  0  0  0
 36137  1  0  0  0
 37 38  1  0  0  0
 37 40  1  0  0  0
 37138  1  0  0  0
 38 39  2  0  0  0
 38 45  1  0  0  0
 40 41  1  0  0  0
 40139  1  0  0  0
 40140  1  0  0  0
 41 42  1  0  0  0
 41141  1  0  0  0
 41142  1  0  0  0
 42 43  1  0  0  0
 42143  1  0  0  0
 42144  1  0  0  0
 43 44  1  0  0  0
 43145  1  0  0  0
 43146  1  0  0  0
 44147  1  0  0  0
 44148  1  0  0  0
 44149  1  0  0  0
 45 46  1  0  0  0
 45150  1  0  0  0
 46 47  1  0  0  0
 46 49  1  0  0  0
 46151  1  0  0  0
 47 48  2  0  0  0
 47 54  1  0  0  0
 49 50  1  0  0  0
 49152  1  0  0  0
 49153  1  0  0  0
 50 51  1  0  0  0
 50154  1  0  0  0
 50155  1  0  0  0
 51 52  1  0  0  0
 51156  1  0  0  0
 51157  1  0  0  0
 52 53  1  0  0  0
 52158  1  0  0  0
 52159  1  0  0  0
 53160  1  0  0  0
 53161  1  0  0  0
 53162  1  0  0  0
 54 55  1  0  0  0
 54163  1  0  0  0
 55 56  1  0  0  0
 55 58  1  0  0  0
 55164  1  0  0  0
 56 57  2  0  0  0
 56 59  1  0  0  0
 58165  1  0  0  0
 58166  1  0  0  0
 58167  1  0  0  0
 59 60  1  0  0  0
 59168  1  0  0  0
 60 61  1  0  0  0
 60 63  1  0  0  0
 60169  1  0  0  0
 61 62  2  0  0  0
 61 70  1  0  0  0
 63 64  1  0  0  0
 63170  1  0  0  0
 63171  1  0  0  0
 64 65  1  0  0  0
 64172  1  0  0  0
 64173  1  0  0  0
 65 66  1  0  0  0
 65174  1  0  0  0
 65175  1  0  0  0
 66 67  1  0  0  0
 66176  1  0  0  0
 67 68  1  0  0  0
 67 69  2  0  0  0
 68177  1  0  0  0
 68178  1  0  0  0
 69179  1  0  0  0
 70 71  1  0  0  0
 70180  1  0  0  0
 71 72  1  0  0  0
 71 79  1  0  0  0
 71181  1  0  0  0
 72 73  1  0  0  0
 72182  1  0  0  0
 72183  1  0  0  0
 73 74  1  0  0  0
 73184  1  0  0  0
 73185  1  0  0  0
 74 75  1  0  0  0
 74186  1  0  0  0
 74187  1  0  0  0
 75 76  1  0  0  0
 75188  1  0  0  0
 75189  1  0  0  0
 76 77  1  0  0  0
 76 78  1  0  0  0
 76190  1  0  0  0
 77191  1  0  0  0
 77192  1  0  0  0
 77193  1  0  0  0
 78194  1  0  0  0
 78195  1  0  0  0
 78196  1  0  0  0
 79 80  2  0  0  0
 79 81  1  0  0  0
 81 82  1  0  0  0
 81197  1  0  0  0
 82 83  1  0  0  0
 82 85  1  0  0  0
 82198  1  0  0  0
 83 84  2  0  0  0
 83 87  1  0  0  0
 85 86  1  0  0  0
 85199  1  0  0  0
 85200  1  0  0  0
 86201  1  0  0  0
 87 88  1  0  0  0
 87202  1  0  0  0
 88 89  1  0  0  0
 88 91  1  0  0  0
 88203  1  0  0  0
 89 90  2  0  0  0
 89 92  1  0  0  0
 91204  1  0  0  0
 91205  1  0  0  0
 91206  1  0  0  0
 92 93  1  0  0  0
 92207  1  0  0  0
 93 94  1  0  0  0
 93208  1  0  0  0
 93209  1  0  0  0
 94 95  2  0  0  0
 94 96  1  0  0  0
 96210  1  0  0  0
M  CHG  5   1   1  35   1  44   1  53   1  76   1
M  END
> <s_m_source_file>
../3tzd_ligand.sdf

> <i_m_source_file_index>
1

> <s_epik_input>
W2NIXTFbY0hdYyhbT0hdKVtjSF1bY0hdYzFbQ0gyXVtDQEhdKFtOSDMrXSlDKD1PKU4yW0NAQEhdKFtDSDJdW0NIMl1bQ0gyXTIpQyg9TylbTkhdW0NAQEhdKFtDSF0oW0NIM10pW0NIM10pQyg9TylbTkhdW0NAQEhdKFtDSDJdW0NIMl1bQ0gyXVtDSDJdW05IMytdKUMoPU8pW05IXVtDQEBIXShbQ0gyXVtDSDJdW0NIMl1bQ0gyXVtOSDMrXSlDKD1PKVtOSF1bQ0BASF0oW0NIMl1bQ0gyXVtDSDJdW0NIMl1bTkgzK10pQyg9TylbTkhdW0NAQEhdKFtDSDNdKUMoPU8pW05IXVtDQEBIXShbQ0gyXVtDSDJdW0NIMl1bTkhdL0MoW05IMl0pPU5cW0hdKUMoPU8pW05IXVtDQEBIXShbQ0gyXVtDSDJdW0NIMl1bQ0gyXVtOSCtdKFtDSDNdKVtDSDNdKUMoPU8pW05IXVtDQEBIXShbQ0gyXVtPSF0pQyg9TylbTkhdW0NAQEhdKFtDSDNdKUMoPU8pW05IXVtDSDJdQyg9TylbT0hd

> <s_epik_cmdline>
J2VwaWtfYXBwJywgJy1pbWFlJywgJ2xpZ2FuZF9wcm8ubWFlJywgJy1vbWFlJywgJ2xpZ2FuZF9wcmVwLm1hZScsICctbXMnLCAnMScsICctcGgnLCAnNycsICctcGh0JywgJzAuNScsICctbnQn

> <s_epik_pKa_notes>
Molecule size exceeds maximum supported for generating protonation states

> <s_epik_Chemistry_Notes>
This compound has an imine and may undergo hydrolysis.

$$$$
