3u0d_ligand
                    3D
 Schrodinger Suite 2020-3.
 16 16  0  0  1  0            999 V2000
   17.5970   22.2060    6.1670 O   0  0  0  0  0  0
   18.1110   21.7030    5.1500 C   0  0  0  0  0  0
   18.7950   22.3920    4.3470 O   0  5  0  0  0  0
   17.8300   20.2620    4.8300 C   0  0  0  0  0  0
   16.7770   19.5580    5.4430 C   0  0  0  0  0  0
   16.4870   18.2240    5.0840 C   0  0  0  0  0  0
   18.6330   19.5890    3.7710 C   0  0  0  0  0  0
   19.6480   20.2230    3.1120 O   0  0  0  0  0  0
   18.2840   18.1980    3.4230 C   0  0  0  0  0  0
   17.2320   17.5530    4.0940 C   0  0  0  0  0  0
   19.0180   17.5860    2.4590 O   0  0  0  0  0  0
   16.1758   20.0506    6.2072 H   0  0  0  0  0  0
   15.6702   17.7024    5.5828 H   0  0  0  0  0  0
   19.9087   21.2598    3.3708 H   0  0  0  0  0  0
   16.9888   16.5199    3.8456 H   0  0  0  0  0  0
   19.8332   18.1302    1.9598 H   0  0  0  0  0  0
  1  2  2  0  0  0
  2  3  1  0  0  0
  2  4  1  0  0  0
  4  5  2  0  0  0
  4  7  1  0  0  0
  5  6  1  0  0  0
  5 12  1  0  0  0
  6 10  2  0  0  0
  6 13  1  0  0  0
  7  8  1  0  0  0
  7  9  2  0  0  0
  8 14  1  0  0  0
  9 10  1  0  0  0
  9 11  1  0  0  0
 10 15  1  0  0  0
 11 16  1  0  0  0
M  CHG  1   3  -1
M  END
> <s_m_source_file>
../3u0d_ligand.sdf

> <i_m_source_file_index>
1

> <s_epik_input>
Tz1DKFtPSF0pYzFbY0hdW2NIXVtjSF1jKFtPSF0pYzFbT0hd

> <s_epik_cmdline>
J2VwaWtfYXBwJywgJy1pbWFlJywgJ2xpZ2FuZF9wcm8ubWFlJywgJy1vbWFlJywgJ2xpZ2FuZF9wcmVwLm1hZScsICctbXMnLCAnMScsICctcGgnLCAnNycsICctcGh0JywgJzAuNScsICctbnQn

> <r_lp_tautomer_probability>
1

> <r_epik_Ionization_Penalty>
  0.0017

> <r_epik_Ionization_Penalty_Charging>
  0.0000

> <r_epik_Ionization_Penalty_Neutral>
  0.0016

> <r_epik_State_Penalty>
 -0.0000

> <r_epik_Charging_Adjusted_Penalty>
4.56206219586118e-05

> <i_epik_Tot_Q>
-1

> <i_epik_Tot_abs_Q>
1

$$$$
