3u0p_ligand
                    3D
 Schrodinger Suite 2020-3.
 87 86  0  0  1  0            999 V2000
  -20.5680   53.0630   59.4310 C   0  0  0  0  0  0
  -19.3830   52.9590   58.4920 C   0  0  0  0  0  0
  -18.0730   53.0760   59.2590 C   0  0  0  0  0  0
  -16.8860   52.9990   58.3110 C   0  0  0  0  0  0
  -15.6710   53.6930   58.9130 C   0  0  0  0  0  0
  -14.6760   52.7090   59.5130 C   0  0  0  0  0  0
  -13.3990   53.4690   59.8330 C   0  0  0  0  0  0
  -12.3420   52.6330   60.5440 C   0  0  0  0  0  0
  -11.0810   53.4600   60.5280 C   0  0  0  0  0  0
  -10.7340   54.1180   61.6270 C   0  0  0  0  0  0
   -9.4850   54.9640   61.6520 C   0  0  0  0  0  0
   -9.6680   56.0880   62.6670 C   0  0  0  0  0  0
  -10.8570   56.9690   62.2920 C   0  0  0  0  0  0
  -11.0720   58.0930   63.3020 C   0  0  0  0  0  0
  -10.5350   59.4210   62.7800 C   0  0  0  0  0  0
   -9.0760   59.6100   63.1750 C   0  0  0  0  0  0
   -8.5450   58.4080   63.9540 C   0  0  0  0  0  0
   -7.1840   58.7540   64.5130 C   0  0  0  0  0  0
   -6.8350   60.1570   64.6290 O   0  0  0  0  0  0
   -7.6390   61.0370   65.4100 C   0  0  0  0  0  0
   -7.5270   62.4230   64.7790 C   0  0  2  0  0  0
   -7.7760   63.5130   65.8200 C   0  0  0  0  0  0
   -8.9970   64.2120   65.5840 O   0  0  0  0  0  0
   -9.2710   65.0730   64.2470 P   0  0  1  0  0  0
   -9.8590   64.1290   63.2250 O   0  5  0  0  0  0
   -6.6010   65.3260   64.3800 C   0  0  0  0  0  0
   -5.4420   65.2870   63.3890 C   0  0  0  0  0  0
   -5.0570   66.6420   62.9760 N   0  3  0  0  0  0
   -6.3790   57.8970   64.8490 O   0  0  0  0  0  0
   -6.2370   67.5190   62.9280 C   0  0  0  0  0  0
   -8.4530   62.5370   63.6880 O   0  0  0  0  0  0
   -4.4600   66.5740   61.6340 C   0  0  0  0  0  0
  -10.0610   66.3030   64.6260 O   0  0  0  0  0  0
   -4.0750   67.1790   63.9280 C   0  0  0  0  0  0
   -7.8330   65.5570   63.6930 O   0  0  0  0  0  0
  -21.5010   52.9758   58.8549 H   0  0  0  0  0  0
  -20.5440   54.0351   59.9453 H   0  0  0  0  0  0
  -20.5190   52.2536   60.1743 H   0  0  0  0  0  0
  -19.4070   51.9869   57.9777 H   0  0  0  0  0  0
  -19.4320   53.7684   57.7487 H   0  0  0  0  0  0
  -18.0430   54.0397   59.7886 H   0  0  0  0  0  0
  -18.0000   52.2550   59.9874 H   0  0  0  0  0  0
  -16.6359   51.9447   58.1216 H   0  0  0  0  0  0
  -17.1426   53.4913   57.3614 H   0  0  0  0  0  0
  -15.1512   54.2661   58.1311 H   0  0  0  0  0  0
  -15.9968   54.3751   59.7121 H   0  0  0  0  0  0
  -15.0989   52.2734   60.4303 H   0  0  0  0  0  0
  -14.4699   51.9079   58.7879 H   0  0  0  0  0  0
  -12.9479   53.8373   58.8998 H   0  0  0  0  0  0
  -13.6337   54.3210   60.4880 H   0  0  0  0  0  0
  -12.6695   52.4263   61.5736 H   0  0  0  0  0  0
  -12.2024   51.6837   60.0061 H   0  0  0  0  0  0
  -10.4528   53.5238   59.6273 H   0  0  0  0  0  0
  -11.3589   54.0492   62.5297 H   0  0  0  0  0  0
   -8.6255   54.3405   61.9394 H   0  0  0  0  0  0
   -9.3109   55.3905   60.6531 H   0  0  0  0  0  0
   -9.8464   55.6570   63.6632 H   0  0  0  0  0  0
   -8.7607   56.7094   62.6935 H   0  0  0  0  0  0
  -10.6812   57.4214   61.3048 H   0  0  0  0  0  0
  -11.7704   56.3570   62.2575 H   0  0  0  0  0  0
  -12.1479   58.2060   63.5013 H   0  0  0  0  0  0
  -10.5492   57.8493   64.2386 H   0  0  0  0  0  0
  -10.6098   59.4409   61.6827 H   0  0  0  0  0  0
  -11.1257   60.2470   63.2028 H   0  0  0  0  0  0
   -8.4642   59.7350   62.2694 H   0  0  0  0  0  0
   -8.9805   60.5043   63.8083 H   0  0  0  0  0  0
   -9.2362   58.1692   64.7757 H   0  0  0  0  0  0
   -8.4627   57.5420   63.2807 H   0  0  0  0  0  0
   -8.6821   60.6880   65.3985 H   0  0  0  0  0  0
   -7.2683   61.0504   66.4456 H   0  0  0  0  0  0
   -6.5327   62.5636   64.3301 H   0  0  0  0  0  0
   -7.8292   63.0591   66.8206 H   0  0  0  0  0  0
   -6.9529   64.2422   65.7914 H   0  0  0  0  0  0
   -6.6610   64.3651   64.9120 H   0  0  0  0  0  0
   -6.4365   66.1368   65.1050 H   0  0  0  0  0  0
   -4.5740   64.8015   63.8589 H   0  0  0  0  0  0
   -5.7416   64.7181   62.4965 H   0  0  0  0  0  0
   -6.9678   67.1116   62.2139 H   0  0  0  0  0  0
   -5.9326   68.5260   62.6067 H   0  0  0  0  0  0
   -6.6930   67.5752   63.9275 H   0  0  0  0  0  0
   -8.4075   61.8245   62.8512 H   0  0  0  0  0  0
   -5.1979   66.1716   60.9244 H   0  0  0  0  0  0
   -3.5781   65.9169   61.6579 H   0  0  0  0  0  0
   -4.1573   67.5825   61.3158 H   0  0  0  0  0  0
   -4.5252   67.2283   64.9304 H   0  0  0  0  0  0
   -3.7720   68.1881   63.6121 H   0  0  0  0  0  0
   -3.1927   66.5225   63.9541 H   0  0  0  0  0  0
  1  2  1  0  0  0
  1 36  1  0  0  0
  1 37  1  0  0  0
  1 38  1  0  0  0
  2  3  1  0  0  0
  2 39  1  0  0  0
  2 40  1  0  0  0
  3  4  1  0  0  0
  3 41  1  0  0  0
  3 42  1  0  0  0
  4  5  1  0  0  0
  4 43  1  0  0  0
  4 44  1  0  0  0
  5  6  1  0  0  0
  5 45  1  0  0  0
  5 46  1  0  0  0
  6  7  1  0  0  0
  6 47  1  0  0  0
  6 48  1  0  0  0
  7  8  1  0  0  0
  7 49  1  0  0  0
  7 50  1  0  0  0
  8  9  1  0  0  0
  8 51  1  0  0  0
  8 52  1  0  0  0
  9 10  2  0  0  0
  9 53  1  0  0  0
 10 11  1  0  0  0
 10 54  1  0  0  0
 11 12  1  0  0  0
 11 55  1  0  0  0
 11 56  1  0  0  0
 12 13  1  0  0  0
 12 57  1  0  0  0
 12 58  1  0  0  0
 13 14  1  0  0  0
 13 59  1  0  0  0
 13 60  1  0  0  0
 14 15  1  0  0  0
 14 61  1  0  0  0
 14 62  1  0  0  0
 15 16  1  0  0  0
 15 63  1  0  0  0
 15 64  1  0  0  0
 16 17  1  0  0  0
 16 65  1  0  0  0
 16 66  1  0  0  0
 17 18  1  0  0  0
 17 67  1  0  0  0
 17 68  1  0  0  0
 18 19  1  0  0  0
 18 29  2  0  0  0
 19 20  1  0  0  0
 20 21  1  0  0  0
 20 69  1  0  0  0
 20 70  1  0  0  0
 21 22  1  0  0  0
 21 31  1  0  0  0
 21 71  1  0  0  0
 22 23  1  0  0  0
 22 72  1  0  0  0
 22 73  1  0  0  0
 23 24  1  0  0  0
 24 25  1  0  0  0
 24 33  2  0  0  0
 24 35  1  0  0  0
 26 27  1  0  0  0
 26 35  1  0  0  0
 26 74  1  0  0  0
 26 75  1  0  0  0
 27 28  1  0  0  0
 27 76  1  0  0  0
 27 77  1  0  0  0
 28 30  1  0  0  0
 28 32  1  0  0  0
 28 34  1  0  0  0
 30 78  1  0  0  0
 30 79  1  0  0  0
 30 80  1  0  0  0
 31 81  1  0  0  0
 32 82  1  0  0  0
 32 83  1  0  0  0
 32 84  1  0  0  0
 34 85  1  0  0  0
 34 86  1  0  0  0
 34 87  1  0  0  0
M  CHG  2  25  -1  28   1
M  END
> <s_m_source_file>
../3u0p_ligand.sdf

> <i_m_source_file_index>
1

> <s_epik_input>
W0NIM11bQ0gyXVtDSDJdW0NIMl1bQ0gyXVtDSDJdW0NIMl1bQ0gyXS9bQ0hdPVtDSF0vW0NIMl1bQ0gyXVtDSDJdW0NIMl1bQ0gyXVtDSDJdW0NIMl1DKD1PKU9bQ0gyXVtDQEBIXShbT0hdKVtDSDJdT1tQQF0oPU8pKFtPSF0pT1tDSDJdW0NIMl1bTitdKFtDSDNdKShbQ0gzXSlbQ0gzXQ==

> <s_epik_cmdline>
J2VwaWtfYXBwJywgJy1pbWFlJywgJ2xpZ2FuZF9wcm8ubWFlJywgJy1vbWFlJywgJ2xpZ2FuZF9wcmVwLm1hZScsICctbXMnLCAnMScsICctcGgnLCAnNycsICctcGh0JywgJzAuNScsICctbnQn

> <r_lp_tautomer_probability>
1

> <r_epik_Ionization_Penalty>
  0.0002

> <r_epik_Ionization_Penalty_Charging>
  0.0002

> <r_epik_Ionization_Penalty_Neutral>
  0.0000

> <r_epik_State_Penalty>
 -0.0000

> <r_epik_Charging_Adjusted_Penalty>
0.000158553361070287

> <i_epik_Tot_Q>
0

> <i_epik_Tot_abs_Q>
2

> <s_epik_Chemistry_Notes>
This compound has an ester and may undergo hydrolysis at high or low pH.

$$$$
