3u0t_ligand
                    3D
 Schrodinger Suite 2020-3.
157156  0  0  1  0            999 V2000
  -28.6890   -2.1880   13.6260 N   0  3  0  0  0  0
  -27.2210   -2.0250   13.8390 C   0  0  2  0  0  0
  -26.8880   -1.8620   15.3460 C   0  0  0  0  0  0
  -27.6660   -2.2930   16.2070 O   0  0  0  0  0  0
  -26.6720   -0.8650   12.9860 C   0  0  0  0  0  0
  -25.7540   -1.2360   15.6690 N   0  0  0  0  0  0
  -25.0900   -1.4580   16.9820 C   0  0  2  0  0  0
  -25.6370   -0.6500   18.1630 C   0  0  0  0  0  0
  -25.6420    0.5780   18.1200 O   0  0  0  0  0  0
  -23.5660   -1.2000   16.8790 C   0  0  2  0  0  0
  -22.9500   -2.1010   15.7920 C   0  0  0  0  0  0
  -22.8950   -1.4570   18.2150 C   0  0  0  0  0  0
  -21.5300   -1.7240   15.3950 C   0  0  0  0  0  0
  -26.0670   -1.3480   19.2200 N   0  0  0  0  0  0
  -26.5860   -0.6990   20.4370 C   0  0  2  0  0  0
  -25.4310   -0.2920   21.3470 C   0  0  0  0  0  0
  -24.4590   -1.0290   21.4770 O   0  0  0  0  0  0
  -27.5460   -1.6330   21.2420 C   0  0  2  0  0  0
  -28.8850   -1.7920   20.5140 C   0  0  0  0  0  0
  -27.7630   -1.1110   22.6970 C   0  0  0  0  0  0
  -29.6970   -2.9690   21.0060 C   0  0  0  0  0  0
  -25.5420    0.8790   21.9720 N   0  0  0  0  0  0
  -24.5600    1.3300   22.9710 C   0  0  0  0  0  0
  -23.1330    1.4570   22.4440 C   0  0  0  0  0  0
  -22.1680    1.0810   23.1280 O   0  0  0  0  0  0
  -23.0110    2.0130   21.2400 N   0  0  0  0  0  0
  -21.7380    2.0820   20.5060 C   0  0  2  0  0  0
  -20.8710    3.2600   20.9540 C   0  0  0  0  0  0
  -19.6410    3.2220   20.7740 O   0  0  0  0  0  0
  -22.0170    2.1740   18.9920 C   0  0  0  0  0  0
  -20.8510    2.2380   17.9970 C   0  0  0  0  0  0
  -19.8660    1.0970   18.2090 C   0  0  0  0  0  0
  -21.3900    2.2440   16.5410 C   0  0  0  0  0  0
  -21.5170    4.2750   21.5450 N   0  0  0  0  0  0
  -20.8750    5.5480   21.8850 C   0  0  2  0  0  0
  -21.3470    6.0710   23.2310 C   0  0  0  0  0  0
  -21.6960    7.2400   23.3500 O   0  0  0  0  0  0
  -21.1850    6.6120   20.8180 C   0  0  0  0  0  0
  -20.5700    6.3660   19.4510 C   0  0  0  0  0  0
  -18.8390    6.8660   19.3810 S   0  0  0  0  0  0
  -18.5630    6.9930   17.6040 C   0  0  0  0  0  0
  -21.3630    5.2120   24.2420 N   0  0  0  0  0  0
  -21.7640    5.6220   25.5870 C   0  0  2  0  0  0
  -20.5940    6.1390   26.4410 C   0  0  0  0  0  0
  -20.8260    6.7360   27.5000 O   0  0  0  0  0  0
  -22.4530    4.4640   26.3600 C   0  0  0  0  0  0
  -23.5690    3.8370   25.5210 C   0  0  0  0  0  0
  -21.4300    3.4310   26.7970 C   0  0  0  0  0  0
  -19.3590    5.8860   25.9990 N   0  0  0  0  0  0
  -18.1600    6.2790   26.7410 C   0  0  0  0  0  0
  -17.5510    7.6130   26.3210 C   0  0  0  0  0  0
  -16.6310    8.1130   26.9820 O   0  0  0  0  0  0
  -18.0550    8.1690   25.2140 N   0  0  0  0  0  0
  -17.5530    9.4410   24.6610 C   0  0  0  0  0  0
  -17.9650    9.8160   23.2310 C   0  0  0  0  0  0
  -18.5490    9.0200   22.5060 O   0  0  0  0  0  0
  -17.6650   11.0560   22.8480 N   0  0  0  0  0  0
  -17.9210   11.5570   21.5090 C   0  0  2  0  0  0
  -16.6790   12.0680   20.7700 C   0  0  0  0  0  0
  -16.7280   12.2450   19.5420 O   0  0  0  0  0  0
  -18.9690   12.6860   21.5300 C   0  0  0  0  0  0
  -20.3740   12.1200   21.8410 C   0  0  0  0  0  0
  -18.5620   13.7670   22.5060 C   0  0  0  0  0  0
  -15.5710   12.2850   21.4880 N   0  0  0  0  0  0
  -14.3860   12.9820   20.9140 C   0  0  2  0  0  0
  -13.6350   12.2290   19.7820 C   0  0  0  0  0  0
  -13.3410   12.7940   18.7190 O   0  0  0  0  0  0
  -13.3350   13.3540   22.0110 C   0  0  0  0  0  0
  -12.2030   14.1560   21.3930 C   0  0  0  0  0  0
  -13.9700   14.1330   23.1450 C   0  0  0  0  0  0
  -13.2610   11.0530   19.8900 O   0  0  0  0  0  0
  -29.0589   -3.0199   14.2434 H   0  0  0  0  0  0
  -28.8838   -2.4038   12.5651 H   0  0  0  0  0  0
  -29.2063   -1.2604   13.9125 H   0  0  0  0  0  0
  -26.7513   -2.9548   13.4855 H   0  0  0  0  0  0
  -26.9349   -1.0296   11.9306 H   0  0  0  0  0  0
  -25.5777   -0.8204   13.0886 H   0  0  0  0  0  0
  -27.1115    0.0829   13.3299 H   0  0  0  0  0  0
  -25.3109   -0.5429   14.9388 H   0  0  0  0  0  0
  -25.3458   -2.5105   17.1740 H   0  0  0  0  0  0
  -23.3896   -0.1463   16.6171 H   0  0  0  0  0  0
  -22.9179   -3.1400   16.1518 H   0  0  0  0  0  0
  -23.5633   -2.0475   14.8804 H   0  0  0  0  0  0
  -23.3437   -0.8080   18.9815 H   0  0  0  0  0  0
  -21.8199   -1.2388   18.1333 H   0  0  0  0  0  0
  -23.0349   -2.5105   18.4989 H   0  0  0  0  0  0
  -21.1706   -2.4153   14.6185 H   0  0  0  0  0  0
  -20.8738   -1.7884   16.2755 H   0  0  0  0  0  0
  -21.5193   -0.6959   15.0041 H   0  0  0  0  0  0
  -26.0230   -2.4454   19.1580 H   0  0  0  0  0  0
  -27.1228    0.1851   20.0626 H   0  0  0  0  0  0
  -27.0874   -2.6310   21.3020 H   0  0  0  0  0  0
  -29.4919   -0.8863   20.6606 H   0  0  0  0  0  0
  -28.7027   -1.9412   19.4395 H   0  0  0  0  0  0
  -26.7893   -1.0054   23.1977 H   0  0  0  0  0  0
  -28.3861   -1.8262   23.2540 H   0  0  0  0  0  0
  -28.2666   -0.1336   22.6646 H   0  0  0  0  0  0
  -30.6408   -3.0240   20.4436 H   0  0  0  0  0  0
  -29.9150   -2.8421   22.0767 H   0  0  0  0  0  0
  -29.1258   -3.8970   20.8556 H   0  0  0  0  0  0
  -26.4025    1.5162   21.7200 H   0  0  0  0  0  0
  -24.8505    2.3213   23.3492 H   0  0  0  0  0  0
  -24.5301    0.6136   23.8052 H   0  0  0  0  0  0
  -23.9253    2.4340   20.7962 H   0  0  0  0  0  0
  -21.2081    1.1529   20.7628 H   0  0  0  0  0  0
  -22.5910    1.2923   18.6707 H   0  0  0  0  0  0
  -22.5957    3.0852   18.7805 H   0  0  0  0  0  0
  -20.2935    3.1664   18.1898 H   0  0  0  0  0  0
  -19.5006    1.1161   19.2463 H   0  0  0  0  0  0
  -19.0171    1.2125   17.5190 H   0  0  0  0  0  0
  -20.3685    0.1380   18.0148 H   0  0  0  0  0  0
  -22.0980    3.0765   16.4155 H   0  0  0  0  0  0
  -21.9027    1.2926   16.3359 H   0  0  0  0  0  0
  -20.5512    2.3671   15.8400 H   0  0  0  0  0  0
  -22.5811    4.1170   21.7748 H   0  0  0  0  0  0
  -19.8017    5.3113   21.9310 H   0  0  0  0  0  0
  -22.2725    6.6698   20.6630 H   0  0  0  0  0  0
  -20.8102    7.5896   21.1553 H   0  0  0  0  0  0
  -20.6253    5.2938   19.2117 H   0  0  0  0  0  0
  -21.1218    6.9400   18.6920 H   0  0  0  0  0  0
  -17.5229    7.2974   17.4153 H   0  0  0  0  0  0
  -19.2471    7.7424   17.1793 H   0  0  0  0  0  0
  -18.7505    6.0167   17.1331 H   0  0  0  0  0  0
  -21.0654    4.1705   24.0503 H   0  0  0  0  0  0
  -22.4566    6.4474   25.3655 H   0  0  0  0  0  0
  -22.9180    4.8557   27.2767 H   0  0  0  0  0  0
  -24.2872    4.6160   25.2253 H   0  0  0  0  0  0
  -24.0856    3.0680   26.1141 H   0  0  0  0  0  0
  -23.1362    3.3764   24.6207 H   0  0  0  0  0  0
  -20.6475    3.9203   27.3955 H   0  0  0  0  0  0
  -20.9759    2.9663   25.9094 H   0  0  0  0  0  0
  -21.9253    2.6579   27.4027 H   0  0  0  0  0  0
  -19.2631    5.3607   25.0373 H   0  0  0  0  0  0
  -18.4027    6.3660   27.8104 H   0  0  0  0  0  0
  -17.3777    5.5180   26.6033 H   0  0  0  0  0  0
  -18.8772    7.6376   24.7124 H   0  0  0  0  0  0
  -17.9008   10.2757   25.2873 H   0  0  0  0  0  0
  -16.4532    9.4263   24.6475 H   0  0  0  0  0  0
  -17.2023   11.7108   23.6011 H   0  0  0  0  0  0
  -18.2815   10.6446   21.0115 H   0  0  0  0  0  0
  -19.0081   13.1657   20.5409 H   0  0  0  0  0  0
  -20.6256   11.3398   21.1075 H   0  0  0  0  0  0
  -21.1163   12.9298   21.7842 H   0  0  0  0  0  0
  -20.3795   11.6878   22.8525 H   0  0  0  0  0  0
  -17.5596   14.1376   22.2456 H   0  0  0  0  0  0
  -18.5468   13.3538   23.5253 H   0  0  0  0  0  0
  -19.2836   14.5958   22.4570 H   0  0  0  0  0  0
  -15.5506   11.9326   22.5298 H   0  0  0  0  0  0
  -14.8873   13.8578   20.4761 H   0  0  0  0  0  0
  -12.8089   12.2409   17.9310 H   0  0  0  0  0  0
  -12.9151   12.4376   22.4514 H   0  0  0  0  0  0
  -11.7511   13.5799   20.5721 H   0  0  0  0  0  0
  -11.4406   14.3638   22.1582 H   0  0  0  0  0  0
  -12.5975   15.1051   21.0011 H   0  0  0  0  0  0
  -14.7874   13.5417   23.5834 H   0  0  0  0  0  0
  -14.3702   15.0821   22.7588 H   0  0  0  0  0  0
  -13.2133   14.3407   23.9159 H   0  0  0  0  0  0
  1  2  1  0  0  0
  1 72  1  0  0  0
  1 73  1  0  0  0
  1 74  1  0  0  0
  2  3  1  0  0  0
  2  5  1  0  0  0
  2 75  1  0  0  0
  3  4  2  0  0  0
  3  6  1  0  0  0
  5 76  1  0  0  0
  5 77  1  0  0  0
  5 78  1  0  0  0
  6  7  1  0  0  0
  6 79  1  0  0  0
  7  8  1  0  0  0
  7 10  1  0  0  0
  7 80  1  0  0  0
  8  9  2  0  0  0
  8 14  1  0  0  0
 10 11  1  0  0  0
 10 12  1  0  0  0
 10 81  1  0  0  0
 11 13  1  0  0  0
 11 82  1  0  0  0
 11 83  1  0  0  0
 12 84  1  0  0  0
 12 85  1  0  0  0
 12 86  1  0  0  0
 13 87  1  0  0  0
 13 88  1  0  0  0
 13 89  1  0  0  0
 14 15  1  0  0  0
 14 90  1  0  0  0
 15 16  1  0  0  0
 15 18  1  0  0  0
 15 91  1  0  0  0
 16 17  2  0  0  0
 16 22  1  0  0  0
 18 19  1  0  0  0
 18 20  1  0  0  0
 18 92  1  0  0  0
 19 21  1  0  0  0
 19 93  1  0  0  0
 19 94  1  0  0  0
 20 95  1  0  0  0
 20 96  1  0  0  0
 20 97  1  0  0  0
 21 98  1  0  0  0
 21 99  1  0  0  0
 21100  1  0  0  0
 22 23  1  0  0  0
 22101  1  0  0  0
 23 24  1  0  0  0
 23102  1  0  0  0
 23103  1  0  0  0
 24 25  2  0  0  0
 24 26  1  0  0  0
 26 27  1  0  0  0
 26104  1  0  0  0
 27 28  1  0  0  0
 27 30  1  0  0  0
 27105  1  0  0  0
 28 29  2  0  0  0
 28 34  1  0  0  0
 30 31  1  0  0  0
 30106  1  0  0  0
 30107  1  0  0  0
 31 32  1  0  0  0
 31 33  1  0  0  0
 31108  1  0  0  0
 32109  1  0  0  0
 32110  1  0  0  0
 32111  1  0  0  0
 33112  1  0  0  0
 33113  1  0  0  0
 33114  1  0  0  0
 34 35  1  0  0  0
 34115  1  0  0  0
 35 36  1  0  0  0
 35 38  1  0  0  0
 35116  1  0  0  0
 36 37  2  0  0  0
 36 42  1  0  0  0
 38 39  1  0  0  0
 38117  1  0  0  0
 38118  1  0  0  0
 39 40  1  0  0  0
 39119  1  0  0  0
 39120  1  0  0  0
 40 41  1  0  0  0
 41121  1  0  0  0
 41122  1  0  0  0
 41123  1  0  0  0
 42 43  1  0  0  0
 42124  1  0  0  0
 43 44  1  0  0  0
 43 46  1  0  0  0
 43125  1  0  0  0
 44 45  2  0  0  0
 44 49  1  0  0  0
 46 47  1  0  0  0
 46 48  1  0  0  0
 46126  1  0  0  0
 47127  1  0  0  0
 47128  1  0  0  0
 47129  1  0  0  0
 48130  1  0  0  0
 48131  1  0  0  0
 48132  1  0  0  0
 49 50  1  0  0  0
 49133  1  0  0  0
 50 51  1  0  0  0
 50134  1  0  0  0
 50135  1  0  0  0
 51 52  2  0  0  0
 51 53  1  0  0  0
 53 54  1  0  0  0
 53136  1  0  0  0
 54 55  1  0  0  0
 54137  1  0  0  0
 54138  1  0  0  0
 55 56  2  0  0  0
 55 57  1  0  0  0
 57 58  1  0  0  0
 57139  1  0  0  0
 58 59  1  0  0  0
 58 61  1  0  0  0
 58140  1  0  0  0
 59 60  2  0  0  0
 59 64  1  0  0  0
 61 62  1  0  0  0
 61 63  1  0  0  0
 61141  1  0  0  0
 62142  1  0  0  0
 62143  1  0  0  0
 62144  1  0  0  0
 63145  1  0  0  0
 63146  1  0  0  0
 63147  1  0  0  0
 64 65  1  0  0  0
 64148  1  0  0  0
 65 66  1  0  0  0
 65 68  1  0  0  0
 65149  1  0  0  0
 66 67  1  0  0  0
 66 71  2  0  0  0
 67150  1  0  0  0
 68 69  1  0  0  0
 68 70  1  0  0  0
 68151  1  0  0  0
 69152  1  0  0  0
 69153  1  0  0  0
 69154  1  0  0  0
 70155  1  0  0  0
 70156  1  0  0  0
 70157  1  0  0  0
M  CHG  1   1   1
M  END
> <s_m_source_file>
../3u0t_ligand.sdf

> <i_m_source_file_index>
1

> <s_epik_input>
W05IMytdW0NAQEhdKFtDSDNdKUMoPU8pW05IXVtDQEBIXShbQ0BASF0oW0NIM10pW0NIMl1bQ0gzXSlDKD1PKVtOSF1bQ0BASF0oW0NAQEhdKFtDSDNdKVtDSDJdW0NIM10pQyg9TylbTkhdW0NIMl1DKD1PKVtOSF1bQ0BASF0oW0NIMl1bQ0hdKFtDSDNdKVtDSDNdKUMoPU8pW05IXVtDQEBIXShbQ0gyXVtDSDJdU1tDSDNdKUMoPU8pW05IXVtDQEBIXShbQ0hdKFtDSDNdKVtDSDNdKUMoPU8pW05IXVtDSDJdQyg9TylbTkhdW0NIMl1DKD1PKVtOSF1bQ0BASF0oW0NIXShbQ0gzXSlbQ0gzXSlDKD1PKVtOSF1bQ0BIXShDKD1PKVtPSF0pW0NIXShbQ0gzXSlbQ0gzXQ==

> <s_epik_cmdline>
J2VwaWtfYXBwJywgJy1pbWFlJywgJ2xpZ2FuZF9wcm8ubWFlJywgJy1vbWFlJywgJ2xpZ2FuZF9wcmVwLm1hZScsICctbXMnLCAnMScsICctcGgnLCAnNycsICctcGh0JywgJzAuNScsICctbnQn

> <s_epik_pKa_notes>
Molecule size exceeds maximum supported for generating protonation states

$$$$
