3u10_ligand
                    3D
 Schrodinger Suite 2020-3.
 33 36  0  0  1  0            999 V2000
   -7.2770  -23.1400   -7.4720 P   0  0  1  0  0  0
   -7.9230  -23.0200   -6.0810 O   0  5  0  0  0  0
   -6.6670  -24.4770   -7.6230 O   0  0  0  0  0  0
   -8.3270  -22.8030   -8.6170 O   0  0  0  0  0  0
   -8.9090  -21.5190   -8.7910 C   0  0  0  0  0  0
   -7.7440  -20.5820   -8.8650 C   0  0  1  0  0  0
   -8.1070  -19.2240   -8.8560 O   0  0  0  0  0  0
   -6.8420  -20.6900   -7.6540 C   0  0  1  0  0  0
   -6.2370  -21.9340   -7.5680 O   0  0  0  0  0  0
   -5.8980  -19.5640   -7.9220 C   0  0  1  0  0  0
   -4.7130  -19.9300   -8.6620 O   0  0  0  0  0  0
   -6.8280  -18.5710   -8.6370 C   0  0  2  0  0  0
   -6.9720  -17.4850   -7.6490 N   0  0  0  0  0  0
   -7.5970  -17.6290   -6.4530 C   0  0  0  0  0  0
   -7.5580  -16.4690   -5.7530 N   0  0  0  0  0  0
   -6.9000  -15.5550   -6.5060 C   0  0  0  0  0  0
   -6.5300  -14.1350   -6.3500 C   0  0  0  0  0  0
   -6.8380  -13.4320   -5.2140 N   0  0  0  0  0  0
   -5.8860  -13.5600   -7.4070 N   0  0  0  0  0  0
   -5.5600  -14.2340   -8.5480 C   0  0  0  0  0  0
   -5.8590  -15.5400   -8.7220 N   0  0  0  0  0  0
   -6.5190  -16.2320   -7.7600 C   0  0  0  0  0  0
   -9.5022  -21.5078   -9.7173 H   0  0  0  0  0  0
   -9.5617  -21.2932   -7.9348 H   0  0  0  0  0  0
   -7.2759  -20.8160   -9.8325 H   0  0  0  0  0  0
   -7.3054  -20.6828   -6.6564 H   0  0  0  0  0  0
   -5.3790  -19.1881   -7.0279 H   0  0  0  0  0  0
   -3.9896  -20.6359   -8.2279 H   0  0  0  0  0  0
   -6.5015  -18.2001   -9.6198 H   0  0  0  0  0  0
   -8.0652  -18.5494   -6.1039 H   0  0  0  0  0  0
   -7.3580  -13.9306   -4.3827 H   0  0  0  0  0  0
   -6.5652  -12.3694   -5.1338 H   0  0  0  0  0  0
   -5.0414  -13.7012   -9.3451 H   0  0  0  0  0  0
  1  2  1  0  0  0
  1  3  2  0  0  0
  1  4  1  0  0  0
  1  9  1  0  0  0
  4  5  1  0  0  0
  5  6  1  0  0  0
  5 23  1  0  0  0
  5 24  1  0  0  0
  6  7  1  0  0  0
  6  8  1  0  0  0
  6 25  1  0  0  0
  7 12  1  0  0  0
  8  9  1  0  0  0
  8 10  1  0  0  0
  8 26  1  0  0  0
 10 11  1  0  0  0
 10 12  1  0  0  0
 10 27  1  0  0  0
 11 28  1  0  0  0
 12 13  1  0  0  0
 12 29  1  0  0  0
 13 14  1  0  0  0
 13 22  1  0  0  0
 14 15  2  0  0  0
 14 30  1  0  0  0
 15 16  1  0  0  0
 16 17  2  0  0  0
 16 22  1  0  0  0
 17 18  1  0  0  0
 17 19  1  0  0  0
 18 31  1  0  0  0
 18 32  1  0  0  0
 19 20  2  0  0  0
 20 21  1  0  0  0
 20 33  1  0  0  0
 21 22  2  0  0  0
M  CHG  1   2  -1
M  END
> <s_m_source_file>
../3u10_ligand.sdf

> <i_m_source_file_index>
1

> <s_epik_input>
W0NIMl0xT1tQQF0oPU8pKFtPSF0pT1tDQEhdKFtDQEBIXTEyKVtDQEBIXShbT0hdKVtDQEBIXShPMiluKFtjSF1uMyljKGMzNCluW2NIXW5jNFtOSDJd

> <s_epik_cmdline>
J2VwaWtfYXBwJywgJy1pbWFlJywgJ2xpZ2FuZF9wcm8ubWFlJywgJy1vbWFlJywgJ2xpZ2FuZF9wcmVwLm1hZScsICctbXMnLCAnMScsICctcGgnLCAnNycsICctcGh0JywgJzAuNScsICctbnQn

> <r_lp_tautomer_probability>
1

> <r_epik_Ionization_Penalty>
  0.0008

> <r_epik_Ionization_Penalty_Charging>
  0.0002

> <r_epik_Ionization_Penalty_Neutral>
  0.0005

> <r_epik_State_Penalty>
 -0.0000

> <r_epik_Charging_Adjusted_Penalty>
0.000248221998699987

> <i_epik_Tot_Q>
-1

> <i_epik_Tot_abs_Q>
1

> <s_epik_Chemistry_Notes>
This compound contains an acetal/aminal-like group ( X-CH(R)-Y where X, Y are N, S, or O) that may be acid/base labile, releasing an aldehyde.

$$$$
