3u15_ligand
                    3D
 Schrodinger Suite 2020-3.
 41 44  0  0  1  0            999 V2000
  -10.1830  -34.3510    1.6740 C   0  0  0  0  0  0
   -8.0530  -37.1220    0.5890 C   0  0  0  0  0  0
   -9.2640  -36.5010    0.6750 C   0  0  0  0  0  0
   -9.2280  -35.3140    1.3560 C   0  0  0  0  0  0
  -10.4630  -36.9840    0.0160 C   0  0  0  0  0  0
   -9.7710  -39.0810   -1.2730 N   0  0  0  0  0  0
  -10.5630  -39.8700   -2.0390 C   0  0  0  0  0  0
  -11.9750  -38.4190   -1.4440 C   0  0  0  0  0  0
  -15.0410  -40.8860   -1.6330 C   0  0  0  0  0  0
  -15.7810  -41.8660   -0.9540 C   0  0  0  0  0  0
  -15.3550  -43.2060   -0.9660 C   0  0  0  0  0  0
  -13.4170  -42.5540   -2.2720 C   0  0  0  0  0  0
   -9.7660  -33.2810    2.4220 C   0  0  0  0  0  0
   -8.4360  -33.1820    2.8070 C   0  0  0  0  0  0
   -7.4970  -34.1130    2.4680 C   0  0  3  0  0  0
   -7.2530  -36.2880    1.2880 N   0  0  0  0  0  0
   -7.9050  -35.2080    1.7540 C   0  0  0  0  0  0
  -10.6750  -38.1460   -0.8290 C   0  0  0  0  0  0
  -11.8990  -39.5090   -2.2160 N   0  0  0  0  0  0
  -10.0200  -40.8770   -2.6500 O   0  0  0  0  0  0
  -13.0060  -37.6760   -1.1760 O   0  0  0  0  0  0
  -12.9700  -40.1810   -3.0040 C   0  0  0  0  0  0
  -13.8200  -41.2180   -2.2690 C   0  0  0  0  0  0
  -14.1610  -43.5220   -1.6120 C   0  0  0  0  0  0
  -13.7230  -44.7900   -1.6240 F   0  0  0  0  0  0
  -16.0480  -44.1980   -0.3160 F   0  0  0  0  0  0
   -6.0640  -33.9890    2.9150 C   0  0  0  0  0  0
   -8.0200  -31.7770    3.7790 Cl  0  0  0  0  0  0
  -11.2201  -34.4692    1.3268 H   0  0  0  0  0  0
   -7.9583  -38.0686    0.0368 H   0  0  0  0  0  0
  -11.3007  -36.3077    0.2415 H   0  0  0  0  0  0
   -8.7005  -39.3117   -1.1692 H   0  0  0  0  0  0
  -15.4090  -39.8607   -1.6712 H   0  0  0  0  0  0
  -16.6875  -41.5881   -0.4164 H   0  0  0  0  0  0
  -12.5070  -42.8407   -2.7990 H   0  0  0  0  0  0
  -10.4836  -32.5013    2.7173 H   0  0  0  0  0  0
  -13.6783  -39.4269   -3.3776 H   0  0  0  0  0  0
  -12.5199  -40.7143   -3.8543 H   0  0  0  0  0  0
   -5.9332  -33.0485    3.4703 H   0  0  0  0  0  0
   -5.4040  -33.9901    2.0350 H   0  0  0  0  0  0
   -5.8083  -34.8379    3.5662 H   0  0  0  0  0  0
  1  4  2  0  0  0
  1 13  1  0  0  0
  1 29  1  0  0  0
  2  3  2  0  0  0
  2 16  1  0  0  0
  2 30  1  0  0  0
  3  4  1  0  0  0
  3  5  1  0  0  0
  4 17  1  0  0  0
  5 18  2  0  0  0
  5 31  1  0  0  0
  6  7  1  0  0  0
  6 18  1  0  0  0
  6 32  1  0  0  0
  7 19  1  0  0  0
  7 20  2  0  0  0
  8 18  1  0  0  0
  8 19  1  0  0  0
  8 21  2  0  0  0
  9 10  2  0  0  0
  9 23  1  0  0  0
  9 33  1  0  0  0
 10 11  1  0  0  0
 10 34  1  0  0  0
 11 24  2  0  0  0
 11 26  1  0  0  0
 12 23  2  0  0  0
 12 24  1  0  0  0
 12 35  1  0  0  0
 13 14  2  0  0  0
 13 36  1  0  0  0
 14 15  1  0  0  0
 14 28  1  0  0  0
 15 17  1  0  0  0
 15 27  1  0  0  0
 16 17  2  0  0  0
 19 22  1  0  0  0
 22 23  1  0  0  0
 22 37  1  0  0  0
 22 38  1  0  0  0
 24 25  1  0  0  0
 27 39  1  0  0  0
 27 40  1  0  0  0
 27 41  1  0  0  0
M  END
> <s_m_source_file>
../3u15_ligand.sdf

> <i_m_source_file_index>
1

> <s_epik_input>
W0NIXT0xW0NIXT1DKENsKVtDSF0oW0NIM10pQyhDMTIpPU5bQ0hdPUMyL1tDSF09QyhcW05IXUMzPU8pQyg9TylOM1tDSDJdYyhbY0hdYzRGKVtjSF1bY0hdYzRG

> <s_epik_cmdline>
J2VwaWtfYXBwJywgJy1pbWFlJywgJ2xpZ2FuZF9wcm8ubWFlJywgJy1vbWFlJywgJ2xpZ2FuZF9wcmVwLm1hZScsICctbXMnLCAnMScsICctcGgnLCAnNycsICctcGh0JywgJzAuNScsICctbnQn

> <r_epik_Ionization_Penalty>
  0.0348

> <r_epik_Ionization_Penalty_Charging>
  0.0000

> <r_epik_Ionization_Penalty_Neutral>
  0.0348

> <r_epik_State_Penalty>
  0.0290

> <r_epik_Charging_Adjusted_Penalty>
0.0289716687521007

> <i_epik_Tot_Q>
0

> <i_epik_Tot_abs_Q>
0

> <s_epik_Chemistry_Notes>
This compound has an imine and may undergo hydrolysis.

$$$$
