3u1i_ligand
                    3D
 Schrodinger Suite 2020-3.
103103  0  0  1  0            999 V2000
   20.3410  -24.3140    8.1560 C   0  0  0  0  0  0
   19.9950  -23.2270    7.7060 O   0  0  0  0  0  0
   19.3410  -25.1730    8.8870 C   0  0  0  0  0  0
   19.1800  -26.5190    8.5530 C   0  0  0  0  0  0
   18.2440  -27.3180    9.2210 C   0  0  0  0  0  0
   17.4600  -26.7800   10.2400 C   0  0  0  0  0  0
   17.6150  -25.4330   10.5800 C   0  0  0  0  0  0
   18.5540  -24.6300    9.9100 C   0  0  0  0  0  0
   21.5760  -24.7950    8.0520 N   0  0  0  0  0  0
   22.6590  -24.4870    7.1130 C   0  0  2  0  0  0
   23.5740  -23.4320    7.6550 C   0  0  0  0  0  0
   23.9430  -23.5920    8.8020 O   0  0  0  0  0  0
   22.2330  -24.3070    5.6580 C   0  0  0  0  0  0
   21.7760  -25.6440    5.0750 C   0  0  0  0  0  0
   22.9430  -26.5610    4.7170 C   0  0  0  0  0  0
   22.7220  -27.0780    3.3280 C   0  0  0  0  0  0
   23.9670  -22.4010    6.9000 N   0  0  0  0  0  0
   25.1680  -21.6280    7.2430 C   0  0  2  0  0  0
   24.8990  -20.5220    8.2360 C   0  0  0  0  0  0
   25.8300  -19.9540    8.8080 O   0  0  0  0  0  0
   25.8600  -21.0640    5.9940 C   0  0  0  0  0  0
   26.3290  -22.2080    5.0980 C   0  0  0  0  0  0
   27.4660  -21.7800    4.1840 C   0  0  0  0  0  0
   27.5810  -22.7450    3.0060 C   0  0  0  0  0  0
   28.9120  -22.6930    2.4250 N   0  3  0  0  0  0
   23.6160  -20.2190    8.4350 N   0  0  0  0  0  0
   23.2170  -19.0410    9.1670 C   0  0  2  0  0  0
   22.2630  -19.3060   10.2940 C   0  0  0  0  0  0
   21.3210  -20.0850   10.1640 O   0  0  0  0  0  0
   22.5480  -18.0900    8.1850 C   0  0  0  0  0  0
   23.4330  -16.8750    7.9790 C   0  0  0  0  0  0
   23.9560  -16.7900    6.5570 C   0  0  0  0  0  0
   23.5300  -15.5660    5.9150 N   0  0  0  0  0  0
   24.3670  -14.7080    5.2990 C   0  0  0  0  0  0
   23.8200  -13.7050    4.6040 N   0  3  0  0  0  0
   25.7070  -14.8280    5.3750 N   0  0  0  0  0  0
   20.1750  -16.6650   11.9230 O   0  0  0  0  0  0
   22.4830  -18.6170   11.4050 N   0  0  0  0  0  0
   21.4650  -22.8660   13.2910 N   0  0  0  0  0  0
   21.7950  -22.9290   10.9660 N   0  0  0  0  0  0
   21.7570  -24.8720   12.2020 N   0  3  0  0  0  0
   21.4830  -18.5800   12.4790 C   0  0  1  0  0  0
   22.0310  -19.1160   13.8030 C   0  0  0  0  0  0
   22.4300  -20.5930   13.6990 C   0  0  0  0  0  0
   21.2550  -21.4300   13.2190 C   0  0  0  0  0  0
   21.6710  -23.5490   12.1600 C   0  0  0  0  0  0
   20.9690  -17.1810   12.7070 C   0  0  0  0  0  0
   19.7910  -26.9536    7.7618 H   0  0  0  0  0  0
   18.1280  -28.3655    8.9428 H   0  0  0  0  0  0
   16.7350  -27.4018   10.7653 H   0  0  0  0  0  0
   17.0023  -25.0017   11.3716 H   0  0  0  0  0  0
   18.6699  -23.5823   10.1873 H   0  0  0  0  0  0
   21.7294  -25.5455    8.8415 H   0  0  0  0  0  0
   23.2523  -25.4129    7.0870 H   0  0  0  0  0  0
   21.4025  -23.5876    5.6054 H   0  0  0  0  0  0
   23.0831  -23.9291    5.0711 H   0  0  0  0  0  0
   21.1484  -26.1692    5.8101 H   0  0  0  0  0  0
   21.1951  -25.4649    4.1583 H   0  0  0  0  0  0
   23.8836  -25.9927    4.7640 H   0  0  0  0  0  0
   22.9841  -27.3976    5.4300 H   0  0  0  0  0  0
   23.5525  -27.7427    3.0477 H   0  0  0  0  0  0
   22.6755  -26.2330    2.6253 H   0  0  0  0  0  0
   21.7758  -27.6379    3.2914 H   0  0  0  0  0  0
   23.3767  -22.1345    6.0109 H   0  0  0  0  0  0
   25.8115  -22.3699    7.7384 H   0  0  0  0  0  0
   25.1523  -20.4331    5.4361 H   0  0  0  0  0  0
   26.7287  -20.4610    6.2969 H   0  0  0  0  0  0
   26.6832  -23.0413    5.7226 H   0  0  0  0  0  0
   25.4921  -22.5496    4.4711 H   0  0  0  0  0  0
   27.2692  -20.7667    3.8038 H   0  0  0  0  0  0
   28.4106  -21.7830    4.7477 H   0  0  0  0  0  0
   27.3847  -23.7706    3.3517 H   0  0  0  0  0  0
   26.8462  -22.4711    2.2346 H   0  0  0  0  0  0
   28.9709  -23.3949    1.5801 H   0  0  0  0  0  0
   29.6555  -22.9721    3.1861 H   0  0  0  0  0  0
   29.1170  -21.6726    2.0690 H   0  0  0  0  0  0
   22.8526  -20.8957    8.0235 H   0  0  0  0  0  0
   24.1495  -18.6662    9.6142 H   0  0  0  0  0  0
   22.3972  -18.6023    7.2233 H   0  0  0  0  0  0
   21.5749  -17.7720    8.5875 H   0  0  0  0  0  0
   22.8568  -15.9618    8.1891 H   0  0  0  0  0  0
   24.2950  -16.9295    8.6602 H   0  0  0  0  0  0
   25.0556  -16.8156    6.5686 H   0  0  0  0  0  0
   23.5755  -17.6422    5.9748 H   0  0  0  0  0  0
   22.4655  -15.2887    5.9110 H   0  0  0  0  0  0
   22.7257  -13.6100    4.5440 H   0  0  0  0  0  0
   26.1536  -15.6543    5.9476 H   0  0  0  0  0  0
   26.3543  -14.0997    4.8645 H   0  0  0  0  0  0
   23.4299  -18.0683   11.5160 H   0  0  0  0  0  0
   21.4530  -23.3754   14.2659 H   0  0  0  0  0  0
   21.7273  -21.8327   10.9059 H   0  0  0  0  0  0
   21.9637  -23.5205   10.0540 H   0  0  0  0  0  0
   21.6592  -25.3993   13.1624 H   0  0  0  0  0  0
   20.6747  -19.2257   12.1053 H   0  0  0  0  0  0
   22.9209  -18.5378   14.0924 H   0  0  0  0  0  0
   21.2619  -19.0206   14.5837 H   0  0  0  0  0  0
   23.2596  -20.6992   12.9845 H   0  0  0  0  0  0
   22.7480  -20.9574   14.6870 H   0  0  0  0  0  0
   21.0620  -21.1395   12.1757 H   0  0  0  0  0  0
   20.3916  -21.1540   13.8421 H   0  0  0  0  0  0
   21.3137  -16.6211   13.5888 H   0  0  0  0  0  0
   24.4643  -12.9749    4.0923 H   0  0  0  0  0  0
   21.9261  -25.4418   11.2764 H   0  0  0  0  0  0
  1  2  2  0  0  0
  1  3  1  0  0  0
  1  9  1  0  0  0
  3  4  2  0  0  0
  3  8  1  0  0  0
  4  5  1  0  0  0
  4 48  1  0  0  0
  5  6  2  0  0  0
  5 49  1  0  0  0
  6  7  1  0  0  0
  6 50  1  0  0  0
  7  8  2  0  0  0
  7 51  1  0  0  0
  8 52  1  0  0  0
  9 10  1  0  0  0
  9 53  1  0  0  0
 10 11  1  0  0  0
 10 13  1  0  0  0
 10 54  1  0  0  0
 11 12  2  0  0  0
 11 17  1  0  0  0
 13 14  1  0  0  0
 13 55  1  0  0  0
 13 56  1  0  0  0
 14 15  1  0  0  0
 14 57  1  0  0  0
 14 58  1  0  0  0
 15 16  1  0  0  0
 15 59  1  0  0  0
 15 60  1  0  0  0
 16 61  1  0  0  0
 16 62  1  0  0  0
 16 63  1  0  0  0
 17 18  1  0  0  0
 17 64  1  0  0  0
 18 19  1  0  0  0
 18 21  1  0  0  0
 18 65  1  0  0  0
 19 20  2  0  0  0
 19 26  1  0  0  0
 21 22  1  0  0  0
 21 66  1  0  0  0
 21 67  1  0  0  0
 22 23  1  0  0  0
 22 68  1  0  0  0
 22 69  1  0  0  0
 23 24  1  0  0  0
 23 70  1  0  0  0
 23 71  1  0  0  0
 24 25  1  0  0  0
 24 72  1  0  0  0
 24 73  1  0  0  0
 25 74  1  0  0  0
 25 75  1  0  0  0
 25 76  1  0  0  0
 26 27  1  0  0  0
 26 77  1  0  0  0
 27 28  1  0  0  0
 27 30  1  0  0  0
 27 78  1  0  0  0
 28 29  2  0  0  0
 28 38  1  0  0  0
 30 31  1  0  0  0
 30 79  1  0  0  0
 30 80  1  0  0  0
 31 32  1  0  0  0
 31 81  1  0  0  0
 31 82  1  0  0  0
 32 33  1  0  0  0
 32 83  1  0  0  0
 32 84  1  0  0  0
 33 34  1  0  0  0
 33 85  1  0  0  0
 34 35  2  0  0  0
 34 36  1  0  0  0
 35 86  1  0  0  0
 35102  1  0  0  0
 36 87  1  0  0  0
 36 88  1  0  0  0
 37 47  2  0  0  0
 38 42  1  0  0  0
 38 89  1  0  0  0
 39 45  1  0  0  0
 39 46  1  0  0  0
 39 90  1  0  0  0
 40 46  1  0  0  0
 40 91  1  0  0  0
 40 92  1  0  0  0
 41 46  2  0  0  0
 41 93  1  0  0  0
 41103  1  0  0  0
 42 43  1  0  0  0
 42 47  1  0  0  0
 42 94  1  0  0  0
 43 44  1  0  0  0
 43 95  1  0  0  0
 43 96  1  0  0  0
 44 45  1  0  0  0
 44 97  1  0  0  0
 44 98  1  0  0  0
 45 99  1  0  0  0
 45100  1  0  0  0
 47101  1  0  0  0
M  CHG  3  25   1  35   1  41   1
M  END
> <s_m_source_file>
../3u1i_ligand.sdf

> <i_m_source_file_index>
1

> <s_epik_input>
W2NIXTFbY0hdW2NIXVtjSF1bY0hdYzFDKD1PKVtOSF1bQ0BASF0oW0NIMl1bQ0gyXVtDSDJdW0NIM10pQyg9TylbTkhdW0NAQEhdKFtDSDJdW0NIMl1bQ0gyXVtDSDJdW05IMytdKUMoPU8pW05IXVtDQEBIXShbQ0gyXVtDSDJdW0NIMl1bTkhdL0MoPU5cW0hdKVtOSDJdKUMoPU8pW05IXVtDQEhdKFtDSF09TylbQ0gyXVtDSDJdW0NIMl1bTkhdL0MoW05IMl0pPU5cW0hd

> <s_epik_cmdline>
J2VwaWtfYXBwJywgJy1pbWFlJywgJ2xpZ2FuZF9wcm8ubWFlJywgJy1vbWFlJywgJ2xpZ2FuZF9wcmVwLm1hZScsICctbXMnLCAnMScsICctcGgnLCAnNycsICctcGh0JywgJzAuNScsICctbnQn

> <r_lp_tautomer_probability>
1

> <r_epik_Ionization_Penalty>
  0.0007

> <r_epik_Ionization_Penalty_Charging>
  0.0005

> <r_epik_Ionization_Penalty_Neutral>
  0.0003

> <r_epik_State_Penalty>
 -0.0000

> <r_epik_Charging_Adjusted_Penalty>
0.000466036236050602

> <i_epik_Tot_Q>
3

> <i_epik_Tot_abs_Q>
3

> <s_epik_Chemistry_Notes>
This compound has an imine and may undergo hydrolysis.

$$$$
