3u1y_ligand
                    3D
 Schrodinger Suite 2020-3.
 68 70  0  0  1  0            999 V2000
   14.5690    6.0630   24.7380 C   0  0  0  0  0  0
   14.1150    5.6760   23.4910 C   0  0  0  0  0  0
   14.8900    5.8570   22.3610 C   0  0  0  0  0  0
   16.1370    6.4290   22.4730 C   0  0  0  0  0  0
   16.6210    6.8230   23.7090 C   0  0  0  0  0  0
   15.8230    6.6460   24.8280 C   0  0  0  0  0  0
   16.8400    6.5550   21.2890 O   0  0  0  0  0  0
   13.7510    5.8400   25.9300 C   0  0  0  0  0  0
   12.3760    6.0350   25.9320 C   0  0  0  0  0  0
   11.6160    5.8180   27.0740 C   0  0  0  0  0  0
   12.2180    5.3990   28.2450 C   0  0  0  0  0  0
   13.5900    5.2080   28.2470 C   0  0  0  0  0  0
   14.3490    5.4200   27.1090 C   0  0  0  0  0  0
   11.4350    5.1600   29.5060 C   0  0  0  0  0  0
   11.0380    3.6930   29.5920 C   0  0  0  0  0  0
   10.1750    3.2340   30.7720 C   0  0  2  0  0  0
   10.8300    3.5970   32.1130 C   0  0  0  0  0  0
    9.9210    1.4550   30.6810 S   0  0  0  0  0  0
   11.5450    0.7500   30.6840 C   0  0  0  0  0  0
    9.2140    1.0090   31.8680 O   0  0  0  0  0  0
    9.3380    1.1040   29.3990 O   0  0  0  0  0  0
    8.7920    3.8430   30.6170 C   0  0  0  0  0  0
   10.0560    4.3430   32.9700 N   0  0  0  0  0  0
   11.9660    3.2690   32.4310 O   0  0  0  0  0  0
   17.7830    7.6130   21.3410 C   0  0  0  0  0  0
   18.2620    7.8010   19.9200 C   0  0  0  0  0  0
   19.7190    8.1470   19.9610 C   0  0  0  0  0  0
   10.7370    4.5440   34.1910 O   0  0  0  0  0  0
   20.2750    8.1200   18.5900 N   0  0  0  0  0  0
   20.8750    6.7930   18.2450 C   0  0  0  0  0  0
   21.3620    6.8880   16.8140 C   0  0  0  0  0  0
   22.3310    7.9440   16.7580 O   0  0  0  0  0  0
   21.7390    9.2250   17.0040 C   0  0  0  0  0  0
   21.2220    9.2620   18.4290 C   0  0  0  0  0  0
   13.1292    5.2204   23.3973 H   0  0  0  0  0  0
   14.5153    5.5481   21.3852 H   0  0  0  0  0  0
   17.6132    7.2650   23.8003 H   0  0  0  0  0  0
   16.1899    6.9727   25.8010 H   0  0  0  0  0  0
   11.8828    6.3654   25.0178 H   0  0  0  0  0  0
   10.5383    5.9792   27.0464 H   0  0  0  0  0  0
   14.0823    4.8840   29.1639 H   0  0  0  0  0  0
   15.4261    5.2554   27.1396 H   0  0  0  0  0  0
   12.0536    5.4224   30.3769 H   0  0  0  0  0  0
   10.5288    5.7835   29.4987 H   0  0  0  0  0  0
   10.4592    3.4168   28.6983 H   0  0  0  0  0  0
   11.9434    3.0709   29.6492 H   0  0  0  0  0  0
   12.0438    0.9823   31.6365 H   0  0  0  0  0  0
   12.1289    1.1708   29.8522 H   0  0  0  0  0  0
   11.4713   -0.3411   30.5652 H   0  0  0  0  0  0
    8.8670    4.9395   30.6628 H   0  0  0  0  0  0
    8.1410    3.4858   31.4286 H   0  0  0  0  0  0
    8.3666    3.5447   29.6474 H   0  0  0  0  0  0
    9.0509    4.7656   32.8248 H   0  0  0  0  0  0
   17.2941    8.5215   21.7226 H   0  0  0  0  0  0
   18.6109    7.3338   22.0094 H   0  0  0  0  0  0
   18.1098    6.8693   19.3555 H   0  0  0  0  0  0
   17.6929    8.6141   19.4458 H   0  0  0  0  0  0
   19.8450    9.1535   20.3865 H   0  0  0  0  0  0
   20.2522    7.4154   20.5859 H   0  0  0  0  0  0
   10.2622    5.1232   34.9967 H   0  0  0  0  0  0
   21.7110    6.5800   18.9275 H   0  0  0  0  0  0
   20.1110    6.0080   18.3450 H   0  0  0  0  0  0
   21.8178    5.9318   16.5176 H   0  0  0  0  0  0
   20.5124    7.1102   16.1515 H   0  0  0  0  0  0
   22.4948   10.0115   16.8623 H   0  0  0  0  0  0
   20.9071    9.3853   16.3025 H   0  0  0  0  0  0
   20.6931   10.2069   18.6224 H   0  0  0  0  0  0
   22.0519    9.1536   19.1428 H   0  0  0  0  0  0
  1  2  2  0  0  0
  1  6  1  0  0  0
  1  8  1  0  0  0
  2  3  1  0  0  0
  2 35  1  0  0  0
  3  4  2  0  0  0
  3 36  1  0  0  0
  4  5  1  0  0  0
  4  7  1  0  0  0
  5  6  2  0  0  0
  5 37  1  0  0  0
  6 38  1  0  0  0
  7 25  1  0  0  0
  8  9  2  0  0  0
  8 13  1  0  0  0
  9 10  1  0  0  0
  9 39  1  0  0  0
 10 11  2  0  0  0
 10 40  1  0  0  0
 11 12  1  0  0  0
 11 14  1  0  0  0
 12 13  2  0  0  0
 12 41  1  0  0  0
 13 42  1  0  0  0
 14 15  1  0  0  0
 14 43  1  0  0  0
 14 44  1  0  0  0
 15 16  1  0  0  0
 15 45  1  0  0  0
 15 46  1  0  0  0
 16 17  1  0  0  0
 16 18  1  0  0  0
 16 22  1  0  0  0
 17 23  1  0  0  0
 17 24  2  0  0  0
 18 19  1  0  0  0
 18 20  2  0  0  0
 18 21  2  0  0  0
 19 47  1  0  0  0
 19 48  1  0  0  0
 19 49  1  0  0  0
 22 50  1  0  0  0
 22 51  1  0  0  0
 22 52  1  0  0  0
 23 28  1  0  0  0
 23 53  1  0  0  0
 25 26  1  0  0  0
 25 54  1  0  0  0
 25 55  1  0  0  0
 26 27  1  0  0  0
 26 56  1  0  0  0
 26 57  1  0  0  0
 27 29  1  0  0  0
 27 58  1  0  0  0
 27 59  1  0  0  0
 28 60  1  0  0  0
 29 30  1  0  0  0
 29 34  1  0  0  0
 30 31  1  0  0  0
 30 61  1  0  0  0
 30 62  1  0  0  0
 31 32  1  0  0  0
 31 63  1  0  0  0
 31 64  1  0  0  0
 32 33  1  0  0  0
 33 34  1  0  0  0
 33 65  1  0  0  0
 33 66  1  0  0  0
 34 67  1  0  0  0
 34 68  1  0  0  0
M  END
> <s_m_source_file>
../3u1y_ligand.sdf

> <i_m_source_file_index>
1

> <s_epik_input>
W09IXVtOSF1DKD1PKVtDQF0oW0NIM10pKFMoPU8pKD1PKVtDSDNdKVtDSDJdW0NIMl1jKFtjSF1bY0hdMSlbY0hdW2NIXWMxLWMyW2NIXVtjSF1jKFtjSF1bY0hdMilPW0NIMl1bQ0gyXVtDSDJdW05IK10zW0NIMl1bQ0gyXU9bQ0gyXVtDSDJdMw==

> <s_epik_cmdline>
J2VwaWtfYXBwJywgJy1pbWFlJywgJ2xpZ2FuZF9wcm8ubWFlJywgJy1vbWFlJywgJ2xpZ2FuZF9wcmVwLm1hZScsICctbXMnLCAnMScsICctcGgnLCAnNycsICctcGh0JywgJzAuNScsICctbnQn

> <r_lp_tautomer_probability>
1

> <r_epik_Ionization_Penalty>
  0.4952

> <r_epik_Ionization_Penalty_Charging>
  0.0000

> <r_epik_Ionization_Penalty_Neutral>
  0.4952

> <r_epik_State_Penalty>
  0.3798

> <r_epik_Charging_Adjusted_Penalty>
0.379812471797264

> <i_epik_Tot_Q>
0

> <i_epik_Tot_abs_Q>
0

> <s_epik_Chemistry_Notes>
This compound has a N-S or N-O group and may undergo hydrolysis at high or low pH.

$$$$
