3u2k_ligand
                    3D
 Schrodinger Suite 2020-3.
 43 45  0  0  1  0            999 V2000
    5.5680    8.3670   23.6180 C   0  0  0  0  0  0
   -4.8970   -1.4580   23.0670 Cl  0  0  0  0  0  0
    4.2700    7.6230   23.5300 C   0  0  0  0  0  0
    0.9340    6.5700   21.8840 Cl  0  0  0  0  0  0
    3.3600    7.6780   22.5220 C   0  0  0  0  0  0
    3.4080    8.6500   21.0550 Cl  0  0  0  0  0  0
    2.3270    6.7950   22.8750 C   0  0  3  0  0  0
    2.6280    6.2230   24.1090 C   0  0  0  0  0  0
    3.8510    6.7420   24.4810 N   0  0  0  0  0  0
    1.9110    5.2240   24.9150 C   0  0  0  0  0  0
    2.4290    4.8550   25.9700 O   0  5  0  0  0  0
    0.7290    4.6880   24.4950 N   0  0  0  0  0  0
    0.0410    3.6530   25.2790 C   0  0  0  0  0  0
   -1.4120    3.5290   24.7830 C   0  0  0  0  0  0
   -2.0840    2.2590   25.3400 C   0  0  0  0  0  0
   -1.2290    1.0980   25.0350 N   0  0  0  0  0  0
    0.0920    1.1370   25.6640 C   0  0  0  0  0  0
    0.8220    2.3410   25.0500 C   0  0  0  0  0  0
   -1.8290   -0.1550   24.9870 C   0  0  0  0  0  0
   -1.3170   -1.2490   25.6950 C   0  0  0  0  0  0
   -1.9510   -2.4930   25.6040 C   0  0  0  0  0  0
   -3.0830   -2.5820   24.7750 C   0  0  0  0  0  0
   -3.5120   -1.4450   24.1040 C   0  0  0  0  0  0
   -2.8870   -0.2930   24.2200 N   0  0  0  0  0  0
   -1.4400   -3.6650   26.3670 C   0  0  0  0  0  0
   -0.2420   -3.8480   26.4900 O   0  0  0  0  0  0
   -2.2900   -4.5440   26.9380 N   0  0  0  0  0  0
    5.6804    9.0139   22.7354 H   0  0  0  0  0  0
    6.4005    7.6489   23.6547 H   0  0  0  0  0  0
    5.5758    8.9843   24.5284 H   0  0  0  0  0  0
    0.0297    3.9355   26.3420 H   0  0  0  0  0  0
   -1.9885    4.4053   25.1142 H   0  0  0  0  0  0
   -1.4213    3.4780   23.6842 H   0  0  0  0  0  0
   -2.2065    2.3565   26.4288 H   0  0  0  0  0  0
   -3.0702    2.1298   24.8702 H   0  0  0  0  0  0
   -0.0231    1.2559   26.7515 H   0  0  0  0  0  0
    0.6268    0.1994   25.4523 H   0  0  0  0  0  0
    0.9355    2.1656   23.9700 H   0  0  0  0  0  0
    1.8157    2.4198   25.5151 H   0  0  0  0  0  0
   -0.4279   -1.1321   26.3147 H   0  0  0  0  0  0
   -3.6143   -3.5269   24.6612 H   0  0  0  0  0  0
   -3.3763   -4.4007   26.8413 H   0  0  0  0  0  0
   -1.8965   -5.4037   27.5002 H   0  0  0  0  0  0
  1  3  1  0  0  0
  1 28  1  0  0  0
  1 29  1  0  0  0
  1 30  1  0  0  0
  2 23  1  0  0  0
  3  5  2  0  0  0
  3  9  1  0  0  0
  4  7  1  0  0  0
  5  6  1  0  0  0
  5  7  1  0  0  0
  7  8  1  0  0  0
  8  9  2  0  0  0
  8 10  1  0  0  0
 10 11  1  0  0  0
 10 12  2  0  0  0
 12 13  1  0  0  0
 13 14  1  0  0  0
 13 18  1  0  0  0
 13 31  1  0  0  0
 14 15  1  0  0  0
 14 32  1  0  0  0
 14 33  1  0  0  0
 15 16  1  0  0  0
 15 34  1  0  0  0
 15 35  1  0  0  0
 16 17  1  0  0  0
 16 19  1  0  0  0
 17 18  1  0  0  0
 17 36  1  0  0  0
 17 37  1  0  0  0
 18 38  1  0  0  0
 18 39  1  0  0  0
 19 20  2  0  0  0
 19 24  1  0  0  0
 20 21  1  0  0  0
 20 40  1  0  0  0
 21 22  2  0  0  0
 21 25  1  0  0  0
 22 23  1  0  0  0
 22 41  1  0  0  0
 23 24  2  0  0  0
 25 26  2  0  0  0
 25 27  1  0  0  0
 27 42  1  0  0  0
 27 43  1  0  0  0
M  CHG  1  11  -1
M  END
> <s_m_source_file>
../3u2k_ligand.sdf

> <i_m_source_file_index>
1

> <s_epik_input>
W0NIM11DMT1DKENsKVtDSF0oQ2wpQyg9TjEpQyg9TylbTkhdW0NIXTJbQ0gyXVtDSDJdTihbQ0gyXVtDSDJdMiljM1tjSF1jKFtjSF1jKENsKW4zKUMoPU8pW05IMl0=

> <s_epik_cmdline>
J2VwaWtfYXBwJywgJy1pbWFlJywgJ2xpZ2FuZF9wcm8ubWFlJywgJy1vbWFlJywgJ2xpZ2FuZF9wcmVwLm1hZScsICctbXMnLCAnMScsICctcGgnLCAnNycsICctcGh0JywgJzAuNScsICctbnQn

> <r_epik_Ionization_Penalty>
  0.3278

> <r_epik_Ionization_Penalty_Charging>
  0.3278

> <r_epik_Ionization_Penalty_Neutral>
  0.0000

> <r_epik_State_Penalty>
  0.3227

> <r_epik_Charging_Adjusted_Penalty>
0.650535410058268

> <i_epik_Tot_Q>
-1

> <i_epik_Tot_abs_Q>
1

> <s_epik_Chemistry_Notes>
This compound has an imine and may undergo hydrolysis.

$$$$
