3u2q_ligand
                    3D
 Schrodinger Suite 2020-3.
155164  0  0  1  0            999 V2000
   53.3820  -29.5150   -8.0740 C   0  0  0  0  0  0
   53.4330  -29.9290   -9.4930 C   0  0  0  0  0  0
   54.2620  -30.1270   -7.1170 C   0  0  0  0  0  0
   53.2990  -29.1370  -10.5580 N   0  0  0  0  0  0
   53.3720  -29.8970  -11.7570 C   0  0  0  0  0  0
   53.2320  -29.2990  -13.0750 C   0  0  0  0  0  0
   53.0590  -29.9700  -14.1040 O   0  0  0  0  0  0
   53.5620  -31.2410  -11.5420 C   0  0  0  0  0  0
   53.6430  -31.5910   -9.8700 S   0  0  0  0  0  0
   53.2690  -27.9760  -13.0830 N   0  0  0  0  0  0
   53.1190  -27.0990  -14.2460 C   0  0  2  0  0  0
   54.3390  -26.2370  -14.5060 C   0  0  0  0  0  0
   51.9120  -26.1510  -14.1150 C   0  0  0  0  0  0
   51.8790  -25.2300  -12.8660 C   0  0  0  0  0  0
   52.6950  -25.4010  -11.9640 O   0  0  0  0  0  0
   50.9540  -24.2630  -12.8020 N   0  0  0  0  0  0
   50.7500  -23.2910  -11.7180 C   0  0  0  0  0  0
   54.3320  -25.2010  -15.3590 N   0  0  0  0  0  0
   55.5610  -24.5090  -15.4520 C   0  0  0  0  0  0
   55.6520  -23.2920  -16.3900 C   0  0  0  0  0  0
   56.6400  -22.5640  -16.5020 O   0  0  0  0  0  0
   56.5340  -25.0590  -14.6200 C   0  0  0  0  0  0
   55.8850  -26.4540  -13.7340 S   0  0  0  0  0  0
   57.9780  -24.6590  -14.3790 C   0  0  0  0  0  0
   54.4920  -23.0680  -17.1020 N   0  0  0  0  0  0
   54.1470  -22.0570  -18.0640 C   0  0  2  0  0  0
   52.6750  -21.7760  -17.8420 C   0  0  0  0  0  0
   54.4500  -22.5120  -19.5650 C   0  0  0  0  0  0
   54.0670  -21.4520  -20.6220 C   0  0  0  0  0  0
   55.9350  -22.8070  -19.8170 C   0  0  0  0  0  0
   51.7380  -22.7170  -17.7900 N   0  0  0  0  0  0
   50.4460  -22.2560  -17.5620 C   0  0  0  0  0  0
   49.2740  -23.1560  -17.4600 C   0  0  0  0  0  0
   48.0760  -22.8360  -17.5390 O   0  0  0  0  0  0
   50.3670  -20.8850  -17.4250 C   0  0  0  0  0  0
   51.9560  -20.1580  -17.6040 S   0  0  0  0  0  0
   49.1500  -20.0900  -17.1580 C   0  0  0  0  0  0
   49.4380  -18.7160  -17.0570 O   0  0  0  0  0  0
   48.1700  -18.0170  -16.7760 C   0  0  0  0  0  0
   49.6940  -24.4050  -17.2490 N   0  0  0  0  0  0
   48.8140  -25.5600  -17.0780 C   0  0  0  0  0  0
   48.3280  -25.5320  -15.6480 C   0  0  0  0  0  0
   48.5790  -24.6130  -14.8550 O   0  0  0  0  0  0
   47.6120  -26.5480  -15.2580 N   0  0  0  0  0  0
   47.0710  -26.7030  -13.9420 C   0  0  2  0  0  0
   48.0680  -27.4830  -13.0970 C   0  0  0  0  0  0
   45.6390  -27.3280  -14.0140 C   0  0  1  0  0  0
   45.3200  -27.9750  -12.7920 O   0  0  0  0  0  0
   44.5580  -26.3230  -14.3030 C   0  0  0  0  0  0
   43.5340  -26.6220  -15.2770 C   0  0  0  0  0  0
   42.5170  -25.6630  -15.5480 C   0  0  0  0  0  0
   42.5090  -24.4120  -14.8590 C   0  0  0  0  0  0
   43.5160  -24.1030  -13.8890 C   0  0  0  0  0  0
   44.5360  -25.0500  -13.6100 C   0  0  0  0  0  0
   48.6510  -27.0110  -12.0270 N   0  0  0  0  0  0
   49.4930  -27.9330  -11.4160 C   0  0  0  0  0  0
   50.1680  -27.5440  -10.2370 C   0  0  0  0  0  0
   49.5610  -29.1440  -12.0410 C   0  0  0  0  0  0
   48.5460  -29.1620  -13.4520 S   0  0  0  0  0  0
   50.9710  -28.3530   -9.5670 N   0  0  0  0  0  0
   51.5220  -27.7680   -8.4470 C   0  0  0  0  0  0
   52.4750  -28.5060   -7.5790 C   0  0  0  0  0  0
   51.1090  -26.4630   -8.2820 C   0  0  0  0  0  0
   50.0170  -25.9610   -9.5360 S   0  0  0  0  0  0
   52.4420  -28.1470   -6.3020 N   0  0  0  0  0  0
   53.2510  -28.6810   -5.3620 C   0  0  0  0  0  0
   53.1850  -28.2170   -3.9780 C   0  0  0  0  0  0
   54.2040  -29.7080   -5.7480 C   0  0  0  0  0  0
   53.9630  -28.6510   -3.0180 N   0  0  0  0  0  0
   54.3870  -26.2290    0.5440 O   0  0  0  0  0  0
   55.6010  -28.0360    1.3530 O   0  0  0  0  0  0
   53.7250  -28.0380   -1.8040 C   0  0  0  0  0  0
   52.7150  -27.1140   -1.8870 C   0  0  0  0  0  0
   52.0390  -26.9820   -3.4860 S   0  0  0  0  0  0
   58.2630  -26.2200    6.5270 O   0  0  0  0  0  0
   56.7140  -24.7600    7.3050 O   0  0  0  0  0  0
   58.2370  -33.9460   -1.1210 O   0  0  0  0  0  0
   54.4900  -28.3640   -0.6380 N   0  0  0  0  0  0
   60.2130  -33.0570   -1.7050 O   0  0  0  0  0  0
   54.7630  -27.4060    0.4300 C   0  0  0  0  0  0
   54.9730  -29.8120   -0.6060 C   0  0  0  0  0  0
   56.4420  -29.9330   -0.9860 C   0  0  0  0  0  0
   56.9340  -31.3730   -0.9780 C   0  0  0  0  0  0
   57.3170  -25.5990    3.7970 C   0  0  0  0  0  0
   56.7280  -26.0250    2.4380 C   0  0  0  0  0  0
   56.1500  -27.4700    2.5580 C   0  0  1  0  0  0
   55.0660  -27.5290    3.6660 C   0  0  0  0  0  0
   55.6570  -27.1440    5.0480 C   0  0  0  0  0  0
   56.3900  -25.7450    5.0950 C   0  0  1  0  0  0
   57.2180  -25.6000    6.3780 C   0  0  0  0  0  0
   58.4230  -31.5080   -1.3600 C   0  0  0  0  0  0
   58.9150  -32.9660   -1.3730 C   0  0  0  0  0  0
   54.9646  -30.9000   -7.4285 H   0  0  0  0  0  0
   53.6495  -31.9858  -12.3330 H   0  0  0  0  0  0
   53.4320  -27.5430  -12.0850 H   0  0  0  0  0  0
   52.9911  -27.8309  -15.0571 H   0  0  0  0  0  0
   51.8795  -25.4766  -14.9834 H   0  0  0  0  0  0
   50.9847  -26.7414  -14.0744 H   0  0  0  0  0  0
   50.3030  -24.2430  -13.6884 H   0  0  0  0  0  0
   49.9073  -22.6309  -11.9712 H   0  0  0  0  0  0
   51.6615  -22.6889  -11.5891 H   0  0  0  0  0  0
   50.5286  -23.8260  -10.7827 H   0  0  0  0  0  0
   58.2242  -23.7838  -14.9982 H   0  0  0  0  0  0
   58.6399  -25.4957  -14.6470 H   0  0  0  0  0  0
   58.1165  -24.4076  -13.3171 H   0  0  0  0  0  0
   53.7575  -23.8394  -16.8274 H   0  0  0  0  0  0
   54.7604  -21.1749  -17.8280 H   0  0  0  0  0  0
   53.8525  -23.4243  -19.7086 H   0  0  0  0  0  0
   53.0062  -21.1851  -20.5060 H   0  0  0  0  0  0
   54.2341  -21.8615  -21.6292 H   0  0  0  0  0  0
   54.6881  -20.5548  -20.4833 H   0  0  0  0  0  0
   56.2864  -23.5606  -19.0969 H   0  0  0  0  0  0
   56.5184  -21.8825  -19.6944 H   0  0  0  0  0  0
   56.0644  -23.1893  -20.8403 H   0  0  0  0  0  0
   48.4309  -20.2338  -17.9779 H   0  0  0  0  0  0
   48.6972  -20.4195  -16.2112 H   0  0  0  0  0  0
   48.3581  -16.9366  -16.6904 H   0  0  0  0  0  0
   47.7463  -18.3914  -15.8324 H   0  0  0  0  0  0
   47.4600  -18.2018  -17.5956 H   0  0  0  0  0  0
   50.7856  -24.5343  -17.2072 H   0  0  0  0  0  0
   47.9694  -25.4843  -17.7786 H   0  0  0  0  0  0
   49.3769  -26.4831  -17.2807 H   0  0  0  0  0  0
   47.4322  -27.3197  -16.0210 H   0  0  0  0  0  0
   46.9857  -25.6971  -13.5050 H   0  0  0  0  0  0
   45.6140  -28.0970  -14.8002 H   0  0  0  0  0  0
   45.9856  -28.7541  -12.3920 H   0  0  0  0  0  0
   43.5398  -27.5772  -15.8020 H   0  0  0  0  0  0
   41.7429  -25.8841  -16.2829 H   0  0  0  0  0  0
   41.7270  -23.6838  -15.0741 H   0  0  0  0  0  0
   43.4994  -23.1459  -13.3677 H   0  0  0  0  0  0
   45.3048  -24.8193  -12.8726 H   0  0  0  0  0  0
   50.1678  -29.9838  -11.7024 H   0  0  0  0  0  0
   51.4300  -25.8217   -7.4611 H   0  0  0  0  0  0
   54.8661  -30.1538   -5.0057 H   0  0  0  0  0  0
   52.3706  -26.5227   -1.0386 H   0  0  0  0  0  0
   57.2492  -24.6019    8.2529 H   0  0  0  0  0  0
   60.7004  -34.0419   -1.7543 H   0  0  0  0  0  0
   54.8466  -30.2183    0.4083 H   0  0  0  0  0  0
   54.3845  -30.4107   -1.3168 H   0  0  0  0  0  0
   56.5931  -29.5310   -1.9987 H   0  0  0  0  0  0
   57.0539  -29.3640   -0.2706 H   0  0  0  0  0  0
   56.8093  -31.7975    0.0291 H   0  0  0  0  0  0
   56.3507  -31.9638   -1.6996 H   0  0  0  0  0  0
   58.2112  -26.2018    4.0142 H   0  0  0  0  0  0
   57.5924  -24.5347    3.7599 H   0  0  0  0  0  0
   55.9253  -25.3294    2.1520 H   0  0  0  0  0  0
   57.5188  -26.0065    1.6736 H   0  0  0  0  0  0
   57.0073  -28.1363    2.7343 H   0  0  0  0  0  0
   54.2546  -26.8272    3.4229 H   0  0  0  0  0  0
   54.6612  -28.5499    3.7289 H   0  0  0  0  0  0
   54.8491  -27.1013    5.7933 H   0  0  0  0  0  0
   56.3977  -27.8979    5.3530 H   0  0  0  0  0  0
   55.6448  -24.9371    5.1402 H   0  0  0  0  0  0
   58.5822  -31.0944   -2.3668 H   0  0  0  0  0  0
   59.0391  -30.9557   -0.6351 H   0  0  0  0  0  0
  1  2  1  0  0  0
  1  3  2  0  0  0
  1 62  1  0  0  0
  2  4  2  0  0  0
  2  9  1  0  0  0
  3 68  1  0  0  0
  3 93  1  0  0  0
  4  5  1  0  0  0
  5  6  1  0  0  0
  5  8  2  0  0  0
  6  7  2  0  0  0
  6 10  1  0  0  0
  8  9  1  0  0  0
  8 94  1  0  0  0
 10 11  1  0  0  0
 10 95  1  0  0  0
 11 12  1  0  0  0
 11 13  1  0  0  0
 11 96  1  0  0  0
 12 18  2  0  0  0
 12 23  1  0  0  0
 13 14  1  0  0  0
 13 97  1  0  0  0
 13 98  1  0  0  0
 14 15  2  0  0  0
 14 16  1  0  0  0
 16 17  1  0  0  0
 16 99  1  0  0  0
 17100  1  0  0  0
 17101  1  0  0  0
 17102  1  0  0  0
 18 19  1  0  0  0
 19 20  1  0  0  0
 19 22  2  0  0  0
 20 21  2  0  0  0
 20 25  1  0  0  0
 22 23  1  0  0  0
 22 24  1  0  0  0
 24103  1  0  0  0
 24104  1  0  0  0
 24105  1  0  0  0
 25 26  1  0  0  0
 25106  1  0  0  0
 26 27  1  0  0  0
 26 28  1  0  0  0
 26107  1  0  0  0
 27 31  2  0  0  0
 27 36  1  0  0  0
 28 29  1  0  0  0
 28 30  1  0  0  0
 28108  1  0  0  0
 29109  1  0  0  0
 29110  1  0  0  0
 29111  1  0  0  0
 30112  1  0  0  0
 30113  1  0  0  0
 30114  1  0  0  0
 31 32  1  0  0  0
 32 33  1  0  0  0
 32 35  2  0  0  0
 33 34  2  0  0  0
 33 40  1  0  0  0
 35 36  1  0  0  0
 35 37  1  0  0  0
 37 38  1  0  0  0
 37115  1  0  0  0
 37116  1  0  0  0
 38 39  1  0  0  0
 39117  1  0  0  0
 39118  1  0  0  0
 39119  1  0  0  0
 40 41  1  0  0  0
 40120  1  0  0  0
 41 42  1  0  0  0
 41121  1  0  0  0
 41122  1  0  0  0
 42 43  2  0  0  0
 42 44  1  0  0  0
 44 45  1  0  0  0
 44123  1  0  0  0
 45 46  1  0  0  0
 45 47  1  0  0  0
 45124  1  0  0  0
 46 55  2  0  0  0
 46 59  1  0  0  0
 47 48  1  0  0  0
 47 49  1  0  0  0
 47125  1  0  0  0
 48126  1  0  0  0
 49 50  2  0  0  0
 49 54  1  0  0  0
 50 51  1  0  0  0
 50127  1  0  0  0
 51 52  2  0  0  0
 51128  1  0  0  0
 52 53  1  0  0  0
 52129  1  0  0  0
 53 54  2  0  0  0
 53130  1  0  0  0
 54131  1  0  0  0
 55 56  1  0  0  0
 56 57  1  0  0  0
 56 58  2  0  0  0
 57 60  2  0  0  0
 57 64  1  0  0  0
 58 59  1  0  0  0
 58132  1  0  0  0
 60 61  1  0  0  0
 61 62  1  0  0  0
 61 63  2  0  0  0
 62 65  2  0  0  0
 63 64  1  0  0  0
 63133  1  0  0  0
 65 66  1  0  0  0
 66 67  1  0  0  0
 66 68  2  0  0  0
 67 69  2  0  0  0
 67 74  1  0  0  0
 68134  1  0  0  0
 69 72  1  0  0  0
 70 80  2  0  0  0
 71 80  1  0  0  0
 71 86  1  0  0  0
 72 73  2  0  0  0
 72 78  1  0  0  0
 73 74  1  0  0  0
 73135  1  0  0  0
 75 90  2  0  0  0
 76 90  1  0  0  0
 76136  1  0  0  0
 77 92  2  0  0  0
 78 80  1  0  0  0
 78 81  1  0  0  0
 79 92  1  0  0  0
 79137  1  0  0  0
 81 82  1  0  0  0
 81138  1  0  0  0
 81139  1  0  0  0
 82 83  1  0  0  0
 82140  1  0  0  0
 82141  1  0  0  0
 83 91  1  0  0  0
 83142  1  0  0  0
 83143  1  0  0  0
 84 85  1  0  0  0
 84 89  1  0  0  0
 84144  1  0  0  0
 84145  1  0  0  0
 85 86  1  0  0  0
 85146  1  0  0  0
 85147  1  0  0  0
 86 87  1  0  0  0
 86148  1  0  0  0
 87 88  1  0  0  0
 87149  1  0  0  0
 87150  1  0  0  0
 88 89  1  0  0  0
 88151  1  0  0  0
 88152  1  0  0  0
 89 90  1  0  0  0
 89153  1  0  0  0
 91 92  1  0  0  0
 91154  1  0  0  0
 91155  1  0  0  0
M  END
> <s_m_source_file>
../3u2q_ligand.sdf

> <i_m_source_file_index>
1

> <s_epik_input>
YzEyYzNuYyhbY0hdczMpQyg9TylbTkhdW0NAQEhdKFtDSDJdQyg9TylbTkhdW0NIM10pYzRuYyhjKHM0KVtDSDNdKUMoPU8pW05IXVtDQEBIXShbQ0hdKFtDSDNdKVtDSDNdKWM1bmMoYyhzNSlbQ0gyXU9bQ0gzXSlDKD1PKVtOSF1bQ0gyXUMoPU8pW05IXVtDQEBIXShbQ0BASF0oW09IXSljNltjSF1bY0hdW2NIXVtjSF1bY0hdNiljN25jKFtjSF1zNyljOG5jKFtjSF1zOCljMm5jKFtjSF1bY0hdMSktYzluYyhbY0hdczkpTihbQ0gyXVtDSDJdW0NIMl1bQ0gyXUMoPU8pW09IXSlDKD1PKU9bQ0BIXTFbQ0gyXVtDSDJdW0NAQEhdKFtDSDJdW0NIMl0xKUMoPU8pW09IXQ==

> <s_epik_cmdline>
J2VwaWtfYXBwJywgJy1pbWFlJywgJ2xpZ2FuZF9wcm8ubWFlJywgJy1vbWFlJywgJ2xpZ2FuZF9wcmVwLm1hZScsICctbXMnLCAnMScsICctcGgnLCAnNycsICctcGh0JywgJzAuNScsICctbnQn

> <s_epik_pKa_notes>
Molecule size exceeds maximum supported for generating protonation states

> <s_epik_Chemistry_Notes>
This compound has an ester and may undergo hydrolysis at high or low pH.

$$$$
