3u3f_ligand
                    3D
 Schrodinger Suite 2020-3.
176175  0  0  1  0            999 V2000
   -7.9210   -1.0240   42.6220 N   0  3  0  0  0  0
   -8.7440    0.1510   42.8940 C   0  0  2  0  0  0
  -10.2070   -0.0560   42.5270 C   0  0  0  0  0  0
  -11.0410   -0.2030   43.4120 O   0  0  0  0  0  0
   -8.1910    1.3820   42.1880 C   0  0  0  0  0  0
  -10.5020   -0.0720   41.2230 N   0  0  0  0  0  0
  -11.8800   -0.0760   40.7020 C   0  0  2  0  0  0
  -12.8630   -0.9770   41.4590 C   0  0  0  0  0  0
  -13.9640   -0.5500   41.8120 O   0  0  0  0  0  0
  -11.8850   -0.4080   39.2260 C   0  0  0  0  0  0
  -12.4570   -2.2210   41.6970 N   0  0  0  0  0  0
  -13.2440   -3.1580   42.4950 C   0  0  2  0  0  0
  -13.7080   -2.5050   43.8010 C   0  0  0  0  0  0
  -14.8860   -2.6110   44.1510 O   0  0  0  0  0  0
  -12.4300   -4.4080   42.8420 C   0  0  2  0  0  0
  -11.2160   -4.0060   43.4890 O   0  0  0  0  0  0
  -12.0410   -5.1720   41.5450 C   0  0  0  0  0  0
  -12.8120   -1.7830   44.4830 N   0  0  0  0  0  0
  -13.1150   -1.2020   45.7950 C   0  0  2  0  0  0
  -14.3830   -0.3680   45.7910 C   0  0  0  0  0  0
  -15.3110   -0.6980   46.5020 O   0  0  0  0  0  0
  -11.9630   -0.3970   46.2920 C   0  0  0  0  0  0
  -14.4630    0.6810   44.9790 N   0  0  0  0  0  0
  -15.6630    1.5150   44.9390 C   0  0  2  0  0  0
  -16.8900    0.6840   44.5390 C   0  0  0  0  0  0
  -18.0320    1.0300   44.8740 O   0  0  0  0  0  0
  -15.4580    2.6310   43.9480 C   0  0  0  0  0  0
  -16.6350   -0.4500   43.8850 N   0  0  0  0  0  0
  -17.7010   -1.3580   43.4480 C   0  0  2  0  0  0
  -18.2110   -2.2030   44.6110 C   0  0  0  0  0  0
  -19.4190   -2.2800   44.8490 O   0  0  0  0  0  0
  -17.2190   -2.2610   42.3010 C   0  0  0  0  0  0
  -18.2250   -3.2160   41.6720 C   0  0  0  0  0  0
  -19.1240   -2.4500   40.7360 C   0  0  0  0  0  0
  -17.4990   -4.2920   40.9110 C   0  0  0  0  0  0
  -17.2900   -2.8470   45.3270 N   0  0  0  0  0  0
  -17.6700   -3.6520   46.4840 C   0  0  2  0  0  0
  -18.4600   -2.7960   47.4500 C   0  0  0  0  0  0
  -19.3700   -3.2870   48.1140 O   0  0  0  0  0  0
  -16.4560   -4.1820   47.2420 C   0  0  0  0  0  0
  -15.5500   -5.0250   46.3930 C   0  0  0  0  0  0
  -15.9270   -6.1680   46.0610 O   0  0  0  0  0  0
  -14.4360   -4.5510   46.0960 O   0  0  0  0  0  0
  -18.0690   -1.5270   47.5570 N   0  0  0  0  0  0
  -18.7900   -0.5550   48.3610 C   0  0  2  0  0  0
  -20.1780   -0.3670   47.7720 C   0  0  0  0  0  0
  -21.1840   -0.4100   48.4860 O   0  0  0  0  0  0
  -18.0420    0.7670   48.3860 C   0  0  0  0  0  0
  -20.2260   -0.1630   46.4600 N   0  0  0  0  0  0
  -21.4920   -0.0490   45.7620 C   0  0  2  0  0  0
  -22.3460   -1.2850   46.0390 C   0  0  0  0  0  0
  -23.5640   -1.1970   46.1510 O   0  0  0  0  0  0
  -21.2430    0.1060   44.2670 C   0  0  0  0  0  0
  -21.7850    1.3650   43.6060 C   0  0  0  0  0  0
  -21.3310    1.4310   42.1620 C   0  0  0  0  0  0
  -23.2890    1.3810   43.6820 C   0  0  0  0  0  0
  -21.6750   -2.4270   46.1770 N   0  0  0  0  0  0
  -22.3020   -3.7390   46.3420 C   0  0  2  0  0  0
  -22.9620   -3.8910   47.7010 C   0  0  0  0  0  0
  -24.0920   -4.3600   47.8020 O   0  0  0  0  0  0
  -21.2360   -4.8310   46.2090 C   0  0  0  0  0  0
  -21.6650   -6.0480   45.4120 C   0  0  0  0  0  0
  -21.7060   -5.6730   43.6470 S   0  0  0  0  0  0
  -23.1350   -6.6500   43.1540 C   0  0  0  0  0  0
  -22.2260   -3.5110   48.7420 N   0  0  0  0  0  0
  -22.7080   -3.5960   50.1100 C   0  0  2  0  0  0
  -24.1080   -3.0040   50.2100 C   0  0  0  0  0  0
  -25.0130   -3.6530   50.7230 O   0  0  0  0  0  0
  -21.7530   -2.8830   51.0510 C   0  0  0  0  0  0
  -24.3070   -1.7940   49.6900 N   0  0  0  0  0  0
  -25.6210   -1.1440   49.8360 C   0  0  2  0  0  0
  -26.8050   -2.0780   49.4790 C   0  0  0  0  0  0
  -27.9250   -1.9030   49.9710 O   0  0  0  0  0  0
  -25.6990    0.2130   49.1020 C   0  0  0  0  0  0
  -25.6660    0.0760   47.6940 O   0  0  0  0  0  0
  -26.5390   -3.0940   48.6570 N   0  0  0  0  0  0
  -27.5450   -4.1120   48.3150 C   0  0  2  0  0  0
  -27.9880   -4.9200   49.5460 C   0  0  0  0  0  0
  -27.6390   -6.0970   49.6980 O   0  0  0  0  0  0
  -27.0210   -5.0570   47.2190 C   0  0  0  0  0  0
  -27.5710   -4.9410   45.7890 C   0  0  0  0  0  0
  -28.4340   -3.7050   45.6040 C   0  0  0  0  0  0
  -26.4360   -4.9710   44.7710 C   0  0  0  0  0  0
  -28.7191   -4.3738   50.4148 O   0  0  0  0  0  0
   -8.3430   -1.8959   43.1433 H   0  0  0  0  0  0
   -6.8960   -0.8443   42.9786 H   0  0  0  0  0  0
   -7.9040   -1.2170   41.5392 H   0  0  0  0  0  0
   -8.6734    0.2735   43.9849 H   0  0  0  0  0  0
   -7.1346    1.5185   42.4625 H   0  0  0  0  0  0
   -8.7665    2.2687   42.4923 H   0  0  0  0  0  0
   -8.2726    1.2479   41.0993 H   0  0  0  0  0  0
   -9.6506   -0.0825   40.5265 H   0  0  0  0  0  0
  -12.2089    0.9603   40.8690 H   0  0  0  0  0  0
  -11.1750    0.2474   38.7004 H   0  0  0  0  0  0
  -12.8955   -0.2550   38.8192 H   0  0  0  0  0  0
  -11.5881   -1.4578   39.0853 H   0  0  0  0  0  0
  -11.4935   -2.5363   41.2701 H   0  0  0  0  0  0
  -14.0991   -3.4137   41.8520 H   0  0  0  0  0  0
  -12.9896   -5.0379   43.5492 H   0  0  0  0  0  0
  -11.2563   -3.4454   44.4346 H   0  0  0  0  0  0
  -12.9533   -5.4956   41.0225 H   0  0  0  0  0  0
  -11.4358   -6.0527   41.8058 H   0  0  0  0  0  0
  -11.4587   -4.5081   40.8891 H   0  0  0  0  0  0
  -11.8215   -1.6307   44.0295 H   0  0  0  0  0  0
  -13.2673   -2.0635   46.4619 H   0  0  0  0  0  0
  -11.0540   -1.0164   46.2881 H   0  0  0  0  0  0
  -12.1695   -0.0554   47.3170 H   0  0  0  0  0  0
  -11.8155    0.4748   45.6376 H   0  0  0  0  0  0
  -13.6069    0.9176   44.3301 H   0  0  0  0  0  0
  -15.7963    1.9261   45.9506 H   0  0  0  0  0  0
  -14.5779    3.2230   44.2394 H   0  0  0  0  0  0
  -16.3474    3.2782   43.9354 H   0  0  0  0  0  0
  -15.2991    2.2067   42.9457 H   0  0  0  0  0  0
  -15.5834   -0.6953   43.6755 H   0  0  0  0  0  0
  -18.5108   -0.7027   43.0946 H   0  0  0  0  0  0
  -16.8589   -1.6371   41.4697 H   0  0  0  0  0  0
  -16.4006   -2.9030   42.6589 H   0  0  0  0  0  0
  -18.8358   -3.6889   42.4551 H   0  0  0  0  0  0
  -19.6527   -1.6647   41.2961 H   0  0  0  0  0  0
  -19.8568   -3.1369   40.2874 H   0  0  0  0  0  0
  -18.5188   -1.9894   39.9413 H   0  0  0  0  0  0
  -16.8442   -4.8485   41.5976 H   0  0  0  0  0  0
  -16.8921   -3.8333   40.1165 H   0  0  0  0  0  0
  -18.2301   -4.9808   40.4625 H   0  0  0  0  0  0
  -16.2321   -2.7664   45.0366 H   0  0  0  0  0  0
  -18.2600   -4.4819   46.0679 H   0  0  0  0  0  0
  -15.8634   -3.3368   47.6220 H   0  0  0  0  0  0
  -16.7926   -4.8024   48.0856 H   0  0  0  0  0  0
  -15.2781   -6.8021   45.4390 H   0  0  0  0  0  0
  -17.1647   -1.2247   47.0085 H   0  0  0  0  0  0
  -18.8505   -0.9570   49.3831 H   0  0  0  0  0  0
  -17.0406    0.6136   48.8146 H   0  0  0  0  0  0
  -18.5971    1.4908   49.0008 H   0  0  0  0  0  0
  -17.9467    1.1538   47.3607 H   0  0  0  0  0  0
  -19.2813   -0.0806   45.9026 H   0  0  0  0  0  0
  -21.9896    0.8506   46.1534 H   0  0  0  0  0  0
  -20.1600    0.1125   44.0744 H   0  0  0  0  0  0
  -21.7060   -0.7344   43.7291 H   0  0  0  0  0  0
  -21.4033    2.2494   44.1372 H   0  0  0  0  0  0
  -20.2318    1.4185   42.1223 H   0  0  0  0  0  0
  -21.7040    2.3582   41.7024 H   0  0  0  0  0  0
  -21.7276    0.5642   41.6130 H   0  0  0  0  0  0
  -23.6034    1.3327   44.7350 H   0  0  0  0  0  0
  -23.6928    0.5141   43.1386 H   0  0  0  0  0  0
  -23.6692    2.3080   43.2280 H   0  0  0  0  0  0
  -20.5786   -2.3395   46.1611 H   0  0  0  0  0  0
  -23.0685   -3.7895   45.5547 H   0  0  0  0  0  0
  -20.3499   -4.4188   45.7042 H   0  0  0  0  0  0
  -20.9536   -5.1916   47.2091 H   0  0  0  0  0  0
  -20.9533   -6.8688   45.5845 H   0  0  0  0  0  0
  -22.6698   -6.3606   45.7324 H   0  0  0  0  0  0
  -23.3053   -6.5313   42.0738 H   0  0  0  0  0  0
  -24.0225   -6.3055   43.7052 H   0  0  0  0  0  0
  -22.9505   -7.7102   43.3818 H   0  0  0  0  0  0
  -21.2181   -3.1209   48.5372 H   0  0  0  0  0  0
  -22.7365   -4.6664   50.3618 H   0  0  0  0  0  0
  -20.7505   -3.3268   50.9615 H   0  0  0  0  0  0
  -22.1101   -2.9897   52.0859 H   0  0  0  0  0  0
  -21.7066   -1.8161   50.7872 H   0  0  0  0  0  0
  -23.4958   -1.2801   49.1535 H   0  0  0  0  0  0
  -25.6664   -0.9456   50.9170 H   0  0  0  0  0  0
  -26.6376    0.7207   49.3688 H   0  0  0  0  0  0
  -24.8456    0.8402   49.3992 H   0  0  0  0  0  0
  -25.7146    0.9688   47.0532 H   0  0  0  0  0  0
  -25.5270   -3.1556   48.2302 H   0  0  0  0  0  0
  -28.4014   -3.5329   47.9392 H   0  0  0  0  0  0
  -25.9361   -4.9175   47.1025 H   0  0  0  0  0  0
  -27.2282   -6.0992   47.5036 H   0  0  0  0  0  0
  -28.2243   -5.8074   45.6086 H   0  0  0  0  0  0
  -29.2432   -3.7080   46.3491 H   0  0  0  0  0  0
  -28.8667   -3.7080   44.5927 H   0  0  0  0  0  0
  -27.8171   -2.8039   45.7363 H   0  0  0  0  0  0
  -25.8277   -5.8742   44.9266 H   0  0  0  0  0  0
  -25.8060   -4.0782   44.8978 H   0  0  0  0  0  0
  -26.8556   -4.9822   43.7542 H   0  0  0  0  0  0
  -29.0415   -4.9431   51.2991 H   0  0  0  0  0  0
  1  2  1  0  0  0
  1 85  1  0  0  0
  1 86  1  0  0  0
  1 87  1  0  0  0
  2  3  1  0  0  0
  2  5  1  0  0  0
  2 88  1  0  0  0
  3  4  2  0  0  0
  3  6  1  0  0  0
  5 89  1  0  0  0
  5 90  1  0  0  0
  5 91  1  0  0  0
  6  7  1  0  0  0
  6 92  1  0  0  0
  7  8  1  0  0  0
  7 10  1  0  0  0
  7 93  1  0  0  0
  8  9  2  0  0  0
  8 11  1  0  0  0
 10 94  1  0  0  0
 10 95  1  0  0  0
 10 96  1  0  0  0
 11 12  1  0  0  0
 11 97  1  0  0  0
 12 13  1  0  0  0
 12 15  1  0  0  0
 12 98  1  0  0  0
 13 14  2  0  0  0
 13 18  1  0  0  0
 15 16  1  0  0  0
 15 17  1  0  0  0
 15 99  1  0  0  0
 16100  1  0  0  0
 17101  1  0  0  0
 17102  1  0  0  0
 17103  1  0  0  0
 18 19  1  0  0  0
 18104  1  0  0  0
 19 20  1  0  0  0
 19 22  1  0  0  0
 19105  1  0  0  0
 20 21  2  0  0  0
 20 23  1  0  0  0
 22106  1  0  0  0
 22107  1  0  0  0
 22108  1  0  0  0
 23 24  1  0  0  0
 23109  1  0  0  0
 24 25  1  0  0  0
 24 27  1  0  0  0
 24110  1  0  0  0
 25 26  2  0  0  0
 25 28  1  0  0  0
 27111  1  0  0  0
 27112  1  0  0  0
 27113  1  0  0  0
 28 29  1  0  0  0
 28114  1  0  0  0
 29 30  1  0  0  0
 29 32  1  0  0  0
 29115  1  0  0  0
 30 31  2  0  0  0
 30 36  1  0  0  0
 32 33  1  0  0  0
 32116  1  0  0  0
 32117  1  0  0  0
 33 34  1  0  0  0
 33 35  1  0  0  0
 33118  1  0  0  0
 34119  1  0  0  0
 34120  1  0  0  0
 34121  1  0  0  0
 35122  1  0  0  0
 35123  1  0  0  0
 35124  1  0  0  0
 36 37  1  0  0  0
 36125  1  0  0  0
 37 38  1  0  0  0
 37 40  1  0  0  0
 37126  1  0  0  0
 38 39  2  0  0  0
 38 44  1  0  0  0
 40 41  1  0  0  0
 40127  1  0  0  0
 40128  1  0  0  0
 41 42  1  0  0  0
 41 43  2  0  0  0
 42129  1  0  0  0
 44 45  1  0  0  0
 44130  1  0  0  0
 45 46  1  0  0  0
 45 48  1  0  0  0
 45131  1  0  0  0
 46 47  2  0  0  0
 46 49  1  0  0  0
 48132  1  0  0  0
 48133  1  0  0  0
 48134  1  0  0  0
 49 50  1  0  0  0
 49135  1  0  0  0
 50 51  1  0  0  0
 50 53  1  0  0  0
 50136  1  0  0  0
 51 52  2  0  0  0
 51 57  1  0  0  0
 53 54  1  0  0  0
 53137  1  0  0  0
 53138  1  0  0  0
 54 55  1  0  0  0
 54 56  1  0  0  0
 54139  1  0  0  0
 55140  1  0  0  0
 55141  1  0  0  0
 55142  1  0  0  0
 56143  1  0  0  0
 56144  1  0  0  0
 56145  1  0  0  0
 57 58  1  0  0  0
 57146  1  0  0  0
 58 59  1  0  0  0
 58 61  1  0  0  0
 58147  1  0  0  0
 59 60  2  0  0  0
 59 65  1  0  0  0
 61 62  1  0  0  0
 61148  1  0  0  0
 61149  1  0  0  0
 62 63  1  0  0  0
 62150  1  0  0  0
 62151  1  0  0  0
 63 64  1  0  0  0
 64152  1  0  0  0
 64153  1  0  0  0
 64154  1  0  0  0
 65 66  1  0  0  0
 65155  1  0  0  0
 66 67  1  0  0  0
 66 69  1  0  0  0
 66156  1  0  0  0
 67 68  2  0  0  0
 67 70  1  0  0  0
 69157  1  0  0  0
 69158  1  0  0  0
 69159  1  0  0  0
 70 71  1  0  0  0
 70160  1  0  0  0
 71 72  1  0  0  0
 71 74  1  0  0  0
 71161  1  0  0  0
 72 73  2  0  0  0
 72 76  1  0  0  0
 74 75  1  0  0  0
 74162  1  0  0  0
 74163  1  0  0  0
 75164  1  0  0  0
 76 77  1  0  0  0
 76165  1  0  0  0
 77 78  1  0  0  0
 77 80  1  0  0  0
 77166  1  0  0  0
 78 79  2  0  0  0
 78 84  1  0  0  0
 80 81  1  0  0  0
 80167  1  0  0  0
 80168  1  0  0  0
 81 82  1  0  0  0
 81 83  1  0  0  0
 81169  1  0  0  0
 82170  1  0  0  0
 82171  1  0  0  0
 82172  1  0  0  0
 83173  1  0  0  0
 83174  1  0  0  0
 83175  1  0  0  0
 84176  1  0  0  0
M  CHG  1   1   1
M  END
> <s_m_source_file>
../3u3f_ligand.sdf

> <i_m_source_file_index>
1

> <s_epik_input>
W05IMytdW0NAQEhdKFtDSDNdKUMoPU8pW05IXVtDQEBIXShbQ0gzXSlDKD1PKVtOSF1bQ0BASF0oW0NASF0oW09IXSlbQ0gzXSlDKD1PKVtOSF1bQ0BASF0oW0NIM10pQyg9TylbTkhdW0NAQEhdKFtDSDNdKUMoPU8pW05IXVtDQEBIXShbQ0gyXVtDSF0oW0NIM10pW0NIM10pQyg9TylbTkhdW0NAQEhdKFtDSDJdQyg9TylbT0hdKUMoPU8pW05IXVtDQEBIXShbQ0gzXSlDKD1PKVtOSF1bQ0BASF0oW0NIMl1bQ0hdKFtDSDNdKVtDSDNdKUMoPU8pW05IXVtDQEBIXShbQ0gyXVtDSDJdU1tDSDNdKUMoPU8pW05IXVtDQEBIXShbQ0gzXSlDKD1PKVtOSF1bQ0BASF0oW0NIMl1bT0hdKUMoPU8pW05IXVtDQEhdKEMoPU8pW09IXSlbQ0gyXVtDSF0oW0NIM10pW0NIM10=

> <s_epik_cmdline>
J2VwaWtfYXBwJywgJy1pbWFlJywgJ2xpZ2FuZF9wcm8ubWFlJywgJy1vbWFlJywgJ2xpZ2FuZF9wcmVwLm1hZScsICctbXMnLCAnMScsICctcGgnLCAnNycsICctcGh0JywgJzAuNScsICctbnQn

> <s_epik_pKa_notes>
Molecule size exceeds maximum supported for generating protonation states

$$$$
