3u3u_ligand
                    3D
 Schrodinger Suite 2020-3.
 54 53  0  0  1  0            999 V2000
   23.6920  -16.9320   16.1770 O   0  0  0  0  0  0
   23.0880  -15.9740   16.6820 C   0  0  0  0  0  0
   21.8460  -15.9580   16.8070 O   0  5  0  0  0  0
   23.9030  -14.7990   17.1620 C   0  0  0  0  0  0
   25.1420  -14.6560   16.2850 C   0  0  0  0  0  0
   25.4400  -13.1950   15.9650 C   0  0  0  0  0  0
   26.1010  -12.4020   17.1010 C   0  0  2  0  0  0
   26.7600  -13.2660   18.0400 O   0  0  0  0  0  0
   25.1250  -11.4870   17.8400 C   0  0  0  0  0  0
   24.0660  -10.9500   16.9120 C   0  0  0  0  0  0
   24.3310  -10.3380   15.7380 C   0  0  0  0  0  0
   23.1750   -9.8790   14.9760 C   0  0  0  0  0  0
   23.1430   -9.3560   13.7450 C   0  0  0  0  0  0
   21.7610   -9.0410   13.4020 C   0  0  0  0  0  0
   21.1890   -8.4960   12.3340 C   0  0  0  0  0  0
   21.7570   -7.9760   11.0440 C   0  0  0  0  0  0
   20.5040   -7.8790   10.1890 C   0  0  0  0  0  0
   20.1770   -6.8680    9.3780 C   0  0  0  0  0  0
   21.0650   -5.6600    9.1920 C   0  0  0  0  0  0
   20.6380   -4.5580   10.1420 C   0  0  0  0  0  0
   21.5200   -3.3260    9.9590 C   0  0  0  0  0  0
   21.4470   -2.4540   11.2090 C   0  0  0  0  0  0
   21.8640   -1.0330   10.9310 C   0  0  0  0  0  0
   23.2980  -13.8826   17.0982 H   0  0  0  0  0  0
   24.2071  -14.9656   18.2059 H   0  0  0  0  0  0
   26.0119  -15.0807   16.8073 H   0  0  0  0  0  0
   24.9849  -15.1930   15.3379 H   0  0  0  0  0  0
   26.1230  -13.1401   15.1045 H   0  0  0  0  0  0
   24.5020  -12.6741   15.7224 H   0  0  0  0  0  0
   26.9027  -11.7938   16.6567 H   0  0  0  0  0  0
   27.5020  -13.9975   17.6874 H   0  0  0  0  0  0
   24.6309  -12.0514   18.6445 H   0  0  0  0  0  0
   25.6743  -10.6375   18.2720 H   0  0  0  0  0  0
   23.0246  -11.0810   17.2412 H   0  0  0  0  0  0
   25.3722  -10.2104   15.4070 H   0  0  0  0  0  0
   22.2415  -10.0072   15.5435 H   0  0  0  0  0  0
   24.0761   -9.2311   13.1760 H   0  0  0  0  0  0
   21.1440   -9.3521   14.2578 H   0  0  0  0  0  0
   20.0976   -8.3620   12.3027 H   0  0  0  0  0  0
   22.2419   -7.0048   11.2220 H   0  0  0  0  0  0
   22.4980   -8.6900   10.6554 H   0  0  0  0  0  0
   19.8357   -8.7478   10.2820 H   0  0  0  0  0  0
   19.2315   -6.8970    8.8166 H   0  0  0  0  0  0
   22.1089   -5.9366    9.4013 H   0  0  0  0  0  0
   20.9818   -5.2998    8.1560 H   0  0  0  0  0  0
   19.5925   -4.2833    9.9386 H   0  0  0  0  0  0
   20.7288   -4.9125   11.1793 H   0  0  0  0  0  0
   22.5607   -3.6414    9.7937 H   0  0  0  0  0  0
   21.1692   -2.7496    9.0903 H   0  0  0  0  0  0
   20.4142   -2.4411   11.5872 H   0  0  0  0  0  0
   22.1151   -2.8632   11.9811 H   0  0  0  0  0  0
   21.7960   -0.4431   11.8570 H   0  0  0  0  0  0
   21.1997   -0.5982   10.1696 H   0  0  0  0  0  0
   22.9007   -1.0204   10.5635 H   0  0  0  0  0  0
  1  2  2  0  0  0
  2  3  1  0  0  0
  2  4  1  0  0  0
  4  5  1  0  0  0
  4 24  1  0  0  0
  4 25  1  0  0  0
  5  6  1  0  0  0
  5 26  1  0  0  0
  5 27  1  0  0  0
  6  7  1  0  0  0
  6 28  1  0  0  0
  6 29  1  0  0  0
  7  8  1  0  0  0
  7  9  1  0  0  0
  7 30  1  0  0  0
  8 31  1  0  0  0
  9 10  1  0  0  0
  9 32  1  0  0  0
  9 33  1  0  0  0
 10 11  2  0  0  0
 10 34  1  0  0  0
 11 12  1  0  0  0
 11 35  1  0  0  0
 12 13  2  0  0  0
 12 36  1  0  0  0
 13 14  1  0  0  0
 13 37  1  0  0  0
 14 15  2  0  0  0
 14 38  1  0  0  0
 15 16  1  0  0  0
 15 39  1  0  0  0
 16 17  1  0  0  0
 16 40  1  0  0  0
 16 41  1  0  0  0
 17 18  2  0  0  0
 17 42  1  0  0  0
 18 19  1  0  0  0
 18 43  1  0  0  0
 19 20  1  0  0  0
 19 44  1  0  0  0
 19 45  1  0  0  0
 20 21  1  0  0  0
 20 46  1  0  0  0
 20 47  1  0  0  0
 21 22  1  0  0  0
 21 48  1  0  0  0
 21 49  1  0  0  0
 22 23  1  0  0  0
 22 50  1  0  0  0
 22 51  1  0  0  0
 23 52  1  0  0  0
 23 53  1  0  0  0
 23 54  1  0  0  0
M  CHG  1   3  -1
M  END
> <s_m_source_file>
../3u3u_ligand.sdf

> <i_m_source_file_index>
1

> <s_epik_input>
Tz1DKFtPSF0pW0NIMl1bQ0gyXVtDSDJdW0NASF0oW09IXSlbQ0gyXS9bQ0hdPVtDSF0vW0NIXT1bQ0hdL1tDSF09W0NIXVxbQ0gyXS9bQ0hdPVtDSF1cW0NIMl1bQ0gyXVtDSDJdW0NIMl1bQ0gzXQ==

> <s_epik_cmdline>
J2VwaWtfYXBwJywgJy1pbWFlJywgJ2xpZ2FuZF9wcm8ubWFlJywgJy1vbWFlJywgJ2xpZ2FuZF9wcmVwLm1hZScsICctbXMnLCAnMScsICctcGgnLCAnNycsICctcGh0JywgJzAuNScsICctbnQn

> <r_lp_tautomer_probability>
1

> <r_epik_Ionization_Penalty>
  0.0041

> <r_epik_Ionization_Penalty_Charging>
  0.0041

> <r_epik_Ionization_Penalty_Neutral>
  0.0000

> <r_epik_State_Penalty>
 -0.0000

> <r_epik_Charging_Adjusted_Penalty>
0.00409846374005666

> <i_epik_Tot_Q>
-1

> <i_epik_Tot_abs_Q>
1

$$$$
