3u3z_ligand
                    3D
 Schrodinger Suite 2020-3.
 73 73  0  0  1  0            999 V2000
  -18.6250  -10.2220  -24.0150 N   0  3  0  0  0  0
  -17.5040   -9.6040  -23.3170 C   0  0  1  0  0  0
  -16.9800  -10.5220  -22.2190 C   0  0  0  0  0  0
  -17.9360  -10.6000  -21.1840 O   0  0  0  0  0  0
  -16.3840   -9.2430  -24.2740 C   0  0  0  0  0  0
  -15.9590  -10.0590  -25.0910 O   0  0  0  0  0  0
  -17.9370  -12.0410  -20.4950 P   0  0  0  0  0  0
  -19.2250  -12.0720  -19.5420 O   0  5  0  0  0  0
  -18.0040  -13.2070  -21.5890 O   0  5  0  0  0  0
  -16.5870  -12.1760  -19.6590 O   0  0  0  0  0  0
  -15.9120   -8.0070  -24.1560 N   0  0  0  0  0  0
  -14.8330   -7.4920  -24.9850 C   0  0  2  0  0  0
  -13.5300   -8.2250  -24.7470 C   0  0  0  0  0  0
  -13.1760   -8.5420  -23.6170 O   0  0  0  0  0  0
  -14.6120   -6.0040  -24.6910 C   0  0  0  0  0  0
  -15.8290   -5.1600  -24.9640 C   0  0  0  0  0  0
  -16.1540   -5.1060  -26.4390 C   0  0  0  0  0  0
  -15.4130   -4.5130  -27.2250 O   0  0  0  0  0  0
  -17.2530   -5.7430  -26.8290 N   0  0  0  0  0  0
  -12.8170   -8.4710  -25.8340 N   0  0  0  0  0  0
  -11.4620   -8.9780  -25.7800 C   0  0  2  0  0  0
  -10.5170   -7.7830  -25.7640 C   0  0  0  0  0  0
  -10.6590   -6.8520  -26.5650 O   0  0  0  0  0  0
  -11.2040   -9.8460  -27.0040 C   0  0  0  0  0  0
   -9.8190  -10.4400  -27.1010 C   0  0  0  0  0  0
   -9.6170  -11.1580  -28.4210 C   0  0  0  0  0  0
  -10.4820  -11.0170  -29.3110 O   0  5  0  0  0  0
   -8.6020  -11.8640  -28.5730 O   0  0  0  0  0  0
   -9.5760   -7.7950  -24.8290 N   0  0  0  0  0  0
   -8.5720   -6.7430  -24.7220 C   0  0  2  0  0  0
   -7.1880   -7.2700  -24.9700 C   0  0  0  0  0  0
   -6.2290   -6.5090  -25.1060 O   0  0  0  0  0  0
   -6.9810   -8.4850  -25.0510 O   0  5  0  0  0  0
   -8.6150   -6.0790  -23.3510 C   0  0  0  0  0  0
   -9.8270   -5.2170  -23.2510 C   0  0  0  0  0  0
  -10.9490   -5.6460  -22.5650 C   0  0  0  0  0  0
   -9.8700   -3.9940  -23.8980 C   0  0  0  0  0  0
  -12.0780   -4.8630  -22.5020 C   0  0  0  0  0  0
  -10.9910   -3.2040  -23.8460 C   0  0  0  0  0  0
  -12.0900   -3.6460  -23.1480 C   0  0  0  0  0  0
  -13.0940   -2.9560  -23.0850 O   0  0  0  0  0  0
  -13.4630   -1.8780  -24.2180 P   0  0  0  0  0  0
  -13.2950   -2.4560  -25.5750 O   0  0  0  0  0  0
  -12.5990   -0.6220  -24.0260 O   0  5  0  0  0  0
  -14.9380   -1.5060  -23.9690 O   0  5  0  0  0  0
  -19.4158  -10.4695  -23.2916 H   0  0  0  0  0  0
  -18.2843  -11.1409  -24.5145 H   0  0  0  0  0  0
  -19.0206   -9.5218  -24.7655 H   0  0  0  0  0  0
  -17.9145   -8.6818  -22.8798 H   0  0  0  0  0  0
  -16.8022  -11.5252  -22.6337 H   0  0  0  0  0  0
  -16.0376  -10.1173  -21.8214 H   0  0  0  0  0  0
  -16.3730   -7.3643  -23.3915 H   0  0  0  0  0  0
  -15.1701   -7.6738  -26.0161 H   0  0  0  0  0  0
  -14.3484   -5.8749  -23.6309 H   0  0  0  0  0  0
  -13.7947   -5.6232  -25.3210 H   0  0  0  0  0  0
  -16.6952   -5.5835  -24.4345 H   0  0  0  0  0  0
  -15.6499   -4.1335  -24.6117 H   0  0  0  0  0  0
  -17.8823   -6.2580  -26.0883 H   0  0  0  0  0  0
  -17.5334   -5.7553  -27.8926 H   0  0  0  0  0  0
  -13.2927   -8.2753  -26.8063 H   0  0  0  0  0  0
  -11.3520   -9.5814  -24.8669 H   0  0  0  0  0  0
  -11.9053  -10.6934  -27.0070 H   0  0  0  0  0  0
  -11.3487   -9.2472  -27.9153 H   0  0  0  0  0  0
   -9.0699   -9.6385  -27.0211 H   0  0  0  0  0  0
   -9.6717  -11.1622  -26.2844 H   0  0  0  0  0  0
   -9.5696   -8.6356  -24.1196 H   0  0  0  0  0  0
   -8.8352   -6.0283  -25.5156 H   0  0  0  0  0  0
   -8.6511   -6.8527  -22.5699 H   0  0  0  0  0  0
   -7.7149   -5.4616  -23.2142 H   0  0  0  0  0  0
  -10.9382   -6.6162  -22.0684 H   0  0  0  0  0  0
   -8.9993   -3.6528  -24.4579 H   0  0  0  0  0  0
  -12.9532   -5.2013  -21.9474 H   0  0  0  0  0  0
  -11.0098   -2.2385  -24.3516 H   0  0  0  0  0  0
  1  2  1  0  0  0
  1 46  1  0  0  0
  1 47  1  0  0  0
  1 48  1  0  0  0
  2  3  1  0  0  0
  2  5  1  0  0  0
  2 49  1  0  0  0
  3  4  1  0  0  0
  3 50  1  0  0  0
  3 51  1  0  0  0
  4  7  1  0  0  0
  5  6  2  0  0  0
  5 11  1  0  0  0
  7  8  1  0  0  0
  7  9  1  0  0  0
  7 10  2  0  0  0
 11 12  1  0  0  0
 11 52  1  0  0  0
 12 13  1  0  0  0
 12 15  1  0  0  0
 12 53  1  0  0  0
 13 14  2  0  0  0
 13 20  1  0  0  0
 15 16  1  0  0  0
 15 54  1  0  0  0
 15 55  1  0  0  0
 16 17  1  0  0  0
 16 56  1  0  0  0
 16 57  1  0  0  0
 17 18  2  0  0  0
 17 19  1  0  0  0
 19 58  1  0  0  0
 19 59  1  0  0  0
 20 21  1  0  0  0
 20 60  1  0  0  0
 21 22  1  0  0  0
 21 24  1  0  0  0
 21 61  1  0  0  0
 22 23  2  0  0  0
 22 29  1  0  0  0
 24 25  1  0  0  0
 24 62  1  0  0  0
 24 63  1  0  0  0
 25 26  1  0  0  0
 25 64  1  0  0  0
 25 65  1  0  0  0
 26 27  1  0  0  0
 26 28  2  0  0  0
 29 30  1  0  0  0
 29 66  1  0  0  0
 30 31  1  0  0  0
 30 34  1  0  0  0
 30 67  1  0  0  0
 31 32  2  0  0  0
 31 33  1  0  0  0
 34 35  1  0  0  0
 34 68  1  0  0  0
 34 69  1  0  0  0
 35 36  2  0  0  0
 35 37  1  0  0  0
 36 38  1  0  0  0
 36 70  1  0  0  0
 37 39  2  0  0  0
 37 71  1  0  0  0
 38 40  2  0  0  0
 38 72  1  0  0  0
 39 40  1  0  0  0
 39 73  1  0  0  0
 40 41  1  0  0  0
 41 42  1  0  0  0
 42 43  2  0  0  0
 42 44  1  0  0  0
 42 45  1  0  0  0
M  CHG  7   1   1   8  -1   9  -1  27  -1  33  -1  44  -1  45  -1
M  END
> <s_m_source_file>
../3u3z_ligand.sdf

> <i_m_source_file_index>
1

> <s_epik_input>
W09IXVAoPU8pKFtPSF0pT1tDSDJdW0NASF0oW05IMytdKUMoPU8pW05IXVtDQEBIXShbQ0gyXVtDSDJdQyg9TylbTkgyXSlDKD1PKVtOSF1bQ0BASF0oW0NIMl1bQ0gyXUMoPU8pW09IXSlDKD1PKVtOSF1bQ0BIXShDKD1PKVtPSF0pW0NIMl1jMVtjSF1bY0hdYyhbY0hdW2NIXTEpT1AoPU8pKFtPSF0pW09IXQ==

> <s_epik_cmdline>
J2VwaWtfYXBwJywgJy1pbWFlJywgJ2xpZ2FuZF9wcm8ubWFlJywgJy1vbWFlJywgJ2xpZ2FuZF9wcmVwLm1hZScsICctbXMnLCAnMScsICctcGgnLCAnNycsICctcGh0JywgJzAuNScsICctbnQn

> <r_epik_Ionization_Penalty>
  0.4498

> <r_epik_Ionization_Penalty_Charging>
  0.4498

> <r_epik_Ionization_Penalty_Neutral>
  0.0000

> <r_epik_State_Penalty>
  0.1482

> <r_epik_Charging_Adjusted_Penalty>
0.598003201598127

> <i_epik_Tot_Q>
-5

> <i_epik_Tot_abs_Q>
7

$$$$
