3u4h_ligand
                    3D
 Schrodinger Suite 2020-3.
 55 59  0  0  1  0            999 V2000
   -1.2180    0.8440   -0.8780 N   0  0  0  0  0  0
   -2.4800    0.8380   -1.3420 C   0  0  0  0  0  0
   -2.9570   -0.0600   -2.2220 N   0  0  0  0  0  0
   -2.1630   -1.0480   -2.7150 C   0  0  0  0  0  0
   -0.7630   -1.1460   -2.2750 C   0  0  0  0  0  0
   -0.3030   -0.1290   -1.3210 C   0  0  0  0  0  0
    0.9580   -0.1910   -0.8750 O   0  0  0  0  0  0
   -0.1870   -2.1970   -2.8920 N   0  0  0  0  0  0
   -1.1740   -2.6920   -3.6460 C   0  0  0  0  0  0
   -0.9730   -3.7690   -4.4360 N   0  0  0  0  0  0
   -2.3490   -2.0590   -3.5590 N   0  0  0  0  0  0
   -4.3270    2.9980   -6.2170 P   0  0  1  0  0  0
   -4.1400    4.1400   -3.5330 P   0  0  2  0  0  0
   -3.5810   -2.3360   -4.3020 C   0  0  1  0  0  0
   -5.7680    3.3900   -6.4200 O   0  5  0  0  0  0
   -5.5650    3.6300   -3.3390 O   0  5  0  0  0  0
   -0.7980    1.9120    0.0490 C   0  0  1  0  0  0
   -4.8210   -1.9440   -3.5250 C   0  0  2  0  0  0
   -5.7460   -3.0130   -3.7070 O   0  0  0  0  0  0
   -3.4120    3.1060   -7.4010 O   0  0  0  0  0  0
   -3.7730    5.5780   -3.2300 O   0  0  0  0  0  0
    0.5540    2.4120   -0.4530 C   0  0  2  0  0  0
    1.4310    2.7130    0.6390 O   0  0  0  0  0  0
   -5.3610   -0.7080   -4.2190 C   0  0  2  0  0  0
   -6.7860   -0.7160   -4.2600 O   0  0  0  0  0  0
   -3.6340    3.9150   -5.0590 O   0  0  0  0  0  0
    0.3050    3.6680   -1.2800 C   0  0  2  0  0  0
    0.9000    4.8340   -0.6890 O   0  0  0  0  0  0
   -4.7890   -0.8470   -5.6140 C   0  0  2  0  0  0
   -3.4970   -1.4260   -5.4060 O   0  0  0  0  0  0
   -1.2060    3.8300   -1.2980 C   0  0  2  0  0  0
   -1.6870    3.0050   -0.2210 O   0  0  0  0  0  0
   -4.7400    0.4620   -6.3920 C   0  0  0  0  0  0
   -4.2320    1.5290   -5.6000 O   0  0  0  0  0  0
   -1.7310    3.4330   -2.6830 C   0  0  0  0  0  0
   -3.1430    3.1670   -2.7150 O   0  0  0  0  0  0
   -3.1597    1.6103   -0.9819 H   0  0  0  0  0  0
    0.0155   -4.2505   -4.4684 H   0  0  0  0  0  0
   -1.7978   -4.1646   -5.0470 H   0  0  0  0  0  0
   -3.6321   -3.3986   -4.5819 H   0  0  0  0  0  0
   -0.8246    1.5873    1.0997 H   0  0  0  0  0  0
   -4.6740   -1.7970   -2.4448 H   0  0  0  0  0  0
   -5.5347   -4.0026   -3.2756 H   0  0  0  0  0  0
    1.0873    1.6333   -1.0180 H   0  0  0  0  0  0
    1.7221    1.9213    1.3450 H   0  0  0  0  0  0
   -5.1459    0.2426   -3.7090 H   0  0  0  0  0  0
   -7.3636   -0.6237   -3.3284 H   0  0  0  0  0  0
    0.7776    3.6170   -2.2720 H   0  0  0  0  0  0
    1.9932    4.9024   -0.5879 H   0  0  0  0  0  0
   -5.3831   -1.5184   -6.2514 H   0  0  0  0  0  0
   -1.5760    4.8439   -1.0855 H   0  0  0  0  0  0
   -4.0877    0.3427   -7.2697 H   0  0  0  0  0  0
   -5.7542    0.7302   -6.7227 H   0  0  0  0  0  0
   -1.5365    4.2476   -3.3962 H   0  0  0  0  0  0
   -1.2195    2.5197   -3.0211 H   0  0  0  0  0  0
  1  2  1  0  0  0
  1  6  1  0  0  0
  1 17  1  0  0  0
  2  3  2  0  0  0
  2 37  1  0  0  0
  3  4  1  0  0  0
  4  5  2  0  0  0
  4 11  1  0  0  0
  5  6  1  0  0  0
  5  8  1  0  0  0
  6  7  2  0  0  0
  8  9  2  0  0  0
  9 10  1  0  0  0
  9 11  1  0  0  0
 10 38  1  0  0  0
 10 39  1  0  0  0
 11 14  1  0  0  0
 12 15  1  0  0  0
 12 20  2  0  0  0
 12 26  1  0  0  0
 12 34  1  0  0  0
 13 16  1  0  0  0
 13 21  2  0  0  0
 13 26  1  0  0  0
 13 36  1  0  0  0
 14 18  1  0  0  0
 14 30  1  0  0  0
 14 40  1  0  0  0
 17 22  1  0  0  0
 17 32  1  0  0  0
 17 41  1  0  0  0
 18 19  1  0  0  0
 18 24  1  0  0  0
 18 42  1  0  0  0
 19 43  1  0  0  0
 22 23  1  0  0  0
 22 27  1  0  0  0
 22 44  1  0  0  0
 23 45  1  0  0  0
 24 25  1  0  0  0
 24 29  1  0  0  0
 24 46  1  0  0  0
 25 47  1  0  0  0
 27 28  1  0  0  0
 27 31  1  0  0  0
 27 48  1  0  0  0
 28 49  1  0  0  0
 29 30  1  0  0  0
 29 33  1  0  0  0
 29 50  1  0  0  0
 31 32  1  0  0  0
 31 35  1  0  0  0
 31 51  1  0  0  0
 33 34  1  0  0  0
 33 52  1  0  0  0
 33 53  1  0  0  0
 35 36  1  0  0  0
 35 54  1  0  0  0
 35 55  1  0  0  0
M  CHG  2  15  -1  16  -1
M  END
> <s_m_source_file>
../3u4h_ligand.sdf

> <i_m_source_file_index>
1

> <s_epik_input>
bjEyW0NASF0zW0NASF0oW09IXSlbQ0BIXShbT0hdKVtDQEhdKE8zKVtDSDJdT1tQQF0oPU8pKFtPSF0pT1tQQF0oPU8pKFtPSF0pT1tDSDJdW0NAQEhdNFtDQEBIXShbT0hdKVtDQEBIXShbT0hdKVtDQEBIXShPNClbbitdNWMobltjSF0xKWMoYzJbT0hdKW5jNVtOSDJd

> <s_epik_cmdline>
J2VwaWtfYXBwJywgJy1pbWFlJywgJ2xpZ2FuZF9wcm8ubWFlJywgJy1vbWFlJywgJ2xpZ2FuZF9wcmVwLm1hZScsICctbXMnLCAnMScsICctcGgnLCAnNycsICctcGh0JywgJzAuNScsICctbnQn

> <r_lp_tautomer_probability>
1

> <r_epik_Ionization_Penalty>
  0.0010

> <r_epik_Ionization_Penalty_Charging>
  0.0006

> <r_epik_Ionization_Penalty_Neutral>
  0.0005

> <r_epik_State_Penalty>
 -0.0000

> <r_epik_Charging_Adjusted_Penalty>
0.000559105711552169

> <i_epik_Tot_Q>
-2

> <i_epik_Tot_abs_Q>
2

> <s_epik_Chemistry_Notes>
This compound contains an acetal/aminal-like group ( X-CH(R)-Y where X, Y are N, S, or O) that may be acid/base labile, releasing an aldehyde.

$$$$
