3u4i_ligand
                    3D
 Schrodinger Suite 2020-3.
 57 61  0  0  1  0            999 V2000
    1.9950    0.7100    1.2480 N   0  3  0  0  0  0
    3.3290    0.8710    1.0810 C   0  0  0  0  0  0
    4.2870    0.1430    1.6860 N   0  0  0  0  0  0
    3.9730   -0.8520    2.5550 C   0  0  0  0  0  0
    2.5440   -1.1190    2.8240 C   0  0  0  0  0  0
    1.5310   -0.2930    2.1300 C   0  0  0  0  0  0
    0.2180   -0.5090    2.3500 N   0  0  0  0  0  0
    2.5060   -2.1310    3.7030 N   0  0  0  0  0  0
    3.7870   -2.4870    3.9780 C   0  0  0  0  0  0
    4.6690   -1.7260    3.3000 N   0  0  0  0  0  0
    6.4910    2.9060    4.3940 P   0  0  2  0  0  0
    3.9160    3.9960    3.7750 P   0  0  1  0  0  0
    6.1520   -1.8850    3.4040 C   0  0  1  0  0  0
    6.1650    3.3670    5.7940 O   0  5  0  0  0  0
    3.4730    3.7610    5.2050 O   0  0  0  0  0  0
    1.1640    1.5630    0.5350 C   0  0  1  0  0  0
    6.9590   -1.1490    2.3840 C   0  0  2  0  0  0
    7.1760   -1.8920    1.3100 O   0  0  0  0  0  0
    7.6670    3.5140    3.6800 O   0  0  0  0  0  0
    4.1990    5.4130    3.2770 O   0  5  0  0  0  0
   -0.1800    2.0440    1.0370 C   0  0  2  0  0  0
   -1.1360    2.0370   -0.0290 O   0  0  0  0  0  0
    8.0930   -0.7790    2.9400 C   0  0  2  0  0  0
    9.0710   -1.6200    2.6140 O   0  0  0  0  0  0
    5.1700    3.0290    3.4600 O   0  0  0  0  0  0
    0.0410    3.5120    1.3880 C   0  0  2  0  0  0
   -0.9830    4.3540    0.8300 O   0  0  0  0  0  0
    7.9310   -0.7410    4.4230 C   0  0  2  0  0  0
    6.6600   -1.3760    4.6510 O   0  0  0  0  0  0
    1.3610    3.8930    0.7400 C   0  0  2  0  0  0
    1.8040    2.6260    0.0550 C   0  0  0  0  0  0
    7.9140    0.7090    4.9010 C   0  0  0  0  0  0
    6.7030    1.3090    4.4420 O   0  0  0  0  0  0
    2.3900    4.3990    1.7450 C   0  0  0  0  0  0
    2.7630    3.4680    2.7700 O   0  0  0  0  0  0
    3.6552    1.6564    0.3991 H   0  0  0  0  0  0
   -0.5345    0.1053    1.8339 H   0  0  0  0  0  0
   -0.1004   -1.2995    3.0456 H   0  0  0  0  0  0
    4.0672   -3.2883    4.6618 H   0  0  0  0  0  0
    6.2822   -2.9731    3.3087 H   0  0  0  0  0  0
    1.0266    0.8154   -0.2602 H   0  0  0  0  0  0
    6.5102   -0.2341    1.9699 H   0  0  0  0  0  0
    6.3265   -2.2818    0.7301 H   0  0  0  0  0  0
   -0.5795    1.4012    1.8353 H   0  0  0  0  0  0
   -1.4664    1.0828   -0.4652 H   0  0  0  0  0  0
    8.3510    0.1727    2.4524 H   0  0  0  0  0  0
    9.3326   -1.7762    1.5570 H   0  0  0  0  0  0
   -0.0113    3.6828    2.4734 H   0  0  0  0  0  0
   -2.0259    4.2455    1.1625 H   0  0  0  0  0  0
    8.7183   -1.2842    4.9662 H   0  0  0  0  0  0
    1.2499    4.7278    0.0324 H   0  0  0  0  0  0
    2.8858    2.5048    0.2129 H   0  0  0  0  0  0
    1.5991    2.7222   -1.0214 H   0  0  0  0  0  0
    7.9579    0.7333    5.9999 H   0  0  0  0  0  0
    8.7830    1.2417    4.4874 H   0  0  0  0  0  0
    3.3173    4.6665    1.2172 H   0  0  0  0  0  0
    1.9932    5.2856    2.2613 H   0  0  0  0  0  0
  1  2  1  0  0  0
  1  6  2  0  0  0
  1 16  1  0  0  0
  2  3  2  0  0  0
  2 36  1  0  0  0
  3  4  1  0  0  0
  4  5  2  0  0  0
  4 10  1  0  0  0
  5  6  1  0  0  0
  5  8  1  0  0  0
  6  7  1  0  0  0
  7 37  1  0  0  0
  7 38  1  0  0  0
  8  9  2  0  0  0
  9 10  1  0  0  0
  9 39  1  0  0  0
 10 13  1  0  0  0
 11 14  1  0  0  0
 11 19  2  0  0  0
 11 25  1  0  0  0
 11 33  1  0  0  0
 12 15  2  0  0  0
 12 20  1  0  0  0
 12 25  1  0  0  0
 12 35  1  0  0  0
 13 17  1  0  0  0
 13 29  1  0  0  0
 13 40  1  0  0  0
 16 21  1  0  0  0
 16 31  1  0  0  0
 16 41  1  0  0  0
 17 18  1  0  0  0
 17 23  1  0  0  0
 17 42  1  0  0  0
 18 43  1  0  0  0
 21 22  1  0  0  0
 21 26  1  0  0  0
 21 44  1  0  0  0
 22 45  1  0  0  0
 23 24  1  0  0  0
 23 28  1  0  0  0
 23 46  1  0  0  0
 24 47  1  0  0  0
 26 27  1  0  0  0
 26 30  1  0  0  0
 26 48  1  0  0  0
 27 49  1  0  0  0
 28 29  1  0  0  0
 28 32  1  0  0  0
 28 50  1  0  0  0
 30 31  1  0  0  0
 30 34  1  0  0  0
 30 51  1  0  0  0
 31 52  1  0  0  0
 31 53  1  0  0  0
 32 33  1  0  0  0
 32 54  1  0  0  0
 32 55  1  0  0  0
 34 35  1  0  0  0
 34 56  1  0  0  0
 34 57  1  0  0  0
M  CHG  3   1   1  14  -1  20  -1
M  END
> <s_m_source_file>
../3u4i_ligand.sdf

> <i_m_source_file_index>
1

> <s_epik_input>
bjEyW0NASF0zW0NASF0oW09IXSlbQ0BIXShbT0hdKVtDQEhdKFtDSDJdMylbQ0gyXU9bUEBdKD1PKShbT0hdKU9bUEBAXSg9TykoW09IXSlPW0NIMl1bQ0BASF00W0NAQEhdKFtPSF0pW0NAQEhdKFtPSF0pW0NAQEhdKE80KVtuK101YyhuW2NIXTEpYyhjMltOSDJdKW5bY0hdNQ==

> <s_epik_cmdline>
J2VwaWtfYXBwJywgJy1pbWFlJywgJ2xpZ2FuZF9wcm8ubWFlJywgJy1vbWFlJywgJ2xpZ2FuZF9wcmVwLm1hZScsICctbXMnLCAnMScsICctcGgnLCAnNycsICctcGh0JywgJzAuNScsICctbnQn

> <r_lp_tautomer_probability>
1

> <r_epik_Ionization_Penalty>
  0.0025

> <r_epik_Ionization_Penalty_Charging>
  0.0007

> <r_epik_Ionization_Penalty_Neutral>
  0.0019

> <r_epik_State_Penalty>
 -0.0000

> <r_epik_Charging_Adjusted_Penalty>
0.000657516560878696

> <i_epik_Tot_Q>
-1

> <i_epik_Tot_abs_Q>
3

> <s_epik_Chemistry_Notes>
This compound contains an acetal/aminal-like group ( X-CH(R)-Y where X, Y are N, S, or O) that may be acid/base labile, releasing an aldehyde.

$$$$
