3u4o_ligand
                    3D
 Schrodinger Suite 2020-3.
 42 45  0  0  1  0            999 V2000
   25.8760   41.9110   46.3980 C   0  0  0  0  0  0
   25.7760   41.8360   47.7910 C   0  0  0  0  0  0
   27.4090   42.7130   41.5880 C   0  0  0  0  0  0
   24.4570   43.8860   47.8680 C   0  0  0  0  0  0
   27.6690   44.2720   43.4290 C   0  0  0  0  0  0
   28.5100   43.3100   41.0180 C   0  0  0  0  0  0
   24.5380   43.9790   46.4570 C   0  0  0  0  0  0
   24.0330   44.8860   45.4860 C   0  0  0  0  0  0
   26.9790   43.2020   42.8200 C   0  0  0  0  0  0
   25.2480   42.9950   45.7660 C   0  0  0  0  0  0
   25.0850   42.8110   48.5130 C   0  0  0  0  0  0
   24.4430   44.4640   44.2190 C   0  0  0  0  0  0
   28.7710   44.8190   42.7730 C   0  0  0  0  0  0
   22.6090   48.0220   47.0800 C   0  0  0  0  0  0
   23.4820   46.8970   46.7950 C   0  0  0  0  0  0
   21.5080   48.2100   46.3300 C   0  0  0  0  0  0
   23.2150   46.0250   45.7950 C   0  0  2  0  0  0
   21.9460   46.2330   44.9860 C   0  0  0  0  0  0
   24.2290   44.9900   42.8740 C   0  0  0  0  0  0
   25.7840   42.5140   43.4020 C   0  0  0  0  0  0
   29.1940   44.3460   41.5710 N   0  0  0  0  0  0
   25.1660   43.3180   44.4430 N   0  0  0  0  0  0
   21.1880   47.3310   45.3190 N   0  0  0  0  0  0
   29.4780   45.8700   43.3530 N   0  0  0  0  0  0
   21.6130   45.4410   44.0750 O   0  0  0  0  0  0
   23.9820   44.3320   41.8760 O   0  0  0  0  0  0
   24.1920   46.3310   42.8370 O   0  5  0  0  0  0
   24.9680   42.6760   50.2400 Cl  0  0  0  0  0  0
   26.4194   41.1583   45.8268 H   0  0  0  0  0  0
   26.2436   41.0055   48.3199 H   0  0  0  0  0  0
   26.8930   41.8892   41.0948 H   0  0  0  0  0  0
   23.9156   44.6374   48.4428 H   0  0  0  0  0  0
   27.3465   44.6633   44.3939 H   0  0  0  0  0  0
   28.8568   42.9262   40.0586 H   0  0  0  0  0  0
   22.8506   48.7110   47.9028 H   0  0  0  0  0  0
   24.3873   46.7365   47.3989 H   0  0  0  0  0  0
   20.8606   49.0763   46.5310 H   0  0  0  0  0  0
   24.1090   46.3116   46.3683 H   0  0  0  0  0  0
   25.0414   42.3364   42.6102 H   0  0  0  0  0  0
   26.0912   41.5524   43.8389 H   0  0  0  0  0  0
   29.1613   46.2756   44.3252 H   0  0  0  0  0  0
   30.3529   46.2943   42.8387 H   0  0  0  0  0  0
  1  2  1  0  0  0
  1 10  2  0  0  0
  1 29  1  0  0  0
  2 11  2  0  0  0
  2 30  1  0  0  0
  3  6  2  0  0  0
  3  9  1  0  0  0
  3 31  1  0  0  0
  4  7  2  0  0  0
  4 11  1  0  0  0
  4 32  1  0  0  0
  5  9  2  0  0  0
  5 13  1  0  0  0
  5 33  1  0  0  0
  6 21  1  0  0  0
  6 34  1  0  0  0
  7  8  1  0  0  0
  7 10  1  0  0  0
  8 12  2  0  0  0
  8 17  1  0  0  0
  9 20  1  0  0  0
 10 22  1  0  0  0
 11 28  1  0  0  0
 12 19  1  0  0  0
 12 22  1  0  0  0
 13 21  2  0  0  0
 13 24  1  0  0  0
 14 15  2  0  0  0
 14 16  1  0  0  0
 14 35  1  0  0  0
 15 17  1  0  0  0
 15 36  1  0  0  0
 16 23  2  0  0  0
 16 37  1  0  0  0
 17 18  1  0  0  0
 17 38  1  0  0  0
 18 23  1  0  0  0
 18 25  2  0  0  0
 19 26  2  0  0  0
 19 27  1  0  0  0
 20 22  1  0  0  0
 20 39  1  0  0  0
 20 40  1  0  0  0
 24 41  1  0  0  0
 24 42  1  0  0  0
M  CHG  1  27  -1
M  END
> <s_m_source_file>
../3u4o_ligand.sdf

> <i_m_source_file_index>
1

> <s_epik_input>
W2NIXTFjKFtOSDJdKW5bY0hdW2NIXWMxW0NIMl1uKGMoYzIzKVtjSF1bY0hdYyhDbClbY0hdMiljKEMoPU8pW09IXSljM1tDQEBIXTRbQ0hdPVtDSF1bQ0hdPU5DND1P

> <s_epik_cmdline>
J2VwaWtfYXBwJywgJy1pbWFlJywgJ2xpZ2FuZF9wcm8ubWFlJywgJy1vbWFlJywgJ2xpZ2FuZF9wcmVwLm1hZScsICctbXMnLCAnMScsICctcGgnLCAnNycsICctcGh0JywgJzAuNScsICctbnQn

> <r_lp_tautomer_probability>
2.3280714070882e-19

> <r_epik_Ionization_Penalty>
  0.3027

> <r_epik_Ionization_Penalty_Charging>
  0.0032

> <r_epik_Ionization_Penalty_Neutral>
  0.2995

> <r_epik_State_Penalty>
  0.2930

> <r_epik_Charging_Adjusted_Penalty>
0.296166362669566

> <i_epik_Tot_Q>
-1

> <i_epik_Tot_abs_Q>
1

> <s_epik_Chemistry_Notes>
This compound has an imine and may undergo hydrolysis.

$$$$
