3u4r_ligand
                    3D
 Schrodinger Suite 2020-3.
 64 68  0  0  1  0            999 V2000
   27.9230   43.8370   35.9090 S   0  0  0  0  0  0
   26.5620   43.3350   35.9570 O   0  0  0  0  0  0
   28.9390   43.0360   35.2470 O   0  0  0  0  0  0
   24.1930   44.8640   40.3680 S   0  0  0  0  0  0
   23.4540   46.1090   40.2580 O   0  0  0  0  0  0
   23.9360   43.7110   39.5540 O   0  0  0  0  0  0
   23.3250   46.0130   45.9830 C   0  0  0  0  0  0
   24.5360   43.7910   47.9060 C   0  0  0  0  0  0
   25.1610   42.7100   48.5310 C   0  0  0  0  0  0
   24.6520   43.9280   46.5030 C   0  0  0  0  0  0
   25.3890   42.9670   45.7640 C   0  0  0  0  0  0
   25.3520   43.3510   44.4480 N   0  0  0  0  0  0
   24.6330   44.5390   44.3180 C   0  0  0  0  0  0
   24.1640   44.8880   45.6030 C   0  0  0  0  0  0
   25.8830   41.7480   47.7870 C   0  0  0  0  0  0
   26.0060   41.8630   46.3900 C   0  0  0  0  0  0
   24.4630   45.2430   43.0570 C   0  0  0  0  0  0
   25.9820   42.6070   43.3340 C   0  0  0  0  0  0
   24.4890   46.4690   42.9470 O   0  5  0  0  0  0
   22.0170   46.2130   45.2140 C   0  0  0  0  0  0
   21.2140   47.3050   45.6130 N   0  0  0  0  0  0
   21.5480   48.1510   46.6390 C   0  0  0  0  0  0
   22.6830   47.9820   47.3330 C   0  0  0  0  0  0
   23.5890   46.8830   46.9880 C   0  0  0  0  0  0
   21.6970   45.4440   44.3050 O   0  0  0  0  0  0
   24.3090   44.3730   41.9660 N   0  0  0  0  0  0
   25.8330   45.3090   39.9070 C   0  0  0  0  0  0
   27.2870   43.1290   42.8320 C   0  0  0  0  0  0
   27.9080   42.5000   41.7500 C   0  0  0  0  0  0
   29.1130   43.0080   41.3030 C   0  0  0  0  0  0
   29.7460   44.0850   41.8650 N   0  0  0  0  0  0
   29.1460   44.7040   42.9220 C   0  0  0  0  0  0
   27.9140   44.2500   43.4270 C   0  0  0  0  0  0
   29.7840   45.8000   43.4990 N   0  0  0  0  0  0
   25.0240   42.5720   50.2460 Cl  0  0  0  0  0  0
   26.4440   46.4200   40.5050 C   0  0  0  0  0  0
   27.7390   46.7640   40.1160 C   0  0  0  0  0  0
   28.3940   46.0070   39.1320 C   0  0  0  0  0  0
   27.7790   44.8810   38.5310 C   0  0  0  0  0  0
   26.4900   44.5310   38.9140 C   0  0  0  0  0  0
   28.5270   44.1700   37.5160 N   0  0  0  0  0  0
   27.9880   45.3920   35.0250 C   0  0  0  0  0  0
   23.9687   44.5165   48.4890 H   0  0  0  0  0  0
   26.3495   40.9080   48.3016 H   0  0  0  0  0  0
   26.5594   41.1240   45.8107 H   0  0  0  0  0  0
   26.1761   41.5709   43.6485 H   0  0  0  0  0  0
   25.3069   42.6062   42.4655 H   0  0  0  0  0  0
   20.8806   48.9842   46.9042 H   0  0  0  0  0  0
   23.3068   48.8833   47.2407 H   0  0  0  0  0  0
   22.4427   47.8093   48.3925 H   0  0  0  0  0  0
   24.5112   46.7780   47.5783 H   0  0  0  0  0  0
   27.4544   41.6321   41.2714 H   0  0  0  0  0  0
   29.5888   42.5220   40.4512 H   0  0  0  0  0  0
   27.4457   44.7577   44.2702 H   0  0  0  0  0  0
   30.7472   46.1493   43.0986 H   0  0  0  0  0  0
   29.3245   46.3160   44.3549 H   0  0  0  0  0  0
   25.9173   47.0041   41.2597 H   0  0  0  0  0  0
   28.2399   47.6168   40.5742 H   0  0  0  0  0  0
   29.3996   46.2922   38.8229 H   0  0  0  0  0  0
   25.9907   43.6745   38.4610 H   0  0  0  0  0  0
   29.5329   43.8326   37.8063 H   0  0  0  0  0  0
   27.6178   45.2465   33.9994 H   0  0  0  0  0  0
   29.0269   45.7520   34.9922 H   0  0  0  0  0  0
   27.3592   46.1331   35.5401 H   0  0  0  0  0  0
  1  2  2  0  0  0
  1  3  2  0  0  0
  1 41  1  0  0  0
  1 42  1  0  0  0
  4  5  2  0  0  0
  4  6  2  0  0  0
  4 26  1  0  0  0
  4 27  1  0  0  0
  7 14  1  0  0  0
  7 20  1  0  0  0
  7 24  2  0  0  0
  8  9  1  0  0  0
  8 10  2  0  0  0
  8 43  1  0  0  0
  9 15  2  0  0  0
  9 35  1  0  0  0
 10 11  1  0  0  0
 10 14  1  0  0  0
 11 12  1  0  0  0
 11 16  2  0  0  0
 12 13  1  0  0  0
 12 18  1  0  0  0
 13 14  2  0  0  0
 13 17  1  0  0  0
 15 16  1  0  0  0
 15 44  1  0  0  0
 16 45  1  0  0  0
 17 19  1  0  0  0
 17 26  2  0  0  0
 18 28  1  0  0  0
 18 46  1  0  0  0
 18 47  1  0  0  0
 20 21  1  0  0  0
 20 25  2  0  0  0
 21 22  2  0  0  0
 22 23  1  0  0  0
 22 48  1  0  0  0
 23 24  1  0  0  0
 23 49  1  0  0  0
 23 50  1  0  0  0
 24 51  1  0  0  0
 27 36  2  0  0  0
 27 40  1  0  0  0
 28 29  2  0  0  0
 28 33  1  0  0  0
 29 30  1  0  0  0
 29 52  1  0  0  0
 30 31  2  0  0  0
 30 53  1  0  0  0
 31 32  1  0  0  0
 32 33  2  0  0  0
 32 34  1  0  0  0
 33 54  1  0  0  0
 34 55  1  0  0  0
 34 56  1  0  0  0
 36 37  1  0  0  0
 36 57  1  0  0  0
 37 38  2  0  0  0
 37 58  1  0  0  0
 38 39  1  0  0  0
 38 59  1  0  0  0
 39 40  2  0  0  0
 39 41  1  0  0  0
 40 60  1  0  0  0
 41 61  1  0  0  0
 42 62  1  0  0  0
 42 63  1  0  0  0
 42 64  1  0  0  0
M  CHG  1  19  -1
M  END
> <s_m_source_file>
../3u4r_ligand.sdf

> <i_m_source_file_index>
1

> <s_epik_input>
Tz1TKD1PKShbQ0gzXSlbTkhdYyhbY0hdMSlbY0hdW2NIXVtjSF1jMVMoPU8pKD1PKVtOSF1DKD1PKWMoYzJDMz1bQ0hdW0NIMl1bQ0hdPU5DMz1PKW4oYyhjMjQpW2NIXVtjSF1jKENsKVtjSF00KVtDSDJdYzVbY0hdW2NIXW5jKFtjSF01KVtOSDJd

> <s_epik_cmdline>
J2VwaWtfYXBwJywgJy1pbWFlJywgJ2xpZ2FuZF9wcm8ubWFlJywgJy1vbWFlJywgJ2xpZ2FuZF9wcmVwLm1hZScsICctbXMnLCAnMScsICctcGgnLCAnNycsICctcGh0JywgJzAuNScsICctbnQn

> <r_lp_tautomer_probability>
0.999999772200052

> <r_epik_Ionization_Penalty>
  0.3186

> <r_epik_Ionization_Penalty_Charging>
  0.0021

> <r_epik_Ionization_Penalty_Neutral>
  0.3164

> <r_epik_State_Penalty>
  0.2930

> <r_epik_Charging_Adjusted_Penalty>
0.295056580908704

> <i_epik_Tot_Q>
-1

> <i_epik_Tot_abs_Q>
1

> <s_epik_Chemistry_Notes>
This compound has an imine and may undergo hydrolysis.

$$$$
