3u4u_ligand
                    3D
 Schrodinger Suite 2020-3.
 53 57  0  0  1  0            999 V2000
   24.4270   27.2100    8.7880 C   0  0  0  0  0  0
   24.2900   26.5880   10.1560 C   0  0  0  0  0  0
   24.1080   25.3830   10.2330 O   0  0  0  0  0  0
   24.4130   27.4150   11.2770 N   0  0  0  0  0  0
   24.3410   28.8320   11.3030 C   0  0  0  0  0  0
   25.1970   29.5240   12.1540 C   0  0  0  0  0  0
   25.1920   30.9010   12.2550 C   0  0  0  0  0  0
   24.2710   31.5230   11.4240 C   0  0  0  0  0  0
   23.4030   30.8720   10.5590 C   0  0  0  0  0  0
   23.4330   29.4900   10.4960 C   0  0  0  0  0  0
   22.6180   31.8540    9.8790 C   0  0  0  0  0  0
   23.0170   33.0900   10.3310 C   0  0  0  0  0  0
   24.0110   32.8590   11.2510 N   0  0  0  0  0  0
   24.6960   33.9120   11.9990 C   0  0  0  0  0  0
   24.1660   33.7880   13.4260 C   0  0  0  0  0  0
   25.0390   34.6680   14.3140 C   0  0  0  0  0  0
   26.2520   34.8770   14.0050 O   0  5  0  0  0  0
   24.4150   35.0480   15.3460 O   0  0  0  0  0  0
   21.5680   31.6050    8.8670 C   0  0  0  0  0  0
   20.7250   32.6890    8.2800 C   0  0  0  0  0  0
   19.7940   32.4470    7.3510 C   0  0  0  0  0  0
   19.6210   31.1540    6.9200 N   0  0  0  0  0  0
   20.3580   30.1280    7.4220 C   0  0  0  0  0  0
   21.3280   30.2550    8.3920 N   0  0  0  0  0  0
   19.9730   28.9640    6.7960 C   0  0  0  0  0  0
   18.9510   29.3530    5.9090 C   0  0  0  0  0  0
   18.7580   30.6820    5.9920 N   0  0  0  0  0  0
   20.5280   27.6680    7.0230 C   0  0  0  0  0  0
   21.0470   26.6420    7.1670 N   0  0  0  0  0  0
   18.9840   33.3990    6.7670 N   0  0  0  0  0  0
   19.1790   34.8150    7.1370 C   0  0  0  0  0  0
   18.6430   35.8920    6.2280 C   0  0  0  0  0  0
   20.1210   35.6780    6.3340 C   0  0  0  0  0  0
   24.3058   26.4335    8.0184 H   0  0  0  0  0  0
   25.4219   27.6693    8.6920 H   0  0  0  0  0  0
   23.6531   27.9806    8.6564 H   0  0  0  0  0  0
   24.5848   26.9737   12.2698 H   0  0  0  0  0  0
   25.8992   28.9568   12.7650 H   0  0  0  0  0  0
   25.8519   31.4499   12.9268 H   0  0  0  0  0  0
   22.7643   28.9403    9.8335 H   0  0  0  0  0  0
   22.6237   34.0583   10.0216 H   0  0  0  0  0  0
   25.7826   33.7471   11.9527 H   0  0  0  0  0  0
   24.4546   34.8908   11.5589 H   0  0  0  0  0  0
   23.1194   34.1251   13.4590 H   0  0  0  0  0  0
   24.2233   32.7379   13.7485 H   0  0  0  0  0  0
   20.8738   33.7136    8.6208 H   0  0  0  0  0  0
   18.3993   28.6790    5.2537 H   0  0  0  0  0  0
   18.2061   33.1226    6.0401 H   0  0  0  0  0  0
   19.0714   34.5478    8.1986 H   0  0  0  0  0  0
   17.9916   35.4384    5.4665 H   0  0  0  0  0  0
   18.0652   36.6173    6.8197 H   0  0  0  0  0  0
   20.7912   36.2219    7.0159 H   0  0  0  0  0  0
   20.7176   35.0431    5.6625 H   0  0  0  0  0  0
  1  2  1  0  0  0
  1 34  1  0  0  0
  1 35  1  0  0  0
  1 36  1  0  0  0
  2  3  2  0  0  0
  2  4  1  0  0  0
  4  5  1  0  0  0
  4 37  1  0  0  0
  5  6  1  0  0  0
  5 10  2  0  0  0
  6  7  2  0  0  0
  6 38  1  0  0  0
  7  8  1  0  0  0
  7 39  1  0  0  0
  8  9  2  0  0  0
  8 13  1  0  0  0
  9 10  1  0  0  0
  9 11  1  0  0  0
 10 40  1  0  0  0
 11 12  2  0  0  0
 11 19  1  0  0  0
 12 13  1  0  0  0
 12 41  1  0  0  0
 13 14  1  0  0  0
 14 15  1  0  0  0
 14 42  1  0  0  0
 14 43  1  0  0  0
 15 16  1  0  0  0
 15 44  1  0  0  0
 15 45  1  0  0  0
 16 17  1  0  0  0
 16 18  2  0  0  0
 19 20  1  0  0  0
 19 24  2  0  0  0
 20 21  2  0  0  0
 20 46  1  0  0  0
 21 22  1  0  0  0
 21 30  1  0  0  0
 22 23  1  0  0  0
 22 27  1  0  0  0
 23 24  1  0  0  0
 23 25  2  0  0  0
 25 26  1  0  0  0
 25 28  1  0  0  0
 26 27  2  0  0  0
 26 47  1  0  0  0
 28 29  3  0  0  0
 30 31  1  0  0  0
 30 48  1  0  0  0
 31 32  1  0  0  0
 31 33  1  0  0  0
 31 49  1  0  0  0
 32 33  1  0  0  0
 32 50  1  0  0  0
 32 51  1  0  0  0
 33 52  1  0  0  0
 33 53  1  0  0  0
M  CHG  1  17  -1
M  END
> <s_m_source_file>
../3u4u_ligand.sdf

> <i_m_source_file_index>
1

> <s_epik_input>
W0NIM11DKD1PKVtOSF1jKFtjSF1bY0hdMSlbY0hdYyhjMTIpYyhbY0hdbjJbQ0gyXVtDSDJdQyg9TylbT0hdKS1jKG5jKG4zNCljKFtjSF1uNClDI04pW2NIXWMzW05IXVtDSF01W0NIMl1bQ0gyXTU=

> <s_epik_cmdline>
J2VwaWtfYXBwJywgJy1pbWFlJywgJ2xpZ2FuZF9wcm8ubWFlJywgJy1vbWFlJywgJ2xpZ2FuZF9wcmVwLm1hZScsICctbXMnLCAnMScsICctcGgnLCAnNycsICctcGh0JywgJzAuNScsICctbnQn

> <r_lp_tautomer_probability>
1

> <r_epik_Ionization_Penalty>
  0.0007

> <r_epik_Ionization_Penalty_Charging>
  0.0007

> <r_epik_Ionization_Penalty_Neutral>
  0.0000

> <r_epik_State_Penalty>
 -0.0000

> <r_epik_Charging_Adjusted_Penalty>
0.00074894237604304

> <i_epik_Tot_Q>
-1

> <i_epik_Tot_abs_Q>
1

$$$$
