3u4w_ligand
                    3D
 Schrodinger Suite 2020-3.
 99102  0  0  1  0            999 V2000
  -55.9520   44.5250    7.2040 C   0  0  0  0  0  0
  -56.2840   44.2840    6.0300 O   0  0  0  0  0  0
  -56.6100   45.8370    7.5070 C   0  0  0  0  0  0
  -57.4250   45.9140    8.6240 C   0  0  0  0  0  0
  -58.5920   44.9850    8.8470 C   0  0  0  0  0  0
  -58.5720   43.8530    8.3360 O   0  0  0  0  0  0
  -55.3860   43.4540    7.7390 N   0  0  0  0  0  0
  -54.7630   42.3580    7.0620 C   0  0  2  0  0  0
  -55.2070   41.1440    7.7990 C   0  0  0  0  0  0
  -56.0710   40.5840    7.1120 O   0  0  0  0  0  0
  -53.2250   42.3770    7.2060 C   0  0  0  0  0  0
  -52.5850   43.6760    6.6010 C   0  0  0  0  0  0
  -51.1310   43.7360    6.9830 C   0  0  0  0  0  0
  -50.3470   44.8150    6.1690 C   0  0  0  0  0  0
  -50.6140   44.8070    4.7080 C   0  0  0  0  0  0
  -52.0840   44.9470    4.4560 C   0  0  0  0  0  0
  -52.7850   43.7500    5.0700 C   0  0  0  0  0  0
  -55.1990   40.4690    8.9230 N   0  0  0  0  0  0
  -55.5180   39.2930    9.7600 C   0  0  2  0  0  0
  -56.2830   39.8960   10.8690 C   0  0  0  0  0  0
  -56.9890   38.9610   11.2940 O   0  0  0  0  0  0
  -54.2900   38.5530   10.2150 C   0  0  0  0  0  0
  -53.3650   38.4140    9.0180 C   0  0  0  0  0  0
  -52.2600   39.2670    8.8760 C   0  0  0  0  0  0
  -53.5790   37.4010    8.0440 C   0  0  0  0  0  0
  -51.2580   38.9870    7.9030 C   0  0  0  0  0  0
  -52.6280   37.1810    7.0580 C   0  0  0  0  0  0
  -51.5270   38.0080    6.9130 C   0  0  0  0  0  0
  -58.3660   42.6040   12.2330 C   0  0  0  0  0  0
  -57.5820   43.4510   11.7540 O   0  0  0  0  0  0
  -57.5360   41.3500   12.5040 C   0  0  1  0  0  0
  -56.7380   41.0740   11.2930 N   0  0  0  0  0  0
  -56.6340   41.5480   13.6730 C   0  0  0  0  0  0
  -55.8830   40.2590   14.0000 C   0  0  0  0  0  0
  -55.4280   40.3530   15.4310 C   0  0  0  0  0  0
  -54.1440   39.6880   15.5690 N   0  0  0  0  0  0
  -53.8390   38.8630   16.7370 C   0  0  0  0  0  0
  -54.5430   38.8890   17.7070 O   0  0  0  0  0  0
  -52.4420   38.2930   16.8290 C   0  0  0  0  0  0
  -51.6570   38.3590   15.7280 N   0  0  0  0  0  0
  -50.4870   37.7440   15.7910 C   0  0  0  0  0  0
  -49.9130   37.5000   17.0270 C   0  0  0  0  0  0
  -50.6820   37.4240   18.1040 N   0  0  0  0  0  0
  -51.9560   37.8970   18.0580 C   0  0  0  0  0  0
  -59.6300   45.0310    9.6650 N   0  0  0  0  0  0
  -60.5910   43.9660    9.8830 C   0  0  2  0  0  0
  -61.6290   43.9530    8.8120 C   0  0  0  0  0  0
  -62.4650   43.0190    8.8550 O   0  0  0  0  0  0
  -61.3280   44.1450   11.2180 C   0  0  0  0  0  0
  -60.4050   44.3860   12.3890 C   0  0  0  0  0  0
  -59.4720   43.2770   12.4550 N   0  0  0  0  0  0
  -61.9720   45.0580    8.3000 O   0  5  0  0  0  0
  -55.8394   46.6064    7.6625 H   0  0  0  0  0  0
  -57.2536   46.1279    6.6637 H   0  0  0  0  0  0
  -56.8208   45.7592    9.5301 H   0  0  0  0  0  0
  -57.8990   46.9058    8.6644 H   0  0  0  0  0  0
  -55.4324   43.4669    8.8379 H   0  0  0  0  0  0
  -55.0807   42.4248    6.0110 H   0  0  0  0  0  0
  -52.9559   42.3297    8.2715 H   0  0  0  0  0  0
  -52.7968   41.5105    6.6809 H   0  0  0  0  0  0
  -53.0590   44.5754    7.0210 H   0  0  0  0  0  0
  -51.0424   43.9846    8.0509 H   0  0  0  0  0  0
  -50.6615   42.7594    6.7937 H   0  0  0  0  0  0
  -50.6150   45.8170    6.5353 H   0  0  0  0  0  0
  -49.2659   44.6556    6.2951 H   0  0  0  0  0  0
  -50.0837   45.6460    4.2338 H   0  0  0  0  0  0
  -50.2611   43.8590    4.2759 H   0  0  0  0  0  0
  -52.4482   45.8767    4.9176 H   0  0  0  0  0  0
  -52.2688   44.9789    3.3721 H   0  0  0  0  0  0
  -52.3792   42.8406    4.6028 H   0  0  0  0  0  0
  -53.8585   43.8306    4.8439 H   0  0  0  0  0  0
  -54.6581   41.3227    9.3572 H   0  0  0  0  0  0
  -56.0954   38.5259    9.2232 H   0  0  0  0  0  0
  -53.7956   39.1211   11.0167 H   0  0  0  0  0  0
  -54.5786   37.5611   10.5928 H   0  0  0  0  0  0
  -52.1680   40.1471    9.5125 H   0  0  0  0  0  0
  -54.4873   36.7990    8.0717 H   0  0  0  0  0  0
  -50.3042   39.5144    7.9191 H   0  0  0  0  0  0
  -52.7507   36.3360    6.3805 H   0  0  0  0  0  0
  -50.8735   37.9075    6.0464 H   0  0  0  0  0  0
  -58.1757   40.4853   12.7342 H   0  0  0  0  0  0
  -56.4543   41.8979   10.6217 H   0  0  0  0  0  0
  -55.9027   42.3367   13.4424 H   0  0  0  0  0  0
  -57.2291   41.8447   14.5493 H   0  0  0  0  0  0
  -56.5553   39.3988   13.8656 H   0  0  0  0  0  0
  -55.0187   40.1574   13.3272 H   0  0  0  0  0  0
  -55.3281   41.4109   15.7152 H   0  0  0  0  0  0
  -56.1677   39.8663   16.0837 H   0  0  0  0  0  0
  -53.3795   39.8003   14.7861 H   0  0  0  0  0  0
  -49.9797   37.4323   14.8780 H   0  0  0  0  0  0
  -48.8342   37.3710   17.1141 H   0  0  0  0  0  0
  -52.5693   37.9608   18.9569 H   0  0  0  0  0  0
  -59.7318   45.9830   10.2066 H   0  0  0  0  0  0
  -59.9846   43.0489    9.8487 H   0  0  0  0  0  0
  -62.0054   45.0090   11.1499 H   0  0  0  0  0  0
  -61.9107   43.2387   11.4395 H   0  0  0  0  0  0
  -59.8633   45.3317   12.2403 H   0  0  0  0  0  0
  -60.9953   44.4434   13.3154 H   0  0  0  0  0  0
  -59.7389   42.3660   13.0108 H   0  0  0  0  0  0
  1  2  2  0  0  0
  1  3  1  0  0  0
  1  7  1  0  0  0
  3  4  1  0  0  0
  3 53  1  0  0  0
  3 54  1  0  0  0
  4  5  1  0  0  0
  4 55  1  0  0  0
  4 56  1  0  0  0
  5  6  2  0  0  0
  5 45  1  0  0  0
  7  8  1  0  0  0
  7 57  1  0  0  0
  8  9  1  0  0  0
  8 11  1  0  0  0
  8 58  1  0  0  0
  9 10  2  0  0  0
  9 18  1  0  0  0
 11 12  1  0  0  0
 11 59  1  0  0  0
 11 60  1  0  0  0
 12 13  1  0  0  0
 12 17  1  0  0  0
 12 61  1  0  0  0
 13 14  1  0  0  0
 13 62  1  0  0  0
 13 63  1  0  0  0
 14 15  1  0  0  0
 14 64  1  0  0  0
 14 65  1  0  0  0
 15 16  1  0  0  0
 15 66  1  0  0  0
 15 67  1  0  0  0
 16 17  1  0  0  0
 16 68  1  0  0  0
 16 69  1  0  0  0
 17 70  1  0  0  0
 17 71  1  0  0  0
 18 19  1  0  0  0
 18 72  1  0  0  0
 19 20  1  0  0  0
 19 22  1  0  0  0
 19 73  1  0  0  0
 20 21  2  0  0  0
 20 32  1  0  0  0
 22 23  1  0  0  0
 22 74  1  0  0  0
 22 75  1  0  0  0
 23 24  2  0  0  0
 23 25  1  0  0  0
 24 26  1  0  0  0
 24 76  1  0  0  0
 25 27  2  0  0  0
 25 77  1  0  0  0
 26 28  2  0  0  0
 26 78  1  0  0  0
 27 28  1  0  0  0
 27 79  1  0  0  0
 28 80  1  0  0  0
 29 30  2  0  0  0
 29 31  1  0  0  0
 29 51  1  0  0  0
 31 32  1  0  0  0
 31 33  1  0  0  0
 31 81  1  0  0  0
 32 82  1  0  0  0
 33 34  1  0  0  0
 33 83  1  0  0  0
 33 84  1  0  0  0
 34 35  1  0  0  0
 34 85  1  0  0  0
 34 86  1  0  0  0
 35 36  1  0  0  0
 35 87  1  0  0  0
 35 88  1  0  0  0
 36 37  1  0  0  0
 36 89  1  0  0  0
 37 38  2  0  0  0
 37 39  1  0  0  0
 39 40  2  0  0  0
 39 44  1  0  0  0
 40 41  1  0  0  0
 41 42  2  0  0  0
 41 90  1  0  0  0
 42 43  1  0  0  0
 42 91  1  0  0  0
 43 44  2  0  0  0
 44 92  1  0  0  0
 45 46  1  0  0  0
 45 93  1  0  0  0
 46 47  1  0  0  0
 46 49  1  0  0  0
 46 94  1  0  0  0
 47 48  2  0  0  0
 47 52  1  0  0  0
 49 50  1  0  0  0
 49 95  1  0  0  0
 49 96  1  0  0  0
 50 51  1  0  0  0
 50 97  1  0  0  0
 50 98  1  0  0  0
 51 99  1  0  0  0
M  CHG  1  52  -1
M  END
> <s_m_source_file>
../3u4w_ligand.sdf

> <i_m_source_file_index>
1

> <s_epik_input>
Tz1DMVtDSDJdW0NIMl1DKD1PKVtOSF1bQ0BIXShDKD1PKVtPSF0pW0NIMl1bQ0gyXVtOSF1DKD1PKVtDQEhdKFtDSDJdW0NIMl1bQ0gyXVtOSF1DKD1PKWMybltjSF1bY0hdbltjSF0yKVtOSF1DKD1PKVtDQEhdKFtDSDJdYzNbY0hdW2NIXVtjSF1bY0hdW2NIXTMpW05IXUMoPU8pW0NAQEhdKFtOSF0xKVtDSDJdW0NIXTRbQ0gyXVtDSDJdW0NIMl1bQ0gyXVtDSDJdNA==

> <s_epik_cmdline>
J2VwaWtfYXBwJywgJy1pbWFlJywgJ2xpZ2FuZF9wcm8ubWFlJywgJy1vbWFlJywgJ2xpZ2FuZF9wcmVwLm1hZScsICctbXMnLCAnMScsICctcGgnLCAnNycsICctcGh0JywgJzAuNScsICctbnQn

> <r_lp_tautomer_probability>
1

> <r_epik_Ionization_Penalty>
  0.0001

> <r_epik_Ionization_Penalty_Charging>
  0.0001

> <r_epik_Ionization_Penalty_Neutral>
  0.0000

> <r_epik_State_Penalty>
 -0.0000

> <r_epik_Charging_Adjusted_Penalty>
0.000131044974639778

> <i_epik_Tot_Q>
-1

> <i_epik_Tot_abs_Q>
1

$$$$
