3u51_ligand
                    3D
 Schrodinger Suite 2020-3.
105108  0  0  1  0            999 V2000
  -18.4240   24.1990    8.3250 C   0  0  0  0  0  0
  -17.8260   23.8490    7.3130 O   0  0  0  0  0  0
  -19.9670   24.1630    8.3600 C   0  0  0  0  0  0
  -20.7250   23.1370    7.7520 C   0  0  0  0  0  0
  -20.0770   21.9880    6.9930 C   0  0  0  0  0  0
  -19.1310   22.1950    6.2760 O   0  0  0  0  0  0
  -27.6790   24.2840    7.1870 C   0  0  0  0  0  0
  -26.7080   24.0740    6.1950 C   0  0  0  0  0  0
  -25.9710   22.8810    6.1780 C   0  0  0  0  0  0
  -26.2030   21.8990    7.1510 C   0  0  0  0  0  0
  -27.1710   22.1110    8.1390 C   0  0  0  0  0  0
  -27.9100   23.3080    8.1550 C   0  0  0  0  0  0
  -25.4080   20.6050    7.1360 C   0  0  0  0  0  0
  -24.1800   20.5260    7.7990 C   0  0  0  0  0  0
  -22.9440   20.1080    7.0070 C   0  0  0  0  0  0
  -21.7030   20.1970    7.8940 C   0  0  1  0  0  0
  -21.3110   18.8590    8.5370 C   0  0  0  0  0  0
  -21.8270   18.4720    9.5780 O   0  0  0  0  0  0
  -20.5670   20.6290    7.0780 N   0  0  0  0  0  0
  -20.2930   18.0660    7.8460 N   0  0  0  0  0  0
  -19.7890   16.7830    8.3360 C   0  0  2  0  0  0
  -18.4220   17.1210    8.9830 C   0  0  0  0  0  0
  -17.8000   16.2950    9.6250 O   0  0  0  0  0  0
  -19.6600   15.7070    7.2300 C   0  0  0  0  0  0
  -20.7500   14.6450    7.3810 C   0  0  0  0  0  0
  -22.1340   15.2120    7.6250 C   0  0  0  0  0  0
  -23.2370   14.1780    7.6420 C   0  0  0  0  0  0
  -23.2270   13.3290    6.4160 C   0  0  0  0  0  0
  -21.8780   12.7280    6.1630 C   0  0  0  0  0  0
  -20.7900   13.7720    6.1390 C   0  0  0  0  0  0
  -16.7150   20.3930    9.8250 C   0  0  0  0  0  0
  -17.8040   20.9420    9.9270 O   0  0  0  0  0  0
  -16.6240   18.9680    9.2920 C   0  0  1  0  0  0
  -17.9130   18.4740    8.7650 N   0  0  0  0  0  0
  -15.6000   18.8750    8.1500 C   0  0  0  0  0  0
  -16.1960   18.0420    6.9960 C   0  0  0  0  0  0
  -15.5750   18.4190    5.6660 C   0  0  0  0  0  0
  -14.1090   18.4260    5.7430 N   0  0  0  0  0  0
  -13.3240   17.7550    4.7210 C   0  0  0  0  0  0
  -13.8790   17.1730    3.7970 O   0  0  0  0  0  0
  -11.8040   17.7710    4.7770 C   0  0  0  0  0  0
  -11.1580   18.8400    5.2900 N   0  0  0  0  0  0
   -9.7990   18.8540    5.3290 C   0  0  0  0  0  0
   -9.0820   17.7730    4.8370 C   0  0  0  0  0  0
   -9.7320   16.6990    4.3150 N   0  0  0  0  0  0
  -11.0850   16.6880    4.2800 C   0  0  0  0  0  0
  -17.6990   24.6530    9.5070 N   0  0  0  0  0  0
  -16.2170   24.7260    9.6120 C   0  0  2  0  0  0
  -15.6130   25.7840    8.7050 C   0  0  0  0  0  0
  -14.9680   25.4650    7.7320 O   0  0  0  0  0  0
  -15.5660   23.3560    9.4390 C   0  0  0  0  0  0
  -15.6430   22.4790   10.6830 C   0  0  0  0  0  0
  -15.5190   21.1130   10.2030 N   0  0  0  0  0  0
  -15.8000   27.1800    9.0080 N   0  0  0  0  0  0
  -20.4754   24.9835    8.8876 H   0  0  0  0  0  0
  -21.8229   23.1513    7.8183 H   0  0  0  0  0  0
  -28.2526   25.2108    7.2002 H   0  0  0  0  0  0
  -26.5271   24.8377    5.4386 H   0  0  0  0  0  0
  -25.2173   22.7173    5.4077 H   0  0  0  0  0  0
  -27.3525   21.3485    8.8964 H   0  0  0  0  0  0
  -28.6638   23.4723    8.9250 H   0  0  0  0  0  0
  -26.0058   19.8021    7.5920 H   0  0  0  0  0  0
  -25.1646   20.3362    6.0975 H   0  0  0  0  0  0
  -23.9239   21.5115    8.2151 H   0  0  0  0  0  0
  -24.2501   19.7908    8.6142 H   0  0  0  0  0  0
  -23.0659   19.0724    6.6567 H   0  0  0  0  0  0
  -22.8199   20.7756    6.1416 H   0  0  0  0  0  0
  -21.9160   20.9356    8.6808 H   0  0  0  0  0  0
  -20.0173   19.8964    6.4688 H   0  0  0  0  0  0
  -19.9049   18.4869    6.9067 H   0  0  0  0  0  0
  -20.5278   16.3771    9.0427 H   0  0  0  0  0  0
  -19.7601   16.1820    6.2429 H   0  0  0  0  0  0
  -18.6763   15.2205    7.3047 H   0  0  0  0  0  0
  -20.4904   14.0575    8.2740 H   0  0  0  0  0  0
  -22.1552   15.7205    8.6002 H   0  0  0  0  0  0
  -22.3806   15.9319    6.8307 H   0  0  0  0  0  0
  -23.1104   13.5212    8.5152 H   0  0  0  0  0  0
  -24.2123   14.6832    7.7016 H   0  0  0  0  0  0
  -23.9525   12.5103    6.5311 H   0  0  0  0  0  0
  -23.5002   13.9411    5.5438 H   0  0  0  0  0  0
  -21.6434   12.0056    6.9587 H   0  0  0  0  0  0
  -21.8822   12.2138    5.1906 H   0  0  0  0  0  0
  -20.9616   14.4017    5.2536 H   0  0  0  0  0  0
  -19.8319   13.2423    6.0321 H   0  0  0  0  0  0
  -16.3550   18.3348   10.1503 H   0  0  0  0  0  0
  -18.5541   19.1390    8.1677 H   0  0  0  0  0  0
  -15.3610   19.8861    7.7886 H   0  0  0  0  0  0
  -14.6833   18.3909    8.5179 H   0  0  0  0  0  0
  -16.0077   16.9739    7.1795 H   0  0  0  0  0  0
  -17.2802   18.2186    6.9382 H   0  0  0  0  0  0
  -15.8811   17.6921    4.8993 H   0  0  0  0  0  0
  -15.9143   19.4240    5.3746 H   0  0  0  0  0  0
  -13.6044   18.9394    6.5747 H   0  0  0  0  0  0
   -9.2737   19.7131    5.7461 H   0  0  0  0  0  0
   -7.9925   17.7848    4.8691 H   0  0  0  0  0  0
  -11.6119   15.8302    3.8622 H   0  0  0  0  0  0
  -18.3262   24.9538   10.3591 H   0  0  0  0  0  0
  -16.0198   25.0604   10.6412 H   0  0  0  0  0  0
  -16.0665   22.8125    8.6240 H   0  0  0  0  0  0
  -14.5012   23.4842    9.1945 H   0  0  0  0  0  0
  -14.8224   22.7405   11.3673 H   0  0  0  0  0  0
  -16.6069   22.6418   11.1873 H   0  0  0  0  0  0
  -14.5270   20.6429   10.1319 H   0  0  0  0  0  0
  -16.3850   27.4777    9.8907 H   0  0  0  0  0  0
  -15.3577   27.9482    8.3567 H   0  0  0  0  0  0
  1  2  2  0  0  0
  1  3  1  0  0  0
  1 47  1  0  0  0
  3  4  2  0  0  0
  3 55  1  0  0  0
  4  5  1  0  0  0
  4 56  1  0  0  0
  5  6  2  0  0  0
  5 19  1  0  0  0
  7  8  2  0  0  0
  7 12  1  0  0  0
  7 57  1  0  0  0
  8  9  1  0  0  0
  8 58  1  0  0  0
  9 10  2  0  0  0
  9 59  1  0  0  0
 10 11  1  0  0  0
 10 13  1  0  0  0
 11 12  2  0  0  0
 11 60  1  0  0  0
 12 61  1  0  0  0
 13 14  1  0  0  0
 13 62  1  0  0  0
 13 63  1  0  0  0
 14 15  1  0  0  0
 14 64  1  0  0  0
 14 65  1  0  0  0
 15 16  1  0  0  0
 15 66  1  0  0  0
 15 67  1  0  0  0
 16 17  1  0  0  0
 16 19  1  0  0  0
 16 68  1  0  0  0
 17 18  2  0  0  0
 17 20  1  0  0  0
 19 69  1  0  0  0
 20 21  1  0  0  0
 20 70  1  0  0  0
 21 22  1  0  0  0
 21 24  1  0  0  0
 21 71  1  0  0  0
 22 23  2  0  0  0
 22 34  1  0  0  0
 24 25  1  0  0  0
 24 72  1  0  0  0
 24 73  1  0  0  0
 25 26  1  0  0  0
 25 30  1  0  0  0
 25 74  1  0  0  0
 26 27  1  0  0  0
 26 75  1  0  0  0
 26 76  1  0  0  0
 27 28  1  0  0  0
 27 77  1  0  0  0
 27 78  1  0  0  0
 28 29  1  0  0  0
 28 79  1  0  0  0
 28 80  1  0  0  0
 29 30  1  0  0  0
 29 81  1  0  0  0
 29 82  1  0  0  0
 30 83  1  0  0  0
 30 84  1  0  0  0
 31 32  2  0  0  0
 31 33  1  0  0  0
 31 53  1  0  0  0
 33 34  1  0  0  0
 33 35  1  0  0  0
 33 85  1  0  0  0
 34 86  1  0  0  0
 35 36  1  0  0  0
 35 87  1  0  0  0
 35 88  1  0  0  0
 36 37  1  0  0  0
 36 89  1  0  0  0
 36 90  1  0  0  0
 37 38  1  0  0  0
 37 91  1  0  0  0
 37 92  1  0  0  0
 38 39  1  0  0  0
 38 93  1  0  0  0
 39 40  2  0  0  0
 39 41  1  0  0  0
 41 42  2  0  0  0
 41 46  1  0  0  0
 42 43  1  0  0  0
 43 44  2  0  0  0
 43 94  1  0  0  0
 44 45  1  0  0  0
 44 95  1  0  0  0
 45 46  2  0  0  0
 46 96  1  0  0  0
 47 48  1  0  0  0
 47 97  1  0  0  0
 48 49  1  0  0  0
 48 51  1  0  0  0
 48 98  1  0  0  0
 49 50  2  0  0  0
 49 54  1  0  0  0
 51 52  1  0  0  0
 51 99  1  0  0  0
 51100  1  0  0  0
 52 53  1  0  0  0
 52101  1  0  0  0
 52102  1  0  0  0
 53103  1  0  0  0
 54104  1  0  0  0
 54105  1  0  0  0
M  END
> <s_m_source_file>
../3u51_ligand.sdf

> <i_m_source_file_index>
1

> <s_epik_input>
W2NIXTFbY0hdW2NIXVtjSF1bY0hdYzFbQ0gyXVtDSDJdW0NIMl1bQ0BIXShbTkhdQyg9TykvW0NIXT1bQ0hdXEMyPU8pQyg9TylbTkhdW0NAQEhdKFtDSDJdW0NIXTNbQ0gyXVtDSDJdW0NIMl1bQ0gyXVtDSDJdMylDKD1PKVtOSF1bQ0BIXShDKD1PKVtOSF1bQ0gyXVtDSDJdW0NASF0oW05IXTIpQyg9TylbTkgyXSlbQ0gyXVtDSDJdW0NIMl1bTkhdQyg9TyljNG5bY0hdW2NIXW5bY0hdNA==

> <s_epik_cmdline>
J2VwaWtfYXBwJywgJy1pbWFlJywgJ2xpZ2FuZF9wcm8ubWFlJywgJy1vbWFlJywgJ2xpZ2FuZF9wcmVwLm1hZScsICctbXMnLCAnMScsICctcGgnLCAnNycsICctcGh0JywgJzAuNScsICctbnQn

> <r_lp_tautomer_probability>
1

> <r_epik_Ionization_Penalty>
  0.0000

> <r_epik_Ionization_Penalty_Charging>
  0.0000

> <r_epik_Ionization_Penalty_Neutral>
  0.0000

> <r_epik_State_Penalty>
 -0.0000

> <r_epik_Charging_Adjusted_Penalty>
0

> <i_epik_Tot_Q>
0

> <i_epik_Tot_abs_Q>
0

$$$$
