3u6a_ligand
                    3D
 Schrodinger Suite 2020-3.
 45 47  0  0  1  0            999 V2000
    4.3730  -44.6220   29.3360 C   0  0  0  0  0  0
    3.8340  -44.0510   28.2360 N   0  0  0  0  0  0
    2.8460  -42.6060   26.0700 O   0  0  0  0  0  0
    6.3980  -45.2620   31.0640 Cl  0  0  0  0  0  0
    6.9180  -45.1250   19.5480 C   0  0  0  0  0  0
    7.2500  -43.9240   20.3210 N   0  0  0  0  0  0
    6.0390  -42.5680   18.9560 O   0  0  0  0  0  0
    8.1400  -44.1400   21.4760 C   0  0  0  0  0  0
    9.8880  -42.9140   22.6990 N   0  0  0  0  0  0
    8.7730  -42.8760   21.9660 C   0  0  0  0  0  0
    8.3130  -41.6780   21.5910 N   0  3  0  0  0  0
    7.0530  -41.4850   20.8710 C   0  0  1  0  0  0
    4.9930  -42.3360   25.2960 N   0  0  0  0  0  0
    7.1990  -40.1710   20.0580 C   0  0  0  0  0  0
    6.7480  -42.7130   19.9710 C   0  0  0  0  0  0
    5.8620  -41.3510   21.8350 C   0  0  0  0  0  0
    4.6880  -40.6780   21.4230 C   0  0  0  0  0  0
    3.5980  -40.5480   22.2940 C   0  0  0  0  0  0
    3.6610  -41.0790   23.5910 C   0  0  0  0  0  0
    4.8280  -41.7500   24.0210 C   0  0  0  0  0  0
    5.9160  -41.8770   23.1450 C   0  0  0  0  0  0
    4.0700  -42.7120   26.1910 C   0  0  0  0  0  0
    4.6580  -43.3350   27.4210 C   0  0  0  0  0  0
    6.0300  -43.1950   27.6630 C   0  0  0  0  0  0
    6.5760  -43.7830   28.8030 C   0  0  0  0  0  0
    5.7360  -44.5110   29.6580 C   0  0  0  0  0  0
    3.7237  -45.1920   30.0005 H   0  0  0  0  0  0
    7.4211  -45.9970   19.9912 H   0  0  0  0  0  0
    7.2544  -44.9967   18.5086 H   0  0  0  0  0  0
    5.8294  -45.2822   19.5643 H   0  0  0  0  0  0
    7.5633  -44.5708   22.3078 H   0  0  0  0  0  0
    8.9472  -44.8315   21.1927 H   0  0  0  0  0  0
   10.2979  -43.8806   23.0270 H   0  0  0  0  0  0
    8.8901  -40.7704   21.8217 H   0  0  0  0  0  0
    6.0029  -42.5447   25.6789 H   0  0  0  0  0  0
    8.0496  -40.2604   19.3663 H   0  0  0  0  0  0
    7.3732  -39.3312   20.7467 H   0  0  0  0  0  0
    6.2777  -39.9902   19.4849 H   0  0  0  0  0  0
    4.6307  -40.2569   20.4193 H   0  0  0  0  0  0
    2.6970  -40.0319   21.9623 H   0  0  0  0  0  0
    2.8114  -40.9742   24.2658 H   0  0  0  0  0  0
    6.8175  -42.3897   23.4803 H   0  0  0  0  0  0
    6.6605  -42.6357   26.9717 H   0  0  0  0  0  0
    7.6378  -43.6787   29.0260 H   0  0  0  0  0  0
   10.3969  -41.9787   22.9750 H   0  0  0  0  0  0
  1  2  2  0  0  0
  1 26  1  0  0  0
  1 27  1  0  0  0
  2 23  1  0  0  0
  3 22  2  0  0  0
  4 26  1  0  0  0
  5  6  1  0  0  0
  5 28  1  0  0  0
  5 29  1  0  0  0
  5 30  1  0  0  0
  6  8  1  0  0  0
  6 15  1  0  0  0
  7 15  2  0  0  0
  8 10  1  0  0  0
  8 31  1  0  0  0
  8 32  1  0  0  0
  9 10  1  0  0  0
  9 33  1  0  0  0
  9 45  1  0  0  0
 10 11  2  0  0  0
 11 12  1  0  0  0
 11 34  1  0  0  0
 12 14  1  0  0  0
 12 15  1  0  0  0
 12 16  1  0  0  0
 13 20  1  0  0  0
 13 22  1  0  0  0
 13 35  1  0  0  0
 14 36  1  0  0  0
 14 37  1  0  0  0
 14 38  1  0  0  0
 16 17  2  0  0  0
 16 21  1  0  0  0
 17 18  1  0  0  0
 17 39  1  0  0  0
 18 19  2  0  0  0
 18 40  1  0  0  0
 19 20  1  0  0  0
 19 41  1  0  0  0
 20 21  2  0  0  0
 21 42  1  0  0  0
 22 23  1  0  0  0
 23 24  2  0  0  0
 24 25  1  0  0  0
 24 43  1  0  0  0
 25 26  2  0  0  0
 25 44  1  0  0  0
M  CHG  1  11   1
M  END
> <s_m_source_file>
../3u6a_ligand.sdf

> <i_m_source_file_index>
1

> <s_epik_input>
W2NIXTFbY0hdYyhDbClbY0hdbmMxQyg9TylbTkhdYyhbY0hdMilbY0hdW2NIXVtjSF1jMltDQEBdMyhbQ0gzXSlbTkhdQyg9TlxbSF0pXFtDSDJdTihbQ0gzXSlDMz1P

> <s_epik_cmdline>
J2VwaWtfYXBwJywgJy1pbWFlJywgJ2xpZ2FuZF9wcm8ubWFlJywgJy1vbWFlJywgJ2xpZ2FuZF9wcmVwLm1hZScsICctbXMnLCAnMScsICctcGgnLCAnNycsICctcGh0JywgJzAuNScsICctbnQn

> <r_lp_tautomer_probability>
1

> <r_epik_Ionization_Penalty>
  0.0021

> <r_epik_Ionization_Penalty_Charging>
  0.0020

> <r_epik_Ionization_Penalty_Neutral>
  0.0000

> <r_epik_State_Penalty>
 -0.0000

> <r_epik_Charging_Adjusted_Penalty>
0.00204145353386562

> <i_epik_Tot_Q>
1

> <i_epik_Tot_abs_Q>
1

> <s_epik_Chemistry_Notes>
This compound has an imine and may undergo hydrolysis.

$$$$
