3u6h_ligand
                    3D
 Schrodinger Suite 2020-3.
 64 68  0  0  1  0            999 V2000
   23.4690    5.3680  -23.8500 N   0  0  0  0  0  0
   24.8570    0.7100  -12.1500 N   0  0  0  0  0  0
   20.0570    6.0750  -22.7430 C   0  0  0  0  0  0
   21.4070    5.7030  -22.7050 C   0  0  0  0  0  0
   22.1700    5.7340  -23.8730 C   0  0  0  0  0  0
   24.0650    4.9630  -22.7220 C   0  0  0  0  0  0
   23.3510    4.9180  -21.5210 C   0  0  0  0  0  0
   21.6760    4.6320  -19.2390 C   0  0  0  0  0  0
   22.0870    5.4280  -18.1770 C   0  0  0  0  0  0
   22.5960    3.4850  -16.8400 C   0  0  0  0  0  0
   21.7170    3.2360  -19.1050 C   0  0  0  0  0  0
   24.2570    0.3960  -13.3030 C   0  0  0  0  0  0
   24.3470    2.5760  -13.0460 C   0  0  0  0  0  0
   24.0060   -1.0200  -13.8340 C   0  0  0  0  0  0
   25.5010    2.5350  -10.9570 C   0  0  0  0  0  0
   27.6730    3.2190  -10.0790 C   0  0  0  0  0  0
   25.6540    3.5870   -8.8040 C   0  0  0  0  0  0
   20.4320    7.0050  -27.4480 C   0  0  0  0  0  0
   19.6150    6.9250  -26.2600 O   0  0  0  0  0  0
   20.2370    6.5170  -25.1090 C   0  0  0  0  0  0
   21.5820    6.1400  -25.0740 C   0  0  0  0  0  0
   19.4730    6.4810  -23.9470 C   0  0  0  0  0  0
   18.1610    6.8700  -24.0390 O   0  0  0  0  0  0
   17.3670    6.8220  -22.8260 C   0  0  0  0  0  0
   21.9960    5.2830  -21.5050 C   0  0  0  0  0  0
   21.2250    5.2650  -20.3720 O   0  0  0  0  0  0
   22.5560    4.8690  -16.9910 C   0  0  0  0  0  0
   22.0400    6.7580  -18.3060 F   0  0  0  0  0  0
   22.1870    2.6710  -17.9060 C   0  0  0  0  0  0
   23.0950    3.0270  -15.6790 N   0  0  0  0  0  0
   23.2090    1.7580  -15.2730 C   0  0  0  0  0  0
   22.8570    0.7750  -15.9190 O   0  0  0  0  0  0
   23.8940    1.5860  -13.9110 C   0  0  0  0  0  0
   24.2280    3.7940  -13.2070 O   0  0  0  0  0  0
   25.3870   -0.3120  -11.1710 C   0  0  0  0  0  0
   24.8900    1.9470  -11.9880 N   0  0  0  0  0  0
   26.8930    2.6440  -11.0770 C   0  0  0  0  0  0
   27.0410    3.6950   -8.9360 C   0  0  0  0  0  0
   24.8710    3.0090   -9.8080 C   0  0  0  0  0  0
   19.4600    6.0479  -21.8314 H   0  0  0  0  0  0
   25.1137    4.6664  -22.7400 H   0  0  0  0  0  0
   23.8440    4.6011  -20.6020 H   0  0  0  0  0  0
   21.3875    2.5951  -19.9228 H   0  0  0  0  0  0
   24.4124   -1.7553  -13.1239 H   0  0  0  0  0  0
   24.5014   -1.1392  -14.8089 H   0  0  0  0  0  0
   22.9242   -1.1816  -13.9502 H   0  0  0  0  0  0
   28.7546    3.2946  -10.1906 H   0  0  0  0  0  0
   25.1728    3.9608   -7.9002 H   0  0  0  0  0  0
   19.8159    7.3422  -28.2946 H   0  0  0  0  0  0
   20.8516    6.0131  -27.6719 H   0  0  0  0  0  0
   21.2508    7.7206  -27.2824 H   0  0  0  0  0  0
   22.1755    6.1627  -25.9880 H   0  0  0  0  0  0
   16.3428    7.1585  -23.0447 H   0  0  0  0  0  0
   17.8155    7.4809  -22.0679 H   0  0  0  0  0  0
   17.3407    5.7902  -22.4456 H   0  0  0  0  0  0
   22.8921    5.5151  -16.1801 H   0  0  0  0  0  0
   22.2339    1.5868  -17.8041 H   0  0  0  0  0  0
   23.4734    3.7340  -14.9260 H   0  0  0  0  0  0
   25.2251   -1.3231  -11.5729 H   0  0  0  0  0  0
   24.8582   -0.2096  -10.2119 H   0  0  0  0  0  0
   26.4634   -0.1472  -11.0157 H   0  0  0  0  0  0
   27.3781    2.2677  -11.9776 H   0  0  0  0  0  0
   27.6287    4.1536   -8.1408 H   0  0  0  0  0  0
   23.7898    2.9308   -9.6942 H   0  0  0  0  0  0
  1  5  2  0  0  0
  1  6  1  0  0  0
  2 12  1  0  0  0
  2 35  1  0  0  0
  2 36  1  0  0  0
  3  4  1  0  0  0
  3 22  2  0  0  0
  3 40  1  0  0  0
  4  5  1  0  0  0
  4 25  2  0  0  0
  5 21  1  0  0  0
  6  7  2  0  0  0
  6 41  1  0  0  0
  7 25  1  0  0  0
  7 42  1  0  0  0
  8  9  2  0  0  0
  8 11  1  0  0  0
  8 26  1  0  0  0
  9 27  1  0  0  0
  9 28  1  0  0  0
 10 27  2  0  0  0
 10 29  1  0  0  0
 10 30  1  0  0  0
 11 29  2  0  0  0
 11 43  1  0  0  0
 12 14  1  0  0  0
 12 33  2  0  0  0
 13 33  1  0  0  0
 13 34  2  0  0  0
 13 36  1  0  0  0
 14 44  1  0  0  0
 14 45  1  0  0  0
 14 46  1  0  0  0
 15 36  1  0  0  0
 15 37  2  0  0  0
 15 39  1  0  0  0
 16 37  1  0  0  0
 16 38  2  0  0  0
 16 47  1  0  0  0
 17 38  1  0  0  0
 17 39  2  0  0  0
 17 48  1  0  0  0
 18 19  1  0  0  0
 18 49  1  0  0  0
 18 50  1  0  0  0
 18 51  1  0  0  0
 19 20  1  0  0  0
 20 21  2  0  0  0
 20 22  1  0  0  0
 21 52  1  0  0  0
 22 23  1  0  0  0
 23 24  1  0  0  0
 24 53  1  0  0  0
 24 54  1  0  0  0
 24 55  1  0  0  0
 25 26  1  0  0  0
 27 56  1  0  0  0
 29 57  1  0  0  0
 30 31  1  0  0  0
 30 58  1  0  0  0
 31 32  2  0  0  0
 31 33  1  0  0  0
 35 59  1  0  0  0
 35 60  1  0  0  0
 35 61  1  0  0  0
 37 62  1  0  0  0
 38 63  1  0  0  0
 39 64  1  0  0  0
M  END
> <s_m_source_file>
../3u6h_ligand.sdf

> <i_m_source_file_index>
1

> <s_epik_input>
W0NIM11PYyhbY0hdMSljKE9bQ0gzXSlbY0hdYyhjMTIpbltjSF1bY0hdYzJPYzNjKEYpW2NIXWMoW2NIXVtjSF0zKVtOSF1DKD1PKVtDSF0oQyhbQ0gzXSk9W04rXTRbQ0gzXSlDKD1PKU40YzVbY0hdW2NIXVtjSF1bY0hdW2NIXTU=

> <s_epik_cmdline>
J2VwaWtfYXBwJywgJy1pbWFlJywgJ2xpZ2FuZF9wcm8ubWFlJywgJy1vbWFlJywgJ2xpZ2FuZF9wcmVwLm1hZScsICctbXMnLCAnMScsICctcGgnLCAnNycsICctcGh0JywgJzAuNScsICctbnQn

> <r_lp_tautomer_probability>
1

> <r_epik_Ionization_Penalty>
  0.1522

> <r_epik_Ionization_Penalty_Charging>
  0.0000

> <r_epik_Ionization_Penalty_Neutral>
  0.1522

> <r_epik_State_Penalty>
  0.1415

> <r_epik_Charging_Adjusted_Penalty>
0.141471535395727

> <i_epik_Tot_Q>
0

> <i_epik_Tot_abs_Q>
0

$$$$
