3u6j_ligand
                    3D
 Schrodinger Suite 2020-3.
 64 68  0  0  1  0            999 V2000
    8.7040   -5.3390   21.7270 N   0  0  0  0  0  0
    4.7040   -0.1390   11.1590 N   0  0  0  0  0  0
    7.9670   -8.4990   20.0460 C   0  0  0  0  0  0
    8.2380   -7.1400   20.2290 C   0  0  0  0  0  0
    8.4370   -6.6410   21.5230 C   0  0  0  0  0  0
    8.7830   -4.4850   20.7170 C   0  0  0  0  0  0
    8.5960   -4.9180   19.4070 C   0  0  0  0  0  0
    7.7050   -5.7920   16.9630 C   0  0  0  0  0  0
    8.6170   -5.1250   16.1360 C   0  0  0  0  0  0
    6.7990   -3.8860   15.1380 C   0  0  0  0  0  0
    6.3430   -5.5110   16.8720 C   0  0  0  0  0  0
    5.7480   -0.9840   11.2170 C   0  0  0  0  0  0
    4.6560   -0.9750   13.1010 C   0  0  0  0  0  0
    6.7600   -1.2750   10.1050 C   0  0  0  0  0  0
    2.9630    0.5680   12.5450 C   0  0  0  0  0  0
    1.7710    2.2650   13.7950 C   0  0  0  0  0  0
    0.5730    0.9050   12.2130 C   0  0  0  0  0  0
    8.6620   -9.3220   24.7240 C   0  0  0  0  0  0
    7.9970   -9.7220   23.5030 O   0  0  0  0  0  0
    8.0880   -8.8570   22.4410 C   0  0  0  0  0  0
    8.3570   -7.4960   22.6170 C   0  0  0  0  0  0
    7.8850   -9.3560   21.1530 C   0  0  0  0  0  0
    7.6210  -10.6950   21.0240 O   0  0  0  0  0  0
    7.1340  -11.1160   19.7370 C   0  0  0  0  0  0
    8.3200   -6.2640   19.1450 C   0  0  0  0  0  0
    8.1400   -6.7250   17.8600 O   0  0  0  0  0  0
    8.1670   -4.1640   15.2240 C   0  0  0  0  0  0
    9.9350   -5.4020   16.2350 F   0  0  0  0  0  0
    5.8980   -4.5610   15.9610 C   0  0  0  0  0  0
    6.2690   -2.9880   14.3090 N   0  0  0  0  0  0
    6.7000   -2.5790   13.1130 C   0  0  0  0  0  0
    7.7170   -2.9820   12.5480 O   0  0  0  0  0  0
    5.7570   -1.5400   12.4820 C   0  0  0  0  0  0
    4.3030   -1.2040   14.2560 O   0  0  0  0  0  0
    4.3580    0.6650    9.9540 C   0  0  0  0  0  0
    4.0800   -0.1270   12.2420 N   0  0  0  0  0  0
    2.9570    1.5890   13.4950 C   0  0  0  0  0  0
    0.5780    1.9290   13.1570 C   0  0  0  0  0  0
    1.7590    0.2280   11.9190 C   0  0  0  0  0  0
    7.8191   -8.8935   19.0407 H   0  0  0  0  0  0
    8.9963   -3.4343   20.9134 H   0  0  0  0  0  0
    8.6648   -4.2067   18.5840 H   0  0  0  0  0  0
    5.6314   -6.0332   17.5115 H   0  0  0  0  0  0
    6.5010   -0.6889    9.2109 H   0  0  0  0  0  0
    6.7372   -2.3471    9.8599 H   0  0  0  0  0  0
    7.7686   -0.9980   10.4455 H   0  0  0  0  0  0
    1.7790    3.0641   14.5363 H   0  0  0  0  0  0
   -0.3526    0.6330   11.7057 H   0  0  0  0  0  0
    8.5146  -10.0955   25.4921 H   0  0  0  0  0  0
    8.2393   -8.3697   25.0767 H   0  0  0  0  0  0
    9.7378   -9.1967   24.5315 H   0  0  0  0  0  0
    8.5055   -7.1012   23.6221 H   0  0  0  0  0  0
    6.9577  -12.2017   19.7489 H   0  0  0  0  0  0
    7.8800  -10.8741   18.9656 H   0  0  0  0  0  0
    6.1921  -10.5940   19.5127 H   0  0  0  0  0  0
    8.8764   -3.6367   14.5862 H   0  0  0  0  0  0
    4.8329   -4.3409   15.8888 H   0  0  0  0  0  0
    5.3402   -2.4667   14.5838 H   0  0  0  0  0  0
    5.0798    0.4522    9.1516 H   0  0  0  0  0  0
    4.3935    1.7354   10.2048 H   0  0  0  0  0  0
    3.3452    0.4011    9.6156 H   0  0  0  0  0  0
    3.8809    1.8609   14.0056 H   0  0  0  0  0  0
   -0.3422    2.4626   13.3947 H   0  0  0  0  0  0
    1.7461   -0.5805   11.1880 H   0  0  0  0  0  0
  1  5  2  0  0  0
  1  6  1  0  0  0
  2 12  1  0  0  0
  2 35  1  0  0  0
  2 36  1  0  0  0
  3  4  1  0  0  0
  3 22  2  0  0  0
  3 40  1  0  0  0
  4  5  1  0  0  0
  4 25  2  0  0  0
  5 21  1  0  0  0
  6  7  2  0  0  0
  6 41  1  0  0  0
  7 25  1  0  0  0
  7 42  1  0  0  0
  8  9  2  0  0  0
  8 11  1  0  0  0
  8 26  1  0  0  0
  9 27  1  0  0  0
  9 28  1  0  0  0
 10 27  2  0  0  0
 10 29  1  0  0  0
 10 30  1  0  0  0
 11 29  2  0  0  0
 11 43  1  0  0  0
 12 14  1  0  0  0
 12 33  2  0  0  0
 13 33  1  0  0  0
 13 34  2  0  0  0
 13 36  1  0  0  0
 14 44  1  0  0  0
 14 45  1  0  0  0
 14 46  1  0  0  0
 15 36  1  0  0  0
 15 37  2  0  0  0
 15 39  1  0  0  0
 16 37  1  0  0  0
 16 38  2  0  0  0
 16 47  1  0  0  0
 17 38  1  0  0  0
 17 39  2  0  0  0
 17 48  1  0  0  0
 18 19  1  0  0  0
 18 49  1  0  0  0
 18 50  1  0  0  0
 18 51  1  0  0  0
 19 20  1  0  0  0
 20 21  2  0  0  0
 20 22  1  0  0  0
 21 52  1  0  0  0
 22 23  1  0  0  0
 23 24  1  0  0  0
 24 53  1  0  0  0
 24 54  1  0  0  0
 24 55  1  0  0  0
 25 26  1  0  0  0
 27 56  1  0  0  0
 29 57  1  0  0  0
 30 31  1  0  0  0
 30 58  1  0  0  0
 31 32  2  0  0  0
 31 33  1  0  0  0
 35 59  1  0  0  0
 35 60  1  0  0  0
 35 61  1  0  0  0
 37 62  1  0  0  0
 38 63  1  0  0  0
 39 64  1  0  0  0
M  END
> <s_m_source_file>
../3u6j_ligand.sdf

> <i_m_source_file_index>
1

> <s_epik_input>
W0NIM11PYyhbY0hdMSljKE9bQ0gzXSlbY0hdYyhjMTIpbltjSF1bY0hdYzJPYzNjKEYpW2NIXWMoW2NIXVtjSF0zKVtOSF1DKD1PKVtDSF0oQyhbQ0gzXSk9W04rXTRbQ0gzXSlDKD1PKU40YzVbY0hdW2NIXVtjSF1bY0hdW2NIXTU=

> <s_epik_cmdline>
J2VwaWtfYXBwJywgJy1pbWFlJywgJ2xpZ2FuZF9wcm8ubWFlJywgJy1vbWFlJywgJ2xpZ2FuZF9wcmVwLm1hZScsICctbXMnLCAnMScsICctcGgnLCAnNycsICctcGh0JywgJzAuNScsICctbnQn

> <r_lp_tautomer_probability>
1

> <r_epik_Ionization_Penalty>
  0.1522

> <r_epik_Ionization_Penalty_Charging>
  0.0000

> <r_epik_Ionization_Penalty_Neutral>
  0.1522

> <r_epik_State_Penalty>
  0.1415

> <r_epik_Charging_Adjusted_Penalty>
0.141471535395727

> <i_epik_Tot_Q>
0

> <i_epik_Tot_abs_Q>
0

$$$$
