3u78_ligand
                    3D
 Schrodinger Suite 2020-3.
 62 63  0  0  1  0            999 V2000
  -45.8050   23.9650   21.4060 N   0  0  0  0  0  0
  -44.7900   24.7990   21.0350 C   0  0  0  0  0  0
  -44.1420   24.6130   19.8990 N   0  3  0  0  0  0
  -44.4890   23.6080   19.0760 C   0  0  0  0  0  0
  -45.5400   22.7400   19.4190 C   0  0  0  0  0  0
  -46.2090   22.9500   20.6390 C   0  0  0  0  0  0
  -44.1730   22.3900   17.0380 C   0  0  0  0  0  0
  -45.2200   21.5150   17.3510 C   0  0  0  0  0  0
  -45.9070   21.6790   18.5470 C   0  0  0  0  0  0
  -43.8110   23.4420   17.9060 C   0  0  0  0  0  0
  -43.4670   22.3160   15.8520 O   0  0  0  0  0  0
  -45.5730   20.4920   16.4670 O   0  0  0  0  0  0
  -46.8410   20.4610   15.9320 C   0  0  0  0  0  0
  -47.2920   22.0990   21.0800 N   0  0  0  0  0  0
  -44.3440   25.8400   21.9640 N   0  0  0  0  0  0
  -43.8420   26.3210   23.2600 C   0  0  0  0  0  0
  -43.6070   25.2150   24.3050 C   0  0  0  0  0  0
  -42.8620   23.9780   23.9210 C   0  0  0  0  0  0
  -43.4440   23.0170   22.9990 N   0  3  0  0  0  0
  -43.7940   21.7690   23.7120 C   0  0  0  0  0  0
  -42.5320   22.6980   21.9490 C   0  0  0  0  0  0
  -43.4290   23.4970   15.0880 C   0  0  0  0  0  0
  -42.0560   24.1540   14.7460 C   0  0  0  0  0  0
  -41.0550   23.3850   13.8860 C   0  0  0  0  0  0
  -39.8970   24.2270   13.3660 C   0  0  0  0  0  0
  -40.0880   25.7410   13.4530 C   0  0  0  0  0  0
  -38.9990   26.6230   13.0240 N   0  3  0  0  0  0
  -46.7183   21.0018   18.8139 H   0  0  0  0  0  0
  -42.9959   24.1161   17.6427 H   0  0  0  0  0  0
  -46.9360   19.5922   15.2640 H   0  0  0  0  0  0
  -47.0207   21.3839   15.3610 H   0  0  0  0  0  0
  -47.5795   20.3821   16.7434 H   0  0  0  0  0  0
  -47.7901   22.2961   22.0408 H   0  0  0  0  0  0
  -47.6176   21.2547   20.4547 H   0  0  0  0  0  0
  -44.5341   26.5535   21.1487 H   0  0  0  0  0  0
  -42.8789   26.8319   23.1134 H   0  0  0  0  0  0
  -44.5672   27.0238   23.6962 H   0  0  0  0  0  0
  -43.0313   25.6238   25.1484 H   0  0  0  0  0  0
  -44.5759   24.8424   24.6688 H   0  0  0  0  0  0
  -41.9129   24.2562   23.4395 H   0  0  0  0  0  0
  -42.6551   23.3803   24.8210 H   0  0  0  0  0  0
  -44.3298   23.4862   22.5460 H   0  0  0  0  0  0
  -44.4976   21.9969   24.5262 H   0  0  0  0  0  0
  -42.8823   21.3179   24.1307 H   0  0  0  0  0  0
  -44.2623   21.0642   23.0092 H   0  0  0  0  0  0
  -42.2607   23.6162   21.4074 H   0  0  0  0  0  0
  -43.0061   21.9891   21.2543 H   0  0  0  0  0  0
  -41.6261   22.2428   22.3759 H   0  0  0  0  0  0
  -43.8906   23.3137   14.1065 H   0  0  0  0  0  0
  -43.9830   24.2902   15.6113 H   0  0  0  0  0  0
  -42.2250   25.0918   14.1965 H   0  0  0  0  0  0
  -41.5098   24.3676   15.6766 H   0  0  0  0  0  0
  -40.6174   22.5663   14.4762 H   0  0  0  0  0  0
  -41.5698   22.9691   13.0074 H   0  0  0  0  0  0
  -38.9887   23.9969   13.9422 H   0  0  0  0  0  0
  -39.7252   23.9982   12.3039 H   0  0  0  0  0  0
  -40.9443   26.0389   12.8301 H   0  0  0  0  0  0
  -40.2777   26.0272   14.4980 H   0  0  0  0  0  0
  -39.3041   27.6719   13.1533 H   0  0  0  0  0  0
  -38.7711   26.4354   11.9643 H   0  0  0  0  0  0
  -38.1045   26.4237   13.6323 H   0  0  0  0  0  0
  -43.3139   25.2821   19.6223 H   0  0  0  0  0  0
  1  2  2  0  0  0
  1  6  1  0  0  0
  2  3  1  0  0  0
  2 15  1  0  0  0
  3  4  2  0  0  0
  3 62  1  0  0  0
  4  5  1  0  0  0
  4 10  1  0  0  0
  5  6  2  0  0  0
  5  9  1  0  0  0
  6 14  1  0  0  0
  7  8  1  0  0  0
  7 10  2  0  0  0
  7 11  1  0  0  0
  8  9  2  0  0  0
  8 12  1  0  0  0
  9 28  1  0  0  0
 10 29  1  0  0  0
 11 22  1  0  0  0
 12 13  1  0  0  0
 13 30  1  0  0  0
 13 31  1  0  0  0
 13 32  1  0  0  0
 14 33  1  0  0  0
 14 34  1  0  0  0
 15 16  1  0  0  0
 15 35  1  0  0  0
 16 17  1  0  0  0
 16 36  1  0  0  0
 16 37  1  0  0  0
 17 18  1  0  0  0
 17 38  1  0  0  0
 17 39  1  0  0  0
 18 19  1  0  0  0
 18 40  1  0  0  0
 18 41  1  0  0  0
 19 20  1  0  0  0
 19 21  1  0  0  0
 19 42  1  0  0  0
 20 43  1  0  0  0
 20 44  1  0  0  0
 20 45  1  0  0  0
 21 46  1  0  0  0
 21 47  1  0  0  0
 21 48  1  0  0  0
 22 23  1  0  0  0
 22 49  1  0  0  0
 22 50  1  0  0  0
 23 24  1  0  0  0
 23 51  1  0  0  0
 23 52  1  0  0  0
 24 25  1  0  0  0
 24 53  1  0  0  0
 24 54  1  0  0  0
 25 26  1  0  0  0
 25 55  1  0  0  0
 25 56  1  0  0  0
 26 27  1  0  0  0
 26 57  1  0  0  0
 26 58  1  0  0  0
 27 59  1  0  0  0
 27 60  1  0  0  0
 27 61  1  0  0  0
M  CHG  3   3   1  19   1  27   1
M  END
> <s_m_source_file>
../3u78_ligand.sdf

> <i_m_source_file_index>
1

> <s_epik_input>
W0NIM11bTkgrXShbQ0gzXSlbQ0gyXVtDSDJdW0NIMl1bTkhdYyhuMSluYyhbTkgyXSljKGMxMilbY0hdYyhPW0NIM10pYyhbY0hdMilPW0NIMl1bQ0gyXVtDSDJdW0NIMl1bQ0gyXVtOSDMrXQ==

> <s_epik_cmdline>
J2VwaWtfYXBwJywgJy1pbWFlJywgJ2xpZ2FuZF9wcm8ubWFlJywgJy1vbWFlJywgJ2xpZ2FuZF9wcmVwLm1hZScsICctbXMnLCAnMScsICctcGgnLCAnNycsICctcGh0JywgJzAuNScsICctbnQn

> <r_epik_Ionization_Penalty>
  0.0192

> <r_epik_Ionization_Penalty_Charging>
  0.0192

> <r_epik_Ionization_Penalty_Neutral>
  0.0000

> <r_epik_State_Penalty>
  0.0260

> <r_epik_Charging_Adjusted_Penalty>
0.0451832210876111

> <i_epik_Tot_Q>
3

> <i_epik_Tot_abs_Q>
3

$$$$
