3u7k_ligand
                    3D
 Schrodinger Suite 2020-3.
 65 66  0  0  1  0            999 V2000
  -16.7390   84.8790   68.7910 C   0  0  0  0  0  0
  -15.8440   86.3270   70.3670 N   0  0  0  0  0  0
  -15.9900   85.4150   67.9820 O   0  0  0  0  0  0
  -17.0930   85.6700   70.0330 C   0  0  1  0  0  0
  -18.2490   86.6640   69.8370 C   0  0  0  0  0  0
  -18.5860   87.3400   71.1680 C   0  0  0  0  0  0
  -17.9000   87.7850   68.8540 C   0  0  0  0  0  0
  -19.5090   85.9450   69.3590 C   0  0  0  0  0  0
  -15.1350   86.0770   71.4660 C   0  0  0  0  0  0
  -15.5220   85.2850   72.3130 O   0  0  0  0  0  0
  -13.9970   86.7650   71.5590 N   0  0  0  0  0  0
  -13.0740   86.7280   72.5670 C   0  0  0  0  0  0
  -13.2220   85.9280   73.7000 C   0  0  0  0  0  0
  -12.2490   85.9330   74.7050 C   0  0  0  0  0  0
  -11.1210   86.7440   74.5840 C   0  0  0  0  0  0
  -10.9670   87.5440   73.4490 C   0  0  0  0  0  0
  -11.9460   87.5330   72.4470 C   0  0  0  0  0  0
  -11.7950   88.3150   71.3330 O   0  0  0  0  0  0
  -10.5800   88.2480   70.5830 C   0  0  0  0  0  0
  -17.1970   83.6290   68.5680 N   0  0  0  0  0  0
  -16.7910   82.9620   67.3330 C   0  0  0  0  0  0
  -17.9580   82.5640   66.4440 C   0  0  0  0  0  0
  -18.9580   83.2610   66.3100 O   0  0  0  0  0  0
  -17.7880   81.4060   65.8170 N   0  0  0  0  0  0
  -18.7330   80.8890   64.9380 O   0  0  0  0  0  0
  -18.0860   82.8350   69.4290 C   0  0  0  0  0  0
  -17.2520   82.0260   70.4220 C   0  0  0  0  0  0
  -18.1510   81.4890   71.5380 C   0  0  0  0  0  0
  -17.5490   80.1600   71.9850 C   0  0  0  0  0  0
  -16.5180   79.7560   70.9430 C   0  0  0  0  0  0
  -16.6150   80.7840   69.8120 C   0  0  0  0  0  0
  -15.4246   87.0871   69.6915 H   0  0  0  0  0  0
  -17.4277   85.0261   70.8596 H   0  0  0  0  0  0
  -17.6990   87.8702   71.5449 H   0  0  0  0  0  0
  -18.8955   86.5778   71.8983 H   0  0  0  0  0  0
  -19.4058   88.0578   71.0174 H   0  0  0  0  0  0
  -16.9927   88.3039   69.1968 H   0  0  0  0  0  0
  -18.7341   88.5002   68.8024 H   0  0  0  0  0  0
  -17.7225   87.3561   67.8567 H   0  0  0  0  0  0
  -19.7612   85.1393   70.0641 H   0  0  0  0  0  0
  -19.3308   85.5169   68.3615 H   0  0  0  0  0  0
  -20.3424   86.6611   69.3071 H   0  0  0  0  0  0
  -13.7098   87.4637   70.7594 H   0  0  0  0  0  0
  -14.1027   85.2940   73.8031 H   0  0  0  0  0  0
  -12.3728   85.3015   75.5848 H   0  0  0  0  0  0
  -10.3650   86.7537   75.3692 H   0  0  0  0  0  0
  -10.0855   88.1764   73.3432 H   0  0  0  0  0  0
  -10.6374   88.9395   69.7294 H   0  0  0  0  0  0
  -10.4327   87.2221   70.2145 H   0  0  0  0  0  0
   -9.7350   88.5309   71.2279 H   0  0  0  0  0  0
  -16.1469   83.6347   66.7477 H   0  0  0  0  0  0
  -16.2364   82.0440   67.5773 H   0  0  0  0  0  0
  -16.8588   80.8513   66.0142 H   0  0  0  0  0  0
  -18.5514   79.9253   64.4397 H   0  0  0  0  0  0
  -18.7591   83.5078   69.9806 H   0  0  0  0  0  0
  -18.6811   82.1491   68.8082 H   0  0  0  0  0  0
  -16.4704   82.7177   70.7693 H   0  0  0  0  0  0
  -18.1722   82.2084   72.3699 H   0  0  0  0  0  0
  -19.1706   81.3461   71.1507 H   0  0  0  0  0  0
  -17.0740   80.2852   72.9692 H   0  0  0  0  0  0
  -18.3436   79.4026   72.0551 H   0  0  0  0  0  0
  -15.5158   79.7644   71.3964 H   0  0  0  0  0  0
  -16.7455   78.7447   70.5750 H   0  0  0  0  0  0
  -17.2475   80.4126   68.9922 H   0  0  0  0  0  0
  -15.6188   81.0375   69.4205 H   0  0  0  0  0  0
  1  3  2  0  0  0
  1  4  1  0  0  0
  1 20  1  0  0  0
  2  4  1  0  0  0
  2  9  1  0  0  0
  2 32  1  0  0  0
  4  5  1  0  0  0
  4 33  1  0  0  0
  5  6  1  0  0  0
  5  7  1  0  0  0
  5  8  1  0  0  0
  6 34  1  0  0  0
  6 35  1  0  0  0
  6 36  1  0  0  0
  7 37  1  0  0  0
  7 38  1  0  0  0
  7 39  1  0  0  0
  8 40  1  0  0  0
  8 41  1  0  0  0
  8 42  1  0  0  0
  9 10  2  0  0  0
  9 11  1  0  0  0
 11 12  1  0  0  0
 11 43  1  0  0  0
 12 13  2  0  0  0
 12 17  1  0  0  0
 13 14  1  0  0  0
 13 44  1  0  0  0
 14 15  2  0  0  0
 14 45  1  0  0  0
 15 16  1  0  0  0
 15 46  1  0  0  0
 16 17  2  0  0  0
 16 47  1  0  0  0
 17 18  1  0  0  0
 18 19  1  0  0  0
 19 48  1  0  0  0
 19 49  1  0  0  0
 19 50  1  0  0  0
 20 21  1  0  0  0
 20 26  1  0  0  0
 21 22  1  0  0  0
 21 51  1  0  0  0
 21 52  1  0  0  0
 22 23  2  0  0  0
 22 24  1  0  0  0
 24 25  1  0  0  0
 24 53  1  0  0  0
 25 54  1  0  0  0
 26 27  1  0  0  0
 26 55  1  0  0  0
 26 56  1  0  0  0
 27 28  1  0  0  0
 27 31  1  0  0  0
 27 57  1  0  0  0
 28 29  1  0  0  0
 28 58  1  0  0  0
 28 59  1  0  0  0
 29 30  1  0  0  0
 29 60  1  0  0  0
 29 61  1  0  0  0
 30 31  1  0  0  0
 30 62  1  0  0  0
 30 63  1  0  0  0
 31 64  1  0  0  0
 31 65  1  0  0  0
M  END
> <s_m_source_file>
../3u7k_ligand.sdf

> <i_m_source_file_index>
1

> <s_epik_input>
W0NIMl0xW0NIMl1bQ0gyXVtDSDJdW0NIXTFbQ0gyXU4oW0NIMl1DKD1PKVtOSF1bT0hdKUMoPU8pW0NASF0oQyhbQ0gzXSkoW0NIM10pW0NIM10pW05IXUMoPU8pW05IXWMyW2NIXVtjSF1bY0hdW2NIXWMyT1tDSDNd

> <s_epik_cmdline>
J2VwaWtfYXBwJywgJy1pbWFlJywgJ2xpZ2FuZF9wcm8ubWFlJywgJy1vbWFlJywgJ2xpZ2FuZF9wcmVwLm1hZScsICctbXMnLCAnMScsICctcGgnLCAnNycsICctcGh0JywgJzAuNScsICctbnQn

> <r_lp_tautomer_probability>
1

> <r_epik_Ionization_Penalty>
  0.0089

> <r_epik_Ionization_Penalty_Charging>
  0.0000

> <r_epik_Ionization_Penalty_Neutral>
  0.0089

> <r_epik_State_Penalty>
 -0.0000

> <r_epik_Charging_Adjusted_Penalty>
0

> <i_epik_Tot_Q>
0

> <i_epik_Tot_abs_Q>
0

> <s_epik_Chemistry_Notes>
This compound has a N-S or N-O group and may undergo hydrolysis at high or low pH.

$$$$
