3u7l_ligand
                    3D
 Schrodinger Suite 2020-3.
 61 62  0  0  1  0            999 V2000
  -16.8740  144.9230   44.9580 C   0  0  0  0  0  0
  -16.0370  146.3170   46.6820 N   0  0  0  0  0  0
  -16.1710  145.5090   44.1420 O   0  0  0  0  0  0
  -10.0940  148.6320   48.9380 F   0  0  0  0  0  0
  -12.7090  146.9320   52.5120 F   0  0  0  0  0  0
  -17.2370  145.6380   46.2460 C   0  0  1  0  0  0
  -18.3630  146.6740   46.0830 C   0  0  0  0  0  0
  -18.0210  147.6830   44.9910 C   0  0  0  0  0  0
  -18.5920  147.4650   47.3790 C   0  0  0  0  0  0
  -19.6630  145.9920   45.6880 C   0  0  0  0  0  0
  -15.4730  146.1870   47.8710 C   0  0  0  0  0  0
  -15.9510  145.4760   48.7450 O   0  0  0  0  0  0
  -14.3870  146.9440   47.9520 N   0  0  0  0  0  0
  -13.4380  147.1800   48.9520 C   0  0  0  0  0  0
  -12.2530  147.7720   48.5040 C   0  0  0  0  0  0
  -11.2310  148.0700   49.3920 C   0  0  0  0  0  0
  -11.3950  147.7910   50.7490 C   0  0  0  0  0  0
  -12.5790  147.2020   51.2000 C   0  0  0  0  0  0
  -13.6180  146.8950   50.3060 C   0  0  0  0  0  0
  -17.2940  143.6740   44.7090 N   0  0  0  0  0  0
  -16.9020  143.0530   43.4470 C   0  0  0  0  0  0
  -18.0650  142.6620   42.5580 C   0  0  0  0  0  0
  -19.0850  143.3490   42.4650 O   0  0  0  0  0  0
  -17.8610  141.5300   41.8770 N   0  0  0  0  0  0
  -18.8110  141.0260   40.9920 O   0  0  0  0  0  0
  -18.1250  142.8400   45.5890 C   0  0  0  0  0  0
  -17.2410  142.1170   46.6130 C   0  0  0  0  0  0
  -16.5180  140.9070   46.0340 C   0  0  0  0  0  0
  -16.3880  139.8960   47.1750 C   0  0  0  0  0  0
  -17.3700  140.3160   48.2650 C   0  0  0  0  0  0
  -18.0800  141.5750   47.7750 C   0  0  0  0  0  0
  -15.5177  147.0076   46.0013 H   0  0  0  0  0  0
  -17.5595  144.8999   46.9951 H   0  0  0  0  0  0
  -17.0822  148.1960   45.2468 H   0  0  0  0  0  0
  -18.8316  148.4219   44.9076 H   0  0  0  0  0  0
  -17.9026  147.1586   44.0313 H   0  0  0  0  0  0
  -17.6569  147.9632   47.6746 H   0  0  0  0  0  0
  -18.9093  146.7775   48.1769 H   0  0  0  0  0  0
  -19.3739  148.2209   47.2139 H   0  0  0  0  0  0
  -19.5106  145.4217   44.7598 H   0  0  0  0  0  0
  -20.4418  146.7521   45.5277 H   0  0  0  0  0  0
  -19.9772  145.3087   46.4907 H   0  0  0  0  0  0
  -14.0811  147.5606   47.0939 H   0  0  0  0  0  0
  -12.1316  148.0016   47.4454 H   0  0  0  0  0  0
  -10.6011  148.0320   51.4559 H   0  0  0  0  0  0
  -14.5443  146.4441   50.6621 H   0  0  0  0  0  0
  -16.2782  143.7532   42.8720 H   0  0  0  0  0  0
  -16.3304  142.1358   43.6517 H   0  0  0  0  0  0
  -16.9129  140.9937   42.0303 H   0  0  0  0  0  0
  -18.6132  140.0916   40.4463 H   0  0  0  0  0  0
  -18.8490  143.4755   46.1200 H   0  0  0  0  0  0
  -18.6644  142.0948   44.9859 H   0  0  0  0  0  0
  -16.5082  142.8710   46.9362 H   0  0  0  0  0  0
  -17.1071  140.4907   45.2035 H   0  0  0  0  0  0
  -15.5284  141.2135   45.6641 H   0  0  0  0  0  0
  -16.6306  138.8898   46.8027 H   0  0  0  0  0  0
  -15.3570  139.9063   47.5584 H   0  0  0  0  0  0
  -18.0944  139.5064   48.4376 H   0  0  0  0  0  0
  -16.8198  140.5202   49.1954 H   0  0  0  0  0  0
  -18.1360  142.3320   48.5712 H   0  0  0  0  0  0
  -19.0942  141.3428   47.4179 H   0  0  0  0  0  0
  1  3  2  0  0  0
  1  6  1  0  0  0
  1 20  1  0  0  0
  2  6  1  0  0  0
  2 11  1  0  0  0
  2 32  1  0  0  0
  4 16  1  0  0  0
  5 18  1  0  0  0
  6  7  1  0  0  0
  6 33  1  0  0  0
  7  8  1  0  0  0
  7  9  1  0  0  0
  7 10  1  0  0  0
  8 34  1  0  0  0
  8 35  1  0  0  0
  8 36  1  0  0  0
  9 37  1  0  0  0
  9 38  1  0  0  0
  9 39  1  0  0  0
 10 40  1  0  0  0
 10 41  1  0  0  0
 10 42  1  0  0  0
 11 12  2  0  0  0
 11 13  1  0  0  0
 13 14  1  0  0  0
 13 43  1  0  0  0
 14 15  2  0  0  0
 14 19  1  0  0  0
 15 16  1  0  0  0
 15 44  1  0  0  0
 16 17  2  0  0  0
 17 18  1  0  0  0
 17 45  1  0  0  0
 18 19  2  0  0  0
 19 46  1  0  0  0
 20 21  1  0  0  0
 20 26  1  0  0  0
 21 22  1  0  0  0
 21 47  1  0  0  0
 21 48  1  0  0  0
 22 23  2  0  0  0
 22 24  1  0  0  0
 24 25  1  0  0  0
 24 49  1  0  0  0
 25 50  1  0  0  0
 26 27  1  0  0  0
 26 51  1  0  0  0
 26 52  1  0  0  0
 27 28  1  0  0  0
 27 31  1  0  0  0
 27 53  1  0  0  0
 28 29  1  0  0  0
 28 54  1  0  0  0
 28 55  1  0  0  0
 29 30  1  0  0  0
 29 56  1  0  0  0
 29 57  1  0  0  0
 30 31  1  0  0  0
 30 58  1  0  0  0
 30 59  1  0  0  0
 31 60  1  0  0  0
 31 61  1  0  0  0
M  END
> <s_m_source_file>
../3u7l_ligand.sdf

> <i_m_source_file_index>
1

> <s_epik_input>
W0NIMl0xW0NIMl1bQ0gyXVtDSDJdW0NIXTFbQ0gyXU4oW0NIMl1DKD1PKVtOSF1bT0hdKUMoPU8pW0NASF0oQyhbQ0gzXSkoW0NIM10pW0NIM10pW05IXUMoPU8pW05IXWMyW2NIXWMoRilbY0hdYyhGKVtjSF0y

> <s_epik_cmdline>
J2VwaWtfYXBwJywgJy1pbWFlJywgJ2xpZ2FuZF9wcm8ubWFlJywgJy1vbWFlJywgJ2xpZ2FuZF9wcmVwLm1hZScsICctbXMnLCAnMScsICctcGgnLCAnNycsICctcGh0JywgJzAuNScsICctbnQn

> <r_lp_tautomer_probability>
1

> <r_epik_Ionization_Penalty>
  0.0089

> <r_epik_Ionization_Penalty_Charging>
  0.0000

> <r_epik_Ionization_Penalty_Neutral>
  0.0089

> <r_epik_State_Penalty>
 -0.0000

> <r_epik_Charging_Adjusted_Penalty>
0

> <i_epik_Tot_Q>
0

> <i_epik_Tot_abs_Q>
0

> <s_epik_Chemistry_Notes>
This compound has a N-S or N-O group and may undergo hydrolysis at high or low pH.

$$$$
