3u7n_ligand
                    3D
 Schrodinger Suite 2020-3.
 57 57  0  0  1  0            999 V2000
  -16.9580  144.7670   44.8290 C   0  0  0  0  0  0
  -16.7670  146.6210   46.4120 N   0  0  0  0  0  0
  -15.8150  144.9660   44.4470 O   0  0  0  0  0  0
  -17.5340  145.4220   46.0940 C   0  0  1  0  0  0
  -18.9640  145.8550   45.8320 C   0  0  0  0  0  0
  -16.8230  140.2560   47.1780 C   0  0  0  0  0  0
   -9.9100  147.7240   49.2510 C   0  0  0  0  0  0
  -18.5890  141.3520   40.6660 O   0  0  0  0  0  0
  -15.0590  145.5100   47.2730 O   0  0  0  0  0  0
  -19.9250  143.6130   41.6290 O   0  0  0  0  0  0
  -18.0630  142.2380   41.3220 C   0  0  0  0  0  0
  -12.1690  146.8860   49.3110 C   0  0  0  0  0  0
  -13.4530  146.8840   48.7930 C   0  0  0  0  0  0
  -11.5300  148.5080   47.6820 C   0  0  0  0  0  0
  -17.1300  140.5570   45.7300 C   0  0  0  0  0  0
  -17.0460  142.0550   45.5380 C   0  0  0  0  0  0
  -17.4700  142.4080   44.1170 C   0  0  0  0  0  0
  -17.9000  144.3320   42.5900 C   0  0  0  0  0  0
  -12.8250  148.4830   47.1840 N   0  0  0  0  0  0
  -14.9550  147.7290   47.1960 N   0  0  0  0  0  0
  -15.5680  146.5740   46.9730 C   0  0  0  0  0  0
  -11.2010  147.7040   48.7520 C   0  0  0  0  0  0
  -13.7550  147.7010   47.7230 C   0  0  0  0  0  0
  -17.9030  143.8780   44.0420 C   0  0  2  0  0  0
  -18.6380  143.3550   41.8130 N   0  0  0  0  0  0
  -18.9330  147.1560   45.0410 C   0  0  0  0  0  0
  -19.6490  146.1090   47.1630 C   0  0  0  0  0  0
  -17.1809  147.6148   46.1858 H   0  0  0  0  0  0
  -17.4725  144.7317   46.9482 H   0  0  0  0  0  0
  -19.5034  145.0751   45.2745 H   0  0  0  0  0  0
  -16.8772  139.1703   47.3463 H   0  0  0  0  0  0
  -17.5564  140.7639   47.8215 H   0  0  0  0  0  0
  -15.8118  140.6147   47.4206 H   0  0  0  0  0  0
   -9.8330  147.0249   50.0968 H   0  0  0  0  0  0
   -9.6644  148.7406   49.5920 H   0  0  0  0  0  0
   -9.2068  147.4224   48.4608 H   0  0  0  0  0  0
  -20.5483  142.9162   41.0494 H   0  0  0  0  0  0
  -16.9944  142.1744   41.5752 H   0  0  0  0  0  0
  -11.9204  146.2452   50.1570 H   0  0  0  0  0  0
  -14.2194  146.2419   49.2272 H   0  0  0  0  0  0
  -10.7798  149.1576   47.2310 H   0  0  0  0  0  0
  -16.3966  140.0491   45.0865 H   0  0  0  0  0  0
  -18.1412  140.1983   45.4873 H   0  0  0  0  0  0
  -17.7137  142.5546   46.2553 H   0  0  0  0  0  0
  -16.0115  142.3888   45.7062 H   0  0  0  0  0  0
  -16.6251  142.2465   43.4315 H   0  0  0  0  0  0
  -18.3133  141.7688   43.8165 H   0  0  0  0  0  0
  -18.3798  145.3189   42.5134 H   0  0  0  0  0  0
  -16.8631  144.3994   42.2290 H   0  0  0  0  0  0
  -15.4543  148.6751   46.9398 H   0  0  0  0  0  0
  -18.9110  143.9707   44.4726 H   0  0  0  0  0  0
  -18.4386  146.9851   44.0734 H   0  0  0  0  0  0
  -18.3762  147.9166   45.6080 H   0  0  0  0  0  0
  -19.9618  147.5059   44.8704 H   0  0  0  0  0  0
  -19.6778  145.1757   47.7445 H   0  0  0  0  0  0
  -20.6755  146.4623   46.9855 H   0  0  0  0  0  0
  -19.0900  146.8730   47.7232 H   0  0  0  0  0  0
  1  3  2  0  0  0
  1  4  1  0  0  0
  1 24  1  0  0  0
  2  4  1  0  0  0
  2 21  1  0  0  0
  2 28  1  0  0  0
  4  5  1  0  0  0
  4 29  1  0  0  0
  5 26  1  0  0  0
  5 27  1  0  0  0
  5 30  1  0  0  0
  6 15  1  0  0  0
  6 31  1  0  0  0
  6 32  1  0  0  0
  6 33  1  0  0  0
  7 22  1  0  0  0
  7 34  1  0  0  0
  7 35  1  0  0  0
  7 36  1  0  0  0
  8 11  2  0  0  0
  9 21  2  0  0  0
 10 25  1  0  0  0
 10 37  1  0  0  0
 11 25  1  0  0  0
 11 38  1  0  0  0
 12 13  2  0  0  0
 12 22  1  0  0  0
 12 39  1  0  0  0
 13 23  1  0  0  0
 13 40  1  0  0  0
 14 19  1  0  0  0
 14 22  2  0  0  0
 14 41  1  0  0  0
 15 16  1  0  0  0
 15 42  1  0  0  0
 15 43  1  0  0  0
 16 17  1  0  0  0
 16 44  1  0  0  0
 16 45  1  0  0  0
 17 24  1  0  0  0
 17 46  1  0  0  0
 17 47  1  0  0  0
 18 24  1  0  0  0
 18 25  1  0  0  0
 18 48  1  0  0  0
 18 49  1  0  0  0
 19 23  2  0  0  0
 20 21  1  0  0  0
 20 23  1  0  0  0
 20 50  1  0  0  0
 24 51  1  0  0  0
 26 52  1  0  0  0
 26 53  1  0  0  0
 26 54  1  0  0  0
 27 55  1  0  0  0
 27 56  1  0  0  0
 27 57  1  0  0  0
M  END
> <s_m_source_file>
../3u7n_ligand.sdf

> <i_m_source_file_index>
1

> <s_epik_input>
W0NIM11bQ0gyXVtDSDJdW0NIMl1bQ0BIXShbQ0gyXU4oW09IXSlbQ0hdPU8pQyg9TylbQ0BIXShbQ0hdKFtDSDNdKVtDSDNdKVtOSF1DKD1PKVtOSF1jKG5bY0hdMSlbY0hdW2NIXWMxW0NIM10=

> <s_epik_cmdline>
J2VwaWtfYXBwJywgJy1pbWFlJywgJ2xpZ2FuZF9wcm8ubWFlJywgJy1vbWFlJywgJ2xpZ2FuZF9wcmVwLm1hZScsICctbXMnLCAnMScsICctcGgnLCAnNycsICctcGh0JywgJzAuNScsICctbnQn

> <r_lp_tautomer_probability>
1

> <r_epik_Ionization_Penalty>
  0.0052

> <r_epik_Ionization_Penalty_Charging>
  0.0000

> <r_epik_Ionization_Penalty_Neutral>
  0.0052

> <r_epik_State_Penalty>
 -0.0000

> <r_epik_Charging_Adjusted_Penalty>
0

> <i_epik_Tot_Q>
0

> <i_epik_Tot_abs_Q>
0

> <s_epik_Chemistry_Notes>
This compound has a N-S or N-O group and may undergo hydrolysis at high or low pH.

$$$$
