3u81_ligand
                    3D
 Schrodinger Suite 2020-3.
 46 48  0  0  1  0            999 V2000
  -10.4680  -11.2790   15.7000 N   0  3  0  0  0  0
  -11.0360  -10.3730   14.6820 C   0  0  1  0  0  0
  -12.3690   -9.7400   15.1090 C   0  0  0  0  0  0
  -13.4020  -10.7470   15.5390 C   0  0  0  0  0  0
  -14.9850   -9.9040   15.7020 S   0  0  0  0  0  0
  -10.0190   -9.2890   14.3760 C   0  0  0  0  0  0
   -9.1370   -9.0000   15.1970 O   0  5  0  0  0  0
  -10.1590   -8.7140   13.2960 O   0  0  0  0  0  0
  -15.9120  -11.1900   16.5110 C   0  0  0  0  0  0
  -16.2530  -12.3740   15.5940 C   0  0  1  0  0  0
  -16.6740  -13.4540   16.4250 O   0  0  0  0  0  0
  -17.3410  -12.1260   14.5500 C   0  0  1  0  0  0
  -16.9300  -12.3690   13.2170 O   0  0  0  0  0  0
  -18.4430  -13.1170   15.0210 C   0  0  1  0  0  0
  -19.2770  -13.6460   13.9760 O   0  0  0  0  0  0
  -17.6590  -14.1940   15.7210 C   0  0  2  0  0  0
  -18.4020  -14.9730   16.7120 N   0  0  0  0  0  0
  -19.2800  -14.4600   17.6290 C   0  0  0  0  0  0
  -19.6960  -15.4220   18.4940 N   0  0  0  0  0  0
  -19.0390  -16.5660   18.0760 C   0  0  0  0  0  0
  -19.0320  -17.9020   18.5580 C   0  0  0  0  0  0
  -19.7970  -18.2710   19.6210 N   0  0  0  0  0  0
  -18.2590  -18.7820   17.9360 N   0  0  0  0  0  0
  -17.5390  -18.4040   16.8640 C   0  0  0  0  0  0
  -17.4590  -17.1710   16.3320 N   0  0  0  0  0  0
  -18.2330  -16.2800   16.9540 C   0  0  0  0  0  0
  -11.1950  -12.0712   15.9323 H   0  0  0  0  0  0
  -10.2425  -10.7089   16.6133 H   0  0  0  0  0  0
   -9.5434  -11.7319   15.3128 H   0  0  0  0  0  0
  -11.2311  -11.0009   13.8001 H   0  0  0  0  0  0
  -12.1975   -9.0616   15.9577 H   0  0  0  0  0  0
  -12.7924   -9.1735   14.2665 H   0  0  0  0  0  0
  -13.4756  -11.5425   14.7829 H   0  0  0  0  0  0
  -13.1078  -11.1848   16.5043 H   0  0  0  0  0  0
  -15.3290  -11.5865   17.3553 H   0  0  0  0  0  0
  -16.8622  -10.7788   16.8826 H   0  0  0  0  0  0
  -15.3408  -12.6489   15.0442 H   0  0  0  0  0  0
  -17.6237  -11.0709   14.4204 H   0  0  0  0  0  0
  -16.1542  -11.7392   12.7572 H   0  0  0  0  0  0
  -19.2321  -12.6557   15.6330 H   0  0  0  0  0  0
  -19.9070  -12.9696   13.3796 H   0  0  0  0  0  0
  -17.2710  -14.9371   15.0087 H   0  0  0  0  0  0
  -19.6022  -13.4192   17.6609 H   0  0  0  0  0  0
  -20.4325  -17.5283   20.1255 H   0  0  0  0  0  0
  -19.7799  -19.3120   19.9759 H   0  0  0  0  0  0
  -16.9562  -19.1829   16.3723 H   0  0  0  0  0  0
  1  2  1  0  0  0
  1 27  1  0  0  0
  1 28  1  0  0  0
  1 29  1  0  0  0
  2  3  1  0  0  0
  2  6  1  0  0  0
  2 30  1  0  0  0
  3  4  1  0  0  0
  3 31  1  0  0  0
  3 32  1  0  0  0
  4  5  1  0  0  0
  4 33  1  0  0  0
  4 34  1  0  0  0
  5  9  1  0  0  0
  6  7  1  0  0  0
  6  8  2  0  0  0
  9 10  1  0  0  0
  9 35  1  0  0  0
  9 36  1  0  0  0
 10 11  1  0  0  0
 10 12  1  0  0  0
 10 37  1  0  0  0
 11 16  1  0  0  0
 12 13  1  0  0  0
 12 14  1  0  0  0
 12 38  1  0  0  0
 13 39  1  0  0  0
 14 15  1  0  0  0
 14 16  1  0  0  0
 14 40  1  0  0  0
 15 41  1  0  0  0
 16 17  1  0  0  0
 16 42  1  0  0  0
 17 18  1  0  0  0
 17 26  1  0  0  0
 18 19  2  0  0  0
 18 43  1  0  0  0
 19 20  1  0  0  0
 20 21  2  0  0  0
 20 26  1  0  0  0
 21 22  1  0  0  0
 21 23  1  0  0  0
 22 44  1  0  0  0
 22 45  1  0  0  0
 23 24  2  0  0  0
 24 25  1  0  0  0
 24 46  1  0  0  0
 25 26  2  0  0  0
M  CHG  2   1   1   7  -1
M  END
> <s_m_source_file>
../3u81_ligand.sdf

> <i_m_source_file_index>
1

> <s_epik_input>
W09IXUMoPU8pW0NAQEhdKFtOSDMrXSlbQ0gyXVtDSDJdU1tDSDJdW0NASF0xT1tDQEhdKFtDQEhdKFtPSF0pW0NAQEhdMVtPSF0pbihbY0hdbjIpYyhjMjMpbltjSF1uYzNbTkgyXQ==

> <s_epik_cmdline>
J2VwaWtfYXBwJywgJy1pbWFlJywgJ2xpZ2FuZF9wcm8ubWFlJywgJy1vbWFlJywgJ2xpZ2FuZF9wcmVwLm1hZScsICctbXMnLCAnMScsICctcGgnLCAnNycsICctcGh0JywgJzAuNScsICctbnQn

> <r_lp_tautomer_probability>
1

> <r_epik_Ionization_Penalty>
  0.0026

> <r_epik_Ionization_Penalty_Charging>
  0.0022

> <r_epik_Ionization_Penalty_Neutral>
  0.0004

> <r_epik_State_Penalty>
 -0.0000

> <r_epik_Charging_Adjusted_Penalty>
0.00216156469931729

> <i_epik_Tot_Q>
0

> <i_epik_Tot_abs_Q>
2

> <s_epik_Chemistry_Notes>
This compound contains an acetal/aminal-like group ( X-CH(R)-Y where X, Y are N, S, or O) that may be acid/base labile, releasing an aldehyde.

$$$$
