3u8j_ligand
                    3D
 Schrodinger Suite 2020-3.
 29 30  0  0  1  0            999 V2000
    3.7060   18.3200   37.9020 C   0  0  0  0  0  0
    4.5620   18.8070   36.7110 C   0  0  0  0  0  0
    5.5780   17.8000   36.3150 N   0  3  0  0  0  0
    6.8930   17.9220   37.0030 C   0  0  0  0  0  0
    6.9100   17.5160   38.4990 C   0  0  0  0  0  0
    5.7150   18.0200   39.3330 C   0  0  0  0  0  0
    4.4430   17.4530   38.8370 N   0  0  0  0  0  0
    2.5700   13.9780   40.1520 C   0  0  0  0  0  0
    1.8470   14.8870   39.4650 N   0  0  0  0  0  0
    2.4990   16.0000   39.0510 C   0  0  0  0  0  0
    3.8830   16.2870   39.2750 C   0  0  0  0  0  0
    4.6090   15.3110   39.9950 C   0  0  0  0  0  0
    3.9380   14.1500   40.4360 C   0  0  0  0  0  0
    3.3439   19.1880   38.4725 H   0  0  0  0  0  0
    2.8474   17.7447   37.5255 H   0  0  0  0  0  0
    3.9106   18.9994   35.8457 H   0  0  0  0  0  0
    5.0846   19.7339   36.9898 H   0  0  0  0  0  0
    5.2005   16.7911   36.5377 H   0  0  0  0  0  0
    5.7793   17.8865   35.2370 H   0  0  0  0  0  0
    7.6306   17.2787   36.5009 H   0  0  0  0  0  0
    7.2317   18.9678   36.9638 H   0  0  0  0  0  0
    6.9071   16.4191   38.5813 H   0  0  0  0  0  0
    7.8155   17.9172   38.9776 H   0  0  0  0  0  0
    5.8482   17.7201   40.3829 H   0  0  0  0  0  0
    5.6599   19.1168   39.2692 H   0  0  0  0  0  0
    2.0739   13.0726   40.5017 H   0  0  0  0  0  0
    1.9196   16.7407   38.4998 H   0  0  0  0  0  0
    5.6690   15.4525   40.2061 H   0  0  0  0  0  0
    4.4788   13.3872   40.9961 H   0  0  0  0  0  0
  1  2  1  0  0  0
  1  7  1  0  0  0
  1 14  1  0  0  0
  1 15  1  0  0  0
  2  3  1  0  0  0
  2 16  1  0  0  0
  2 17  1  0  0  0
  3  4  1  0  0  0
  3 18  1  0  0  0
  3 19  1  0  0  0
  4  5  1  0  0  0
  4 20  1  0  0  0
  4 21  1  0  0  0
  5  6  1  0  0  0
  5 22  1  0  0  0
  5 23  1  0  0  0
  6  7  1  0  0  0
  6 24  1  0  0  0
  6 25  1  0  0  0
  7 11  1  0  0  0
  8  9  2  0  0  0
  8 13  1  0  0  0
  8 26  1  0  0  0
  9 10  1  0  0  0
 10 11  2  0  0  0
 10 27  1  0  0  0
 11 12  1  0  0  0
 12 13  2  0  0  0
 12 28  1  0  0  0
 13 29  1  0  0  0
M  CHG  1   3   1
M  END
> <s_m_source_file>
../3u8j_ligand.sdf

> <i_m_source_file_index>
1

> <s_epik_input>
W0NIMl0xW0NIMl1bQ0gyXVtOSDIrXVtDSDJdW0NIMl1OMWMyW2NIXW5bY0hdW2NIXVtjSF0y

> <s_epik_cmdline>
J2VwaWtfYXBwJywgJy1pbWFlJywgJ2xpZ2FuZF9wcm8ubWFlJywgJy1vbWFlJywgJ2xpZ2FuZF9wcmVwLm1hZScsICctbXMnLCAnMScsICctcGgnLCAnNycsICctcGh0JywgJzAuNScsICctbnQn

> <r_lp_tautomer_probability>
1

> <r_epik_Ionization_Penalty>
  0.0465

> <r_epik_Ionization_Penalty_Charging>
  0.0073

> <r_epik_Ionization_Penalty_Neutral>
  0.0392

> <r_epik_State_Penalty>
 -0.0000

> <r_epik_Charging_Adjusted_Penalty>
0.0073000854733926

> <i_epik_Tot_Q>
1

> <i_epik_Tot_abs_Q>
1

$$$$
