3u8m_ligand
                    3D
 Schrodinger Suite 2020-3.
 29 30  0  0  1  0            999 V2000
  -33.1880   76.5370  -26.3820 C   0  0  0  0  0  0
  -32.9820   76.3340  -27.7670 C   0  0  0  0  0  0
  -34.1270   75.8480  -28.5000 C   0  0  0  0  0  0
  -35.3370   75.5880  -27.8090 C   0  0  0  0  0  0
  -35.4010   75.8380  -26.4110 C   0  0  0  0  0  0
  -34.3420   76.3050  -25.7300 N   0  0  0  0  0  0
  -36.7820   75.5320  -25.4170 Br  0  0  0  0  0  0
  -31.7320   76.6090  -28.2690 N   0  0  0  0  0  0
  -30.8270   77.5110  -27.5470 C   0  0  0  0  0  0
  -29.9070   78.2590  -28.5200 C   0  0  0  0  0  0
  -30.6710   79.2140  -29.3310 N   0  3  0  0  0  0
  -31.1700   78.7390  -30.6550 C   0  0  0  0  0  0
  -31.5940   77.2590  -30.8310 C   0  0  0  0  0  0
  -31.3370   76.2710  -29.6560 C   0  0  0  0  0  0
  -32.3468   76.9102  -25.7979 H   0  0  0  0  0  0
  -34.0615   75.6825  -29.5754 H   0  0  0  0  0  0
  -36.2059   75.2019  -28.3419 H   0  0  0  0  0  0
  -31.4172   78.2475  -26.9821 H   0  0  0  0  0  0
  -30.2059   76.9276  -26.8514 H   0  0  0  0  0  0
  -29.1421   78.8089  -27.9520 H   0  0  0  0  0  0
  -29.4175   77.5371  -29.1902 H   0  0  0  0  0  0
  -31.5664   79.5318  -28.7767 H   0  0  0  0  0  0
  -30.0451   80.0915  -29.5508 H   0  0  0  0  0  0
  -32.0673   79.3103  -30.9351 H   0  0  0  0  0  0
  -30.3892   78.8866  -31.4156 H   0  0  0  0  0  0
  -32.6779   77.2071  -31.0111 H   0  0  0  0  0  0
  -31.0587   76.8236  -31.6877 H   0  0  0  0  0  0
  -30.2505   76.1046  -29.6976 H   0  0  0  0  0  0
  -31.8603   75.3572  -29.9739 H   0  0  0  0  0  0
  1  2  2  0  0  0
  1  6  1  0  0  0
  1 15  1  0  0  0
  2  3  1  0  0  0
  2  8  1  0  0  0
  3  4  2  0  0  0
  3 16  1  0  0  0
  4  5  1  0  0  0
  4 17  1  0  0  0
  5  6  2  0  0  0
  5  7  1  0  0  0
  8  9  1  0  0  0
  8 14  1  0  0  0
  9 10  1  0  0  0
  9 18  1  0  0  0
  9 19  1  0  0  0
 10 11  1  0  0  0
 10 20  1  0  0  0
 10 21  1  0  0  0
 11 12  1  0  0  0
 11 22  1  0  0  0
 11 23  1  0  0  0
 12 13  1  0  0  0
 12 24  1  0  0  0
 12 25  1  0  0  0
 13 14  1  0  0  0
 13 26  1  0  0  0
 13 27  1  0  0  0
 14 28  1  0  0  0
 14 29  1  0  0  0
M  CHG  1  11   1
M  END
> <s_m_source_file>
../3u8m_ligand.sdf

> <i_m_source_file_index>
1

> <s_epik_input>
W2NIXTFbY0hdYyhCciluW2NIXWMxTjJbQ0gyXVtDSDJdW05IMitdW0NIMl1bQ0gyXVtDSDJdMg==

> <s_epik_cmdline>
J2VwaWtfYXBwJywgJy1pbWFlJywgJ2xpZ2FuZF9wcm8ubWFlJywgJy1vbWFlJywgJ2xpZ2FuZF9wcmVwLm1hZScsICctbXMnLCAnMScsICctcGgnLCAnNycsICctcGh0JywgJzAuNScsICctbnQn

> <r_lp_tautomer_probability>
1

> <r_epik_Ionization_Penalty>
  0.0073

> <r_epik_Ionization_Penalty_Charging>
  0.0073

> <r_epik_Ionization_Penalty_Neutral>
  0.0000

> <r_epik_State_Penalty>
 -0.0000

> <r_epik_Charging_Adjusted_Penalty>
0.0073000854733926

> <i_epik_Tot_Q>
1

> <i_epik_Tot_abs_Q>
1

$$$$
