3u90_ligand
                    3D
 Schrodinger Suite 2020-3.
 42 41  0  0  1  0            999 V2000
   34.4850    0.7670   29.4020 S   0  0  0  0  0  0
   35.3350    0.2190   28.3760 O   0  0  0  0  0  0
   34.7070    0.1030   30.6940 O   0  0  0  0  0  0
   34.7570    2.1760   29.5450 O   0  0  0  0  0  0
   33.0800    0.5270   29.0420 O   0  5  0  0  0  0
   35.8860    0.3440   31.3730 C   0  0  0  0  0  0
   28.9420   -0.2360   34.4220 C   0  0  0  0  0  0
   30.3060    0.3250   34.6520 C   0  0  0  0  0  0
   31.0460   -0.5080   35.6470 C   0  0  0  0  0  0
   32.4650   -0.0470   35.7140 C   0  0  0  0  0  0
   33.1120   -0.5480   36.9610 C   0  0  0  0  0  0
   34.3080    0.2840   37.2880 C   0  0  0  0  0  0
   35.5590   -0.4120   36.8630 C   0  0  0  0  0  0
   36.2760    0.4100   35.8470 C   0  0  0  0  0  0
   36.9770   -0.4810   34.8740 C   0  0  0  0  0  0
   37.0310    0.1710   33.5310 C   0  0  0  0  0  0
   35.7440   -0.0480   32.8070 C   0  0  0  0  0  0
   36.6977   -0.2425   30.9179 H   0  0  0  0  0  0
   36.1304    1.4149   31.3148 H   0  0  0  0  0  0
   28.4086    0.3861   33.6882 H   0  0  0  0  0  0
   28.3843   -0.2442   35.3701 H   0  0  0  0  0  0
   29.0280   -1.2633   34.0382 H   0  0  0  0  0  0
   30.8637    0.3332   33.7039 H   0  0  0  0  0  0
   30.2201    1.3523   35.0358 H   0  0  0  0  0  0
   30.5760   -0.4018   36.6359 H   0  0  0  0  0  0
   31.0146   -1.5631   35.3375 H   0  0  0  0  0  0
   33.0167   -0.4309   34.8433 H   0  0  0  0  0  0
   32.4939    1.0526   35.7106 H   0  0  0  0  0  0
   32.3952   -0.4929   37.7936 H   0  0  0  0  0  0
   33.4269   -1.5920   36.8168 H   0  0  0  0  0  0
   34.2386    1.2481   36.7629 H   0  0  0  0  0  0
   34.3470    0.4595   38.3732 H   0  0  0  0  0  0
   36.2112   -0.5597   37.7364 H   0  0  0  0  0  0
   35.3047   -1.3889   36.4259 H   0  0  0  0  0  0
   35.5525    1.0385   35.3070 H   0  0  0  0  0  0
   37.0154    1.0510   36.3494 H   0  0  0  0  0  0
   38.0019   -0.6724   35.2247 H   0  0  0  0  0  0
   36.4336   -1.4339   34.7920 H   0  0  0  0  0  0
   37.1984    1.2512   33.6543 H   0  0  0  0  0  0
   37.8548   -0.2632   32.9455 H   0  0  0  0  0  0
   34.9580    0.5610   33.2775 H   0  0  0  0  0  0
   35.4713   -1.1117   32.8711 H   0  0  0  0  0  0
  1  2  2  0  0  0
  1  3  1  0  0  0
  1  4  2  0  0  0
  1  5  1  0  0  0
  3  6  1  0  0  0
  6 17  1  0  0  0
  6 18  1  0  0  0
  6 19  1  0  0  0
  7  8  1  0  0  0
  7 20  1  0  0  0
  7 21  1  0  0  0
  7 22  1  0  0  0
  8  9  1  0  0  0
  8 23  1  0  0  0
  8 24  1  0  0  0
  9 10  1  0  0  0
  9 25  1  0  0  0
  9 26  1  0  0  0
 10 11  1  0  0  0
 10 27  1  0  0  0
 10 28  1  0  0  0
 11 12  1  0  0  0
 11 29  1  0  0  0
 11 30  1  0  0  0
 12 13  1  0  0  0
 12 31  1  0  0  0
 12 32  1  0  0  0
 13 14  1  0  0  0
 13 33  1  0  0  0
 13 34  1  0  0  0
 14 15  1  0  0  0
 14 35  1  0  0  0
 14 36  1  0  0  0
 15 16  1  0  0  0
 15 37  1  0  0  0
 15 38  1  0  0  0
 16 17  1  0  0  0
 16 39  1  0  0  0
 16 40  1  0  0  0
 17 41  1  0  0  0
 17 42  1  0  0  0
M  CHG  1   5  -1
M  END
> <s_m_source_file>
../3u90_ligand.sdf

> <i_m_source_file_index>
1

> <s_epik_input>
Tz1TKD1PKShbT0hdKU9bQ0gyXVtDSDJdW0NIMl1bQ0gyXVtDSDJdW0NIMl1bQ0gyXVtDSDJdW0NIMl1bQ0gyXVtDSDJdW0NIM10=

> <s_epik_cmdline>
J2VwaWtfYXBwJywgJy1pbWFlJywgJ2xpZ2FuZF9wcm8ubWFlJywgJy1vbWFlJywgJ2xpZ2FuZF9wcmVwLm1hZScsICctbXMnLCAnMScsICctcGgnLCAnNycsICctcGh0JywgJzAuNScsICctbnQn

> <r_lp_tautomer_probability>
1

> <r_epik_Ionization_Penalty>
  0.0000

> <r_epik_Ionization_Penalty_Charging>
  0.0000

> <r_epik_Ionization_Penalty_Neutral>
  0.0000

> <r_epik_State_Penalty>
 -0.0000

> <r_epik_Charging_Adjusted_Penalty>
1.63762416486134e-10

> <i_epik_Tot_Q>
-1

> <i_epik_Tot_abs_Q>
1

$$$$
