3u9c_ligand
                    3D
 Schrodinger Suite 2020-3.
 25 27  0  0  1  0            999 V2000
   47.1010   -2.1770   43.1530 O   0  0  0  0  0  0
   45.1650   -4.9940   39.7680 O   0  0  0  0  0  0
   47.0150   -4.0860   37.8800 N   0  0  0  0  0  0
   43.1090   -7.8660   36.5080 O   0  0  0  0  0  0
   48.0040   -2.6470   39.6150 C   0  0  0  0  0  0
   48.0160   -2.1780   40.9280 C   0  0  0  0  0  0
   47.0790   -2.6470   41.8590 C   0  0  0  0  0  0
   46.1270   -3.5870   41.4700 C   0  0  0  0  0  0
   46.1110   -4.0700   40.1240 C   0  0  0  0  0  0
   47.0300   -3.6090   39.2170 C   0  0  0  0  0  0
   46.0240   -5.0430   37.5390 C   0  0  0  0  0  0
   45.1280   -5.4720   38.4850 C   0  0  0  0  0  0
   44.1300   -6.4350   38.1390 C   0  0  0  0  0  0
   44.0690   -6.9380   36.8400 C   0  0  0  0  0  0
   44.9860   -6.5000   35.8740 C   0  0  0  0  0  0
   45.9610   -5.5590   36.2100 C   0  0  0  0  0  0
   47.8543   -1.4349   43.4559 H   0  0  0  0  0  0
   47.7532   -3.7132   37.1547 H   0  0  0  0  0  0
   42.3900   -8.2090   37.2665 H   0  0  0  0  0  0
   48.7362   -2.2797   38.8959 H   0  0  0  0  0  0
   48.7594   -1.4413   41.2327 H   0  0  0  0  0  0
   45.3957   -3.9536   42.1903 H   0  0  0  0  0  0
   43.4173   -6.7758   38.8900 H   0  0  0  0  0  0
   44.9376   -6.8948   34.8592 H   0  0  0  0  0  0
   46.6732   -5.2189   35.4582 H   0  0  0  0  0  0
  1  7  1  0  0  0
  1 17  1  0  0  0
  2  9  1  0  0  0
  2 12  1  0  0  0
  3 10  1  0  0  0
  3 11  1  0  0  0
  3 18  1  0  0  0
  4 14  1  0  0  0
  4 19  1  0  0  0
  5  6  2  0  0  0
  5 10  1  0  0  0
  5 20  1  0  0  0
  6  7  1  0  0  0
  6 21  1  0  0  0
  7  8  2  0  0  0
  8  9  1  0  0  0
  8 22  1  0  0  0
  9 10  2  0  0  0
 11 12  2  0  0  0
 11 16  1  0  0  0
 12 13  1  0  0  0
 13 14  2  0  0  0
 13 23  1  0  0  0
 14 15  1  0  0  0
 15 16  2  0  0  0
 15 24  1  0  0  0
 16 25  1  0  0  0
M  END
> <s_m_source_file>
../3u9c_ligand.sdf

> <i_m_source_file_index>
1

> <s_epik_input>
W09IXWMoW2NIXTEpW2NIXVtjSF1jKGMxMilbTkhdYzNjKE8yKVtjSF1jKFtPSF0pW2NIXVtjSF0z

> <s_epik_cmdline>
J2VwaWtfYXBwJywgJy1pbWFlJywgJ2xpZ2FuZF9wcm8ubWFlJywgJy1vbWFlJywgJ2xpZ2FuZF9wcmVwLm1hZScsICctbXMnLCAnMScsICctcGgnLCAnNycsICctcGh0JywgJzAuNScsICctbnQn

> <r_lp_tautomer_probability>
1

> <r_epik_Ionization_Penalty>
  0.0007

> <r_epik_Ionization_Penalty_Charging>
  0.0000

> <r_epik_Ionization_Penalty_Neutral>
  0.0007

> <r_epik_State_Penalty>
 -0.0000

> <r_epik_Charging_Adjusted_Penalty>
0

> <i_epik_Tot_Q>
0

> <i_epik_Tot_abs_Q>
0

$$$$
