3ua8_ligand
                    3D
 Schrodinger Suite 2020-3.
 42 44  0  0  1  0            999 V2000
   42.8510   31.9680   13.9670 O   0  0  0  0  0  0
   42.4040   32.9360   13.3520 C   0  0  0  0  0  0
   41.0920   33.0300   13.0160 N   0  0  0  0  0  0
   40.1240   32.0010   13.4080 C   0  0  0  0  0  0
   43.3480   34.0060   12.9370 C   0  0  0  0  0  0
   44.5060   34.4820   13.6450 N   0  0  0  0  0  0
   45.0910   35.3980   12.9890 C   0  0  0  0  0  0
   43.3980   34.7820   11.8190 C   0  0  0  0  0  0
   44.4240   35.6180   11.8870 N   0  0  0  0  0  0
   44.7440   36.4420   10.8530 C   0  0  0  0  0  0
   45.7690   35.9440   10.0430 C   0  0  0  0  0  0
   46.2120   36.6690    8.9320 C   0  0  0  0  0  0
   47.3090   36.1880    8.0330 C   0  0  0  0  0  0
   47.8430   35.1180    8.2820 O   0  0  0  0  0  0
   47.6720   36.9510    6.9750 N   0  0  0  0  0  0
   48.7500   36.4480    6.1540 N   0  0  3  0  0  0
   50.2720   37.0130    6.5610 S   0  0  0  0  0  0
   50.2880   38.3970    7.0000 O   0  0  0  0  0  0
   50.7460   36.1130    8.0640 C   0  0  0  0  0  0
   51.2560   36.7010    5.5420 O   0  0  0  0  0  0
   47.0820   38.1490    6.6810 C   0  0  0  0  0  0
   47.4320   38.8080    5.7140 O   0  5  0  0  0  0
   46.0920   38.6150    7.4680 N   0  0  0  0  0  0
   45.6330   37.8920    8.6060 C   0  0  0  0  0  0
   44.6060   38.3950    9.4060 C   0  0  0  0  0  0
   44.1410   37.6740   10.5280 C   0  0  0  0  0  0
   43.0380   38.2480   11.4200 C   0  0  0  0  0  0
   42.0440   37.3620   11.5720 F   0  0  0  0  0  0
   43.5390   38.5540   12.6630 F   0  0  0  0  0  0
   42.5230   39.3810   10.8740 F   0  0  0  0  0  0
   40.7610   33.9040   12.4359 H   0  0  0  0  0  0
   39.1263   32.2749   13.0345 H   0  0  0  0  0  0
   40.0962   31.9226   14.5049 H   0  0  0  0  0  0
   40.4233   31.0335   12.9787 H   0  0  0  0  0  0
   46.0001   35.9158   13.2947 H   0  0  0  0  0  0
   42.6952   34.7239   10.9878 H   0  0  0  0  0  0
   46.2264   34.9832   10.2792 H   0  0  0  0  0  0
   48.6299   35.7466    5.3152 H   0  0  0  0  0  0
   50.0202   36.3254    8.8628 H   0  0  0  0  0  0
   51.7479   36.4353    8.3837 H   0  0  0  0  0  0
   50.7572   35.0328    7.8564 H   0  0  0  0  0  0
   44.1566   39.3575    9.1616 H   0  0  0  0  0  0
  1  2  2  0  0  0
  2  3  1  0  0  0
  2  5  1  0  0  0
  3  4  1  0  0  0
  3 31  1  0  0  0
  4 32  1  0  0  0
  4 33  1  0  0  0
  4 34  1  0  0  0
  5  6  1  0  0  0
  5  8  2  0  0  0
  6  7  2  0  0  0
  7  9  1  0  0  0
  7 35  1  0  0  0
  8  9  1  0  0  0
  8 36  1  0  0  0
  9 10  1  0  0  0
 10 11  2  0  0  0
 10 26  1  0  0  0
 11 12  1  0  0  0
 11 37  1  0  0  0
 12 13  1  0  0  0
 12 24  2  0  0  0
 13 14  2  0  0  0
 13 15  1  0  0  0
 15 16  1  0  0  0
 15 21  1  0  0  0
 16 17  1  0  0  0
 16 38  1  0  0  0
 17 18  2  0  0  0
 17 19  1  0  0  0
 17 20  2  0  0  0
 19 39  1  0  0  0
 19 40  1  0  0  0
 19 41  1  0  0  0
 21 22  1  0  0  0
 21 23  2  0  0  0
 23 24  1  0  0  0
 24 25  1  0  0  0
 25 26  2  0  0  0
 25 42  1  0  0  0
 26 27  1  0  0  0
 27 28  1  0  0  0
 27 29  1  0  0  0
 27 30  1  0  0  0
M  CHG  1  22  -1
M  END
> <s_m_source_file>
../3ua8_ligand.sdf

> <i_m_source_file_index>
1

> <s_epik_input>
W0NIM11bTkhdQyg9TyljMW5bY0hdbihbY0hdMSktYyhbY0hdMiljKEMoRikoRilGKVtjSF1jKGMyMylbbkhdYyg9TyluKGMzPU8pW05IXVMoPU8pKD1PKVtDSDNd

> <s_epik_cmdline>
J2VwaWtfYXBwJywgJy1pbWFlJywgJ2xpZ2FuZF9wcm8ubWFlJywgJy1vbWFlJywgJ2xpZ2FuZF9wcmVwLm1hZScsICctbXMnLCAnMScsICctcGgnLCAnNycsICctcGh0JywgJzAuNScsICctbnQn

> <r_lp_tautomer_probability>
1

> <r_epik_Ionization_Penalty>
  0.0320

> <r_epik_Ionization_Penalty_Charging>
  0.0015

> <r_epik_Ionization_Penalty_Neutral>
  0.0305

> <r_epik_State_Penalty>
 -0.0000

> <r_epik_Charging_Adjusted_Penalty>
0.00148639116911549

> <i_epik_Tot_Q>
-1

> <i_epik_Tot_abs_Q>
1

$$$$
