3ual_ligand
                    3D
 Schrodinger Suite 2020-3.
128130  0  0  1  0            999 V2000
  -15.2450   -2.4680   31.7850 N   0  3  0  0  0  0
  -15.0000   -3.9490   31.5860 C   0  0  2  0  0  0
  -16.0520   -4.6060   30.6830 C   0  0  0  0  0  0
  -15.8510   -5.7200   30.2000 O   0  0  0  0  0  0
  -14.8900   -4.6900   32.9040 C   0  0  0  0  0  0
  -14.0050   -5.9540   32.8560 C   0  0  0  0  0  0
  -14.0370   -6.6390   34.2350 C   0  0  0  0  0  0
  -13.1290   -7.7900   34.3500 N   0  0  0  0  0  0
  -13.0510   -8.5720   35.4290 C   0  0  0  0  0  0
  -13.8340   -8.3370   36.4930 N   0  0  0  0  0  0
  -12.1990   -9.5970   35.4520 N   0  3  0  0  0  0
  -17.1730   -3.9330   30.4350 N   0  0  0  0  0  0
  -18.0870   -4.4210   29.3970 C   0  0  2  0  0  0
  -17.4990   -4.1750   28.0250 C   0  0  0  0  0  0
  -16.6260   -3.2930   27.8710 O   0  0  0  0  0  0
  -19.3940   -3.6560   29.4660 C   0  0  0  0  0  0
  -19.9700   -3.8530   30.7310 O   0  0  0  0  0  0
  -18.0360   -4.8650   26.9970 N   0  0  0  0  0  0
  -17.5240   -4.6500   25.6750 C   0  0  2  0  0  0
  -18.4590   -3.7250   24.9540 C   0  0  0  0  0  0
  -19.6590   -3.9860   24.8860 O   0  0  0  0  0  0
  -17.4650   -5.9520   24.8720 C   0  0  0  0  0  0
  -16.5460   -6.9350   25.5170 C   0  0  0  0  0  0
  -17.0340   -7.8460   26.4510 C   0  0  0  0  0  0
  -15.1770   -6.8330   25.2990 C   0  0  0  0  0  0
  -16.1260   -8.7200   27.1460 C   0  0  0  0  0  0
  -14.3070   -7.7160   25.9700 C   0  0  0  0  0  0
  -14.8060   -8.6290   26.8730 C   0  0  0  0  0  0
  -17.9030   -2.6580   24.4250 N   0  0  0  0  0  0
  -18.7430   -1.8990   23.5080 C   0  0  1  0  0  0
  -18.7020   -0.4130   23.9300 C   0  0  0  0  0  0
  -17.3510    0.0200   23.6940 O   0  0  0  0  0  0
  -18.2990   -2.0760   22.0590 C   0  0  0  0  0  0
  -17.3770   -2.8660   21.7280 O   0  0  0  0  0  0
  -17.0690    1.5640   24.1450 P   0  0  0  0  0  0
  -17.3260    1.6980   25.6490 O   0  0  0  0  0  0
  -17.8840    2.5150   23.2520 O   0  5  0  0  0  0
  -15.5270    1.7080   23.8090 O   0  5  0  0  0  0
  -18.9530   -1.3840   21.1390 N   0  0  0  0  0  0
  -18.7110   -1.6590   19.7340 C   0  0  2  0  0  0
  -17.2130   -1.3690   19.3530 C   0  0  0  0  0  0
  -16.6460   -0.3280   19.6770 O   0  0  0  0  0  0
  -19.6540   -0.7440   18.9360 C   0  0  0  0  0  0
  -19.4920   -0.8110   17.4720 C   0  0  0  0  0  0
  -20.1760    0.4110   16.8180 C   0  0  0  0  0  0
  -19.7160    1.5840   17.0120 O   0  5  0  0  0  0
  -21.1420    0.1620   16.0840 O   0  0  0  0  0  0
  -16.5700   -2.3220   18.6840 N   0  0  0  0  0  0
  -15.1330   -2.1450   18.4660 C   0  0  2  0  0  0
  -14.8400   -1.2200   17.2610 C   0  0  0  0  0  0
  -15.7560   -0.8080   16.5690 O   0  0  0  0  0  0
  -14.5940   -3.6020   18.3670 C   0  0  0  0  0  0
  -15.7850   -4.4020   17.8800 C   0  0  0  0  0  0
  -17.0770   -3.6760   18.3410 C   0  0  0  0  0  0
  -13.5730   -0.8430   17.0560 N   0  0  0  0  0  0
  -13.2270    0.0530   15.9590 C   0  0  2  0  0  0
  -11.8610   -0.3430   15.4430 C   0  0  0  0  0  0
  -11.1250   -1.0510   16.1560 O   0  0  0  0  0  0
  -13.1820    1.4870   16.4160 C   0  0  0  0  0  0
  -12.2830    1.7510   17.6300 C   0  0  0  0  0  0
  -12.8080    1.6080   18.9380 C   0  0  0  0  0  0
  -10.9630    2.2390   17.4720 C   0  0  0  0  0  0
  -12.0220    1.9090   20.0880 C   0  0  0  0  0  0
  -10.1480    2.5310   18.6000 C   0  0  0  0  0  0
  -10.6710    2.4190   19.9040 C   0  0  0  0  0  0
  -11.5120    0.2150   14.2830 N   0  0  0  0  0  0
  -10.5780   -0.4000   13.3430 C   0  0  0  0  0  0
  -11.4710   -0.6080   12.1140 C   0  0  0  0  0  0
  -11.1450   -0.1580   10.9860 O   0  0  0  0  0  0
  -12.5580   -1.2350   12.1950 O   0  5  0  0  0  0
  -15.3175   -1.9735   30.8051 H   0  0  0  0  0  0
  -14.4115   -2.0318   32.3551 H   0  0  0  0  0  0
  -16.1840   -2.3229   32.3393 H   0  0  0  0  0  0
  -14.0249   -4.0172   31.0816 H   0  0  0  0  0  0
  -14.4553   -4.0240   33.6639 H   0  0  0  0  0  0
  -15.8905   -5.0123   33.2281 H   0  0  0  0  0  0
  -14.3907   -6.6428   32.0900 H   0  0  0  0  0  0
  -12.9722   -5.6693   32.6064 H   0  0  0  0  0  0
  -13.7453   -5.9156   35.0106 H   0  0  0  0  0  0
  -15.0540   -7.0051   34.4391 H   0  0  0  0  0  0
  -12.4611   -8.0492   33.5153 H   0  0  0  0  0  0
  -14.5394   -7.4930   36.4811 H   0  0  0  0  0  0
  -13.7705   -8.9883   37.3772 H   0  0  0  0  0  0
  -11.5540   -9.7957   34.5834 H   0  0  0  0  0  0
  -17.4175   -3.0204   30.9983 H   0  0  0  0  0  0
  -18.2268   -5.4954   29.5869 H   0  0  0  0  0  0
  -19.2005   -2.5847   29.3083 H   0  0  0  0  0  0
  -20.0760   -4.0242   28.6855 H   0  0  0  0  0  0
  -20.9299   -3.3763   30.9785 H   0  0  0  0  0  0
  -18.8534   -5.5828   27.1603 H   0  0  0  0  0  0
  -16.5211   -4.2223   25.8209 H   0  0  0  0  0  0
  -18.4709   -6.3935   24.8149 H   0  0  0  0  0  0
  -17.0994   -5.7402   23.8564 H   0  0  0  0  0  0
  -18.1034   -7.8969   26.6555 H   0  0  0  0  0  0
  -14.7812   -6.0797   24.6178 H   0  0  0  0  0  0
  -16.4952   -9.4396   27.8767 H   0  0  0  0  0  0
  -13.2356   -7.6763   25.7737 H   0  0  0  0  0  0
  -14.1140   -9.2990   27.3832 H   0  0  0  0  0  0
  -16.8756   -2.3248   24.6335 H   0  0  0  0  0  0
  -19.7560   -2.3195   23.5921 H   0  0  0  0  0  0
  -19.4181    0.1604   23.3231 H   0  0  0  0  0  0
  -18.9704   -0.3262   24.9932 H   0  0  0  0  0  0
  -19.6743   -0.6066   21.4310 H   0  0  0  0  0  0
  -18.9361   -2.7234   19.5715 H   0  0  0  0  0  0
  -20.6979   -1.0161   19.1512 H   0  0  0  0  0  0
  -19.4809    0.3030   19.2255 H   0  0  0  0  0  0
  -18.4210   -0.8080   17.2211 H   0  0  0  0  0  0
  -19.9546   -1.7346   17.0938 H   0  0  0  0  0  0
  -14.6680   -1.6000   19.3007 H   0  0  0  0  0  0
  -13.7546   -3.6349   17.6568 H   0  0  0  0  0  0
  -14.2494   -3.9336   19.3576 H   0  0  0  0  0  0
  -15.7588   -4.4671   16.7822 H   0  0  0  0  0  0
  -15.7466   -5.4144   18.3084 H   0  0  0  0  0  0
  -17.5324   -4.1335   19.2317 H   0  0  0  0  0  0
  -17.8313   -3.5942   17.5446 H   0  0  0  0  0  0
  -12.7874   -1.2182   17.7283 H   0  0  0  0  0  0
  -14.0112   -0.0516   15.1947 H   0  0  0  0  0  0
  -12.8040    2.1202   15.5998 H   0  0  0  0  0  0
  -14.1941    1.8147   16.6957 H   0  0  0  0  0  0
  -13.8332    1.2610   19.0673 H   0  0  0  0  0  0
  -10.5651    2.3933   16.4690 H   0  0  0  0  0  0
  -12.4259    1.7597   21.0893 H   0  0  0  0  0  0
   -9.1137    2.8430   18.4555 H   0  0  0  0  0  0
  -10.0704    2.7111   20.7654 H   0  0  0  0  0  0
  -11.9669    1.1887   14.0487 H   0  0  0  0  0  0
   -9.7382    0.2861   13.1588 H   0  0  0  0  0  0
  -10.1968   -1.3405   13.7673 H   0  0  0  0  0  0
  -12.1409  -10.2441   36.3396 H   0  0  0  0  0  0
  1  2  1  0  0  0
  1 71  1  0  0  0
  1 72  1  0  0  0
  1 73  1  0  0  0
  2  3  1  0  0  0
  2  5  1  0  0  0
  2 74  1  0  0  0
  3  4  2  0  0  0
  3 12  1  0  0  0
  5  6  1  0  0  0
  5 75  1  0  0  0
  5 76  1  0  0  0
  6  7  1  0  0  0
  6 77  1  0  0  0
  6 78  1  0  0  0
  7  8  1  0  0  0
  7 79  1  0  0  0
  7 80  1  0  0  0
  8  9  1  0  0  0
  8 81  1  0  0  0
  9 10  1  0  0  0
  9 11  2  0  0  0
 10 82  1  0  0  0
 10 83  1  0  0  0
 11 84  1  0  0  0
 11128  1  0  0  0
 12 13  1  0  0  0
 12 85  1  0  0  0
 13 14  1  0  0  0
 13 16  1  0  0  0
 13 86  1  0  0  0
 14 15  2  0  0  0
 14 18  1  0  0  0
 16 17  1  0  0  0
 16 87  1  0  0  0
 16 88  1  0  0  0
 17 89  1  0  0  0
 18 19  1  0  0  0
 18 90  1  0  0  0
 19 20  1  0  0  0
 19 22  1  0  0  0
 19 91  1  0  0  0
 20 21  2  0  0  0
 20 29  1  0  0  0
 22 23  1  0  0  0
 22 92  1  0  0  0
 22 93  1  0  0  0
 23 24  2  0  0  0
 23 25  1  0  0  0
 24 26  1  0  0  0
 24 94  1  0  0  0
 25 27  2  0  0  0
 25 95  1  0  0  0
 26 28  2  0  0  0
 26 96  1  0  0  0
 27 28  1  0  0  0
 27 97  1  0  0  0
 28 98  1  0  0  0
 29 30  1  0  0  0
 29 99  1  0  0  0
 30 31  1  0  0  0
 30 33  1  0  0  0
 30100  1  0  0  0
 31 32  1  0  0  0
 31101  1  0  0  0
 31102  1  0  0  0
 32 35  1  0  0  0
 33 34  2  0  0  0
 33 39  1  0  0  0
 35 36  2  0  0  0
 35 37  1  0  0  0
 35 38  1  0  0  0
 39 40  1  0  0  0
 39103  1  0  0  0
 40 41  1  0  0  0
 40 43  1  0  0  0
 40104  1  0  0  0
 41 42  2  0  0  0
 41 48  1  0  0  0
 43 44  1  0  0  0
 43105  1  0  0  0
 43106  1  0  0  0
 44 45  1  0  0  0
 44107  1  0  0  0
 44108  1  0  0  0
 45 46  1  0  0  0
 45 47  2  0  0  0
 48 49  1  0  0  0
 48 54  1  0  0  0
 49 50  1  0  0  0
 49 52  1  0  0  0
 49109  1  0  0  0
 50 51  2  0  0  0
 50 55  1  0  0  0
 52 53  1  0  0  0
 52110  1  0  0  0
 52111  1  0  0  0
 53 54  1  0  0  0
 53112  1  0  0  0
 53113  1  0  0  0
 54114  1  0  0  0
 54115  1  0  0  0
 55 56  1  0  0  0
 55116  1  0  0  0
 56 57  1  0  0  0
 56 59  1  0  0  0
 56117  1  0  0  0
 57 58  2  0  0  0
 57 66  1  0  0  0
 59 60  1  0  0  0
 59118  1  0  0  0
 59119  1  0  0  0
 60 61  2  0  0  0
 60 62  1  0  0  0
 61 63  1  0  0  0
 61120  1  0  0  0
 62 64  2  0  0  0
 62121  1  0  0  0
 63 65  2  0  0  0
 63122  1  0  0  0
 64 65  1  0  0  0
 64123  1  0  0  0
 65124  1  0  0  0
 66 67  1  0  0  0
 66125  1  0  0  0
 67 68  1  0  0  0
 67126  1  0  0  0
 67127  1  0  0  0
 68 69  2  0  0  0
 68 70  1  0  0  0
M  CHG  6   1   1  11   1  37  -1  38  -1  46  -1  70  -1
M  END
> <s_m_source_file>
../3ual_ligand.sdf

> <i_m_source_file_index>
1

> <s_epik_input>
W0hdL049QyhbTkgyXSlcW05IXVtDSDJdW0NIMl1bQ0gyXVtDQEhdKFtOSDMrXSlDKD1PKVtOSF1bQ0BASF0oW0NIMl1bT0hdKUMoPU8pW05IXVtDQEBIXShbQ0gyXWMxW2NIXVtjSF1bY0hdW2NIXVtjSF0xKUMoPU8pW05IXVtDQEBIXShbQ0gyXU9QKD1PKShbT0hdKVtPSF0pQyg9TylbTkhdW0NAQEhdKFtDSDJdW0NIMl1DKD1PKVtPSF0pQyg9TylOMltDQEBIXShbQ0gyXVtDSDJdW0NIMl0yKUMoPU8pW05IXVtDQEhdKEMoPU8pW05IXVtDSDJdQyg9TylbT0hdKVtDSDJdYzNbY0hdW2NIXVtjSF1bY0hdW2NIXTM=

> <s_epik_cmdline>
J2VwaWtfYXBwJywgJy1pbWFlJywgJ2xpZ2FuZF9wcm8ubWFlJywgJy1vbWFlJywgJ2xpZ2FuZF9wcmVwLm1hZScsICctbXMnLCAnMScsICctcGgnLCAnNycsICctcGh0JywgJzAuNScsICctbnQn

> <r_epik_Ionization_Penalty>
  0.2352

> <r_epik_Ionization_Penalty_Charging>
  0.2352

> <r_epik_Ionization_Penalty_Neutral>
  0.0000

> <r_epik_State_Penalty>
  0.1984

> <r_epik_Charging_Adjusted_Penalty>
0.433620735048863

> <i_epik_Tot_Q>
-2

> <i_epik_Tot_abs_Q>
6

> <s_epik_Chemistry_Notes>
This compound has an imine and may undergo hydrolysis.

$$$$
