3uat_ligand
                    3D
 Schrodinger Suite 2020-3.
259259  0  0  1  0            999 V2000
  -20.7100   -5.2770   10.5750 N   0  3  0  0  0  0
  -19.4150   -4.6800   10.8870 C   0  0  2  0  0  0
  -18.4080   -5.7270   11.3580 C   0  0  0  0  0  0
  -18.7900   -6.7980   11.8280 O   0  0  0  0  0  0
  -19.5780   -3.5780   11.9350 C   0  0  0  0  0  0
  -20.2070   -2.3130   11.3830 C   0  0  0  0  0  0
  -19.2700   -1.6050   10.4130 C   0  0  0  0  0  0
  -18.5460   -0.4580   10.9730 N   0  0  0  0  0  0
  -18.6740    0.0260   12.2090 C   0  0  0  0  0  0
  -19.5040   -0.5190   13.0860 N   0  0  0  0  0  0
  -17.9570    1.0770   12.5750 N   0  0  0  0  0  0
  -17.1200   -5.4170   11.2280 N   0  0  0  0  0  0
  -16.6780   -4.1350   10.6890 C   0  0  2  0  0  0
  -16.2360   -4.2710    9.2390 C   0  0  0  0  0  0
  -15.2080   -4.8830    8.9530 O   0  0  0  0  0  0
  -15.5360   -3.5750   11.5360 C   0  0  0  0  0  0
  -15.9180   -3.3020   12.9780 C   0  0  0  0  0  0
  -14.6860   -3.0930   13.8390 C   0  0  0  0  0  0
  -15.0210   -2.7370   15.2160 N   0  0  0  0  0  0
  -15.1990   -3.6160   16.1990 C   0  0  0  0  0  0
  -15.0790   -4.9160   15.9640 N   0  0  0  0  0  0
  -15.4980   -3.1950   17.4220 N   0  0  0  0  0  0
  -17.0100   -3.6890    8.3280 N   0  0  0  0  0  0
  -16.7320   -3.8190    6.9030 C   0  0  2  0  0  0
  -15.4170   -3.1600    6.4980 C   0  0  0  0  0  0
  -14.5890   -3.7740    5.8280 O   0  0  0  0  0  0
  -17.8820   -3.2500    6.0680 C   0  0  0  0  0  0
  -17.6640   -3.3600    4.5900 C   0  0  0  0  0  0
  -17.7550   -4.5550    3.9100 N   0  0  0  0  0  0
  -17.3510   -2.4230    3.6630 C   0  0  0  0  0  0
  -17.5120   -4.3510    2.6280 C   0  0  0  0  0  0
  -17.2630   -3.0650    2.4510 N   0  0  0  0  0  0
  -15.2280   -1.9090    6.9050 N   0  0  0  0  0  0
  -14.0440   -1.1530    6.5030 C   0  0  1  0  0  0
  -14.0510    0.2360    7.1340 C   0  0  0  0  0  0
  -15.1510    0.9790    6.6570 O   0  0  0  0  0  0
  -12.7470   -1.8730    6.8440 C   0  0  0  0  0  0
  -11.7740   -1.7910    6.0990 O   0  0  0  0  0  0
  -16.0070    1.4940    7.9100 P   0  0  0  0  0  0
  -17.4350    2.0100    7.3710 O   0  0  0  0  0  0
  -16.2050    0.2950    8.9720 O   0  0  0  0  0  0
  -15.1950    2.6920    8.6130 O   0  0  0  0  0  0
  -12.7350   -2.5740    7.9710 N   0  0  0  0  0  0
  -11.5600   -3.3370    8.3680 C   0  0  2  0  0  0
  -11.4010   -4.5790    7.4890 C   0  0  0  0  0  0
  -10.2810   -5.0060    7.2070 O   0  0  0  0  0  0
  -11.6300   -3.7310    9.8490 C   0  0  0  0  0  0
  -11.7260   -2.5590   10.8270 C   0  0  0  0  0  0
  -10.3160   -1.4230   10.8200 S   0  0  0  0  0  0
   -8.9820   -2.4530   11.4190 C   0  0  0  0  0  0
  -12.5210   -5.1530    7.0560 N   0  0  0  0  0  0
  -12.4890   -6.3290    6.1870 C   0  0  2  0  0  0
  -11.6990   -6.0430    4.9120 C   0  0  0  0  0  0
  -10.9960   -6.9130    4.3980 O   0  0  0  0  0  0
  -13.9080   -6.7930    5.8420 C   0  0  0  0  0  0
  -11.8270   -4.8190    4.4070 N   0  0  0  0  0  0
  -11.0730   -4.3810    3.2390 C   0  0  2  0  0  0
  -10.2140   -3.1640    3.5420 C   0  0  0  0  0  0
  -10.7320   -2.0670    3.7300 O   0  0  0  0  0  0
  -12.0260   -4.0440    2.0970 C   0  0  0  0  0  0
  -13.4590   -4.4060    2.4110 C   0  0  0  0  0  0
  -14.1430   -3.6990    3.1510 O   0  0  0  0  0  0
  -13.9260   -5.5120    1.8450 N   0  0  0  0  0  0
   -8.9000   -3.3510    3.5560 N   0  0  0  0  0  0
   -7.9700   -2.2630    3.8340 C   0  0  2  0  0  0
   -6.7300   -2.3870    2.9700 C   0  0  0  0  0  0
   -6.2720   -3.4920    2.6930 O   0  0  0  0  0  0
   -7.5270   -2.2890    5.2980 C   0  0  0  0  0  0
   -8.4710   -1.8080    6.3950 C   0  0  0  0  0  0
   -7.7120   -1.7380    7.7060 C   0  0  0  0  0  0
   -9.0370   -0.4490    6.0410 C   0  0  0  0  0  0
   -6.1710   -1.2540    2.5600 N   0  0  0  0  0  0
   -4.8620   -1.2740    1.9330 C   0  0  2  0  0  0
   -3.8440   -1.0510    3.0340 C   0  0  0  0  0  0
   -3.7070    0.0570    3.5540 O   0  0  0  0  0  0
   -4.7410   -0.1750    0.8780 C   0  0  0  0  0  0
   -5.4190   -0.4910   -0.4430 C   0  0  0  0  0  0
   -5.2920    0.6430   -1.4450 C   0  0  0  0  0  0
   -5.1470    1.8070   -1.0130 O   0  0  0  0  0  0
   -5.3340    0.3710   -2.6640 O   0  0  0  0  0  0
   -3.1100   -2.1050    3.3710 N   0  0  0  0  0  0
   -2.1850   -2.0520    4.4930 C   0  0  2  0  0  0
   -0.9750   -1.1920    4.1770 C   0  0  0  0  0  0
   -0.5590   -1.0860    3.0230 O   0  0  0  0  0  0
   -1.7310   -3.4580    4.8850 C   0  0  0  0  0  0
   -2.8210   -4.3870    5.4200 C   0  0  0  0  0  0
   -2.2090   -5.6960    5.8710 C   0  0  0  0  0  0
   -3.5790   -3.7220    6.5590 C   0  0  0  0  0  0
   -0.4130   -0.5810    5.2110 N   0  0  0  0  0  0
    0.8060    0.1960    5.0600 C   0  0  2  0  0  0
    1.9700   -0.5070    5.7340 C   0  0  0  0  0  0
    1.8260   -1.0620    6.8220 O   0  0  0  0  0  0
    0.6350    1.5890    5.6610 C   0  0  0  0  0  0
   -0.2950    2.4980    4.8860 C   0  0  0  0  0  0
   -0.8740    3.8590    5.9130 S   0  0  0  0  0  0
    0.6810    4.5050    6.5390 C   0  0  0  0  0  0
    3.1220   -0.4890    5.0750 N   0  0  0  0  0  0
    4.3450   -0.9810    5.6810 C   0  0  2  0  0  0
    4.6290   -0.1290    6.9090 C   0  0  0  0  0  0
    4.3010    1.0620    6.9390 O   0  0  0  0  0  0
    5.5140   -0.8890    4.6970 C   0  0  0  0  0  0
    6.2150   -2.2110    4.4190 C   0  0  0  0  0  0
    7.7270   -2.0200    4.3570 C   0  0  0  0  0  0
    8.4370   -3.2500    3.8060 C   0  0  0  0  0  0
    8.2160   -3.4160    2.3390 N   0  3  0  0  0  0
    5.2310   -0.7380    7.9250 N   0  0  0  0  0  0
    5.5670   -0.0120    9.1440 C   0  0  2  0  0  0
    7.0670   -0.0720    9.4260 C   0  0  0  0  0  0
    7.7760   -0.9310    8.8970 O   0  0  0  0  0  0
    4.7720   -0.5450   10.3430 C   0  0  0  0  0  0
    3.2530   -0.7070   10.1880 C   0  0  0  0  0  0
    2.6060   -0.9820   11.5380 C   0  0  0  0  0  0
    2.6180    0.5140    9.5280 C   0  0  0  0  0  0
    7.5430    0.8510   10.2540 N   0  0  0  0  0  0
    8.9590    0.9160   10.5980 C   0  0  2  0  0  0
    9.3480   -0.2210   11.5390 C   0  0  0  0  0  0
    8.5320   -0.6470   12.3630 O   0  0  0  0  0  0
    9.3090    2.2700   11.2440 C   0  0  2  0  0  0
    9.2290    3.3060   10.2550 O   0  0  0  0  0  0
   10.7110    2.2410   11.8330 C   0  0  0  0  0  0
   10.5900   -0.7250   11.4100 N   0  0  0  0  0  0
   11.0910   -1.7890   12.2830 C   0  0  2  0  0  0
   10.8980   -1.4250   13.7510 C   0  0  0  0  0  0
   11.8900   -1.1530   14.4390 O   0  0  0  0  0  0
   12.5770   -1.8450   11.9370 C   0  0  0  0  0  0
    9.7442   -1.4014   14.2567 O   0  0  0  0  0  0
  -20.5775   -6.0668    9.8210 H   0  0  0  0  0  0
  -21.3850   -4.5031   10.1807 H   0  0  0  0  0  0
  -21.1433   -5.7109   11.4882 H   0  0  0  0  0  0
  -19.0601   -4.2535    9.9372 H   0  0  0  0  0  0
  -20.2221   -3.9396   12.7501 H   0  0  0  0  0  0
  -18.5914   -3.3079   12.3396 H   0  0  0  0  0  0
  -21.1348   -2.5675   10.8496 H   0  0  0  0  0  0
  -20.4367   -1.6262   12.2110 H   0  0  0  0  0  0
  -18.5082   -2.3136   10.0559 H   0  0  0  0  0  0
  -19.8471   -1.2250    9.5571 H   0  0  0  0  0  0
  -17.8179    0.0878   10.3550 H   0  0  0  0  0  0
  -20.1086   -1.3928   12.8016 H   0  0  0  0  0  0
  -19.5885   -0.0977   14.0986 H   0  0  0  0  0  0
  -17.2621    1.5441   11.8617 H   0  0  0  0  0  0
  -16.3787   -6.1661   11.5432 H   0  0  0  0  0  0
  -17.5566   -3.4749   10.7382 H   0  0  0  0  0  0
  -14.7034   -4.2937   11.5500 H   0  0  0  0  0  0
  -15.1918   -2.6235   11.1044 H   0  0  0  0  0  0
  -16.5397   -2.3959   13.0274 H   0  0  0  0  0  0
  -16.4842   -4.1572   13.3755 H   0  0  0  0  0  0
  -14.0938   -4.0197   13.8628 H   0  0  0  0  0  0
  -14.0774   -2.2797   13.4170 H   0  0  0  0  0  0
  -15.1424   -1.6804   15.4969 H   0  0  0  0  0  0
  -14.8314   -5.2716   14.9529 H   0  0  0  0  0  0
  -15.5990   -2.1184   17.6237 H   0  0  0  0  0  0
  -15.6448   -3.9228   18.2337 H   0  0  0  0  0  0
  -17.8746   -3.1001    8.6682 H   0  0  0  0  0  0
  -16.6416   -4.9052    6.7550 H   0  0  0  0  0  0
  -18.8095   -3.7923    6.3037 H   0  0  0  0  0  0
  -18.0118   -2.1829    6.3016 H   0  0  0  0  0  0
  -17.1747   -1.3390    3.7253 H   0  0  0  0  0  0
  -17.5161   -5.1132    1.8488 H   0  0  0  0  0  0
  -15.9828   -1.4438    7.5561 H   0  0  0  0  0  0
  -14.1284   -1.0837    5.4084 H   0  0  0  0  0  0
  -14.1258    0.1416    8.2274 H   0  0  0  0  0  0
  -13.1202    0.7615    6.8741 H   0  0  0  0  0  0
  -18.1161    1.3116    6.8628 H   0  0  0  0  0  0
  -16.7408   -0.6190    8.6761 H   0  0  0  0  0  0
  -13.6312   -2.5727    8.6088 H   0  0  0  0  0  0
  -10.7118   -2.6552    8.2079 H   0  0  0  0  0  0
  -12.5180   -4.3571   10.0202 H   0  0  0  0  0  0
  -10.7257   -4.2949   10.1216 H   0  0  0  0  0  0
  -12.6135   -1.9544   10.5887 H   0  0  0  0  0  0
  -11.8097   -2.9443   11.8539 H   0  0  0  0  0  0
   -8.0540   -1.8639   11.4600 H   0  0  0  0  0  0
   -8.8445   -3.3069   10.7393 H   0  0  0  0  0  0
   -9.2272   -2.8216   12.4260 H   0  0  0  0  0  0
  -13.4854   -4.7240    7.3656 H   0  0  0  0  0  0
  -11.9745   -7.1059    6.7716 H   0  0  0  0  0  0
  -14.4635   -6.9947    6.7697 H   0  0  0  0  0  0
  -13.8569   -7.7111    5.2382 H   0  0  0  0  0  0
  -14.4222   -6.0063    5.2704 H   0  0  0  0  0  0
  -12.5284   -4.1293    4.8992 H   0  0  0  0  0  0
  -10.4251   -5.2337    2.9876 H   0  0  0  0  0  0
  -11.9871   -2.9636    1.8937 H   0  0  0  0  0  0
  -11.7274   -4.5978    1.1947 H   0  0  0  0  0  0
  -13.2761   -6.1115    1.1906 H   0  0  0  0  0  0
  -14.9629   -5.8291    2.0303 H   0  0  0  0  0  0
   -8.5182   -4.3618    3.3499 H   0  0  0  0  0  0
   -8.5280   -1.3456    3.5954 H   0  0  0  0  0  0
   -7.2882   -3.3222    5.5905 H   0  0  0  0  0  0
   -6.6351   -1.6573    5.4225 H   0  0  0  0  0  0
   -9.3121   -2.5093    6.4986 H   0  0  0  0  0  0
   -7.3075   -2.7317    7.9490 H   0  0  0  0  0  0
   -8.3926   -1.4133    8.5068 H   0  0  0  0  0  0
   -6.8853   -1.0183    7.6131 H   0  0  0  0  0  0
   -9.5839   -0.5163    5.0890 H   0  0  0  0  0  0
   -8.2155    0.2757    5.9416 H   0  0  0  0  0  0
   -9.7228   -0.1192    6.8353 H   0  0  0  0  0  0
   -6.7012   -0.2998    2.6961 H   0  0  0  0  0  0
   -4.7382   -2.2510    1.4430 H   0  0  0  0  0  0
   -5.1984    0.7503    1.2583 H   0  0  0  0  0  0
   -3.6787    0.0053    0.6565 H   0  0  0  0  0  0
   -4.9604   -1.3878   -0.8852 H   0  0  0  0  0  0
   -6.4900   -0.6737   -0.2710 H   0  0  0  0  0  0
   -5.0525    2.6471   -1.7168 H   0  0  0  0  0  0
   -3.2108   -3.0302    2.7846 H   0  0  0  0  0  0
   -2.7599   -1.5860    5.3068 H   0  0  0  0  0  0
   -1.3021   -3.9629    4.0069 H   0  0  0  0  0  0
   -0.9705   -3.3903    5.6769 H   0  0  0  0  0  0
   -3.5401   -4.6041    4.6164 H   0  0  0  0  0  0
   -1.6676   -6.1562    5.0313 H   0  0  0  0  0  0
   -3.0049   -6.3752    6.2104 H   0  0  0  0  0  0
   -1.5097   -5.5078    6.6990 H   0  0  0  0  0  0
   -4.0133   -2.7748    6.2066 H   0  0  0  0  0  0
   -2.8883   -3.5215    7.3913 H   0  0  0  0  0  0
   -4.3835   -4.3889    6.9027 H   0  0  0  0  0  0
   -0.8887   -0.6715    6.1987 H   0  0  0  0  0  0
    0.9779    0.2622    3.9755 H   0  0  0  0  0  0
    0.2231    1.5018    6.6772 H   0  0  0  0  0  0
    1.6121    2.0926    5.7033 H   0  0  0  0  0  0
    0.2378    2.9137    4.0181 H   0  0  0  0  0  0
   -1.1663    1.9224    4.5402 H   0  0  0  0  0  0
    0.4827    5.3626    7.1987 H   0  0  0  0  0  0
    1.3095    4.8284    5.6962 H   0  0  0  0  0  0
    1.2028    3.7196    7.1054 H   0  0  0  0  0  0
    3.1377   -0.0909    4.0497 H   0  0  0  0  0  0
    4.1762   -2.0350    5.9467 H   0  0  0  0  0  0
    5.1503   -0.5118    3.7298 H   0  0  0  0  0  0
    6.2755   -0.2024    5.0954 H   0  0  0  0  0  0
    5.9806   -2.9261    5.2213 H   0  0  0  0  0  0
    5.8688   -2.6142    3.4559 H   0  0  0  0  0  0
    7.9623   -1.1669    3.7037 H   0  0  0  0  0  0
    8.1137   -1.8251    5.3682 H   0  0  0  0  0  0
    9.5191   -3.1579    3.9811 H   0  0  0  0  0  0
    8.0587   -4.1497    4.3133 H   0  0  0  0  0  0
    8.7458   -4.3137    1.9877 H   0  0  0  0  0  0
    8.5999   -2.5324    1.8081 H   0  0  0  0  0  0
    7.1395   -3.5242    2.1403 H   0  0  0  0  0  0
    5.4759   -1.8067    7.8361 H   0  0  0  0  0  0
    5.2759    1.0285    8.9373 H   0  0  0  0  0  0
    5.1397   -1.5466   10.6107 H   0  0  0  0  0  0
    4.9005    0.1337   11.1991 H   0  0  0  0  0  0
    3.0686   -1.5693    9.5304 H   0  0  0  0  0  0
    3.0763   -1.8640   11.9971 H   0  0  0  0  0  0
    1.5314   -1.1706   11.3979 H   0  0  0  0  0  0
    2.7427   -0.1101   12.1945 H   0  0  0  0  0  0
    3.0981    0.6962    8.5552 H   0  0  0  0  0  0
    2.7548    1.3931   10.1749 H   0  0  0  0  0  0
    1.5434    0.3326    9.3783 H   0  0  0  0  0  0
    6.8387    1.5786   10.6836 H   0  0  0  0  0  0
    9.4821    0.7985    9.6375 H   0  0  0  0  0  0
    8.5814    2.5298   12.0270 H   0  0  0  0  0  0
    8.2861    3.4802    9.7160 H   0  0  0  0  0  0
   10.7736    1.4469   12.5916 H   0  0  0  0  0  0
   10.9328    3.2121   12.2996 H   0  0  0  0  0  0
   11.4404    2.0430   11.0338 H   0  0  0  0  0  0
   11.2344   -0.3132   10.6194 H   0  0  0  0  0  0
   10.5477   -2.7301   12.1122 H   0  0  0  0  0  0
   12.6967   -2.1086   10.8758 H   0  0  0  0  0  0
   13.0705   -2.6044   12.5613 H   0  0  0  0  0  0
   13.0344   -0.8624   12.1246 H   0  0  0  0  0  0
    9.6135   -1.1378   15.3166 H   0  0  0  0  0  0
  1  2  1  0  0  0
  1127  1  0  0  0
  1128  1  0  0  0
  1129  1  0  0  0
  2  3  1  0  0  0
  2  5  1  0  0  0
  2130  1  0  0  0
  3  4  2  0  0  0
  3 12  1  0  0  0
  5  6  1  0  0  0
  5131  1  0  0  0
  5132  1  0  0  0
  6  7  1  0  0  0
  6133  1  0  0  0
  6134  1  0  0  0
  7  8  1  0  0  0
  7135  1  0  0  0
  7136  1  0  0  0
  8  9  1  0  0  0
  8137  1  0  0  0
  9 10  1  0  0  0
  9 11  2  0  0  0
 10138  1  0  0  0
 10139  1  0  0  0
 11140  1  0  0  0
 12 13  1  0  0  0
 12141  1  0  0  0
 13 14  1  0  0  0
 13 16  1  0  0  0
 13142  1  0  0  0
 14 15  2  0  0  0
 14 23  1  0  0  0
 16 17  1  0  0  0
 16143  1  0  0  0
 16144  1  0  0  0
 17 18  1  0  0  0
 17145  1  0  0  0
 17146  1  0  0  0
 18 19  1  0  0  0
 18147  1  0  0  0
 18148  1  0  0  0
 19 20  1  0  0  0
 19149  1  0  0  0
 20 21  2  0  0  0
 20 22  1  0  0  0
 21150  1  0  0  0
 22151  1  0  0  0
 22152  1  0  0  0
 23 24  1  0  0  0
 23153  1  0  0  0
 24 25  1  0  0  0
 24 27  1  0  0  0
 24154  1  0  0  0
 25 26  2  0  0  0
 25 33  1  0  0  0
 27 28  1  0  0  0
 27155  1  0  0  0
 27156  1  0  0  0
 28 29  2  0  0  0
 28 30  1  0  0  0
 29 31  1  0  0  0
 30 32  2  0  0  0
 30157  1  0  0  0
 31 32  1  0  0  0
 31158  1  0  0  0
 33 34  1  0  0  0
 33159  1  0  0  0
 34 35  1  0  0  0
 34 37  1  0  0  0
 34160  1  0  0  0
 35 36  1  0  0  0
 35161  1  0  0  0
 35162  1  0  0  0
 36 39  1  0  0  0
 37 38  2  0  0  0
 37 43  1  0  0  0
 39 40  1  0  0  0
 39 41  1  0  0  0
 39 42  2  0  0  0
 40163  1  0  0  0
 41164  1  0  0  0
 43 44  1  0  0  0
 43165  1  0  0  0
 44 45  1  0  0  0
 44 47  1  0  0  0
 44166  1  0  0  0
 45 46  2  0  0  0
 45 51  1  0  0  0
 47 48  1  0  0  0
 47167  1  0  0  0
 47168  1  0  0  0
 48 49  1  0  0  0
 48169  1  0  0  0
 48170  1  0  0  0
 49 50  1  0  0  0
 50171  1  0  0  0
 50172  1  0  0  0
 50173  1  0  0  0
 51 52  1  0  0  0
 51174  1  0  0  0
 52 53  1  0  0  0
 52 55  1  0  0  0
 52175  1  0  0  0
 53 54  2  0  0  0
 53 56  1  0  0  0
 55176  1  0  0  0
 55177  1  0  0  0
 55178  1  0  0  0
 56 57  1  0  0  0
 56179  1  0  0  0
 57 58  1  0  0  0
 57 60  1  0  0  0
 57180  1  0  0  0
 58 59  2  0  0  0
 58 64  1  0  0  0
 60 61  1  0  0  0
 60181  1  0  0  0
 60182  1  0  0  0
 61 62  2  0  0  0
 61 63  1  0  0  0
 63183  1  0  0  0
 63184  1  0  0  0
 64 65  1  0  0  0
 64185  1  0  0  0
 65 66  1  0  0  0
 65 68  1  0  0  0
 65186  1  0  0  0
 66 67  2  0  0  0
 66 72  1  0  0  0
 68 69  1  0  0  0
 68187  1  0  0  0
 68188  1  0  0  0
 69 70  1  0  0  0
 69 71  1  0  0  0
 69189  1  0  0  0
 70190  1  0  0  0
 70191  1  0  0  0
 70192  1  0  0  0
 71193  1  0  0  0
 71194  1  0  0  0
 71195  1  0  0  0
 72 73  1  0  0  0
 72196  1  0  0  0
 73 74  1  0  0  0
 73 76  1  0  0  0
 73197  1  0  0  0
 74 75  2  0  0  0
 74 81  1  0  0  0
 76 77  1  0  0  0
 76198  1  0  0  0
 76199  1  0  0  0
 77 78  1  0  0  0
 77200  1  0  0  0
 77201  1  0  0  0
 78 79  1  0  0  0
 78 80  2  0  0  0
 79202  1  0  0  0
 81 82  1  0  0  0
 81203  1  0  0  0
 82 83  1  0  0  0
 82 85  1  0  0  0
 82204  1  0  0  0
 83 84  2  0  0  0
 83 89  1  0  0  0
 85 86  1  0  0  0
 85205  1  0  0  0
 85206  1  0  0  0
 86 87  1  0  0  0
 86 88  1  0  0  0
 86207  1  0  0  0
 87208  1  0  0  0
 87209  1  0  0  0
 87210  1  0  0  0
 88211  1  0  0  0
 88212  1  0  0  0
 88213  1  0  0  0
 89 90  1  0  0  0
 89214  1  0  0  0
 90 91  1  0  0  0
 90 93  1  0  0  0
 90215  1  0  0  0
 91 92  2  0  0  0
 91 97  1  0  0  0
 93 94  1  0  0  0
 93216  1  0  0  0
 93217  1  0  0  0
 94 95  1  0  0  0
 94218  1  0  0  0
 94219  1  0  0  0
 95 96  1  0  0  0
 96220  1  0  0  0
 96221  1  0  0  0
 96222  1  0  0  0
 97 98  1  0  0  0
 97223  1  0  0  0
 98 99  1  0  0  0
 98101  1  0  0  0
 98224  1  0  0  0
 99100  2  0  0  0
 99106  1  0  0  0
101102  1  0  0  0
101225  1  0  0  0
101226  1  0  0  0
102103  1  0  0  0
102227  1  0  0  0
102228  1  0  0  0
103104  1  0  0  0
103229  1  0  0  0
103230  1  0  0  0
104105  1  0  0  0
104231  1  0  0  0
104232  1  0  0  0
105233  1  0  0  0
105234  1  0  0  0
105235  1  0  0  0
106107  1  0  0  0
106236  1  0  0  0
107108  1  0  0  0
107110  1  0  0  0
107237  1  0  0  0
108109  2  0  0  0
108114  1  0  0  0
110111  1  0  0  0
110238  1  0  0  0
110239  1  0  0  0
111112  1  0  0  0
111113  1  0  0  0
111240  1  0  0  0
112241  1  0  0  0
112242  1  0  0  0
112243  1  0  0  0
113244  1  0  0  0
113245  1  0  0  0
113246  1  0  0  0
114115  1  0  0  0
114247  1  0  0  0
115116  1  0  0  0
115118  1  0  0  0
115248  1  0  0  0
116117  2  0  0  0
116121  1  0  0  0
118119  1  0  0  0
118120  1  0  0  0
118249  1  0  0  0
119250  1  0  0  0
120251  1  0  0  0
120252  1  0  0  0
120253  1  0  0  0
121122  1  0  0  0
121254  1  0  0  0
122123  1  0  0  0
122125  1  0  0  0
122255  1  0  0  0
123124  2  0  0  0
123126  1  0  0  0
125256  1  0  0  0
125257  1  0  0  0
125258  1  0  0  0
126259  1  0  0  0
M  CHG  2   1   1 105   1
M  END
> <s_m_source_file>
../3uat_ligand.sdf

> <i_m_source_file_index>
1

> <s_epik_input>
W0hdL049QyhbTkgyXSlcW05IXVtDSDJdW0NIMl1bQ0gyXVtDQEhdKFtOSDMrXSlDKD1PKVtOSF1bQ0BASF0oW0NIMl1bQ0gyXVtDSDJdW05IXS9DKD1OXFtIXSlbTkgyXSlDKD1PKVtOSF1bQ0BASF0oW0NIMl1DMT1OW0NIMl1OPVtDSF0xKUMoPU8pW05IXVtDQEBIXShbQ0gyXU9QKD1PKShbT0hdKVtPSF0pQyg9TylbTkhdW0NAQEhdKFtDSDJdW0NIMl1TW0NIM10pQyg9TylbTkhdW0NAQEhdKFtDSDNdKUMoPU8pW05IXVtDQEBIXShbQ0gyXUMoPU8pW05IMl0pQyg9TylbTkhdW0NAQEhdKFtDSDJdW0NIXShbQ0gzXSlbQ0gzXSlDKD1PKVtOSF1bQ0BASF0oW0NIMl1bQ0gyXUMoPU8pW09IXSlDKD1PKVtOSF1bQ0BASF0oW0NIMl1bQ0hdKFtDSDNdKVtDSDNdKUMoPU8pW05IXVtDQEBIXShbQ0gyXVtDSDJdU1tDSDNdKUMoPU8pW05IXVtDQEBIXShbQ0gyXVtDSDJdW0NIMl1bQ0gyXVtOSDMrXSlDKD1PKVtOSF1bQ0BASF0oW0NIMl1bQ0hdKFtDSDNdKVtDSDNdKUMoPU8pW05IXVtDQEBIXShbQ0BIXShbT0hdKVtDSDNdKUMoPU8pW05IXVtDQEBIXShbQ0gzXSlDKD1PKVtPSF0=

> <s_epik_cmdline>
J2VwaWtfYXBwJywgJy1pbWFlJywgJ2xpZ2FuZF9wcm8ubWFlJywgJy1vbWFlJywgJ2xpZ2FuZF9wcmVwLm1hZScsICctbXMnLCAnMScsICctcGgnLCAnNycsICctcGh0JywgJzAuNScsICctbnQn

> <s_epik_pKa_notes>
Molecule size exceeds maximum supported for generating protonation states

> <s_epik_Chemistry_Notes>
This compound has an imine and may undergo hydrolysis.

$$$$
