3ubx_ligand
                    3D
 Schrodinger Suite 2020-3.
137137  0  0  1  0            999 V2000
  -46.6610  -75.6700   45.1370 C   0  0  0  0  0  0
  -47.5460  -74.7120   44.3200 C   0  0  0  0  0  0
  -48.8210  -75.3850   43.7940 C   0  0  0  0  0  0
  -48.9270  -75.2100   42.2790 C   0  0  0  0  0  0
  -50.3700  -74.9460   41.8310 C   0  0  0  0  0  0
  -51.0200  -76.2100   41.2480 C   0  0  0  0  0  0
  -51.0920  -76.1620   39.7160 C   0  0  0  0  0  0
  -52.3410  -76.8770   39.1810 C   0  0  0  0  0  0
  -52.1480  -78.3960   39.0970 C   0  0  0  0  0  0
  -51.9020  -78.8680   37.6600 C   0  0  0  0  0  0
  -52.2490  -80.3580   37.5070 C   0  0  0  0  0  0
  -51.3540  -81.0820   36.4860 C   0  0  0  0  0  0
  -49.9770  -81.4590   37.0670 C   0  0  0  0  0  0
  -49.3610  -82.6530   36.3350 C   0  0  0  0  0  0
  -48.6830  -82.2470   35.0130 C   0  0  1  0  0  0
  -47.8870  -81.0910   35.2220 O   0  0  0  0  0  0
  -47.7650  -83.3360   34.4260 C   0  0  1  0  0  0
  -46.8160  -83.7660   35.4080 O   0  0  0  0  0  0
  -48.5170  -84.5630   33.8880 C   0  0  2  0  0  0
  -47.5520  -85.4580   33.1130 C   0  0  0  0  0  0
  -46.9680  -84.7270   32.0290 O   0  0  0  0  0  0
  -46.2780  -85.6180   31.1250 C   0  0  1  0  0  0
  -47.1860  -86.6000   30.5010 O   0  0  0  0  0  0
  -48.1030  -86.0970   29.4900 C   0  0  2  0  0  0
  -48.8500  -87.2860   28.8910 C   0  0  0  0  0  0
  -50.2460  -87.0230   28.9270 O   0  0  0  0  0  0
  -47.3500  -85.3210   28.4040 C   0  0  2  0  0  0
  -46.5150  -86.2130   27.6390 O   0  0  0  0  0  0
  -46.5220  -84.2150   29.0680 C   0  0  2  0  0  0
  -45.7930  -83.4780   28.1070 O   0  0  0  0  0  0
  -45.5320  -84.8090   30.0520 C   0  0  1  0  0  0
  -44.7770  -83.7500   30.6290 O   0  0  0  0  0  0
  -49.6520  -84.1540   33.0410 N   0  0  0  0  0  0
  -50.6720  -84.9540   32.7370 C   0  0  0  0  0  0
  -50.7570  -86.1310   33.0810 O   0  0  0  0  0  0
  -51.7680  -84.3140   31.8800 C   0  0  0  0  0  0
  -53.1690  -84.6830   32.3870 C   0  0  0  0  0  0
  -53.6610  -83.6990   33.4410 C   0  0  0  0  0  0
  -55.0720  -84.0670   33.9120 C   0  0  0  0  0  0
  -55.5110  -83.1880   35.0970 C   0  0  0  0  0  0
  -57.0330  -83.1710   35.2840 C   0  0  0  0  0  0
  -57.4660  -84.0120   36.4890 C   0  0  0  0  0  0
  -58.5300  -83.2930   37.3440 C   0  0  0  0  0  0
  -58.6530  -83.9230   38.7480 C   0  0  0  0  0  0
  -59.8910  -84.5420   38.9490 C   0  0  0  0  0  0
  -60.0920  -85.9310   39.0030 C   0  0  0  0  0  0
  -59.1000  -86.9040   38.8300 C   0  0  0  0  0  0
  -59.5010  -88.1260   39.3910 C   0  0  0  0  0  0
  -60.3790  -89.0640   38.8120 C   0  0  0  0  0  0
  -61.0050  -88.9140   37.5730 C   0  0  0  0  0  0
  -61.8220  -90.1510   37.1710 C   0  0  0  0  0  0
  -63.0920  -89.7340   36.4100 C   0  0  0  0  0  0
  -63.4180  -90.6430   35.2170 C   0  0  0  0  0  0
  -63.7430  -89.8100   33.9630 C   0  0  0  0  0  0
  -45.7659  -75.1343   45.4862 H   0  0  0  0  0  0
  -46.3577  -76.5178   44.5051 H   0  0  0  0  0  0
  -47.2268  -76.0426   46.0036 H   0  0  0  0  0  0
  -47.8493  -73.8642   44.9519 H   0  0  0  0  0  0
  -46.9802  -74.3394   43.4534 H   0  0  0  0  0  0
  -48.7929  -76.4590   44.0303 H   0  0  0  0  0  0
  -49.7005  -74.9276   44.2707 H   0  0  0  0  0  0
  -48.3080  -74.3569   41.9643 H   0  0  0  0  0  0
  -48.5736  -76.1237   41.7787 H   0  0  0  0  0  0
  -50.9668  -74.6144   42.6935 H   0  0  0  0  0  0
  -50.3766  -74.1635   41.0579 H   0  0  0  0  0  0
  -50.4304  -77.0924   41.5376 H   0  0  0  0  0  0
  -52.0438  -76.3090   41.6379 H   0  0  0  0  0  0
  -51.1249  -75.1141   39.3832 H   0  0  0  0  0  0
  -50.2043  -76.6538   39.2916 H   0  0  0  0  0  0
  -53.1920  -76.6773   39.8487 H   0  0  0  0  0  0
  -52.5719  -76.5058   38.1716 H   0  0  0  0  0  0
  -51.2809  -78.6897   39.7069 H   0  0  0  0  0  0
  -53.0494  -78.9016   39.4737 H   0  0  0  0  0  0
  -52.5301  -78.2853   36.9701 H   0  0  0  0  0  0
  -50.8424  -78.7227   37.4026 H   0  0  0  0  0  0
  -52.1273  -80.8642   38.4760 H   0  0  0  0  0  0
  -53.2908  -80.4590   37.1688 H   0  0  0  0  0  0
  -51.8474  -82.0089   36.1582 H   0  0  0  0  0  0
  -51.1864  -80.4287   35.6170 H   0  0  0  0  0  0
  -49.2920  -80.6036   36.9713 H   0  0  0  0  0  0
  -50.0871  -81.7236   38.1290 H   0  0  0  0  0  0
  -48.6005  -83.1232   36.9757 H   0  0  0  0  0  0
  -50.1476  -83.3856   36.1016 H   0  0  0  0  0  0
  -49.4733  -81.9884   34.2929 H   0  0  0  0  0  0
  -48.3398  -80.1796   35.6395 H   0  0  0  0  0  0
  -47.1904  -82.8834   33.6044 H   0  0  0  0  0  0
  -46.1753  -83.0285   35.9136 H   0  0  0  0  0  0
  -48.9627  -85.1305   34.7182 H   0  0  0  0  0  0
  -46.7543  -85.8060   33.7857 H   0  0  0  0  0  0
  -48.0976  -86.3249   32.7120 H   0  0  0  0  0  0
  -45.5927  -86.1955   31.7628 H   0  0  0  0  0  0
  -48.7962  -85.4091   29.9962 H   0  0  0  0  0  0
  -48.5279  -87.4346   27.8498 H   0  0  0  0  0  0
  -48.6284  -88.1908   29.4760 H   0  0  0  0  0  0
  -50.9561  -87.7671   28.5371 H   0  0  0  0  0  0
  -48.0384  -84.8958   27.6588 H   0  0  0  0  0  0
  -46.9640  -87.0612   27.1014 H   0  0  0  0  0  0
  -47.1932  -83.4895   29.5509 H   0  0  0  0  0  0
  -46.3223  -82.9602   27.2935 H   0  0  0  0  0  0
  -44.7906  -85.4469   29.5486 H   0  0  0  0  0  0
  -43.9989  -83.9718   31.3743 H   0  0  0  0  0  0
  -49.6872  -83.1376   32.6217 H   0  0  0  0  0  0
  -51.6648  -83.2193   31.9104 H   0  0  0  0  0  0
  -51.6716  -84.6626   30.8412 H   0  0  0  0  0  0
  -53.8776  -84.6738   31.5457 H   0  0  0  0  0  0
  -53.1442  -85.6876   32.8345 H   0  0  0  0  0  0
  -52.9819  -83.7185   34.3062 H   0  0  0  0  0  0
  -53.6825  -82.6852   33.0146 H   0  0  0  0  0  0
  -55.7837  -83.9226   33.0858 H   0  0  0  0  0  0
  -55.0892  -85.1196   34.2310 H   0  0  0  0  0  0
  -55.0603  -83.5711   36.0244 H   0  0  0  0  0  0
  -55.1791  -82.1529   34.9285 H   0  0  0  0  0  0
  -57.3711  -82.1367   35.4447 H   0  0  0  0  0  0
  -57.5175  -83.5797   34.3850 H   0  0  0  0  0  0
  -57.8931  -84.9630   36.1379 H   0  0  0  0  0  0
  -56.5932  -84.2154   37.1269 H   0  0  0  0  0  0
  -58.2522  -82.2352   37.4617 H   0  0  0  0  0  0
  -59.5084  -83.3619   36.8460 H   0  0  0  0  0  0
  -57.8685  -84.6829   38.8789 H   0  0  0  0  0  0
  -58.5368  -83.1406   39.5124 H   0  0  0  0  0  0
  -60.7439  -83.8578   39.0691 H   0  0  0  0  0  0
  -61.0973  -86.3342   39.1949 H   0  0  0  0  0  0
  -58.9131  -87.0502   37.7559 H   0  0  0  0  0  0
  -58.1730  -86.5741   39.3219 H   0  0  0  0  0  0
  -59.0590  -88.3232   40.3788 H   0  0  0  0  0  0
  -60.6151  -89.9975   39.3437 H   0  0  0  0  0  0
  -61.6900  -88.0541   37.6100 H   0  0  0  0  0  0
  -60.2448  -88.7441   36.7963 H   0  0  0  0  0  0
  -61.2130  -90.7977   36.5223 H   0  0  0  0  0  0
  -62.1132  -90.7075   38.0741 H   0  0  0  0  0  0
  -63.9546  -89.7642   37.0919 H   0  0  0  0  0  0
  -62.9677  -88.7126   36.0210 H   0  0  0  0  0  0
  -62.5529  -91.2865   34.9992 H   0  0  0  0  0  0
  -64.2888  -91.2694   35.4605 H   0  0  0  0  0  0
  -63.9725  -90.4840   33.1245 H   0  0  0  0  0  0
  -62.8763  -89.1841   33.7038 H   0  0  0  0  0  0
  -64.6123  -89.1670   34.1651 H   0  0  0  0  0  0
  1  2  1  0  0  0
  1 55  1  0  0  0
  1 56  1  0  0  0
  1 57  1  0  0  0
  2  3  1  0  0  0
  2 58  1  0  0  0
  2 59  1  0  0  0
  3  4  1  0  0  0
  3 60  1  0  0  0
  3 61  1  0  0  0
  4  5  1  0  0  0
  4 62  1  0  0  0
  4 63  1  0  0  0
  5  6  1  0  0  0
  5 64  1  0  0  0
  5 65  1  0  0  0
  6  7  1  0  0  0
  6 66  1  0  0  0
  6 67  1  0  0  0
  7  8  1  0  0  0
  7 68  1  0  0  0
  7 69  1  0  0  0
  8  9  1  0  0  0
  8 70  1  0  0  0
  8 71  1  0  0  0
  9 10  1  0  0  0
  9 72  1  0  0  0
  9 73  1  0  0  0
 10 11  1  0  0  0
 10 74  1  0  0  0
 10 75  1  0  0  0
 11 12  1  0  0  0
 11 76  1  0  0  0
 11 77  1  0  0  0
 12 13  1  0  0  0
 12 78  1  0  0  0
 12 79  1  0  0  0
 13 14  1  0  0  0
 13 80  1  0  0  0
 13 81  1  0  0  0
 14 15  1  0  0  0
 14 82  1  0  0  0
 14 83  1  0  0  0
 15 16  1  0  0  0
 15 17  1  0  0  0
 15 84  1  0  0  0
 16 85  1  0  0  0
 17 18  1  0  0  0
 17 19  1  0  0  0
 17 86  1  0  0  0
 18 87  1  0  0  0
 19 20  1  0  0  0
 19 33  1  0  0  0
 19 88  1  0  0  0
 20 21  1  0  0  0
 20 89  1  0  0  0
 20 90  1  0  0  0
 21 22  1  0  0  0
 22 23  1  0  0  0
 22 31  1  0  0  0
 22 91  1  0  0  0
 23 24  1  0  0  0
 24 25  1  0  0  0
 24 27  1  0  0  0
 24 92  1  0  0  0
 25 26  1  0  0  0
 25 93  1  0  0  0
 25 94  1  0  0  0
 26 95  1  0  0  0
 27 28  1  0  0  0
 27 29  1  0  0  0
 27 96  1  0  0  0
 28 97  1  0  0  0
 29 30  1  0  0  0
 29 31  1  0  0  0
 29 98  1  0  0  0
 30 99  1  0  0  0
 31 32  1  0  0  0
 31100  1  0  0  0
 32101  1  0  0  0
 33 34  1  0  0  0
 33102  1  0  0  0
 34 35  2  0  0  0
 34 36  1  0  0  0
 36 37  1  0  0  0
 36103  1  0  0  0
 36104  1  0  0  0
 37 38  1  0  0  0
 37105  1  0  0  0
 37106  1  0  0  0
 38 39  1  0  0  0
 38107  1  0  0  0
 38108  1  0  0  0
 39 40  1  0  0  0
 39109  1  0  0  0
 39110  1  0  0  0
 40 41  1  0  0  0
 40111  1  0  0  0
 40112  1  0  0  0
 41 42  1  0  0  0
 41113  1  0  0  0
 41114  1  0  0  0
 42 43  1  0  0  0
 42115  1  0  0  0
 42116  1  0  0  0
 43 44  1  0  0  0
 43117  1  0  0  0
 43118  1  0  0  0
 44 45  1  0  0  0
 44119  1  0  0  0
 44120  1  0  0  0
 45 46  2  0  0  0
 45121  1  0  0  0
 46 47  1  0  0  0
 46122  1  0  0  0
 47 48  1  0  0  0
 47123  1  0  0  0
 47124  1  0  0  0
 48 49  2  0  0  0
 48125  1  0  0  0
 49 50  1  0  0  0
 49126  1  0  0  0
 50 51  1  0  0  0
 50127  1  0  0  0
 50128  1  0  0  0
 51 52  1  0  0  0
 51129  1  0  0  0
 51130  1  0  0  0
 52 53  1  0  0  0
 52131  1  0  0  0
 52132  1  0  0  0
 53 54  1  0  0  0
 53133  1  0  0  0
 53134  1  0  0  0
 54135  1  0  0  0
 54136  1  0  0  0
 54137  1  0  0  0
M  END
> <s_m_source_file>
../3ubx_ligand.sdf

> <i_m_source_file_index>
1

> <s_epik_input>
W0NIM11bQ0gyXVtDSDJdW0NIMl1bQ0gyXVtDSDJdW0NIMl1bQ0gyXVtDSDJdW0NIMl1bQ0gyXVtDSDJdW0NIMl1bQ0gyXVtDQEBIXShbT0hdKVtDQEBIXShbT0hdKVtDQEhdKFtDSDJdT1tDQEhdMU9bQ0BIXShbQ0gyXVtPSF0pW0NASF0oW09IXSlbQ0BIXShbT0hdKVtDQEhdMVtPSF0pW05IXUMoPU8pW0NIMl1bQ0gyXVtDSDJdW0NIMl1bQ0gyXVtDSDJdW0NIMl1bQ0gyXVtDSDJdL1tDSF09W0NIXVxbQ0gyXS9bQ0hdPVtDSF1cW0NIMl1bQ0gyXVtDSDJdW0NIMl1bQ0gzXQ==

> <s_epik_cmdline>
J2VwaWtfYXBwJywgJy1pbWFlJywgJ2xpZ2FuZF9wcm8ubWFlJywgJy1vbWFlJywgJ2xpZ2FuZF9wcmVwLm1hZScsICctbXMnLCAnMScsICctcGgnLCAnNycsICctcGh0JywgJzAuNScsICctbnQn

> <r_lp_tautomer_probability>
1

> <r_epik_Ionization_Penalty>
  0.0000

> <r_epik_Ionization_Penalty_Charging>
  0.0000

> <r_epik_Ionization_Penalty_Neutral>
  0.0000

> <r_epik_State_Penalty>
 -0.0000

> <r_epik_Charging_Adjusted_Penalty>
0

> <i_epik_Tot_Q>
0

> <i_epik_Tot_abs_Q>
0

> <s_epik_Chemistry_Notes>
This compound contains an acetal/aminal-like group ( X-CH(R)-Y where X, Y are N, S, or O) that may be acid/base labile, releasing an aldehyde.

$$$$
