3ud5_ligand
                    3D
 Schrodinger Suite 2020-3.
 74 79  0  0  1  0            999 V2000
   20.7030    5.8660    2.4850 C   0  0  1  0  0  0
   22.6820    5.2950    5.2710 N   0  0  0  0  0  0
   20.9620    5.6960    3.8640 O   0  0  0  0  0  0
   18.3160    4.2010    2.4150 S   0  0  0  0  0  0
   21.7210    4.9290    1.7760 C   0  0  1  0  0  0
   23.3740    5.4700    7.3970 N   0  0  0  0  0  0
   22.1950    5.4360    0.5820 O   0  0  0  0  0  0
   22.9240    4.8700    2.7810 C   0  0  1  0  0  0
   23.3330    3.2540    9.2810 N   0  0  0  0  0  0
   24.1230    5.3520    2.2800 O   0  0  0  0  0  0
   22.3720    5.7400    3.9590 C   0  0  2  0  0  0
   22.4010    1.8920    7.5190 N   0  0  0  0  0  0
   11.0710   -1.1910    9.5700 O   0  0  0  0  0  0
   23.2020    6.1100    6.2580 C   0  0  0  0  0  0
   22.0050    2.8810    5.2990 N   0  0  0  0  0  0
   22.9390    4.1990    7.1650 C   0  0  0  0  0  0
   15.1400    3.7430    5.8120 N   0  3  2  0  0  0
   22.8830    3.0980    8.0160 C   0  0  0  0  0  0
   21.9960    1.8780    6.2100 C   0  0  0  0  0  0
    7.5570    0.9370   10.0510 N   0  0  0  0  0  0
   22.4920    4.0320    5.8300 C   0  0  0  0  0  0
    6.8520   -0.7580   11.4980 N   0  0  0  0  0  0
   19.2000    5.7580    2.1580 C   0  0  0  0  0  0
    9.0230   -0.9820   10.5180 N   0  3  0  0  0  0
   17.0630    4.5250    3.7320 C   0  0  1  0  0  0
   10.7660    1.2710    8.1450 N   0  0  0  0  0  0
   15.7050    3.9590    3.3030 C   0  0  0  0  0  0
    8.2540    2.6470    8.5870 N   0  0  0  0  0  0
   14.6870    4.1590    4.4450 C   0  0  0  0  0  0
   16.5380    4.1460    6.1430 C   0  0  0  0  0  0
   17.5400    3.8580    5.0330 C   0  0  0  0  0  0
   14.8570    2.3250    6.1510 C   0  0  0  0  0  0
   11.3590    3.2130    6.6130 C   0  0  0  0  0  0
    7.8330   -0.2550   10.6690 C   0  0  0  0  0  0
   10.0720   -0.5120    9.6630 C   0  0  0  0  0  0
   10.4390    2.4710    7.5640 C   0  0  0  0  0  0
    9.1960    3.1240    7.7840 C   0  0  0  0  0  0
    8.5550    1.4280    9.2140 C   0  0  0  0  0  0
    9.7960    0.7610    8.9850 C   0  0  0  0  0  0
   13.5910    2.3440    7.0300 C   0  0  0  0  0  0
   12.4520    2.4250    6.0770 N   0  0  1  0  0  0
   20.8968    6.9081    2.1908 H   0  0  0  0  0  0
   21.2734    3.9883    1.4228 H   0  0  0  0  0  0
   21.5123    5.5637   -0.2710 H   0  0  0  0  0  0
   23.3182    3.8697    3.0135 H   0  0  0  0  0  0
   23.3052    2.4076    9.9830 H   0  0  0  0  0  0
   23.7270    4.2274    9.6085 H   0  0  0  0  0  0
   24.6201    4.8320    1.4478 H   0  0  0  0  0  0
   22.7832    6.7598    3.9297 H   0  0  0  0  0  0
   23.4427    7.1629    6.1112 H   0  0  0  0  0  0
   14.4971    4.3247    6.4889 H   0  0  0  0  0  0
   21.6117    0.9236    5.8502 H   0  0  0  0  0  0
    7.0118   -1.7107   12.0242 H   0  0  0  0  0  0
   18.6391    6.4809    2.7686 H   0  0  0  0  0  0
   19.0401    5.9765    1.0918 H   0  0  0  0  0  0
   16.8167    5.5558    4.0266 H   0  0  0  0  0  0
   15.3565    4.4852    2.4021 H   0  0  0  0  0  0
   15.8076    2.8859    3.0842 H   0  0  0  0  0  0
   13.7949    3.5807    4.1626 H   0  0  0  0  0  0
   14.4421    5.2314    4.4504 H   0  0  0  0  0  0
   16.5709    5.2278    6.3398 H   0  0  0  0  0  0
   16.8751    3.6003    7.0367 H   0  0  0  0  0  0
   17.6185    2.7714    4.8806 H   0  0  0  0  0  0
   18.5247    4.2611    5.3121 H   0  0  0  0  0  0
   14.6906    1.7531    5.2262 H   0  0  0  0  0  0
   15.7131    1.9003    6.6957 H   0  0  0  0  0  0
   10.7800    3.5756    5.7509 H   0  0  0  0  0  0
   11.8137    4.0679    7.1349 H   0  0  0  0  0  0
    9.0071    4.0646    7.2666 H   0  0  0  0  0  0
   13.5486    1.4242    7.6318 H   0  0  0  0  0  0
   13.6211    3.2178    7.6975 H   0  0  0  0  0  0
   12.1005    1.4034    5.8701 H   0  0  0  0  0  0
    9.1617   -1.9288   11.0606 H   0  0  0  0  0  0
    6.5961    1.4409   10.2321 H   0  0  0  0  0  0
  1  3  1  0  0  0
  1  5  1  0  0  0
  1 23  1  0  0  0
  1 42  1  0  0  0
  2 11  1  0  0  0
  2 14  1  0  0  0
  2 21  1  0  0  0
  3 11  1  0  0  0
  4 23  1  0  0  0
  4 25  1  0  0  0
  5  7  1  0  0  0
  5  8  1  0  0  0
  5 43  1  0  0  0
  6 14  2  0  0  0
  6 16  1  0  0  0
  7 44  1  0  0  0
  8 10  1  0  0  0
  8 11  1  0  0  0
  8 45  1  0  0  0
  9 18  1  0  0  0
  9 46  1  0  0  0
  9 47  1  0  0  0
 10 48  1  0  0  0
 11 49  1  0  0  0
 12 18  1  0  0  0
 12 19  2  0  0  0
 13 35  2  0  0  0
 14 50  1  0  0  0
 15 19  1  0  0  0
 15 21  2  0  0  0
 16 18  2  0  0  0
 16 21  1  0  0  0
 17 29  1  0  0  0
 17 30  1  0  0  0
 17 32  1  0  0  0
 17 51  1  0  0  0
 19 52  1  0  0  0
 20 34  1  0  0  0
 20 38  1  0  0  0
 20 74  1  0  0  0
 22 34  2  0  0  0
 22 53  1  0  0  0
 23 54  1  0  0  0
 23 55  1  0  0  0
 24 34  1  0  0  0
 24 35  1  0  0  0
 24 73  1  0  0  0
 25 27  1  0  0  0
 25 31  1  0  0  0
 25 56  1  0  0  0
 26 36  2  0  0  0
 26 39  1  0  0  0
 27 29  1  0  0  0
 27 57  1  0  0  0
 27 58  1  0  0  0
 28 37  2  0  0  0
 28 38  1  0  0  0
 29 59  1  0  0  0
 29 60  1  0  0  0
 30 31  1  0  0  0
 30 61  1  0  0  0
 30 62  1  0  0  0
 31 63  1  0  0  0
 31 64  1  0  0  0
 32 40  1  0  0  0
 32 65  1  0  0  0
 32 66  1  0  0  0
 33 36  1  0  0  0
 33 41  1  0  0  0
 33 67  1  0  0  0
 33 68  1  0  0  0
 35 39  1  0  0  0
 36 37  1  0  0  0
 37 69  1  0  0  0
 38 39  2  0  0  0
 40 41  1  0  0  0
 40 70  1  0  0  0
 40 71  1  0  0  0
 41 72  1  0  0  0
M  CHG  2  17   1  24   1
M  END
> <s_m_source_file>
../3ud5_ligand.sdf

> <i_m_source_file_index>
1

> <s_epik_input>
W05IMl1jMW5bY0hdbmMoYzEyKW4oW2NIXW4yKVtDQEBIXShbQ0BIXShbT0hdKVtDQEBIXTNbT0hdKU9bQ0BASF0zW0NIMl1TW0NASF0oW0NIMl1bQ0gyXTQpW0NIMl1bQ0gyXVtOQEgrXTRbQ0gyXVtDSDJdW05IMitdW0NIMl1jKFtjSF1uNSluYyhjNTYpYyg9TylbbkhdYygvW25IXTYpPU5cW0hd

> <s_epik_cmdline>
J2VwaWtfYXBwJywgJy1pbWFlJywgJ2xpZ2FuZF9wcm8ubWFlJywgJy1vbWFlJywgJ2xpZ2FuZF9wcmVwLm1hZScsICctbXMnLCAnMScsICctcGgnLCAnNycsICctcGh0JywgJzAuNScsICctbnQn

> <r_epik_Ionization_Penalty>
  0.0759

> <r_epik_Ionization_Penalty_Charging>
  0.0241

> <r_epik_Ionization_Penalty_Neutral>
  0.0519

> <r_epik_State_Penalty>
  0.0048

> <r_epik_Charging_Adjusted_Penalty>
0.0288758189137679

> <i_epik_Tot_Q>
2

> <i_epik_Tot_abs_Q>
2

> <s_epik_Chemistry_Notes>
This compound has an imine and may undergo hydrolysis. This compound contains an acetal/aminal-like group ( X-CH(R)-Y where X, Y are N, S, or O) that may be acid/base labile, releasing an aldehyde.

$$$$
