3ud7_ligand
                    3D
 Schrodinger Suite 2020-3.
 53 54  0  0  1  0            999 V2000
  -24.8680  -13.8100   59.6400 C   0  0  2  0  0  0
  -25.1800  -12.8000   58.5430 C   0  0  2  0  0  0
  -24.8810  -11.4580   59.0050 N   0  0  3  0  0  0
  -24.0500  -10.4580   58.0730 S   0  0  0  0  0  0
  -22.6400  -10.7990   58.2400 O   0  5  0  0  0  0
  -24.5050  -10.6820   56.7040 O   0  0  0  0  0  0
  -24.3420   -9.1060   58.5400 O   0  0  0  0  0  0
  -26.6400  -12.8910   58.1170 C   0  0  1  0  0  0
  -26.8360  -12.1320   56.9450 O   0  0  0  0  0  0
  -27.0440  -14.3380   57.8580 C   0  0  1  0  0  0
  -26.6000  -15.2410   59.0020 C   0  0  2  0  0  0
  -25.2100  -15.1050   59.1970 O   0  0  0  0  0  0
  -26.9300  -16.6990   58.7060 C   0  0  0  0  0  0
  -25.7620  -17.3700   58.2880 O   0  0  0  0  0  0
  -28.4440  -14.4160   57.7140 O   0  0  0  0  0  0
  -27.3340   -8.9370   60.7630 S   0  0  0  0  0  0
  -27.7160  -11.2890   62.9130 C   0  0  1  0  0  0
  -27.6080  -11.2650   64.3320 O   0  0  0  0  0  0
  -26.3980  -10.8520   62.2610 C   0  0  2  0  0  0
  -26.6250  -10.2950   60.9590 O   0  0  0  0  0  0
  -25.3480  -11.9680   62.2530 C   0  0  1  0  0  0
  -24.6810  -11.8570   63.5160 O   0  0  0  0  0  0
  -25.8750  -13.4090   62.1220 C   0  0  2  0  0  0
  -25.6140  -13.4970   60.7950 O   0  0  0  0  0  0
  -27.2380  -13.6600   62.7860 C   0  0  1  0  0  0
  -28.1690  -12.5960   62.5430 O   0  0  0  0  0  0
  -27.9050  -14.8650   62.1920 C   0  0  0  0  0  0
  -27.0280  -12.0830   64.8810 C   0  0  0  0  0  0
  -27.8600  -15.9360   62.8810 O   0  0  0  0  0  0
  -28.5390  -14.7800   61.0770 O   0  5  0  0  0  0
  -27.9010   -8.8840   59.3810 O   0  0  0  0  0  0
  -26.2990   -7.9050   60.8950 O   0  0  0  0  0  0
  -28.4030   -8.7000   61.7940 O   0  5  0  0  0  0
  -23.8076  -13.8312   59.9316 H   0  0  0  0  0  0
  -24.5297  -12.9846   57.6752 H   0  0  0  0  0  0
  -25.3597  -11.0707   59.9165 H   0  0  0  0  0  0
  -27.2919  -12.4385   58.8788 H   0  0  0  0  0  0
  -26.5980  -11.0581   56.9390 H   0  0  0  0  0  0
  -26.6257  -14.6911   56.9039 H   0  0  0  0  0  0
  -27.0670  -14.9233   59.9459 H   0  0  0  0  0  0
  -27.3225  -17.1780   59.6151 H   0  0  0  0  0  0
  -27.6867  -16.7492   57.9092 H   0  0  0  0  0  0
  -25.8043  -18.4381   58.0286 H   0  0  0  0  0  0
  -28.9502  -13.8289   56.9335 H   0  0  0  0  0  0
  -28.5093  -10.5992   62.5893 H   0  0  0  0  0  0
  -25.9767  -10.0042   62.8211 H   0  0  0  0  0  0
  -24.6690  -11.8083   61.4024 H   0  0  0  0  0  0
  -24.2254  -10.9016   63.8153 H   0  0  0  0  0  0
  -25.4072  -14.3056   62.5548 H   0  0  0  0  0  0
  -27.0683  -13.7394   63.8699 H   0  0  0  0  0  0
  -27.0588  -11.8907   65.9636 H   0  0  0  0  0  0
  -25.9827  -12.0842   64.5384 H   0  0  0  0  0  0
  -27.4844  -13.0612   64.6692 H   0  0  0  0  0  0
  1  2  1  0  0  0
  1 12  1  0  0  0
  1 24  1  0  0  0
  1 34  1  0  0  0
  2  3  1  0  0  0
  2  8  1  0  0  0
  2 35  1  0  0  0
  3  4  1  0  0  0
  3 36  1  0  0  0
  4  5  1  0  0  0
  4  6  2  0  0  0
  4  7  2  0  0  0
  8  9  1  0  0  0
  8 10  1  0  0  0
  8 37  1  0  0  0
  9 38  1  0  0  0
 10 11  1  0  0  0
 10 15  1  0  0  0
 10 39  1  0  0  0
 11 12  1  0  0  0
 11 13  1  0  0  0
 11 40  1  0  0  0
 13 14  1  0  0  0
 13 41  1  0  0  0
 13 42  1  0  0  0
 14 43  1  0  0  0
 15 44  1  0  0  0
 16 20  1  0  0  0
 16 31  2  0  0  0
 16 32  2  0  0  0
 16 33  1  0  0  0
 17 18  1  0  0  0
 17 19  1  0  0  0
 17 26  1  0  0  0
 17 45  1  0  0  0
 18 28  1  0  0  0
 19 20  1  0  0  0
 19 21  1  0  0  0
 19 46  1  0  0  0
 21 22  1  0  0  0
 21 23  1  0  0  0
 21 47  1  0  0  0
 22 48  1  0  0  0
 23 24  1  0  0  0
 23 25  1  0  0  0
 23 49  1  0  0  0
 25 26  1  0  0  0
 25 27  1  0  0  0
 25 50  1  0  0  0
 27 29  2  0  0  0
 27 30  1  0  0  0
 28 51  1  0  0  0
 28 52  1  0  0  0
 28 53  1  0  0  0
M  CHG  3   5  -1  30  -1  33  -1
M  END
> <s_m_source_file>
../3ud7_ligand.sdf

> <i_m_source_file_index>
1

> <s_epik_input>
W09IXVtDSDJdW0NAQEhdKE8xKVtDQEBIXShbT0hdKVtDQEhdKFtPSF0pW0NAQEhdKFtOSF1TKD1PKSg9TylbT0hdKVtDQEhdMU9bQ0BIXShbQ0BASF0oTzIpQyg9TylbT0hdKVtDQEhdKFtPSF0pW0NASF0oW0NAQEhdMk9bQ0gzXSlPUyg9TykoPU8pW09IXQ==

> <s_epik_cmdline>
J2VwaWtfYXBwJywgJy1pbWFlJywgJ2xpZ2FuZF9wcm8ubWFlJywgJy1vbWFlJywgJ2xpZ2FuZF9wcmVwLm1hZScsICctbXMnLCAnMScsICctcGgnLCAnNycsICctcGh0JywgJzAuNScsICctbnQn

> <r_epik_Ionization_Penalty>
  0.0203

> <r_epik_Ionization_Penalty_Charging>
  0.0000

> <r_epik_Ionization_Penalty_Neutral>
  0.0202

> <r_epik_State_Penalty>
  0.0162

> <r_epik_Charging_Adjusted_Penalty>
0.0162218262876538

> <i_epik_Tot_Q>
-3

> <i_epik_Tot_abs_Q>
3

> <s_epik_Chemistry_Notes>
This compound contains an acetal/aminal-like group ( X-CH(R)-Y where X, Y are N, S, or O) that may be acid/base labile, releasing an aldehyde.

$$$$
