3ud8_ligand
                    3D
 Schrodinger Suite 2020-3.
 56 57  0  0  1  0            999 V2000
   26.3640   -8.5660  -22.0630 N   0  0  3  0  0  0
   26.5610   -6.1840  -21.5870 C   0  0  2  0  0  0
   24.9720   -9.3200  -22.2950 S   0  0  0  0  0  0
   26.5910   -7.2650  -22.6610 C   0  0  1  0  0  0
   27.9220   -7.2580  -23.4040 C   0  0  1  0  0  0
   27.8300   -8.0860  -24.5420 O   0  0  0  0  0  0
   28.3000   -5.8450  -23.8340 C   0  0  2  0  0  0
   29.6350   -5.8330  -24.2880 O   0  0  0  0  0  0
   28.1480   -4.8640  -22.6780 C   0  0  2  0  0  0
   26.8330   -4.9310  -22.1730 O   0  0  0  0  0  0
   28.4470   -3.4390  -23.1280 C   0  0  0  0  0  0
   27.5070   -2.5580  -22.5540 O   0  0  0  0  0  0
   28.0250   -9.3910  -26.5320 O   0  5  0  0  0  0
   28.6590   -8.9470  -25.2450 S   0  0  0  0  0  0
   24.7090   -9.2880  -23.7310 O   0  0  0  0  0  0
   30.0870   -8.7560  -25.5020 O   0  0  0  0  0  0
   25.1400  -10.6800  -21.7920 O   0  0  0  0  0  0
   28.5560  -10.0550  -24.2900 O   0  0  0  0  0  0
   23.9620   -8.5820  -21.5410 O   0  5  0  0  0  0
   28.4250  -10.9820  -19.4380 S   0  0  0  0  0  0
   28.5390   -8.1630  -17.5960 C   0  0  1  0  0  0
   28.8130   -8.7190  -16.1310 O   0  0  0  0  0  0
   27.3910   -8.7840  -18.3950 C   0  0  2  0  0  0
   27.8370   -9.5410  -19.5440 O   0  0  0  0  0  0
   26.3470   -7.7110  -18.7310 C   0  0  1  0  0  0
   25.4850   -7.5560  -17.5850 O   0  0  0  0  0  0
   26.9170   -6.3410  -19.1330 C   0  0  2  0  0  0
   27.5350   -6.4670  -20.6080 O   0  0  0  0  0  0
   28.1350   -5.8670  -18.3310 C   0  0  1  0  0  0
   29.0600   -6.9280  -18.0950 O   0  0  0  0  0  0
   28.9100   -4.8650  -19.1450 C   0  0  0  0  0  0
   28.8600   -8.5230  -15.1760 C   0  0  0  0  0  0
   28.7720   -3.5920  -18.8930 O   0  5  0  0  0  0
   29.7190   -5.2660  -20.0310 O   0  0  0  0  0  0
   29.1890  -11.2790  -20.6680 O   0  0  0  0  0  0
   27.3490  -11.9950  -19.3410 O   0  0  0  0  0  0
   29.3540  -11.1270  -18.2580 O   0  5  0  0  0  0
   27.1972   -9.1073  -21.5911 H   0  0  0  0  0  0
   25.5934   -6.0998  -21.0706 H   0  0  0  0  0  0
   25.7683   -7.1018  -23.3727 H   0  0  0  0  0  0
   28.7140   -7.6960  -22.7788 H   0  0  0  0  0  0
   27.6898   -5.5266  -24.6921 H   0  0  0  0  0  0
   29.9378   -6.4817  -25.1232 H   0  0  0  0  0  0
   28.8037   -5.1501  -21.8424 H   0  0  0  0  0  0
   29.4596   -3.1570  -22.8038 H   0  0  0  0  0  0
   28.3833   -3.3797  -24.2246 H   0  0  0  0  0  0
   27.5630   -1.4800  -22.7655 H   0  0  0  0  0  0
   29.5226   -8.3246  -18.0613 H   0  0  0  0  0  0
   26.9202   -9.5861  -17.8077 H   0  0  0  0  0  0
   25.7525   -8.0683  -19.5848 H   0  0  0  0  0  0
   24.9831   -8.4336  -17.1516 H   0  0  0  0  0  0
   26.0727   -5.6594  -18.9523 H   0  0  0  0  0  0
   27.7942   -5.4902  -17.3554 H   0  0  0  0  0  0
   29.1291   -9.4374  -14.6269 H   0  0  0  0  0  0
   27.8817   -8.1605  -14.8275 H   0  0  0  0  0  0
   29.6222   -7.7503  -14.9974 H   0  0  0  0  0  0
  1  3  1  0  0  0
  1  4  1  0  0  0
  1 38  1  0  0  0
  2  4  1  0  0  0
  2 10  1  0  0  0
  2 28  1  0  0  0
  2 39  1  0  0  0
  3 15  2  0  0  0
  3 17  2  0  0  0
  3 19  1  0  0  0
  4  5  1  0  0  0
  4 40  1  0  0  0
  5  6  1  0  0  0
  5  7  1  0  0  0
  5 41  1  0  0  0
  6 14  1  0  0  0
  7  8  1  0  0  0
  7  9  1  0  0  0
  7 42  1  0  0  0
  8 43  1  0  0  0
  9 10  1  0  0  0
  9 11  1  0  0  0
  9 44  1  0  0  0
 11 12  1  0  0  0
 11 45  1  0  0  0
 11 46  1  0  0  0
 12 47  1  0  0  0
 13 14  1  0  0  0
 14 16  2  0  0  0
 14 18  2  0  0  0
 20 24  1  0  0  0
 20 35  2  0  0  0
 20 36  2  0  0  0
 20 37  1  0  0  0
 21 22  1  0  0  0
 21 23  1  0  0  0
 21 30  1  0  0  0
 21 48  1  0  0  0
 22 32  1  0  0  0
 23 24  1  0  0  0
 23 25  1  0  0  0
 23 49  1  0  0  0
 25 26  1  0  0  0
 25 27  1  0  0  0
 25 50  1  0  0  0
 26 51  1  0  0  0
 27 28  1  0  0  0
 27 29  1  0  0  0
 27 52  1  0  0  0
 29 30  1  0  0  0
 29 31  1  0  0  0
 29 53  1  0  0  0
 31 33  1  0  0  0
 31 34  2  0  0  0
 32 54  1  0  0  0
 32 55  1  0  0  0
 32 56  1  0  0  0
M  CHG  4  13  -1  19  -1  33  -1  37  -1
M  END
> <s_m_source_file>
../3ud8_ligand.sdf

> <i_m_source_file_index>
1

> <s_epik_input>
W09IXVtDSDJdW0NAQEhdKE8xKVtDQEBIXShbT0hdKVtDQEhdKE9TKD1PKSg9TylbT0hdKVtDQEBIXShbTkhdUyg9TykoPU8pW09IXSlbQ0BIXTFPW0NASF0oW0NAQEhdKE8yKUMoPU8pW09IXSlbQ0BIXShbT0hdKVtDQEhdKFtDQEBIXTJPW0NIM10pT1MoPU8pKD1PKVtPSF0=

> <s_epik_cmdline>
J2VwaWtfYXBwJywgJy1pbWFlJywgJ2xpZ2FuZF9wcm8ubWFlJywgJy1vbWFlJywgJ2xpZ2FuZF9wcmVwLm1hZScsICctbXMnLCAnMScsICctcGgnLCAnNycsICctcGh0JywgJzAuNScsICctbnQn

> <r_epik_Ionization_Penalty>
  0.0359

> <r_epik_Ionization_Penalty_Charging>
  0.0000

> <r_epik_Ionization_Penalty_Neutral>
  0.0358

> <r_epik_State_Penalty>
  0.0299

> <r_epik_Charging_Adjusted_Penalty>
0.0298975012622104

> <i_epik_Tot_Q>
-4

> <i_epik_Tot_abs_Q>
4

> <s_epik_Chemistry_Notes>
This compound contains an acetal/aminal-like group ( X-CH(R)-Y where X, Y are N, S, or O) that may be acid/base labile, releasing an aldehyde.

$$$$
