3ud9_ligand
                    3D
 Schrodinger Suite 2020-3.
 56 57  0  0  1  0            999 V2000
  -39.4380   -4.9870   17.8860 C   0  0  2  0  0  0
  -40.8180   -4.4850   17.4600 C   0  0  1  0  0  0
  -41.8370   -4.8980   18.5040 C   0  0  2  0  0  0
  -41.7390   -6.3830   18.7200 C   0  0  1  0  0  0
  -40.3260   -6.8490   19.0490 C   0  0  1  0  0  0
  -40.2550   -8.3580   19.0110 C   0  0  0  0  0  0
  -40.8000   -3.0500   17.3290 N   0  0  3  0  0  0
  -43.1690   -4.6570   18.1120 O   0  0  0  0  0  0
  -42.6110   -6.5830   19.7940 O   0  0  0  0  0  0
  -39.4170   -6.3880   18.0880 O   0  0  0  0  0  0
  -39.6940   -8.7440   17.7790 O   0  0  0  0  0  0
  -40.9060   -2.4120   15.8920 S   0  0  0  0  0  0
  -41.4260   -1.0840   16.0060 O   0  0  0  0  0  0
  -41.8200   -3.2660   15.2100 O   0  0  0  0  0  0
  -39.6120   -2.4650   15.2790 O   0  5  0  0  0  0
  -38.9340  -10.0900   17.7470 S   0  0  0  0  0  0
  -38.7020  -10.4580   16.3660 O   0  0  0  0  0  0
  -39.8280  -11.0010   18.4100 O   0  0  0  0  0  0
  -37.6930   -9.9420   18.4960 O   0  5  0  0  0  0
  -40.1070    0.4560   19.4840 S   0  0  0  0  0  0
  -38.0420   -1.2500   21.0500 C   0  0  1  0  0  0
  -37.0000   -0.7620   21.5010 O   0  0  0  0  0  0
  -38.1370   -1.1630   19.5490 C   0  0  2  0  0  0
  -39.5230   -0.9150   19.2290 O   0  0  0  0  0  0
  -37.6170   -2.3650   18.8280 C   0  0  1  0  0  0
  -36.1770   -2.1360   18.5400 O   0  0  0  0  0  0
  -37.7850   -3.6660   19.5360 C   0  0  2  0  0  0
  -39.0440   -4.3560   19.0760 O   0  0  0  0  0  0
  -37.7730   -3.6210   21.0560 C   0  0  1  0  0  0
  -38.4390   -2.4800   21.6200 O   0  0  0  0  0  0
  -38.5250   -4.8060   21.6170 C   0  0  0  0  0  0
  -35.6730   -0.2900   21.6370 C   0  0  0  0  0  0
  -37.8490   -5.6610   22.3410 O   0  0  0  0  0  0
  -39.8480   -4.6070   21.7720 O   0  5  0  0  0  0
  -41.5740    0.3570   19.4430 O   0  0  0  0  0  0
  -39.6430    1.3650   18.4130 O   0  0  0  0  0  0
  -39.6250    0.9990   20.7980 O   0  5  0  0  0  0
  -38.6751   -4.7751   17.1224 H   0  0  0  0  0  0
  -41.0986   -4.8700   16.4685 H   0  0  0  0  0  0
  -41.6785   -4.2852   19.4036 H   0  0  0  0  0  0
  -42.0620   -6.9802   17.8545 H   0  0  0  0  0  0
  -40.0112   -6.4259   20.0144 H   0  0  0  0  0  0
  -39.6270   -8.7165   19.8399 H   0  0  0  0  0  0
  -41.2678   -8.7754   19.1112 H   0  0  0  0  0  0
  -40.8793   -2.4150   18.2237 H   0  0  0  0  0  0
  -43.5004   -3.6316   17.8913 H   0  0  0  0  0  0
  -43.6687   -6.2942   19.7049 H   0  0  0  0  0  0
  -38.6589   -0.5154   21.5883 H   0  0  0  0  0  0
  -37.5201   -0.3300   19.1809 H   0  0  0  0  0  0
  -38.2196   -2.4692   17.9137 H   0  0  0  0  0  0
  -35.8591   -1.2209   18.0189 H   0  0  0  0  0  0
  -36.8796   -4.2165   19.2406 H   0  0  0  0  0  0
  -36.7146   -3.5551   21.3484 H   0  0  0  0  0  0
  -35.5263    0.1037   22.6536 H   0  0  0  0  0  0
  -35.4915    0.5100   20.9042 H   0  0  0  0  0  0
  -34.9697   -1.1168   21.4589 H   0  0  0  0  0  0
  1  2  1  0  0  0
  1 10  1  0  0  0
  1 28  1  0  0  0
  1 38  1  0  0  0
  2  3  1  0  0  0
  2  7  1  0  0  0
  2 39  1  0  0  0
  3  4  1  0  0  0
  3  8  1  0  0  0
  3 40  1  0  0  0
  4  5  1  0  0  0
  4  9  1  0  0  0
  4 41  1  0  0  0
  5  6  1  0  0  0
  5 10  1  0  0  0
  5 42  1  0  0  0
  6 11  1  0  0  0
  6 43  1  0  0  0
  6 44  1  0  0  0
  7 12  1  0  0  0
  7 45  1  0  0  0
  8 46  1  0  0  0
  9 47  1  0  0  0
 11 16  1  0  0  0
 12 13  2  0  0  0
 12 14  2  0  0  0
 12 15  1  0  0  0
 16 17  2  0  0  0
 16 18  2  0  0  0
 16 19  1  0  0  0
 20 24  1  0  0  0
 20 35  2  0  0  0
 20 36  2  0  0  0
 20 37  1  0  0  0
 21 22  1  0  0  0
 21 23  1  0  0  0
 21 30  1  0  0  0
 21 48  1  0  0  0
 22 32  1  0  0  0
 23 24  1  0  0  0
 23 25  1  0  0  0
 23 49  1  0  0  0
 25 26  1  0  0  0
 25 27  1  0  0  0
 25 50  1  0  0  0
 26 51  1  0  0  0
 27 28  1  0  0  0
 27 29  1  0  0  0
 27 52  1  0  0  0
 29 30  1  0  0  0
 29 31  1  0  0  0
 29 53  1  0  0  0
 31 33  2  0  0  0
 31 34  1  0  0  0
 32 54  1  0  0  0
 32 55  1  0  0  0
 32 56  1  0  0  0
M  CHG  4  15  -1  19  -1  34  -1  37  -1
M  END
> <s_m_source_file>
../3ud9_ligand.sdf

> <i_m_source_file_index>
1

> <s_epik_input>
W0NIM11PW0NASF0xW0NASF0oT1MoPU8pKD1PKVtPSF0pW0NAQEhdKFtPSF0pW0NAQEhdKFtDQEBIXShPMSlDKD1PKVtPSF0pT1tDQEBIXTJbQ0BIXShbTkhdUyg9TykoPU8pW09IXSlbQ0BASF0oW09IXSlbQ0BIXShbT0hdKVtDQEhdKE8yKVtDSDJdT1MoPU8pKD1PKVtPSF0=

> <s_epik_cmdline>
J2VwaWtfYXBwJywgJy1pbWFlJywgJ2xpZ2FuZF9wcm8ubWFlJywgJy1vbWFlJywgJ2xpZ2FuZF9wcmVwLm1hZScsICctbXMnLCAnMScsICctcGgnLCAnNycsICctcGh0JywgJzAuNScsICctbnQn

> <r_epik_Ionization_Penalty>
  0.0211

> <r_epik_Ionization_Penalty_Charging>
  0.0000

> <r_epik_Ionization_Penalty_Neutral>
  0.0211

> <r_epik_State_Penalty>
  0.0169

> <r_epik_Charging_Adjusted_Penalty>
0.0169336296348403

> <i_epik_Tot_Q>
-4

> <i_epik_Tot_abs_Q>
4

> <s_epik_Chemistry_Notes>
This compound contains an acetal/aminal-like group ( X-CH(R)-Y where X, Y are N, S, or O) that may be acid/base labile, releasing an aldehyde.

$$$$
