3uda_ligand
                    3D
 Schrodinger Suite 2020-3.
 59 60  0  0  1  0            999 V2000
   -2.2260   10.0650   16.5490 N   0  0  3  0  0  0
   -2.3210   12.3580   17.3670 C   0  0  2  0  0  0
   -3.5310    9.1720   16.3070 S   0  0  0  0  0  0
   -2.2140   11.4560   16.1430 C   0  0  1  0  0  0
   -2.7520   17.2840   15.7050 S   0  0  0  0  0  0
   -0.9470   11.7570   15.3510 C   0  0  1  0  0  0
   -1.0010   11.0940   14.1090 O   0  0  0  0  0  0
   -0.4300    9.8310   13.7780 S   0  0  0  0  0  0
   -0.7910   13.2560   15.1210 C   0  0  2  0  0  0
    0.4990   13.5220   14.6160 O   0  0  0  0  0  0
   -0.9990   14.0330   16.4160 C   0  0  2  0  0  0
   -2.2570   13.7070   16.9630 O   0  0  0  0  0  0
   -0.9240   15.5340   16.1710 C   0  0  0  0  0  0
   -2.1370   16.1350   16.5630 O   0  0  0  0  0  0
   -4.6760    9.9790   16.7170 O   0  0  0  0  0  0
   -3.5610    8.8490   14.8830 O   0  5  0  0  0  0
   -3.3850    7.9770   17.1330 O   0  0  0  0  0  0
   -2.0720   17.2660   14.4130 O   0  0  0  0  0  0
   -4.1720   16.9880   15.5440 O   0  0  0  0  0  0
   -2.5270   18.5310   16.4310 O   0  5  0  0  0  0
    0.7730   10.1360   13.0480 O   0  0  0  0  0  0
   -0.0860    8.8400   14.7710 O   0  0  0  0  0  0
   -1.3490    9.2760   12.8080 O   0  5  0  0  0  0
   -0.3830    7.7840   18.9530 S   0  0  0  0  0  0
    0.4940   10.0290   20.9690 C   0  0  1  0  0  0
    0.1170   10.0040   22.4130 O   0  0  0  0  0  0
   -0.8660    9.9210   20.3180 C   0  0  2  0  0  0
   -0.6840    9.3040   19.0150 O   0  0  0  0  0  0
   -1.4340   11.2990   20.2700 C   0  0  1  0  0  0
   -2.7440   11.4790   20.9960 O   0  0  0  0  0  0
   -0.6860   12.5180   19.8100 C   0  0  2  0  0  0
   -1.2560   12.0810   18.2480 O   0  0  0  0  0  0
    0.7000   12.5140   20.4560 C   0  0  1  0  0  0
    1.2780   11.1790   20.5600 O   0  0  0  0  0  0
    1.6040   13.3920   19.6120 C   0  0  0  0  0  0
    1.4060   10.6300   22.9550 C   0  0  0  0  0  0
    2.2100   12.9290   18.5850 O   0  0  0  0  0  0
    1.8580   14.6490   19.9500 O   0  5  0  0  0  0
    0.1420    7.4660   17.6000 O   0  0  0  0  0  0
   -1.6270    7.0350   19.2180 O   0  0  0  0  0  0
    0.6090    7.3780   19.9900 O   0  5  0  0  0  0
   -1.2936    9.5777   16.8701 H   0  0  0  0  0  0
   -3.2560   12.2294   17.9321 H   0  0  0  0  0  0
   -3.0948   11.6002   15.5000 H   0  0  0  0  0  0
   -0.0639   11.3515   15.8665 H   0  0  0  0  0  0
   -1.4929   13.6017   14.3478 H   0  0  0  0  0  0
    0.8324   13.0474   13.6813 H   0  0  0  0  0  0
   -0.2580   13.7305   17.1706 H   0  0  0  0  0  0
   -0.0970   15.9604   16.7578 H   0  0  0  0  0  0
   -0.7501   15.7227   15.1014 H   0  0  0  0  0  0
    1.2191    9.2552   20.6768 H   0  0  0  0  0  0
   -1.5894    9.2756   20.8379 H   0  0  0  0  0  0
   -1.4550   11.2256   19.1727 H   0  0  0  0  0  0
   -3.3070   10.5992   21.3410 H   0  0  0  0  0  0
   -0.7294   13.5779   20.1011 H   0  0  0  0  0  0
    0.6277   12.8550   21.4993 H   0  0  0  0  0  0
    1.3425   10.7098   24.0503 H   0  0  0  0  0  0
    1.5374   11.6323   22.5213 H   0  0  0  0  0  0
    2.2636    9.9973   22.6826 H   0  0  0  0  0  0
  1  3  1  0  0  0
  1  4  1  0  0  0
  1 42  1  0  0  0
  2  4  1  0  0  0
  2 12  1  0  0  0
  2 32  1  0  0  0
  2 43  1  0  0  0
  3 15  2  0  0  0
  3 16  1  0  0  0
  3 17  2  0  0  0
  4  6  1  0  0  0
  4 44  1  0  0  0
  5 14  1  0  0  0
  5 18  2  0  0  0
  5 19  2  0  0  0
  5 20  1  0  0  0
  6  7  1  0  0  0
  6  9  1  0  0  0
  6 45  1  0  0  0
  7  8  1  0  0  0
  8 21  2  0  0  0
  8 22  2  0  0  0
  8 23  1  0  0  0
  9 10  1  0  0  0
  9 11  1  0  0  0
  9 46  1  0  0  0
 10 47  1  0  0  0
 11 12  1  0  0  0
 11 13  1  0  0  0
 11 48  1  0  0  0
 13 14  1  0  0  0
 13 49  1  0  0  0
 13 50  1  0  0  0
 24 28  1  0  0  0
 24 39  2  0  0  0
 24 40  2  0  0  0
 24 41  1  0  0  0
 25 26  1  0  0  0
 25 27  1  0  0  0
 25 34  1  0  0  0
 25 51  1  0  0  0
 26 36  1  0  0  0
 27 28  1  0  0  0
 27 29  1  0  0  0
 27 52  1  0  0  0
 29 30  1  0  0  0
 29 31  1  0  0  0
 29 53  1  0  0  0
 30 54  1  0  0  0
 31 32  1  0  0  0
 31 33  1  0  0  0
 31 55  1  0  0  0
 33 34  1  0  0  0
 33 35  1  0  0  0
 33 56  1  0  0  0
 35 37  2  0  0  0
 35 38  1  0  0  0
 36 57  1  0  0  0
 36 58  1  0  0  0
 36 59  1  0  0  0
M  CHG  5  16  -1  20  -1  23  -1  38  -1  41  -1
M  END
> <s_m_source_file>
../3uda_ligand.sdf

> <i_m_source_file_index>
1

> <s_epik_input>
Tz1TKD1PKShbT0hdKU9bQ0gyXVtDQEBIXShPMSlbQ0BASF0oW09IXSlbQ0BIXShPUyg9TykoPU8pW09IXSlbQ0BASF0oW05IXVMoPU8pKD1PKVtPSF0pW0NASF0xT1tDQEhdKFtDQEBIXShPMilDKD1PKVtPSF0pW0NASF0oW09IXSlbQ0BIXShbQ0BASF0yT1tDSDNdKU9TKD1PKSg9TylbT0hd

> <s_epik_cmdline>
J2VwaWtfYXBwJywgJy1pbWFlJywgJ2xpZ2FuZF9wcm8ubWFlJywgJy1vbWFlJywgJ2xpZ2FuZF9wcmVwLm1hZScsICctbXMnLCAnMScsICctcGgnLCAnNycsICctcGh0JywgJzAuNScsICctbnQn

> <r_epik_Ionization_Penalty>
  0.0373

> <r_epik_Ionization_Penalty_Charging>
  0.0000

> <r_epik_Ionization_Penalty_Neutral>
  0.0373

> <r_epik_State_Penalty>
  0.0312

> <r_epik_Charging_Adjusted_Penalty>
0.0311951986196197

> <i_epik_Tot_Q>
-5

> <i_epik_Tot_abs_Q>
5

> <s_epik_Chemistry_Notes>
This compound contains an acetal/aminal-like group ( X-CH(R)-Y where X, Y are N, S, or O) that may be acid/base labile, releasing an aldehyde.

$$$$
