3udd_ligand
                    3D
 Schrodinger Suite 2020-3.
 48 51  0  0  1  0            999 V2000
  -23.9700   -3.1720   10.6020 S   0  0  0  0  0  0
  -24.0280   -3.6140   12.3730 C   0  0  0  0  0  0
  -23.3060   -2.6320   13.2250 C   0  0  0  0  0  0
  -22.6890   -1.5880   12.9300 N   0  0  0  0  0  0
  -22.1330   -1.0080   14.0980 C   0  0  0  0  0  0
  -22.5120   -1.6960   15.1040 N   0  0  0  0  0  0
  -23.2660   -2.7610   14.5660 O   0  0  0  0  0  0
  -21.3910    0.2990   14.1490 C   0  0  0  0  0  0
  -20.8700    0.7460   15.3700 C   0  0  0  0  0  0
  -20.2360    1.9990   15.4360 C   0  0  0  0  0  0
  -20.1890    2.8280   14.3000 C   0  0  0  0  0  0
  -20.7500    2.3710   13.0800 C   0  0  0  0  0  0
  -21.3850    1.1230   13.0090 C   0  0  0  0  0  0
  -19.5310    4.0720   14.4280 O   0  0  0  0  0  0
  -19.5260    5.0570   13.3690 C   0  0  0  0  0  0
  -24.8900   -4.5650   10.0290 C   0  0  0  0  0  0
  -25.0700   -4.8720    8.7550 N   0  0  0  0  0  0
  -25.7690   -5.9780    8.7820 C   0  0  0  0  0  0
  -25.9920   -6.4060    9.9520 N   0  0  0  0  0  0
  -25.3740   -5.4420   10.8030 N   0  0  0  0  0  0
  -26.2870   -6.7560    7.5960 C   0  0  0  0  0  0
  -24.6530   -4.1600    7.6690 C   0  0  0  0  0  0
  -23.6900   -4.6820    6.7770 C   0  0  0  0  0  0
  -23.2590   -3.9210    5.6810 C   0  0  0  0  0  0
  -23.7880   -2.6340    5.4560 C   0  0  0  0  0  0
  -24.7470   -2.1060    6.3580 C   0  0  0  0  0  0
  -25.1940   -2.8800    7.4380 C   0  0  0  0  0  0
  -23.2710   -1.9070    4.3830 O   0  0  0  0  0  0
  -23.4980   -0.5030    4.1560 C   0  0  0  0  0  0
  -25.0752   -3.6497   12.7079 H   0  0  0  0  0  0
  -23.5621   -4.5995   12.5204 H   0  0  0  0  0  0
  -20.9556    0.1266   16.2628 H   0  0  0  0  0  0
  -19.7798    2.3291   16.3693 H   0  0  0  0  0  0
  -20.6868    2.9960   12.1892 H   0  0  0  0  0  0
  -21.8656    0.7970   12.0866 H   0  0  0  0  0  0
  -18.9555    5.9401   13.6924 H   0  0  0  0  0  0
  -20.5601    5.3527   13.1385 H   0  0  0  0  0  0
  -19.0586    4.6272   12.4708 H   0  0  0  0  0  0
  -26.0022   -6.2407    6.6668 H   0  0  0  0  0  0
  -27.3831   -6.8272    7.6547 H   0  0  0  0  0  0
  -25.8530   -7.7667    7.6026 H   0  0  0  0  0  0
  -23.2809   -5.6789    6.9411 H   0  0  0  0  0  0
  -22.5112   -4.3267    4.9996 H   0  0  0  0  0  0
  -25.1364   -1.0985    6.2114 H   0  0  0  0  0  0
  -25.9644   -2.4892    8.1027 H   0  0  0  0  0  0
  -22.9743   -0.1902    3.2407 H   0  0  0  0  0  0
  -23.1165    0.0732    5.0118 H   0  0  0  0  0  0
  -24.5766   -0.3197    4.0421 H   0  0  0  0  0  0
  1  2  1  0  0  0
  1 16  1  0  0  0
  2  3  1  0  0  0
  2 30  1  0  0  0
  2 31  1  0  0  0
  3  4  2  0  0  0
  3  7  1  0  0  0
  4  5  1  0  0  0
  5  6  2  0  0  0
  5  8  1  0  0  0
  6  7  1  0  0  0
  8  9  2  0  0  0
  8 13  1  0  0  0
  9 10  1  0  0  0
  9 32  1  0  0  0
 10 11  2  0  0  0
 10 33  1  0  0  0
 11 12  1  0  0  0
 11 14  1  0  0  0
 12 13  2  0  0  0
 12 34  1  0  0  0
 13 35  1  0  0  0
 14 15  1  0  0  0
 15 36  1  0  0  0
 15 37  1  0  0  0
 15 38  1  0  0  0
 16 17  1  0  0  0
 16 20  2  0  0  0
 17 18  1  0  0  0
 17 22  1  0  0  0
 18 19  2  0  0  0
 18 21  1  0  0  0
 19 20  1  0  0  0
 21 39  1  0  0  0
 21 40  1  0  0  0
 21 41  1  0  0  0
 22 23  2  0  0  0
 22 27  1  0  0  0
 23 24  1  0  0  0
 23 42  1  0  0  0
 24 25  2  0  0  0
 24 43  1  0  0  0
 25 26  1  0  0  0
 25 28  1  0  0  0
 26 27  2  0  0  0
 26 44  1  0  0  0
 27 45  1  0  0  0
 28 29  1  0  0  0
 29 46  1  0  0  0
 29 47  1  0  0  0
 29 48  1  0  0  0
M  END
> <s_m_source_file>
../3udd_ligand.sdf

> <i_m_source_file_index>
1

> <s_epik_input>
W2NIXTFbY0hdYyhPW0NIM10pW2NIXVtjSF1jMS1uKGMobm4yKVtDSDNdKWMyU1tDSDJdYzNuYyhubzMpLWM0W2NIXVtjSF1jKFtjSF1bY0hdNClPW0NIM10=

> <s_epik_cmdline>
J2VwaWtfYXBwJywgJy1pbWFlJywgJ2xpZ2FuZF9wcm8ubWFlJywgJy1vbWFlJywgJ2xpZ2FuZF9wcmVwLm1hZScsICctbXMnLCAnMScsICctcGgnLCAnNycsICctcGh0JywgJzAuNScsICctbnQn

> <r_lp_tautomer_probability>
1

> <r_epik_Ionization_Penalty>
  0.0000

> <r_epik_Ionization_Penalty_Charging>
  0.0000

> <r_epik_Ionization_Penalty_Neutral>
  0.0000

> <r_epik_State_Penalty>
 -0.0000

> <r_epik_Charging_Adjusted_Penalty>
0

> <i_epik_Tot_Q>
0

> <i_epik_Tot_abs_Q>
0

$$$$
