3udj_ligand
                    3D
 Schrodinger Suite 2020-3.
 33 35  0  0  1  0            999 V2000
   26.5680   37.9470   40.7340 C   0  0  0  0  0  0
   27.1800   38.0940   41.9620 C   0  0  0  0  0  0
   25.2530   37.5350   40.6460 C   0  0  0  0  0  0
   26.4810   37.8640   43.1210 C   0  0  0  0  0  0
   24.5560   37.3140   41.8080 C   0  0  0  0  0  0
   25.1750   37.4580   43.0100 C   0  0  0  0  0  0
   23.0870   36.6850   43.5070 C   0  0  0  0  0  0
   19.8920   36.6300   41.9450 C   0  0  0  0  0  0
   22.0930   37.8460   41.5830 C   0  0  0  0  0  0
   22.9010   35.5610   41.2460 C   0  0  0  0  0  0
   20.9790   37.0180   40.9760 C   0  0  1  0  0  0
   23.1530   36.8500   42.0050 C   0  0  1  0  0  0
   18.4560   37.1840   43.5940 C   0  0  0  0  0  0
   24.2900   37.1190   44.0420 N   0  0  0  0  0  0
   21.6360   35.7770   40.4760 N   0  3  0  0  0  0
   22.0830   36.3650   44.1350 O   0  0  0  0  0  0
   19.4620   35.4960   42.0550 O   0  0  0  0  0  0
   19.3960   37.6790   42.6440 O   0  0  0  0  0  0
   27.1287   38.1584   39.8235 H   0  0  0  0  0  0
   28.2264   38.3950   42.0122 H   0  0  0  0  0  0
   24.7789   37.3885   39.6755 H   0  0  0  0  0  0
   26.9478   37.9994   44.0966 H   0  0  0  0  0  0
   22.4791   38.5491   40.8303 H   0  0  0  0  0  0
   21.7041   38.4084   42.4447 H   0  0  0  0  0  0
   23.7472   35.3607   40.5724 H   0  0  0  0  0  0
   22.7955   34.7302   41.9592 H   0  0  0  0  0  0
   20.4793   37.6032   40.1899 H   0  0  0  0  0  0
   18.0421   38.0235   44.1719 H   0  0  0  0  0  0
   18.9587   36.4821   44.2757 H   0  0  0  0  0  0
   17.6418   36.6644   43.0676 H   0  0  0  0  0  0
   24.6043   37.2198   45.0913 H   0  0  0  0  0  0
   21.8712   35.8833   39.4067 H   0  0  0  0  0  0
   20.9672   34.9157   40.6204 H   0  0  0  0  0  0
  1  2  2  0  0  0
  1  3  1  0  0  0
  1 19  1  0  0  0
  2  4  1  0  0  0
  2 20  1  0  0  0
  3  5  2  0  0  0
  3 21  1  0  0  0
  4  6  2  0  0  0
  4 22  1  0  0  0
  5  6  1  0  0  0
  5 12  1  0  0  0
  6 14  1  0  0  0
  7 12  1  0  0  0
  7 14  1  0  0  0
  7 16  2  0  0  0
  8 11  1  0  0  0
  8 17  2  0  0  0
  8 18  1  0  0  0
  9 11  1  0  0  0
  9 12  1  0  0  0
  9 23  1  0  0  0
  9 24  1  0  0  0
 10 12  1  0  0  0
 10 15  1  0  0  0
 10 25  1  0  0  0
 10 26  1  0  0  0
 11 15  1  0  0  0
 11 27  1  0  0  0
 13 18  1  0  0  0
 13 28  1  0  0  0
 13 29  1  0  0  0
 13 30  1  0  0  0
 14 31  1  0  0  0
 15 32  1  0  0  0
 15 33  1  0  0  0
M  CHG  1  15   1
M  END
> <s_m_source_file>
../3udj_ligand.sdf

> <i_m_source_file_index>
1

> <s_epik_input>
W2NIXTFbY0hdW2NIXVtjSF1jKFtOSF1DMj1PKWMxW0NAXTIzW0NIMl1bQ0BASF0oW05IMitdW0NIMl0zKUMoPU8pT1tDSDNd

> <s_epik_cmdline>
J2VwaWtfYXBwJywgJy1pbWFlJywgJ2xpZ2FuZF9wcm8ubWFlJywgJy1vbWFlJywgJ2xpZ2FuZF9wcmVwLm1hZScsICctbXMnLCAnMScsICctcGgnLCAnNycsICctcGh0JywgJzAuNScsICctbnQn

> <r_epik_Ionization_Penalty>
  0.3644

> <r_epik_Ionization_Penalty_Charging>
  0.3644

> <r_epik_Ionization_Penalty_Neutral>
  0.0000

> <r_epik_State_Penalty>
  0.3614

> <r_epik_Charging_Adjusted_Penalty>
0.72577446401256

> <i_epik_Tot_Q>
1

> <i_epik_Tot_abs_Q>
1

> <s_epik_Chemistry_Notes>
This compound has an ester and may undergo hydrolysis at high or low pH.

$$$$
