3udk_ligand
                    3D
 Schrodinger Suite 2020-3.
 44 47  0  0  1  0            999 V2000
   26.8760   37.9950   40.9650 C   0  0  0  0  0  0
   27.4780   38.0510   42.2090 C   0  0  0  0  0  0
   25.5360   37.6950   40.8370 C   0  0  0  0  0  0
   26.7630   37.7800   43.3560 C   0  0  0  0  0  0
   24.8250   37.4520   41.9860 C   0  0  0  0  0  0
   25.4340   37.4770   43.2070 C   0  0  0  0  0  0
   23.2860   36.9370   43.6350 C   0  0  0  0  0  0
   20.3220   37.0550   42.3300 C   0  0  0  0  0  0
   19.8720   34.0330   44.1600 C   0  0  0  0  0  0
   17.9890   35.5760   43.3720 C   0  0  0  0  0  0
   22.4300   38.1000   41.6450 C   0  0  0  0  0  0
   23.0970   35.7660   41.4430 C   0  0  0  0  0  0
   18.7550   33.1650   44.7010 C   0  0  0  0  0  0
   17.1130   34.6190   44.1460 C   0  0  0  0  0  0
   21.2490   37.3000   41.1690 C   0  0  1  0  0  0
   19.4500   35.4400   43.7570 C   0  0  0  0  0  0
   23.4080   37.0720   42.1390 C   0  0  1  0  0  0
   24.5160   37.1880   44.2130 N   0  0  0  0  0  0
   21.8420   36.0220   40.6960 N   0  3  0  0  0  0
   22.2450   36.6700   44.2160 O   0  0  0  0  0  0
   19.7650   37.9340   42.9680 O   0  0  0  0  0  0
   17.5910   33.3060   43.9050 O   0  0  0  0  0  0
   20.2140   35.7220   42.5890 O   0  0  0  0  0  0
   27.4697   38.1910   40.0722 H   0  0  0  0  0  0
   28.5333   38.3133   42.2835 H   0  0  0  0  0  0
   25.0583   37.6523   39.8582 H   0  0  0  0  0  0
   27.2337   37.8055   44.3388 H   0  0  0  0  0  0
   20.6539   34.1438   44.9257 H   0  0  0  0  0  0
   20.3011   33.5618   43.2634 H   0  0  0  0  0  0
   17.8951   35.3701   42.2955 H   0  0  0  0  0  0
   17.6729   36.6096   43.5765 H   0  0  0  0  0  0
   22.8382   38.6848   40.8075 H   0  0  0  0  0  0
   22.1117   38.7817   42.4475 H   0  0  0  0  0  0
   23.9256   35.5034   40.7688 H   0  0  0  0  0  0
   22.9692   34.9719   42.1934 H   0  0  0  0  0  0
   19.0713   32.1115   44.6901 H   0  0  0  0  0  0
   18.5225   33.4674   45.7327 H   0  0  0  0  0  0
   17.1697   34.8559   45.2187 H   0  0  0  0  0  0
   16.0721   34.7160   43.8036 H   0  0  0  0  0  0
   20.6706   37.7937   40.3742 H   0  0  0  0  0  0
   19.6462   36.1457   44.5776 H   0  0  0  0  0  0
   24.8351   37.1893   45.2657 H   0  0  0  0  0  0
   22.0630   36.0914   39.6207 H   0  0  0  0  0  0
   21.1355   35.1976   40.8726 H   0  0  0  0  0  0
  1  2  2  0  0  0
  1  3  1  0  0  0
  1 24  1  0  0  0
  2  4  1  0  0  0
  2 25  1  0  0  0
  3  5  2  0  0  0
  3 26  1  0  0  0
  4  6  2  0  0  0
  4 27  1  0  0  0
  5  6  1  0  0  0
  5 17  1  0  0  0
  6 18  1  0  0  0
  7 17  1  0  0  0
  7 18  1  0  0  0
  7 20  2  0  0  0
  8 15  1  0  0  0
  8 21  2  0  0  0
  8 23  1  0  0  0
  9 13  1  0  0  0
  9 16  1  0  0  0
  9 28  1  0  0  0
  9 29  1  0  0  0
 10 14  1  0  0  0
 10 16  1  0  0  0
 10 30  1  0  0  0
 10 31  1  0  0  0
 11 15  1  0  0  0
 11 17  1  0  0  0
 11 32  1  0  0  0
 11 33  1  0  0  0
 12 17  1  0  0  0
 12 19  1  0  0  0
 12 34  1  0  0  0
 12 35  1  0  0  0
 13 22  1  0  0  0
 13 36  1  0  0  0
 13 37  1  0  0  0
 14 22  1  0  0  0
 14 38  1  0  0  0
 14 39  1  0  0  0
 15 19  1  0  0  0
 15 40  1  0  0  0
 16 23  1  0  0  0
 16 41  1  0  0  0
 18 42  1  0  0  0
 19 43  1  0  0  0
 19 44  1  0  0  0
M  CHG  1  19   1
M  END
> <s_m_source_file>
../3udk_ligand.sdf

> <i_m_source_file_index>
1

> <s_epik_input>
W2NIXTFbY0hdW2NIXVtjSF1jKFtOSF1DMj1PKWMxW0NAXTIzW0NIMl1bQ0BASF0oW05IMitdW0NIMl0zKUMoPU8pT1tDSF00W0NIMl1bQ0gyXU9bQ0gyXVtDSDJdNA==

> <s_epik_cmdline>
J2VwaWtfYXBwJywgJy1pbWFlJywgJ2xpZ2FuZF9wcm8ubWFlJywgJy1vbWFlJywgJ2xpZ2FuZF9wcmVwLm1hZScsICctbXMnLCAnMScsICctcGgnLCAnNycsICctcGh0JywgJzAuNScsICctbnQn

> <r_epik_Ionization_Penalty>
  0.2229

> <r_epik_Ionization_Penalty_Charging>
  0.2229

> <r_epik_Ionization_Penalty_Neutral>
  0.0000

> <r_epik_State_Penalty>
  0.2134

> <r_epik_Charging_Adjusted_Penalty>
0.436300422734899

> <i_epik_Tot_Q>
1

> <i_epik_Tot_abs_Q>
1

> <s_epik_Chemistry_Notes>
This compound has an ester and may undergo hydrolysis at high or low pH.

$$$$
