3udm_ligand
                    3D
 Schrodinger Suite 2020-3.
 43 46  0  0  1  0            999 V2000
   16.8290   41.7660   43.1790 C   0  0  0  0  0  0
   26.5550   37.4100   40.1960 C   0  0  0  0  0  0
   17.3590   41.0580   44.2530 C   0  0  0  0  0  0
   16.6240   41.1110   41.9540 C   0  0  0  0  0  0
   27.0940   37.5700   41.4730 C   0  0  0  0  0  0
   25.2340   36.9890   40.0620 C   0  0  0  0  0  0
   17.7450   39.7210   44.0880 C   0  0  0  0  0  0
   16.9880   39.7670   41.7980 C   0  0  0  0  0  0
   26.3380   37.3120   42.5990 C   0  0  0  0  0  0
   24.4650   36.7690   41.1950 C   0  0  0  0  0  0
   17.5490   39.0570   42.8720 C   0  0  0  0  0  0
   25.0190   36.9060   42.4660 C   0  0  0  0  0  0
   23.0040   36.1210   42.7310 C   0  0  0  0  0  0
   19.8050   36.4910   41.2360 C   0  0  0  0  0  0
   22.0600   37.4630   40.9000 C   0  0  0  0  0  0
   22.7270   35.1310   40.4290 C   0  0  0  0  0  0
   20.9150   36.7330   40.2390 C   0  0  1  0  0  0
   23.0460   36.3690   41.2550 C   0  0  1  0  0  0
   18.0070   37.6090   42.6950 C   0  0  0  0  0  0
   24.0630   36.6240   43.3840 N   0  0  0  0  0  0
   21.5010   35.4910   39.7780 N   0  3  0  0  0  0
   21.8840   36.1080   43.3340 O   0  0  0  0  0  0
   19.3780   35.3660   41.4160 O   0  0  0  0  0  0
   19.1120   37.6330   41.7830 O   0  0  0  0  0  0
   16.5750   42.8204   43.2876 H   0  0  0  0  0  0
   27.1611   37.6123   39.3129 H   0  0  0  0  0  0
   17.4739   41.5430   45.2223 H   0  0  0  0  0  0
   16.1787   41.6517   41.1189 H   0  0  0  0  0  0
   28.1260   37.9032   41.5831 H   0  0  0  0  0  0
   24.8067   36.8332   39.0714 H   0  0  0  0  0  0
   18.2056   39.1895   44.9207 H   0  0  0  0  0  0
   16.8352   39.2707   40.8396 H   0  0  0  0  0  0
   26.7770   37.4272   43.5900 H   0  0  0  0  0  0
   22.4878   38.1899   40.1939 H   0  0  0  0  0  0
   21.6920   37.9912   41.7919 H   0  0  0  0  0  0
   23.5456   34.9432   39.7187 H   0  0  0  0  0  0
   22.6146   34.2639   41.0964 H   0  0  0  0  0  0
   20.4729   37.2698   39.3868 H   0  0  0  0  0  0
   18.3133   37.1997   43.6690 H   0  0  0  0  0  0
   17.1788   37.0094   42.2894 H   0  0  0  0  0  0
   24.2490   36.8210   44.4501 H   0  0  0  0  0  0
   21.6786   35.6039   38.6983 H   0  0  0  0  0  0
   20.7516   34.7034   39.9460 H   0  0  0  0  0  0
  1  3  2  0  0  0
  1  4  1  0  0  0
  1 25  1  0  0  0
  2  5  2  0  0  0
  2  6  1  0  0  0
  2 26  1  0  0  0
  3  7  1  0  0  0
  3 27  1  0  0  0
  4  8  2  0  0  0
  4 28  1  0  0  0
  5  9  1  0  0  0
  5 29  1  0  0  0
  6 10  2  0  0  0
  6 30  1  0  0  0
  7 11  2  0  0  0
  7 31  1  0  0  0
  8 11  1  0  0  0
  8 32  1  0  0  0
  9 12  2  0  0  0
  9 33  1  0  0  0
 10 12  1  0  0  0
 10 18  1  0  0  0
 11 19  1  0  0  0
 12 20  1  0  0  0
 13 18  1  0  0  0
 13 20  1  0  0  0
 13 22  2  0  0  0
 14 17  1  0  0  0
 14 23  2  0  0  0
 14 24  1  0  0  0
 15 17  1  0  0  0
 15 18  1  0  0  0
 15 34  1  0  0  0
 15 35  1  0  0  0
 16 18  1  0  0  0
 16 21  1  0  0  0
 16 36  1  0  0  0
 16 37  1  0  0  0
 17 21  1  0  0  0
 17 38  1  0  0  0
 19 24  1  0  0  0
 19 39  1  0  0  0
 19 40  1  0  0  0
 20 41  1  0  0  0
 21 42  1  0  0  0
 21 43  1  0  0  0
M  CHG  1  21   1
M  END
> <s_m_source_file>
../3udm_ligand.sdf

> <i_m_source_file_index>
1

> <s_epik_input>
W2NIXTFbY0hdW2NIXVtjSF1bY0hdYzFbQ0gyXU9DKD1PKVtDQEhdKFtOSDIrXVtDSDJdMilbQ0gyXVtDQF0yM2M0YyhbTkhdQzM9TylbY0hdW2NIXVtjSF1bY0hdNA==

> <s_epik_cmdline>
J2VwaWtfYXBwJywgJy1pbWFlJywgJ2xpZ2FuZF9wcm8ubWFlJywgJy1vbWFlJywgJ2xpZ2FuZF9wcmVwLm1hZScsICctbXMnLCAnMScsICctcGgnLCAnNycsICctcGh0JywgJzAuNScsICctbnQn

> <r_epik_Ionization_Penalty>
  0.4052

> <r_epik_Ionization_Penalty_Charging>
  0.4052

> <r_epik_Ionization_Penalty_Neutral>
  0.0000

> <r_epik_State_Penalty>
  0.4048

> <r_epik_Charging_Adjusted_Penalty>
0.809978743266331

> <i_epik_Tot_Q>
1

> <i_epik_Tot_abs_Q>
1

> <s_epik_Chemistry_Notes>
This compound has an ester and may undergo hydrolysis at high or low pH.

$$$$
