3udn_ligand
                    3D
 Schrodinger Suite 2020-3.
 44 47  0  0  1  0            999 V2000
   16.8260   42.3710   44.1840 C   0  0  0  0  0  0
   26.3510   37.1110   39.9060 C   0  0  0  0  0  0
   26.9520   37.2090   41.1520 C   0  0  0  0  0  0
   17.0520   40.8010   42.3300 C   0  0  0  0  0  0
   17.3730   40.1040   44.6080 C   0  0  0  0  0  0
   25.0090   36.8120   39.7890 C   0  0  0  0  0  0
   17.3300   39.5070   41.9110 C   0  0  0  0  0  0
   17.6430   38.8220   44.1930 C   0  0  0  0  0  0
   26.2310   36.9790   42.3050 C   0  0  0  0  0  0
   17.0890   41.0830   43.6860 C   0  0  0  0  0  0
   24.3050   36.5920   40.9540 C   0  0  0  0  0  0
   17.6190   38.5250   42.8500 C   0  0  0  0  0  0
   24.9000   36.6690   42.1740 C   0  0  0  0  0  0
   22.7700   36.0650   42.6110 C   0  0  0  0  0  0
   19.6010   36.2810   41.0590 C   0  0  0  0  0  0
   21.9480   37.3250   40.6960 C   0  0  0  0  0  0
   22.5530   34.9610   40.3800 C   0  0  0  0  0  0
   20.7550   36.5770   40.1320 C   0  0  1  0  0  0
   22.8910   36.2340   41.1150 C   0  0  1  0  0  0
   17.9330   37.1350   42.4230 C   0  0  0  0  0  0
   16.5770   43.4230   44.5940 N   0  0  0  0  0  0
   23.9750   36.3850   43.1770 N   0  0  0  0  0  0
   21.2730   35.2620   39.6860 N   0  3  0  0  0  0
   21.7500   35.7170   43.1920 O   0  0  0  0  0  0
   19.1750   35.1550   41.2350 O   0  0  0  0  0  0
   19.0900   37.3760   41.6270 O   0  0  0  0  0  0
   26.9465   37.2723   39.0074 H   0  0  0  0  0  0
   28.0078   37.4712   41.2210 H   0  0  0  0  0  0
   16.8095   41.5795   41.6067 H   0  0  0  0  0  0
   17.3841   40.3450   45.6710 H   0  0  0  0  0  0
   24.5247   36.7521   38.8143 H   0  0  0  0  0  0
   17.3215   39.2624   40.8488 H   0  0  0  0  0  0
   17.8745   38.0461   44.9227 H   0  0  0  0  0  0
   26.7016   37.0412   43.2862 H   0  0  0  0  0  0
   22.3787   37.9698   39.9158 H   0  0  0  0  0  0
   21.6244   37.9439   41.5459 H   0  0  0  0  0  0
   23.3588   34.7225   39.6702 H   0  0  0  0  0  0
   22.4450   34.1383   41.1021 H   0  0  0  0  0  0
   20.3369   37.2249   39.3475 H   0  0  0  0  0  0
   18.1225   36.5129   43.3102 H   0  0  0  0  0  0
   17.0818   36.7229   41.8612 H   0  0  0  0  0  0
   24.2753   36.4403   44.2338 H   0  0  0  0  0  0
   21.4424   35.2882   38.5994 H   0  0  0  0  0  0
   20.5349   34.4817   39.9233 H   0  0  0  0  0  0
  1 10  1  0  0  0
  1 21  3  0  0  0
  2  3  2  0  0  0
  2  6  1  0  0  0
  2 27  1  0  0  0
  3  9  1  0  0  0
  3 28  1  0  0  0
  4  7  2  0  0  0
  4 10  1  0  0  0
  4 29  1  0  0  0
  5  8  1  0  0  0
  5 10  2  0  0  0
  5 30  1  0  0  0
  6 11  2  0  0  0
  6 31  1  0  0  0
  7 12  1  0  0  0
  7 32  1  0  0  0
  8 12  2  0  0  0
  8 33  1  0  0  0
  9 13  2  0  0  0
  9 34  1  0  0  0
 11 13  1  0  0  0
 11 19  1  0  0  0
 12 20  1  0  0  0
 13 22  1  0  0  0
 14 19  1  0  0  0
 14 22  1  0  0  0
 14 24  2  0  0  0
 15 18  1  0  0  0
 15 25  2  0  0  0
 15 26  1  0  0  0
 16 18  1  0  0  0
 16 19  1  0  0  0
 16 35  1  0  0  0
 16 36  1  0  0  0
 17 19  1  0  0  0
 17 23  1  0  0  0
 17 37  1  0  0  0
 17 38  1  0  0  0
 18 23  1  0  0  0
 18 39  1  0  0  0
 20 26  1  0  0  0
 20 40  1  0  0  0
 20 41  1  0  0  0
 22 42  1  0  0  0
 23 43  1  0  0  0
 23 44  1  0  0  0
M  CHG  1  23   1
M  END
> <s_m_source_file>
../3udn_ligand.sdf

> <i_m_source_file_index>
1

> <s_epik_input>
TiNDYzFbY0hdW2NIXWMoW2NIXVtjSF0xKVtDSDJdT0MoPU8pW0NASF0oW05IMitdW0NIMl0yKVtDSDJdW0NAXTIzYzRjKFtOSF1DMz1PKVtjSF1bY0hdW2NIXVtjSF00

> <s_epik_cmdline>
J2VwaWtfYXBwJywgJy1pbWFlJywgJ2xpZ2FuZF9wcm8ubWFlJywgJy1vbWFlJywgJ2xpZ2FuZF9wcmVwLm1hZScsICctbXMnLCAnMScsICctcGgnLCAnNycsICctcGh0JywgJzAuNScsICctbnQn

> <r_epik_Ionization_Penalty>
  0.4052

> <r_epik_Ionization_Penalty_Charging>
  0.4052

> <r_epik_Ionization_Penalty_Neutral>
  0.0000

> <r_epik_State_Penalty>
  0.4048

> <r_epik_Charging_Adjusted_Penalty>
0.809978743266331

> <i_epik_Tot_Q>
1

> <i_epik_Tot_abs_Q>
1

> <s_epik_Chemistry_Notes>
This compound has an ester and may undergo hydrolysis at high or low pH.

$$$$
