3udp_ligand
                    3D
 Schrodinger Suite 2020-3.
 48 52  0  0  1  0            999 V2000
   26.3070   37.6460   40.0520 C   0  0  0  0  0  0
   26.8700   37.7740   41.3100 C   0  0  0  0  0  0
   25.0310   37.1400   39.9050 C   0  0  0  0  0  0
   26.1700   37.3990   42.4430 C   0  0  0  0  0  0
   17.0550   39.3990   45.0130 C   0  0  0  0  0  0
   16.7770   40.3370   44.0390 C   0  0  0  0  0  0
   17.5240   38.7800   42.3940 C   0  0  0  0  0  0
   24.3350   36.7850   41.0390 C   0  0  0  0  0  0
   17.7910   37.8370   43.3600 C   0  0  0  0  0  0
   24.8940   36.9250   42.2720 C   0  0  0  0  0  0
   17.5600   38.1490   44.6920 C   0  0  0  0  0  0
   17.0120   40.0110   42.7220 C   0  0  0  0  0  0
   22.8520   36.0300   42.6510 C   0  0  0  0  0  0
   19.7640   35.9780   41.0520 C   0  0  0  0  0  0
   18.9590   35.7260   43.9620 C   0  0  0  0  0  0
   21.8790   37.2890   40.8660 C   0  0  0  0  0  0
   22.6990   35.0290   40.3870 C   0  0  0  0  0  0
   17.9220   35.4870   45.0380 C   0  0  0  0  0  0
   18.3570   36.5430   42.8420 C   0  0  2  0  0  0
   20.8170   36.5110   40.1290 C   0  0  1  0  0  0
   22.9530   36.2800   41.1750 C   0  0  1  0  0  0
   24.0060   36.4810   43.2470 N   0  0  0  0  0  0
   21.5520   35.3660   39.5350 N   0  3  0  0  0  0
   21.8650   35.5650   43.1960 O   0  0  0  0  0  0
   19.3100   34.8470   40.9720 O   0  0  0  0  0  0
   19.4130   36.9230   41.9530 O   0  0  0  0  0  0
   17.8530   36.9970   46.0290 S   0  0  0  0  0  0
   16.6780   41.2460   41.3160 Br  0  0  0  0  0  0
   26.8749   37.9467   39.1716 H   0  0  0  0  0  0
   27.8784   38.1756   41.4094 H   0  0  0  0  0  0
   24.5859   37.0244   38.9168 H   0  0  0  0  0  0
   26.6158   37.4773   43.4346 H   0  0  0  0  0  0
   16.8731   39.6473   46.0586 H   0  0  0  0  0  0
   16.3795   41.3159   44.3071 H   0  0  0  0  0  0
   17.7228   38.5451   41.3483 H   0  0  0  0  0  0
   19.8132   36.2707   44.3906 H   0  0  0  0  0  0
   19.3028   34.7602   43.5631 H   0  0  0  0  0  0
   22.2539   38.0982   40.2221 H   0  0  0  0  0  0
   21.4488   37.7191   41.7825 H   0  0  0  0  0  0
   23.5928   34.7801   39.7961 H   0  0  0  0  0  0
   22.4725   34.2016   41.0755 H   0  0  0  0  0  0
   16.9486   35.2795   44.5695 H   0  0  0  0  0  0
   18.2236   34.6265   45.6533 H   0  0  0  0  0  0
   17.5955   35.9453   42.3197 H   0  0  0  0  0  0
   20.2994   37.1371   39.3874 H   0  0  0  0  0  0
   24.2868   36.5287   44.3095 H   0  0  0  0  0  0
   21.9088   35.6393   38.5310 H   0  0  0  0  0  0
   20.8816   34.4969   39.4619 H   0  0  0  0  0  0
  1  2  2  0  0  0
  1  3  1  0  0  0
  1 29  1  0  0  0
  2  4  1  0  0  0
  2 30  1  0  0  0
  3  8  2  0  0  0
  3 31  1  0  0  0
  4 10  2  0  0  0
  4 32  1  0  0  0
  5  6  2  0  0  0
  5 11  1  0  0  0
  5 33  1  0  0  0
  6 12  1  0  0  0
  6 34  1  0  0  0
  7  9  1  0  0  0
  7 12  2  0  0  0
  7 35  1  0  0  0
  8 10  1  0  0  0
  8 21  1  0  0  0
  9 11  2  0  0  0
  9 19  1  0  0  0
 10 22  1  0  0  0
 11 27  1  0  0  0
 12 28  1  0  0  0
 13 21  1  0  0  0
 13 22  1  0  0  0
 13 24  2  0  0  0
 14 20  1  0  0  0
 14 25  2  0  0  0
 14 26  1  0  0  0
 15 18  1  0  0  0
 15 19  1  0  0  0
 15 36  1  0  0  0
 15 37  1  0  0  0
 16 20  1  0  0  0
 16 21  1  0  0  0
 16 38  1  0  0  0
 16 39  1  0  0  0
 17 21  1  0  0  0
 17 23  1  0  0  0
 17 40  1  0  0  0
 17 41  1  0  0  0
 18 27  1  0  0  0
 18 42  1  0  0  0
 18 43  1  0  0  0
 19 26  1  0  0  0
 19 44  1  0  0  0
 20 23  1  0  0  0
 20 45  1  0  0  0
 22 46  1  0  0  0
 23 47  1  0  0  0
 23 48  1  0  0  0
M  CHG  1  23   1
M  END
> <s_m_source_file>
../3udp_ligand.sdf

> <i_m_source_file_index>
1

> <s_epik_input>
W2NIXTFbY0hdW2NIXVtjSF1jKFtOSF1DMj1PKWMxW0NAXTIzW0NIMl1bQ0BASF0oW05IMitdW0NIMl0zKUMoPU8pT1tDQEhdNFtDSDJdW0NIMl1TYyhjNDUpW2NIXVtjSF1jKEJyKVtjSF01

> <s_epik_cmdline>
J2VwaWtfYXBwJywgJy1pbWFlJywgJ2xpZ2FuZF9wcm8ubWFlJywgJy1vbWFlJywgJ2xpZ2FuZF9wcmVwLm1hZScsICctbXMnLCAnMScsICctcGgnLCAnNycsICctcGh0JywgJzAuNScsICctbnQn

> <r_epik_Ionization_Penalty>
  0.2582

> <r_epik_Ionization_Penalty_Charging>
  0.2582

> <r_epik_Ionization_Penalty_Neutral>
  0.0000

> <r_epik_State_Penalty>
  0.2498

> <r_epik_Charging_Adjusted_Penalty>
0.508034174736331

> <i_epik_Tot_Q>
1

> <i_epik_Tot_abs_Q>
1

> <s_epik_Chemistry_Notes>
This compound has an ester and may undergo hydrolysis at high or low pH.

$$$$
