3udr_ligand
                    3D
 Schrodinger Suite 2020-3.
 47 50  0  0  1  0            999 V2000
   18.9520   35.7220   44.0700 C   0  0  0  0  0  0
   26.4590   37.3340   40.2500 C   0  0  0  0  0  0
   27.0140   37.4920   41.5090 C   0  0  0  0  0  0
   25.1400   36.9470   40.1040 C   0  0  0  0  0  0
   26.2860   37.2380   42.6470 C   0  0  0  0  0  0
   24.4040   36.7220   41.2430 C   0  0  0  0  0  0
   24.9800   36.8650   42.4760 C   0  0  0  0  0  0
   22.8550   36.2630   42.8980 C   0  0  0  0  0  0
   19.8280   36.5230   41.5710 C   0  0  0  0  0  0
   16.6880   32.9840   43.8880 C   0  0  0  0  0  0
   18.1270   32.8880   44.3350 C   0  0  0  0  0  0
   16.3240   34.3930   43.5000 C   0  0  0  0  0  0
   19.0430   33.4470   43.2650 C   0  0  0  0  0  0
   17.2640   34.9710   42.4650 C   0  0  0  0  0  0
   22.0230   37.4260   40.9120 C   0  0  0  0  0  0
   22.5960   35.0740   40.6400 C   0  0  0  0  0  0
   20.7970   36.6940   40.4220 C   0  0  1  0  0  0
   18.7100   34.8800   42.9040 C   0  0  0  0  0  0
   22.9760   36.3520   41.3810 C   0  0  1  0  0  0
   19.1480   36.3740   45.0110 N   0  0  0  0  0  0
   24.0700   36.5880   43.4650 N   0  0  0  0  0  0
   21.3330   35.3910   39.9090 N   0  3  0  0  0  0
   21.8390   35.9830   43.5300 O   0  0  0  0  0  0
   19.2240   37.4530   42.1000 O   0  0  0  0  0  0
   19.5900   35.2060   41.7890 O   0  0  0  0  0  0
   27.0686   37.5167   39.3651 H   0  0  0  0  0  0
   28.0482   37.8242   41.5993 H   0  0  0  0  0  0
   24.6970   36.8240   39.1157 H   0  0  0  0  0  0
   26.7280   37.3293   43.6392 H   0  0  0  0  0  0
   16.5303   32.3311   43.0169 H   0  0  0  0  0  0
   16.0273   32.6669   44.7083 H   0  0  0  0  0  0
   18.2620   33.4637   45.2626 H   0  0  0  0  0  0
   18.3850   31.8342   44.5166 H   0  0  0  0  0  0
   15.3078   34.4065   43.0791 H   0  0  0  0  0  0
   16.3611   35.0394   44.3892 H   0  0  0  0  0  0
   20.0829   33.4217   43.6227 H   0  0  0  0  0  0
   18.9543   32.8394   42.3523 H   0  0  0  0  0  0
   17.1548   34.4175   41.5207 H   0  0  0  0  0  0
   17.0200   36.0307   42.2991 H   0  0  0  0  0  0
   22.4540   38.0124   40.0872 H   0  0  0  0  0  0
   21.7430   38.1008   41.7343 H   0  0  0  0  0  0
   23.4028   34.7999   39.9443 H   0  0  0  0  0  0
   22.4451   34.2608   41.3652 H   0  0  0  0  0  0
   20.2394   37.2157   39.6302 H   0  0  0  0  0  0
   24.3709   36.6467   44.5214 H   0  0  0  0  0  0
   21.5427   35.4705   38.8321 H   0  0  0  0  0  0
   20.5987   34.5903   40.0814 H   0  0  0  0  0  0
  1 18  1  0  0  0
  1 20  3  0  0  0
  2  3  2  0  0  0
  2  4  1  0  0  0
  2 26  1  0  0  0
  3  5  1  0  0  0
  3 27  1  0  0  0
  4  6  2  0  0  0
  4 28  1  0  0  0
  5  7  2  0  0  0
  5 29  1  0  0  0
  6  7  1  0  0  0
  6 19  1  0  0  0
  7 21  1  0  0  0
  8 19  1  0  0  0
  8 21  1  0  0  0
  8 23  2  0  0  0
  9 17  1  0  0  0
  9 24  2  0  0  0
  9 25  1  0  0  0
 10 11  1  0  0  0
 10 12  1  0  0  0
 10 30  1  0  0  0
 10 31  1  0  0  0
 11 13  1  0  0  0
 11 32  1  0  0  0
 11 33  1  0  0  0
 12 14  1  0  0  0
 12 34  1  0  0  0
 12 35  1  0  0  0
 13 18  1  0  0  0
 13 36  1  0  0  0
 13 37  1  0  0  0
 14 18  1  0  0  0
 14 38  1  0  0  0
 14 39  1  0  0  0
 15 17  1  0  0  0
 15 19  1  0  0  0
 15 40  1  0  0  0
 15 41  1  0  0  0
 16 19  1  0  0  0
 16 22  1  0  0  0
 16 42  1  0  0  0
 16 43  1  0  0  0
 17 22  1  0  0  0
 17 44  1  0  0  0
 18 25  1  0  0  0
 21 45  1  0  0  0
 22 46  1  0  0  0
 22 47  1  0  0  0
M  CHG  1  22   1
M  END
> <s_m_source_file>
../3udr_ligand.sdf

> <i_m_source_file_index>
1

> <s_epik_input>
W0NIMl0xW0NIMl1bQ0gyXVtDSDJdW0NIMl1DMShDI04pT0MoPU8pW0NASF0oW05IMitdW0NIMl0yKVtDSDJdW0NAXTIzYzRjKFtOSF1DMz1PKVtjSF1bY0hdW2NIXVtjSF00

> <s_epik_cmdline>
J2VwaWtfYXBwJywgJy1pbWFlJywgJ2xpZ2FuZF9wcm8ubWFlJywgJy1vbWFlJywgJ2xpZ2FuZF9wcmVwLm1hZScsICctbXMnLCAnMScsICctcGgnLCAnNycsICctcGh0JywgJzAuNScsICctbnQn

> <r_epik_Ionization_Penalty>
  0.3509

> <r_epik_Ionization_Penalty_Charging>
  0.3509

> <r_epik_Ionization_Penalty_Neutral>
  0.0000

> <r_epik_State_Penalty>
  0.3472

> <r_epik_Charging_Adjusted_Penalty>
0.698109916455097

> <i_epik_Tot_Q>
1

> <i_epik_Tot_abs_Q>
1

> <s_epik_Chemistry_Notes>
This compound has an ester and may undergo hydrolysis at high or low pH.

$$$$
