3udv_ligand
                    3D
 Schrodinger Suite 2020-3.
 80 85  0  0  1  0            999 V2000
    1.9210   17.2430   15.5880 C   0  0  1  0  0  0
    2.6290   14.3620   13.4830 N   0  0  0  0  0  0
    1.9640   16.4560   14.4020 O   0  0  0  0  0  0
    3.9310   19.3840   15.1450 S   0  0  0  0  0  0
    2.9170   16.5400   16.5680 C   0  0  1  0  0  0
    2.3030   12.9850   11.6460 N   0  0  0  0  0  0
    2.2670   16.3910   17.7930 O   0  0  0  0  0  0
    3.2050   15.1240   15.8830 C   0  0  1  0  0  0
    4.6390   12.4390    9.6550 N   0  0  0  0  0  0
    2.9640   14.0520   16.7650 O   0  0  0  0  0  0
    2.2010   15.1010   14.7140 C   0  0  2  0  0  0
    5.9220   13.8300   11.0300 N   0  0  0  0  0  0
    4.8120   25.4880   11.1040 O   0  0  0  0  0  0
    1.7390   13.5330   12.7260 C   0  0  0  0  0  0
    5.0200   14.9190   13.0350 N   0  0  0  0  0  0
    9.3620   24.9010    7.0680 O   0  0  0  0  0  0
    3.6240   13.4570   11.6490 C   0  0  0  0  0  0
    5.2940   19.9960   11.4160 N   0  3  2  0  0  0
    4.7160   13.2300   10.7600 C   0  0  0  0  0  0
    5.9740   14.6140   12.1300 C   0  0  0  0  0  0
    7.2900   28.2170    5.8460 N   0  0  0  0  0  0
    3.8360   14.3100   12.7710 C   0  0  0  0  0  0
    8.9970   28.4290    4.2170 N   0  0  0  0  0  0
    2.1620   18.7790   15.3010 C   0  0  0  0  0  0
    9.1260   26.6350    5.6940 N   0  0  0  0  0  0
    4.9790   18.3060   13.9360 C   0  0  1  0  0  0
    6.9930   25.5890    8.4700 N   0  0  0  0  0  0
    4.2350   18.0300   12.6430 C   0  0  0  0  0  0
    5.6790   27.8890    7.5540 N   0  0  0  0  0  0
    4.0170   19.3470   11.8820 C   0  0  0  0  0  0
    6.3870   20.0330   12.4950 C   0  0  0  0  0  0
    6.3670   18.8800   13.5560 C   0  0  0  0  0  0
    4.9810   21.2790   10.6160 C   0  0  0  0  0  0
    5.4480   25.0060   10.1660 C   0  0  0  0  0  0
    8.4430   27.7560    5.2850 C   0  0  0  0  0  0
    8.6700   25.8730    6.7970 C   0  0  0  0  0  0
    5.8960   25.9370    9.0600 C   0  0  0  0  0  0
    5.0870   27.1900    8.7340 C   0  0  0  0  0  0
    4.9880   28.2450    9.8330 C   0  0  0  0  0  0
    3.6450   26.7730    8.3870 C   0  0  0  0  0  0
    6.8180   27.4810    6.9230 C   0  0  0  0  0  0
    7.4470   26.3400    7.4010 C   0  0  0  0  0  0
    5.2970   22.6860   11.1850 C   0  0  0  0  0  0
    5.7250   23.6370   10.1210 N   0  0  0  0  0  0
    0.8951   17.2061   15.9831 H   0  0  0  0  0  0
    3.8128   17.1086   16.8582 H   0  0  0  0  0  0
    2.0007   17.2785   18.3859 H   0  0  0  0  0  0
    4.2485   14.9055   15.6121 H   0  0  0  0  0  0
    5.5208   12.3066    9.0108 H   0  0  0  0  0  0
    3.6950   11.9321    9.4061 H   0  0  0  0  0  0
    3.5943   13.9213   17.6570 H   0  0  0  0  0  0
    1.2659   14.6010   15.0066 H   0  0  0  0  0  0
    0.6988   13.3651   13.0051 H   0  0  0  0  0  0
    5.7825   19.3364   10.6837 H   0  0  0  0  0  0
    6.9440   15.0748   12.3165 H   0  0  0  0  0  0
    8.5124   29.3365    3.8276 H   0  0  0  0  0  0
    1.6829   19.0538   14.3497 H   0  0  0  0  0  0
    1.7282   19.3768   16.1161 H   0  0  0  0  0  0
    5.2738   17.3018   14.2746 H   0  0  0  0  0  0
    4.8251   17.3416   12.0202 H   0  0  0  0  0  0
    3.2602   17.5741   12.8710 H   0  0  0  0  0  0
    3.4835   20.0312   12.5581 H   0  0  0  0  0  0
    3.3819   19.1214   11.0127 H   0  0  0  0  0  0
    7.3763   19.9819   12.0167 H   0  0  0  0  0  0
    6.3048   20.9682   13.0683 H   0  0  0  0  0  0
    6.8514   19.2923   14.4534 H   0  0  0  0  0  0
    6.9930   18.0785   13.1369 H   0  0  0  0  0  0
    5.5350   21.2629    9.6658 H   0  0  0  0  0  0
    3.9015   21.3287   10.4103 H   0  0  0  0  0  0
    5.9983   28.5756   10.1160 H   0  0  0  0  0  0
    4.4840   27.8140   10.7106 H   0  0  0  0  0  0
    4.4104   29.1055    9.4642 H   0  0  0  0  0  0
    3.6645   26.0098    7.5951 H   0  0  0  0  0  0
    3.0837   27.6515    8.0359 H   0  0  0  0  0  0
    3.1573   26.3600    9.2823 H   0  0  0  0  0  0
    4.3986   23.0957   11.6698 H   0  0  0  0  0  0
    6.1091   22.6092   11.9230 H   0  0  0  0  0  0
    6.2863   23.2703    9.2490 H   0  0  0  0  0  0
    9.9236   28.0585    3.7542 H   0  0  0  0  0  0
    5.1928   28.7874    7.1460 H   0  0  0  0  0  0
  1  3  1  0  0  0
  1  5  1  0  0  0
  1 24  1  0  0  0
  1 45  1  0  0  0
  2 11  1  0  0  0
  2 14  1  0  0  0
  2 22  1  0  0  0
  3 11  1  0  0  0
  4 24  1  0  0  0
  4 26  1  0  0  0
  5  7  1  0  0  0
  5  8  1  0  0  0
  5 46  1  0  0  0
  6 14  2  0  0  0
  6 17  1  0  0  0
  7 47  1  0  0  0
  8 10  1  0  0  0
  8 11  1  0  0  0
  8 48  1  0  0  0
  9 19  1  0  0  0
  9 49  1  0  0  0
  9 50  1  0  0  0
 10 51  1  0  0  0
 11 52  1  0  0  0
 12 19  1  0  0  0
 12 20  2  0  0  0
 13 34  2  0  0  0
 14 53  1  0  0  0
 15 20  1  0  0  0
 15 22  2  0  0  0
 16 36  2  0  0  0
 17 19  2  0  0  0
 17 22  1  0  0  0
 18 30  1  0  0  0
 18 31  1  0  0  0
 18 33  1  0  0  0
 18 54  1  0  0  0
 20 55  1  0  0  0
 21 35  2  0  0  0
 21 41  1  0  0  0
 23 35  1  0  0  0
 23 56  1  0  0  0
 23 79  1  0  0  0
 24 57  1  0  0  0
 24 58  1  0  0  0
 25 35  1  0  0  0
 25 36  1  0  0  0
 26 28  1  0  0  0
 26 32  1  0  0  0
 26 59  1  0  0  0
 27 37  2  0  0  0
 27 42  1  0  0  0
 28 30  1  0  0  0
 28 60  1  0  0  0
 28 61  1  0  0  0
 29 38  1  0  0  0
 29 41  1  0  0  0
 29 80  1  0  0  0
 30 62  1  0  0  0
 30 63  1  0  0  0
 31 32  1  0  0  0
 31 64  1  0  0  0
 31 65  1  0  0  0
 32 66  1  0  0  0
 32 67  1  0  0  0
 33 43  1  0  0  0
 33 68  1  0  0  0
 33 69  1  0  0  0
 34 37  1  0  0  0
 34 44  1  0  0  0
 36 42  1  0  0  0
 37 38  1  0  0  0
 38 39  1  0  0  0
 38 40  1  0  0  0
 39 70  1  0  0  0
 39 71  1  0  0  0
 39 72  1  0  0  0
 40 73  1  0  0  0
 40 74  1  0  0  0
 40 75  1  0  0  0
 41 42  2  0  0  0
 43 44  1  0  0  0
 43 76  1  0  0  0
 43 77  1  0  0  0
 44 78  1  0  0  0
M  CHG  1  18   1
M  END
> <s_m_source_file>
../3udv_ligand.sdf

> <i_m_source_file_index>
1

> <s_epik_input>
W05IMl1jMW5bY0hdbmMoYzEyKW4oW2NIXW4yKVtDQEBIXShbQ0BIXShbT0hdKVtDQEBIXTNbT0hdKU9bQ0BASF0zW0NIMl1TW0NASF0oW0NIMl1bQ0gyXTQpW0NIMl1bQ0gyXVtOQEgrXTRbQ0gyXVtDSDJdW05IXUMoPU8pQyhDKE49NSkoW0NIM10pW0NIM10pPU5bQ0hdKEM1NilDKD1PKVtOSF1DKC9bTkhdNik9TlxbSF0=

> <s_epik_cmdline>
J2VwaWtfYXBwJywgJy1pbWFlJywgJ2xpZ2FuZF9wcm8ubWFlJywgJy1vbWFlJywgJ2xpZ2FuZF9wcmVwLm1hZScsICctbXMnLCAnMScsICctcGgnLCAnNycsICctcGh0JywgJzAuNScsICctbnQn

> <r_lp_tautomer_probability>
1

> <r_epik_Ionization_Penalty>
  4.8763

> <r_epik_Ionization_Penalty_Charging>
  0.0194

> <r_epik_Ionization_Penalty_Neutral>
  4.8570

> <r_epik_State_Penalty>
 -0.0000

> <r_epik_Charging_Adjusted_Penalty>
0.0193637703652235

> <i_epik_Tot_Q>
1

> <i_epik_Tot_abs_Q>
1

> <s_epik_Chemistry_Notes>
This compound has an imine and may undergo hydrolysis. This compound contains an acetal/aminal-like group ( X-CH(R)-Y where X, Y are N, S, or O) that may be acid/base labile, releasing an aldehyde.

$$$$
