3udy_ligand
                    3D
 Schrodinger Suite 2020-3.
 43 46  0  0  1  0            999 V2000
   16.6720   41.8470   44.8480 C   0  0  0  0  0  0
   26.2630   37.4590   40.0800 C   0  0  0  0  0  0
   26.9080   37.6060   41.2970 C   0  0  0  0  0  0
   17.3060   39.5440   45.3080 C   0  0  0  0  0  0
   24.9570   37.0200   40.0250 C   0  0  0  0  0  0
   17.6800   38.3010   44.8400 C   0  0  0  0  0  0
   26.2750   37.2990   42.4820 C   0  0  0  0  0  0
   17.3900   39.0300   42.6020 C   0  0  0  0  0  0
   16.9620   40.5310   44.4130 C   0  0  0  0  0  0
   24.3290   36.7320   41.2160 C   0  0  0  0  0  0
   17.7100   38.0370   43.4900 C   0  0  0  0  0  0
   24.9740   36.8680   42.4090 C   0  0  0  0  0  0
   17.0210   40.2650   43.0690 C   0  0  0  0  0  0
   22.9380   36.0550   42.9320 C   0  0  0  0  0  0
   19.7990   36.0520   41.4060 C   0  0  0  0  0  0
   21.9020   37.2820   41.1000 C   0  0  0  0  0  0
   22.6180   34.9930   40.6820 C   0  0  0  0  0  0
   20.8200   36.5010   40.4060 C   0  0  1  0  0  0
   22.9520   36.2580   41.4390 C   0  0  1  0  0  0
   18.1650   36.7360   42.9210 C   0  0  0  0  0  0
   16.4020   42.9270   45.1840 N   0  0  0  0  0  0
   24.1440   36.4910   43.4520 N   0  0  0  0  0  0
   21.4370   35.2820   39.8790 N   0  0  1  0  0  0
   21.9670   35.6240   43.5380 O   0  0  0  0  0  0
   19.5610   34.8800   41.6450 O   0  0  0  0  0  0
   19.1380   37.1120   41.9390 O   0  0  0  0  0  0
   16.6260   41.6010   41.7980 Br  0  0  0  0  0  0
   26.7931   37.6927   39.1567 H   0  0  0  0  0  0
   27.9348   37.9711   41.3178 H   0  0  0  0  0  0
   17.2832   39.7428   46.3795 H   0  0  0  0  0  0
   24.4400   36.9050   39.0723 H   0  0  0  0  0  0
   17.9549   37.5192   45.5480 H   0  0  0  0  0  0
   26.7873   37.3947   43.4393 H   0  0  0  0  0  0
   17.4286   38.8391   41.5295 H   0  0  0  0  0  0
   22.2892   38.0556   40.4205 H   0  0  0  0  0  0
   21.4894   37.7589   42.0013 H   0  0  0  0  0  0
   23.4673   34.7143   40.0410 H   0  0  0  0  0  0
   22.4155   34.1810   41.3960 H   0  0  0  0  0  0
   20.3582   37.1051   39.6112 H   0  0  0  0  0  0
   18.5992   36.1179   43.7207 H   0  0  0  0  0  0
   17.3073   36.2104   42.4760 H   0  0  0  0  0  0
   24.4962   36.5696   44.4911 H   0  0  0  0  0  0
   21.7338   35.4289   38.8300 H   0  0  0  0  0  0
  1  9  1  0  0  0
  1 21  3  0  0  0
  2  3  2  0  0  0
  2  5  1  0  0  0
  2 28  1  0  0  0
  3  7  1  0  0  0
  3 29  1  0  0  0
  4  6  2  0  0  0
  4  9  1  0  0  0
  4 30  1  0  0  0
  5 10  2  0  0  0
  5 31  1  0  0  0
  6 11  1  0  0  0
  6 32  1  0  0  0
  7 12  2  0  0  0
  7 33  1  0  0  0
  8 11  2  0  0  0
  8 13  1  0  0  0
  8 34  1  0  0  0
  9 13  2  0  0  0
 10 12  1  0  0  0
 10 19  1  0  0  0
 11 20  1  0  0  0
 12 22  1  0  0  0
 13 27  1  0  0  0
 14 19  1  0  0  0
 14 22  1  0  0  0
 14 24  2  0  0  0
 15 18  1  0  0  0
 15 25  2  0  0  0
 15 26  1  0  0  0
 16 18  1  0  0  0
 16 19  1  0  0  0
 16 35  1  0  0  0
 16 36  1  0  0  0
 17 19  1  0  0  0
 17 23  1  0  0  0
 17 37  1  0  0  0
 17 38  1  0  0  0
 18 23  1  0  0  0
 18 39  1  0  0  0
 20 26  1  0  0  0
 20 40  1  0  0  0
 20 41  1  0  0  0
 22 42  1  0  0  0
 23 43  1  0  0  0
M  END
> <s_m_source_file>
../3udy_ligand.sdf

> <i_m_source_file_index>
1

> <s_epik_input>
TiNDYzFbY0hdW2NIXWMoW2NIXWMxQnIpW0NIMl1PQyg9TylbQ0BIXShbTkgyK11bQ0gyXTIpW0NIMl1bQ0BdMjNjNGMoW05IXUMzPU8pW2NIXVtjSF1bY0hdW2NIXTQ=

> <s_epik_cmdline>
J2VwaWtfYXBwJywgJy1pbWFlJywgJ2xpZ2FuZF9wcm8ubWFlJywgJy1vbWFlJywgJ2xpZ2FuZF9wcmVwLm1hZScsICctbXMnLCAnMScsICctcGgnLCAnNycsICctcGh0JywgJzAuNScsICctbnQn

> <r_epik_Ionization_Penalty>
  0.3998

> <r_epik_Ionization_Penalty_Charging>
  0.0000

> <r_epik_Ionization_Penalty_Neutral>
  0.3998

> <r_epik_State_Penalty>
  0.3991

> <r_epik_Charging_Adjusted_Penalty>
0.399064330361102

> <i_epik_Tot_Q>
0

> <i_epik_Tot_abs_Q>
0

> <s_epik_Chemistry_Notes>
This compound has an ester and may undergo hydrolysis at high or low pH.

$$$$
