3ue4_ligand
                    3D
 Schrodinger Suite 2020-3.
 66 69  0  0  1  0            999 V2000
   -2.4390   15.8230  -52.6150 C   0  0  0  0  0  0
   -0.7230   17.7490  -43.8250 O   0  0  0  0  0  0
   -0.2760   10.9670  -54.9260 C   0  0  0  0  0  0
   -2.8950   14.2390  -44.0700 N   0  0  0  0  0  0
   -3.2890   18.8070  -42.4990 Cl  0  0  0  0  0  0
   -5.8900   16.3750  -46.8020 Cl  0  0  0  0  0  0
   -2.5320   13.8910  -45.0810 C   0  0  0  0  0  0
   -1.3020   12.1440  -46.5160 C   0  0  0  0  0  0
   -4.4780   17.5620  -44.6880 C   0  0  0  0  0  0
   -1.8260   16.6460  -45.7600 C   0  0  0  0  0  0
   -0.5380   11.8080  -50.3050 C   0  0  0  0  0  0
   -2.0290   14.4420  -50.2560 C   0  0  0  0  0  0
    0.7430   10.3250  -53.9950 C   0  0  0  0  0  0
    0.7360   11.0740  -52.6630 C   0  0  0  0  0  0
   -0.7980    7.5090  -59.0390 C   0  0  0  0  0  0
   -1.3080   10.3190  -57.2360 C   0  0  0  0  0  0
    0.3100    8.9150  -56.1780 C   0  0  0  0  0  0
   -0.7130    9.9490  -58.6050 C   0  0  0  0  0  0
    0.9210    8.5590  -57.4940 C   0  0  0  0  0  0
   -0.8210   11.6400  -47.7690 N   0  0  0  0  0  0
   -3.0370   15.5280  -47.7040 N   0  0  0  0  0  0
   -1.7680   14.6040  -52.6880 O   0  0  0  0  0  0
   -0.2860   12.0260  -52.7280 O   0  0  0  0  0  0
   -1.8860   17.4360  -44.4920 C   0  0  0  0  0  0
   -3.2170   17.8930  -43.9630 C   0  0  0  0  0  0
   -4.4280   16.7700  -45.9530 C   0  0  0  0  0  0
   -2.0470   13.4380  -46.4190 C   0  0  0  0  0  0
   -3.0980   16.3140  -46.4880 C   0  0  0  0  0  0
   -1.5230   13.8770  -51.5450 C   0  0  0  0  0  0
   -0.7800   12.5830  -51.5560 C   0  0  0  0  0  0
   -2.3230   14.2440  -47.6770 C   0  0  0  0  0  0
   -1.0450   12.3590  -48.9920 C   0  0  0  0  0  0
   -1.7920   13.6770  -48.9890 C   0  0  0  0  0  0
   -0.2430   10.2440  -56.2370 N   0  0  2  0  0  0
   -0.0790    8.6600  -58.5140 N   0  3  1  0  0  0
    0.3580   16.8780  -43.8610 C   0  0  0  0  0  0
   -2.5377   16.2482  -53.6247 H   0  0  0  0  0  0
   -1.8702   16.5171  -51.9788 H   0  0  0  0  0  0
   -3.4388   15.6660  -52.1839 H   0  0  0  0  0  0
   -1.2788   10.8910  -54.4803 H   0  0  0  0  0  0
   -0.0203   12.0265  -55.0749 H   0  0  0  0  0  0
   -1.1199   11.5684  -45.6085 H   0  0  0  0  0  0
   -5.4369   17.8986  -44.2940 H   0  0  0  0  0  0
   -0.8657   16.3130  -46.1538 H   0  0  0  0  0  0
   -0.0036   10.8585  -50.3371 H   0  0  0  0  0  0
   -2.5608   15.3933  -50.2382 H   0  0  0  0  0  0
    0.4761    9.2706  -53.8305 H   0  0  0  0  0  0
    1.7430   10.3835  -54.4496 H   0  0  0  0  0  0
    0.5509   10.3636  -51.8438 H   0  0  0  0  0  0
    1.7100   11.5623  -52.5118 H   0  0  0  0  0  0
   -1.5096    7.8413  -59.8092 H   0  0  0  0  0  0
   -1.3454    7.0151  -58.2227 H   0  0  0  0  0  0
   -0.0825    6.8006  -59.4820 H   0  0  0  0  0  0
   -1.7153   11.3400  -57.2771 H   0  0  0  0  0  0
   -2.1128    9.6131  -56.9831 H   0  0  0  0  0  0
   -0.4907    8.1993  -55.9399 H   0  0  0  0  0  0
    1.0805    8.8774  -55.3938 H   0  0  0  0  0  0
   -1.5159    9.9128  -59.3560 H   0  0  0  0  0  0
    0.0298   10.7054  -58.8985 H   0  0  0  0  0  0
    1.7470    9.2514  -57.7140 H   0  0  0  0  0  0
    1.3066    7.5296  -57.4528 H   0  0  0  0  0  0
   -3.5193   15.8961  -48.6216 H   0  0  0  0  0  0
    0.6431    8.5843  -59.3404 H   0  0  0  0  0  0
    1.1876   17.2987  -43.2738 H   0  0  0  0  0  0
    0.6809   16.7372  -44.9031 H   0  0  0  0  0  0
    0.0618   15.9082  -43.4347 H   0  0  0  0  0  0
  1 22  1  0  0  0
  1 37  1  0  0  0
  1 38  1  0  0  0
  1 39  1  0  0  0
  2 24  1  0  0  0
  2 36  1  0  0  0
  3 13  1  0  0  0
  3 34  1  0  0  0
  3 40  1  0  0  0
  3 41  1  0  0  0
  4  7  3  0  0  0
  5 25  1  0  0  0
  6 26  1  0  0  0
  7 27  1  0  0  0
  8 20  2  0  0  0
  8 27  1  0  0  0
  8 42  1  0  0  0
  9 25  2  0  0  0
  9 26  1  0  0  0
  9 43  1  0  0  0
 10 24  2  0  0  0
 10 28  1  0  0  0
 10 44  1  0  0  0
 11 30  1  0  0  0
 11 32  2  0  0  0
 11 45  1  0  0  0
 12 29  1  0  0  0
 12 33  2  0  0  0
 12 46  1  0  0  0
 13 14  1  0  0  0
 13 47  1  0  0  0
 13 48  1  0  0  0
 14 23  1  0  0  0
 14 49  1  0  0  0
 14 50  1  0  0  0
 15 35  1  0  0  0
 15 51  1  0  0  0
 15 52  1  0  0  0
 15 53  1  0  0  0
 16 18  1  0  0  0
 16 34  1  0  0  0
 16 54  1  0  0  0
 16 55  1  0  0  0
 17 19  1  0  0  0
 17 34  1  0  0  0
 17 56  1  0  0  0
 17 57  1  0  0  0
 18 35  1  0  0  0
 18 58  1  0  0  0
 18 59  1  0  0  0
 19 35  1  0  0  0
 19 60  1  0  0  0
 19 61  1  0  0  0
 20 32  1  0  0  0
 21 28  1  0  0  0
 21 31  1  0  0  0
 21 62  1  0  0  0
 22 29  1  0  0  0
 23 30  1  0  0  0
 24 25  1  0  0  0
 26 28  2  0  0  0
 27 31  2  0  0  0
 29 30  2  0  0  0
 31 33  1  0  0  0
 32 33  1  0  0  0
 35 63  1  0  0  0
 36 64  1  0  0  0
 36 65  1  0  0  0
 36 66  1  0  0  0
M  CHG  1  35   1
M  END
> <s_m_source_file>
../3ue4_ligand.sdf

> <i_m_source_file_index>
1

> <s_epik_input>
Q2xjMVtjSF1jKENsKWMoW2NIXWMxT1tDSDNdKVtOSF1jKGMoQyNOKVtjSF1uMiljKGMyMylbY0hdYyhPW0NIM10pYyhbY0hdMylPW0NIMl1bQ0gyXVtDSDJdW05AQEgrXTRbQ0gyXVtDSDJdW05ASCtdKFtDSDNdKVtDSDJdW0NIMl00

> <s_epik_cmdline>
J2VwaWtfYXBwJywgJy1pbWFlJywgJ2xpZ2FuZF9wcm8ubWFlJywgJy1vbWFlJywgJ2xpZ2FuZF9wcmVwLm1hZScsICctbXMnLCAnMScsICctcGgnLCAnNycsICctcGh0JywgJzAuNScsICctbnQn

> <r_epik_Ionization_Penalty>
  0.0297

> <r_epik_Ionization_Penalty_Charging>
  0.0271

> <r_epik_Ionization_Penalty_Neutral>
  0.0025

> <r_epik_State_Penalty>
  0.1132

> <r_epik_Charging_Adjusted_Penalty>
0.140367416854695

> <i_epik_Tot_Q>
1

> <i_epik_Tot_abs_Q>
1

$$$$
