3uec_ligand
                    3D
 Schrodinger Suite 2020-3.
 76 75  0  0  1  0            999 V2000
  -12.5250  -10.7760  -25.4330 N   0  3  0  0  0  0
  -13.1820  -12.1080  -25.4670 C   0  0  2  0  0  0
  -14.2120  -12.1100  -26.5930 C   0  0  0  0  0  0
  -14.5760  -11.0380  -27.1030 O   0  0  0  0  0  0
  -13.8450  -12.4350  -24.1090 C   0  0  0  0  0  0
  -14.6820  -13.3130  -26.9410 N   0  0  0  0  0  0
  -15.6210  -13.5310  -28.0530 C   0  0  2  0  0  0
  -16.6520  -14.6220  -27.6890 C   0  0  0  0  0  0
  -16.3630  -15.5030  -26.8270 O   0  0  0  0  0  0
  -14.8630  -14.0120  -29.2980 C   0  0  0  0  0  0
  -14.1620  -15.3590  -29.1070 C   0  0  0  0  0  0
  -13.2170  -15.7240  -30.2890 C   0  0  0  0  0  0
  -12.1580  -16.6390  -29.8510 N   0  0  0  0  0  0
  -12.2830  -17.9640  -29.7170 C   0  0  0  0  0  0
  -11.2430  -18.6730  -29.2880 N   0  3  0  0  0  0
  -13.4270  -18.5940  -30.0110 N   0  0  0  0  0  0
  -17.8180  -14.5610  -28.3740 N   0  0  0  0  0  0
  -18.8720  -15.5510  -28.0090 C   0  0  1  0  0  0
  -20.0770  -15.2710  -28.8830 C   0  0  1  0  0  0
  -21.2050  -16.2660  -28.6100 C   0  0  0  0  0  0
  -20.3940  -13.9270  -28.6360 O   0  0  0  0  0  0
  -20.9720  -12.9560  -29.6560 P   0  0  0  0  0  0
  -20.1550  -12.9520  -30.9140 O   0  0  0  0  0  0
  -22.5180  -13.3760  -29.7480 O   0  5  0  0  0  0
  -20.9960  -11.4220  -29.1710 O   0  5  0  0  0  0
  -18.4360  -16.9950  -28.2740 C   0  0  0  0  0  0
  -17.8100  -17.2720  -29.2900 O   0  0  0  0  0  0
  -18.7450  -17.9150  -27.3720 N   0  0  0  0  0  0
  -18.3720  -19.3030  -27.5920 C   0  0  2  0  0  0
  -19.3080  -19.8440  -28.6820 C   0  0  0  0  0  0
  -19.0640  -19.7000  -29.8730 O   0  0  0  0  0  0
  -18.4670  -20.1630  -26.3270 C   0  0  0  0  0  0
  -18.8500  -21.6650  -26.6140 C   0  0  0  0  0  0
  -18.8170  -22.5860  -25.4040 C   0  0  0  0  0  0
  -19.5920  -23.9100  -25.6590 C   0  0  0  0  0  0
  -20.5700  -24.2120  -24.5290 N   0  3  0  0  0  0
  -20.3670  -20.4090  -28.4110 O   0  5  0  0  0  0
  -12.0629  -10.5701  -26.4097 H   0  0  0  0  0  0
  -11.7503  -10.7691  -24.6521 H   0  0  0  0  0  0
  -13.2754  -10.0026  -25.2120 H   0  0  0  0  0  0
  -12.4048  -12.8604  -25.6665 H   0  0  0  0  0  0
  -13.0817  -12.4269  -23.3170 H   0  0  0  0  0  0
  -14.3112  -13.4301  -24.1588 H   0  0  0  0  0  0
  -14.6137  -11.6807  -23.8852 H   0  0  0  0  0  0
  -14.3287  -14.1667  -26.3441 H   0  0  0  0  0  0
  -16.1009  -12.5553  -28.2195 H   0  0  0  0  0  0
  -15.5673  -14.1245  -30.1354 H   0  0  0  0  0  0
  -14.0910  -13.2752  -29.5647 H   0  0  0  0  0  0
  -13.5551  -15.3297  -28.1900 H   0  0  0  0  0  0
  -14.9156  -16.1559  -29.0226 H   0  0  0  0  0  0
  -13.7979  -16.2119  -31.0856 H   0  0  0  0  0  0
  -12.7518  -14.8083  -30.6827 H   0  0  0  0  0  0
  -11.1611  -16.2470  -29.6011 H   0  0  0  0  0  0
  -10.2969  -18.1683  -29.0428 H   0  0  0  0  0  0
  -14.2952  -18.0200  -30.3669 H   0  0  0  0  0  0
  -13.4988  -19.6857  -29.8967 H   0  0  0  0  0  0
  -18.0068  -13.8246  -29.1690 H   0  0  0  0  0  0
  -19.0755  -15.4268  -26.9351 H   0  0  0  0  0  0
  -19.8906  -15.3246  -29.9658 H   0  0  0  0  0  0
  -20.8569  -17.2853  -28.8334 H   0  0  0  0  0  0
  -22.0684  -16.0254  -29.2477 H   0  0  0  0  0  0
  -21.5013  -16.2032  -27.5525 H   0  0  0  0  0  0
  -19.2837  -17.6287  -26.4567 H   0  0  0  0  0  0
  -17.3132  -19.2932  -27.8899 H   0  0  0  0  0  0
  -17.4957  -20.1641  -25.8106 H   0  0  0  0  0  0
  -19.2368  -19.7491  -25.6592 H   0  0  0  0  0  0
  -19.8733  -21.7123  -27.0148 H   0  0  0  0  0  0
  -18.1487  -22.0884  -27.3481 H   0  0  0  0  0  0
  -17.7737  -22.8392  -25.1643 H   0  0  0  0  0  0
  -19.2779  -22.0782  -24.5440 H   0  0  0  0  0  0
  -20.1596  -23.8277  -26.5977 H   0  0  0  0  0  0
  -18.8786  -24.7439  -25.7339 H   0  0  0  0  0  0
  -21.0984  -25.1527  -24.7431 H   0  0  0  0  0  0
  -21.2991  -23.3925  -24.4463 H   0  0  0  0  0  0
  -20.0180  -24.3087  -23.5824 H   0  0  0  0  0  0
  -11.3289  -19.7641  -29.1783 H   0  0  0  0  0  0
  1  2  1  0  0  0
  1 38  1  0  0  0
  1 39  1  0  0  0
  1 40  1  0  0  0
  2  3  1  0  0  0
  2  5  1  0  0  0
  2 41  1  0  0  0
  3  4  2  0  0  0
  3  6  1  0  0  0
  5 42  1  0  0  0
  5 43  1  0  0  0
  5 44  1  0  0  0
  6  7  1  0  0  0
  6 45  1  0  0  0
  7  8  1  0  0  0
  7 10  1  0  0  0
  7 46  1  0  0  0
  8  9  2  0  0  0
  8 17  1  0  0  0
 10 11  1  0  0  0
 10 47  1  0  0  0
 10 48  1  0  0  0
 11 12  1  0  0  0
 11 49  1  0  0  0
 11 50  1  0  0  0
 12 13  1  0  0  0
 12 51  1  0  0  0
 12 52  1  0  0  0
 13 14  1  0  0  0
 13 53  1  0  0  0
 14 15  2  0  0  0
 14 16  1  0  0  0
 15 54  1  0  0  0
 15 76  1  0  0  0
 16 55  1  0  0  0
 16 56  1  0  0  0
 17 18  1  0  0  0
 17 57  1  0  0  0
 18 19  1  0  0  0
 18 26  1  0  0  0
 18 58  1  0  0  0
 19 20  1  0  0  0
 19 21  1  0  0  0
 19 59  1  0  0  0
 20 60  1  0  0  0
 20 61  1  0  0  0
 20 62  1  0  0  0
 21 22  1  0  0  0
 22 23  2  0  0  0
 22 24  1  0  0  0
 22 25  1  0  0  0
 26 27  2  0  0  0
 26 28  1  0  0  0
 28 29  1  0  0  0
 28 63  1  0  0  0
 29 30  1  0  0  0
 29 32  1  0  0  0
 29 64  1  0  0  0
 30 31  2  0  0  0
 30 37  1  0  0  0
 32 33  1  0  0  0
 32 65  1  0  0  0
 32 66  1  0  0  0
 33 34  1  0  0  0
 33 67  1  0  0  0
 33 68  1  0  0  0
 34 35  1  0  0  0
 34 69  1  0  0  0
 34 70  1  0  0  0
 35 36  1  0  0  0
 35 71  1  0  0  0
 35 72  1  0  0  0
 36 73  1  0  0  0
 36 74  1  0  0  0
 36 75  1  0  0  0
M  CHG  6   1   1  15   1  24  -1  25  -1  36   1  37  -1
M  END
> <s_m_source_file>
../3uec_ligand.sdf

> <i_m_source_file_index>
1

> <s_epik_input>
W0hdL049QyhbTkgyXSlcW05IXVtDSDJdW0NIMl1bQ0gyXVtDQEhdKFtOSF1DKD1PKVtDQEBIXShbTkgzK10pW0NIM10pQyg9TylbTkhdW0NAQEhdKFtDQEBIXShbQ0gzXSlPUCg9TykoW09IXSlbT0hdKUMoPU8pW05IXVtDQEhdKEMoPU8pW09IXSlbQ0gyXVtDSDJdW0NIMl1bQ0gyXVtOSDMrXQ==

> <s_epik_cmdline>
J2VwaWtfYXBwJywgJy1pbWFlJywgJ2xpZ2FuZF9wcm8ubWFlJywgJy1vbWFlJywgJ2xpZ2FuZF9wcmVwLm1hZScsICctbXMnLCAnMScsICctcGgnLCAnNycsICctcGh0JywgJzAuNScsICctbnQn

> <r_epik_Ionization_Penalty>
  0.2173

> <r_epik_Ionization_Penalty_Charging>
  0.2173

> <r_epik_Ionization_Penalty_Neutral>
  0.0000

> <r_epik_State_Penalty>
  0.1829

> <r_epik_Charging_Adjusted_Penalty>
0.400264049946859

> <i_epik_Tot_Q>
0

> <i_epik_Tot_abs_Q>
6

> <s_epik_Chemistry_Notes>
This compound has an imine and may undergo hydrolysis.

$$$$
