3ued_ligand
                    3D
 Schrodinger Suite 2020-3.
 96 95  0  0  1  0            999 V2000
  -34.7730   -9.9300   -2.0860 N   0  3  0  0  0  0
  -33.9710   -9.3850   -0.9480 C   0  0  2  0  0  0
  -34.7550   -8.3480   -0.1430 C   0  0  0  0  0  0
  -35.9570   -8.1650   -0.3500 O   0  0  0  0  0  0
  -32.6580   -8.8030   -1.4550 C   0  0  0  0  0  0
  -34.0670   -7.6760    0.7720 N   0  0  0  0  0  0
  -34.7040   -6.7440    1.7050 C   0  0  2  0  0  0
  -33.6710   -5.6840    2.1750 C   0  0  0  0  0  0
  -32.4120   -5.9080    2.0580 O   0  0  0  0  0  0
  -35.2620   -7.4920    2.9290 C   0  0  0  0  0  0
  -34.1940   -8.3060    3.6530 C   0  0  0  0  0  0
  -34.5980   -9.0220    4.9430 C   0  0  0  0  0  0
  -33.4840   -9.8960    5.3570 N   0  0  0  0  0  0
  -32.3370   -9.4700    5.8990 C   0  0  0  0  0  0
  -32.1400   -8.1770    6.1370 N   0  3  0  0  0  0
  -31.3700  -10.3350    6.2010 N   0  0  0  0  0  0
  -34.1710   -4.5520    2.7200 N   0  0  0  0  0  0
  -33.5840   -3.2760    3.2150 C   0  0  1  0  0  0
  -34.7500   -2.3380    3.6030 C   0  0  1  0  0  0
  -34.2450   -0.8980    3.7540 C   0  0  0  0  0  0
  -35.6940   -2.4250    2.5490 O   0  0  0  0  0  0
  -37.0530   -1.7020    2.7300 P   0  0  0  0  0  0
  -37.8550   -2.6460    3.5280 O   0  0  0  0  0  0
  -36.8090   -0.2770    3.4200 O   0  5  0  0  0  0
  -37.7840   -1.2440    1.3330 O   0  5  0  0  0  0
  -32.5510   -3.4930    4.3780 C   0  0  0  0  0  0
  -32.9090   -4.0190    5.4070 O   0  0  0  0  0  0
  -31.2960   -3.1050    4.1790 N   0  0  0  0  0  0
  -30.2660   -3.1730    5.2280 C   0  0  2  0  0  0
  -30.7820   -2.6640    6.5550 C   0  0  0  0  0  0
  -31.3400   -1.5800    6.5940 O   0  0  0  0  0  0
  -29.0750   -2.3030    4.8520 C   0  0  0  0  0  0
  -27.9570   -2.2410    5.8880 C   0  0  0  0  0  0
  -27.2600   -0.8810    5.8720 C   0  0  0  0  0  0
  -25.7800   -0.9480    6.2570 C   0  0  0  0  0  0
  -25.1250    0.3930    6.1230 N   0  3  0  0  0  0
  -30.5700   -3.4290    7.6330 N   0  0  0  0  0  0
  -31.0600   -3.0720    8.9770 C   0  0  2  0  0  0
  -29.9520   -2.4300    9.8640 C   0  0  0  0  0  0
  -28.7660   -2.4420    9.5010 O   0  0  0  0  0  0
  -31.6850   -4.3120    9.6370 C   0  0  0  0  0  0
  -30.3590   -1.8610   11.0080 N   0  0  0  0  0  0
  -29.4470   -1.2030   11.9960 C   0  0  2  0  0  0
  -29.0220    0.1850   11.5110 C   0  0  0  0  0  0
  -29.7440    0.8280   10.7470 O   0  5  0  0  0  0
  -28.1730   -2.0340   12.3340 C   0  0  0  0  0  0
  -27.9530    0.6750   11.8790 O   0  0  0  0  0  0
  -35.7167  -10.3459   -1.7034 H   0  0  0  0  0  0
  -34.2012  -10.7223   -2.5912 H   0  0  0  0  0  0
  -34.9911   -9.1227   -2.8006 H   0  0  0  0  0  0
  -33.7550  -10.2346   -0.2835 H   0  0  0  0  0  0
  -32.1153   -9.5682   -2.0294 H   0  0  0  0  0  0
  -32.0445   -8.4826   -0.6000 H   0  0  0  0  0  0
  -32.8659   -7.9378   -2.1017 H   0  0  0  0  0  0
  -32.9800   -7.8396    0.8142 H   0  0  0  0  0  0
  -35.5287   -6.2842    1.1406 H   0  0  0  0  0  0
  -35.6775   -6.7666    3.6439 H   0  0  0  0  0  0
  -36.0541   -8.1837    2.6063 H   0  0  0  0  0  0
  -33.8231   -9.0989    2.9869 H   0  0  0  0  0  0
  -33.3607   -7.6467    3.9377 H   0  0  0  0  0  0
  -34.8043   -8.2777    5.7263 H   0  0  0  0  0  0
  -35.5012   -9.6231    4.7614 H   0  0  0  0  0  0
  -33.5623  -10.9855    5.2274 H   0  0  0  0  0  0
  -32.9264   -7.4471    5.8946 H   0  0  0  0  0  0
  -31.5139  -11.4090    6.0116 H   0  0  0  0  0  0
  -30.4276   -9.9753    6.6398 H   0  0  0  0  0  0
  -35.2586   -4.7105    2.7637 H   0  0  0  0  0  0
  -33.0156   -2.8379    2.3814 H   0  0  0  0  0  0
  -35.2697   -2.6347    4.5260 H   0  0  0  0  0  0
  -33.5146   -0.8498    4.5751 H   0  0  0  0  0  0
  -35.0927   -0.2337    3.9778 H   0  0  0  0  0  0
  -33.7654   -0.5775    2.8174 H   0  0  0  0  0  0
  -31.0398   -2.7205    3.1807 H   0  0  0  0  0  0
  -30.0045   -4.2390    5.3002 H   0  0  0  0  0  0
  -28.6202   -2.6844    3.9259 H   0  0  0  0  0  0
  -29.4120   -1.2677    4.6956 H   0  0  0  0  0  0
  -28.3770   -2.4072    6.8910 H   0  0  0  0  0  0
  -27.2109   -3.0192    5.6694 H   0  0  0  0  0  0
  -27.3178   -0.4512    4.8611 H   0  0  0  0  0  0
  -27.7554   -0.2066    6.5860 H   0  0  0  0  0  0
  -25.6875   -1.2813    7.3012 H   0  0  0  0  0  0
  -25.2614   -1.6596    5.5977 H   0  0  0  0  0  0
  -24.0650    0.3132    6.4058 H   0  0  0  0  0  0
  -25.6276    1.1143    6.7842 H   0  0  0  0  0  0
  -25.2016    0.7359    5.0806 H   0  0  0  0  0  0
  -30.0028   -4.3596    7.4836 H   0  0  0  0  0  0
  -31.8365   -2.3099    8.8150 H   0  0  0  0  0  0
  -32.4589   -4.7286    8.9755 H   0  0  0  0  0  0
  -32.1386   -4.0267   10.5977 H   0  0  0  0  0  0
  -30.9047   -5.0678    9.8100 H   0  0  0  0  0  0
  -31.4415   -1.8995   11.1995 H   0  0  0  0  0  0
  -30.0721   -1.1228   12.8975 H   0  0  0  0  0  0
  -28.4696   -3.0339   12.6837 H   0  0  0  0  0  0
  -27.6014   -1.5240   13.1234 H   0  0  0  0  0  0
  -27.5487   -2.1307   11.4335 H   0  0  0  0  0  0
  -31.1906   -7.8370    6.5764 H   0  0  0  0  0  0
  1  2  1  0  0  0
  1 48  1  0  0  0
  1 49  1  0  0  0
  1 50  1  0  0  0
  2  3  1  0  0  0
  2  5  1  0  0  0
  2 51  1  0  0  0
  3  4  2  0  0  0
  3  6  1  0  0  0
  5 52  1  0  0  0
  5 53  1  0  0  0
  5 54  1  0  0  0
  6  7  1  0  0  0
  6 55  1  0  0  0
  7  8  1  0  0  0
  7 10  1  0  0  0
  7 56  1  0  0  0
  8  9  2  0  0  0
  8 17  1  0  0  0
 10 11  1  0  0  0
 10 57  1  0  0  0
 10 58  1  0  0  0
 11 12  1  0  0  0
 11 59  1  0  0  0
 11 60  1  0  0  0
 12 13  1  0  0  0
 12 61  1  0  0  0
 12 62  1  0  0  0
 13 14  1  0  0  0
 13 63  1  0  0  0
 14 15  2  0  0  0
 14 16  1  0  0  0
 15 64  1  0  0  0
 15 96  1  0  0  0
 16 65  1  0  0  0
 16 66  1  0  0  0
 17 18  1  0  0  0
 17 67  1  0  0  0
 18 19  1  0  0  0
 18 26  1  0  0  0
 18 68  1  0  0  0
 19 20  1  0  0  0
 19 21  1  0  0  0
 19 69  1  0  0  0
 20 70  1  0  0  0
 20 71  1  0  0  0
 20 72  1  0  0  0
 21 22  1  0  0  0
 22 23  2  0  0  0
 22 24  1  0  0  0
 22 25  1  0  0  0
 26 27  2  0  0  0
 26 28  1  0  0  0
 28 29  1  0  0  0
 28 73  1  0  0  0
 29 30  1  0  0  0
 29 32  1  0  0  0
 29 74  1  0  0  0
 30 31  2  0  0  0
 30 37  1  0  0  0
 32 33  1  0  0  0
 32 75  1  0  0  0
 32 76  1  0  0  0
 33 34  1  0  0  0
 33 77  1  0  0  0
 33 78  1  0  0  0
 34 35  1  0  0  0
 34 79  1  0  0  0
 34 80  1  0  0  0
 35 36  1  0  0  0
 35 81  1  0  0  0
 35 82  1  0  0  0
 36 83  1  0  0  0
 36 84  1  0  0  0
 36 85  1  0  0  0
 37 38  1  0  0  0
 37 86  1  0  0  0
 38 39  1  0  0  0
 38 41  1  0  0  0
 38 87  1  0  0  0
 39 40  2  0  0  0
 39 42  1  0  0  0
 41 88  1  0  0  0
 41 89  1  0  0  0
 41 90  1  0  0  0
 42 43  1  0  0  0
 42 91  1  0  0  0
 43 44  1  0  0  0
 43 46  1  0  0  0
 43 92  1  0  0  0
 44 45  1  0  0  0
 44 47  2  0  0  0
 46 93  1  0  0  0
 46 94  1  0  0  0
 46 95  1  0  0  0
M  CHG  6   1   1  15   1  24  -1  25  -1  36   1  45  -1
M  END
> <s_m_source_file>
../3ued_ligand.sdf

> <i_m_source_file_index>
1

> <s_epik_input>
W0hdL049QyhbTkgyXSlcW05IXVtDSDJdW0NIMl1bQ0gyXVtDQEhdKFtOSF1DKD1PKVtDQEBIXShbTkgzK10pW0NIM10pQyg9TylbTkhdW0NAQEhdKFtDQEBIXShbQ0gzXSlPUCg9TykoW09IXSlbT0hdKUMoPU8pW05IXVtDQEBIXShbQ0gyXVtDSDJdW0NIMl1bQ0gyXVtOSDMrXSlDKD1PKVtOSF1bQ0BASF0oW0NIM10pQyg9TylbTkhdW0NAQEhdKFtDSDNdKUMoPU8pW09IXQ==

> <s_epik_cmdline>
J2VwaWtfYXBwJywgJy1pbWFlJywgJ2xpZ2FuZF9wcm8ubWFlJywgJy1vbWFlJywgJ2xpZ2FuZF9wcmVwLm1hZScsICctbXMnLCAnMScsICctcGgnLCAnNycsICctcGh0JywgJzAuNScsICctbnQn

> <r_epik_Ionization_Penalty>
  0.2138

> <r_epik_Ionization_Penalty_Charging>
  0.2138

> <r_epik_Ionization_Penalty_Neutral>
  0.0000

> <r_epik_State_Penalty>
  0.1800

> <r_epik_Charging_Adjusted_Penalty>
0.393845157852876

> <i_epik_Tot_Q>
0

> <i_epik_Tot_abs_Q>
6

> <s_epik_Chemistry_Notes>
This compound has an imine and may undergo hydrolysis.

$$$$
