3uef_ligand
                    3D
 Schrodinger Suite 2020-3.
 83 82  0  0  1  0            999 V2000
  -61.5350  -75.4700   29.8300 N   0  3  0  0  0  0
  -60.6410  -74.7520   30.7720 C   0  0  2  0  0  0
  -61.4520  -73.8370   31.6800 C   0  0  0  0  0  0
  -62.6860  -73.6720   31.5110 O   0  0  0  0  0  0
  -59.6060  -73.9410   30.0180 C   0  0  0  0  0  0
  -60.7500  -73.2440   32.6460 N   0  0  0  0  0  0
  -61.4000  -72.3930   33.6230 C   0  0  2  0  0  0
  -60.4540  -71.2910   34.0510 C   0  0  0  0  0  0
  -59.2340  -71.4020   33.9430 O   0  0  0  0  0  0
  -61.8260  -73.1950   34.8730 C   0  0  0  0  0  0
  -60.7100  -74.0970   35.4000 C   0  0  0  0  0  0
  -60.9180  -74.6090   36.8190 C   0  0  0  0  0  0
  -59.9090  -75.6290   37.1490 N   0  0  0  0  0  0
  -58.6290  -75.3730   37.4200 C   0  0  0  0  0  0
  -58.1790  -74.1230   37.4030 N   0  3  0  0  0  0
  -57.7850  -76.3680   37.6960 N   0  0  0  0  0  0
  -61.0540  -70.2620   34.6270 N   0  0  0  0  0  0
  -60.3400  -69.1090   35.1640 C   0  0  2  0  0  0
  -59.3370  -69.4280   36.3140 C   0  0  0  0  0  0
  -59.3600  -70.5210   36.8960 O   0  0  0  0  0  0
  -61.3710  -68.0440   35.5680 C   0  0  2  0  0  0
  -60.6970  -66.7980   35.6340 O   0  0  0  0  0  0
  -62.1200  -68.4070   36.9210 C   0  0  0  0  0  0
  -58.4560  -68.4760   36.6140 N   0  0  0  0  0  0
  -57.3100  -68.6960   37.5340 C   0  0  2  0  0  0
  -57.6060  -68.8310   39.0680 C   0  0  0  0  0  0
  -58.4510  -68.1210   39.6120 O   0  0  0  0  0  0
  -56.2810  -67.5650   37.3240 C   0  0  0  0  0  0
  -54.8830  -67.9790   37.7260 C   0  0  0  0  0  0
  -53.9360  -66.8350   37.9690 C   0  0  0  0  0  0
  -52.6210  -67.4190   38.4760 C   0  0  0  0  0  0
  -51.5110  -66.4610   38.2430 N   0  3  0  0  0  0
  -56.8740  -69.7330   39.7450 N   0  0  0  0  0  0
  -56.8630  -69.8730   41.2290 C   0  0  2  0  0  0
  -55.5780  -69.2950   41.8430 C   0  0  0  0  0  0
  -55.4850  -68.1030   42.1550 O   0  0  0  0  0  0
  -56.9800  -71.3490   41.6480 C   0  0  0  0  0  0
  -54.5830  -69.9980   42.0510 O   0  5  0  0  0  0
  -62.2764  -76.0506   30.3986 H   0  0  0  0  0  0
  -60.9382  -76.1500   29.2043 H   0  0  0  0  0  0
  -62.0531  -74.7416   29.1889 H   0  0  0  0  0  0
  -60.1307  -75.5197   31.3722 H   0  0  0  0  0  0
  -59.0236  -74.6068   29.3642 H   0  0  0  0  0  0
  -58.9318  -73.4496   30.7349 H   0  0  0  0  0  0
  -60.1115  -73.1781   29.4077 H   0  0  0  0  0  0
  -59.6634  -73.4077   32.6955 H   0  0  0  0  0  0
  -62.2749  -71.9810   33.0988 H   0  0  0  0  0  0
  -62.1062  -72.4989   35.6773 H   0  0  0  0  0  0
  -62.6868  -73.8328   34.6236 H   0  0  0  0  0  0
  -60.6186  -74.9826   34.7540 H   0  0  0  0  0  0
  -59.7597  -73.5430   35.3994 H   0  0  0  0  0  0
  -60.8272  -73.7726   37.5276 H   0  0  0  0  0  0
  -61.9199  -75.0550   36.9047 H   0  0  0  0  0  0
  -60.1921  -76.6913   37.1848 H   0  0  0  0  0  0
  -58.8659  -73.2942   37.1766 H   0  0  0  0  0  0
  -58.1462  -77.4069   37.7129 H   0  0  0  0  0  0
  -56.7276  -76.1498   37.9067 H   0  0  0  0  0  0
  -62.1513  -70.3074   34.6895 H   0  0  0  0  0  0
  -59.7231  -68.7706   34.3185 H   0  0  0  0  0  0
  -62.1189  -67.9016   34.7740 H   0  0  0  0  0  0
  -60.1379  -66.4283   34.7618 H   0  0  0  0  0  0
  -62.6229  -69.3793   36.8122 H   0  0  0  0  0  0
  -62.8666  -67.6312   37.1463 H   0  0  0  0  0  0
  -61.3892  -68.4619   37.7413 H   0  0  0  0  0  0
  -58.6052  -67.4913   36.1469 H   0  0  0  0  0  0
  -56.9725  -69.6896   37.2039 H   0  0  0  0  0  0
  -56.2599  -67.2812   36.2615 H   0  0  0  0  0  0
  -56.5657  -66.6929   37.9309 H   0  0  0  0  0  0
  -54.9267  -68.5602   38.6589 H   0  0  0  0  0  0
  -54.4401  -68.5958   36.9301 H   0  0  0  0  0  0
  -53.7735  -66.2875   37.0289 H   0  0  0  0  0  0
  -54.3666  -66.1555   38.7193 H   0  0  0  0  0  0
  -52.7013  -67.6217   39.5542 H   0  0  0  0  0  0
  -52.4059  -68.3562   37.9418 H   0  0  0  0  0  0
  -50.5696  -66.8937   38.6126 H   0  0  0  0  0  0
  -51.7182  -65.5225   38.7781 H   0  0  0  0  0  0
  -51.4228  -66.2570   37.1657 H   0  0  0  0  0  0
  -56.2526  -70.3963   39.1254 H   0  0  0  0  0  0
  -57.7378  -69.2999   41.5700 H   0  0  0  0  0  0
  -57.8954  -71.7809   41.2173 H   0  0  0  0  0  0
  -57.0237  -71.4163   42.7451 H   0  0  0  0  0  0
  -56.1045  -71.9048   41.2811 H   0  0  0  0  0  0
  -57.1195  -73.9169   37.6153 H   0  0  0  0  0  0
  1  2  1  0  0  0
  1 39  1  0  0  0
  1 40  1  0  0  0
  1 41  1  0  0  0
  2  3  1  0  0  0
  2  5  1  0  0  0
  2 42  1  0  0  0
  3  4  2  0  0  0
  3  6  1  0  0  0
  5 43  1  0  0  0
  5 44  1  0  0  0
  5 45  1  0  0  0
  6  7  1  0  0  0
  6 46  1  0  0  0
  7  8  1  0  0  0
  7 10  1  0  0  0
  7 47  1  0  0  0
  8  9  2  0  0  0
  8 17  1  0  0  0
 10 11  1  0  0  0
 10 48  1  0  0  0
 10 49  1  0  0  0
 11 12  1  0  0  0
 11 50  1  0  0  0
 11 51  1  0  0  0
 12 13  1  0  0  0
 12 52  1  0  0  0
 12 53  1  0  0  0
 13 14  1  0  0  0
 13 54  1  0  0  0
 14 15  2  0  0  0
 14 16  1  0  0  0
 15 55  1  0  0  0
 15 83  1  0  0  0
 16 56  1  0  0  0
 16 57  1  0  0  0
 17 18  1  0  0  0
 17 58  1  0  0  0
 18 19  1  0  0  0
 18 21  1  0  0  0
 18 59  1  0  0  0
 19 20  2  0  0  0
 19 24  1  0  0  0
 21 22  1  0  0  0
 21 23  1  0  0  0
 21 60  1  0  0  0
 22 61  1  0  0  0
 23 62  1  0  0  0
 23 63  1  0  0  0
 23 64  1  0  0  0
 24 25  1  0  0  0
 24 65  1  0  0  0
 25 26  1  0  0  0
 25 28  1  0  0  0
 25 66  1  0  0  0
 26 27  2  0  0  0
 26 33  1  0  0  0
 28 29  1  0  0  0
 28 67  1  0  0  0
 28 68  1  0  0  0
 29 30  1  0  0  0
 29 69  1  0  0  0
 29 70  1  0  0  0
 30 31  1  0  0  0
 30 71  1  0  0  0
 30 72  1  0  0  0
 31 32  1  0  0  0
 31 73  1  0  0  0
 31 74  1  0  0  0
 32 75  1  0  0  0
 32 76  1  0  0  0
 32 77  1  0  0  0
 33 34  1  0  0  0
 33 78  1  0  0  0
 34 35  1  0  0  0
 34 37  1  0  0  0
 34 79  1  0  0  0
 35 36  2  0  0  0
 35 38  1  0  0  0
 37 80  1  0  0  0
 37 81  1  0  0  0
 37 82  1  0  0  0
M  CHG  4   1   1  15   1  32   1  38  -1
M  END
> <s_m_source_file>
../3uef_ligand.sdf

> <i_m_source_file_index>
1

> <s_epik_input>
W0hdL049QyhbTkgyXSlcW05IXVtDSDJdW0NIMl1bQ0gyXVtDQEhdKFtOSF1DKD1PKVtDQEBIXShbTkgzK10pW0NIM10pQyg9TylbTkhdW0NAQEhdKFtDQEhdKFtPSF0pW0NIM10pQyg9TylbTkhdW0NASF0oQyg9TylbTkhdW0NAQEhdKFtDSDNdKUMoPU8pW09IXSlbQ0gyXVtDSDJdW0NIMl1bQ0gyXVtOSDMrXQ==

> <s_epik_cmdline>
J2VwaWtfYXBwJywgJy1pbWFlJywgJ2xpZ2FuZF9wcm8ubWFlJywgJy1vbWFlJywgJ2xpZ2FuZF9wcmVwLm1hZScsICctbXMnLCAnMScsICctcGgnLCAnNycsICctcGh0JywgJzAuNScsICctbnQn

> <r_epik_Ionization_Penalty>
  0.1257

> <r_epik_Ionization_Penalty_Charging>
  0.1257

> <r_epik_Ionization_Penalty_Neutral>
  0.0000

> <r_epik_State_Penalty>
  0.1145

> <r_epik_Charging_Adjusted_Penalty>
0.240205220557612

> <i_epik_Tot_Q>
2

> <i_epik_Tot_abs_Q>
4

> <s_epik_Chemistry_Notes>
This compound has an imine and may undergo hydrolysis.

$$$$
