3ueo_ligand
                    3D
 Schrodinger Suite 2020-3.
120119  0  0  1  0            999 V2000
   14.6990   18.9640    0.7210 N   0  3  0  0  0  0
   15.8660   18.9030    1.6080 C   0  0  2  0  0  0
   16.4730   17.4930    1.6430 C   0  0  0  0  0  0
   16.0300   16.6100    2.3990 O   0  0  0  0  0  0
   15.5230   19.3860    3.0280 C   0  0  0  0  0  0
   16.0520   20.8060    3.3320 C   0  0  0  0  0  0
   16.1370   21.6630    2.4110 O   0  5  0  0  0  0
   16.3830   21.0620    4.5130 O   0  0  0  0  0  0
   17.4950   17.2940    0.8130 N   0  0  0  0  0  0
   18.1580   15.9970    0.6850 C   0  0  1  0  0  0
   19.2760   16.0910   -0.3470 C   0  0  0  0  0  0
   20.2140   17.0700    0.0510 O   0  0  0  0  0  0
   18.7140   15.5150    2.0260 C   0  0  0  0  0  0
   18.7760   14.3070    2.2960 O   0  0  0  0  0  0
   20.8520   17.7660   -1.2390 P   0  0  0  0  0  0
   19.7200   17.8780   -2.3770 O   0  0  0  0  0  0
   21.4040   19.2350   -0.8380 O   0  5  0  0  0  0
   22.0100   16.7730   -1.7560 O   0  0  0  0  0  0
   19.1090   16.4720    2.8600 N   0  0  0  0  0  0
   19.5290   16.1940    4.2240 C   0  0  2  0  0  0
   18.5990   16.7920    5.2710 C   0  0  0  0  0  0
   18.1790   17.9620    5.1780 O   0  0  0  0  0  0
   20.9230   16.7380    4.4790 C   0  0  0  0  0  0
   21.9830   15.8750    3.9030 C   0  0  0  0  0  0
   21.6290   14.8100    3.3540 O   0  0  0  0  0  0
   23.1640   16.2700    4.0100 O   0  5  0  0  0  0
   18.3250   15.9740    6.2830 N   0  0  0  0  0  0
   17.5330   16.3510    7.4370 C   0  0  1  0  0  0
   17.2610   15.0980    8.3080 C   0  0  1  0  0  0
   16.7790   15.5120    9.6960 C   0  0  0  0  0  0
   16.2530   14.2730    7.6850 O   0  0  0  0  0  0
   16.6970   12.7230    7.4680 P   0  0  0  0  0  0
   15.4810   11.8880    7.3230 O   0  0  0  0  0  0
   17.5760   12.6200    6.1230 O   0  5  0  0  0  0
   17.5250   12.1280    8.7200 O   0  0  0  0  0  0
   18.2150   17.4810    8.2330 C   0  0  0  0  0  0
   17.5910   18.4990    8.5360 O   0  0  0  0  0  0
   19.5030   17.3000    8.5360 N   0  0  0  0  0  0
   20.3340   18.3220    9.1930 C   0  0  2  0  0  0
   19.7190   18.9260   10.4800 C   0  0  0  0  0  0
   19.7890   20.1430   10.7060 O   0  0  0  0  0  0
   20.7430   19.4220    8.1910 C   0  0  0  0  0  0
   21.8230   18.9620    7.2020 C   0  0  0  0  0  0
   22.5420   17.9920    7.5120 O   0  0  0  0  0  0
   21.9670   19.5690    6.1150 O   0  5  0  0  0  0
   19.1400   18.0640   11.3190 N   0  0  0  0  0  0
   18.4900   18.4660   12.5710 C   0  0  2  0  0  0
   19.1690   17.8030   13.7770 C   0  0  0  0  0  0
   19.3980   16.5860   13.7730 O   0  0  0  0  0  0
   16.9820   18.0860   12.5710 C   0  0  0  0  0  0
   16.3330   18.4400   13.8960 C   0  0  0  0  0  0
   16.2380   18.7320   11.4050 C   0  0  0  0  0  0
   19.4750   18.5930   14.8080 N   0  0  0  0  0  0
   20.2790   18.1080   15.9310 C   0  0  2  0  0  0
   19.8410   18.5680   17.3300 C   0  0  0  0  0  0
   19.8600   19.7640   17.6240 O   0  0  0  0  0  0
   21.7530   18.4760   15.7140 C   0  0  0  0  0  0
   22.6860   17.7750   16.6760 C   0  0  0  0  0  0
   22.3590   16.2980   16.7850 C   0  0  0  0  0  0
   21.9370   15.8580   17.8810 O   0  0  0  0  0  0
   22.5070   15.5880   15.7640 O   0  0  0  0  0  0
   19.5060   17.5910   18.1820 N   0  0  0  0  0  0
   19.0790   17.7560   19.5930 C   0  0  2  0  0  0
   17.5780   18.0510   19.7250 C   0  0  0  0  0  0
   16.8479   17.4075   20.5253 O   0  5  0  0  0  0
   19.9100   18.7950   20.3810 C   0  0  0  0  0  0
   21.4500   18.7090   20.2230 C   0  0  0  0  0  0
   22.1330   17.6980   21.1510 C   0  0  0  0  0  0
   21.4400   16.9570   21.8880 O   0  0  0  0  0  0
   23.3830   17.6600   21.1390 O   0  0  0  0  0  0
   17.0644   18.9576   19.0166 O   0  0  0  0  0  0
   14.9820   18.6121   -0.2820 H   0  0  0  0  0  0
   14.3404   20.0020    0.6578 H   0  0  0  0  0  0
   13.8996   18.3236    1.1222 H   0  0  0  0  0  0
   16.5889   19.5963    1.1533 H   0  0  0  0  0  0
   14.4305   19.4040    3.1553 H   0  0  0  0  0  0
   15.9668   18.7011    3.7655 H   0  0  0  0  0  0
   17.8375   18.1486    0.2110 H   0  0  0  0  0  0
   17.3793   15.2968    0.3484 H   0  0  0  0  0  0
   19.7804   15.1170   -0.4309 H   0  0  0  0  0  0
   18.8517   16.3695   -1.3229 H   0  0  0  0  0  0
   21.7590   15.7455   -2.0582 H   0  0  0  0  0  0
   19.1106   17.5057    2.4839 H   0  0  0  0  0  0
   19.4950   15.0956    4.2720 H   0  0  0  0  0  0
   21.0155   17.7362    4.0263 H   0  0  0  0  0  0
   21.0961   16.8096    5.5629 H   0  0  0  0  0  0
   18.7393   14.9577    6.2085 H   0  0  0  0  0  0
   16.5881   16.7441    7.0337 H   0  0  0  0  0  0
   18.1635   14.4741    8.3865 H   0  0  0  0  0  0
   17.5426   16.1412   10.1767 H   0  0  0  0  0  0
   16.6061   14.6138   10.3071 H   0  0  0  0  0  0
   15.8410   16.0793    9.6043 H   0  0  0  0  0  0
   17.0740   12.1189    9.7233 H   0  0  0  0  0  0
   19.9383   16.3259    8.2684 H   0  0  0  0  0  0
   21.2144   17.7430    9.5088 H   0  0  0  0  0  0
   19.8640   19.7301    7.6058 H   0  0  0  0  0  0
   21.1403   20.2886    8.7398 H   0  0  0  0  0  0
   19.1676   17.0031   11.0296 H   0  0  0  0  0  0
   18.6252   19.5571   12.6057 H   0  0  0  0  0  0
   16.8912   16.9970   12.4455 H   0  0  0  0  0  0
   16.8890   17.9619   14.7159 H   0  0  0  0  0  0
   15.2925   18.0832   13.9015 H   0  0  0  0  0  0
   16.3470   19.5316   14.0311 H   0  0  0  0  0  0
   16.7297   18.4586   10.4598 H   0  0  0  0  0  0
   16.2514   19.8256   11.5223 H   0  0  0  0  0  0
   15.1968   18.3772   11.3928 H   0  0  0  0  0  0
   19.1085   19.6301   14.8014 H   0  0  0  0  0  0
   20.0878   17.0258   15.8824 H   0  0  0  0  0  0
   22.0543   18.1966   14.6936 H   0  0  0  0  0  0
   21.8845   19.5594   15.8514 H   0  0  0  0  0  0
   23.7225   17.8783   16.3224 H   0  0  0  0  0  0
   22.5921   18.2283   17.6739 H   0  0  0  0  0  0
   21.6922   14.7909   17.9877 H   0  0  0  0  0  0
   19.5711   16.5853   17.7411 H   0  0  0  0  0  0
   19.2860   16.7600   20.0114 H   0  0  0  0  0  0
   19.6300   19.8088   20.0589 H   0  0  0  0  0  0
   19.7107   18.6840   21.4571 H   0  0  0  0  0  0
   21.6969   18.4126   19.1929 H   0  0  0  0  0  0
   21.8962   19.6910   20.4389 H   0  0  0  0  0  0
   21.9293   16.2312   22.5542 H   0  0  0  0  0  0
  1  2  1  0  0  0
  1 72  1  0  0  0
  1 73  1  0  0  0
  1 74  1  0  0  0
  2  3  1  0  0  0
  2  5  1  0  0  0
  2 75  1  0  0  0
  3  4  2  0  0  0
  3  9  1  0  0  0
  5  6  1  0  0  0
  5 76  1  0  0  0
  5 77  1  0  0  0
  6  7  1  0  0  0
  6  8  2  0  0  0
  9 10  1  0  0  0
  9 78  1  0  0  0
 10 11  1  0  0  0
 10 13  1  0  0  0
 10 79  1  0  0  0
 11 12  1  0  0  0
 11 80  1  0  0  0
 11 81  1  0  0  0
 12 15  1  0  0  0
 13 14  2  0  0  0
 13 19  1  0  0  0
 15 16  2  0  0  0
 15 17  1  0  0  0
 15 18  1  0  0  0
 18 82  1  0  0  0
 19 20  1  0  0  0
 19 83  1  0  0  0
 20 21  1  0  0  0
 20 23  1  0  0  0
 20 84  1  0  0  0
 21 22  2  0  0  0
 21 27  1  0  0  0
 23 24  1  0  0  0
 23 85  1  0  0  0
 23 86  1  0  0  0
 24 25  2  0  0  0
 24 26  1  0  0  0
 27 28  1  0  0  0
 27 87  1  0  0  0
 28 29  1  0  0  0
 28 36  1  0  0  0
 28 88  1  0  0  0
 29 30  1  0  0  0
 29 31  1  0  0  0
 29 89  1  0  0  0
 30 90  1  0  0  0
 30 91  1  0  0  0
 30 92  1  0  0  0
 31 32  1  0  0  0
 32 33  2  0  0  0
 32 34  1  0  0  0
 32 35  1  0  0  0
 35 93  1  0  0  0
 36 37  2  0  0  0
 36 38  1  0  0  0
 38 39  1  0  0  0
 38 94  1  0  0  0
 39 40  1  0  0  0
 39 42  1  0  0  0
 39 95  1  0  0  0
 40 41  2  0  0  0
 40 46  1  0  0  0
 42 43  1  0  0  0
 42 96  1  0  0  0
 42 97  1  0  0  0
 43 44  2  0  0  0
 43 45  1  0  0  0
 46 47  1  0  0  0
 46 98  1  0  0  0
 47 48  1  0  0  0
 47 50  1  0  0  0
 47 99  1  0  0  0
 48 49  2  0  0  0
 48 53  1  0  0  0
 50 51  1  0  0  0
 50 52  1  0  0  0
 50100  1  0  0  0
 51101  1  0  0  0
 51102  1  0  0  0
 51103  1  0  0  0
 52104  1  0  0  0
 52105  1  0  0  0
 52106  1  0  0  0
 53 54  1  0  0  0
 53107  1  0  0  0
 54 55  1  0  0  0
 54 57  1  0  0  0
 54108  1  0  0  0
 55 56  2  0  0  0
 55 62  1  0  0  0
 57 58  1  0  0  0
 57109  1  0  0  0
 57110  1  0  0  0
 58 59  1  0  0  0
 58111  1  0  0  0
 58112  1  0  0  0
 59 60  1  0  0  0
 59 61  2  0  0  0
 60113  1  0  0  0
 62 63  1  0  0  0
 62114  1  0  0  0
 63 64  1  0  0  0
 63 66  1  0  0  0
 63115  1  0  0  0
 64 65  1  0  0  0
 64 71  2  0  0  0
 66 67  1  0  0  0
 66116  1  0  0  0
 66117  1  0  0  0
 67 68  1  0  0  0
 67118  1  0  0  0
 67119  1  0  0  0
 68 69  1  0  0  0
 68 70  2  0  0  0
 69120  1  0  0  0
M  CHG  7   1   1   7  -1  17  -1  26  -1  34  -1  45  -1  65  -1
M  END
> <s_m_source_file>
../3ueo_ligand.sdf

> <i_m_source_file_index>
1

> <s_epik_input>
W09IXUMoPU8pW0NIMl1bQ0BIXShbTkgzK10pQyg9TylbTkhdW0NAQEhdKFtDSDJdT1AoPU8pKFtPSF0pW09IXSlDKD1PKVtOSF1bQ0BASF0oW0NIMl1DKD1PKVtPSF0pQyg9TylbTkhdW0NAQEhdKFtDQEBIXShbQ0gzXSlPUCg9TykoW09IXSlbT0hdKUMoPU8pW05IXVtDQEBIXShbQ0gyXUMoPU8pW09IXSlDKD1PKVtOSF1bQ0BASF0oW0NIXShbQ0gzXSlbQ0gzXSlDKD1PKVtOSF1bQ0BASF0oW0NIMl1bQ0gyXUMoPU8pW09IXSlDKD1PKVtOSF1bQ0BIXShDKD1PKVtPSF0pW0NIMl1bQ0gyXUMoPU8pW09IXQ==

> <s_epik_cmdline>
J2VwaWtfYXBwJywgJy1pbWFlJywgJ2xpZ2FuZF9wcm8ubWFlJywgJy1vbWFlJywgJ2xpZ2FuZF9wcmVwLm1hZScsICctbXMnLCAnMScsICctcGgnLCAnNycsICctcGh0JywgJzAuNScsICctbnQn

> <r_epik_Ionization_Penalty>
  8.8490

> <r_epik_Ionization_Penalty_Charging>
  0.0251

> <r_epik_Ionization_Penalty_Neutral>
  8.8239

> <r_epik_State_Penalty>
  0.4802

> <r_epik_Charging_Adjusted_Penalty>
0.505237368741475

> <i_epik_Tot_Q>
-5

> <i_epik_Tot_abs_Q>
7

$$$$
