3uf9_ligand
                    3D
 Schrodinger Suite 2020-3.
 36 36  0  0  1  0            999 V2000
  -18.3200   17.9700  -20.7360 C   0  0  0  0  0  0
  -17.6280   16.8530  -21.7610 S   0  0  1  0  0  0
  -18.6440   16.5500  -23.0210 O   0  0  0  0  0  0
  -16.2010   17.3940  -22.2530 C   0  0  0  0  0  0
  -15.0300   16.8190  -21.7650 C   0  0  0  0  0  0
  -13.7830   17.2810  -22.1830 C   0  0  0  0  0  0
  -13.7000   18.3310  -23.0900 C   0  0  0  0  0  0
  -14.8690   18.9040  -23.5790 C   0  0  0  0  0  0
  -16.1150   18.4430  -23.1610 C   0  0  0  0  0  0
  -12.4840   18.7980  -23.5250 O   0  0  0  0  0  0
  -11.2830   19.2100  -22.5330 P   0  0  0  0  0  0
  -10.1630   20.6180  -23.2840 S   0  0  0  0  0  0
  -11.9660   19.6200  -21.1340 O   0  0  0  0  0  0
  -12.8650   20.7220  -21.0570 C   0  0  0  0  0  0
  -12.6250   21.6490  -22.2280 C   0  0  0  0  0  0
  -10.4590   17.8580  -22.2420 O   0  0  0  0  0  0
   -9.7980   17.6580  -20.9930 C   0  0  0  0  0  0
  -10.0990   16.2680  -20.4750 C   0  0  0  0  0  0
  -19.2991   17.6000  -20.3977 H   0  0  0  0  0  0
  -18.4522   18.9235  -21.2683 H   0  0  0  0  0  0
  -17.6654   18.1237  -19.8655 H   0  0  0  0  0  0
  -19.6596   16.1731  -22.8302 H   0  0  0  0  0  0
  -15.0893   15.9994  -21.0489 H   0  0  0  0  0  0
  -12.8735   16.8191  -21.7988 H   0  0  0  0  0  0
  -14.8095   19.7222  -24.2967 H   0  0  0  0  0  0
  -17.0238   18.9053  -23.5463 H   0  0  0  0  0  0
  -13.9008   20.3530  -21.0869 H   0  0  0  0  0  0
  -12.6971   21.2672  -20.1165 H   0  0  0  0  0  0
  -13.3188   22.5006  -22.1697 H   0  0  0  0  0  0
  -12.7927   21.1031  -23.1681 H   0  0  0  0  0  0
  -11.5889   22.0173  -22.1977 H   0  0  0  0  0  0
   -8.7123   17.7692  -21.1308 H   0  0  0  0  0  0
  -10.1536   18.4034  -20.2664 H   0  0  0  0  0  0
   -9.5883   16.1168  -19.5125 H   0  0  0  0  0  0
   -9.7430   15.5214  -21.2002 H   0  0  0  0  0  0
  -11.1844   16.1556  -20.3359 H   0  0  0  0  0  0
  1  2  1  0  0  0
  1 19  1  0  0  0
  1 20  1  0  0  0
  1 21  1  0  0  0
  2  3  1  0  0  0
  2  4  1  0  0  0
  3 22  1  0  0  0
  4  5  2  0  0  0
  4  9  1  0  0  0
  5  6  1  0  0  0
  5 23  1  0  0  0
  6  7  2  0  0  0
  6 24  1  0  0  0
  7  8  1  0  0  0
  7 10  1  0  0  0
  8  9  2  0  0  0
  8 25  1  0  0  0
  9 26  1  0  0  0
 10 11  1  0  0  0
 11 12  2  0  0  0
 11 13  1  0  0  0
 11 16  1  0  0  0
 13 14  1  0  0  0
 14 15  1  0  0  0
 14 27  1  0  0  0
 14 28  1  0  0  0
 15 29  1  0  0  0
 15 30  1  0  0  0
 15 31  1  0  0  0
 16 17  1  0  0  0
 17 18  1  0  0  0
 17 32  1  0  0  0
 17 33  1  0  0  0
 18 34  1  0  0  0
 18 35  1  0  0  0
 18 36  1  0  0  0
M  END
> <s_m_source_file>
../3uf9_ligand.sdf

> <i_m_source_file_index>
1

> <s_epik_input>
W0NIM11bU0BASF0oW09IXSljMVtjSF1bY0hdYyhbY0hdW2NIXTEpT1AoPVMpKE9bQ0gyXVtDSDNdKU9bQ0gyXVtDSDNd

> <s_epik_cmdline>
J2VwaWtfYXBwJywgJy1pbWFlJywgJ2xpZ2FuZF9wcm8ubWFlJywgJy1vbWFlJywgJ2xpZ2FuZF9wcmVwLm1hZScsICctbXMnLCAnMScsICctcGgnLCAnNycsICctcGh0JywgJzAuNScsICctbnQn

> <r_lp_tautomer_probability>
1

> <r_epik_Ionization_Penalty>
  0.0000

> <r_epik_Ionization_Penalty_Charging>
  0.0000

> <r_epik_Ionization_Penalty_Neutral>
  0.0000

> <r_epik_State_Penalty>
 -0.0000

> <r_epik_Charging_Adjusted_Penalty>
0

> <i_epik_Tot_Q>
0

> <i_epik_Tot_abs_Q>
0

$$$$
