3ufa_ligand
                    3D
 Schrodinger Suite 2020-3.
 28 28  0  0  1  0            999 V2000
   -1.3690   39.7840   38.3400 C   0  0  0  0  0  0
   -2.2150   40.9700   37.9620 C   0  0  0  0  0  0
   -1.6900   42.0930   37.8650 O   0  0  0  0  0  0
   -5.5980   40.9120   39.7400 O   0  0  0  0  0  0
   -5.9810   41.6980   38.4880 P   0  0  0  0  0  0
   -6.7940   42.9500   38.5960 O   0  0  0  0  0  0
   -4.5780   41.6500   37.3410 C   0  0  1  0  0  0
   -4.0030   43.0100   37.1920 C   0  0  0  0  0  0
   -4.0700   42.9890   35.7000 C   0  0  0  0  0  0
   -4.4120   41.7960   35.1000 C   0  0  0  0  0  0
   -4.4920   41.7200   33.7240 C   0  0  0  0  0  0
   -4.2280   42.8570   32.9850 C   0  0  0  0  0  0
   -3.8930   44.0480   33.5850 C   0  0  0  0  0  0
   -3.8030   44.1200   34.9600 C   0  0  0  0  0  0
   -3.5250   40.6950   37.7350 N   0  0  0  0  0  0
   -0.3311   40.1106   38.5014 H   0  0  0  0  0  0
   -1.3976   39.0402   37.5301 H   0  0  0  0  0  0
   -1.7600   39.3345   39.2647 H   0  0  0  0  0  0
   -6.3140   40.8159   40.5695 H   0  0  0  0  0  0
   -4.7451   41.3135   36.3071 H   0  0  0  0  0  0
   -4.6490   43.7392   37.7029 H   0  0  0  0  0  0
   -2.9981   43.0342   37.6387 H   0  0  0  0  0  0
   -4.6184   40.9163   35.7096 H   0  0  0  0  0  0
   -4.7574   40.7844   33.2318 H   0  0  0  0  0  0
   -4.2868   42.8087   31.8977 H   0  0  0  0  0  0
   -3.6993   44.9316   32.9769 H   0  0  0  0  0  0
   -3.5262   45.0530   35.4509 H   0  0  0  0  0  0
   -3.7708   39.6319   37.8743 H   0  0  0  0  0  0
  1  2  1  0  0  0
  1 16  1  0  0  0
  1 17  1  0  0  0
  1 18  1  0  0  0
  2  3  2  0  0  0
  2 15  1  0  0  0
  4  5  1  0  0  0
  4 19  1  0  0  0
  5  6  2  0  0  0
  5  7  1  0  0  0
  7  8  1  0  0  0
  7 15  1  0  0  0
  7 20  1  0  0  0
  8  9  1  0  0  0
  8 21  1  0  0  0
  8 22  1  0  0  0
  9 10  2  0  0  0
  9 14  1  0  0  0
 10 11  1  0  0  0
 10 23  1  0  0  0
 11 12  2  0  0  0
 11 24  1  0  0  0
 12 13  1  0  0  0
 12 25  1  0  0  0
 13 14  2  0  0  0
 13 26  1  0  0  0
 14 27  1  0  0  0
 15 28  1  0  0  0
M  END
> <s_m_source_file>
../3ufa_ligand.sdf

> <i_m_source_file_index>
1

> <s_epik_input>
W0NIM11DKD1PKVtOSF1bQ0BASF0oW1BIXSg9TylbT0hdKVtDSDJdYzFbY0hdW2NIXVtjSF1bY0hdW2NIXTE=

> <s_epik_cmdline>
J2VwaWtfYXBwJywgJy1pbWFlJywgJ2xpZ2FuZF9wcm8ubWFlJywgJy1vbWFlJywgJ2xpZ2FuZF9wcmVwLm1hZScsICctbXMnLCAnMScsICctcGgnLCAnNycsICctcGh0JywgJzAuNScsICctbnQn

> <r_lp_tautomer_probability>
1

> <r_epik_Ionization_Penalty>
  0.0000

> <r_epik_Ionization_Penalty_Charging>
  0.0000

> <r_epik_Ionization_Penalty_Neutral>
  0.0000

> <r_epik_State_Penalty>
 -0.0000

> <r_epik_Charging_Adjusted_Penalty>
0

> <i_epik_Tot_Q>
0

> <i_epik_Tot_abs_Q>
0

$$$$
