3ufl_ligand
                    3D
 Schrodinger Suite 2020-3.
 69 74  0  0  1  0            999 V2000
   30.8330   38.7490    2.3120 C   0  0  1  0  0  0
   30.6730   39.1810    3.7760 C   0  0  0  0  0  0
   30.1720   38.0200    4.5650 N   0  3  0  0  0  0
   30.1630   36.8240    3.6840 C   0  0  0  0  0  0
   31.0160   37.2280    2.4800 C   0  0  1  0  0  0
   30.6680   36.3700    1.2810 C   0  0  0  0  0  0
   29.4880   36.2200    0.9890 O   0  0  0  0  0  0
   31.6700   35.8030    0.5710 N   0  0  0  0  0  0
   33.1090   35.9080    0.8770 C   0  0  0  0  0  0
   33.7710   36.7900   -0.1880 C   0  0  0  0  0  0
   32.8790   36.8450   -1.4350 C   0  0  2  0  0  0
   32.2710   35.4670   -1.7630 C   0  0  0  0  0  0
   31.3720   34.9710   -0.6110 C   0  0  1  0  0  0
   33.5450   37.5440   -2.6020 C   0  0  0  0  0  0
   33.1950   38.8730   -2.8840 C   0  0  0  0  0  0
   33.7740   39.5690   -3.9500 C   0  0  0  0  0  0
   34.7220   38.9270   -4.7490 C   0  0  0  0  0  0
   35.0820   37.6050   -4.4710 C   0  0  0  0  0  0
   34.5020   36.9180   -3.4070 C   0  0  0  0  0  0
   29.5200   39.1210    1.5790 C   0  0  0  0  0  0
   29.4720   40.4950    0.8990 C   0  0  0  0  0  0
   30.5950   40.5570   -0.1380 C   0  0  0  0  0  0
   31.9310   40.3460    0.5290 C   0  0  0  0  0  0
   32.0570   39.4610    1.7340 C   0  0  0  0  0  0
   32.9780   40.9790    0.0140 C   0  0  0  0  0  0
   34.3310   40.8290    0.6190 C   0  0  0  0  0  0
   34.4620   40.0510    1.6840 C   0  0  0  0  0  0
   33.2770   39.3470    2.2560 C   0  0  0  0  0  0
   31.2010   33.4810   -0.3330 C   0  0  0  0  0  0
   30.7800   33.0840    0.9470 C   0  0  0  0  0  0
   30.5970   31.7430    1.2880 C   0  0  0  0  0  0
   30.8380   30.7560    0.3350 C   0  0  0  0  0  0
   31.2550   31.1190   -0.9470 C   0  0  0  0  0  0
   31.4280   32.4700   -1.2760 C   0  0  0  0  0  0
   31.6464   39.5084    4.1701 H   0  0  0  0  0  0
   29.9546   40.0118    3.8367 H   0  0  0  0  0  0
   30.8348   37.8484    5.4260 H   0  0  0  0  0  0
   29.1536   38.2318    4.9227 H   0  0  0  0  0  0
   30.5945   35.9680    4.2235 H   0  0  0  0  0  0
   29.1281   36.5904    3.3934 H   0  0  0  0  0  0
   32.0901   37.0270    2.6065 H   0  0  0  0  0  0
   33.2404   36.3588    1.8718 H   0  0  0  0  0  0
   33.5603   34.9049    0.8665 H   0  0  0  0  0  0
   33.9067   37.8063    0.2103 H   0  0  0  0  0  0
   34.7505   36.3677   -0.4567 H   0  0  0  0  0  0
   32.0265   37.5036   -1.2125 H   0  0  0  0  0  0
   31.6637   35.5424   -2.6770 H   0  0  0  0  0  0
   33.0792   34.7373   -1.9190 H   0  0  0  0  0  0
   30.3303   35.1355   -0.9237 H   0  0  0  0  0  0
   32.4559   39.3739   -2.2588 H   0  0  0  0  0  0
   33.4884   40.6008   -4.1547 H   0  0  0  0  0  0
   35.1796   39.4543   -5.5861 H   0  0  0  0  0  0
   35.8247   37.1063   -5.0937 H   0  0  0  0  0  0
   34.7952   35.8886   -3.2011 H   0  0  0  0  0  0
   29.3246   38.3881    0.7823 H   0  0  0  0  0  0
   28.6855   39.1148    2.2957 H   0  0  0  0  0  0
   28.4968   40.6269    0.4074 H   0  0  0  0  0  0
   29.6116   41.2828    1.6539 H   0  0  0  0  0  0
   30.4410   39.7716   -0.8926 H   0  0  0  0  0  0
   30.5882   41.5421   -0.6274 H   0  0  0  0  0  0
   32.8463   41.6154   -0.8610 H   0  0  0  0  0  0
   35.1922   41.3464    0.1962 H   0  0  0  0  0  0
   35.4416   39.9246    2.1450 H   0  0  0  0  0  0
   33.4151   38.7159    3.1339 H   0  0  0  0  0  0
   30.5898   33.8493    1.6995 H   0  0  0  0  0  0
   30.2685   31.4705    2.2910 H   0  0  0  0  0  0
   30.7016   29.7048    0.5891 H   0  0  0  0  0  0
   31.4466   30.3490   -1.6943 H   0  0  0  0  0  0
   31.7448   32.7392   -2.2836 H   0  0  0  0  0  0
  1  2  1  0  0  0
  1  5  1  0  0  0
  1 20  1  0  0  0
  1 24  1  0  0  0
  2  3  1  0  0  0
  2 35  1  0  0  0
  2 36  1  0  0  0
  3  4  1  0  0  0
  3 37  1  0  0  0
  3 38  1  0  0  0
  4  5  1  0  0  0
  4 39  1  0  0  0
  4 40  1  0  0  0
  5  6  1  0  0  0
  5 41  1  0  0  0
  6  7  2  0  0  0
  6  8  1  0  0  0
  8  9  1  0  0  0
  8 13  1  0  0  0
  9 10  1  0  0  0
  9 42  1  0  0  0
  9 43  1  0  0  0
 10 11  1  0  0  0
 10 44  1  0  0  0
 10 45  1  0  0  0
 11 12  1  0  0  0
 11 14  1  0  0  0
 11 46  1  0  0  0
 12 13  1  0  0  0
 12 47  1  0  0  0
 12 48  1  0  0  0
 13 29  1  0  0  0
 13 49  1  0  0  0
 14 15  2  0  0  0
 14 19  1  0  0  0
 15 16  1  0  0  0
 15 50  1  0  0  0
 16 17  2  0  0  0
 16 51  1  0  0  0
 17 18  1  0  0  0
 17 52  1  0  0  0
 18 19  2  0  0  0
 18 53  1  0  0  0
 19 54  1  0  0  0
 20 21  1  0  0  0
 20 55  1  0  0  0
 20 56  1  0  0  0
 21 22  1  0  0  0
 21 57  1  0  0  0
 21 58  1  0  0  0
 22 23  1  0  0  0
 22 59  1  0  0  0
 22 60  1  0  0  0
 23 24  2  0  0  0
 23 25  1  0  0  0
 24 28  1  0  0  0
 25 26  2  0  0  0
 25 61  1  0  0  0
 26 27  1  0  0  0
 26 62  1  0  0  0
 27 28  2  0  0  0
 27 63  1  0  0  0
 28 64  1  0  0  0
 29 30  2  0  0  0
 29 34  1  0  0  0
 30 31  1  0  0  0
 30 65  1  0  0  0
 31 32  2  0  0  0
 31 66  1  0  0  0
 32 33  1  0  0  0
 32 67  1  0  0  0
 33 34  2  0  0  0
 33 68  1  0  0  0
 34 69  1  0  0  0
M  CHG  1   3   1
M  END
> <s_m_source_file>
../3ufl_ligand.sdf

> <i_m_source_file_index>
1

> <s_epik_input>
W2NIXTFbY0hdW2NIXVtjSF1jKFtDSDJdW0NIMl1bQ0gyXTIpYzFbQ0BAXTIzW0NIMl1bTkgyK11bQ0gyXVtDQEhdM0MoPU8pTjRbQ0gyXVtDSDJdW0NAQEhdKGM1W2NIXVtjSF1bY0hdW2NIXVtjSF01KVtDSDJdW0NASF00YzZbY0hdW2NIXVtjSF1bY0hdW2NIXTY=

> <s_epik_cmdline>
J2VwaWtfYXBwJywgJy1pbWFlJywgJ2xpZ2FuZF9wcm8ubWFlJywgJy1vbWFlJywgJ2xpZ2FuZF9wcmVwLm1hZScsICctbXMnLCAnMScsICctcGgnLCAnNycsICctcGh0JywgJzAuNScsICctbnQn

> <r_lp_tautomer_probability>
1

> <r_epik_Ionization_Penalty>
  0.0016

> <r_epik_Ionization_Penalty_Charging>
  0.0016

> <r_epik_Ionization_Penalty_Neutral>
  0.0000

> <r_epik_State_Penalty>
 -0.0000

> <r_epik_Charging_Adjusted_Penalty>
0.00161191723084768

> <i_epik_Tot_Q>
1

> <i_epik_Tot_abs_Q>
1

$$$$
