3ugc_ligand
                    3D
 Schrodinger Suite 2020-3.
 70 74  0  0  1  0            999 V2000
   23.2040  -17.8200  -13.1770 F   0  0  0  0  0  0
   23.3030  -18.9780  -13.8660 C   0  0  0  0  0  0
   24.2100  -19.7150  -13.2050 F   0  0  0  0  0  0
   22.1430  -19.6200  -13.7860 F   0  0  0  0  0  0
   23.7170  -18.6820  -15.2910 C   0  0  0  0  0  0
   25.0240  -18.2990  -15.5910 C   0  0  0  0  0  0
   25.3390  -18.0200  -16.9280 C   0  0  0  0  0  0
   24.3850  -18.1430  -17.9460 C   0  0  0  0  0  0
   23.0970  -18.5460  -17.6170 C   0  0  0  0  0  0
   22.7720  -18.8480  -16.2960 C   0  0  0  0  0  0
   22.1800  -18.6790  -18.6960 N   0  0  0  0  0  0
   20.8360  -18.5630  -18.5920 C   0  0  0  0  0  0
   20.2380  -18.3620  -17.5360 O   0  0  0  0  0  0
   20.1120  -18.7560  -19.7090 N   0  0  0  0  0  0
   20.6690  -19.3950  -20.9030 C   0  0  0  0  0  0
   19.4810  -19.5010  -21.8820 C   0  0  0  0  0  0
   18.3120  -18.8910  -21.1370 C   0  0  0  0  0  0
   18.7410  -18.5030  -19.8780 C   0  0  0  0  0  0
   17.8830  -17.8800  -18.9580 C   0  0  0  0  0  0
   16.5570  -17.6820  -19.3710 C   0  0  0  0  0  0
   16.1410  -18.0930  -20.6360 C   0  0  0  0  0  0
   17.0150  -18.6910  -21.5370 C   0  0  0  0  0  0
   14.8270  -17.8770  -21.0130 O   0  0  0  0  0  0
   13.8310  -18.6020  -20.4360 C   0  0  0  0  0  0
   14.0700  -19.7500  -19.8030 N   0  0  0  0  0  0
   13.0870  -20.4760  -19.2610 C   0  0  0  0  0  0
   11.8220  -20.0160  -19.3410 N   0  0  0  0  0  0
   11.5470  -18.8470  -19.9210 C   0  0  0  0  0  0
   12.5410  -18.0710  -20.4990 C   0  0  0  0  0  0
   10.1730  -18.4790  -19.8140 N   0  0  0  0  0  0
    9.6470  -17.3300  -20.2790 C   0  0  0  0  0  0
   10.2470  -16.4800  -20.8640 O   0  0  0  0  0  0
    8.1610  -17.1710  -20.0410 C   0  0  0  0  0  0
   26.0940  -18.0920  -14.4980 C   0  0  0  0  0  0
   27.1310  -17.1670  -14.9590 N   0  3  2  0  0  0
   28.3190  -17.2630  -14.1020 C   0  0  0  0  0  0
   29.4080  -16.2990  -14.6270 C   0  0  0  0  0  0
   28.8900  -14.9250  -14.6780 N   0  0  2  0  0  0
   27.6980  -14.8360  -15.5590 C   0  0  0  0  0  0
   26.6370  -15.7910  -14.9940 C   0  0  0  0  0  0
   29.9200  -13.9700  -15.1630 C   0  0  0  0  0  0
   26.3497  -17.6999  -17.1813 H   0  0  0  0  0  0
   24.6493  -17.9258  -18.9809 H   0  0  0  0  0  0
   21.7753  -19.2149  -16.0508 H   0  0  0  0  0  0
   22.5505  -18.8927  -19.7095 H   0  0  0  0  0  0
   21.6958  -19.7232  -21.0645 H   0  0  0  0  0  0
   19.4828  -19.9219  -22.8875 H   0  0  0  0  0  0
   18.2293  -17.5662  -17.9733 H   0  0  0  0  0  0
   15.8466  -17.2030  -18.6973 H   0  0  0  0  0  0
   16.6802  -18.9914  -22.5299 H   0  0  0  0  0  0
   13.3039  -21.4215  -18.7640 H   0  0  0  0  0  0
   12.3294  -17.1114  -20.9706 H   0  0  0  0  0  0
    9.4589  -19.1562  -19.3225 H   0  0  0  0  0  0
    7.7821  -18.0452  -19.4912 H   0  0  0  0  0  0
    7.6413  -17.0921  -21.0073 H   0  0  0  0  0  0
    7.9795  -16.2602  -19.4516 H   0  0  0  0  0  0
   25.6212  -17.6758  -13.5962 H   0  0  0  0  0  0
   26.5612  -19.0577  -14.2546 H   0  0  0  0  0  0
   27.4055  -17.4511  -15.9856 H   0  0  0  0  0  0
   28.0506  -16.9886  -13.0711 H   0  0  0  0  0  0
   28.7012  -18.2943  -14.1192 H   0  0  0  0  0  0
   30.2793  -16.3299  -13.9563 H   0  0  0  0  0  0
   29.7128  -16.6059  -15.6384 H   0  0  0  0  0  0
   27.3221  -13.8022  -15.5640 H   0  0  0  0  0  0
   27.9753  -15.1302  -16.5820 H   0  0  0  0  0  0
   25.7421  -15.7388  -15.6315 H   0  0  0  0  0  0
   26.3803  -15.4675  -13.9745 H   0  0  0  0  0  0
   30.8078  -14.0285  -14.5162 H   0  0  0  0  0  0
   29.5139  -12.9481  -15.1366 H   0  0  0  0  0  0
   30.2008  -14.2265  -16.1952 H   0  0  0  0  0  0
  1  2  1  0  0  0
  2  3  1  0  0  0
  2  4  1  0  0  0
  2  5  1  0  0  0
  5  6  2  0  0  0
  5 10  1  0  0  0
  6  7  1  0  0  0
  6 34  1  0  0  0
  7  8  2  0  0  0
  7 42  1  0  0  0
  8  9  1  0  0  0
  8 43  1  0  0  0
  9 10  2  0  0  0
  9 11  1  0  0  0
 10 44  1  0  0  0
 11 12  1  0  0  0
 11 45  1  0  0  0
 12 13  2  0  0  0
 12 14  1  0  0  0
 14 15  1  0  0  0
 14 18  1  0  0  0
 15 16  2  0  0  0
 15 46  1  0  0  0
 16 17  1  0  0  0
 16 47  1  0  0  0
 17 18  2  0  0  0
 17 22  1  0  0  0
 18 19  1  0  0  0
 19 20  2  0  0  0
 19 48  1  0  0  0
 20 21  1  0  0  0
 20 49  1  0  0  0
 21 22  2  0  0  0
 21 23  1  0  0  0
 22 50  1  0  0  0
 23 24  1  0  0  0
 24 25  2  0  0  0
 24 29  1  0  0  0
 25 26  1  0  0  0
 26 27  2  0  0  0
 26 51  1  0  0  0
 27 28  1  0  0  0
 28 29  2  0  0  0
 28 30  1  0  0  0
 29 52  1  0  0  0
 30 31  1  0  0  0
 30 53  1  0  0  0
 31 32  2  0  0  0
 31 33  1  0  0  0
 33 54  1  0  0  0
 33 55  1  0  0  0
 33 56  1  0  0  0
 34 35  1  0  0  0
 34 57  1  0  0  0
 34 58  1  0  0  0
 35 36  1  0  0  0
 35 40  1  0  0  0
 35 59  1  0  0  0
 36 37  1  0  0  0
 36 60  1  0  0  0
 36 61  1  0  0  0
 37 38  1  0  0  0
 37 62  1  0  0  0
 37 63  1  0  0  0
 38 39  1  0  0  0
 38 41  1  0  0  0
 39 40  1  0  0  0
 39 64  1  0  0  0
 39 65  1  0  0  0
 40 66  1  0  0  0
 40 67  1  0  0  0
 41 68  1  0  0  0
 41 69  1  0  0  0
 41 70  1  0  0  0
M  CHG  1  35   1
M  END
> <s_m_source_file>
../3ugc_ligand.sdf

> <i_m_source_file_index>
1

> <s_epik_input>
W0NIMl0xW0NIMl1bTkBIK10oW0NIM10pW0NIMl1bQ0gyXVtOQEgrXTFbQ0gyXWMoYzJDKEYpKEYpRilbY0hdW2NIXWMoW2NIXTIpW05IXUMoPU8pbihbY0hdW2NIXTMpYyhjMzQpW2NIXVtjSF1jKFtjSF00KU9jNW5bY0hdbmMoW2NIXTUpW05IXUMoPU8pW0NIM10=

> <s_epik_cmdline>
J2VwaWtfYXBwJywgJy1pbWFlJywgJ2xpZ2FuZF9wcm8ubWFlJywgJy1vbWFlJywgJ2xpZ2FuZF9wcmVwLm1hZScsICctbXMnLCAnMScsICctcGgnLCAnNycsICctcGh0JywgJzAuNScsICctbnQn

> <r_lp_tautomer_probability>
1

> <r_epik_Ionization_Penalty>
  0.0168

> <r_epik_Ionization_Penalty_Charging>
  0.0155

> <r_epik_Ionization_Penalty_Neutral>
  0.0013

> <r_epik_State_Penalty>
 -0.0000

> <r_epik_Charging_Adjusted_Penalty>
0.0154526225118262

> <i_epik_Tot_Q>
1

> <i_epik_Tot_abs_Q>
1

$$$$
