3uh4_ligand
                    3D
 Schrodinger Suite 2020-3.
 32 34  0  0  1  0            999 V2000
  -23.3660   -8.5370    8.2000 N   0  0  0  0  0  0
  -24.5070   -7.9250    7.8160 C   0  0  0  0  0  0
  -25.6060   -8.5920    7.4440 N   0  0  0  0  0  0
  -25.6390   -9.9290    7.5170 C   0  0  0  0  0  0
  -24.5330  -10.6420    8.0540 C   0  0  0  0  0  0
  -23.3850   -9.8810    8.3130 C   0  0  0  0  0  0
  -22.2730  -10.5080    8.7590 O   0  0  0  0  0  0
  -23.9010   -1.4400    7.5820 F   0  0  0  0  0  0
  -23.7810   -2.0830    5.5550 F   0  0  0  0  0  0
  -25.7290   -1.7220    6.3650 F   0  0  0  0  0  0
  -25.4900   -5.8760    6.7380 C   0  0  0  0  0  0
  -23.5470   -5.5850    8.2160 C   0  0  0  0  0  0
  -25.4840   -4.5050    6.4530 C   0  0  0  0  0  0
  -23.5510   -4.2000    7.9410 C   0  0  0  0  0  0
  -26.8790  -12.0970    6.9370 C   0  0  0  0  0  0
  -26.9700  -10.5630    7.0920 C   0  0  0  0  0  0
  -24.4850  -12.1530    8.2730 C   0  0  0  0  0  0
  -26.1490  -12.8390    8.4240 S   0  0  0  0  0  0
  -24.4990   -6.4520    7.5820 C   0  0  0  0  0  0
  -24.5330   -3.6520    7.0720 C   0  0  0  0  0  0
  -24.5080   -2.1850    6.6660 C   0  0  0  0  0  0
  -22.4653   -7.9409    8.4080 H   0  0  0  0  0  0
  -26.2643   -6.5110    6.3075 H   0  0  0  0  0  0
  -22.8176   -5.9976    8.9130 H   0  0  0  0  0  0
  -26.2113   -4.0918    5.7542 H   0  0  0  0  0  0
  -22.8015   -3.5517    8.3949 H   0  0  0  0  0  0
  -27.8871  -12.5108    6.7874 H   0  0  0  0  0  0
  -26.2499  -12.3411    6.0683 H   0  0  0  0  0  0
  -27.7376  -10.3466    7.8496 H   0  0  0  0  0  0
  -27.2825  -10.1452    6.1236 H   0  0  0  0  0  0
  -23.9826  -12.6314    7.4194 H   0  0  0  0  0  0
  -23.9282  -12.3722    9.1960 H   0  0  0  0  0  0
  1  2  1  0  0  0
  1  6  1  0  0  0
  1 22  1  0  0  0
  2  3  2  0  0  0
  2 19  1  0  0  0
  3  4  1  0  0  0
  4  5  2  0  0  0
  4 16  1  0  0  0
  5  6  1  0  0  0
  5 17  1  0  0  0
  6  7  2  0  0  0
  8 21  1  0  0  0
  9 21  1  0  0  0
 10 21  1  0  0  0
 11 13  2  0  0  0
 11 19  1  0  0  0
 11 23  1  0  0  0
 12 14  1  0  0  0
 12 19  2  0  0  0
 12 24  1  0  0  0
 13 20  1  0  0  0
 13 25  1  0  0  0
 14 20  2  0  0  0
 14 26  1  0  0  0
 15 16  1  0  0  0
 15 18  1  0  0  0
 15 27  1  0  0  0
 15 28  1  0  0  0
 16 29  1  0  0  0
 16 30  1  0  0  0
 17 18  1  0  0  0
 17 31  1  0  0  0
 17 32  1  0  0  0
 20 21  1  0  0  0
M  END
> <s_m_source_file>
../3uh4_ligand.sdf

> <i_m_source_file_index>
1

> <s_epik_input>
W0NIMl0xW0NIMl1TW0NIMl1jKGMxMiljKD1PKVtuSF1jKG4yKS1jM1tjSF1bY0hdYyhDKEYpKEYpRilbY0hdW2NIXTM=

> <s_epik_cmdline>
J2VwaWtfYXBwJywgJy1pbWFlJywgJ2xpZ2FuZF9wcm8ubWFlJywgJy1vbWFlJywgJ2xpZ2FuZF9wcmVwLm1hZScsICctbXMnLCAnMScsICctcGgnLCAnNycsICctcGh0JywgJzAuNScsICctbnQn

> <r_lp_tautomer_probability>
1

> <r_epik_Ionization_Penalty>
  0.0006

> <r_epik_Ionization_Penalty_Charging>
  0.0006

> <r_epik_Ionization_Penalty_Neutral>
  0.0000

> <r_epik_State_Penalty>
 -0.0000

> <r_epik_Charging_Adjusted_Penalty>
0.000603218409278351

> <i_epik_Tot_Q>
0

> <i_epik_Tot_abs_Q>
0

$$$$
