3uhm_ligand
                    3D
 Schrodinger Suite 2020-3.
 47 48  0  0  1  0            999 V2000
    2.0260  -10.1300   -1.6500 N   0  0  0  0  0  0
    1.0360  -13.4800   -5.3800 C   0  0  0  0  0  0
    0.3830  -13.1080   -4.2110 C   0  0  0  0  0  0
   -0.8810  -13.6280   -3.9510 C   0  0  0  0  0  0
    0.9660  -12.0960   -3.2940 C   0  0  0  0  0  0
    0.1360  -11.1090   -2.6590 C   0  0  0  0  0  0
    2.9070  -11.0510   -2.1960 C   0  0  0  0  0  0
    2.7500   -7.8330   -1.8140 C   0  0  0  0  0  0
    2.6030   -6.0720   -0.0040 C   0  0  0  0  0  0
    4.8490   -6.7760   -0.8760 C   0  0  0  0  0  0
   -1.4660  -14.5430   -4.8240 C   0  0  0  0  0  0
   -0.7770  -14.9140   -5.9580 C   0  0  0  0  0  0
    0.4710  -14.4030   -6.2620 C   0  0  0  0  0  0
    0.6730  -10.1710   -1.8810 C   0  0  0  0  0  0
    2.3000  -12.0760   -3.0740 C   0  0  0  0  0  0
    4.1210  -11.0280   -2.0030 O   0  0  0  0  0  0
    2.5570   -9.0170   -0.8790 C   0  0  0  0  0  0
    3.3830   -6.5600   -1.2220 C   0  0  1  0  0  0
    3.4960   -5.3330   -2.5230 S   0  0  0  0  0  0
    1.8320   -5.0940   -3.0960 C   0  0  0  0  0  0
    4.2980   -5.8800   -3.5980 O   0  0  0  0  0  0
    3.9510   -4.0670   -1.9670 O   0  0  0  0  0  0
    1.4240   -5.7620   -0.0630 O   0  0  0  0  0  0
    3.3170   -6.0650    1.1710 N   0  0  0  0  0  0
    2.5020   -5.6080    2.2600 O   0  0  0  0  0  0
    2.0072  -13.0431   -5.6125 H   0  0  0  0  0  0
   -1.4189  -13.3166   -3.0556 H   0  0  0  0  0  0
   -0.9530  -11.1241   -2.8138 H   0  0  0  0  0  0
    3.4070   -8.1262   -2.6461 H   0  0  0  0  0  0
    1.7742   -7.5166   -2.2112 H   0  0  0  0  0  0
    4.9299   -7.5228   -0.0724 H   0  0  0  0  0  0
    5.2901   -5.8261   -0.5396 H   0  0  0  0  0  0
    5.3867   -7.1352   -1.7659 H   0  0  0  0  0  0
   -2.4516  -14.9581   -4.6134 H   0  0  0  0  0  0
   -1.2311  -15.6345   -6.6382 H   0  0  0  0  0  0
    0.9987  -14.7118   -7.1644 H   0  0  0  0  0  0
    0.1417  -10.2974   -0.9261 H   0  0  0  0  0  0
    0.3536   -9.2321   -2.3568 H   0  0  0  0  0  0
    2.6101  -13.0260   -2.6143 H   0  0  0  0  0  0
    2.8273  -11.9420   -4.0300 H   0  0  0  0  0  0
    1.8485   -8.7535   -0.0799 H   0  0  0  0  0  0
    3.5207   -9.3058   -0.4341 H   0  0  0  0  0  0
    1.4533   -6.0336   -3.5246 H   0  0  0  0  0  0
    1.8186   -4.3083   -3.8657 H   0  0  0  0  0  0
    1.1936   -4.7921   -2.2526 H   0  0  0  0  0  0
    4.3642   -6.3503    1.3497 H   0  0  0  0  0  0
    2.9244   -5.5429    3.2736 H   0  0  0  0  0  0
  1  7  1  0  0  0
  1 14  1  0  0  0
  1 17  1  0  0  0
  2  3  2  0  0  0
  2 13  1  0  0  0
  2 26  1  0  0  0
  3  4  1  0  0  0
  3  5  1  0  0  0
  4 11  2  0  0  0
  4 27  1  0  0  0
  5  6  2  0  0  0
  5 15  1  0  0  0
  6 14  1  0  0  0
  6 28  1  0  0  0
  7 15  1  0  0  0
  7 16  2  0  0  0
  8 17  1  0  0  0
  8 18  1  0  0  0
  8 29  1  0  0  0
  8 30  1  0  0  0
  9 18  1  0  0  0
  9 23  2  0  0  0
  9 24  1  0  0  0
 10 18  1  0  0  0
 10 31  1  0  0  0
 10 32  1  0  0  0
 10 33  1  0  0  0
 11 12  1  0  0  0
 11 34  1  0  0  0
 12 13  2  0  0  0
 12 35  1  0  0  0
 13 36  1  0  0  0
 14 37  1  0  0  0
 14 38  1  0  0  0
 15 39  1  0  0  0
 15 40  1  0  0  0
 17 41  1  0  0  0
 17 42  1  0  0  0
 18 19  1  0  0  0
 19 20  1  0  0  0
 19 21  2  0  0  0
 19 22  2  0  0  0
 20 43  1  0  0  0
 20 44  1  0  0  0
 20 45  1  0  0  0
 24 25  1  0  0  0
 24 46  1  0  0  0
 25 47  1  0  0  0
M  END
> <s_m_source_file>
../3uhm_ligand.sdf

> <i_m_source_file_index>
1

> <s_epik_input>
W09IXVtOSF1DKD1PKVtDQF0oW0NIM10pKFMoPU8pKD1PKVtDSDNdKVtDSDJdW0NIMl1OMUMoPU8pW0NIMl1DKD1bQ0hdW0NIMl0xKWMyW2NIXVtjSF1bY0hdW2NIXVtjSF0y

> <s_epik_cmdline>
J2VwaWtfYXBwJywgJy1pbWFlJywgJ2xpZ2FuZF9wcm8ubWFlJywgJy1vbWFlJywgJ2xpZ2FuZF9wcmVwLm1hZScsICctbXMnLCAnMScsICctcGgnLCAnNycsICctcGh0JywgJzAuNScsICctbnQn

> <r_epik_Ionization_Penalty>
  0.1303

> <r_epik_Ionization_Penalty_Charging>
  0.0000

> <r_epik_Ionization_Penalty_Neutral>
  0.1303

> <r_epik_State_Penalty>
  0.1191

> <r_epik_Charging_Adjusted_Penalty>
0.119052685306782

> <i_epik_Tot_Q>
0

> <i_epik_Tot_abs_Q>
0

> <s_epik_Chemistry_Notes>
This compound has a N-S or N-O group and may undergo hydrolysis at high or low pH.

$$$$
