3ui2_ligand
                    3D
 Schrodinger Suite 2020-3.
225226  0  0  1  0            999 V2000
  -30.4900    5.1050   38.8890 N   0  3  0  0  0  0
  -31.1600    5.3970   37.6290 C   0  0  2  0  0  0
  -32.6220    5.7420   37.8660 C   0  0  0  0  0  0
  -33.5120    5.0680   37.3510 O   0  0  0  0  0  0
  -31.0710    4.2030   36.6740 C   0  0  0  0  0  0
  -31.8030    2.9390   37.1690 C   0  0  0  0  0  0
  -32.2300    1.9980   36.0260 C   0  0  0  0  0  0
  -31.8600    2.1970   34.8510 O   0  0  0  0  0  0
  -33.0100    0.9640   36.3730 N   0  0  0  0  0  0
  -32.8640    6.7980   38.6410 N   0  0  0  0  0  0
  -34.2230    7.2100   39.0080 C   0  0  2  0  0  0
  -35.0120    7.9700   37.9230 C   0  0  0  0  0  0
  -34.4700    8.8420   37.2400 O   0  0  0  0  0  0
  -34.1870    8.0450   40.2960 C   0  0  0  0  0  0
  -34.1230    7.2300   41.5910 C   0  0  0  0  0  0
  -34.3440    8.0980   42.8450 C   0  0  0  0  0  0
  -34.2500    7.2620   44.1310 C   0  0  0  0  0  0
  -34.2560    8.0900   45.3790 N   0  3  0  0  0  0
  -36.3030    7.6450   37.7990 N   0  0  0  0  0  0
  -37.2220    8.3150   36.8640 C   0  0  2  0  0  0
  -37.5050    9.7660   37.2550 C   0  0  0  0  0  0
  -37.8800   10.0260   38.4030 O   0  0  0  0  0  0
  -38.5450    7.5440   36.7550 C   0  0  0  0  0  0
  -37.3260   10.7120   36.2930 N   0  0  0  0  0  0
  -37.6400   12.1430   36.4520 C   0  0  2  0  0  0
  -38.9800   12.3870   37.1670 C   0  0  0  0  0  0
  -39.8240   11.4920   37.2230 O   0  0  0  0  0  0
  -37.7200   12.6470   35.0020 C   0  0  0  0  0  0
  -36.8830   11.7490   34.2260 C   0  0  0  0  0  0
  -36.7700   10.4290   34.9540 C   0  0  0  0  0  0
  -39.1820   13.6020   37.6910 N   0  0  0  0  0  0
  -40.3590   13.8820   38.5100 C   0  0  2  0  0  0
  -41.6330   13.9650   37.6740 C   0  0  0  0  0  0
  -41.7290   14.7830   36.7490 O   0  0  0  0  0  0
  -40.0480   15.2570   39.1270 C   0  0  0  0  0  0
  -38.6360   15.5590   38.7630 C   0  0  0  0  0  0
  -38.3730   14.8100   37.5010 C   0  0  0  0  0  0
  -42.6030   13.1170   38.0060 N   0  0  0  0  0  0
  -43.8780   13.1090   37.3220 C   0  0  0  0  0  0
  -43.8990   12.3220   36.0260 C   0  0  0  0  0  0
  -44.8150   12.5090   35.2330 O   0  0  0  0  0  0
  -42.9160   11.4460   35.8040 N   0  0  0  0  0  0
  -42.8590   10.6730   34.5590 C   0  0  2  0  0  0
  -42.6830    9.1720   34.7960 C   0  0  0  0  0  0
  -42.4670    8.7380   35.9310 O   0  0  0  0  0  0
  -41.7290   11.1620   33.6240 C   0  0  2  0  0  0
  -40.4970   10.5260   33.9830 O   0  0  0  0  0  0
  -41.5620   12.6610   33.7230 C   0  0  0  0  0  0
  -42.7740    8.3970   33.7110 N   0  0  0  0  0  0
  -42.5590    6.9450   33.7350 C   0  0  2  0  0  0
  -42.0710    6.3980   32.3800 C   0  0  0  0  0  0
  -42.4030    6.9330   31.3240 O   0  0  0  0  0  0
  -43.8270    6.2230   34.1720 C   0  0  0  0  0  0
  -41.3000    5.3140   32.4230 N   0  0  0  0  0  0
  -40.6410    4.7590   31.2360 C   0  0  2  0  0  0
  -41.6030    4.1090   30.2270 C   0  0  0  0  0  0
  -42.4300    3.2730   30.6020 O   0  0  0  0  0  0
  -39.5690    3.7420   31.6750 C   0  0  0  0  0  0
  -38.5720    3.2740   30.5970 C   0  0  0  0  0  0
  -37.3680    2.5960   31.2570 C   0  0  0  0  0  0
  -37.1730    1.1990   30.8610 N   0  0  0  0  0  0
  -38.1300    0.2730   30.7690 C   0  0  0  0  0  0
  -39.3960    0.5630   31.0290 N   0  0  0  0  0  0
  -37.8140   -0.9640   30.4110 N   0  0  0  0  0  0
  -41.4760    4.4870   28.9510 N   0  0  0  0  0  0
  -42.1620    3.7950   27.8480 C   0  0  2  0  0  0
  -41.3360    3.7110   26.5410 C   0  0  0  0  0  0
  -40.3330    4.4140   26.3740 O   0  0  0  0  0  0
  -43.5110    4.4410   27.5680 C   0  0  0  0  0  0
  -43.4090    5.7860   26.9140 C   0  0  0  0  0  0
  -44.7730    6.2680   26.5240 C   0  0  0  0  0  0
  -44.6870    7.3040   25.5110 N   0  0  0  0  0  0
  -45.4160    8.4150   25.5170 C   0  0  0  0  0  0
  -46.2920    8.6450   26.4880 N   0  0  0  0  0  0
  -45.2660    9.3030   24.5440 N   0  0  0  0  0  0
  -41.7630    2.8480   25.6210 N   0  0  0  0  0  0
  -41.0730    2.7160   24.3480 C   0  0  2  0  0  0
  -41.3440    3.9260   23.4700 C   0  0  0  0  0  0
  -42.3640    4.5920   23.6040 O   0  0  0  0  0  0
  -41.4720    1.4290   23.6200 C   0  0  0  0  0  0
  -40.9260    0.1480   24.2500 C   0  0  0  0  0  0
  -40.9840   -1.0130   23.2530 C   0  0  0  0  0  0
  -40.4120   -0.5980   21.8800 C   0  0  0  0  0  0
  -40.0350   -1.7500   20.9770 N   0  3  0  0  0  0
  -40.4190    4.2040   22.5650 N   0  0  0  0  0  0
  -40.5040    5.3970   21.7380 C   0  0  2  0  0  0
  -41.2840    5.1240   20.4640 C   0  0  0  0  0  0
  -41.1090    4.0850   19.8110 O   0  0  0  0  0  0
  -39.1090    5.9310   21.4240 C   0  0  0  0  0  0
  -38.8530    7.3130   21.9890 C   0  0  0  0  0  0
  -37.3830    7.5230   22.3210 C   0  0  0  0  0  0
  -37.1110    8.9080   22.6990 N   0  0  0  0  0  0
  -36.2220    9.2840   23.6140 C   0  0  0  0  0  0
  -35.5080    8.3700   24.2600 N   0  0  0  0  0  0
  -36.0550   10.5760   23.8840 N   0  0  0  0  0  0
  -42.1410    6.0770   20.1150 N   0  0  0  0  0  0
  -43.1530    5.8570   19.0910 C   0  0  2  0  0  0
  -43.1990    6.9970   18.0740 C   0  0  0  0  0  0
  -42.3910    7.0370   17.1400 O   0  0  0  0  0  0
  -44.5230    5.6640   19.7570 C   0  0  0  0  0  0
  -44.4450    5.3220   21.2600 C   0  0  0  0  0  0
  -45.4920    4.2970   21.6760 C   0  0  0  0  0  0
  -45.3150    3.9130   23.1340 C   0  0  0  0  0  0
  -46.1780    2.7680   23.5190 N   0  3  0  0  0  0
  -44.0450    7.8920   18.1740 O   0  0  0  0  0  0
  -30.5678    5.9761   39.5561 H   0  0  0  0  0  0
  -29.4297    4.8832   38.6977 H   0  0  0  0  0  0
  -30.9665    4.2351   39.3647 H   0  0  0  0  0  0
  -30.6251    6.2652   37.2166 H   0  0  0  0  0  0
  -31.5162    4.4743   35.7054 H   0  0  0  0  0  0
  -30.0160    3.9278   36.5284 H   0  0  0  0  0  0
  -31.1406    2.3699   37.8378 H   0  0  0  0  0  0
  -32.7118    3.2318   37.7152 H   0  0  0  0  0  0
  -33.3106    0.8297   37.4226 H   0  0  0  0  0  0
  -33.3493    0.2500   35.6081 H   0  0  0  0  0  0
  -31.9982    7.3683   39.0086 H   0  0  0  0  0  0
  -34.7207    6.2383   39.1427 H   0  0  0  0  0  0
  -33.2993    8.6945   40.2872 H   0  0  0  0  0  0
  -35.0940    8.6644   40.3569 H   0  0  0  0  0  0
  -34.9021    6.4537   41.5745 H   0  0  0  0  0  0
  -33.1344    6.7555   41.6771 H   0  0  0  0  0  0
  -33.5778    8.8863   42.8850 H   0  0  0  0  0  0
  -35.3419    8.5586   42.8009 H   0  0  0  0  0  0
  -35.1077    6.5754   44.1855 H   0  0  0  0  0  0
  -33.3156    6.6816   44.1236 H   0  0  0  0  0  0
  -34.1866    7.4307   46.2568 H   0  0  0  0  0  0
  -35.1890    8.6706   45.4293 H   0  0  0  0  0  0
  -33.3969    8.7768   45.3674 H   0  0  0  0  0  0
  -36.6693    6.8310   38.4418 H   0  0  0  0  0  0
  -36.6813    8.3071   35.9061 H   0  0  0  0  0  0
  -38.3392    6.5007   36.4737 H   0  0  0  0  0  0
  -39.1800    8.0121   35.9884 H   0  0  0  0  0  0
  -39.0637    7.5669   37.7248 H   0  0  0  0  0  0
  -36.8689   12.6192   37.0753 H   0  0  0  0  0  0
  -38.7649   12.6150   34.6598 H   0  0  0  0  0  0
  -37.3495   13.6815   34.9524 H   0  0  0  0  0  0
  -37.3358   11.5892   33.2364 H   0  0  0  0  0  0
  -35.8836   12.1923   34.1046 H   0  0  0  0  0  0
  -35.7257   10.0980   35.0531 H   0  0  0  0  0  0
  -37.3614    9.6370   34.4713 H   0  0  0  0  0  0
  -40.5076   13.0642   39.2306 H   0  0  0  0  0  0
  -40.7353   16.0090   38.7121 H   0  0  0  0  0  0
  -40.1754   15.2064   40.2184 H   0  0  0  0  0  0
  -38.5191   16.6428   38.6156 H   0  0  0  0  0  0
  -37.9694   15.2249   39.5717 H   0  0  0  0  0  0
  -37.3167   14.5284   37.3785 H   0  0  0  0  0  0
  -38.7166   15.3439   36.6028 H   0  0  0  0  0  0
  -42.4142   12.4084   38.8259 H   0  0  0  0  0  0
  -44.6421   12.6635   37.9760 H   0  0  0  0  0  0
  -44.1661   14.1406   37.0713 H   0  0  0  0  0  0
  -42.1412   11.3086   36.5726 H   0  0  0  0  0  0
  -43.8515   10.8629   34.1243 H   0  0  0  0  0  0
  -41.9307   10.8816   32.5796 H   0  0  0  0  0  0
  -40.4208    9.4287   33.9716 H   0  0  0  0  0  0
  -42.5061   13.1540   33.4481 H   0  0  0  0  0  0
  -40.7651   12.9871   33.0385 H   0  0  0  0  0  0
  -41.2933   12.9326   34.7545 H   0  0  0  0  0  0
  -43.0242    8.9004   32.7655 H   0  0  0  0  0  0
  -41.7672    6.7994   34.4846 H   0  0  0  0  0  0
  -44.1624    6.6243   35.1397 H   0  0  0  0  0  0
  -43.6202    5.1473   34.2729 H   0  0  0  0  0  0
  -44.6141    6.3760   33.4189 H   0  0  0  0  0  0
  -41.1666    4.8313   33.4024 H   0  0  0  0  0  0
  -40.2050    5.6421   30.7460 H   0  0  0  0  0  0
  -38.9562    4.1786   32.4774 H   0  0  0  0  0  0
  -40.0590    2.8287   32.0435 H   0  0  0  0  0  0
  -39.0677    2.5577   29.9253 H   0  0  0  0  0  0
  -38.2256    4.1417   30.0164 H   0  0  0  0  0  0
  -36.4493    3.1384   30.9889 H   0  0  0  0  0  0
  -37.4945    2.6068   32.3496 H   0  0  0  0  0  0
  -36.1665    0.8345   30.6077 H   0  0  0  0  0  0
  -39.6763    1.5840   31.3274 H   0  0  0  0  0  0
  -36.7677   -1.2227   30.1913 H   0  0  0  0  0  0
  -38.5982   -1.7315   30.3337 H   0  0  0  0  0  0
  -40.8288    5.3511   28.7402 H   0  0  0  0  0  0
  -42.2944    2.7762   28.2412 H   0  0  0  0  0  0
  -44.0954    3.7937   26.8976 H   0  0  0  0  0  0
  -44.0560    4.5766   28.5138 H   0  0  0  0  0  0
  -42.9583    6.5022   27.6168 H   0  0  0  0  0  0
  -42.7802    5.7097   26.0146 H   0  0  0  0  0  0
  -45.3575    5.4277   26.1212 H   0  0  0  0  0  0
  -45.2831    6.6793   27.4075 H   0  0  0  0  0  0
  -43.9848    7.1952   24.6713 H   0  0  0  0  0  0
  -46.4206    7.9117   27.2978 H   0  0  0  0  0  0
  -46.8891    9.5688   26.4826 H   0  0  0  0  0  0
  -44.5418    9.1177   23.7371 H   0  0  0  0  0  0
  -42.6486    2.2310   25.8332 H   0  0  0  0  0  0
  -40.0054    2.6728   24.6094 H   0  0  0  0  0  0
  -42.5682    1.3381   23.6102 H   0  0  0  0  0  0
  -41.0975    1.4613   22.5862 H   0  0  0  0  0  0
  -39.8801    0.3050   24.5523 H   0  0  0  0  0  0
  -41.5279   -0.1116   25.1333 H   0  0  0  0  0  0
  -40.3937   -1.8573   23.6387 H   0  0  0  0  0  0
  -42.0292   -1.3280   23.1173 H   0  0  0  0  0  0
  -41.1591   -0.0005   21.3370 H   0  0  0  0  0  0
  -39.5010    0.0005   22.0280 H   0  0  0  0  0  0
  -39.6398   -1.3580   20.0282 H   0  0  0  0  0  0
  -40.9245   -2.3656   20.7773 H   0  0  0  0  0  0
  -39.2664   -2.3647   21.4683 H   0  0  0  0  0  0
  -39.5733    3.5108   22.4452 H   0  0  0  0  0  0
  -41.0571    6.1335   22.3394 H   0  0  0  0  0  0
  -38.3531    5.2547   21.8498 H   0  0  0  0  0  0
  -38.9757    5.9899   20.3337 H   0  0  0  0  0  0
  -39.1527    8.0720   21.2514 H   0  0  0  0  0  0
  -39.4382    7.4465   22.9108 H   0  0  0  0  0  0
  -37.1001    6.8713   23.1608 H   0  0  0  0  0  0
  -36.7696    7.2755   21.4421 H   0  0  0  0  0  0
  -37.6607    9.7284   22.2145 H   0  0  0  0  0  0
  -35.6481    7.3025   24.0348 H   0  0  0  0  0  0
  -36.6479   11.3312   23.3472 H   0  0  0  0  0  0
  -35.3240   10.8890   24.6440 H   0  0  0  0  0  0
  -42.0728    7.0516   20.6205 H   0  0  0  0  0  0
  -42.8370    4.9443   18.5646 H   0  0  0  0  0  0
  -42.4315    7.8612   16.4127 H   0  0  0  0  0  0
  -45.1097    6.5898   19.6638 H   0  0  0  0  0  0
  -45.0580    4.8396   19.2629 H   0  0  0  0  0  0
  -43.4526    4.9073   21.4906 H   0  0  0  0  0  0
  -44.6079    6.2343   21.8526 H   0  0  0  0  0  0
  -46.4969    4.7232   21.5395 H   0  0  0  0  0  0
  -45.3889    3.3948   21.0551 H   0  0  0  0  0  0
  -44.2678    3.6281   23.3136 H   0  0  0  0  0  0
  -45.5768    4.7692   23.7731 H   0  0  0  0  0  0
  -46.0157    2.5270   24.5799 H   0  0  0  0  0  0
  -45.9243    1.8938   22.9014 H   0  0  0  0  0  0
  -47.2334    3.0349   23.3609 H   0  0  0  0  0  0
  1  2  1  0  0  0
  1106  1  0  0  0
  1107  1  0  0  0
  1108  1  0  0  0
  2  3  1  0  0  0
  2  5  1  0  0  0
  2109  1  0  0  0
  3  4  2  0  0  0
  3 10  1  0  0  0
  5  6  1  0  0  0
  5110  1  0  0  0
  5111  1  0  0  0
  6  7  1  0  0  0
  6112  1  0  0  0
  6113  1  0  0  0
  7  8  2  0  0  0
  7  9  1  0  0  0
  9114  1  0  0  0
  9115  1  0  0  0
 10 11  1  0  0  0
 10116  1  0  0  0
 11 12  1  0  0  0
 11 14  1  0  0  0
 11117  1  0  0  0
 12 13  2  0  0  0
 12 19  1  0  0  0
 14 15  1  0  0  0
 14118  1  0  0  0
 14119  1  0  0  0
 15 16  1  0  0  0
 15120  1  0  0  0
 15121  1  0  0  0
 16 17  1  0  0  0
 16122  1  0  0  0
 16123  1  0  0  0
 17 18  1  0  0  0
 17124  1  0  0  0
 17125  1  0  0  0
 18126  1  0  0  0
 18127  1  0  0  0
 18128  1  0  0  0
 19 20  1  0  0  0
 19129  1  0  0  0
 20 21  1  0  0  0
 20 23  1  0  0  0
 20130  1  0  0  0
 21 22  2  0  0  0
 21 24  1  0  0  0
 23131  1  0  0  0
 23132  1  0  0  0
 23133  1  0  0  0
 24 25  1  0  0  0
 24 30  1  0  0  0
 25 26  1  0  0  0
 25 28  1  0  0  0
 25134  1  0  0  0
 26 27  2  0  0  0
 26 31  1  0  0  0
 28 29  1  0  0  0
 28135  1  0  0  0
 28136  1  0  0  0
 29 30  1  0  0  0
 29137  1  0  0  0
 29138  1  0  0  0
 30139  1  0  0  0
 30140  1  0  0  0
 31 32  1  0  0  0
 31 37  1  0  0  0
 32 33  1  0  0  0
 32 35  1  0  0  0
 32141  1  0  0  0
 33 34  2  0  0  0
 33 38  1  0  0  0
 35 36  1  0  0  0
 35142  1  0  0  0
 35143  1  0  0  0
 36 37  1  0  0  0
 36144  1  0  0  0
 36145  1  0  0  0
 37146  1  0  0  0
 37147  1  0  0  0
 38 39  1  0  0  0
 38148  1  0  0  0
 39 40  1  0  0  0
 39149  1  0  0  0
 39150  1  0  0  0
 40 41  2  0  0  0
 40 42  1  0  0  0
 42 43  1  0  0  0
 42151  1  0  0  0
 43 44  1  0  0  0
 43 46  1  0  0  0
 43152  1  0  0  0
 44 45  2  0  0  0
 44 49  1  0  0  0
 46 47  1  0  0  0
 46 48  1  0  0  0
 46153  1  0  0  0
 47154  1  0  0  0
 48155  1  0  0  0
 48156  1  0  0  0
 48157  1  0  0  0
 49 50  1  0  0  0
 49158  1  0  0  0
 50 51  1  0  0  0
 50 53  1  0  0  0
 50159  1  0  0  0
 51 52  2  0  0  0
 51 54  1  0  0  0
 53160  1  0  0  0
 53161  1  0  0  0
 53162  1  0  0  0
 54 55  1  0  0  0
 54163  1  0  0  0
 55 56  1  0  0  0
 55 58  1  0  0  0
 55164  1  0  0  0
 56 57  2  0  0  0
 56 65  1  0  0  0
 58 59  1  0  0  0
 58165  1  0  0  0
 58166  1  0  0  0
 59 60  1  0  0  0
 59167  1  0  0  0
 59168  1  0  0  0
 60 61  1  0  0  0
 60169  1  0  0  0
 60170  1  0  0  0
 61 62  1  0  0  0
 61171  1  0  0  0
 62 63  2  0  0  0
 62 64  1  0  0  0
 63172  1  0  0  0
 64173  1  0  0  0
 64174  1  0  0  0
 65 66  1  0  0  0
 65175  1  0  0  0
 66 67  1  0  0  0
 66 69  1  0  0  0
 66176  1  0  0  0
 67 68  2  0  0  0
 67 76  1  0  0  0
 69 70  1  0  0  0
 69177  1  0  0  0
 69178  1  0  0  0
 70 71  1  0  0  0
 70179  1  0  0  0
 70180  1  0  0  0
 71 72  1  0  0  0
 71181  1  0  0  0
 71182  1  0  0  0
 72 73  1  0  0  0
 72183  1  0  0  0
 73 74  1  0  0  0
 73 75  2  0  0  0
 74184  1  0  0  0
 74185  1  0  0  0
 75186  1  0  0  0
 76 77  1  0  0  0
 76187  1  0  0  0
 77 78  1  0  0  0
 77 80  1  0  0  0
 77188  1  0  0  0
 78 79  2  0  0  0
 78 85  1  0  0  0
 80 81  1  0  0  0
 80189  1  0  0  0
 80190  1  0  0  0
 81 82  1  0  0  0
 81191  1  0  0  0
 81192  1  0  0  0
 82 83  1  0  0  0
 82193  1  0  0  0
 82194  1  0  0  0
 83 84  1  0  0  0
 83195  1  0  0  0
 83196  1  0  0  0
 84197  1  0  0  0
 84198  1  0  0  0
 84199  1  0  0  0
 85 86  1  0  0  0
 85200  1  0  0  0
 86 87  1  0  0  0
 86 89  1  0  0  0
 86201  1  0  0  0
 87 88  2  0  0  0
 87 96  1  0  0  0
 89 90  1  0  0  0
 89202  1  0  0  0
 89203  1  0  0  0
 90 91  1  0  0  0
 90204  1  0  0  0
 90205  1  0  0  0
 91 92  1  0  0  0
 91206  1  0  0  0
 91207  1  0  0  0
 92 93  1  0  0  0
 92208  1  0  0  0
 93 94  2  0  0  0
 93 95  1  0  0  0
 94209  1  0  0  0
 95210  1  0  0  0
 95211  1  0  0  0
 96 97  1  0  0  0
 96212  1  0  0  0
 97 98  1  0  0  0
 97100  1  0  0  0
 97213  1  0  0  0
 98 99  1  0  0  0
 98105  2  0  0  0
 99214  1  0  0  0
100101  1  0  0  0
100215  1  0  0  0
100216  1  0  0  0
101102  1  0  0  0
101217  1  0  0  0
101218  1  0  0  0
102103  1  0  0  0
102219  1  0  0  0
102220  1  0  0  0
103104  1  0  0  0
103221  1  0  0  0
103222  1  0  0  0
104223  1  0  0  0
104224  1  0  0  0
104225  1  0  0  0
M  CHG  4   1   1  18   1  84   1 104   1
M  END
> <s_m_source_file>
../3ui2_ligand.sdf

> <i_m_source_file_index>
1

> <s_epik_input>
Tz1DKFtOSDJdKVtDSDJdW0NIMl1bQ0BIXShbTkgzK10pQyg9TylbTkhdW0NAQEhdKFtDSDJdW0NIMl1bQ0gyXVtDSDJdW05IMytdKUMoPU8pW05IXVtDQEBIXShbQ0gzXSlDKD1PKU4xW0NAQEhdKFtDSDJdW0NIMl1bQ0gyXTEpQyg9TylOMltDQEBIXShbQ0gyXVtDSDJdW0NIMl0yKUMoPU8pW05IXVtDSDJdQyg9TylbTkhdW0NAQEhdKFtDQEhdKFtPSF0pW0NIM10pQyg9TylbTkhdW0NAQEhdKFtDSDNdKUMoPU8pW05IXVtDQEBIXShbQ0gyXVtDSDJdW0NIMl1bTkhdL0MoPU5cW0hdKVtOSDJdKUMoPU8pW05IXVtDQEBIXShbQ0gyXVtDSDJdW0NIMl1bTkhdL0MoW05IMl0pPU5cW0hdKUMoPU8pW05IXVtDQEBIXShbQ0gyXVtDSDJdW0NIMl1bQ0gyXVtOSDMrXSlDKD1PKVtOSF1bQ0BASF0oW0NIMl1bQ0gyXVtDSDJdW05IXS9DKD1OXFtIXSlbTkgyXSlDKD1PKVtOSF1bQ0BIXShDKD1PKVtPSF0pW0NIMl1bQ0gyXVtDSDJdW0NIMl1bTkgzK10=

> <s_epik_cmdline>
J2VwaWtfYXBwJywgJy1pbWFlJywgJ2xpZ2FuZF9wcm8ubWFlJywgJy1vbWFlJywgJ2xpZ2FuZF9wcmVwLm1hZScsICctbXMnLCAnMScsICctcGgnLCAnNycsICctcGh0JywgJzAuNScsICctbnQn

> <s_epik_pKa_notes>
Molecule size exceeds maximum supported for generating protonation states

> <s_epik_Chemistry_Notes>
This compound has an imine and may undergo hydrolysis.

$$$$
