3uib_ligand
                    3D
 Schrodinger Suite 2020-3.
 45 48  0  0  1  0            999 V2000
    1.3670   34.6210   43.5590 O   0  0  0  0  0  0
   -0.6580   32.6530   42.6730 C   0  0  0  0  0  0
    0.4750   33.9690   42.1390 S   0  0  2  0  0  0
    3.1340   31.0370   41.3110 C   0  0  0  0  0  0
    2.1080   31.7740   41.9020 C   0  0  0  0  0  0
    1.7720   33.0310   41.3960 C   0  0  0  0  0  0
    2.4680   33.5480   40.2970 C   0  0  0  0  0  0
    3.4960   32.8100   39.7050 C   0  0  0  0  0  0
    3.8340   31.5520   40.2160 C   0  0  0  0  0  0
    8.8020   30.9710   34.7200 N   0  3  0  0  0  0
    8.3880   29.7240   35.0050 C   0  0  0  0  0  0
    7.6170   29.4700   36.1420 C   0  0  0  0  0  0
    7.2760   30.5230   36.9910 C   0  0  0  0  0  0
    7.7180   31.8100   36.6740 C   0  0  0  0  0  0
    8.4870   32.0070   35.5210 C   0  0  0  0  0  0
    5.5350   31.1900   38.5230 N   0  3  0  0  0  0
    4.9200   30.7160   39.6250 C   0  0  0  0  0  0
    5.3860   29.5130   40.0310 N   0  0  0  0  0  0
    6.3680   29.1490   39.1880 C   0  0  0  0  0  0
    6.4470   30.2600   38.2060 C   0  0  0  0  0  0
    8.5170   27.8320   39.0090 C   0  0  0  0  0  0
    9.1870   26.6050   39.0850 C   0  0  0  0  0  0
    8.4830   25.4370   39.4090 C   0  0  0  0  0  0
    7.1140   25.4900   39.6680 C   0  0  0  0  0  0
    6.4470   26.7110   39.5900 C   0  0  0  0  0  0
    7.1420   27.8780   39.2600 C   0  0  0  0  0  0
    9.1160   24.2560   39.4810 F   0  0  0  0  0  0
    0.8535   35.2772   44.2772 H   0  0  0  0  0  0
   -1.5341   33.1007   43.1649 H   0  0  0  0  0  0
   -0.1404   31.9881   43.3801 H   0  0  0  0  0  0
   -0.9854   32.0734   41.7973 H   0  0  0  0  0  0
    3.3915   30.0539   41.7051 H   0  0  0  0  0  0
    1.5689   31.3689   42.7583 H   0  0  0  0  0  0
    2.2070   34.5297   39.9018 H   0  0  0  0  0  0
    4.0336   33.2133   38.8469 H   0  0  0  0  0  0
    8.6569   28.9020   34.3415 H   0  0  0  0  0  0
    7.2842   28.4561   36.3642 H   0  0  0  0  0  0
    7.4665   32.6525   37.3183 H   0  0  0  0  0  0
    8.8344   33.0089   35.2689 H   0  0  0  0  0  0
    9.0614   28.7420   38.7568 H   0  0  0  0  0  0
   10.2587   26.5579   38.8917 H   0  0  0  0  0  0
    6.5694   24.5828   39.9296 H   0  0  0  0  0  0
    5.3760   26.7564   39.7877 H   0  0  0  0  0  0
    9.4077   31.1574   33.8209 H   0  0  0  0  0  0
    5.2317   32.1578   38.0972 H   0  0  0  0  0  0
  1  3  1  0  0  0
  1 28  1  0  0  0
  2  3  1  0  0  0
  2 29  1  0  0  0
  2 30  1  0  0  0
  2 31  1  0  0  0
  3  6  1  0  0  0
  4  5  2  0  0  0
  4  9  1  0  0  0
  4 32  1  0  0  0
  5  6  1  0  0  0
  5 33  1  0  0  0
  6  7  2  0  0  0
  7  8  1  0  0  0
  7 34  1  0  0  0
  8  9  2  0  0  0
  8 35  1  0  0  0
  9 17  1  0  0  0
 10 11  2  0  0  0
 10 15  1  0  0  0
 10 44  1  0  0  0
 11 12  1  0  0  0
 11 36  1  0  0  0
 12 13  2  0  0  0
 12 37  1  0  0  0
 13 14  1  0  0  0
 13 20  1  0  0  0
 14 15  2  0  0  0
 14 38  1  0  0  0
 15 39  1  0  0  0
 16 17  2  0  0  0
 16 20  1  0  0  0
 16 45  1  0  0  0
 17 18  1  0  0  0
 18 19  1  0  0  0
 19 20  2  0  0  0
 19 26  1  0  0  0
 21 22  2  0  0  0
 21 26  1  0  0  0
 21 40  1  0  0  0
 22 23  1  0  0  0
 22 41  1  0  0  0
 23 24  2  0  0  0
 23 27  1  0  0  0
 24 25  1  0  0  0
 24 42  1  0  0  0
 25 26  2  0  0  0
 25 43  1  0  0  0
M  CHG  2  10   1  16   1
M  END
> <s_m_source_file>
../3uib_ligand.sdf

> <i_m_source_file_index>
1

> <s_epik_input>
W09IXVtTQEhdKFtDSDNdKWMxW2NIXVtjSF1jKFtjSF1bY0hdMSktYzJuYyhjKFtuSF0yKS1jKFtjSF1bY0hdMylbY0hdW2NIXWMzRiktYzRbY0hdW2NIXW5bY0hdW2NIXTQ=

> <s_epik_cmdline>
J2VwaWtfYXBwJywgJy1pbWFlJywgJ2xpZ2FuZF9wcm8ubWFlJywgJy1vbWFlJywgJ2xpZ2FuZF9wcmVwLm1hZScsICctbXMnLCAnMScsICctcGgnLCAnNycsICctcGh0JywgJzAuNScsICctbnQn

> <r_epik_Ionization_Penalty>
  2.5523

> <r_epik_Ionization_Penalty_Charging>
  2.5497

> <r_epik_Ionization_Penalty_Neutral>
  0.0026

> <r_epik_State_Penalty>
  0.4075

> <r_epik_Charging_Adjusted_Penalty>
2.95716560605042

> <i_epik_Tot_Q>
2

> <i_epik_Tot_abs_Q>
2

$$$$
