3uig_ligand
                    3D
 Schrodinger Suite 2020-3.
 93 92  0  0  1  0            999 V2000
   35.3190  -14.4840    1.4450 N   0  3  0  0  0  0
   34.3910  -13.5750    0.7770 C   0  0  2  0  0  0
   35.1470  -12.5500   -0.0650 C   0  0  0  0  0  0
   36.3380  -12.3090    0.1520 O   0  0  0  0  0  0
   33.5120  -12.8810    1.7960 C   0  0  0  0  0  0
   34.4520  -11.9340   -1.0150 N   0  0  0  0  0  0
   35.1140  -11.0570   -1.9690 C   0  0  2  0  0  0
   34.2320   -9.8670   -2.3260 C   0  0  0  0  0  0
   32.9980   -9.9710   -2.3150 O   0  0  0  0  0  0
   35.4560  -11.8370   -3.2510 C   0  0  0  0  0  0
   34.2470  -12.0000   -4.1790 C   0  0  0  0  0  0
   34.3960  -13.0960   -5.2260 C   0  0  0  0  0  0
   33.1280  -13.3150   -5.9270 N   0  0  0  0  0  0
   32.2950  -14.3260   -5.6810 C   0  0  0  0  0  0
   31.1600  -14.4440   -6.3620 N   0  0  0  0  0  0
   32.6020  -15.2260   -4.7570 N   0  3  0  0  0  0
   34.8720   -8.7460   -2.6600 N   0  0  0  0  0  0
   34.1770   -7.5350   -3.1090 C   0  0  1  0  0  0
   35.1870   -6.5270   -3.6690 C   0  0  1  0  0  0
   34.4820   -5.2350   -4.0840 C   0  0  0  0  0  0
   36.1050   -6.2640   -2.6060 O   0  0  0  0  0  0
   37.4110   -5.5100   -3.1470 P   0  0  0  0  0  0
   37.9430   -6.2720   -4.2970 O   0  0  0  0  0  0
   37.0070   -4.0240   -3.6130 O   0  5  0  0  0  0
   38.4920   -5.4140   -1.9500 O   0  5  0  0  0  0
   33.1110   -7.8730   -4.1370 C   0  0  0  0  0  0
   33.2670   -8.8150   -4.9020 O   0  0  0  0  0  0
   32.0170   -7.1270   -4.1450 N   0  0  0  0  0  0
   30.8930   -7.4650   -5.0140 C   0  0  2  0  0  0
   31.2640   -7.3870   -6.4940 C   0  0  0  0  0  0
   32.2990   -6.8260   -6.8450 O   0  0  0  0  0  0
   29.6940   -6.5530   -4.7370 C   0  0  0  0  0  0
   28.4390   -6.9500   -5.5000 C   0  0  0  0  0  0
   27.4330   -5.8210   -5.6210 C   0  0  0  0  0  0
   26.1910   -6.2900   -6.3720 C   0  0  0  0  0  0
   25.3320   -5.1600   -6.8380 N   0  3  0  0  0  0
   30.4130   -7.9730   -7.3390 N   0  0  0  0  0  0
   30.4940   -7.8690   -8.7950 C   0  0  2  0  0  0
   31.3780   -6.7200   -9.2710 C   0  0  0  0  0  0
   32.4570   -6.9380   -9.8260 O   0  5  0  0  0  0
   29.0840   -7.7160   -9.3760 C   0  0  0  0  0  0
   29.0370   -7.2800  -10.8400 C   0  0  0  0  0  0
   29.0650   -5.7630  -11.0250 C   0  0  0  0  0  0
   28.0900   -5.0670  -10.7260 O   0  0  0  0  0  0
   30.1840   -5.2490  -11.5310 N   0  0  0  0  0  0
   31.0340   -5.5470   -9.1120 O   0  0  0  0  0  0
   35.9505  -14.9806    0.6936 H   0  0  0  0  0  0
   34.7510  -15.2414    2.0051 H   0  0  0  0  0  0
   35.9543  -13.9144    2.1393 H   0  0  0  0  0  0
   33.7677  -14.2022    0.1227 H   0  0  0  0  0  0
   32.9764  -13.6346    2.3920 H   0  0  0  0  0  0
   32.7848  -12.2396    1.2766 H   0  0  0  0  0  0
   34.1363  -12.2647    2.4596 H   0  0  0  0  0  0
   33.3652  -12.0925   -1.0760 H   0  0  0  0  0  0
   36.0195  -10.7052   -1.4530 H   0  0  0  0  0  0
   36.2402  -11.3025   -3.8072 H   0  0  0  0  0  0
   35.8158  -12.8416   -2.9840 H   0  0  0  0  0  0
   33.3571  -12.2478   -3.5817 H   0  0  0  0  0  0
   34.0731  -11.0600   -4.7233 H   0  0  0  0  0  0
   35.1620  -12.8016   -5.9585 H   0  0  0  0  0  0
   34.6986  -14.0330   -4.7355 H   0  0  0  0  0  0
   32.8084  -12.6185   -6.7161 H   0  0  0  0  0  0
   30.8995  -13.7007   -7.1299 H   0  0  0  0  0  0
   30.4810  -15.2850   -6.1578 H   0  0  0  0  0  0
   33.5400  -15.1340   -4.1898 H   0  0  0  0  0  0
   35.9695   -8.7552   -2.5871 H   0  0  0  0  0  0
   33.6798   -7.1140   -2.2227 H   0  0  0  0  0  0
   35.7537   -6.9159   -4.5279 H   0  0  0  0  0  0
   33.7781   -5.4479   -4.9021 H   0  0  0  0  0  0
   35.2290   -4.5027   -4.4242 H   0  0  0  0  0  0
   33.9318   -4.8251   -3.2242 H   0  0  0  0  0  0
   31.9596   -6.2458   -3.4891 H   0  0  0  0  0  0
   30.6606   -8.5077   -4.7518 H   0  0  0  0  0  0
   29.4503   -6.5833   -3.6648 H   0  0  0  0  0  0
   29.9429   -5.5217   -5.0274 H   0  0  0  0  0  0
   28.7126   -7.2626   -6.5185 H   0  0  0  0  0  0
   27.9429   -7.7837   -4.9815 H   0  0  0  0  0  0
   27.1371   -5.4843   -4.6165 H   0  0  0  0  0  0
   27.8869   -4.9826   -6.1698 H   0  0  0  0  0  0
   26.4944   -6.8675   -7.2577 H   0  0  0  0  0  0
   25.5811   -6.9243   -5.7120 H   0  0  0  0  0  0
   24.4564   -5.5603   -7.3700 H   0  0  0  0  0  0
   25.9102   -4.5155   -7.5164 H   0  0  0  0  0  0
   24.9970   -4.5723   -5.9706 H   0  0  0  0  0  0
   29.6110   -8.5648   -6.8736 H   0  0  0  0  0  0
   30.9706   -8.8096   -9.1083 H   0  0  0  0  0  0
   28.5559   -8.6791   -9.3153 H   0  0  0  0  0  0
   28.5311   -6.9579   -8.8019 H   0  0  0  0  0  0
   29.9057   -7.6931  -11.3736 H   0  0  0  0  0  0
   28.1112   -7.6514  -11.3037 H   0  0  0  0  0  0
   31.0276   -5.9086  -11.7826 H   0  0  0  0  0  0
   30.2650   -4.1647  -11.6975 H   0  0  0  0  0  0
   31.9187  -16.0647   -4.5576 H   0  0  0  0  0  0
  1  2  1  0  0  0
  1 47  1  0  0  0
  1 48  1  0  0  0
  1 49  1  0  0  0
  2  3  1  0  0  0
  2  5  1  0  0  0
  2 50  1  0  0  0
  3  4  2  0  0  0
  3  6  1  0  0  0
  5 51  1  0  0  0
  5 52  1  0  0  0
  5 53  1  0  0  0
  6  7  1  0  0  0
  6 54  1  0  0  0
  7  8  1  0  0  0
  7 10  1  0  0  0
  7 55  1  0  0  0
  8  9  2  0  0  0
  8 17  1  0  0  0
 10 11  1  0  0  0
 10 56  1  0  0  0
 10 57  1  0  0  0
 11 12  1  0  0  0
 11 58  1  0  0  0
 11 59  1  0  0  0
 12 13  1  0  0  0
 12 60  1  0  0  0
 12 61  1  0  0  0
 13 14  1  0  0  0
 13 62  1  0  0  0
 14 15  1  0  0  0
 14 16  2  0  0  0
 15 63  1  0  0  0
 15 64  1  0  0  0
 16 65  1  0  0  0
 16 93  1  0  0  0
 17 18  1  0  0  0
 17 66  1  0  0  0
 18 19  1  0  0  0
 18 26  1  0  0  0
 18 67  1  0  0  0
 19 20  1  0  0  0
 19 21  1  0  0  0
 19 68  1  0  0  0
 20 69  1  0  0  0
 20 70  1  0  0  0
 20 71  1  0  0  0
 21 22  1  0  0  0
 22 23  2  0  0  0
 22 24  1  0  0  0
 22 25  1  0  0  0
 26 27  2  0  0  0
 26 28  1  0  0  0
 28 29  1  0  0  0
 28 72  1  0  0  0
 29 30  1  0  0  0
 29 32  1  0  0  0
 29 73  1  0  0  0
 30 31  2  0  0  0
 30 37  1  0  0  0
 32 33  1  0  0  0
 32 74  1  0  0  0
 32 75  1  0  0  0
 33 34  1  0  0  0
 33 76  1  0  0  0
 33 77  1  0  0  0
 34 35  1  0  0  0
 34 78  1  0  0  0
 34 79  1  0  0  0
 35 36  1  0  0  0
 35 80  1  0  0  0
 35 81  1  0  0  0
 36 82  1  0  0  0
 36 83  1  0  0  0
 36 84  1  0  0  0
 37 38  1  0  0  0
 37 85  1  0  0  0
 38 39  1  0  0  0
 38 41  1  0  0  0
 38 86  1  0  0  0
 39 40  1  0  0  0
 39 46  2  0  0  0
 41 42  1  0  0  0
 41 87  1  0  0  0
 41 88  1  0  0  0
 42 43  1  0  0  0
 42 89  1  0  0  0
 42 90  1  0  0  0
 43 44  2  0  0  0
 43 45  1  0  0  0
 45 91  1  0  0  0
 45 92  1  0  0  0
M  CHG  6   1   1  16   1  24  -1  25  -1  36   1  40  -1
M  END
> <s_m_source_file>
../3uig_ligand.sdf

> <i_m_source_file_index>
1

> <s_epik_input>
W0hdL049QyhbTkgyXSlcW05IXVtDSDJdW0NIMl1bQ0gyXVtDQEhdKFtOSF1DKD1PKVtDQEBIXShbTkgzK10pW0NIM10pQyg9TylbTkhdW0NAQEhdKFtDQEBIXShbQ0gzXSlPUCg9TykoW09IXSlbT0hdKUMoPU8pW05IXVtDQEBIXShbQ0gyXVtDSDJdW0NIMl1bQ0gyXVtOSDMrXSlDKD1PKVtOSF1bQ0BIXShDKD1PKVtPSF0pW0NIMl1bQ0gyXUMoPU8pW05IMl0=

> <s_epik_cmdline>
J2VwaWtfYXBwJywgJy1pbWFlJywgJ2xpZ2FuZF9wcm8ubWFlJywgJy1vbWFlJywgJ2xpZ2FuZF9wcmVwLm1hZScsICctbXMnLCAnMScsICctcGgnLCAnNycsICctcGh0JywgJzAuNScsICctbnQn

> <r_epik_Ionization_Penalty>
  0.2141

> <r_epik_Ionization_Penalty_Charging>
  0.2141

> <r_epik_Ionization_Penalty_Neutral>
  0.0000

> <r_epik_State_Penalty>
  0.1803

> <r_epik_Charging_Adjusted_Penalty>
0.394428793381187

> <i_epik_Tot_Q>
0

> <i_epik_Tot_abs_Q>
6

> <s_epik_Chemistry_Notes>
This compound has an imine and may undergo hydrolysis.

$$$$
