3uih_ligand
                    3D
 Schrodinger Suite 2020-3.
 62 62  0  0  1  0            999 V2000
  -35.2590  -14.1610   -1.7040 N   0  3  0  0  0  0
  -34.6140  -13.8480   -0.4430 C   0  0  2  0  0  0
  -35.3390  -12.7240    0.2490 C   0  0  0  0  0  0
  -36.4560  -12.3890   -0.1070 O   0  0  0  0  0  0
  -33.1850  -13.4810   -0.6610 C   0  0  0  0  0  0
  -34.6960  -12.1380    1.2450 N   0  0  0  0  0  0
  -35.3220  -11.0840    2.0160 C   0  0  2  0  0  0
  -34.3210  -10.0620    2.4790 C   0  0  0  0  0  0
  -33.1270  -10.2510    2.3560 O   0  0  0  0  0  0
  -36.0130  -11.6470    3.2590 C   0  0  0  0  0  0
  -37.3510  -12.2480    2.8940 C   0  0  0  0  0  0
  -35.1240  -12.6660    3.9430 C   0  0  0  0  0  0
  -34.8310   -8.9800    3.0380 N   0  0  0  0  0  0
  -34.0020   -7.8750    3.5000 C   0  0  2  0  0  0
  -33.0490   -8.2530    4.6140 C   0  0  0  0  0  0
  -33.4290   -8.9140    5.5650 O   0  0  0  0  0  0
  -35.0310   -6.8820    4.0090 C   0  0  0  0  0  0
  -36.1850   -7.0990    3.1400 C   0  0  0  0  0  0
  -36.2210   -8.5610    2.8260 C   0  0  0  0  0  0
  -31.8080   -7.8160    4.4890 N   0  0  0  0  0  0
  -30.7960   -8.0630    5.4930 C   0  0  2  0  0  0
  -31.3600   -7.8710    6.8840 C   0  0  0  0  0  0
  -30.6170   -7.5920    7.8210 O   0  5  0  0  0  0
  -29.6440   -7.0920    5.3260 C   0  0  2  0  0  0
  -28.5820   -7.3500    6.3830 C   0  0  0  0  0  0
  -30.1450   -5.6790    5.4410 C   0  0  0  0  0  0
  -27.2930   -6.6380    6.1070 C   0  0  0  0  0  0
  -32.5650   -7.9930    7.0860 O   0  0  0  0  0  0
  -36.3103  -14.4286   -1.5216 H   0  0  0  0  0  0
  -34.7424  -15.0075   -2.1799 H   0  0  0  0  0  0
  -35.2135  -13.2842   -2.3667 H   0  0  0  0  0  0
  -34.6598  -14.7619    0.1675 H   0  0  0  0  0  0
  -32.6668  -14.3091   -1.1666 H   0  0  0  0  0  0
  -32.7046  -13.2855    0.3090 H   0  0  0  0  0  0
  -33.1297  -12.5776   -1.2862 H   0  0  0  0  0  0
  -33.6722  -12.4611    1.4849 H   0  0  0  0  0  0
  -36.0318  -10.6328    1.3070 H   0  0  0  0  0  0
  -36.1999  -10.8309    3.9724 H   0  0  0  0  0  0
  -37.9726  -11.4864    2.4005 H   0  0  0  0  0  0
  -37.8562  -12.5991    3.8058 H   0  0  0  0  0  0
  -37.1978  -13.0958    2.2101 H   0  0  0  0  0  0
  -34.1600  -12.2005    4.1959 H   0  0  0  0  0  0
  -34.9542  -13.5169    3.2669 H   0  0  0  0  0  0
  -35.6126  -13.0202    4.8627 H   0  0  0  0  0  0
  -33.3603   -7.5276    2.6768 H   0  0  0  0  0  0
  -35.2581   -7.0974    5.0635 H   0  0  0  0  0  0
  -34.6303   -5.8613    3.9213 H   0  0  0  0  0  0
  -37.1016   -6.7894    3.6635 H   0  0  0  0  0  0
  -36.0691   -6.5051    2.2214 H   0  0  0  0  0  0
  -36.5097   -8.7621    1.7838 H   0  0  0  0  0  0
  -36.8807   -9.1224    3.5040 H   0  0  0  0  0  0
  -31.5558   -7.2464    3.5824 H   0  0  0  0  0  0
  -30.4827   -9.1048    5.3304 H   0  0  0  0  0  0
  -29.2033   -7.2292    4.3275 H   0  0  0  0  0  0
  -28.9485   -7.0080    7.3621 H   0  0  0  0  0  0
  -28.3644   -8.4273    6.4289 H   0  0  0  0  0  0
  -30.9126   -5.4986    4.6741 H   0  0  0  0  0  0
  -29.3083   -4.9802    5.2938 H   0  0  0  0  0  0
  -30.5805   -5.5245    6.4392 H   0  0  0  0  0  0
  -26.5705   -6.8652    6.9047 H   0  0  0  0  0  0
  -27.4731   -5.5534    6.0735 H   0  0  0  0  0  0
  -26.8890   -6.9727    5.1402 H   0  0  0  0  0  0
  1  2  1  0  0  0
  1 29  1  0  0  0
  1 30  1  0  0  0
  1 31  1  0  0  0
  2  3  1  0  0  0
  2  5  1  0  0  0
  2 32  1  0  0  0
  3  4  2  0  0  0
  3  6  1  0  0  0
  5 33  1  0  0  0
  5 34  1  0  0  0
  5 35  1  0  0  0
  6  7  1  0  0  0
  6 36  1  0  0  0
  7  8  1  0  0  0
  7 10  1  0  0  0
  7 37  1  0  0  0
  8  9  2  0  0  0
  8 13  1  0  0  0
 10 11  1  0  0  0
 10 12  1  0  0  0
 10 38  1  0  0  0
 11 39  1  0  0  0
 11 40  1  0  0  0
 11 41  1  0  0  0
 12 42  1  0  0  0
 12 43  1  0  0  0
 12 44  1  0  0  0
 13 14  1  0  0  0
 13 19  1  0  0  0
 14 15  1  0  0  0
 14 17  1  0  0  0
 14 45  1  0  0  0
 15 16  2  0  0  0
 15 20  1  0  0  0
 17 18  1  0  0  0
 17 46  1  0  0  0
 17 47  1  0  0  0
 18 19  1  0  0  0
 18 48  1  0  0  0
 18 49  1  0  0  0
 19 50  1  0  0  0
 19 51  1  0  0  0
 20 21  1  0  0  0
 20 52  1  0  0  0
 21 22  1  0  0  0
 21 24  1  0  0  0
 21 53  1  0  0  0
 22 23  1  0  0  0
 22 28  2  0  0  0
 24 25  1  0  0  0
 24 26  1  0  0  0
 24 54  1  0  0  0
 25 27  1  0  0  0
 25 55  1  0  0  0
 25 56  1  0  0  0
 26 57  1  0  0  0
 26 58  1  0  0  0
 26 59  1  0  0  0
 27 60  1  0  0  0
 27 61  1  0  0  0
 27 62  1  0  0  0
M  CHG  2   1   1  23  -1
M  END
> <s_m_source_file>
../3uih_ligand.sdf

> <i_m_source_file_index>
1

> <s_epik_input>
W05IMytdW0NAQEhdKFtDSDNdKUMoPU8pW05IXVtDQEBIXShbQ0hdKFtDSDNdKVtDSDNdKUMoPU8pTjFbQ0BASF0oW0NIMl1bQ0gyXVtDSDJdMSlDKD1PKVtOSF1bQ0BIXShDKD1PKVtPSF0pW0NAQEhdKFtDSDNdKVtDSDJdW0NIM10=

> <s_epik_cmdline>
J2VwaWtfYXBwJywgJy1pbWFlJywgJ2xpZ2FuZF9wcm8ubWFlJywgJy1vbWFlJywgJ2xpZ2FuZF9wcmVwLm1hZScsICctbXMnLCAnMScsICctcGgnLCAnNycsICctcGh0JywgJzAuNScsICctbnQn

> <r_epik_Ionization_Penalty>
  0.1187

> <r_epik_Ionization_Penalty_Charging>
  0.1187

> <r_epik_Ionization_Penalty_Neutral>
  0.0000

> <r_epik_State_Penalty>
  0.1080

> <r_epik_Charging_Adjusted_Penalty>
0.22668522275432

> <i_epik_Tot_Q>
0

> <i_epik_Tot_abs_Q>
2

$$$$
