3uii_ligand
                    3D
 Schrodinger Suite 2020-3.
 73 72  0  0  1  0            999 V2000
   35.5090  -14.0850    1.3210 N   0  3  0  0  0  0
   34.5820  -13.1260    0.6340 C   0  0  2  0  0  0
   35.2990  -12.2210   -0.3730 C   0  0  0  0  0  0
   36.5110  -12.0080   -0.2820 O   0  0  0  0  0  0
   33.8260  -12.2920    1.6520 C   0  0  0  0  0  0
   34.5380  -11.6940   -1.3300 N   0  0  0  0  0  0
   35.0800  -10.8300   -2.3800 C   0  0  2  0  0  0
   34.1640   -9.6170   -2.5950 C   0  0  0  0  0  0
   32.9710   -9.6790   -2.2880 O   0  0  0  0  0  0
   35.2890  -11.6290   -3.6920 C   0  0  0  0  0  0
   34.0360  -11.7970   -4.5780 C   0  0  0  0  0  0
   34.2570  -12.7470   -5.7610 C   0  0  0  0  0  0
   33.6230  -14.0550   -5.5630 N   0  0  0  0  0  0
   32.4170  -14.3940   -6.0260 C   0  0  0  0  0  0
   31.9270  -15.6090   -5.7950 N   0  3  0  0  0  0
   31.6930  -13.5220   -6.7230 N   0  0  0  0  0  0
   34.7160   -8.5280   -3.1330 N   0  0  0  0  0  0
   33.9330   -7.3250   -3.4460 C   0  0  2  0  0  0
   32.8540   -7.6020   -4.5080 C   0  0  0  0  0  0
   32.9460   -8.5730   -5.2650 O   0  0  0  0  0  0
   34.8370   -6.1510   -3.9190 C   0  0  2  0  0  0
   36.1550   -6.2840   -3.3670 O   0  0  0  0  0  0
   34.2470   -4.8040   -3.4930 C   0  0  0  0  0  0
   31.8320   -6.7530   -4.5480 N   0  0  0  0  0  0
   30.7670   -6.8620   -5.5340 C   0  0  2  0  0  0
   31.2760   -6.4110   -6.9040 C   0  0  0  0  0  0
   31.0560   -7.0800   -7.9160 O   0  5  0  0  0  0
   29.5760   -6.0030   -5.0950 C   0  0  0  0  0  0
   28.3140   -6.1640   -5.9230 C   0  0  0  0  0  0
   27.3360   -5.0510   -5.6170 C   0  0  0  0  0  0
   26.3830   -4.8160   -6.7840 C   0  0  0  0  0  0
   25.5240   -3.6140   -6.5500 N   0  3  0  0  0  0
   31.9190   -5.3670   -7.0310 O   0  0  0  0  0  0
   36.0465  -14.6790    0.5672 H   0  0  0  0  0  0
   34.9272  -14.7561    1.9700 H   0  0  0  0  0  0
   36.2329  -13.5230    1.9295 H   0  0  0  0  0  0
   33.8704  -13.7511    0.0746 H   0  0  0  0  0  0
   33.3180  -12.9569    2.3661 H   0  0  0  0  0  0
   33.0800  -11.6703    1.1353 H   0  0  0  0  0  0
   34.5321  -11.6444    2.1924 H   0  0  0  0  0  0
   33.4638  -11.9299   -1.3119 H   0  0  0  0  0  0
   36.0539  -10.4791   -2.0081 H   0  0  0  0  0  0
   36.0416  -11.1223   -4.3139 H   0  0  0  0  0  0
   35.6358  -12.6448   -3.4514 H   0  0  0  0  0  0
   33.2118  -12.2041   -3.9740 H   0  0  0  0  0  0
   33.7424  -10.8190   -4.9871 H   0  0  0  0  0  0
   33.8328  -12.3017   -6.6730 H   0  0  0  0  0  0
   35.3353  -12.9131   -5.9014 H   0  0  0  0  0  0
   34.1466  -14.8401   -4.9978 H   0  0  0  0  0  0
   32.5155  -16.3392   -5.2201 H   0  0  0  0  0  0
   32.0867  -12.5141   -6.9209 H   0  0  0  0  0  0
   30.7008  -13.8090   -7.1013 H   0  0  0  0  0  0
   35.7957   -8.5513   -3.3420 H   0  0  0  0  0  0
   33.4549   -7.0844   -2.4850 H   0  0  0  0  0  0
   34.9694   -6.1811   -5.0106 H   0  0  0  0  0  0
   36.7446   -7.1916   -3.5635 H   0  0  0  0  0  0
   33.2363   -4.6969   -3.9137 H   0  0  0  0  0  0
   34.8867   -3.9897   -3.8640 H   0  0  0  0  0  0
   34.1941   -4.7576   -2.3953 H   0  0  0  0  0  0
   31.8090   -5.9463   -3.8005 H   0  0  0  0  0  0
   30.4806   -7.9233   -5.5751 H   0  0  0  0  0  0
   29.3026   -6.2567   -4.0602 H   0  0  0  0  0  0
   29.8505   -4.9393   -5.1514 H   0  0  0  0  0  0
   28.5703   -6.1313   -6.9922 H   0  0  0  0  0  0
   27.8422   -7.1296   -5.6884 H   0  0  0  0  0  0
   26.7437   -5.3172   -4.7291 H   0  0  0  0  0  0
   27.8889   -4.1200   -5.4233 H   0  0  0  0  0  0
   26.9632   -4.6577   -7.7050 H   0  0  0  0  0  0
   25.7312   -5.6934   -6.9075 H   0  0  0  0  0  0
   24.8499   -3.4725   -7.4076 H   0  0  0  0  0  0
   26.1612   -2.7249   -6.4339 H   0  0  0  0  0  0
   24.9292   -3.7607   -5.6364 H   0  0  0  0  0  0
   30.9334  -15.8834   -6.1789 H   0  0  0  0  0  0
  1  2  1  0  0  0
  1 34  1  0  0  0
  1 35  1  0  0  0
  1 36  1  0  0  0
  2  3  1  0  0  0
  2  5  1  0  0  0
  2 37  1  0  0  0
  3  4  2  0  0  0
  3  6  1  0  0  0
  5 38  1  0  0  0
  5 39  1  0  0  0
  5 40  1  0  0  0
  6  7  1  0  0  0
  6 41  1  0  0  0
  7  8  1  0  0  0
  7 10  1  0  0  0
  7 42  1  0  0  0
  8  9  2  0  0  0
  8 17  1  0  0  0
 10 11  1  0  0  0
 10 43  1  0  0  0
 10 44  1  0  0  0
 11 12  1  0  0  0
 11 45  1  0  0  0
 11 46  1  0  0  0
 12 13  1  0  0  0
 12 47  1  0  0  0
 12 48  1  0  0  0
 13 14  1  0  0  0
 13 49  1  0  0  0
 14 15  2  0  0  0
 14 16  1  0  0  0
 15 50  1  0  0  0
 15 73  1  0  0  0
 16 51  1  0  0  0
 16 52  1  0  0  0
 17 18  1  0  0  0
 17 53  1  0  0  0
 18 19  1  0  0  0
 18 21  1  0  0  0
 18 54  1  0  0  0
 19 20  2  0  0  0
 19 24  1  0  0  0
 21 22  1  0  0  0
 21 23  1  0  0  0
 21 55  1  0  0  0
 22 56  1  0  0  0
 23 57  1  0  0  0
 23 58  1  0  0  0
 23 59  1  0  0  0
 24 25  1  0  0  0
 24 60  1  0  0  0
 25 26  1  0  0  0
 25 28  1  0  0  0
 25 61  1  0  0  0
 26 27  1  0  0  0
 26 33  2  0  0  0
 28 29  1  0  0  0
 28 62  1  0  0  0
 28 63  1  0  0  0
 29 30  1  0  0  0
 29 64  1  0  0  0
 29 65  1  0  0  0
 30 31  1  0  0  0
 30 66  1  0  0  0
 30 67  1  0  0  0
 31 32  1  0  0  0
 31 68  1  0  0  0
 31 69  1  0  0  0
 32 70  1  0  0  0
 32 71  1  0  0  0
 32 72  1  0  0  0
M  CHG  4   1   1  15   1  27  -1  32   1
M  END
> <s_m_source_file>
../3uii_ligand.sdf

> <i_m_source_file_index>
1

> <s_epik_input>
W0hdL049QyhbTkgyXSlcW05IXVtDSDJdW0NIMl1bQ0gyXVtDQEhdKFtOSF1DKD1PKVtDQEBIXShbTkgzK10pW0NIM10pQyg9TylbTkhdW0NAQEhdKFtDQEhdKFtPSF0pW0NIM10pQyg9TylbTkhdW0NASF0oQyg9TylbT0hdKVtDSDJdW0NIMl1bQ0gyXVtDSDJdW05IMytd

> <s_epik_cmdline>
J2VwaWtfYXBwJywgJy1pbWFlJywgJ2xpZ2FuZF9wcm8ubWFlJywgJy1vbWFlJywgJ2xpZ2FuZF9wcmVwLm1hZScsICctbXMnLCAnMScsICctcGgnLCAnNycsICctcGh0JywgJzAuNScsICctbnQn

> <r_epik_Ionization_Penalty>
  0.1256

> <r_epik_Ionization_Penalty_Charging>
  0.1256

> <r_epik_Ionization_Penalty_Neutral>
  0.0000

> <r_epik_State_Penalty>
  0.1145

> <r_epik_Charging_Adjusted_Penalty>
0.240173948640233

> <i_epik_Tot_Q>
2

> <i_epik_Tot_abs_Q>
4

> <s_epik_Chemistry_Notes>
This compound has an imine and may undergo hydrolysis.

$$$$
