3uij_ligand
                    3D
 Schrodinger Suite 2020-3.
 62 62  0  0  1  0            999 V2000
  -35.0030  -14.6120   -1.5230 N   0  3  0  0  0  0
  -34.1180  -13.8580   -0.6440 C   0  0  2  0  0  0
  -34.9170  -13.0060    0.3330 C   0  0  0  0  0  0
  -36.1370  -12.8890    0.2130 O   0  0  0  0  0  0
  -33.1800  -12.9880   -1.4580 C   0  0  0  0  0  0
  -34.2200  -12.4120    1.2980 N   0  0  0  0  0  0
  -34.8570  -11.5660    2.3050 C   0  0  2  0  0  0
  -33.9580  -10.3900    2.6920 C   0  0  0  0  0  0
  -32.7360  -10.4760    2.5880 O   0  0  0  0  0  0
  -35.2240  -12.3690    3.5800 C   0  0  0  0  0  0
  -36.2650  -13.4360    3.2660 C   0  0  0  0  0  0
  -33.9800  -12.9920    4.2050 C   0  0  0  0  0  0
  -34.5660   -9.2810    3.1360 N   0  0  0  0  0  0
  -33.7970   -8.1190    3.5970 C   0  0  2  0  0  0
  -32.9210   -8.4780    4.7920 C   0  0  0  0  0  0
  -33.1380   -9.5120    5.4240 O   0  0  0  0  0  0
  -34.8800   -7.1290    4.0350 C   0  0  0  0  0  0
  -36.1140   -7.5600    3.3240 C   0  0  0  0  0  0
  -36.0180   -9.0450    3.1880 C   0  0  0  0  0  0
  -31.9470   -7.6280    5.0970 N   0  0  0  0  0  0
  -31.0790   -7.8350    6.2520 C   0  0  2  0  0  0
  -31.4670   -6.9200    7.4130 C   0  0  0  0  0  0
  -31.4790   -7.3360    8.5740 O   0  0  0  0  0  0
  -29.6020   -7.6000    5.8880 C   0  0  2  0  0  0
  -28.8100   -7.1650    7.1220 C   0  0  0  0  0  0
  -29.4870   -6.5490    4.7990 C   0  0  0  0  0  0
  -27.4180   -6.6600    6.8040 C   0  0  0  0  0  0
  -31.7780   -5.7420    7.2180 O   0  5  0  0  0  0
  -35.6758  -15.2370   -0.9174 H   0  0  0  0  0  0
  -34.4028  -15.2539   -2.1846 H   0  0  0  0  0  0
  -35.5982  -13.9142   -2.1303 H   0  0  0  0  0  0
  -33.5386  -14.6098   -0.0879 H   0  0  0  0  0  0
  -32.6109  -13.6174   -2.1579 H   0  0  0  0  0  0
  -32.4840  -12.4681   -0.7833 H   0  0  0  0  0  0
  -33.7648  -12.2474   -2.0232 H   0  0  0  0  0  0
  -33.1322  -12.5735    1.3236 H   0  0  0  0  0  0
  -35.7619  -11.1999    1.7980 H   0  0  0  0  0  0
  -35.6629  -11.6860    4.3223 H   0  0  0  0  0  0
  -37.1509  -12.9631    2.8171 H   0  0  0  0  0  0
  -36.5546  -13.9501    4.1943 H   0  0  0  0  0  0
  -35.8411  -14.1652    2.5599 H   0  0  0  0  0  0
  -33.2446  -12.2033    4.4222 H   0  0  0  0  0  0
  -33.5424  -13.7185    3.5045 H   0  0  0  0  0  0
  -34.2559  -13.5035    5.1390 H   0  0  0  0  0  0
  -33.1322   -7.7573    2.7987 H   0  0  0  0  0  0
  -35.0039   -7.1804    5.1268 H   0  0  0  0  0  0
  -34.5830   -6.1097    3.7473 H   0  0  0  0  0  0
  -36.9966   -7.2725    3.9142 H   0  0  0  0  0  0
  -36.1579   -7.0739    2.3382 H   0  0  0  0  0  0
  -36.4830   -9.4153    2.2624 H   0  0  0  0  0  0
  -36.4452   -9.5766    4.0510 H   0  0  0  0  0  0
  -31.8034   -6.7489    4.4516 H   0  0  0  0  0  0
  -31.2501   -8.8857    6.5292 H   0  0  0  0  0  0
  -29.1743   -8.5387    5.5061 H   0  0  0  0  0  0
  -29.3452   -6.3511    7.6330 H   0  0  0  0  0  0
  -28.7005   -8.0186    7.8071 H   0  0  0  0  0  0
  -30.0595   -6.8711    3.9167 H   0  0  0  0  0  0
  -28.4298   -6.4208    4.5234 H   0  0  0  0  0  0
  -29.8883   -5.5935    5.1678 H   0  0  0  0  0  0
  -26.9124   -6.3672    7.7360 H   0  0  0  0  0  0
  -27.4877   -5.7892    6.1355 H   0  0  0  0  0  0
  -26.8430   -7.4568    6.3095 H   0  0  0  0  0  0
  1  2  1  0  0  0
  1 29  1  0  0  0
  1 30  1  0  0  0
  1 31  1  0  0  0
  2  3  1  0  0  0
  2  5  1  0  0  0
  2 32  1  0  0  0
  3  4  2  0  0  0
  3  6  1  0  0  0
  5 33  1  0  0  0
  5 34  1  0  0  0
  5 35  1  0  0  0
  6  7  1  0  0  0
  6 36  1  0  0  0
  7  8  1  0  0  0
  7 10  1  0  0  0
  7 37  1  0  0  0
  8  9  2  0  0  0
  8 13  1  0  0  0
 10 11  1  0  0  0
 10 12  1  0  0  0
 10 38  1  0  0  0
 11 39  1  0  0  0
 11 40  1  0  0  0
 11 41  1  0  0  0
 12 42  1  0  0  0
 12 43  1  0  0  0
 12 44  1  0  0  0
 13 14  1  0  0  0
 13 19  1  0  0  0
 14 15  1  0  0  0
 14 17  1  0  0  0
 14 45  1  0  0  0
 15 16  2  0  0  0
 15 20  1  0  0  0
 17 18  1  0  0  0
 17 46  1  0  0  0
 17 47  1  0  0  0
 18 19  1  0  0  0
 18 48  1  0  0  0
 18 49  1  0  0  0
 19 50  1  0  0  0
 19 51  1  0  0  0
 20 21  1  0  0  0
 20 52  1  0  0  0
 21 22  1  0  0  0
 21 24  1  0  0  0
 21 53  1  0  0  0
 22 23  2  0  0  0
 22 28  1  0  0  0
 24 25  1  0  0  0
 24 26  1  0  0  0
 24 54  1  0  0  0
 25 27  1  0  0  0
 25 55  1  0  0  0
 25 56  1  0  0  0
 26 57  1  0  0  0
 26 58  1  0  0  0
 26 59  1  0  0  0
 27 60  1  0  0  0
 27 61  1  0  0  0
 27 62  1  0  0  0
M  CHG  2   1   1  28  -1
M  END
> <s_m_source_file>
../3uij_ligand.sdf

> <i_m_source_file_index>
1

> <s_epik_input>
W05IMytdW0NAQEhdKFtDSDNdKUMoPU8pW05IXVtDQEBIXShbQ0hdKFtDSDNdKVtDSDNdKUMoPU8pTjFbQ0BASF0oW0NIMl1bQ0gyXVtDSDJdMSlDKD1PKVtOSF1bQ0BIXShDKD1PKVtPSF0pW0NAQEhdKFtDSDNdKVtDSDJdW0NIM10=

> <s_epik_cmdline>
J2VwaWtfYXBwJywgJy1pbWFlJywgJ2xpZ2FuZF9wcm8ubWFlJywgJy1vbWFlJywgJ2xpZ2FuZF9wcmVwLm1hZScsICctbXMnLCAnMScsICctcGgnLCAnNycsICctcGh0JywgJzAuNScsICctbnQn

> <r_epik_Ionization_Penalty>
  0.1187

> <r_epik_Ionization_Penalty_Charging>
  0.1187

> <r_epik_Ionization_Penalty_Neutral>
  0.0000

> <r_epik_State_Penalty>
  0.1080

> <r_epik_Charging_Adjusted_Penalty>
0.22668522275432

> <i_epik_Tot_Q>
0

> <i_epik_Tot_abs_Q>
2

$$$$
