3uik_ligand
                    3D
 Schrodinger Suite 2020-3.
 73 72  0  0  1  0            999 V2000
   35.6740  -14.2190    0.8460 N   0  3  0  0  0  0
   34.7670  -13.2020    0.3200 C   0  0  2  0  0  0
   35.5110  -12.1740   -0.5160 C   0  0  0  0  0  0
   36.7030  -11.9480   -0.3020 O   0  0  0  0  0  0
   34.0440  -12.5210    1.4480 C   0  0  0  0  0  0
   34.7970  -11.5400   -1.4490 N   0  0  0  0  0  0
   35.3870  -10.5590   -2.3660 C   0  0  2  0  0  0
   34.4990   -9.3200   -2.4960 C   0  0  0  0  0  0
   33.2860   -9.4090   -2.3380 O   0  0  0  0  0  0
   35.5890  -11.1820   -3.7580 C   0  0  0  0  0  0
   34.3310  -11.1810   -4.6340 C   0  0  0  0  0  0
   34.4650  -12.0440   -5.8810 C   0  0  0  0  0  0
   33.8970  -13.3780   -5.6870 N   0  0  0  0  0  0
   32.6520  -13.7160   -6.0080 C   0  0  0  0  0  0
   32.2230  -14.9560   -5.7960 N   0  0  0  0  0  0
   31.8390  -12.8110   -6.5430 N   0  3  0  0  0  0
   35.0950   -8.1720   -2.8130 N   0  0  0  0  0  0
   34.3220   -6.9650   -3.1110 C   0  0  2  0  0  0
   33.3500   -7.2490   -4.2530 C   0  0  0  0  0  0
   33.6260   -8.0850   -5.1000 O   0  0  0  0  0  0
   35.2360   -5.8240   -3.5850 C   0  0  2  0  0  0
   35.0870   -5.6600   -5.0010 O   0  0  0  0  0  0
   36.6860   -6.1220   -3.2660 C   0  0  0  0  0  0
   32.2140   -6.5610   -4.2750 N   0  0  0  0  0  0
   31.2110   -6.7770   -5.3170 C   0  0  2  0  0  0
   31.8330   -6.7990   -6.6920 C   0  0  0  0  0  0
   31.1300   -6.7010   -7.6910 O   0  5  0  0  0  0
   30.1350   -5.6990   -5.2590 C   0  0  0  0  0  0
   28.9090   -5.9430   -6.1420 C   0  0  0  0  0  0
   27.8730   -4.8510   -5.8750 C   0  0  0  0  0  0
   26.6020   -5.0270   -6.6890 C   0  0  0  0  0  0
   25.5560   -4.0180   -6.3330 N   0  3  0  0  0  0
   33.0460   -6.9150   -6.8210 O   0  0  0  0  0  0
   36.1971  -14.7103    0.0123 H   0  0  0  0  0  0
   35.0981  -14.9677    1.4096 H   0  0  0  0  0  0
   36.4098  -13.7448    1.5121 H   0  0  0  0  0  0
   34.0468  -13.7390   -0.3148 H   0  0  0  0  0  0
   33.5088  -13.2724    2.0471 H   0  0  0  0  0  0
   33.3235  -11.7978    1.0381 H   0  0  0  0  0  0
   34.7705  -11.9944    2.0842 H   0  0  0  0  0  0
   33.7252  -11.7787   -1.5143 H   0  0  0  0  0  0
   36.3493  -10.2837   -1.9097 H   0  0  0  0  0  0
   36.3624  -10.6203   -4.3024 H   0  0  0  0  0  0
   35.9057  -12.2297   -3.6484 H   0  0  0  0  0  0
   33.4799  -11.5671   -4.0538 H   0  0  0  0  0  0
   34.1144  -10.1541   -4.9635 H   0  0  0  0  0  0
   33.9366  -11.5638   -6.7177 H   0  0  0  0  0  0
   35.5290  -12.1572   -6.1360 H   0  0  0  0  0  0
   34.5111  -14.1789   -5.2495 H   0  0  0  0  0  0
   32.8978  -15.7033   -5.3531 H   0  0  0  0  0  0
   31.1931  -15.2350   -6.0635 H   0  0  0  0  0  0
   32.1964  -11.7854   -6.7175 H   0  0  0  0  0  0
   36.1941   -8.1439   -2.8481 H   0  0  0  0  0  0
   33.8112   -6.7150   -2.1694 H   0  0  0  0  0  0
   34.9466   -4.8705   -3.1191 H   0  0  0  0  0  0
   34.0981   -5.4366   -5.4278 H   0  0  0  0  0  0
   36.8039   -6.2485   -2.1797 H   0  0  0  0  0  0
   37.3157   -5.2877   -3.6085 H   0  0  0  0  0  0
   36.9916   -7.0463   -3.7781 H   0  0  0  0  0  0
   32.0359   -5.8152   -3.4863 H   0  0  0  0  0  0
   30.7834   -7.7676   -5.1028 H   0  0  0  0  0  0
   29.7617   -5.6087   -4.2282 H   0  0  0  0  0  0
   30.5618   -4.7373   -5.5799 H   0  0  0  0  0  0
   29.2084   -5.9175   -7.2002 H   0  0  0  0  0  0
   28.4776   -6.9271   -5.9066 H   0  0  0  0  0  0
   27.5930   -4.8634   -4.8113 H   0  0  0  0  0  0
   28.3002   -3.8700   -6.1303 H   0  0  0  0  0  0
   26.8332   -4.9153   -7.7586 H   0  0  0  0  0  0
   26.1855   -6.0286   -6.5066 H   0  0  0  0  0  0
   24.6593   -4.1871   -6.9473 H   0  0  0  0  0  0
   25.9438   -3.0059   -6.5211 H   0  0  0  0  0  0
   25.2960   -4.1192   -5.2690 H   0  0  0  0  0  0
   30.8087  -13.0875   -6.8113 H   0  0  0  0  0  0
  1  2  1  0  0  0
  1 34  1  0  0  0
  1 35  1  0  0  0
  1 36  1  0  0  0
  2  3  1  0  0  0
  2  5  1  0  0  0
  2 37  1  0  0  0
  3  4  2  0  0  0
  3  6  1  0  0  0
  5 38  1  0  0  0
  5 39  1  0  0  0
  5 40  1  0  0  0
  6  7  1  0  0  0
  6 41  1  0  0  0
  7  8  1  0  0  0
  7 10  1  0  0  0
  7 42  1  0  0  0
  8  9  2  0  0  0
  8 17  1  0  0  0
 10 11  1  0  0  0
 10 43  1  0  0  0
 10 44  1  0  0  0
 11 12  1  0  0  0
 11 45  1  0  0  0
 11 46  1  0  0  0
 12 13  1  0  0  0
 12 47  1  0  0  0
 12 48  1  0  0  0
 13 14  1  0  0  0
 13 49  1  0  0  0
 14 15  1  0  0  0
 14 16  2  0  0  0
 15 50  1  0  0  0
 15 51  1  0  0  0
 16 52  1  0  0  0
 16 73  1  0  0  0
 17 18  1  0  0  0
 17 53  1  0  0  0
 18 19  1  0  0  0
 18 21  1  0  0  0
 18 54  1  0  0  0
 19 20  2  0  0  0
 19 24  1  0  0  0
 21 22  1  0  0  0
 21 23  1  0  0  0
 21 55  1  0  0  0
 22 56  1  0  0  0
 23 57  1  0  0  0
 23 58  1  0  0  0
 23 59  1  0  0  0
 24 25  1  0  0  0
 24 60  1  0  0  0
 25 26  1  0  0  0
 25 28  1  0  0  0
 25 61  1  0  0  0
 26 27  1  0  0  0
 26 33  2  0  0  0
 28 29  1  0  0  0
 28 62  1  0  0  0
 28 63  1  0  0  0
 29 30  1  0  0  0
 29 64  1  0  0  0
 29 65  1  0  0  0
 30 31  1  0  0  0
 30 66  1  0  0  0
 30 67  1  0  0  0
 31 32  1  0  0  0
 31 68  1  0  0  0
 31 69  1  0  0  0
 32 70  1  0  0  0
 32 71  1  0  0  0
 32 72  1  0  0  0
M  CHG  4   1   1  16   1  27  -1  32   1
M  END
> <s_m_source_file>
../3uik_ligand.sdf

> <i_m_source_file_index>
1

> <s_epik_input>
W0hdL049QyhbTkgyXSlcW05IXVtDSDJdW0NIMl1bQ0gyXVtDQEhdKFtOSF1DKD1PKVtDQEBIXShbTkgzK10pW0NIM10pQyg9TylbTkhdW0NAQEhdKFtDQEhdKFtPSF0pW0NIM10pQyg9TylbTkhdW0NASF0oQyg9TylbT0hdKVtDSDJdW0NIMl1bQ0gyXVtDSDJdW05IMytd

> <s_epik_cmdline>
J2VwaWtfYXBwJywgJy1pbWFlJywgJ2xpZ2FuZF9wcm8ubWFlJywgJy1vbWFlJywgJ2xpZ2FuZF9wcmVwLm1hZScsICctbXMnLCAnMScsICctcGgnLCAnNycsICctcGh0JywgJzAuNScsICctbnQn

> <r_epik_Ionization_Penalty>
  0.1256

> <r_epik_Ionization_Penalty_Charging>
  0.1256

> <r_epik_Ionization_Penalty_Neutral>
  0.0000

> <r_epik_State_Penalty>
  0.1145

> <r_epik_Charging_Adjusted_Penalty>
0.240161087552375

> <i_epik_Tot_Q>
2

> <i_epik_Tot_abs_Q>
4

> <s_epik_Chemistry_Notes>
This compound has an imine and may undergo hydrolysis.

$$$$
