3uil_ligand
                    3D
 Schrodinger Suite 2020-3.
 37 36  0  0  1  0            999 V2000
  -33.8270  -19.5430  -40.1730 O   0  5  0  0  0  0
  -34.1350  -17.5080  -40.9480 O   0  0  0  0  0  0
  -34.5280  -18.6870  -40.7760 C   0  0  0  0  0  0
  -35.9040  -19.0320  -41.3410 C   0  0  0  0  0  0
  -36.4340  -20.3920  -41.0010 C   0  0  0  0  0  0
  -36.3980  -21.2200  -42.2800 C   0  0  0  0  0  0
  -35.2000  -22.1680  -42.2610 C   0  0  0  0  0  0
  -35.5330  -23.5690  -42.7590 C   0  0  0  0  0  0
  -35.9690  -24.4390  -41.5880 C   0  0  0  0  0  0
  -37.3870  -24.9620  -41.7970 C   0  0  0  0  0  0
  -38.4550  -24.0550  -41.1900 C   0  0  0  0  0  0
  -39.8490  -24.3920  -41.7380 C   0  0  0  0  0  0
  -40.9670  -23.3740  -41.4660 C   0  0  0  0  0  0
  -40.7550  -22.4570  -40.2690 C   0  0  0  0  0  0
  -36.6461  -18.3130  -40.9637 H   0  0  0  0  0  0
  -35.8720  -18.9836  -42.4395 H   0  0  0  0  0  0
  -35.8014  -20.8487  -40.2256 H   0  0  0  0  0  0
  -37.4644  -20.3010  -40.6269 H   0  0  0  0  0  0
  -37.3229  -21.8100  -42.3610 H   0  0  0  0  0  0
  -36.3133  -20.5500  -43.1483 H   0  0  0  0  0  0
  -34.4048  -21.7670  -42.9066 H   0  0  0  0  0  0
  -34.8237  -22.2628  -41.2317 H   0  0  0  0  0  0
  -36.3486  -23.5123  -43.4950 H   0  0  0  0  0  0
  -34.6434  -24.0115  -43.2309 H   0  0  0  0  0  0
  -35.2861  -25.2962  -41.4939 H   0  0  0  0  0  0
  -35.9435  -23.8465  -40.6615 H   0  0  0  0  0  0
  -37.5924  -25.0440  -42.8745 H   0  0  0  0  0  0
  -37.4853  -25.9524  -41.3286 H   0  0  0  0  0  0
  -38.4676  -24.1837  -40.0976 H   0  0  0  0  0  0
  -38.2272  -23.0067  -41.4331 H   0  0  0  0  0  0
  -39.7985  -24.4920  -42.8323 H   0  0  0  0  0  0
  -40.1965  -25.3388  -41.2990 H   0  0  0  0  0  0
  -41.0837  -22.7155  -42.3394 H   0  0  0  0  0  0
  -41.9110  -23.9071  -41.2800 H   0  0  0  0  0  0
  -41.6131  -21.7756  -40.1726 H   0  0  0  0  0  0
  -39.8357  -21.8707  -40.4146 H   0  0  0  0  0  0
  -40.6630  -23.0623  -39.3552 H   0  0  0  0  0  0
  1  3  1  0  0  0
  2  3  2  0  0  0
  3  4  1  0  0  0
  4  5  1  0  0  0
  4 15  1  0  0  0
  4 16  1  0  0  0
  5  6  1  0  0  0
  5 17  1  0  0  0
  5 18  1  0  0  0
  6  7  1  0  0  0
  6 19  1  0  0  0
  6 20  1  0  0  0
  7  8  1  0  0  0
  7 21  1  0  0  0
  7 22  1  0  0  0
  8  9  1  0  0  0
  8 23  1  0  0  0
  8 24  1  0  0  0
  9 10  1  0  0  0
  9 25  1  0  0  0
  9 26  1  0  0  0
 10 11  1  0  0  0
 10 27  1  0  0  0
 10 28  1  0  0  0
 11 12  1  0  0  0
 11 29  1  0  0  0
 11 30  1  0  0  0
 12 13  1  0  0  0
 12 31  1  0  0  0
 12 32  1  0  0  0
 13 14  1  0  0  0
 13 33  1  0  0  0
 13 34  1  0  0  0
 14 35  1  0  0  0
 14 36  1  0  0  0
 14 37  1  0  0  0
M  CHG  1   1  -1
M  END
> <s_m_source_file>
../3uil_ligand.sdf

> <i_m_source_file_index>
1

> <s_epik_input>
W09IXUMoPU8pW0NIMl1bQ0gyXVtDSDJdW0NIMl1bQ0gyXVtDSDJdW0NIMl1bQ0gyXVtDSDJdW0NIMl1bQ0gzXQ==

> <s_epik_cmdline>
J2VwaWtfYXBwJywgJy1pbWFlJywgJ2xpZ2FuZF9wcm8ubWFlJywgJy1vbWFlJywgJ2xpZ2FuZF9wcmVwLm1hZScsICctbXMnLCAnMScsICctcGgnLCAnNycsICctcGh0JywgJzAuNScsICctbnQn

> <r_lp_tautomer_probability>
1

> <r_epik_Ionization_Penalty>
  0.0049

> <r_epik_Ionization_Penalty_Charging>
  0.0049

> <r_epik_Ionization_Penalty_Neutral>
  0.0000

> <r_epik_State_Penalty>
 -0.0000

> <r_epik_Charging_Adjusted_Penalty>
0.00486649495677768

> <i_epik_Tot_Q>
-1

> <i_epik_Tot_abs_Q>
1

$$$$
