3uix_ligand
                    3D
 Schrodinger Suite 2020-3.
 41 43  0  0  1  0            999 V2000
  -37.4550   -3.1150   -1.3480 C   0  0  0  0  0  0
  -36.5150   -3.2090   -0.3120 C   0  0  0  0  0  0
  -36.8740   -2.9870    1.0160 C   0  0  0  0  0  0
  -38.1790   -2.6320    1.3710 C   0  0  0  0  0  0
  -39.1330   -2.5080    0.3790 C   0  0  0  0  0  0
  -38.7640   -2.7790   -1.0450 C   0  0  0  0  0  0
  -39.6830   -2.7010   -2.0510 O   0  0  0  0  0  0
  -40.5100   -2.1630    0.7890 C   0  0  0  0  0  0
  -40.7860   -1.9700    2.1120 N   0  0  0  0  0  0
  -42.0400   -1.6660    2.5060 C   0  0  0  0  0  0
  -43.0530   -1.5460    1.5450 C   0  0  0  0  0  0
  -42.7440   -1.7500    0.2090 C   0  0  0  0  0  0
  -41.4710   -2.0500   -0.1390 N   0  0  0  0  0  0
  -43.7180   -1.6550   -0.7890 C   0  0  0  0  0  0
  -45.0330   -1.3350   -0.4340 C   0  0  0  0  0  0
  -45.3430   -1.1430    0.9070 C   0  0  0  0  0  0
  -44.3680   -1.2390    1.9050 C   0  0  0  0  0  0
  -42.2930   -1.5040    3.8230 N   0  0  0  0  0  0
  -41.2300   -1.3240    4.8130 C   0  0  0  0  0  0
  -40.2580   -2.5000    5.0540 C   0  0  0  0  0  0
  -40.8770   -3.8170    5.4820 C   0  0  0  0  0  0
  -39.9600   -4.5710    6.3510 N   0  3  0  0  0  0
  -37.1590   -3.3042   -2.3799 H   0  0  0  0  0  0
  -35.4817   -3.4610   -0.5504 H   0  0  0  0  0  0
  -36.1201   -3.0925    1.7961 H   0  0  0  0  0  0
  -38.4399   -2.4557    2.4145 H   0  0  0  0  0  0
  -39.3812   -2.9060   -3.0887 H   0  0  0  0  0  0
  -43.4559   -1.8284   -1.8327 H   0  0  0  0  0  0
  -45.8036   -1.2376   -1.1987 H   0  0  0  0  0  0
  -46.3706   -0.9121    1.1877 H   0  0  0  0  0  0
  -44.6304   -1.0764    2.9504 H   0  0  0  0  0  0
  -43.3458   -1.5109    4.1416 H   0  0  0  0  0  0
  -40.5901   -0.4805    4.5146 H   0  0  0  0  0  0
  -41.6764   -1.1156    5.7965 H   0  0  0  0  0  0
  -39.7066   -2.7158    4.1269 H   0  0  0  0  0  0
  -39.5471   -2.2311    5.8492 H   0  0  0  0  0  0
  -41.8077   -3.6221    6.0350 H   0  0  0  0  0  0
  -41.0996   -4.4240    4.5920 H   0  0  0  0  0  0
  -40.4319   -5.5197    6.6465 H   0  0  0  0  0  0
  -39.7354   -3.9776    7.2496 H   0  0  0  0  0  0
  -39.0272   -4.7794    5.8066 H   0  0  0  0  0  0
  1  2  2  0  0  0
  1  6  1  0  0  0
  1 23  1  0  0  0
  2  3  1  0  0  0
  2 24  1  0  0  0
  3  4  2  0  0  0
  3 25  1  0  0  0
  4  5  1  0  0  0
  4 26  1  0  0  0
  5  6  2  0  0  0
  5  8  1  0  0  0
  6  7  1  0  0  0
  7 27  1  0  0  0
  8  9  2  0  0  0
  8 13  1  0  0  0
  9 10  1  0  0  0
 10 11  2  0  0  0
 10 18  1  0  0  0
 11 12  1  0  0  0
 11 17  1  0  0  0
 12 13  2  0  0  0
 12 14  1  0  0  0
 14 15  2  0  0  0
 14 28  1  0  0  0
 15 16  1  0  0  0
 15 29  1  0  0  0
 16 17  2  0  0  0
 16 30  1  0  0  0
 17 31  1  0  0  0
 18 19  1  0  0  0
 18 32  1  0  0  0
 19 20  1  0  0  0
 19 33  1  0  0  0
 19 34  1  0  0  0
 20 21  1  0  0  0
 20 35  1  0  0  0
 20 36  1  0  0  0
 21 22  1  0  0  0
 21 37  1  0  0  0
 21 38  1  0  0  0
 22 39  1  0  0  0
 22 40  1  0  0  0
 22 41  1  0  0  0
M  CHG  1  22   1
M  END
> <s_m_source_file>
../3uix_ligand.sdf

> <i_m_source_file_index>
1

> <s_epik_input>
W09IXWMxW2NIXVtjSF1bY0hdW2NIXWMxLWMobmMoYzIzKVtjSF1bY0hdW2NIXVtjSF0zKW5jMltOSF1bQ0gyXVtDSDJdW0NIMl1bTkgzK10=

> <s_epik_cmdline>
J2VwaWtfYXBwJywgJy1pbWFlJywgJ2xpZ2FuZF9wcm8ubWFlJywgJy1vbWFlJywgJ2xpZ2FuZF9wcmVwLm1hZScsICctbXMnLCAnMScsICctcGgnLCAnNycsICctcGh0JywgJzAuNScsICctbnQn

> <r_lp_tautomer_probability>
1

> <r_epik_Ionization_Penalty>
  0.0159

> <r_epik_Ionization_Penalty_Charging>
  0.0004

> <r_epik_Ionization_Penalty_Neutral>
  0.0155

> <r_epik_State_Penalty>
 -0.0000

> <r_epik_Charging_Adjusted_Penalty>
0.000367763986539853

> <i_epik_Tot_Q>
1

> <i_epik_Tot_abs_Q>
1

$$$$
