3uj9_ligand
                    3D
 Schrodinger Suite 2020-3.
 24 23  0  0  1  0            999 V2000
   15.4720   10.6730   19.8690 P   0  0  0  0  0  0
   16.0030   10.0980   21.1770 O   0  5  0  0  0  0
   15.1980    9.6010   18.8470 O   0  0  0  0  0  0
   14.2740   11.5630   20.1040 O   0  5  0  0  0  0
   16.6170   11.6000   19.3200 O   0  0  0  0  0  0
   16.4120   12.4220   18.1770 C   0  0  0  0  0  0
   17.6350   13.2540   17.7630 C   0  0  0  0  0  0
   18.0110   14.4110   18.6370 N   0  3  0  0  0  0
   16.7920   15.3040   18.7980 C   0  0  0  0  0  0
   19.1690   15.0540   18.0350 C   0  0  0  0  0  0
   18.3740   13.9700   19.9240 C   0  0  0  0  0  0
   16.1472   11.7920   17.3150 H   0  0  0  0  0  0
   15.5955   13.1314   18.3772 H   0  0  0  0  0  0
   18.5253   12.6085   17.7355 H   0  0  0  0  0  0
   17.4642   13.6858   16.7658 H   0  0  0  0  0  0
   16.4741   15.6718   17.8113 H   0  0  0  0  0  0
   17.0457   16.1579   19.4434 H   0  0  0  0  0  0
   15.9739   14.7286   19.2559 H   0  0  0  0  0  0
   18.9089   15.4076   17.0264 H   0  0  0  0  0  0
   19.9961   14.3318   17.9685 H   0  0  0  0  0  0
   19.4774   15.9086   18.6550 H   0  0  0  0  0  0
   17.5123   13.4793   20.4000 H   0  0  0  0  0  0
   18.6873   14.8315   20.5320 H   0  0  0  0  0  0
   19.2060   13.2547   19.8454 H   0  0  0  0  0  0
  1  2  1  0  0  0
  1  3  2  0  0  0
  1  4  1  0  0  0
  1  5  1  0  0  0
  5  6  1  0  0  0
  6  7  1  0  0  0
  6 12  1  0  0  0
  6 13  1  0  0  0
  7  8  1  0  0  0
  7 14  1  0  0  0
  7 15  1  0  0  0
  8  9  1  0  0  0
  8 10  1  0  0  0
  8 11  1  0  0  0
  9 16  1  0  0  0
  9 17  1  0  0  0
  9 18  1  0  0  0
 10 19  1  0  0  0
 10 20  1  0  0  0
 10 21  1  0  0  0
 11 22  1  0  0  0
 11 23  1  0  0  0
 11 24  1  0  0  0
M  CHG  3   2  -1   4  -1   8   1
M  END
> <s_m_source_file>
../3uj9_ligand.sdf

> <i_m_source_file_index>
1

> <s_epik_input>
W09IXVAoPU8pKFtPSF0pT1tDSDJdW0NIMl1bTitdKFtDSDNdKShbQ0gzXSlbQ0gzXQ==

> <s_epik_cmdline>
J2VwaWtfYXBwJywgJy1pbWFlJywgJ2xpZ2FuZF9wcm8ubWFlJywgJy1vbWFlJywgJ2xpZ2FuZF9wcmVwLm1hZScsICctbXMnLCAnMScsICctcGgnLCAnNycsICctcGh0JywgJzAuNScsICctbnQn

> <r_epik_Ionization_Penalty>
  0.0482

> <r_epik_Ionization_Penalty_Charging>
  0.0482

> <r_epik_Ionization_Penalty_Neutral>
  0.0000

> <r_epik_State_Penalty>
  0.0411

> <r_epik_Charging_Adjusted_Penalty>
0.0892630550767564

> <i_epik_Tot_Q>
-1

> <i_epik_Tot_abs_Q>
3

$$$$
