3ujb_ligand
                    3D
 Schrodinger Suite 2020-3.
 46 48  0  0  1  0            999 V2000
   46.9410   -0.5710   25.5050 N   0  3  0  0  0  0
   45.8910    0.2760   24.8850 C   0  0  1  0  0  0
   45.9840    1.7480   25.4270 C   0  0  0  0  0  0
   47.2760    2.4690   25.0280 C   0  0  0  0  0  0
   47.3590    4.1870   25.6240 S   0  0  0  0  0  0
   45.9970    0.1880   23.4160 C   0  0  0  0  0  0
   46.9630   -0.3650   22.9160 O   0  5  0  0  0  0
   45.1800    0.7440   22.7180 O   0  0  0  0  0  0
   47.9520    4.0870   27.3290 C   0  0  0  0  0  0
   47.0080    3.7660   28.3570 C   0  0  1  0  0  0
   47.7510    3.6010   29.5920 O   0  0  0  0  0  0
   46.0550    4.8880   28.5930 C   0  0  1  0  0  0
   44.7310    4.4570   28.3170 O   0  0  0  0  0  0
   46.2790    5.2780   30.0030 C   0  0  1  0  0  0
   45.1100    5.6900   30.6870 O   0  0  0  0  0  0
   46.9040    4.0570   30.5990 C   0  0  2  0  0  0
   47.6620    4.3040   31.8820 N   0  0  0  0  0  0
   48.6090    5.2230   32.1010 C   0  0  0  0  0  0
   49.0340    5.0920   33.3580 N   0  0  0  0  0  0
   48.3660    4.0780   33.9400 C   0  0  0  0  0  0
   48.3890    3.5160   35.2280 C   0  0  0  0  0  0
   49.2360    3.9930   36.1970 N   0  0  0  0  0  0
   47.5580    2.4930   35.4890 N   0  0  0  0  0  0
   46.7230    2.0170   34.5570 C   0  0  0  0  0  0
   46.6660    2.5410   33.3080 N   0  0  0  0  0  0
   47.4720    3.5700   32.9860 C   0  0  0  0  0  0
   46.8641   -0.5071   26.6004 H   0  0  0  0  0  0
   47.9327   -0.2180   25.1858 H   0  0  0  0  0  0
   46.8041   -1.6154   25.1881 H   0  0  0  0  0  0
   44.9053   -0.1478   25.1273 H   0  0  0  0  0  0
   45.1437    2.3379   25.0321 H   0  0  0  0  0  0
   45.9401    1.7375   26.5261 H   0  0  0  0  0  0
   48.1399    1.9321   25.4468 H   0  0  0  0  0  0
   47.3574    2.4956   23.9313 H   0  0  0  0  0  0
   48.7266    3.3095   27.4028 H   0  0  0  0  0  0
   48.3766    5.0570   27.6270 H   0  0  0  0  0  0
   46.4833    2.8525   28.0404 H   0  0  0  0  0  0
   46.1645    5.7543   27.9241 H   0  0  0  0  0  0
   44.4554    4.1439   27.2991 H   0  0  0  0  0  0
   46.8699    6.2004   30.1030 H   0  0  0  0  0  0
   44.5568    6.5773   30.3454 H   0  0  0  0  0  0
   46.1578    3.2864   30.8427 H   0  0  0  0  0  0
   48.9708    5.9530   31.3769 H   0  0  0  0  0  0
   49.9122    4.8310   35.9724 H   0  0  0  0  0  0
   49.2386    3.5372   37.1981 H   0  0  0  0  0  0
   46.0690    1.1826   34.8102 H   0  0  0  0  0  0
  1  2  1  0  0  0
  1 27  1  0  0  0
  1 28  1  0  0  0
  1 29  1  0  0  0
  2  3  1  0  0  0
  2  6  1  0  0  0
  2 30  1  0  0  0
  3  4  1  0  0  0
  3 31  1  0  0  0
  3 32  1  0  0  0
  4  5  1  0  0  0
  4 33  1  0  0  0
  4 34  1  0  0  0
  5  9  1  0  0  0
  6  7  1  0  0  0
  6  8  2  0  0  0
  9 10  1  0  0  0
  9 35  1  0  0  0
  9 36  1  0  0  0
 10 11  1  0  0  0
 10 12  1  0  0  0
 10 37  1  0  0  0
 11 16  1  0  0  0
 12 13  1  0  0  0
 12 14  1  0  0  0
 12 38  1  0  0  0
 13 39  1  0  0  0
 14 15  1  0  0  0
 14 16  1  0  0  0
 14 40  1  0  0  0
 15 41  1  0  0  0
 16 17  1  0  0  0
 16 42  1  0  0  0
 17 18  1  0  0  0
 17 26  1  0  0  0
 18 19  2  0  0  0
 18 43  1  0  0  0
 19 20  1  0  0  0
 20 21  2  0  0  0
 20 26  1  0  0  0
 21 22  1  0  0  0
 21 23  1  0  0  0
 22 44  1  0  0  0
 22 45  1  0  0  0
 23 24  2  0  0  0
 24 25  1  0  0  0
 24 46  1  0  0  0
 25 26  2  0  0  0
M  CHG  2   1   1   7  -1
M  END
> <s_m_source_file>
../3ujb_ligand.sdf

> <i_m_source_file_index>
1

> <s_epik_input>
W09IXUMoPU8pW0NAQEhdKFtOSDMrXSlbQ0gyXVtDSDJdU1tDSDJdW0NASF0xT1tDQEhdKFtDQEhdKFtPSF0pW0NAQEhdMVtPSF0pbihbY0hdbjIpYyhjMjMpbltjSF1uYzNbTkgyXQ==

> <s_epik_cmdline>
J2VwaWtfYXBwJywgJy1pbWFlJywgJ2xpZ2FuZF9wcm8ubWFlJywgJy1vbWFlJywgJ2xpZ2FuZF9wcmVwLm1hZScsICctbXMnLCAnMScsICctcGgnLCAnNycsICctcGh0JywgJzAuNScsICctbnQn

> <r_lp_tautomer_probability>
1

> <r_epik_Ionization_Penalty>
  0.0026

> <r_epik_Ionization_Penalty_Charging>
  0.0022

> <r_epik_Ionization_Penalty_Neutral>
  0.0004

> <r_epik_State_Penalty>
 -0.0000

> <r_epik_Charging_Adjusted_Penalty>
0.00216156469931729

> <i_epik_Tot_Q>
0

> <i_epik_Tot_abs_Q>
2

> <s_epik_Chemistry_Notes>
This compound contains an acetal/aminal-like group ( X-CH(R)-Y where X, Y are N, S, or O) that may be acid/base labile, releasing an aldehyde.

$$$$
