3ujc_ligand
                    3D
 Schrodinger Suite 2020-3.
 24 23  0  0  1  0            999 V2000
   15.4280   10.4780   19.9340 P   0  0  0  0  0  0
   16.0360    9.8890   21.1940 O   0  5  0  0  0  0
   15.1380    9.3830   18.9210 O   0  5  0  0  0  0
   14.2150   11.3450   20.2000 O   0  0  0  0  0  0
   16.5800   11.3850   19.3450 O   0  0  0  0  0  0
   16.2910   12.2560   18.2430 C   0  0  0  0  0  0
   17.4710   13.1420   17.8310 C   0  0  0  0  0  0
   17.7840   14.2940   18.7310 N   0  3  0  0  0  0
   16.5470   15.1680   18.8420 C   0  0  0  0  0  0
   18.9230   14.9870   18.1470 C   0  0  0  0  0  0
   18.1750   13.8640   20.0330 C   0  0  0  0  0  0
   16.0106   11.6557   17.3649 H   0  0  0  0  0  0
   15.4590   12.9235   18.5116 H   0  0  0  0  0  0
   18.3876   12.5354   17.7883 H   0  0  0  0  0  0
   17.2737   13.5784   16.8407 H   0  0  0  0  0  0
   16.2426   15.5016   17.8390 H   0  0  0  0  0  0
   16.7723   16.0445   19.4673 H   0  0  0  0  0  0
   15.7302   14.5909   19.3001 H   0  0  0  0  0  0
   18.6613   15.3363   17.1373 H   0  0  0  0  0  0
   19.7792   14.2990   18.0866 H   0  0  0  0  0  0
   19.1892   15.8494   18.7758 H   0  0  0  0  0  0
   17.3382   13.3333   20.5106 H   0  0  0  0  0  0
   18.4493   14.7387   20.6410 H   0  0  0  0  0  0
   19.0392   13.1883   19.9518 H   0  0  0  0  0  0
  1  2  1  0  0  0
  1  3  1  0  0  0
  1  4  2  0  0  0
  1  5  1  0  0  0
  5  6  1  0  0  0
  6  7  1  0  0  0
  6 12  1  0  0  0
  6 13  1  0  0  0
  7  8  1  0  0  0
  7 14  1  0  0  0
  7 15  1  0  0  0
  8  9  1  0  0  0
  8 10  1  0  0  0
  8 11  1  0  0  0
  9 16  1  0  0  0
  9 17  1  0  0  0
  9 18  1  0  0  0
 10 19  1  0  0  0
 10 20  1  0  0  0
 10 21  1  0  0  0
 11 22  1  0  0  0
 11 23  1  0  0  0
 11 24  1  0  0  0
M  CHG  3   2  -1   3  -1   8   1
M  END
> <s_m_source_file>
../3ujc_ligand.sdf

> <i_m_source_file_index>
1

> <s_epik_input>
W09IXVAoPU8pKFtPSF0pT1tDSDJdW0NIMl1bTitdKFtDSDNdKShbQ0gzXSlbQ0gzXQ==

> <s_epik_cmdline>
J2VwaWtfYXBwJywgJy1pbWFlJywgJ2xpZ2FuZF9wcm8ubWFlJywgJy1vbWFlJywgJ2xpZ2FuZF9wcmVwLm1hZScsICctbXMnLCAnMScsICctcGgnLCAnNycsICctcGh0JywgJzAuNScsICctbnQn

> <r_epik_Ionization_Penalty>
  0.0482

> <r_epik_Ionization_Penalty_Charging>
  0.0482

> <r_epik_Ionization_Penalty_Neutral>
  0.0000

> <r_epik_State_Penalty>
  0.0411

> <r_epik_Charging_Adjusted_Penalty>
0.0892630550767564

> <i_epik_Tot_Q>
-1

> <i_epik_Tot_abs_Q>
3

$$$$
