3ujd_ligand
                    3D
 Schrodinger Suite 2020-3.
 24 23  0  0  1  0            999 V2000
   15.4940   10.8080   20.0140 P   0  0  0  0  0  0
   14.2540   11.6260   20.3230 O   0  5  0  0  0  0
   16.1560   10.2510   21.2510 O   0  0  0  0  0  0
   15.2200    9.7120   19.0000 O   0  5  0  0  0  0
   16.5600   11.7930   19.3730 O   0  0  0  0  0  0
   16.2640   12.5890   18.2440 C   0  0  0  0  0  0
   17.4080   13.5300   17.8420 C   0  0  0  0  0  0
   17.6950   14.7020   18.7120 N   0  3  0  0  0  0
   18.8280   15.4360   18.0210 C   0  0  0  0  0  0
   17.9530   14.2850   20.0820 C   0  0  0  0  0  0
   16.5880   15.5670   18.7470 C   0  0  0  0  0  0
   16.0538   11.9389   17.3819 H   0  0  0  0  0  0
   15.3832   13.2130   18.4560 H   0  0  0  0  0  0
   18.3516   12.9658   17.8068 H   0  0  0  0  0  0
   17.1995   13.9580   16.8503 H   0  0  0  0  0  0
   19.7135   14.7849   17.9765 H   0  0  0  0  0  0
   19.0717   16.3484   18.5851 H   0  0  0  0  0  0
   18.5206   15.7071   17.0002 H   0  0  0  0  0  0
   18.8161   13.6033   20.1014 H   0  0  0  0  0  0
   17.0679   13.7675   20.4806 H   0  0  0  0  0  0
   18.1700   15.1690   20.6996 H   0  0  0  0  0  0
   16.3569   15.9081   17.7271 H   0  0  0  0  0  0
   16.8214   16.4357   19.3802 H   0  0  0  0  0  0
   15.7193   15.0342   19.1611 H   0  0  0  0  0  0
  1  2  1  0  0  0
  1  3  2  0  0  0
  1  4  1  0  0  0
  1  5  1  0  0  0
  5  6  1  0  0  0
  6  7  1  0  0  0
  6 12  1  0  0  0
  6 13  1  0  0  0
  7  8  1  0  0  0
  7 14  1  0  0  0
  7 15  1  0  0  0
  8  9  1  0  0  0
  8 10  1  0  0  0
  8 11  1  0  0  0
  9 16  1  0  0  0
  9 17  1  0  0  0
  9 18  1  0  0  0
 10 19  1  0  0  0
 10 20  1  0  0  0
 10 21  1  0  0  0
 11 22  1  0  0  0
 11 23  1  0  0  0
 11 24  1  0  0  0
M  CHG  3   2  -1   4  -1   8   1
M  END
> <s_m_source_file>
../3ujd_ligand.sdf

> <i_m_source_file_index>
1

> <s_epik_input>
W09IXVAoPU8pKFtPSF0pT1tDSDJdW0NIMl1bTitdKFtDSDNdKShbQ0gzXSlbQ0gzXQ==

> <s_epik_cmdline>
J2VwaWtfYXBwJywgJy1pbWFlJywgJ2xpZ2FuZF9wcm8ubWFlJywgJy1vbWFlJywgJ2xpZ2FuZF9wcmVwLm1hZScsICctbXMnLCAnMScsICctcGgnLCAnNycsICctcGh0JywgJzAuNScsICctbnQn

> <r_epik_Ionization_Penalty>
  0.0482

> <r_epik_Ionization_Penalty_Charging>
  0.0482

> <r_epik_Ionization_Penalty_Neutral>
  0.0000

> <r_epik_State_Penalty>
  0.0411

> <r_epik_Charging_Adjusted_Penalty>
0.0892630550767564

> <i_epik_Tot_Q>
-1

> <i_epik_Tot_abs_Q>
3

$$$$
