3ukr_ligand
                    3D
 Schrodinger Suite 2020-3.
 38 40  0  0  1  0            999 V2000
    2.3450   14.7090   38.6440 C   0  0  0  0  0  0
    1.1600   14.9290   37.7010 C   0  0  0  0  0  0
    0.5770   13.9750   36.9820 N   0  0  0  0  0  0
   -0.4480   14.5090   36.3170 C   0  0  0  0  0  0
   -1.3870   13.9460   35.4600 C   0  0  0  0  0  0
   -2.3950   14.7320   34.9120 C   0  0  0  0  0  0
   -2.4670   16.0850   35.2170 C   0  0  0  0  0  0
   -1.5270   16.6530   36.0720 C   0  0  0  0  0  0
   -0.5220   15.8650   36.6190 C   0  0  0  0  0  0
    0.5140   16.1420   37.5030 C   0  0  0  0  0  0
    0.8950   17.5120   38.0720 C   0  0  0  0  0  0
    0.1010   17.8350   39.3400 C   0  0  0  0  0  0
    0.4990   16.9240   40.4230 N   0  0  0  0  0  0
    1.4030   17.2820   41.3290 C   0  0  0  0  0  0
    1.9490   18.3870   41.3270 O   0  0  0  0  0  0
    1.7400   16.2520   42.4110 C   0  0  0  0  0  0
    2.8370   16.4880   43.2280 C   0  0  0  0  0  0
    3.1860   15.5860   44.2290 C   0  0  0  0  0  0
    2.4320   14.4330   44.4160 C   0  0  0  0  0  0
    1.3330   14.1930   43.6000 C   0  0  0  0  0  0
    0.9860   15.0950   42.6030 C   0  0  0  0  0  0
   -0.0980   14.8300   41.8450 F   0  0  0  0  0  0
    2.6555   13.6545   38.6028 H   0  0  0  0  0  0
    2.0478   14.9639   39.6720 H   0  0  0  0  0  0
    3.1835   15.3505   38.3350 H   0  0  0  0  0  0
   -1.3342   12.8753   35.2133 H   0  0  0  0  0  0
   -3.1360   14.2804   34.2360 H   0  0  0  0  0  0
   -3.2655   16.7049   34.7832 H   0  0  0  0  0  0
   -1.5793   17.7149   36.3122 H   0  0  0  0  0  0
    1.9664   17.5204   38.3212 H   0  0  0  0  0  0
    0.6865   18.2907   37.3236 H   0  0  0  0  0  0
    0.3032   18.8724   39.6449 H   0  0  0  0  0  0
   -0.9740   17.7144   39.1402 H   0  0  0  0  0  0
    0.0464   15.9240   40.4948 H   0  0  0  0  0  0
    3.4319   17.3899   43.0841 H   0  0  0  0  0  0
    4.0489   15.7833   44.8651 H   0  0  0  0  0  0
    2.7010   13.7221   45.1973 H   0  0  0  0  0  0
    0.7392   13.2903   43.7436 H   0  0  0  0  0  0
  1  2  1  0  0  0
  1 23  1  0  0  0
  1 24  1  0  0  0
  1 25  1  0  0  0
  2  3  2  0  0  0
  2 10  1  0  0  0
  3  4  1  0  0  0
  4  5  2  0  0  0
  4  9  1  0  0  0
  5  6  1  0  0  0
  5 26  1  0  0  0
  6  7  2  0  0  0
  6 27  1  0  0  0
  7  8  1  0  0  0
  7 28  1  0  0  0
  8  9  1  0  0  0
  8 29  1  0  0  0
  9 10  2  0  0  0
 10 11  1  0  0  0
 11 12  1  0  0  0
 11 30  1  0  0  0
 11 31  1  0  0  0
 12 13  1  0  0  0
 12 32  1  0  0  0
 12 33  1  0  0  0
 13 14  1  0  0  0
 13 34  1  0  0  0
 14 15  2  0  0  0
 14 16  1  0  0  0
 16 17  2  0  0  0
 16 21  1  0  0  0
 17 18  1  0  0  0
 17 35  1  0  0  0
 18 19  2  0  0  0
 18 36  1  0  0  0
 19 20  1  0  0  0
 19 37  1  0  0  0
 20 21  2  0  0  0
 20 38  1  0  0  0
 21 22  1  0  0  0
M  END
> <s_m_source_file>
../3ukr_ligand.sdf

> <i_m_source_file_index>
1

> <s_epik_input>
W0NIXTFbQ0hdPVtDSF1bQ0gyXUMoQz0xMik9QyhDKD1OMilbQ0gzXSlbQ0gyXVtDSDJdW05IXUMoPU8pYzNbY0hdW2NIXVtjSF1bY0hdYzNG

> <s_epik_cmdline>
J2VwaWtfYXBwJywgJy1pbWFlJywgJ2xpZ2FuZF9wcm8ubWFlJywgJy1vbWFlJywgJ2xpZ2FuZF9wcmVwLm1hZScsICctbXMnLCAnMScsICctcGgnLCAnNycsICctcGh0JywgJzAuNScsICctbnQn

> <r_lp_tautomer_probability>
1

> <r_epik_Ionization_Penalty>
  0.0000

> <r_epik_Ionization_Penalty_Charging>
  0.0000

> <r_epik_Ionization_Penalty_Neutral>
  0.0000

> <r_epik_State_Penalty>
 -0.0000

> <r_epik_Charging_Adjusted_Penalty>
0

> <i_epik_Tot_Q>
0

> <i_epik_Tot_abs_Q>
0

> <s_epik_Chemistry_Notes>
This compound has an imine and may undergo hydrolysis.

$$$$
