3uli_ligand
                    3D
 Schrodinger Suite 2020-3.
 52 55  0  0  1  0            999 V2000
    6.9650   23.3700    8.1180 C   0  0  0  0  0  0
    7.2100   24.4700    7.2180 O   0  0  0  0  0  0
    6.1640   25.4070    7.2250 C   0  0  0  0  0  0
    5.1780   25.3830    8.1940 C   0  0  0  0  0  0
    4.1820   26.3340    8.1570 C   0  0  0  0  0  0
    4.1530   27.2980    7.1590 C   0  0  0  0  0  0
    5.1350   27.3240    6.1870 C   0  0  0  0  0  0
    6.1320   26.3690    6.2250 C   0  0  0  0  0  0
    3.0720   28.3190    7.2490 C   0  0  0  0  0  0
    3.2070   29.6280    6.7870 N   0  0  0  0  0  0
    2.0920   30.2330    7.1780 C   0  0  0  0  0  0
    1.2730   29.1820    7.8690 C   0  0  0  0  0  0
    1.9460   28.0750    7.8650 N   0  0  0  0  0  0
    0.0400   29.5240    8.4050 C   0  0  0  0  0  0
   -0.3170   30.8580    8.2090 C   0  0  0  0  0  0
    0.4780   31.7790    7.5620 C   0  0  0  0  0  0
    1.6600   31.4580    7.0610 N   0  0  0  0  0  0
   -1.9660   31.5260    8.8450 Br  0  0  0  0  0  0
   -0.8850   28.7000    9.0950 N   0  5  0  0  0  0
   -0.4680   27.3420    9.4370 C   0  0  0  0  0  0
    0.3930   27.3810   10.6910 C   0  0  0  0  0  0
   -0.2860   28.0970   11.8380 C   0  0  0  0  0  0
   -1.4080   27.3320   12.3190 N   0  0  0  0  0  0
   -2.7010   27.6520   11.9640 C   0  0  0  0  0  0
   -3.0000   28.6480   11.3080 O   0  0  0  0  0  0
   -3.7700   26.7090   12.4100 C   0  0  0  0  0  0
   -4.8350   26.3890   11.3950 C   0  0  0  0  0  0
   -5.1620   27.2760   12.5370 C   0  0  0  0  0  0
   -3.5020   25.6130   13.4010 C   0  0  0  0  0  0
   -3.2490   26.0590   14.7910 N   0  3  0  0  0  0
    7.8098   22.6667    8.0759 H   0  0  0  0  0  0
    6.0413   22.8518    7.8208 H   0  0  0  0  0  0
    6.8570   23.7525    9.1437 H   0  0  0  0  0  0
    5.1886   24.6231    8.9754 H   0  0  0  0  0  0
    3.4058   26.3293    8.9223 H   0  0  0  0  0  0
    5.1229   28.0836    5.4054 H   0  0  0  0  0  0
    6.9060   26.3708    5.4575 H   0  0  0  0  0  0
    0.1221   32.8042    7.4597 H   0  0  0  0  0  0
   -1.3570   26.7206    9.6199 H   0  0  0  0  0  0
    0.1122   26.9161    8.6051 H   0  0  0  0  0  0
    0.6137   26.3536   11.0163 H   0  0  0  0  0  0
    1.3343   27.9069   10.4733 H   0  0  0  0  0  0
    0.4312   28.2340   12.6607 H   0  0  0  0  0  0
   -0.6442   29.0793   11.4964 H   0  0  0  0  0  0
   -1.2425   26.4718   12.9844 H   0  0  0  0  0  0
   -5.6052   26.1484   10.6474 H   0  0  0  0  0  0
   -6.1748   27.6935   12.6367 H   0  0  0  0  0  0
   -4.3693   24.9379   13.4445 H   0  0  0  0  0  0
   -2.6118   25.0467   13.0897 H   0  0  0  0  0  0
   -3.0657   25.1824   15.4297 H   0  0  0  0  0  0
   -4.1255   26.6084   15.1650 H   0  0  0  0  0  0
   -2.3680   26.7173   14.8102 H   0  0  0  0  0  0
  1  2  1  0  0  0
  1 31  1  0  0  0
  1 32  1  0  0  0
  1 33  1  0  0  0
  2  3  1  0  0  0
  3  4  2  0  0  0
  3  8  1  0  0  0
  4  5  1  0  0  0
  4 34  1  0  0  0
  5  6  2  0  0  0
  5 35  1  0  0  0
  6  7  1  0  0  0
  6  9  1  0  0  0
  7  8  2  0  0  0
  7 36  1  0  0  0
  8 37  1  0  0  0
  9 10  2  0  0  0
  9 13  1  0  0  0
 10 11  1  0  0  0
 11 12  1  0  0  0
 11 17  2  0  0  0
 12 13  2  0  0  0
 12 14  1  0  0  0
 14 15  2  0  0  0
 14 19  1  0  0  0
 15 16  1  0  0  0
 15 18  1  0  0  0
 16 17  1  0  0  0
 16 38  1  0  0  0
 19 20  1  0  0  0
 20 21  1  0  0  0
 20 39  1  0  0  0
 20 40  1  0  0  0
 21 22  1  0  0  0
 21 41  1  0  0  0
 21 42  1  0  0  0
 22 23  1  0  0  0
 22 43  1  0  0  0
 22 44  1  0  0  0
 23 24  1  0  0  0
 23 45  1  0  0  0
 24 25  2  0  0  0
 24 26  1  0  0  0
 26 27  1  0  0  0
 26 28  1  0  0  0
 26 29  1  0  0  0
 27 28  2  0  0  0
 27 46  1  0  0  0
 28 47  1  0  0  0
 29 30  1  0  0  0
 29 48  1  0  0  0
 29 49  1  0  0  0
 30 50  1  0  0  0
 30 51  1  0  0  0
 30 52  1  0  0  0
M  CHG  2  19  -1  30   1
M  END
> <s_m_source_file>
../3uli_ligand.sdf

> <i_m_source_file_index>
1

> <s_epik_input>
W0NIM11PYzFbY0hdW2NIXWMoW2NIXVtjSF0xKUMoPU4yKU49QyhDMj0zKUMoPUMoQnIpW0NIMl1OMylbTkhdW0NIMl1bQ0gyXVtDSDJdW05IXUMoPU8pQzQoW0NIXT1bQ0hdNClbQ0gyXVtOSDMrXQ==

> <s_epik_cmdline>
J2VwaWtfYXBwJywgJy1pbWFlJywgJ2xpZ2FuZF9wcm8ubWFlJywgJy1vbWFlJywgJ2xpZ2FuZF9wcmVwLm1hZScsICctbXMnLCAnMScsICctcGgnLCAnNycsICctcGh0JywgJzAuNScsICctbnQn

> <r_lp_tautomer_probability>
1

> <r_epik_Ionization_Penalty>
  0.0051

> <r_epik_Ionization_Penalty_Charging>
  0.0051

> <r_epik_Ionization_Penalty_Neutral>
  0.0000

> <r_epik_State_Penalty>
 -0.0000

> <r_epik_Charging_Adjusted_Penalty>
0.0050674169951836

> <i_epik_Tot_Q>
0

> <i_epik_Tot_abs_Q>
2

> <s_epik_Chemistry_Notes>
This compound has an imine and may undergo hydrolysis.

$$$$
