3umo_ligand
                    3D
 Schrodinger Suite 2020-3.
 43 45  0  0  1  0            999 V2000
    8.5350  -15.7940   16.2410 P   0  0  0  0  0  0
    9.3870  -15.6450   17.4520 O   0  0  0  0  0  0
    7.1210  -15.4710   16.7160 O   0  5  0  0  0  0
    8.9430  -14.9080   15.1150 O   0  5  0  0  0  0
    9.7960  -18.1030   15.4680 P   0  0  1  0  0  0
   10.5590  -17.4840   14.2570 O   0  5  0  0  0  0
   10.6700  -18.3090   16.7230 O   0  0  0  0  0  0
    8.4680  -17.2890   15.8110 O   0  0  0  0  0  0
    8.5400  -20.1130   13.8340 P   0  0  1  0  0  0
    8.4220  -19.0650   12.7670 O   0  0  0  0  0  0
    9.2260  -21.3940   13.3550 O   0  5  0  0  0  0
    9.2820  -19.5560   15.0790 O   0  0  0  0  0  0
    7.0550  -20.4120   14.3760 O   0  0  0  0  0  0
    6.8500  -21.4700   15.2490 C   0  0  0  0  0  0
    5.8050  -22.4310   14.9010 C   0  0  1  0  0  0
    4.6290  -21.6910   14.5070 O   0  0  0  0  0  0
    6.1360  -23.2160   13.7010 C   0  0  1  0  0  0
    6.9130  -24.3120   14.0060 O   0  0  0  0  0  0
    4.8090  -23.5720   13.1700 C   0  0  1  0  0  0
    4.2390  -24.5510   13.9390 O   0  0  0  0  0  0
    4.0510  -22.3190   13.3860 C   0  0  2  0  0  0
    4.1210  -21.4380   12.2220 N   0  0  0  0  0  0
    4.9450  -20.3850   12.0690 C   0  0  0  0  0  0
    4.6950  -19.8410   10.8520 N   0  0  0  0  0  0
    3.7200  -20.5480   10.2440 C   0  0  0  0  0  0
    3.0700  -20.4410    9.0100 C   0  0  0  0  0  0
    3.4270  -19.3580    8.0340 N   0  0  0  0  0  0
    2.1150  -21.3380    8.7090 N   0  0  0  0  0  0
    1.7810  -22.3180    9.5660 C   0  0  0  0  0  0
    2.3840  -22.4390   10.7520 N   0  0  0  0  0  0
    3.3470  -21.5740   11.1160 C   0  0  0  0  0  0
    7.7746  -22.0598   15.3338 H   0  0  0  0  0  0
    6.5719  -21.0798   16.2391 H   0  0  0  0  0  0
    5.6639  -23.0772   15.7800 H   0  0  0  0  0  0
    6.7939  -22.7179   12.9736 H   0  0  0  0  0  0
    7.9262  -24.1724   14.4108 H   0  0  0  0  0  0
    4.8097  -23.9941   12.1542 H   0  0  0  0  0  0
    4.6525  -25.5703   13.9272 H   0  0  0  0  0  0
    2.9861  -22.5129   13.5822 H   0  0  0  0  0  0
    5.6804  -20.0330   12.7924 H   0  0  0  0  0  0
    4.2093  -18.6268    8.2857 H   0  0  0  0  0  0
    2.9064  -19.2955    7.0670 H   0  0  0  0  0  0
    1.0025  -23.0284    9.2878 H   0  0  0  0  0  0
  1  2  2  0  0  0
  1  3  1  0  0  0
  1  4  1  0  0  0
  1  8  1  0  0  0
  5  6  1  0  0  0
  5  7  2  0  0  0
  5  8  1  0  0  0
  5 12  1  0  0  0
  9 10  2  0  0  0
  9 11  1  0  0  0
  9 12  1  0  0  0
  9 13  1  0  0  0
 13 14  1  0  0  0
 14 15  1  0  0  0
 14 32  1  0  0  0
 14 33  1  0  0  0
 15 16  1  0  0  0
 15 17  1  0  0  0
 15 34  1  0  0  0
 16 21  1  0  0  0
 17 18  1  0  0  0
 17 19  1  0  0  0
 17 35  1  0  0  0
 18 36  1  0  0  0
 19 20  1  0  0  0
 19 21  1  0  0  0
 19 37  1  0  0  0
 20 38  1  0  0  0
 21 22  1  0  0  0
 21 39  1  0  0  0
 22 23  1  0  0  0
 22 31  1  0  0  0
 23 24  2  0  0  0
 23 40  1  0  0  0
 24 25  1  0  0  0
 25 26  2  0  0  0
 25 31  1  0  0  0
 26 27  1  0  0  0
 26 28  1  0  0  0
 27 41  1  0  0  0
 27 42  1  0  0  0
 28 29  2  0  0  0
 29 30  1  0  0  0
 29 43  1  0  0  0
 30 31  2  0  0  0
M  CHG  4   3  -1   4  -1   6  -1  11  -1
M  END
> <s_m_source_file>
../3umo_ligand.sdf

> <i_m_source_file_index>
1

> <s_epik_input>
Tz1QKFtPSF0pKFtPSF0pT1tQQF0oPU8pKFtPSF0pT1tQQEBdKD1PKShbT0hdKU9bQ0gyXVtDQEhdMU9bQ0BIXShbQ0BIXShbT0hdKVtDQEBIXTFbT0hdKW4oW2NIXW4yKWMoYzIzKW5bY0hdbmMzW05IMl0=

> <s_epik_cmdline>
J2VwaWtfYXBwJywgJy1pbWFlJywgJ2xpZ2FuZF9wcm8ubWFlJywgJy1vbWFlJywgJ2xpZ2FuZF9wcmVwLm1hZScsICctbXMnLCAnMScsICctcGgnLCAnNycsICctcGh0JywgJzAuNScsICctbnQn

> <r_lp_tautomer_probability>
0.999997216410988

> <r_epik_Ionization_Penalty>
  0.0818

> <r_epik_Ionization_Penalty_Charging>
  0.0813

> <r_epik_Ionization_Penalty_Neutral>
  0.0004

> <r_epik_State_Penalty>
  0.0708

> <r_epik_Charging_Adjusted_Penalty>
0.152157994418768

> <i_epik_Tot_Q>
-4

> <i_epik_Tot_abs_Q>
4

> <s_epik_Chemistry_Notes>
This compound contains an acetal/aminal-like group ( X-CH(R)-Y where X, Y are N, S, or O) that may be acid/base labile, releasing an aldehyde.

$$$$
