3ump_ligand
                    3D
 Schrodinger Suite 2020-3.
 43 45  0  0  1  0            999 V2000
   13.3670   60.2200   16.2880 P   0  0  0  0  0  0
   12.4950   60.0390   17.4880 O   0  5  0  0  0  0
   14.7860   59.8980   16.7680 O   0  5  0  0  0  0
   13.0250   59.3730   15.1190 O   0  0  0  0  0  0
   12.1060   62.5210   15.5120 P   0  0  1  0  0  0
   11.4130   61.8610   14.2830 O   0  5  0  0  0  0
   11.2240   62.6970   16.7810 O   0  0  0  0  0  0
   13.4210   61.7130   15.8940 O   0  0  0  0  0  0
   13.4030   64.4790   13.8650 P   0  0  1  0  0  0
   13.5420   63.4080   12.8100 O   0  0  0  0  0  0
   12.7340   65.7450   13.3720 O   0  5  0  0  0  0
   12.6380   63.9660   15.1140 O   0  0  0  0  0  0
   14.8880   64.8000   14.4230 O   0  0  0  0  0  0
   15.1090   65.8300   15.3330 C   0  0  0  0  0  0
   16.1180   66.8310   14.9610 C   0  0  1  0  0  0
   17.3000   66.1000   14.5460 O   0  0  0  0  0  0
   15.7720   67.5840   13.7500 C   0  0  1  0  0  0
   15.0070   68.6860   14.0450 O   0  0  0  0  0  0
   17.0920   67.9610   13.2040 C   0  0  1  0  0  0
   17.6720   68.9340   13.9720 O   0  0  0  0  0  0
   17.8680   66.7320   13.4100 C   0  0  2  0  0  0
   17.8010   65.8570   12.2520 N   0  0  0  0  0  0
   16.9900   64.7860   12.1160 C   0  0  0  0  0  0
   17.2490   64.2500   10.9010 N   0  0  0  0  0  0
   18.2110   64.9900   10.2870 C   0  0  0  0  0  0
   18.8670   64.9170    9.0550 C   0  0  0  0  0  0
   18.5260   63.8380    8.0820 N   0  0  0  0  0  0
   19.8070   65.8350    8.7600 N   0  0  0  0  0  0
   20.1240   66.8140    9.6200 C   0  0  0  0  0  0
   19.5190   66.9130   10.8080 N   0  0  0  0  0  0
   18.5720   66.0190   11.1530 C   0  0  0  0  0  0
   14.1746   66.3896   15.4874 H   0  0  0  0  0  0
   15.4457   65.4070   16.2910 H   0  0  0  0  0  0
   16.2369   67.5039   15.8230 H   0  0  0  0  0  0
   15.1128   67.0528   13.0476 H   0  0  0  0  0  0
   13.9964   68.5588   14.4604 H   0  0  0  0  0  0
   17.0680   68.3838   12.1888 H   0  0  0  0  0  0
   17.2550   69.9519   13.9774 H   0  0  0  0  0  0
   18.9339   66.9420   13.5822 H   0  0  0  0  0  0
   16.2657   64.4229   12.8451 H   0  0  0  0  0  0
   17.7564   63.0935    8.3338 H   0  0  0  0  0  0
   19.0443   63.7872    7.1131 H   0  0  0  0  0  0
   20.8880   67.5414    9.3457 H   0  0  0  0  0  0
  1  2  1  0  0  0
  1  3  1  0  0  0
  1  4  2  0  0  0
  1  8  1  0  0  0
  5  6  1  0  0  0
  5  7  2  0  0  0
  5  8  1  0  0  0
  5 12  1  0  0  0
  9 10  2  0  0  0
  9 11  1  0  0  0
  9 12  1  0  0  0
  9 13  1  0  0  0
 13 14  1  0  0  0
 14 15  1  0  0  0
 14 32  1  0  0  0
 14 33  1  0  0  0
 15 16  1  0  0  0
 15 17  1  0  0  0
 15 34  1  0  0  0
 16 21  1  0  0  0
 17 18  1  0  0  0
 17 19  1  0  0  0
 17 35  1  0  0  0
 18 36  1  0  0  0
 19 20  1  0  0  0
 19 21  1  0  0  0
 19 37  1  0  0  0
 20 38  1  0  0  0
 21 22  1  0  0  0
 21 39  1  0  0  0
 22 23  1  0  0  0
 22 31  1  0  0  0
 23 24  2  0  0  0
 23 40  1  0  0  0
 24 25  1  0  0  0
 25 26  2  0  0  0
 25 31  1  0  0  0
 26 27  1  0  0  0
 26 28  1  0  0  0
 27 41  1  0  0  0
 27 42  1  0  0  0
 28 29  2  0  0  0
 29 30  1  0  0  0
 29 43  1  0  0  0
 30 31  2  0  0  0
M  CHG  4   2  -1   3  -1   6  -1  11  -1
M  END
> <s_m_source_file>
../3ump_ligand.sdf

> <i_m_source_file_index>
1

> <s_epik_input>
W09IXVAoPU8pKFtPSF0pT1tQQF0oPU8pKFtPSF0pT1tQQEBdKD1PKShbT0hdKU9bQ0gyXVtDQEhdMU9bQ0BIXShbQ0BIXShbT0hdKVtDQEBIXTFbT0hdKW4oW2NIXW4yKWMoYzIzKW5bY0hdbmMzW05IMl0=

> <s_epik_cmdline>
J2VwaWtfYXBwJywgJy1pbWFlJywgJ2xpZ2FuZF9wcm8ubWFlJywgJy1vbWFlJywgJ2xpZ2FuZF9wcmVwLm1hZScsICctbXMnLCAnMScsICctcGgnLCAnNycsICctcGh0JywgJzAuNScsICctbnQn

> <r_lp_tautomer_probability>
0.999997216410988

> <r_epik_Ionization_Penalty>
  0.0818

> <r_epik_Ionization_Penalty_Charging>
  0.0813

> <r_epik_Ionization_Penalty_Neutral>
  0.0004

> <r_epik_State_Penalty>
  0.0708

> <r_epik_Charging_Adjusted_Penalty>
0.152157994418768

> <i_epik_Tot_Q>
-4

> <i_epik_Tot_abs_Q>
4

> <s_epik_Chemistry_Notes>
This compound contains an acetal/aminal-like group ( X-CH(R)-Y where X, Y are N, S, or O) that may be acid/base labile, releasing an aldehyde.

$$$$
