3umq_ligand
                    3D
 Schrodinger Suite 2020-3.
 13 12  0  0  1  0            999 V2000
  -34.8580  -25.3280  -44.7580 C   0  0  0  0  0  0
  -35.6440  -24.9180  -43.5360 C   0  0  0  0  0  0
  -35.1840  -23.5340  -43.0680 C   0  0  0  0  0  0
  -36.2480  -22.8540  -42.2370 C   0  0  0  0  0  0
  -36.5670  -21.6910  -42.4950 O   0  5  0  0  0  0
  -36.7810  -23.4660  -41.3100 O   0  0  0  0  0  0
  -35.1907  -26.3221  -45.0914 H   0  0  0  0  0  0
  -33.7869  -25.3639  -44.5100 H   0  0  0  0  0  0
  -35.0237  -24.5968  -45.5629 H   0  0  0  0  0  0
  -36.7151  -24.8821  -43.7840 H   0  0  0  0  0  0
  -35.4783  -25.6492  -42.7311 H   0  0  0  0  0  0
  -34.2752  -23.6369  -42.4569 H   0  0  0  0  0  0
  -34.9678  -22.9040  -43.9434 H   0  0  0  0  0  0
  1  2  1  0  0  0
  1  7  1  0  0  0
  1  8  1  0  0  0
  1  9  1  0  0  0
  2  3  1  0  0  0
  2 10  1  0  0  0
  2 11  1  0  0  0
  3  4  1  0  0  0
  3 12  1  0  0  0
  3 13  1  0  0  0
  4  5  1  0  0  0
  4  6  2  0  0  0
M  CHG  1   5  -1
M  END
> <s_m_source_file>
../3umq_ligand.sdf

> <i_m_source_file_index>
1

> <s_epik_input>
W0NIM11bQ0gyXVtDSDJdQyg9TylbT0hd

> <s_epik_cmdline>
J2VwaWtfYXBwJywgJy1pbWFlJywgJ2xpZ2FuZF9wcm8ubWFlJywgJy1vbWFlJywgJ2xpZ2FuZF9wcmVwLm1hZScsICctbXMnLCAnMScsICctcGgnLCAnNycsICctcGh0JywgJzAuNScsICctbnQn

> <r_lp_tautomer_probability>
1

> <r_epik_Ionization_Penalty>
  0.0047

> <r_epik_Ionization_Penalty_Charging>
  0.0047

> <r_epik_Ionization_Penalty_Neutral>
  0.0000

> <r_epik_State_Penalty>
 -0.0000

> <r_epik_Charging_Adjusted_Penalty>
0.00465554509769544

> <i_epik_Tot_Q>
-1

> <i_epik_Tot_abs_Q>
1

$$$$
