3umw_ligand
                    3D
 Schrodinger Suite 2020-3.
 52 56  0  0  1  0            999 V2000
   16.8620  -37.1290   -3.8790 C   0  0  0  0  0  0
   17.4120  -35.9520   -3.0510 C   0  0  0  0  0  0
   18.2650  -36.4210   -1.9460 N   0  3  0  0  0  0
   17.5190  -37.3420   -1.0760 C   0  0  0  0  0  0
   17.0800  -38.5710   -1.8670 C   0  0  0  0  0  0
   16.2990  -38.1780   -3.0220 N   0  0  1  0  0  0
   18.8530  -35.2840   -1.1810 C   0  0  0  0  0  0
   17.8050  -34.4550   -0.4260 C   0  0  0  0  0  0
   17.5310  -34.6960    0.9240 C   0  0  0  0  0  0
   16.5620  -33.9710    1.6140 C   0  0  0  0  0  0
   15.8390  -32.9650    1.0150 C   0  0  0  0  0  0
   16.0990  -32.7190   -0.3260 C   0  0  0  0  0  0
   17.0650  -33.4340   -1.0440 C   0  0  0  0  0  0
   17.2790  -33.1320   -2.3700 O   0  0  0  0  0  0
   16.4540  -32.2140   -3.1250 C   0  0  0  0  0  0
   18.1650  -35.6830    1.7200 O   0  0  0  0  0  0
   17.6410  -35.6160    2.9770 C   0  0  0  0  0  0
   16.6240  -34.5600    2.9750 C   0  0  0  0  0  0
   15.9320  -34.2480    4.0220 O   0  0  0  0  0  0
   18.0430  -36.4710    4.1090 C   0  0  0  0  0  0
   19.0460  -37.5590    4.1840 C   0  0  0  0  0  0
   19.3090  -38.1030    5.3850 N   0  0  0  0  0  0
   20.2620  -39.0990    5.1430 N   0  3  0  0  0  0
   20.5900  -39.1470    3.8310 C   0  0  0  0  0  0
   19.8620  -38.1920    3.1390 C   0  0  0  0  0  0
   19.9610  -38.0200    1.7660 C   0  0  0  0  0  0
   20.8440  -38.8330    1.0720 C   0  0  0  0  0  0
   21.5940  -39.8000    1.7520 C   0  0  0  0  0  0
   21.4730  -39.9620    3.1330 C   0  0  0  0  0  0
   16.0688  -36.7666   -4.5495 H   0  0  0  0  0  0
   17.6745  -37.5685   -4.4762 H   0  0  0  0  0  0
   18.0117  -35.2963   -3.6993 H   0  0  0  0  0  0
   16.5743  -35.3801   -2.6253 H   0  0  0  0  0  0
   19.1004  -36.9870   -2.3839 H   0  0  0  0  0  0
   18.1618  -37.6602   -0.2420 H   0  0  0  0  0  0
   16.6292  -36.8316   -0.6789 H   0  0  0  0  0  0
   17.9677  -39.1244   -2.2072 H   0  0  0  0  0  0
   16.4668  -39.2205   -1.2250 H   0  0  0  0  0  0
   15.3289  -37.8452   -2.6244 H   0  0  0  0  0  0
   19.5667  -35.6714   -0.4390 H   0  0  0  0  0  0
   19.3751  -34.6072   -1.8734 H   0  0  0  0  0  0
   15.0971  -32.3885    1.5676 H   0  0  0  0  0  0
   15.5313  -31.9420   -0.8380 H   0  0  0  0  0  0
   16.8311  -32.1452   -4.1560 H   0  0  0  0  0  0
   16.4873  -31.2199   -2.6553 H   0  0  0  0  0  0
   15.4164  -32.5790   -3.1376 H   0  0  0  0  0  0
   17.5668  -36.3417    5.0921 H   0  0  0  0  0  0
   19.3633  -37.2692    1.2490 H   0  0  0  0  0  0
   20.9546  -38.7189   -0.0064 H   0  0  0  0  0  0
   22.2824  -40.4355    1.1949 H   0  0  0  0  0  0
   22.0618  -40.7158    3.6557 H   0  0  0  0  0  0
   20.6379  -39.7141    5.9739 H   0  0  0  0  0  0
  1  2  1  0  0  0
  1  6  1  0  0  0
  1 30  1  0  0  0
  1 31  1  0  0  0
  2  3  1  0  0  0
  2 32  1  0  0  0
  2 33  1  0  0  0
  3  4  1  0  0  0
  3  7  1  0  0  0
  3 34  1  0  0  0
  4  5  1  0  0  0
  4 35  1  0  0  0
  4 36  1  0  0  0
  5  6  1  0  0  0
  5 37  1  0  0  0
  5 38  1  0  0  0
  6 39  1  0  0  0
  7  8  1  0  0  0
  7 40  1  0  0  0
  7 41  1  0  0  0
  8  9  2  0  0  0
  8 13  1  0  0  0
  9 10  1  0  0  0
  9 16  1  0  0  0
 10 11  2  0  0  0
 10 18  1  0  0  0
 11 12  1  0  0  0
 11 42  1  0  0  0
 12 13  2  0  0  0
 12 43  1  0  0  0
 13 14  1  0  0  0
 14 15  1  0  0  0
 15 44  1  0  0  0
 15 45  1  0  0  0
 15 46  1  0  0  0
 16 17  1  0  0  0
 17 18  1  0  0  0
 17 20  2  0  0  0
 18 19  2  0  0  0
 20 21  1  0  0  0
 20 47  1  0  0  0
 21 22  2  0  0  0
 21 25  1  0  0  0
 22 23  1  0  0  0
 23 24  1  0  0  0
 23 52  1  0  0  0
 24 25  2  0  0  0
 24 29  1  0  0  0
 25 26  1  0  0  0
 26 27  2  0  0  0
 26 48  1  0  0  0
 27 28  1  0  0  0
 27 49  1  0  0  0
 28 29  2  0  0  0
 28 50  1  0  0  0
 29 51  1  0  0  0
M  CHG  2   3   1  23   1
M  END
> <s_m_source_file>
../3umw_ligand.sdf

> <i_m_source_file_index>
1

> <s_epik_input>
W0NIMl0xW0NIMl1bTkgyK11bQ0gyXVtDSDJdW05IK10xW0NIMl1jMmMoT1tDSDNdKVtjSF1bY0hdYyhjMjMpQyg9TylDKFxPMyk9W0NIXVxjKG5bbkhdNCljKGM0NSlbY0hdW2NIXVtjSF1bY0hdNQ==

> <s_epik_cmdline>
J2VwaWtfYXBwJywgJy1pbWFlJywgJ2xpZ2FuZF9wcm8ubWFlJywgJy1vbWFlJywgJ2xpZ2FuZF9wcmVwLm1hZScsICctbXMnLCAnMScsICctcGgnLCAnNycsICctcGh0JywgJzAuNScsICctbnQn

> <r_lp_tautomer_probability>
1

> <r_epik_Ionization_Penalty>
  0.0361

> <r_epik_Ionization_Penalty_Charging>
  0.0155

> <r_epik_Ionization_Penalty_Neutral>
  0.0207

> <r_epik_State_Penalty>
 -0.0000

> <r_epik_Charging_Adjusted_Penalty>
0.0154526225118262

> <i_epik_Tot_Q>
2

> <i_epik_Tot_abs_Q>
2

> <s_epik_Chemistry_Notes>
This compound has an imine and may undergo hydrolysis.

$$$$
