3umx_ligand
                    3D
 Schrodinger Suite 2020-3.
 54 58  0  0  1  0            999 V2000
   24.1170   33.3250   -5.7640 C   0  0  0  0  0  0
   23.0030   34.3770   -5.5360 C   0  0  0  0  0  0
   22.8890   34.8270   -4.0580 C   0  0  0  0  0  0
   22.6300   33.6080   -3.2470 N   0  3  0  0  0  0
   23.7890   32.7210   -3.0120 C   0  0  0  0  0  0
   23.6420   31.5060   -3.9550 C   0  0  0  0  0  0
   23.7650   31.8500   -5.4510 C   0  0  0  0  0  0
   21.3520   33.5110   -2.4580 C   0  0  0  0  0  0
   21.1670   32.3100   -1.4980 C   0  0  0  0  0  0
   21.4490   32.3860   -0.1240 C   0  0  0  0  0  0
   21.2810   31.2650    0.6670 C   0  0  0  0  0  0
   20.8360   30.0350    0.2450 C   0  0  0  0  0  0
   20.5580   29.8860   -1.1150 C   0  0  0  0  0  0
   20.6820   30.9750   -1.9960 C   0  0  0  0  0  0
   21.9060   33.5530    0.5940 O   0  0  0  0  0  0
   22.0530   33.1760    1.8990 C   0  0  3  0  0  0
   21.6550   31.7390    1.9870 C   0  0  0  0  0  0
   22.4950   34.0920    2.9980 C   0  0  0  0  0  0
   22.9360   35.5070    2.9310 C   0  0  0  0  0  0
   23.0180   36.3110    1.7370 C   0  0  0  0  0  0
   23.5480   37.5110    2.2110 C   0  0  0  0  0  0
   23.7850   37.4490    3.5650 N   0  0  0  0  0  0
   23.4250   36.2170    4.0210 C   0  0  0  0  0  0
   22.6920   36.0370    0.4110 C   0  0  0  0  0  0
   22.9400   37.0650   -0.4940 C   0  0  0  0  0  0
   23.4540   38.3040   -0.0500 C   0  0  0  0  0  0
   23.7600   38.5260    1.2960 C   0  0  0  0  0  0
   21.6170   30.9820    3.0220 O   0  0  0  0  0  0
   20.3660   30.7870   -3.3160 O   0  5  0  0  0  0
   24.4231   33.3382   -6.8205 H   0  0  0  0  0  0
   24.9825   33.5638   -5.1285 H   0  0  0  0  0  0
   23.2130   35.2706   -6.1421 H   0  0  0  0  0  0
   22.0321   33.9530   -5.8320 H   0  0  0  0  0  0
   23.8289   35.3065   -3.7472 H   0  0  0  0  0  0
   22.0606   35.5435   -3.9557 H   0  0  0  0  0  0
   22.1858   32.8624   -3.9228 H   0  0  0  0  0  0
   24.7187   33.2669   -3.2303 H   0  0  0  0  0  0
   23.7937   32.3942   -1.9617 H   0  0  0  0  0  0
   24.4259   30.7686   -3.7278 H   0  0  0  0  0  0
   22.6532   31.0465   -3.8096 H   0  0  0  0  0  0
   22.7973   31.5987   -5.9097 H   0  0  0  0  0  0
   24.5462   31.1920   -5.8594 H   0  0  0  0  0  0
   21.2470   34.4004   -1.8193 H   0  0  0  0  0  0
   20.4980   33.4529   -3.1489 H   0  0  0  0  0  0
   20.7054   29.2090    0.9441 H   0  0  0  0  0  0
   20.2416   28.9157   -1.4978 H   0  0  0  0  0  0
   22.5855   33.9205    2.5091 H   0  0  0  0  0  0
   21.6812   34.2069    3.7291 H   0  0  0  0  0  0
   23.3785   33.6669    3.4966 H   0  0  0  0  0  0
   23.5532   35.9649    5.0840 H   0  0  0  0  0  0
   22.2654   35.0859    0.0596 H   0  0  0  0  0  0
   22.7358   36.9164   -1.5646 H   0  0  0  0  0  0
   23.6154   39.1040   -0.7725 H   0  0  0  0  0  0
   24.1644   39.4926    1.6307 H   0  0  0  0  0  0
  1  2  1  0  0  0
  1  7  1  0  0  0
  1 30  1  0  0  0
  1 31  1  0  0  0
  2  3  1  0  0  0
  2 32  1  0  0  0
  2 33  1  0  0  0
  3  4  1  0  0  0
  3 34  1  0  0  0
  3 35  1  0  0  0
  4  5  1  0  0  0
  4  8  1  0  0  0
  4 36  1  0  0  0
  5  6  1  0  0  0
  5 37  1  0  0  0
  5 38  1  0  0  0
  6  7  1  0  0  0
  6 39  1  0  0  0
  6 40  1  0  0  0
  7 41  1  0  0  0
  7 42  1  0  0  0
  8  9  1  0  0  0
  8 43  1  0  0  0
  8 44  1  0  0  0
  9 10  2  0  0  0
  9 14  1  0  0  0
 10 11  1  0  0  0
 10 15  1  0  0  0
 11 12  2  0  0  0
 11 17  1  0  0  0
 12 13  1  0  0  0
 12 45  1  0  0  0
 13 14  2  0  0  0
 13 46  1  0  0  0
 14 29  1  0  0  0
 15 16  1  0  0  0
 16 17  1  0  0  0
 16 18  1  0  0  0
 16 47  1  0  0  0
 17 28  2  0  0  0
 18 19  1  0  0  0
 18 48  1  0  0  0
 18 49  1  0  0  0
 19 20  2  0  0  0
 19 23  1  0  0  0
 20 21  1  0  0  0
 20 24  1  0  0  0
 21 22  1  0  0  0
 21 27  2  0  0  0
 22 23  2  0  0  0
 23 50  1  0  0  0
 24 25  2  0  0  0
 24 51  1  0  0  0
 25 26  1  0  0  0
 25 52  1  0  0  0
 26 27  1  0  0  0
 26 53  1  0  0  0
 27 54  1  0  0  0
M  CHG  2   4   1  29  -1
M  END
> <s_m_source_file>
../3umx_ligand.sdf

> <i_m_source_file_index>
1

> <s_epik_input>
W0NIMl0xW0NIMl1bQ0gyXVtDSDJdW0NIMl1bQ0gyXVtOSCtdMVtDSDJdYzJjKFtPSF0pW2NIXVtjSF1jKGMyMylDKD1PKVtDSF0oTzMpW0NIMl1DPTRbQ0hdPU5DKEM0NSk9W0NIXVtDSDJdW0NIXT1bQ0hdNQ==

> <s_epik_cmdline>
J2VwaWtfYXBwJywgJy1pbWFlJywgJ2xpZ2FuZF9wcm8ubWFlJywgJy1vbWFlJywgJ2xpZ2FuZF9wcmVwLm1hZScsICctbXMnLCAnMScsICctcGgnLCAnNycsICctcGh0JywgJzAuNScsICctbnQn

> <r_lp_tautomer_probability>
0.99995

> <r_epik_Ionization_Penalty>
  0.2791

> <r_epik_Ionization_Penalty_Charging>
  0.2791

> <r_epik_Ionization_Penalty_Neutral>
  0.0000

> <r_epik_State_Penalty>
  0.2649

> <r_epik_Charging_Adjusted_Penalty>
0.543984753169253

> <i_epik_Tot_Q>
0

> <i_epik_Tot_abs_Q>
2

> <s_epik_Chemistry_Notes>
This compound has an imine and may undergo hydrolysis.

$$$$
