3unn_ligand
                    3D
 Schrodinger Suite 2020-3.
122121  0  0  1  0            999 V2000
   -2.2310    9.9300    1.4870 N   0  3  0  0  0  0
   -2.7150    9.5530    0.1230 C   0  0  2  0  0  0
   -3.3280   10.7520   -0.5950 C   0  0  0  0  0  0
   -3.8320   11.6800    0.0480 O   0  0  0  0  0  0
   -3.7430    8.4200    0.2080 C   0  0  0  0  0  0
   -3.2720    7.1870    0.9600 C   0  0  0  0  0  0
   -4.3650    5.7740    0.7040 S   0  0  0  0  0  0
   -3.7030    5.1080   -0.8250 C   0  0  0  0  0  0
   -3.2930   10.7230   -1.9260 N   0  0  0  0  0  0
   -3.8570   11.8010   -2.7400 C   0  0  2  0  0  0
   -5.3850   11.8800   -2.6220 C   0  0  0  0  0  0
   -6.0360   10.9270   -2.1650 O   0  0  0  0  0  0
   -3.4310   11.6640   -4.2120 C   0  0  0  0  0  0
   -3.9660   10.4220   -4.9370 C   0  0  0  0  0  0
   -3.8650   10.5160   -6.4630 C   0  0  0  0  0  0
   -4.7860   10.0100   -7.1510 O   0  5  0  0  0  0
   -2.8710   11.0850   -6.9780 O   0  0  0  0  0  0
   -5.9370   13.0220   -3.0290 N   0  0  0  0  0  0
   -7.3820   13.2440   -3.0540 C   0  0  2  0  0  0
   -8.0860   12.2080   -3.9150 C   0  0  0  0  0  0
   -7.5190   11.6950   -4.8820 O   0  0  0  0  0  0
   -7.7100   14.6370   -3.6010 C   0  0  0  0  0  0
   -7.3360   15.7570   -2.6410 C   0  0  0  0  0  0
   -7.1390   15.4980   -1.4330 O   0  5  0  0  0  0
   -7.2500   16.9100   -3.1060 O   0  0  0  0  0  0
   -9.3250   11.9050   -3.5460 N   0  0  0  0  0  0
  -10.1580   11.0090   -4.3380 C   0  0  1  0  0  0
  -11.4170   10.6690   -3.5480 C   0  0  1  0  0  0
  -12.2240    9.5530   -4.2150 C   0  0  0  0  0  0
  -11.0430   10.2560   -2.2330 O   0  0  0  0  0  0
  -11.4460   11.1160   -0.9240 P   0  0  0  0  0  0
  -10.8060   12.4760   -1.1640 O   0  5  0  0  0  0
  -10.8340   10.3270    0.2000 O   0  0  0  0  0  0
  -12.9490   11.2270   -0.9310 O   0  5  0  0  0  0
  -10.5000   11.6720   -5.6390 C   0  0  0  0  0  0
  -10.8000   12.8680   -5.6820 O   0  0  0  0  0  0
  -10.4610   10.8970   -6.7190 N   0  0  0  0  0  0
  -10.7400   11.4290   -8.0460 C   0  0  2  0  0  0
  -12.2270   11.3530   -8.3780 C   0  0  0  0  0  0
  -12.8110   10.2680   -8.3930 O   0  0  0  0  0  0
   -9.9160   10.6840   -9.1000 C   0  0  0  0  0  0
   -8.4040   10.7210   -8.8260 C   0  0  0  0  0  0
   -7.8560   12.1350   -8.8720 C   0  0  0  0  0  0
   -7.9710   12.8120   -9.8860 O   0  0  0  0  0  0
   -7.2890   12.5940   -7.7640 N   0  0  0  0  0  0
  -12.8340   12.5060   -8.6440 N   0  0  0  0  0  0
  -14.2460   12.5540   -9.0190 C   0  0  2  0  0  0
  -14.4590   11.8450  -10.3520 C   0  0  0  0  0  0
  -13.6100   11.9130  -11.2410 O   0  0  0  0  0  0
  -14.7270   13.9930   -9.1000 C   0  0  0  0  0  0
  -15.5830   11.1490  -10.4840 N   0  0  0  0  0  0
  -15.9370   10.5370  -11.7610 C   0  0  2  0  0  0
  -16.4380   11.6150  -12.7240 C   0  0  0  0  0  0
  -17.4430   12.2820  -12.4640 O   0  0  0  0  0  0
  -16.9630    9.3910  -11.5890 C   0  0  2  0  0  0
  -16.2860    8.1920  -10.9010 C   0  0  0  0  0  0
  -17.5460    8.9700  -12.9540 C   0  0  0  0  0  0
  -17.2490    7.1750  -10.3070 C   0  0  0  0  0  0
  -15.6980   11.7980  -13.8150 N   0  0  0  0  0  0
  -16.0470   12.7840  -14.8340 C   0  0  2  0  0  0
  -16.1330   12.1240  -16.1870 C   0  0  0  0  0  0
  -15.4960   11.0960  -16.4040 O   0  0  0  0  0  0
  -15.0060   13.8960  -14.8830 C   0  0  0  0  0  0
  -15.0420   14.7720  -13.6520 C   0  0  0  0  0  0
  -14.0300   14.7970  -12.9240 O   0  0  0  0  0  0
  -16.0930   15.4120  -13.4120 O   0  5  0  0  0  0
  -16.8310   12.6280  -17.0660 O   0  5  0  0  0  0
   -1.4953   10.7434    1.4031 H   0  0  0  0  0  0
   -1.7601    9.0573    1.9631 H   0  0  0  0  0  0
   -3.0817   10.2665    2.0979 H   0  0  0  0  0  0
   -1.8303    9.2142   -0.4360 H   0  0  0  0  0  0
   -4.6446    8.7810    0.7245 H   0  0  0  0  0  0
   -4.0094    8.0896   -0.8068 H   0  0  0  0  0  0
   -2.2660    6.9081    0.6133 H   0  0  0  0  0  0
   -3.2412    7.4044    2.0379 H   0  0  0  0  0  0
   -4.2805    4.2188   -1.1180 H   0  0  0  0  0  0
   -2.6494    4.8286   -0.6774 H   0  0  0  0  0  0
   -3.7733    5.8683   -1.6169 H   0  0  0  0  0  0
   -2.8224    9.8555   -2.4118 H   0  0  0  0  0  0
   -3.4244   12.7144   -2.3058 H   0  0  0  0  0  0
   -3.7892   12.5353   -4.7800 H   0  0  0  0  0  0
   -2.3339   11.6124   -4.2730 H   0  0  0  0  0  0
   -3.3919    9.5380   -4.6223 H   0  0  0  0  0  0
   -5.0271   10.2789   -4.6849 H   0  0  0  0  0  0
   -5.2524   13.8185   -3.3561 H   0  0  0  0  0  0
   -7.6954   13.1416   -2.0046 H   0  0  0  0  0  0
   -7.1579   14.8023   -4.5380 H   0  0  0  0  0  0
   -8.7904   14.7100   -3.7943 H   0  0  0  0  0  0
   -9.7195   12.3472   -2.6193 H   0  0  0  0  0  0
   -9.5825   10.0955   -4.5486 H   0  0  0  0  0  0
  -12.0416   11.5681   -3.4406 H   0  0  0  0  0  0
  -12.5147    9.8662   -5.2286 H   0  0  0  0  0  0
  -13.1271    9.3485   -3.6213 H   0  0  0  0  0  0
  -11.6103    8.6421   -4.2746 H   0  0  0  0  0  0
  -10.2114    9.8330   -6.5943 H   0  0  0  0  0  0
  -10.4399   12.4863   -7.9999 H   0  0  0  0  0  0
  -10.2226    9.6279   -9.1259 H   0  0  0  0  0  0
  -10.0854   11.1392  -10.0869 H   0  0  0  0  0  0
   -8.2020   10.3053   -7.8278 H   0  0  0  0  0  0
   -7.8790   10.1229   -9.5854 H   0  0  0  0  0  0
   -7.2091   11.9467   -6.8782 H   0  0  0  0  0  0
   -6.8987   13.6219   -7.7310 H   0  0  0  0  0  0
  -12.2508   13.4363   -8.5770 H   0  0  0  0  0  0
  -14.7963   12.0313   -8.2227 H   0  0  0  0  0  0
  -14.5660   14.4885   -8.1312 H   0  0  0  0  0  0
  -15.7991   14.0079   -9.3458 H   0  0  0  0  0  0
  -14.1642   14.5243   -9.8816 H   0  0  0  0  0  0
  -16.2500   11.0367   -9.6166 H   0  0  0  0  0  0
  -15.0029   10.1038  -12.1480 H   0  0  0  0  0  0
  -17.7936    9.7425  -10.9593 H   0  0  0  0  0  0
  -15.6643    7.6533  -11.6313 H   0  0  0  0  0  0
  -15.6537    8.5517  -10.0759 H   0  0  0  0  0  0
  -18.0253    9.8375  -13.4312 H   0  0  0  0  0  0
  -18.2916    8.1751  -12.8048 H   0  0  0  0  0  0
  -16.7367    8.5973  -13.5991 H   0  0  0  0  0  0
  -16.6782    6.3591   -9.8396 H   0  0  0  0  0  0
  -17.8878    6.7661  -11.1037 H   0  0  0  0  0  0
  -17.8772    7.6646   -9.5483 H   0  0  0  0  0  0
  -14.7980   11.1772  -13.9358 H   0  0  0  0  0  0
  -17.0293   13.1863  -14.5455 H   0  0  0  0  0  0
  -14.0012   13.4546  -14.9570 H   0  0  0  0  0  0
  -15.1917   14.5338  -15.7598 H   0  0  0  0  0  0
  1  2  1  0  0  0
  1 68  1  0  0  0
  1 69  1  0  0  0
  1 70  1  0  0  0
  2  3  1  0  0  0
  2  5  1  0  0  0
  2 71  1  0  0  0
  3  4  2  0  0  0
  3  9  1  0  0  0
  5  6  1  0  0  0
  5 72  1  0  0  0
  5 73  1  0  0  0
  6  7  1  0  0  0
  6 74  1  0  0  0
  6 75  1  0  0  0
  7  8  1  0  0  0
  8 76  1  0  0  0
  8 77  1  0  0  0
  8 78  1  0  0  0
  9 10  1  0  0  0
  9 79  1  0  0  0
 10 11  1  0  0  0
 10 13  1  0  0  0
 10 80  1  0  0  0
 11 12  2  0  0  0
 11 18  1  0  0  0
 13 14  1  0  0  0
 13 81  1  0  0  0
 13 82  1  0  0  0
 14 15  1  0  0  0
 14 83  1  0  0  0
 14 84  1  0  0  0
 15 16  1  0  0  0
 15 17  2  0  0  0
 18 19  1  0  0  0
 18 85  1  0  0  0
 19 20  1  0  0  0
 19 22  1  0  0  0
 19 86  1  0  0  0
 20 21  2  0  0  0
 20 26  1  0  0  0
 22 23  1  0  0  0
 22 87  1  0  0  0
 22 88  1  0  0  0
 23 24  1  0  0  0
 23 25  2  0  0  0
 26 27  1  0  0  0
 26 89  1  0  0  0
 27 28  1  0  0  0
 27 35  1  0  0  0
 27 90  1  0  0  0
 28 29  1  0  0  0
 28 30  1  0  0  0
 28 91  1  0  0  0
 29 92  1  0  0  0
 29 93  1  0  0  0
 29 94  1  0  0  0
 30 31  1  0  0  0
 31 32  1  0  0  0
 31 33  2  0  0  0
 31 34  1  0  0  0
 35 36  2  0  0  0
 35 37  1  0  0  0
 37 38  1  0  0  0
 37 95  1  0  0  0
 38 39  1  0  0  0
 38 41  1  0  0  0
 38 96  1  0  0  0
 39 40  2  0  0  0
 39 46  1  0  0  0
 41 42  1  0  0  0
 41 97  1  0  0  0
 41 98  1  0  0  0
 42 43  1  0  0  0
 42 99  1  0  0  0
 42100  1  0  0  0
 43 44  2  0  0  0
 43 45  1  0  0  0
 45101  1  0  0  0
 45102  1  0  0  0
 46 47  1  0  0  0
 46103  1  0  0  0
 47 48  1  0  0  0
 47 50  1  0  0  0
 47104  1  0  0  0
 48 49  2  0  0  0
 48 51  1  0  0  0
 50105  1  0  0  0
 50106  1  0  0  0
 50107  1  0  0  0
 51 52  1  0  0  0
 51108  1  0  0  0
 52 53  1  0  0  0
 52 55  1  0  0  0
 52109  1  0  0  0
 53 54  2  0  0  0
 53 59  1  0  0  0
 55 56  1  0  0  0
 55 57  1  0  0  0
 55110  1  0  0  0
 56 58  1  0  0  0
 56111  1  0  0  0
 56112  1  0  0  0
 57113  1  0  0  0
 57114  1  0  0  0
 57115  1  0  0  0
 58116  1  0  0  0
 58117  1  0  0  0
 58118  1  0  0  0
 59 60  1  0  0  0
 59119  1  0  0  0
 60 61  1  0  0  0
 60 63  1  0  0  0
 60120  1  0  0  0
 61 62  2  0  0  0
 61 67  1  0  0  0
 63 64  1  0  0  0
 63121  1  0  0  0
 63122  1  0  0  0
 64 65  2  0  0  0
 64 66  1  0  0  0
M  CHG  7   1   1  16  -1  24  -1  32  -1  34  -1  66  -1  67  -1
M  END
> <s_m_source_file>
../3unn_ligand.sdf

> <i_m_source_file_index>
1

> <s_epik_input>
W0NIM11TW0NIMl1bQ0gyXVtDQEhdKFtOSDMrXSlDKD1PKVtOSF1bQ0BASF0oW0NIMl1bQ0gyXUMoPU8pW09IXSlDKD1PKVtOSF1bQ0BASF0oW0NIMl1DKD1PKVtPSF0pQyg9TylbTkhdW0NAQEhdKFtDQEBIXShbQ0gzXSlPUCg9TykoW09IXSlbT0hdKUMoPU8pW05IXVtDQEBIXShbQ0gyXVtDSDJdQyg9TylbTkgyXSlDKD1PKVtOSF1bQ0BASF0oW0NIM10pQyg9TylbTkhdW0NAQEhdKFtDQEBIXShbQ0gzXSlbQ0gyXVtDSDNdKUMoPU8pW05IXVtDQEhdKEMoPU8pW09IXSlbQ0gyXUMoPU8pW09IXQ==

> <s_epik_cmdline>
J2VwaWtfYXBwJywgJy1pbWFlJywgJ2xpZ2FuZF9wcm8ubWFlJywgJy1vbWFlJywgJ2xpZ2FuZF9wcmVwLm1hZScsICctbXMnLCAnMScsICctcGgnLCAnNycsICctcGh0JywgJzAuNScsICctbnQn

> <r_epik_Ionization_Penalty>
  0.2476

> <r_epik_Ionization_Penalty_Charging>
  0.2476

> <r_epik_Ionization_Penalty_Neutral>
  0.0000

> <r_epik_State_Penalty>
  0.0985

> <r_epik_Charging_Adjusted_Penalty>
0.346071263161075

> <i_epik_Tot_Q>
-5

> <i_epik_Tot_abs_Q>
7

$$$$
