3uo9_ligand
                    3D
 Schrodinger Suite 2020-3.
 59 62  0  0  1  0            999 V2000
   -4.7040   10.8110   43.7270 O   0  0  0  0  0  0
    7.0440   10.2880   44.4940 O   0  0  0  0  0  0
   -6.5420    6.2110   44.2600 C   0  0  0  0  0  0
   12.2290    9.3120   44.1340 C   0  0  0  0  0  0
   -5.3860    6.3000   45.0500 C   0  0  0  0  0  0
   -7.3220    7.3520   44.0060 C   0  0  0  0  0  0
   11.6250    8.0540   43.9110 C   0  0  0  0  0  0
   11.4840   10.4800   43.8990 C   0  0  0  0  0  0
   -5.0070    7.5350   45.5850 C   0  0  0  0  0  0
   -6.9420    8.5910   44.5410 C   0  0  0  0  0  0
   10.2860    7.9570   43.4650 C   0  0  0  0  0  0
   10.1480   10.3770   43.4480 C   0  0  0  0  0  0
    0.5330   14.4950   42.5620 C   0  0  0  0  0  0
    2.1730   14.0460   44.7090 C   0  0  0  0  0  0
   -0.9830   14.6670   42.5220 C   0  0  0  0  0  0
    3.3620   14.7350   44.0400 C   0  0  0  0  0  0
   -5.4000    9.8870   45.8700 C   0  0  0  0  0  0
    8.1990    9.0030   42.7740 C   0  0  0  0  0  0
   -1.5030   14.1600   44.9890 N   0  0  0  0  0  0
    4.2810   13.5500   41.9600 N   0  0  0  0  0  0
   -2.2110   13.3550   45.7900 N   0  0  0  0  0  0
    5.1780   12.5190   41.5090 N   0  0  0  0  0  0
   -3.7410   11.5880   45.6630 N   0  0  0  0  0  0
    6.7160   10.8980   42.2750 N   0  0  0  0  0  0
    1.1600   13.0860   43.5310 S   0  0  0  0  0  0
   -2.6800   12.7190   43.3500 S   0  0  0  0  0  0
    5.2950   12.6230   44.0980 S   0  0  0  0  0  0
   -4.5610   10.7920   44.9550 C   0  0  0  0  0  0
    7.2610   10.1440   43.2780 C   0  0  0  0  0  0
   -5.7760    8.6740   45.3190 C   0  0  0  0  0  0
    9.5320    9.1230   43.2300 C   0  0  0  0  0  0
   -1.6660   13.9200   43.6510 C   0  0  0  0  0  0
    4.2410   13.7100   43.3100 C   0  0  0  0  0  0
   -2.9470   12.4820   45.0810 C   0  0  0  0  0  0
    5.8340   11.8920   42.5040 C   0  0  0  0  0  0
   -6.8374    5.2495   43.8400 H   0  0  0  0  0  0
   13.2594    9.3754   44.4838 H   0  0  0  0  0  0
   -4.7864    5.4110   45.2457 H   0  0  0  0  0  0
   -8.2207    7.2739   43.3942 H   0  0  0  0  0  0
   12.1997    7.1444   44.0853 H   0  0  0  0  0  0
   11.9333   11.4594   44.0634 H   0  0  0  0  0  0
   -4.1153    7.6106   46.2074 H   0  0  0  0  0  0
   -7.5449    9.4798   44.3551 H   0  0  0  0  0  0
    9.8367    6.9772   43.3028 H   0  0  0  0  0  0
    9.5782   11.2877   43.2636 H   0  0  0  0  0  0
    0.9129   14.3519   41.5396 H   0  0  0  0  0  0
    0.9924   15.3926   43.0015 H   0  0  0  0  0  0
    2.5379   13.3534   45.4818 H   0  0  0  0  0  0
    1.5236   14.8033   45.1724 H   0  0  0  0  0  0
   -1.2335   15.7342   42.6136 H   0  0  0  0  0  0
   -1.3709   14.2799   41.5682 H   0  0  0  0  0  0
    2.9956   15.4729   43.3112 H   0  0  0  0  0  0
    3.9682   15.2439   44.8039 H   0  0  0  0  0  0
   -4.8269    9.6525   46.7792 H   0  0  0  0  0  0
   -6.3298   10.4058   46.1463 H   0  0  0  0  0  0
    7.8178    8.0329   43.1255 H   0  0  0  0  0  0
    8.2263    9.0096   41.6744 H   0  0  0  0  0  0
   -3.7123   11.5116   46.7600 H   0  0  0  0  0  0
    6.9935   10.7043   41.2284 H   0  0  0  0  0  0
  1 28  2  0  0  0
  2 29  2  0  0  0
  3  5  2  0  0  0
  3  6  1  0  0  0
  3 36  1  0  0  0
  4  7  2  0  0  0
  4  8  1  0  0  0
  4 37  1  0  0  0
  5  9  1  0  0  0
  5 38  1  0  0  0
  6 10  2  0  0  0
  6 39  1  0  0  0
  7 11  1  0  0  0
  7 40  1  0  0  0
  8 12  2  0  0  0
  8 41  1  0  0  0
  9 30  2  0  0  0
  9 42  1  0  0  0
 10 30  1  0  0  0
 10 43  1  0  0  0
 11 31  2  0  0  0
 11 44  1  0  0  0
 12 31  1  0  0  0
 12 45  1  0  0  0
 13 15  1  0  0  0
 13 25  1  0  0  0
 13 46  1  0  0  0
 13 47  1  0  0  0
 14 16  1  0  0  0
 14 25  1  0  0  0
 14 48  1  0  0  0
 14 49  1  0  0  0
 15 32  1  0  0  0
 15 50  1  0  0  0
 15 51  1  0  0  0
 16 33  1  0  0  0
 16 52  1  0  0  0
 16 53  1  0  0  0
 17 28  1  0  0  0
 17 30  1  0  0  0
 17 54  1  0  0  0
 17 55  1  0  0  0
 18 29  1  0  0  0
 18 31  1  0  0  0
 18 56  1  0  0  0
 18 57  1  0  0  0
 19 21  1  0  0  0
 19 32  2  0  0  0
 20 22  1  0  0  0
 20 33  2  0  0  0
 21 34  2  0  0  0
 22 35  2  0  0  0
 23 28  1  0  0  0
 23 34  1  0  0  0
 23 58  1  0  0  0
 24 29  1  0  0  0
 24 35  1  0  0  0
 24 59  1  0  0  0
 26 32  1  0  0  0
 26 34  1  0  0  0
 27 33  1  0  0  0
 27 35  1  0  0  0
M  END
> <s_m_source_file>
../3uo9_ligand.sdf

> <i_m_source_file_index>
1

> <s_epik_input>
W2NIXTFbY0hdW2NIXVtjSF1bY0hdYzFbQ0gyXUMoPU8pW05IXWMoczIpbm5jMltDSDJdW0NIMl1TW0NIMl1bQ0gyXWMzbm5jKHMzKVtOSF1DKD1PKVtDSDJdYzRbY0hdW2NIXVtjSF1bY0hdW2NIXTQ=

> <s_epik_cmdline>
J2VwaWtfYXBwJywgJy1pbWFlJywgJ2xpZ2FuZF9wcm8ubWFlJywgJy1vbWFlJywgJ2xpZ2FuZF9wcmVwLm1hZScsICctbXMnLCAnMScsICctcGgnLCAnNycsICctcGh0JywgJzAuNScsICctbnQn

> <r_lp_tautomer_probability>
1

> <r_epik_Ionization_Penalty>
  0.0799

> <r_epik_Ionization_Penalty_Charging>
  0.0000

> <r_epik_Ionization_Penalty_Neutral>
  0.0799

> <r_epik_State_Penalty>
 -0.0000

> <r_epik_Charging_Adjusted_Penalty>
0

> <i_epik_Tot_Q>
0

> <i_epik_Tot_abs_Q>
0

$$$$
