3uoh_ligand
                    3D
 Schrodinger Suite 2020-3.
 36 38  0  0  1  0            999 V2000
    2.5530   19.9000    9.1550 Br  0  0  0  0  0  0
    8.5860   18.9810   12.2220 N   0  0  0  0  0  0
    7.1090   19.5650   10.3900 N   0  0  0  0  0  0
    8.0080   21.2310   11.7840 N   0  0  0  0  0  0
    5.6190   20.1260    8.5270 N   0  0  0  0  0  0
    7.9980   15.5430   10.8820 C   0  0  0  0  0  0
    9.0660   14.8610   11.4570 C   0  0  0  0  0  0
    9.9560   15.5390   12.2690 C   0  0  0  0  0  0
    9.7810   16.8930   12.5090 C   0  0  0  0  0  0
    8.7220   17.5790   11.9350 C   0  0  0  0  0  0
    7.8260   16.9020   11.1170 C   0  0  0  0  0  0
    9.2700   13.4080   11.2040 C   0  0  0  0  0  0
    7.8720   19.9430   11.4310 C   0  0  0  0  0  0
    6.4480   20.4860    9.6530 C   0  0  0  0  0  0
    6.5900   21.8310   10.0160 C   0  0  0  0  0  0
    7.3840   22.2010   11.1000 C   0  0  0  0  0  0
    5.1010   18.7970    8.3230 C   0  0  0  0  0  0
    5.9260   17.7720    7.8970 C   0  0  0  0  0  0
    5.4070   16.4950    7.7090 C   0  0  0  0  0  0
    4.0610   16.2370    7.9450 C   0  0  0  0  0  0
    3.2280   17.2550    8.3700 C   0  0  0  0  0  0
    3.7550   18.5200    8.5510 C   0  0  0  0  0  0
   10.0220   12.7460   11.9650 O   0  0  0  0  0  0
    8.7050   12.8480   10.2250 O   0  5  0  0  0  0
    9.0551   19.4063   13.1215 H   0  0  0  0  0  0
    5.3550   20.8832    7.7740 H   0  0  0  0  0  0
    7.2933   15.0091   10.2445 H   0  0  0  0  0  0
   10.7949   15.0092   12.7203 H   0  0  0  0  0  0
   10.4818   17.4226   13.1543 H   0  0  0  0  0  0
    6.9913   17.4346   10.6613 H   0  0  0  0  0  0
    6.0720   22.5997    9.4425 H   0  0  0  0  0  0
    7.4945   23.2477   11.3834 H   0  0  0  0  0  0
    6.9822   17.9646    7.7087 H   0  0  0  0  0  0
    6.0609   15.6899    7.3739 H   0  0  0  0  0  0
    3.6633   15.2333    7.7950 H   0  0  0  0  0  0
    2.1719   17.0632    8.5595 H   0  0  0  0  0  0
  1 22  1  0  0  0
  2 10  1  0  0  0
  2 13  1  0  0  0
  2 25  1  0  0  0
  3 13  2  0  0  0
  3 14  1  0  0  0
  4 13  1  0  0  0
  4 16  2  0  0  0
  5 14  1  0  0  0
  5 17  1  0  0  0
  5 26  1  0  0  0
  6  7  2  0  0  0
  6 11  1  0  0  0
  6 27  1  0  0  0
  7  8  1  0  0  0
  7 12  1  0  0  0
  8  9  2  0  0  0
  8 28  1  0  0  0
  9 10  1  0  0  0
  9 29  1  0  0  0
 10 11  2  0  0  0
 11 30  1  0  0  0
 12 23  2  0  0  0
 12 24  1  0  0  0
 14 15  2  0  0  0
 15 16  1  0  0  0
 15 31  1  0  0  0
 16 32  1  0  0  0
 17 18  2  0  0  0
 17 22  1  0  0  0
 18 19  1  0  0  0
 18 33  1  0  0  0
 19 20  2  0  0  0
 19 34  1  0  0  0
 20 21  1  0  0  0
 20 35  1  0  0  0
 21 22  2  0  0  0
 21 36  1  0  0  0
M  CHG  1  24  -1
M  END
> <s_m_source_file>
../3uoh_ligand.sdf

> <i_m_source_file_index>
1

> <s_epik_input>
QnJjMVtjSF1bY0hdW2NIXVtjSF1jMVtOSF1jKFtjSF1bY0hdbjIpbmMyW05IXWMoW2NIXVtjSF0zKVtjSF1bY0hdYzNDKD1PKVtPSF0=

> <s_epik_cmdline>
J2VwaWtfYXBwJywgJy1pbWFlJywgJ2xpZ2FuZF9wcm8ubWFlJywgJy1vbWFlJywgJ2xpZ2FuZF9wcmVwLm1hZScsICctbXMnLCAnMScsICctcGgnLCAnNycsICctcGh0JywgJzAuNScsICctbnQn

> <r_lp_tautomer_probability>
0.999999624730965

> <r_epik_Ionization_Penalty>
  0.0292

> <r_epik_Ionization_Penalty_Charging>
  0.0024

> <r_epik_Ionization_Penalty_Neutral>
  0.0269

> <r_epik_State_Penalty>
  0.0216

> <r_epik_Charging_Adjusted_Penalty>
0.0239733965470156

> <i_epik_Tot_Q>
-1

> <i_epik_Tot_abs_Q>
1

$$$$
