3uol_ligand
                    3D
 Schrodinger Suite 2020-3.
 40 43  0  0  1  0            999 V2000
  -24.4250   17.2340   -9.0830 Cl  0  0  0  0  0  0
  -24.9580   18.8030   -8.6080 C   0  0  0  0  0  0
  -26.3020   19.0950   -8.5030 C   0  0  0  0  0  0
  -26.6900   20.3730   -8.1320 C   0  0  0  0  0  0
  -25.7300   21.3420   -7.8670 C   0  0  0  0  0  0
  -24.3830   21.0460   -7.9760 C   0  0  0  0  0  0
  -24.0020   19.7700   -8.3440 C   0  0  0  0  0  0
  -22.6210   19.3980   -8.4570 N   0  0  0  0  0  0
  -21.8860   19.8680   -9.5780 C   0  0  0  0  0  0
  -20.6740   19.2670   -9.9180 C   0  0  0  0  0  0
  -19.9800   19.7570  -11.0260 C   0  0  0  0  0  0
  -20.5260   20.7730  -11.7040 N   0  0  0  0  0  0
  -21.6760   21.3330  -11.3360 C   0  0  0  0  0  0
  -22.1470   22.3930  -12.1440 N   0  0  0  0  0  0
  -23.2700   23.2240  -11.8730 C   0  0  0  0  0  0
  -23.3740   24.3800  -12.6480 C   0  0  0  0  0  0
  -24.4280   25.2530  -12.4650 C   0  0  0  0  0  0
  -25.3800   24.9470  -11.5070 C   0  0  0  0  0  0
  -26.5050   25.9020  -11.3360 C   0  0  0  0  0  0
  -26.4570   27.0650  -10.6360 N   0  0  0  0  0  0
  -27.6840   27.6490  -10.7360 N   0  3  0  0  0  0
  -28.4760   26.8510  -11.4910 N   0  0  0  0  0  0
  -27.7400   25.7620  -11.8690 N   0  3  0  0  0  0
  -25.2880   23.7910  -10.7360 C   0  0  0  0  0  0
  -24.2230   22.9180  -10.9200 C   0  0  0  0  0  0
  -22.3740   20.9010  -10.2930 N   0  0  0  0  0  0
  -27.0502   18.3297   -8.7094 H   0  0  0  0  0  0
  -27.7488   20.6180   -8.0481 H   0  0  0  0  0  0
  -26.0409   22.3438   -7.5707 H   0  0  0  0  0  0
  -23.6319   21.8097   -7.7741 H   0  0  0  0  0  0
  -22.1573   18.7642   -7.6867 H   0  0  0  0  0  0
  -20.2788   18.4361   -9.3336 H   0  0  0  0  0  0
  -19.0255   19.3263  -11.3285 H   0  0  0  0  0  0
  -21.6306   22.6399  -13.0834 H   0  0  0  0  0  0
  -22.6179   24.5952  -13.4030 H   0  0  0  0  0  0
  -24.5089   26.1621  -13.0609 H   0  0  0  0  0  0
  -26.0507   23.5713   -9.9890 H   0  0  0  0  0  0
  -24.1406   22.0090  -10.3241 H   0  0  0  0  0  0
  -27.8595   28.5242  -10.2851 H   0  0  0  0  0  0
  -28.1947   24.9821  -12.4974 H   0  0  0  0  0  0
  1  2  1  0  0  0
  2  3  2  0  0  0
  2  7  1  0  0  0
  3  4  1  0  0  0
  3 27  1  0  0  0
  4  5  2  0  0  0
  4 28  1  0  0  0
  5  6  1  0  0  0
  5 29  1  0  0  0
  6  7  2  0  0  0
  6 30  1  0  0  0
  7  8  1  0  0  0
  8  9  1  0  0  0
  8 31  1  0  0  0
  9 10  2  0  0  0
  9 26  1  0  0  0
 10 11  1  0  0  0
 10 32  1  0  0  0
 11 12  2  0  0  0
 11 33  1  0  0  0
 12 13  1  0  0  0
 13 14  1  0  0  0
 13 26  2  0  0  0
 14 15  1  0  0  0
 14 34  1  0  0  0
 15 16  2  0  0  0
 15 25  1  0  0  0
 16 17  1  0  0  0
 16 35  1  0  0  0
 17 18  2  0  0  0
 17 36  1  0  0  0
 18 19  1  0  0  0
 18 24  1  0  0  0
 19 20  2  0  0  0
 19 23  1  0  0  0
 20 21  1  0  0  0
 21 22  1  0  0  0
 21 39  1  0  0  0
 22 23  2  0  0  0
 23 40  1  0  0  0
 24 25  2  0  0  0
 24 37  1  0  0  0
 25 38  1  0  0  0
M  CHG  2  21   1  23   1
M  END
> <s_m_source_file>
../3uol_ligand.sdf

> <i_m_source_file_index>
1

> <s_epik_input>
Q2xjMVtjSF1bY0hdW2NIXVtjSF1jMVtOSF1jMltjSF1bY0hdbmMobjIpW05IXWMzW2NIXVtjSF1jKFtjSF1bY0hdMyktYzRuW25IXW5uNA==

> <s_epik_cmdline>
J2VwaWtfYXBwJywgJy1pbWFlJywgJ2xpZ2FuZF9wcm8ubWFlJywgJy1vbWFlJywgJ2xpZ2FuZF9wcmVwLm1hZScsICctbXMnLCAnMScsICctcGgnLCAnNycsICctcGh0JywgJzAuNScsICctbnQn

> <r_epik_Ionization_Penalty>
 10.5381

> <r_epik_Ionization_Penalty_Charging>
 10.5111

> <r_epik_Ionization_Penalty_Neutral>
  0.0269

> <r_epik_State_Penalty>
  0.0112

> <r_epik_Charging_Adjusted_Penalty>
10.5223709335897

> <i_epik_Tot_Q>
2

> <i_epik_Tot_abs_Q>
2

> <s_epik_Chemistry_Notes>
This compound has an imine and may undergo hydrolysis.

$$$$
