3upi_ligand
                    3D
 Schrodinger Suite 2020-3.
 56 60  0  0  1  0            999 V2000
   25.7920   41.2730   47.3400 C   0  0  0  0  0  0
   25.8660   41.5750   45.9750 C   0  0  0  0  0  0
   29.6660   44.6500   42.4700 C   0  0  0  0  0  0
   29.1770   43.7120   41.5600 C   0  0  0  0  0  0
   27.6630   44.3770   43.8100 C   0  0  0  0  0  0
   24.4860   43.6040   46.3660 C   0  0  0  0  0  0
   23.9460   44.6510   45.5750 C   0  0  0  0  0  0
   25.1050   42.1320   48.1930 C   0  0  0  0  0  0
   27.1530   43.4250   42.9060 C   0  0  0  0  0  0
   25.2050   42.7370   45.5150 C   0  0  0  0  0  0
   24.4650   43.2710   47.7240 C   0  0  0  0  0  0
   28.9000   44.9750   43.5850 C   0  0  0  0  0  0
   27.9340   43.1090   41.7840 C   0  0  0  0  0  0
   24.3780   44.4390   44.2670 C   0  0  0  0  0  0
   22.6100   47.7060   47.4040 C   0  0  0  0  0  0
   23.4550   46.6000   47.0110 C   0  0  0  0  0  0
   21.4680   47.9420   46.7420 C   0  0  0  0  0  0
   23.1290   45.7680   45.9970 C   0  0  3  0  0  0
   21.8150   46.0400   45.2670 C   0  0  0  0  0  0
   24.1490   45.2830   43.1130 C   0  0  0  0  0  0
   24.0950   43.3030   49.9280 C   0  0  0  0  0  0
   24.9190   42.0370   49.6590 C   0  0  1  0  0  0
   24.1610   40.7980   50.0860 C   0  0  0  0  0  0
   26.1200   45.5830   40.1860 C   0  0  0  0  0  0
   25.8180   42.7410   43.0900 C   0  0  0  0  0  0
   25.1300   43.2780   44.2590 N   0  0  0  0  0  0
   21.0820   47.1360   45.7080 N   0  0  0  0  0  0
   24.4530   44.6190   41.9120 N   0  0  0  0  0  0
   21.4260   45.3230   44.3380 O   0  0  0  0  0  0
   24.0260   46.4970   43.1680 O   0  5  0  0  0  0
   23.9960   44.2770   39.4340 O   0  0  0  0  0  0
   23.7620   46.6030   40.4530 O   0  0  0  0  0  0
   23.8420   44.0160   48.7090 O   0  0  0  0  0  0
   29.3480   45.8720   44.4650 F   0  0  0  0  0  0
   27.4760   42.2330   40.8890 F   0  0  0  0  0  0
   24.3790   45.2950   40.3810 S   0  0  0  0  0  0
   26.2679   40.3737   47.7311 H   0  0  0  0  0  0
   26.4169   40.9333   45.2873 H   0  0  0  0  0  0
   30.6353   45.1219   42.3094 H   0  0  0  0  0  0
   29.7610   43.4498   40.6778 H   0  0  0  0  0  0
   27.0844   44.6479   44.6932 H   0  0  0  0  0  0
   22.9046   48.3516   48.2445 H   0  0  0  0  0  0
   24.3993   46.4131   47.5433 H   0  0  0  0  0  0
   20.8396   48.7946   47.0389 H   0  0  0  0  0  0
   22.5993   45.1132   46.7046 H   0  0  0  0  0  0
   23.1324   43.0244   50.3817 H   0  0  0  0  0  0
   24.6474   43.9609   50.6150 H   0  0  0  0  0  0
   25.8794   41.9531   50.1887 H   0  0  0  0  0  0
   24.7721   39.9062   49.8830 H   0  0  0  0  0  0
   23.2184   40.7326   49.5228 H   0  0  0  0  0  0
   23.9418   40.8551   51.1624 H   0  0  0  0  0  0
   26.6465   44.6191   40.1249 H   0  0  0  0  0  0
   26.4963   46.1523   41.0487 H   0  0  0  0  0  0
   26.2958   46.1560   39.2636 H   0  0  0  0  0  0
   25.1948   42.9075   42.1990 H   0  0  0  0  0  0
   25.9754   41.6615   43.2308 H   0  0  0  0  0  0
  1  2  2  0  0  0
  1  8  1  0  0  0
  1 37  1  0  0  0
  2 10  1  0  0  0
  2 38  1  0  0  0
  3  4  2  0  0  0
  3 12  1  0  0  0
  3 39  1  0  0  0
  4 13  1  0  0  0
  4 40  1  0  0  0
  5  9  1  0  0  0
  5 12  2  0  0  0
  5 41  1  0  0  0
  6  7  1  0  0  0
  6 10  2  0  0  0
  6 11  1  0  0  0
  7 14  2  0  0  0
  7 18  1  0  0  0
  8 11  2  0  0  0
  8 22  1  0  0  0
  9 13  2  0  0  0
  9 25  1  0  0  0
 10 26  1  0  0  0
 11 33  1  0  0  0
 12 34  1  0  0  0
 13 35  1  0  0  0
 14 20  1  0  0  0
 14 26  1  0  0  0
 15 16  2  0  0  0
 15 17  1  0  0  0
 15 42  1  0  0  0
 16 18  1  0  0  0
 16 43  1  0  0  0
 17 27  2  0  0  0
 17 44  1  0  0  0
 18 19  1  0  0  0
 18 45  1  0  0  0
 19 27  1  0  0  0
 19 29  2  0  0  0
 20 28  2  0  0  0
 20 30  1  0  0  0
 21 22  1  0  0  0
 21 33  1  0  0  0
 21 46  1  0  0  0
 21 47  1  0  0  0
 22 23  1  0  0  0
 22 48  1  0  0  0
 23 49  1  0  0  0
 23 50  1  0  0  0
 23 51  1  0  0  0
 24 36  1  0  0  0
 24 52  1  0  0  0
 24 53  1  0  0  0
 24 54  1  0  0  0
 25 26  1  0  0  0
 25 55  1  0  0  0
 25 56  1  0  0  0
 28 36  1  0  0  0
 31 36  2  0  0  0
 32 36  2  0  0  0
M  CHG  1  30  -1
M  END
> <s_m_source_file>
../3upi_ligand.sdf

> <i_m_source_file_index>
1

> <s_epik_input>
W0NIM11bQ0BASF0xW0NIMl1PYzJjMVtjSF1bY0hdYyhjMjMpbihbQ0gyXWM0W2NIXWMoRilbY0hdW2NIXWM0RiljKEMoPU8pW05IXVMoPU8pKD1PKVtDSDNdKWMzW0NIXTVbQ0hdPVtDSF1bQ0hdPU5DNT1P

> <s_epik_cmdline>
J2VwaWtfYXBwJywgJy1pbWFlJywgJ2xpZ2FuZF9wcm8ubWFlJywgJy1vbWFlJywgJ2xpZ2FuZF9wcmVwLm1hZScsICctbXMnLCAnMScsICctcGgnLCAnNycsICctcGh0JywgJzAuNScsICctbnQn

> <r_lp_tautomer_probability>
1

> <r_epik_Ionization_Penalty>
  0.0033

> <r_epik_Ionization_Penalty_Charging>
  0.0033

> <r_epik_Ionization_Penalty_Neutral>
  0.0000

> <r_epik_State_Penalty>
 -0.0000

> <r_epik_Charging_Adjusted_Penalty>
0.00333454920067953

> <i_epik_Tot_Q>
-1

> <i_epik_Tot_abs_Q>
1

> <s_epik_Chemistry_Notes>
This compound has an imine and may undergo hydrolysis.

$$$$
