3upk_ligand
                    3D
 Schrodinger Suite 2020-3.
 64 66  0  0  1  0            999 V2000
   86.0700    1.0000  124.1080 C   0  0  1  0  0  0
   85.9740   -0.0700  122.9490 C   0  0  1  0  0  0
   84.6350   -0.8750  123.0440 C   0  0  2  0  0  0
   84.6280   -1.5960  124.4090 C   0  0  1  0  0  0
   84.6860   -0.4830  125.5840 C   0  0  1  0  0  0
   84.7080   -1.1030  126.9920 C   0  0  0  0  0  0
   87.2290    1.0760  121.0780 C   0  0  0  0  0  0
   87.1370    1.8140  119.7570 C   0  0  0  0  0  0
   86.0740    0.6730  121.6430 N   0  0  0  0  0  0
   85.0430    1.9140  123.7780 O   0  0  0  0  0  0
   84.6090   -1.8320  121.9860 O   0  0  0  0  0  0
   83.4630   -2.3320  124.5890 O   0  0  0  0  0  0
   85.9420    0.3410  125.3960 O   0  0  0  0  0  0
   85.8450   -1.9560  127.0740 O   0  0  0  0  0  0
   88.3070    0.8500  121.6110 O   0  0  0  0  0  0
   81.5500    7.1780  129.1420 N   0  0  0  0  0  0
   80.9220    8.4590  129.4980 C   0  0  0  0  0  0
   81.5760    9.6100  128.9700 N   0  0  0  0  0  0
   82.7810    9.6120  128.1320 C   0  0  0  0  0  0
   83.3820    8.2890  127.7980 C   0  0  0  0  0  0
   82.7610    7.1620  128.2990 C   0  0  0  0  0  0
   79.9080    8.5830  130.1930 O   0  0  0  0  0  0
   83.2390   10.6780  127.7430 O   0  0  0  0  0  0
   80.9210    5.9070  129.6490 C   0  0  1  0  0  0
   80.4040    5.0650  128.4590 C   0  0  2  0  0  0
   79.1050    5.4970  128.1270 O   0  0  0  0  0  0
   80.3870    3.6640  129.1070 C   0  0  1  0  0  0
   81.6270    3.7480  130.0560 C   0  0  2  0  0  0
   81.8640    5.1290  130.3290 O   0  0  0  0  0  0
   79.2330    3.4430  129.9570 O   0  0  0  0  0  0
   82.9060    3.1370  129.3980 C   0  0  0  0  0  0
   83.1680    3.6360  128.0750 O   0  0  0  0  0  0
   84.6600    3.6620  127.4820 P   0  0  2  0  0  0
   85.5730    2.9090  128.3250 O   0  0  0  0  0  0
   85.0380    5.0470  127.1370 O   0  5  0  0  0  0
   84.3620    2.9610  126.1130 O   0  0  0  0  0  0
   84.7330    3.2490  124.5910 P   0  0  1  0  0  0
   85.9920    3.9430  124.6200 O   0  0  0  0  0  0
   83.6490    4.0030  124.0090 O   0  5  0  0  0  0
   86.9834    1.5951  124.2548 H   0  0  0  0  0  0
   86.7985   -0.7971  122.9865 H   0  0  0  0  0  0
   83.7287   -0.2692  122.8969 H   0  0  0  0  0  0
   85.4065   -2.3731  124.4161 H   0  0  0  0  0  0
   83.8043    0.1739  125.5515 H   0  0  0  0  0  0
   84.7760   -0.3030  127.7439 H   0  0  0  0  0  0
   83.7855   -1.6801  127.1530 H   0  0  0  0  0  0
   86.0814    1.9075  119.4620 H   0  0  0  0  0  0
   87.6853    1.2539  118.9852 H   0  0  0  0  0  0
   87.5776    2.8161  119.8654 H   0  0  0  0  0  0
   85.1619    0.9226  121.0810 H   0  0  0  0  0  0
   84.6099   -1.4946  120.9390 H   0  0  0  0  0  0
   83.2173   -3.1509  123.8969 H   0  0  0  0  0  0
   86.0544   -2.5055  128.0036 H   0  0  0  0  0  0
   81.1792   10.6138  129.1820 H   0  0  0  0  0  0
   84.2778    8.2142  127.1816 H   0  0  0  0  0  0
   83.1958    6.1928  128.0547 H   0  0  0  0  0  0
   80.1506    6.1619  130.3917 H   0  0  0  0  0  0
   80.9181    5.1467  127.4900 H   0  0  0  0  0  0
   78.9558    6.4798  127.6561 H   0  0  0  0  0  0
   80.3208    2.8521  128.3677 H   0  0  0  0  0  0
   81.4279    3.2533  131.0181 H   0  0  0  0  0  0
   78.2317    3.3487  129.5114 H   0  0  0  0  0  0
   83.7845    3.3715  130.0171 H   0  0  0  0  0  0
   82.7928    2.0456  129.3206 H   0  0  0  0  0  0
  1  2  1  0  0  0
  1 10  1  0  0  0
  1 13  1  0  0  0
  1 40  1  0  0  0
  2  3  1  0  0  0
  2  9  1  0  0  0
  2 41  1  0  0  0
  3  4  1  0  0  0
  3 11  1  0  0  0
  3 42  1  0  0  0
  4  5  1  0  0  0
  4 12  1  0  0  0
  4 43  1  0  0  0
  5  6  1  0  0  0
  5 13  1  0  0  0
  5 44  1  0  0  0
  6 14  1  0  0  0
  6 45  1  0  0  0
  6 46  1  0  0  0
  7  8  1  0  0  0
  7  9  1  0  0  0
  7 15  2  0  0  0
  8 47  1  0  0  0
  8 48  1  0  0  0
  8 49  1  0  0  0
  9 50  1  0  0  0
 10 37  1  0  0  0
 11 51  1  0  0  0
 12 52  1  0  0  0
 14 53  1  0  0  0
 16 17  1  0  0  0
 16 21  1  0  0  0
 16 24  1  0  0  0
 17 18  1  0  0  0
 17 22  2  0  0  0
 18 19  1  0  0  0
 18 54  1  0  0  0
 19 20  1  0  0  0
 19 23  2  0  0  0
 20 21  2  0  0  0
 20 55  1  0  0  0
 21 56  1  0  0  0
 24 25  1  0  0  0
 24 29  1  0  0  0
 24 57  1  0  0  0
 25 26  1  0  0  0
 25 27  1  0  0  0
 25 58  1  0  0  0
 26 59  1  0  0  0
 27 28  1  0  0  0
 27 30  1  0  0  0
 27 60  1  0  0  0
 28 29  1  0  0  0
 28 31  1  0  0  0
 28 61  1  0  0  0
 30 62  1  0  0  0
 31 32  1  0  0  0
 31 63  1  0  0  0
 31 64  1  0  0  0
 32 33  1  0  0  0
 33 34  2  0  0  0
 33 35  1  0  0  0
 33 36  1  0  0  0
 36 37  1  0  0  0
 37 38  2  0  0  0
 37 39  1  0  0  0
M  CHG  2  35  -1  39  -1
M  END
> <s_m_source_file>
../3upk_ligand.sdf

> <i_m_source_file_index>
1

> <s_epik_input>
W09IXVtDSDJdW0NAQEhdKE8xKVtDQEBIXShbT0hdKVtDQEhdKFtPSF0pW0NAQEhdKFtOSF1DKD1PKVtDSDNdKVtDQEhdMU9bUEBAXSg9TykoW09IXSlPW1BAQF0oPU8pKFtPSF0pT1tDSDJdW0NAQEhdKE8yKVtDQEBIXShbT0hdKVtDQEBIXShbT0hdKVtDQEBIXTJuM2MoPU8pW25IXWMoPU8pW2NIXVtjSF0z

> <s_epik_cmdline>
J2VwaWtfYXBwJywgJy1pbWFlJywgJ2xpZ2FuZF9wcm8ubWFlJywgJy1vbWFlJywgJ2xpZ2FuZF9wcmVwLm1hZScsICctbXMnLCAnMScsICctcGgnLCAnNycsICctcGh0JywgJzAuNScsICctbnQn

> <r_lp_tautomer_probability>
1

> <r_epik_Ionization_Penalty>
  0.0031

> <r_epik_Ionization_Penalty_Charging>
  0.0031

> <r_epik_Ionization_Penalty_Neutral>
  0.0000

> <r_epik_State_Penalty>
 -0.0000

> <r_epik_Charging_Adjusted_Penalty>
0.00306157078792364

> <i_epik_Tot_Q>
-2

> <i_epik_Tot_abs_Q>
2

> <s_epik_Chemistry_Notes>
This compound contains an acetal/aminal-like group ( X-CH(R)-Y where X, Y are N, S, or O) that may be acid/base labile, releasing an aldehyde.

$$$$
