3upv_ligand
                    3D
 Schrodinger Suite 2020-3.
105105  0  0  1  0            999 V2000
    6.4180  -25.9090   18.6640 N   0  3  0  0  0  0
    5.5610  -25.0240   19.3880 C   0  0  2  0  0  0
    5.2400  -23.8580   18.4580 C   0  0  0  0  0  0
    5.7680  -23.7550   17.3610 O   0  0  0  0  0  0
    6.4200  -24.6330   20.5900 C   0  0  0  0  0  0
    7.1630  -25.9200   20.8760 C   0  0  0  0  0  0
    7.4960  -26.4390   19.4960 C   0  0  0  0  0  0
    4.3460  -22.9990   18.8970 N   0  0  0  0  0  0
    3.7630  -22.0050   18.0180 C   0  0  2  0  0  0
    4.7580  -21.0720   17.3800 C   0  0  0  0  0  0
    4.5830  -20.7260   16.2180 O   0  0  0  0  0  0
    2.6750  -21.2360   18.8210 C   0  0  2  0  0  0
    1.6360  -22.1710   19.1100 O   0  0  0  0  0  0
    2.1840  -19.9070   18.1540 C   0  0  0  0  0  0
    5.8480  -20.7700   18.0820 N   0  0  0  0  0  0
    6.7950  -19.7850   17.5900 C   0  0  2  0  0  0
    7.5850  -20.3760   16.3650 C   0  0  0  0  0  0
    8.1150  -19.6100   15.5730 O   0  0  0  0  0  0
    7.8080  -19.2890   18.6640 C   0  0  0  0  0  0
    7.1480  -18.6120   19.7590 C   0  0  0  0  0  0
    8.6770  -20.4330   19.1850 C   0  0  0  0  0  0
    7.5120  -21.7070   16.1780 N   0  0  0  0  0  0
    8.1500  -22.4590   15.0850 C   0  0  2  0  0  0
    7.2010  -22.8220   13.9250 C   0  0  0  0  0  0
    7.6020  -23.4860   12.9490 O   0  0  0  0  0  0
    8.7730  -23.7870   15.6370 C   0  0  0  0  0  0
    9.5370  -23.6180   16.9160 C   0  0  0  0  0  0
   10.8450  -22.7920   16.7570 C   0  0  0  0  0  0
   11.5080  -22.5830   17.8020 O   0  0  0  0  0  0
   11.2290  -22.3480   15.6200 O   0  5  0  0  0  0
    5.9480  -22.4190   14.0420 N   0  0  0  0  0  0
    4.9010  -22.8070   13.1470 C   0  0  2  0  0  0
    4.3530  -21.6320   12.3680 C   0  0  0  0  0  0
    4.2860  -20.5400   12.9070 O   0  0  0  0  0  0
    3.7750  -23.4580   13.9310 C   0  0  0  0  0  0
    4.2240  -24.6500   14.7170 C   0  0  0  0  0  0
    4.2330  -25.9050   13.9130 C   0  0  0  0  0  0
    4.3590  -26.9890   14.5510 O   0  5  0  0  0  0
    4.1350  -25.8230   12.6580 O   0  0  0  0  0  0
    4.0970  -21.8340   11.0720 N   0  0  0  0  0  0
    3.3820  -20.8510   10.2540 C   0  0  2  0  0  0
    2.2310  -21.5770    9.5500 C   0  0  0  0  0  0
    2.2420  -22.8150    9.4480 O   0  0  0  0  0  0
    4.2450  -20.1540    9.1980 C   0  0  0  0  0  0
    5.2060  -19.0940    9.8650 C   0  0  0  0  0  0
    5.0290  -21.1820    8.3470 C   0  0  0  0  0  0
    1.2400  -20.8060    9.1040 N   0  0  0  0  0  0
    0.0470  -21.3770    8.4500 C   0  0  2  0  0  0
    0.0610  -21.1920    6.9240 C   0  0  0  0  0  0
    0.5210  -20.1520    6.4100 O   0  0  0  0  0  0
   -1.1820  -20.7150    9.0510 C   0  0  0  0  0  0
   -1.4810  -21.2310   10.4540 C   0  0  0  0  0  0
   -2.2530  -22.2020   10.6030 O   0  5  0  0  0  0
   -0.8970  -20.7050   11.4150 O   0  0  0  0  0  0
   -0.3570  -22.1170    6.1670 O   0  5  0  0  0  0
    5.8313  -26.7583   18.2840 H   0  0  0  0  0  0
    6.8723  -25.3702   17.8194 H   0  0  0  0  0  0
    4.6097  -25.4823   19.6962 H   0  0  0  0  0  0
    7.0860  -23.8034   20.3104 H   0  0  0  0  0  0
    5.7691  -24.3173   21.4187 H   0  0  0  0  0  0
    8.0612  -25.7002   21.4717 H   0  0  0  0  0  0
    6.5092  -26.6039   21.4371 H   0  0  0  0  0  0
    7.4891  -27.5380   19.4488 H   0  0  0  0  0  0
    8.4619  -26.0622   19.1285 H   0  0  0  0  0  0
    4.0424  -23.0450   19.9533 H   0  0  0  0  0  0
    3.3647  -22.5805   17.1694 H   0  0  0  0  0  0
    3.0446  -20.9225   19.8085 H   0  0  0  0  0  0
    1.8791  -23.1357   19.5794 H   0  0  0  0  0  0
    3.0462  -19.2498   17.9680 H   0  0  0  0  0  0
    1.4747  -19.4003   18.8249 H   0  0  0  0  0  0
    1.6862  -20.1374   17.2005 H   0  0  0  0  0  0
    6.0282  -21.2742   19.0429 H   0  0  0  0  0  0
    6.1317  -18.9482   17.3258 H   0  0  0  0  0  0
    8.4552  -18.5139   18.2277 H   0  0  0  0  0  0
    6.5285  -17.7934   19.3639 H   0  0  0  0  0  0
    7.9036  -18.2018   20.4452 H   0  0  0  0  0  0
    6.5101  -19.3261   20.3005 H   0  0  0  0  0  0
    9.1694  -20.9342   18.3386 H   0  0  0  0  0  0
    8.0469  -21.1563   19.7233 H   0  0  0  0  0  0
    9.4403  -20.0319   19.8680 H   0  0  0  0  0  0
    6.9124  -22.2365   16.9330 H   0  0  0  0  0  0
    8.8913  -21.7369   14.7120 H   0  0  0  0  0  0
    7.9715  -24.5147   15.8319 H   0  0  0  0  0  0
    9.4713  -24.2008   14.8946 H   0  0  0  0  0  0
    8.9078  -23.0972   17.6528 H   0  0  0  0  0  0
    9.8190  -24.6063   17.3080 H   0  0  0  0  0  0
    5.7298  -21.7478   14.8857 H   0  0  0  0  0  0
    5.3845  -23.5103   12.4530 H   0  0  0  0  0  0
    3.3528  -22.7300   14.6393 H   0  0  0  0  0  0
    2.9899  -23.7917   13.2366 H   0  0  0  0  0  0
    5.2463  -24.4816   15.0866 H   0  0  0  0  0  0
    3.5464  -24.8033   15.5698 H   0  0  0  0  0  0
    4.4429  -22.7764   10.6223 H   0  0  0  0  0  0
    3.0574  -20.0817   10.9701 H   0  0  0  0  0  0
    3.5556  -19.6342    8.5164 H   0  0  0  0  0  0
    4.6124  -18.3837   10.4592 H   0  0  0  0  0  0
    5.7520  -18.5494    9.0806 H   0  0  0  0  0  0
    5.9232  -19.6103   10.5200 H   0  0  0  0  0  0
    4.3260  -21.9008    7.9008 H   0  0  0  0  0  0
    5.7447  -21.7183    8.9874 H   0  0  0  0  0  0
    5.5735  -20.6574    7.5480 H   0  0  0  0  0  0
    1.3279  -19.7172    9.2339 H   0  0  0  0  0  0
    0.0638  -22.4573    8.6565 H   0  0  0  0  0  0
   -1.0204  -19.6287    9.1121 H   0  0  0  0  0  0
   -2.0565  -20.9204    8.4162 H   0  0  0  0  0  0
  1  2  1  0  0  0
  1  7  1  0  0  0
  1 56  1  0  0  0
  1 57  1  0  0  0
  2  3  1  0  0  0
  2  5  1  0  0  0
  2 58  1  0  0  0
  3  4  2  0  0  0
  3  8  1  0  0  0
  5  6  1  0  0  0
  5 59  1  0  0  0
  5 60  1  0  0  0
  6  7  1  0  0  0
  6 61  1  0  0  0
  6 62  1  0  0  0
  7 63  1  0  0  0
  7 64  1  0  0  0
  8  9  1  0  0  0
  8 65  1  0  0  0
  9 10  1  0  0  0
  9 12  1  0  0  0
  9 66  1  0  0  0
 10 11  2  0  0  0
 10 15  1  0  0  0
 12 13  1  0  0  0
 12 14  1  0  0  0
 12 67  1  0  0  0
 13 68  1  0  0  0
 14 69  1  0  0  0
 14 70  1  0  0  0
 14 71  1  0  0  0
 15 16  1  0  0  0
 15 72  1  0  0  0
 16 17  1  0  0  0
 16 19  1  0  0  0
 16 73  1  0  0  0
 17 18  2  0  0  0
 17 22  1  0  0  0
 19 20  1  0  0  0
 19 21  1  0  0  0
 19 74  1  0  0  0
 20 75  1  0  0  0
 20 76  1  0  0  0
 20 77  1  0  0  0
 21 78  1  0  0  0
 21 79  1  0  0  0
 21 80  1  0  0  0
 22 23  1  0  0  0
 22 81  1  0  0  0
 23 24  1  0  0  0
 23 26  1  0  0  0
 23 82  1  0  0  0
 24 25  2  0  0  0
 24 31  1  0  0  0
 26 27  1  0  0  0
 26 83  1  0  0  0
 26 84  1  0  0  0
 27 28  1  0  0  0
 27 85  1  0  0  0
 27 86  1  0  0  0
 28 29  2  0  0  0
 28 30  1  0  0  0
 31 32  1  0  0  0
 31 87  1  0  0  0
 32 33  1  0  0  0
 32 35  1  0  0  0
 32 88  1  0  0  0
 33 34  2  0  0  0
 33 40  1  0  0  0
 35 36  1  0  0  0
 35 89  1  0  0  0
 35 90  1  0  0  0
 36 37  1  0  0  0
 36 91  1  0  0  0
 36 92  1  0  0  0
 37 38  1  0  0  0
 37 39  2  0  0  0
 40 41  1  0  0  0
 40 93  1  0  0  0
 41 42  1  0  0  0
 41 44  1  0  0  0
 41 94  1  0  0  0
 42 43  2  0  0  0
 42 47  1  0  0  0
 44 45  1  0  0  0
 44 46  1  0  0  0
 44 95  1  0  0  0
 45 96  1  0  0  0
 45 97  1  0  0  0
 45 98  1  0  0  0
 46 99  1  0  0  0
 46100  1  0  0  0
 46101  1  0  0  0
 47 48  1  0  0  0
 47102  1  0  0  0
 48 49  1  0  0  0
 48 51  1  0  0  0
 48103  1  0  0  0
 49 50  2  0  0  0
 49 55  1  0  0  0
 51 52  1  0  0  0
 51104  1  0  0  0
 51105  1  0  0  0
 52 53  1  0  0  0
 52 54  2  0  0  0
M  CHG  5   1   1  30  -1  38  -1  53  -1  55  -1
M  END
> <s_m_source_file>
../3upv_ligand.sdf

> <i_m_source_file_index>
1

> <s_epik_input>
W0NIMl0xW0NIMl1bQ0gyXVtOSDIrXVtDQEBIXTFDKD1PKVtOSF1bQ0BASF0oW0NASF0oW09IXSlbQ0gzXSlDKD1PKVtOSF1bQ0BASF0oW0NIXShbQ0gzXSlbQ0gzXSlDKD1PKVtOSF1bQ0BASF0oW0NIMl1bQ0gyXUMoPU8pW09IXSlDKD1PKVtOSF1bQ0BASF0oW0NIMl1bQ0gyXUMoPU8pW09IXSlDKD1PKVtOSF1bQ0BASF0oW0NIXShbQ0gzXSlbQ0gzXSlDKD1PKVtOSF1bQ0BIXShDKD1PKVtPSF0pW0NIMl1DKD1PKVtPSF0=

> <s_epik_cmdline>
J2VwaWtfYXBwJywgJy1pbWFlJywgJ2xpZ2FuZF9wcm8ubWFlJywgJy1vbWFlJywgJ2xpZ2FuZF9wcmVwLm1hZScsICctbXMnLCAnMScsICctcGgnLCAnNycsICctcGh0JywgJzAuNScsICctbnQn

> <r_epik_Ionization_Penalty>
  0.0466

> <r_epik_Ionization_Penalty_Charging>
  0.0466

> <r_epik_Ionization_Penalty_Neutral>
  0.0000

> <r_epik_State_Penalty>
  0.0351

> <r_epik_Charging_Adjusted_Penalty>
0.081714592592033

> <i_epik_Tot_Q>
-3

> <i_epik_Tot_abs_Q>
5

$$$$
