3upx_ligand
                    3D
 Schrodinger Suite 2020-3.
 48 51  0  0  1  0            999 V2000
   28.6370   14.5510   28.3560 C   0  0  0  0  0  0
   28.7290   15.5520   27.2110 C   0  0  0  0  0  0
   29.4820   16.7250   27.6740 N   0  3  0  0  0  0
   28.7100   17.4420   28.6850 C   0  0  0  0  0  0
   28.5850   16.5450   29.9120 C   0  0  0  0  0  0
   27.9460   15.1900   29.5530 C   0  0  0  0  0  0
   28.0850   14.2640   30.7490 C   0  0  0  0  0  0
   27.2630   13.0480   30.6400 N   0  0  0  0  0  0
   25.9490   12.9670   30.7820 C   0  0  0  0  0  0
   24.9640   13.9070   31.0490 C   0  0  0  0  0  0
   27.7400   11.8470   30.3900 C   0  0  0  0  0  0
   29.0270   11.5870   30.1850 N   0  0  0  0  0  0
   26.7410   10.9610   30.3680 N   0  0  0  0  0  0
   25.6130   11.6290   30.6110 C   0  0  0  0  0  0
   24.2850   11.2290   30.7200 C   0  0  0  0  0  0
   23.2920   12.1710   30.9910 C   0  0  0  0  0  0
   23.6380   13.5080   31.1580 C   0  0  0  0  0  0
   22.5930   14.5620   31.4400 C   0  0  0  0  0  0
   22.7730   15.7150   31.0430 O   0  0  0  0  0  0
   21.3380   14.2000   32.2240 C   0  0  0  0  0  0
   20.1120   14.7370   31.8530 C   0  0  0  0  0  0
   18.9630   14.4040   32.5650 C   0  0  0  0  0  0
   19.0630   13.5490   33.6640 C   0  0  0  0  0  0
   20.2930   13.0190   34.0290 C   0  0  0  0  0  0
   21.4300   13.3440   33.3140 C   0  0  0  0  0  0
   28.0587   13.6737   28.0305 H   0  0  0  0  0  0
   29.6491   14.2349   28.6489 H   0  0  0  0  0  0
   29.2461   15.0874   26.3585 H   0  0  0  0  0  0
   27.7163   15.8536   26.9054 H   0  0  0  0  0  0
   30.4375   16.3985   28.1104 H   0  0  0  0  0  0
   29.6772   17.3946   26.8234 H   0  0  0  0  0  0
   29.2293   18.3749   28.9495 H   0  0  0  0  0  0
   27.7127   17.6781   28.2856 H   0  0  0  0  0  0
   29.5838   16.3597   30.3340 H   0  0  0  0  0  0
   27.9548   17.0401   30.6655 H   0  0  0  0  0  0
   26.8874   15.3413   29.2950 H   0  0  0  0  0  0
   29.1339   13.9479   30.8480 H   0  0  0  0  0  0
   27.7742   14.7942   31.6613 H   0  0  0  0  0  0
   25.2303   14.9567   31.1730 H   0  0  0  0  0  0
   29.7661   12.4006   30.2276 H   0  0  0  0  0  0
   29.3532   10.5582   29.9727 H   0  0  0  0  0  0
   24.0201   10.1792   30.5936 H   0  0  0  0  0  0
   22.2502   11.8608   31.0715 H   0  0  0  0  0  0
   20.0495   15.4188   31.0048 H   0  0  0  0  0  0
   17.9949   14.8069   32.2673 H   0  0  0  0  0  0
   18.1714   13.2965   34.2380 H   0  0  0  0  0  0
   20.3622   12.3443   34.8823 H   0  0  0  0  0  0
   22.3956   12.9301   33.6044 H   0  0  0  0  0  0
  1  2  1  0  0  0
  1  6  1  0  0  0
  1 26  1  0  0  0
  1 27  1  0  0  0
  2  3  1  0  0  0
  2 28  1  0  0  0
  2 29  1  0  0  0
  3  4  1  0  0  0
  3 30  1  0  0  0
  3 31  1  0  0  0
  4  5  1  0  0  0
  4 32  1  0  0  0
  4 33  1  0  0  0
  5  6  1  0  0  0
  5 34  1  0  0  0
  5 35  1  0  0  0
  6  7  1  0  0  0
  6 36  1  0  0  0
  7  8  1  0  0  0
  7 37  1  0  0  0
  7 38  1  0  0  0
  8  9  1  0  0  0
  8 11  1  0  0  0
  9 10  1  0  0  0
  9 14  2  0  0  0
 10 17  2  0  0  0
 10 39  1  0  0  0
 11 12  1  0  0  0
 11 13  2  0  0  0
 12 40  1  0  0  0
 12 41  1  0  0  0
 13 14  1  0  0  0
 14 15  1  0  0  0
 15 16  2  0  0  0
 15 42  1  0  0  0
 16 17  1  0  0  0
 16 43  1  0  0  0
 17 18  1  0  0  0
 18 19  2  0  0  0
 18 20  1  0  0  0
 20 21  2  0  0  0
 20 25  1  0  0  0
 21 22  1  0  0  0
 21 44  1  0  0  0
 22 23  2  0  0  0
 22 45  1  0  0  0
 23 24  1  0  0  0
 23 46  1  0  0  0
 24 25  2  0  0  0
 24 47  1  0  0  0
 25 48  1  0  0  0
M  CHG  1   3   1
M  END
> <s_m_source_file>
../3upx_ligand.sdf

> <i_m_source_file_index>
1

> <s_epik_input>
W0NIMl0xW0NIMl1bTkgyK11bQ0gyXVtDSDJdW0NIXTFbQ0gyXW4yYyhbTkgyXSluYyhjMjMpW2NIXVtjSF1jKFtjSF0zKUMoPU8pYzRbY0hdW2NIXVtjSF1bY0hdW2NIXTQ=

> <s_epik_cmdline>
J2VwaWtfYXBwJywgJy1pbWFlJywgJ2xpZ2FuZF9wcm8ubWFlJywgJy1vbWFlJywgJ2xpZ2FuZF9wcmVwLm1hZScsICctbXMnLCAnMScsICctcGgnLCAnNycsICctcGh0JywgJzAuNScsICctbnQn

> <r_epik_Ionization_Penalty>
  0.0323

> <r_epik_Ionization_Penalty_Charging>
  0.0004

> <r_epik_Ionization_Penalty_Neutral>
  0.0319

> <r_epik_State_Penalty>
  0.0264

> <r_epik_Charging_Adjusted_Penalty>
0.0267821744269197

> <i_epik_Tot_Q>
1

> <i_epik_Tot_abs_Q>
1

$$$$
