3upz_ligand
                    3D
 Schrodinger Suite 2020-3.
 34 36  0  0  1  0            999 V2000
   19.4200   18.1250   61.6180 C   0  0  0  0  0  0
   19.9060   18.5010   60.2190 C   0  0  0  0  0  0
   18.7500   18.8960   59.4000 N   0  3  0  0  0  0
   17.8540   17.7400   59.2140 C   0  0  0  0  0  0
   17.2790   17.3160   60.5660 C   0  0  0  0  0  0
   18.3940   16.9820   61.5700 C   0  0  0  0  0  0
   17.8050   16.7850   62.9750 C   0  0  0  0  0  0
   16.8090   15.7000   63.0420 N   0  0  0  0  0  0
   15.5820   15.8690   63.0580 N   0  0  0  0  0  0
   14.9610   14.6840   63.1280 C   0  0  0  0  0  0
   15.9030   13.7450   63.1640 C   0  0  0  0  0  0
   17.1160   14.4110   63.1100 C   0  0  0  0  0  0
   18.2660   13.7200   63.1260 N   0  0  0  0  0  0
   18.2380   12.3950   63.1950 C   0  0  0  0  0  0
   17.0930   11.7190   63.2480 N   0  0  0  0  0  0
   15.9070   12.3580   63.2330 C   0  0  0  0  0  0
   14.7660   11.6730   63.2870 N   0  0  0  0  0  0
   20.2754   17.7993   62.2281 H   0  0  0  0  0  0
   18.9456   18.9988   62.0886 H   0  0  0  0  0  0
   20.6140   19.3398   60.2900 H   0  0  0  0  0  0
   20.4072   17.6360   59.7601 H   0  0  0  0  0  0
   18.2016   19.7045   59.9055 H   0  0  0  0  0  0
   19.0994   19.2480   58.4182 H   0  0  0  0  0  0
   17.0323   18.0181   58.5377 H   0  0  0  0  0  0
   18.4202   16.9035   58.7784 H   0  0  0  0  0  0
   16.6713   18.1346   60.9790 H   0  0  0  0  0  0
   16.6500   16.4234   60.4333 H   0  0  0  0  0  0
   18.8858   16.0535   61.2443 H   0  0  0  0  0  0
   18.6126   16.5377   63.6798 H   0  0  0  0  0  0
   17.3079   17.7118   63.2975 H   0  0  0  0  0  0
   13.8837   14.5196   63.1512 H   0  0  0  0  0  0
   19.1790   11.8451   63.2086 H   0  0  0  0  0  0
   13.8036   12.2056   63.2741 H   0  0  0  0  0  0
   14.7861   10.5747   63.3445 H   0  0  0  0  0  0
  1  2  1  0  0  0
  1  6  1  0  0  0
  1 18  1  0  0  0
  1 19  1  0  0  0
  2  3  1  0  0  0
  2 20  1  0  0  0
  2 21  1  0  0  0
  3  4  1  0  0  0
  3 22  1  0  0  0
  3 23  1  0  0  0
  4  5  1  0  0  0
  4 24  1  0  0  0
  4 25  1  0  0  0
  5  6  1  0  0  0
  5 26  1  0  0  0
  5 27  1  0  0  0
  6  7  1  0  0  0
  6 28  1  0  0  0
  7  8  1  0  0  0
  7 29  1  0  0  0
  7 30  1  0  0  0
  8  9  1  0  0  0
  8 12  1  0  0  0
  9 10  2  0  0  0
 10 11  1  0  0  0
 10 31  1  0  0  0
 11 12  2  0  0  0
 11 16  1  0  0  0
 12 13  1  0  0  0
 13 14  2  0  0  0
 14 15  1  0  0  0
 14 32  1  0  0  0
 15 16  2  0  0  0
 16 17  1  0  0  0
 17 33  1  0  0  0
 17 34  1  0  0  0
M  CHG  1   3   1
M  END
> <s_m_source_file>
../3upz_ligand.sdf

> <i_m_source_file_index>
1

> <s_epik_input>
W0NIMl0xW0NIMl1bTkgyK11bQ0gyXVtDSDJdW0NIXTFbQ0gyXW4obltjSF0yKWMoYzIzKW5bY0hdbmMzW05IMl0=

> <s_epik_cmdline>
J2VwaWtfYXBwJywgJy1pbWFlJywgJ2xpZ2FuZF9wcm8ubWFlJywgJy1vbWFlJywgJ2xpZ2FuZF9wcmVwLm1hZScsICctbXMnLCAnMScsICctcGgnLCAnNycsICctcGh0JywgJzAuNScsICctbnQn

> <r_lp_tautomer_probability>
1

> <r_epik_Ionization_Penalty>
  0.0014

> <r_epik_Ionization_Penalty_Charging>
  0.0004

> <r_epik_Ionization_Penalty_Neutral>
  0.0009

> <r_epik_State_Penalty>
 -0.0000

> <r_epik_Charging_Adjusted_Penalty>
0.000433073767326883

> <i_epik_Tot_Q>
1

> <i_epik_Tot_abs_Q>
1

$$$$
