3uqf_ligand
                    3D
 Schrodinger Suite 2020-3.
 47 50  0  0  1  0            999 V2000
  -11.1040  -35.5510    6.7100 N   0  0  0  0  0  0
  -11.6440  -36.4310    5.8630 C   0  0  0  0  0  0
  -10.9050  -37.3660    5.2830 N   0  0  0  0  0  0
   -9.5940  -37.4390    5.5450 C   0  0  0  0  0  0
   -8.9990  -36.5570    6.4290 C   0  0  0  0  0  0
   -9.8020  -35.5770    7.0230 C   0  0  0  0  0  0
    0.0360  -34.6750   12.2290 C   0  0  0  0  0  0
   -8.1180  -40.6190    4.6140 C   0  0  0  0  0  0
   -8.4350  -38.9180    2.7560 C   0  0  0  0  0  0
   -9.3200  -34.6630    7.8640 N   0  0  0  0  0  0
   -4.4740  -35.2600   11.3640 C   0  0  0  0  0  0
   -5.4400  -36.0870    6.5020 C   0  0  0  0  0  0
   -5.5870  -35.7420   10.6590 C   0  0  0  0  0  0
   -4.3340  -35.6080    7.2080 C   0  0  0  0  0  0
   -3.2750  -35.0030    9.2860 C   0  0  0  0  0  0
   -6.6520  -36.3460    8.5610 C   0  0  0  0  0  0
   -1.2350  -35.3880   11.7420 C   0  0  0  0  0  0
   -7.5480  -37.9940    5.6310 N   0  0  0  0  0  0
   -2.2250  -34.4060   11.3630 O   0  0  0  0  0  0
   -3.3110  -34.8920   10.6800 C   0  0  0  0  0  0
   -6.6040  -36.4370    7.1680 C   0  0  0  0  0  0
   -7.6590  -36.9530    6.4420 C   0  0  0  0  0  0
   -4.3870  -35.4900    8.5910 C   0  0  0  0  0  0
   -5.5460  -35.8620    9.2700 C   0  0  0  0  0  0
   -8.8710  -39.3560    4.1680 C   0  0  0  0  0  0
   -8.6380  -38.2570    5.1280 N   0  0  0  0  0  0
  -12.7107  -36.3795    5.6449 H   0  0  0  0  0  0
    0.7887  -35.4235   12.5172 H   0  0  0  0  0  0
   -0.2067  -34.0457   13.0980 H   0  0  0  0  0  0
    0.4358  -34.0453   11.4205 H   0  0  0  0  0  0
   -8.2997  -41.4285    3.8917 H   0  0  0  0  0  0
   -8.4753  -40.9272    5.6076 H   0  0  0  0  0  0
   -7.0400  -40.4054    4.6620 H   0  0  0  0  0  0
   -8.6109  -39.7400    2.0465 H   0  0  0  0  0  0
   -7.3647  -38.6641    2.7650 H   0  0  0  0  0  0
   -9.0182  -38.0374    2.4489 H   0  0  0  0  0  0
   -9.9925  -33.9127    8.3053 H   0  0  0  0  0  0
   -8.2495  -34.6587    8.1171 H   0  0  0  0  0  0
   -4.5159  -35.1719   12.4496 H   0  0  0  0  0  0
   -5.3872  -36.1864    5.4178 H   0  0  0  0  0  0
   -6.4899  -36.0246   11.2004 H   0  0  0  0  0  0
   -3.4274  -35.3262    6.6725 H   0  0  0  0  0  0
   -2.3784  -34.7093    8.7401 H   0  0  0  0  0  0
   -7.5509  -36.6519    9.0963 H   0  0  0  0  0  0
   -0.9923  -36.0173   10.8730 H   0  0  0  0  0  0
   -1.6348  -36.0177   12.5505 H   0  0  0  0  0  0
   -9.9511  -39.5641    4.1726 H   0  0  0  0  0  0
  1  2  1  0  0  0
  1  6  2  0  0  0
  2  3  2  0  0  0
  2 27  1  0  0  0
  3  4  1  0  0  0
  4  5  2  0  0  0
  4 26  1  0  0  0
  5  6  1  0  0  0
  5 22  1  0  0  0
  6 10  1  0  0  0
  7 17  1  0  0  0
  7 28  1  0  0  0
  7 29  1  0  0  0
  7 30  1  0  0  0
  8 25  1  0  0  0
  8 31  1  0  0  0
  8 32  1  0  0  0
  8 33  1  0  0  0
  9 25  1  0  0  0
  9 34  1  0  0  0
  9 35  1  0  0  0
  9 36  1  0  0  0
 10 37  1  0  0  0
 10 38  1  0  0  0
 11 13  2  0  0  0
 11 20  1  0  0  0
 11 39  1  0  0  0
 12 14  1  0  0  0
 12 21  2  0  0  0
 12 40  1  0  0  0
 13 24  1  0  0  0
 13 41  1  0  0  0
 14 23  2  0  0  0
 14 42  1  0  0  0
 15 20  2  0  0  0
 15 23  1  0  0  0
 15 43  1  0  0  0
 16 21  1  0  0  0
 16 24  2  0  0  0
 16 44  1  0  0  0
 17 19  1  0  0  0
 17 45  1  0  0  0
 17 46  1  0  0  0
 18 22  2  0  0  0
 18 26  1  0  0  0
 19 20  1  0  0  0
 21 22  1  0  0  0
 23 24  1  0  0  0
 25 26  1  0  0  0
 25 47  1  0  0  0
M  END
> <s_m_source_file>
../3uqf_ligand.sdf

> <i_m_source_file_index>
1

> <s_epik_input>
bjFbY0hdbmMoW05IMl0pYyhjMTIpYyhubjJbQ0hdKFtDSDNdKVtDSDNdKS1jKFtjSF1bY0hdMylbY0hdYyhjMzQpW2NIXVtjSF1jKFtjSF00KU9bQ0gyXVtDSDNd

> <s_epik_cmdline>
J2VwaWtfYXBwJywgJy1pbWFlJywgJ2xpZ2FuZF9wcm8ubWFlJywgJy1vbWFlJywgJ2xpZ2FuZF9wcmVwLm1hZScsICctbXMnLCAnMScsICctcGgnLCAnNycsICctcGh0JywgJzAuNScsICctbnQn

> <r_lp_tautomer_probability>
1

> <r_epik_Ionization_Penalty>
  0.0007

> <r_epik_Ionization_Penalty_Charging>
  0.0000

> <r_epik_Ionization_Penalty_Neutral>
  0.0007

> <r_epik_State_Penalty>
 -0.0000

> <r_epik_Charging_Adjusted_Penalty>
0

> <i_epik_Tot_Q>
0

> <i_epik_Tot_abs_Q>
0

$$$$
