3uqg_ligand
                    3D
 Schrodinger Suite 2020-3.
 34 36  0  0  1  0            999 V2000
   -8.7940  -41.1780    2.9130 C   0  0  0  0  0  0
   -8.5290  -41.0960    1.3970 C   0  0  0  0  0  0
   -7.0710  -41.0770    1.1530 N   0  3  0  0  0  0
   -6.4380  -39.8910    1.7700 C   0  0  0  0  0  0
   -6.6370  -39.9010    3.2960 C   0  0  0  0  0  0
   -8.1370  -39.9980    3.6580 C   0  0  0  0  0  0
   -8.3260  -40.1380    5.1780 C   0  0  0  0  0  0
   -8.3680  -38.8230    5.8540 N   0  0  0  0  0  0
   -7.3750  -38.2650    6.3230 N   0  0  0  0  0  0
   -7.7190  -37.1010    6.8770 C   0  0  0  0  0  0
   -9.0310  -36.9500    6.7140 C   0  0  0  0  0  0
   -9.4620  -38.0850    6.0380 C   0  0  0  0  0  0
  -10.7680  -38.2120    5.7150 N   0  0  0  0  0  0
  -11.6340  -37.2560    6.0540 C   0  0  0  0  0  0
  -11.2580  -36.1520    6.7010 N   0  0  0  0  0  0
   -9.9650  -35.9600    7.0480 C   0  0  0  0  0  0
   -9.5920  -34.8450    7.6890 N   0  0  0  0  0  0
   -9.8780  -41.1501    3.0978 H   0  0  0  0  0  0
   -8.3789  -42.1172    3.3075 H   0  0  0  0  0  0
   -8.9731  -41.9707    0.8993 H   0  0  0  0  0  0
   -8.9805  -40.1770    0.9950 H   0  0  0  0  0  0
   -6.6153  -41.9807    1.5840 H   0  0  0  0  0  0
   -6.8808  -41.0513    0.0699 H   0  0  0  0  0  0
   -5.3599  -39.8957    1.5518 H   0  0  0  0  0  0
   -6.8915  -38.9774    1.3581 H   0  0  0  0  0  0
   -6.1129  -40.7661    3.7284 H   0  0  0  0  0  0
   -6.2297  -38.9736    3.7250 H   0  0  0  0  0  0
   -8.6341  -39.0683    3.3441 H   0  0  0  0  0  0
   -9.2721  -40.6603    5.3833 H   0  0  0  0  0  0
   -7.4897  -40.7148    5.5999 H   0  0  0  0  0  0
   -7.0471  -36.4007    7.3732 H   0  0  0  0  0  0
  -12.6849  -37.3812    5.7934 H   0  0  0  0  0  0
   -8.5382  -34.6971    7.9675 H   0  0  0  0  0  0
  -10.3394  -34.0770    7.9371 H   0  0  0  0  0  0
  1  2  1  0  0  0
  1  6  1  0  0  0
  1 18  1  0  0  0
  1 19  1  0  0  0
  2  3  1  0  0  0
  2 20  1  0  0  0
  2 21  1  0  0  0
  3  4  1  0  0  0
  3 22  1  0  0  0
  3 23  1  0  0  0
  4  5  1  0  0  0
  4 24  1  0  0  0
  4 25  1  0  0  0
  5  6  1  0  0  0
  5 26  1  0  0  0
  5 27  1  0  0  0
  6  7  1  0  0  0
  6 28  1  0  0  0
  7  8  1  0  0  0
  7 29  1  0  0  0
  7 30  1  0  0  0
  8  9  1  0  0  0
  8 12  1  0  0  0
  9 10  2  0  0  0
 10 11  1  0  0  0
 10 31  1  0  0  0
 11 12  2  0  0  0
 11 16  1  0  0  0
 12 13  1  0  0  0
 13 14  2  0  0  0
 14 15  1  0  0  0
 14 32  1  0  0  0
 15 16  2  0  0  0
 16 17  1  0  0  0
 17 33  1  0  0  0
 17 34  1  0  0  0
M  CHG  1   3   1
M  END
> <s_m_source_file>
../3uqg_ligand.sdf

> <i_m_source_file_index>
1

> <s_epik_input>
W0NIMl0xW0NIMl1bTkgyK11bQ0gyXVtDSDJdW0NIXTFbQ0gyXW4obltjSF0yKWMoYzIzKW5bY0hdbmMzW05IMl0=

> <s_epik_cmdline>
J2VwaWtfYXBwJywgJy1pbWFlJywgJ2xpZ2FuZF9wcm8ubWFlJywgJy1vbWFlJywgJ2xpZ2FuZF9wcmVwLm1hZScsICctbXMnLCAnMScsICctcGgnLCAnNycsICctcGh0JywgJzAuNScsICctbnQn

> <r_lp_tautomer_probability>
1

> <r_epik_Ionization_Penalty>
  0.0014

> <r_epik_Ionization_Penalty_Charging>
  0.0004

> <r_epik_Ionization_Penalty_Neutral>
  0.0009

> <r_epik_State_Penalty>
 -0.0000

> <r_epik_Charging_Adjusted_Penalty>
0.000433073767326883

> <i_epik_Tot_Q>
1

> <i_epik_Tot_abs_Q>
1

$$$$
