3uqp_ligand
                    3D
 Schrodinger Suite 2020-3.
150152  0  0  1  0            999 V2000
  -21.8390  -15.4180    1.6730 O   0  0  0  0  0  0
  -21.8750  -16.6220    1.4370 C   0  0  0  0  0  0
  -22.9310  -17.1240    0.6600 O   0  0  0  0  0  0
  -24.1050  -16.3390    0.4220 C   0  0  0  0  0  0
  -23.7570  -15.1630   -0.4740 C   0  0  0  0  0  0
  -25.1660  -17.1460   -0.2480 C   0  0  0  0  0  0
  -24.6690  -15.8450    1.7400 C   0  0  0  0  0  0
  -21.1530  -17.5030    2.3770 N   0  0  0  0  0  0
  -20.6520  -18.7390    1.8150 C   0  0  2  0  0  0
  -21.7690  -19.7970    1.7120 C   0  0  0  0  0  0
  -22.7460  -19.6910    2.4420 O   0  0  0  0  0  0
  -19.5320  -19.3780    2.6500 C   0  0  0  0  0  0
  -18.2300  -18.6280    2.4480 C   0  0  0  0  0  0
  -19.9150  -19.3310    4.1420 C   0  0  0  0  0  0
  -20.5060  -21.0950   -0.1040 C   0  0  0  0  0  0
  -24.9090  -19.5860   -2.4070 N   0  0  0  0  0  0
  -26.4740  -20.8920   -1.3750 O   0  0  0  0  0  0
  -22.1200  -23.9860   -0.4850 O   0  0  0  0  0  0
  -24.5510  -20.5630   -0.1220 C   0  0  0  0  0  0
  -23.6080  -21.6530   -0.4890 C   0  0  0  0  0  0
  -25.3910  -20.3620   -1.3240 C   0  0  0  0  0  0
  -22.0760  -23.3410    0.5600 C   0  0  0  0  0  0
  -22.6950  -21.9390    0.6890 C   0  0  1  0  0  0
  -21.6420  -20.9290    0.7750 N   0  0  0  0  0  0
  -21.4030  -23.8630    1.7690 N   0  0  0  0  0  0
  -20.7740  -25.2080    1.7840 C   0  0  1  0  0  0
  -19.3640  -25.1410    2.3660 C   0  0  0  0  0  0
  -18.5320  -24.0870    1.5780 C   0  0  0  0  0  0
  -18.5010  -24.0870    0.0780 C   0  0  0  0  0  0
  -17.7410  -23.0430    2.3280 C   0  0  0  0  0  0
  -17.6960  -23.0670   -0.6820 C   0  0  0  0  0  0
  -16.9220  -22.0270    1.5650 C   0  0  0  0  0  0
  -16.9020  -22.0330    0.0670 C   0  0  0  0  0  0
  -21.6930  -26.1120    2.6140 C   0  0  1  0  0  0
  -21.6300  -26.0020    3.9880 O   0  0  0  0  0  0
  -23.0220  -26.5880    1.9680 C   0  0  0  0  0  0
  -22.6840  -27.6870    0.9480 C   0  0  0  0  0  0
  -22.4970  -27.4290   -0.2330 O   0  0  0  0  0  0
  -22.5630  -29.0720    1.4190 N   0  0  0  0  0  0
  -22.2250  -30.1640    0.4790 C   0  0  2  0  0  0
  -23.3500  -30.3620   -0.5500 C   0  0  0  0  0  0
  -24.4820  -30.6170   -0.1610 O   0  0  0  0  0  0
  -21.9370  -31.4250    1.2780 C   0  0  0  0  0  0
  -21.6210  -32.6120    0.3500 C   0  0  0  0  0  0
  -20.2280  -32.4330   -0.2070 C   0  0  0  0  0  0
  -21.6370  -33.8760    1.2280 C   0  0  0  0  0  0
  -23.0650  -30.2650   -1.9830 N   0  0  0  0  0  0
  -24.1270  -30.4990   -2.9740 C   0  0  2  0  0  0
  -24.0450  -31.9850   -3.2750 C   0  0  0  0  0  0
  -22.9400  -32.4840   -3.4570 O   0  0  0  0  0  0
  -23.9100  -29.7600   -4.2500 C   0  0  0  0  0  0
  -25.2290  -32.8700   -3.3340 N   0  0  0  0  0  0
  -24.9820  -34.3020   -3.6170 C   0  0  1  0  0  0
  -25.3130  -35.1970   -2.3860 C   0  0  0  0  0  0
  -26.4740  -35.4930   -2.0840 O   0  0  0  0  0  0
  -25.5660  -34.6930   -4.9640 C   0  0  0  0  0  0
  -24.5960  -34.1690   -6.0360 C   0  0  0  0  0  0
  -23.7030  -35.1240   -6.8040 C   0  0  0  0  0  0
  -24.4980  -32.6980   -6.3390 C   0  0  0  0  0  0
  -22.7390  -34.6170   -7.8560 C   0  0  0  0  0  0
  -23.5350  -32.1840   -7.3870 C   0  0  0  0  0  0
  -22.6550  -33.1470   -8.1420 C   0  0  0  0  0  0
  -26.5700  -32.3640   -3.1160 C   0  0  0  0  0  0
  -26.0830  -39.1180    1.2460 C   0  0  0  0  0  0
  -24.0620  -38.8050   -0.4410 O   0  0  0  0  0  0
  -21.9070  -36.3170   -1.2090 C   0  0  0  0  0  0
  -22.7030  -36.7720   -0.0300 C   0  0  0  0  0  0
  -22.7920  -35.3000   -1.8790 C   0  0  0  0  0  0
  -25.9380  -37.9560    0.4570 O   0  0  0  0  0  0
  -24.8050  -37.8160   -0.3360 C   0  0  0  0  0  0
  -24.1270  -36.4690   -0.3320 C   0  0  2  0  0  0
  -24.1570  -35.6630   -1.5460 N   0  0  0  0  0  0
  -23.3494  -15.5351   -1.4256 H   0  0  0  0  0  0
  -23.0066  -14.5317    0.0245 H   0  0  0  0  0  0
  -24.6629  -14.5705   -0.6698 H   0  0  0  0  0  0
  -24.7884  -17.5210   -1.2107 H   0  0  0  0  0  0
  -26.0510  -16.5162   -0.4215 H   0  0  0  0  0  0
  -25.4408  -17.9957    0.3942 H   0  0  0  0  0  0
  -23.9095  -15.2441    2.2616 H   0  0  0  0  0  0
  -24.9482  -16.7060    2.3651 H   0  0  0  0  0  0
  -25.5584  -15.2265    1.5494 H   0  0  0  0  0  0
  -20.9849  -17.2740    3.4397 H   0  0  0  0  0  0
  -20.2771  -18.3919    0.8408 H   0  0  0  0  0  0
  -19.3865  -20.4174    2.3207 H   0  0  0  0  0  0
  -17.9509  -18.6578    1.3844 H   0  0  0  0  0  0
  -17.4381  -19.0998    3.0483 H   0  0  0  0  0  0
  -18.3563  -17.5822    2.7648 H   0  0  0  0  0  0
  -20.8594  -19.8737    4.2954 H   0  0  0  0  0  0
  -20.0386  -18.2840    4.4560 H   0  0  0  0  0  0
  -19.1204  -19.8017    4.7395 H   0  0  0  0  0  0
  -19.7925  -20.2740    0.0600 H   0  0  0  0  0  0
  -20.8466  -21.0814   -1.1499 H   0  0  0  0  0  0
  -20.0148  -22.0558    0.1092 H   0  0  0  0  0  0
  -25.5352  -19.4381   -3.2992 H   0  0  0  0  0  0
  -23.9086  -19.1315   -2.3556 H   0  0  0  0  0  0
  -25.1515  -20.8743    0.7454 H   0  0  0  0  0  0
  -23.9824  -19.6563    0.1321 H   0  0  0  0  0  0
  -24.1767  -22.5593   -0.7444 H   0  0  0  0  0  0
  -23.0065  -21.3412   -1.3556 H   0  0  0  0  0  0
  -23.2742  -21.8581    1.6207 H   0  0  0  0  0  0
  -21.3743  -23.2323    2.6698 H   0  0  0  0  0  0
  -20.6723  -25.5823    0.7547 H   0  0  0  0  0  0
  -19.4181  -24.8503    3.4255 H   0  0  0  0  0  0
  -18.8847  -26.1274    2.2805 H   0  0  0  0  0  0
  -19.0705  -24.8375   -0.4702 H   0  0  0  0  0  0
  -17.7603  -23.0217    3.4176 H   0  0  0  0  0  0
  -17.6887  -23.0780   -1.7719 H   0  0  0  0  0  0
  -16.3406  -21.2832    2.1098 H   0  0  0  0  0  0
  -16.3154  -21.2923   -0.4765 H   0  0  0  0  0  0
  -21.1042  -27.0249    2.7871 H   0  0  0  0  0  0
  -20.7002  -25.6670    4.4709 H   0  0  0  0  0  0
  -23.6877  -26.9846    2.7487 H   0  0  0  0  0  0
  -23.5102  -25.7396    1.4661 H   0  0  0  0  0  0
  -22.7267  -29.2939    2.4839 H   0  0  0  0  0  0
  -21.3155  -29.8799   -0.0706 H   0  0  0  0  0  0
  -21.0716  -31.2531    1.9349 H   0  0  0  0  0  0
  -22.8156  -31.6810    1.8884 H   0  0  0  0  0  0
  -22.3318  -32.6803   -0.4867 H   0  0  0  0  0  0
  -20.1984  -31.5326   -0.8381 H   0  0  0  0  0  0
  -19.9585  -33.3125   -0.8101 H   0  0  0  0  0  0
  -19.5130  -32.3236    0.6217 H   0  0  0  0  0  0
  -22.6455  -34.0218    1.6424 H   0  0  0  0  0  0
  -20.9158  -33.7603    2.0504 H   0  0  0  0  0  0
  -21.3612  -34.7492    0.6186 H   0  0  0  0  0  0
  -22.0470  -30.0149   -2.3164 H   0  0  0  0  0  0
  -25.0817  -30.1391   -2.5629 H   0  0  0  0  0  0
  -23.9643  -28.6778   -4.0607 H   0  0  0  0  0  0
  -24.6864  -30.0448   -4.9753 H   0  0  0  0  0  0
  -22.9191  -30.0120   -4.6557 H   0  0  0  0  0  0
  -23.9015  -34.4378   -3.7723 H   0  0  0  0  0  0
  -25.6568  -35.7878   -5.0204 H   0  0  0  0  0  0
  -26.5600  -34.2362   -5.0792 H   0  0  0  0  0  0
  -23.7558  -36.1926   -6.5955 H   0  0  0  0  0  0
  -25.1288  -31.9938   -5.7965 H   0  0  0  0  0  0
  -22.1085  -35.3177   -8.4034 H   0  0  0  0  0  0
  -23.4776  -31.1158   -7.5962 H   0  0  0  0  0  0
  -21.9590  -32.7759   -8.8943 H   0  0  0  0  0  0
  -26.5268  -31.2818   -2.9238 H   0  0  0  0  0  0
  -27.0175  -32.8728   -2.2495 H   0  0  0  0  0  0
  -27.1831  -32.5535   -4.0094 H   0  0  0  0  0  0
  -27.0284  -39.0654    1.8059 H   0  0  0  0  0  0
  -25.2423  -39.1892    1.9518 H   0  0  0  0  0  0
  -26.0913  -40.0046    0.5949 H   0  0  0  0  0  0
  -20.9595  -35.8774   -0.8641 H   0  0  0  0  0  0
  -21.6960  -37.1762   -1.8627 H   0  0  0  0  0  0
  -22.5558  -37.8521    0.1170 H   0  0  0  0  0  0
  -22.3701  -36.2310    0.8681 H   0  0  0  0  0  0
  -22.5478  -34.2961   -1.5015 H   0  0  0  0  0  0
  -22.6296  -35.3323   -2.9665 H   0  0  0  0  0  0
  -24.6752  -35.8228    0.3693 H   0  0  0  0  0  0
  1  2  2  0  0  0
  2  3  1  0  0  0
  2  8  1  0  0  0
  3  4  1  0  0  0
  4  5  1  0  0  0
  4  6  1  0  0  0
  4  7  1  0  0  0
  5 73  1  0  0  0
  5 74  1  0  0  0
  5 75  1  0  0  0
  6 76  1  0  0  0
  6 77  1  0  0  0
  6 78  1  0  0  0
  7 79  1  0  0  0
  7 80  1  0  0  0
  7 81  1  0  0  0
  8  9  1  0  0  0
  8 82  1  0  0  0
  9 10  1  0  0  0
  9 12  1  0  0  0
  9 83  1  0  0  0
 10 11  2  0  0  0
 10 24  1  0  0  0
 12 13  1  0  0  0
 12 14  1  0  0  0
 12 84  1  0  0  0
 13 85  1  0  0  0
 13 86  1  0  0  0
 13 87  1  0  0  0
 14 88  1  0  0  0
 14 89  1  0  0  0
 14 90  1  0  0  0
 15 24  1  0  0  0
 15 91  1  0  0  0
 15 92  1  0  0  0
 15 93  1  0  0  0
 16 21  1  0  0  0
 16 94  1  0  0  0
 16 95  1  0  0  0
 17 21  2  0  0  0
 18 22  2  0  0  0
 19 20  1  0  0  0
 19 21  1  0  0  0
 19 96  1  0  0  0
 19 97  1  0  0  0
 20 23  1  0  0  0
 20 98  1  0  0  0
 20 99  1  0  0  0
 22 23  1  0  0  0
 22 25  1  0  0  0
 23 24  1  0  0  0
 23100  1  0  0  0
 25 26  1  0  0  0
 25101  1  0  0  0
 26 27  1  0  0  0
 26 34  1  0  0  0
 26102  1  0  0  0
 27 28  1  0  0  0
 27103  1  0  0  0
 27104  1  0  0  0
 28 29  2  0  0  0
 28 30  1  0  0  0
 29 31  1  0  0  0
 29105  1  0  0  0
 30 32  2  0  0  0
 30106  1  0  0  0
 31 33  2  0  0  0
 31107  1  0  0  0
 32 33  1  0  0  0
 32108  1  0  0  0
 33109  1  0  0  0
 34 35  1  0  0  0
 34 36  1  0  0  0
 34110  1  0  0  0
 35111  1  0  0  0
 36 37  1  0  0  0
 36112  1  0  0  0
 36113  1  0  0  0
 37 38  2  0  0  0
 37 39  1  0  0  0
 39 40  1  0  0  0
 39114  1  0  0  0
 40 41  1  0  0  0
 40 43  1  0  0  0
 40115  1  0  0  0
 41 42  2  0  0  0
 41 47  1  0  0  0
 43 44  1  0  0  0
 43116  1  0  0  0
 43117  1  0  0  0
 44 45  1  0  0  0
 44 46  1  0  0  0
 44118  1  0  0  0
 45119  1  0  0  0
 45120  1  0  0  0
 45121  1  0  0  0
 46122  1  0  0  0
 46123  1  0  0  0
 46124  1  0  0  0
 47 48  1  0  0  0
 47125  1  0  0  0
 48 49  1  0  0  0
 48 51  1  0  0  0
 48126  1  0  0  0
 49 50  2  0  0  0
 49 52  1  0  0  0
 51127  1  0  0  0
 51128  1  0  0  0
 51129  1  0  0  0
 52 53  1  0  0  0
 52 63  1  0  0  0
 53 54  1  0  0  0
 53 56  1  0  0  0
 53130  1  0  0  0
 54 55  2  0  0  0
 54 72  1  0  0  0
 56 57  1  0  0  0
 56131  1  0  0  0
 56132  1  0  0  0
 57 58  2  0  0  0
 57 59  1  0  0  0
 58 60  1  0  0  0
 58133  1  0  0  0
 59 61  2  0  0  0
 59134  1  0  0  0
 60 62  2  0  0  0
 60135  1  0  0  0
 61 62  1  0  0  0
 61136  1  0  0  0
 62137  1  0  0  0
 63138  1  0  0  0
 63139  1  0  0  0
 63140  1  0  0  0
 64 69  1  0  0  0
 64141  1  0  0  0
 64142  1  0  0  0
 64143  1  0  0  0
 65 70  2  0  0  0
 66 67  1  0  0  0
 66 68  1  0  0  0
 66144  1  0  0  0
 66145  1  0  0  0
 67 71  1  0  0  0
 67146  1  0  0  0
 67147  1  0  0  0
 68 72  1  0  0  0
 68148  1  0  0  0
 68149  1  0  0  0
 69 70  1  0  0  0
 70 71  1  0  0  0
 71 72  1  0  0  0
 71150  1  0  0  0
M  END
> <s_m_source_file>
../3uqp_ligand.sdf

> <i_m_source_file_index>
1

> <s_epik_input>
W0NIM11DKFtDSDNdKShbQ0gzXSlPQyg9TylbTkhdW0NAQEhdKFtDSF0oW0NIM10pW0NIM10pQyg9TylOKFtDSDNdKVtDQEBIXShbQ0gyXVtDSDJdQyg9TylbTkgyXSlDKD1PKVtOSF1bQ0BASF0oW0NIMl1jMVtjSF1bY0hdW2NIXVtjSF1bY0hdMSlbQ0BASF0oW09IXSlbQ0gyXUMoPU8pW05IXVtDQEBIXShbQ0gyXVtDSF0oW0NIM10pW0NIM10pQyg9TylbTkhdW0NAQEhdKFtDSDNdKUMoPU8pTihbQ0gzXSlbQ0BIXShbQ0gyXWMyW2NIXVtjSF1bY0hdW2NIXVtjSF0yKUMoPU8pTjNbQ0gyXVtDSDJdW0NIMl1bQ0BASF0zQyg9TylPW0NIM10=

> <s_epik_cmdline>
J2VwaWtfYXBwJywgJy1pbWFlJywgJ2xpZ2FuZF9wcm8ubWFlJywgJy1vbWFlJywgJ2xpZ2FuZF9wcmVwLm1hZScsICctbXMnLCAnMScsICctcGgnLCAnNycsICctcGh0JywgJzAuNScsICctbnQn

> <r_lp_tautomer_probability>
1

> <r_epik_Ionization_Penalty>
  0.0000

> <r_epik_Ionization_Penalty_Charging>
  0.0000

> <r_epik_Ionization_Penalty_Neutral>
  0.0000

> <r_epik_State_Penalty>
 -0.0000

> <r_epik_Charging_Adjusted_Penalty>
0

> <i_epik_Tot_Q>
0

> <i_epik_Tot_abs_Q>
0

> <s_epik_Chemistry_Notes>
This compound has an ester and may undergo hydrolysis at high or low pH.

$$$$
