3uqr_ligand
                    3D
 Schrodinger Suite 2020-3.
142146  0  0  1  0            999 V2000
   12.6570   16.7420   33.9660 C   0  0  0  0  0  0
   14.1880   21.6700   33.7300 C   0  0  0  0  0  0
   15.2520   20.6760   33.3410 C   0  0  0  0  0  0
   12.7610   21.2740   33.7720 C   0  0  0  0  0  0
   14.8680   19.2770   32.9940 C   0  0  0  0  0  0
   12.3740   19.8670   33.4250 C   0  0  0  0  0  0
   11.9490   17.4770   31.7780 N   0  0  0  0  0  0
   13.4360   18.8800   33.0530 C   0  0  0  0  0  0
   13.0450   17.4550   32.7030 C   0  0  1  0  0  0
    9.5510   17.5100   24.7540 C   0  0  0  0  0  0
   13.0280   18.4420   25.2660 C   0  0  0  0  0  0
   13.2710   16.4730   30.1530 O   0  0  0  0  0  0
    6.3340   15.9190   28.7330 O   0  0  0  0  0  0
   10.9130   19.8730   24.3340 O   0  0  0  0  0  0
   11.4770   20.0730   26.6460 O   0  0  0  0  0  0
    9.6380   16.6890   30.0090 C   0  0  0  0  0  0
   11.2740   17.4980   28.1260 C   0  0  0  0  0  0
    8.7110   17.2510   27.6180 C   0  0  0  0  0  0
   12.1820   16.9450   30.4740 C   0  0  0  0  0  0
    7.1270   16.4450   29.5060 C   0  0  0  0  0  0
   11.0360   17.0270   29.5220 C   0  0  0  0  0  0
    8.5240   16.8010   29.0300 C   0  0  0  0  0  0
   10.1080   17.5960   27.1780 C   0  0  0  0  0  0
   10.3220   18.0380   25.8000 N   0  0  0  0  0  0
   11.4200   19.1560   25.5060 S   0  0  0  0  0  0
    6.8640   16.7660   30.8860 N   0  0  0  0  0  0
    5.5540   16.4290   31.4110 C   0  0  1  0  0  0
    5.6670   15.6220   32.6950 C   0  0  0  0  0  0
    7.0670   14.9910   32.8230 C   0  0  0  0  0  0
    7.5460   13.9730   31.8330 C   0  0  0  0  0  0
    7.9850   15.3890   33.9520 C   0  0  0  0  0  0
    8.9200   13.3730   31.9780 C   0  0  0  0  0  0
    9.3610   14.7780   34.0850 C   0  0  0  0  0  0
    9.8270   13.7680   33.0990 C   0  0  0  0  0  0
    4.7760   17.7430   31.5590 C   0  0  1  0  0  0
    5.4970   18.7990   32.0620 O   0  0  0  0  0  0
    3.9070   18.1050   30.3770 C   0  0  0  0  0  0
    2.8660   17.0100   30.1150 C   0  0  0  0  0  0
    3.0980   16.0720   29.3470 O   0  0  0  0  0  0
    1.5560   17.0990   30.7710 N   0  0  0  0  0  0
    0.6110   16.0090   30.4230 C   0  0  2  0  0  0
    0.3860   16.0760   28.9130 C   0  0  0  0  0  0
    0.5160   17.1290   28.3110 O   0  0  0  0  0  0
   -0.6960   16.1170   31.2040 C   0  0  0  0  0  0
   -1.7650   15.2030   30.6010 C   0  0  0  0  0  0
   -1.6450   13.8620   31.2480 C   0  0  0  0  0  0
   -3.0950   15.7810   30.9430 C   0  0  0  0  0  0
    0.0360   14.8880   28.2060 N   0  0  0  0  0  0
   -0.1980   14.9690   26.7750 C   0  0  2  0  0  0
   -1.5910   14.5440   26.4390 C   0  0  0  0  0  0
   -2.1420   13.6860   27.0990 O   0  0  0  0  0  0
    0.7430   14.0350   26.1020 C   0  0  0  0  0  0
   -2.3220   15.1200   25.3270 N   0  0  0  0  0  0
   -3.6800   14.5830   25.0810 C   0  0  1  0  0  0
   -4.7250   15.6790   25.0500 C   0  0  0  0  0  0
   -5.2820   15.9870   24.0160 O   0  0  0  0  0  0
   -3.7290   13.6890   23.8140 C   0  0  0  0  0  0
   -2.9040   12.4240   23.9750 C   0  0  0  0  0  0
   -3.4840   11.2620   24.7030 C   0  0  0  0  0  0
   -1.5100   12.3360   23.3970 C   0  0  0  0  0  0
   -2.6660   10.0070   24.8650 C   0  0  0  0  0  0
   -0.6930   11.0960   23.5480 C   0  0  0  0  0  0
   -1.2690    9.9270   24.2790 C   0  0  0  0  0  0
   -1.7440   16.1450   24.4650 C   0  0  0  0  0  0
   -6.1940   20.1990   23.6840 C   0  0  0  0  0  0
   -4.4650   18.7110   25.1880 O   0  0  0  0  0  0
   -5.6430   16.7580   28.5070 C   0  0  0  0  0  0
   -6.4000   17.7470   27.6960 C   0  0  0  0  0  0
   -4.5900   16.1740   27.5980 C   0  0  0  0  0  0
   -6.5950   19.2480   24.6210 O   0  0  0  0  0  0
   -5.6660   18.6130   25.4460 C   0  0  0  0  0  0
   -6.1060   17.4160   26.2530 C   0  0  1  0  0  0
   -5.0990   16.3750   26.2540 N   0  0  0  0  0  0
   12.3706   15.7067   33.7294 H   0  0  0  0  0  0
   11.8065   17.2601   34.4331 H   0  0  0  0  0  0
   13.5097   16.7368   34.6609 H   0  0  0  0  0  0
   14.4715   22.6916   33.9832 H   0  0  0  0  0  0
   16.2988   20.9785   33.3133 H   0  0  0  0  0  0
   11.9979   21.9998   34.0530 H   0  0  0  0  0  0
   15.6286   18.5536   32.7004 H   0  0  0  0  0  0
   11.3267   19.5654   33.4436 H   0  0  0  0  0  0
   10.9780   17.8925   32.0855 H   0  0  0  0  0  0
   13.8544   16.9115   32.1935 H   0  0  0  0  0  0
    8.8555   16.7578   25.1547 H   0  0  0  0  0  0
   10.2128   17.0391   24.0122 H   0  0  0  0  0  0
    8.9800   18.3190   24.2749 H   0  0  0  0  0  0
   13.7576   19.2406   25.0661 H   0  0  0  0  0  0
   12.9981   17.7502   24.4113 H   0  0  0  0  0  0
   13.3243   17.8929   26.1719 H   0  0  0  0  0  0
    9.4577   16.3761   31.0374 H   0  0  0  0  0  0
   12.2777   17.7673   27.7972 H   0  0  0  0  0  0
    7.8672   17.3266   26.9321 H   0  0  0  0  0  0
    7.6098   17.2471   31.5358 H   0  0  0  0  0  0
    5.0460   15.7643   30.6967 H   0  0  0  0  0  0
    5.4948   16.2811   33.5587 H   0  0  0  0  0  0
    4.9151   14.8191   32.6908 H   0  0  0  0  0  0
    6.9011   13.6672   31.0092 H   0  0  0  0  0  0
    7.6515   16.1270   34.6815 H   0  0  0  0  0  0
    9.2600   12.6357   31.2507 H   0  0  0  0  0  0
   10.0127   15.0785   34.9054 H   0  0  0  0  0  0
   10.8169   13.3212   33.1920 H   0  0  0  0  0  0
    4.1127   17.6335   32.4297 H   0  0  0  0  0  0
    6.1637   18.6489   32.9239 H   0  0  0  0  0  0
    3.3844   19.0509   30.5822 H   0  0  0  0  0  0
    4.5354   18.2201   29.4815 H   0  0  0  0  0  0
    1.2498   17.8895   31.4720 H   0  0  0  0  0  0
    1.0576   15.0465   30.7129 H   0  0  0  0  0  0
   -0.5241   15.8207   32.2493 H   0  0  0  0  0  0
   -1.0576   17.1554   31.1720 H   0  0  0  0  0  0
   -1.6684   15.0995   29.5101 H   0  0  0  0  0  0
   -0.6664   13.4232   31.0035 H   0  0  0  0  0  0
   -2.4448   13.2036   30.8782 H   0  0  0  0  0  0
   -1.7354   13.9718   32.3388 H   0  0  0  0  0  0
   -3.1970   16.7700   30.4724 H   0  0  0  0  0  0
   -3.1802   15.8839   32.0348 H   0  0  0  0  0  0
   -3.8897   15.1158   30.5743 H   0  0  0  0  0  0
   -0.0578   13.9226   28.7249 H   0  0  0  0  0  0
   -0.0399   16.0136   26.4689 H   0  0  0  0  0  0
    1.7779   14.3268   26.3340 H   0  0  0  0  0  0
    0.5854   14.0764   25.0141 H   0  0  0  0  0  0
    0.5618   13.0108   26.4600 H   0  0  0  0  0  0
   -3.9013   13.9636   25.9627 H   0  0  0  0  0  0
   -4.7698   13.3958   23.6122 H   0  0  0  0  0  0
   -3.3327   14.2493   22.9543 H   0  0  0  0  0  0
   -4.4915   11.3186   25.1152 H   0  0  0  0  0  0
   -1.0954   13.1905   22.8622 H   0  0  0  0  0  0
   -3.0790    9.1546   25.4045 H   0  0  0  0  0  0
    0.3122   11.0438   23.1298 H   0  0  0  0  0  0
   -0.6838    9.0143   24.3915 H   0  0  0  0  0  0
   -0.7355   16.3993   24.8231 H   0  0  0  0  0  0
   -2.3784   17.0434   24.4874 H   0  0  0  0  0  0
   -1.6823   15.7653   23.4345 H   0  0  0  0  0  0
   -7.0747   20.5736   23.1419 H   0  0  0  0  0  0
   -5.4932   19.7391   22.9717 H   0  0  0  0  0  0
   -5.6976   21.0346   24.1991 H   0  0  0  0  0  0
   -5.1820   17.2653   29.3673 H   0  0  0  0  0  0
   -6.3289   15.9768   28.8665 H   0  0  0  0  0  0
   -7.4743   17.6542   27.9136 H   0  0  0  0  0  0
   -6.0615   18.7631   27.9471 H   0  0  0  0  0  0
   -3.6374   16.7015   27.7541 H   0  0  0  0  0  0
   -4.4595   15.1060   27.8268 H   0  0  0  0  0  0
   -7.0091   17.0346   25.7541 H   0  0  0  0  0  0
  1  9  1  0  0  0
  1 74  1  0  0  0
  1 75  1  0  0  0
  1 76  1  0  0  0
  2  3  2  0  0  0
  2  4  1  0  0  0
  2 77  1  0  0  0
  3  5  1  0  0  0
  3 78  1  0  0  0
  4  6  2  0  0  0
  4 79  1  0  0  0
  5  8  2  0  0  0
  5 80  1  0  0  0
  6  8  1  0  0  0
  6 81  1  0  0  0
  7  9  1  0  0  0
  7 19  1  0  0  0
  7 82  1  0  0  0
  8  9  1  0  0  0
  9 83  1  0  0  0
 10 24  1  0  0  0
 10 84  1  0  0  0
 10 85  1  0  0  0
 10 86  1  0  0  0
 11 25  1  0  0  0
 11 87  1  0  0  0
 11 88  1  0  0  0
 11 89  1  0  0  0
 12 19  2  0  0  0
 13 20  2  0  0  0
 14 25  2  0  0  0
 15 25  2  0  0  0
 16 21  2  0  0  0
 16 22  1  0  0  0
 16 90  1  0  0  0
 17 21  1  0  0  0
 17 23  2  0  0  0
 17 91  1  0  0  0
 18 22  2  0  0  0
 18 23  1  0  0  0
 18 92  1  0  0  0
 19 21  1  0  0  0
 20 22  1  0  0  0
 20 26  1  0  0  0
 23 24  1  0  0  0
 24 25  1  0  0  0
 26 27  1  0  0  0
 26 93  1  0  0  0
 27 28  1  0  0  0
 27 35  1  0  0  0
 27 94  1  0  0  0
 28 29  1  0  0  0
 28 95  1  0  0  0
 28 96  1  0  0  0
 29 30  2  0  0  0
 29 31  1  0  0  0
 30 32  1  0  0  0
 30 97  1  0  0  0
 31 33  2  0  0  0
 31 98  1  0  0  0
 32 34  2  0  0  0
 32 99  1  0  0  0
 33 34  1  0  0  0
 33100  1  0  0  0
 34101  1  0  0  0
 35 36  1  0  0  0
 35 37  1  0  0  0
 35102  1  0  0  0
 36103  1  0  0  0
 37 38  1  0  0  0
 37104  1  0  0  0
 37105  1  0  0  0
 38 39  2  0  0  0
 38 40  1  0  0  0
 40 41  1  0  0  0
 40106  1  0  0  0
 41 42  1  0  0  0
 41 44  1  0  0  0
 41107  1  0  0  0
 42 43  2  0  0  0
 42 48  1  0  0  0
 44 45  1  0  0  0
 44108  1  0  0  0
 44109  1  0  0  0
 45 46  1  0  0  0
 45 47  1  0  0  0
 45110  1  0  0  0
 46111  1  0  0  0
 46112  1  0  0  0
 46113  1  0  0  0
 47114  1  0  0  0
 47115  1  0  0  0
 47116  1  0  0  0
 48 49  1  0  0  0
 48117  1  0  0  0
 49 50  1  0  0  0
 49 52  1  0  0  0
 49118  1  0  0  0
 50 51  2  0  0  0
 50 53  1  0  0  0
 52119  1  0  0  0
 52120  1  0  0  0
 52121  1  0  0  0
 53 54  1  0  0  0
 53 64  1  0  0  0
 54 55  1  0  0  0
 54 57  1  0  0  0
 54122  1  0  0  0
 55 56  2  0  0  0
 55 73  1  0  0  0
 57 58  1  0  0  0
 57123  1  0  0  0
 57124  1  0  0  0
 58 59  2  0  0  0
 58 60  1  0  0  0
 59 61  1  0  0  0
 59125  1  0  0  0
 60 62  2  0  0  0
 60126  1  0  0  0
 61 63  2  0  0  0
 61127  1  0  0  0
 62 63  1  0  0  0
 62128  1  0  0  0
 63129  1  0  0  0
 64130  1  0  0  0
 64131  1  0  0  0
 64132  1  0  0  0
 65 70  1  0  0  0
 65133  1  0  0  0
 65134  1  0  0  0
 65135  1  0  0  0
 66 71  2  0  0  0
 67 68  1  0  0  0
 67 69  1  0  0  0
 67136  1  0  0  0
 67137  1  0  0  0
 68 72  1  0  0  0
 68138  1  0  0  0
 68139  1  0  0  0
 69 73  1  0  0  0
 69140  1  0  0  0
 69141  1  0  0  0
 70 71  1  0  0  0
 71 72  1  0  0  0
 72 73  1  0  0  0
 72142  1  0  0  0
M  END
> <s_m_source_file>
../3uqr_ligand.sdf

> <i_m_source_file_index>
1

> <s_epik_input>
W2NIXTFbY0hdW2NIXVtjSF1bY0hdYzFbQ0BASF0oW0NIM10pW05IXUMoPU8pYzJbY0hdYyhbY0hdYyhbY0hdMilOKFtDSDNdKVMoPU8pKD1PKVtDSDNdKUMoPU8pW05IXVtDQEBIXShbQ0gyXWMzW2NIXVtjSF1bY0hdW2NIXVtjSF0zKVtDQEBIXShbT0hdKVtDSDJdQyg9TylbTkhdW0NAQEhdKFtDSDJdW0NIXShbQ0gzXSlbQ0gzXSlDKD1PKVtOSF1bQ0BASF0oW0NIM10pQyg9TylOKFtDSDNdKVtDQEhdKFtDSDJdYzRbY0hdW2NIXVtjSF1bY0hdW2NIXTQpQyg9TylONVtDSDJdW0NIMl1bQ0gyXVtDQEhdNUMoPU8pT1tDSDNd

> <s_epik_cmdline>
J2VwaWtfYXBwJywgJy1pbWFlJywgJ2xpZ2FuZF9wcm8ubWFlJywgJy1vbWFlJywgJ2xpZ2FuZF9wcmVwLm1hZScsICctbXMnLCAnMScsICctcGgnLCAnNycsICctcGh0JywgJzAuNScsICctbnQn

> <r_lp_tautomer_probability>
1

> <r_epik_Ionization_Penalty>
  0.0000

> <r_epik_Ionization_Penalty_Charging>
  0.0000

> <r_epik_Ionization_Penalty_Neutral>
  0.0000

> <r_epik_State_Penalty>
 -0.0000

> <r_epik_Charging_Adjusted_Penalty>
0

> <i_epik_Tot_Q>
0

> <i_epik_Tot_abs_Q>
0

> <s_epik_Chemistry_Notes>
This compound has an ester and may undergo hydrolysis at high or low pH.

$$$$
