3ur0_ligand
                    3D
 Schrodinger Suite 2020-3.
 34 35  0  0  1  0            999 V2000
  -50.0210   19.2320   32.8380 C   0  0  0  0  0  0
  -49.2540   20.5330   33.1390 C   0  0  0  0  0  0
  -48.6860   20.6740   34.2240 O   0  0  0  0  0  0
  -49.3030   21.4590   32.1560 N   0  0  0  0  0  0
  -48.6980   22.6730   32.1430 C   0  0  0  0  0  0
  -47.4000   22.7390   32.6600 C   0  0  0  0  0  0
  -46.6980   23.9350   32.6740 C   0  0  0  0  0  0
  -47.2700   25.0950   32.1560 C   0  0  0  0  0  0
  -46.3180   26.5950   32.2030 S   0  0  0  0  0  0
  -44.8920   26.2820   32.5700 O   0  0  0  0  0  0
  -46.3290   27.2580   30.8510 O   0  5  0  0  0  0
  -46.8780   27.4650   33.1920 O   0  0  0  0  0  0
  -49.2940   23.8480   31.6000 C   0  0  0  0  0  0
  -48.5690   25.0570   31.6210 C   0  0  0  0  0  0
  -49.1360   26.2350   31.1050 C   0  0  0  0  0  0
  -50.5880   23.8990   31.0380 C   0  0  0  0  0  0
  -51.6740   22.5940   30.9090 S   0  0  0  0  0  0
  -52.7820   23.0100   30.0980 O   0  0  0  0  0  0
  -50.9980   21.4170   30.2820 O   0  0  0  0  0  0
  -52.1540   22.2620   32.2940 O   0  5  0  0  0  0
  -51.1320   25.0680   30.5340 C   0  0  0  0  0  0
  -50.4240   26.2470   30.5620 C   0  0  0  0  0  0
  -51.2000   27.6810   29.8840 S   0  0  0  0  0  0
  -52.3990   27.9920   30.6030 O   0  0  0  0  0  0
  -51.5230   27.3820   28.4490 O   0  0  0  0  0  0
  -50.2510   28.8430   29.9640 O   0  5  0  0  0  0
  -49.9241   18.5436   33.6905 H   0  0  0  0  0  0
  -49.6031   18.7603   31.9364 H   0  0  0  0  0  0
  -51.0836   19.4629   32.6721 H   0  0  0  0  0  0
  -49.8823   21.2609   31.2421 H   0  0  0  0  0  0
  -46.9336   21.8376   33.0575 H   0  0  0  0  0  0
  -45.6923   23.9677   33.0930 H   0  0  0  0  0  0
  -48.5588   27.1593   31.1288 H   0  0  0  0  0  0
  -52.1356   25.0540   30.1089 H   0  0  0  0  0  0
  1  2  1  0  0  0
  1 27  1  0  0  0
  1 28  1  0  0  0
  1 29  1  0  0  0
  2  3  2  0  0  0
  2  4  1  0  0  0
  4  5  1  0  0  0
  4 30  1  0  0  0
  5  6  2  0  0  0
  5 13  1  0  0  0
  6  7  1  0  0  0
  6 31  1  0  0  0
  7  8  2  0  0  0
  7 32  1  0  0  0
  8  9  1  0  0  0
  8 14  1  0  0  0
  9 10  2  0  0  0
  9 11  1  0  0  0
  9 12  2  0  0  0
 13 14  2  0  0  0
 13 16  1  0  0  0
 14 15  1  0  0  0
 15 22  2  0  0  0
 15 33  1  0  0  0
 16 17  1  0  0  0
 16 21  2  0  0  0
 17 18  2  0  0  0
 17 19  2  0  0  0
 17 20  1  0  0  0
 21 22  1  0  0  0
 21 34  1  0  0  0
 22 23  1  0  0  0
 23 24  2  0  0  0
 23 25  2  0  0  0
 23 26  1  0  0  0
M  CHG  3  11  -1  20  -1  26  -1
M  END
> <s_m_source_file>
../3ur0_ligand.sdf

> <i_m_source_file_index>
1

> <s_epik_input>
W0NIM11DKD1PKVtOSF1jMVtjSF1bY0hdYyhTKD1PKSg9TylbT0hdKWMoYzEyKVtjSF1jKFMoPU8pKD1PKVtPSF0pW2NIXWMyUyg9TykoPU8pW09IXQ==

> <s_epik_cmdline>
J2VwaWtfYXBwJywgJy1pbWFlJywgJ2xpZ2FuZF9wcm8ubWFlJywgJy1vbWFlJywgJ2xpZ2FuZF9wcmVwLm1hZScsICctbXMnLCAnMScsICctcGgnLCAnNycsICctcGh0JywgJzAuNScsICctbnQn

> <r_lp_tautomer_probability>
1

> <r_epik_Ionization_Penalty>
  0.0000

> <r_epik_Ionization_Penalty_Charging>
  0.0000

> <r_epik_Ionization_Penalty_Neutral>
  0.0000

> <r_epik_State_Penalty>
 -0.0000

> <r_epik_Charging_Adjusted_Penalty>
4.96112009986476e-06

> <i_epik_Tot_Q>
-3

> <i_epik_Tot_abs_Q>
3

$$$$
