3ur9_ligand
                    3D
 Schrodinger Suite 2020-3.
 50 50  0  0  1  0            999 V2000
  -23.0180  -20.6780   36.1800 C   0  0  0  0  0  0
  -22.3290  -21.5920   35.3260 O   0  0  0  0  0  0
  -21.2430  -21.1160   34.5040 C   0  0  0  0  0  0
  -21.1030  -19.8990   34.3600 O   0  0  0  0  0  0
  -20.4240  -22.0460   33.9220 N   0  0  0  0  0  0
  -19.2690  -21.6330   33.1050 C   0  0  2  0  0  0
  -19.7460  -21.0130   31.8260 C   0  0  0  0  0  0
  -20.7350  -21.4520   31.2460 O   0  0  0  0  0  0
  -18.3920  -22.8180   32.7030 C   0  0  0  0  0  0
  -17.8300  -23.5600   33.9060 C   0  0  0  0  0  0
  -17.1830  -24.8510   33.4220 C   0  0  0  0  0  0
  -16.8190  -22.7220   34.6610 C   0  0  0  0  0  0
  -19.0370  -19.9270   31.3240 N   0  0  0  0  0  0
  -19.4460  -19.2110   30.1160 C   0  0  2  0  0  0
  -18.2490  -19.0270   29.1660 C   0  0  0  0  0  0
  -17.8140  -20.2860   28.6450 O   0  0  0  0  0  0
  -20.0190  -17.8420   30.4270 C   0  0  0  0  0  0
  -21.2120  -17.9050   31.3670 C   0  0  2  0  0  0
  -22.4150  -18.6230   30.7400 C   0  0  0  0  0  0
  -23.6280  -17.8360   31.2290 C   0  0  0  0  0  0
  -23.1600  -16.4850   31.6250 N   0  0  0  0  0  0
  -21.7830  -16.5490   31.5740 C   0  0  0  0  0  0
  -21.1070  -15.5430   31.6970 O   0  0  0  0  0  0
  -23.8087  -21.2123   36.7271 H   0  0  0  0  0  0
  -23.4680  -19.8780   35.5738 H   0  0  0  0  0  0
  -22.3080  -20.2397   36.8968 H   0  0  0  0  0  0
  -20.6381  -23.1146   34.0713 H   0  0  0  0  0  0
  -18.7181  -20.9194   33.7354 H   0  0  0  0  0  0
  -18.9867  -23.5306   32.1126 H   0  0  0  0  0  0
  -17.5449  -22.4593   32.0999 H   0  0  0  0  0  0
  -18.6516  -23.7766   34.6046 H   0  0  0  0  0  0
  -17.9257  -25.4509   32.8757 H   0  0  0  0  0  0
  -16.8140  -25.4226   34.2863 H   0  0  0  0  0  0
  -16.3421  -24.6118   32.7545 H   0  0  0  0  0  0
  -17.2969  -21.7930   35.0055 H   0  0  0  0  0  0
  -15.9770  -22.4768   33.9970 H   0  0  0  0  0  0
  -16.4489  -23.2876   35.5288 H   0  0  0  0  0  0
  -18.1372  -19.6114   31.8723 H   0  0  0  0  0  0
  -20.2317  -19.8476   29.6832 H   0  0  0  0  0  0
  -18.5430  -18.3792   28.3270 H   0  0  0  0  0  0
  -17.4149  -18.5629   29.7127 H   0  0  0  0  0  0
  -16.9643  -20.3287   27.9477 H   0  0  0  0  0  0
  -19.2466  -17.2210   30.9042 H   0  0  0  0  0  0
  -20.3502  -17.3625   29.4940 H   0  0  0  0  0  0
  -20.8215  -18.3762   32.2811 H   0  0  0  0  0  0
  -22.3256  -18.5994   29.6439 H   0  0  0  0  0  0
  -22.4384  -19.6677   31.0835 H   0  0  0  0  0  0
  -24.3681  -17.7620   30.4185 H   0  0  0  0  0  0
  -24.0775  -18.3525   32.0899 H   0  0  0  0  0  0
  -23.8902  -15.7021   31.8776 H   0  0  0  0  0  0
  1  2  1  0  0  0
  1 24  1  0  0  0
  1 25  1  0  0  0
  1 26  1  0  0  0
  2  3  1  0  0  0
  3  4  2  0  0  0
  3  5  1  0  0  0
  5  6  1  0  0  0
  5 27  1  0  0  0
  6  7  1  0  0  0
  6  9  1  0  0  0
  6 28  1  0  0  0
  7  8  2  0  0  0
  7 13  1  0  0  0
  9 10  1  0  0  0
  9 29  1  0  0  0
  9 30  1  0  0  0
 10 11  1  0  0  0
 10 12  1  0  0  0
 10 31  1  0  0  0
 11 32  1  0  0  0
 11 33  1  0  0  0
 11 34  1  0  0  0
 12 35  1  0  0  0
 12 36  1  0  0  0
 12 37  1  0  0  0
 13 14  1  0  0  0
 13 38  1  0  0  0
 14 15  1  0  0  0
 14 17  1  0  0  0
 14 39  1  0  0  0
 15 16  1  0  0  0
 15 40  1  0  0  0
 15 41  1  0  0  0
 16 42  1  0  0  0
 17 18  1  0  0  0
 17 43  1  0  0  0
 17 44  1  0  0  0
 18 19  1  0  0  0
 18 22  1  0  0  0
 18 45  1  0  0  0
 19 20  1  0  0  0
 19 46  1  0  0  0
 19 47  1  0  0  0
 20 21  1  0  0  0
 20 48  1  0  0  0
 20 49  1  0  0  0
 21 22  1  0  0  0
 21 50  1  0  0  0
 22 23  2  0  0  0
M  END
> <s_m_source_file>
../3ur9_ligand.sdf

> <i_m_source_file_index>
1

> <s_epik_input>
W0NIM11PQyg9TylbTkhdW0NAQEhdKFtDSDJdW0NIXShbQ0gzXSlbQ0gzXSlDKD1PKVtOSF1bQ0BIXShbQ0gyXVtPSF0pW0NIMl1bQ0BASF0xW0NIMl1bQ0gyXVtOSF1DMT1P

> <s_epik_cmdline>
J2VwaWtfYXBwJywgJy1pbWFlJywgJ2xpZ2FuZF9wcm8ubWFlJywgJy1vbWFlJywgJ2xpZ2FuZF9wcmVwLm1hZScsICctbXMnLCAnMScsICctcGgnLCAnNycsICctcGh0JywgJzAuNScsICctbnQn

> <r_lp_tautomer_probability>
1

> <r_epik_Ionization_Penalty>
  0.0000

> <r_epik_Ionization_Penalty_Charging>
  0.0000

> <r_epik_Ionization_Penalty_Neutral>
  0.0000

> <r_epik_State_Penalty>
 -0.0000

> <r_epik_Charging_Adjusted_Penalty>
0

> <i_epik_Tot_Q>
0

> <i_epik_Tot_abs_Q>
0

> <s_epik_Chemistry_Notes>
This compound has an ester and may undergo hydrolysis at high or low pH.

$$$$
