3usn_ligand
                    3D
 Schrodinger Suite 2020-3.
 36 37  0  0  1  0            999 V2000
   -9.2880    1.7670    8.9730 C   0  0  1  0  0  0
  -10.5160    0.9950    8.3530 C   0  0  0  0  0  0
  -10.9470    2.5120    6.4320 C   0  0  0  0  0  0
   -6.2210    5.0900   10.2810 C   0  0  0  0  0  0
   -5.9830    4.7020   11.6090 C   0  0  0  0  0  0
   -6.9470    3.9690   12.3020 C   0  0  0  0  0  0
   -8.0910    3.5250   11.6450 C   0  0  0  0  0  0
   -4.5840    1.8160    8.4670 C   0  0  0  0  0  0
   -2.4420    1.6490    9.6280 C   0  0  0  0  0  0
   -2.5110    2.6060    8.7050 N   0  0  0  0  0  0
   -3.7240    2.6660    8.1230 N   0  0  0  0  0  0
   -3.9280    0.7320    9.6790 S   0  0  0  0  0  0
   -1.1010    1.3360   10.4720 S   0  5  0  0  0  0
   -5.8870    1.7870    7.8900 N   0  0  0  0  0  0
   -6.9290    1.2530    8.4720 C   0  0  0  0  0  0
   -6.7550    0.5460    9.5000 O   0  0  0  0  0  0
   -8.1090    1.6510    8.0610 N   0  0  0  0  0  0
  -11.0390   -0.0030    8.8640 O   0  0  0  0  0  0
  -11.1900    1.2850    7.2560 N   0  0  0  0  0  0
   -9.4690    3.2280    9.4960 C   0  0  0  0  0  0
   -8.3130    3.8360   10.2990 C   0  0  0  0  0  0
   -7.3970    4.6430    9.6470 C   0  0  0  0  0  0
   -9.0741    1.2342    9.9113 H   0  0  0  0  0  0
  -11.6360    2.5202    5.5746 H   0  0  0  0  0  0
   -9.9089    2.5097    6.0682 H   0  0  0  0  0  0
  -11.1176    3.4071    7.0481 H   0  0  0  0  0  0
   -5.5103    5.7243    9.7511 H   0  0  0  0  0  0
   -5.0471    4.9728   12.0977 H   0  0  0  0  0  0
   -6.8041    3.7438   13.3589 H   0  0  0  0  0  0
   -8.8239    2.9269   12.1865 H   0  0  0  0  0  0
   -6.0595    2.2311    6.8985 H   0  0  0  0  0  0
   -8.2108    1.9047    6.9955 H   0  0  0  0  0  0
  -11.9668    0.5661    6.9562 H   0  0  0  0  0  0
   -9.6216    3.9063    8.6436 H   0  0  0  0  0  0
  -10.3434    3.2734   10.1619 H   0  0  0  0  0  0
   -7.5904    4.9404    8.6164 H   0  0  0  0  0  0
  1  2  1  0  0  0
  1 17  1  0  0  0
  1 20  1  0  0  0
  1 23  1  0  0  0
  2 18  2  0  0  0
  2 19  1  0  0  0
  3 19  1  0  0  0
  3 24  1  0  0  0
  3 25  1  0  0  0
  3 26  1  0  0  0
  4  5  2  0  0  0
  4 22  1  0  0  0
  4 27  1  0  0  0
  5  6  1  0  0  0
  5 28  1  0  0  0
  6  7  2  0  0  0
  6 29  1  0  0  0
  7 21  1  0  0  0
  7 30  1  0  0  0
  8 11  2  0  0  0
  8 12  1  0  0  0
  8 14  1  0  0  0
  9 10  2  0  0  0
  9 12  1  0  0  0
  9 13  1  0  0  0
 10 11  1  0  0  0
 14 15  1  0  0  0
 14 31  1  0  0  0
 15 16  2  0  0  0
 15 17  1  0  0  0
 17 32  1  0  0  0
 19 33  1  0  0  0
 20 21  1  0  0  0
 20 34  1  0  0  0
 20 35  1  0  0  0
 21 22  2  0  0  0
 22 36  1  0  0  0
M  CHG  1  13  -1
M  END
> <s_m_source_file>
../3usn_ligand.sdf

> <i_m_source_file_index>
1

> <s_epik_input>
W2NIXTFbY0hdW2NIXVtjSF1bY0hdYzFbQ0gyXVtDQEBIXShDKD1PKVtOSF1bQ0gzXSlbTkhdQyg9TylbTkhdYzJubmMoczIpW1NIXQ==

> <s_epik_cmdline>
J2VwaWtfYXBwJywgJy1pbWFlJywgJ2xpZ2FuZF9wcm8ubWFlJywgJy1vbWFlJywgJ2xpZ2FuZF9wcmVwLm1hZScsICctbXMnLCAnMScsICctcGgnLCAnNycsICctcGh0JywgJzAuNScsICctbnQn

> <r_lp_tautomer_probability>
1

> <r_epik_Ionization_Penalty>
  0.0008

> <r_epik_Ionization_Penalty_Charging>
  0.0000

> <r_epik_Ionization_Penalty_Neutral>
  0.0008

> <r_epik_State_Penalty>
 -0.0000

> <r_epik_Charging_Adjusted_Penalty>
1.03119054134483e-10

> <i_epik_Tot_Q>
-1

> <i_epik_Tot_abs_Q>
1

$$$$
