3usx_ligand
                    3D
 Schrodinger Suite 2020-3.
 43 42  0  0  1  0            999 V2000
  -34.3880  -17.6260  -41.0770 C   0  0  0  0  0  0
  -33.7600  -18.1540  -40.1310 O   0  0  0  0  0  0
  -33.8310  -16.6690  -41.6640 O   0  5  0  0  0  0
  -35.7800  -18.0990  -41.4960 C   0  0  0  0  0  0
  -36.0040  -19.6160  -41.3620 C   0  0  0  0  0  0
  -36.3990  -20.3350  -42.6650 C   0  0  0  0  0  0
  -36.2410  -21.8600  -42.5840 C   0  0  0  0  0  0
  -34.9290  -22.3590  -43.1790 C   0  0  0  0  0  0
  -33.7040  -21.8710  -42.3930 C   0  0  0  0  0  0
  -32.9910  -22.9870  -41.6190 C   0  0  0  0  0  0
  -33.4830  -23.0750  -40.1780 C   0  0  0  0  0  0
  -33.5540  -24.5290  -39.7060 C   0  0  0  0  0  0
  -34.9860  -24.9650  -39.3940 C   0  0  0  0  0  0
  -35.0510  -26.4000  -38.8760 C   0  0  0  0  0  0
  -36.1250  -27.2070  -39.6170 C   0  0  0  0  0  0
  -37.3660  -27.4760  -38.7700 C   0  0  0  0  0  0
  -36.5385  -17.6065  -40.8698 H   0  0  0  0  0  0
  -35.9525  -17.8416  -42.5515 H   0  0  0  0  0  0
  -35.0785  -20.0934  -41.0078 H   0  0  0  0  0  0
  -36.8131  -19.8049  -40.6411 H   0  0  0  0  0  0
  -37.4529  -20.1214  -42.8966 H   0  0  0  0  0  0
  -35.7629  -19.9777  -43.4883 H   0  0  0  0  0  0
  -36.2702  -22.1762  -41.5308 H   0  0  0  0  0  0
  -37.0613  -22.3434  -43.1349 H   0  0  0  0  0  0
  -34.9188  -23.4589  -43.1735 H   0  0  0  0  0  0
  -34.8341  -21.9967  -44.2133 H   0  0  0  0  0  0
  -32.9729  -21.4329  -43.0884 H   0  0  0  0  0  0
  -34.0163  -21.1105  -41.6622 H   0  0  0  0  0  0
  -33.1810  -23.9529  -42.1099 H   0  0  0  0  0  0
  -31.9089  -22.7897  -41.6046 H   0  0  0  0  0  0
  -32.7928  -22.5258  -39.5207 H   0  0  0  0  0  0
  -34.4877  -22.6330  -40.1059 H   0  0  0  0  0  0
  -33.1592  -25.1894  -40.4921 H   0  0  0  0  0  0
  -32.9537  -24.6475  -38.7919 H   0  0  0  0  0  0
  -35.4111  -24.3040  -38.6244 H   0  0  0  0  0  0
  -35.5954  -24.9032  -40.3077 H   0  0  0  0  0  0
  -34.0772  -26.8888  -39.0270 H   0  0  0  0  0  0
  -35.2948  -26.3920  -37.8034 H   0  0  0  0  0  0
  -36.4469  -26.6540  -40.5118 H   0  0  0  0  0  0
  -35.7102  -28.1806  -39.9172 H   0  0  0  0  0  0
  -38.0927  -28.0558  -39.3581 H   0  0  0  0  0  0
  -37.8182  -26.5198  -38.4681 H   0  0  0  0  0  0
  -37.0814  -28.0463  -37.8735 H   0  0  0  0  0  0
  1  2  2  0  0  0
  1  3  1  0  0  0
  1  4  1  0  0  0
  4  5  1  0  0  0
  4 17  1  0  0  0
  4 18  1  0  0  0
  5  6  1  0  0  0
  5 19  1  0  0  0
  5 20  1  0  0  0
  6  7  1  0  0  0
  6 21  1  0  0  0
  6 22  1  0  0  0
  7  8  1  0  0  0
  7 23  1  0  0  0
  7 24  1  0  0  0
  8  9  1  0  0  0
  8 25  1  0  0  0
  8 26  1  0  0  0
  9 10  1  0  0  0
  9 27  1  0  0  0
  9 28  1  0  0  0
 10 11  1  0  0  0
 10 29  1  0  0  0
 10 30  1  0  0  0
 11 12  1  0  0  0
 11 31  1  0  0  0
 11 32  1  0  0  0
 12 13  1  0  0  0
 12 33  1  0  0  0
 12 34  1  0  0  0
 13 14  1  0  0  0
 13 35  1  0  0  0
 13 36  1  0  0  0
 14 15  1  0  0  0
 14 37  1  0  0  0
 14 38  1  0  0  0
 15 16  1  0  0  0
 15 39  1  0  0  0
 15 40  1  0  0  0
 16 41  1  0  0  0
 16 42  1  0  0  0
 16 43  1  0  0  0
M  CHG  1   3  -1
M  END
> <s_m_source_file>
../3usx_ligand.sdf

> <i_m_source_file_index>
1

> <s_epik_input>
Tz1DKFtPSF0pW0NIMl1bQ0gyXVtDSDJdW0NIMl1bQ0gyXVtDSDJdW0NIMl1bQ0gyXVtDSDJdW0NIMl1bQ0gyXVtDSDJdW0NIM10=

> <s_epik_cmdline>
J2VwaWtfYXBwJywgJy1pbWFlJywgJ2xpZ2FuZF9wcm8ubWFlJywgJy1vbWFlJywgJ2xpZ2FuZF9wcmVwLm1hZScsICctbXMnLCAnMScsICctcGgnLCAnNycsICctcGh0JywgJzAuNScsICctbnQn

> <r_lp_tautomer_probability>
1

> <r_epik_Ionization_Penalty>
  0.0049

> <r_epik_Ionization_Penalty_Charging>
  0.0049

> <r_epik_Ionization_Penalty_Neutral>
  0.0000

> <r_epik_State_Penalty>
 -0.0000

> <r_epik_Charging_Adjusted_Penalty>
0.00486649495677768

> <i_epik_Tot_Q>
-1

> <i_epik_Tot_abs_Q>
1

$$$$
