3ut5_ligand
                    3D
 Schrodinger Suite 2020-3.
 69 70  0  0  1  0            999 V2000
    8.8290   86.0640  104.5240 O   0  0  0  0  0  0
    8.6010   86.3730  105.9110 C   0  0  0  0  0  0
    7.3030   86.6770  106.4580 C   0  0  0  0  0  0
    9.6620   86.3950  106.8620 C   0  0  0  0  0  0
   10.8440   86.1570  106.4970 O   0  0  0  0  0  0
    9.5310   86.6680  108.2240 C   0  0  0  0  0  0
    8.2650   86.9770  108.7250 C   0  0  0  0  0  0
    7.1340   86.9850  107.8580 C   0  0  1  0  0  0
    5.7520   87.3540  108.4430 C   0  0  1  0  0  0
    5.5610   86.8880  109.8300 O   0  0  0  0  0  0
    5.7700   88.9460  108.4150 C   0  0  2  0  0  0
    4.6480   89.5440  109.1760 N   0  3  0  0  0  0
    5.0150   90.9020  109.6230 C   0  0  0  0  0  0
    6.1150   89.6730  107.0270 C   0  0  0  0  0  0
    5.2510   89.7760  106.0810 O   0  0  0  0  0  0
    7.4330   90.1440  106.9930 N   0  0  0  0  0  0
    8.1420   90.8570  105.9250 C   0  0  2  0  0  0
    9.2130   89.9720  105.2740 C   0  0  0  0  0  0
   10.3920   90.0120  105.6360 O   0  0  0  0  0  0
    8.7120   92.2200  106.3800 C   0  0  0  0  0  0
    9.0140   93.1080  105.1790 C   0  0  0  0  0  0
    7.7700   92.9170  107.3520 C   0  0  0  0  0  0
    9.1980   84.8630  101.9140 C   0  0  0  0  0  0
    9.2400   86.3800  101.9960 C   0  0  0  0  0  0
    8.6580   86.9860  103.3080 C   0  0  1  0  0  0
    7.1240   87.2250  103.0480 C   0  0  0  0  0  0
    8.7280   89.2120  104.3220 N   0  0  0  0  0  0
    9.5350   88.2700  103.5530 C   0  0  2  0  0  0
   10.5580   88.9320  102.5390 C   0  0  0  0  0  0
   11.7810   88.8210  102.8470 O   0  0  0  0  0  0
   10.0910   89.5580  101.4360 N   0  0  0  0  0  0
   10.9280   90.1910  100.4240 C   0  0  0  0  0  0
   11.3540   89.2300   99.3340 C   0  0  0  0  0  0
   12.4240   89.3850   98.7420 O   0  0  0  0  0  0
   10.7750   88.0670   99.1880 O   0  5  0  0  0  0
    6.4175   86.6772  105.8054 H   0  0  0  0  0  0
   10.3989   86.6436  108.8994 H   0  0  0  0  0  0
    8.1386   87.2151  109.7915 H   0  0  0  0  0  0
    6.9627   85.9196  108.0717 H   0  0  0  0  0  0
    4.9325   86.8409  107.9184 H   0  0  0  0  0  0
    5.5220   85.8105  110.0477 H   0  0  0  0  0  0
    6.6185   89.2310  109.0543 H   0  0  0  0  0  0
    3.7577   89.6010  108.5325 H   0  0  0  0  0  0
    4.4264   88.9195  110.0540 H   0  0  0  0  0  0
    4.1788   91.3408  110.1871 H   0  0  0  0  0  0
    5.2355   91.5294  108.7467 H   0  0  0  0  0  0
    5.9042   90.8478  110.2683 H   0  0  0  0  0  0
    7.9499   89.9102  107.9354 H   0  0  0  0  0  0
    7.3520   91.0562  105.1859 H   0  0  0  0  0  0
    9.6576   92.0465  106.9145 H   0  0  0  0  0  0
    9.6951   92.5805  104.4950 H   0  0  0  0  0  0
    9.4877   94.0397  105.5218 H   0  0  0  0  0  0
    8.0772   93.3447  104.6533 H   0  0  0  0  0  0
    7.5698   92.2547  108.2071 H   0  0  0  0  0  0
    6.8246   93.1524  106.8413 H   0  0  0  0  0  0
    8.2351   93.8474  107.7098 H   0  0  0  0  0  0
    9.6289   84.5355  100.9564 H   0  0  0  0  0  0
    8.1548   84.5208  101.9828 H   0  0  0  0  0  0
    9.7799   84.4347  102.7435 H   0  0  0  0  0  0
   10.2832   86.7222  101.9272 H   0  0  0  0  0  0
    8.6582   86.8083  101.1665 H   0  0  0  0  0  0
    6.6235   86.2579  102.8923 H   0  0  0  0  0  0
    6.9971   87.8519  102.1530 H   0  0  0  0  0  0
    6.6795   87.7322  103.9170 H   0  0  0  0  0  0
    7.6524   89.3119  104.1146 H   0  0  0  0  0  0
   10.3586   87.8713  104.1635 H   0  0  0  0  0  0
    8.9962   89.5695  101.3300 H   0  0  0  0  0  0
   10.3718   91.0132   99.9500 H   0  0  0  0  0  0
   11.8379   90.5888  100.8971 H   0  0  0  0  0  0
  1  2  1  0  0  0
  1 25  1  0  0  0
  2  3  2  0  0  0
  2  4  1  0  0  0
  3  8  1  0  0  0
  3 36  1  0  0  0
  4  5  2  0  0  0
  4  6  1  0  0  0
  6  7  2  0  0  0
  6 37  1  0  0  0
  7  8  1  0  0  0
  7 38  1  0  0  0
  8  9  1  0  0  0
  8 39  1  0  0  0
  9 10  1  0  0  0
  9 11  1  0  0  0
  9 40  1  0  0  0
 10 41  1  0  0  0
 11 12  1  0  0  0
 11 14  1  0  0  0
 11 42  1  0  0  0
 12 13  1  0  0  0
 12 43  1  0  0  0
 12 44  1  0  0  0
 13 45  1  0  0  0
 13 46  1  0  0  0
 13 47  1  0  0  0
 14 15  2  0  0  0
 14 16  1  0  0  0
 16 17  1  0  0  0
 16 48  1  0  0  0
 17 18  1  0  0  0
 17 20  1  0  0  0
 17 49  1  0  0  0
 18 19  2  0  0  0
 18 27  1  0  0  0
 20 21  1  0  0  0
 20 22  1  0  0  0
 20 50  1  0  0  0
 21 51  1  0  0  0
 21 52  1  0  0  0
 21 53  1  0  0  0
 22 54  1  0  0  0
 22 55  1  0  0  0
 22 56  1  0  0  0
 23 24  1  0  0  0
 23 57  1  0  0  0
 23 58  1  0  0  0
 23 59  1  0  0  0
 24 25  1  0  0  0
 24 60  1  0  0  0
 24 61  1  0  0  0
 25 26  1  0  0  0
 25 28  1  0  0  0
 26 62  1  0  0  0
 26 63  1  0  0  0
 26 64  1  0  0  0
 27 28  1  0  0  0
 27 65  1  0  0  0
 28 29  1  0  0  0
 28 66  1  0  0  0
 29 30  2  0  0  0
 29 31  1  0  0  0
 31 32  1  0  0  0
 31 67  1  0  0  0
 32 33  1  0  0  0
 32 68  1  0  0  0
 32 69  1  0  0  0
 33 34  2  0  0  0
 33 35  1  0  0  0
M  CHG  2  12   1  35  -1
M  END
> <s_m_source_file>
../3ut5_ligand.sdf

> <i_m_source_file_index>
1

> <s_epik_input>
Tz1DKFtPSF0pW0NIMl1bTkhdQyg9TylbQ0BIXShbQ0BAXShPMSkoW0NIM10pW0NIMl1bQ0gzXSlbTkhdQyg9TylbQ0BIXShbQ0hdKFtDSDNdKVtDSDNdKVtOSF1DKD1PKVtDQEBIXShbTkgyK11bQ0gzXSlbQ0BIXShbT0hdKVtDQEBIXShbQ0hdPUMxMilbQ0hdPVtDSF1DMj1P

> <s_epik_cmdline>
J2VwaWtfYXBwJywgJy1pbWFlJywgJ2xpZ2FuZF9wcm8ubWFlJywgJy1vbWFlJywgJ2xpZ2FuZF9wcmVwLm1hZScsICctbXMnLCAnMScsICctcGgnLCAnNycsICctcGh0JywgJzAuNScsICctbnQn

> <r_lp_tautomer_probability>
2.55999999999325e-12

> <r_epik_Ionization_Penalty>
  0.0823

> <r_epik_Ionization_Penalty_Charging>
  0.0812

> <r_epik_Ionization_Penalty_Neutral>
  0.0011

> <r_epik_State_Penalty>
  0.0718

> <r_epik_Charging_Adjusted_Penalty>
0.152973938686061

> <i_epik_Tot_Q>
0

> <i_epik_Tot_abs_Q>
2

$$$$
