3uug_ligand
                    3D
 Schrodinger Suite 2020-3.
 22 22  0  0  1  0            999 V2000
  -62.8200   16.1970    6.1490 C   0  0  1  0  0  0
  -64.2200   15.6490    5.9100 C   0  0  1  0  0  0
  -64.5700   14.7360    7.0740 C   0  0  2  0  0  0
  -63.5230   13.6300    7.1620 C   0  0  1  0  0  0
  -62.1090   14.2140    7.1560 C   0  0  1  0  0  0
  -61.0850   13.0860    7.0590 C   0  0  0  0  0  0
  -65.1710   16.6810    5.8090 O   0  0  0  0  0  0
  -65.8660   14.2150    6.8740 O   0  0  0  0  0  0
  -63.6900   12.8910    8.3540 O   0  0  0  0  0  0
  -61.9360   15.1020    6.0660 O   0  0  0  0  0  0
  -60.2460   13.1330    6.1450 O   0  0  0  0  0  0
  -62.4940   17.1280    5.1500 O   0  0  0  0  0  0
  -61.1340   12.1640    7.9030 O   0  5  0  0  0  0
  -62.6818   16.7148    7.1096 H   0  0  0  0  0  0
  -64.2943   15.1486    4.9332 H   0  0  0  0  0  0
  -64.6458   15.2719    8.0317 H   0  0  0  0  0  0
  -63.6730   12.9166    6.3383 H   0  0  0  0  0  0
  -61.9451   14.8364    8.0481 H   0  0  0  0  0  0
  -65.0769   17.4403    5.0186 H   0  0  0  0  0  0
  -66.7258   14.8961    6.7908 H   0  0  0  0  0  0
  -64.6448   12.3843    8.5578 H   0  0  0  0  0  0
  -63.0752   18.0569    5.0530 H   0  0  0  0  0  0
  1  2  1  0  0  0
  1 10  1  0  0  0
  1 12  1  0  0  0
  1 14  1  0  0  0
  2  3  1  0  0  0
  2  7  1  0  0  0
  2 15  1  0  0  0
  3  4  1  0  0  0
  3  8  1  0  0  0
  3 16  1  0  0  0
  4  5  1  0  0  0
  4  9  1  0  0  0
  4 17  1  0  0  0
  5  6  1  0  0  0
  5 10  1  0  0  0
  5 18  1  0  0  0
  6 11  2  0  0  0
  6 13  1  0  0  0
  7 19  1  0  0  0
  8 20  1  0  0  0
  9 21  1  0  0  0
 12 22  1  0  0  0
M  CHG  1  13  -1
M  END
> <s_m_source_file>
../3uug_ligand.sdf

> <i_m_source_file_index>
1

> <s_epik_input>
W09IXVtDQEhdMVtDQEhdKFtPSF0pW0NAQEhdKFtPSF0pW0NASF0oW09IXSlbQ0BIXShPMSlDKD1PKVtPSF0=

> <s_epik_cmdline>
J2VwaWtfYXBwJywgJy1pbWFlJywgJ2xpZ2FuZF9wcm8ubWFlJywgJy1vbWFlJywgJ2xpZ2FuZF9wcmVwLm1hZScsICctbXMnLCAnMScsICctcGgnLCAnNycsICctcGh0JywgJzAuNScsICctbnQn

> <r_lp_tautomer_probability>
1

> <r_epik_Ionization_Penalty>
  0.0001

> <r_epik_Ionization_Penalty_Charging>
  0.0001

> <r_epik_Ionization_Penalty_Neutral>
  0.0000

> <r_epik_State_Penalty>
 -0.0000

> <r_epik_Charging_Adjusted_Penalty>
8.06257782590669e-05

> <i_epik_Tot_Q>
-1

> <i_epik_Tot_abs_Q>
1

> <s_epik_Chemistry_Notes>
This compound contains an acetal/aminal-like group ( X-CH(R)-Y where X, Y are N, S, or O) that may be acid/base labile, releasing an aldehyde.

$$$$
