3uvk_ligand
                    3D
 Schrodinger Suite 2020-3.
170170  0  0  1  0            999 V2000
   -6.4830   26.9100  -14.8310 N   0  3  0  0  0  0
   -7.7150   27.0770  -15.6690 C   0  0  0  0  0  0
   -7.7920   26.1020  -16.8170 C   0  0  0  0  0  0
   -6.9340   26.2360  -17.8710 O   0  0  0  0  0  0
   -8.7830   25.1490  -16.7670 N   0  0  0  0  0  0
   -8.8170   24.2580  -17.8640 C   0  0  2  0  0  0
  -10.1360   24.1670  -18.6470 C   0  0  0  0  0  0
  -11.2660   24.4930  -18.1990 O   0  0  0  0  0  0
   -8.3960   22.8540  -17.3340 C   0  0  0  0  0  0
   -9.4590   22.2430  -16.2620 S   0  0  0  0  0  0
  -10.0200   23.5530  -19.8540 N   0  0  0  0  0  0
  -11.2060   23.3990  -20.6910 C   0  0  2  0  0  0
  -12.3260   22.6030  -19.9900 C   0  0  0  0  0  0
  -13.5330   22.9080  -20.0820 O   0  0  0  0  0  0
  -10.8230   22.7740  -22.0740 C   0  0  0  0  0  0
  -11.9690   21.5480  -19.2600 N   0  0  0  0  0  0
  -12.9930   20.7360  -18.6390 C   0  0  2  0  0  0
  -13.8180   21.4380  -17.6110 C   0  0  0  0  0  0
  -14.9530   21.0780  -17.3780 O   0  0  0  0  0  0
  -12.4750   19.3980  -18.0870 C   0  0  0  0  0  0
  -13.7610   18.4970  -17.8370 C   0  0  0  0  0  0
  -13.4980   17.1910  -17.7030 C   0  0  0  0  0  0
  -12.5300   16.5280  -18.5690 N   0  0  0  0  0  0
  -12.8570   15.5310  -19.3920 C   0  0  0  0  0  0
  -14.1410   15.1110  -19.4470 N   0  0  0  0  0  0
  -11.9200   14.9230  -20.1120 N   0  0  0  0  0  0
  -13.2550   22.4790  -17.0240 N   0  0  0  0  0  0
  -14.0020   23.1160  -15.9500 C   0  0  2  0  0  0
  -14.7630   24.3310  -16.3470 C   0  0  0  0  0  0
  -15.3510   24.9880  -15.4830 O   0  0  0  0  0  0
  -13.1160   23.3890  -14.7560 C   0  0  0  0  0  0
  -12.0930   24.2310  -15.1260 O   0  0  0  0  0  0
  -14.7540   24.6180  -17.6420 N   0  0  0  0  0  0
  -15.5080   25.6650  -18.2450 C   0  0  2  0  0  0
  -16.7350   25.0930  -18.9750 C   0  0  0  0  0  0
  -16.6750   24.0340  -19.4960 O   0  0  0  0  0  0
  -14.5800   26.3950  -19.2040 C   0  0  0  0  0  0
  -13.3710   26.9640  -18.5090 C   0  0  0  0  0  0
  -13.6780   28.1560  -17.6010 C   0  0  0  0  0  0
  -14.8770   28.5730  -17.5020 O   0  0  0  0  0  0
  -12.7080   28.7200  -17.0210 O   0  0  0  0  0  0
  -17.8570   25.7760  -18.9410 N   0  0  0  0  0  0
  -19.0810   25.1550  -19.4600 C   0  0  2  0  0  0
  -19.1540   25.2970  -20.9790 C   0  0  0  0  0  0
  -18.5810   26.2930  -21.5620 O   0  0  0  0  0  0
  -20.2000   25.9720  -18.8040 C   0  0  0  0  0  0
  -19.5300   27.3350  -18.5650 C   0  0  0  0  0  0
  -18.1270   26.9860  -18.1230 C   0  0  0  0  0  0
  -19.8480   24.3300  -21.6020 N   0  0  0  0  0  0
  -20.2330   24.3490  -23.0370 C   0  0  2  0  0  0
  -21.5930   25.0800  -23.0020 C   0  0  0  0  0  0
  -22.5690   24.5410  -22.3570 O   0  0  0  0  0  0
  -20.4560   22.9010  -23.5330 C   0  0  0  0  0  0
  -20.9160   22.7590  -25.0050 C   0  0  0  0  0  0
  -20.2070   23.6940  -25.9120 C   0  0  0  0  0  0
  -20.7600   23.3950  -27.3290 C   0  0  0  0  0  0
  -20.0290   24.2060  -28.2590 N   0  3  0  0  0  0
  -21.6920   26.2970  -23.5630 N   0  0  0  0  0  0
  -22.8790   27.1020  -23.5000 C   0  0  2  0  0  0
  -23.8060   26.7270  -24.6150 C   0  0  0  0  0  0
  -23.4680   26.9320  -25.8460 O   0  0  0  0  0  0
  -22.5000   28.5840  -23.6240 C   0  0  2  0  0  0
  -21.5420   28.9230  -22.4040 C   0  0  0  0  0  0
  -23.7400   29.4280  -23.5630 C   0  0  0  0  0  0
  -20.7140   30.1630  -22.6670 C   0  0  0  0  0  0
  -24.9810   26.2730  -24.2080 N   0  0  0  0  0  0
  -26.0560   25.8910  -25.1310 C   0  0  2  0  0  0
  -27.2730   26.8330  -24.8450 C   0  0  0  0  0  0
  -27.5870   26.9830  -23.6800 O   0  0  0  0  0  0
  -26.4330   24.3860  -24.9420 C   0  0  0  0  0  0
  -25.3500   23.3070  -25.1170 C   0  0  0  0  0  0
  -26.0010   21.9270  -24.9570 C   0  0  0  0  0  0
  -24.5480   23.3410  -26.4970 C   0  0  0  0  0  0
  -27.8050   27.4590  -25.9360 N   0  0  0  0  0  0
  -28.8680   28.5230  -26.1700 C   0  0  2  0  0  0
  -28.1850   29.9040  -26.3420 C   0  0  0  0  0  0
  -27.3510   30.2570  -25.4370 O   0  0  0  0  0  0
  -29.8190   28.5790  -25.0550 C   0  0  2  0  0  0
  -31.0200   29.2700  -25.4080 O   0  0  0  0  0  0
  -29.1360   29.2440  -23.8500 C   0  0  0  0  0  0
  -28.4392   30.6458  -27.3282 O   0  0  0  0  0  0
   -6.4909   27.6489  -14.0161 H   0  0  0  0  0  0
   -5.5909   27.0630  -15.4561 H   0  0  0  0  0  0
   -6.4634   25.8956  -14.4060 H   0  0  0  0  0  0
   -8.6071   26.9240  -15.0439 H   0  0  0  0  0  0
   -7.7347   28.0914  -16.0940 H   0  0  0  0  0  0
   -9.5173   25.0489  -15.9541 H   0  0  0  0  0  0
   -8.1132   24.7500  -18.5515 H   0  0  0  0  0  0
   -8.3246   22.1503  -18.1765 H   0  0  0  0  0  0
   -7.4187   22.9285  -16.8347 H   0  0  0  0  0  0
   -9.2794   21.2560  -15.8109 H   0  0  0  0  0  0
   -9.0479   23.1742  -20.2026 H   0  0  0  0  0  0
  -11.5710   24.4290  -20.8170 H   0  0  0  0  0  0
  -10.0237   23.3710  -22.5374 H   0  0  0  0  0  0
  -11.7051   22.7693  -22.7311 H   0  0  0  0  0  0
  -10.4710   21.7425  -21.9253 H   0  0  0  0  0  0
  -10.9077   21.2914  -19.1269 H   0  0  0  0  0  0
  -13.6447   20.5760  -19.5106 H   0  0  0  0  0  0
  -11.8023   18.9335  -18.8230 H   0  0  0  0  0  0
  -11.9268   19.5755  -17.1500 H   0  0  0  0  0  0
  -14.2623   18.8218  -16.9133 H   0  0  0  0  0  0
  -14.4527   18.6016  -18.6859 H   0  0  0  0  0  0
  -13.1119   16.9966  -16.6915 H   0  0  0  0  0  0
  -14.4206   16.6131  -17.8606 H   0  0  0  0  0  0
  -11.4770   16.8460  -18.5616 H   0  0  0  0  0  0
  -14.9118   15.6186  -18.8485 H   0  0  0  0  0  0
  -14.4148   14.2617  -20.0902 H   0  0  0  0  0  0
  -10.8772   15.2696  -20.0628 H   0  0  0  0  0  0
  -12.2677   22.8682  -17.3133 H   0  0  0  0  0  0
  -14.7697   22.3668  -15.7061 H   0  0  0  0  0  0
  -13.7095   23.8616  -13.9595 H   0  0  0  0  0  0
  -12.6956   22.4418  -14.3871 H   0  0  0  0  0  0
  -11.3426   24.5436  -14.3849 H   0  0  0  0  0  0
  -14.1061   23.9799  -18.2610 H   0  0  0  0  0  0
  -15.8472   26.3278  -17.4353 H   0  0  0  0  0  0
  -14.2300   25.6966  -19.9785 H   0  0  0  0  0  0
  -15.1226   27.2262  -19.6780 H   0  0  0  0  0  0
  -12.9102   26.1877  -17.8804 H   0  0  0  0  0  0
  -12.6440   27.3071  -19.2599 H   0  0  0  0  0  0
  -15.1096   29.4294  -16.8520 H   0  0  0  0  0  0
  -19.1028   24.0804  -19.2260 H   0  0  0  0  0  0
  -21.0581   26.0349  -19.4893 H   0  0  0  0  0  0
  -20.5120   25.4824  -17.8697 H   0  0  0  0  0  0
  -19.5361   27.9154  -19.4994 H   0  0  0  0  0  0
  -20.0828   27.8842  -17.7886 H   0  0  0  0  0  0
  -18.0563   26.7302  -17.0555 H   0  0  0  0  0  0
  -17.3872   27.7637  -18.3634 H   0  0  0  0  0  0
  -20.1333   23.4782  -20.9672 H   0  0  0  0  0  0
  -19.4626   24.8223  -23.6634 H   0  0  0  0  0  0
  -19.5164   22.3354  -23.4476 H   0  0  0  0  0  0
  -21.2314   22.4186  -22.9197 H   0  0  0  0  0  0
  -20.7199   21.7341  -25.3532 H   0  0  0  0  0  0
  -21.9933   22.9700  -25.0745 H   0  0  0  0  0  0
  -20.4181   24.7300  -25.6086 H   0  0  0  0  0  0
  -19.1241   23.5089  -25.8559 H   0  0  0  0  0  0
  -20.6218   22.3282  -27.5589 H   0  0  0  0  0  0
  -21.8314   23.6418  -27.3641 H   0  0  0  0  0  0
  -20.3975   24.0178  -29.2782 H   0  0  0  0  0  0
  -18.9596   23.9542  -28.2034 H   0  0  0  0  0  0
  -20.1692   25.2679  -28.0086 H   0  0  0  0  0  0
  -20.8020   26.6698  -24.0911 H   0  0  0  0  0  0
  -23.3535   26.8778  -22.5333 H   0  0  0  0  0  0
  -22.0402   28.7920  -24.6014 H   0  0  0  0  0  0
  -22.1457   29.0960  -21.5009 H   0  0  0  0  0  0
  -20.8565   28.0803  -22.2309 H   0  0  0  0  0  0
  -24.3930   29.1822  -24.4134 H   0  0  0  0  0  0
  -23.4624   30.4914  -23.6092 H   0  0  0  0  0  0
  -24.2732   29.2288  -22.6217 H   0  0  0  0  0  0
  -20.0664   30.3620  -21.8004 H   0  0  0  0  0  0
  -21.3816   31.0217  -22.8308 H   0  0  0  0  0  0
  -20.0924   30.0060  -23.5609 H   0  0  0  0  0  0
  -25.1325   26.1878  -23.1218 H   0  0  0  0  0  0
  -25.6760   26.0235  -26.1547 H   0  0  0  0  0  0
  -26.8108   24.2281  -23.9210 H   0  0  0  0  0  0
  -27.2116   24.1091  -25.6680 H   0  0  0  0  0  0
  -24.6308   23.5130  -24.3106 H   0  0  0  0  0  0
  -26.5571   21.8917  -24.0086 H   0  0  0  0  0  0
  -25.2207   21.1517  -24.9537 H   0  0  0  0  0  0
  -26.6920   21.7483  -25.7940 H   0  0  0  0  0  0
  -24.0764   24.3268  -26.6228 H   0  0  0  0  0  0
  -25.2432   23.1581  -27.3297 H   0  0  0  0  0  0
  -23.7719   22.5615  -26.4893 H   0  0  0  0  0  0
  -27.2710   27.0178  -26.7905 H   0  0  0  0  0  0
  -29.4635   28.2436  -27.0516 H   0  0  0  0  0  0
  -26.8380   31.2273  -25.5101 H   0  0  0  0  0  0
  -30.1604   27.5541  -24.8477 H   0  0  0  0  0  0
  -31.6288   28.9178  -26.2538 H   0  0  0  0  0  0
  -28.2168   28.6939  -23.5999 H   0  0  0  0  0  0
  -29.8184   29.2290  -22.9874 H   0  0  0  0  0  0
  -28.8838   30.2851  -24.1000 H   0  0  0  0  0  0
  1  2  1  0  0  0
  1 82  1  0  0  0
  1 83  1  0  0  0
  1 84  1  0  0  0
  2  3  1  0  0  0
  2 85  1  0  0  0
  2 86  1  0  0  0
  3  4  2  0  0  0
  3  5  1  0  0  0
  5  6  1  0  0  0
  5 87  1  0  0  0
  6  7  1  0  0  0
  6  9  1  0  0  0
  6 88  1  0  0  0
  7  8  2  0  0  0
  7 11  1  0  0  0
  9 10  1  0  0  0
  9 89  1  0  0  0
  9 90  1  0  0  0
 10 91  1  0  0  0
 11 12  1  0  0  0
 11 92  1  0  0  0
 12 13  1  0  0  0
 12 15  1  0  0  0
 12 93  1  0  0  0
 13 14  2  0  0  0
 13 16  1  0  0  0
 15 94  1  0  0  0
 15 95  1  0  0  0
 15 96  1  0  0  0
 16 17  1  0  0  0
 16 97  1  0  0  0
 17 18  1  0  0  0
 17 20  1  0  0  0
 17 98  1  0  0  0
 18 19  2  0  0  0
 18 27  1  0  0  0
 20 21  1  0  0  0
 20 99  1  0  0  0
 20100  1  0  0  0
 21 22  1  0  0  0
 21101  1  0  0  0
 21102  1  0  0  0
 22 23  1  0  0  0
 22103  1  0  0  0
 22104  1  0  0  0
 23 24  1  0  0  0
 23105  1  0  0  0
 24 25  1  0  0  0
 24 26  2  0  0  0
 25106  1  0  0  0
 25107  1  0  0  0
 26108  1  0  0  0
 27 28  1  0  0  0
 27109  1  0  0  0
 28 29  1  0  0  0
 28 31  1  0  0  0
 28110  1  0  0  0
 29 30  2  0  0  0
 29 33  1  0  0  0
 31 32  1  0  0  0
 31111  1  0  0  0
 31112  1  0  0  0
 32113  1  0  0  0
 33 34  1  0  0  0
 33114  1  0  0  0
 34 35  1  0  0  0
 34 37  1  0  0  0
 34115  1  0  0  0
 35 36  2  0  0  0
 35 42  1  0  0  0
 37 38  1  0  0  0
 37116  1  0  0  0
 37117  1  0  0  0
 38 39  1  0  0  0
 38118  1  0  0  0
 38119  1  0  0  0
 39 40  1  0  0  0
 39 41  2  0  0  0
 40120  1  0  0  0
 42 43  1  0  0  0
 42 48  1  0  0  0
 43 44  1  0  0  0
 43 46  1  0  0  0
 43121  1  0  0  0
 44 45  2  0  0  0
 44 49  1  0  0  0
 46 47  1  0  0  0
 46122  1  0  0  0
 46123  1  0  0  0
 47 48  1  0  0  0
 47124  1  0  0  0
 47125  1  0  0  0
 48126  1  0  0  0
 48127  1  0  0  0
 49 50  1  0  0  0
 49128  1  0  0  0
 50 51  1  0  0  0
 50 53  1  0  0  0
 50129  1  0  0  0
 51 52  2  0  0  0
 51 58  1  0  0  0
 53 54  1  0  0  0
 53130  1  0  0  0
 53131  1  0  0  0
 54 55  1  0  0  0
 54132  1  0  0  0
 54133  1  0  0  0
 55 56  1  0  0  0
 55134  1  0  0  0
 55135  1  0  0  0
 56 57  1  0  0  0
 56136  1  0  0  0
 56137  1  0  0  0
 57138  1  0  0  0
 57139  1  0  0  0
 57140  1  0  0  0
 58 59  1  0  0  0
 58141  1  0  0  0
 59 60  1  0  0  0
 59 62  1  0  0  0
 59142  1  0  0  0
 60 61  2  0  0  0
 60 66  1  0  0  0
 62 63  1  0  0  0
 62 64  1  0  0  0
 62143  1  0  0  0
 63 65  1  0  0  0
 63144  1  0  0  0
 63145  1  0  0  0
 64146  1  0  0  0
 64147  1  0  0  0
 64148  1  0  0  0
 65149  1  0  0  0
 65150  1  0  0  0
 65151  1  0  0  0
 66 67  1  0  0  0
 66152  1  0  0  0
 67 68  1  0  0  0
 67 70  1  0  0  0
 67153  1  0  0  0
 68 69  2  0  0  0
 68 74  1  0  0  0
 70 71  1  0  0  0
 70154  1  0  0  0
 70155  1  0  0  0
 71 72  1  0  0  0
 71 73  1  0  0  0
 71156  1  0  0  0
 72157  1  0  0  0
 72158  1  0  0  0
 72159  1  0  0  0
 73160  1  0  0  0
 73161  1  0  0  0
 73162  1  0  0  0
 74 75  1  0  0  0
 74163  1  0  0  0
 75 76  1  0  0  0
 75 78  1  0  0  0
 75164  1  0  0  0
 76 77  1  0  0  0
 76 81  2  0  0  0
 77165  1  0  0  0
 78 79  1  0  0  0
 78 80  1  0  0  0
 78166  1  0  0  0
 79167  1  0  0  0
 80168  1  0  0  0
 80169  1  0  0  0
 80170  1  0  0  0
M  CHG  2   1   1  57   1
M  END
> <s_m_source_file>
../3uvk_ligand.sdf

> <i_m_source_file_index>
1

> <s_epik_input>
W05IMytdW0NIMl1DKD1PKVtOSF1bQ0BASF0oW0NIMl1bU0hdKUMoPU8pW05IXVtDQEBIXShbQ0gzXSlDKD1PKVtOSF1bQ0BASF0oW0NIMl1bQ0gyXVtDSDJdW05IXS9DKFtOSDJdKT1OXFtIXSlDKD1PKVtOSF1bQ0BASF0oW0NIMl1bT0hdKUMoPU8pW05IXVtDQEBIXShbQ0gyXVtDSDJdQyg9TylbT0hdKUMoPU8pTjFbQ0BASF0oW0NIMl1bQ0gyXVtDSDJdMSlDKD1PKVtOSF1bQ0BASF0oW0NIMl1bQ0gyXVtDSDJdW0NIMl1bTkgzK10pQyg9TylbTkhdW0NAQEhdKFtDQEBIXShbQ0gzXSlbQ0gyXVtDSDNdKUMoPU8pW05IXVtDQEBIXShbQ0gyXVtDSF0oW0NIM10pW0NIM10pQyg9TylbTkhdW0NASF0oQyg9TylbT0hdKVtDQEhdKFtPSF0pW0NIM10=

> <s_epik_cmdline>
J2VwaWtfYXBwJywgJy1pbWFlJywgJ2xpZ2FuZF9wcm8ubWFlJywgJy1vbWFlJywgJ2xpZ2FuZF9wcmVwLm1hZScsICctbXMnLCAnMScsICctcGgnLCAnNycsICctcGh0JywgJzAuNScsICctbnQn

> <s_epik_pKa_notes>
Molecule size exceeds maximum supported for generating protonation states

> <s_epik_Chemistry_Notes>
This compound has an imine and may undergo hydrolysis.

$$$$
