3uvl_ligand
                    3D
 Schrodinger Suite 2020-3.
126126  0  0  1  0            999 V2000
   -5.6210   32.1770    6.5890 N   0  3  0  0  0  0
   -5.9730   33.3030    5.7370 C   0  0  0  0  0  0
   -6.9970   32.9530    4.6770 C   0  0  0  0  0  0
   -7.6430   33.8450    4.1350 O   0  0  0  0  0  0
   -7.1750   31.6600    4.3860 N   0  0  0  0  0  0
   -8.1560   31.2170    3.4000 C   0  0  2  0  0  0
   -9.0370   30.1400    4.0160 C   0  0  0  0  0  0
   -8.5050   29.1980    4.6070 O   0  0  0  0  0  0
   -7.4580   30.7580    2.1180 C   0  0  0  0  0  0
   -8.1330   29.7200    1.4340 O   0  0  0  0  0  0
  -10.3810   30.2720    3.8870 N   0  0  0  0  0  0
  -11.3300   29.3050    4.4820 C   0  0  2  0  0  0
  -11.1150   27.8710    4.0200 C   0  0  0  0  0  0
  -11.2010   26.9520    4.8310 O   0  0  0  0  0  0
  -12.7870   29.7300    4.2480 C   0  0  0  0  0  0
  -10.7980   27.6770    2.7430 N   0  0  0  0  0  0
  -10.6020   26.3230    2.2120 C   0  0  2  0  0  0
   -9.3920   25.5960    2.8190 C   0  0  0  0  0  0
   -9.3860   24.3650    2.8740 O   0  0  0  0  0  0
  -10.5080   26.3590    0.6790 C   0  0  0  0  0  0
  -10.6610   24.9860    0.0340 C   0  0  0  0  0  0
  -10.4650   25.0210   -1.4630 C   0  0  0  0  0  0
  -11.5260   25.7590   -2.1550 N   0  0  0  0  0  0
  -12.6120   25.2010   -2.6760 C   0  0  0  0  0  0
  -12.7980   23.8870   -2.5900 N   0  0  0  0  0  0
  -13.4970   25.9430   -3.3310 N   0  3  0  0  0  0
   -8.3770   26.3610    3.2560 N   0  0  0  0  0  0
   -7.1340   25.8510    3.8280 C   0  0  2  0  0  0
   -7.2860   25.4550    5.2960 C   0  0  0  0  0  0
   -6.3570   24.8760    5.8610 O   0  0  0  0  0  0
   -6.0250   26.8890    3.6660 C   0  0  0  0  0  0
   -8.4650   25.7570    5.9020 N   0  0  0  0  0  0
   -8.8090   25.4650    7.3000 C   0  0  2  0  0  0
   -9.7500   24.2540    7.3710 C   0  0  0  0  0  0
  -10.6720   24.1650    6.5460 O   0  0  0  0  0  0
   -9.4730   26.6830    7.9770 C   0  0  0  0  0  0
   -8.7080   27.9910    7.8530 C   0  0  0  0  0  0
   -7.3230   28.0530    8.4650 C   0  0  0  0  0  0
   -7.0070   27.2110    9.3380 O   0  5  0  0  0  0
   -6.5520   28.9580    8.0710 O   0  0  0  0  0  0
   -9.5350   23.3150    8.3310 N   0  0  0  0  0  0
  -10.3880   22.1190    8.3940 C   0  0  2  0  0  0
  -11.7730   22.3980    8.9720 C   0  0  0  0  0  0
  -11.9550   23.3730    9.7080 O   0  0  0  0  0  0
   -9.5970   21.1820    9.3170 C   0  0  0  0  0  0
   -8.8740   22.0880   10.2200 C   0  0  0  0  0  0
   -8.4910   23.2730    9.3780 C   0  0  0  0  0  0
  -12.7470   21.5360    8.6430 N   0  0  0  0  0  0
  -14.0840   21.6970    9.2060 C   0  0  2  0  0  0
  -14.0190   21.1140   10.6170 C   0  0  0  0  0  0
  -13.8590   19.9040   10.7710 O   0  0  0  0  0  0
  -15.1550   21.0060    8.3490 C   0  0  0  0  0  0
  -16.5500   21.5030    8.6760 C   0  0  0  0  0  0
  -17.6110   20.8460    7.8040 C   0  0  0  0  0  0
  -19.0070   20.9710    8.3910 C   0  0  0  0  0  0
  -19.1050   20.3760    9.7550 N   0  3  0  0  0  0
  -14.0160   21.9980   11.6280 N   0  0  0  0  0  0
  -13.9350   21.6320   13.0420 C   0  0  2  0  0  0
  -15.3120   21.2900   13.5950 C   0  0  0  0  0  0
  -15.9240   20.3240   13.1470 O   0  0  0  0  0  0
  -13.2920   22.7640   13.8560 C   0  0  0  0  0  0
  -15.8209   21.9944   14.5074 O   0  5  0  0  0  0
   -4.8771   32.4985    7.3328 H   0  0  0  0  0  0
   -5.1985   31.3693    5.9733 H   0  0  0  0  0  0
   -6.5214   31.8121    7.1050 H   0  0  0  0  0  0
   -6.3955   34.1107    6.3528 H   0  0  0  0  0  0
   -5.0727   33.6680    5.2210 H   0  0  0  0  0  0
   -6.5549   30.9214    4.9151 H   0  0  0  0  0  0
   -8.7872   32.0816    3.1469 H   0  0  0  0  0  0
   -7.3762   31.6055    1.4215 H   0  0  0  0  0  0
   -6.4522   30.3851    2.3615 H   0  0  0  0  0  0
   -7.7167   29.3155    0.4996 H   0  0  0  0  0  0
  -10.7587   31.1337    3.3171 H   0  0  0  0  0  0
  -11.0867   29.3399    5.5542 H   0  0  0  0  0  0
  -12.9253   30.7674    4.5868 H   0  0  0  0  0  0
  -13.4578   29.0669    4.8140 H   0  0  0  0  0  0
  -13.0216   29.6602    3.1756 H   0  0  0  0  0  0
  -10.6830   28.5489    2.0823 H   0  0  0  0  0  0
  -11.5046   25.7829    2.5338 H   0  0  0  0  0  0
  -11.3035   27.0043    0.2779 H   0  0  0  0  0  0
   -9.5271   26.7579    0.3810 H   0  0  0  0  0  0
   -9.9140   24.2975    0.4558 H   0  0  0  0  0  0
  -11.6709   24.5979    0.2328 H   0  0  0  0  0  0
   -9.5074   25.5096   -1.6961 H   0  0  0  0  0  0
  -10.4576   23.9936   -1.8560 H   0  0  0  0  0  0
  -11.4519   26.8505   -2.2697 H   0  0  0  0  0  0
  -12.0710   23.2628   -2.0497 H   0  0  0  0  0  0
  -13.6788   23.4243   -3.0591 H   0  0  0  0  0  0
  -13.3529   27.0308   -3.4083 H   0  0  0  0  0  0
   -8.5332   27.4455    3.1582 H   0  0  0  0  0  0
   -6.9086   24.9430    3.2495 H   0  0  0  0  0  0
   -5.9302   27.1616    2.6045 H   0  0  0  0  0  0
   -5.0736   26.4678    4.0228 H   0  0  0  0  0  0
   -6.2727   27.7850    4.2540 H   0  0  0  0  0  0
   -9.1929   26.2627    5.2506 H   0  0  0  0  0  0
   -7.8523   25.2381    7.7932 H   0  0  0  0  0  0
  -10.4630   26.8564    7.5301 H   0  0  0  0  0  0
   -9.5859   26.4878    9.0536 H   0  0  0  0  0  0
   -8.5667   28.2337    6.7895 H   0  0  0  0  0  0
   -9.2772   28.7963    8.3404 H   0  0  0  0  0  0
  -10.5710   21.7389    7.3781 H   0  0  0  0  0  0
  -10.2947   20.5283    9.8610 H   0  0  0  0  0  0
   -8.9119   20.5669    8.7151 H   0  0  0  0  0  0
   -9.5333   22.3814   11.0502 H   0  0  0  0  0  0
   -7.9865   21.5758   10.6200 H   0  0  0  0  0  0
   -7.5047   23.1475    8.9075 H   0  0  0  0  0  0
   -8.5074   24.2124    9.9501 H   0  0  0  0  0  0
  -12.5384   20.7082    7.9493 H   0  0  0  0  0  0
  -14.3312   22.7688    9.2127 H   0  0  0  0  0  0
  -14.9590   21.2064    7.2853 H   0  0  0  0  0  0
  -15.1252   19.9213    8.5293 H   0  0  0  0  0  0
  -16.7826   21.2773    9.7272 H   0  0  0  0  0  0
  -16.5991   22.5900    8.5149 H   0  0  0  0  0  0
  -17.6171   21.3222    6.8124 H   0  0  0  0  0  0
  -17.3845   19.7751    7.6950 H   0  0  0  0  0  0
  -19.2804   22.0340    8.4635 H   0  0  0  0  0  0
  -19.7260   20.4510    7.7409 H   0  0  0  0  0  0
  -20.1315   20.4924   10.1329 H   0  0  0  0  0  0
  -18.4051   20.8899   10.4303 H   0  0  0  0  0  0
  -18.8507   19.3068    9.7078 H   0  0  0  0  0  0
  -14.0798   23.0568   11.3367 H   0  0  0  0  0  0
  -13.3015   20.7335   13.0785 H   0  0  0  0  0  0
  -12.2998   22.9958   13.4414 H   0  0  0  0  0  0
  -13.1866   22.4477   14.9043 H   0  0  0  0  0  0
  -13.9289   23.6594   13.8054 H   0  0  0  0  0  0
  -14.3743   25.4700   -3.7964 H   0  0  0  0  0  0
  1  2  1  0  0  0
  1 63  1  0  0  0
  1 64  1  0  0  0
  1 65  1  0  0  0
  2  3  1  0  0  0
  2 66  1  0  0  0
  2 67  1  0  0  0
  3  4  2  0  0  0
  3  5  1  0  0  0
  5  6  1  0  0  0
  5 68  1  0  0  0
  6  7  1  0  0  0
  6  9  1  0  0  0
  6 69  1  0  0  0
  7  8  2  0  0  0
  7 11  1  0  0  0
  9 10  1  0  0  0
  9 70  1  0  0  0
  9 71  1  0  0  0
 10 72  1  0  0  0
 11 12  1  0  0  0
 11 73  1  0  0  0
 12 13  1  0  0  0
 12 15  1  0  0  0
 12 74  1  0  0  0
 13 14  2  0  0  0
 13 16  1  0  0  0
 15 75  1  0  0  0
 15 76  1  0  0  0
 15 77  1  0  0  0
 16 17  1  0  0  0
 16 78  1  0  0  0
 17 18  1  0  0  0
 17 20  1  0  0  0
 17 79  1  0  0  0
 18 19  2  0  0  0
 18 27  1  0  0  0
 20 21  1  0  0  0
 20 80  1  0  0  0
 20 81  1  0  0  0
 21 22  1  0  0  0
 21 82  1  0  0  0
 21 83  1  0  0  0
 22 23  1  0  0  0
 22 84  1  0  0  0
 22 85  1  0  0  0
 23 24  1  0  0  0
 23 86  1  0  0  0
 24 25  1  0  0  0
 24 26  2  0  0  0
 25 87  1  0  0  0
 25 88  1  0  0  0
 26 89  1  0  0  0
 26126  1  0  0  0
 27 28  1  0  0  0
 27 90  1  0  0  0
 28 29  1  0  0  0
 28 31  1  0  0  0
 28 91  1  0  0  0
 29 30  2  0  0  0
 29 32  1  0  0  0
 31 92  1  0  0  0
 31 93  1  0  0  0
 31 94  1  0  0  0
 32 33  1  0  0  0
 32 95  1  0  0  0
 33 34  1  0  0  0
 33 36  1  0  0  0
 33 96  1  0  0  0
 34 35  2  0  0  0
 34 41  1  0  0  0
 36 37  1  0  0  0
 36 97  1  0  0  0
 36 98  1  0  0  0
 37 38  1  0  0  0
 37 99  1  0  0  0
 37100  1  0  0  0
 38 39  1  0  0  0
 38 40  2  0  0  0
 41 42  1  0  0  0
 41 47  1  0  0  0
 42 43  1  0  0  0
 42 45  1  0  0  0
 42101  1  0  0  0
 43 44  2  0  0  0
 43 48  1  0  0  0
 45 46  1  0  0  0
 45102  1  0  0  0
 45103  1  0  0  0
 46 47  1  0  0  0
 46104  1  0  0  0
 46105  1  0  0  0
 47106  1  0  0  0
 47107  1  0  0  0
 48 49  1  0  0  0
 48108  1  0  0  0
 49 50  1  0  0  0
 49 52  1  0  0  0
 49109  1  0  0  0
 50 51  2  0  0  0
 50 57  1  0  0  0
 52 53  1  0  0  0
 52110  1  0  0  0
 52111  1  0  0  0
 53 54  1  0  0  0
 53112  1  0  0  0
 53113  1  0  0  0
 54 55  1  0  0  0
 54114  1  0  0  0
 54115  1  0  0  0
 55 56  1  0  0  0
 55116  1  0  0  0
 55117  1  0  0  0
 56118  1  0  0  0
 56119  1  0  0  0
 56120  1  0  0  0
 57 58  1  0  0  0
 57121  1  0  0  0
 58 59  1  0  0  0
 58 61  1  0  0  0
 58122  1  0  0  0
 59 60  2  0  0  0
 59 62  1  0  0  0
 61123  1  0  0  0
 61124  1  0  0  0
 61125  1  0  0  0
M  CHG  5   1   1  26   1  39  -1  56   1  62  -1
M  END
> <s_m_source_file>
../3uvl_ligand.sdf

> <i_m_source_file_index>
1

> <s_epik_input>
W05IMytdW0NIMl1DKD1PKVtOSF1bQ0BASF0oW0NIMl1bT0hdKUMoPU8pW05IXVtDQEBIXShbQ0gzXSlDKD1PKVtOSF1bQ0BASF0oW0NIMl1bQ0gyXVtDSDJdW05IXS9DKFtOSDJdKT1OXFtIXSlDKD1PKVtOSF1bQ0BASF0oW0NIM10pQyg9TylbTkhdW0NAQEhdKFtDSDJdW0NIMl1DKD1PKVtPSF0pQyg9TylOMVtDQEBIXShbQ0gyXVtDSDJdW0NIMl0xKUMoPU8pW05IXVtDQEhdKEMoPU8pW05IXVtDQEBIXShbQ0gzXSlDKD1PKVtPSF0pW0NIMl1bQ0gyXVtDSDJdW0NIMl1bTkgzK10=

> <s_epik_cmdline>
J2VwaWtfYXBwJywgJy1pbWFlJywgJ2xpZ2FuZF9wcm8ubWFlJywgJy1vbWFlJywgJ2xpZ2FuZF9wcmVwLm1hZScsICctbXMnLCAnMScsICctcGgnLCAnNycsICctcGh0JywgJzAuNScsICctbnQn

> <r_epik_Ionization_Penalty>
  0.1367

> <r_epik_Ionization_Penalty_Charging>
  0.1367

> <r_epik_Ionization_Penalty_Neutral>
  0.0000

> <r_epik_State_Penalty>
  0.1240

> <r_epik_Charging_Adjusted_Penalty>
0.260682480660956

> <i_epik_Tot_Q>
1

> <i_epik_Tot_abs_Q>
5

> <s_epik_Chemistry_Notes>
This compound has an imine and may undergo hydrolysis.

$$$$
