3uvm_ligand
                    3D
 Schrodinger Suite 2020-3.
159159  0  0  1  0            999 V2000
    7.7940   31.0760  -11.8680 N   0  3  0  0  0  0
    9.0700   30.3740  -12.0020 C   0  0  0  0  0  0
    9.1430   29.2490  -10.9940 C   0  0  0  0  0  0
    8.1090   28.7680  -10.5280 O   0  0  0  0  0  0
   10.3630   28.8490  -10.6170 N   0  0  0  0  0  0
   10.5460   27.8120   -9.5840 C   0  0  2  0  0  0
   11.5370   28.3680   -8.5940 C   0  0  0  0  0  0
   12.5810   28.9100   -8.9990 O   0  0  0  0  0  0
   11.0700   26.5290  -10.1990 C   0  0  0  0  0  0
   11.2440   28.2310   -7.2960 N   0  0  0  0  0  0
   12.1290   28.8000   -6.2620 C   0  0  2  0  0  0
   13.5630   28.2900   -6.3550 C   0  0  0  0  0  0
   14.4960   29.0480   -6.0930 O   0  0  0  0  0  0
   11.5530   28.5200   -4.8810 C   0  0  0  0  0  0
   13.7790   27.0210   -6.7410 N   0  0  0  0  0  0
   15.1620   26.5280   -6.8350 C   0  0  2  0  0  0
   15.9950   27.2950   -7.8670 C   0  0  0  0  0  0
   17.2260   27.3560   -7.7640 O   0  0  0  0  0  0
   15.1850   25.0290   -7.1330 C   0  0  0  0  0  0
   16.5920   24.4650   -6.9100 C   0  0  0  0  0  0
   16.6580   22.9670   -7.1610 C   0  0  0  0  0  0
   15.8090   22.2180   -6.2430 N   0  0  0  0  0  0
   16.2210   21.7210   -5.0810 C   0  0  0  0  0  0
   17.4780   21.9020   -4.6800 N   0  0  0  0  0  0
   15.3830   21.0500   -4.3070 N   0  0  0  0  0  0
   15.3260   27.8740   -8.8640 N   0  0  0  0  0  0
   16.0510   28.6080   -9.9050 C   0  0  2  0  0  0
   16.2470   30.0640   -9.5320 C   0  0  0  0  0  0
   16.7260   30.8570  -10.3690 O   0  0  0  0  0  0
   15.3090   28.4780  -11.2270 C   0  0  0  0  0  0
   15.9720   30.4210   -8.2630 N   0  0  0  0  0  0
   16.1300   31.8030   -7.8000 C   0  0  2  0  0  0
   17.0530   31.8930   -6.6170 C   0  0  0  0  0  0
   17.2540   30.9120   -5.9130 O   0  0  0  0  0  0
   14.7630   32.3990   -7.3790 C   0  0  0  0  0  0
   13.6830   32.2700   -8.4310 C   0  0  0  0  0  0
   13.8080   33.1780   -9.6400 C   0  0  0  0  0  0
   14.6690   34.0850   -9.6290 O   0  0  0  0  0  0
   13.0290   32.9840  -10.5990 O   0  0  0  0  0  0
   17.5990   33.0940   -6.3740 N   0  0  0  0  0  0
   18.4510   33.3450   -5.2160 C   0  0  2  0  0  0
   17.5110   33.6640   -4.0460 C   0  0  0  0  0  0
   16.4810   34.3100   -4.2540 O   0  0  0  0  0  0
   19.4370   34.5140   -5.5020 C   0  0  0  0  0  0
   20.3530   34.7800   -4.3110 C   0  0  0  0  0  0
   20.2650   34.2420   -6.7540 C   0  0  0  0  0  0
   17.8200   33.1590   -2.8380 N   0  0  0  0  0  0
   17.0400   33.4790   -1.6450 C   0  0  2  0  0  0
   18.0150   34.1590   -0.7080 C   0  0  0  0  0  0
   19.0660   33.5870   -0.3940 O   0  0  0  0  0  0
   16.4790   32.2240   -0.9640 C   0  0  0  0  0  0
   15.8500   32.5340    0.3820 C   0  0  0  0  0  0
   14.5690   33.0550    0.4650 C   0  0  0  0  0  0
   16.5630   32.3610    1.5640 C   0  0  0  0  0  0
   13.9940   33.3690    1.6960 C   0  0  0  0  0  0
   15.9890   32.6490    2.8070 C   0  0  0  0  0  0
   14.7090   33.1620    2.8620 C   0  0  0  0  0  0
   14.1230   33.4210    4.0780 O   0  0  0  0  0  0
   17.6670   35.3360   -0.2320 N   0  0  0  0  0  0
   18.5350   36.0360    0.7180 C   0  0  2  0  0  0
   17.8700   36.1480    2.0810 C   0  0  0  0  0  0
   16.7370   36.6340    2.1860 O   0  0  0  0  0  0
   18.9680   37.4110    0.1840 C   0  0  0  0  0  0
   19.6940   37.4170   -1.1710 C   0  0  0  0  0  0
   19.7990   38.8210   -1.7180 C   0  0  0  0  0  0
   21.0750   36.7450   -1.0830 C   0  0  0  0  0  0
   18.5710   35.6520    3.1160 N   0  0  0  0  0  0
   18.1440   35.6600    4.5260 C   0  0  2  0  0  0
   17.5640   36.9980    4.9710 C   0  0  0  0  0  0
   16.6860   37.0250    5.8290 O   0  0  0  0  0  0
   19.3200   35.3100    5.4410 C   0  0  0  0  0  0
   19.9310   33.9600    5.1510 C   0  0  0  0  0  0
   21.2290   33.7960    5.8910 C   0  0  0  0  0  0
   21.2370   32.4880    6.5160 N   0  0  0  0  0  0
   22.2660   31.9400    7.1410 C   0  0  0  0  0  0
   23.4140   32.6010    7.2610 N   0  0  0  0  0  0
   22.1570   30.7350    7.6590 N   0  0  0  0  0  0
   17.9836   38.0709    4.4608 O   0  0  0  0  0  0
    7.7460   31.8929  -12.6031 H   0  0  0  0  0  0
    7.7085   31.4907  -10.8528 H   0  0  0  0  0  0
    6.9678   30.3723  -12.0474 H   0  0  0  0  0  0
    9.1555   29.9593  -13.0172 H   0  0  0  0  0  0
    9.8962   31.0777  -11.8227 H   0  0  0  0  0  0
   11.2400   29.3104  -11.0945 H   0  0  0  0  0  0
    9.5806   27.5873   -9.1071 H   0  0  0  0  0  0
   10.3338   26.1394  -10.9175 H   0  0  0  0  0  0
   11.2385   25.7847   -9.4067 H   0  0  0  0  0  0
   12.0179   26.7321  -10.7189 H   0  0  0  0  0  0
   10.3334   27.6881   -7.0026 H   0  0  0  0  0  0
   12.1505   29.8811   -6.4641 H   0  0  0  0  0  0
   10.5197   28.8940   -4.8320 H   0  0  0  0  0  0
   12.1632   29.0276   -4.1194 H   0  0  0  0  0  0
   11.5599   27.4361   -4.6937 H   0  0  0  0  0  0
   12.9394   26.3536   -6.9851 H   0  0  0  0  0  0
   15.5868   26.7206   -5.8388 H   0  0  0  0  0  0
   14.4804   24.5116   -6.4653 H   0  0  0  0  0  0
   14.8911   24.8586   -8.1792 H   0  0  0  0  0  0
   17.2973   24.9572   -7.5958 H   0  0  0  0  0  0
   16.9010   24.6507   -5.8708 H   0  0  0  0  0  0
   16.3251   22.7522   -8.1872 H   0  0  0  0  0  0
   17.6932   22.6187   -7.0309 H   0  0  0  0  0  0
   14.7545   22.0333   -6.4957 H   0  0  0  0  0  0
   18.1833   22.4581   -5.3151 H   0  0  0  0  0  0
   17.8110   21.4954   -3.7137 H   0  0  0  0  0  0
   14.3425   20.8944   -4.6280 H   0  0  0  0  0  0
   14.2292   27.8007   -8.9052 H   0  0  0  0  0  0
   17.0460   28.1446   -9.9770 H   0  0  0  0  0  0
   15.1810   27.4134  -11.4725 H   0  0  0  0  0  0
   15.8877   28.9707  -12.0222 H   0  0  0  0  0  0
   14.3219   28.9559  -11.1420 H   0  0  0  0  0  0
   15.6207   29.6447   -7.5674 H   0  0  0  0  0  0
   16.5818   32.3253   -8.6562 H   0  0  0  0  0  0
   14.4002   31.8835   -6.4775 H   0  0  0  0  0  0
   14.8807   33.4717   -7.1656 H   0  0  0  0  0  0
   13.6754   31.2429   -8.8246 H   0  0  0  0  0  0
   12.7049   32.4980   -7.9823 H   0  0  0  0  0  0
   13.0885   33.6214  -11.4935 H   0  0  0  0  0  0
   17.3845   33.9053   -7.0852 H   0  0  0  0  0  0
   19.0414   32.4388   -5.0153 H   0  0  0  0  0  0
   18.8483   35.4266   -5.6768 H   0  0  0  0  0  0
   19.7437   34.9744   -3.4160 H   0  0  0  0  0  0
   20.9841   35.6559   -4.5222 H   0  0  0  0  0  0
   20.9915   33.9015   -4.1362 H   0  0  0  0  0  0
   19.5930   34.0521   -7.6039 H   0  0  0  0  0  0
   20.9033   33.3617   -6.5874 H   0  0  0  0  0  0
   20.8958   35.1160   -6.9735 H   0  0  0  0  0  0
   18.6880   32.4874   -2.7638 H   0  0  0  0  0  0
   16.1935   34.1135   -1.9463 H   0  0  0  0  0  0
   15.7078   31.7725   -1.6054 H   0  0  0  0  0  0
   17.2914   31.5002   -0.8026 H   0  0  0  0  0  0
   13.9998   33.2227   -0.4493 H   0  0  0  0  0  0
   17.5885   31.9941    1.5209 H   0  0  0  0  0  0
   12.9839   33.7764    1.7393 H   0  0  0  0  0  0
   16.5486   32.4695    3.7250 H   0  0  0  0  0  0
   13.1027   33.8299    4.1209 H   0  0  0  0  0  0
   16.7190   35.7936   -0.5511 H   0  0  0  0  0  0
   19.4261   35.3985    0.8160 H   0  0  0  0  0  0
   18.0819   38.0500    0.0554 H   0  0  0  0  0  0
   19.6586   37.8814    0.8994 H   0  0  0  0  0  0
   19.0887   36.8388   -1.8846 H   0  0  0  0  0  0
   18.7965   39.2711   -1.7675 H   0  0  0  0  0  0
   20.2372   38.7898   -2.7265 H   0  0  0  0  0  0
   20.4398   39.4245   -1.0583 H   0  0  0  0  0  0
   20.9625   35.7269   -0.6819 H   0  0  0  0  0  0
   21.7263   37.3312   -0.4180 H   0  0  0  0  0  0
   21.5237   36.6964   -2.0861 H   0  0  0  0  0  0
   19.5402   35.2127    2.8373 H   0  0  0  0  0  0
   17.3502   34.8995    4.5648 H   0  0  0  0  0  0
   20.1138   36.0621    5.3217 H   0  0  0  0  0  0
   18.9800   35.2986    6.4871 H   0  0  0  0  0  0
   19.2373   33.1677    5.4689 H   0  0  0  0  0  0
   20.1224   33.8684    4.0717 H   0  0  0  0  0  0
   22.0674   33.8804    5.1839 H   0  0  0  0  0  0
   21.3156   34.5800    6.6577 H   0  0  0  0  0  0
   20.3327   31.8621    6.4935 H   0  0  0  0  0  0
   23.5159   33.6087    6.8318 H   0  0  0  0  0  0
   24.2615   32.1400    7.7894 H   0  0  0  0  0  0
   21.2121   30.1796    7.5655 H   0  0  0  0  0  0
   17.5633   39.0348    4.7838 H   0  0  0  0  0  0
  1  2  1  0  0  0
  1 79  1  0  0  0
  1 80  1  0  0  0
  1 81  1  0  0  0
  2  3  1  0  0  0
  2 82  1  0  0  0
  2 83  1  0  0  0
  3  4  2  0  0  0
  3  5  1  0  0  0
  5  6  1  0  0  0
  5 84  1  0  0  0
  6  7  1  0  0  0
  6  9  1  0  0  0
  6 85  1  0  0  0
  7  8  2  0  0  0
  7 10  1  0  0  0
  9 86  1  0  0  0
  9 87  1  0  0  0
  9 88  1  0  0  0
 10 11  1  0  0  0
 10 89  1  0  0  0
 11 12  1  0  0  0
 11 14  1  0  0  0
 11 90  1  0  0  0
 12 13  2  0  0  0
 12 15  1  0  0  0
 14 91  1  0  0  0
 14 92  1  0  0  0
 14 93  1  0  0  0
 15 16  1  0  0  0
 15 94  1  0  0  0
 16 17  1  0  0  0
 16 19  1  0  0  0
 16 95  1  0  0  0
 17 18  2  0  0  0
 17 26  1  0  0  0
 19 20  1  0  0  0
 19 96  1  0  0  0
 19 97  1  0  0  0
 20 21  1  0  0  0
 20 98  1  0  0  0
 20 99  1  0  0  0
 21 22  1  0  0  0
 21100  1  0  0  0
 21101  1  0  0  0
 22 23  1  0  0  0
 22102  1  0  0  0
 23 24  1  0  0  0
 23 25  2  0  0  0
 24103  1  0  0  0
 24104  1  0  0  0
 25105  1  0  0  0
 26 27  1  0  0  0
 26106  1  0  0  0
 27 28  1  0  0  0
 27 30  1  0  0  0
 27107  1  0  0  0
 28 29  2  0  0  0
 28 31  1  0  0  0
 30108  1  0  0  0
 30109  1  0  0  0
 30110  1  0  0  0
 31 32  1  0  0  0
 31111  1  0  0  0
 32 33  1  0  0  0
 32 35  1  0  0  0
 32112  1  0  0  0
 33 34  2  0  0  0
 33 40  1  0  0  0
 35 36  1  0  0  0
 35113  1  0  0  0
 35114  1  0  0  0
 36 37  1  0  0  0
 36115  1  0  0  0
 36116  1  0  0  0
 37 38  2  0  0  0
 37 39  1  0  0  0
 39117  1  0  0  0
 40 41  1  0  0  0
 40118  1  0  0  0
 41 42  1  0  0  0
 41 44  1  0  0  0
 41119  1  0  0  0
 42 43  2  0  0  0
 42 47  1  0  0  0
 44 45  1  0  0  0
 44 46  1  0  0  0
 44120  1  0  0  0
 45121  1  0  0  0
 45122  1  0  0  0
 45123  1  0  0  0
 46124  1  0  0  0
 46125  1  0  0  0
 46126  1  0  0  0
 47 48  1  0  0  0
 47127  1  0  0  0
 48 49  1  0  0  0
 48 51  1  0  0  0
 48128  1  0  0  0
 49 50  2  0  0  0
 49 59  1  0  0  0
 51 52  1  0  0  0
 51129  1  0  0  0
 51130  1  0  0  0
 52 53  2  0  0  0
 52 54  1  0  0  0
 53 55  1  0  0  0
 53131  1  0  0  0
 54 56  2  0  0  0
 54132  1  0  0  0
 55 57  2  0  0  0
 55133  1  0  0  0
 56 57  1  0  0  0
 56134  1  0  0  0
 57 58  1  0  0  0
 58135  1  0  0  0
 59 60  1  0  0  0
 59136  1  0  0  0
 60 61  1  0  0  0
 60 63  1  0  0  0
 60137  1  0  0  0
 61 62  2  0  0  0
 61 67  1  0  0  0
 63 64  1  0  0  0
 63138  1  0  0  0
 63139  1  0  0  0
 64 65  1  0  0  0
 64 66  1  0  0  0
 64140  1  0  0  0
 65141  1  0  0  0
 65142  1  0  0  0
 65143  1  0  0  0
 66144  1  0  0  0
 66145  1  0  0  0
 66146  1  0  0  0
 67 68  1  0  0  0
 67147  1  0  0  0
 68 69  1  0  0  0
 68 71  1  0  0  0
 68148  1  0  0  0
 69 70  2  0  0  0
 69 78  1  0  0  0
 71 72  1  0  0  0
 71149  1  0  0  0
 71150  1  0  0  0
 72 73  1  0  0  0
 72151  1  0  0  0
 72152  1  0  0  0
 73 74  1  0  0  0
 73153  1  0  0  0
 73154  1  0  0  0
 74 75  1  0  0  0
 74155  1  0  0  0
 75 76  1  0  0  0
 75 77  2  0  0  0
 76156  1  0  0  0
 76157  1  0  0  0
 77158  1  0  0  0
 78159  1  0  0  0
M  CHG  1   1   1
M  END
> <s_m_source_file>
../3uvm_ligand.sdf

> <i_m_source_file_index>
1

> <s_epik_input>
W05IMytdW0NIMl1DKD1PKVtOSF1bQ0BASF0oW0NIM10pQyg9TylbTkhdW0NAQEhdKFtDSDNdKUMoPU8pW05IXVtDQEBIXShbQ0gyXVtDSDJdW0NIMl1bTkhdL0MoW05IMl0pPU5cW0hdKUMoPU8pW05IXVtDQEBIXShbQ0gzXSlDKD1PKVtOSF1bQ0BASF0oW0NIMl1bQ0gyXUMoPU8pW09IXSlDKD1PKVtOSF1bQ0BASF0oW0NIXShbQ0gzXSlbQ0gzXSlDKD1PKVtOSF1bQ0BASF0oW0NIMl1jMVtjSF1bY0hdYyhbT0hdKVtjSF1bY0hdMSlDKD1PKVtOSF1bQ0BASF0oW0NIMl1bQ0hdKFtDSDNdKVtDSDNdKUMoPU8pW05IXVtDQEhdKEMoPU8pW09IXSlbQ0gyXVtDSDJdW0NIMl1bTkhdL0MoW05IMl0pPU5cW0hd

> <s_epik_cmdline>
J2VwaWtfYXBwJywgJy1pbWFlJywgJ2xpZ2FuZF9wcm8ubWFlJywgJy1vbWFlJywgJ2xpZ2FuZF9wcmVwLm1hZScsICctbXMnLCAnMScsICctcGgnLCAnNycsICctcGh0JywgJzAuNScsICctbnQn

> <s_epik_pKa_notes>
Molecule size exceeds maximum supported for generating protonation states

> <s_epik_Chemistry_Notes>
This compound has an imine and may undergo hydrolysis.

$$$$
