3uvn_ligand
                    3D
 Schrodinger Suite 2020-3.
125126  0  0  1  0            999 V2000
   -3.4810   18.8410    3.7960 N   0  3  0  0  0  0
   -3.9660   18.1240    2.6340 C   0  0  0  0  0  0
   -4.6100   16.7880    2.9650 C   0  0  0  0  0  0
   -4.7320   16.3730    4.1300 O   0  0  0  0  0  0
   -5.0230   16.1080    1.9100 N   0  0  0  0  0  0
   -5.5390   14.7510    2.0060 C   0  0  2  0  0  0
   -4.8650   14.0270    0.8640 C   0  0  0  0  0  0
   -4.4190   14.6870   -0.0740 O   0  0  0  0  0  0
   -7.0690   14.7200    1.8850 C   0  0  0  0  0  0
   -7.4850   15.0640    0.5700 O   0  0  0  0  0  0
   -4.8060   12.6930    0.9150 N   0  0  0  0  0  0
   -4.1910   11.9180   -0.1770 C   0  0  2  0  0  0
   -4.8580   12.2080   -1.5090 C   0  0  0  0  0  0
   -4.1630   12.4430   -2.5010 O   0  0  0  0  0  0
   -4.2470   10.4450    0.1250 C   0  0  0  0  0  0
   -6.2080   12.2960   -1.5350 N   0  0  0  0  0  0
   -6.8900   12.5810   -2.8050 C   0  0  2  0  0  0
   -6.5620   13.9610   -3.4000 C   0  0  0  0  0  0
   -6.4130   14.0640   -4.6210 O   0  0  0  0  0  0
   -8.4240   12.4050   -2.6590 C   0  0  0  0  0  0
   -9.1470   12.3750   -4.0070 C   0  0  0  0  0  0
  -10.6410   12.1980   -3.7910 C   0  0  0  0  0  0
  -10.9650   10.9310   -3.1280 N   0  0  0  0  0  0
  -11.1160    9.7840   -3.7670 C   0  0  0  0  0  0
  -11.0030    9.7330   -5.0940 N   0  0  0  0  0  0
  -11.4000    8.6780   -3.0930 N   0  3  0  0  0  0
   -6.4940   15.0110   -2.5520 N   0  0  0  0  0  0
   -6.2150   16.3960   -2.9970 C   0  0  2  0  0  0
   -4.7520   16.6390   -3.3650 C   0  0  0  0  0  0
   -4.4590   17.5880   -4.0830 O   0  0  0  0  0  0
   -6.7290   17.4300   -1.9880 C   0  0  0  0  0  0
   -6.0280   17.3930   -0.7560 O   0  0  0  0  0  0
   -3.8470   15.7610   -2.9260 N   0  0  0  0  0  0
   -2.4040   15.8260   -3.2460 C   0  0  2  0  0  0
   -2.1580   15.3840   -4.6940 C   0  0  0  0  0  0
   -1.4110   16.0480   -5.4170 O   0  0  0  0  0  0
   -1.6060   14.9240   -2.2880 C   0  0  0  0  0  0
   -2.7840   14.2740   -5.1180 N   0  0  0  0  0  0
   -2.6260   13.7680   -6.4780 C   0  0  0  0  0  0
   -1.4690   12.7920   -6.6890 C   0  0  0  0  0  0
   -0.7100   12.5020   -5.7540 O   0  0  0  0  0  0
   -1.3490   12.2760   -7.9330 N   0  0  0  0  0  0
   -0.3980   11.2660   -8.3820 C   0  0  2  0  0  0
    0.9760   11.7970   -8.8080 C   0  0  0  0  0  0
    1.0570   12.7740   -9.5480 O   0  0  0  0  0  0
   -1.0300   10.4840   -9.5630 C   0  0  0  0  0  0
   -0.1790    9.3660  -10.1360 C   0  0  0  0  0  0
    0.1770    8.2690   -9.3590 C   0  0  0  0  0  0
    0.2420    9.3900  -11.4690 C   0  0  0  0  0  0
    0.9470    7.2310   -9.8820 C   0  0  0  0  0  0
    1.0070    8.3510  -12.0060 C   0  0  0  0  0  0
    1.3650    7.2770  -11.2020 C   0  0  0  0  0  0
    2.1290    6.2490  -11.7050 O   0  0  0  0  0  0
    2.0480   11.0610   -8.4330 N   0  0  0  0  0  0
    3.4270   11.3460   -8.8410 C   0  0  2  0  0  0
    4.1440   10.1040   -9.3330 C   0  0  0  0  0  0
    4.3990   10.0010  -10.5280 O   0  0  0  0  0  0
    4.2330   12.0610   -7.7470 C   0  0  0  0  0  0
    3.7720   13.4830   -7.5720 C   0  0  0  0  0  0
    4.1660   14.4780   -8.4630 C   0  0  0  0  0  0
    2.8460   13.8170   -6.5890 C   0  0  0  0  0  0
    3.6900   15.7780   -8.3480 C   0  0  0  0  0  0
    2.3850   15.1200   -6.4460 C   0  0  0  0  0  0
    2.8090   16.1000   -7.3290 C   0  0  0  0  0  0
    2.3210   17.3780   -7.2220 O   0  0  0  0  0  0
    4.4724    9.1926   -8.5273 O   0  5  0  0  0  0
   -3.0307   19.7929    3.4779 H   0  0  0  0  0  0
   -2.7247   18.2323    4.3131 H   0  0  0  0  0  0
   -4.3194   19.0421    4.4790 H   0  0  0  0  0  0
   -4.7223   18.7327    2.1169 H   0  0  0  0  0  0
   -3.1276   17.9229    1.9509 H   0  0  0  0  0  0
   -4.9655   16.6066    0.9312 H   0  0  0  0  0  0
   -5.2937   14.3167    2.9864 H   0  0  0  0  0  0
   -7.4347   13.7087    2.1166 H   0  0  0  0  0  0
   -7.5074   15.4394    2.5923 H   0  0  0  0  0  0
   -8.5561   15.0876    0.3205 H   0  0  0  0  0  0
   -5.2255   12.1738    1.7894 H   0  0  0  0  0  0
   -3.1399   12.2385   -0.2257 H   0  0  0  0  0  0
   -3.7604   10.2502    1.0921 H   0  0  0  0  0  0
   -3.7247    9.8882   -0.6670 H   0  0  0  0  0  0
   -5.2968   10.1197    0.1706 H   0  0  0  0  0  0
   -6.7946   12.1560   -0.6150 H   0  0  0  0  0  0
   -6.4596   11.8261   -3.4794 H   0  0  0  0  0  0
   -8.6368   11.4577   -2.1419 H   0  0  0  0  0  0
   -8.8352   13.2418   -2.0752 H   0  0  0  0  0  0
   -8.9677   13.3202   -4.5403 H   0  0  0  0  0  0
   -8.7663   11.5366   -4.6087 H   0  0  0  0  0  0
  -11.0200   13.0167   -3.1616 H   0  0  0  0  0  0
  -11.1564   12.2138   -4.7627 H   0  0  0  0  0  0
  -11.0966   10.8994   -2.0364 H   0  0  0  0  0  0
  -10.7676   10.6455   -5.6614 H   0  0  0  0  0  0
  -11.1451    8.7784   -5.6218 H   0  0  0  0  0  0
  -11.4952    8.7106   -1.9976 H   0  0  0  0  0  0
   -6.6577   14.7985   -1.4852 H   0  0  0  0  0  0
   -6.7905   16.4888   -3.9298 H   0  0  0  0  0  0
   -6.6156   18.4402   -2.4083 H   0  0  0  0  0  0
   -7.7911   17.2384   -1.7755 H   0  0  0  0  0  0
   -6.3011   18.0862    0.0532 H   0  0  0  0  0  0
   -4.2332   14.9517   -2.2890 H   0  0  0  0  0  0
   -2.1063   16.8773   -3.1192 H   0  0  0  0  0  0
   -1.7841   15.2429   -1.2504 H   0  0  0  0  0  0
   -0.5331   15.0041   -2.5173 H   0  0  0  0  0  0
   -1.9304   13.8802   -2.4116 H   0  0  0  0  0  0
   -3.4317   13.7426   -4.4052 H   0  0  0  0  0  0
   -3.5396   13.2344   -6.7791 H   0  0  0  0  0  0
   -2.4498   14.6095   -7.1642 H   0  0  0  0  0  0
   -2.0742   12.7022   -8.6418 H   0  0  0  0  0  0
   -0.2338   10.6698   -7.4723 H   0  0  0  0  0  0
   -1.9712   10.0197   -9.2334 H   0  0  0  0  0  0
   -1.2336   11.1758  -10.3937 H   0  0  0  0  0  0
   -0.1523    8.2197   -8.3211 H   0  0  0  0  0  0
   -0.0315   10.2348  -12.1012 H   0  0  0  0  0  0
    1.2199    6.3839   -9.2527 H   0  0  0  0  0  0
    1.3207    8.3835  -13.0494 H   0  0  0  0  0  0
    2.4067    5.4031  -11.0590 H   0  0  0  0  0  0
    1.8339   10.2017   -7.7805 H   0  0  0  0  0  0
    3.3055   12.0310   -9.6931 H   0  0  0  0  0  0
    4.1051   11.5309   -6.7917 H   0  0  0  0  0  0
    5.2980   12.0690   -8.0222 H   0  0  0  0  0  0
    4.8610   14.2322   -9.2659 H   0  0  0  0  0  0
    2.4751   13.0419   -5.9183 H   0  0  0  0  0  0
    4.0087   16.5419   -9.0572 H   0  0  0  0  0  0
    1.6925   15.3702   -5.6423 H   0  0  0  0  0  0
    2.6578   18.1558   -7.9231 H   0  0  0  0  0  0
  -11.5404    7.7279   -3.6292 H   0  0  0  0  0  0
  1  2  1  0  0  0
  1 67  1  0  0  0
  1 68  1  0  0  0
  1 69  1  0  0  0
  2  3  1  0  0  0
  2 70  1  0  0  0
  2 71  1  0  0  0
  3  4  2  0  0  0
  3  5  1  0  0  0
  5  6  1  0  0  0
  5 72  1  0  0  0
  6  7  1  0  0  0
  6  9  1  0  0  0
  6 73  1  0  0  0
  7  8  2  0  0  0
  7 11  1  0  0  0
  9 10  1  0  0  0
  9 74  1  0  0  0
  9 75  1  0  0  0
 10 76  1  0  0  0
 11 12  1  0  0  0
 11 77  1  0  0  0
 12 13  1  0  0  0
 12 15  1  0  0  0
 12 78  1  0  0  0
 13 14  2  0  0  0
 13 16  1  0  0  0
 15 79  1  0  0  0
 15 80  1  0  0  0
 15 81  1  0  0  0
 16 17  1  0  0  0
 16 82  1  0  0  0
 17 18  1  0  0  0
 17 20  1  0  0  0
 17 83  1  0  0  0
 18 19  2  0  0  0
 18 27  1  0  0  0
 20 21  1  0  0  0
 20 84  1  0  0  0
 20 85  1  0  0  0
 21 22  1  0  0  0
 21 86  1  0  0  0
 21 87  1  0  0  0
 22 23  1  0  0  0
 22 88  1  0  0  0
 22 89  1  0  0  0
 23 24  1  0  0  0
 23 90  1  0  0  0
 24 25  1  0  0  0
 24 26  2  0  0  0
 25 91  1  0  0  0
 25 92  1  0  0  0
 26 93  1  0  0  0
 26125  1  0  0  0
 27 28  1  0  0  0
 27 94  1  0  0  0
 28 29  1  0  0  0
 28 31  1  0  0  0
 28 95  1  0  0  0
 29 30  2  0  0  0
 29 33  1  0  0  0
 31 32  1  0  0  0
 31 96  1  0  0  0
 31 97  1  0  0  0
 32 98  1  0  0  0
 33 34  1  0  0  0
 33 99  1  0  0  0
 34 35  1  0  0  0
 34 37  1  0  0  0
 34100  1  0  0  0
 35 36  2  0  0  0
 35 38  1  0  0  0
 37101  1  0  0  0
 37102  1  0  0  0
 37103  1  0  0  0
 38 39  1  0  0  0
 38104  1  0  0  0
 39 40  1  0  0  0
 39105  1  0  0  0
 39106  1  0  0  0
 40 41  2  0  0  0
 40 42  1  0  0  0
 42 43  1  0  0  0
 42107  1  0  0  0
 43 44  1  0  0  0
 43 46  1  0  0  0
 43108  1  0  0  0
 44 45  2  0  0  0
 44 54  1  0  0  0
 46 47  1  0  0  0
 46109  1  0  0  0
 46110  1  0  0  0
 47 48  2  0  0  0
 47 49  1  0  0  0
 48 50  1  0  0  0
 48111  1  0  0  0
 49 51  2  0  0  0
 49112  1  0  0  0
 50 52  2  0  0  0
 50113  1  0  0  0
 51 52  1  0  0  0
 51114  1  0  0  0
 52 53  1  0  0  0
 53115  1  0  0  0
 54 55  1  0  0  0
 54116  1  0  0  0
 55 56  1  0  0  0
 55 58  1  0  0  0
 55117  1  0  0  0
 56 57  2  0  0  0
 56 66  1  0  0  0
 58 59  1  0  0  0
 58118  1  0  0  0
 58119  1  0  0  0
 59 60  2  0  0  0
 59 61  1  0  0  0
 60 62  1  0  0  0
 60120  1  0  0  0
 61 63  2  0  0  0
 61121  1  0  0  0
 62 64  2  0  0  0
 62122  1  0  0  0
 63 64  1  0  0  0
 63123  1  0  0  0
 64 65  1  0  0  0
 65124  1  0  0  0
M  CHG  3   1   1  26   1  66  -1
M  END
> <s_m_source_file>
../3uvn_ligand.sdf

> <i_m_source_file_index>
1

> <s_epik_input>
W05IMytdW0NIMl1DKD1PKVtOSF1bQ0BASF0oW0NIMl1bT0hdKUMoPU8pW05IXVtDQEBIXShbQ0gzXSlDKD1PKVtOSF1bQ0BASF0oW0NIMl1bQ0gyXVtDSDJdW05IXS9DKFtOSDJdKT1OXFtIXSlDKD1PKVtOSF1bQ0BASF0oW0NIMl1bT0hdKUMoPU8pW05IXVtDQEBIXShbQ0gzXSlDKD1PKVtOSF1bQ0gyXUMoPU8pW05IXVtDQEBIXShbQ0gyXWMxW2NIXVtjSF1jKFtPSF0pW2NIXVtjSF0xKUMoPU8pW05IXVtDQEhdKEMoPU8pW09IXSlbQ0gyXWMyW2NIXVtjSF1jKFtPSF0pW2NIXVtjSF0y

> <s_epik_cmdline>
J2VwaWtfYXBwJywgJy1pbWFlJywgJ2xpZ2FuZF9wcm8ubWFlJywgJy1vbWFlJywgJ2xpZ2FuZF9wcmVwLm1hZScsICctbXMnLCAnMScsICctcGgnLCAnNycsICctcGh0JywgJzAuNScsICctbnQn

> <r_lp_tautomer_probability>
0.99999999999473

> <r_epik_Ionization_Penalty>
  0.1365

> <r_epik_Ionization_Penalty_Charging>
  0.1349

> <r_epik_Ionization_Penalty_Neutral>
  0.0016

> <r_epik_State_Penalty>
  0.1240

> <r_epik_Charging_Adjusted_Penalty>
0.258910365880896

> <i_epik_Tot_Q>
1

> <i_epik_Tot_abs_Q>
3

> <s_epik_Chemistry_Notes>
This compound has an imine and may undergo hydrolysis.

$$$$
