3uvo_ligand
                    3D
 Schrodinger Suite 2020-3.
110109  0  0  1  0            999 V2000
   -9.4860  -26.0490   18.3990 N   0  3  0  0  0  0
  -10.0070  -24.6670   18.3370 C   0  0  2  0  0  0
  -11.3630  -24.4960   19.0350 C   0  0  0  0  0  0
  -12.3890  -24.9750   18.5370 O   0  0  0  0  0  0
  -10.0450  -24.1850   16.8920 C   0  0  0  0  0  0
  -10.5530  -22.4580   16.6800 S   0  0  0  0  0  0
  -11.3710  -23.7890   20.1760 N   0  0  0  0  0  0
  -12.5910  -23.5780   20.9670 C   0  0  2  0  0  0
  -13.6760  -22.7730   20.2510 C   0  0  0  0  0  0
  -14.8620  -23.1070   20.3570 O   0  0  0  0  0  0
  -12.2500  -22.9410   22.3010 C   0  0  0  0  0  0
  -13.2830  -21.6960   19.5610 N   0  0  0  0  0  0
  -14.2470  -20.8530   18.8550 C   0  0  2  0  0  0
  -15.0000  -21.5600   17.7240 C   0  0  0  0  0  0
  -16.2140  -21.3820   17.6040 O   0  0  0  0  0  0
  -13.6140  -19.5390   18.3730 C   0  0  0  0  0  0
  -14.6970  -18.4880   18.1300 C   0  0  0  0  0  0
  -14.1720  -17.1930   17.6100 C   0  0  0  0  0  0
  -13.2920  -16.5050   18.5530 N   0  0  0  0  0  0
  -13.7080  -15.6210   19.4490 C   0  0  0  0  0  0
  -15.0010  -15.3330   19.5580 N   0  0  0  0  0  0
  -12.8350  -15.0010   20.2290 N   0  3  0  0  0  0
  -14.2960  -22.3560   16.9010 N   0  0  0  0  0  0
  -14.9420  -23.0750   15.7920 C   0  0  2  0  0  0
  -15.7600  -24.2840   16.2380 C   0  0  0  0  0  0
  -16.6030  -24.7620   15.4850 O   0  0  0  0  0  0
  -13.9490  -23.4250   14.6900 C   0  0  0  0  0  0
  -12.8270  -24.1500   15.1510 O   0  0  0  0  0  0
  -15.5820  -24.7270   17.4820 N   0  0  0  0  0  0
  -16.3360  -25.8600   17.9970 C   0  0  2  0  0  0
  -17.7100  -25.4700   18.5500 C   0  0  0  0  0  0
  -18.7050  -26.1290   18.2390 O   0  0  0  0  0  0
  -15.5140  -26.6110   19.0510 C   0  0  0  0  0  0
  -17.7500  -24.3960   19.3380 N   0  0  0  0  0  0
  -18.9450  -23.9620   20.0510 C   0  0  0  0  0  0
  -18.9710  -24.7040   21.3760 C   0  0  0  0  0  0
  -17.9090  -25.1570   21.8310 O   0  0  0  0  0  0
  -20.1720  -24.8260   22.0200 N   0  0  0  0  0  0
  -20.4090  -25.5740   23.2810 C   0  0  2  0  0  0
  -21.8760  -25.6340   23.7880 C   0  0  0  0  0  0
  -22.8090  -25.3000   23.0540 O   0  0  0  0  0  0
  -19.4120  -25.2220   24.4060 C   0  0  0  0  0  0
  -22.0300  -26.1180   25.0490 N   0  0  0  0  0  0
  -23.1800  -26.3930   25.9360 C   0  0  2  0  0  0
  -24.6350  -26.1270   25.5600 C   0  0  0  0  0  0
  -25.1390  -25.0330   25.8270 O   0  0  0  0  0  0
  -22.9090  -25.8630   27.3550 C   0  0  0  0  0  0
  -25.3410  -27.1940   25.1150 N   0  0  0  0  0  0
  -26.7780  -27.3120   24.8060 C   0  0  2  0  0  0
  -27.5790  -26.0260   25.1010 C   0  0  0  0  0  0
  -27.4470  -25.0290   24.3920 O   0  0  0  0  0  0
  -27.3680  -28.5700   25.5500 C   0  0  2  0  0  0
  -26.7360  -29.7790   25.1080 O   0  0  0  0  0  0
  -28.8920  -28.7160   25.4130 C   0  0  0  0  0  0
  -28.3755  -25.9969   26.0769 O   0  5  0  0  0  0
   -9.4633  -26.3856   19.4460 H   0  0  0  0  0  0
   -8.4681  -26.0761   17.9829 H   0  0  0  0  0  0
  -10.1390  -26.7136   17.8142 H   0  0  0  0  0  0
   -9.2837  -24.0630   18.9045 H   0  0  0  0  0  0
   -9.0428  -24.2774   16.4482 H   0  0  0  0  0  0
  -10.7573  -24.7975   16.3197 H   0  0  0  0  0  0
  -10.6100  -22.0212   15.6720 H   0  0  0  0  0  0
  -10.4159  -23.3600   20.5132 H   0  0  0  0  0  0
  -12.9844  -24.5953   21.1100 H   0  0  0  0  0  0
  -11.4691  -23.5328   22.8009 H   0  0  0  0  0  0
  -13.1493  -22.9116   22.9338 H   0  0  0  0  0  0
  -11.8844  -21.9168   22.1355 H   0  0  0  0  0  0
  -12.2114  -21.4496   19.5312 H   0  0  0  0  0  0
  -14.9831  -20.6472   19.6461 H   0  0  0  0  0  0
  -12.9161  -19.1662   19.1372 H   0  0  0  0  0  0
  -13.0688  -19.7173   17.4344 H   0  0  0  0  0  0
  -15.4180  -18.8684   17.3915 H   0  0  0  0  0  0
  -15.2184  -18.2735   19.0746 H   0  0  0  0  0  0
  -13.5956  -17.3737   16.6907 H   0  0  0  0  0  0
  -15.0126  -16.5187   17.3892 H   0  0  0  0  0  0
  -12.2112  -16.7097   18.5464 H   0  0  0  0  0  0
  -15.7340  -15.8422   18.9150 H   0  0  0  0  0  0
  -15.3381  -14.5855   20.2912 H   0  0  0  0  0  0
  -11.7627  -15.2321   20.1467 H   0  0  0  0  0  0
  -13.2145  -22.4639   17.0706 H   0  0  0  0  0  0
  -15.6594  -22.3410   15.3962 H   0  0  0  0  0  0
  -14.4488  -24.0415   13.9283 H   0  0  0  0  0  0
  -13.5753  -22.5004   14.2259 H   0  0  0  0  0  0
  -12.0427  -24.4580   14.4438 H   0  0  0  0  0  0
  -14.8475  -24.2179   18.1233 H   0  0  0  0  0  0
  -16.5003  -26.4879   17.1089 H   0  0  0  0  0  0
  -14.5341  -26.8789   18.6292 H   0  0  0  0  0  0
  -16.0476  -27.5257   19.3487 H   0  0  0  0  0  0
  -15.3707  -25.9672   19.9313 H   0  0  0  0  0  0
  -16.8140  -23.8264   19.4355 H   0  0  0  0  0  0
  -18.8989  -22.8755   20.2165 H   0  0  0  0  0  0
  -19.8365  -24.2044   19.4540 H   0  0  0  0  0  0
  -21.0054  -24.3080   21.5229 H   0  0  0  0  0  0
  -20.1819  -26.5877   22.9194 H   0  0  0  0  0  0
  -18.3918  -25.1925   23.9958 H   0  0  0  0  0  0
  -19.4673  -25.9846   25.1968 H   0  0  0  0  0  0
  -19.6666  -24.2381   24.8269 H   0  0  0  0  0  0
  -21.0062  -26.3188   25.3976 H   0  0  0  0  0  0
  -23.1455  -27.4810   25.7775 H   0  0  0  0  0  0
  -21.8600  -26.0556   27.6242 H   0  0  0  0  0  0
  -23.5708  -26.3740   28.0698 H   0  0  0  0  0  0
  -23.1026  -24.7806   27.3853 H   0  0  0  0  0  0
  -24.6782  -28.0629   24.9892 H   0  0  0  0  0  0
  -26.8153  -27.4304   23.7130 H   0  0  0  0  0  0
  -27.1238  -28.4916   26.6197 H   0  0  0  0  0  0
  -25.6397  -29.8667   25.1308 H   0  0  0  0  0  0
  -29.3809  -27.7904   25.7511 H   0  0  0  0  0  0
  -29.2365  -29.5591   26.0299 H   0  0  0  0  0  0
  -29.1492  -28.9030   24.3600 H   0  0  0  0  0  0
  -13.1824  -14.2551   20.9590 H   0  0  0  0  0  0
  1  2  1  0  0  0
  1 56  1  0  0  0
  1 57  1  0  0  0
  1 58  1  0  0  0
  2  3  1  0  0  0
  2  5  1  0  0  0
  2 59  1  0  0  0
  3  4  2  0  0  0
  3  7  1  0  0  0
  5  6  1  0  0  0
  5 60  1  0  0  0
  5 61  1  0  0  0
  6 62  1  0  0  0
  7  8  1  0  0  0
  7 63  1  0  0  0
  8  9  1  0  0  0
  8 11  1  0  0  0
  8 64  1  0  0  0
  9 10  2  0  0  0
  9 12  1  0  0  0
 11 65  1  0  0  0
 11 66  1  0  0  0
 11 67  1  0  0  0
 12 13  1  0  0  0
 12 68  1  0  0  0
 13 14  1  0  0  0
 13 16  1  0  0  0
 13 69  1  0  0  0
 14 15  2  0  0  0
 14 23  1  0  0  0
 16 17  1  0  0  0
 16 70  1  0  0  0
 16 71  1  0  0  0
 17 18  1  0  0  0
 17 72  1  0  0  0
 17 73  1  0  0  0
 18 19  1  0  0  0
 18 74  1  0  0  0
 18 75  1  0  0  0
 19 20  1  0  0  0
 19 76  1  0  0  0
 20 21  1  0  0  0
 20 22  2  0  0  0
 21 77  1  0  0  0
 21 78  1  0  0  0
 22 79  1  0  0  0
 22110  1  0  0  0
 23 24  1  0  0  0
 23 80  1  0  0  0
 24 25  1  0  0  0
 24 27  1  0  0  0
 24 81  1  0  0  0
 25 26  2  0  0  0
 25 29  1  0  0  0
 27 28  1  0  0  0
 27 82  1  0  0  0
 27 83  1  0  0  0
 28 84  1  0  0  0
 29 30  1  0  0  0
 29 85  1  0  0  0
 30 31  1  0  0  0
 30 33  1  0  0  0
 30 86  1  0  0  0
 31 32  2  0  0  0
 31 34  1  0  0  0
 33 87  1  0  0  0
 33 88  1  0  0  0
 33 89  1  0  0  0
 34 35  1  0  0  0
 34 90  1  0  0  0
 35 36  1  0  0  0
 35 91  1  0  0  0
 35 92  1  0  0  0
 36 37  2  0  0  0
 36 38  1  0  0  0
 38 39  1  0  0  0
 38 93  1  0  0  0
 39 40  1  0  0  0
 39 42  1  0  0  0
 39 94  1  0  0  0
 40 41  2  0  0  0
 40 43  1  0  0  0
 42 95  1  0  0  0
 42 96  1  0  0  0
 42 97  1  0  0  0
 43 44  1  0  0  0
 43 98  1  0  0  0
 44 45  1  0  0  0
 44 47  1  0  0  0
 44 99  1  0  0  0
 45 46  2  0  0  0
 45 48  1  0  0  0
 47100  1  0  0  0
 47101  1  0  0  0
 47102  1  0  0  0
 48 49  1  0  0  0
 48103  1  0  0  0
 49 50  1  0  0  0
 49 52  1  0  0  0
 49104  1  0  0  0
 50 51  2  0  0  0
 50 55  1  0  0  0
 52 53  1  0  0  0
 52 54  1  0  0  0
 52105  1  0  0  0
 53106  1  0  0  0
 54107  1  0  0  0
 54108  1  0  0  0
 54109  1  0  0  0
M  CHG  3   1   1  22   1  55  -1
M  END
> <s_m_source_file>
../3uvo_ligand.sdf

> <i_m_source_file_index>
1

> <s_epik_input>
W1NIXVtDSDJdW0NASF0oW05IMytdKUMoPU8pW05IXVtDQEBIXShbQ0gzXSlDKD1PKVtOSF1bQ0BASF0oW0NIMl1bQ0gyXVtDSDJdW05IXS9DKFtOSDJdKT1OXFtIXSlDKD1PKVtOSF1bQ0BASF0oW0NIMl1bT0hdKUMoPU8pW05IXVtDQEBIXShbQ0gzXSlDKD1PKVtOSF1bQ0gyXUMoPU8pW05IXVtDQEBIXShbQ0gzXSlDKD1PKVtOSF1bQ0BASF0oW0NIM10pQyg9TylbTkhdW0NASF0oQyg9TylbT0hdKVtDQEhdKFtPSF0pW0NIM10=

> <s_epik_cmdline>
J2VwaWtfYXBwJywgJy1pbWFlJywgJ2xpZ2FuZF9wcm8ubWFlJywgJy1vbWFlJywgJ2xpZ2FuZF9wcmVwLm1hZScsICctbXMnLCAnMScsICctcGgnLCAnNycsICctcGh0JywgJzAuNScsICctbnQn

> <r_epik_Ionization_Penalty>
  0.3687

> <r_epik_Ionization_Penalty_Charging>
  0.3317

> <r_epik_Ionization_Penalty_Neutral>
  0.0370

> <r_epik_State_Penalty>
  0.3267

> <r_epik_Charging_Adjusted_Penalty>
0.6584621961242

> <i_epik_Tot_Q>
1

> <i_epik_Tot_abs_Q>
3

> <s_epik_Chemistry_Notes>
This compound has an imine and may undergo hydrolysis.

$$$$
