3uvu_ligand
                    3D
 Schrodinger Suite 2020-3.
318319  0  0  1  0            999 V2000
   46.1840   49.0450   39.9510 N   0  3  0  0  0  0
   45.2730   49.8140   40.7900 C   0  0  2  0  0  0
   44.4970   50.8380   39.9680 C   0  0  0  0  0  0
   45.0560   51.8390   39.5180 O   0  0  0  0  0  0
   46.0410   50.5140   41.9130 C   0  0  0  0  0  0
   45.2380   51.4960   42.5440 O   0  0  0  0  0  0
   43.2080   50.5810   39.7760 N   0  0  0  0  0  0
   42.3540   51.4800   39.0080 C   0  0  2  0  0  0
   41.8960   52.6620   39.8550 C   0  0  0  0  0  0
   41.1550   53.5250   39.3850 O   0  0  0  0  0  0
   41.1540   50.7260   38.4540 C   0  0  0  0  0  0
   42.3440   52.6960   41.1060 N   0  0  0  0  0  0
   41.9750   53.7940   42.0390 C   0  0  2  0  0  0
   42.4540   55.1330   41.5160 C   0  0  0  0  0  0
   43.5870   55.2500   41.0750 O   0  0  0  0  0  0
   42.6060   53.6310   43.4220 C   0  0  0  0  0  0
   42.2470   52.3770   44.2120 C   0  0  0  0  0  0
   40.7930   52.2570   44.5110 C   0  0  0  0  0  0
   40.5270   50.8980   45.0870 C   0  0  0  0  0  0
   39.4170   50.8200   46.0520 N   0  3  0  0  0  0
   41.5820   56.1270   41.5110 N   0  0  0  0  0  0
   41.9600   57.4560   41.1950 C   0  0  2  0  0  0
   41.8780   58.3810   42.4570 C   0  0  0  0  0  0
   40.8190   58.5580   43.1010 O   0  0  0  0  0  0
   41.1660   57.9470   40.0300 C   0  0  0  0  0  0
   41.4760   57.2050   38.7520 C   0  0  0  0  0  0
   40.2080   57.0770   37.9500 C   0  0  0  0  0  0
   39.6710   58.3840   37.6270 N   0  0  0  0  0  0
   38.4700   58.8800   37.9780 C   0  0  0  0  0  0
   37.5860   58.2030   38.7080 N   0  0  0  0  0  0
   38.1670   60.0890   37.5740 N   0  0  0  0  0  0
   43.0450   58.9420   42.7740 N   0  0  0  0  0  0
   43.3180   59.5590   44.0340 C   0  0  2  0  0  0
   43.4200   61.0440   43.9450 C   0  0  0  0  0  0
   43.9410   61.6380   44.8950 O   0  0  0  0  0  0
   44.6860   59.1090   44.5890 C   0  0  0  0  0  0
   44.6220   58.5990   45.9850 C   0  0  0  0  0  0
   45.8870   57.9240   46.4110 C   0  0  0  0  0  0
   45.5960   56.6300   47.1450 C   0  0  0  0  0  0
   45.1130   56.8440   48.4550 N   0  3  0  0  0  0
   43.0570   61.7650   42.9100 N   0  0  0  0  0  0
   43.4890   63.1650   43.2850 C   0  0  2  0  0  0
   42.4130   64.2030   43.2370 C   0  0  0  0  0  0
   42.3730   64.9620   42.2880 O   0  0  0  0  0  0
   44.6830   63.6090   42.4680 C   0  0  0  0  0  0
   45.7010   64.2140   43.3650 C   0  0  0  0  0  0
   47.0610   63.5400   43.2140 C   0  0  0  0  0  0
   47.5280   63.4160   42.0350 O   0  0  0  0  0  0
   47.6310   63.1380   44.2840 O   0  0  0  0  0  0
   41.4990   64.2090   44.2140 N   0  0  0  0  0  0
   40.3070   64.9790   43.8610 C   0  0  2  0  0  0
   40.5570   66.5110   43.8280 C   0  0  0  0  0  0
   41.5300   66.9920   44.4250 O   0  0  0  0  0  0
   39.3090   64.5750   44.9540 C   0  0  0  0  0  0
   40.2010   64.2520   46.1660 C   0  0  0  0  0  0
   41.4470   63.6520   45.5760 C   0  0  0  0  0  0
   39.7050   67.2330   43.1070 N   0  0  0  0  0  0
   39.5650   68.6790   43.1450 C   0  0  2  0  0  0
   39.6060   69.1480   44.5950 C   0  0  0  0  0  0
   38.8030   68.6800   45.4270 O   0  0  0  0  0  0
   38.2060   69.0310   42.5600 C   0  0  0  0  0  0
   37.8730   70.5720   42.3980 C   0  0  0  0  0  0
   36.5140   70.8230   41.5990 C   0  0  0  0  0  0
   36.1680   69.9890   40.6850 O   0  0  0  0  0  0
   35.8030   71.8480   41.8890 O   0  0  0  0  0  0
   40.6140   69.9950   44.9340 N   0  0  0  0  0  0
   40.7320   70.5160   46.2910 C   0  0  2  0  0  0
   39.4430   71.2360   46.7690 C   0  0  0  0  0  0
   38.7860   71.9480   45.9960 O   0  0  0  0  0  0
   41.9430   71.4390   46.2240 C   0  0  0  0  0  0
   42.2380   71.6160   44.7290 C   0  0  0  0  0  0
   41.7300   70.4110   44.0660 C   0  0  0  0  0  0
   39.0960   70.9930   48.0370 N   0  0  0  0  0  0
   37.8380   71.4110   48.6230 C   0  0  2  0  0  0
   38.0370   71.4650   50.1290 C   0  0  0  0  0  0
   38.6760   70.5760   50.6980 O   0  0  0  0  0  0
   36.8440   70.3010   48.3880 C   0  0  0  0  0  0
   35.7070   70.5420   47.5280 C   0  0  0  0  0  0
   34.7710   69.2800   47.8780 C   0  0  0  0  0  0
   33.3340   69.3540   47.3130 C   0  0  0  0  0  0
   32.7150   70.7190   47.6410 N   0  3  0  0  0  0
   37.4960   72.4850   50.7790 N   0  0  0  0  0  0
   37.5710   72.5390   52.2010 C   0  0  0  0  0  0
   36.6080   73.4870   52.8500 C   0  0  0  0  0  0
   35.7620   74.0790   52.2190 O   0  0  0  0  0  0
   36.7480   73.6210   54.1390 N   0  0  0  0  0  0
   36.1690   74.7130   54.8480 C   0  0  2  0  0  0
   36.8020   76.0640   54.4400 C   0  0  0  0  0  0
   37.6860   76.1320   53.5970 O   0  0  0  0  0  0
   36.4370   74.4770   56.3240 C   0  0  0  0  0  0
   35.2940   74.8480   57.0380 O   0  0  0  0  0  0
   36.3530   77.1340   55.0680 N   0  0  0  0  0  0
   36.9710   78.4460   54.9880 C   0  0  2  0  0  0
   38.4250   78.3360   55.2860 C   0  0  0  0  0  0
   38.7730   77.7230   56.2760 O   0  0  0  0  0  0
   36.3890   79.2950   56.1730 C   0  0  2  0  0  0
   34.9420   79.2150   56.1250 O   0  0  0  0  0  0
   36.8140   80.7190   56.1020 C   0  0  0  0  0  0
   39.2720   78.8890   54.4340 N   0  0  0  0  0  0
   40.7160   78.9930   54.7240 C   0  0  2  0  0  0
   41.0210   80.0560   55.8170 C   0  0  0  0  0  0
   41.7070   79.7680   56.7800 O   0  0  0  0  0  0
   41.4970   79.3140   53.4380 C   0  0  0  0  0  0
   41.4890   78.1640   52.4320 C   0  0  0  0  0  0
   41.6320   78.7140   50.9980 C   0  0  0  0  0  0
   41.7000   77.5690   49.8840 C   0  0  0  0  0  0
   43.1500   77.0520   49.7140 N   0  3  0  0  0  0
   40.4670   81.2590   55.6510 N   0  0  0  0  0  0
   40.7390   82.3980   56.5000 C   0  0  2  0  0  0
   39.4430   83.1200   56.7520 C   0  0  0  0  0  0
   38.5020   83.0660   55.9740 O   0  0  0  0  0  0
   41.7330   83.3610   55.8290 C   0  0  0  0  0  0
   43.1110   82.7810   55.6300 C   0  0  0  0  0  0
   44.0890   83.8500   55.1880 C   0  0  0  0  0  0
   45.4440   83.1990   54.8380 C   0  0  0  0  0  0
   46.2590   84.0720   53.8550 N   0  3  0  0  0  0
   39.3800   83.8590   57.8370 N   0  0  0  0  0  0
   38.0530   84.3930   58.2860 C   0  0  2  0  0  0
   38.3020   85.6650   59.0570 C   0  0  0  0  0  0
   39.0740   85.6610   60.0320 O   0  0  0  0  0  0
   37.5020   83.3520   59.2650 C   0  0  0  0  0  0
   36.0760   83.2470   59.3710 C   0  0  0  0  0  0
   35.7510   81.8900   60.0420 C   0  0  0  0  0  0
   36.4970   81.7010   61.3460 C   0  0  0  0  0  0
   35.6830   80.9930   62.3450 N   0  3  0  0  0  0
   37.6870   86.7600   58.6320 N   0  0  0  0  0  0
   37.7550   88.0220   59.4320 C   0  0  2  0  0  0
   36.6820   87.9750   60.5460 C   0  0  0  0  0  0
   35.6510   87.3350   60.3800 O   0  0  0  0  0  0
   37.5740   89.2630   58.5340 C   0  0  0  0  0  0
   36.9540   88.6300   61.6720 N   0  0  0  0  0  0
   35.9700   88.8150   62.7080 C   0  0  2  0  0  0
   35.1960   90.1350   62.5010 C   0  0  0  0  0  0
   35.7580   91.2450   62.4560 O   0  0  0  0  0  0
   36.5800   88.6910   64.1040 C   0  0  0  0  0  0
   35.5990   88.8890   65.2220 C   0  0  0  0  0  0
   36.3470   88.6110   66.4640 C   0  0  0  0  0  0
   35.7280   89.1880   67.7270 C   0  0  0  0  0  0
   34.5700   88.4630   68.0700 N   0  3  0  0  0  0
   33.8830   89.9220   62.4980 N   0  0  0  0  0  0
   32.7650   90.7010   61.8990 C   0  0  2  0  0  0
   33.1080   91.5990   60.7690 C   0  0  0  0  0  0
   32.7550   91.2090   59.6800 O   0  0  0  0  0  0
   31.7580   91.3000   62.9060 C   0  0  2  0  0  0
   32.0830   92.6700   63.1380 O   0  0  0  0  0  0
   31.7590   90.5010   64.2800 C   0  0  0  0  0  0
   33.6980   92.6090   61.0780 O   0  0  0  0  0  0
   45.6152   48.5495   39.1504 H   0  0  0  0  0  0
   46.6933   48.2859   40.5628 H   0  0  0  0  0  0
   46.9309   49.7194   39.5068 H   0  0  0  0  0  0
   44.5736   49.0743   41.2067 H   0  0  0  0  0  0
   46.3467   49.7724   42.6657 H   0  0  0  0  0  0
   46.9338   51.0035   41.4968 H   0  0  0  0  0  0
   45.6467   52.0899   43.3748 H   0  0  0  0  0  0
   42.7879   49.6632   40.2133 H   0  0  0  0  0  0
   42.9803   51.8469   38.1815 H   0  0  0  0  0  0
   41.5025   49.8778   37.8464 H   0  0  0  0  0  0
   40.5527   51.4024   37.8288 H   0  0  0  0  0  0
   40.5393   50.3527   39.2864 H   0  0  0  0  0  0
   43.0039   51.8841   41.4457 H   0  0  0  0  0  0
   40.8779   53.7361   42.0932 H   0  0  0  0  0  0
   43.7016   53.6119   43.3252 H   0  0  0  0  0  0
   42.3092   54.4748   44.0622 H   0  0  0  0  0  0
   42.5389   51.4856   43.6374 H   0  0  0  0  0  0
   42.7807   52.3842   45.1738 H   0  0  0  0  0  0
   40.5026   53.0318   45.2358 H   0  0  0  0  0  0
   40.2159   52.3877   43.5837 H   0  0  0  0  0  0
   40.2800   50.1977   44.2754 H   0  0  0  0  0  0
   41.4227   50.5429   45.6177 H   0  0  0  0  0  0
   39.3123   49.7843   46.4075 H   0  0  0  0  0  0
   38.4835   51.1361   45.5634 H   0  0  0  0  0  0
   39.6262   51.4814   46.9057 H   0  0  0  0  0  0
   40.5359   55.8977   41.7621 H   0  0  0  0  0  0
   43.0025   57.3837   40.8516 H   0  0  0  0  0  0
   40.0932   57.8212   40.2383 H   0  0  0  0  0  0
   41.3841   59.0117   39.8602 H   0  0  0  0  0  0
   42.2279   57.7646   38.1763 H   0  0  0  0  0  0
   41.8682   56.2061   38.9938 H   0  0  0  0  0  0
   40.4188   56.5385   37.0143 H   0  0  0  0  0  0
   39.4600   56.5199   38.5331 H   0  0  0  0  0  0
   40.2666   59.0914   37.0313 H   0  0  0  0  0  0
   37.8232   57.1868   39.0559 H   0  0  0  0  0  0
   36.6185   58.6599   38.9632 H   0  0  0  0  0  0
   38.8850   60.6632   36.9700 H   0  0  0  0  0  0
   43.8228   58.9110   41.9968 H   0  0  0  0  0  0
   42.4378   59.2516   44.6178 H   0  0  0  0  0  0
   45.0882   58.3001   43.9613 H   0  0  0  0  0  0
   45.3828   59.9601   44.5813 H   0  0  0  0  0  0
   44.4388   59.4371   46.6735 H   0  0  0  0  0  0
   43.8044   57.8682   46.0713 H   0  0  0  0  0  0
   46.4971   57.6956   45.5247 H   0  0  0  0  0  0
   46.4498   58.5896   47.0820 H   0  0  0  0  0  0
   44.8342   56.0591   46.5938 H   0  0  0  0  0  0
   46.5181   56.0348   47.2186 H   0  0  0  0  0  0
   44.9200   55.8745   48.9375 H   0  0  0  0  0  0
   44.1795   57.4242   48.4114 H   0  0  0  0  0  0
   45.8634   57.3999   49.0362 H   0  0  0  0  0  0
   42.5634   61.5819   41.9442 H   0  0  0  0  0  0
   43.7585   63.0946   44.3492 H   0  0  0  0  0  0
   45.1186   62.7400   41.9532 H   0  0  0  0  0  0
   44.3620   64.3529   41.7240 H   0  0  0  0  0  0
   45.8155   65.2809   43.1227 H   0  0  0  0  0  0
   45.3773   64.1082   44.4110 H   0  0  0  0  0  0
   48.6131   62.6452   44.2322 H   0  0  0  0  0  0
   39.9865   64.7206   42.8410 H   0  0  0  0  0  0
   38.6244   65.4126   45.1531 H   0  0  0  0  0  0
   38.7313   63.7012   44.6183 H   0  0  0  0  0  0
   40.4167   65.1778   46.7196 H   0  0  0  0  0  0
   39.6800   63.5430   46.8262 H   0  0  0  0  0  0
   41.3933   62.5547   45.5216 H   0  0  0  0  0  0
   42.3513   63.9479   46.1279 H   0  0  0  0  0  0
   39.0698   66.6364   42.4357 H   0  0  0  0  0  0
   40.3908   69.1171   42.5653 H   0  0  0  0  0  0
   38.1184   68.6008   41.5514 H   0  0  0  0  0  0
   37.4129   68.6220   43.2032 H   0  0  0  0  0  0
   37.7711   71.0316   43.3922 H   0  0  0  0  0  0
   38.6862   71.0669   41.8469 H   0  0  0  0  0  0
   35.2351   70.1444   40.1232 H   0  0  0  0  0  0
   40.8776   69.6824   46.9938 H   0  0  0  0  0  0
   41.6993   72.3989   46.7027 H   0  0  0  0  0  0
   42.7894   70.9720   46.7489 H   0  0  0  0  0  0
   41.7266   72.5167   44.3585 H   0  0  0  0  0  0
   43.3226   71.7224   44.5793 H   0  0  0  0  0  0
   42.4793   69.6069   44.0216 H   0  0  0  0  0  0
   41.3509   70.6152   43.0538 H   0  0  0  0  0  0
   39.8294   70.4421   48.6441 H   0  0  0  0  0  0
   37.5366   72.3704   48.1772 H   0  0  0  0  0  0
   37.3557   69.4414   47.9305 H   0  0  0  0  0  0
   36.4013   69.9959   49.3477 H   0  0  0  0  0  0
   35.2502   71.5087   47.7865 H   0  0  0  0  0  0
   36.0382   70.5617   46.4792 H   0  0  0  0  0  0
   35.2227   68.3640   47.4695 H   0  0  0  0  0  0
   34.6752   69.1861   48.9698 H   0  0  0  0  0  0
   33.3619   69.2206   46.2215 H   0  0  0  0  0  0
   32.7213   68.5595   47.7639 H   0  0  0  0  0  0
   31.6932   70.7650   47.2364 H   0  0  0  0  0  0
   33.3243   71.5159   47.1896 H   0  0  0  0  0  0
   32.6838   70.8548   48.7321 H   0  0  0  0  0  0
   36.9900   73.2887   50.2240 H   0  0  0  0  0  0
   37.3615   71.5426   52.6173 H   0  0  0  0  0  0
   38.5794   72.8580   52.5032 H   0  0  0  0  0  0
   37.3320   72.8618   54.6799 H   0  0  0  0  0  0
   35.1001   74.6964   54.5887 H   0  0  0  0  0  0
   36.6590   73.4126   56.4907 H   0  0  0  0  0  0
   37.2966   75.0851   56.6424 H   0  0  0  0  0  0
   35.2760   74.7555   58.1340 H   0  0  0  0  0  0
   35.4522   76.9869   55.6819 H   0  0  0  0  0  0
   36.8051   78.8203   53.9670 H   0  0  0  0  0  0
   36.7199   78.9227   57.1538 H   0  0  0  0  0  0
   34.4437   78.2352   56.1663 H   0  0  0  0  0  0
   37.9119   80.7762   56.1386 H   0  0  0  0  0  0
   36.3894   81.2712   56.9533 H   0  0  0  0  0  0
   36.4549   81.1624   55.1615 H   0  0  0  0  0  0
   38.8720   79.2779   53.4860 H   0  0  0  0  0  0
   40.9945   77.9974   55.0997 H   0  0  0  0  0  0
   41.0499   80.1908   52.9467 H   0  0  0  0  0  0
   42.5457   79.5300   53.6901 H   0  0  0  0  0  0
   42.3285   77.4855   52.6440 H   0  0  0  0  0  0
   40.5413   77.6115   52.5141 H   0  0  0  0  0  0
   40.7685   79.3535   50.7628 H   0  0  0  0  0  0
   42.5570   79.3045   50.9223 H   0  0  0  0  0  0
   41.0567   76.7282   50.1827 H   0  0  0  0  0  0
   41.3525   77.9727   48.9216 H   0  0  0  0  0  0
   43.1713   76.2667   48.9440 H   0  0  0  0  0  0
   43.5063   76.6388   50.6692 H   0  0  0  0  0  0
   43.8022   77.8833   49.4081 H   0  0  0  0  0  0
   39.7662   81.3558   54.8087 H   0  0  0  0  0  0
   41.1613   81.9963   57.4329 H   0  0  0  0  0  0
   41.3544   83.6455   54.8362 H   0  0  0  0  0  0
   41.8469   84.2618   56.4500 H   0  0  0  0  0  0
   43.4660   82.3465   56.5761 H   0  0  0  0  0  0
   43.0713   81.9976   54.8588 H   0  0  0  0  0  0
   43.6918   84.3665   54.3017 H   0  0  0  0  0  0
   44.2316   84.5758   56.0022 H   0  0  0  0  0  0
   46.0351   83.0664   55.7562 H   0  0  0  0  0  0
   45.2699   82.2192   54.3693 H   0  0  0  0  0  0
   47.2149   83.5763   53.6304 H   0  0  0  0  0  0
   46.4534   85.0539   54.3112 H   0  0  0  0  0  0
   45.6882   84.2067   52.9244 H   0  0  0  0  0  0
   40.2883   84.0869   58.4141 H   0  0  0  0  0  0
   37.3834   84.5910   57.4361 H   0  0  0  0  0  0
   37.8505   82.3511   58.9704 H   0  0  0  0  0  0
   37.8574   83.5797   60.2808 H   0  0  0  0  0  0
   35.6917   84.0770   59.9820 H   0  0  0  0  0  0
   35.6293   83.2934   58.3669 H   0  0  0  0  0  0
   34.6732   81.8351   60.2549 H   0  0  0  0  0  0
   36.0334   81.0696   59.3658 H   0  0  0  0  0  0
   37.4088   81.1129   61.1649 H   0  0  0  0  0  0
   36.7703   82.6837   61.7579 H   0  0  0  0  0  0
   36.2611   80.8774   63.2737 H   0  0  0  0  0  0
   35.4088   80.0006   61.9578 H   0  0  0  0  0  0
   34.7702   81.5714   62.5508 H   0  0  0  0  0  0
   37.1250   86.7377   57.6867 H   0  0  0  0  0  0
   38.7601   88.0737   59.8760 H   0  0  0  0  0  0
   38.3498   89.2676   57.7542 H   0  0  0  0  0  0
   37.6626   90.1736   59.1447 H   0  0  0  0  0  0
   36.5805   89.2328   58.0627 H   0  0  0  0  0  0
   37.9684   89.0363   61.7981 H   0  0  0  0  0  0
   35.2818   87.9665   62.5796 H   0  0  0  0  0  0
   37.0124   87.6871   64.2273 H   0  0  0  0  0  0
   37.3687   89.4477   64.2281 H   0  0  0  0  0  0
   35.2255   89.9235   65.2031 H   0  0  0  0  0  0
   34.7565   88.1927   65.0982 H   0  0  0  0  0  0
   36.4164   87.5236   66.6146 H   0  0  0  0  0  0
   37.3587   89.0356   66.3856 H   0  0  0  0  0  0
   36.4525   89.1248   68.5523 H   0  0  0  0  0  0
   35.4586   90.2406   67.5555 H   0  0  0  0  0  0
   34.1292   88.8872   68.9842 H   0  0  0  0  0  0
   34.8352   87.4099   68.2452 H   0  0  0  0  0  0
   33.8413   88.5258   67.2484 H   0  0  0  0  0  0
   33.6727   88.9952   63.0519 H   0  0  0  0  0  0
   32.2521   89.8899   61.3613 H   0  0  0  0  0  0
   30.7548   91.3211   62.4552 H   0  0  0  0  0  0
   32.1287   93.3749   62.2947 H   0  0  0  0  0  0
   31.5076   89.4469   64.0913 H   0  0  0  0  0  0
   31.0137   90.9397   64.9598 H   0  0  0  0  0  0
   32.7563   90.5635   64.7398 H   0  0  0  0  0  0
   33.9921   93.3329   60.3037 H   0  0  0  0  0  0
  1  2  1  0  0  0
  1148  1  0  0  0
  1149  1  0  0  0
  1150  1  0  0  0
  2  3  1  0  0  0
  2  5  1  0  0  0
  2151  1  0  0  0
  3  4  2  0  0  0
  3  7  1  0  0  0
  5  6  1  0  0  0
  5152  1  0  0  0
  5153  1  0  0  0
  6154  1  0  0  0
  7  8  1  0  0  0
  7155  1  0  0  0
  8  9  1  0  0  0
  8 11  1  0  0  0
  8156  1  0  0  0
  9 10  2  0  0  0
  9 12  1  0  0  0
 11157  1  0  0  0
 11158  1  0  0  0
 11159  1  0  0  0
 12 13  1  0  0  0
 12160  1  0  0  0
 13 14  1  0  0  0
 13 16  1  0  0  0
 13161  1  0  0  0
 14 15  2  0  0  0
 14 21  1  0  0  0
 16 17  1  0  0  0
 16162  1  0  0  0
 16163  1  0  0  0
 17 18  1  0  0  0
 17164  1  0  0  0
 17165  1  0  0  0
 18 19  1  0  0  0
 18166  1  0  0  0
 18167  1  0  0  0
 19 20  1  0  0  0
 19168  1  0  0  0
 19169  1  0  0  0
 20170  1  0  0  0
 20171  1  0  0  0
 20172  1  0  0  0
 21 22  1  0  0  0
 21173  1  0  0  0
 22 23  1  0  0  0
 22 25  1  0  0  0
 22174  1  0  0  0
 23 24  2  0  0  0
 23 32  1  0  0  0
 25 26  1  0  0  0
 25175  1  0  0  0
 25176  1  0  0  0
 26 27  1  0  0  0
 26177  1  0  0  0
 26178  1  0  0  0
 27 28  1  0  0  0
 27179  1  0  0  0
 27180  1  0  0  0
 28 29  1  0  0  0
 28181  1  0  0  0
 29 30  1  0  0  0
 29 31  2  0  0  0
 30182  1  0  0  0
 30183  1  0  0  0
 31184  1  0  0  0
 32 33  1  0  0  0
 32185  1  0  0  0
 33 34  1  0  0  0
 33 36  1  0  0  0
 33186  1  0  0  0
 34 35  2  0  0  0
 34 41  1  0  0  0
 36 37  1  0  0  0
 36187  1  0  0  0
 36188  1  0  0  0
 37 38  1  0  0  0
 37189  1  0  0  0
 37190  1  0  0  0
 38 39  1  0  0  0
 38191  1  0  0  0
 38192  1  0  0  0
 39 40  1  0  0  0
 39193  1  0  0  0
 39194  1  0  0  0
 40195  1  0  0  0
 40196  1  0  0  0
 40197  1  0  0  0
 41 42  1  0  0  0
 41198  1  0  0  0
 42 43  1  0  0  0
 42 45  1  0  0  0
 42199  1  0  0  0
 43 44  2  0  0  0
 43 50  1  0  0  0
 45 46  1  0  0  0
 45200  1  0  0  0
 45201  1  0  0  0
 46 47  1  0  0  0
 46202  1  0  0  0
 46203  1  0  0  0
 47 48  2  0  0  0
 47 49  1  0  0  0
 49204  1  0  0  0
 50 51  1  0  0  0
 50 56  1  0  0  0
 51 52  1  0  0  0
 51 54  1  0  0  0
 51205  1  0  0  0
 52 53  2  0  0  0
 52 57  1  0  0  0
 54 55  1  0  0  0
 54206  1  0  0  0
 54207  1  0  0  0
 55 56  1  0  0  0
 55208  1  0  0  0
 55209  1  0  0  0
 56210  1  0  0  0
 56211  1  0  0  0
 57 58  1  0  0  0
 57212  1  0  0  0
 58 59  1  0  0  0
 58 61  1  0  0  0
 58213  1  0  0  0
 59 60  2  0  0  0
 59 66  1  0  0  0
 61 62  1  0  0  0
 61214  1  0  0  0
 61215  1  0  0  0
 62 63  1  0  0  0
 62216  1  0  0  0
 62217  1  0  0  0
 63 64  1  0  0  0
 63 65  2  0  0  0
 64218  1  0  0  0
 66 67  1  0  0  0
 66 72  1  0  0  0
 67 68  1  0  0  0
 67 70  1  0  0  0
 67219  1  0  0  0
 68 69  2  0  0  0
 68 73  1  0  0  0
 70 71  1  0  0  0
 70220  1  0  0  0
 70221  1  0  0  0
 71 72  1  0  0  0
 71222  1  0  0  0
 71223  1  0  0  0
 72224  1  0  0  0
 72225  1  0  0  0
 73 74  1  0  0  0
 73226  1  0  0  0
 74 75  1  0  0  0
 74 77  1  0  0  0
 74227  1  0  0  0
 75 76  2  0  0  0
 75 82  1  0  0  0
 77 78  1  0  0  0
 77228  1  0  0  0
 77229  1  0  0  0
 78 79  1  0  0  0
 78230  1  0  0  0
 78231  1  0  0  0
 79 80  1  0  0  0
 79232  1  0  0  0
 79233  1  0  0  0
 80 81  1  0  0  0
 80234  1  0  0  0
 80235  1  0  0  0
 81236  1  0  0  0
 81237  1  0  0  0
 81238  1  0  0  0
 82 83  1  0  0  0
 82239  1  0  0  0
 83 84  1  0  0  0
 83240  1  0  0  0
 83241  1  0  0  0
 84 85  2  0  0  0
 84 86  1  0  0  0
 86 87  1  0  0  0
 86242  1  0  0  0
 87 88  1  0  0  0
 87 90  1  0  0  0
 87243  1  0  0  0
 88 89  2  0  0  0
 88 92  1  0  0  0
 90 91  1  0  0  0
 90244  1  0  0  0
 90245  1  0  0  0
 91246  1  0  0  0
 92 93  1  0  0  0
 92247  1  0  0  0
 93 94  1  0  0  0
 93 96  1  0  0  0
 93248  1  0  0  0
 94 95  2  0  0  0
 94 99  1  0  0  0
 96 97  1  0  0  0
 96 98  1  0  0  0
 96249  1  0  0  0
 97250  1  0  0  0
 98251  1  0  0  0
 98252  1  0  0  0
 98253  1  0  0  0
 99100  1  0  0  0
 99254  1  0  0  0
100101  1  0  0  0
100103  1  0  0  0
100255  1  0  0  0
101102  2  0  0  0
101108  1  0  0  0
103104  1  0  0  0
103256  1  0  0  0
103257  1  0  0  0
104105  1  0  0  0
104258  1  0  0  0
104259  1  0  0  0
105106  1  0  0  0
105260  1  0  0  0
105261  1  0  0  0
106107  1  0  0  0
106262  1  0  0  0
106263  1  0  0  0
107264  1  0  0  0
107265  1  0  0  0
107266  1  0  0  0
108109  1  0  0  0
108267  1  0  0  0
109110  1  0  0  0
109112  1  0  0  0
109268  1  0  0  0
110111  2  0  0  0
110117  1  0  0  0
112113  1  0  0  0
112269  1  0  0  0
112270  1  0  0  0
113114  1  0  0  0
113271  1  0  0  0
113272  1  0  0  0
114115  1  0  0  0
114273  1  0  0  0
114274  1  0  0  0
115116  1  0  0  0
115275  1  0  0  0
115276  1  0  0  0
116277  1  0  0  0
116278  1  0  0  0
116279  1  0  0  0
117118  1  0  0  0
117280  1  0  0  0
118119  1  0  0  0
118121  1  0  0  0
118281  1  0  0  0
119120  2  0  0  0
119126  1  0  0  0
121122  1  0  0  0
121282  1  0  0  0
121283  1  0  0  0
122123  1  0  0  0
122284  1  0  0  0
122285  1  0  0  0
123124  1  0  0  0
123286  1  0  0  0
123287  1  0  0  0
124125  1  0  0  0
124288  1  0  0  0
124289  1  0  0  0
125290  1  0  0  0
125291  1  0  0  0
125292  1  0  0  0
126127  1  0  0  0
126293  1  0  0  0
127128  1  0  0  0
127130  1  0  0  0
127294  1  0  0  0
128129  2  0  0  0
128131  1  0  0  0
130295  1  0  0  0
130296  1  0  0  0
130297  1  0  0  0
131132  1  0  0  0
131298  1  0  0  0
132133  1  0  0  0
132135  1  0  0  0
132299  1  0  0  0
133134  2  0  0  0
133140  1  0  0  0
135136  1  0  0  0
135300  1  0  0  0
135301  1  0  0  0
136137  1  0  0  0
136302  1  0  0  0
136303  1  0  0  0
137138  1  0  0  0
137304  1  0  0  0
137305  1  0  0  0
138139  1  0  0  0
138306  1  0  0  0
138307  1  0  0  0
139308  1  0  0  0
139309  1  0  0  0
139310  1  0  0  0
140141  1  0  0  0
140311  1  0  0  0
141142  1  0  0  0
141144  1  0  0  0
141312  1  0  0  0
142143  2  0  0  0
142147  1  0  0  0
144145  1  0  0  0
144146  1  0  0  0
144313  1  0  0  0
145314  1  0  0  0
146315  1  0  0  0
146316  1  0  0  0
146317  1  0  0  0
147318  1  0  0  0
M  CHG  8   1   1  20   1  40   1  81   1 107   1 116   1 125   1 139   1
M  END
> <s_m_source_file>
../3uvu_ligand.sdf

> <i_m_source_file_index>
1

> <s_epik_input>
W09IXVtDSDJdW0NASF0oW05IMytdKUMoPU8pW05IXVtDQEBIXShbQ0gzXSlDKD1PKVtOSF1bQ0BASF0oW0NIMl1bQ0gyXVtDSDJdW0NIMl1bTkgzK10pQyg9TylbTkhdW0NAQEhdKFtDSDJdW0NIMl1bQ0gyXVtOSF0vQyhbTkgyXSk9TlxbSF0pQyg9TylbTkhdW0NAQEhdKFtDSDJdW0NIMl1bQ0gyXVtDSDJdW05IMytdKUMoPU8pW05IXVtDQEBIXShbQ0gyXVtDSDJdQyg9TylbT0hdKUMoPU8pTjFbQ0BASF0oW0NIMl1bQ0gyXVtDSDJdMSlDKD1PKVtOSF1bQ0BASF0oW0NIMl1bQ0gyXUMoPU8pW09IXSlDKD1PKU4yW0NAQEhdKFtDSDJdW0NIMl1bQ0gyXTIpQyg9TylbTkhdW0NAQEhdKFtDSDJdW0NIMl1bQ0gyXVtDSDJdW05IMytdKUMoPU8pW05IXVtDSDJdQyg9TylbTkhdW0NAQEhdKFtDSDJdW09IXSlDKD1PKVtOSF1bQ0BASF0oW0NASF0oW09IXSlbQ0gzXSlDKD1PKVtOSF1bQ0BASF0oW0NIMl1bQ0gyXVtDSDJdW0NIMl1bTkgzK10pQyg9TylbTkhdW0NAQEhdKFtDSDJdW0NIMl1bQ0gyXVtDSDJdW05IMytdKUMoPU8pW05IXVtDQEBIXShbQ0gyXVtDSDJdW0NIMl1bQ0gyXVtOSDMrXSlDKD1PKVtOSF1bQ0BASF0oW0NIM10pQyg9TylbTkhdW0NASF0oQyg9TylbTkhdW0NASF0oQyg9TylbT0hdKVtDQEhdKFtPSF0pW0NIM10pW0NIMl1bQ0gyXVtDSDJdW0NIMl1bTkgzK10=

> <s_epik_cmdline>
J2VwaWtfYXBwJywgJy1pbWFlJywgJ2xpZ2FuZF9wcm8ubWFlJywgJy1vbWFlJywgJ2xpZ2FuZF9wcmVwLm1hZScsICctbXMnLCAnMScsICctcGgnLCAnNycsICctcGh0JywgJzAuNScsICctbnQn

> <s_epik_pKa_notes>
Molecule size exceeds maximum supported for generating protonation states

> <s_epik_Chemistry_Notes>
This compound has an imine and may undergo hydrolysis.

$$$$
