3uvw_ligand
                    3D
 Schrodinger Suite 2020-3.
161160  0  0  1  0            999 V2000
   27.8490   46.0160   23.4570 N   0  3  0  0  0  0
   27.4220   44.6410   23.8360 C   0  0  2  0  0  0
   25.9700   44.3060   23.7260 C   0  0  0  0  0  0
   25.1480   45.2190   23.9580 O   0  0  0  0  0  0
   28.1210   44.0330   25.0470 C   0  0  0  0  0  0
   27.5920   44.6470   26.2140 O   0  0  0  0  0  0
   25.6300   43.0510   23.4370 N   0  0  0  0  0  0
   24.2590   42.6000   23.4910 C   0  0  0  0  0  0
   23.9920   41.7770   24.7460 C   0  0  0  0  0  0
   24.6650   41.9240   25.7660 O   0  0  0  0  0  0
   22.9710   40.9430   24.6980 N   0  0  0  0  0  0
   22.5190   40.2620   25.9130 C   0  0  2  0  0  0
   23.4850   39.1850   26.3970 C   0  0  0  0  0  0
   23.4540   38.8210   27.5730 O   0  0  0  0  0  0
   21.0860   39.7110   25.7890 C   0  0  0  0  0  0
   20.8170   38.6580   24.7780 C   0  0  0  0  0  0
   19.4620   37.9320   25.0580 C   0  0  0  0  0  0
   18.3090   38.8200   24.8980 N   0  0  0  0  0  0
   17.0420   38.4580   25.0460 C   0  0  0  0  0  0
   16.7560   37.2020   25.3180 N   0  0  0  0  0  0
   16.0670   39.3550   24.9350 N   0  0  0  0  0  0
   24.3600   38.7020   25.5180 N   0  0  0  0  0  0
   25.3280   37.6670   25.8990 C   0  0  0  0  0  0
   24.7370   36.2700   25.9120 C   0  0  0  0  0  0
   23.5330   36.0490   25.6900 O   0  0  0  0  0  0
   29.4140   35.3470   20.1670 O   0  0  0  0  0  0
   29.2660   34.1570   19.8920 C   0  0  0  0  0  0
   30.2210   33.3940   18.9940 C   0  0  0  0  0  0
   28.2560   33.4520   20.4250 N   0  0  0  0  0  0
   27.1970   33.9950   21.2950 C   0  0  0  0  0  0
   27.3740   33.4180   22.6860 C   0  0  0  0  0  0
   26.2900   33.9220   23.6090 C   0  0  0  0  0  0
   26.4890   33.3170   24.9990 C   0  0  0  0  0  0
   25.4610   33.8840   25.9390 C   0  0  2  0  0  0
   25.7430   35.3020   26.2220 N   0  0  0  0  0  0
   25.3630   33.1110   27.2090 C   0  0  0  0  0  0
   25.0890   31.9000   27.2780 O   0  0  0  0  0  0
   25.8930   33.7940   28.5200 N   0  0  0  0  0  0
   25.7910   32.9410   29.7180 C   0  0  0  0  0  0
   27.0580   32.1790   29.9500 C   0  0  0  0  0  0
   28.0350   32.2440   29.1860 O   0  0  0  0  0  0
   27.0360   31.4570   31.0500 N   0  0  0  0  0  0
   28.1680   30.6740   31.4540 C   0  0  0  0  0  0
   28.4000   29.5170   30.5100 C   0  0  0  0  0  0
   27.4780   28.9290   29.9520 O   0  0  0  0  0  0
   28.5930   30.1060   22.7820 O   0  0  0  0  0  0
   27.8020   29.7340   23.6930 C   0  0  0  0  0  0
   26.4740   29.1140   23.4170 C   0  0  0  0  0  0
   28.1030   29.9460   24.9950 N   0  0  0  0  0  0
   29.3690   30.5830   25.4120 C   0  0  0  0  0  0
   30.3270   29.6040   26.1060 C   0  0  0  0  0  0
   29.8030   29.1900   27.4550 C   0  0  0  0  0  0
   30.8590   28.5000   28.3070 C   0  0  0  0  0  0
   30.1220   27.9970   29.5260 C   0  0  2  0  0  0
   29.7840   29.0930   30.4290 N   0  0  0  0  0  0
   30.9770   27.0910   30.3170 C   0  0  0  0  0  0
   31.8270   26.3680   29.9010 O   0  0  0  0  0  0
   30.6460   26.8740   31.8300 N   0  0  0  0  0  0
   31.3610   25.8260   32.5980 C   0  0  0  0  0  0
   32.8330   26.0840   32.8400 C   0  0  0  0  0  0
   33.5930   25.1300   33.0070 O   0  0  0  0  0  0
   33.2440   27.3530   32.9100 N   0  0  0  0  0  0
   34.6240   27.6760   33.2950 C   0  0  2  0  0  0
   34.7800   28.1850   34.7490 C   0  0  0  0  0  0
   35.8930   28.1930   35.2900 O   0  0  0  0  0  0
   35.1760   28.7810   32.4070 C   0  0  0  0  0  0
   35.0290   28.6490   30.9020 C   0  0  0  0  0  0
   35.7670   29.8270   30.2430 C   0  0  0  0  0  0
   35.5160   27.3030   30.3610 C   0  0  0  0  0  0
   33.6910   28.6800   35.3360 N   0  0  0  0  0  0
   33.7740   29.7070   36.3980 C   0  0  0  0  0  0
   34.1420   29.2180   37.7830 C   0  0  0  0  0  0
   34.7000   28.1350   37.9270 O   0  0  0  0  0  0
   33.8580   30.0060   38.8280 N   0  0  0  0  0  0
   33.3500   31.3910   38.7550 C   0  0  2  0  0  0
   33.7000   32.0530   40.0930 C   0  0  0  0  0  0
   33.7800   33.2820   40.2150 O   0  0  0  0  0  0
   31.8280   31.4330   38.5240 C   0  0  0  0  0  0
   33.9350   31.3320   41.0890 O   0  0  0  0  0  0
   27.2797   46.3469   22.5759 H   0  0  0  0  0  0
   28.9232   46.0141   23.2200 H   0  0  0  0  0  0
   27.6596   46.7028   24.2951 H   0  0  0  0  0  0
   27.8194   44.1144   22.9558 H   0  0  0  0  0  0
   27.9359   42.9490   25.0712 H   0  0  0  0  0  0
   29.2030   44.2188   24.9774 H   0  0  0  0  0  0
   27.9619   44.3513   27.2069 H   0  0  0  0  0  0
   26.4285   42.3507   23.1508 H   0  0  0  0  0  0
   23.5866   43.4705   23.4954 H   0  0  0  0  0  0
   24.0437   41.9749   22.6119 H   0  0  0  0  0  0
   22.4589   40.7597   23.7419 H   0  0  0  0  0  0
   22.5319   41.0784   26.6501 H   0  0  0  0  0  0
   20.7805   39.2650   26.7470 H   0  0  0  0  0  0
   20.3992   40.5304   25.5305 H   0  0  0  0  0  0
   20.7688   39.1136   23.7780 H   0  0  0  0  0  0
   21.6246   37.9115   24.8023 H   0  0  0  0  0  0
   19.3440   37.0927   24.3568 H   0  0  0  0  0  0
   19.4565   37.5511   26.0899 H   0  0  0  0  0  0
   18.4613   39.8771   24.6349 H   0  0  0  0  0  0
   17.5641   36.4613   25.4095 H   0  0  0  0  0  0
   16.3079   40.4039   24.7077 H   0  0  0  0  0  0
   15.0194   39.0482   25.0705 H   0  0  0  0  0  0
   24.3487   39.0928   24.4898 H   0  0  0  0  0  0
   26.1645   37.6666   25.1847 H   0  0  0  0  0  0
   25.7089   37.8754   26.9097 H   0  0  0  0  0  0
   30.9990   34.0768   18.6219 H   0  0  0  0  0  0
   29.6661   32.9720   18.1432 H   0  0  0  0  0  0
   30.6905   32.5799   19.5657 H   0  0  0  0  0  0
   28.2590   32.3835   20.1636 H   0  0  0  0  0  0
   27.2779   35.0915   21.3303 H   0  0  0  0  0  0
   26.2124   33.7127   20.8940 H   0  0  0  0  0  0
   27.3202   32.3204   22.6372 H   0  0  0  0  0  0
   28.3532   33.7197   23.0863 H   0  0  0  0  0  0
   26.3439   35.0188   23.6734 H   0  0  0  0  0  0
   25.3064   33.6257   23.2156 H   0  0  0  0  0  0
   26.3744   32.2244   24.9432 H   0  0  0  0  0  0
   27.4972   33.5617   25.3645 H   0  0  0  0  0  0
   24.4810   33.8209   25.4434 H   0  0  0  0  0  0
   26.7084   35.5938   26.6612 H   0  0  0  0  0  0
   26.3115   34.8081   28.6009 H   0  0  0  0  0  0
   25.5930   33.5688   30.5993 H   0  0  0  0  0  0
   24.9685   32.2223   29.5875 H   0  0  0  0  0  0
   26.1236   31.4626   31.6644 H   0  0  0  0  0  0
   29.0679   31.3065   31.4602 H   0  0  0  0  0  0
   27.9949   30.2728   32.4635 H   0  0  0  0  0  0
   26.3446   28.9925   22.3314 H   0  0  0  0  0  0
   25.6776   29.7625   23.8109 H   0  0  0  0  0  0
   26.4204   28.1297   23.9051 H   0  0  0  0  0  0
   27.3715   29.6282   25.7526 H   0  0  0  0  0  0
   29.8842   30.9879   24.5284 H   0  0  0  0  0  0
   29.1539   31.3994   26.1171 H   0  0  0  0  0  0
   30.4446   28.7038   25.4849 H   0  0  0  0  0  0
   31.3066   30.0850   26.2437 H   0  0  0  0  0  0
   29.4559   30.0789   28.0021 H   0  0  0  0  0  0
   28.9649   28.4898   27.3237 H   0  0  0  0  0  0
   31.3071   27.6729   27.7368 H   0  0  0  0  0  0
   31.6413   29.2240   28.5789 H   0  0  0  0  0  0
   29.2081   27.4920   29.1798 H   0  0  0  0  0  0
   30.5711   29.5756   31.0270 H   0  0  0  0  0  0
   29.8854   27.4959   32.3247 H   0  0  0  0  0  0
   30.8981   25.7184   33.5901 H   0  0  0  0  0  0
   31.2987   24.8693   32.0586 H   0  0  0  0  0  0
   32.5351   28.1607   32.6752 H   0  0  0  0  0  0
   35.1280   26.7077   33.1592 H   0  0  0  0  0  0
   34.6799   29.7314   32.6531 H   0  0  0  0  0  0
   36.2589   28.8788   32.5737 H   0  0  0  0  0  0
   33.9556   28.6772   30.6634 H   0  0  0  0  0  0
   35.3899   30.7737   30.6571 H   0  0  0  0  0  0
   35.5935   29.8069   29.1569 H   0  0  0  0  0  0
   36.8452   29.7426   30.4437 H   0  0  0  0  0  0
   34.9661   26.4886   30.8552 H   0  0  0  0  0  0
   36.5918   27.1943   30.5628 H   0  0  0  0  0  0
   35.3401   27.2586   29.2761 H   0  0  0  0  0  0
   32.7100   28.3038   35.0102 H   0  0  0  0  0  0
   34.5379   30.4515   36.1292 H   0  0  0  0  0  0
   32.7986   30.2044   36.5041 H   0  0  0  0  0  0
   34.0348   29.5359   39.8066 H   0  0  0  0  0  0
   33.8319   31.8853   37.8986 H   0  0  0  0  0  0
   31.5898   30.9556   37.5620 H   0  0  0  0  0  0
   31.4883   32.4791   38.5083 H   0  0  0  0  0  0
   31.3188   30.8943   39.3367 H   0  0  0  0  0  0
   34.1873   31.7937   42.0550 H   0  0  0  0  0  0
  1  2  1  0  0  0
  1 80  1  0  0  0
  1 81  1  0  0  0
  1 82  1  0  0  0
  2  3  1  0  0  0
  2  5  1  0  0  0
  2 83  1  0  0  0
  3  4  2  0  0  0
  3  7  1  0  0  0
  5  6  1  0  0  0
  5 84  1  0  0  0
  5 85  1  0  0  0
  6 86  1  0  0  0
  7  8  1  0  0  0
  7 87  1  0  0  0
  8  9  1  0  0  0
  8 88  1  0  0  0
  8 89  1  0  0  0
  9 10  2  0  0  0
  9 11  1  0  0  0
 11 12  1  0  0  0
 11 90  1  0  0  0
 12 13  1  0  0  0
 12 15  1  0  0  0
 12 91  1  0  0  0
 13 14  2  0  0  0
 13 22  1  0  0  0
 15 16  1  0  0  0
 15 92  1  0  0  0
 15 93  1  0  0  0
 16 17  1  0  0  0
 16 94  1  0  0  0
 16 95  1  0  0  0
 17 18  1  0  0  0
 17 96  1  0  0  0
 17 97  1  0  0  0
 18 19  1  0  0  0
 18 98  1  0  0  0
 19 20  2  0  0  0
 19 21  1  0  0  0
 20 99  1  0  0  0
 21100  1  0  0  0
 21101  1  0  0  0
 22 23  1  0  0  0
 22102  1  0  0  0
 23 24  1  0  0  0
 23103  1  0  0  0
 23104  1  0  0  0
 24 25  2  0  0  0
 24 35  1  0  0  0
 26 27  2  0  0  0
 27 28  1  0  0  0
 27 29  1  0  0  0
 28105  1  0  0  0
 28106  1  0  0  0
 28107  1  0  0  0
 29 30  1  0  0  0
 29108  1  0  0  0
 30 31  1  0  0  0
 30109  1  0  0  0
 30110  1  0  0  0
 31 32  1  0  0  0
 31111  1  0  0  0
 31112  1  0  0  0
 32 33  1  0  0  0
 32113  1  0  0  0
 32114  1  0  0  0
 33 34  1  0  0  0
 33115  1  0  0  0
 33116  1  0  0  0
 34 35  1  0  0  0
 34 36  1  0  0  0
 34117  1  0  0  0
 35118  1  0  0  0
 36 37  2  0  0  0
 36 38  1  0  0  0
 38 39  1  0  0  0
 38119  1  0  0  0
 39 40  1  0  0  0
 39120  1  0  0  0
 39121  1  0  0  0
 40 41  2  0  0  0
 40 42  1  0  0  0
 42 43  1  0  0  0
 42122  1  0  0  0
 43 44  1  0  0  0
 43123  1  0  0  0
 43124  1  0  0  0
 44 45  2  0  0  0
 44 55  1  0  0  0
 46 47  2  0  0  0
 47 48  1  0  0  0
 47 49  1  0  0  0
 48125  1  0  0  0
 48126  1  0  0  0
 48127  1  0  0  0
 49 50  1  0  0  0
 49128  1  0  0  0
 50 51  1  0  0  0
 50129  1  0  0  0
 50130  1  0  0  0
 51 52  1  0  0  0
 51131  1  0  0  0
 51132  1  0  0  0
 52 53  1  0  0  0
 52133  1  0  0  0
 52134  1  0  0  0
 53 54  1  0  0  0
 53135  1  0  0  0
 53136  1  0  0  0
 54 55  1  0  0  0
 54 56  1  0  0  0
 54137  1  0  0  0
 55138  1  0  0  0
 56 57  2  0  0  0
 56 58  1  0  0  0
 58 59  1  0  0  0
 58139  1  0  0  0
 59 60  1  0  0  0
 59140  1  0  0  0
 59141  1  0  0  0
 60 61  2  0  0  0
 60 62  1  0  0  0
 62 63  1  0  0  0
 62142  1  0  0  0
 63 64  1  0  0  0
 63 66  1  0  0  0
 63143  1  0  0  0
 64 65  2  0  0  0
 64 70  1  0  0  0
 66 67  1  0  0  0
 66144  1  0  0  0
 66145  1  0  0  0
 67 68  1  0  0  0
 67 69  1  0  0  0
 67146  1  0  0  0
 68147  1  0  0  0
 68148  1  0  0  0
 68149  1  0  0  0
 69150  1  0  0  0
 69151  1  0  0  0
 69152  1  0  0  0
 70 71  1  0  0  0
 70153  1  0  0  0
 71 72  1  0  0  0
 71154  1  0  0  0
 71155  1  0  0  0
 72 73  2  0  0  0
 72 74  1  0  0  0
 74 75  1  0  0  0
 74156  1  0  0  0
 75 76  1  0  0  0
 75 78  1  0  0  0
 75157  1  0  0  0
 76 77  2  0  0  0
 76 79  1  0  0  0
 78158  1  0  0  0
 78159  1  0  0  0
 78160  1  0  0  0
 79161  1  0  0  0
M  CHG  1   1   1
M  END
> <s_m_source_file>
../3uvw_ligand.sdf

> <i_m_source_file_index>
1

> <s_epik_input>
W09IXVtDSDJdW0NASF0oW05IMytdKUMoPU8pW05IXVtDSDJdQyg9TylbTkhdW0NAQEhdKFtDSDJdW0NIMl1bQ0gyXVtOSF0vQyg9TlxbSF0pW05IMl0pQyg9TylbTkhdW0NIMl1DKD1PKVtOSF1bQ0BASF0oW0NIMl1bQ0gyXVtDSDJdW0NIMl1bTkhdQyg9TylbQ0gzXSlDKD1PKVtOSF1bQ0gyXUMoPU8pW05IXVtDSDJdQyg9TylbTkhdW0NAQEhdKFtDSDJdW0NIMl1bQ0gyXVtDSDJdW05IXUMoPU8pW0NIM10pQyg9TylbTkhdW0NIMl1DKD1PKVtOSF1bQ0BASF0oW0NIMl1bQ0hdKFtDSDNdKVtDSDNdKUMoPU8pW05IXVtDSDJdQyg9TylbTkhdW0NAQEhdKFtDSDNdKUMoPU8pW09IXQ==

> <s_epik_cmdline>
J2VwaWtfYXBwJywgJy1pbWFlJywgJ2xpZ2FuZF9wcm8ubWFlJywgJy1vbWFlJywgJ2xpZ2FuZF9wcmVwLm1hZScsICctbXMnLCAnMScsICctcGgnLCAnNycsICctcGh0JywgJzAuNScsICctbnQn

> <s_epik_pKa_notes>
Molecule size exceeds maximum supported for generating protonation states

> <s_epik_Chemistry_Notes>
This compound has an imine and may undergo hydrolysis.

$$$$
