3uvx_ligand
                    3D
 Schrodinger Suite 2020-3.
101100  0  0  1  0            999 V2000
   25.6440   48.9420   22.8070 N   0  3  0  0  0  0
   26.7110   47.9160   22.9840 C   0  0  0  0  0  0
   26.2210   46.6250   23.6380 C   0  0  0  0  0  0
   25.0110   46.3860   23.8200 O   0  0  0  0  0  0
   30.6360   42.7750   19.3980 O   0  0  0  0  0  0
   30.4670   41.5720   19.4280 C   0  0  0  0  0  0
   31.5130   40.5810   19.0110 C   0  0  0  0  0  0
   29.3190   41.0730   19.8590 N   0  0  0  0  0  0
   28.1700   41.8700   20.2750 C   0  0  0  0  0  0
   28.1340   41.7820   21.7720 C   0  0  0  0  0  0
   27.1150   42.7570   22.3300 C   0  0  0  0  0  0
   27.5520   43.0760   23.7530 C   0  0  0  0  0  0
   26.7080   44.1380   24.4390 C   0  0  2  0  0  0
   26.8250   45.4340   23.7770 N   0  0  0  0  0  0
   27.2800   44.1710   25.8430 C   0  0  1  0  0  0
   28.4770   44.4670   26.0000 O   0  0  0  0  0  0
   26.6990   45.0390   26.7140 N   0  0  1  0  0  0
   27.1770   45.3650   28.1030 C   0  0  0  0  0  0
   27.1530   44.2120   29.0980 C   0  0  0  0  0  0
   27.7650   44.3080   30.1640 O   0  0  0  0  0  0
   26.4290   43.1360   28.7640 N   0  0  0  0  0  0
   26.2460   41.9850   29.6480 C   0  0  0  0  0  0
   27.5590   41.3960   30.1310 C   0  0  0  0  0  0
   28.5890   41.5080   29.4580 O   0  0  0  0  0  0
   27.5260   40.7820   31.3110 N   0  0  0  0  0  0
   28.7130   40.1480   31.8640 C   0  0  2  0  0  0
   29.0130   38.8590   31.0750 C   0  0  0  0  0  0
   28.0870   38.1310   30.6710 O   0  0  0  0  0  0
   28.5260   39.8570   33.3500 C   0  0  0  0  0  0
   28.5820   38.3170   22.8670 O   0  0  0  0  0  0
   27.7960   38.0090   23.7530 C   0  0  0  0  0  0
   26.7760   36.9310   23.5370 C   0  0  0  0  0  0
   27.8000   38.5980   24.9610 N   0  0  0  0  0  0
   28.6810   39.6700   25.4410 C   0  0  0  0  0  0
   29.9130   39.0260   26.0840 C   0  0  0  0  0  0
   29.6080   38.5870   27.5190 C   0  0  0  0  0  0
   30.7780   37.8740   28.1850 C   0  0  0  0  0  0
   30.4470   37.3910   29.6030 C   0  0  2  0  0  0
   30.1740   38.5120   30.4930 N   0  0  0  0  0  0
   31.5510   36.5590   30.2510 C   0  0  0  0  0  0
   32.0370   35.6300   29.5890 O   0  0  0  0  0  0
   32.6700   37.0230   30.9020 N   0  0  0  0  0  0
   34.0160   36.4650   31.3110 C   0  0  2  0  0  0
   33.9200   35.2160   32.2050 C   0  0  0  0  0  0
   32.9480   34.9850   32.9200 O   0  5  0  0  0  0
   34.8940   37.5420   31.9820 C   0  0  0  0  0  0
   35.7600   38.3400   31.0110 C   0  0  0  0  0  0
   34.7482   34.5074   32.2038 O   0  0  0  0  0  0
   26.0716   49.8376   22.3327 H   0  0  0  0  0  0
   25.2272   49.2107   23.7889 H   0  0  0  0  0  0
   24.8459   48.5347   22.1689 H   0  0  0  0  0  0
   27.1278   47.6473   22.0021 H   0  0  0  0  0  0
   27.5091   48.3233   23.6221 H   0  0  0  0  0  0
   32.4130   41.1171   18.6755 H   0  0  0  0  0  0
   31.1255   39.9637   18.1871 H   0  0  0  0  0  0
   31.7675   39.9355   19.8646 H   0  0  0  0  0  0
   29.2672   39.9747   19.8912 H   0  0  0  0  0  0
   28.3034   42.9089   19.9389 H   0  0  0  0  0  0
   27.2546   41.4548   19.8282 H   0  0  0  0  0  0
   27.8572   40.7607   22.0727 H   0  0  0  0  0  0
   29.1266   42.0273   22.1777 H   0  0  0  0  0  0
   27.1004   43.6663   21.7111 H   0  0  0  0  0  0
   26.1185   42.2912   22.3209 H   0  0  0  0  0  0
   27.4898   42.1663   24.3683 H   0  0  0  0  0  0
   28.5890   43.4428   23.7446 H   0  0  0  0  0  0
   25.6250   43.9494   24.3994 H   0  0  0  0  0  0
   27.6819   45.6400   23.1188 H   0  0  0  0  0  0
   27.2394   43.1279   26.1898 H   0  0  0  0  0  0
   29.2538   43.9389   25.4276 H   0  0  0  0  0  0
   26.6769   46.0449   26.2693 H   0  0  0  0  0  0
   28.2196   45.7129   28.0597 H   0  0  0  0  0  0
   26.5442   46.1557   28.5324 H   0  0  0  0  0  0
   25.9599   43.1455   27.7691 H   0  0  0  0  0  0
   25.6703   42.2910   30.5339 H   0  0  0  0  0  0
   25.7012   41.1939   29.1120 H   0  0  0  0  0  0
   26.5791   40.7591   31.8703 H   0  0  0  0  0  0
   29.5343   40.8714   31.7539 H   0  0  0  0  0  0
   28.3139   40.7953   33.8835 H   0  0  0  0  0  0
   29.4442   39.4053   33.7535 H   0  0  0  0  0  0
   27.6851   39.1607   33.4843 H   0  0  0  0  0  0
   26.8752   36.5315   22.5169 H   0  0  0  0  0  0
   25.7672   37.3486   23.6708 H   0  0  0  0  0  0
   26.9375   36.1222   24.2649 H   0  0  0  0  0  0
   27.0270   38.1829   25.6245 H   0  0  0  0  0  0
   28.9842   40.3024   24.5936 H   0  0  0  0  0  0
   28.1446   40.2816   26.1814 H   0  0  0  0  0  0
   30.2133   38.1443   25.4989 H   0  0  0  0  0  0
   30.7389   39.7523   26.1026 H   0  0  0  0  0  0
   29.3641   39.4697   28.1284 H   0  0  0  0  0  0
   28.7528   37.8952   27.5169 H   0  0  0  0  0  0
   31.0602   36.9950   27.5869 H   0  0  0  0  0  0
   31.6345   38.5607   28.2543 H   0  0  0  0  0  0
   29.5341   36.7845   29.5087 H   0  0  0  0  0  0
   30.9819   39.2067   30.7663 H   0  0  0  0  0  0
   32.4125   38.0662   31.1376 H   0  0  0  0  0  0
   34.4780   36.1488   30.3641 H   0  0  0  0  0  0
   34.2514   38.2635   32.5079 H   0  0  0  0  0  0
   35.5744   37.0640   32.7021 H   0  0  0  0  0  0
   36.3500   39.0812   31.5700 H   0  0  0  0  0  0
   35.1156   38.8567   30.2845 H   0  0  0  0  0  0
   36.4385   37.6572   30.4787 H   0  0  0  0  0  0
  1  2  1  0  0  0
  1 49  1  0  0  0
  1 50  1  0  0  0
  1 51  1  0  0  0
  2  3  1  0  0  0
  2 52  1  0  0  0
  2 53  1  0  0  0
  3  4  2  0  0  0
  3 14  1  0  0  0
  5  6  2  0  0  0
  6  7  1  0  0  0
  6  8  1  0  0  0
  7 54  1  0  0  0
  7 55  1  0  0  0
  7 56  1  0  0  0
  8  9  1  0  0  0
  8 57  1  0  0  0
  9 10  1  0  0  0
  9 58  1  0  0  0
  9 59  1  0  0  0
 10 11  1  0  0  0
 10 60  1  0  0  0
 10 61  1  0  0  0
 11 12  1  0  0  0
 11 62  1  0  0  0
 11 63  1  0  0  0
 12 13  1  0  0  0
 12 64  1  0  0  0
 12 65  1  0  0  0
 13 14  1  0  0  0
 13 15  1  0  0  0
 13 66  1  0  0  0
 14 67  1  0  0  0
 15 16  1  0  0  0
 15 17  1  0  0  0
 15 68  1  0  0  0
 16 69  1  0  0  0
 17 18  1  0  0  0
 17 70  1  0  0  0
 18 19  1  0  0  0
 18 71  1  0  0  0
 18 72  1  0  0  0
 19 20  2  0  0  0
 19 21  1  0  0  0
 21 22  1  0  0  0
 21 73  1  0  0  0
 22 23  1  0  0  0
 22 74  1  0  0  0
 22 75  1  0  0  0
 23 24  2  0  0  0
 23 25  1  0  0  0
 25 26  1  0  0  0
 25 76  1  0  0  0
 26 27  1  0  0  0
 26 29  1  0  0  0
 26 77  1  0  0  0
 27 28  2  0  0  0
 27 39  1  0  0  0
 29 78  1  0  0  0
 29 79  1  0  0  0
 29 80  1  0  0  0
 30 31  2  0  0  0
 31 32  1  0  0  0
 31 33  1  0  0  0
 32 81  1  0  0  0
 32 82  1  0  0  0
 32 83  1  0  0  0
 33 34  1  0  0  0
 33 84  1  0  0  0
 34 35  1  0  0  0
 34 85  1  0  0  0
 34 86  1  0  0  0
 35 36  1  0  0  0
 35 87  1  0  0  0
 35 88  1  0  0  0
 36 37  1  0  0  0
 36 89  1  0  0  0
 36 90  1  0  0  0
 37 38  1  0  0  0
 37 91  1  0  0  0
 37 92  1  0  0  0
 38 39  1  0  0  0
 38 40  1  0  0  0
 38 93  1  0  0  0
 39 94  1  0  0  0
 40 41  2  0  0  0
 40 42  1  0  0  0
 42 43  1  0  0  0
 42 95  1  0  0  0
 43 44  1  0  0  0
 43 46  1  0  0  0
 43 96  1  0  0  0
 44 45  1  0  0  0
 44 48  2  0  0  0
 46 47  1  0  0  0
 46 97  1  0  0  0
 46 98  1  0  0  0
 47 99  1  0  0  0
 47100  1  0  0  0
 47101  1  0  0  0
M  CHG  2   1   1  45  -1
M  END
> <s_m_source_file>
../3uvx_ligand.sdf

> <i_m_source_file_index>
1

> <s_epik_input>
Tz1DKFtDSDNdKVtOSF1bQ0gyXVtDSDJdW0NIMl1bQ0gyXVtDQEhdKFtOSF1DKD1PKVtDSDJdW05IMytdKVtDQEBIXShbT0hdKVtOSDIrXVtDSDJdQyg9TylbTkhdW0NIMl1DKD1PKVtOSF1bQ0BASF0oW0NIM10pQyg9TylbTkhdW0NASF0oQyg9TylbTkhdW0NASF0oQyg9TylbT0hdKVtDSDJdW0NIM10pW0NIMl1bQ0gyXVtDSDJdW0NIMl1bTkhdQyg9TylbQ0gzXQ==

> <s_epik_cmdline>
J2VwaWtfYXBwJywgJy1pbWFlJywgJ2xpZ2FuZF9wcm8ubWFlJywgJy1vbWFlJywgJ2xpZ2FuZF9wcmVwLm1hZScsICctbXMnLCAnMScsICctcGgnLCAnNycsICctcGh0JywgJzAuNScsICctbnQn

> <r_lp_tautomer_probability>
1

> <r_epik_Ionization_Penalty>
  0.3289

> <r_epik_Ionization_Penalty_Charging>
  0.1035

> <r_epik_Ionization_Penalty_Neutral>
  0.2254

> <r_epik_State_Penalty>
 -0.0000

> <r_epik_Charging_Adjusted_Penalty>
0.103462835503861

> <i_epik_Tot_Q>
0

> <i_epik_Tot_abs_Q>
2

> <s_epik_Chemistry_Notes>
This compound contains an acetal/aminal-like group ( X-CH(R)-Y where X, Y are N, S, or O) that may be acid/base labile, releasing an aldehyde.

$$$$
