3uw5_ligand
                    3D
 Schrodinger Suite 2020-3.
 70 73  0  0  1  0            999 V2000
   86.3590   60.3040   14.7920 N   0  3  0  0  0  0
   86.4570   59.1170   13.9180 C   0  0  0  0  0  0
   84.9810   60.5640   15.2490 C   0  0  1  0  0  0
   85.0120   61.5830   16.3930 C   0  0  0  0  0  0
   84.1680   61.1260   14.1120 C   0  0  0  0  0  0
   84.7440   61.6380   13.1660 O   0  0  0  0  0  0
   82.8210   61.0390   14.1640 N   0  0  0  0  0  0
   81.9760   61.5740   13.0840 C   0  0  2  0  0  0
   80.8150   62.3110   13.6990 C   0  0  0  0  0  0
   80.3740   61.9710   14.7880 O   0  0  0  0  0  0
   81.4360   60.4680   12.1470 C   0  0  0  0  0  0
   80.5650   59.4420   12.9000 C   0  0  0  0  0  0
   80.0250   58.3830   11.9250 C   0  0  0  0  0  0
   81.1890   57.6780   11.2140 C   0  0  0  0  0  0
   82.0370   58.7020   10.4450 C   0  0  0  0  0  0
   82.5920   59.7570   11.4140 C   0  0  0  0  0  0
   80.2370   63.3380   13.0430 N   0  0  0  0  0  0
   79.1010   64.0950   13.5670 C   0  0  2  0  0  0
   77.9000   63.1990   13.7150 C   0  0  0  0  0  0
   77.6800   62.3530   12.8670 O   0  0  0  0  0  0
   78.7790   65.2180   12.5600 C   0  0  0  0  0  0
   80.1110   65.3760   11.7900 C   0  0  0  0  0  0
   80.6010   63.9090   11.7250 C   0  0  0  0  0  0
   77.0900   63.3290   14.7910 N   0  0  0  0  0  0
   75.9540   62.5380   14.9390 C   0  0  0  0  0  0
   75.1410   62.3450   16.0470 C   0  0  0  0  0  0
   74.1190   61.5340   15.8360 N   0  0  0  0  0  0
   73.9390   61.0260   14.6770 N   0  0  0  0  0  0
   75.1950   61.6040   13.6970 S   0  0  0  0  0  0
   75.3560   62.9310   17.3950 C   0  0  0  0  0  0
   74.2920   63.5580   18.0620 C   0  0  0  0  0  0
   74.4800   64.0880   19.3310 C   0  0  0  0  0  0
   75.7220   63.9880   19.9460 C   0  0  0  0  0  0
   76.7740   63.3600   19.2950 C   0  0  0  0  0  0
   76.5990   62.8290   18.0250 C   0  0  0  0  0  0
   86.9866   60.1559   15.6832 H   0  0  0  0  0  0
   86.7048   61.1927   14.2436 H   0  0  0  0  0  0
   87.5033   58.9738   13.6101 H   0  0  0  0  0  0
   85.8294   59.2651   13.0268 H   0  0  0  0  0  0
   86.1113   58.2283   14.4664 H   0  0  0  0  0  0
   84.5490   59.6064   15.5752 H   0  0  0  0  0  0
   85.6043   61.1795   17.2275 H   0  0  0  0  0  0
   83.9855   61.7822   16.7345 H   0  0  0  0  0  0
   85.4685   62.5188   16.0382 H   0  0  0  0  0  0
   82.3576   60.5560   15.0369 H   0  0  0  0  0  0
   82.6220   62.2562   12.5120 H   0  0  0  0  0  0
   80.7934   60.9595   11.4016 H   0  0  0  0  0  0
   81.1699   58.9440   13.6721 H   0  0  0  0  0  0
   79.7176   59.9585   13.3746 H   0  0  0  0  0  0
   79.4375   57.6379   12.4815 H   0  0  0  0  0  0
   79.3844   58.8686   11.1742 H   0  0  0  0  0  0
   81.8214   57.1726   11.9587 H   0  0  0  0  0  0
   80.7909   56.9355   10.5067 H   0  0  0  0  0  0
   82.8746   58.1875    9.9512 H   0  0  0  0  0  0
   81.4137   59.1988    9.6869 H   0  0  0  0  0  0
   83.1755   60.4962   10.8456 H   0  0  0  0  0  0
   83.2436   59.2627   12.1495 H   0  0  0  0  0  0
   79.3791   64.4758   14.5608 H   0  0  0  0  0  0
   77.9480   64.9023   11.9121 H   0  0  0  0  0  0
   78.4926   66.1290   13.1059 H   0  0  0  0  0  0
   79.9128   65.8140   10.8006 H   0  0  0  0  0  0
   80.7851   66.0365   12.3551 H   0  0  0  0  0  0
   81.6904   63.8460   11.5864 H   0  0  0  0  0  0
   80.0966   63.3428   10.9281 H   0  0  0  0  0  0
   77.3241   64.0703   15.5692 H   0  0  0  0  0  0
   73.3158   63.6289   17.5823 H   0  0  0  0  0  0
   73.6548   64.5818   19.8442 H   0  0  0  0  0  0
   75.8702   64.4040   20.9425 H   0  0  0  0  0  0
   77.7448   63.2832   19.7846 H   0  0  0  0  0  0
   77.4286   62.3338   17.5204 H   0  0  0  0  0  0
  1  2  1  0  0  0
  1  3  1  0  0  0
  1 36  1  0  0  0
  1 37  1  0  0  0
  2 38  1  0  0  0
  2 39  1  0  0  0
  2 40  1  0  0  0
  3  4  1  0  0  0
  3  5  1  0  0  0
  3 41  1  0  0  0
  4 42  1  0  0  0
  4 43  1  0  0  0
  4 44  1  0  0  0
  5  6  2  0  0  0
  5  7  1  0  0  0
  7  8  1  0  0  0
  7 45  1  0  0  0
  8  9  1  0  0  0
  8 11  1  0  0  0
  8 46  1  0  0  0
  9 10  2  0  0  0
  9 17  1  0  0  0
 11 12  1  0  0  0
 11 16  1  0  0  0
 11 47  1  0  0  0
 12 13  1  0  0  0
 12 48  1  0  0  0
 12 49  1  0  0  0
 13 14  1  0  0  0
 13 50  1  0  0  0
 13 51  1  0  0  0
 14 15  1  0  0  0
 14 52  1  0  0  0
 14 53  1  0  0  0
 15 16  1  0  0  0
 15 54  1  0  0  0
 15 55  1  0  0  0
 16 56  1  0  0  0
 16 57  1  0  0  0
 17 18  1  0  0  0
 17 23  1  0  0  0
 18 19  1  0  0  0
 18 21  1  0  0  0
 18 58  1  0  0  0
 19 20  2  0  0  0
 19 24  1  0  0  0
 21 22  1  0  0  0
 21 59  1  0  0  0
 21 60  1  0  0  0
 22 23  1  0  0  0
 22 61  1  0  0  0
 22 62  1  0  0  0
 23 63  1  0  0  0
 23 64  1  0  0  0
 24 25  1  0  0  0
 24 65  1  0  0  0
 25 26  2  0  0  0
 25 29  1  0  0  0
 26 27  1  0  0  0
 26 30  1  0  0  0
 27 28  2  0  0  0
 28 29  1  0  0  0
 30 31  2  0  0  0
 30 35  1  0  0  0
 31 32  1  0  0  0
 31 66  1  0  0  0
 32 33  2  0  0  0
 32 67  1  0  0  0
 33 34  1  0  0  0
 33 68  1  0  0  0
 34 35  2  0  0  0
 34 69  1  0  0  0
 35 70  1  0  0  0
M  CHG  1   1   1
M  END
> <s_m_source_file>
../3uw5_ligand.sdf

> <i_m_source_file_index>
1

> <s_epik_input>
W0NIMl0xW0NIMl1bQ0gyXVtDSDJdW0NIMl1bQ0hdMVtDQEhdKFtOSF1DKD1PKVtDQEhdKFtDSDNdKVtOSDIrXVtDSDNdKUMoPU8pTjJbQ0BASF0oW0NIMl1bQ0gyXVtDSDJdMilDKD1PKVtOSF1jM2Mobm5zMyktYzRbY0hdW2NIXVtjSF1bY0hdW2NIXTQ=

> <s_epik_cmdline>
J2VwaWtfYXBwJywgJy1pbWFlJywgJ2xpZ2FuZF9wcm8ubWFlJywgJy1vbWFlJywgJ2xpZ2FuZF9wcmVwLm1hZScsICctbXMnLCAnMScsICctcGgnLCAnNycsICctcGh0JywgJzAuNScsICctbnQn

> <r_lp_tautomer_probability>
1

> <r_epik_Ionization_Penalty>
  0.0823

> <r_epik_Ionization_Penalty_Charging>
  0.0823

> <r_epik_Ionization_Penalty_Neutral>
  0.0000

> <r_epik_State_Penalty>
  0.0730

> <r_epik_Charging_Adjusted_Penalty>
0.155271230921312

> <i_epik_Tot_Q>
1

> <i_epik_Tot_abs_Q>
1

$$$$
