3uw9_ligand
                    3D
 Schrodinger Suite 2020-3.
 88 87  0  0  1  0            999 V2000
   42.2550    8.2900   46.6020 O   0  0  0  0  0  0
   41.6840    7.3630   47.1820 C   0  0  0  0  0  0
   40.5960    7.6100   48.1990 C   0  0  0  0  0  0
   42.2890    6.2120   47.0890 N   0  0  0  0  0  0
   41.9330    4.8270   47.2220 C   0  0  0  0  0  0
   42.6390    4.4150   45.8930 C   0  0  0  0  0  0
   42.4850    3.0150   45.2650 C   0  0  0  0  0  0
   41.0710    2.5330   45.0990 C   0  0  0  0  0  0
   41.0840    1.1120   44.5330 C   0  0  1  0  0  0
   41.1410    0.0790   45.6470 N   0  3  0  0  0  0
   39.9030    0.9870   43.5520 C   0  0  0  0  0  0
   40.1180    0.6450   42.3920 O   0  0  0  0  0  0
   38.6700    1.2570   43.9830 N   0  0  0  0  0  0
   37.5730    1.1450   43.0180 C   0  0  0  0  0  0
   36.3150    0.3780   43.3570 C   0  0  0  0  0  0
   36.0350    0.0930   44.5090 O   0  0  0  0  0  0
   35.5260    0.0900   42.3200 N   0  0  0  0  0  0
   34.2150   -0.5230   42.4840 C   0  0  2  0  0  0
   34.3190   -1.9250   43.0870 C   0  0  0  0  0  0
   33.3940   -2.3650   43.7900 O   0  0  0  0  0  0
   33.4810   -0.5600   41.1480 C   0  0  0  0  0  0
   32.9880    0.8310   40.7500 C   0  0  0  0  0  0
   32.4910    0.8480   39.3040 C   0  0  0  0  0  0
   31.9040    1.3190   41.7180 C   0  0  0  0  0  0
   35.4520   -2.5880   42.8320 N   0  0  0  0  0  0
   35.7710   -3.9010   43.4140 C   0  0  0  0  0  0
   35.2450   -5.0640   42.5800 C   0  0  0  0  0  0
   34.4280   -5.8500   43.0690 O   0  0  0  0  0  0
   29.4780   -6.1550   35.3310 O   0  0  0  0  0  0
   30.6110   -5.6800   35.3030 C   0  0  0  0  0  0
   30.9750   -4.7490   34.1720 C   0  0  0  0  0  0
   31.5190   -5.9160   36.2820 N   0  0  0  0  0  0
   32.8670   -5.3220   36.3810 C   0  0  0  0  0  0
   33.7180   -5.9900   37.5030 C   0  0  0  0  0  0
   33.3040   -5.6390   38.9550 C   0  0  0  0  0  0
   34.0580   -6.5250   39.9870 C   0  0  0  0  0  0
   35.5240   -6.0380   40.1400 C   0  0  1  0  0  0
   35.7050   -5.1810   41.3280 N   0  0  0  0  0  0
   36.5610   -7.2090   40.0840 C   0  0  0  0  0  0
   37.7702   -6.9688   39.8236 O   0  5  0  0  0  0
   36.1865   -8.3926   40.2995 O   0  0  0  0  0  0
   40.2289    8.6422   48.0998 H   0  0  0  0  0  0
   40.9994    7.4600   49.2113 H   0  0  0  0  0  0
   39.7670    6.9078   48.0269 H   0  0  0  0  0  0
   43.3241    6.4928   46.8445 H   0  0  0  0  0  0
   42.3601    4.4265   48.1532 H   0  0  0  0  0  0
   40.8376    4.7310   47.2500 H   0  0  0  0  0  0
   42.3064    5.0777   45.0804 H   0  0  0  0  0  0
   43.7288    4.5022   46.0144 H   0  0  0  0  0  0
   42.9339    3.0122   44.2608 H   0  0  0  0  0  0
   42.9942    2.2719   45.8963 H   0  0  0  0  0  0
   40.5657    2.5354   46.0761 H   0  0  0  0  0  0
   40.5351    3.1998   44.4075 H   0  0  0  0  0  0
   42.0034    0.8993   43.9678 H   0  0  0  0  0  0
   42.0213    0.2691   46.2786 H   0  0  0  0  0  0
   41.2138   -0.9278   45.2100 H   0  0  0  0  0  0
   40.2291    0.1483   46.2583 H   0  0  0  0  0  0
   38.4611    1.5548   45.0211 H   0  0  0  0  0  0
   37.2011    2.1494   42.7674 H   0  0  0  0  0  0
   37.9366    0.6504   42.1052 H   0  0  0  0  0  0
   35.8978    0.3323   41.3135 H   0  0  0  0  0  0
   33.6786    0.1276   43.1905 H   0  0  0  0  0  0
   34.1613   -0.9284   40.3660 H   0  0  0  0  0  0
   32.6130   -1.2313   41.2249 H   0  0  0  0  0  0
   33.8396    1.5245   40.8126 H   0  0  0  0  0  0
   33.2907    0.4932   38.6372 H   0  0  0  0  0  0
   32.2094    1.8741   39.0251 H   0  0  0  0  0  0
   31.6154    0.1889   39.2095 H   0  0  0  0  0  0
   32.2930    1.2944   42.7466 H   0  0  0  0  0  0
   31.0236    0.6638   41.6431 H   0  0  0  0  0  0
   31.6176    2.3490   41.4588 H   0  0  0  0  0  0
   36.1634   -2.1020   42.1481 H   0  0  0  0  0  0
   36.8626   -4.0119   43.4922 H   0  0  0  0  0  0
   35.3220   -3.9771   44.4153 H   0  0  0  0  0  0
   30.1289   -4.6727   33.4732 H   0  0  0  0  0  0
   31.8545   -5.1429   33.6415 H   0  0  0  0  0  0
   31.2068   -3.7530   34.5772 H   0  0  0  0  0  0
   31.1715   -6.6225   37.0502 H   0  0  0  0  0  0
   33.3959   -5.4517   35.4253 H   0  0  0  0  0  0
   32.7793   -4.2494   36.6088 H   0  0  0  0  0  0
   33.6451   -7.0841   37.4162 H   0  0  0  0  0  0
   34.7691   -5.6830   37.3979 H   0  0  0  0  0  0
   33.5415   -4.5846   39.1593 H   0  0  0  0  0  0
   32.2230   -5.8017   39.0776 H   0  0  0  0  0  0
   33.5535   -6.4617   40.9624 H   0  0  0  0  0  0
   34.0593   -7.5695   39.6419 H   0  0  0  0  0  0
   35.7356   -5.3545   39.3046 H   0  0  0  0  0  0
   36.4142   -4.3408   41.2971 H   0  0  0  0  0  0
  1  2  2  0  0  0
  2  3  1  0  0  0
  2  4  1  0  0  0
  3 42  1  0  0  0
  3 43  1  0  0  0
  3 44  1  0  0  0
  4  5  1  0  0  0
  4 45  1  0  0  0
  5  6  1  0  0  0
  5 46  1  0  0  0
  5 47  1  0  0  0
  6  7  1  0  0  0
  6 48  1  0  0  0
  6 49  1  0  0  0
  7  8  1  0  0  0
  7 50  1  0  0  0
  7 51  1  0  0  0
  8  9  1  0  0  0
  8 52  1  0  0  0
  8 53  1  0  0  0
  9 10  1  0  0  0
  9 11  1  0  0  0
  9 54  1  0  0  0
 10 55  1  0  0  0
 10 56  1  0  0  0
 10 57  1  0  0  0
 11 12  2  0  0  0
 11 13  1  0  0  0
 13 14  1  0  0  0
 13 58  1  0  0  0
 14 15  1  0  0  0
 14 59  1  0  0  0
 14 60  1  0  0  0
 15 16  2  0  0  0
 15 17  1  0  0  0
 17 18  1  0  0  0
 17 61  1  0  0  0
 18 19  1  0  0  0
 18 21  1  0  0  0
 18 62  1  0  0  0
 19 20  2  0  0  0
 19 25  1  0  0  0
 21 22  1  0  0  0
 21 63  1  0  0  0
 21 64  1  0  0  0
 22 23  1  0  0  0
 22 24  1  0  0  0
 22 65  1  0  0  0
 23 66  1  0  0  0
 23 67  1  0  0  0
 23 68  1  0  0  0
 24 69  1  0  0  0
 24 70  1  0  0  0
 24 71  1  0  0  0
 25 26  1  0  0  0
 25 72  1  0  0  0
 26 27  1  0  0  0
 26 73  1  0  0  0
 26 74  1  0  0  0
 27 28  2  0  0  0
 27 38  1  0  0  0
 29 30  2  0  0  0
 30 31  1  0  0  0
 30 32  1  0  0  0
 31 75  1  0  0  0
 31 76  1  0  0  0
 31 77  1  0  0  0
 32 33  1  0  0  0
 32 78  1  0  0  0
 33 34  1  0  0  0
 33 79  1  0  0  0
 33 80  1  0  0  0
 34 35  1  0  0  0
 34 81  1  0  0  0
 34 82  1  0  0  0
 35 36  1  0  0  0
 35 83  1  0  0  0
 35 84  1  0  0  0
 36 37  1  0  0  0
 36 85  1  0  0  0
 36 86  1  0  0  0
 37 38  1  0  0  0
 37 39  1  0  0  0
 37 87  1  0  0  0
 38 88  1  0  0  0
 39 40  1  0  0  0
 39 41  2  0  0  0
M  CHG  2  10   1  40  -1
M  END
> <s_m_source_file>
../3uw9_ligand.sdf

> <i_m_source_file_index>
1

> <s_epik_input>
Tz1DKFtDSDNdKVtOSF1bQ0gyXVtDSDJdW0NIMl1bQ0gyXVtDQEBIXShbTkgzK10pQyg9TylbTkhdW0NIMl1DKD1PKVtOSF1bQ0BASF0oW0NIMl1bQ0hdKFtDSDNdKVtDSDNdKUMoPU8pW05IXVtDSDJdQyg9TylbTkhdW0NAQEhdKEMoPU8pW09IXSlbQ0gyXVtDSDJdW0NIMl1bQ0gyXVtOSF1DKD1PKVtDSDNd

> <s_epik_cmdline>
J2VwaWtfYXBwJywgJy1pbWFlJywgJ2xpZ2FuZF9wcm8ubWFlJywgJy1vbWFlJywgJ2xpZ2FuZF9wcmVwLm1hZScsICctbXMnLCAnMScsICctcGgnLCAnNycsICctcGh0JywgJzAuNScsICctbnQn

> <r_epik_Ionization_Penalty>
  0.1065

> <r_epik_Ionization_Penalty_Charging>
  0.1064

> <r_epik_Ionization_Penalty_Neutral>
  0.0000

> <r_epik_State_Penalty>
  0.0961

> <r_epik_Charging_Adjusted_Penalty>
0.202579884207749

> <i_epik_Tot_Q>
0

> <i_epik_Tot_abs_Q>
2

$$$$
