3uwk_ligand
                    3D
 Schrodinger Suite 2020-3.
 28 30  0  0  1  0            999 V2000
   16.5520    2.6110   -9.5450 O   0  0  0  0  0  0
   17.2900    3.2170   -8.6710 C   0  0  0  0  0  0
   18.6020    3.2700   -8.7580 N   0  0  0  0  0  0
   19.4170    2.6980   -9.8430 C   0  0  0  0  0  0
   19.0010    3.9400   -7.6670 C   0  0  0  0  0  0
   20.2620    4.3710   -7.2320 C   0  0  0  0  0  0
   20.2830    5.0910   -6.0460 C   0  0  0  0  0  0
   19.1060    5.4100   -5.3900 C   0  0  0  0  0  0
   17.9150    5.0540   -5.8480 N   0  0  0  0  0  0
   17.8410    4.3210   -6.9810 C   0  0  0  0  0  0
   16.7840    3.8150   -7.5970 N   0  0  0  0  0  0
   21.5330    5.6310   -5.4530 C   0  0  0  0  0  0
   22.4470    6.2830   -6.2990 C   0  0  0  0  0  0
   23.6130    6.8280   -5.7650 C   0  0  0  0  0  0
   23.8310    6.7530   -4.3850 C   0  0  0  0  0  0
   22.9150    6.1470   -3.5350 C   0  0  0  0  0  0
   21.7460    5.5840   -4.0660 C   0  0  0  0  0  0
   18.7589    2.2150  -10.5803 H   0  0  0  0  0  0
   20.1106    1.9526   -9.4267 H   0  0  0  0  0  0
   19.9902    3.4992  -10.3324 H   0  0  0  0  0  0
   21.1716    4.1536   -7.7919 H   0  0  0  0  0  0
   19.1616    5.9762   -4.4603 H   0  0  0  0  0  0
   15.6992    3.7948   -7.4161 H   0  0  0  0  0  0
   22.2447    6.3618   -7.3672 H   0  0  0  0  0  0
   24.3461    7.3067   -6.4143 H   0  0  0  0  0  0
   24.7422    7.1807   -3.9667 H   0  0  0  0  0  0
   23.1037    6.1094   -2.4621 H   0  0  0  0  0  0
   21.0118    5.1157   -3.4104 H   0  0  0  0  0  0
  1  2  2  0  0  0
  2  3  1  0  0  0
  2 11  1  0  0  0
  3  4  1  0  0  0
  3  5  1  0  0  0
  4 18  1  0  0  0
  4 19  1  0  0  0
  4 20  1  0  0  0
  5  6  2  0  0  0
  5 10  1  0  0  0
  6  7  1  0  0  0
  6 21  1  0  0  0
  7  8  2  0  0  0
  7 12  1  0  0  0
  8  9  1  0  0  0
  8 22  1  0  0  0
  9 10  2  0  0  0
 10 11  1  0  0  0
 11 23  1  0  0  0
 12 13  2  0  0  0
 12 17  1  0  0  0
 13 14  1  0  0  0
 13 24  1  0  0  0
 14 15  2  0  0  0
 14 25  1  0  0  0
 15 16  1  0  0  0
 15 26  1  0  0  0
 16 17  2  0  0  0
 16 27  1  0  0  0
 17 28  1  0  0  0
M  END
> <s_m_source_file>
../3uwk_ligand.sdf

> <i_m_source_file_index>
1

> <s_epik_input>
W0NIM11uMWMoPU8pW25IXWMoYzEyKW5bY0hdYyhbY0hdMiktYzNbY0hdW2NIXVtjSF1bY0hdW2NIXTM=

> <s_epik_cmdline>
J2VwaWtfYXBwJywgJy1pbWFlJywgJ2xpZ2FuZF9wcm8ubWFlJywgJy1vbWFlJywgJ2xpZ2FuZF9wcmVwLm1hZScsICctbXMnLCAnMScsICctcGgnLCAnNycsICctcGh0JywgJzAuNScsICctbnQn

> <r_lp_tautomer_probability>
1

> <r_epik_Ionization_Penalty>
  0.0004

> <r_epik_Ionization_Penalty_Charging>
  0.0004

> <r_epik_Ionization_Penalty_Neutral>
  0.0000

> <r_epik_State_Penalty>
 -0.0000

> <r_epik_Charging_Adjusted_Penalty>
0.000397573731808483

> <i_epik_Tot_Q>
0

> <i_epik_Tot_abs_Q>
0

$$$$
