3uwl_ligand
                    3D
 Schrodinger Suite 2020-3.
 55 57  0  0  1  0            999 V2000
   51.3140  -17.4710   26.6290 C   0  0  0  0  0  0
   51.6600  -17.4060   25.3430 N   0  0  0  0  0  0
   51.8750  -16.7650   27.4480 O   0  0  0  0  0  0
   45.4100  -17.8730   31.9970 N   0  0  0  0  0  0
   52.8830  -15.0680   22.8810 O   0  5  0  0  0  0
   45.2120  -16.8120   31.1920 C   0  0  0  0  0  0
   51.5120  -16.7110   22.7690 O   0  0  0  0  0  0
   44.8970  -16.9290   29.8710 N   0  0  0  0  0  0
   43.7070  -21.8460   28.0480 O   0  0  0  0  0  0
   44.7510  -18.1420   29.2730 C   0  0  0  0  0  0
   44.4580  -18.2730   28.0510 O   0  0  0  0  0  0
   44.8840  -20.6340   29.5410 N   0  0  0  0  0  0
   45.6680  -21.6510   30.2810 C   0  0  2  0  0  0
   45.4660  -21.5660   31.8000 C   0  0  0  0  0  0
   45.4890  -20.2040   32.3350 N   0  0  0  0  0  0
   47.1690  -21.4350   29.9490 C   0  0  0  0  0  0
   52.6280  -16.4260   24.8270 C   0  0  1  0  0  0
   54.0860  -16.8590   24.9330 C   0  0  0  0  0  0
   55.7090  -18.7150   24.5840 C   0  0  0  0  0  0
   54.2850  -18.2550   24.3430 C   0  0  0  0  0  0
   52.3420  -16.0540   23.3920 C   0  0  0  0  0  0
   47.4250  -21.1540   28.5280 N   0  0  0  0  0  0
   50.2490  -18.4380   27.1150 C   0  0  0  0  0  0
   49.4330  -19.1510   26.2200 C   0  0  0  0  0  0
   48.4750  -20.0620   26.6930 C   0  0  0  0  0  0
   48.3560  -20.2760   28.0740 C   0  0  0  0  0  0
   49.1820  -19.5750   28.9750 C   0  0  0  0  0  0
   50.1250  -18.6670   28.5000 C   0  0  0  0  0  0
   44.9270  -19.3470   30.1210 C   0  0  0  0  0  0
   45.2770  -19.1310   31.5440 C   0  0  0  0  0  0
   45.3440  -15.5780   31.7110 N   0  0  0  0  0  0
   55.9310  -19.3600   25.6330 O   0  0  0  0  0  0
   56.6000  -18.4560   23.7390 O   0  5  0  0  0  0
   43.6550  -21.0310   28.9640 C   0  0  0  0  0  0
   51.1882  -18.1261   24.6582 H   0  0  0  0  0  0
   44.7536  -16.0271   29.2578 H   0  0  0  0  0  0
   45.2863  -22.6280   29.9497 H   0  0  0  0  0  0
   44.4903  -21.9994   32.0649 H   0  0  0  0  0  0
   46.2656  -22.1249   32.3081 H   0  0  0  0  0  0
   45.6824  -20.0365   33.4048 H   0  0  0  0  0  0
   47.5530  -20.5810   30.5263 H   0  0  0  0  0  0
   47.7365  -22.3400   30.2115 H   0  0  0  0  0  0
   52.4601  -15.5692   25.4961 H   0  0  0  0  0  0
   54.7203  -16.1488   24.3823 H   0  0  0  0  0  0
   54.3875  -16.8760   25.9907 H   0  0  0  0  0  0
   53.5890  -18.9586   24.8231 H   0  0  0  0  0  0
   54.0897  -18.2270   23.2608 H   0  0  0  0  0  0
   46.8423  -21.6711   27.7514 H   0  0  0  0  0  0
   49.5451  -18.9951   25.1470 H   0  0  0  0  0  0
   47.8311  -20.5968   25.9949 H   0  0  0  0  0  0
   49.0825  -19.7440   30.0472 H   0  0  0  0  0  0
   50.7677  -18.1330   29.2000 H   0  0  0  0  0  0
   45.5977  -15.4527   32.7740 H   0  0  0  0  0  0
   45.1983  -14.6943   31.0724 H   0  0  0  0  0  0
   42.6822  -20.6434   29.3008 H   0  0  0  0  0  0
  1  2  1  0  0  0
  1  3  2  0  0  0
  1 23  1  0  0  0
  2 17  1  0  0  0
  2 35  1  0  0  0
  4  6  2  0  0  0
  4 30  1  0  0  0
  5 21  1  0  0  0
  6  8  1  0  0  0
  6 31  1  0  0  0
  7 21  2  0  0  0
  8 10  1  0  0  0
  8 36  1  0  0  0
  9 34  2  0  0  0
 10 11  2  0  0  0
 10 29  1  0  0  0
 12 13  1  0  0  0
 12 29  1  0  0  0
 12 34  1  0  0  0
 13 14  1  0  0  0
 13 16  1  0  0  0
 13 37  1  0  0  0
 14 15  1  0  0  0
 14 38  1  0  0  0
 14 39  1  0  0  0
 15 30  1  0  0  0
 15 40  1  0  0  0
 16 22  1  0  0  0
 16 41  1  0  0  0
 16 42  1  0  0  0
 17 18  1  0  0  0
 17 21  1  0  0  0
 17 43  1  0  0  0
 18 20  1  0  0  0
 18 44  1  0  0  0
 18 45  1  0  0  0
 19 20  1  0  0  0
 19 32  2  0  0  0
 19 33  1  0  0  0
 20 46  1  0  0  0
 20 47  1  0  0  0
 22 26  1  0  0  0
 22 48  1  0  0  0
 23 24  2  0  0  0
 23 28  1  0  0  0
 24 25  1  0  0  0
 24 49  1  0  0  0
 25 26  2  0  0  0
 25 50  1  0  0  0
 26 27  1  0  0  0
 27 28  2  0  0  0
 27 51  1  0  0  0
 28 52  1  0  0  0
 29 30  2  0  0  0
 31 53  1  0  0  0
 31 54  1  0  0  0
 34 55  1  0  0  0
M  CHG  2   5  -1  33  -1
M  END
> <s_m_source_file>
../3uwl_ligand.sdf

> <i_m_source_file_index>
1

> <s_epik_input>
Tz1DKFtPSF0pW0NIMl1bQ0gyXVtDQEBIXShDKD1PKVtPSF0pW05IXUMoPU8pYzFbY0hdW2NIXWMoW2NIXVtjSF0xKVtOSF1bQ0gyXVtDQEhdKE4yW0NIXT1PKVtDSDJdW05IXWMoYzIzKW5jKFtOSDJdKVtuSF1jMz1P

> <s_epik_cmdline>
J2VwaWtfYXBwJywgJy1pbWFlJywgJ2xpZ2FuZF9wcm8ubWFlJywgJy1vbWFlJywgJ2xpZ2FuZF9wcmVwLm1hZScsICctbXMnLCAnMScsICctcGgnLCAnNycsICctcGh0JywgJzAuNScsICctbnQn

> <r_lp_tautomer_probability>
1

> <r_epik_Ionization_Penalty>
  0.0066

> <r_epik_Ionization_Penalty_Charging>
  0.0063

> <r_epik_Ionization_Penalty_Neutral>
  0.0003

> <r_epik_State_Penalty>
 -0.0000

> <r_epik_Charging_Adjusted_Penalty>
0.0062622500722746

> <i_epik_Tot_Q>
-2

> <i_epik_Tot_abs_Q>
2

$$$$
