3ux0_ligand
                    3D
 Schrodinger Suite 2020-3.
113112  0  0  1  0            999 V2000
   33.4700   -6.0040   14.6480 N   0  3  0  0  0  0
   32.7640   -6.8280   13.6180 C   0  0  2  0  0  0
   31.4210   -7.3040   14.1710 C   0  0  0  0  0  0
   31.2650   -7.5220   15.3910 O   0  0  0  0  0  0
   33.6160   -8.0350   13.1990 C   0  0  0  0  0  0
   30.4460   -7.4470   13.2830 N   0  0  0  0  0  0
   29.2040   -8.0730   13.6820 C   0  0  2  0  0  0
   29.2780   -9.5450   13.2810 C   0  0  0  0  0  0
   29.7580   -9.8720   12.1860 O   0  0  0  0  0  0
   28.0420   -7.3780   13.0090 C   0  0  0  0  0  0
   26.6940   -8.0310   13.2890 C   0  0  0  0  0  0
   25.5780   -7.1300   12.8040 C   0  0  0  0  0  0
   24.3340   -7.8850   12.6630 N   0  0  0  0  0  0
   23.4680   -8.1190   13.6430 C   0  0  0  0  0  0
   23.6650   -7.6290   14.8740 N   0  0  0  0  0  0
   22.3820   -8.8340   13.3890 N   0  3  0  0  0  0
   28.8160  -10.4260   14.1700 N   0  0  0  0  0  0
   28.7860  -11.8860   13.8840 C   0  0  2  0  0  0
   28.0640  -12.1610   12.5590 C   0  0  0  0  0  0
   27.1790  -11.3780   12.1290 O   0  0  0  0  0  0
   28.1870  -12.6760   15.0540 C   0  0  0  0  0  0
   26.6380  -12.7050   15.1740 C   0  0  0  0  0  0
   25.9410  -11.3160   15.0770 C   0  0  0  0  0  0
   24.5060  -11.5460   15.0980 N   0  0  0  0  0  0
   23.7580  -11.7890   14.0240 C   0  0  0  0  0  0
   24.3130  -11.8770   12.8190 N   0  3  0  0  0  0
   22.4420  -12.0080   14.1700 N   0  0  0  0  0  0
   28.4680  -13.2580   11.9180 N   0  0  0  0  0  0
   27.9870  -13.6420   10.6090 C   0  0  2  0  0  0
   26.8100  -14.5790   10.7130 C   0  0  0  0  0  0
   26.8120  -15.4800   11.5470 O   0  0  0  0  0  0
   29.0740  -14.3690    9.8310 C   0  0  0  0  0  0
   30.4140  -13.5940    9.7670 C   0  0  0  0  0  0
   30.1840  -12.1790    9.1760 C   0  0  0  0  0  0
   31.4900  -11.3660    9.0860 C   0  0  0  0  0  0
   32.3850  -11.9620    8.0810 N   0  3  0  0  0  0
   25.8160  -14.3620    9.8350 N   0  0  0  0  0  0
   24.7600  -15.3850    9.6340 C   0  0  1  0  0  0
   23.4360  -14.9830   10.3080 C   0  0  0  0  0  0
   23.0930  -13.7050    9.8010 O   0  0  0  0  0  0
   24.6100  -15.4600    8.1070 C   0  0  0  0  0  0
   25.1860  -14.6170    7.3640 O   0  0  0  0  0  0
   21.6060  -13.2470   10.2370 P   0  0  0  0  0  0
   21.4570  -11.9160    9.3840 O   0  5  0  0  0  0
   20.5240  -14.3070    9.7710 O   0  5  0  0  0  0
   21.4810  -12.9510   11.7480 O   0  0  0  0  0  0
   23.8780  -16.4550    7.5980 N   0  0  0  0  0  0
   23.7720  -16.5950    6.1300 C   0  0  2  0  0  0
   22.4090  -17.0650    5.6950 C   0  0  0  0  0  0
   22.0190  -16.9300    4.5080 O   0  5  0  0  0  0
   24.8800  -17.5480    5.5660 C   0  0  0  0  0  0
   24.5410  -19.0030    5.9230 C   0  0  0  0  0  0
   25.0300  -17.3860    4.0400 C   0  0  0  0  0  0
   21.6400  -17.6240    6.5050 O   0  0  0  0  0  0
   32.8384   -5.1484   14.9290 H   0  0  0  0  0  0
   34.4214   -5.6375   14.2352 H   0  0  0  0  0  0
   33.6693   -6.6203   15.5371 H   0  0  0  0  0  0
   32.6023   -6.1819   12.7425 H   0  0  0  0  0  0
   34.5799   -7.6834   12.8025 H   0  0  0  0  0  0
   33.0862   -8.6058   12.4221 H   0  0  0  0  0  0
   33.7921   -8.6803   14.0722 H   0  0  0  0  0  0
   30.5766   -7.0936   12.2495 H   0  0  0  0  0  0
   29.0902   -7.9614   14.7704 H   0  0  0  0  0  0
   27.9823   -6.3380   13.3623 H   0  0  0  0  0  0
   28.1907   -7.3870   11.9191 H   0  0  0  0  0  0
   26.6376   -8.9956   12.7632 H   0  0  0  0  0  0
   26.5843   -8.1962   14.3710 H   0  0  0  0  0  0
   25.4221   -6.3171   13.5284 H   0  0  0  0  0  0
   25.8494   -6.7035   11.8271 H   0  0  0  0  0  0
   24.0558   -8.3093   11.6870 H   0  0  0  0  0  0
   24.5645   -7.0345   15.0919 H   0  0  0  0  0  0
   22.9273   -7.8211   15.6670 H   0  0  0  0  0  0
   22.2139   -9.2394   12.3804 H   0  0  0  0  0  0
   28.4509  -10.0472   15.1360 H   0  0  0  0  0  0
   29.8329  -12.2063   13.7778 H   0  0  0  0  0  0
   28.4951  -13.7294   14.9810 H   0  0  0  0  0  0
   28.5467  -12.2538   16.0039 H   0  0  0  0  0  0
   26.2192  -13.3232   14.3663 H   0  0  0  0  0  0
   26.3535  -13.1315   16.1472 H   0  0  0  0  0  0
   26.2434  -10.6935   15.9320 H   0  0  0  0  0  0
   26.2377  -10.8215   14.1403 H   0  0  0  0  0  0
   23.9597  -11.5261   16.0526 H   0  0  0  0  0  0
   25.3913  -11.6981   12.6957 H   0  0  0  0  0  0
   21.9796  -11.9360   15.1655 H   0  0  0  0  0  0
   21.8258  -12.2595   13.2942 H   0  0  0  0  0  0
   29.2074  -13.8848   12.4379 H   0  0  0  0  0  0
   27.6967  -12.6915   10.1375 H   0  0  0  0  0  0
   29.2782  -15.3398   10.3063 H   0  0  0  0  0  0
   28.7383  -14.5309    8.7961 H   0  0  0  0  0  0
   30.8310  -13.4984   10.7804 H   0  0  0  0  0  0
   31.1236  -14.1407    9.1286 H   0  0  0  0  0  0
   29.7669  -12.2685    8.1621 H   0  0  0  0  0  0
   29.4801  -11.6249    9.8144 H   0  0  0  0  0  0
   31.2581  -10.3306    8.7958 H   0  0  0  0  0  0
   31.9918  -11.3687   10.0649 H   0  0  0  0  0  0
   33.3139  -11.3757    8.0236 H   0  0  0  0  0  0
   31.8881  -11.9588    7.0996 H   0  0  0  0  0  0
   32.6218  -12.9970    8.3687 H   0  0  0  0  0  0
   25.7869  -13.4221    9.2643 H   0  0  0  0  0  0
   25.0554  -16.3391   10.0948 H   0  0  0  0  0  0
   22.6600  -15.7228   10.0621 H   0  0  0  0  0  0
   23.5758  -14.9469   11.3985 H   0  0  0  0  0  0
   23.3576  -17.1654    8.2572 H   0  0  0  0  0  0
   23.8913  -15.5680    5.7546 H   0  0  0  0  0  0
   25.8499  -17.2938    6.0184 H   0  0  0  0  0  0
   24.4381  -19.0984    7.0140 H   0  0  0  0  0  0
   25.3469  -19.6641    5.5715 H   0  0  0  0  0  0
   23.5953  -19.2884    5.4392 H   0  0  0  0  0  0
   25.2723  -16.3392    3.8045 H   0  0  0  0  0  0
   24.0866  -17.6638    3.5473 H   0  0  0  0  0  0
   25.8382  -18.0394    3.6796 H   0  0  0  0  0  0
   21.6484   -9.0222   14.1867 H   0  0  0  0  0  0
   23.6938  -12.1287   11.9453 H   0  0  0  0  0  0
  1  2  1  0  0  0
  1 55  1  0  0  0
  1 56  1  0  0  0
  1 57  1  0  0  0
  2  3  1  0  0  0
  2  5  1  0  0  0
  2 58  1  0  0  0
  3  4  2  0  0  0
  3  6  1  0  0  0
  5 59  1  0  0  0
  5 60  1  0  0  0
  5 61  1  0  0  0
  6  7  1  0  0  0
  6 62  1  0  0  0
  7  8  1  0  0  0
  7 10  1  0  0  0
  7 63  1  0  0  0
  8  9  2  0  0  0
  8 17  1  0  0  0
 10 11  1  0  0  0
 10 64  1  0  0  0
 10 65  1  0  0  0
 11 12  1  0  0  0
 11 66  1  0  0  0
 11 67  1  0  0  0
 12 13  1  0  0  0
 12 68  1  0  0  0
 12 69  1  0  0  0
 13 14  1  0  0  0
 13 70  1  0  0  0
 14 15  1  0  0  0
 14 16  2  0  0  0
 15 71  1  0  0  0
 15 72  1  0  0  0
 16 73  1  0  0  0
 16112  1  0  0  0
 17 18  1  0  0  0
 17 74  1  0  0  0
 18 19  1  0  0  0
 18 21  1  0  0  0
 18 75  1  0  0  0
 19 20  2  0  0  0
 19 28  1  0  0  0
 21 22  1  0  0  0
 21 76  1  0  0  0
 21 77  1  0  0  0
 22 23  1  0  0  0
 22 78  1  0  0  0
 22 79  1  0  0  0
 23 24  1  0  0  0
 23 80  1  0  0  0
 23 81  1  0  0  0
 24 25  1  0  0  0
 24 82  1  0  0  0
 25 26  2  0  0  0
 25 27  1  0  0  0
 26 83  1  0  0  0
 26113  1  0  0  0
 27 84  1  0  0  0
 27 85  1  0  0  0
 28 29  1  0  0  0
 28 86  1  0  0  0
 29 30  1  0  0  0
 29 32  1  0  0  0
 29 87  1  0  0  0
 30 31  2  0  0  0
 30 37  1  0  0  0
 32 33  1  0  0  0
 32 88  1  0  0  0
 32 89  1  0  0  0
 33 34  1  0  0  0
 33 90  1  0  0  0
 33 91  1  0  0  0
 34 35  1  0  0  0
 34 92  1  0  0  0
 34 93  1  0  0  0
 35 36  1  0  0  0
 35 94  1  0  0  0
 35 95  1  0  0  0
 36 96  1  0  0  0
 36 97  1  0  0  0
 36 98  1  0  0  0
 37 38  1  0  0  0
 37 99  1  0  0  0
 38 39  1  0  0  0
 38 41  1  0  0  0
 38100  1  0  0  0
 39 40  1  0  0  0
 39101  1  0  0  0
 39102  1  0  0  0
 40 43  1  0  0  0
 41 42  2  0  0  0
 41 47  1  0  0  0
 43 44  1  0  0  0
 43 45  1  0  0  0
 43 46  2  0  0  0
 47 48  1  0  0  0
 47103  1  0  0  0
 48 49  1  0  0  0
 48 51  1  0  0  0
 48104  1  0  0  0
 49 50  1  0  0  0
 49 54  2  0  0  0
 51 52  1  0  0  0
 51 53  1  0  0  0
 51105  1  0  0  0
 52106  1  0  0  0
 52107  1  0  0  0
 52108  1  0  0  0
 53109  1  0  0  0
 53110  1  0  0  0
 53111  1  0  0  0
M  CHG  7   1   1  16   1  26   1  36   1  44  -1  45  -1  50  -1
M  END
> <s_m_source_file>
../3ux0_ligand.sdf

> <i_m_source_file_index>
1

> <s_epik_input>
W0hdL049QyhbTkgyXSlcW05IXVtDSDJdW0NIMl1bQ0gyXVtDQEhdKFtOSF1DKD1PKVtDQEBIXShbTkgzK10pW0NIM10pQyg9TylbTkhdW0NAQEhdKFtDSDJdW0NIMl1bQ0gyXVtOSF0vQyg9TlxbSF0pW05IMl0pQyg9TylbTkhdW0NAQEhdKFtDSDJdW0NIMl1bQ0gyXVtDSDJdW05IMytdKUMoPU8pW05IXVtDQEBIXShbQ0gyXU9QKD1PKShbT0hdKVtPSF0pQyg9TylbTkhdW0NASF0oQyg9TylbT0hdKVtDSF0oW0NIM10pW0NIM10=

> <s_epik_cmdline>
J2VwaWtfYXBwJywgJy1pbWFlJywgJ2xpZ2FuZF9wcm8ubWFlJywgJy1vbWFlJywgJ2xpZ2FuZF9wcmVwLm1hZScsICctbXMnLCAnMScsICctcGgnLCAnNycsICctcGh0JywgJzAuNScsICctbnQn

> <r_epik_Ionization_Penalty>
  0.2176

> <r_epik_Ionization_Penalty_Charging>
  0.2176

> <r_epik_Ionization_Penalty_Neutral>
  0.0000

> <r_epik_State_Penalty>
  0.1831

> <r_epik_Charging_Adjusted_Penalty>
0.40061546071748

> <i_epik_Tot_Q>
1

> <i_epik_Tot_abs_Q>
7

> <s_epik_Chemistry_Notes>
This compound has an imine and may undergo hydrolysis.

$$$$
