3uxd_ligand
                    3D
 Schrodinger Suite 2020-3.
 14 15  0  0  1  0            999 V2000
    8.5550   -0.9930    9.0210 C   0  0  0  0  0  0
    9.5340   -1.4190    8.2540 N   0  0  0  0  0  0
   10.6120   -1.0900    8.7570 N   0  3  0  0  0  0
   10.4700   -0.4670    9.8150 N   0  0  0  0  0  0
    9.1830   -0.3480   10.0640 C   0  0  0  0  0  0
    8.4560    0.2500   11.0660 C   0  0  0  0  0  0
    7.0940    0.1330   10.9720 C   0  0  0  0  0  0
    6.1480    0.8410   12.1700 Cl  0  0  0  0  0  0
    6.4240   -0.4970    9.9360 C   0  0  0  0  0  0
    7.1750   -1.0790    8.9420 C   0  0  0  0  0  0
    6.3910   -1.8970    7.6300 Cl  0  0  0  0  0  0
    8.9042    0.7977   11.9081 H   0  0  0  0  0  0
    5.3257   -0.5406    9.8926 H   0  0  0  0  0  0
   11.4699   -1.3336    8.3046 H   0  0  0  0  0  0
  1  2  2  0  0  0
  1  5  1  0  0  0
  1 10  1  0  0  0
  2  3  1  0  0  0
  3  4  1  0  0  0
  3 14  1  0  0  0
  4  5  2  0  0  0
  5  6  1  0  0  0
  6  7  2  0  0  0
  6 12  1  0  0  0
  7  8  1  0  0  0
  7  9  1  0  0  0
  9 10  2  0  0  0
  9 13  1  0  0  0
 10 11  1  0  0  0
M  CHG  1   3   1
M  END
> <s_m_source_file>
../3uxd_ligand.sdf

> <i_m_source_file_index>
1

> <s_epik_input>
bjFbbkhdbmMoYzEyKVtjSF1jKENsKVtjSF1jMkNs

> <s_epik_cmdline>
J2VwaWtfYXBwJywgJy1pbWFlJywgJ2xpZ2FuZF9wcm8ubWFlJywgJy1vbWFlJywgJ2xpZ2FuZF9wcmVwLm1hZScsICctbXMnLCAnMScsICctcGgnLCAnNycsICctcGh0JywgJzAuNScsICctbnQn

> <r_epik_Ionization_Penalty>
  0.0000

> <r_epik_Ionization_Penalty_Charging>
  0.0000

> <r_epik_Ionization_Penalty_Neutral>
  0.0000

> <r_epik_State_Penalty>
  0.0097

> <r_epik_Charging_Adjusted_Penalty>
0.00966095605437264

> <i_epik_Tot_Q>
1

> <i_epik_Tot_abs_Q>
1

> <s_epik_Chemistry_Notes>
This compound has an imine and may undergo hydrolysis.

$$$$
