3uxg_ligand
                    3D
 Schrodinger Suite 2020-3.
247251  0  0  1  0            999 V2000
    4.1880   40.5910   24.0660 N   0  3  0  0  0  0
    4.0240   41.1060   22.6860 C   0  0  2  0  0  0
    3.9280   39.9790   21.6530 C   0  0  0  0  0  0
    4.9560   39.3950   21.3100 O   0  0  0  0  0  0
    5.3140   41.9250   22.4650 C   0  0  0  0  0  0
    6.3620   41.3090   23.4460 C   0  0  0  0  0  0
    5.6080   40.4210   24.4460 C   0  0  0  0  0  0
    2.7120   39.6590   21.1980 N   0  0  0  0  0  0
    2.5010   38.6040   20.1860 C   0  0  2  0  0  0
    1.9180   39.2000   18.8990 C   0  0  0  0  0  0
    0.8110   39.7330   18.8660 O   0  0  0  0  0  0
    1.5810   37.4790   20.6830 C   0  0  0  0  0  0
    2.1420   36.4990   21.7190 C   0  0  0  0  0  0
    1.0200   35.6410   22.3310 C   0  0  0  0  0  0
    3.2400   35.6280   21.1070 C   0  0  0  0  0  0
    2.6760   39.1040   17.8310 N   0  0  0  0  0  0
    2.2380   39.6230   16.5480 C   0  0  2  0  0  0
    1.2320   38.6540   15.9090 C   0  0  0  0  0  0
    1.3730   37.4240   16.0250 O   0  0  0  0  0  0
    3.4520   39.8360   15.6200 C   0  0  0  0  0  0
    4.2630   41.0860   15.9050 C   0  0  0  0  0  0
    4.3050   41.6670   17.1870 C   0  0  0  0  0  0
    5.0030   41.6840   14.8880 C   0  0  0  0  0  0
    5.0420   42.8150   17.4190 C   0  0  0  0  0  0
    5.7470   42.8350   15.1150 C   0  0  0  0  0  0
    5.7460   43.3920   16.3770 C   0  0  0  0  0  0
    6.4780   44.4960   16.5850 O   0  0  0  0  0  0
    0.2320   39.2240   15.2310 N   0  0  0  0  0  0
   -0.8190   38.4670   14.5400 C   0  0  2  0  0  0
   -0.2720   37.6480   13.3790 C   0  0  0  0  0  0
    0.7780   37.9780   12.8250 O   0  0  0  0  0  0
   -1.9130   39.4310   13.9910 C   0  0  2  0  0  0
   -1.2860   40.4500   13.1650 O   0  0  0  0  0  0
   -2.6560   40.0530   15.1450 C   0  0  0  0  0  0
   -0.9540   36.5550   13.0200 N   0  0  0  0  0  0
   -0.4430   35.6820   11.9550 C   0  0  2  0  0  0
   -0.3070   36.3350   10.5890 C   0  0  0  0  0  0
   -1.0640   37.2640   10.2130 O   0  0  0  0  0  0
   -1.2910   34.4040   11.7930 C   0  0  0  0  0  0
   -1.2490   33.6110   12.9650 O   0  0  0  0  0  0
    0.6530   35.8510    9.8060 N   0  0  0  0  0  0
    0.6640   36.2100    8.3770 C   0  0  2  0  0  0
   -0.7290   35.9770    7.7700 C   0  0  0  0  0  0
   -1.3720   34.9540    8.0410 O   0  0  0  0  0  0
    1.6770   35.2460    7.7810 C   0  0  0  0  0  0
    2.5450   34.8430    8.9190 C   0  0  0  0  0  0
    1.7020   34.8910   10.1550 C   0  0  0  0  0  0
   -1.2140   36.9590    7.0320 N   0  0  0  0  0  0
   -2.5460   36.9120    6.4720 C   0  0  2  0  0  0
   -2.5110   37.4000    5.0270 C   0  0  0  0  0  0
   -1.7110   38.2590    4.6780 O   0  0  0  0  0  0
   -3.4740   37.8030    7.2900 C   0  0  0  0  0  0
   -3.0230   39.1350    7.2220 O   0  0  0  0  0  0
   -3.3550   36.8010    4.1900 N   0  0  0  0  0  0
   -3.5330   37.2200    2.7770 C   0  0  2  0  0  0
   -4.9450   37.7610    2.6470 C   0  0  0  0  0  0
   -5.9130   37.1330    3.1390 O   0  0  0  0  0  0
   -3.2640   36.0520    1.7950 C   0  0  0  0  0  0
   -1.8040   35.5550    1.7490 C   0  0  0  0  0  0
   -1.6510   34.2890    0.8920 C   0  0  0  0  0  0
   -0.7960   36.6200    1.2610 C   0  0  0  0  0  0
   -5.0950   38.9440    2.0220 N   0  0  0  0  0  0
   -6.3950   39.5820    1.9970 C   0  0  2  0  0  0
   -7.3350   38.9890    0.9620 C   0  0  0  0  0  0
   -6.8890   38.2890    0.0550 O   0  0  0  0  0  0
   -6.0440   41.0100    1.6050 C   0  0  0  0  0  0
   -4.8270   40.8340    0.7510 C   0  0  0  0  0  0
   -4.0550   39.8510    1.5010 C   0  0  0  0  0  0
   -8.6300   39.2890    1.1030 N   0  0  0  0  0  0
   -9.6240   38.8900    0.1040 C   0  0  2  0  0  0
   -9.5430   39.9090   -1.0350 C   0  0  0  0  0  0
   -9.9960   41.0410   -0.8990 O   0  0  0  0  0  0
  -11.0340   38.8880    0.6890 C   0  0  0  0  0  0
  -12.1170   38.5780   -0.3790 C   0  0  0  0  0  0
  -11.8230   38.4510   -1.5770 O   0  0  0  0  0  0
  -13.3480   38.4580    0.0550 N   0  0  0  0  0  0
   -8.9720   39.5110   -2.1550 N   0  0  0  0  0  0
   -8.5700   40.4980   -3.1690 C   0  0  2  0  0  0
   -9.7490   41.0360   -4.0090 C   0  0  0  0  0  0
   -9.6310   42.0860   -4.6580 O   0  0  0  0  0  0
   -7.4960   39.9460   -4.0960 C   0  0  2  0  0  0
   -8.0250   38.7550   -4.8900 C   0  0  0  0  0  0
   -6.1910   39.5840   -3.3070 C   0  0  0  0  0  0
   -6.9440   38.1590   -5.8440 C   0  0  0  0  0  0
  -10.8860   40.3530   -3.9710 N   0  0  0  0  0  0
  -12.0710   40.8250   -4.7030 C   0  0  2  0  0  0
  -13.1690   41.3470   -3.7770 C   0  0  0  0  0  0
  -14.3070   41.5540   -4.2070 O   0  0  0  0  0  0
  -12.6100   39.7140   -5.6160 C   0  0  2  0  0  0
  -12.8750   38.5410   -4.8230 O   0  0  0  0  0  0
  -11.5580   39.4100   -6.7160 C   0  0  0  0  0  0
  -12.8150   41.6130   -2.5190 N   0  0  0  0  0  0
  -13.7660   42.1970   -1.5670 C   0  0  2  0  0  0
  -14.3560   43.4830   -2.1390 C   0  0  0  0  0  0
  -13.6170   44.3720   -2.5760 O   0  0  0  0  0  0
  -13.0830   42.5010   -0.2480 C   0  0  0  0  0  0
  -13.9860   43.0740    0.8460 C   0  0  0  0  0  0
  -15.0520   42.0420    1.2270 C   0  0  0  0  0  0
  -13.1360   43.5070    2.0470 C   0  0  0  0  0  0
  -15.6840   43.5620   -2.1420 N   0  0  0  0  0  0
  -16.4000   44.7150   -2.6810 C   0  0  0  0  0  0
  -16.4920   44.7750   -4.1990 C   0  0  0  0  0  0
  -17.1110   45.6820   -4.7320 O   0  0  0  0  0  0
  -15.8880   43.8210   -4.9060 N   0  0  0  0  0  0
  -15.9290   43.8460   -6.3680 C   0  0  2  0  0  0
  -16.9990   42.9110   -6.9310 C   0  0  0  0  0  0
  -17.3590   41.9290   -6.2790 O   0  0  0  0  0  0
  -14.5570   43.4920   -6.9620 C   0  0  0  0  0  0
  -13.4460   44.5290   -6.7860 C   0  0  0  0  0  0
  -12.2030   44.0440   -7.5230 C   0  0  0  0  0  0
  -13.8810   45.9450   -7.2710 C   0  0  0  0  0  0
  -17.5110   43.2220   -8.1460 N   0  0  0  0  0  0
  -18.3670   42.2860   -8.8930 C   0  0  2  0  0  0
  -17.7930   40.8580   -8.9960 C   0  0  0  0  0  0
  -18.5690   39.9050   -9.0090 O   0  0  0  0  0  0
  -18.4850   42.9410  -10.2760 C   0  0  0  0  0  0
  -18.3600   44.4220   -9.9910 C   0  0  0  0  0  0
  -17.4780   44.5640   -8.7740 C   0  0  0  0  0  0
  -16.5710   40.5920   -9.0270 O   0  0  0  0  0  0
    3.7306   41.2949   24.7768 H   0  0  0  0  0  0
    3.6960   39.6110   24.1525 H   0  0  0  0  0  0
    3.0862   41.6743   22.5990 H   0  0  0  0  0  0
    5.6348   41.8282   21.4173 H   0  0  0  0  0  0
    5.1199   42.9835   22.6927 H   0  0  0  0  0  0
    7.0885   40.7099   22.8775 H   0  0  0  0  0  0
    6.8877   42.1171   23.9757 H   0  0  0  0  0  0
    5.7512   40.7501   25.4858 H   0  0  0  0  0  0
    5.8875   39.3610   24.3551 H   0  0  0  0  0  0
    1.8519   40.2119   21.6037 H   0  0  0  0  0  0
    3.5071   38.1944   20.0131 H   0  0  0  0  0  0
    0.6892   37.9165   21.1556 H   0  0  0  0  0  0
    1.2750   36.8527   19.8321 H   0  0  0  0  0  0
    2.5997   37.0850   22.5296 H   0  0  0  0  0  0
    0.2493   36.2977   22.7609 H   0  0  0  0  0  0
    1.4381   35.0001   23.1212 H   0  0  0  0  0  0
    0.5709   35.0121   21.5482 H   0  0  0  0  0  0
    4.0233   36.2716   20.6801 H   0  0  0  0  0  0
    2.8096   34.9990   20.3138 H   0  0  0  0  0  0
    3.6768   34.9869   21.8869 H   0  0  0  0  0  0
    3.6593   38.6194   17.9216 H   0  0  0  0  0  0
    1.7504   40.5854   16.7624 H   0  0  0  0  0  0
    4.1410   38.9839   15.7161 H   0  0  0  0  0  0
    3.1079   39.9136   14.5781 H   0  0  0  0  0  0
    3.7510   41.2075   18.0055 H   0  0  0  0  0  0
    4.9983   41.2395   13.8928 H   0  0  0  0  0  0
    5.0677   43.2606   18.4134 H   0  0  0  0  0  0
    6.3222   43.2906   14.3090 H   0  0  0  0  0  0
    6.4975   44.9635   17.5805 H   0  0  0  0  0  0
    0.2234   40.3237   15.2078 H   0  0  0  0  0  0
   -1.2010   37.7833   15.3124 H   0  0  0  0  0  0
   -2.6410   38.9271   13.3382 H   0  0  0  0  0  0
   -0.7034   40.1579   12.2789 H   0  0  0  0  0  0
   -3.1195   39.2614   15.7520 H   0  0  0  0  0  0
   -3.4374   40.7241   14.7589 H   0  0  0  0  0  0
   -1.9534   40.6276   15.7664 H   0  0  0  0  0  0
   -1.9002   36.3106   13.5249 H   0  0  0  0  0  0
    0.5677   35.4770   12.3376 H   0  0  0  0  0  0
   -2.3367   34.6807   11.5934 H   0  0  0  0  0  0
   -0.9022   33.8100   10.9528 H   0  0  0  0  0  0
   -1.8053   32.6630   13.0078 H   0  0  0  0  0  0
    0.9295   37.2664    8.2236 H   0  0  0  0  0  0
    1.1507   34.3828    7.3476 H   0  0  0  0  0  0
    2.2516   35.7576    6.9948 H   0  0  0  0  0  0
    2.9245   33.8248    8.7480 H   0  0  0  0  0  0
    3.3913   35.5410    8.9998 H   0  0  0  0  0  0
    2.2581   35.2577   11.0304 H   0  0  0  0  0  0
    1.2453   33.9187   10.3917 H   0  0  0  0  0  0
   -0.5705   37.8320    6.8480 H   0  0  0  0  0  0
   -2.8693   35.8617    6.5213 H   0  0  0  0  0  0
   -4.4946   37.7395    6.8846 H   0  0  0  0  0  0
   -3.4742   37.4682    8.3378 H   0  0  0  0  0  0
   -3.5690   39.9283    7.7535 H   0  0  0  0  0  0
   -3.9362   35.9575    4.5909 H   0  0  0  0  0  0
   -2.8033   38.0110    2.5494 H   0  0  0  0  0  0
   -3.8806   35.1860    2.0776 H   0  0  0  0  0  0
   -3.5200   36.3663    0.7724 H   0  0  0  0  0  0
   -1.5631   35.3165    2.7955 H   0  0  0  0  0  0
   -2.3659   33.5261    1.2340 H   0  0  0  0  0  0
   -0.6262   33.9014    0.9902 H   0  0  0  0  0  0
   -1.8513   34.5331   -0.1617 H   0  0  0  0  0  0
   -0.9000   37.5298    1.8705 H   0  0  0  0  0  0
   -0.9978   36.8600    0.2066 H   0  0  0  0  0  0
    0.2272   36.2283    1.3585 H   0  0  0  0  0  0
   -6.8887   39.4452    2.9704 H   0  0  0  0  0  0
   -6.8856   41.4568    1.0554 H   0  0  0  0  0  0
   -5.8433   41.6002    2.5113 H   0  0  0  0  0  0
   -5.1264   40.4729   -0.2440 H   0  0  0  0  0  0
   -4.3073   41.7982    0.6500 H   0  0  0  0  0  0
   -3.5032   40.2973    2.3414 H   0  0  0  0  0  0
   -3.3590   39.2841    0.8652 H   0  0  0  0  0  0
   -8.9424   39.8497    1.9963 H   0  0  0  0  0  0
   -9.3818   37.8663   -0.2177 H   0  0  0  0  0  0
  -11.1035   38.1222    1.4756 H   0  0  0  0  0  0
  -11.2540   39.8763    1.1190 H   0  0  0  0  0  0
  -13.5677   38.5779    1.1261 H   0  0  0  0  0  0
  -14.1614   38.2374   -0.6519 H   0  0  0  0  0  0
   -8.7964   38.4394   -2.3306 H   0  0  0  0  0  0
   -8.1573   41.3128   -2.5560 H   0  0  0  0  0  0
   -7.2607   40.7364   -4.8240 H   0  0  0  0  0  0
   -8.3429   37.9634   -4.1955 H   0  0  0  0  0  0
   -8.8828   39.0733   -5.5006 H   0  0  0  0  0  0
   -5.8429   40.4662   -2.7496 H   0  0  0  0  0  0
   -5.4111   39.2660   -4.0145 H   0  0  0  0  0  0
   -6.4032   38.7658   -2.6031 H   0  0  0  0  0  0
   -7.3697   37.3062   -6.3931 H   0  0  0  0  0  0
   -6.0802   37.8203   -5.2532 H   0  0  0  0  0  0
   -6.6200   38.9302   -6.5583 H   0  0  0  0  0  0
  -10.9362   39.4243   -3.3836 H   0  0  0  0  0  0
  -11.7089   41.6751   -5.2999 H   0  0  0  0  0  0
  -13.5804   39.9818   -6.0595 H   0  0  0  0  0  0
  -13.6003   38.5876   -3.9973 H   0  0  0  0  0  0
  -11.3726   40.3189   -7.3072 H   0  0  0  0  0  0
  -11.9361   38.6146   -7.3751 H   0  0  0  0  0  0
  -10.6198   39.0811   -6.2452 H   0  0  0  0  0  0
  -11.7870   41.3858   -2.2002 H   0  0  0  0  0  0
  -14.5503   41.4412   -1.4130 H   0  0  0  0  0  0
  -12.6486   41.5771    0.1614 H   0  0  0  0  0  0
  -12.2852   43.2408   -0.4101 H   0  0  0  0  0  0
  -14.5095   43.9671    0.4741 H   0  0  0  0  0  0
  -15.6313   41.7663    0.3335 H   0  0  0  0  0  0
  -15.7258   42.4726    1.9824 H   0  0  0  0  0  0
  -14.5644   41.1461    1.6387 H   0  0  0  0  0  0
  -12.3891   44.2455    1.7203 H   0  0  0  0  0  0
  -12.6240   42.6297    2.4691 H   0  0  0  0  0  0
  -13.7854   43.9563    2.8128 H   0  0  0  0  0  0
  -16.2443   42.7158   -1.7176 H   0  0  0  0  0  0
  -17.4343   44.7122   -2.3064 H   0  0  0  0  0  0
  -15.8973   45.6403   -2.3629 H   0  0  0  0  0  0
  -15.3564   43.0114   -4.3845 H   0  0  0  0  0  0
  -16.2001   44.8845   -6.6090 H   0  0  0  0  0  0
  -14.1822   42.5694   -6.4948 H   0  0  0  0  0  0
  -14.6554   43.3398   -8.0470 H   0  0  0  0  0  0
  -13.2136   44.6103   -5.7139 H   0  0  0  0  0  0
  -11.9258   43.0447   -7.1562 H   0  0  0  0  0  0
  -11.3736   44.7438   -7.3430 H   0  0  0  0  0  0
  -12.4126   43.9935   -8.6017 H   0  0  0  0  0  0
  -14.7783   46.2619   -6.7192 H   0  0  0  0  0  0
  -14.1054   45.9110   -8.3473 H   0  0  0  0  0  0
  -13.0663   46.6613   -7.0887 H   0  0  0  0  0  0
  -19.3199   42.1676   -8.3563 H   0  0  0  0  0  0
  -17.6767   42.5741  -10.9256 H   0  0  0  0  0  0
  -19.4578   42.6851  -10.7211 H   0  0  0  0  0  0
  -17.9092   44.9256  -10.8588 H   0  0  0  0  0  0
  -19.3576   44.8441   -9.7996 H   0  0  0  0  0  0
  -17.8674   45.3100   -8.0656 H   0  0  0  0  0  0
  -16.4418   44.8183   -9.0415 H   0  0  0  0  0  0
  -16.2374   39.5464   -9.1015 H   0  0  0  0  0  0
  1  2  1  0  0  0
  1  7  1  0  0  0
  1120  1  0  0  0
  1121  1  0  0  0
  2  3  1  0  0  0
  2  5  1  0  0  0
  2122  1  0  0  0
  3  4  2  0  0  0
  3  8  1  0  0  0
  5  6  1  0  0  0
  5123  1  0  0  0
  5124  1  0  0  0
  6  7  1  0  0  0
  6125  1  0  0  0
  6126  1  0  0  0
  7127  1  0  0  0
  7128  1  0  0  0
  8  9  1  0  0  0
  8129  1  0  0  0
  9 10  1  0  0  0
  9 12  1  0  0  0
  9130  1  0  0  0
 10 11  2  0  0  0
 10 16  1  0  0  0
 12 13  1  0  0  0
 12131  1  0  0  0
 12132  1  0  0  0
 13 14  1  0  0  0
 13 15  1  0  0  0
 13133  1  0  0  0
 14134  1  0  0  0
 14135  1  0  0  0
 14136  1  0  0  0
 15137  1  0  0  0
 15138  1  0  0  0
 15139  1  0  0  0
 16 17  1  0  0  0
 16140  1  0  0  0
 17 18  1  0  0  0
 17 20  1  0  0  0
 17141  1  0  0  0
 18 19  2  0  0  0
 18 28  1  0  0  0
 20 21  1  0  0  0
 20142  1  0  0  0
 20143  1  0  0  0
 21 22  2  0  0  0
 21 23  1  0  0  0
 22 24  1  0  0  0
 22144  1  0  0  0
 23 25  2  0  0  0
 23145  1  0  0  0
 24 26  2  0  0  0
 24146  1  0  0  0
 25 26  1  0  0  0
 25147  1  0  0  0
 26 27  1  0  0  0
 27148  1  0  0  0
 28 29  1  0  0  0
 28149  1  0  0  0
 29 30  1  0  0  0
 29 32  1  0  0  0
 29150  1  0  0  0
 30 31  2  0  0  0
 30 35  1  0  0  0
 32 33  1  0  0  0
 32 34  1  0  0  0
 32151  1  0  0  0
 33152  1  0  0  0
 34153  1  0  0  0
 34154  1  0  0  0
 34155  1  0  0  0
 35 36  1  0  0  0
 35156  1  0  0  0
 36 37  1  0  0  0
 36 39  1  0  0  0
 36157  1  0  0  0
 37 38  2  0  0  0
 37 41  1  0  0  0
 39 40  1  0  0  0
 39158  1  0  0  0
 39159  1  0  0  0
 40160  1  0  0  0
 41 42  1  0  0  0
 41 47  1  0  0  0
 42 43  1  0  0  0
 42 45  1  0  0  0
 42161  1  0  0  0
 43 44  2  0  0  0
 43 48  1  0  0  0
 45 46  1  0  0  0
 45162  1  0  0  0
 45163  1  0  0  0
 46 47  1  0  0  0
 46164  1  0  0  0
 46165  1  0  0  0
 47166  1  0  0  0
 47167  1  0  0  0
 48 49  1  0  0  0
 48168  1  0  0  0
 49 50  1  0  0  0
 49 52  1  0  0  0
 49169  1  0  0  0
 50 51  2  0  0  0
 50 54  1  0  0  0
 52 53  1  0  0  0
 52170  1  0  0  0
 52171  1  0  0  0
 53172  1  0  0  0
 54 55  1  0  0  0
 54173  1  0  0  0
 55 56  1  0  0  0
 55 58  1  0  0  0
 55174  1  0  0  0
 56 57  2  0  0  0
 56 62  1  0  0  0
 58 59  1  0  0  0
 58175  1  0  0  0
 58176  1  0  0  0
 59 60  1  0  0  0
 59 61  1  0  0  0
 59177  1  0  0  0
 60178  1  0  0  0
 60179  1  0  0  0
 60180  1  0  0  0
 61181  1  0  0  0
 61182  1  0  0  0
 61183  1  0  0  0
 62 63  1  0  0  0
 62 68  1  0  0  0
 63 64  1  0  0  0
 63 66  1  0  0  0
 63184  1  0  0  0
 64 65  2  0  0  0
 64 69  1  0  0  0
 66 67  1  0  0  0
 66185  1  0  0  0
 66186  1  0  0  0
 67 68  1  0  0  0
 67187  1  0  0  0
 67188  1  0  0  0
 68189  1  0  0  0
 68190  1  0  0  0
 69 70  1  0  0  0
 69191  1  0  0  0
 70 71  1  0  0  0
 70 73  1  0  0  0
 70192  1  0  0  0
 71 72  2  0  0  0
 71 77  1  0  0  0
 73 74  1  0  0  0
 73193  1  0  0  0
 73194  1  0  0  0
 74 75  2  0  0  0
 74 76  1  0  0  0
 76195  1  0  0  0
 76196  1  0  0  0
 77 78  1  0  0  0
 77197  1  0  0  0
 78 79  1  0  0  0
 78 81  1  0  0  0
 78198  1  0  0  0
 79 80  2  0  0  0
 79 85  1  0  0  0
 81 82  1  0  0  0
 81 83  1  0  0  0
 81199  1  0  0  0
 82 84  1  0  0  0
 82200  1  0  0  0
 82201  1  0  0  0
 83202  1  0  0  0
 83203  1  0  0  0
 83204  1  0  0  0
 84205  1  0  0  0
 84206  1  0  0  0
 84207  1  0  0  0
 85 86  1  0  0  0
 85208  1  0  0  0
 86 87  1  0  0  0
 86 89  1  0  0  0
 86209  1  0  0  0
 87 88  2  0  0  0
 87 92  1  0  0  0
 89 90  1  0  0  0
 89 91  1  0  0  0
 89210  1  0  0  0
 90211  1  0  0  0
 91212  1  0  0  0
 91213  1  0  0  0
 91214  1  0  0  0
 92 93  1  0  0  0
 92215  1  0  0  0
 93 94  1  0  0  0
 93 96  1  0  0  0
 93216  1  0  0  0
 94 95  2  0  0  0
 94100  1  0  0  0
 96 97  1  0  0  0
 96217  1  0  0  0
 96218  1  0  0  0
 97 98  1  0  0  0
 97 99  1  0  0  0
 97219  1  0  0  0
 98220  1  0  0  0
 98221  1  0  0  0
 98222  1  0  0  0
 99223  1  0  0  0
 99224  1  0  0  0
 99225  1  0  0  0
100101  1  0  0  0
100226  1  0  0  0
101102  1  0  0  0
101227  1  0  0  0
101228  1  0  0  0
102103  2  0  0  0
102104  1  0  0  0
104105  1  0  0  0
104229  1  0  0  0
105106  1  0  0  0
105108  1  0  0  0
105230  1  0  0  0
106107  2  0  0  0
106112  1  0  0  0
108109  1  0  0  0
108231  1  0  0  0
108232  1  0  0  0
109110  1  0  0  0
109111  1  0  0  0
109233  1  0  0  0
110234  1  0  0  0
110235  1  0  0  0
110236  1  0  0  0
111237  1  0  0  0
111238  1  0  0  0
111239  1  0  0  0
112113  1  0  0  0
112118  1  0  0  0
113114  1  0  0  0
113116  1  0  0  0
113240  1  0  0  0
114115  2  0  0  0
114119  1  0  0  0
116117  1  0  0  0
116241  1  0  0  0
116242  1  0  0  0
117118  1  0  0  0
117243  1  0  0  0
117244  1  0  0  0
118245  1  0  0  0
118246  1  0  0  0
119247  1  0  0  0
M  CHG  1   1   1
M  END
> <s_m_source_file>
../3uxg_ligand.sdf

> <i_m_source_file_index>
1

> <s_epik_input>
W0NIMl0xW0NIMl1bQ0gyXVtOSDIrXVtDQEBIXTFDKD1PKVtOSF1bQ0BASF0oW0NIMl1bQ0hdKFtDSDNdKVtDSDNdKUMoPU8pW05IXVtDQEBIXShbQ0gyXWMyW2NIXVtjSF1jKFtPSF0pW2NIXVtjSF0yKUMoPU8pW05IXVtDQEBIXShbQ0BIXShbT0hdKVtDSDNdKUMoPU8pW05IXVtDQEBIXShbQ0gyXVtPSF0pQyg9TylOM1tDQEBIXShbQ0gyXVtDSDJdW0NIMl0zKUMoPU8pW05IXVtDQEBIXShbQ0gyXVtPSF0pQyg9TylbTkhdW0NAQEhdKFtDSDJdW0NIXShbQ0gzXSlbQ0gzXSlDKD1PKU40W0NAQEhdKFtDSDJdW0NIMl1bQ0gyXTQpQyg9TylbTkhdW0NAQEhdKFtDSDJdQyg9TylbTkgyXSlDKD1PKVtOSF1bQ0BASF0oW0NAQEhdKFtDSDNdKVtDSDJdW0NIM10pQyg9TylbTkhdW0NAQEhdKFtDQEhdKFtPSF0pW0NIM10pQyg9TylbTkhdW0NAQEhdKFtDSDJdW0NIXShbQ0gzXSlbQ0gzXSlDKD1PKVtOSF1bQ0gyXUMoPU8pW05IXVtDQEBIXShbQ0gyXVtDSF0oW0NIM10pW0NIM10pQyg9TylONVtDQEhdKEMoPU8pW09IXSlbQ0gyXVtDSDJdW0NIMl01

> <s_epik_cmdline>
J2VwaWtfYXBwJywgJy1pbWFlJywgJ2xpZ2FuZF9wcm8ubWFlJywgJy1vbWFlJywgJ2xpZ2FuZF9wcmVwLm1hZScsICctbXMnLCAnMScsICctcGgnLCAnNycsICctcGh0JywgJzAuNScsICctbnQn

> <s_epik_pKa_notes>
Molecule size exceeds maximum supported for generating protonation states

$$$$
