3uxk_ligand
                    3D
 Schrodinger Suite 2020-3.
 17 17  0  0  1  0            999 V2000
   51.7760  -52.3830   17.6340 C   0  0  0  0  0  0
   50.4590  -52.3880   18.1100 C   0  0  0  0  0  0
   49.7080  -51.2100   18.0950 C   0  0  0  0  0  0
   50.2470  -50.0300   17.6140 C   0  0  0  0  0  0
   51.5530  -50.0240   17.1410 C   0  0  0  0  0  0
   52.3080  -51.1920   17.1520 C   0  0  0  0  0  0
   52.5800  -53.6610   17.6540 C   0  0  0  0  0  0
   53.7590  -53.7570   17.3640 O   0  0  0  0  0  0
   51.7400  -54.6900   18.0570 N   0  0  0  0  0  0
   51.8740  -56.0120   18.2600 O   0  0  0  0  0  0
   50.0203  -53.3099   18.4918 H   0  0  0  0  0  0
   48.6836  -51.2207   18.4673 H   0  0  0  0  0  0
   49.6537  -49.1157   17.6063 H   0  0  0  0  0  0
   51.9879  -49.1001   16.7596 H   0  0  0  0  0  0
   53.3314  -51.1736   16.7774 H   0  0  0  0  0  0
   50.7671  -54.2040   18.2220 H   0  0  0  0  0  0
   51.0107  -56.6079   18.5911 H   0  0  0  0  0  0
  1  2  2  0  0  0
  1  6  1  0  0  0
  1  7  1  0  0  0
  2  3  1  0  0  0
  2 11  1  0  0  0
  3  4  2  0  0  0
  3 12  1  0  0  0
  4  5  1  0  0  0
  4 13  1  0  0  0
  5  6  2  0  0  0
  5 14  1  0  0  0
  6 15  1  0  0  0
  7  8  2  0  0  0
  7  9  1  0  0  0
  9 10  1  0  0  0
  9 16  1  0  0  0
 10 17  1  0  0  0
M  END
> <s_m_source_file>
../3uxk_ligand.sdf

> <i_m_source_file_index>
1

> <s_epik_input>
W09IXVtOSF1DKD1PKWMxW2NIXVtjSF1bY0hdW2NIXVtjSF0x

> <s_epik_cmdline>
J2VwaWtfYXBwJywgJy1pbWFlJywgJ2xpZ2FuZF9wcm8ubWFlJywgJy1vbWFlJywgJ2xpZ2FuZF9wcmVwLm1hZScsICctbXMnLCAnMScsICctcGgnLCAnNycsICctcGh0JywgJzAuNScsICctbnQn

> <r_epik_Ionization_Penalty>
  0.0117

> <r_epik_Ionization_Penalty_Charging>
  0.0000

> <r_epik_Ionization_Penalty_Neutral>
  0.0117

> <r_epik_State_Penalty>
  0.0090

> <r_epik_Charging_Adjusted_Penalty>
0.00902257239963355

> <i_epik_Tot_Q>
0

> <i_epik_Tot_abs_Q>
0

> <s_epik_Chemistry_Notes>
This compound has a N-S or N-O group and may undergo hydrolysis at high or low pH.

$$$$
