3uxm_ligand
                    3D
 Schrodinger Suite 2020-3.
 30 31  0  0  1  0            999 V2000
    7.3710    2.2970   16.4310 O   0  0  0  0  0  0
    6.7330    1.3690   16.9880 C   0  0  0  0  0  0
    5.9540    0.5230   16.2800 N   0  0  0  0  0  0
    5.3060   -0.5000   16.8920 C   0  0  0  0  0  0
    4.5900   -1.2910   16.2430 O   0  0  0  0  0  0
    5.4230   -0.6690   18.3660 C   0  0  0  0  0  0
    4.7370   -1.7810   19.1170 C   0  0  0  0  0  0
    6.2230    0.2190   19.0510 C   0  0  0  0  0  0
    6.8420    1.2320   18.3980 N   0  0  0  0  0  0
    7.7090    2.1650   19.1190 C   0  0  1  0  0  0
    7.0890    3.0570   20.2140 C   0  0  0  0  0  0
    8.2150    3.1800   21.2330 C   0  0  2  0  0  0
    8.9960    4.3460   20.9050 O   0  0  0  0  0  0
    8.7000    1.3810   19.7470 O   0  0  0  0  0  0
    9.0880    1.9450   20.9910 C   0  0  2  0  0  0
    9.0310    0.8580   22.0660 C   0  0  0  0  0  0
    7.7270    0.5670   22.3690 F   0  0  0  0  0  0
    5.8392    0.6592   15.1945 H   0  0  0  0  0  0
    4.1452   -2.3868   18.4151 H   0  0  0  0  0  0
    4.0726   -1.3518   19.8814 H   0  0  0  0  0  0
    5.4926   -2.4160   19.6027 H   0  0  0  0  0  0
    6.3590    0.1058   20.1265 H   0  0  0  0  0  0
    8.1017    2.8181   18.3258 H   0  0  0  0  0  0
    6.8040    4.0265   19.7794 H   0  0  0  0  0  0
    6.1967    2.5639   20.6270 H   0  0  0  0  0  0
    7.8704    3.3053   22.2701 H   0  0  0  0  0  0
    8.5566    5.3491   21.0081 H   0  0  0  0  0  0
   10.1355    2.2756   20.9330 H   0  0  0  0  0  0
    9.5280   -0.0506   21.6953 H   0  0  0  0  0  0
    9.5431    1.2120   22.9729 H   0  0  0  0  0  0
  1  2  2  0  0  0
  2  3  1  0  0  0
  2  9  1  0  0  0
  3  4  1  0  0  0
  3 18  1  0  0  0
  4  5  2  0  0  0
  4  6  1  0  0  0
  6  7  1  0  0  0
  6  8  2  0  0  0
  7 19  1  0  0  0
  7 20  1  0  0  0
  7 21  1  0  0  0
  8  9  1  0  0  0
  8 22  1  0  0  0
  9 10  1  0  0  0
 10 11  1  0  0  0
 10 14  1  0  0  0
 10 23  1  0  0  0
 11 12  1  0  0  0
 11 24  1  0  0  0
 11 25  1  0  0  0
 12 13  1  0  0  0
 12 15  1  0  0  0
 12 26  1  0  0  0
 13 27  1  0  0  0
 14 15  1  0  0  0
 15 16  1  0  0  0
 15 28  1  0  0  0
 16 17  1  0  0  0
 16 29  1  0  0  0
 16 30  1  0  0  0
M  END
> <s_m_source_file>
../3uxm_ligand.sdf

> <i_m_source_file_index>
1

> <s_epik_input>
Tz1jMVtuSF1jKD1PKWMoW0NIM10pW2NIXW4xW0NASF0yW0NIMl1bQ0BIXShbT0hdKVtDQEhdKE8yKVtDSDJdRg==

> <s_epik_cmdline>
J2VwaWtfYXBwJywgJy1pbWFlJywgJ2xpZ2FuZF9wcm8ubWFlJywgJy1vbWFlJywgJ2xpZ2FuZF9wcmVwLm1hZScsICctbXMnLCAnMScsICctcGgnLCAnNycsICctcGh0JywgJzAuNScsICctbnQn

> <r_lp_tautomer_probability>
1

> <r_epik_Ionization_Penalty>
  0.0013

> <r_epik_Ionization_Penalty_Charging>
  0.0013

> <r_epik_Ionization_Penalty_Neutral>
  0.0000

> <r_epik_State_Penalty>
 -0.0000

> <r_epik_Charging_Adjusted_Penalty>
0.00128133900611505

> <i_epik_Tot_Q>
0

> <i_epik_Tot_abs_Q>
0

> <s_epik_Chemistry_Notes>
This compound contains an acetal/aminal-like group ( X-CH(R)-Y where X, Y are N, S, or O) that may be acid/base labile, releasing an aldehyde.

$$$$
