3uyr_ligand
                    3D
 Schrodinger Suite 2020-3.
129132  0  0  1  0            999 V2000
   31.6190  -22.8740   34.8810 N   0  3  0  0  0  0
   30.1830  -22.9740   35.1280 C   0  0  2  0  0  0
   29.4450  -21.6370   35.3410 C   0  0  0  0  0  0
   28.2230  -21.6450   35.4610 O   0  0  0  0  0  0
   29.9350  -23.8820   36.3270 C   0  0  0  0  0  0
   30.8470  -25.0940   36.3430 C   0  0  0  0  0  0
   30.5310  -26.0580   37.4650 C   0  0  0  0  0  0
   29.8500  -25.6510   38.4300 O   0  5  0  0  0  0
   30.9720  -27.2230   37.3810 O   0  0  0  0  0  0
   30.1670  -20.4990   35.3780 N   0  0  0  0  0  0
   29.6020  -19.1410   35.4750 C   0  0  2  0  0  0
   28.3820  -18.8770   34.5760 C   0  0  0  0  0  0
   27.2960  -18.6320   35.1010 O   0  0  0  0  0  0
   30.7630  -18.2660   34.9730 C   0  0  0  0  0  0
   31.5750  -19.1640   34.2200 C   0  0  0  0  0  0
   31.5740  -20.4220   34.9680 C   0  0  0  0  0  0
   28.5840  -18.9100   33.2540 N   0  0  0  0  0  0
   27.5850  -18.5030   32.2460 C   0  0  2  0  0  0
   27.7330  -17.0260   31.9030 C   0  0  0  0  0  0
   27.8080  -16.6790   30.7260 O   0  0  0  0  0  0
   26.1390  -18.8180   32.6640 C   0  0  0  0  0  0
   25.8620  -20.3110   32.8030 C   0  0  0  0  0  0
   26.4350  -21.1020   31.6460 C   0  0  0  0  0  0
   25.9310  -21.0350   30.5230 O   0  0  0  0  0  0
   27.5000  -21.8490   31.9080 N   0  0  0  0  0  0
   27.7670  -16.1700   32.9260 N   0  0  0  0  0  0
   28.0530  -14.7450   32.7510 C   0  0  2  0  0  0
   29.1980  -14.3790   33.7090 C   0  0  0  0  0  0
   28.9680  -13.8390   34.7940 O   0  0  0  0  0  0
   26.7790  -13.8830   33.0070 C   0  0  0  0  0  0
   30.4410  -14.7180   33.3140 N   0  0  0  0  0  0
   31.6670  -14.6030   34.1160 C   0  0  2  0  0  0
   31.8890  -13.2210   34.7180 C   0  0  0  0  0  0
   32.2060  -13.1200   35.9020 O   0  0  0  0  0  0
   32.7690  -14.9290   33.1030 C   0  0  0  0  0  0
   32.0960  -15.9220   32.1670 C   0  0  0  0  0  0
   30.7110  -15.3260   32.0010 C   0  0  0  0  0  0
   31.7210  -12.1750   33.9170 N   0  0  0  0  0  0
   31.9930  -10.8200   34.3830 C   0  0  2  0  0  0
   31.1080  -10.4820   35.5900 C   0  0  0  0  0  0
   31.4560   -9.6360   36.4140 O   0  0  0  0  0  0
   31.7710   -9.8100   33.2570 C   0  0  0  0  0  0
   30.3330   -9.6030   32.9450 C   0  0  0  0  0  0
   29.5090   -8.6510   33.4700 C   0  0  0  0  0  0
   29.5330  -10.3730   32.0420 C   0  0  0  0  0  0
   28.2450   -8.7810   32.9520 N   0  3  0  0  0  0
   28.2330   -9.8300   32.0710 C   0  0  0  0  0  0
   29.7900  -11.4690   31.2100 C   0  0  0  0  0  0
   27.1930  -10.3430   31.3020 C   0  0  0  0  0  0
   28.7520  -11.9810   30.4470 C   0  0  0  0  0  0
   27.4690  -11.4160   30.5000 C   0  0  0  0  0  0
   29.9690  -11.1570   35.7020 N   0  0  0  0  0  0
   29.1400  -11.0320   36.8990 C   0  0  2  0  0  0
   29.8250  -11.7300   38.0780 C   0  0  0  0  0  0
   29.1780  -12.1100   39.0570 O   0  0  0  0  0  0
   27.7280  -11.5820   36.6470 C   0  0  0  0  0  0
   26.9750  -10.8140   35.5490 C   0  0  0  0  0  0
   25.2630  -11.3220   35.2710 S   0  0  0  0  0  0
   24.4210  -10.5470   36.6500 C   0  0  0  0  0  0
   31.1440  -11.8870   37.9650 N   0  0  0  0  0  0
   31.9840  -12.4320   39.0230 C   0  0  2  0  0  0
   33.4080  -11.9020   38.8550 C   0  0  0  0  0  0
   33.7357  -11.2435   37.8320 O   0  0  0  0  0  0
   31.9930  -13.9610   38.9690 C   0  0  0  0  0  0
   30.5980  -14.5930   39.0220 C   0  0  0  0  0  0
   30.5390  -15.9700   38.3910 C   0  0  0  0  0  0
   31.5820  -16.4570   37.9060 O   0  0  0  0  0  0
   29.4370  -16.5610   38.3720 O   0  5  0  0  0  0
   34.2649  -12.1266   39.7510 O   0  5  0  0  0  0
   31.7974  -22.2187   34.0157 H   0  0  0  0  0  0
   32.0258  -23.8747   34.6732 H   0  0  0  0  0  0
   32.1152  -22.4534   35.7680 H   0  0  0  0  0  0
   29.8180  -23.4030   34.1832 H   0  0  0  0  0  0
   30.1079  -23.3184   37.2557 H   0  0  0  0  0  0
   28.8961  -24.2428   36.3051 H   0  0  0  0  0  0
   30.7459  -25.6415   35.3943 H   0  0  0  0  0  0
   31.8897  -24.7667   36.4681 H   0  0  0  0  0  0
   29.2533  -18.9901   36.5073 H   0  0  0  0  0  0
   30.3650  -17.4493   34.3528 H   0  0  0  0  0  0
   31.3024  -17.8434   35.8335 H   0  0  0  0  0  0
   31.1434  -19.2951   33.2167 H   0  0  0  0  0  0
   32.5913  -18.7526   34.1310 H   0  0  0  0  0  0
   32.2157  -20.4034   35.8612 H   0  0  0  0  0  0
   31.8256  -21.2993   34.3540 H   0  0  0  0  0  0
   29.5729  -19.2703   32.9341 H   0  0  0  0  0  0
   27.8280  -19.1165   31.3659 H   0  0  0  0  0  0
   25.9285  -18.3504   33.6372 H   0  0  0  0  0  0
   25.4444  -18.4215   31.9088 H   0  0  0  0  0  0
   26.3164  -20.6832   33.7331 H   0  0  0  0  0  0
   24.7756  -20.4813   32.8320 H   0  0  0  0  0  0
   27.9149  -21.8773   32.9263 H   0  0  0  0  0  0
   27.9679  -22.4400   31.1068 H   0  0  0  0  0  0
   27.5696  -16.5720   33.9307 H   0  0  0  0  0  0
   28.3650  -14.5969   31.7066 H   0  0  0  0  0  0
   25.9886  -14.1783   32.3013 H   0  0  0  0  0  0
   27.0207  -12.8196   32.8628 H   0  0  0  0  0  0
   26.4290  -14.0430   34.0375 H   0  0  0  0  0  0
   31.5969  -15.2759   34.9834 H   0  0  0  0  0  0
   33.0781  -14.0074   32.5882 H   0  0  0  0  0  0
   33.6327  -15.3632   33.6278 H   0  0  0  0  0  0
   32.6561  -15.9723   31.2216 H   0  0  0  0  0  0
   32.0802  -16.9163   32.6372 H   0  0  0  0  0  0
   29.9488  -16.0897   31.7869 H   0  0  0  0  0  0
   30.6796  -14.5485   31.2235 H   0  0  0  0  0  0
   31.3710  -12.3428   32.8878 H   0  0  0  0  0  0
   33.0525  -10.8146   34.6788 H   0  0  0  0  0  0
   32.1952   -8.8376   33.5477 H   0  0  0  0  0  0
   32.2656  -10.1668   32.3416 H   0  0  0  0  0  0
   29.9002   -7.9266   34.1996 H   0  0  0  0  0  0
   30.7854  -11.9106   31.1631 H   0  0  0  0  0  0
   26.1951   -9.9059   31.3374 H   0  0  0  0  0  0
   28.9355  -12.8357   29.7959 H   0  0  0  0  0  0
   26.6739  -11.8419   29.8880 H   0  0  0  0  0  0
   29.6524  -11.8159   34.8801 H   0  0  0  0  0  0
   29.0600   -9.9555   37.1107 H   0  0  0  0  0  0
   27.7949  -12.6345   36.3343 H   0  0  0  0  0  0
   27.1364  -11.5111   37.5717 H   0  0  0  0  0  0
   26.9415   -9.7451   35.8064 H   0  0  0  0  0  0
   27.4950  -10.9437   34.5884 H   0  0  0  0  0  0
   23.3471  -10.7803   36.6019 H   0  0  0  0  0  0
   24.5621   -9.4572   36.6001 H   0  0  0  0  0  0
   24.8370  -10.9278   37.5944 H   0  0  0  0  0  0
   31.5935  -11.5793   37.0093 H   0  0  0  0  0  0
   31.5438  -12.0950   39.9731 H   0  0  0  0  0  0
   32.4647  -14.2920   38.0320 H   0  0  0  0  0  0
   32.5612  -14.3548   39.8246 H   0  0  0  0  0  0
   30.2814  -14.6954   40.0705 H   0  0  0  0  0  0
   29.8842  -13.9515   38.4844 H   0  0  0  0  0  0
   27.4473   -8.0931   33.2689 H   0  0  0  0  0  0
  1  2  1  0  0  0
  1 70  1  0  0  0
  1 71  1  0  0  0
  1 72  1  0  0  0
  2  3  1  0  0  0
  2  5  1  0  0  0
  2 73  1  0  0  0
  3  4  2  0  0  0
  3 10  1  0  0  0
  5  6  1  0  0  0
  5 74  1  0  0  0
  5 75  1  0  0  0
  6  7  1  0  0  0
  6 76  1  0  0  0
  6 77  1  0  0  0
  7  8  1  0  0  0
  7  9  2  0  0  0
 10 11  1  0  0  0
 10 16  1  0  0  0
 11 12  1  0  0  0
 11 14  1  0  0  0
 11 78  1  0  0  0
 12 13  2  0  0  0
 12 17  1  0  0  0
 14 15  1  0  0  0
 14 79  1  0  0  0
 14 80  1  0  0  0
 15 16  1  0  0  0
 15 81  1  0  0  0
 15 82  1  0  0  0
 16 83  1  0  0  0
 16 84  1  0  0  0
 17 18  1  0  0  0
 17 85  1  0  0  0
 18 19  1  0  0  0
 18 21  1  0  0  0
 18 86  1  0  0  0
 19 20  2  0  0  0
 19 26  1  0  0  0
 21 22  1  0  0  0
 21 87  1  0  0  0
 21 88  1  0  0  0
 22 23  1  0  0  0
 22 89  1  0  0  0
 22 90  1  0  0  0
 23 24  2  0  0  0
 23 25  1  0  0  0
 25 91  1  0  0  0
 25 92  1  0  0  0
 26 27  1  0  0  0
 26 93  1  0  0  0
 27 28  1  0  0  0
 27 30  1  0  0  0
 27 94  1  0  0  0
 28 29  2  0  0  0
 28 31  1  0  0  0
 30 95  1  0  0  0
 30 96  1  0  0  0
 30 97  1  0  0  0
 31 32  1  0  0  0
 31 37  1  0  0  0
 32 33  1  0  0  0
 32 35  1  0  0  0
 32 98  1  0  0  0
 33 34  2  0  0  0
 33 38  1  0  0  0
 35 36  1  0  0  0
 35 99  1  0  0  0
 35100  1  0  0  0
 36 37  1  0  0  0
 36101  1  0  0  0
 36102  1  0  0  0
 37103  1  0  0  0
 37104  1  0  0  0
 38 39  1  0  0  0
 38105  1  0  0  0
 39 40  1  0  0  0
 39 42  1  0  0  0
 39106  1  0  0  0
 40 41  2  0  0  0
 40 52  1  0  0  0
 42 43  1  0  0  0
 42107  1  0  0  0
 42108  1  0  0  0
 43 44  2  0  0  0
 43 45  1  0  0  0
 44 46  1  0  0  0
 44109  1  0  0  0
 45 47  2  0  0  0
 45 48  1  0  0  0
 46 47  1  0  0  0
 46129  1  0  0  0
 47 49  1  0  0  0
 48 50  2  0  0  0
 48110  1  0  0  0
 49 51  2  0  0  0
 49111  1  0  0  0
 50 51  1  0  0  0
 50112  1  0  0  0
 51113  1  0  0  0
 52 53  1  0  0  0
 52114  1  0  0  0
 53 54  1  0  0  0
 53 56  1  0  0  0
 53115  1  0  0  0
 54 55  2  0  0  0
 54 60  1  0  0  0
 56 57  1  0  0  0
 56116  1  0  0  0
 56117  1  0  0  0
 57 58  1  0  0  0
 57118  1  0  0  0
 57119  1  0  0  0
 58 59  1  0  0  0
 59120  1  0  0  0
 59121  1  0  0  0
 59122  1  0  0  0
 60 61  1  0  0  0
 60123  1  0  0  0
 61 62  1  0  0  0
 61 64  1  0  0  0
 61124  1  0  0  0
 62 63  2  0  0  0
 62 69  1  0  0  0
 64 65  1  0  0  0
 64125  1  0  0  0
 64126  1  0  0  0
 65 66  1  0  0  0
 65127  1  0  0  0
 65128  1  0  0  0
 66 67  2  0  0  0
 66 68  1  0  0  0
M  CHG  5   1   1   8  -1  46   1  68  -1  69  -1
M  END
> <s_m_source_file>
../3uyr_ligand.sdf

> <i_m_source_file_index>
1

> <s_epik_input>
W09IXUMoPU8pW0NIMl1bQ0gyXVtDQEhdKFtOSDMrXSlDKD1PKU4xW0NAQEhdKFtDSDJdW0NIMl1bQ0gyXTEpQyg9TylbTkhdW0NAQEhdKFtDSDJdW0NIMl1DKD1PKVtOSDJdKUMoPU8pW05IXVtDQEBIXShbQ0gzXSlDKD1PKU4yW0NAQEhdKFtDSDJdW0NIMl1bQ0gyXTIpQyg9TylbTkhdW0NAQEhdKFtDSDJdYzNbY0hdW25IXWMoYzM0KVtjSF1bY0hdW2NIXVtjSF00KUMoPU8pW05IXVtDQEBIXShbQ0gyXVtDSDJdU1tDSDNdKUMoPU8pW05IXVtDQEhdKEMoPU8pW09IXSlbQ0gyXVtDSDJdQyg9TylbT0hd

> <s_epik_cmdline>
J2VwaWtfYXBwJywgJy1pbWFlJywgJ2xpZ2FuZF9wcm8ubWFlJywgJy1vbWFlJywgJ2xpZ2FuZF9wcmVwLm1hZScsICctbXMnLCAnMScsICctcGgnLCAnNycsICctcGh0JywgJzAuNScsICctbnQn

> <r_epik_Ionization_Penalty>
  0.0761

> <r_epik_Ionization_Penalty_Charging>
  0.0761

> <r_epik_Ionization_Penalty_Neutral>
  0.0000

> <r_epik_State_Penalty>
  0.0628

> <r_epik_Charging_Adjusted_Penalty>
0.138966595642692

> <i_epik_Tot_Q>
-1

> <i_epik_Tot_abs_Q>
5

$$$$
