3uyt_ligand
                    3D
 Schrodinger Suite 2020-3.
 45 48  0  0  1  0            999 V2000
   -6.0560   -6.8120   -9.9610 C   0  0  0  0  0  0
   -4.7910   -7.1240   -9.4640 N   0  0  0  0  0  0
   -5.0410   -7.9290   -8.3800 C   0  0  0  0  0  0
   -6.3360   -8.2120   -8.0910 N   0  0  0  0  0  0
   -7.0400   -7.5440   -9.0660 C   0  0  0  0  0  0
   -7.5410   -5.0780  -11.2610 C   0  0  0  0  0  0
   -7.7290   -4.2020  -12.3680 C   0  0  0  0  0  0
   -6.7500   -4.0970  -13.3500 N   0  0  0  0  0  0
   -5.5830   -4.8570  -13.2390 C   0  0  0  0  0  0
   -5.3460   -5.7240  -12.1900 N   0  0  0  0  0  0
   -6.3210   -5.8720  -11.1480 C   0  0  0  0  0  0
   -4.6280   -4.7400  -14.1980 N   0  0  0  0  0  0
   -2.3300   -6.5350   -8.9560 C   0  0  0  0  0  0
   -3.4480   -6.8300   -9.9550 C   0  0  0  0  0  0
   -2.9370   -7.7460  -11.0690 C   0  0  0  0  0  0
   -1.6330   -7.2740  -11.7200 C   0  0  0  0  0  0
   -0.5360   -6.9390  -10.6840 C   0  0  0  0  0  0
   -1.0580   -5.9990   -9.5960 C   0  0  0  0  0  0
  -10.5810   -8.1440  -10.6860 C   0  0  0  0  0  0
  -11.4370   -7.9640   -9.5210 C   0  0  0  0  0  0
  -10.8930   -7.6460   -8.1930 C   0  0  0  0  0  0
   -9.4400   -7.4950   -8.0200 C   0  0  0  0  0  0
   -8.5500   -7.6660   -9.1740 C   0  0  0  0  0  0
   -9.1400   -7.9900  -10.4910 C   0  0  0  0  0  0
  -12.7910   -8.0780   -9.6980 F   0  0  0  0  0  0
   -4.2276   -8.3267   -7.7731 H   0  0  0  0  0  0
   -8.3118   -5.1561  -10.4943 H   0  0  0  0  0  0
   -8.6425   -3.6124  -12.4457 H   0  0  0  0  0  0
   -4.7826   -4.0591  -15.0480 H   0  0  0  0  0  0
   -3.7001   -5.3262  -14.1246 H   0  0  0  0  0  0
   -2.6739   -5.7806   -8.2331 H   0  0  0  0  0  0
   -2.0619   -7.4588   -8.4223 H   0  0  0  0  0  0
   -3.7535   -5.8526  -10.3566 H   0  0  0  0  0  0
   -2.7494   -8.7501  -10.6609 H   0  0  0  0  0  0
   -3.6918   -7.8095  -11.8666 H   0  0  0  0  0  0
   -1.2444   -8.0652  -12.3781 H   0  0  0  0  0  0
   -1.8259   -6.3669  -12.3116 H   0  0  0  0  0  0
   -0.1889   -7.8663  -10.2047 H   0  0  0  0  0  0
    0.3090   -6.4493  -11.1901 H   0  0  0  0  0  0
   -1.2619   -5.0191  -10.0523 H   0  0  0  0  0  0
   -0.2785   -5.8905   -8.8275 H   0  0  0  0  0  0
  -10.9981   -8.3839  -11.6641 H   0  0  0  0  0  0
  -11.5622   -7.5228   -7.3415 H   0  0  0  0  0  0
   -9.0267   -7.2574   -7.0398 H   0  0  0  0  0  0
   -8.4771   -8.1186  -11.3466 H   0  0  0  0  0  0
  1  2  1  0  0  0
  1  5  2  0  0  0
  1 11  1  0  0  0
  2  3  1  0  0  0
  2 14  1  0  0  0
  3  4  2  0  0  0
  3 26  1  0  0  0
  4  5  1  0  0  0
  5 23  1  0  0  0
  6  7  2  0  0  0
  6 11  1  0  0  0
  6 27  1  0  0  0
  7  8  1  0  0  0
  7 28  1  0  0  0
  8  9  2  0  0  0
  9 10  1  0  0  0
  9 12  1  0  0  0
 10 11  2  0  0  0
 12 29  1  0  0  0
 12 30  1  0  0  0
 13 14  1  0  0  0
 13 18  1  0  0  0
 13 31  1  0  0  0
 13 32  1  0  0  0
 14 15  1  0  0  0
 14 33  1  0  0  0
 15 16  1  0  0  0
 15 34  1  0  0  0
 15 35  1  0  0  0
 16 17  1  0  0  0
 16 36  1  0  0  0
 16 37  1  0  0  0
 17 18  1  0  0  0
 17 38  1  0  0  0
 17 39  1  0  0  0
 18 40  1  0  0  0
 18 41  1  0  0  0
 19 20  2  0  0  0
 19 24  1  0  0  0
 19 42  1  0  0  0
 20 21  1  0  0  0
 20 25  1  0  0  0
 21 22  2  0  0  0
 21 43  1  0  0  0
 22 23  1  0  0  0
 22 44  1  0  0  0
 23 24  2  0  0  0
 24 45  1  0  0  0
M  END
> <s_m_source_file>
../3uyt_ligand.sdf

> <i_m_source_file_index>
1

> <s_epik_input>
W05IMl1jMW5bY0hdW2NIXWMobjEpLWMybihbQ0hdM1tDSDJdW0NIMl1bQ0gyXVtDSDJdW0NIMl0zKVtjSF1uYzItYyhbY0hdW2NIXTQpW2NIXVtjSF1jNEY=

> <s_epik_cmdline>
J2VwaWtfYXBwJywgJy1pbWFlJywgJ2xpZ2FuZF9wcm8ubWFlJywgJy1vbWFlJywgJ2xpZ2FuZF9wcmVwLm1hZScsICctbXMnLCAnMScsICctcGgnLCAnNycsICctcGh0JywgJzAuNScsICctbnQn

> <r_lp_tautomer_probability>
0.999999987636

> <r_epik_Ionization_Penalty>
  0.0387

> <r_epik_Ionization_Penalty_Charging>
  0.0382

> <r_epik_Ionization_Penalty_Neutral>
  0.0005

> <r_epik_State_Penalty>
  0.0321

> <r_epik_Charging_Adjusted_Penalty>
0.0702934273173101

> <i_epik_Tot_Q>
0

> <i_epik_Tot_abs_Q>
0

$$$$
