3uz5_ligand
                    3D
 Schrodinger Suite 2020-3.
 14 15  0  0  1  0            999 V2000
   21.1480    0.2970    7.1730 C   0  0  0  0  0  0
   20.2750   -0.6720    6.8550 N   0  0  0  0  0  0
   19.8650   -0.4370    5.6970 N   0  3  0  0  0  0
   20.3720    0.6020    5.1920 N   0  0  0  0  0  0
   21.2000    1.1480    6.0710 C   0  0  0  0  0  0
   21.9950    2.2760    6.0660 C   0  0  0  0  0  0
   22.7460    2.5020    7.2050 C   0  0  0  0  0  0
   23.7340    3.8940    7.2520 Cl  0  0  0  0  0  0
   22.7260    1.6610    8.3150 C   0  0  0  0  0  0
   21.8920    0.5550    8.3170 C   0  0  0  0  0  0
   21.8180   -0.5640    9.6560 Cl  0  0  0  0  0  0
   22.0526    2.9778    5.2210 H   0  0  0  0  0  0
   23.3655    1.8692    9.1855 H   0  0  0  0  0  0
   19.2009   -1.0492    5.2678 H   0  0  0  0  0  0
  1  2  2  0  0  0
  1  5  1  0  0  0
  1 10  1  0  0  0
  2  3  1  0  0  0
  3  4  1  0  0  0
  3 14  1  0  0  0
  4  5  2  0  0  0
  5  6  1  0  0  0
  6  7  2  0  0  0
  6 12  1  0  0  0
  7  8  1  0  0  0
  7  9  1  0  0  0
  9 10  2  0  0  0
  9 13  1  0  0  0
 10 11  1  0  0  0
M  CHG  1   3   1
M  END
> <s_m_source_file>
../3uz5_ligand.sdf

> <i_m_source_file_index>
1

> <s_epik_input>
bjFbbkhdbmMoYzEyKVtjSF1jKENsKVtjSF1jMkNs

> <s_epik_cmdline>
J2VwaWtfYXBwJywgJy1pbWFlJywgJ2xpZ2FuZF9wcm8ubWFlJywgJy1vbWFlJywgJ2xpZ2FuZF9wcmVwLm1hZScsICctbXMnLCAnMScsICctcGgnLCAnNycsICctcGh0JywgJzAuNScsICctbnQn

> <r_epik_Ionization_Penalty>
  0.0000

> <r_epik_Ionization_Penalty_Charging>
  0.0000

> <r_epik_Ionization_Penalty_Neutral>
  0.0000

> <r_epik_State_Penalty>
  0.0097

> <r_epik_Charging_Adjusted_Penalty>
0.00966095605437264

> <i_epik_Tot_Q>
1

> <i_epik_Tot_abs_Q>
1

> <s_epik_Chemistry_Notes>
This compound has an imine and may undergo hydrolysis.

$$$$
