3uza_ligand
                    3D
 Schrodinger Suite 2020-3.
 36 38  0  0  1  0            999 V2000
   50.3560   24.0150   31.1080 N   0  0  0  0  0  0
   49.2100   23.5740   31.7030 N   0  0  0  0  0  0
   47.9190   23.6790   31.1470 C   0  0  0  0  0  0
   47.7660   24.2870   29.8490 C   0  0  0  0  0  0
   48.9630   24.7270   29.2700 N   0  0  0  0  0  0
   50.1990   24.5950   29.8740 C   0  0  0  0  0  0
   44.7950   21.9180   33.5160 N   0  0  0  0  0  0
   45.9570   21.2710   33.2720 C   0  0  0  0  0  0
   46.9960   21.8210   32.5030 C   0  0  0  0  0  0
   46.8330   23.1120   31.9590 C   0  0  0  0  0  0
   45.6210   23.7910   32.2040 C   0  0  0  0  0  0
   44.6390   23.1510   32.9890 C   0  0  0  0  0  0
   44.0520   24.9480   27.6990 C   0  0  0  0  0  0
   44.3230   23.6880   28.2610 C   0  0  0  0  0  0
   45.5200   23.4530   28.9610 C   0  0  0  0  0  0
   46.4830   24.4790   29.1200 C   0  0  0  0  0  0
   46.1940   25.7440   28.5460 C   0  0  0  0  0  0
   44.9950   25.9830   27.8440 C   0  0  0  0  0  0
   51.2870   25.0420   29.2410 N   0  0  0  0  0  0
   43.3270   23.8340   33.2850 C   0  0  0  0  0  0
   46.1210   19.8900   33.8680 C   0  0  0  0  0  0
   47.9136   21.2589   32.3295 H   0  0  0  0  0  0
   45.4473   24.7869   31.7963 H   0  0  0  0  0  0
   43.1222   25.1214   27.1572 H   0  0  0  0  0  0
   43.5961   22.8830   28.1528 H   0  0  0  0  0  0
   45.7090   22.4676   29.3870 H   0  0  0  0  0  0
   46.9179   26.5521   28.6505 H   0  0  0  0  0  0
   44.7989   26.9657   27.4151 H   0  0  0  0  0  0
   52.2765   24.9428   29.7111 H   0  0  0  0  0  0
   51.1935   25.5093   28.2496 H   0  0  0  0  0  0
   42.7030   23.1755   33.9071 H   0  0  0  0  0  0
   42.8048   24.0497   32.3412 H   0  0  0  0  0  0
   43.5165   24.7748   33.8226 H   0  0  0  0  0  0
   45.2155   19.6248   34.4335 H   0  0  0  0  0  0
   46.9899   19.8826   34.5425 H   0  0  0  0  0  0
   46.2768   19.1586   33.0613 H   0  0  0  0  0  0
  1  2  2  0  0  0
  1  6  1  0  0  0
  2  3  1  0  0  0
  3  4  2  0  0  0
  3 10  1  0  0  0
  4  5  1  0  0  0
  4 16  1  0  0  0
  5  6  2  0  0  0
  6 19  1  0  0  0
  7  8  2  0  0  0
  7 12  1  0  0  0
  8  9  1  0  0  0
  8 21  1  0  0  0
  9 10  2  0  0  0
  9 22  1  0  0  0
 10 11  1  0  0  0
 11 12  2  0  0  0
 11 23  1  0  0  0
 12 20  1  0  0  0
 13 14  2  0  0  0
 13 18  1  0  0  0
 13 24  1  0  0  0
 14 15  1  0  0  0
 14 25  1  0  0  0
 15 16  2  0  0  0
 15 26  1  0  0  0
 16 17  1  0  0  0
 17 18  2  0  0  0
 17 27  1  0  0  0
 18 28  1  0  0  0
 19 29  1  0  0  0
 19 30  1  0  0  0
 20 31  1  0  0  0
 20 32  1  0  0  0
 20 33  1  0  0  0
 21 34  1  0  0  0
 21 35  1  0  0  0
 21 36  1  0  0  0
M  END
> <s_m_source_file>
../3uza_ligand.sdf

> <i_m_source_file_index>
1

> <s_epik_input>
W0NIM11jMW5jKFtDSDNdKVtjSF1jKFtjSF0xKS1jMm5uYyhbTkgyXSluYzItYzNbY0hdW2NIXVtjSF1bY0hdW2NIXTM=

> <s_epik_cmdline>
J2VwaWtfYXBwJywgJy1pbWFlJywgJ2xpZ2FuZF9wcm8ubWFlJywgJy1vbWFlJywgJ2xpZ2FuZF9wcmVwLm1hZScsICctbXMnLCAnMScsICctcGgnLCAnNycsICctcGh0JywgJzAuNScsICctbnQn

> <r_lp_tautomer_probability>
0.999999252196394

> <r_epik_Ionization_Penalty>
  0.1220

> <r_epik_Ionization_Penalty_Charging>
  0.0000

> <r_epik_Ionization_Penalty_Neutral>
  0.1220

> <r_epik_State_Penalty>
  0.1115

> <r_epik_Charging_Adjusted_Penalty>
0.111476344484691

> <i_epik_Tot_Q>
0

> <i_epik_Tot_abs_Q>
0

$$$$
