3uzd_ligand
                    3D
 Schrodinger Suite 2020-3.
138139  0  0  1  0            999 V2000
   10.5090   12.8850   11.2850 N   0  3  0  0  0  0
   11.6690   12.0970   10.7930 C   0  0  2  0  0  0
   11.8530   10.8360   11.6950 C   0  0  0  0  0  0
   10.9190   10.0140   11.8590 O   0  0  0  0  0  0
   12.9350   13.0010   10.6520 C   0  0  0  0  0  0
   13.0220   14.0790   11.6120 O   0  0  0  0  0  0
   12.9590   10.8290   12.4140 N   0  0  0  0  0  0
   13.0130   10.0880   13.6610 C   0  0  2  0  0  0
   12.3500   10.9260   14.7630 C   0  0  0  0  0  0
   12.6070   10.6270   15.9300 O   0  0  0  0  0  0
   14.5140    9.9610   13.9220 C   0  0  0  0  0  0
   15.1240    9.9710   12.5700 C   0  0  0  0  0  0
   14.2700   10.8890   11.7430 C   0  0  0  0  0  0
   11.5350   11.9430   14.4420 N   0  0  0  0  0  0
   10.9810   12.7620   15.5750 C   0  0  1  0  0  0
   11.1380   14.2710   15.3380 C   0  0  0  0  0  0
   10.3840   14.6750   14.1360 O   0  0  0  0  0  0
    9.4980   12.4790   15.7950 C   0  0  0  0  0  0
    8.9230   11.6710   15.0250 O   0  0  0  0  0  0
   10.4860   16.1970   13.6410 P   0  0  0  0  0  0
   10.1700   17.1320   14.7440 O   0  0  0  0  0  0
   11.8980   16.3460   13.1080 O   0  5  0  0  0  0
    9.4740   16.3590   12.4670 O   0  5  0  0  0  0
    8.8770   13.1170   16.7720 N   0  0  0  0  0  0
    7.4790   12.8150   17.1100 C   0  0  2  0  0  0
    6.5460   13.1800   15.9650 C   0  0  0  0  0  0
    6.5990   14.2930   15.4600 O   0  0  0  0  0  0
    7.0660   13.5950   18.3580 C   0  0  0  0  0  0
    5.7260   13.2600   19.0120 C   0  0  0  0  0  0
    5.6930   11.8970   19.6870 C   0  0  0  0  0  0
    5.4420   14.3330   20.0470 C   0  0  0  0  0  0
    5.7430   12.1730   15.6380 N   0  0  0  0  0  0
    4.5550   12.2840   14.8120 C   0  0  2  0  0  0
    3.6730   13.3800   15.3590 C   0  0  0  0  0  0
    3.4550   13.5530   16.5580 O   0  0  0  0  0  0
    3.8800   10.9250   14.9920 C   0  0  0  0  0  0
    4.2890   10.4900   16.3560 C   0  0  0  0  0  0
    5.6850   11.0140   16.5470 C   0  0  0  0  0  0
    3.1720   14.1230   14.4000 N   0  0  0  0  0  0
    2.3610   15.3180   14.5580 C   0  0  2  0  0  0
    1.0570   14.9230   15.2720 C   0  0  0  0  0  0
    0.5620   13.8100   15.1060 O   0  0  0  0  0  0
    2.1090   15.9100   13.1630 C   0  0  0  0  0  0
    1.5260   17.3020   13.2020 C   0  0  0  0  0  0
    1.7990   18.0720   14.1250 O   0  0  0  0  0  0
    0.7790   17.6570   12.1850 N   0  0  0  0  0  0
    0.4790   15.7420   16.1380 N   0  0  0  0  0  0
   -0.6590   15.2250   16.9340 C   0  0  2  0  0  0
   -1.9010   14.7790   16.1260 C   0  0  0  0  0  0
   -2.2870   15.4760   15.1870 O   0  0  0  0  0  0
   -1.1040   16.2450   18.0010 C   0  0  2  0  0  0
   -0.0830   16.3050   19.1390 C   0  0  0  0  0  0
   -2.4840   15.8910   18.5340 C   0  0  0  0  0  0
    0.2990   17.7130   19.5420 C   0  0  0  0  0  0
   -2.5440   13.6510   16.4780 N   0  0  0  0  0  0
   -3.8250   13.3500   15.8370 C   0  0  2  0  0  0
   -4.9800   14.0790   16.5660 C   0  0  0  0  0  0
   -5.1130   14.0040   17.7980 O   0  0  0  0  0  0
   -4.0560   11.8090   15.7220 C   0  0  2  0  0  0
   -3.5930   11.1780   16.9210 O   0  0  0  0  0  0
   -3.2520   11.2110   14.5120 C   0  0  0  0  0  0
   -5.7550   14.8540   15.8060 N   0  0  0  0  0  0
   -6.8210   15.6930   16.3790 C   0  0  2  0  0  0
   -8.1560   14.9440   16.5460 C   0  0  0  0  0  0
   -8.3270   13.8420   16.0220 O   0  0  0  0  0  0
   -7.0130   16.9720   15.5470 C   0  0  0  0  0  0
   -5.8360   17.9580   15.5520 C   0  0  0  0  0  0
   -5.6700   18.6570   16.9270 C   0  0  0  0  0  0
   -9.0730   15.4360   17.2060 O   0  5  0  0  0  0
    9.6315   12.2280   11.3759 H   0  0  0  0  0  0
   10.2884   13.6953   10.5745 H   0  0  0  0  0  0
   10.7486   13.3150   12.2687 H   0  0  0  0  0  0
   11.4338   11.7475    9.7769 H   0  0  0  0  0  0
   13.8393   12.3883   10.7814 H   0  0  0  0  0  0
   12.9456   13.4641    9.6543 H   0  0  0  0  0  0
   13.8794   14.7677   11.5895 H   0  0  0  0  0  0
   12.4917    9.1225   13.5839 H   0  0  0  0  0  0
   14.8531   10.8106   14.5329 H   0  0  0  0  0  0
   14.7149    9.0213   14.4573 H   0  0  0  0  0  0
   16.1580   10.3402   12.6370 H   0  0  0  0  0  0
   15.1250    8.9500   12.1606 H   0  0  0  0  0  0
   14.1661   10.5437   10.7038 H   0  0  0  0  0  0
   14.6384   11.9255   11.7499 H   0  0  0  0  0  0
   11.2675   12.1886   13.4037 H   0  0  0  0  0  0
   11.5692   12.4519   16.4513 H   0  0  0  0  0  0
   10.7519   14.8210   16.2088 H   0  0  0  0  0  0
   12.2019   14.5110   15.1950 H   0  0  0  0  0  0
    9.4254   13.8859   17.3359 H   0  0  0  0  0  0
    7.4400   11.7299   17.2862 H   0  0  0  0  0  0
    7.8133   13.4414   19.1504 H   0  0  0  0  0  0
    7.0025   14.6663   18.1166 H   0  0  0  0  0  0
    4.9610   13.2263   18.2223 H   0  0  0  0  0  0
    5.8982   11.1139   18.9422 H   0  0  0  0  0  0
    4.6997   11.7310   20.1295 H   0  0  0  0  0  0
    6.4573   11.8606   20.4773 H   0  0  0  0  0  0
    5.4643   15.3218   19.5656 H   0  0  0  0  0  0
    6.2067   14.2923   20.8367 H   0  0  0  0  0  0
    4.4492   14.1626   20.4889 H   0  0  0  0  0  0
    4.8026   12.5349   13.7700 H   0  0  0  0  0  0
    2.7897   11.0430   14.9066 H   0  0  0  0  0  0
    4.2359   10.2329   14.2146 H   0  0  0  0  0  0
    3.5971   10.9137   17.0988 H   0  0  0  0  0  0
    4.2620    9.3919   16.4142 H   0  0  0  0  0  0
    6.4515   10.2808   16.2556 H   0  0  0  0  0  0
    5.8701   11.3476   17.5787 H   0  0  0  0  0  0
    3.4229   13.7577   13.3932 H   0  0  0  0  0  0
    2.9067   16.0491   15.1726 H   0  0  0  0  0  0
    3.0587   15.9638   12.6105 H   0  0  0  0  0  0
    1.4019   15.2698   12.6152 H   0  0  0  0  0  0
    0.5617   16.9353   11.3837 H   0  0  0  0  0  0
    0.3694   18.6766   12.1328 H   0  0  0  0  0  0
    0.8204   16.7786   16.2755 H   0  0  0  0  0  0
   -0.2064   14.3255   17.3767 H   0  0  0  0  0  0
   -1.1693   17.2427   17.5424 H   0  0  0  0  0  0
   -0.4977   15.8111   20.0301 H   0  0  0  0  0  0
    0.8398   15.7914   18.8312 H   0  0  0  0  0  0
   -3.2005   15.8535   17.7002 H   0  0  0  0  0  0
   -2.8041   16.6543   19.2586 H   0  0  0  0  0  0
   -2.4453   14.9092   19.0286 H   0  0  0  0  0  0
    1.0324   17.6738   20.3608 H   0  0  0  0  0  0
   -0.5977   18.2541   19.8785 H   0  0  0  0  0  0
    0.7398   18.2344   18.6795 H   0  0  0  0  0  0
   -2.1290   12.9618   17.2282 H   0  0  0  0  0  0
   -3.7400   13.7636   14.8213 H   0  0  0  0  0  0
   -5.1304   11.5852   15.6474 H   0  0  0  0  0  0
   -4.0293   11.4550   17.8920 H   0  0  0  0  0  0
   -3.5914   11.6820   13.5777 H   0  0  0  0  0  0
   -3.4230   10.1257   14.4587 H   0  0  0  0  0  0
   -2.1787   11.4067   14.6524 H   0  0  0  0  0  0
   -5.5787   14.8542   14.7202 H   0  0  0  0  0  0
   -6.4472   15.9435   17.3828 H   0  0  0  0  0  0
   -7.1825   16.7025   14.4941 H   0  0  0  0  0  0
   -7.8816   17.5297   15.9271 H   0  0  0  0  0  0
   -4.9045   17.4182   15.3262 H   0  0  0  0  0  0
   -6.0041   18.7336   14.7903 H   0  0  0  0  0  0
   -4.8183   19.3518   16.8846 H   0  0  0  0  0  0
   -5.4872   17.8997   17.7036 H   0  0  0  0  0  0
   -6.5869   19.2151   17.1677 H   0  0  0  0  0  0
  1  2  1  0  0  0
  1 70  1  0  0  0
  1 71  1  0  0  0
  1 72  1  0  0  0
  2  3  1  0  0  0
  2  5  1  0  0  0
  2 73  1  0  0  0
  3  4  2  0  0  0
  3  7  1  0  0  0
  5  6  1  0  0  0
  5 74  1  0  0  0
  5 75  1  0  0  0
  6 76  1  0  0  0
  7  8  1  0  0  0
  7 13  1  0  0  0
  8  9  1  0  0  0
  8 11  1  0  0  0
  8 77  1  0  0  0
  9 10  2  0  0  0
  9 14  1  0  0  0
 11 12  1  0  0  0
 11 78  1  0  0  0
 11 79  1  0  0  0
 12 13  1  0  0  0
 12 80  1  0  0  0
 12 81  1  0  0  0
 13 82  1  0  0  0
 13 83  1  0  0  0
 14 15  1  0  0  0
 14 84  1  0  0  0
 15 16  1  0  0  0
 15 18  1  0  0  0
 15 85  1  0  0  0
 16 17  1  0  0  0
 16 86  1  0  0  0
 16 87  1  0  0  0
 17 20  1  0  0  0
 18 19  2  0  0  0
 18 24  1  0  0  0
 20 21  2  0  0  0
 20 22  1  0  0  0
 20 23  1  0  0  0
 24 25  1  0  0  0
 24 88  1  0  0  0
 25 26  1  0  0  0
 25 28  1  0  0  0
 25 89  1  0  0  0
 26 27  2  0  0  0
 26 32  1  0  0  0
 28 29  1  0  0  0
 28 90  1  0  0  0
 28 91  1  0  0  0
 29 30  1  0  0  0
 29 31  1  0  0  0
 29 92  1  0  0  0
 30 93  1  0  0  0
 30 94  1  0  0  0
 30 95  1  0  0  0
 31 96  1  0  0  0
 31 97  1  0  0  0
 31 98  1  0  0  0
 32 33  1  0  0  0
 32 38  1  0  0  0
 33 34  1  0  0  0
 33 36  1  0  0  0
 33 99  1  0  0  0
 34 35  2  0  0  0
 34 39  1  0  0  0
 36 37  1  0  0  0
 36100  1  0  0  0
 36101  1  0  0  0
 37 38  1  0  0  0
 37102  1  0  0  0
 37103  1  0  0  0
 38104  1  0  0  0
 38105  1  0  0  0
 39 40  1  0  0  0
 39106  1  0  0  0
 40 41  1  0  0  0
 40 43  1  0  0  0
 40107  1  0  0  0
 41 42  2  0  0  0
 41 47  1  0  0  0
 43 44  1  0  0  0
 43108  1  0  0  0
 43109  1  0  0  0
 44 45  2  0  0  0
 44 46  1  0  0  0
 46110  1  0  0  0
 46111  1  0  0  0
 47 48  1  0  0  0
 47112  1  0  0  0
 48 49  1  0  0  0
 48 51  1  0  0  0
 48113  1  0  0  0
 49 50  2  0  0  0
 49 55  1  0  0  0
 51 52  1  0  0  0
 51 53  1  0  0  0
 51114  1  0  0  0
 52 54  1  0  0  0
 52115  1  0  0  0
 52116  1  0  0  0
 53117  1  0  0  0
 53118  1  0  0  0
 53119  1  0  0  0
 54120  1  0  0  0
 54121  1  0  0  0
 54122  1  0  0  0
 55 56  1  0  0  0
 55123  1  0  0  0
 56 57  1  0  0  0
 56 59  1  0  0  0
 56124  1  0  0  0
 57 58  2  0  0  0
 57 62  1  0  0  0
 59 60  1  0  0  0
 59 61  1  0  0  0
 59125  1  0  0  0
 60126  1  0  0  0
 61127  1  0  0  0
 61128  1  0  0  0
 61129  1  0  0  0
 62 63  1  0  0  0
 62130  1  0  0  0
 63 64  1  0  0  0
 63 66  1  0  0  0
 63131  1  0  0  0
 64 65  2  0  0  0
 64 69  1  0  0  0
 66 67  1  0  0  0
 66132  1  0  0  0
 66133  1  0  0  0
 67 68  1  0  0  0
 67134  1  0  0  0
 67135  1  0  0  0
 68136  1  0  0  0
 68137  1  0  0  0
 68138  1  0  0  0
M  CHG  4   1   1  22  -1  23  -1  69  -1
M  END
> <s_m_source_file>
../3uzd_ligand.sdf

> <i_m_source_file_index>
1

> <s_epik_input>
W09IXVtDSDJdW0NASF0oW05IMytdKUMoPU8pTjFbQ0BASF0oW0NIMl1bQ0gyXVtDSDJdMSlDKD1PKVtOSF1bQ0BASF0oW0NIMl1PUCg9TykoW09IXSlbT0hdKUMoPU8pW05IXVtDQEBIXShbQ0gyXVtDSF0oW0NIM10pW0NIM10pQyg9TylOMltDQEBIXShbQ0gyXVtDSDJdW0NIMl0yKUMoPU8pW05IXVtDQEBIXShbQ0gyXUMoPU8pW05IMl0pQyg9TylbTkhdW0NAQEhdKFtDQEBIXShbQ0gzXSlbQ0gyXVtDSDNdKUMoPU8pW05IXVtDQEBIXShbQ0BIXShbT0hdKVtDSDNdKUMoPU8pW05IXVtDQEhdKEMoPU8pW09IXSlbQ0gyXVtDSDJdW0NIM10=

> <s_epik_cmdline>
J2VwaWtfYXBwJywgJy1pbWFlJywgJ2xpZ2FuZF9wcm8ubWFlJywgJy1vbWFlJywgJ2xpZ2FuZF9wcmVwLm1hZScsICctbXMnLCAnMScsICctcGgnLCAnNycsICctcGh0JywgJzAuNScsICctbnQn

> <r_lp_tautomer_probability>
1

> <r_epik_Ionization_Penalty>
  0.2287

> <r_epik_Ionization_Penalty_Charging>
  0.2287

> <r_epik_Ionization_Penalty_Neutral>
  0.0000

> <r_epik_State_Penalty>
 -0.0000

> <r_epik_Charging_Adjusted_Penalty>
0.228664378352539

> <i_epik_Tot_Q>
-2

> <i_epik_Tot_abs_Q>
4

$$$$
