3uzj_ligand
                    3D
 Schrodinger Suite 2020-3.
 13 14  0  0  1  0            999 V2000
   -0.4430   34.5000  -17.6240 N   0  0  0  0  0  0
   -1.1920   35.3200  -16.8650 C   0  0  0  0  0  0
   -2.3750   35.9780  -17.0890 C   0  0  0  0  0  0
   -2.9980   36.8290  -16.2170 C   0  0  0  0  0  0
   -2.3180   37.0100  -15.0090 C   0  0  0  0  0  0
   -1.0810   36.3290  -14.7060 C   0  0  0  0  0  0
   -0.5180   35.4960  -15.6700 C   0  0  0  0  0  0
    0.5780   34.7510  -15.7960 N   0  0  0  0  0  0
    0.5810   34.2300  -16.9490 N   0  0  0  0  0  0
   -2.8247   35.7709  -18.0713 H   0  0  0  0  0  0
   -3.9511   37.3019  -16.4963 H   0  0  0  0  0  0
   -2.7372   37.6907  -14.2680 H   0  0  0  0  0  0
   -0.5838   36.4592  -13.7334 H   0  0  0  0  0  0
  1  2  2  0  0  0
  1  9  1  0  0  0
  2  3  1  0  0  0
  2  7  1  0  0  0
  3  4  2  0  0  0
  3 10  1  0  0  0
  4  5  1  0  0  0
  4 11  1  0  0  0
  5  6  1  0  0  0
  5 12  1  0  0  0
  6  7  2  0  0  0
  6 13  1  0  0  0
  7  8  1  0  0  0
  8  9  2  0  0  0
M  END
> <s_m_source_file>
../3uzj_ligand.sdf

> <i_m_source_file_index>
1

> <s_epik_input>
Tj0xTj1OQyhDMTIpPVtDSF1bQ0gyXVtDSF09W0NIXTI=

> <s_epik_cmdline>
J2VwaWtfYXBwJywgJy1pbWFlJywgJ2xpZ2FuZF9wcm8ubWFlJywgJy1vbWFlJywgJ2xpZ2FuZF9wcmVwLm1hZScsICctbXMnLCAnMScsICctcGgnLCAnNycsICctcGh0JywgJzAuNScsICctbnQn

> <r_lp_tautomer_probability>
1

> <r_epik_Ionization_Penalty>
  0.0000

> <r_epik_Ionization_Penalty_Charging>
  0.0000

> <r_epik_Ionization_Penalty_Neutral>
  0.0000

> <r_epik_State_Penalty>
 -0.0000

> <r_epik_Charging_Adjusted_Penalty>
0

> <i_epik_Tot_Q>
0

> <i_epik_Tot_abs_Q>
0

> <s_epik_Chemistry_Notes>
This compound has an imine and may undergo hydrolysis.

$$$$
