3uzp_ligand
                    3D
 Schrodinger Suite 2020-3.
 45 48  0  0  1  0            999 V2000
    4.2350    2.7510   18.7610 C   0  0  0  0  0  0
    3.6650    3.8490   19.3530 N   0  0  0  0  0  0
    4.4660    4.1520   20.4120 C   0  0  0  0  0  0
    5.5410    3.3780   20.6080 N   0  0  0  0  0  0
    5.4780    2.4730   19.5950 C   0  0  0  0  0  0
    3.8380    0.5620   17.3830 C   0  0  0  0  0  0
    3.2220   -0.1050   16.2870 C   0  0  0  0  0  0
    2.4410    0.5960   15.4070 N   0  0  0  0  0  0
    2.2390    1.9590   15.5630 C   0  0  0  0  0  0
    2.8200    2.6520   16.6030 N   0  0  0  0  0  0
    3.6460    1.9910   17.5690 C   0  0  0  0  0  0
    1.3910    2.6110   14.6780 N   0  0  0  0  0  0
    1.6820    5.1370   20.1410 C   0  0  0  0  0  0
    2.4880    4.5850   18.9700 C   0  0  0  0  0  0
    2.8850    5.6790   17.9820 C   0  0  0  0  0  0
    1.7040    6.5010   17.5040 C   0  0  0  0  0  0
    0.8640    7.0540   18.6800 C   0  0  0  0  0  0
    0.4980    5.9860   19.7310 C   0  0  0  0  0  0
    8.1890    0.4310   17.6950 C   0  0  0  0  0  0
    8.6690   -0.4200   18.7430 C   0  0  0  0  0  0
    8.1340   -0.3660   20.1180 C   0  0  0  0  0  0
    7.0790    0.5840   20.4270 C   0  0  0  0  0  0
    6.5790    1.4530   19.3820 C   0  0  0  0  0  0
    7.1410    1.3710   18.0190 C   0  0  0  0  0  0
    9.6400   -1.2630   18.3980 F   0  0  0  0  0  0
    4.2414    4.9896   21.0724 H   0  0  0  0  0  0
    4.4550    0.0003   18.0844 H   0  0  0  0  0  0
    3.3721   -1.1756   16.1477 H   0  0  0  0  0  0
    0.9287    2.0554   13.8488 H   0  0  0  0  0  0
    1.1814    3.6832   14.8060 H   0  0  0  0  0  0
    1.2897    4.3031   20.7415 H   0  0  0  0  0  0
    2.3303    5.7670   20.7678 H   0  0  0  0  0  0
    1.8472    3.8258   18.4978 H   0  0  0  0  0  0
    3.5980    6.3655   18.4621 H   0  0  0  0  0  0
    3.3543    5.2222   17.0982 H   0  0  0  0  0  0
    2.0667    7.3541   16.9118 H   0  0  0  0  0  0
    1.0491    5.8742   16.8809 H   0  0  0  0  0  0
    1.4306    7.8430   19.1961 H   0  0  0  0  0  0
   -0.0774    7.4717   18.2936 H   0  0  0  0  0  0
   -0.2823    5.3425   19.2986 H   0  0  0  0  0  0
    0.0969    6.5063   20.6132 H   0  0  0  0  0  0
    8.6006    0.3712   16.6875 H   0  0  0  0  0  0
    8.5247   -1.0290   20.8899 H   0  0  0  0  0  0
    6.6681    0.6420   21.4349 H   0  0  0  0  0  0
    6.7576    2.0326   17.2422 H   0  0  0  0  0  0
  1  2  1  0  0  0
  1  5  2  0  0  0
  1 11  1  0  0  0
  2  3  1  0  0  0
  2 14  1  0  0  0
  3  4  2  0  0  0
  3 26  1  0  0  0
  4  5  1  0  0  0
  5 23  1  0  0  0
  6  7  2  0  0  0
  6 11  1  0  0  0
  6 27  1  0  0  0
  7  8  1  0  0  0
  7 28  1  0  0  0
  8  9  2  0  0  0
  9 10  1  0  0  0
  9 12  1  0  0  0
 10 11  2  0  0  0
 12 29  1  0  0  0
 12 30  1  0  0  0
 13 14  1  0  0  0
 13 18  1  0  0  0
 13 31  1  0  0  0
 13 32  1  0  0  0
 14 15  1  0  0  0
 14 33  1  0  0  0
 15 16  1  0  0  0
 15 34  1  0  0  0
 15 35  1  0  0  0
 16 17  1  0  0  0
 16 36  1  0  0  0
 16 37  1  0  0  0
 17 18  1  0  0  0
 17 38  1  0  0  0
 17 39  1  0  0  0
 18 40  1  0  0  0
 18 41  1  0  0  0
 19 20  2  0  0  0
 19 24  1  0  0  0
 19 42  1  0  0  0
 20 21  1  0  0  0
 20 25  1  0  0  0
 21 22  2  0  0  0
 21 43  1  0  0  0
 22 23  1  0  0  0
 22 44  1  0  0  0
 23 24  2  0  0  0
 24 45  1  0  0  0
M  END
> <s_m_source_file>
../3uzp_ligand.sdf

> <i_m_source_file_index>
1

> <s_epik_input>
W05IMl1jMW5bY0hdW2NIXWMobjEpLWMybihbQ0hdM1tDSDJdW0NIMl1bQ0gyXVtDSDJdW0NIMl0zKVtjSF1uYzItYyhbY0hdW2NIXTQpW2NIXVtjSF1jNEY=

> <s_epik_cmdline>
J2VwaWtfYXBwJywgJy1pbWFlJywgJ2xpZ2FuZF9wcm8ubWFlJywgJy1vbWFlJywgJ2xpZ2FuZF9wcmVwLm1hZScsICctbXMnLCAnMScsICctcGgnLCAnNycsICctcGh0JywgJzAuNScsICctbnQn

> <r_lp_tautomer_probability>
0.999999987636

> <r_epik_Ionization_Penalty>
  0.0387

> <r_epik_Ionization_Penalty_Charging>
  0.0382

> <r_epik_Ionization_Penalty_Neutral>
  0.0005

> <r_epik_State_Penalty>
  0.0321

> <r_epik_Charging_Adjusted_Penalty>
0.0702934273173107

> <i_epik_Tot_Q>
0

> <i_epik_Tot_abs_Q>
0

$$$$
