3v01_ligand
                    3D
 Schrodinger Suite 2020-3.
 42 44  0  0  1  0            999 V2000
   36.3800   32.1770  -12.8910 C   0  0  0  0  0  0
   32.7410   27.3960  -18.1450 F   0  0  0  0  0  0
   36.5850   23.7900  -17.6960 I   0  0  0  0  0  0
   36.8750   31.5010  -13.9350 N   0  0  0  0  0  0
   32.8520   31.0430  -13.1490 O   0  0  0  0  0  0
   35.0390   32.0570  -12.5640 C   0  0  0  0  0  0
   30.2320   29.8790  -13.3730 N   0  0  0  0  0  0
   30.8060   29.2540  -15.4270 O   0  0  0  0  0  0
   36.1230   30.7070  -14.7220 C   0  0  0  0  0  0
   33.5250   29.0010  -16.0330 N   0  0  0  0  0  0
   28.9490   29.4740  -13.5820 O   0  0  0  0  0  0
   34.7800   30.5670  -14.4360 C   0  0  0  0  0  0
   26.9180   30.0690  -15.6720 O   0  0  0  0  0  0
   34.2430   31.2440  -13.3460 C   0  0  0  0  0  0
   25.5900   32.1070  -14.9150 O   0  0  0  0  0  0
   32.5000   30.1870  -14.1460 C   0  0  0  0  0  0
   33.6850   29.8850  -14.9840 C   0  0  0  0  0  0
   31.1120   29.7240  -14.3440 C   0  0  0  0  0  0
   34.2220   27.8520  -16.3270 C   0  0  0  0  0  0
   35.3510   27.4330  -15.6190 C   0  0  0  0  0  0
   36.0340   26.2920  -15.9800 C   0  0  0  0  0  0
   35.6090   25.5470  -17.0820 C   0  0  0  0  0  0
   34.5000   25.9410  -17.7900 C   0  0  0  0  0  0
   33.8150   27.0770  -17.4160 C   0  0  0  0  0  0
   27.8900   30.4230  -13.4050 C   0  0  0  0  0  0
   26.6570   30.0690  -14.2410 C   0  0  1  0  0  0
   25.5890   31.1000  -13.8980 C   0  0  0  0  0  0
   37.0308   32.8207  -12.2992 H   0  0  0  0  0  0
   34.6226   32.5914  -11.7101 H   0  0  0  0  0  0
   30.5177   30.3255  -12.4091 H   0  0  0  0  0  0
   36.5672   30.1846  -15.5693 H   0  0  0  0  0  0
   32.7428   29.1770  -16.7861 H   0  0  0  0  0  0
   27.6655   29.3816  -16.0947 H   0  0  0  0  0  0
   24.8864   32.9504  -14.8546 H   0  0  0  0  0  0
   35.6973   28.0182  -14.7671 H   0  0  0  0  0  0
   36.9040   25.9717  -15.4067 H   0  0  0  0  0  0
   34.1623   25.3565  -18.6458 H   0  0  0  0  0  0
   27.5920   30.4466  -12.3464 H   0  0  0  0  0  0
   28.2371   31.4211  -13.7105 H   0  0  0  0  0  0
   26.3384   29.0332  -14.0525 H   0  0  0  0  0  0
   25.8106   31.5618  -12.9245 H   0  0  0  0  0  0
   24.6004   30.6191  -13.8591 H   0  0  0  0  0  0
  1  4  2  0  0  0
  1  6  1  0  0  0
  1 28  1  0  0  0
  2 24  1  0  0  0
  3 22  1  0  0  0
  4  9  1  0  0  0
  5 14  1  0  0  0
  5 16  1  0  0  0
  6 14  2  0  0  0
  6 29  1  0  0  0
  7 11  1  0  0  0
  7 18  1  0  0  0
  7 30  1  0  0  0
  8 18  2  0  0  0
  9 12  2  0  0  0
  9 31  1  0  0  0
 10 17  1  0  0  0
 10 19  1  0  0  0
 10 32  1  0  0  0
 11 25  1  0  0  0
 12 14  1  0  0  0
 12 17  1  0  0  0
 13 26  1  0  0  0
 13 33  1  0  0  0
 15 27  1  0  0  0
 15 34  1  0  0  0
 16 17  2  0  0  0
 16 18  1  0  0  0
 19 20  2  0  0  0
 19 24  1  0  0  0
 20 21  1  0  0  0
 20 35  1  0  0  0
 21 22  2  0  0  0
 21 36  1  0  0  0
 22 23  1  0  0  0
 23 24  2  0  0  0
 23 37  1  0  0  0
 25 26  1  0  0  0
 25 38  1  0  0  0
 25 39  1  0  0  0
 26 27  1  0  0  0
 26 40  1  0  0  0
 27 41  1  0  0  0
 27 42  1  0  0  0
M  END
> <s_m_source_file>
../3v01_ligand.sdf

> <i_m_source_file_index>
1

> <s_epik_input>
W09IXVtDSDJdW0NAQEhdKFtPSF0pW0NIMl1PW05IXUMoPU8pYyhvYyhjMTIpW2NIXVtjSF1uW2NIXTEpYzJbTkhdYzNbY0hdW2NIXWMoSSlbY0hdYzNG

> <s_epik_cmdline>
J2VwaWtfYXBwJywgJy1pbWFlJywgJ2xpZ2FuZF9wcm8ubWFlJywgJy1vbWFlJywgJ2xpZ2FuZF9wcmVwLm1hZScsICctbXMnLCAnMScsICctcGgnLCAnNycsICctcGh0JywgJzAuNScsICctbnQn

> <r_lp_tautomer_probability>
1

> <r_epik_Ionization_Penalty>
  0.0038

> <r_epik_Ionization_Penalty_Charging>
  0.0000

> <r_epik_Ionization_Penalty_Neutral>
  0.0038

> <r_epik_State_Penalty>
 -0.0000

> <r_epik_Charging_Adjusted_Penalty>
0

> <i_epik_Tot_Q>
0

> <i_epik_Tot_abs_Q>
0

> <s_epik_Chemistry_Notes>
This compound has a N-S or N-O group and may undergo hydrolysis at high or low pH.

$$$$
