3v04_ligand
                    3D
 Schrodinger Suite 2020-3.
 38 40  0  0  1  0            999 V2000
   32.4830  -30.4420  -28.3370 C   0  0  0  0  0  0
   32.7170  -27.6600  -24.6100 F   0  0  0  0  0  0
   36.5400  -23.9500  -24.9430 I   0  0  0  0  0  0
   36.1290  -32.1190  -29.2060 N   0  0  0  0  0  0
   30.8730  -29.4420  -26.9000 O   0  0  0  0  0  0
   32.5050  -31.3770  -29.3690 C   0  0  0  0  0  0
   36.9640  -31.4880  -28.2650 N   0  0  0  0  0  0
   29.0010  -29.3250  -28.8070 O   0  0  0  0  0  0
   33.6900  -31.9910  -29.7330 C   0  0  0  0  0  0
   33.5820  -29.1950  -26.6320 N   0  0  0  0  0  0
   26.0370  -30.6700  -27.2750 O   0  0  0  0  0  0
   33.6600  -30.1000  -27.6560 C   0  0  0  0  0  0
   30.2480  -29.8200  -29.0050 N   0  0  0  0  0  0
   34.8580  -30.7480  -28.0180 C   0  0  0  0  0  0
   34.8580  -31.6720  -29.0590 C   0  0  0  0  0  0
   36.1990  -30.6420  -27.5450 C   0  0  0  0  0  0
   34.2910  -28.0600  -26.3420 C   0  0  0  0  0  0
   35.4440  -27.6340  -27.0120 C   0  0  0  0  0  0
   36.1010  -26.4680  -26.6250 C   0  0  0  0  0  0
   35.6100  -25.7130  -25.5640 C   0  0  0  0  0  0
   34.4720  -26.1250  -24.8960 C   0  0  0  0  0  0
   33.8200  -27.2880  -25.2830 C   0  0  0  0  0  0
   31.1400  -29.8480  -28.0210 C   0  0  0  0  0  0
   27.9030  -30.2400  -28.7340 C   0  0  0  0  0  0
   27.4320  -30.3790  -27.2900 C   0  0  0  0  0  0
   31.5825  -31.6266  -29.8933 H   0  0  0  0  0  0
   33.7048  -32.7198  -30.5434 H   0  0  0  0  0  0
   32.8306  -29.3249  -25.8392 H   0  0  0  0  0  0
   25.5138  -30.8061  -26.3170 H   0  0  0  0  0  0
   30.5355  -30.2073  -29.9936 H   0  0  0  0  0  0
   36.5453  -29.9912  -26.7421 H   0  0  0  0  0  0
   35.8317  -28.2205  -27.8449 H   0  0  0  0  0  0
   36.9991  -26.1473  -27.1529 H   0  0  0  0  0  0
   34.0860  -25.5358  -24.0641 H   0  0  0  0  0  0
   27.0723  -29.8658  -29.3503 H   0  0  0  0  0  0
   28.2211  -31.2249  -29.1064 H   0  0  0  0  0  0
   27.6161  -29.4381  -26.7506 H   0  0  0  0  0  0
   27.9823  -31.1960  -26.8004 H   0  0  0  0  0  0
  1  6  2  0  0  0
  1 12  1  0  0  0
  1 23  1  0  0  0
  2 22  1  0  0  0
  3 20  1  0  0  0
  4  7  2  0  0  0
  4 15  1  0  0  0
  5 23  2  0  0  0
  6  9  1  0  0  0
  6 26  1  0  0  0
  7 16  1  0  0  0
  8 13  1  0  0  0
  8 24  1  0  0  0
  9 15  2  0  0  0
  9 27  1  0  0  0
 10 12  1  0  0  0
 10 17  1  0  0  0
 10 28  1  0  0  0
 11 25  1  0  0  0
 11 29  1  0  0  0
 12 14  2  0  0  0
 13 23  1  0  0  0
 13 30  1  0  0  0
 14 15  1  0  0  0
 14 16  1  0  0  0
 16 31  1  0  0  0
 17 18  2  0  0  0
 17 22  1  0  0  0
 18 19  1  0  0  0
 18 32  1  0  0  0
 19 20  2  0  0  0
 19 33  1  0  0  0
 20 21  1  0  0  0
 21 22  2  0  0  0
 21 34  1  0  0  0
 24 25  1  0  0  0
 24 35  1  0  0  0
 24 36  1  0  0  0
 25 37  1  0  0  0
 25 38  1  0  0  0
M  END
> <s_m_source_file>
../3v04_ligand.sdf

> <i_m_source_file_index>
1

> <s_epik_input>
W09IXVtDSDJdW0NIMl1PW05IXUMoPU8pYyhbY0hdW2NIXWMoYzEyKU49TltDSDJdMiljMVtOSF1jM1tjSF1bY0hdYyhJKVtjSF1jM0Y=

> <s_epik_cmdline>
J2VwaWtfYXBwJywgJy1pbWFlJywgJ2xpZ2FuZF9wcm8ubWFlJywgJy1vbWFlJywgJ2xpZ2FuZF9wcmVwLm1hZScsICctbXMnLCAnMScsICctcGgnLCAnNycsICctcGh0JywgJzAuNScsICctbnQn

> <r_lp_tautomer_probability>
1

> <r_epik_Ionization_Penalty>
  0.0000

> <r_epik_Ionization_Penalty_Charging>
  0.0000

> <r_epik_Ionization_Penalty_Neutral>
  0.0000

> <r_epik_State_Penalty>
 -0.0000

> <r_epik_Charging_Adjusted_Penalty>
0

> <i_epik_Tot_Q>
0

> <i_epik_Tot_abs_Q>
0

> <s_epik_Chemistry_Notes>
This compound has a N-S or N-O group and may undergo hydrolysis at high or low pH.

$$$$
