3v0l_ligand
                    3D
 Schrodinger Suite 2020-3.
 68 71  0  0  1  0            999 V2000
   15.3570  -20.4350  -11.3140 C   0  0  0  0  0  0
   14.7380  -19.7840  -12.3850 C   0  0  0  0  0  0
   14.3570  -20.5550  -13.4870 C   0  0  0  0  0  0
   14.6050  -21.9270  -13.5150 C   0  0  0  0  0  0
   15.2410  -22.5590  -12.4330 C   0  0  0  0  0  0
   15.6270  -21.7760  -11.3580 C   0  0  0  0  0  0
   16.3550  -22.4810  -10.1640 C   0  0  0  0  0  0
   15.8640  -22.3680   -8.8580 C   0  0  0  0  0  0
   17.5230  -23.2650  -10.3790 C   0  0  0  0  0  0
   18.1230  -23.4500  -11.6340 O   0  0  0  0  0  0
   18.1810  -23.8830   -9.3720 N   0  0  0  0  0  0
   17.6580  -23.7590   -8.1150 C   0  0  0  0  0  0
   18.1900  -24.4000   -7.2090 O   0  0  0  0  0  0
   16.5500  -23.0680   -7.8580 N   0  0  0  0  0  0
   16.0750  -23.0200   -6.4440 C   0  0  2  0  0  0
   14.7190  -22.4630   -6.5000 O   0  0  0  0  0  0
   16.8750  -22.1250   -5.5790 C   0  0  2  0  0  0
   16.8510  -22.6610   -4.2680 O   0  0  0  0  0  0
   16.1410  -20.8510   -5.6880 C   0  0  2  0  0  0
   16.5470  -20.0170   -4.6410 O   0  0  0  0  0  0
   14.6900  -21.2460   -5.7130 C   0  0  1  0  0  0
   13.7380  -20.2550   -6.3510 C   0  0  0  0  0  0
   14.2570  -19.6070   -7.5100 O   0  0  0  0  0  0
   14.6780  -18.1330   -7.4900 P   0  0  1  0  0  0
   15.3400  -17.8240   -6.2090 O   0  0  0  0  0  0
   15.5810  -17.8160   -8.6690 O   0  5  0  0  0  0
   13.3270  -17.2750   -7.7030 O   0  0  0  0  0  0
   12.5520  -16.2650   -6.7540 P   0  0  1  0  0  0
   13.2860  -15.5960   -5.6700 O   0  0  0  0  0  0
   11.7860  -15.3230   -7.6380 O   0  5  0  0  0  0
   11.4710  -17.3220   -6.1980 O   0  0  0  0  0  0
   10.3290  -17.0520   -5.5490 C   0  0  1  0  0  0
    9.2490  -17.4660   -6.4520 O   0  0  0  0  0  0
    9.2640  -18.8190   -6.7390 C   0  0  2  0  0  0
    8.0260  -18.9310   -7.6400 C   0  0  0  0  0  0
    7.7580  -20.1910   -8.0890 O   0  0  0  0  0  0
    9.2930  -19.6850   -5.4680 C   0  0  2  0  0  0
    8.0530  -19.6820   -4.7510 O   0  0  0  0  0  0
   10.4130  -19.2490   -4.5430 C   0  0  2  0  0  0
   10.4190  -20.0060   -3.2790 O   0  0  0  0  0  0
   10.2190  -17.8650   -4.2880 C   0  0  1  0  0  0
   11.1590  -17.2920   -3.3570 O   0  0  0  0  0  0
   15.6299  -19.8636  -10.4268 H   0  0  0  0  0  0
   14.5581  -18.7092  -12.3616 H   0  0  0  0  0  0
   13.8611  -20.0790  -14.3329 H   0  0  0  0  0  0
   14.3032  -22.5136  -14.3827 H   0  0  0  0  0  0
   15.4250  -23.6333  -12.4397 H   0  0  0  0  0  0
   14.9870  -21.7623   -8.6297 H   0  0  0  0  0  0
   19.0965  -24.4552   -9.5827 H   0  0  0  0  0  0
   16.1332  -24.0288   -6.0093 H   0  0  0  0  0  0
   17.9450  -22.0172   -5.8104 H   0  0  0  0  0  0
   17.3628  -23.6106   -4.0526 H   0  0  0  0  0  0
   16.3786  -20.2131   -6.5521 H   0  0  0  0  0  0
   17.5963  -19.6945   -4.5700 H   0  0  0  0  0  0
   14.3043  -21.3695   -4.6903 H   0  0  0  0  0  0
   12.8184  -20.7751   -6.6574 H   0  0  0  0  0  0
   13.4890  -19.4666   -5.6255 H   0  0  0  0  0  0
   10.3636  -15.9727   -5.3392 H   0  0  0  0  0  0
   10.1997  -19.1057   -7.2413 H   0  0  0  0  0  0
    7.1372  -18.5962   -7.0851 H   0  0  0  0  0  0
    8.1620  -18.2992   -8.5302 H   0  0  0  0  0  0
    6.8903  -20.3696   -8.7411 H   0  0  0  0  0  0
    9.4131  -20.7367   -5.7670 H   0  0  0  0  0  0
    7.1223  -19.9720   -5.2606 H   0  0  0  0  0  0
   11.4058  -19.3940   -4.9939 H   0  0  0  0  0  0
   10.5585  -21.0970   -3.2920 H   0  0  0  0  0  0
    9.2236  -17.8666   -3.8199 H   0  0  0  0  0  0
   11.0921  -16.2260   -3.0938 H   0  0  0  0  0  0
  1  2  2  0  0  0
  1  6  1  0  0  0
  1 43  1  0  0  0
  2  3  1  0  0  0
  2 44  1  0  0  0
  3  4  2  0  0  0
  3 45  1  0  0  0
  4  5  1  0  0  0
  4 46  1  0  0  0
  5  6  2  0  0  0
  5 47  1  0  0  0
  6  7  1  0  0  0
  7  8  2  0  0  0
  7  9  1  0  0  0
  8 14  1  0  0  0
  8 48  1  0  0  0
  9 10  2  0  0  0
  9 11  1  0  0  0
 11 12  1  0  0  0
 11 49  1  0  0  0
 12 13  2  0  0  0
 12 14  1  0  0  0
 14 15  1  0  0  0
 15 16  1  0  0  0
 15 17  1  0  0  0
 15 50  1  0  0  0
 16 21  1  0  0  0
 17 18  1  0  0  0
 17 19  1  0  0  0
 17 51  1  0  0  0
 18 52  1  0  0  0
 19 20  1  0  0  0
 19 21  1  0  0  0
 19 53  1  0  0  0
 20 54  1  0  0  0
 21 22  1  0  0  0
 21 55  1  0  0  0
 22 23  1  0  0  0
 22 56  1  0  0  0
 22 57  1  0  0  0
 23 24  1  0  0  0
 24 25  2  0  0  0
 24 26  1  0  0  0
 24 27  1  0  0  0
 27 28  1  0  0  0
 28 29  2  0  0  0
 28 30  1  0  0  0
 28 31  1  0  0  0
 31 32  1  0  0  0
 32 33  1  0  0  0
 32 41  1  0  0  0
 32 58  1  0  0  0
 33 34  1  0  0  0
 34 35  1  0  0  0
 34 37  1  0  0  0
 34 59  1  0  0  0
 35 36  1  0  0  0
 35 60  1  0  0  0
 35 61  1  0  0  0
 36 62  1  0  0  0
 37 38  1  0  0  0
 37 39  1  0  0  0
 37 63  1  0  0  0
 38 64  1  0  0  0
 39 40  1  0  0  0
 39 41  1  0  0  0
 39 65  1  0  0  0
 40 66  1  0  0  0
 41 42  1  0  0  0
 41 67  1  0  0  0
 42 68  1  0  0  0
M  CHG  2  26  -1  30  -1
M  END
> <s_m_source_file>
../3v0l_ligand.sdf

> <i_m_source_file_index>
1

> <s_epik_input>
W2NIXTFbY0hdW2NIXVtjSF1bY0hdYzEtYzJbY0hdbihjKD1PKVtuSF1jMj1PKVtDQEBIXTNPW0NAQEhdKFtDQEBIXShbT0hdKVtDQEhdM1tPSF0pW0NIMl1PW1BAQF0oPU8pKFtPSF0pT1tQQEBdKD1PKShbT0hdKU9bQ0BIXTRPW0NASF0oW0NIMl1bT0hdKVtDQEhdKFtPSF0pW0NASF0oW09IXSlbQ0BIXTRbT0hd

> <s_epik_cmdline>
J2VwaWtfYXBwJywgJy1pbWFlJywgJ2xpZ2FuZF9wcm8ubWFlJywgJy1vbWFlJywgJ2xpZ2FuZF9wcmVwLm1hZScsICctbXMnLCAnMScsICctcGgnLCAnNycsICctcGh0JywgJzAuNScsICctbnQn

> <r_lp_tautomer_probability>
1

> <r_epik_Ionization_Penalty>
  0.0066

> <r_epik_Ionization_Penalty_Charging>
  0.0066

> <r_epik_Ionization_Penalty_Neutral>
  0.0000

> <r_epik_State_Penalty>
 -0.0000

> <r_epik_Charging_Adjusted_Penalty>
0.00655033975647986

> <i_epik_Tot_Q>
-2

> <i_epik_Tot_abs_Q>
2

> <s_epik_Chemistry_Notes>
This compound contains an acetal/aminal-like group ( X-CH(R)-Y where X, Y are N, S, or O) that may be acid/base labile, releasing an aldehyde.

$$$$
