3v1r_ligand
                    3D
 Schrodinger Suite 2020-3.
 33 33  0  0  1  0            999 V2000
   -5.3700  -36.7650    2.7820 C   0  0  2  0  0  0
   -5.1830  -36.3220    1.4790 O   0  0  0  0  0  0
   -5.2210  -38.2830    2.8020 C   0  0  2  0  0  0
   -4.6070  -38.7020    1.6180 O   0  0  0  0  0  0
   -6.5090  -39.0180    2.9730 C   0  0  0  0  0  0
   -6.9370  -39.0630    4.4390 C   0  0  1  0  0  0
   -7.7940  -37.8970    4.8080 C   0  0  0  0  0  0
   -7.0410  -36.6140    4.7090 C   0  0  0  0  0  0
   -6.6950  -36.2280    3.2850 C   0  0  1  0  0  0
   -6.6570  -34.8390    3.2010 O   0  0  0  0  0  0
   -9.1620  -40.2250    4.9190 C   0  0  0  0  0  0
   -7.6610  -40.3820    4.7330 C   0  0  0  0  0  0
   -6.9970  -41.1990    5.8300 C   0  0  0  0  0  0
   -4.5757  -36.3329    3.4084 H   0  0  0  0  0  0
   -4.2738  -36.6036    0.9275 H   0  0  0  0  0  0
   -4.5602  -38.5753    3.6314 H   0  0  0  0  0  0
   -3.6407  -38.2710    1.3172 H   0  0  0  0  0  0
   -7.2980  -38.5145    2.3951 H   0  0  0  0  0  0
   -6.3926  -40.0506    2.6123 H   0  0  0  0  0  0
   -6.0370  -38.9787    5.0658 H   0  0  0  0  0  0
   -8.6579  -37.8474    4.1289 H   0  0  0  0  0  0
   -8.1475  -38.0147    5.8430 H   0  0  0  0  0  0
   -7.6463  -35.7999    5.1343 H   0  0  0  0  0  0
   -6.0969  -36.6989    5.2670 H   0  0  0  0  0  0
   -7.4957  -36.5949    2.6260 H   0  0  0  0  0  0
   -6.4213  -34.3522    2.2432 H   0  0  0  0  0  0
   -9.5731  -39.6261    4.0930 H   0  0  0  0  0  0
   -9.3620  -39.7180    5.8745 H   0  0  0  0  0  0
   -9.6366  -41.2173    4.9241 H   0  0  0  0  0  0
   -7.5569  -40.9892    3.8217 H   0  0  0  0  0  0
   -5.9175  -41.2708    5.6313 H   0  0  0  0  0  0
   -7.4339  -42.2083    5.8509 H   0  0  0  0  0  0
   -7.1593  -40.7090    6.8014 H   0  0  0  0  0  0
  1  2  1  0  0  0
  1  3  1  0  0  0
  1  9  1  0  0  0
  1 14  1  0  0  0
  2 15  1  0  0  0
  3  4  1  0  0  0
  3  5  1  0  0  0
  3 16  1  0  0  0
  4 17  1  0  0  0
  5  6  1  0  0  0
  5 18  1  0  0  0
  5 19  1  0  0  0
  6  7  1  0  0  0
  6 12  1  0  0  0
  6 20  1  0  0  0
  7  8  1  0  0  0
  7 21  1  0  0  0
  7 22  1  0  0  0
  8  9  1  0  0  0
  8 23  1  0  0  0
  8 24  1  0  0  0
  9 10  1  0  0  0
  9 25  1  0  0  0
 10 26  1  0  0  0
 11 12  1  0  0  0
 11 27  1  0  0  0
 11 28  1  0  0  0
 11 29  1  0  0  0
 12 13  1  0  0  0
 12 30  1  0  0  0
 13 31  1  0  0  0
 13 32  1  0  0  0
 13 33  1  0  0  0
M  END
> <s_m_source_file>
../3v1r_ligand.sdf

> <i_m_source_file_index>
1

> <s_epik_input>
W09IXVtDQEBIXTFbQ0BIXShbT0hdKVtDSDJdW0NASF0oW0NIXShbQ0gzXSlbQ0gzXSlbQ0gyXVtDSDJdW0NASF0xW09IXQ==

> <s_epik_cmdline>
J2VwaWtfYXBwJywgJy1pbWFlJywgJ2xpZ2FuZF9wcm8ubWFlJywgJy1vbWFlJywgJ2xpZ2FuZF9wcmVwLm1hZScsICctbXMnLCAnMScsICctcGgnLCAnNycsICctcGh0JywgJzAuNScsICctbnQn

> <r_lp_tautomer_probability>
1

> <r_epik_Ionization_Penalty>
  0.0000

> <r_epik_Ionization_Penalty_Charging>
  0.0000

> <r_epik_Ionization_Penalty_Neutral>
  0.0000

> <r_epik_State_Penalty>
 -0.0000

> <r_epik_Charging_Adjusted_Penalty>
0

> <i_epik_Tot_Q>
0

> <i_epik_Tot_abs_Q>
0

$$$$
