3v2n_ligand
                    3D
 Schrodinger Suite 2020-3.
 43 42  0  0  1  0            999 V2000
    0.1770   -0.2640   11.6550 C   0  0  0  0  0  0
   -0.9240   -0.8240   11.6440 O   0  0  0  0  0  0
    0.3730    0.7560   12.3390 O   0  5  0  0  0  0
    1.2890   -0.8500   10.8080 C   0  0  0  0  0  0
    1.4990   -0.1630    9.4720 C   0  0  0  0  0  0
    2.6260   -0.7900    8.6700 C   0  0  0  0  0  0
    3.3320    0.2050    7.7670 C   0  0  0  0  0  0
    3.9360   -0.4270    6.5220 C   0  0  0  0  0  0
    5.2280    0.2820    6.1100 C   0  0  0  0  0  0
    5.8320   -0.3590    4.8520 C   0  0  0  0  0  0
    6.7500    0.5980    4.1240 C   0  0  0  0  0  0
    7.3770    0.0290    2.8760 C   0  0  0  0  0  0
    8.8330    0.4270    2.7010 C   0  0  0  0  0  0
    8.9980    1.2250    1.4060 C   0  0  0  0  0  0
    9.5200    0.3230    0.2940 C   0  0  0  0  0  0
   10.8760    0.7890   -0.2270 C   0  0  0  0  0  0
    2.2414   -0.7802   11.3540 H   0  0  0  0  0  0
    1.0673   -1.9053   10.5909 H   0  0  0  0  0  0
    0.5776   -0.2325    8.8751 H   0  0  0  0  0  0
    1.7487    0.8952    9.6390 H   0  0  0  0  0  0
    3.3755   -1.2097    9.3571 H   0  0  0  0  0  0
    2.2218   -1.5916    8.0343 H   0  0  0  0  0  0
    2.6154    0.9698    7.4332 H   0  0  0  0  0  0
    4.1507    0.6869    8.3216 H   0  0  0  0  0  0
    4.1652   -1.4841    6.7218 H   0  0  0  0  0  0
    3.2186   -0.3582    5.6910 H   0  0  0  0  0  0
    5.0141    1.3400    5.8982 H   0  0  0  0  0  0
    5.9610    0.2126    6.9273 H   0  0  0  0  0  0
    6.4134   -1.2483    5.1367 H   0  0  0  0  0  0
    5.0238   -0.6534    4.1664 H   0  0  0  0  0  0
    6.1832    1.4906    3.8208 H   0  0  0  0  0  0
    7.5730    0.8952    4.7905 H   0  0  0  0  0  0
    7.3356   -1.0696    2.9130 H   0  0  0  0  0  0
    6.8269    0.3871    1.9933 H   0  0  0  0  0  0
    9.1488    1.0463    3.5535 H   0  0  0  0  0  0
    9.4573   -0.4775    2.6538 H   0  0  0  0  0  0
    8.0251    1.6408    1.1051 H   0  0  0  0  0  0
    9.7126    2.0452    1.5692 H   0  0  0  0  0  0
    9.6316   -0.7026    0.6758 H   0  0  0  0  0  0
    8.8088    0.3265   -0.5452 H   0  0  0  0  0  0
   11.2143    0.1122   -1.0254 H   0  0  0  0  0  0
   11.6071    0.7809    0.5949 H   0  0  0  0  0  0
   10.7843    1.8099   -0.6261 H   0  0  0  0  0  0
  1  2  2  0  0  0
  1  3  1  0  0  0
  1  4  1  0  0  0
  4  5  1  0  0  0
  4 17  1  0  0  0
  4 18  1  0  0  0
  5  6  1  0  0  0
  5 19  1  0  0  0
  5 20  1  0  0  0
  6  7  1  0  0  0
  6 21  1  0  0  0
  6 22  1  0  0  0
  7  8  1  0  0  0
  7 23  1  0  0  0
  7 24  1  0  0  0
  8  9  1  0  0  0
  8 25  1  0  0  0
  8 26  1  0  0  0
  9 10  1  0  0  0
  9 27  1  0  0  0
  9 28  1  0  0  0
 10 11  1  0  0  0
 10 29  1  0  0  0
 10 30  1  0  0  0
 11 12  1  0  0  0
 11 31  1  0  0  0
 11 32  1  0  0  0
 12 13  1  0  0  0
 12 33  1  0  0  0
 12 34  1  0  0  0
 13 14  1  0  0  0
 13 35  1  0  0  0
 13 36  1  0  0  0
 14 15  1  0  0  0
 14 37  1  0  0  0
 14 38  1  0  0  0
 15 16  1  0  0  0
 15 39  1  0  0  0
 15 40  1  0  0  0
 16 41  1  0  0  0
 16 42  1  0  0  0
 16 43  1  0  0  0
M  CHG  1   3  -1
M  END
> <s_m_source_file>
../3v2n_ligand.sdf

> <i_m_source_file_index>
1

> <s_epik_input>
Tz1DKFtPSF0pW0NIMl1bQ0gyXVtDSDJdW0NIMl1bQ0gyXVtDSDJdW0NIMl1bQ0gyXVtDSDJdW0NIMl1bQ0gyXVtDSDJdW0NIM10=

> <s_epik_cmdline>
J2VwaWtfYXBwJywgJy1pbWFlJywgJ2xpZ2FuZF9wcm8ubWFlJywgJy1vbWFlJywgJ2xpZ2FuZF9wcmVwLm1hZScsICctbXMnLCAnMScsICctcGgnLCAnNycsICctcGh0JywgJzAuNScsICctbnQn

> <r_lp_tautomer_probability>
1

> <r_epik_Ionization_Penalty>
  0.0049

> <r_epik_Ionization_Penalty_Charging>
  0.0049

> <r_epik_Ionization_Penalty_Neutral>
  0.0000

> <r_epik_State_Penalty>
 -0.0000

> <r_epik_Charging_Adjusted_Penalty>
0.00486649495677768

> <i_epik_Tot_Q>
-1

> <i_epik_Tot_abs_Q>
1

$$$$
