3v2o_ligand
                    3D
 Schrodinger Suite 2020-3.
171173  0  0  1  0            999 V2000
    5.2110    2.1360   13.1090 N   0  3  0  0  0  0
    4.1710    3.1770   12.8790 C   0  0  2  0  0  0
    2.9140    2.5590   12.2500 C   0  0  0  0  0  0
    2.9510    2.1200   11.0960 O   0  0  0  0  0  0
    4.7240    4.3100   12.0060 C   0  0  0  0  0  0
    1.8040    2.5140   13.0110 N   0  0  0  0  0  0
    0.5370    1.9440   12.5430 C   0  0  2  0  0  0
    0.1110    2.5430   11.2030 C   0  0  0  0  0  0
    0.0700    3.7660   11.0690 O   0  0  0  0  0  0
   -0.4470    2.3490   13.6370 C   0  0  0  0  0  0
    0.3840    2.5070   14.8440 C   0  0  0  0  0  0
    1.6730    3.0770   14.3650 C   0  0  0  0  0  0
   -0.1860    1.6900   10.2240 N   0  0  0  0  0  0
   -0.4210    2.1520    8.8530 C   0  0  2  0  0  0
   -1.6880    1.5620    8.2550 C   0  0  0  0  0  0
   -1.9980    0.3920    8.4520 O   0  0  0  0  0  0
    0.7620    1.8030    7.8950 C   0  0  2  0  0  0
    2.0120    1.9220    8.5840 O   0  0  0  0  0  0
    0.7780    2.7330    6.6900 C   0  0  0  0  0  0
   -2.3980    2.3830    7.4990 N   0  0  0  0  0  0
   -3.5460    1.9110    6.7550 C   0  0  2  0  0  0
   -3.1250    1.6760    5.3170 C   0  0  0  0  0  0
   -2.2830    2.4050    4.8010 O   0  0  0  0  0  0
   -4.6880    2.9240    6.8350 C   0  0  0  0  0  0
   -5.2690    3.1440    8.2320 C   0  0  0  0  0  0
   -6.0670    4.4260    8.2770 C   0  0  0  0  0  0
   -6.1250    1.9710    8.6800 C   0  0  0  0  0  0
   -3.7090    0.6550    4.6710 N   0  0  0  0  0  0
   -3.4400    0.3460    3.2740 C   0  0  2  0  0  0
   -3.8260    1.4810    2.3530 C   0  0  0  0  0  0
   -4.8210    2.1670    2.5810 O   0  0  0  0  0  0
   -4.3460   -0.8580    2.9930 C   0  0  0  0  0  0
   -5.4190   -0.7650    4.0060 C   0  0  0  0  0  0
   -4.7520   -0.2210    5.2300 C   0  0  0  0  0  0
   -3.0280    1.6820    1.3130 N   0  0  0  0  0  0
   -3.3670    2.6550    0.2860 C   0  0  2  0  0  0
   -4.5420    2.0730   -0.4840 C   0  0  0  0  0  0
   -4.4700    0.9500   -0.9740 O   0  0  0  0  0  0
   -2.1580    2.9250   -0.6220 C   0  0  0  0  0  0
   -2.3220    4.0940   -1.5870 C   0  0  0  0  0  0
   -2.6580    5.4020   -0.8730 C   0  0  0  0  0  0
   -2.9510    6.5090   -1.8860 C   0  0  0  0  0  0
   -3.8740    7.5570   -1.3460 N   0  3  0  0  0  0
   -5.6380    2.8120   -0.5400 N   0  0  0  0  0  0
   -6.8290    2.3530   -1.2430 C   0  0  2  0  0  0
   -6.8350    2.8360   -2.7050 C   0  0  0  0  0  0
   -6.2050    3.8560   -3.0210 O   0  0  0  0  0  0
   -8.0810    2.8450   -0.5190 C   0  0  0  0  0  0
   -8.2790    2.3720    0.9240 C   0  0  0  0  0  0
   -9.4010    3.1340    1.5680 C   0  0  0  0  0  0
   -8.5580    0.8820    0.9770 C   0  0  0  0  0  0
   -7.5600    2.1150   -3.5910 N   0  0  0  0  0  0
   -7.6700    2.4980   -5.0010 C   0  0  2  0  0  0
   -8.1110    3.9470   -5.2200 C   0  0  0  0  0  0
   -9.0390    4.4300   -4.5580 O   0  0  0  0  0  0
   -8.7200    1.5310   -5.5420 C   0  0  0  0  0  0
   -8.5710    0.3360   -4.7110 C   0  0  0  0  0  0
   -8.1850    0.8020   -3.3450 C   0  0  0  0  0  0
   -7.4370    4.6180   -6.1440 N   0  0  0  0  0  0
   -7.6400    6.0290   -6.4120 C   0  0  2  0  0  0
   -7.7620    6.1970   -7.9230 C   0  0  0  0  0  0
   -6.7870    5.9870   -8.6490 O   0  0  0  0  0  0
   -6.4520    6.8220   -5.8540 C   0  0  0  0  0  0
   -6.5380    8.2010   -6.1720 O   0  0  0  0  0  0
   -8.9540    6.5490   -8.4070 N   0  0  0  0  0  0
   -9.2060    6.6110   -9.8510 C   0  0  2  0  0  0
   -9.1640    8.0420  -10.3490 C   0  0  0  0  0  0
   -9.6900    8.9460   -9.6960 O   0  0  0  0  0  0
  -10.5720    6.0050  -10.1870 C   0  0  0  0  0  0
  -10.8210    4.4880  -10.1520 C   0  0  0  0  0  0
   -9.9920    3.7070   -9.1390 C   0  0  0  0  0  0
  -12.3120    4.2480   -9.9230 C   0  0  0  0  0  0
   -8.5450    8.2480  -11.5100 N   0  0  0  0  0  0
   -8.5270    9.5610  -12.1550 C   0  0  2  0  0  0
   -9.9220    9.9490  -12.6640 C   0  0  0  0  0  0
  -10.8130    9.1060  -12.8020 O   0  0  0  0  0  0
   -7.5090    9.5880  -13.2990 C   0  0  0  0  0  0
   -7.9870    8.8790  -14.4300 O   0  0  0  0  0  0
  -10.1880   11.1180  -12.9580 O   0  0  0  0  0  0
    4.7946    1.3340   13.7362 H   0  0  0  0  0  0
    6.0756    2.5876   13.6174 H   0  0  0  0  0  0
    5.5309    1.7176   12.1433 H   0  0  0  0  0  0
    3.9101    3.5854   13.8665 H   0  0  0  0  0  0
    5.6220    4.7331   12.4799 H   0  0  0  0  0  0
    3.9615    5.0955   11.8984 H   0  0  0  0  0  0
    4.9852    3.9141   11.0135 H   0  0  0  0  0  0
    0.6356    0.8592   12.3900 H   0  0  0  0  0  0
   -0.9422    3.2898   13.3548 H   0  0  0  0  0  0
   -1.2030    1.5596   13.7608 H   0  0  0  0  0  0
   -0.1187    3.1853   15.5491 H   0  0  0  0  0  0
    0.5298    1.5260   15.3198 H   0  0  0  0  0  0
    2.5289    2.7592   14.9786 H   0  0  0  0  0  0
    1.6525    4.1752   14.3051 H   0  0  0  0  0  0
   -0.2534    0.6183   10.4624 H   0  0  0  0  0  0
   -0.5379    3.2364    8.9962 H   0  0  0  0  0  0
    0.6998    0.7558    7.5639 H   0  0  0  0  0  0
    2.1998    1.3264    9.4895 H   0  0  0  0  0  0
   -0.1775    2.6514    6.1511 H   0  0  0  0  0  0
    1.6026    2.4499    6.0193 H   0  0  0  0  0  0
    0.9205    3.7698    7.0289 H   0  0  0  0  0  0
   -2.1025    3.4410    7.4416 H   0  0  0  0  0  0
   -3.8685    0.9671    7.2187 H   0  0  0  0  0  0
   -4.3330    3.9050    6.4864 H   0  0  0  0  0  0
   -5.5209    2.5885    6.1996 H   0  0  0  0  0  0
   -4.4304    3.2308    8.9385 H   0  0  0  0  0  0
   -5.4336    5.2638    7.9502 H   0  0  0  0  0  0
   -6.4125    4.6069    9.3056 H   0  0  0  0  0  0
   -6.9360    4.3406    7.6080 H   0  0  0  0  0  0
   -5.5297    1.0468    8.6414 H   0  0  0  0  0  0
   -6.9942    1.8754    8.0127 H   0  0  0  0  0  0
   -6.4707    2.1417    9.7102 H   0  0  0  0  0  0
   -2.3610    0.1801    3.1392 H   0  0  0  0  0  0
   -4.7432   -0.7871    1.9697 H   0  0  0  0  0  0
   -3.7651   -1.7863    3.0973 H   0  0  0  0  0  0
   -6.2095   -0.0922    3.6421 H   0  0  0  0  0  0
   -5.8419   -1.7645    4.1850 H   0  0  0  0  0  0
   -4.2827   -1.0055    5.8418 H   0  0  0  0  0  0
   -5.4336    0.3736    5.8560 H   0  0  0  0  0  0
   -2.0980    1.1000    1.2337 H   0  0  0  0  0  0
   -3.6427    3.6049    0.7672 H   0  0  0  0  0  0
   -1.2773    3.1503   -0.0026 H   0  0  0  0  0  0
   -1.9557    2.0359   -1.2373 H   0  0  0  0  0  0
   -1.3852    4.2440   -2.1438 H   0  0  0  0  0  0
   -3.1370    3.8754   -2.2927 H   0  0  0  0  0  0
   -3.5447    5.2561   -0.2386 H   0  0  0  0  0  0
   -1.8062    5.7078   -0.2478 H   0  0  0  0  0  0
   -2.0106    7.0031   -2.1714 H   0  0  0  0  0  0
   -3.4221    6.0732   -2.7794 H   0  0  0  0  0  0
   -4.0480    8.3239   -2.1151 H   0  0  0  0  0  0
   -3.4203    8.0234   -0.4591 H   0  0  0  0  0  0
   -4.8318    7.0935   -1.0670 H   0  0  0  0  0  0
   -5.6374    3.7923   -0.0410 H   0  0  0  0  0  0
   -6.7777    1.2545   -1.2162 H   0  0  0  0  0  0
   -8.0690    3.9439   -0.4715 H   0  0  0  0  0  0
   -8.9755    2.5114   -1.0654 H   0  0  0  0  0  0
   -7.3590    2.5670    1.4945 H   0  0  0  0  0  0
   -9.1858    4.2118    1.5225 H   0  0  0  0  0  0
   -9.4993    2.8237    2.6187 H   0  0  0  0  0  0
  -10.3399    2.9248    1.0345 H   0  0  0  0  0  0
   -7.7290    0.3366    0.5023 H   0  0  0  0  0  0
   -9.4940    0.6650    0.4415 H   0  0  0  0  0  0
   -8.6533    0.5639    2.0257 H   0  0  0  0  0  0
   -6.6768    2.4268   -5.4685 H   0  0  0  0  0  0
   -9.7188    1.9809   -5.4421 H   0  0  0  0  0  0
   -8.5157    1.3237   -6.6028 H   0  0  0  0  0  0
   -9.5249   -0.2109   -4.6809 H   0  0  0  0  0  0
   -7.7904   -0.3116   -5.1367 H   0  0  0  0  0  0
   -7.4554    0.1327   -2.8656 H   0  0  0  0  0  0
   -9.0558    0.9283   -2.6848 H   0  0  0  0  0  0
   -6.6925    4.0501   -6.7213 H   0  0  0  0  0  0
   -8.5640    6.3567   -5.9132 H   0  0  0  0  0  0
   -6.4270    6.7229   -4.7588 H   0  0  0  0  0  0
   -5.5167    6.4290   -6.2792 H   0  0  0  0  0  0
   -5.7521    8.8931   -5.8353 H   0  0  0  0  0  0
   -9.7574    6.7958   -7.6974 H   0  0  0  0  0  0
   -8.3929    6.0323  -10.3137 H   0  0  0  0  0  0
  -11.3275    6.3941   -9.4886 H   0  0  0  0  0  0
  -10.8502    6.2758  -11.2162 H   0  0  0  0  0  0
  -10.4891    4.0894  -11.1220 H   0  0  0  0  0  0
   -8.9228    3.8922   -9.3195 H   0  0  0  0  0  0
  -10.2010    2.6322   -9.2449 H   0  0  0  0  0  0
  -10.2539    4.0330   -8.1216 H   0  0  0  0  0  0
  -12.8930    4.8189  -10.6623 H   0  0  0  0  0  0
  -12.5848    4.5765   -8.9093 H   0  0  0  0  0  0
  -12.5318    3.1758  -10.0326 H   0  0  0  0  0  0
   -8.0373    7.3952  -11.9843 H   0  0  0  0  0  0
   -8.2181   10.2633  -11.3667 H   0  0  0  0  0  0
   -7.3170   10.6300  -13.5944 H   0  0  0  0  0  0
   -6.5699    9.1226  -12.9652 H   0  0  0  0  0  0
   -7.3678    8.8075  -15.3364 H   0  0  0  0  0  0
  -11.1930   11.3787  -13.3213 H   0  0  0  0  0  0
  1  2  1  0  0  0
  1 80  1  0  0  0
  1 81  1  0  0  0
  1 82  1  0  0  0
  2  3  1  0  0  0
  2  5  1  0  0  0
  2 83  1  0  0  0
  3  4  2  0  0  0
  3  6  1  0  0  0
  5 84  1  0  0  0
  5 85  1  0  0  0
  5 86  1  0  0  0
  6  7  1  0  0  0
  6 12  1  0  0  0
  7  8  1  0  0  0
  7 10  1  0  0  0
  7 87  1  0  0  0
  8  9  2  0  0  0
  8 13  1  0  0  0
 10 11  1  0  0  0
 10 88  1  0  0  0
 10 89  1  0  0  0
 11 12  1  0  0  0
 11 90  1  0  0  0
 11 91  1  0  0  0
 12 92  1  0  0  0
 12 93  1  0  0  0
 13 14  1  0  0  0
 13 94  1  0  0  0
 14 15  1  0  0  0
 14 17  1  0  0  0
 14 95  1  0  0  0
 15 16  2  0  0  0
 15 20  1  0  0  0
 17 18  1  0  0  0
 17 19  1  0  0  0
 17 96  1  0  0  0
 18 97  1  0  0  0
 19 98  1  0  0  0
 19 99  1  0  0  0
 19100  1  0  0  0
 20 21  1  0  0  0
 20101  1  0  0  0
 21 22  1  0  0  0
 21 24  1  0  0  0
 21102  1  0  0  0
 22 23  2  0  0  0
 22 28  1  0  0  0
 24 25  1  0  0  0
 24103  1  0  0  0
 24104  1  0  0  0
 25 26  1  0  0  0
 25 27  1  0  0  0
 25105  1  0  0  0
 26106  1  0  0  0
 26107  1  0  0  0
 26108  1  0  0  0
 27109  1  0  0  0
 27110  1  0  0  0
 27111  1  0  0  0
 28 29  1  0  0  0
 28 34  1  0  0  0
 29 30  1  0  0  0
 29 32  1  0  0  0
 29112  1  0  0  0
 30 31  2  0  0  0
 30 35  1  0  0  0
 32 33  1  0  0  0
 32113  1  0  0  0
 32114  1  0  0  0
 33 34  1  0  0  0
 33115  1  0  0  0
 33116  1  0  0  0
 34117  1  0  0  0
 34118  1  0  0  0
 35 36  1  0  0  0
 35119  1  0  0  0
 36 37  1  0  0  0
 36 39  1  0  0  0
 36120  1  0  0  0
 37 38  2  0  0  0
 37 44  1  0  0  0
 39 40  1  0  0  0
 39121  1  0  0  0
 39122  1  0  0  0
 40 41  1  0  0  0
 40123  1  0  0  0
 40124  1  0  0  0
 41 42  1  0  0  0
 41125  1  0  0  0
 41126  1  0  0  0
 42 43  1  0  0  0
 42127  1  0  0  0
 42128  1  0  0  0
 43129  1  0  0  0
 43130  1  0  0  0
 43131  1  0  0  0
 44 45  1  0  0  0
 44132  1  0  0  0
 45 46  1  0  0  0
 45 48  1  0  0  0
 45133  1  0  0  0
 46 47  2  0  0  0
 46 52  1  0  0  0
 48 49  1  0  0  0
 48134  1  0  0  0
 48135  1  0  0  0
 49 50  1  0  0  0
 49 51  1  0  0  0
 49136  1  0  0  0
 50137  1  0  0  0
 50138  1  0  0  0
 50139  1  0  0  0
 51140  1  0  0  0
 51141  1  0  0  0
 51142  1  0  0  0
 52 53  1  0  0  0
 52 58  1  0  0  0
 53 54  1  0  0  0
 53 56  1  0  0  0
 53143  1  0  0  0
 54 55  2  0  0  0
 54 59  1  0  0  0
 56 57  1  0  0  0
 56144  1  0  0  0
 56145  1  0  0  0
 57 58  1  0  0  0
 57146  1  0  0  0
 57147  1  0  0  0
 58148  1  0  0  0
 58149  1  0  0  0
 59 60  1  0  0  0
 59150  1  0  0  0
 60 61  1  0  0  0
 60 63  1  0  0  0
 60151  1  0  0  0
 61 62  2  0  0  0
 61 65  1  0  0  0
 63 64  1  0  0  0
 63152  1  0  0  0
 63153  1  0  0  0
 64154  1  0  0  0
 65 66  1  0  0  0
 65155  1  0  0  0
 66 67  1  0  0  0
 66 69  1  0  0  0
 66156  1  0  0  0
 67 68  2  0  0  0
 67 73  1  0  0  0
 69 70  1  0  0  0
 69157  1  0  0  0
 69158  1  0  0  0
 70 71  1  0  0  0
 70 72  1  0  0  0
 70159  1  0  0  0
 71160  1  0  0  0
 71161  1  0  0  0
 71162  1  0  0  0
 72163  1  0  0  0
 72164  1  0  0  0
 72165  1  0  0  0
 73 74  1  0  0  0
 73166  1  0  0  0
 74 75  1  0  0  0
 74 77  1  0  0  0
 74167  1  0  0  0
 75 76  2  0  0  0
 75 79  1  0  0  0
 77 78  1  0  0  0
 77168  1  0  0  0
 77169  1  0  0  0
 78170  1  0  0  0
 79171  1  0  0  0
M  CHG  2   1   1  43   1
M  END
> <s_m_source_file>
../3v2o_ligand.sdf

> <i_m_source_file_index>
1

> <s_epik_input>
W05IMytdW0NAQEhdKFtDSDNdKUMoPU8pTjFbQ0BASF0oW0NIMl1bQ0gyXVtDSDJdMSlDKD1PKVtOSF1bQ0BASF0oW0NASF0oW09IXSlbQ0gzXSlDKD1PKVtOSF1bQ0BASF0oW0NIMl1bQ0hdKFtDSDNdKVtDSDNdKUMoPU8pTjJbQ0BASF0oW0NIMl1bQ0gyXVtDSDJdMilDKD1PKVtOSF1bQ0BASF0oW0NIMl1bQ0gyXVtDSDJdW0NIMl1bTkgzK10pQyg9TylbTkhdW0NAQEhdKFtDSDJdW0NIXShbQ0gzXSlbQ0gzXSlDKD1PKU4zW0NAQEhdKFtDSDJdW0NIMl1bQ0gyXTMpQyg9TylbTkhdW0NAQEhdKFtDSDJdW09IXSlDKD1PKVtOSF1bQ0BASF0oW0NIMl1bQ0hdKFtDSDNdKVtDSDNdKUMoPU8pW05IXVtDQEhdKEMoPU8pW09IXSlbQ0gyXVtPSF0=

> <s_epik_cmdline>
J2VwaWtfYXBwJywgJy1pbWFlJywgJ2xpZ2FuZF9wcm8ubWFlJywgJy1vbWFlJywgJ2xpZ2FuZF9wcmVwLm1hZScsICctbXMnLCAnMScsICctcGgnLCAnNycsICctcGh0JywgJzAuNScsICctbnQn

> <s_epik_pKa_notes>
Molecule size exceeds maximum supported for generating protonation states

$$$$
