3v2p_ligand
                    3D
 Schrodinger Suite 2020-3.
 55 54  0  0  1  0            999 V2000
    0.2880   -0.1900   11.3940 C   0  0  0  0  0  0
   -0.4980   -1.1340   11.5470 O   0  0  0  0  0  0
    0.0240    0.9440   11.8210 O   0  5  0  0  0  0
    1.5920   -0.4530   10.6650 C   0  0  0  0  0  0
    1.4520   -0.6400    9.1670 C   0  0  0  0  0  0
    2.7800   -0.9010    8.4810 C   0  0  0  0  0  0
    3.4780    0.3800    8.0480 C   0  0  0  0  0  0
    3.7600    0.4540    6.5570 C   0  0  0  0  0  0
    5.1320   -0.1450    6.2240 C   0  0  0  0  0  0
    5.4150   -0.0660    4.7200 C   0  0  0  0  0  0
    6.8680    0.2390    4.4270 C   0  0  0  0  0  0
    7.1930    0.3320    2.9540 C   0  0  0  0  0  0
    8.6780    0.3710    2.6640 C   0  0  0  0  0  0
    8.9130    1.1280    1.3650 C   0  0  0  0  0  0
    9.6380    0.2380    0.3740 C   0  0  0  0  0  0
   11.0580    0.7150    0.1480 C   0  0  0  0  0  0
   11.5800    0.2950   -1.2200 C   0  0  0  0  0  0
   12.4750    1.3870   -1.8020 C   0  0  0  0  0  0
   12.7610    1.2980   -3.3260 C   0  0  0  0  0  0
   14.0090    0.6510   -3.9020 C   0  0  0  0  0  0
    2.2750    0.3957   10.8176 H   0  0  0  0  0  0
    2.0536   -1.3705   11.0588 H   0  0  0  0  0  0
    0.7946   -1.4984    8.9645 H   0  0  0  0  0  0
    1.0170    0.2677    8.7232 H   0  0  0  0  0  0
    3.4507   -1.4338    9.1711 H   0  0  0  0  0  0
    2.6146   -1.5149    7.5834 H   0  0  0  0  0  0
    2.8483    1.2450    8.3034 H   0  0  0  0  0  0
    4.4445    0.4643    8.5665 H   0  0  0  0  0  0
    2.9887   -0.1078    6.0097 H   0  0  0  0  0  0
    3.7472    1.5052    6.2331 H   0  0  0  0  0  0
    5.9149    0.4115    6.7600 H   0  0  0  0  0  0
    5.1559   -1.2006    6.5325 H   0  0  0  0  0  0
    5.1662   -1.0285    4.2491 H   0  0  0  0  0  0
    4.8019    0.7303    4.2728 H   0  0  0  0  0  0
    7.1387    1.2041    4.8802 H   0  0  0  0  0  0
    7.5017   -0.5549    4.8492 H   0  0  0  0  0  0
    6.7785   -0.5426    2.4312 H   0  0  0  0  0  0
    6.7524    1.2503    2.5386 H   0  0  0  0  0  0
    9.1992    0.8801    3.4881 H   0  0  0  0  0  0
    9.0599   -0.6561    2.5676 H   0  0  0  0  0  0
    7.9461    1.4338    0.9388 H   0  0  0  0  0  0
    9.5238    2.0205    1.5660 H   0  0  0  0  0  0
    9.6705   -0.7912    0.7610 H   0  0  0  0  0  0
    9.1056    0.2512   -0.5885 H   0  0  0  0  0  0
   11.0902    1.8128    0.2096 H   0  0  0  0  0  0
   11.7161    0.2851    0.9175 H   0  0  0  0  0  0
   12.1626   -0.6328   -1.1211 H   0  0  0  0  0  0
   10.7320    0.1248   -1.8996 H   0  0  0  0  0  0
   12.0088    2.3696   -1.6373 H   0  0  0  0  0  0
   13.4567    1.3593   -1.3066 H   0  0  0  0  0  0
   11.9566    0.7311   -3.8175 H   0  0  0  0  0  0
   12.8071    2.3118   -3.7503 H   0  0  0  0  0  0
   13.9807    0.7130   -4.9999 H   0  0  0  0  0  0
   14.0497   -0.4046   -3.5952 H   0  0  0  0  0  0
   14.9002    1.1762   -3.5279 H   0  0  0  0  0  0
  1  2  2  0  0  0
  1  3  1  0  0  0
  1  4  1  0  0  0
  4  5  1  0  0  0
  4 21  1  0  0  0
  4 22  1  0  0  0
  5  6  1  0  0  0
  5 23  1  0  0  0
  5 24  1  0  0  0
  6  7  1  0  0  0
  6 25  1  0  0  0
  6 26  1  0  0  0
  7  8  1  0  0  0
  7 27  1  0  0  0
  7 28  1  0  0  0
  8  9  1  0  0  0
  8 29  1  0  0  0
  8 30  1  0  0  0
  9 10  1  0  0  0
  9 31  1  0  0  0
  9 32  1  0  0  0
 10 11  1  0  0  0
 10 33  1  0  0  0
 10 34  1  0  0  0
 11 12  1  0  0  0
 11 35  1  0  0  0
 11 36  1  0  0  0
 12 13  1  0  0  0
 12 37  1  0  0  0
 12 38  1  0  0  0
 13 14  1  0  0  0
 13 39  1  0  0  0
 13 40  1  0  0  0
 14 15  1  0  0  0
 14 41  1  0  0  0
 14 42  1  0  0  0
 15 16  1  0  0  0
 15 43  1  0  0  0
 15 44  1  0  0  0
 16 17  1  0  0  0
 16 45  1  0  0  0
 16 46  1  0  0  0
 17 18  1  0  0  0
 17 47  1  0  0  0
 17 48  1  0  0  0
 18 19  1  0  0  0
 18 49  1  0  0  0
 18 50  1  0  0  0
 19 20  1  0  0  0
 19 51  1  0  0  0
 19 52  1  0  0  0
 20 53  1  0  0  0
 20 54  1  0  0  0
 20 55  1  0  0  0
M  CHG  1   3  -1
M  END
> <s_m_source_file>
../3v2p_ligand.sdf

> <i_m_source_file_index>
1

> <s_epik_input>
Tz1DKFtPSF0pW0NIMl1bQ0gyXVtDSDJdW0NIMl1bQ0gyXVtDSDJdW0NIMl1bQ0gyXVtDSDJdW0NIMl1bQ0gyXVtDSDJdW0NIMl1bQ0gyXVtDSDJdW0NIMl1bQ0gzXQ==

> <s_epik_cmdline>
J2VwaWtfYXBwJywgJy1pbWFlJywgJ2xpZ2FuZF9wcm8ubWFlJywgJy1vbWFlJywgJ2xpZ2FuZF9wcmVwLm1hZScsICctbXMnLCAnMScsICctcGgnLCAnNycsICctcGh0JywgJzAuNScsICctbnQn

> <r_lp_tautomer_probability>
1

> <r_epik_Ionization_Penalty>
  0.0049

> <r_epik_Ionization_Penalty_Charging>
  0.0049

> <r_epik_Ionization_Penalty_Neutral>
  0.0000

> <r_epik_State_Penalty>
 -0.0000

> <r_epik_Charging_Adjusted_Penalty>
0.00486649495677768

> <i_epik_Tot_Q>
-1

> <i_epik_Tot_abs_Q>
1

$$$$
