3v2q_ligand
                    3D
 Schrodinger Suite 2020-3.
 49 48  0  0  1  0            999 V2000
    0.3710   -0.4450   11.3500 C   0  0  0  0  0  0
   -0.4450   -1.2760   10.9130 O   0  5  0  0  0  0
    0.0890    0.2680   12.3100 O   0  0  0  0  0  0
    1.7320   -0.3200   10.6840 C   0  0  0  0  0  0
    1.7250   -0.4120    9.1670 C   0  0  0  0  0  0
    3.0830   -0.8010    8.5930 C   0  0  0  0  0  0
    3.7240    0.3080    7.7540 C   0  0  0  0  0  0
    4.1440   -0.1490    6.3620 C   0  0  0  0  0  0
    5.4870    0.4710    5.9410 C   0  0  0  0  0  0
    5.8960    0.0050    4.5310 C   0  0  0  0  0  0
    7.2810    0.4880    4.1390 C   0  0  0  0  0  0
    7.7280    0.0590    2.7540 C   0  0  0  0  0  0
    8.9860    0.7660    2.2690 C   0  0  0  0  0  0
    9.1750    0.5270    0.7660 C   0  0  0  0  0  0
   10.6410    0.2370    0.4620 C   0  0  0  0  0  0
   11.1530    1.0260   -0.7480 C   0  0  0  0  0  0
   12.3060    0.2970   -1.4550 C   0  0  0  0  0  0
   12.8460    1.1130   -2.6340 C   0  0  0  0  0  0
    2.1749    0.6551   10.9350 H   0  0  0  0  0  0
    2.3907   -1.1249   11.0420 H   0  0  0  0  0  0
    0.9956   -1.1715    8.8491 H   0  0  0  0  0  0
    1.4473    0.5637    8.7417 H   0  0  0  0  0  0
    3.7746   -1.0371    9.4152 H   0  0  0  0  0  0
    2.9685   -1.6829    7.9456 H   0  0  0  0  0  0
    3.0073    1.1329    7.6276 H   0  0  0  0  0  0
    4.6247    0.6798    8.2644 H   0  0  0  0  0  0
    4.2498   -1.2439    6.3519 H   0  0  0  0  0  0
    3.3793    0.1522    5.6309 H   0  0  0  0  0  0
    5.3995    1.5675    5.9372 H   0  0  0  0  0  0
    6.2697    0.1681    6.6521 H   0  0  0  0  0  0
    5.8974   -1.0944    4.4942 H   0  0  0  0  0  0
    5.1794    0.3956    3.7935 H   0  0  0  0  0  0
    7.3044    1.5876    4.1564 H   0  0  0  0  0  0
    8.0217    0.0942    4.8505 H   0  0  0  0  0  0
    7.9395   -1.0205    2.7550 H   0  0  0  0  0  0
    6.9307    0.2757    2.0278 H   0  0  0  0  0  0
    8.8943    1.8463    2.4551 H   0  0  0  0  0  0
    9.8592    0.3734    2.8107 H   0  0  0  0  0  0
    8.5643   -0.3322    0.4517 H   0  0  0  0  0  0
    8.8613    1.4228    0.2100 H   0  0  0  0  0  0
   11.2568    0.5105    1.3315 H   0  0  0  0  0  0
   10.7659   -0.8345    0.2467 H   0  0  0  0  0  0
   10.3345    1.1617   -1.4703 H   0  0  0  0  0  0
   11.5167    2.0099   -0.4170 H   0  0  0  0  0  0
   13.1266    0.1303   -0.7417 H   0  0  0  0  0  0
   11.9489   -0.6712   -1.8358 H   0  0  0  0  0  0
   13.6678    0.5624   -3.1152 H   0  0  0  0  0  0
   13.2178    2.0820   -2.2695 H   0  0  0  0  0  0
   12.0401    1.2804   -3.3637 H   0  0  0  0  0  0
  1  2  1  0  0  0
  1  3  2  0  0  0
  1  4  1  0  0  0
  4  5  1  0  0  0
  4 19  1  0  0  0
  4 20  1  0  0  0
  5  6  1  0  0  0
  5 21  1  0  0  0
  5 22  1  0  0  0
  6  7  1  0  0  0
  6 23  1  0  0  0
  6 24  1  0  0  0
  7  8  1  0  0  0
  7 25  1  0  0  0
  7 26  1  0  0  0
  8  9  1  0  0  0
  8 27  1  0  0  0
  8 28  1  0  0  0
  9 10  1  0  0  0
  9 29  1  0  0  0
  9 30  1  0  0  0
 10 11  1  0  0  0
 10 31  1  0  0  0
 10 32  1  0  0  0
 11 12  1  0  0  0
 11 33  1  0  0  0
 11 34  1  0  0  0
 12 13  1  0  0  0
 12 35  1  0  0  0
 12 36  1  0  0  0
 13 14  1  0  0  0
 13 37  1  0  0  0
 13 38  1  0  0  0
 14 15  1  0  0  0
 14 39  1  0  0  0
 14 40  1  0  0  0
 15 16  1  0  0  0
 15 41  1  0  0  0
 15 42  1  0  0  0
 16 17  1  0  0  0
 16 43  1  0  0  0
 16 44  1  0  0  0
 17 18  1  0  0  0
 17 45  1  0  0  0
 17 46  1  0  0  0
 18 47  1  0  0  0
 18 48  1  0  0  0
 18 49  1  0  0  0
M  CHG  1   2  -1
M  END
> <s_m_source_file>
../3v2q_ligand.sdf

> <i_m_source_file_index>
1

> <s_epik_input>
W09IXUMoPU8pW0NIMl1bQ0gyXVtDSDJdW0NIMl1bQ0gyXVtDSDJdW0NIMl1bQ0gyXVtDSDJdW0NIMl1bQ0gyXVtDSDJdW0NIMl1bQ0gyXVtDSDNd

> <s_epik_cmdline>
J2VwaWtfYXBwJywgJy1pbWFlJywgJ2xpZ2FuZF9wcm8ubWFlJywgJy1vbWFlJywgJ2xpZ2FuZF9wcmVwLm1hZScsICctbXMnLCAnMScsICctcGgnLCAnNycsICctcGh0JywgJzAuNScsICctbnQn

> <r_lp_tautomer_probability>
1

> <r_epik_Ionization_Penalty>
  0.0049

> <r_epik_Ionization_Penalty_Charging>
  0.0049

> <r_epik_Ionization_Penalty_Neutral>
  0.0000

> <r_epik_State_Penalty>
 -0.0000

> <r_epik_Charging_Adjusted_Penalty>
0.00486649495677768

> <i_epik_Tot_Q>
-1

> <i_epik_Tot_abs_Q>
1

$$$$
