3v2w_ligand
                    3D
 Schrodinger Suite 2020-3.
 50 50  0  0  1  0            999 V2000
    3.0190   17.2820  -14.2220 O   0  0  0  0  0  0
    3.2070   15.7980  -14.4260 P   0  0  0  0  0  0
    1.9090   15.0400  -14.6140 O   0  5  0  0  0  0
    4.2630   15.4650  -15.4540 O   0  0  0  0  0  0
    3.8960   15.1750  -12.8640 C   0  0  0  0  0  0
    4.1710   16.3090  -11.8720 C   0  0  0  0  0  0
    3.1820   16.3580  -10.7010 C   0  0  1  0  0  0
    2.0350   15.4190  -10.8710 N   0  3  0  0  0  0
    3.8860   16.1340   -9.3930 C   0  0  0  0  0  0
    4.2760   15.0170   -9.1070 O   0  0  0  0  0  0
    3.9960   17.1980   -8.5890 N   0  0  0  0  0  0
    4.8580   17.2990   -7.5430 C   0  0  0  0  0  0
    4.9610   16.2860   -6.5810 C   0  0  0  0  0  0
    5.8340   16.4280   -5.5010 C   0  0  0  0  0  0
    6.5690   17.6060   -5.3420 C   0  0  0  0  0  0
    5.5870   18.4810   -7.3710 C   0  0  0  0  0  0
    6.4580   18.6300   -6.2860 C   0  0  0  0  0  0
    7.2400   19.9170   -6.1180 C   0  0  0  0  0  0
    8.7180   19.6340   -5.8640 C   0  0  0  0  0  0
    9.4560   20.9070   -5.4600 C   0  0  0  0  0  0
   10.9480   20.7850   -5.7430 C   0  0  0  0  0  0
   11.6390   22.1390   -5.6410 C   0  0  0  0  0  0
   13.1090   22.0440   -5.9860 C   0  0  0  0  0  0
    4.1072   15.7334  -16.5093 H   0  0  0  0  0  0
    3.1830   14.4766  -12.4015 H   0  0  0  0  0  0
    4.8435   14.6531  -13.0635 H   0  0  0  0  0  0
    5.1775   16.1868  -11.4453 H   0  0  0  0  0  0
    4.1087   17.2755  -12.3935 H   0  0  0  0  0  0
    2.7303   17.3606  -10.6737 H   0  0  0  0  0  0
    1.5441   15.6108  -11.8365 H   0  0  0  0  0  0
    1.3125   15.5714  -10.0557 H   0  0  0  0  0  0
    2.4028   14.3826  -10.8461 H   0  0  0  0  0  0
    3.3585   18.0793   -8.7527 H   0  0  0  0  0  0
    4.3572   15.3835   -6.6761 H   0  0  0  0  0  0
    5.9427   15.6180   -4.7798 H   0  0  0  0  0  0
    7.2283   17.7258   -4.4823 H   0  0  0  0  0  0
    5.4753   19.2934   -8.0891 H   0  0  0  0  0  0
    7.1502   20.5225   -7.0319 H   0  0  0  0  0  0
    6.8384   20.4812   -5.2634 H   0  0  0  0  0  0
    8.8161   18.8967   -5.0536 H   0  0  0  0  0  0
    9.1777   19.2351   -6.7803 H   0  0  0  0  0  0
    9.0569   21.7588   -6.0302 H   0  0  0  0  0  0
    9.3142   21.0873   -4.3842 H   0  0  0  0  0  0
   11.4050   20.1013   -5.0125 H   0  0  0  0  0  0
   11.0975   20.3897   -6.7586 H   0  0  0  0  0  0
   11.1648   22.8460   -6.3376 H   0  0  0  0  0  0
   11.5484   22.5204   -4.6132 H   0  0  0  0  0  0
   13.5706   23.0388   -5.9008 H   0  0  0  0  0  0
   13.2207   21.6749   -7.0162 H   0  0  0  0  0  0
   13.6044   21.3492   -5.2918 H   0  0  0  0  0  0
  1  2  2  0  0  0
  2  3  1  0  0  0
  2  4  1  0  0  0
  2  5  1  0  0  0
  4 24  1  0  0  0
  5  6  1  0  0  0
  5 25  1  0  0  0
  5 26  1  0  0  0
  6  7  1  0  0  0
  6 27  1  0  0  0
  6 28  1  0  0  0
  7  8  1  0  0  0
  7  9  1  0  0  0
  7 29  1  0  0  0
  8 30  1  0  0  0
  8 31  1  0  0  0
  8 32  1  0  0  0
  9 10  2  0  0  0
  9 11  1  0  0  0
 11 12  1  0  0  0
 11 33  1  0  0  0
 12 13  2  0  0  0
 12 16  1  0  0  0
 13 14  1  0  0  0
 13 34  1  0  0  0
 14 15  2  0  0  0
 14 35  1  0  0  0
 15 17  1  0  0  0
 15 36  1  0  0  0
 16 17  2  0  0  0
 16 37  1  0  0  0
 17 18  1  0  0  0
 18 19  1  0  0  0
 18 38  1  0  0  0
 18 39  1  0  0  0
 19 20  1  0  0  0
 19 40  1  0  0  0
 19 41  1  0  0  0
 20 21  1  0  0  0
 20 42  1  0  0  0
 20 43  1  0  0  0
 21 22  1  0  0  0
 21 44  1  0  0  0
 21 45  1  0  0  0
 22 23  1  0  0  0
 22 46  1  0  0  0
 22 47  1  0  0  0
 23 48  1  0  0  0
 23 49  1  0  0  0
 23 50  1  0  0  0
M  CHG  2   3  -1   8   1
M  END
> <s_m_source_file>
../3v2w_ligand.sdf

> <i_m_source_file_index>
1

> <s_epik_input>
Tz1QKFtPSF0pKFtPSF0pW0NIMl1bQ0gyXVtDQEBIXShbTkgzK10pQyg9TylbTkhdYzFbY0hdW2NIXVtjSF1jKFtjSF0xKVtDSDJdW0NIMl1bQ0gyXVtDSDJdW0NIMl1bQ0gzXQ==

> <s_epik_cmdline>
J2VwaWtfYXBwJywgJy1pbWFlJywgJ2xpZ2FuZF9wcm8ubWFlJywgJy1vbWFlJywgJ2xpZ2FuZF9wcmVwLm1hZScsICctbXMnLCAnMScsICctcGgnLCAnNycsICctcGh0JywgJzAuNScsICctbnQn

> <r_lp_tautomer_probability>
1

> <r_epik_Ionization_Penalty>
  0.3744

> <r_epik_Ionization_Penalty_Charging>
  0.2103

> <r_epik_Ionization_Penalty_Neutral>
  0.1641

> <r_epik_State_Penalty>
 -0.0000

> <r_epik_Charging_Adjusted_Penalty>
0.210298053972431

> <i_epik_Tot_Q>
0

> <i_epik_Tot_abs_Q>
2

$$$$
