3v2x_ligand
                    3D
 Schrodinger Suite 2020-3.
188190  0  0  1  0            999 V2000
   -5.6400   -5.6870  -21.5470 N   0  3  0  0  0  0
   -4.2260   -5.2580  -21.2830 C   0  0  2  0  0  0
   -4.0810   -3.8750  -20.6240 C   0  0  0  0  0  0
   -2.9610   -3.4580  -20.3090 O   0  0  0  0  0  0
   -3.3800   -5.3310  -22.5580 C   0  0  0  0  0  0
   -3.2490   -6.6870  -23.2580 C   0  0  0  0  0  0
   -2.2990   -6.5800  -24.4470 C   0  0  0  0  0  0
   -2.7920   -7.7890  -22.3100 C   0  0  0  0  0  0
   -5.1970   -3.1670  -20.4300 N   0  0  0  0  0  0
   -5.2070   -1.9240  -19.6440 C   0  0  2  0  0  0
   -5.1920   -2.2810  -18.1630 C   0  0  0  0  0  0
   -5.6840   -3.3450  -17.7820 O   0  0  0  0  0  0
   -6.4470   -1.0680  -19.9470 C   0  0  0  0  0  0
   -6.6030   -0.3420  -21.2890 C   0  0  0  0  0  0
   -8.0110    0.2560  -21.3770 C   0  0  0  0  0  0
   -5.5410    0.7560  -21.4780 C   0  0  0  0  0  0
   -4.6370   -1.3880  -17.3150 N   0  0  0  0  0  0
   -4.5890   -1.6900  -15.8910 C   0  0  2  0  0  0
   -5.9740   -1.9870  -15.3360 C   0  0  0  0  0  0
   -6.9370   -1.2740  -15.6320 O   0  0  0  0  0  0
   -4.0390   -0.4010  -15.2690 C   0  0  0  0  0  0
   -4.2520    0.6500  -16.2960 C   0  0  0  0  0  0
   -4.1140   -0.0420  -17.6050 C   0  0  0  0  0  0
   -6.0500   -3.0450  -14.5390 N   0  0  0  0  0  0
   -7.2890   -3.4590  -13.8970 C   0  0  2  0  0  0
   -7.5850   -2.5710  -12.6840 C   0  0  0  0  0  0
   -6.6740   -1.9630  -12.1200 O   0  0  0  0  0  0
   -7.1880   -4.9190  -13.4240 C   0  0  2  0  0  0
   -5.9700   -5.0730  -12.6780 O   0  0  0  0  0  0
   -7.1720   -5.8760  -14.6180 C   0  0  0  0  0  0
   -8.8620   -2.5010  -12.3090 N   0  0  0  0  0  0
   -9.3100   -1.8230  -11.0850 C   0  0  2  0  0  0
   -8.5090   -2.3110   -9.8660 C   0  0  0  0  0  0
   -8.3150   -3.5230   -9.6920 O   0  0  0  0  0  0
  -10.8040   -2.1190  -10.8760 C   0  0  0  0  0  0
  -11.6530   -1.4630   -9.7850 C   0  0  0  0  0  0
  -11.8080    0.0530  -10.0050 C   0  0  0  0  0  0
  -13.0180   -2.1530   -9.7330 C   0  0  0  0  0  0
   -8.0300   -1.3770   -9.0220 N   0  0  0  0  0  0
   -7.3420   -1.8490   -7.8230 C   0  0  2  0  0  0
   -8.2770   -2.7250   -7.0020 C   0  0  0  0  0  0
   -9.4680   -2.4290   -6.8700 O   0  0  0  0  0  0
   -7.0120   -0.5550   -7.0680 C   0  0  0  0  0  0
   -6.9170    0.4800   -8.1310 C   0  0  0  0  0  0
   -8.0070    0.0920   -9.1200 C   0  0  0  0  0  0
   -7.7400   -3.8180   -6.4780 N   0  0  0  0  0  0
   -8.5250   -4.7370   -5.6690 C   0  0  2  0  0  0
   -7.6290   -5.3270   -4.5950 C   0  0  0  0  0  0
   -6.5450   -5.8270   -4.8870 O   0  0  0  0  0  0
   -9.1280   -5.8630   -6.5260 C   0  0  0  0  0  0
  -10.2300   -6.6550   -5.8190 C   0  0  0  0  0  0
  -10.8710   -7.7120   -6.7210 C   0  0  0  0  0  0
  -12.1810   -8.2130   -6.1070 C   0  0  0  0  0  0
  -13.0620   -8.9390   -7.0850 N   0  3  0  0  0  0
   -8.0650   -5.2390   -3.3480 N   0  0  0  0  0  0
   -7.3720   -5.9660   -2.2880 C   0  0  2  0  0  0
   -7.8160   -7.4260   -2.3250 C   0  0  0  0  0  0
   -9.0010   -7.7080   -2.5390 O   0  0  0  0  0  0
   -7.6390   -5.3420   -0.9220 C   0  0  0  0  0  0
   -6.9570   -3.9990   -0.6580 C   0  0  0  0  0  0
   -7.5250   -3.3840    0.6140 C   0  0  0  0  0  0
   -5.4490   -4.1620   -0.5750 C   0  0  0  0  0  0
   -6.8660   -8.3550   -2.1070 N   0  0  0  0  0  0
   -7.1730   -9.7870   -2.1180 C   0  0  2  0  0  0
   -7.8940  -10.2100   -0.8560 C   0  0  0  0  0  0
   -7.7500   -9.5610    0.1810 O   0  0  0  0  0  0
   -5.7900  -10.4420   -2.1490 C   0  0  0  0  0  0
   -4.8840   -9.4300   -1.4420 C   0  0  0  0  0  0
   -5.4280   -8.0910   -1.8830 C   0  0  0  0  0  0
   -8.6450  -11.3010   -0.9340 N   0  0  0  0  0  0
   -9.2540  -11.8850    0.2580 C   0  0  2  0  0  0
   -8.1710  -12.4250    1.1640 C   0  0  0  0  0  0
   -7.1110  -12.8490    0.6920 O   0  0  0  0  0  0
  -10.2150  -13.0190   -0.0960 C   0  0  0  0  0  0
  -11.4220  -12.4990   -0.6150 O   0  0  0  0  0  0
   -8.4520  -12.4240    2.4660 N   0  0  0  0  0  0
   -7.4810  -12.8810    3.4600 C   0  0  2  0  0  0
   -7.8840  -14.2020    4.0920 C   0  0  0  0  0  0
   -9.0190  -14.6690    3.9550 O   0  0  0  0  0  0
   -7.2780  -11.8120    4.5420 C   0  0  0  0  0  0
   -6.6170  -10.5110    4.0760 C   0  0  0  0  0  0
   -6.7050   -9.4770    5.1700 C   0  0  0  0  0  0
   -5.1780  -10.7300    3.6790 C   0  0  0  0  0  0
   -7.0670  -14.8260    4.7600 O   0  0  0  0  0  0
   -6.2221   -5.6243  -20.6157 H   0  0  0  0  0  0
   -5.6461   -6.7239  -21.9142 H   0  0  0  0  0  0
   -6.0880   -5.0271  -22.3045 H   0  0  0  0  0  0
   -3.8722   -5.9949  -20.5469 H   0  0  0  0  0  0
   -3.8029   -4.6572  -23.3177 H   0  0  0  0  0  0
   -2.3478   -5.0259  -22.3311 H   0  0  0  0  0  0
   -4.2492   -6.9700  -23.6178 H   0  0  0  0  0  0
   -2.6429   -5.7811  -25.1204 H   0  0  0  0  0  0
   -2.2829   -7.5361  -24.9906 H   0  0  0  0  0  0
   -1.2863   -6.3457  -24.0872 H   0  0  0  0  0  0
   -3.4869   -7.8526  -21.4596 H   0  0  0  0  0  0
   -1.7813   -7.5597  -21.9413 H   0  0  0  0  0  0
   -2.7779   -8.7502  -22.8447 H   0  0  0  0  0  0
   -6.1286   -3.5408  -20.8799 H   0  0  0  0  0  0
   -4.3025   -1.3701  -19.9358 H   0  0  0  0  0  0
   -7.3484   -1.6961  -19.8923 H   0  0  0  0  0  0
   -6.5209   -0.2555  -19.2092 H   0  0  0  0  0  0
   -6.4592   -1.0763  -22.0953 H   0  0  0  0  0  0
   -8.7570   -0.5407  -21.2400 H   0  0  0  0  0  0
   -8.1501    0.7229  -22.3632 H   0  0  0  0  0  0
   -8.1367    1.0151  -20.5909 H   0  0  0  0  0  0
   -4.5374    0.3106  -21.4121 H   0  0  0  0  0  0
   -5.6567    1.5171  -20.6923 H   0  0  0  0  0  0
   -5.6700    1.2249  -22.4646 H   0  0  0  0  0  0
   -3.9765   -2.5875  -15.7197 H   0  0  0  0  0  0
   -4.5883   -0.1776  -14.3425 H   0  0  0  0  0  0
   -2.9710   -0.5311  -15.0398 H   0  0  0  0  0  0
   -5.2555    1.0837  -16.1741 H   0  0  0  0  0  0
   -3.4946    1.4387  -16.1761 H   0  0  0  0  0  0
   -3.0684   -0.1188  -17.9377 H   0  0  0  0  0  0
   -4.7179    0.4230  -18.3981 H   0  0  0  0  0  0
   -5.1257   -3.6174  -14.3714 H   0  0  0  0  0  0
   -8.0624   -3.3420  -14.6704 H   0  0  0  0  0  0
   -8.0182   -5.1747  -12.7492 H   0  0  0  0  0  0
   -5.7959   -4.4654  -11.7777 H   0  0  0  0  0  0
   -8.1032   -5.7614  -15.1923 H   0  0  0  0  0  0
   -7.0891   -6.9117  -14.2567 H   0  0  0  0  0  0
   -6.3122   -5.6428  -15.2633 H   0  0  0  0  0  0
   -9.5962   -2.9850  -12.9698 H   0  0  0  0  0  0
   -9.1299   -0.7483  -11.2350 H   0  0  0  0  0  0
  -11.3607   -1.8570  -11.7878 H   0  0  0  0  0  0
  -10.9390   -3.1888  -10.6587 H   0  0  0  0  0  0
  -11.1393   -1.5932   -8.8211 H   0  0  0  0  0  0
  -10.8137    0.5222  -10.0381 H   0  0  0  0  0  0
  -12.3903    0.4858   -9.1782 H   0  0  0  0  0  0
  -12.3307    0.2340  -10.9558 H   0  0  0  0  0  0
  -12.8774   -3.2325   -9.5753 H   0  0  0  0  0  0
  -13.5491   -1.9871  -10.6819 H   0  0  0  0  0  0
  -13.6087   -1.7353   -8.9044 H   0  0  0  0  0  0
   -6.4610   -2.4554   -8.0799 H   0  0  0  0  0  0
   -7.8157   -0.3342   -6.3502 H   0  0  0  0  0  0
   -6.0616   -0.6778   -6.5279 H   0  0  0  0  0  0
   -7.0900    1.4736   -7.6918 H   0  0  0  0  0  0
   -5.9153    0.4490   -8.5845 H   0  0  0  0  0  0
   -7.7675    0.3869  -10.1523 H   0  0  0  0  0  0
   -8.9931    0.4934   -8.8434 H   0  0  0  0  0  0
   -6.6759   -4.0228   -6.6669 H   0  0  0  0  0  0
   -9.3341   -4.1388   -5.2247 H   0  0  0  0  0  0
   -9.5684   -5.4338   -7.4381 H   0  0  0  0  0  0
   -8.3381   -6.5773   -6.8014 H   0  0  0  0  0  0
   -9.8072   -7.1709   -4.9443 H   0  0  0  0  0  0
  -11.0231   -5.9670   -5.4909 H   0  0  0  0  0  0
  -11.0821   -7.2731   -7.7073 H   0  0  0  0  0  0
  -10.1818   -8.5614   -6.8376 H   0  0  0  0  0  0
  -11.9580   -8.9090   -5.2849 H   0  0  0  0  0  0
  -12.7544   -7.3584   -5.7186 H   0  0  0  0  0  0
  -13.9803   -9.2684   -6.5768 H   0  0  0  0  0  0
  -12.5270   -9.8152   -7.4800 H   0  0  0  0  0  0
  -13.3233   -8.2646   -7.9138 H   0  0  0  0  0  0
   -8.9440   -4.6226   -3.1083 H   0  0  0  0  0  0
   -6.2948   -5.8824   -2.4944 H   0  0  0  0  0  0
   -8.7185   -5.1666   -0.8037 H   0  0  0  0  0  0
   -7.2897   -6.0240   -0.1327 H   0  0  0  0  0  0
   -7.1552   -3.3146   -1.4960 H   0  0  0  0  0  0
   -8.6159   -3.2820    0.5165 H   0  0  0  0  0  0
   -7.0768   -2.3922    0.7735 H   0  0  0  0  0  0
   -7.2926   -4.0336    1.4708 H   0  0  0  0  0  0
   -5.0764   -4.6078   -1.5091 H   0  0  0  0  0  0
   -5.1972   -4.8188    0.2707 H   0  0  0  0  0  0
   -4.9814   -3.1775   -0.4265 H   0  0  0  0  0  0
   -7.8332  -10.0282   -2.9642 H   0  0  0  0  0  0
   -5.8284  -11.4049   -1.6186 H   0  0  0  0  0  0
   -5.4873  -10.6103   -3.1931 H   0  0  0  0  0  0
   -4.9564   -9.5709   -0.3535 H   0  0  0  0  0  0
   -3.8430   -9.5828   -1.7630 H   0  0  0  0  0  0
   -4.9690   -7.7421   -2.8198 H   0  0  0  0  0  0
   -5.3133   -7.3183   -1.1085 H   0  0  0  0  0  0
   -8.8057  -11.7661   -1.9178 H   0  0  0  0  0  0
   -9.8047  -11.0639    0.7401 H   0  0  0  0  0  0
   -9.7514  -13.6699   -0.8519 H   0  0  0  0  0  0
  -10.4374  -13.6065    0.8070 H   0  0  0  0  0  0
  -12.2279  -13.1817   -0.9221 H   0  0  0  0  0  0
   -9.4420  -12.0682    2.7873 H   0  0  0  0  0  0
   -6.5542  -13.0432    2.8902 H   0  0  0  0  0  0
   -9.2795  -15.6285    4.4257 H   0  0  0  0  0  0
   -8.2532  -11.5278    4.9642 H   0  0  0  0  0  0
   -6.6365  -12.2148    5.3396 H   0  0  0  0  0  0
   -7.1452  -10.1390    3.1857 H   0  0  0  0  0  0
   -7.7584   -9.3275    5.4493 H   0  0  0  0  0  0
   -6.2823   -8.5269    4.8114 H   0  0  0  0  0  0
   -6.1385   -9.8224    6.0474 H   0  0  0  0  0  0
   -5.1287  -11.4857    2.8812 H   0  0  0  0  0  0
   -4.6062  -11.0797    4.5512 H   0  0  0  0  0  0
   -4.7500   -9.7842    3.3152 H   0  0  0  0  0  0
  1  2  1  0  0  0
  1 85  1  0  0  0
  1 86  1  0  0  0
  1 87  1  0  0  0
  2  3  1  0  0  0
  2  5  1  0  0  0
  2 88  1  0  0  0
  3  4  2  0  0  0
  3  9  1  0  0  0
  5  6  1  0  0  0
  5 89  1  0  0  0
  5 90  1  0  0  0
  6  7  1  0  0  0
  6  8  1  0  0  0
  6 91  1  0  0  0
  7 92  1  0  0  0
  7 93  1  0  0  0
  7 94  1  0  0  0
  8 95  1  0  0  0
  8 96  1  0  0  0
  8 97  1  0  0  0
  9 10  1  0  0  0
  9 98  1  0  0  0
 10 11  1  0  0  0
 10 13  1  0  0  0
 10 99  1  0  0  0
 11 12  2  0  0  0
 11 17  1  0  0  0
 13 14  1  0  0  0
 13100  1  0  0  0
 13101  1  0  0  0
 14 15  1  0  0  0
 14 16  1  0  0  0
 14102  1  0  0  0
 15103  1  0  0  0
 15104  1  0  0  0
 15105  1  0  0  0
 16106  1  0  0  0
 16107  1  0  0  0
 16108  1  0  0  0
 17 18  1  0  0  0
 17 23  1  0  0  0
 18 19  1  0  0  0
 18 21  1  0  0  0
 18109  1  0  0  0
 19 20  2  0  0  0
 19 24  1  0  0  0
 21 22  1  0  0  0
 21110  1  0  0  0
 21111  1  0  0  0
 22 23  1  0  0  0
 22112  1  0  0  0
 22113  1  0  0  0
 23114  1  0  0  0
 23115  1  0  0  0
 24 25  1  0  0  0
 24116  1  0  0  0
 25 26  1  0  0  0
 25 28  1  0  0  0
 25117  1  0  0  0
 26 27  2  0  0  0
 26 31  1  0  0  0
 28 29  1  0  0  0
 28 30  1  0  0  0
 28118  1  0  0  0
 29119  1  0  0  0
 30120  1  0  0  0
 30121  1  0  0  0
 30122  1  0  0  0
 31 32  1  0  0  0
 31123  1  0  0  0
 32 33  1  0  0  0
 32 35  1  0  0  0
 32124  1  0  0  0
 33 34  2  0  0  0
 33 39  1  0  0  0
 35 36  1  0  0  0
 35125  1  0  0  0
 35126  1  0  0  0
 36 37  1  0  0  0
 36 38  1  0  0  0
 36127  1  0  0  0
 37128  1  0  0  0
 37129  1  0  0  0
 37130  1  0  0  0
 38131  1  0  0  0
 38132  1  0  0  0
 38133  1  0  0  0
 39 40  1  0  0  0
 39 45  1  0  0  0
 40 41  1  0  0  0
 40 43  1  0  0  0
 40134  1  0  0  0
 41 42  2  0  0  0
 41 46  1  0  0  0
 43 44  1  0  0  0
 43135  1  0  0  0
 43136  1  0  0  0
 44 45  1  0  0  0
 44137  1  0  0  0
 44138  1  0  0  0
 45139  1  0  0  0
 45140  1  0  0  0
 46 47  1  0  0  0
 46141  1  0  0  0
 47 48  1  0  0  0
 47 50  1  0  0  0
 47142  1  0  0  0
 48 49  2  0  0  0
 48 55  1  0  0  0
 50 51  1  0  0  0
 50143  1  0  0  0
 50144  1  0  0  0
 51 52  1  0  0  0
 51145  1  0  0  0
 51146  1  0  0  0
 52 53  1  0  0  0
 52147  1  0  0  0
 52148  1  0  0  0
 53 54  1  0  0  0
 53149  1  0  0  0
 53150  1  0  0  0
 54151  1  0  0  0
 54152  1  0  0  0
 54153  1  0  0  0
 55 56  1  0  0  0
 55154  1  0  0  0
 56 57  1  0  0  0
 56 59  1  0  0  0
 56155  1  0  0  0
 57 58  2  0  0  0
 57 63  1  0  0  0
 59 60  1  0  0  0
 59156  1  0  0  0
 59157  1  0  0  0
 60 61  1  0  0  0
 60 62  1  0  0  0
 60158  1  0  0  0
 61159  1  0  0  0
 61160  1  0  0  0
 61161  1  0  0  0
 62162  1  0  0  0
 62163  1  0  0  0
 62164  1  0  0  0
 63 64  1  0  0  0
 63 69  1  0  0  0
 64 65  1  0  0  0
 64 67  1  0  0  0
 64165  1  0  0  0
 65 66  2  0  0  0
 65 70  1  0  0  0
 67 68  1  0  0  0
 67166  1  0  0  0
 67167  1  0  0  0
 68 69  1  0  0  0
 68168  1  0  0  0
 68169  1  0  0  0
 69170  1  0  0  0
 69171  1  0  0  0
 70 71  1  0  0  0
 70172  1  0  0  0
 71 72  1  0  0  0
 71 74  1  0  0  0
 71173  1  0  0  0
 72 73  2  0  0  0
 72 76  1  0  0  0
 74 75  1  0  0  0
 74174  1  0  0  0
 74175  1  0  0  0
 75176  1  0  0  0
 76 77  1  0  0  0
 76177  1  0  0  0
 77 78  1  0  0  0
 77 80  1  0  0  0
 77178  1  0  0  0
 78 79  1  0  0  0
 78 84  2  0  0  0
 79179  1  0  0  0
 80 81  1  0  0  0
 80180  1  0  0  0
 80181  1  0  0  0
 81 82  1  0  0  0
 81 83  1  0  0  0
 81182  1  0  0  0
 82183  1  0  0  0
 82184  1  0  0  0
 82185  1  0  0  0
 83186  1  0  0  0
 83187  1  0  0  0
 83188  1  0  0  0
M  CHG  2   1   1  54   1
M  END
> <s_m_source_file>
../3v2x_ligand.sdf

> <i_m_source_file_index>
1

> <s_epik_input>
W0NIM11bQ0hdKFtDSDNdKVtDSDJdW0NASF0oW05IMytdKUMoPU8pW05IXVtDQEBIXShbQ0gyXVtDSF0oW0NIM10pW0NIM10pQyg9TylOMVtDQEBIXShbQ0gyXVtDSDJdW0NIMl0xKUMoPU8pW05IXVtDQEBIXShbQ0BIXShbT0hdKVtDSDNdKUMoPU8pW05IXVtDQEBIXShbQ0gyXVtDSF0oW0NIM10pW0NIM10pQyg9TylOMltDQEBIXShbQ0gyXVtDSDJdW0NIMl0yKUMoPU8pW05IXVtDQEBIXShbQ0gyXVtDSDJdW0NIMl1bQ0gyXVtOSDMrXSlDKD1PKVtOSF1bQ0BASF0oW0NIMl1bQ0hdKFtDSDNdKVtDSDNdKUMoPU8pTjNbQ0BASF0oW0NIMl1bQ0gyXVtDSDJdMylDKD1PKVtOSF1bQ0BASF0oW0NIMl1bT0hdKUMoPU8pW05IXVtDQEhdKEMoPU8pW09IXSlbQ0gyXVtDSF0oW0NIM10pW0NIM10=

> <s_epik_cmdline>
J2VwaWtfYXBwJywgJy1pbWFlJywgJ2xpZ2FuZF9wcm8ubWFlJywgJy1vbWFlJywgJ2xpZ2FuZF9wcmVwLm1hZScsICctbXMnLCAnMScsICctcGgnLCAnNycsICctcGh0JywgJzAuNScsICctbnQn

> <s_epik_pKa_notes>
Molecule size exceeds maximum supported for generating protonation states

$$$$
