3v30_ligand
                    3D
 Schrodinger Suite 2020-3.
228230  0  0  1  0            999 V2000
  -11.6930  -13.3630  -17.8390 N   0  3  0  0  0  0
  -11.5050  -12.8400  -16.4520 C   0  0  2  0  0  0
  -11.2870  -13.9860  -15.4640 C   0  0  0  0  0  0
  -12.1970  -14.7770  -15.2100 O   0  0  0  0  0  0
  -12.7180  -11.9810  -15.9990 C   0  0  2  0  0  0
  -12.8810  -10.8650  -16.8860 O   0  0  0  0  0  0
  -12.5360  -11.4720  -14.5650 C   0  0  0  0  0  0
  -10.0720  -14.0730  -14.9290 N   0  0  0  0  0  0
   -9.7330  -15.0410  -13.8820 C   0  0  2  0  0  0
   -9.1310  -14.2630  -12.7170 C   0  0  0  0  0  0
   -8.0410  -13.6900  -12.8510 O   0  0  0  0  0  0
   -8.7450  -16.0860  -14.4200 C   0  0  0  0  0  0
   -8.4530  -17.3720  -13.6380 C   0  0  0  0  0  0
   -7.9220  -18.4760  -14.5520 C   0  0  0  0  0  0
   -7.4740  -17.1290  -12.5010 C   0  0  0  0  0  0
   -9.8460  -14.2520  -11.5880 N   0  0  0  0  0  0
   -9.4780  -13.4550  -10.4030 C   0  0  2  0  0  0
   -8.4620  -14.1710   -9.5120 C   0  0  0  0  0  0
   -8.3780  -15.4000   -9.5100 O   0  0  0  0  0  0
  -10.7140  -12.9760   -9.5680 C   0  0  0  0  0  0
  -11.5850  -12.0260  -10.4000 C   0  0  0  0  0  0
  -11.5420  -14.1370   -9.0450 C   0  0  0  0  0  0
   -7.6940  -13.3740   -8.7720 N   0  0  0  0  0  0
   -6.5750  -13.8910   -7.9970 C   0  0  2  0  0  0
   -6.9480  -14.0110   -6.5190 C   0  0  0  0  0  0
   -7.3670  -13.0450   -5.8950 O   0  0  0  0  0  0
   -5.3710  -12.9510   -8.1790 C   0  0  0  0  0  0
   -4.2020  -13.4820   -7.5750 O   0  0  0  0  0  0
   -6.7550  -15.1940   -5.9520 N   0  0  0  0  0  0
   -7.0450  -15.3940   -4.5240 C   0  0  2  0  0  0
   -6.2000  -14.4290   -3.6950 C   0  0  0  0  0  0
   -4.9770  -14.4090   -3.8420 O   0  0  0  0  0  0
   -6.7390  -16.8350   -4.0900 C   0  0  0  0  0  0
   -7.0290  -17.1230   -2.6050 C   0  0  0  0  0  0
   -8.7820  -17.0960   -2.2210 S   0  0  0  0  0  0
   -9.1960  -18.7560   -2.7170 C   0  0  0  0  0  0
   -6.8370  -13.6390   -2.8090 N   0  0  0  0  0  0
   -6.0250  -12.7280   -2.0000 C   0  0  2  0  0  0
   -5.1370  -13.5090   -1.0290 C   0  0  0  0  0  0
   -5.4890  -14.6210   -0.6350 O   0  0  0  0  0  0
   -7.0600  -11.9220   -1.2010 C   0  0  0  0  0  0
   -8.3400  -12.1730   -1.8440 C   0  0  0  0  0  0
   -8.2830  -13.4650   -2.5710 C   0  0  0  0  0  0
   -3.9900  -12.9250   -0.6370 N   0  0  0  0  0  0
   -3.1390  -13.5370    0.3690 C   0  0  2  0  0  0
   -3.6980  -13.3460    1.7800 C   0  0  0  0  0  0
   -4.4320  -12.3870    2.0390 O   0  0  0  0  0  0
   -1.8260  -12.7520    0.2310 C   0  0  0  0  0  0
   -2.2440  -11.4260   -0.2110 C   0  0  0  0  0  0
   -3.4270  -11.6600   -1.1390 C   0  0  0  0  0  0
   -3.3400  -14.2520    2.6840 N   0  0  0  0  0  0
   -3.5080  -13.9750    4.1190 C   0  0  2  0  0  0
   -2.3750  -13.0430    4.5110 C   0  0  0  0  0  0
   -1.2150  -13.3370    4.2070 O   0  0  0  0  0  0
   -3.4440  -15.2720    4.9250 C   0  0  0  0  0  0
   -4.5940  -16.2430    4.6690 C   0  0  0  0  0  0
   -4.3350  -17.5730    5.3370 C   0  0  0  0  0  0
   -5.8990  -15.6470    5.1870 C   0  0  0  0  0  0
   -2.6950  -11.9130    5.1670 N   0  0  0  0  0  0
   -1.6770  -10.9020    5.4550 C   0  0  2  0  0  0
   -0.6670  -11.3250    6.5220 C   0  0  0  0  0  0
   -0.9860  -12.1200    7.4130 O   0  0  0  0  0  0
   -2.5080   -9.7120    5.9470 C   0  0  0  0  0  0
   -3.6700  -10.3470    6.6350 C   0  0  0  0  0  0
   -4.0180  -11.4990    5.6810 C   0  0  0  0  0  0
    0.5450  -10.7700    6.4310 N   0  0  0  0  0  0
    1.5520  -10.9280    7.4810 C   0  0  0  0  0  0
    1.1010  -10.2810    8.7810 C   0  0  0  0  0  0
    0.5470   -9.1730    8.7830 O   0  0  0  0  0  0
    1.3550  -10.9730    9.8890 N   0  0  0  0  0  0
    0.9180  -10.5010   11.2070 C   0  0  2  0  0  0
    2.0490   -9.8780   11.9910 C   0  0  0  0  0  0
    2.2380  -10.1090   13.1920 O   0  0  0  0  0  0
    0.2440  -11.6240   11.9800 C   0  0  0  0  0  0
   -0.9780  -12.1680   11.2530 C   0  0  0  0  0  0
   -1.5210  -13.2770   12.0140 C   0  0  0  0  0  0
   -2.0510  -11.0940   11.0170 C   0  0  0  0  0  0
    2.8070   -9.0730   11.2800 N   0  0  0  0  0  0
    3.6860   -8.1300   11.9240 C   0  0  2  0  0  0
    3.3900   -6.7510   11.3420 C   0  0  0  0  0  0
    2.3490   -6.5450   10.6720 O   0  0  0  0  0  0
    5.1550   -8.5580   11.7930 C   0  0  0  0  0  0
    5.5670   -8.8330   10.3590 C   0  0  0  0  0  0
    5.1890   -8.0390    9.4710 O   0  0  0  0  0  0
    6.2810   -9.8320   10.1240 O   0  0  0  0  0  0
    4.2940   -5.8150   11.5980 N   0  0  0  0  0  0
    4.0520   -4.4190   11.2800 C   0  0  2  0  0  0
    4.5930   -4.0280    9.9090 C   0  0  0  0  0  0
    4.4110   -2.8880    9.4780 O   0  0  0  0  0  0
    4.6380   -3.5270   12.3850 C   0  0  0  0  0  0
    4.3200   -3.9330   13.8360 C   0  0  0  0  0  0
    4.9630   -2.9730   14.8420 C   0  0  0  0  0  0
    2.8040   -4.0760   14.0970 C   0  0  0  0  0  0
    5.2440   -4.9710    9.2250 N   0  0  0  0  0  0
    5.8450   -4.7000    7.9120 C   0  0  2  0  0  0
    4.8490   -4.0690    6.9290 C   0  0  0  0  0  0
    3.7760   -4.6200    6.6720 O   0  0  0  0  0  0
    6.4620   -5.9720    7.3140 C   0  0  0  0  0  0
    5.2000   -2.8960    6.4050 N   0  0  0  0  0  0
    4.3520   -2.2060    5.4320 C   0  0  0  0  0  0
    3.1940   -1.4030    6.0060 C   0  0  0  0  0  0
    2.4950   -0.7180    5.2570 O   0  0  0  0  0  0
    2.9950   -1.4860    7.3260 N   0  0  0  0  0  0
    1.9380   -0.7470    8.0490 C   0  0  2  0  0  0
    0.5380   -0.8890    7.4270 C   0  0  0  0  0  0
   -0.0650   -1.9640    7.4340 O   0  0  0  0  0  0
    2.3130    0.7350    8.2020 C   0  0  0  0  0  0
    3.5020    0.8850    8.9600 O   0  0  0  0  0  0
   -0.0310    0.0680    6.8990 O   0  0  0  0  0  0
  -10.8179  -13.9647  -18.1257 H   0  0  0  0  0  0
  -11.8030  -12.5199  -18.5370 H   0  0  0  0  0  0
  -12.5965  -13.9894  -17.8753 H   0  0  0  0  0  0
  -10.5980  -12.2190  -16.4934 H   0  0  0  0  0  0
  -13.6502  -12.5606  -16.0701 H   0  0  0  0  0  0
  -13.0252  -11.0351  -17.9632 H   0  0  0  0  0  0
  -12.4111  -12.3278  -13.8853 H   0  0  0  0  0  0
  -13.4222  -10.8928  -14.2663 H   0  0  0  0  0  0
  -11.6441  -10.8301  -14.5142 H   0  0  0  0  0  0
   -9.3062  -13.3784  -15.3047 H   0  0  0  0  0  0
  -10.6539  -15.5570  -13.5728 H   0  0  0  0  0  0
   -9.0955  -16.4538  -15.3956 H   0  0  0  0  0  0
   -7.7524  -15.6264  -14.5365 H   0  0  0  0  0  0
   -9.4060  -17.7045  -13.2006 H   0  0  0  0  0  0
   -8.6345  -18.6471  -15.3724 H   0  0  0  0  0  0
   -7.7992  -19.4035  -13.9735 H   0  0  0  0  0  0
   -6.9501  -18.1719  -14.9679 H   0  0  0  0  0  0
   -7.8616  -16.3339  -11.8471 H   0  0  0  0  0  0
   -6.5014  -16.8228  -12.9137 H   0  0  0  0  0  0
   -7.3506  -18.0545  -11.9194 H   0  0  0  0  0  0
  -10.7499  -14.8787  -11.5703 H   0  0  0  0  0  0
   -8.9830  -12.5846  -10.8584 H   0  0  0  0  0  0
  -10.3538  -12.4392   -8.6780 H   0  0  0  0  0  0
  -10.9691  -11.1929  -10.7696 H   0  0  0  0  0  0
  -12.3983  -11.6309   -9.7735 H   0  0  0  0  0  0
  -12.0121  -12.5730  -11.2534 H   0  0  0  0  0  0
  -10.9015  -14.8063   -8.4518 H   0  0  0  0  0  0
  -11.9690  -14.6938   -9.8922 H   0  0  0  0  0  0
  -12.3551  -13.7517   -8.4123 H   0  0  0  0  0  0
   -7.9238  -12.2984   -8.7560 H   0  0  0  0  0  0
   -6.3585  -14.8959   -8.3886 H   0  0  0  0  0  0
   -5.1753  -12.8095   -9.2522 H   0  0  0  0  0  0
   -5.5918  -11.9783   -7.7152 H   0  0  0  0  0  0
   -3.2562  -12.9222   -7.6214 H   0  0  0  0  0  0
   -6.3749  -16.0294   -6.5583 H   0  0  0  0  0  0
   -8.1186  -15.1884   -4.4011 H   0  0  0  0  0  0
   -7.3514  -17.5333   -4.6794 H   0  0  0  0  0  0
   -5.6734  -17.0501   -4.2580 H   0  0  0  0  0  0
   -6.6428  -18.1189   -2.3425 H   0  0  0  0  0  0
   -6.5366  -16.3626   -1.9810 H   0  0  0  0  0  0
  -10.2689  -18.9318   -2.5497 H   0  0  0  0  0  0
   -8.6100  -19.4730   -2.1233 H   0  0  0  0  0  0
   -8.9648  -18.8882   -3.7843 H   0  0  0  0  0  0
   -5.3743  -12.1268   -2.6521 H   0  0  0  0  0  0
   -7.0644  -12.2650   -0.1559 H   0  0  0  0  0  0
   -6.7989  -10.8540   -1.2352 H   0  0  0  0  0  0
   -9.1313  -12.2160   -1.0812 H   0  0  0  0  0  0
   -8.5589  -11.3619   -2.5541 H   0  0  0  0  0  0
   -8.8122  -13.4346   -3.5349 H   0  0  0  0  0  0
   -8.6600  -14.3072   -1.9722 H   0  0  0  0  0  0
   -3.0729  -14.6198    0.1869 H   0  0  0  0  0  0
   -1.3142  -12.7196    1.2041 H   0  0  0  0  0  0
   -1.1785  -13.2474   -0.5075 H   0  0  0  0  0  0
   -2.5321  -10.8223    0.6623 H   0  0  0  0  0  0
   -1.4118  -10.9356   -0.7373 H   0  0  0  0  0  0
   -3.1245  -11.7845   -2.1892 H   0  0  0  0  0  0
   -4.1859  -10.8670   -1.0676 H   0  0  0  0  0  0
   -2.9165  -15.2124    2.3551 H   0  0  0  0  0  0
   -4.4913  -13.5125    4.2897 H   0  0  0  0  0  0
   -2.5156  -15.8094    4.6817 H   0  0  0  0  0  0
   -3.4609  -15.0372    5.9995 H   0  0  0  0  0  0
   -4.6721  -16.4209    3.5863 H   0  0  0  0  0  0
   -3.3928  -17.9961    4.9585 H   0  0  0  0  0  0
   -5.1624  -18.2626    5.1139 H   0  0  0  0  0  0
   -4.2611  -17.4286    6.4250 H   0  0  0  0  0  0
   -6.0804  -14.6794    4.6962 H   0  0  0  0  0  0
   -5.8282  -15.4989    6.2747 H   0  0  0  0  0  0
   -6.7295  -16.3329    4.9636 H   0  0  0  0  0  0
   -1.0786  -10.7280    4.5485 H   0  0  0  0  0  0
   -1.9028   -9.1005    6.6324 H   0  0  0  0  0  0
   -2.8179   -9.1005    5.0867 H   0  0  0  0  0  0
   -3.3613  -10.6927    7.6326 H   0  0  0  0  0  0
   -4.4822   -9.6122    6.7367 H   0  0  0  0  0  0
   -4.6529  -11.1774    4.8423 H   0  0  0  0  0  0
   -4.4929  -12.3469    6.1962 H   0  0  0  0  0  0
    0.7757  -10.1795    5.5321 H   0  0  0  0  0  0
    1.7252  -11.9986    7.6647 H   0  0  0  0  0  0
    2.4919  -10.4539    7.1619 H   0  0  0  0  0  0
    1.9070  -11.9202    9.7992 H   0  0  0  0  0  0
    0.1852   -9.7043   11.0111 H   0  0  0  0  0  0
    0.9554  -12.4513   12.1198 H   0  0  0  0  0  0
   -0.0806  -11.2497   12.9621 H   0  0  0  0  0  0
   -0.6701  -12.5657   10.2747 H   0  0  0  0  0  0
   -0.7372  -14.0326   12.1710 H   0  0  0  0  0  0
   -2.3582  -13.7267   11.4601 H   0  0  0  0  0  0
   -1.8794  -12.9126   12.9881 H   0  0  0  0  0  0
   -1.6182  -10.2641   10.4392 H   0  0  0  0  0  0
   -2.4121  -10.7175   11.9854 H   0  0  0  0  0  0
   -2.8909  -11.5316   10.4574 H   0  0  0  0  0  0
    2.7652   -9.1247   10.1820 H   0  0  0  0  0  0
    3.4531   -8.1363   12.9990 H   0  0  0  0  0  0
    5.8054   -7.7598   12.1801 H   0  0  0  0  0  0
    5.3215   -9.4791   12.3708 H   0  0  0  0  0  0
    6.5938  -10.0542    9.0931 H   0  0  0  0  0  0
    5.2446   -6.1166   12.0620 H   0  0  0  0  0  0
    2.9565   -4.3286   11.2384 H   0  0  0  0  0  0
    5.7353   -3.5211   12.3080 H   0  0  0  0  0  0
    4.2568   -2.5017   12.2693 H   0  0  0  0  0  0
    4.7704   -4.9254   13.9853 H   0  0  0  0  0  0
    6.0398   -2.8903   14.6332 H   0  0  0  0  0  0
    4.8158   -3.3580   15.8619 H   0  0  0  0  0  0
    4.4951   -1.9815   14.7532 H   0  0  0  0  0  0
    2.3692   -4.7693   13.3619 H   0  0  0  0  0  0
    2.3214   -3.0920   14.0031 H   0  0  0  0  0  0
    2.6421   -4.4685   15.1117 H   0  0  0  0  0  0
    5.3241   -5.9737    9.6702 H   0  0  0  0  0  0
    6.6346   -3.9652    8.1279 H   0  0  0  0  0  0
    7.1715   -6.4081    8.0326 H   0  0  0  0  0  0
    6.9911   -5.7202    6.3831 H   0  0  0  0  0  0
    5.6655   -6.6992    7.0978 H   0  0  0  0  0  0
    6.1532   -2.4465    6.7203 H   0  0  0  0  0  0
    4.9605   -1.4940    4.8551 H   0  0  0  0  0  0
    3.9035   -2.9425    4.7491 H   0  0  0  0  0  0
    3.6753   -2.1523    7.8768 H   0  0  0  0  0  0
    1.9116   -1.2421    9.0309 H   0  0  0  0  0  0
   -1.0651   -2.0366    6.9818 H   0  0  0  0  0  0
    2.4715    1.1776    7.2075 H   0  0  0  0  0  0
    1.4990    1.2681    8.7151 H   0  0  0  0  0  0
    3.9042    1.8892    9.1592 H   0  0  0  0  0  0
  1  2  1  0  0  0
  1110  1  0  0  0
  1111  1  0  0  0
  1112  1  0  0  0
  2  3  1  0  0  0
  2  5  1  0  0  0
  2113  1  0  0  0
  3  4  2  0  0  0
  3  8  1  0  0  0
  5  6  1  0  0  0
  5  7  1  0  0  0
  5114  1  0  0  0
  6115  1  0  0  0
  7116  1  0  0  0
  7117  1  0  0  0
  7118  1  0  0  0
  8  9  1  0  0  0
  8119  1  0  0  0
  9 10  1  0  0  0
  9 12  1  0  0  0
  9120  1  0  0  0
 10 11  2  0  0  0
 10 16  1  0  0  0
 12 13  1  0  0  0
 12121  1  0  0  0
 12122  1  0  0  0
 13 14  1  0  0  0
 13 15  1  0  0  0
 13123  1  0  0  0
 14124  1  0  0  0
 14125  1  0  0  0
 14126  1  0  0  0
 15127  1  0  0  0
 15128  1  0  0  0
 15129  1  0  0  0
 16 17  1  0  0  0
 16130  1  0  0  0
 17 18  1  0  0  0
 17 20  1  0  0  0
 17131  1  0  0  0
 18 19  2  0  0  0
 18 23  1  0  0  0
 20 21  1  0  0  0
 20 22  1  0  0  0
 20132  1  0  0  0
 21133  1  0  0  0
 21134  1  0  0  0
 21135  1  0  0  0
 22136  1  0  0  0
 22137  1  0  0  0
 22138  1  0  0  0
 23 24  1  0  0  0
 23139  1  0  0  0
 24 25  1  0  0  0
 24 27  1  0  0  0
 24140  1  0  0  0
 25 26  2  0  0  0
 25 29  1  0  0  0
 27 28  1  0  0  0
 27141  1  0  0  0
 27142  1  0  0  0
 28143  1  0  0  0
 29 30  1  0  0  0
 29144  1  0  0  0
 30 31  1  0  0  0
 30 33  1  0  0  0
 30145  1  0  0  0
 31 32  2  0  0  0
 31 37  1  0  0  0
 33 34  1  0  0  0
 33146  1  0  0  0
 33147  1  0  0  0
 34 35  1  0  0  0
 34148  1  0  0  0
 34149  1  0  0  0
 35 36  1  0  0  0
 36150  1  0  0  0
 36151  1  0  0  0
 36152  1  0  0  0
 37 38  1  0  0  0
 37 43  1  0  0  0
 38 39  1  0  0  0
 38 41  1  0  0  0
 38153  1  0  0  0
 39 40  2  0  0  0
 39 44  1  0  0  0
 41 42  1  0  0  0
 41154  1  0  0  0
 41155  1  0  0  0
 42 43  1  0  0  0
 42156  1  0  0  0
 42157  1  0  0  0
 43158  1  0  0  0
 43159  1  0  0  0
 44 45  1  0  0  0
 44 50  1  0  0  0
 45 46  1  0  0  0
 45 48  1  0  0  0
 45160  1  0  0  0
 46 47  2  0  0  0
 46 51  1  0  0  0
 48 49  1  0  0  0
 48161  1  0  0  0
 48162  1  0  0  0
 49 50  1  0  0  0
 49163  1  0  0  0
 49164  1  0  0  0
 50165  1  0  0  0
 50166  1  0  0  0
 51 52  1  0  0  0
 51167  1  0  0  0
 52 53  1  0  0  0
 52 55  1  0  0  0
 52168  1  0  0  0
 53 54  2  0  0  0
 53 59  1  0  0  0
 55 56  1  0  0  0
 55169  1  0  0  0
 55170  1  0  0  0
 56 57  1  0  0  0
 56 58  1  0  0  0
 56171  1  0  0  0
 57172  1  0  0  0
 57173  1  0  0  0
 57174  1  0  0  0
 58175  1  0  0  0
 58176  1  0  0  0
 58177  1  0  0  0
 59 60  1  0  0  0
 59 65  1  0  0  0
 60 61  1  0  0  0
 60 63  1  0  0  0
 60178  1  0  0  0
 61 62  2  0  0  0
 61 66  1  0  0  0
 63 64  1  0  0  0
 63179  1  0  0  0
 63180  1  0  0  0
 64 65  1  0  0  0
 64181  1  0  0  0
 64182  1  0  0  0
 65183  1  0  0  0
 65184  1  0  0  0
 66 67  1  0  0  0
 66185  1  0  0  0
 67 68  1  0  0  0
 67186  1  0  0  0
 67187  1  0  0  0
 68 69  2  0  0  0
 68 70  1  0  0  0
 70 71  1  0  0  0
 70188  1  0  0  0
 71 72  1  0  0  0
 71 74  1  0  0  0
 71189  1  0  0  0
 72 73  2  0  0  0
 72 78  1  0  0  0
 74 75  1  0  0  0
 74190  1  0  0  0
 74191  1  0  0  0
 75 76  1  0  0  0
 75 77  1  0  0  0
 75192  1  0  0  0
 76193  1  0  0  0
 76194  1  0  0  0
 76195  1  0  0  0
 77196  1  0  0  0
 77197  1  0  0  0
 77198  1  0  0  0
 78 79  1  0  0  0
 78199  1  0  0  0
 79 80  1  0  0  0
 79 82  1  0  0  0
 79200  1  0  0  0
 80 81  2  0  0  0
 80 86  1  0  0  0
 82 83  1  0  0  0
 82201  1  0  0  0
 82202  1  0  0  0
 83 84  2  0  0  0
 83 85  1  0  0  0
 85203  1  0  0  0
 86 87  1  0  0  0
 86204  1  0  0  0
 87 88  1  0  0  0
 87 90  1  0  0  0
 87205  1  0  0  0
 88 89  2  0  0  0
 88 94  1  0  0  0
 90 91  1  0  0  0
 90206  1  0  0  0
 90207  1  0  0  0
 91 92  1  0  0  0
 91 93  1  0  0  0
 91208  1  0  0  0
 92209  1  0  0  0
 92210  1  0  0  0
 92211  1  0  0  0
 93212  1  0  0  0
 93213  1  0  0  0
 93214  1  0  0  0
 94 95  1  0  0  0
 94215  1  0  0  0
 95 96  1  0  0  0
 95 98  1  0  0  0
 95216  1  0  0  0
 96 97  2  0  0  0
 96 99  1  0  0  0
 98217  1  0  0  0
 98218  1  0  0  0
 98219  1  0  0  0
 99100  1  0  0  0
 99220  1  0  0  0
100101  1  0  0  0
100221  1  0  0  0
100222  1  0  0  0
101102  2  0  0  0
101103  1  0  0  0
103104  1  0  0  0
103223  1  0  0  0
104105  1  0  0  0
104107  1  0  0  0
104224  1  0  0  0
105106  1  0  0  0
105109  2  0  0  0
106225  1  0  0  0
107108  1  0  0  0
107226  1  0  0  0
107227  1  0  0  0
108228  1  0  0  0
M  CHG  1   1   1
M  END
> <s_m_source_file>
../3v30_ligand.sdf

> <i_m_source_file_index>
1

> <s_epik_input>
W09IXVtDQEhdKFtDSDNdKVtDQEhdKFtOSDMrXSlDKD1PKVtOSF1bQ0BASF0oW0NIMl1bQ0hdKFtDSDNdKVtDSDNdKUMoPU8pW05IXVtDQEBIXShbQ0hdKFtDSDNdKVtDSDNdKUMoPU8pW05IXVtDQEBIXShbQ0gyXVtPSF0pQyg9TylbTkhdW0NAQEhdKFtDSDJdW0NIMl1TW0NIM10pQyg9TylOMVtDQEBIXShbQ0gyXVtDSDJdW0NIMl0xKUMoPU8pTjJbQ0BASF0oW0NIMl1bQ0gyXVtDSDJdMilDKD1PKVtOSF1bQ0BASF0oW0NIMl1bQ0hdKFtDSDNdKVtDSDNdKUMoPU8pTjNbQ0BASF0oW0NIMl1bQ0gyXVtDSDJdMylDKD1PKVtOSF1bQ0gyXUMoPU8pW05IXVtDQEBIXShbQ0gyXVtDSF0oW0NIM10pW0NIM10pQyg9TylbTkhdW0NAQEhdKFtDSDJdQyg9TylbT0hdKUMoPU8pW05IXVtDQEBIXShbQ0gyXVtDSF0oW0NIM10pW0NIM10pQyg9TylbTkhdW0NAQEhdKFtDSDNdKUMoPU8pW05IXVtDSDJdQyg9TylbTkhdW0NASF0oQyg9TylbT0hdKVtDSDJdW09IXQ==

> <s_epik_cmdline>
J2VwaWtfYXBwJywgJy1pbWFlJywgJ2xpZ2FuZF9wcm8ubWFlJywgJy1vbWFlJywgJ2xpZ2FuZF9wcmVwLm1hZScsICctbXMnLCAnMScsICctcGgnLCAnNycsICctcGh0JywgJzAuNScsICctbnQn

> <s_epik_pKa_notes>
Molecule size exceeds maximum supported for generating protonation states

$$$$
