3v31_ligand
                    3D
 Schrodinger Suite 2020-3.
270274  0  0  1  0            999 V2000
  -16.6370    3.5410   35.1700 C   0  0  0  0  0  0
  -16.1370    2.4830   35.5330 O   0  0  0  0  0  0
  -16.1690    4.8860   35.6840 C   0  0  0  0  0  0
  -17.5510    3.5420   34.2200 N   0  0  0  0  0  0
  -18.0490    2.2710   33.6860 C   0  0  2  0  0  0
  -17.1990    1.8140   32.4970 C   0  0  0  0  0  0
  -16.4350    2.6050   31.9730 O   0  0  0  0  0  0
  -19.5070    2.4170   33.2640 C   0  0  0  0  0  0
  -20.4730    2.7710   34.3970 C   0  0  0  0  0  0
  -21.8470    2.9740   33.8030 C   0  0  0  0  0  0
  -20.5010    1.6440   35.4200 C   0  0  0  0  0  0
  -17.3490    0.5430   32.0630 N   0  0  0  0  0  0
  -16.5610    0.1280   30.8870 C   0  0  2  0  0  0
  -16.9030    0.9050   29.6220 C   0  0  0  0  0  0
  -18.0480    1.3300   29.4410 O   0  0  0  0  0  0
  -16.9630   -1.3410   30.6990 C   0  0  0  0  0  0
  -17.3790   -1.7640   32.0770 C   0  0  0  0  0  0
  -18.1030   -0.5910   32.6330 C   0  0  0  0  0  0
  -15.9070    1.0780   28.7690 N   0  0  0  0  0  0
  -16.1200    1.5110   27.3870 C   0  0  2  0  0  0
  -16.6210    0.3390   26.5700 C   0  0  0  0  0  0
  -16.0650   -0.7630   26.6490 O   0  0  0  0  0  0
  -14.8090    2.0330   26.7920 C   0  0  0  0  0  0
  -14.0740    3.1380   27.5450 C   0  0  0  0  0  0
  -12.7960    3.5270   26.8330 C   0  0  0  0  0  0
  -14.9390    4.3690   27.7360 C   0  0  0  0  0  0
  -17.6400    0.5860   25.7590 N   0  0  0  0  0  0
  -18.1620   -0.4360   24.8420 C   0  0  2  0  0  0
  -17.5030   -0.3980   23.4600 C   0  0  0  0  0  0
  -17.8520   -1.1940   22.6030 O   0  0  0  0  0  0
  -19.6930   -0.3400   24.6960 C   0  0  0  0  0  0
  -20.1510    1.0570   24.3530 C   0  0  0  0  0  0
  -20.0720    1.5360   23.0410 C   0  0  0  0  0  0
  -20.6110    1.9130   25.3480 C   0  0  0  0  0  0
  -20.4410    2.8300   22.7340 C   0  0  0  0  0  0
  -21.0000    3.2060   25.0430 C   0  0  0  0  0  0
  -20.9030    3.6530   23.7440 C   0  0  0  0  0  0
  -21.2710    4.9400   23.4300 O   0  0  0  0  0  0
  -16.5630    0.5260   23.2500 N   0  0  0  0  0  0
  -15.8430    0.6640   21.9770 C   0  0  2  0  0  0
  -14.6970   -0.3510   21.8640 C   0  0  0  0  0  0
  -13.5150    0.0160   21.9320 O   0  0  0  0  0  0
  -15.2950    2.1130   21.8200 C   0  0  2  0  0  0
  -14.7350    2.5460   23.0660 O   0  0  0  0  0  0
  -16.4270    3.0730   21.4410 C   0  0  0  0  0  0
  -15.0370   -1.6320   21.6980 N   0  0  0  0  0  0
  -13.9910   -2.6520   21.5940 C   0  0  2  0  0  0
  -13.1450   -2.4190   20.3460 C   0  0  0  0  0  0
  -13.6510   -1.9420   19.3260 O   0  0  0  0  0  0
  -14.5630   -4.0770   21.6120 C   0  0  0  0  0  0
  -15.6350   -4.2110   20.7250 O   0  0  0  0  0  0
  -11.8490   -2.7340   20.4260 N   0  0  0  0  0  0
  -10.9820   -2.6180   19.2660 C   0  0  2  0  0  0
  -11.5630   -3.2780   18.0150 C   0  0  0  0  0  0
  -12.1210   -4.3820   18.0720 O   0  0  0  0  0  0
   -9.6980   -3.3110   19.7200 C   0  0  0  0  0  0
   -9.6670   -3.0580   21.2270 C   0  0  0  0  0  0
  -11.1240   -3.1760   21.6350 C   0  0  0  0  0  0
  -11.4330   -2.5820   16.8840 N   0  0  0  0  0  0
  -11.9820   -3.0620   15.6380 C   0  0  2  0  0  0
  -11.2160   -2.4670   14.4880 C   0  0  0  0  0  0
  -10.7640   -1.3220   14.5610 O   0  0  0  0  0  0
  -13.4600   -2.6670   15.5290 C   0  0  0  0  0  0
  -14.0100   -3.1590   14.3250 O   0  0  0  0  0  0
  -11.0570   -3.2620   13.4340 N   0  0  0  0  0  0
  -10.4950   -2.7580   12.1740 C   0  0  2  0  0  0
  -11.6160   -2.6570   11.1470 C   0  0  0  0  0  0
  -12.5070   -3.5280   11.1120 O   0  0  0  0  0  0
   -9.3980   -3.6810   11.6680 C   0  0  0  0  0  0
   -8.1510   -3.7800   12.5410 C   0  0  0  0  0  0
   -7.3130   -4.9770   12.1460 C   0  0  0  0  0  0
   -7.3300   -2.4740   12.4730 C   0  0  0  0  0  0
  -11.6000   -1.5840   10.3330 N   0  0  0  0  0  0
  -12.6940   -1.3610    9.3960 C   0  0  2  0  0  0
  -12.6450   -2.2750    8.1870 C   0  0  0  0  0  0
  -11.6190   -2.9250    7.9160 O   0  0  0  0  0  0
  -12.4740    0.0860    8.9580 C   0  0  0  0  0  0
  -10.9740    0.2290    9.0160 C   0  0  0  0  0  0
  -10.6270   -0.4750   10.2980 C   0  0  0  0  0  0
  -13.7770   -2.3140    7.4840 N   0  0  0  0  0  0
  -13.8870   -2.9100    6.1650 C   0  0  2  0  0  0
  -13.1980   -2.0180    5.1300 C   0  0  0  0  0  0
  -13.5780   -0.8530    4.9330 O   0  0  0  0  0  0
  -15.3640   -3.1020    5.8170 C   0  0  0  0  0  0
  -15.5760   -3.7610    4.4640 C   0  0  0  0  0  0
  -14.6620   -3.8530    3.6370 O   0  0  0  0  0  0
  -16.7980   -4.2310    4.2350 N   0  0  0  0  0  0
  -12.1800   -2.5690    4.4720 N   0  0  0  0  0  0
  -11.3860   -1.7770    3.5320 C   0  0  2  0  0  0
  -11.5410   -2.1900    2.0690 C   0  0  0  0  0  0
  -10.7490   -1.7800    1.2190 O   0  0  0  0  0  0
   -9.8900   -1.7170    3.9250 C   0  0  2  0  0  0
   -9.2770   -3.1140    4.0660 C   0  0  0  0  0  0
   -9.7110   -0.9230    5.2040 C   0  0  0  0  0  0
   -7.7320   -3.1080    4.1960 C   0  0  0  0  0  0
  -12.5660   -2.9810    1.7830 N   0  0  0  0  0  0
  -12.7730   -3.5280    0.4450 C   0  0  2  0  0  0
  -13.2870   -2.4880   -0.5630 C   0  0  0  0  0  0
  -13.9130   -1.4840   -0.1960 O   0  0  0  0  0  0
  -13.7580   -4.7340    0.4670 C   0  0  2  0  0  0
  -15.0820   -4.2690    0.7420 O   0  0  0  0  0  0
  -13.3560   -5.7860    1.5170 C   0  0  0  0  0  0
  -13.0020   -2.7380   -1.8350 N   0  0  0  0  0  0
  -13.5720   -1.9600   -2.9280 C   0  0  2  0  0  0
  -14.4330   -2.8780   -3.7770 C   0  0  0  0  0  0
  -14.3530   -4.1110   -3.6560 O   0  0  0  0  0  0
  -12.4700   -1.3330   -3.7840 C   0  0  0  0  0  0
  -11.5190   -0.3310   -3.1130 C   0  0  0  0  0  0
  -10.3440   -0.0410   -4.0300 C   0  0  0  0  0  0
  -12.2500    0.9710   -2.6970 C   0  0  0  0  0  0
  -15.2580   -2.2780   -4.6340 N   0  0  0  0  0  0
  -16.2440   -3.0270   -5.4080 C   0  0  0  0  0  0
  -17.4020   -3.4340   -4.5200 C   0  0  0  0  0  0
  -17.4580   -3.0590   -3.3480 O   0  0  0  0  0  0
  -18.3280   -4.2100   -5.0670 N   0  0  0  0  0  0
  -19.4730   -4.6450   -4.2790 C   0  0  2  0  0  0
  -19.0560   -5.7240   -3.2910 C   0  0  0  0  0  0
  -18.1730   -6.5340   -3.6000 O   0  0  0  0  0  0
  -20.6020   -5.1480   -5.1820 C   0  0  0  0  0  0
  -21.1800   -4.0830   -6.1140 C   0  0  0  0  0  0
  -22.1600   -4.7040   -7.0800 C   0  0  0  0  0  0
  -21.8310   -2.9490   -5.3220 C   0  0  0  0  0  0
  -19.6670   -5.7250   -2.0860 N   0  0  0  0  0  0
  -19.4680   -6.8440   -1.1660 C   0  0  2  0  0  0
  -19.8700   -8.1600   -1.8410 C   0  0  0  0  0  0
  -19.0570   -9.0720   -2.0210 O   0  0  0  0  0  0
  -20.4210   -6.5160   -0.0130 C   0  0  0  0  0  0
  -20.5140   -5.0230   -0.0240 C   0  0  0  0  0  0
  -20.4800   -4.6510   -1.4800 C   0  0  0  0  0  0
  -21.0140   -8.3370   -2.2570 O   0  0  0  0  0  0
  -15.4120    4.7358   36.4678 H   0  0  0  0  0  0
  -17.0247    5.4369   36.1015 H   0  0  0  0  0  0
  -15.7303    5.4624   34.8562 H   0  0  0  0  0  0
  -17.9399    4.4934   33.8280 H   0  0  0  0  0  0
  -17.9654    1.5412   34.5048 H   0  0  0  0  0  0
  -19.5932    3.2167   32.5136 H   0  0  0  0  0  0
  -19.8603    1.4691   32.8319 H   0  0  0  0  0  0
  -20.1581    3.6942   34.9055 H   0  0  0  0  0  0
  -21.8111    3.7904   33.0666 H   0  0  0  0  0  0
  -22.5575    3.2320   34.6022 H   0  0  0  0  0  0
  -22.1729    2.0474   33.3077 H   0  0  0  0  0  0
  -19.4949    1.5080   35.8434 H   0  0  0  0  0  0
  -20.8219    0.7126   34.9307 H   0  0  0  0  0  0
  -21.2065    1.8971   36.2251 H   0  0  0  0  0  0
  -15.4953    0.3207   31.0797 H   0  0  0  0  0  0
  -17.7867   -1.4057   29.9729 H   0  0  0  0  0  0
  -16.1001   -1.9125   30.3264 H   0  0  0  0  0  0
  -18.0290   -2.6488   32.0084 H   0  0  0  0  0  0
  -16.4860   -2.0102   32.6702 H   0  0  0  0  0  0
  -18.0623   -0.5434   33.7312 H   0  0  0  0  0  0
  -19.1508   -0.5379   32.3023 H   0  0  0  0  0  0
  -14.8876    0.8833   29.1334 H   0  0  0  0  0  0
  -16.8752    2.3105   27.4091 H   0  0  0  0  0  0
  -14.0862    1.2073   26.7166 H   0  0  0  0  0  0
  -14.9997    2.4460   25.7905 H   0  0  0  0  0  0
  -13.8230    2.7366   28.5379 H   0  0  0  0  0  0
  -12.1677    2.6349   26.6939 H   0  0  0  0  0  0
  -12.2515    4.2686   27.4360 H   0  0  0  0  0  0
  -13.0402    3.9602   25.8518 H   0  0  0  0  0  0
  -15.8681    4.0876   28.2533 H   0  0  0  0  0  0
  -15.1825    4.8019   26.7545 H   0  0  0  0  0  0
  -14.3938    5.1103   28.3387 H   0  0  0  0  0  0
  -18.0962    1.5866   25.7846 H   0  0  0  0  0  0
  -17.8776   -1.3754   25.3385 H   0  0  0  0  0  0
  -20.0278   -1.0141   23.8938 H   0  0  0  0  0  0
  -20.1707   -0.6315   25.6430 H   0  0  0  0  0  0
  -19.7138    0.8776   22.2496 H   0  0  0  0  0  0
  -20.6658    1.5621   26.3785 H   0  0  0  0  0  0
  -20.3692    3.1975   21.7104 H   0  0  0  0  0  0
  -21.3798    3.8646   25.8241 H   0  0  0  0  0  0
  -21.1934    5.2966   22.3923 H   0  0  0  0  0  0
  -16.3362    1.2034   24.0864 H   0  0  0  0  0  0
  -16.5927    0.4362   21.2050 H   0  0  0  0  0  0
  -14.4837    2.1536   21.0783 H   0  0  0  0  0  0
  -13.9018    1.9879   23.5181 H   0  0  0  0  0  0
  -16.8709    2.7573   20.4854 H   0  0  0  0  0  0
  -16.0251    4.0920   21.3398 H   0  0  0  0  0  0
  -17.1977    3.0591   22.2257 H   0  0  0  0  0  0
  -16.0963   -1.9225   21.6393 H   0  0  0  0  0  0
  -13.3739   -2.5145   22.4941 H   0  0  0  0  0  0
  -13.7786   -4.7907   21.3198 H   0  0  0  0  0  0
  -14.9179   -4.3169   22.6252 H   0  0  0  0  0  0
  -16.1499   -5.1781   20.6266 H   0  0  0  0  0  0
  -10.8635   -1.5563   19.0037 H   0  0  0  0  0  0
   -9.7541   -4.3824   19.4772 H   0  0  0  0  0  0
   -8.8368   -2.8625   19.2031 H   0  0  0  0  0  0
   -9.0333   -3.8145   21.7128 H   0  0  0  0  0  0
   -9.2570   -2.0561   21.4223 H   0  0  0  0  0  0
  -11.3803   -2.5170   22.4777 H   0  0  0  0  0  0
  -11.4113   -4.2098   21.8774 H   0  0  0  0  0  0
  -10.8940   -1.6236   16.9146 H   0  0  0  0  0  0
  -11.8608   -4.1553   15.6477 H   0  0  0  0  0  0
  -14.0163   -3.0908   16.3780 H   0  0  0  0  0  0
  -13.5486   -1.5707   15.5432 H   0  0  0  0  0  0
  -15.0658   -2.9666   14.0836 H   0  0  0  0  0  0
  -11.3562   -4.3170   13.5197 H   0  0  0  0  0  0
  -10.0580   -1.7692   12.3776 H   0  0  0  0  0  0
   -9.7913   -4.7046   11.5807 H   0  0  0  0  0  0
   -9.0536   -3.3352   10.6822 H   0  0  0  0  0  0
   -8.4716   -3.9419   13.5807 H   0  0  0  0  0  0
   -7.9255   -5.8888   12.2048 H   0  0  0  0  0  0
   -6.4560   -5.0663   12.8297 H   0  0  0  0  0  0
   -6.9486   -4.8458   11.1164 H   0  0  0  0  0  0
   -7.9661   -1.6254   12.7651 H   0  0  0  0  0  0
   -6.9659   -2.3229   11.4461 H   0  0  0  0  0  0
   -6.4732   -2.5434   13.1594 H   0  0  0  0  0  0
  -13.6503   -1.5785    9.8942 H   0  0  0  0  0  0
  -12.8746    0.2269    7.9433 H   0  0  0  0  0  0
  -12.9918    0.7625    9.6538 H   0  0  0  0  0  0
  -10.5257   -0.2490    8.1325 H   0  0  0  0  0  0
  -10.7077    1.2962    9.0303 H   0  0  0  0  0  0
  -10.7653    0.1622   11.1839 H   0  0  0  0  0  0
   -9.6056   -0.8833   10.2959 H   0  0  0  0  0  0
  -14.6599   -1.8604    7.9579 H   0  0  0  0  0  0
  -13.3776   -3.8837    6.2131 H   0  0  0  0  0  0
  -15.8398   -3.7395    6.5767 H   0  0  0  0  0  0
  -15.8654   -2.1232    5.7935 H   0  0  0  0  0  0
  -17.5801   -4.1262    5.0013 H   0  0  0  0  0  0
  -17.0272   -4.7248    3.2791 H   0  0  0  0  0  0
  -11.9378   -3.6288    4.6399 H   0  0  0  0  0  0
  -11.8577   -0.7896    3.6441 H   0  0  0  0  0  0
   -9.3410   -1.2000    3.1242 H   0  0  0  0  0  0
   -9.6789   -3.6016    4.9664 H   0  0  0  0  0  0
   -9.5282   -3.7158    3.1801 H   0  0  0  0  0  0
  -10.1573    0.0749    5.0816 H   0  0  0  0  0  0
   -8.6383   -0.8203    5.4247 H   0  0  0  0  0  0
  -10.2075   -1.4475    6.0337 H   0  0  0  0  0  0
   -7.3682   -4.1416    4.2927 H   0  0  0  0  0  0
   -7.4413   -2.5320    5.0869 H   0  0  0  0  0  0
   -7.2905   -2.6462    3.3006 H   0  0  0  0  0  0
  -13.2723   -3.2220    2.5911 H   0  0  0  0  0  0
  -11.7522   -3.8290    0.1669 H   0  0  0  0  0  0
  -13.8060   -5.2056   -0.5256 H   0  0  0  0  0  0
  -15.5437   -3.5093    0.0942 H   0  0  0  0  0  0
  -12.3376   -6.1441    1.3060 H   0  0  0  0  0  0
  -14.0580   -6.6319    1.4759 H   0  0  0  0  0  0
  -13.3853   -5.3335    2.5192 H   0  0  0  0  0  0
  -12.3097   -3.5650   -2.0512 H   0  0  0  0  0  0
  -14.1769   -1.1627   -2.4715 H   0  0  0  0  0  0
  -11.8177   -2.1253   -4.1799 H   0  0  0  0  0  0
  -12.9244   -0.7805   -4.6196 H   0  0  0  0  0  0
  -11.1225   -0.7924   -2.1965 H   0  0  0  0  0  0
   -9.8508   -0.9853   -4.3038 H   0  0  0  0  0  0
   -9.6258    0.6107   -3.5108 H   0  0  0  0  0  0
  -10.7042    0.4618   -4.9397 H   0  0  0  0  0  0
  -13.0928    0.7228   -2.0351 H   0  0  0  0  0  0
  -12.6272    1.4826   -3.5948 H   0  0  0  0  0  0
  -11.5488    1.6315   -2.1659 H   0  0  0  0  0  0
  -15.1813   -1.1868   -4.7501 H   0  0  0  0  0  0
  -16.6212   -2.3980   -6.2278 H   0  0  0  0  0  0
  -15.7739   -3.9298   -5.8250 H   0  0  0  0  0  0
  -18.2309   -4.5251   -6.1164 H   0  0  0  0  0  0
  -19.8100   -3.7522   -3.7318 H   0  0  0  0  0  0
  -20.2274   -5.9641   -5.8173 H   0  0  0  0  0  0
  -21.4311   -5.5179   -4.5609 H   0  0  0  0  0  0
  -20.3585   -3.6524   -6.7054 H   0  0  0  0  0  0
  -21.6646   -5.5148   -7.6343 H   0  0  0  0  0  0
  -22.5129   -3.9387   -7.7870 H   0  0  0  0  0  0
  -23.0165   -5.1110   -6.5225 H   0  0  0  0  0  0
  -21.0950   -2.5168   -4.6282 H   0  0  0  0  0  0
  -22.6850   -3.3433   -4.7518 H   0  0  0  0  0  0
  -22.1814   -2.1710   -6.0162 H   0  0  0  0  0  0
  -18.4134   -6.9329   -0.8660 H   0  0  0  0  0  0
  -19.3761  -10.0050   -2.5085 H   0  0  0  0  0  0
  -21.3960   -6.9909   -0.1968 H   0  0  0  0  0  0
  -20.0003   -6.8956    0.9298 H   0  0  0  0  0  0
  -21.4530   -4.7106    0.4562 H   0  0  0  0  0  0
  -19.6617   -4.5984    0.5267 H   0  0  0  0  0  0
  -19.9935   -3.6800   -1.6545 H   0  0  0  0  0  0
  -21.4809   -4.6469   -1.9363 H   0  0  0  0  0  0
  1  2  2  0  0  0
  1  3  1  0  0  0
  1  4  1  0  0  0
  3131  1  0  0  0
  3132  1  0  0  0
  3133  1  0  0  0
  4  5  1  0  0  0
  4134  1  0  0  0
  5  6  1  0  0  0
  5  8  1  0  0  0
  5135  1  0  0  0
  6  7  2  0  0  0
  6 12  1  0  0  0
  8  9  1  0  0  0
  8136  1  0  0  0
  8137  1  0  0  0
  9 10  1  0  0  0
  9 11  1  0  0  0
  9138  1  0  0  0
 10139  1  0  0  0
 10140  1  0  0  0
 10141  1  0  0  0
 11142  1  0  0  0
 11143  1  0  0  0
 11144  1  0  0  0
 12 13  1  0  0  0
 12 18  1  0  0  0
 13 14  1  0  0  0
 13 16  1  0  0  0
 13145  1  0  0  0
 14 15  2  0  0  0
 14 19  1  0  0  0
 16 17  1  0  0  0
 16146  1  0  0  0
 16147  1  0  0  0
 17 18  1  0  0  0
 17148  1  0  0  0
 17149  1  0  0  0
 18150  1  0  0  0
 18151  1  0  0  0
 19 20  1  0  0  0
 19152  1  0  0  0
 20 21  1  0  0  0
 20 23  1  0  0  0
 20153  1  0  0  0
 21 22  2  0  0  0
 21 27  1  0  0  0
 23 24  1  0  0  0
 23154  1  0  0  0
 23155  1  0  0  0
 24 25  1  0  0  0
 24 26  1  0  0  0
 24156  1  0  0  0
 25157  1  0  0  0
 25158  1  0  0  0
 25159  1  0  0  0
 26160  1  0  0  0
 26161  1  0  0  0
 26162  1  0  0  0
 27 28  1  0  0  0
 27163  1  0  0  0
 28 29  1  0  0  0
 28 31  1  0  0  0
 28164  1  0  0  0
 29 30  2  0  0  0
 29 39  1  0  0  0
 31 32  1  0  0  0
 31165  1  0  0  0
 31166  1  0  0  0
 32 33  2  0  0  0
 32 34  1  0  0  0
 33 35  1  0  0  0
 33167  1  0  0  0
 34 36  2  0  0  0
 34168  1  0  0  0
 35 37  2  0  0  0
 35169  1  0  0  0
 36 37  1  0  0  0
 36170  1  0  0  0
 37 38  1  0  0  0
 38171  1  0  0  0
 39 40  1  0  0  0
 39172  1  0  0  0
 40 41  1  0  0  0
 40 43  1  0  0  0
 40173  1  0  0  0
 41 42  2  0  0  0
 41 46  1  0  0  0
 43 44  1  0  0  0
 43 45  1  0  0  0
 43174  1  0  0  0
 44175  1  0  0  0
 45176  1  0  0  0
 45177  1  0  0  0
 45178  1  0  0  0
 46 47  1  0  0  0
 46179  1  0  0  0
 47 48  1  0  0  0
 47 50  1  0  0  0
 47180  1  0  0  0
 48 49  2  0  0  0
 48 52  1  0  0  0
 50 51  1  0  0  0
 50181  1  0  0  0
 50182  1  0  0  0
 51183  1  0  0  0
 52 53  1  0  0  0
 52 58  1  0  0  0
 53 54  1  0  0  0
 53 56  1  0  0  0
 53184  1  0  0  0
 54 55  2  0  0  0
 54 59  1  0  0  0
 56 57  1  0  0  0
 56185  1  0  0  0
 56186  1  0  0  0
 57 58  1  0  0  0
 57187  1  0  0  0
 57188  1  0  0  0
 58189  1  0  0  0
 58190  1  0  0  0
 59 60  1  0  0  0
 59191  1  0  0  0
 60 61  1  0  0  0
 60 63  1  0  0  0
 60192  1  0  0  0
 61 62  2  0  0  0
 61 65  1  0  0  0
 63 64  1  0  0  0
 63193  1  0  0  0
 63194  1  0  0  0
 64195  1  0  0  0
 65 66  1  0  0  0
 65196  1  0  0  0
 66 67  1  0  0  0
 66 69  1  0  0  0
 66197  1  0  0  0
 67 68  2  0  0  0
 67 73  1  0  0  0
 69 70  1  0  0  0
 69198  1  0  0  0
 69199  1  0  0  0
 70 71  1  0  0  0
 70 72  1  0  0  0
 70200  1  0  0  0
 71201  1  0  0  0
 71202  1  0  0  0
 71203  1  0  0  0
 72204  1  0  0  0
 72205  1  0  0  0
 72206  1  0  0  0
 73 74  1  0  0  0
 73 79  1  0  0  0
 74 75  1  0  0  0
 74 77  1  0  0  0
 74207  1  0  0  0
 75 76  2  0  0  0
 75 80  1  0  0  0
 77 78  1  0  0  0
 77208  1  0  0  0
 77209  1  0  0  0
 78 79  1  0  0  0
 78210  1  0  0  0
 78211  1  0  0  0
 79212  1  0  0  0
 79213  1  0  0  0
 80 81  1  0  0  0
 80214  1  0  0  0
 81 82  1  0  0  0
 81 84  1  0  0  0
 81215  1  0  0  0
 82 83  2  0  0  0
 82 88  1  0  0  0
 84 85  1  0  0  0
 84216  1  0  0  0
 84217  1  0  0  0
 85 86  2  0  0  0
 85 87  1  0  0  0
 87218  1  0  0  0
 87219  1  0  0  0
 88 89  1  0  0  0
 88220  1  0  0  0
 89 90  1  0  0  0
 89 92  1  0  0  0
 89221  1  0  0  0
 90 91  2  0  0  0
 90 96  1  0  0  0
 92 93  1  0  0  0
 92 94  1  0  0  0
 92222  1  0  0  0
 93 95  1  0  0  0
 93223  1  0  0  0
 93224  1  0  0  0
 94225  1  0  0  0
 94226  1  0  0  0
 94227  1  0  0  0
 95228  1  0  0  0
 95229  1  0  0  0
 95230  1  0  0  0
 96 97  1  0  0  0
 96231  1  0  0  0
 97 98  1  0  0  0
 97100  1  0  0  0
 97232  1  0  0  0
 98 99  2  0  0  0
 98103  1  0  0  0
100101  1  0  0  0
100102  1  0  0  0
100233  1  0  0  0
101234  1  0  0  0
102235  1  0  0  0
102236  1  0  0  0
102237  1  0  0  0
103104  1  0  0  0
103238  1  0  0  0
104105  1  0  0  0
104107  1  0  0  0
104239  1  0  0  0
105106  2  0  0  0
105111  1  0  0  0
107108  1  0  0  0
107240  1  0  0  0
107241  1  0  0  0
108109  1  0  0  0
108110  1  0  0  0
108242  1  0  0  0
109243  1  0  0  0
109244  1  0  0  0
109245  1  0  0  0
110246  1  0  0  0
110247  1  0  0  0
110248  1  0  0  0
111112  1  0  0  0
111249  1  0  0  0
112113  1  0  0  0
112250  1  0  0  0
112251  1  0  0  0
113114  2  0  0  0
113115  1  0  0  0
115116  1  0  0  0
115252  1  0  0  0
116117  1  0  0  0
116119  1  0  0  0
116253  1  0  0  0
117118  2  0  0  0
117123  1  0  0  0
119120  1  0  0  0
119254  1  0  0  0
119255  1  0  0  0
120121  1  0  0  0
120122  1  0  0  0
120256  1  0  0  0
121257  1  0  0  0
121258  1  0  0  0
121259  1  0  0  0
122260  1  0  0  0
122261  1  0  0  0
122262  1  0  0  0
123124  1  0  0  0
123129  1  0  0  0
124125  1  0  0  0
124127  1  0  0  0
124263  1  0  0  0
125126  1  0  0  0
125130  2  0  0  0
126264  1  0  0  0
127128  1  0  0  0
127265  1  0  0  0
127266  1  0  0  0
128129  1  0  0  0
128267  1  0  0  0
128268  1  0  0  0
129269  1  0  0  0
129270  1  0  0  0
M  END
> <s_m_source_file>
../3v31_ligand.sdf

> <i_m_source_file_index>
1

> <s_epik_input>
Tz1DKFtDSDNdKVtOSF1bQ0BASF0oW0NIMl1bQ0hdKFtDSDNdKVtDSDNdKUMoPU8pTjFbQ0BASF0oW0NIMl1bQ0gyXVtDSDJdMSlDKD1PKVtOSF1bQ0BASF0oW0NIMl1bQ0hdKFtDSDNdKVtDSDNdKUMoPU8pW05IXVtDQEBIXShbQ0gyXWMyW2NIXVtjSF1jKFtPSF0pW2NIXVtjSF0yKUMoPU8pW05IXVtDQEBIXShbQ0BIXShbT0hdKVtDSDNdKUMoPU8pW05IXVtDQEBIXShbQ0gyXVtPSF0pQyg9TylOM1tDQEBIXShbQ0gyXVtDSDJdW0NIMl0zKUMoPU8pW05IXVtDQEBIXShbQ0gyXVtPSF0pQyg9TylbTkhdW0NAQEhdKFtDSDJdW0NIXShbQ0gzXSlbQ0gzXSlDKD1PKU40W0NAQEhdKFtDSDJdW0NIMl1bQ0gyXTQpQyg9TylbTkhdW0NAQEhdKFtDSDJdQyg9TylbTkgyXSlDKD1PKVtOSF1bQ0BASF0oW0NAQEhdKFtDSDNdKVtDSDJdW0NIM10pQyg9TylbTkhdW0NAQEhdKFtDQEhdKFtPSF0pW0NIM10pQyg9TylbTkhdW0NAQEhdKFtDSDJdW0NIXShbQ0gzXSlbQ0gzXSlDKD1PKVtOSF1bQ0gyXUMoPU8pW05IXVtDQEBIXShbQ0gyXVtDSF0oW0NIM10pW0NIM10pQyg9TylONVtDQEhdKEMoPU8pW09IXSlbQ0gyXVtDSDJdW0NIMl01

> <s_epik_cmdline>
J2VwaWtfYXBwJywgJy1pbWFlJywgJ2xpZ2FuZF9wcm8ubWFlJywgJy1vbWFlJywgJ2xpZ2FuZF9wcmVwLm1hZScsICctbXMnLCAnMScsICctcGgnLCAnNycsICctcGh0JywgJzAuNScsICctbnQn

> <s_epik_pKa_notes>
Molecule size exceeds maximum supported for generating protonation states

$$$$
