3v3b_ligand
                    3D
 Schrodinger Suite 2020-3.
248251  0  0  1  0            999 V2000
   18.8510    2.9940   -0.1650 N   0  3  0  0  0  0
   17.4680    3.2310   -0.6820 C   0  0  2  0  0  0
   16.5740    3.9900    0.3150 C   0  0  0  0  0  0
   16.7510    3.9270    1.5280 O   0  0  0  0  0  0
   16.8110    1.9130   -1.0890 C   0  0  0  0  0  0
   17.1020    1.4980   -2.5280 C   0  0  0  0  0  0
   15.6240    4.7210   -0.2360 N   0  0  0  0  0  0
   14.6960    5.5430    0.5270 C   0  0  2  0  0  0
   13.5170    4.6490    0.9590 C   0  0  0  0  0  0
   13.1170    3.7640    0.2040 O   0  0  0  0  0  0
   14.2430    6.7430   -0.3770 C   0  0  2  0  0  0
   15.0760    7.8900   -0.1170 O   0  0  0  0  0  0
   12.8390    7.1080   -0.1460 C   0  0  0  0  0  0
   12.9610    4.8680    2.1590 N   0  0  0  0  0  0
   11.7230    4.1800    2.5400 C   0  0  2  0  0  0
   10.6700    4.3100    1.4290 C   0  0  0  0  0  0
   10.0380    3.3010    1.0730 O   0  0  0  0  0  0
   11.1230    4.6620    3.8680 C   0  0  0  0  0  0
    9.7500    4.0860    4.1340 C   0  0  0  0  0  0
    9.6070    2.8170    4.6840 C   0  0  0  0  0  0
    8.6060    4.7810    3.7540 C   0  0  0  0  0  0
    8.3480    2.2640    4.8850 C   0  0  0  0  0  0
    7.3410    4.2410    3.9470 C   0  0  0  0  0  0
    7.2050    2.9750    4.5070 C   0  0  0  0  0  0
    8.8740    3.9210   -1.6950 O   0  0  0  0  0  0
    9.7740    4.7300   -1.4280 C   0  0  0  0  0  0
    9.5660    5.8020   -0.3080 C   0  0  1  0  0  0
    9.9680    7.2040   -0.8260 C   0  0  0  0  0  0
    8.0970    5.8400    0.1360 C   0  0  0  0  0  0
   10.4000    5.4430    0.8680 N   0  0  0  0  0  0
    7.0340    6.5230   -0.6290 C   0  0  0  0  0  0
    5.7360    5.9740    0.0170 C   0  0  0  0  0  0
    4.5200    6.8140   -0.3790 C   0  0  0  0  0  0
    3.8640    6.2470   -1.6300 C   0  0  0  0  0  0
    3.1500    4.9380   -1.2870 C   0  0  0  0  0  0
    3.4420    3.9750   -2.2320 C   0  0  0  0  0  0
   10.9520    4.4840   -1.9020 N   0  0  0  0  0  0
   11.2230    3.5040   -2.9860 C   0  0  2  0  0  0
   11.0710    2.0650   -2.5520 C   0  0  0  0  0  0
   10.5630    1.2540   -3.3310 O   0  0  0  0  0  0
   12.5870    3.7630   -3.6140 C   0  0  0  0  0  0
   12.5740    4.9790   -4.5170 C   0  0  0  0  0  0
   11.5450    5.3030   -5.1430 O   0  0  0  0  0  0
   13.7060    5.6680   -4.5880 N   0  0  0  0  0  0
   11.4720    1.7440   -1.3190 N   0  0  0  0  0  0
   11.2980    0.3840   -0.8050 C   0  0  2  0  0  0
    9.8070    0.0350   -0.7060 C   0  0  0  0  0  0
    9.3940   -1.0680   -1.0710 O   0  0  0  0  0  0
   11.9880    0.1940    0.5590 C   0  0  0  0  0  0
   13.5240    0.2430    0.5650 C   0  0  0  0  0  0
   14.0630    0.4150    1.9760 C   0  0  0  0  0  0
   14.1300   -1.0000   -0.0890 C   0  0  0  0  0  0
    8.9990    0.9740   -0.2140 N   0  0  0  0  0  0
    7.5680    0.7220   -0.0990 C   0  0  2  0  0  0
    6.9180    0.6700   -1.4840 C   0  0  0  0  0  0
    6.0090   -0.1190   -1.7040 O   0  0  0  0  0  0
    6.8740    1.7540    0.7900 C   0  0  0  0  0  0
    5.5000    1.3210    1.2150 C   0  0  0  0  0  0
    4.3080    1.6370    0.6110 C   0  0  0  0  0  0
    5.1720    0.4920    2.3370 C   0  0  0  0  0  0
    3.2660    1.0540    1.2950 N   0  0  0  0  0  0
    3.7690    0.3430    2.3550 C   0  0  0  0  0  0
    5.9280   -0.1440    3.3230 C   0  0  0  0  0  0
    3.1130   -0.4030    3.3220 C   0  0  0  0  0  0
    5.2650   -0.8890    4.2930 C   0  0  0  0  0  0
    3.8750   -1.0120    4.2810 C   0  0  0  0  0  0
    7.3780    1.4990   -2.4170 N   0  0  0  0  0  0
    6.8850    1.3940   -3.8020 C   0  0  2  0  0  0
    7.1680    0.0170   -4.3990 C   0  0  0  0  0  0
    6.2930   -0.5700   -5.0320 O   0  0  0  0  0  0
    7.4700    2.4880   -4.6980 C   0  0  0  0  0  0
    6.8730    3.8400   -4.4370 C   0  0  0  0  0  0
    7.4160    4.9000   -5.3990 C   0  0  0  0  0  0
    6.9630    6.2210   -4.9700 N   0  0  0  0  0  0
    7.7460    7.2500   -4.6600 C   0  0  0  0  0  0
    9.0760    7.1720   -4.7360 N   0  0  0  0  0  0
    7.1830    8.3780   -4.2640 N   0  0  0  0  0  0
    8.3750   -0.5080   -4.1900 N   0  0  0  0  0  0
    8.6890   -1.8770   -4.6210 C   0  0  2  0  0  0
    7.7270   -2.9010   -4.0090 C   0  0  0  0  0  0
    7.2900   -3.8360   -4.6900 O   0  0  0  0  0  0
   10.1360   -2.2510   -4.2800 C   0  0  0  0  0  0
   11.2300   -1.6150   -5.1330 C   0  0  0  0  0  0
   12.6020   -1.9100   -4.5240 C   0  0  0  0  0  0
   11.1380   -2.1170   -6.5930 C   0  0  0  0  0  0
    7.3840   -2.7120   -2.7350 N   0  0  0  0  0  0
    6.3240   -3.4950   -2.0960 C   0  0  2  0  0  0
    5.0010   -3.3150   -2.8690 C   0  0  0  0  0  0
    4.3930   -4.3180   -3.2830 O   0  0  0  0  0  0
    6.1350   -3.0650   -0.6280 C   0  0  0  0  0  0
    5.4980   -4.0290    0.3870 C   0  0  0  0  0  0
    4.7570   -3.2560    1.4970 C   0  0  0  0  0  0
    4.5770   -5.0390   -0.2510 C   0  0  0  0  0  0
    2.9740   -2.5330   -5.1440 C   0  0  0  0  0  0
    4.3670   -2.2040   -3.0580 N   0  0  0  0  0  0
    1.8840   -2.5920   -5.7120 O   0  0  0  0  0  0
    3.0550   -1.8980   -3.7160 C   0  0  1  0  0  0
    2.9030   -0.3910   -3.8960 C   0  0  0  0  0  0
    2.7660    2.0380   -3.4590 C   0  0  0  0  0  0
    2.5070    2.9910   -2.4940 C   0  0  0  0  0  0
    2.6850    0.6190   -2.8700 C   0  0  0  0  0  0
    1.9320   -2.4320   -2.8120 C   0  0  0  0  0  0
    3.9250   -2.2850   -6.0910 N   0  0  0  0  0  0
    4.4930   -2.8220   -7.3690 C   0  0  2  0  0  0
    5.0400   -4.2240   -7.1530 C   0  0  0  0  0  0
    6.2480   -4.4680   -7.2800 O   0  0  0  0  0  0
    5.6120   -1.9350   -7.9020 C   0  0  0  0  0  0
    5.1860   -0.5290   -8.2810 C   0  0  0  0  0  0
    6.3740    0.3420   -8.6470 C   0  0  0  0  0  0
    7.5160   -0.1330   -8.6940 O   0  0  0  0  0  0
    6.1140    1.6270   -8.9060 N   0  0  0  0  0  0
    4.1360   -5.1320   -6.8130 N   0  0  0  0  0  0
    4.4580   -6.5460   -6.6320 C   0  0  2  0  0  0
    5.2410   -7.1260   -7.8100 C   0  0  0  0  0  0
    6.4730   -7.0490   -7.8460 O   0  0  0  0  0  0
    3.1620   -7.3270   -6.4350 C   0  0  0  0  0  0
    2.2960   -6.7290   -5.3480 C   0  0  0  0  0  0
    2.6870   -6.6870   -4.1830 O   0  0  0  0  0  0
    1.1230   -6.2390   -5.7280 N   0  0  0  0  0  0
    4.6540   -7.6810   -8.7440 O   0  0  0  0  0  0
   19.3048    3.9541    0.1217 H   0  0  0  0  0  0
   19.4596    2.5206   -0.9495 H   0  0  0  0  0  0
   18.8059    2.3330    0.7131 H   0  0  0  0  0  0
   17.6025    3.8684   -1.5684 H   0  0  0  0  0  0
   17.1745    1.1053   -0.4366 H   0  0  0  0  0  0
   15.7191    2.0015   -0.9894 H   0  0  0  0  0  0
   16.5971    0.5449   -2.7439 H   0  0  0  0  0  0
   18.1870    1.3769   -2.6624 H   0  0  0  0  0  0
   16.7317    2.2730   -3.2151 H   0  0  0  0  0  0
   15.5544    4.6869   -1.3333 H   0  0  0  0  0  0
   15.2081    5.9183    1.4253 H   0  0  0  0  0  0
   14.3335    6.5037   -1.4468 H   0  0  0  0  0  0
   16.1671    7.8156   -0.2356 H   0  0  0  0  0  0
   12.1966    6.2370   -0.3426 H   0  0  0  0  0  0
   12.5582    7.9304   -0.8204 H   0  0  0  0  0  0
   12.7109    7.4300    0.8980 H   0  0  0  0  0  0
   13.4389    5.5686    2.8596 H   0  0  0  0  0  0
   12.0551    3.1396    2.6713 H   0  0  0  0  0  0
   11.7799    4.3616    4.6976 H   0  0  0  0  0  0
   11.0303    5.7580    3.8521 H   0  0  0  0  0  0
   10.4945    2.2482    4.9613 H   0  0  0  0  0  0
    8.7043    5.7658    3.2972 H   0  0  0  0  0  0
    8.2517    1.2768    5.3370 H   0  0  0  0  0  0
    6.4558    4.8086    3.6600 H   0  0  0  0  0  0
    6.2155    2.5408    4.6500 H   0  0  0  0  0  0
    9.3479    7.4650   -1.6963 H   0  0  0  0  0  0
   11.0279    7.1962   -1.1201 H   0  0  0  0  0  0
    9.8138    7.9471   -0.0298 H   0  0  0  0  0  0
    7.7084    4.8133    0.2057 H   0  0  0  0  0  0
    8.0236    6.3274    1.1194 H   0  0  0  0  0  0
   10.9258    6.2290    1.4299 H   0  0  0  0  0  0
    7.1387    7.6116   -0.5105 H   0  0  0  0  0  0
    7.1216    6.2600   -1.6935 H   0  0  0  0  0  0
    5.5700    4.9390   -0.3163 H   0  0  0  0  0  0
    5.8343    5.9951    1.1124 H   0  0  0  0  0  0
    3.7877    6.8087    0.4418 H   0  0  0  0  0  0
    4.8381    7.8477   -0.5799 H   0  0  0  0  0  0
    3.1332    6.9704   -2.0207 H   0  0  0  0  0  0
    4.6333    6.0548   -2.3924 H   0  0  0  0  0  0
    2.4861    4.6974   -0.4436 H   0  0  0  0  0  0
    4.4055    3.9990   -2.7622 H   0  0  0  0  0  0
   11.7809    5.0514   -1.4537 H   0  0  0  0  0  0
   10.4332    3.6719   -3.7330 H   0  0  0  0  0  0
   13.3298    3.9323   -2.8205 H   0  0  0  0  0  0
   12.8852    2.8916   -4.2155 H   0  0  0  0  0  0
   14.5863    5.3401   -4.0156 H   0  0  0  0  0  0
   13.7640    6.5670   -5.2192 H   0  0  0  0  0  0
   11.9376    2.5152   -0.6877 H   0  0  0  0  0  0
   11.7897   -0.2598   -1.5492 H   0  0  0  0  0  0
   11.6601    0.9853    1.2492 H   0  0  0  0  0  0
   11.7178   -0.7887    0.9729 H   0  0  0  0  0  0
   13.8303    1.1205   -0.0234 H   0  0  0  0  0  0
   13.6181    1.3119    2.4317 H   0  0  0  0  0  0
   15.1567    0.5263    1.9396 H   0  0  0  0  0  0
   13.8042   -0.4688    2.5776 H   0  0  0  0  0  0
   13.7303   -1.1100   -1.1079 H   0  0  0  0  0  0
   13.8714   -1.8894    0.5043 H   0  0  0  0  0  0
   15.2240   -0.8943   -0.1337 H   0  0  0  0  0  0
    9.4146    1.9410    0.1056 H   0  0  0  0  0  0
    7.4985   -0.2615    0.3888 H   0  0  0  0  0  0
    7.4724    1.9169    1.6985 H   0  0  0  0  0  0
    6.7742    2.7024    0.2417 H   0  0  0  0  0  0
    4.2028    2.2578   -0.2787 H   0  0  0  0  0  0
    7.0146   -0.0588    3.3328 H   0  0  0  0  0  0
    2.0274   -0.5009    3.3183 H   0  0  0  0  0  0
    5.8405   -1.3846    5.0749 H   0  0  0  0  0  0
    3.3858   -1.6064    5.0527 H   0  0  0  0  0  0
    8.1256    2.2624   -2.1557 H   0  0  0  0  0  0
    5.7976    1.5362   -3.7157 H   0  0  0  0  0  0
    8.5539    2.5622   -4.5259 H   0  0  0  0  0  0
    7.2825    2.2375   -5.7526 H   0  0  0  0  0  0
    5.7813    3.7890   -4.5617 H   0  0  0  0  0  0
    7.1104    4.1536   -3.4097 H   0  0  0  0  0  0
    8.5156    4.8694   -5.3956 H   0  0  0  0  0  0
    7.0467    4.6967   -6.4150 H   0  0  0  0  0  0
    5.8870    6.4312   -4.8804 H   0  0  0  0  0  0
    9.5543    6.2375   -5.0645 H   0  0  0  0  0  0
    9.6941    8.0422   -4.4701 H   0  0  0  0  0  0
    6.0875    8.4524   -4.1980 H   0  0  0  0  0  0
    9.1415    0.0996   -3.6867 H   0  0  0  0  0  0
    8.5541   -1.8541   -5.7125 H   0  0  0  0  0  0
   10.3567   -1.9551   -3.2438 H   0  0  0  0  0  0
   10.2689   -3.3377   -4.3872 H   0  0  0  0  0  0
   11.0884   -0.5242   -5.1345 H   0  0  0  0  0  0
   12.6307   -1.5401   -3.4885 H   0  0  0  0  0  0
   13.3814   -1.4066   -5.1149 H   0  0  0  0  0  0
   12.7804   -2.9954   -4.5308 H   0  0  0  0  0  0
   10.1408   -1.8884   -6.9972 H   0  0  0  0  0  0
   11.3034   -3.2042   -6.6180 H   0  0  0  0  0  0
   11.9043   -1.6154   -7.2022 H   0  0  0  0  0  0
    7.9216   -1.9427   -2.1612 H   0  0  0  0  0  0
    6.6633   -4.5405   -2.1380 H   0  0  0  0  0  0
    7.1142   -2.8279   -0.1864 H   0  0  0  0  0  0
    5.4891   -2.1755   -0.5867 H   0  0  0  0  0  0
    6.3216   -4.6132    0.8233 H   0  0  0  0  0  0
    5.4401   -2.5240    1.9527 H   0  0  0  0  0  0
    4.4097   -3.9617    2.2660 H   0  0  0  0  0  0
    3.8928   -2.7310    1.0639 H   0  0  0  0  0  0
    5.1184   -5.5820   -1.0397 H   0  0  0  0  0  0
    3.7121   -4.5204   -0.6903 H   0  0  0  0  0  0
    4.2290   -5.7511    0.5118 H   0  0  0  0  0  0
    4.9696   -1.3904   -2.6280 H   0  0  0  0  0  0
    3.8126    0.0162   -4.3616 H   0  0  0  0  0  0
    2.0366   -0.1843   -4.5415 H   0  0  0  0  0  0
    2.0268    2.1260   -4.2689 H   0  0  0  0  0  0
    3.7761    2.1934   -3.8660 H   0  0  0  0  0  0
    2.3256    2.4051   -1.5809 H   0  0  0  0  0  0
    1.5667    3.4571   -2.8234 H   0  0  0  0  0  0
    1.6886    0.4805   -2.4250 H   0  0  0  0  0  0
    3.4527    0.5195   -2.0885 H   0  0  0  0  0  0
    2.0478   -3.5187   -2.6866 H   0  0  0  0  0  0
    0.9567   -2.2180   -3.2736 H   0  0  0  0  0  0
    1.9880   -1.9414   -1.8291 H   0  0  0  0  0  0
    4.3344   -1.3635   -5.6515 H   0  0  0  0  0  0
    3.6654   -2.8386   -8.0934 H   0  0  0  0  0  0
    6.3950   -1.8326   -7.1362 H   0  0  0  0  0  0
    6.0413   -2.3901   -8.8068 H   0  0  0  0  0  0
    4.5099   -0.5718   -9.1476 H   0  0  0  0  0  0
    4.6649   -0.0624   -7.4321 H   0  0  0  0  0  0
    5.0811    2.0011   -8.8508 H   0  0  0  0  0  0
    6.9329    2.3106   -9.1744 H   0  0  0  0  0  0
    3.1043   -4.7797   -6.6664 H   0  0  0  0  0  0
    5.0995   -6.5867   -5.7393 H   0  0  0  0  0  0
    7.0257   -7.4700   -8.6988 H   0  0  0  0  0  0
    2.5860   -7.3238   -7.3721 H   0  0  0  0  0  0
    3.3979   -8.3638   -6.1531 H   0  0  0  0  0  0
    0.8170   -6.3002   -6.7828 H   0  0  0  0  0  0
    0.4565   -5.7716   -4.9882 H   0  0  0  0  0  0
  1  2  1  0  0  0
  1121  1  0  0  0
  1122  1  0  0  0
  1123  1  0  0  0
  2  3  1  0  0  0
  2  5  1  0  0  0
  2124  1  0  0  0
  3  4  2  0  0  0
  3  7  1  0  0  0
  5  6  1  0  0  0
  5125  1  0  0  0
  5126  1  0  0  0
  6127  1  0  0  0
  6128  1  0  0  0
  6129  1  0  0  0
  7  8  1  0  0  0
  7130  1  0  0  0
  8  9  1  0  0  0
  8 11  1  0  0  0
  8131  1  0  0  0
  9 10  2  0  0  0
  9 14  1  0  0  0
 11 12  1  0  0  0
 11 13  1  0  0  0
 11132  1  0  0  0
 12133  1  0  0  0
 13134  1  0  0  0
 13135  1  0  0  0
 13136  1  0  0  0
 14 15  1  0  0  0
 14137  1  0  0  0
 15 16  1  0  0  0
 15 18  1  0  0  0
 15138  1  0  0  0
 16 17  2  0  0  0
 16 30  1  0  0  0
 18 19  1  0  0  0
 18139  1  0  0  0
 18140  1  0  0  0
 19 20  2  0  0  0
 19 21  1  0  0  0
 20 22  1  0  0  0
 20141  1  0  0  0
 21 23  2  0  0  0
 21142  1  0  0  0
 22 24  2  0  0  0
 22143  1  0  0  0
 23 24  1  0  0  0
 23144  1  0  0  0
 24145  1  0  0  0
 25 26  2  0  0  0
 26 27  1  0  0  0
 26 37  1  0  0  0
 27 28  1  0  0  0
 27 29  1  0  0  0
 27 30  1  0  0  0
 28146  1  0  0  0
 28147  1  0  0  0
 28148  1  0  0  0
 29 31  1  0  0  0
 29149  1  0  0  0
 29150  1  0  0  0
 30151  1  0  0  0
 31 32  1  0  0  0
 31152  1  0  0  0
 31153  1  0  0  0
 32 33  1  0  0  0
 32154  1  0  0  0
 32155  1  0  0  0
 33 34  1  0  0  0
 33156  1  0  0  0
 33157  1  0  0  0
 34 35  1  0  0  0
 34158  1  0  0  0
 34159  1  0  0  0
 35 36  2  0  0  0
 35160  1  0  0  0
 36100  1  0  0  0
 36161  1  0  0  0
 37 38  1  0  0  0
 37162  1  0  0  0
 38 39  1  0  0  0
 38 41  1  0  0  0
 38163  1  0  0  0
 39 40  2  0  0  0
 39 45  1  0  0  0
 41 42  1  0  0  0
 41164  1  0  0  0
 41165  1  0  0  0
 42 43  2  0  0  0
 42 44  1  0  0  0
 44166  1  0  0  0
 44167  1  0  0  0
 45 46  1  0  0  0
 45168  1  0  0  0
 46 47  1  0  0  0
 46 49  1  0  0  0
 46169  1  0  0  0
 47 48  2  0  0  0
 47 53  1  0  0  0
 49 50  1  0  0  0
 49170  1  0  0  0
 49171  1  0  0  0
 50 51  1  0  0  0
 50 52  1  0  0  0
 50172  1  0  0  0
 51173  1  0  0  0
 51174  1  0  0  0
 51175  1  0  0  0
 52176  1  0  0  0
 52177  1  0  0  0
 52178  1  0  0  0
 53 54  1  0  0  0
 53179  1  0  0  0
 54 55  1  0  0  0
 54 57  1  0  0  0
 54180  1  0  0  0
 55 56  2  0  0  0
 55 67  1  0  0  0
 57 58  1  0  0  0
 57181  1  0  0  0
 57182  1  0  0  0
 58 59  2  0  0  0
 58 60  1  0  0  0
 59 61  1  0  0  0
 59183  1  0  0  0
 60 62  2  0  0  0
 60 63  1  0  0  0
 61 62  1  0  0  0
 62 64  1  0  0  0
 63 65  2  0  0  0
 63184  1  0  0  0
 64 66  2  0  0  0
 64185  1  0  0  0
 65 66  1  0  0  0
 65186  1  0  0  0
 66187  1  0  0  0
 67 68  1  0  0  0
 67188  1  0  0  0
 68 69  1  0  0  0
 68 71  1  0  0  0
 68189  1  0  0  0
 69 70  2  0  0  0
 69 78  1  0  0  0
 71 72  1  0  0  0
 71190  1  0  0  0
 71191  1  0  0  0
 72 73  1  0  0  0
 72192  1  0  0  0
 72193  1  0  0  0
 73 74  1  0  0  0
 73194  1  0  0  0
 73195  1  0  0  0
 74 75  1  0  0  0
 74196  1  0  0  0
 75 76  1  0  0  0
 75 77  2  0  0  0
 76197  1  0  0  0
 76198  1  0  0  0
 77199  1  0  0  0
 78 79  1  0  0  0
 78200  1  0  0  0
 79 80  1  0  0  0
 79 82  1  0  0  0
 79201  1  0  0  0
 80 81  2  0  0  0
 80 86  1  0  0  0
 82 83  1  0  0  0
 82202  1  0  0  0
 82203  1  0  0  0
 83 84  1  0  0  0
 83 85  1  0  0  0
 83204  1  0  0  0
 84205  1  0  0  0
 84206  1  0  0  0
 84207  1  0  0  0
 85208  1  0  0  0
 85209  1  0  0  0
 85210  1  0  0  0
 86 87  1  0  0  0
 86211  1  0  0  0
 87 88  1  0  0  0
 87 90  1  0  0  0
 87212  1  0  0  0
 88 89  2  0  0  0
 88 95  1  0  0  0
 90 91  1  0  0  0
 90213  1  0  0  0
 90214  1  0  0  0
 91 92  1  0  0  0
 91 93  1  0  0  0
 91215  1  0  0  0
 92216  1  0  0  0
 92217  1  0  0  0
 92218  1  0  0  0
 93219  1  0  0  0
 93220  1  0  0  0
 93221  1  0  0  0
 94 96  2  0  0  0
 94 97  1  0  0  0
 94103  1  0  0  0
 95 97  1  0  0  0
 95222  1  0  0  0
 97 98  1  0  0  0
 97102  1  0  0  0
 98101  1  0  0  0
 98223  1  0  0  0
 98224  1  0  0  0
 99100  1  0  0  0
 99101  1  0  0  0
 99225  1  0  0  0
 99226  1  0  0  0
100227  1  0  0  0
100228  1  0  0  0
101229  1  0  0  0
101230  1  0  0  0
102231  1  0  0  0
102232  1  0  0  0
102233  1  0  0  0
103104  1  0  0  0
103234  1  0  0  0
104105  1  0  0  0
104107  1  0  0  0
104235  1  0  0  0
105106  2  0  0  0
105112  1  0  0  0
107108  1  0  0  0
107236  1  0  0  0
107237  1  0  0  0
108109  1  0  0  0
108238  1  0  0  0
108239  1  0  0  0
109110  2  0  0  0
109111  1  0  0  0
111240  1  0  0  0
111241  1  0  0  0
112113  1  0  0  0
112242  1  0  0  0
113114  1  0  0  0
113116  1  0  0  0
113243  1  0  0  0
114115  1  0  0  0
114120  2  0  0  0
115244  1  0  0  0
116117  1  0  0  0
116245  1  0  0  0
116246  1  0  0  0
117118  2  0  0  0
117119  1  0  0  0
119247  1  0  0  0
119248  1  0  0  0
M  CHG  1   1   1
M  END
> <s_m_source_file>
../3v3b_ligand.sdf

> <i_m_source_file_index>
1

> <s_epik_input>
W0NIM11bQ0gyXVtDQEhdKFtOSDMrXSlDKD1PKVtOSF1bQ0BASF0oW0NASF0oW09IXSlbQ0gzXSlDKD1PKVtOSF1bQ0BASF0oW0NIMl1jMVtjSF1bY0hdW2NIXVtjSF1bY0hdMSlDKD1PKVtOSF1bQ0BAXTIoW0NIM10pQyg9TylbTkhdW0NAQEhdKFtDSDJdQyg9TylbTkgyXSlDKD1PKVtOSF1bQ0BASF0oW0NIMl1bQ0hdKFtDSDNdKVtDSDNdKUMoPU8pW05IXVtDQEBIXShbQ0gyXWMzW2NIXVtuSF1jKGMzNClbY0hdW2NIXVtjSF1bY0hdNClDKD1PKVtOSF1bQ0BASF0oW0NIMl1bQ0gyXVtDSDJdW05IXS9DKFtOSDJdKT1OXFtIXSlDKD1PKVtOSF1bQ0BASF0oW0NIMl1bQ0hdKFtDSDNdKVtDSDNdKUMoPU8pW05IXVtDQEBIXShbQ0gyXVtDSF0oW0NIM10pW0NIM10pQyg9TylbTkhdW0NAXShbQ0gzXSkoQyg9TylbTkhdW0NAQEhdKFtDSDJdW0NIMl1DKD1PKVtOSDJdKUMoPU8pW05IXVtDQEhdKEMoPU8pW09IXSlbQ0gyXUMoPU8pW05IMl0pW0NIMl1bQ0gyXVtDSDJdW0NIMl1cW0NIXT1bQ0hdXFtDSDJdW0NIMl1bQ0gyXVtDSDJdW0NIMl0y

> <s_epik_cmdline>
J2VwaWtfYXBwJywgJy1pbWFlJywgJ2xpZ2FuZF9wcm8ubWFlJywgJy1vbWFlJywgJ2xpZ2FuZF9wcmVwLm1hZScsICctbXMnLCAnMScsICctcGgnLCAnNycsICctcGh0JywgJzAuNScsICctbnQn

> <s_epik_pKa_notes>
Molecule size exceeds maximum supported for generating protonation states

> <s_epik_Chemistry_Notes>
This compound has an imine and may undergo hydrolysis.

$$$$
