3v3l_ligand
                    3D
 Schrodinger Suite 2020-3.
 55 58  0  0  1  0            999 V2000
   28.2110   58.8990   82.2450 N   0  0  0  0  0  0
   28.3190   57.5520   82.3350 C   0  0  0  0  0  0
   27.2570   56.7330   82.4130 N   0  0  0  0  0  0
   25.9970   57.2240   82.4030 C   0  0  0  0  0  0
   25.7870   58.6670   82.3100 C   0  0  0  0  0  0
   26.9940   59.5070   82.2570 C   0  0  0  0  0  0
   26.8320   60.8320   82.1830 N   0  0  0  0  0  0
   24.4610   58.8860   82.3210 N   0  0  0  0  0  0
   23.8670   57.6990   82.4230 C   0  0  0  0  0  0
   24.7750   56.7120   82.4360 N   0  0  0  0  0  0
   19.7160   56.7940   82.5430 P   0  0  0  0  0  0
   24.4880   54.1080   91.2780 P   0  0  0  0  0  0
   25.0410   55.3060   86.2440 C   0  0  1  0  0  0
   24.4580   55.2790   82.6130 C   0  0  1  0  0  0
   18.5170   56.0280   83.0820 O   0  5  0  0  0  0
   25.3210   55.1690   91.9280 O   0  0  0  0  0  0
   26.4160   55.2220   86.9030 C   0  0  2  0  0  0
   27.4490   55.6090   86.0080 O   0  0  0  0  0  0
   23.9760   55.1010   84.0570 C   0  0  2  0  0  0
   25.1150   54.8480   84.8940 O   0  0  0  0  0  0
   19.7500   56.9710   81.0340 O   0  5  0  0  0  0
   23.0390   54.5130   91.1630 O   0  5  0  0  0  0
   26.5200   53.7550   87.3090 C   0  0  2  0  0  0
   27.1720   52.9540   86.3160 O   0  0  0  0  0  0
   22.9660   53.9520   83.9490 C   0  0  2  0  0  0
   23.5180   52.6680   84.2450 O   0  0  0  0  0  0
   20.0390   58.0310   83.3410 O   0  0  0  0  0  0
   24.6730   52.7080   91.8020 O   0  5  0  0  0  0
   25.0700   53.3160   87.4550 C   0  0  2  0  0  0
   24.2400   54.3890   86.9870 O   0  0  0  0  0  0
   22.4980   53.9930   82.4980 C   0  0  2  0  0  0
   23.3930   54.8600   81.7910 O   0  0  0  0  0  0
   24.7000   52.9680   88.8940 C   0  0  0  0  0  0
   25.0680   54.0120   89.7940 O   0  0  0  0  0  0
   21.0970   54.5420   82.3010 C   0  0  0  0  0  0
   20.9630   55.8490   82.8970 O   0  0  0  0  0  0
   29.3158   57.1111   82.3446 H   0  0  0  0  0  0
   27.7110   61.4921   82.1417 H   0  0  0  0  0  0
   25.8198   61.2621   82.1634 H   0  0  0  0  0  0
   22.7892   57.5496   82.4872 H   0  0  0  0  0  0
   24.5947   56.3108   86.2082 H   0  0  0  0  0  0
   25.3296   54.6866   82.2977 H   0  0  0  0  0  0
   26.5862   55.9342   87.7239 H   0  0  0  0  0  0
   27.4941   56.6425   85.6340 H   0  0  0  0  0  0
   23.5406   55.9732   84.5665 H   0  0  0  0  0  0
   27.1558   53.5950   88.1922 H   0  0  0  0  0  0
   28.2308   53.1303   86.0754 H   0  0  0  0  0  0
   22.1728   54.0202   84.7081 H   0  0  0  0  0  0
   23.9083   52.4558   85.2513 H   0  0  0  0  0  0
   24.8801   52.4320   86.8285 H   0  0  0  0  0  0
   22.5262   52.9712   82.0915 H   0  0  0  0  0  0
   23.6134   52.8126   88.9658 H   0  0  0  0  0  0
   25.2226   52.0480   89.1948 H   0  0  0  0  0  0
   20.8826   54.6222   81.2251 H   0  0  0  0  0  0
   20.3684   53.8648   82.7706 H   0  0  0  0  0  0
  1  2  1  0  0  0
  1  6  2  0  0  0
  2  3  2  0  0  0
  2 37  1  0  0  0
  3  4  1  0  0  0
  4  5  2  0  0  0
  4 10  1  0  0  0
  5  6  1  0  0  0
  5  8  1  0  0  0
  6  7  1  0  0  0
  7 38  1  0  0  0
  7 39  1  0  0  0
  8  9  2  0  0  0
  9 10  1  0  0  0
  9 40  1  0  0  0
 10 14  1  0  0  0
 11 15  1  0  0  0
 11 21  1  0  0  0
 11 27  2  0  0  0
 11 36  1  0  0  0
 12 16  2  0  0  0
 12 22  1  0  0  0
 12 28  1  0  0  0
 12 34  1  0  0  0
 13 17  1  0  0  0
 13 20  1  0  0  0
 13 30  1  0  0  0
 13 41  1  0  0  0
 14 19  1  0  0  0
 14 32  1  0  0  0
 14 42  1  0  0  0
 17 18  1  0  0  0
 17 23  1  0  0  0
 17 43  1  0  0  0
 18 44  1  0  0  0
 19 20  1  0  0  0
 19 25  1  0  0  0
 19 45  1  0  0  0
 23 24  1  0  0  0
 23 29  1  0  0  0
 23 46  1  0  0  0
 24 47  1  0  0  0
 25 26  1  0  0  0
 25 31  1  0  0  0
 25 48  1  0  0  0
 26 49  1  0  0  0
 29 30  1  0  0  0
 29 33  1  0  0  0
 29 50  1  0  0  0
 31 32  1  0  0  0
 31 35  1  0  0  0
 31 51  1  0  0  0
 33 34  1  0  0  0
 33 52  1  0  0  0
 33 53  1  0  0  0
 35 36  1  0  0  0
 35 54  1  0  0  0
 35 55  1  0  0  0
M  CHG  4  15  -1  21  -1  22  -1  28  -1
M  END
> <s_m_source_file>
../3v3l_ligand.sdf

> <i_m_source_file_index>
1

> <s_epik_input>
bjFbY0hdbmMoW05IMl0pYyhjMTIpbltjSF1uMltDQEhdM1tDQEBIXShbQ0BIXShbT0hdKVtDQEhdKE8zKVtDSDJdT1AoPU8pKFtPSF0pW09IXSlPW0NAQEhdNFtDQEhdKFtPSF0pW0NASF0oW09IXSlbQ0BIXShPNClbQ0gyXU9QKD1PKShbT0hdKVtPSF0=

> <s_epik_cmdline>
J2VwaWtfYXBwJywgJy1pbWFlJywgJ2xpZ2FuZF9wcm8ubWFlJywgJy1vbWFlJywgJ2xpZ2FuZF9wcmVwLm1hZScsICctbXMnLCAnMScsICctcGgnLCAnNycsICctcGh0JywgJzAuNScsICctbnQn

> <r_lp_tautomer_probability>
1

> <r_epik_Ionization_Penalty>
  0.2025

> <r_epik_Ionization_Penalty_Charging>
  0.2019

> <r_epik_Ionization_Penalty_Neutral>
  0.0006

> <r_epik_State_Penalty>
 -0.0000

> <r_epik_Charging_Adjusted_Penalty>
0.201914238226336

> <i_epik_Tot_Q>
-4

> <i_epik_Tot_abs_Q>
4

> <s_epik_Chemistry_Notes>
This compound contains an acetal/aminal-like group ( X-CH(R)-Y where X, Y are N, S, or O) that may be acid/base labile, releasing an aldehyde.

$$$$
