3v3m_ligand
                    3D
 Schrodinger Suite 2020-3.
 63 65  0  0  1  0            999 V2000
   21.8260  -28.7010    0.2550 O   0  0  0  0  0  0
   22.6250  -28.7910   -0.6720 C   0  0  0  0  0  0
   23.1410  -30.1820   -0.9540 C   0  0  0  0  0  0
   24.1440  -30.7260   -1.7450 C   0  0  0  0  0  0
   24.1090  -32.0950   -1.5550 C   0  0  0  0  0  0
   23.0990  -32.3750   -0.6530 C   0  0  0  0  0  0
   22.5020  -31.1870   -0.2740 O   0  0  0  0  0  0
   23.0070  -27.7030   -1.3980 N   0  0  0  0  0  0
   23.9600  -27.8610   -2.4390 C   0  0  0  0  0  0
   23.5670  -28.2490   -3.7250 C   0  0  0  0  0  0
   24.5200  -28.4050   -4.7340 C   0  0  0  0  0  0
   25.8800  -28.1720   -4.4850 C   0  0  0  0  0  0
   26.9060  -28.3430   -5.5980 C   0  0  0  0  0  0
   27.8040  -27.1130   -5.6660 C   0  0  0  0  0  0
   26.2250  -28.5120   -6.9550 C   0  0  0  0  0  0
   27.7660  -29.5840   -5.3440 C   0  0  0  0  0  0
   26.2700  -27.7800   -3.1940 C   0  0  0  0  0  0
   25.3220  -27.6300   -2.1780 C   0  0  0  0  0  0
   22.5400  -26.3240   -1.0950 C   0  0  1  0  0  0
   23.1050  -25.3000   -2.0580 C   0  0  0  0  0  0
   24.0530  -24.5110   -1.5220 N   0  0  0  0  0  0
   24.8250  -23.4290   -2.1480 C   0  0  0  0  0  0
   24.7860  -23.4420   -3.6720 C   0  0  0  0  0  0
   26.2950  -23.5120   -1.7450 C   0  0  0  0  0  0
   24.2860  -22.1040   -1.6220 C   0  0  0  0  0  0
   22.7010  -25.2600   -3.2250 O   0  0  0  0  0  0
   21.0680  -26.0740   -0.9730 C   0  0  0  0  0  0
   20.5990  -25.3210    0.1060 C   0  0  0  0  0  0
   19.2270  -25.0520    0.2290 C   0  0  0  0  0  0
   18.3800  -25.5530   -0.7530 C   0  0  0  0  0  0
   18.8480  -26.2460   -1.7870 N   0  0  0  0  0  0
   20.1560  -26.5290   -1.9260 C   0  0  0  0  0  0
   24.8286  -30.1781   -2.3925 H   0  0  0  0  0  0
   24.7626  -32.8252   -2.0323 H   0  0  0  0  0  0
   22.8199  -33.3676   -0.2995 H   0  0  0  0  0  0
   22.5138  -28.4300   -3.9398 H   0  0  0  0  0  0
   24.2017  -28.7125   -5.7301 H   0  0  0  0  0  0
   27.1888  -26.2195   -5.8484 H   0  0  0  0  0  0
   28.5285  -27.2328   -6.4850 H   0  0  0  0  0  0
   28.3426  -26.9991   -4.7137 H   0  0  0  0  0  0
   25.5990  -27.6318   -7.1632 H   0  0  0  0  0  0
   25.5958  -29.4142   -6.9396 H   0  0  0  0  0  0
   26.9899  -28.6117   -7.7392 H   0  0  0  0  0  0
   28.2692  -29.4884   -4.3706 H   0  0  0  0  0  0
   28.5203  -29.6764   -6.1393 H   0  0  0  0  0  0
   27.1262  -30.4788   -5.3397 H   0  0  0  0  0  0
   27.3224  -27.5909   -2.9823 H   0  0  0  0  0  0
   25.6401  -27.3326   -1.1788 H   0  0  0  0  0  0
   22.9334  -26.2301   -0.0721 H   0  0  0  0  0  0
   24.2222  -24.7675   -0.4658 H   0  0  0  0  0  0
   25.1768  -24.4019   -4.0406 H   0  0  0  0  0  0
   25.4048  -22.6202   -4.0616 H   0  0  0  0  0  0
   23.7482  -23.3133   -4.0133 H   0  0  0  0  0  0
   26.7218  -24.4586   -2.1081 H   0  0  0  0  0  0
   26.3777  -23.4690   -0.6490 H   0  0  0  0  0  0
   26.8447  -22.6682   -2.1876 H   0  0  0  0  0  0
   23.2245  -22.0063   -1.8934 H   0  0  0  0  0  0
   24.8558  -21.2743   -2.0658 H   0  0  0  0  0  0
   24.3887  -22.0751   -0.5272 H   0  0  0  0  0  0
   21.2980  -24.9426    0.8519 H   0  0  0  0  0  0
   18.8391  -24.4705    1.0654 H   0  0  0  0  0  0
   17.3078  -25.3737   -0.6736 H   0  0  0  0  0  0
   20.5019  -27.1115   -2.7799 H   0  0  0  0  0  0
  1  2  2  0  0  0
  2  3  1  0  0  0
  2  8  1  0  0  0
  3  4  2  0  0  0
  3  7  1  0  0  0
  4  5  1  0  0  0
  4 33  1  0  0  0
  5  6  2  0  0  0
  5 34  1  0  0  0
  6  7  1  0  0  0
  6 35  1  0  0  0
  8  9  1  0  0  0
  8 19  1  0  0  0
  9 10  2  0  0  0
  9 18  1  0  0  0
 10 11  1  0  0  0
 10 36  1  0  0  0
 11 12  2  0  0  0
 11 37  1  0  0  0
 12 13  1  0  0  0
 12 17  1  0  0  0
 13 14  1  0  0  0
 13 15  1  0  0  0
 13 16  1  0  0  0
 14 38  1  0  0  0
 14 39  1  0  0  0
 14 40  1  0  0  0
 15 41  1  0  0  0
 15 42  1  0  0  0
 15 43  1  0  0  0
 16 44  1  0  0  0
 16 45  1  0  0  0
 16 46  1  0  0  0
 17 18  2  0  0  0
 17 47  1  0  0  0
 18 48  1  0  0  0
 19 20  1  0  0  0
 19 27  1  0  0  0
 19 49  1  0  0  0
 20 21  1  0  0  0
 20 26  2  0  0  0
 21 22  1  0  0  0
 21 50  1  0  0  0
 22 23  1  0  0  0
 22 24  1  0  0  0
 22 25  1  0  0  0
 23 51  1  0  0  0
 23 52  1  0  0  0
 23 53  1  0  0  0
 24 54  1  0  0  0
 24 55  1  0  0  0
 24 56  1  0  0  0
 25 57  1  0  0  0
 25 58  1  0  0  0
 25 59  1  0  0  0
 27 28  2  0  0  0
 27 32  1  0  0  0
 28 29  1  0  0  0
 28 60  1  0  0  0
 29 30  2  0  0  0
 29 61  1  0  0  0
 30 31  1  0  0  0
 30 62  1  0  0  0
 31 32  2  0  0  0
 32 63  1  0  0  0
M  END
> <s_m_source_file>
../3v3m_ligand.sdf

> <i_m_source_file_index>
1

> <s_epik_input>
bzFbY0hdW2NIXVtjSF1jMUMoPU8pTihjMltjSF1bY0hdYyhDKFtDSDNdKShbQ0gzXSlbQ0gzXSlbY0hdW2NIXTIpW0NAQEhdKEMoPU8pW05IXUMoW0NIM10pKFtDSDNdKVtDSDNdKWMzW2NIXVtjSF1bY0hdbltjSF0z

> <s_epik_cmdline>
J2VwaWtfYXBwJywgJy1pbWFlJywgJ2xpZ2FuZF9wcm8ubWFlJywgJy1vbWFlJywgJ2xpZ2FuZF9wcmVwLm1hZScsICctbXMnLCAnMScsICctcGgnLCAnNycsICctcGh0JywgJzAuNScsICctbnQn

> <r_lp_tautomer_probability>
1

> <r_epik_Ionization_Penalty>
  0.0016

> <r_epik_Ionization_Penalty_Charging>
  0.0000

> <r_epik_Ionization_Penalty_Neutral>
  0.0016

> <r_epik_State_Penalty>
 -0.0000

> <r_epik_Charging_Adjusted_Penalty>
0

> <i_epik_Tot_Q>
0

> <i_epik_Tot_abs_Q>
0

$$$$
