3v3q_ligand
                    3D
 Schrodinger Suite 2020-3.
 59 59  0  0  1  0            999 V2000
  -11.1270   24.2780    5.5580 C   0  0  0  0  0  0
  -11.0360   25.4050    4.7230 C   0  0  0  0  0  0
  -11.1890   26.7030    5.2970 C   0  0  0  0  0  0
  -11.4170   26.8550    6.6590 C   0  0  0  0  0  0
  -11.5010   25.7630    7.4940 C   0  0  0  0  0  0
  -11.3660   24.4770    7.0100 C   0  0  0  0  0  0
  -11.0060   22.8700    5.1430 C   0  0  0  0  0  0
  -12.0770   22.0550    5.2260 C   0  0  0  0  0  0
  -13.2480   22.5660    5.6220 O   0  0  0  0  0  0
  -11.9920   20.6350    4.8820 O   0  0  0  0  0  0
  -11.3350   19.7210    5.7700 C   0  0  0  0  0  0
  -11.7940   19.7960    7.2200 C   0  0  0  0  0  0
  -11.5010   23.3560    8.0100 C   0  0  0  0  0  0
  -12.8570   23.1060    8.6350 C   0  0  0  0  0  0
  -13.1500   21.7060    9.1860 C   0  0  0  0  0  0
  -14.6460   21.4270    9.0110 C   0  0  0  0  0  0
  -15.5380   22.4770    9.6920 C   0  0  0  0  0  0
  -16.4590   23.2130    8.7090 C   0  0  0  0  0  0
  -17.2470   24.3370    9.3790 C   0  0  0  0  0  0
  -17.6020   25.4100    8.3720 C   0  0  0  0  0  0
  -10.5290   22.7060    8.3290 O   0  0  0  0  0  0
  -10.8040   25.2860    3.3790 O   0  0  0  0  0  0
  -11.0790   27.8450    4.5540 O   0  0  0  0  0  0
  -11.5640   28.0730    7.2190 O   0  0  0  0  0  0
  -11.6690   24.4320    2.6230 C   0  0  0  0  0  0
   -9.8830   28.5460    4.7450 C   0  0  0  0  0  0
  -11.0960   28.3040    8.5530 C   0  0  0  0  0  0
  -11.6776   25.9171    8.5585 H   0  0  0  0  0  0
  -10.7144   22.8238    4.0834 H   0  0  0  0  0  0
  -10.2406   22.3715    5.7559 H   0  0  0  0  0  0
  -11.5157   18.6893    5.4338 H   0  0  0  0  0  0
  -10.2536   19.9227    5.7695 H   0  0  0  0  0  0
  -11.2360   19.0618    7.8197 H   0  0  0  0  0  0
  -12.8698   19.5735    7.2760 H   0  0  0  0  0  0
  -11.6077   20.8069    7.6117 H   0  0  0  0  0  0
  -12.9973   23.7839    9.4898 H   0  0  0  0  0  0
  -13.6441   23.2891    7.8887 H   0  0  0  0  0  0
  -12.5591   20.9625    8.6310 H   0  0  0  0  0  0
  -12.8801   21.6675   10.2517 H   0  0  0  0  0  0
  -14.8952   21.4221    7.9396 H   0  0  0  0  0  0
  -14.8900   20.4478    9.4487 H   0  0  0  0  0  0
  -16.1755   21.9858   10.4419 H   0  0  0  0  0  0
  -14.9063   23.2307   10.1849 H   0  0  0  0  0  0
  -15.8558   23.6553    7.9025 H   0  0  0  0  0  0
  -17.1802   22.5019    8.2797 H   0  0  0  0  0  0
  -18.1742   23.9294    9.8082 H   0  0  0  0  0  0
  -16.6388   24.7850   10.1786 H   0  0  0  0  0  0
  -18.1682   26.2094    8.8723 H   0  0  0  0  0  0
  -18.2156   24.9723    7.5708 H   0  0  0  0  0  0
  -16.6802   25.8279    7.9412 H   0  0  0  0  0  0
  -11.3599   24.4389    1.5673 H   0  0  0  0  0  0
  -12.7044   24.7943    2.7042 H   0  0  0  0  0  0
  -11.6073   23.4066    3.0165 H   0  0  0  0  0  0
   -9.8801   29.4455    4.1118 H   0  0  0  0  0  0
   -9.0334   27.9027    4.4722 H   0  0  0  0  0  0
   -9.7954   28.8408    5.8011 H   0  0  0  0  0  0
  -11.3004   29.3466    8.8379 H   0  0  0  0  0  0
  -10.0130   28.1168    8.5992 H   0  0  0  0  0  0
  -11.6152   27.6259    9.2463 H   0  0  0  0  0  0
  1  2  2  0  0  0
  1  6  1  0  0  0
  1  7  1  0  0  0
  2  3  1  0  0  0
  2 22  1  0  0  0
  3  4  2  0  0  0
  3 23  1  0  0  0
  4  5  1  0  0  0
  4 24  1  0  0  0
  5  6  2  0  0  0
  5 28  1  0  0  0
  6 13  1  0  0  0
  7  8  1  0  0  0
  7 29  1  0  0  0
  7 30  1  0  0  0
  8  9  2  0  0  0
  8 10  1  0  0  0
 10 11  1  0  0  0
 11 12  1  0  0  0
 11 31  1  0  0  0
 11 32  1  0  0  0
 12 33  1  0  0  0
 12 34  1  0  0  0
 12 35  1  0  0  0
 13 14  1  0  0  0
 13 21  2  0  0  0
 14 15  1  0  0  0
 14 36  1  0  0  0
 14 37  1  0  0  0
 15 16  1  0  0  0
 15 38  1  0  0  0
 15 39  1  0  0  0
 16 17  1  0  0  0
 16 40  1  0  0  0
 16 41  1  0  0  0
 17 18  1  0  0  0
 17 42  1  0  0  0
 17 43  1  0  0  0
 18 19  1  0  0  0
 18 44  1  0  0  0
 18 45  1  0  0  0
 19 20  1  0  0  0
 19 46  1  0  0  0
 19 47  1  0  0  0
 20 48  1  0  0  0
 20 49  1  0  0  0
 20 50  1  0  0  0
 22 25  1  0  0  0
 23 26  1  0  0  0
 24 27  1  0  0  0
 25 51  1  0  0  0
 25 52  1  0  0  0
 25 53  1  0  0  0
 26 54  1  0  0  0
 26 55  1  0  0  0
 26 56  1  0  0  0
 27 57  1  0  0  0
 27 58  1  0  0  0
 27 59  1  0  0  0
M  END
> <s_m_source_file>
../3v3q_ligand.sdf

> <i_m_source_file_index>
1

> <s_epik_input>
W0NIM11bQ0gyXU9DKD1PKVtDSDJdYzFjKE9bQ0gzXSljKE9bQ0gzXSljKE9bQ0gzXSlbY0hdYzFDKD1PKVtDSDJdW0NIMl1bQ0gyXVtDSDJdW0NIMl1bQ0gyXVtDSDNd

> <s_epik_cmdline>
J2VwaWtfYXBwJywgJy1pbWFlJywgJ2xpZ2FuZF9wcm8ubWFlJywgJy1vbWFlJywgJ2xpZ2FuZF9wcmVwLm1hZScsICctbXMnLCAnMScsICctcGgnLCAnNycsICctcGh0JywgJzAuNScsICctbnQn

> <r_lp_tautomer_probability>
1

> <r_epik_Ionization_Penalty>
  0.0000

> <r_epik_Ionization_Penalty_Charging>
  0.0000

> <r_epik_Ionization_Penalty_Neutral>
  0.0000

> <r_epik_State_Penalty>
 -0.0000

> <r_epik_Charging_Adjusted_Penalty>
0

> <i_epik_Tot_Q>
0

> <i_epik_Tot_abs_Q>
0

> <s_epik_Chemistry_Notes>
This compound has an ester and may undergo hydrolysis at high or low pH.

$$$$
