3v3v_ligand
                    3D
 Schrodinger Suite 2020-3.
 33 35  0  0  1  0            999 V2000
   33.9820   45.1740    5.6980 O   0  0  0  0  0  0
   33.0460   44.7100    5.0410 C   0  0  0  0  0  0
   31.9470   45.5230    4.7740 C   0  0  0  0  0  0
   31.9890   46.7910    5.2910 O   0  0  0  0  0  0
   33.0380   43.3880    4.5380 C   0  0  0  0  0  0
   34.0740   42.4480    4.7650 C   0  0  0  0  0  0
   35.1760   42.8070    5.5020 O   0  0  0  0  0  0
   31.9330   42.9350    3.7830 C   0  0  0  0  0  0
   31.8680   41.6280    3.2680 C   0  0  0  0  0  0
   32.9020   40.7230    3.4930 C   0  0  0  0  0  0
   32.8950   39.4420    3.0180 O   0  0  0  0  0  0
   34.0060   41.1360    4.2420 C   0  0  0  0  0  0
   35.0300   40.2390    4.4610 O   0  0  0  0  0  0
   30.8800   43.7950    3.5400 O   0  0  0  0  0  0
   30.8460   45.0970    3.9930 C   0  0  0  0  0  0
   29.6290   45.7820    3.7750 C   0  0  0  0  0  0
   29.3570   46.9350    4.5110 C   0  0  0  0  0  0
   28.1510   47.5920    4.3460 C   0  0  0  0  0  0
   27.8480   48.7270    5.0250 O   0  0  0  0  0  0
   27.1920   47.1040    3.4650 C   0  0  0  0  0  0
   26.0510   47.8500    3.3920 O   0  0  0  0  0  0
   27.4160   45.9340    2.7260 C   0  0  0  0  0  0
   28.6360   45.2770    2.9060 C   0  0  0  0  0  0
   32.8503   47.1099    5.8964 H   0  0  0  0  0  0
   35.2518   43.8220    5.9193 H   0  0  0  0  0  0
   30.9990   41.3202    2.6865 H   0  0  0  0  0  0
   32.0427   39.0803    2.4240 H   0  0  0  0  0  0
   35.9098   40.5413    5.0479 H   0  0  0  0  0  0
   30.0946   47.3183    5.2161 H   0  0  0  0  0  0
   28.5727   49.1539    5.7339 H   0  0  0  0  0  0
   25.9475   48.7582    4.0040 H   0  0  0  0  0  0
   26.6650   45.5503    2.0354 H   0  0  0  0  0  0
   28.8264   44.3516    2.3623 H   0  0  0  0  0  0
  1  2  2  0  0  0
  2  3  1  0  0  0
  2  5  1  0  0  0
  3  4  1  0  0  0
  3 15  2  0  0  0
  4 24  1  0  0  0
  5  6  2  0  0  0
  5  8  1  0  0  0
  6  7  1  0  0  0
  6 12  1  0  0  0
  7 25  1  0  0  0
  8  9  2  0  0  0
  8 14  1  0  0  0
  9 10  1  0  0  0
  9 26  1  0  0  0
 10 11  1  0  0  0
 10 12  2  0  0  0
 11 27  1  0  0  0
 12 13  1  0  0  0
 13 28  1  0  0  0
 14 15  1  0  0  0
 15 16  1  0  0  0
 16 17  2  0  0  0
 16 23  1  0  0  0
 17 18  1  0  0  0
 17 29  1  0  0  0
 18 19  1  0  0  0
 18 20  2  0  0  0
 19 30  1  0  0  0
 20 21  1  0  0  0
 20 22  1  0  0  0
 21 31  1  0  0  0
 22 23  2  0  0  0
 22 32  1  0  0  0
 23 33  1  0  0  0
M  END
> <s_m_source_file>
../3v3v_ligand.sdf

> <i_m_source_file_index>
1

> <s_epik_input>
W2NIXTFbY0hdYyhbT0hdKWMoW09IXSlbY0hdYzEtYyhjKGMyPU8pW09IXSlvYyhjMjMpW2NIXWMoW09IXSljKFtPSF0pYzNbT0hd

> <s_epik_cmdline>
J2VwaWtfYXBwJywgJy1pbWFlJywgJ2xpZ2FuZF9wcm8ubWFlJywgJy1vbWFlJywgJ2xpZ2FuZF9wcmVwLm1hZScsICctbXMnLCAnMScsICctcGgnLCAnNycsICctcGh0JywgJzAuNScsICctbnQn

> <r_lp_tautomer_probability>
1

> <r_epik_Ionization_Penalty>
  0.0552

> <r_epik_Ionization_Penalty_Charging>
  0.0000

> <r_epik_Ionization_Penalty_Neutral>
  0.0552

> <r_epik_State_Penalty>
 -0.0000

> <r_epik_Charging_Adjusted_Penalty>
0

> <i_epik_Tot_Q>
0

> <i_epik_Tot_abs_Q>
0

$$$$
