3v43_ligand
                    3D
 Schrodinger Suite 2020-3.
114113  0  0  1  0            999 V2000
   22.6570    5.9270   14.5430 N   0  3  0  0  0  0
   21.5600    6.7100   13.8980 C   0  0  2  0  0  0
   21.0270    7.7830   14.8390 C   0  0  0  0  0  0
   21.2360    7.7270   16.0560 O   0  0  0  0  0  0
   20.4310    5.7870   13.4190 C   0  0  0  0  0  0
   20.3570    8.7660   14.2560 N   0  0  0  0  0  0
   19.7890    9.8870   14.9890 C   0  0  2  0  0  0
   18.2810    9.8000   14.9460 C   0  0  0  0  0  0
   17.7140    9.3920   13.9410 O   0  0  0  0  0  0
   20.2360   11.2160   14.3700 C   0  0  0  0  0  0
   21.7510   11.4760   14.4480 C   0  0  0  0  0  0
   22.1150   12.7600   13.7190 C   0  0  0  0  0  0
   21.7830   12.6560   12.3000 N   0  0  0  0  0  0
   20.9890   13.4940   11.6210 C   0  0  0  0  0  0
   20.4550   14.5640   12.1950 N   0  0  0  0  0  0
   20.7400   13.2590   10.3440 N   0  3  0  0  0  0
   17.6390   10.1640   16.0520 N   0  0  0  0  0  0
   16.1780   10.2760   16.1000 C   0  0  2  0  0  0
   15.7640   11.5780   16.7510 C   0  0  0  0  0  0
   16.5460   12.1840   17.4940 O   0  0  0  0  0  0
   15.4900    9.1160   16.8620 C   0  0  2  0  0  0
   15.5780    9.3180   18.2800 O   0  0  0  0  0  0
   16.0500    7.7670   16.4780 C   0  0  0  0  0  0
   14.5210   11.9910   16.4990 N   0  0  0  0  0  0
   13.9670   13.1800   17.1440 C   0  0  2  0  0  0
   14.1060   13.1420   18.6680 C   0  0  0  0  0  0
   14.4860   14.1450   19.2840 O   0  0  0  0  0  0
   12.4940   13.3450   16.7800 C   0  0  0  0  0  0
   11.8660   14.5670   17.3840 C   0  0  0  0  0  0
   10.4090   14.6600   17.0300 C   0  0  0  0  0  0
    9.8320   15.9300   17.6160 C   0  0  0  0  0  0
    8.4430   16.1580   17.1370 N   0  3  0  0  0  0
   13.7890   11.9990   19.2800 N   0  0  0  0  0  0
   13.6980   11.9260   20.7430 C   0  0  2  0  0  0
   15.0490   11.6660   21.3920 C   0  0  0  0  0  0
   15.1650   11.7280   22.6210 O   0  0  0  0  0  0
   12.6850   10.8640   21.1840 C   0  0  0  0  0  0
   11.2410   11.1400   20.7720 C   0  0  0  0  0  0
   10.6250   12.3540   21.4330 C   0  0  0  0  0  0
   11.0760   12.7970   22.4850 O   0  0  0  0  0  0
    9.5710   12.8930   20.8180 N   0  0  0  0  0  0
   16.0730   11.3720   20.6020 N   0  0  0  0  0  0
   17.4260   11.2830   21.1600 C   0  0  2  0  0  0
   18.2700   12.5050   20.8090 C   0  0  0  0  0  0
   19.3860   12.6530   21.3210 O   0  0  0  0  0  0
   18.1630    9.9970   20.7390 C   0  0  2  0  0  0
   18.0610    9.8280   19.3210 O   0  0  0  0  0  0
   17.5810    8.7720   21.4440 C   0  0  0  0  0  0
   17.7310   13.3880   19.9670 N   0  0  0  0  0  0
   18.4100   14.6310   19.5710 C   0  0  2  0  0  0
   18.0250   15.8160   20.4650 C   0  0  0  0  0  0
   16.9610   15.8140   21.1030 O   0  5  0  0  0  0
   18.1170   14.9520   18.1080 C   0  0  0  0  0  0
   18.7690   16.8030   20.5700 O   0  0  0  0  0  0
   23.4503    6.6127   14.8756 H   0  0  0  0  0  0
   23.0714    5.2109   13.8181 H   0  0  0  0  0  0
   22.2569    5.3811   15.4101 H   0  0  0  0  0  0
   22.0056    7.2092   13.0249 H   0  0  0  0  0  0
   20.8434    5.0238   12.7427 H   0  0  0  0  0  0
   19.6743    6.3802   12.8846 H   0  0  0  0  0  0
   19.9662    5.2957   14.2865 H   0  0  0  0  0  0
   20.2393    8.7067   13.1639 H   0  0  0  0  0  0
   20.1543    9.7973   16.0227 H   0  0  0  0  0  0
   19.9617   11.2350   13.3049 H   0  0  0  0  0  0
   19.7404   12.0483   14.8912 H   0  0  0  0  0  0
   22.0535   11.5677   15.5016 H   0  0  0  0  0  0
   22.2913   10.6382   13.9831 H   0  0  0  0  0  0
   21.5558   13.6006   14.1556 H   0  0  0  0  0  0
   23.1945   12.9457   13.8202 H   0  0  0  0  0  0
   22.1977   11.8349   11.6969 H   0  0  0  0  0  0
   20.6518   14.7746   13.2566 H   0  0  0  0  0  0
   19.8154   15.2407   11.6094 H   0  0  0  0  0  0
   21.1747   12.3763    9.8522 H   0  0  0  0  0  0
   18.2372   10.3840   16.9485 H   0  0  0  0  0  0
   15.8983   10.2526   15.0364 H   0  0  0  0  0  0
   14.4122    9.1055   16.6426 H   0  0  0  0  0  0
   15.2119   10.2545   18.7259 H   0  0  0  0  0  0
   15.9723    7.6343   15.3888 H   0  0  0  0  0  0
   15.4795    6.9752   16.9855 H   0  0  0  0  0  0
   17.1061    7.7090   16.7800 H   0  0  0  0  0  0
   13.9097   11.4155   15.7883 H   0  0  0  0  0  0
   14.5735   14.0057   16.7436 H   0  0  0  0  0  0
   12.3932   13.4265   15.6877 H   0  0  0  0  0  0
   11.9282   12.4716   17.1363 H   0  0  0  0  0  0
   11.9590   14.5238   18.4792 H   0  0  0  0  0  0
   12.3767   15.4657   17.0078 H   0  0  0  0  0  0
   10.2978   14.6757   15.9357 H   0  0  0  0  0  0
    9.8757   13.7898   17.4402 H   0  0  0  0  0  0
    9.8176   15.8539   18.7133 H   0  0  0  0  0  0
   10.4526   16.7872   17.3160 H   0  0  0  0  0  0
    8.0506   17.0860   17.5785 H   0  0  0  0  0  0
    7.8079   15.3117   17.4377 H   0  0  0  0  0  0
    8.4430   16.2450   16.0404 H   0  0  0  0  0  0
   13.5947   11.1035   18.6715 H   0  0  0  0  0  0
   13.3541   12.9272   21.0420 H   0  0  0  0  0  0
   12.9577    9.8927   20.7456 H   0  0  0  0  0  0
   12.6902   10.7855   22.2812 H   0  0  0  0  0  0
   11.1953   11.3076   19.6858 H   0  0  0  0  0  0
   10.6128   10.2766   21.0365 H   0  0  0  0  0  0
    9.2031   12.4601   19.8761 H   0  0  0  0  0  0
    9.0698   13.7703   21.2528 H   0  0  0  0  0  0
   15.9079   11.1950   19.5290 H   0  0  0  0  0  0
   17.2402   11.2626   22.2440 H   0  0  0  0  0  0
   19.2375   10.0787   20.9598 H   0  0  0  0  0  0
   18.4309   10.6134   18.6455 H   0  0  0  0  0  0
   17.6603    8.9037   22.5332 H   0  0  0  0  0  0
   18.1405    7.8746   21.1415 H   0  0  0  0  0  0
   16.5234    8.6562   21.1646 H   0  0  0  0  0  0
   16.7343   13.1536   19.5649 H   0  0  0  0  0  0
   19.4815   14.4233   19.7076 H   0  0  0  0  0  0
   18.3983   14.0932   17.4808 H   0  0  0  0  0  0
   18.6979   15.8348   17.8029 H   0  0  0  0  0  0
   17.0436   15.1592   17.9860 H   0  0  0  0  0  0
   20.0981   13.9462    9.7733 H   0  0  0  0  0  0
  1  2  1  0  0  0
  1 55  1  0  0  0
  1 56  1  0  0  0
  1 57  1  0  0  0
  2  3  1  0  0  0
  2  5  1  0  0  0
  2 58  1  0  0  0
  3  4  2  0  0  0
  3  6  1  0  0  0
  5 59  1  0  0  0
  5 60  1  0  0  0
  5 61  1  0  0  0
  6  7  1  0  0  0
  6 62  1  0  0  0
  7  8  1  0  0  0
  7 10  1  0  0  0
  7 63  1  0  0  0
  8  9  2  0  0  0
  8 17  1  0  0  0
 10 11  1  0  0  0
 10 64  1  0  0  0
 10 65  1  0  0  0
 11 12  1  0  0  0
 11 66  1  0  0  0
 11 67  1  0  0  0
 12 13  1  0  0  0
 12 68  1  0  0  0
 12 69  1  0  0  0
 13 14  1  0  0  0
 13 70  1  0  0  0
 14 15  1  0  0  0
 14 16  2  0  0  0
 15 71  1  0  0  0
 15 72  1  0  0  0
 16 73  1  0  0  0
 16114  1  0  0  0
 17 18  1  0  0  0
 17 74  1  0  0  0
 18 19  1  0  0  0
 18 21  1  0  0  0
 18 75  1  0  0  0
 19 20  2  0  0  0
 19 24  1  0  0  0
 21 22  1  0  0  0
 21 23  1  0  0  0
 21 76  1  0  0  0
 22 77  1  0  0  0
 23 78  1  0  0  0
 23 79  1  0  0  0
 23 80  1  0  0  0
 24 25  1  0  0  0
 24 81  1  0  0  0
 25 26  1  0  0  0
 25 28  1  0  0  0
 25 82  1  0  0  0
 26 27  2  0  0  0
 26 33  1  0  0  0
 28 29  1  0  0  0
 28 83  1  0  0  0
 28 84  1  0  0  0
 29 30  1  0  0  0
 29 85  1  0  0  0
 29 86  1  0  0  0
 30 31  1  0  0  0
 30 87  1  0  0  0
 30 88  1  0  0  0
 31 32  1  0  0  0
 31 89  1  0  0  0
 31 90  1  0  0  0
 32 91  1  0  0  0
 32 92  1  0  0  0
 32 93  1  0  0  0
 33 34  1  0  0  0
 33 94  1  0  0  0
 34 35  1  0  0  0
 34 37  1  0  0  0
 34 95  1  0  0  0
 35 36  2  0  0  0
 35 42  1  0  0  0
 37 38  1  0  0  0
 37 96  1  0  0  0
 37 97  1  0  0  0
 38 39  1  0  0  0
 38 98  1  0  0  0
 38 99  1  0  0  0
 39 40  2  0  0  0
 39 41  1  0  0  0
 41100  1  0  0  0
 41101  1  0  0  0
 42 43  1  0  0  0
 42102  1  0  0  0
 43 44  1  0  0  0
 43 46  1  0  0  0
 43103  1  0  0  0
 44 45  2  0  0  0
 44 49  1  0  0  0
 46 47  1  0  0  0
 46 48  1  0  0  0
 46104  1  0  0  0
 47105  1  0  0  0
 48106  1  0  0  0
 48107  1  0  0  0
 48108  1  0  0  0
 49 50  1  0  0  0
 49109  1  0  0  0
 50 51  1  0  0  0
 50 53  1  0  0  0
 50110  1  0  0  0
 51 52  1  0  0  0
 51 54  2  0  0  0
 53111  1  0  0  0
 53112  1  0  0  0
 53113  1  0  0  0
M  CHG  4   1   1  16   1  32   1  52  -1
M  END
> <s_m_source_file>
../3v43_ligand.sdf

> <i_m_source_file_index>
1

> <s_epik_input>
W0hdL049QyhbTkgyXSlcW05IXVtDSDJdW0NIMl1bQ0gyXVtDQEhdKFtOSF1DKD1PKVtDQEBIXShbTkgzK10pW0NIM10pQyg9TylbTkhdW0NAQEhdKFtDQEhdKFtPSF0pW0NIM10pQyg9TylbTkhdW0NAQEhdKFtDSDJdW0NIMl1bQ0gyXVtDSDJdW05IMytdKUMoPU8pW05IXVtDQEBIXShbQ0gyXVtDSDJdQyg9TylbTkgyXSlDKD1PKVtOSF1bQ0BASF0oW0NASF0oW09IXSlbQ0gzXSlDKD1PKVtOSF1bQ0BASF0oW0NIM10pQyg9TylbT0hd

> <s_epik_cmdline>
J2VwaWtfYXBwJywgJy1pbWFlJywgJ2xpZ2FuZF9wcm8ubWFlJywgJy1vbWFlJywgJ2xpZ2FuZF9wcmVwLm1hZScsICctbXMnLCAnMScsICctcGgnLCAnNycsICctcGh0JywgJzAuNScsICctbnQn

> <r_epik_Ionization_Penalty>
  0.1257

> <r_epik_Ionization_Penalty_Charging>
  0.1257

> <r_epik_Ionization_Penalty_Neutral>
  0.0000

> <r_epik_State_Penalty>
  0.1145

> <r_epik_Charging_Adjusted_Penalty>
0.240193521561468

> <i_epik_Tot_Q>
2

> <i_epik_Tot_abs_Q>
4

> <s_epik_Chemistry_Notes>
This compound has an imine and may undergo hydrolysis.

$$$$
