3v4j_ligand
                    3D
 Schrodinger Suite 2020-3.
 19 19  0  0  1  0            999 V2000
  -17.2370  -23.1440    1.1680 O   0  0  0  0  0  0
  -16.3760  -22.6920    0.3860 C   0  0  0  0  0  0
  -16.6710  -22.6610   -1.0640 C   0  0  0  0  0  0
  -17.7850  -23.0360   -1.4930 O   0  0  0  0  0  0
  -15.7170  -22.2050   -1.9460 C   0  0  0  0  0  0
  -14.4840  -21.7550   -1.4740 C   0  0  0  0  0  0
  -13.5740  -21.3380   -2.4510 N   0  3  0  0  0  0
  -12.2790  -21.2810   -2.1860 N   0  0  0  0  0  0
  -11.3780  -20.8800   -3.1810 O   0  0  0  0  0  0
  -14.0100  -21.0380   -3.8220 C   0  0  0  0  0  0
  -15.1510  -22.2320    0.8830 C   0  0  0  0  0  0
  -14.1690  -21.7800    0.0020 C   0  0  0  0  0  0
  -15.9292  -22.1962   -3.0253 H   0  0  0  0  0  0
  -10.3012  -20.8324   -2.9612 H   0  0  0  0  0  0
  -15.1046  -21.1260   -3.8862 H   0  0  0  0  0  0
  -13.5434  -21.7496   -4.5191 H   0  0  0  0  0  0
  -13.7083  -20.0139   -4.0869 H   0  0  0  0  0  0
  -14.9623  -22.2267    1.9667 H   0  0  0  0  0  0
  -13.1924  -21.4525    0.3880 H   0  0  0  0  0  0
  1  2  2  0  0  0
  2  3  1  0  0  0
  2 11  1  0  0  0
  3  4  2  0  0  0
  3  5  1  0  0  0
  5  6  2  0  0  0
  5 13  1  0  0  0
  6  7  1  0  0  0
  6 12  1  0  0  0
  7  8  2  0  0  0
  7 10  1  0  0  0
  8  9  1  0  0  0
  9 14  1  0  0  0
 10 15  1  0  0  0
 10 16  1  0  0  0
 10 17  1  0  0  0
 11 12  2  0  0  0
 11 18  1  0  0  0
 12 19  1  0  0  0
M  CHG  1   7   1
M  END
> <s_m_source_file>
../3v4j_ligand.sdf

> <i_m_source_file_index>
1

> <s_epik_input>
Tz1DMUMoPU8pW0NIXT1DKFtDSF09W0NIXTEpL1tOK10oW0NIM10pPU4vW09IXQ==

> <s_epik_cmdline>
J2VwaWtfYXBwJywgJy1pbWFlJywgJ2xpZ2FuZF9wcm8ubWFlJywgJy1vbWFlJywgJ2xpZ2FuZF9wcmVwLm1hZScsICctbXMnLCAnMScsICctcGgnLCAnNycsICctcGh0JywgJzAuNScsICctbnQn

> <r_lp_tautomer_probability>
1

> <r_epik_Ionization_Penalty>
  0.0000

> <r_epik_Ionization_Penalty_Charging>
  0.0000

> <r_epik_Ionization_Penalty_Neutral>
  0.0000

> <r_epik_State_Penalty>
 -0.0000

> <r_epik_Charging_Adjusted_Penalty>
0

> <i_epik_Tot_Q>
1

> <i_epik_Tot_abs_Q>
1

$$$$
