3v4t_ligand
                    3D
 Schrodinger Suite 2020-3.
 64 66  0  0  1  0            999 V2000
  -39.6560    3.2280   10.6440 C   0  0  1  0  0  0
  -39.5700    2.2520    9.4450 C   0  0  1  0  0  0
  -38.3730    2.5650    8.5760 C   0  0  2  0  0  0
  -38.5150    4.0000    8.0330 C   0  0  1  0  0  0
  -38.5520    4.9810    9.2360 C   0  0  1  0  0  0
  -38.7170    6.4400    8.7810 C   0  0  0  0  0  0
  -40.4780    0.0830   10.3780 C   0  0  0  0  0  0
  -40.0610   -1.3350   10.8480 C   0  0  0  0  0  0
  -39.4560    0.8580    9.9600 N   0  0  0  0  0  0
  -38.5320    3.0060   11.5250 O   0  0  0  0  0  0
  -38.3520    1.6250    7.4460 O   0  0  0  0  0  0
  -37.3720    4.4430    7.1910 O   0  0  0  0  0  0
  -39.7060    4.5740   10.1400 O   0  0  0  0  0  0
  -39.9780    6.6980    8.0500 O   0  0  0  0  0  0
  -41.6180    0.5060   10.3590 O   0  0  0  0  0  0
  -35.6660    8.5570   16.9260 N   0  0  0  0  0  0
  -35.1750    8.9820   18.1750 C   0  0  0  0  0  0
  -35.6580    8.3650   19.3020 N   0  0  0  0  0  0
  -36.6070    7.3410   19.3240 C   0  0  0  0  0  0
  -37.1050    6.9240   18.0190 C   0  0  0  0  0  0
  -36.6300    7.5270   16.8770 C   0  0  0  0  0  0
  -34.3050    9.9070   18.2720 O   0  0  0  0  0  0
  -36.9880    6.8320   20.3630 O   0  0  0  0  0  0
  -35.1650    9.1850   15.6470 C   0  0  1  0  0  0
  -34.3670    8.2810   14.7660 C   0  0  2  0  0  0
  -33.1030    7.6670   15.2660 O   0  0  0  0  0  0
  -34.4030    9.1040   13.4410 C   0  0  1  0  0  0
  -35.9030    9.5510   13.4750 C   0  0  2  0  0  0
  -36.2790    9.5760   14.8610 O   0  0  0  0  0  0
  -33.3280   10.1240   13.5240 O   0  0  0  0  0  0
  -36.9230    8.6110   12.7810 C   0  0  0  0  0  0
  -37.0340    7.2930   13.3990 O   0  0  0  0  0  0
  -38.3760    6.5320   13.5120 P   0  0  2  0  0  0
  -39.4360    7.3450   12.9320 O   0  5  0  0  0  0
  -38.6530    6.2450   14.9120 O   0  0  0  0  0  0
  -38.4250    5.3470   12.5760 O   0  0  0  0  0  0
  -38.3780    3.7970   12.8940 P   0  0  1  0  0  0
  -39.5700    3.5020   13.6370 O   0  0  0  0  0  0
  -37.1770    3.3390   13.5340 O   0  5  0  0  0  0
  -40.5487    3.1141   11.2766 H   0  0  0  0  0  0
  -40.4732    2.3294    8.8220 H   0  0  0  0  0  0
  -37.4404    2.4362    9.1449 H   0  0  0  0  0  0
  -39.4058    4.0079    7.3877 H   0  0  0  0  0  0
  -37.6049    4.9285    9.7930 H   0  0  0  0  0  0
  -38.7075    7.1014    9.6599 H   0  0  0  0  0  0
  -37.8888    6.7106    8.1095 H   0  0  0  0  0  0
  -38.9702   -1.4450   10.7582 H   0  0  0  0  0  0
  -40.5585   -2.0900   10.2215 H   0  0  0  0  0  0
  -40.3585   -1.4756   11.8976 H   0  0  0  0  0  0
  -38.4702    0.3742   10.0239 H   0  0  0  0  0  0
  -38.2560    0.5449    7.6308 H   0  0  0  0  0  0
  -37.1300    3.9028    6.2638 H   0  0  0  0  0  0
  -40.2009    7.7087    7.6775 H   0  0  0  0  0  0
  -35.2953    8.6704   20.2945 H   0  0  0  0  0  0
  -37.8534    6.1348   17.9478 H   0  0  0  0  0  0
  -37.0083    7.2005   15.9083 H   0  0  0  0  0  0
  -34.5478   10.0470   15.9401 H   0  0  0  0  0  0
  -34.7630    7.2560   14.7144 H   0  0  0  0  0  0
  -33.1044    7.0913   16.2033 H   0  0  0  0  0  0
  -34.1399    8.6685   12.4658 H   0  0  0  0  0  0
  -35.9785   10.5391   12.9976 H   0  0  0  0  0  0
  -32.2728    9.8141   13.5005 H   0  0  0  0  0  0
  -37.9229    9.0684   12.8116 H   0  0  0  0  0  0
  -36.6236    8.4539   11.7343 H   0  0  0  0  0  0
  1  2  1  0  0  0
  1 10  1  0  0  0
  1 13  1  0  0  0
  1 40  1  0  0  0
  2  3  1  0  0  0
  2  9  1  0  0  0
  2 41  1  0  0  0
  3  4  1  0  0  0
  3 11  1  0  0  0
  3 42  1  0  0  0
  4  5  1  0  0  0
  4 12  1  0  0  0
  4 43  1  0  0  0
  5  6  1  0  0  0
  5 13  1  0  0  0
  5 44  1  0  0  0
  6 14  1  0  0  0
  6 45  1  0  0  0
  6 46  1  0  0  0
  7  8  1  0  0  0
  7  9  1  0  0  0
  7 15  2  0  0  0
  8 47  1  0  0  0
  8 48  1  0  0  0
  8 49  1  0  0  0
  9 50  1  0  0  0
 10 37  1  0  0  0
 11 51  1  0  0  0
 12 52  1  0  0  0
 14 53  1  0  0  0
 16 17  1  0  0  0
 16 21  1  0  0  0
 16 24  1  0  0  0
 17 18  1  0  0  0
 17 22  2  0  0  0
 18 19  1  0  0  0
 18 54  1  0  0  0
 19 20  1  0  0  0
 19 23  2  0  0  0
 20 21  2  0  0  0
 20 55  1  0  0  0
 21 56  1  0  0  0
 24 25  1  0  0  0
 24 29  1  0  0  0
 24 57  1  0  0  0
 25 26  1  0  0  0
 25 27  1  0  0  0
 25 58  1  0  0  0
 26 59  1  0  0  0
 27 28  1  0  0  0
 27 30  1  0  0  0
 27 60  1  0  0  0
 28 29  1  0  0  0
 28 31  1  0  0  0
 28 61  1  0  0  0
 30 62  1  0  0  0
 31 32  1  0  0  0
 31 63  1  0  0  0
 31 64  1  0  0  0
 32 33  1  0  0  0
 33 34  1  0  0  0
 33 35  2  0  0  0
 33 36  1  0  0  0
 36 37  1  0  0  0
 37 38  2  0  0  0
 37 39  1  0  0  0
M  CHG  2  34  -1  39  -1
M  END
> <s_m_source_file>
../3v4t_ligand.sdf

> <i_m_source_file_index>
1

> <s_epik_input>
W09IXVtDSDJdW0NAQEhdKE8xKVtDQEBIXShbT0hdKVtDQEhdKFtPSF0pW0NAQEhdKFtOSF1DKD1PKVtDSDNdKVtDQEhdMU9bUEBAXSg9TykoW09IXSlPW1BAXSg9TykoW09IXSlPW0NIMl1bQ0BASF0oTzIpW0NAQEhdKFtPSF0pW0NAQEhdKFtPSF0pW0NAQEhdMm4zYyg9TylbbkhdYyg9TylbY0hdW2NIXTM=

> <s_epik_cmdline>
J2VwaWtfYXBwJywgJy1pbWFlJywgJ2xpZ2FuZF9wcm8ubWFlJywgJy1vbWFlJywgJ2xpZ2FuZF9wcmVwLm1hZScsICctbXMnLCAnMScsICctcGgnLCAnNycsICctcGh0JywgJzAuNScsICctbnQn

> <r_lp_tautomer_probability>
1

> <r_epik_Ionization_Penalty>
  0.0031

> <r_epik_Ionization_Penalty_Charging>
  0.0031

> <r_epik_Ionization_Penalty_Neutral>
  0.0000

> <r_epik_State_Penalty>
 -0.0000

> <r_epik_Charging_Adjusted_Penalty>
0.00306157078792364

> <i_epik_Tot_Q>
-2

> <i_epik_Tot_abs_Q>
2

> <s_epik_Chemistry_Notes>
This compound contains an acetal/aminal-like group ( X-CH(R)-Y where X, Y are N, S, or O) that may be acid/base labile, releasing an aldehyde.

$$$$
