3v4x_ligand
                    3D
 Schrodinger Suite 2020-3.
 56 55  0  0  1  0            999 V2000
   31.3570   -1.5370   13.7040 C   0  0  1  0  0  0
   34.3510    9.3150   22.2400 O   0  0  0  0  0  0
   32.3100   -1.3310   14.9210 C   0  0  1  0  0  0
   30.1400   -3.5610   13.2900 O   0  0  0  0  0  0
   34.7530    8.1950   22.6200 C   0  0  0  0  0  0
   31.9080   -0.8090   12.4560 C   0  0  0  0  0  0
   34.7590    7.7710   23.7950 O   0  5  0  0  0  0
   31.8740   -0.1970   15.9000 C   0  0  0  0  0  0
   30.8520   -0.7970   11.5290 O   0  0  0  0  0  0
   35.2790    7.2840   21.5170 C   0  0  0  0  0  0
   32.2600   -2.5140   15.6680 O   0  0  0  0  0  0
   34.1420    6.3090   19.0890 C   0  0  0  0  0  0
   31.2130   -3.0140   13.3450 C   0  0  0  0  0  0
   35.5530    5.9940   21.7150 C   0  0  1  0  0  0
   32.0460    1.2280   15.3480 C   0  0  0  0  0  0
   31.8130    2.3380   16.4070 C   0  0  0  0  0  0
   34.8730    4.9310   20.9540 C   0  0  0  0  0  0
   32.0900    3.1900   19.9800 C   0  0  0  0  0  0
   34.5600    4.9980   19.6460 C   0  0  1  0  0  0
   34.2440    3.7660   18.8380 C   0  0  0  0  0  0
   32.7460    3.3940   18.6130 C   0  0  1  0  0  0
   32.5270    2.1050   17.7590 C   0  0  0  0  0  0
   36.7550    5.6460   22.5240 C   0  0  0  0  0  0
   30.3698   -1.1429   13.9871 H   0  0  0  0  0  0
   33.3329   -1.1497   14.5592 H   0  0  0  0  0  0
   32.2116    0.2118   12.7312 H   0  0  0  0  0  0
   32.7779   -1.3576   12.0657 H   0  0  0  0  0  0
   30.8089   -0.3161   16.1479 H   0  0  0  0  0  0
   32.4735   -0.2565   16.8203 H   0  0  0  0  0  0
   30.9908   -0.3290   10.5433 H   0  0  0  0  0  0
   34.5513    7.2483   20.6928 H   0  0  0  0  0  0
   36.2368    7.6755   21.1437 H   0  0  0  0  0  0
   32.5263   -3.4725   15.1986 H   0  0  0  0  0  0
   34.4360    7.1119   19.7810 H   0  0  0  0  0  0
   33.0500    6.3200   18.9573 H   0  0  0  0  0  0
   34.6303    6.4665   18.1160 H   0  0  0  0  0  0
   32.1311   -3.5814   13.1327 H   0  0  0  0  0  0
   34.6844    6.4178   22.2403 H   0  0  0  0  0  0
   33.0692    1.3512   14.9634 H   0  0  0  0  0  0
   31.3256    1.3952   14.5337 H   0  0  0  0  0  0
   32.1787    3.2994   16.0170 H   0  0  0  0  0  0
   30.7378    2.4162   16.6258 H   0  0  0  0  0  0
   35.4796    4.0138   20.9831 H   0  0  0  0  0  0
   33.8875    4.7331   21.4009 H   0  0  0  0  0  0
   32.2356    4.0906   20.5946 H   0  0  0  0  0  0
   32.5492    2.3255   20.4817 H   0  0  0  0  0  0
   31.0135    3.0073   19.8465 H   0  0  0  0  0  0
   35.6496    4.9669   19.7935 H   0  0  0  0  0  0
   34.6640    3.8729   17.8270 H   0  0  0  0  0  0
   34.6842    2.8842   19.3265 H   0  0  0  0  0  0
   32.2829    4.2274   18.0644 H   0  0  0  0  0  0
   31.9315    1.4141   18.3738 H   0  0  0  0  0  0
   33.5215    1.6709   17.5785 H   0  0  0  0  0  0
   37.1348    6.5494   23.0236 H   0  0  0  0  0  0
   37.5345    5.2363   21.8649 H   0  0  0  0  0  0
   36.4829    4.8954   23.2807 H   0  0  0  0  0  0
  1  3  1  0  0  0
  1  6  1  0  0  0
  1 13  1  0  0  0
  1 24  1  0  0  0
  2  5  2  0  0  0
  3  8  1  0  0  0
  3 11  1  0  0  0
  3 25  1  0  0  0
  4 13  2  0  0  0
  5  7  1  0  0  0
  5 10  1  0  0  0
  6  9  1  0  0  0
  6 26  1  0  0  0
  6 27  1  0  0  0
  8 15  1  0  0  0
  8 28  1  0  0  0
  8 29  1  0  0  0
  9 30  1  0  0  0
 10 14  1  0  0  0
 10 31  1  0  0  0
 10 32  1  0  0  0
 11 33  1  0  0  0
 12 19  1  0  0  0
 12 34  1  0  0  0
 12 35  1  0  0  0
 12 36  1  0  0  0
 13 37  1  0  0  0
 14 17  1  0  0  0
 14 23  1  0  0  0
 14 38  1  0  0  0
 15 16  1  0  0  0
 15 39  1  0  0  0
 15 40  1  0  0  0
 16 22  1  0  0  0
 16 41  1  0  0  0
 16 42  1  0  0  0
 17 19  1  0  0  0
 17 43  1  0  0  0
 17 44  1  0  0  0
 18 21  1  0  0  0
 18 45  1  0  0  0
 18 46  1  0  0  0
 18 47  1  0  0  0
 19 20  1  0  0  0
 19 48  1  0  0  0
 20 21  1  0  0  0
 20 49  1  0  0  0
 20 50  1  0  0  0
 21 22  1  0  0  0
 21 51  1  0  0  0
 22 52  1  0  0  0
 22 53  1  0  0  0
 23 54  1  0  0  0
 23 55  1  0  0  0
 23 56  1  0  0  0
M  CHG  1   7  -1
M  END
> <s_m_source_file>
../3v4x_ligand.sdf

> <i_m_source_file_index>
1

> <s_epik_input>
Tz1bQ0hdW0NASF0oW0NIMl1bT0hdKVtDQEhdKFtPSF0pW0NIMl1bQ0gyXVtDSDJdW0NIMl1bQ0BASF0oW0NIM10pW0NIMl1bQ0BASF0oW0NIM10pW0NIMl1bQ0BASF0oW0NIM10pW0NIMl1DKD1PKVtPSF0=

> <s_epik_cmdline>
J2VwaWtfYXBwJywgJy1pbWFlJywgJ2xpZ2FuZF9wcm8ubWFlJywgJy1vbWFlJywgJ2xpZ2FuZF9wcmVwLm1hZScsICctbXMnLCAnMScsICctcGgnLCAnNycsICctcGh0JywgJzAuNScsICctbnQn

> <r_lp_tautomer_probability>
1

> <r_epik_Ionization_Penalty>
  0.0055

> <r_epik_Ionization_Penalty_Charging>
  0.0055

> <r_epik_Ionization_Penalty_Neutral>
  0.0000

> <r_epik_State_Penalty>
 -0.0000

> <r_epik_Charging_Adjusted_Penalty>
0.00545922658052684

> <i_epik_Tot_Q>
-1

> <i_epik_Tot_abs_Q>
1

$$$$
