3v5g_ligand
                    3D
 Schrodinger Suite 2020-3.
 23 23  0  0  1  0            999 V2000
   -5.9660    0.9550   16.6740 S   0  0  0  0  0  0
   -7.4100    0.9390   16.5910 O   0  0  0  0  0  0
   -5.4340    1.0440   18.0080 O   0  0  0  0  0  0
   -5.3600   -0.3250   15.9530 N   0  0  0  0  0  0
   -3.5910    3.7050   14.7980 C   0  0  0  0  0  0
   -4.0120    2.5510   15.5040 C   0  0  0  0  0  0
   -5.3960    2.3900   15.7830 C   0  0  0  0  0  0
   -6.3390    3.3560   15.3630 C   0  0  0  0  0  0
   -5.9000    4.4930   14.6640 C   0  0  0  0  0  0
   -4.5400    4.6820   14.3770 C   0  0  0  0  0  0
   -4.1560    5.8690   13.6780 N   0  5  0  0  0  0
   -2.6930    6.1580   13.0370 S   0  0  0  0  0  0
   -1.7610    6.2470   14.1290 O   0  0  0  0  0  0
   -2.8580    7.3110   12.2090 O   0  0  0  0  0  0
   -2.3000    4.9240   12.1100 N   0  0  0  0  0  0
   -5.6920   -1.2330   16.4778 H   0  0  0  0  0  0
   -4.2615   -0.2711   15.9725 H   0  0  0  0  0  0
   -2.5335    3.8469   14.5751 H   0  0  0  0  0  0
   -3.2889    1.8019   15.8266 H   0  0  0  0  0  0
   -7.3985    3.2197   15.5798 H   0  0  0  0  0  0
   -6.6263    5.2385   14.3403 H   0  0  0  0  0  0
   -1.3096    5.1005   11.6650 H   0  0  0  0  0  0
   -3.0470    4.8138   11.3101 H   0  0  0  0  0  0
  1  2  2  0  0  0
  1  3  2  0  0  0
  1  4  1  0  0  0
  1  7  1  0  0  0
  4 16  1  0  0  0
  4 17  1  0  0  0
  5  6  2  0  0  0
  5 10  1  0  0  0
  5 18  1  0  0  0
  6  7  1  0  0  0
  6 19  1  0  0  0
  7  8  2  0  0  0
  8  9  1  0  0  0
  8 20  1  0  0  0
  9 10  2  0  0  0
  9 21  1  0  0  0
 10 11  1  0  0  0
 11 12  1  0  0  0
 12 13  2  0  0  0
 12 14  2  0  0  0
 12 15  1  0  0  0
 15 22  1  0  0  0
 15 23  1  0  0  0
M  CHG  1  11  -1
M  END
> <s_m_source_file>
../3v5g_ligand.sdf

> <i_m_source_file_index>
1

> <s_epik_input>
Tz1TKD1PKShbTkgyXSljMVtjSF1bY0hdYyhbY0hdW2NIXTEpW05IXVMoPU8pKD1PKVtOSDJd

> <s_epik_cmdline>
J2VwaWtfYXBwJywgJy1pbWFlJywgJ2xpZ2FuZF9wcm8ubWFlJywgJy1vbWFlJywgJ2xpZ2FuZF9wcmVwLm1hZScsICctbXMnLCAnMScsICctcGgnLCAnNycsICctcGh0JywgJzAuNScsICctbnQn

> <r_lp_tautomer_probability>
1

> <r_epik_Ionization_Penalty>
  0.1688

> <r_epik_Ionization_Penalty_Charging>
  0.1669

> <r_epik_Ionization_Penalty_Neutral>
  0.0019

> <r_epik_State_Penalty>
 -0.0000

> <r_epik_Charging_Adjusted_Penalty>
0.166872346108007

> <i_epik_Tot_Q>
-1

> <i_epik_Tot_abs_Q>
1

$$$$
