3v5j_ligand
                    3D
 Schrodinger Suite 2020-3.
 60 64  0  0  1  0            999 V2000
  -57.6200  -21.1930   27.1610 C   0  0  0  0  0  0
  -58.5550  -20.8470   25.9930 C   0  0  0  0  0  0
  -57.7830  -20.4500   24.8360 O   0  0  0  0  0  0
  -56.9490  -19.3040   25.1220 C   0  0  0  0  0  0
  -55.9850  -19.6410   26.2690 C   0  0  0  0  0  0
  -56.7560  -20.0360   27.4630 N   0  0  0  0  0  0
  -55.8440  -20.3820   28.5660 C   0  0  0  0  0  0
  -55.2250  -19.1100   29.1540 C   0  0  0  0  0  0
  -53.9050  -18.9620   28.6030 O   0  0  0  0  0  0
  -53.2000  -17.9410   29.1670 C   0  0  0  0  0  0
  -52.9140  -17.9440   30.5360 C   0  0  0  0  0  0
  -52.1470  -16.9220   31.1060 C   0  0  0  0  0  0
  -51.8690  -16.9030   32.6220 C   0  0  0  0  0  0
  -52.6830  -15.7580   33.2370 C   0  0  0  0  0  0
  -52.5690  -15.7220   34.7640 C   0  0  0  0  0  0
  -50.3750  -16.6650   32.8910 C   0  0  0  0  0  0
  -49.5150  -17.8340   32.4020 C   0  0  0  0  0  0
  -52.2690  -18.1410   33.2280 O   0  0  0  0  0  0
  -51.6610  -15.8940   30.2910 C   0  0  0  0  0  0
  -51.9370  -15.8970   28.9210 C   0  0  0  0  0  0
  -51.6210  -15.0640   27.9360 N   0  0  0  0  0  0
  -52.7110  -16.9090   28.3610 C   0  0  0  0  0  0
  -52.7920  -16.6610   27.0560 C   0  0  0  0  0  0
  -52.1410  -15.5230   26.7970 C   0  0  0  0  0  0
  -52.0010  -14.8990   25.5570 C   0  0  0  0  0  0
  -52.6430  -15.2880   24.3950 C   0  0  0  0  0  0
  -53.6860  -16.3680   23.6450 S   0  0  0  0  0  0
  -53.5870  -15.6740   22.1060 C   0  0  0  0  0  0
  -52.7530  -14.6280   22.2000 C   0  0  0  0  0  0
  -52.2170  -14.3900   23.4200 C   0  0  0  0  0  0
  -51.4040  -13.5400   24.0560 N   0  0  0  0  0  0
  -51.2780  -13.8230   25.2540 N   0  0  0  0  0  0
  -58.2194  -21.4431   28.0488 H   0  0  0  0  0  0
  -56.9939  -22.0548   26.8866 H   0  0  0  0  0  0
  -59.1620  -21.7276   25.7360 H   0  0  0  0  0  0
  -59.2166  -20.0185   26.2860 H   0  0  0  0  0  0
  -56.3706  -19.0384   24.2248 H   0  0  0  0  0  0
  -57.5823  -18.4536   25.4150 H   0  0  0  0  0  0
  -55.3300  -20.4710   25.9656 H   0  0  0  0  0  0
  -55.3727  -18.7581   26.5047 H   0  0  0  0  0  0
  -56.4036  -20.9088   29.3529 H   0  0  0  0  0  0
  -55.0419  -21.0330   28.1881 H   0  0  0  0  0  0
  -55.8470  -18.2427   28.8878 H   0  0  0  0  0  0
  -55.1715  -19.2006   30.2490 H   0  0  0  0  0  0
  -53.2922  -18.7500   31.1648 H   0  0  0  0  0  0
  -52.3187  -14.7971   32.8445 H   0  0  0  0  0  0
  -53.7445  -15.8816   32.9765 H   0  0  0  0  0  0
  -53.1678  -14.8870   35.1568 H   0  0  0  0  0  0
  -51.5158  -15.5843   35.0499 H   0  0  0  0  0  0
  -52.9416  -16.6688   35.1819 H   0  0  0  0  0  0
  -50.0488  -15.7541   32.3677 H   0  0  0  0  0  0
  -50.2116  -16.5451   33.9722 H   0  0  0  0  0  0
  -48.4561  -17.6237   32.6132 H   0  0  0  0  0  0
  -49.6541  -17.9635   31.3185 H   0  0  0  0  0  0
  -49.8170  -18.7545   32.9231 H   0  0  0  0  0  0
  -53.3107  -18.4839   33.1426 H   0  0  0  0  0  0
  -51.0665  -15.0900   30.7249 H   0  0  0  0  0  0
  -53.3039  -17.2823   26.3211 H   0  0  0  0  0  0
  -54.1033  -16.0127   21.2078 H   0  0  0  0  0  0
  -52.4969  -13.9779   21.3504 H   0  0  0  0  0  0
  1  2  1  0  0  0
  1  6  1  0  0  0
  1 33  1  0  0  0
  1 34  1  0  0  0
  2  3  1  0  0  0
  2 35  1  0  0  0
  2 36  1  0  0  0
  3  4  1  0  0  0
  4  5  1  0  0  0
  4 37  1  0  0  0
  4 38  1  0  0  0
  5  6  1  0  0  0
  5 39  1  0  0  0
  5 40  1  0  0  0
  6  7  1  0  0  0
  7  8  1  0  0  0
  7 41  1  0  0  0
  7 42  1  0  0  0
  8  9  1  0  0  0
  8 43  1  0  0  0
  8 44  1  0  0  0
  9 10  1  0  0  0
 10 11  2  0  0  0
 10 22  1  0  0  0
 11 12  1  0  0  0
 11 45  1  0  0  0
 12 13  1  0  0  0
 12 19  2  0  0  0
 13 14  1  0  0  0
 13 16  1  0  0  0
 13 18  1  0  0  0
 14 15  1  0  0  0
 14 46  1  0  0  0
 14 47  1  0  0  0
 15 48  1  0  0  0
 15 49  1  0  0  0
 15 50  1  0  0  0
 16 17  1  0  0  0
 16 51  1  0  0  0
 16 52  1  0  0  0
 17 53  1  0  0  0
 17 54  1  0  0  0
 17 55  1  0  0  0
 18 56  1  0  0  0
 19 20  1  0  0  0
 19 57  1  0  0  0
 20 21  1  0  0  0
 20 22  2  0  0  0
 21 24  2  0  0  0
 22 23  1  0  0  0
 23 24  1  0  0  0
 23 58  1  0  0  0
 24 25  1  0  0  0
 25 26  2  0  0  0
 25 32  1  0  0  0
 26 27  1  0  0  0
 26 30  1  0  0  0
 27 28  1  0  0  0
 28 29  1  0  0  0
 28 59  1  0  0  0
 29 30  2  0  0  0
 29 60  1  0  0  0
 30 31  1  0  0  0
 31 32  2  0  0  0
M  END
> <s_m_source_file>
../3v5j_ligand.sdf

> <i_m_source_file_index>
1

> <s_epik_input>
W0NIMl0xW0NIMl1PW0NIMl1bQ0gyXVtOSCtdMVtDSDJdW0NIMl1PYyhbY0hdYyhbY0hdMilDKFtPSF0pKFtDSDJdW0NIM10pW0NIMl1bQ0gzXSljKGMyMylbQ0gyXUMoPU4zKUM9NE49TkMoQzQ1KT1bQ0hdW0NIMl1TNQ==

> <s_epik_cmdline>
J2VwaWtfYXBwJywgJy1pbWFlJywgJ2xpZ2FuZF9wcm8ubWFlJywgJy1vbWFlJywgJ2xpZ2FuZF9wcmVwLm1hZScsICctbXMnLCAnMScsICctcGgnLCAnNycsICctcGh0JywgJzAuNScsICctbnQn

> <r_epik_Ionization_Penalty>
  0.0642

> <r_epik_Ionization_Penalty_Charging>
  0.0000

> <r_epik_Ionization_Penalty_Neutral>
  0.0642

> <r_epik_State_Penalty>
  0.0558

> <r_epik_Charging_Adjusted_Penalty>
0.0558297731723035

> <i_epik_Tot_Q>
0

> <i_epik_Tot_abs_Q>
0

> <s_epik_Chemistry_Notes>
This compound has an imine and may undergo hydrolysis.

$$$$
