3v5l_ligand
                    3D
 Schrodinger Suite 2020-3.
 54 58  0  0  1  0            999 V2000
   14.0830    8.7330    0.4150 C   0  0  0  0  0  0
   13.0540    9.1270    1.3270 O   0  0  0  0  0  0
   11.9110    8.4330    1.0720 C   0  0  0  0  0  0
   11.7370    7.1520    1.5980 C   0  0  0  0  0  0
   10.5550    6.4540    1.3510 C   0  0  0  0  0  0
   10.9080    9.0040    0.2900 C   0  0  0  0  0  0
    9.7290    8.3000    0.0350 C   0  0  0  0  0  0
    9.5660    7.0090    0.5360 C   0  0  0  0  0  0
    8.3890    6.3000    0.3150 C   0  0  0  0  0  0
    7.2280    6.5520    1.0330 C   0  0  0  0  0  0
    6.8620    7.5220    1.9710 C   0  0  0  0  0  0
    5.5670    7.5210    2.4970 C   0  0  0  0  0  0
    4.6410    6.5460    2.1050 C   0  0  3  0  0  0
    3.2120    6.5460    2.6950 C   0  0  0  0  0  0
    3.2760    6.7070    4.2180 C   0  0  0  0  0  0
    4.0250    5.5430    4.8760 C   0  0  0  0  0  0
    2.4140    7.7140    2.1080 C   0  0  0  0  0  0
    2.0640    7.4790    0.6360 C   0  0  0  0  0  0
    2.5320    5.3190    2.4010 O   0  0  0  0  0  0
    5.0230    5.5730    1.1760 C   0  0  0  0  0  0
    6.3090    5.5840    0.6330 C   0  0  0  0  0  0
    6.9070    4.7780   -0.2400 N   0  0  0  0  0  0
    8.1770    5.1410   -0.4440 C   0  0  0  0  0  0
    9.0170    4.4830   -1.3600 C   0  0  0  0  0  0
   10.2630    4.8540   -1.8620 C   0  0  0  0  0  0
   11.5770    5.9160   -1.8420 S   0  0  0  0  0  0
   12.5140    5.1070   -2.9870 C   0  0  0  0  0  0
   11.8110    4.0290   -3.3620 C   0  0  0  0  0  0
   10.6080    3.8480   -2.7710 C   0  0  0  0  0  0
    9.5780    2.9980   -2.7760 N   0  0  0  0  0  0
    8.6830    3.3640   -2.0070 N   0  0  0  0  0  0
   15.0007    9.2999    0.6305 H   0  0  0  0  0  0
   13.7582    8.9391   -0.6155 H   0  0  0  0  0  0
   14.2814    7.6570    0.5287 H   0  0  0  0  0  0
   12.5235    6.6978    2.2008 H   0  0  0  0  0  0
   10.4025    5.4708    1.7961 H   0  0  0  0  0  0
   11.0444   10.0032   -0.1238 H   0  0  0  0  0  0
    8.9365    8.7597   -0.5555 H   0  0  0  0  0  0
    7.5868    8.2832    2.2954 H   0  0  0  0  0  0
    5.2683    8.2899    3.2247 H   0  0  0  0  0  0
    3.7996    7.6420    4.4662 H   0  0  0  0  0  0
    2.2552    6.7389    4.6266 H   0  0  0  0  0  0
    4.0506    5.6926    5.9655 H   0  0  0  0  0  0
    5.0532    5.5021    4.4872 H   0  0  0  0  0  0
    3.5087    4.5989    4.6476 H   0  0  0  0  0  0
    1.4770    7.8374    2.6708 H   0  0  0  0  0  0
    3.0086    8.6367    2.1790 H   0  0  0  0  0  0
    1.4930    8.3378    0.2533 H   0  0  0  0  0  0
    1.4580    6.5656    0.5445 H   0  0  0  0  0  0
    2.9896    7.3649    0.0527 H   0  0  0  0  0  0
    2.9527    4.3616    2.7422 H   0  0  0  0  0  0
    4.3049    4.7966    0.8735 H   0  0  0  0  0  0
   13.4981    5.4026   -3.3508 H   0  0  0  0  0  0
   12.1694    3.3084   -4.1119 H   0  0  0  0  0  0
  1  2  1  0  0  0
  1 32  1  0  0  0
  1 33  1  0  0  0
  1 34  1  0  0  0
  2  3  1  0  0  0
  3  4  2  0  0  0
  3  6  1  0  0  0
  4  5  1  0  0  0
  4 35  1  0  0  0
  5  8  2  0  0  0
  5 36  1  0  0  0
  6  7  2  0  0  0
  6 37  1  0  0  0
  7  8  1  0  0  0
  7 38  1  0  0  0
  8  9  1  0  0  0
  9 10  2  0  0  0
  9 23  1  0  0  0
 10 11  1  0  0  0
 10 21  1  0  0  0
 11 12  2  0  0  0
 11 39  1  0  0  0
 12 13  1  0  0  0
 12 40  1  0  0  0
 13 14  1  0  0  0
 13 20  1  0  0  0
 14 15  1  0  0  0
 14 17  1  0  0  0
 14 19  1  0  0  0
 15 16  1  0  0  0
 15 41  1  0  0  0
 15 42  1  0  0  0
 16 43  1  0  0  0
 16 44  1  0  0  0
 16 45  1  0  0  0
 17 18  1  0  0  0
 17 46  1  0  0  0
 17 47  1  0  0  0
 18 48  1  0  0  0
 18 49  1  0  0  0
 18 50  1  0  0  0
 19 51  1  0  0  0
 20 21  2  0  0  0
 20 52  1  0  0  0
 21 22  1  0  0  0
 22 23  2  0  0  0
 23 24  1  0  0  0
 24 25  2  0  0  0
 24 31  1  0  0  0
 25 26  1  0  0  0
 25 29  1  0  0  0
 26 27  1  0  0  0
 27 28  1  0  0  0
 27 53  1  0  0  0
 28 29  2  0  0  0
 28 54  1  0  0  0
 29 30  1  0  0  0
 30 31  2  0  0  0
M  END
> <s_m_source_file>
../3v5l_ligand.sdf

> <i_m_source_file_index>
1

> <s_epik_input>
W0NIM11PYzFbY0hdW2NIXWMoW2NIXVtjSF0xKUM9MkMoQz0zTj1OQyhDMzQpPVtDSF1bQ0gyXVM0KT1OQyhDMjUpPVtDSF1bQ0hdKFtDSF09W0NIXTUpQyhbT0hdKShbQ0gyXVtDSDNdKVtDSDJdW0NIM10=

> <s_epik_cmdline>
J2VwaWtfYXBwJywgJy1pbWFlJywgJ2xpZ2FuZF9wcm8ubWFlJywgJy1vbWFlJywgJ2xpZ2FuZF9wcmVwLm1hZScsICctbXMnLCAnMScsICctcGgnLCAnNycsICctcGh0JywgJzAuNScsICctbnQn

> <r_lp_tautomer_probability>
1

> <r_epik_Ionization_Penalty>
  0.0005

> <r_epik_Ionization_Penalty_Charging>
  0.0000

> <r_epik_Ionization_Penalty_Neutral>
  0.0005

> <r_epik_State_Penalty>
 -0.0000

> <r_epik_Charging_Adjusted_Penalty>
0

> <i_epik_Tot_Q>
0

> <i_epik_Tot_abs_Q>
0

> <s_epik_Chemistry_Notes>
This compound has an imine and may undergo hydrolysis.

$$$$
