3v5p_ligand
                    3D
 Schrodinger Suite 2020-3.
 51 54  0  0  1  0            999 V2000
   28.8170   17.4320   29.3050 C   0  0  0  0  0  0
   29.3390   17.8460   27.9220 C   0  0  0  0  0  0
   28.2270   18.4280   27.1630 N   0  3  0  0  0  0
   27.2200   17.3860   26.8920 C   0  0  0  0  0  0
   26.6140   16.8700   28.2150 C   0  0  0  0  0  0
   27.6810   16.3910   29.2170 C   0  0  0  0  0  0
   27.0480   16.2670   30.6130 C   0  0  0  0  0  0
   26.0680   15.1710   30.8450 N   0  0  0  0  0  0
   24.8900   15.3960   31.1450 N   0  0  0  0  0  0
   26.3310   13.8590   30.8490 C   0  0  0  0  0  0
   27.4440   13.1320   30.6170 N   0  0  0  0  0  0
   27.4040   11.8080   30.6710 C   0  0  0  0  0  0
   26.2830   11.1540   30.9690 N   0  0  0  0  0  0
   25.1430   11.8160   31.2340 C   0  0  0  0  0  0
   24.0470   11.1180   31.5280 N   0  0  0  0  0  0
   25.1400   13.2140   31.1810 C   0  0  0  0  0  0
   24.2190   14.2550   31.3450 C   0  0  0  0  0  0
   22.8770   14.1980   31.7330 C   0  0  0  0  0  0
   22.5120   13.4630   32.8740 C   0  0  0  0  0  0
   21.1890   13.4510   33.3250 C   0  0  0  0  0  0
   20.7840   12.6150   34.5330 C   0  0  0  0  0  0
   20.2240   14.2000   32.6570 C   0  0  0  0  0  0
   18.9570   14.1460   33.1180 O   0  0  0  0  0  0
   18.0010   15.0350   32.5030 C   0  0  0  0  0  0
   20.5790   14.9610   31.5310 C   0  0  0  0  0  0
   21.9040   14.9700   31.0890 C   0  0  0  0  0  0
   29.6377   16.9908   29.8897 H   0  0  0  0  0  0
   28.4273   18.3167   29.8298 H   0  0  0  0  0  0
   30.1428   18.5875   28.0404 H   0  0  0  0  0  0
   29.7303   16.9616   27.3979 H   0  0  0  0  0  0
   27.7682   19.2386   27.7482 H   0  0  0  0  0  0
   28.6038   18.8308   26.2113 H   0  0  0  0  0  0
   26.4168   17.8057   26.2686 H   0  0  0  0  0  0
   27.6943   16.5465   26.3626 H   0  0  0  0  0  0
   26.0418   17.6772   28.6956 H   0  0  0  0  0  0
   25.9461   16.0214   28.0060 H   0  0  0  0  0  0
   28.0734   15.4197   28.8816 H   0  0  0  0  0  0
   27.8382   16.1046   31.3608 H   0  0  0  0  0  0
   26.5020   17.1916   30.8515 H   0  0  0  0  0  0
   28.3117   11.2404   30.4663 H   0  0  0  0  0  0
   24.0869   10.0192   31.5605 H   0  0  0  0  0  0
   23.1021   11.6405   31.7383 H   0  0  0  0  0  0
   23.2699   12.8953   33.4139 H   0  0  0  0  0  0
   21.6673   12.0942   34.9312 H   0  0  0  0  0  0
   20.0279   11.8756   34.2303 H   0  0  0  0  0  0
   20.3645   13.2717   35.3094 H   0  0  0  0  0  0
   17.0145   14.8908   32.9677 H   0  0  0  0  0  0
   17.9352   14.8152   31.4272 H   0  0  0  0  0  0
   18.3246   16.0766   32.6453 H   0  0  0  0  0  0
   19.8229   15.5427   31.0038 H   0  0  0  0  0  0
   22.1829   15.5850   30.2333 H   0  0  0  0  0  0
  1  2  1  0  0  0
  1  6  1  0  0  0
  1 27  1  0  0  0
  1 28  1  0  0  0
  2  3  1  0  0  0
  2 29  1  0  0  0
  2 30  1  0  0  0
  3  4  1  0  0  0
  3 31  1  0  0  0
  3 32  1  0  0  0
  4  5  1  0  0  0
  4 33  1  0  0  0
  4 34  1  0  0  0
  5  6  1  0  0  0
  5 35  1  0  0  0
  5 36  1  0  0  0
  6  7  1  0  0  0
  6 37  1  0  0  0
  7  8  1  0  0  0
  7 38  1  0  0  0
  7 39  1  0  0  0
  8  9  1  0  0  0
  8 10  1  0  0  0
  9 17  2  0  0  0
 10 11  1  0  0  0
 10 16  2  0  0  0
 11 12  2  0  0  0
 12 13  1  0  0  0
 12 40  1  0  0  0
 13 14  2  0  0  0
 14 15  1  0  0  0
 14 16  1  0  0  0
 15 41  1  0  0  0
 15 42  1  0  0  0
 16 17  1  0  0  0
 17 18  1  0  0  0
 18 19  2  0  0  0
 18 26  1  0  0  0
 19 20  1  0  0  0
 19 43  1  0  0  0
 20 21  1  0  0  0
 20 22  2  0  0  0
 21 44  1  0  0  0
 21 45  1  0  0  0
 21 46  1  0  0  0
 22 23  1  0  0  0
 22 25  1  0  0  0
 23 24  1  0  0  0
 24 47  1  0  0  0
 24 48  1  0  0  0
 24 49  1  0  0  0
 25 26  2  0  0  0
 25 50  1  0  0  0
 26 51  1  0  0  0
M  CHG  1   3   1
M  END
> <s_m_source_file>
../3v5p_ligand.sdf

> <i_m_source_file_index>
1

> <s_epik_input>
W0NIMl0xW0NIMl1bTkgyK11bQ0gyXVtDSDJdW0NIXTFbQ0gyXW4ybmMoYyhjMjMpYyhbTkgyXSluW2NIXW4zKS1jNFtjSF1jKFtDSDNdKWMoT1tDSDNdKVtjSF1bY0hdNA==

> <s_epik_cmdline>
J2VwaWtfYXBwJywgJy1pbWFlJywgJ2xpZ2FuZF9wcm8ubWFlJywgJy1vbWFlJywgJ2xpZ2FuZF9wcmVwLm1hZScsICctbXMnLCAnMScsICctcGgnLCAnNycsICctcGh0JywgJzAuNScsICctbnQn

> <r_lp_tautomer_probability>
1

> <r_epik_Ionization_Penalty>
  0.0017

> <r_epik_Ionization_Penalty_Charging>
  0.0004

> <r_epik_Ionization_Penalty_Neutral>
  0.0013

> <r_epik_State_Penalty>
 -0.0000

> <r_epik_Charging_Adjusted_Penalty>
0.000433073767326883

> <i_epik_Tot_Q>
1

> <i_epik_Tot_abs_Q>
1

$$$$
