3v5q_ligand
                    3D
 Schrodinger Suite 2020-3.
 56 60  0  0  1  0            999 V2000
  -10.8120  -29.0820   -7.1700 F   0  0  0  0  0  0
  -10.0890  -28.7650   -8.2220 C   0  0  0  0  0  0
  -10.7060  -29.2650   -9.2730 F   0  0  0  0  0  0
   -9.9880  -27.4460   -8.2950 F   0  0  0  0  0  0
   -8.7000  -29.3340   -8.1270 C   0  0  0  0  0  0
   -8.1130  -29.5920   -6.8950 C   0  0  0  0  0  0
   -6.8230  -30.1190   -6.8290 C   0  0  0  0  0  0
   -6.1200  -30.3990   -7.9940 C   0  0  0  0  0  0
   -6.7040  -30.1530   -9.2280 C   0  0  0  0  0  0
   -5.9710  -30.4380  -10.3350 N   0  0  0  0  0  0
   -6.1990  -30.0320  -11.5910 C   0  0  0  0  0  0
   -7.1440  -29.3370  -11.9230 O   0  0  0  0  0  0
   -5.3150  -30.4760  -12.4820 N   0  0  0  0  0  0
   -5.3310  -30.1820  -13.8020 C   0  0  0  0  0  0
   -4.1430  -29.7340  -14.3740 C   0  0  0  0  0  0
   -4.0850  -29.4410  -15.7340 C   0  0  0  0  0  0
   -5.2220  -29.6150  -16.5150 C   0  0  0  0  0  0
   -6.4270  -30.0620  -15.9570 C   0  0  0  0  0  0
   -7.5770  -30.2470  -16.6760 N   0  0  0  0  0  0
   -8.0000  -29.6010  -17.8040 C   0  0  0  0  0  0
   -7.3770  -28.4580  -18.3280 C   0  0  0  0  0  0
   -7.8480  -27.8440  -19.4880 C   0  0  0  0  0  0
   -8.9550  -28.4020  -20.1060 C   0  0  0  0  0  0
   -9.6080  -29.5480  -19.6210 C   0  0  0  0  0  0
  -10.6760  -29.8780  -20.4130 N   0  0  0  0  0  0
  -10.7490  -28.9960  -21.4130 C   0  0  0  0  0  0
  -11.6360  -29.0290  -22.3420 O   0  0  0  0  0  0
   -9.6790  -28.0050  -21.3210 C   0  0  0  0  0  0
   -9.2930  -26.8210  -22.1360 C   0  0  0  0  0  0
  -10.0340  -26.4400  -23.3660 C   0  0  0  0  0  0
   -9.6760  -25.3470  -24.1440 C   0  0  0  0  0  0
  -10.6210  -25.3430  -25.1610 C   0  0  0  0  0  0
  -11.4750  -26.4190  -24.9330 C   0  0  0  0  0  0
  -11.1050  -27.1020  -23.8070 N   0  0  0  0  0  0
   -9.1200  -30.1290  -18.4490 C   0  0  0  0  0  0
   -6.4620  -30.3550  -14.5960 C   0  0  0  0  0  0
   -7.9990  -29.6220   -9.2880 C   0  0  0  0  0  0
   -8.6619  -29.3821   -5.9770 H   0  0  0  0  0  0
   -6.3647  -30.3119   -5.8590 H   0  0  0  0  0  0
   -5.1123  -30.8108   -7.9386 H   0  0  0  0  0  0
   -5.0750  -31.0709  -10.2534 H   0  0  0  0  0  0
   -4.4940  -31.1341  -12.1613 H   0  0  0  0  0  0
   -3.2546  -29.6122  -13.7543 H   0  0  0  0  0  0
   -3.1590  -29.0794  -16.1811 H   0  0  0  0  0  0
   -5.1751  -29.3994  -17.5824 H   0  0  0  0  0  0
   -8.3082  -31.0051  -16.3586 H   0  0  0  0  0  0
   -6.5079  -28.0420  -17.8183 H   0  0  0  0  0  0
   -7.3624  -26.9566  -19.8940 H   0  0  0  0  0  0
  -11.2976  -30.7503  -20.1627 H   0  0  0  0  0  0
   -8.4372  -26.1999  -21.8328 H   0  0  0  0  0  0
   -8.8067  -24.7338  -23.8641 H   0  0  0  0  0  0
  -10.6829  -24.6309  -25.9839 H   0  0  0  0  0  0
  -12.3464  -26.7512  -25.5164 H   0  0  0  0  0  0
   -9.6189  -31.0043  -18.0330 H   0  0  0  0  0  0
   -7.3845  -30.7237  -14.1474 H   0  0  0  0  0  0
   -8.4602  -29.4333  -10.2574 H   0  0  0  0  0  0
  1  2  1  0  0  0
  2  3  1  0  0  0
  2  4  1  0  0  0
  2  5  1  0  0  0
  5  6  2  0  0  0
  5 37  1  0  0  0
  6  7  1  0  0  0
  6 38  1  0  0  0
  7  8  2  0  0  0
  7 39  1  0  0  0
  8  9  1  0  0  0
  8 40  1  0  0  0
  9 10  1  0  0  0
  9 37  2  0  0  0
 10 11  1  0  0  0
 10 41  1  0  0  0
 11 12  2  0  0  0
 11 13  1  0  0  0
 13 14  1  0  0  0
 13 42  1  0  0  0
 14 15  2  0  0  0
 14 36  1  0  0  0
 15 16  1  0  0  0
 15 43  1  0  0  0
 16 17  2  0  0  0
 16 44  1  0  0  0
 17 18  1  0  0  0
 17 45  1  0  0  0
 18 19  1  0  0  0
 18 36  2  0  0  0
 19 20  1  0  0  0
 19 46  1  0  0  0
 20 21  2  0  0  0
 20 35  1  0  0  0
 21 22  1  0  0  0
 21 47  1  0  0  0
 22 23  2  0  0  0
 22 48  1  0  0  0
 23 24  1  0  0  0
 23 28  1  0  0  0
 24 25  1  0  0  0
 24 35  2  0  0  0
 25 26  1  0  0  0
 25 49  1  0  0  0
 26 27  2  0  0  0
 26 28  1  0  0  0
 28 29  2  0  0  0
 29 30  1  0  0  0
 29 50  1  0  0  0
 30 31  2  0  0  0
 30 34  1  0  0  0
 31 32  1  0  0  0
 31 51  1  0  0  0
 32 33  1  0  0  0
 32 52  1  0  0  0
 33 34  2  0  0  0
 33 53  1  0  0  0
 35 54  1  0  0  0
 36 55  1  0  0  0
 37 56  1  0  0  0
M  END
> <s_m_source_file>
../3v5q_ligand.sdf

> <i_m_source_file_index>
1

> <s_epik_input>
RkMoRikoRiljMVtjSF1bY0hdW2NIXWMoW2NIXTEpW05IXUMoPU8pW05IXWMyW2NIXVtjSF1bY0hdYyhbY0hdMilbTkhdYyhbY0hdW2NIXTMpW2NIXWMoYzM0KVtOSF1DKD1PKUNcND1bQ0hdL0M1PVtDSF1bQ0gyXVtDSF09TjU=

> <s_epik_cmdline>
J2VwaWtfYXBwJywgJy1pbWFlJywgJ2xpZ2FuZF9wcm8ubWFlJywgJy1vbWFlJywgJ2xpZ2FuZF9wcmVwLm1hZScsICctbXMnLCAnMScsICctcGgnLCAnNycsICctcGh0JywgJzAuNScsICctbnQn

> <r_lp_tautomer_probability>
1

> <r_epik_Ionization_Penalty>
  0.0000

> <r_epik_Ionization_Penalty_Charging>
  0.0000

> <r_epik_Ionization_Penalty_Neutral>
  0.0000

> <r_epik_State_Penalty>
 -0.0000

> <r_epik_Charging_Adjusted_Penalty>
0

> <i_epik_Tot_Q>
0

> <i_epik_Tot_abs_Q>
0

> <s_epik_Chemistry_Notes>
This compound has an imine and may undergo hydrolysis.

$$$$
