3v66_ligand
                    3D
 Schrodinger Suite 2020-3.
 68 72  0  0  1  0            999 V2000
   21.8720   -2.1330   53.0910 C   0  0  0  0  0  0
   20.5930   -1.4920   52.8580 O   0  0  0  0  0  0
   20.3380   -0.2750   53.4560 C   0  0  0  0  0  0
   20.9950    0.9090   53.0810 C   0  0  0  0  0  0
   21.9090    0.7880   52.0390 O   0  0  0  0  0  0
   22.6030    1.9300   51.5030 C   0  0  0  0  0  0
   20.6550    2.1270   53.7100 C   0  0  0  0  0  0
   19.7170    2.1660   54.7330 C   0  0  0  0  0  0
   19.0780    0.9910   55.1100 C   0  0  0  0  0  0
   19.3970   -0.2230   54.4790 C   0  0  0  0  0  0
   18.6810   -1.4890   54.9610 C   0  0  2  0  0  0
   17.4260   -1.9000   54.1900 C   0  0  0  0  0  0
   18.3420   -1.4210   56.3810 O   0  0  0  0  0  0
   17.6050   -2.5030   56.9970 C   0  0  1  0  0  0
   17.9650   -3.8720   56.3740 C   0  0  0  0  0  0
   18.6620   -4.9580   56.8990 C   0  0  0  0  0  0
   18.7390   -5.9110   55.9120 C   0  0  0  0  0  0
   18.1040   -5.4160   54.7630 C   0  0  0  0  0  0
   17.6340   -4.1350   55.0220 N   0  0  0  0  0  0
   16.9620   -3.2470   54.2810 C   0  0  0  0  0  0
   15.8000   -3.5740   53.5210 C   0  0  0  0  0  0
   15.1670   -2.6030   52.7670 C   0  0  0  0  0  0
   15.6380   -1.3020   52.6960 C   0  0  0  0  0  0
   16.7640   -0.9220   53.4000 C   0  0  0  0  0  0
   14.7780   -0.1290   51.7330 Cl  0  0  0  0  0  0
   17.7820   -2.2220   58.5160 C   0  0  0  0  0  0
   16.4850   -2.4580   59.3080 C   0  0  0  0  0  0
   15.4810   -2.8610   58.6750 O   0  0  0  0  0  0
   16.4370   -2.2480   60.6450 N   0  0  0  0  0  0
   15.1130   -2.2500   61.3600 C   0  0  0  0  0  0
   14.8050   -0.8850   62.0180 C   0  0  0  0  0  0
   16.0200   -0.1600   62.6730 C   0  0  0  0  0  0
   17.3090   -0.2100   61.8080 C   0  0  0  0  0  0
   17.6340   -1.6380   61.3480 C   0  0  0  0  0  0
   15.6780    1.2980   63.0700 C   0  0  0  0  0  0
   14.5610    1.4340   64.0850 C   0  0  0  0  0  0
   14.5690    0.6630   65.0570 O   0  0  0  0  0  0
   13.6810    2.2960   63.8900 O   0  5  0  0  0  0
   21.9091   -3.0868   52.5444 H   0  0  0  0  0  0
   21.9966   -2.3222   54.1674 H   0  0  0  0  0  0
   22.6809   -1.4764   52.7380 H   0  0  0  0  0  0
   23.2715    1.6054   50.6920 H   0  0  0  0  0  0
   23.1955    2.4055   52.2985 H   0  0  0  0  0  0
   21.8721    2.6515   51.1090 H   0  0  0  0  0  0
   21.1362    3.0503   53.3875 H   0  0  0  0  0  0
   19.4849    3.1059   55.2338 H   0  0  0  0  0  0
   18.3260    1.0113   55.8988 H   0  0  0  0  0  0
   19.4327   -2.2792   54.8180 H   0  0  0  0  0  0
   16.5307   -2.4979   56.7609 H   0  0  0  0  0  0
   19.0707   -5.0371   57.9064 H   0  0  0  0  0  0
   19.2138   -6.8877   56.0060 H   0  0  0  0  0  0
   17.9968   -5.9506   53.8192 H   0  0  0  0  0  0
   15.4101   -4.5918   53.5347 H   0  0  0  0  0  0
   14.2685   -2.8697   52.2106 H   0  0  0  0  0  0
   17.1351    0.1017   53.3508 H   0  0  0  0  0  0
   18.5565   -2.8880   58.9243 H   0  0  0  0  0  0
   18.0848   -1.1747   58.6623 H   0  0  0  0  0  0
   14.3094   -2.4736   60.6429 H   0  0  0  0  0  0
   15.1237   -3.0160   62.1493 H   0  0  0  0  0  0
   14.4061   -0.1944   61.2604 H   0  0  0  0  0  0
   14.0612   -1.0224   62.8167 H   0  0  0  0  0  0
   16.2398   -0.7201   63.5939 H   0  0  0  0  0  0
   17.1757    0.4179   60.9147 H   0  0  0  0  0  0
   18.1599    0.1647   62.3959 H   0  0  0  0  0  0
   17.8940   -2.2481   62.2256 H   0  0  0  0  0  0
   18.4889   -1.6073   60.6565 H   0  0  0  0  0  0
   16.5659    1.7763   63.5092 H   0  0  0  0  0  0
   15.3645    1.8575   62.1763 H   0  0  0  0  0  0
  1  2  1  0  0  0
  1 39  1  0  0  0
  1 40  1  0  0  0
  1 41  1  0  0  0
  2  3  1  0  0  0
  3  4  2  0  0  0
  3 10  1  0  0  0
  4  5  1  0  0  0
  4  7  1  0  0  0
  5  6  1  0  0  0
  6 42  1  0  0  0
  6 43  1  0  0  0
  6 44  1  0  0  0
  7  8  2  0  0  0
  7 45  1  0  0  0
  8  9  1  0  0  0
  8 46  1  0  0  0
  9 10  2  0  0  0
  9 47  1  0  0  0
 10 11  1  0  0  0
 11 12  1  0  0  0
 11 13  1  0  0  0
 11 48  1  0  0  0
 12 20  2  0  0  0
 12 24  1  0  0  0
 13 14  1  0  0  0
 14 15  1  0  0  0
 14 26  1  0  0  0
 14 49  1  0  0  0
 15 16  2  0  0  0
 15 19  1  0  0  0
 16 17  1  0  0  0
 16 50  1  0  0  0
 17 18  2  0  0  0
 17 51  1  0  0  0
 18 19  1  0  0  0
 18 52  1  0  0  0
 19 20  1  0  0  0
 20 21  1  0  0  0
 21 22  2  0  0  0
 21 53  1  0  0  0
 22 23  1  0  0  0
 22 54  1  0  0  0
 23 24  2  0  0  0
 23 25  1  0  0  0
 24 55  1  0  0  0
 26 27  1  0  0  0
 26 56  1  0  0  0
 26 57  1  0  0  0
 27 28  2  0  0  0
 27 29  1  0  0  0
 29 30  1  0  0  0
 29 34  1  0  0  0
 30 31  1  0  0  0
 30 58  1  0  0  0
 30 59  1  0  0  0
 31 32  1  0  0  0
 31 60  1  0  0  0
 31 61  1  0  0  0
 32 33  1  0  0  0
 32 35  1  0  0  0
 32 62  1  0  0  0
 33 34  1  0  0  0
 33 63  1  0  0  0
 33 64  1  0  0  0
 34 65  1  0  0  0
 34 66  1  0  0  0
 35 36  1  0  0  0
 35 67  1  0  0  0
 35 68  1  0  0  0
 36 37  2  0  0  0
 36 38  1  0  0  0
M  CHG  1  38  -1
M  END
> <s_m_source_file>
../3v66_ligand.sdf

> <i_m_source_file_index>
1

> <s_epik_input>
W0NIM11PYzFjKE9bQ0gzXSlbY0hdW2NIXVtjSF1jMVtDQEhdMk9bQ0BASF0oYyhbY0hdW2NIXVtjSF0zKW4zYyhjMjQpW2NIXVtjSF1jKENsKVtjSF00KVtDSDJdQyg9TylONVtDSDJdW0NIMl1bQ0hdKFtDSDJdW0NIMl01KVtDSDJdQyg9TylbT0hd

> <s_epik_cmdline>
J2VwaWtfYXBwJywgJy1pbWFlJywgJ2xpZ2FuZF9wcm8ubWFlJywgJy1vbWFlJywgJ2xpZ2FuZF9wcmVwLm1hZScsICctbXMnLCAnMScsICctcGgnLCAnNycsICctcGh0JywgJzAuNScsICctbnQn

> <r_lp_tautomer_probability>
1

> <r_epik_Ionization_Penalty>
  0.0038

> <r_epik_Ionization_Penalty_Charging>
  0.0038

> <r_epik_Ionization_Penalty_Neutral>
  0.0000

> <r_epik_State_Penalty>
 -0.0000

> <r_epik_Charging_Adjusted_Penalty>
0.00378793802925999

> <i_epik_Tot_Q>
-1

> <i_epik_Tot_abs_Q>
1

$$$$
