3v6s_ligand
                    3D
 Schrodinger Suite 2020-3.
 67 70  0  0  1  0            999 V2000
   20.7290  -17.6200  -27.1640 C   0  0  0  0  0  0
   20.2950  -18.8880  -27.0960 N   0  0  0  0  0  0
   19.1150  -19.1420  -26.5370 C   0  0  0  0  0  0
   18.3370  -18.0930  -26.0260 C   0  0  0  0  0  0
   18.7620  -16.7630  -26.0900 C   0  0  0  0  0  0
   19.9910  -16.5300  -26.6800 C   0  0  0  0  0  0
   20.5490  -15.1550  -26.7280 C   0  0  0  0  0  0
   21.7540  -14.9480  -27.3050 N   0  0  0  0  0  0
   19.8960  -14.0940  -26.1200 C   0  0  0  0  0  0
   20.5140  -12.8430  -26.1590 C   0  0  0  0  0  0
   21.7000  -12.6820  -26.7730 N   0  0  0  0  0  0
   22.3580  -13.7350  -27.3220 C   0  0  0  0  0  0
   23.6200  -13.5260  -27.9420 N   0  0  0  0  0  0
   24.3470  -14.7170  -28.2640 C   0  0  0  0  0  0
   25.4930  -14.7240  -29.0730 C   0  0  0  0  0  0
   26.1750  -15.9310  -29.3510 C   0  0  0  0  0  0
   23.9560  -15.9420  -27.7000 C   0  0  0  0  0  0
   24.6040  -17.1360  -27.9850 C   0  0  0  0  0  0
   25.6950  -17.1450  -28.8380 C   0  0  0  0  0  0
   26.3570  -18.3800  -28.9700 N   0  0  0  0  0  0
   27.0730  -18.5870  -30.1150 C   0  0  0  0  0  0
   26.7620  -18.0890  -31.1860 O   0  0  0  0  0  0
   28.2430  -19.5100  -29.9940 C   0  0  0  0  0  0
   29.4630  -19.1840  -30.5890 C   0  0  0  0  0  0
   30.5690  -20.0180  -30.4410 C   0  0  0  0  0  0
   30.4260  -21.2050  -29.7260 C   0  0  0  0  0  0
   29.2160  -21.5290  -29.0910 C   0  0  0  0  0  0
   28.1310  -20.6670  -29.2290 C   0  0  0  0  0  0
   28.9960  -22.7160  -28.3380 N   0  0  0  0  0  0
   30.0460  -23.3240  -27.6920 C   0  0  0  0  0  0
   31.2230  -23.0370  -27.8990 O   0  0  0  0  0  0
   29.6630  -24.3870  -26.6960 C   0  0  0  0  0  0
   30.8330  -24.7070  -25.7850 C   0  0  0  0  0  0
   30.4350  -25.9030  -24.9330 C   0  0  0  0  0  0
   31.1620  -25.9010  -23.6570 N   0  3  0  0  0  0
   30.1940  -26.0290  -22.5630 C   0  0  0  0  0  0
   32.1450  -26.9860  -23.6240 C   0  0  0  0  0  0
   21.7016  -17.4280  -27.6171 H   0  0  0  0  0  0
   18.7519  -20.1679  -26.4760 H   0  0  0  0  0  0
   17.3752  -18.3210  -25.5666 H   0  0  0  0  0  0
   18.1545  -15.9491  -25.6942 H   0  0  0  0  0  0
   18.9330  -14.2319  -25.6284 H   0  0  0  0  0  0
   20.0305  -11.9877  -25.6870 H   0  0  0  0  0  0
   23.9724  -12.5031  -28.1410 H   0  0  0  0  0  0
   25.8621  -13.7880  -29.4922 H   0  0  0  0  0  0
   27.0754  -15.9180  -29.9651 H   0  0  0  0  0  0
   23.1109  -15.9559  -27.0117 H   0  0  0  0  0  0
   24.2542  -18.0663  -27.5375 H   0  0  0  0  0  0
   26.2850  -19.1310  -28.1695 H   0  0  0  0  0  0
   29.5510  -18.2689  -31.1745 H   0  0  0  0  0  0
   31.5302  -19.7463  -30.8774 H   0  0  0  0  0  0
   31.2678  -21.8942  -29.6582 H   0  0  0  0  0  0
   27.1879  -20.9001  -28.7346 H   0  0  0  0  0  0
   27.9860  -23.1468  -28.2730 H   0  0  0  0  0  0
   28.8210  -24.0303  -26.0846 H   0  0  0  0  0  0
   29.3662  -25.3011  -27.2312 H   0  0  0  0  0  0
   31.7172  -24.9461  -26.3941 H   0  0  0  0  0  0
   31.0507  -23.8368  -25.1483 H   0  0  0  0  0  0
   29.3555  -25.8624  -24.7255 H   0  0  0  0  0  0
   30.6699  -26.8322  -25.4728 H   0  0  0  0  0  0
   31.7151  -24.9572  -23.5413 H   0  0  0  0  0  0
   29.4708  -25.2017  -22.6146 H   0  0  0  0  0  0
   30.7231  -25.9939  -21.5993 H   0  0  0  0  0  0
   29.6619  -26.9874  -22.6545 H   0  0  0  0  0  0
   32.8554  -26.8625  -24.4547 H   0  0  0  0  0  0
   31.6284  -27.9520  -23.7239 H   0  0  0  0  0  0
   32.6896  -26.9584  -22.6686 H   0  0  0  0  0  0
  1  2  2  0  0  0
  1  6  1  0  0  0
  1 38  1  0  0  0
  2  3  1  0  0  0
  3  4  2  0  0  0
  3 39  1  0  0  0
  4  5  1  0  0  0
  4 40  1  0  0  0
  5  6  2  0  0  0
  5 41  1  0  0  0
  6  7  1  0  0  0
  7  8  2  0  0  0
  7  9  1  0  0  0
  8 12  1  0  0  0
  9 10  2  0  0  0
  9 42  1  0  0  0
 10 11  1  0  0  0
 10 43  1  0  0  0
 11 12  2  0  0  0
 12 13  1  0  0  0
 13 14  1  0  0  0
 13 44  1  0  0  0
 14 15  2  0  0  0
 14 17  1  0  0  0
 15 16  1  0  0  0
 15 45  1  0  0  0
 16 19  2  0  0  0
 16 46  1  0  0  0
 17 18  2  0  0  0
 17 47  1  0  0  0
 18 19  1  0  0  0
 18 48  1  0  0  0
 19 20  1  0  0  0
 20 21  1  0  0  0
 20 49  1  0  0  0
 21 22  2  0  0  0
 21 23  1  0  0  0
 23 24  2  0  0  0
 23 28  1  0  0  0
 24 25  1  0  0  0
 24 50  1  0  0  0
 25 26  2  0  0  0
 25 51  1  0  0  0
 26 27  1  0  0  0
 26 52  1  0  0  0
 27 28  2  0  0  0
 27 29  1  0  0  0
 28 53  1  0  0  0
 29 30  1  0  0  0
 29 54  1  0  0  0
 30 31  2  0  0  0
 30 32  1  0  0  0
 32 33  1  0  0  0
 32 55  1  0  0  0
 32 56  1  0  0  0
 33 34  1  0  0  0
 33 57  1  0  0  0
 33 58  1  0  0  0
 34 35  1  0  0  0
 34 59  1  0  0  0
 34 60  1  0  0  0
 35 36  1  0  0  0
 35 37  1  0  0  0
 35 61  1  0  0  0
 36 62  1  0  0  0
 36 63  1  0  0  0
 36 64  1  0  0  0
 37 65  1  0  0  0
 37 66  1  0  0  0
 37 67  1  0  0  0
M  CHG  1  35   1
M  END
> <s_m_source_file>
../3v6s_ligand.sdf

> <i_m_source_file_index>
1

> <s_epik_input>
W2NIXTFbY0hdW2NIXW5bY0hdYzEtYzJuYyhuW2NIXVtjSF0yKVtOSF1jM1tjSF1bY0hdYyhbY0hdW2NIXTMpW05IXUMoPU8pYzRbY0hdW2NIXVtjSF1jKFtjSF00KVtOSF1DKD1PKVtDSDJdW0NIMl1bQ0gyXVtOSCtdKFtDSDNdKVtDSDNd

> <s_epik_cmdline>
J2VwaWtfYXBwJywgJy1pbWFlJywgJ2xpZ2FuZF9wcm8ubWFlJywgJy1vbWFlJywgJ2xpZ2FuZF9wcmVwLm1hZScsICctbXMnLCAnMScsICctcGgnLCAnNycsICctcGh0JywgJzAuNScsICctbnQn

> <r_lp_tautomer_probability>
1

> <r_epik_Ionization_Penalty>
  0.0036

> <r_epik_Ionization_Penalty_Charging>
  0.0030

> <r_epik_Ionization_Penalty_Neutral>
  0.0006

> <r_epik_State_Penalty>
 -0.0000

> <r_epik_Charging_Adjusted_Penalty>
0.00303718406299064

> <i_epik_Tot_Q>
1

> <i_epik_Tot_abs_Q>
1

$$$$
