3v78_ligand
                    3D
 Schrodinger Suite 2020-3.
 45 48  0  0  1  0            999 V2000
  -31.3840  -13.5770   -0.9690 C   0  0  0  0  0  0
  -32.1580  -14.7000   -0.6820 C   0  0  0  0  0  0
  -33.2870  -14.5940    0.1410 C   0  0  0  0  0  0
  -33.6440  -13.3610    0.6860 C   0  0  0  0  0  0
  -33.1930  -10.9760    0.9450 N   0  0  0  0  0  0
  -32.4600   -9.8680    0.7000 C   0  0  1  0  0  0
  -30.5500   -8.7530   -0.4050 C   0  0  0  0  0  0
  -29.4140   -8.7960   -1.2200 C   0  0  0  0  0  0
  -29.0150  -10.0200   -1.7920 C   0  0  0  0  0  0
  -29.7570  -11.1790   -1.5440 C   0  0  0  0  0  0
  -31.3010   -9.9340   -0.1530 C   0  0  0  0  0  0
  -30.9110  -11.1320   -0.7170 C   0  0  0  0  0  0
  -31.7350  -12.3190   -0.4140 C   0  0  0  0  0  0
  -32.8430  -12.2090    0.3990 C   0  0  0  0  0  0
  -32.8790   -8.5470    1.2410 C   0  0  0  0  0  0
  -34.0070   -7.9970    0.6220 C   0  0  0  0  0  0
  -34.4970   -6.7530    1.0210 C   0  0  0  0  0  0
  -33.8430   -6.0570    2.0360 C   0  0  0  0  0  0
  -32.6990   -6.6140    2.6180 C   0  0  0  0  0  0
  -32.2040   -7.8530    2.2410 C   0  0  0  0  0  0
  -34.3570  -10.8850    1.7880 C   0  0  0  0  0  0
  -35.7110  -10.8620    1.1630 C   0  0  0  0  0  0
  -34.0650  -15.7670    0.4140 N   0  0  0  0  0  0
  -28.6640   -7.5920   -1.4580 N   0  0  0  0  0  0
  -30.5122  -13.6647   -1.6174 H   0  0  0  0  0  0
  -31.8830  -15.6680   -1.1009 H   0  0  0  0  0  0
  -34.5237  -13.2749    1.3239 H   0  0  0  0  0  0
  -32.5076  -10.8680    1.1558 H   0  0  0  0  0  0
  -30.8617   -7.8080    0.0399 H   0  0  0  0  0  0
  -28.1298  -10.0635   -2.4265 H   0  0  0  0  0  0
  -29.4477  -12.1251   -1.9883 H   0  0  0  0  0  0
  -34.5064   -8.5442   -0.1775 H   0  0  0  0  0  0
  -35.3814   -6.3303    0.5442 H   0  0  0  0  0  0
  -34.2182   -5.0905    2.3724 H   0  0  0  0  0  0
  -32.1786   -6.0542    3.3951 H   0  0  0  0  0  0
  -31.3144   -8.2704    2.7128 H   0  0  0  0  0  0
  -34.3853  -11.7488    2.4684 H   0  0  0  0  0  0
  -34.3122   -9.9564    2.3760 H   0  0  0  0  0  0
  -36.4767  -10.7902    1.9495 H   0  0  0  0  0  0
  -35.8640  -11.7857    0.5855 H   0  0  0  0  0  0
  -35.7909   -9.9932    0.4930 H   0  0  0  0  0  0
  -33.7734  -16.7341   -0.0216 H   0  0  0  0  0  0
  -34.9535  -15.6999    1.0591 H   0  0  0  0  0  0
  -28.9878   -6.6436   -1.0045 H   0  0  0  0  0  0
  -27.7666   -7.6196   -2.0935 H   0  0  0  0  0  0
  1  2  2  0  0  0
  1 13  1  0  0  0
  1 25  1  0  0  0
  2  3  1  0  0  0
  2 26  1  0  0  0
  3  4  2  0  0  0
  3 23  1  0  0  0
  4 14  1  0  0  0
  4 27  1  0  0  0
  5  6  1  0  0  0
  5 14  1  0  0  0
  5 21  1  0  0  0
  6 11  1  0  0  0
  6 15  1  0  0  0
  6 28  1  0  0  0
  7  8  2  0  0  0
  7 11  1  0  0  0
  7 29  1  0  0  0
  8  9  1  0  0  0
  8 24  1  0  0  0
  9 10  2  0  0  0
  9 30  1  0  0  0
 10 12  1  0  0  0
 10 31  1  0  0  0
 11 12  2  0  0  0
 12 13  1  0  0  0
 13 14  2  0  0  0
 15 16  2  0  0  0
 15 20  1  0  0  0
 16 17  1  0  0  0
 16 32  1  0  0  0
 17 18  2  0  0  0
 17 33  1  0  0  0
 18 19  1  0  0  0
 18 34  1  0  0  0
 19 20  2  0  0  0
 19 35  1  0  0  0
 20 36  1  0  0  0
 21 22  1  0  0  0
 21 37  1  0  0  0
 21 38  1  0  0  0
 22 39  1  0  0  0
 22 40  1  0  0  0
 22 41  1  0  0  0
 23 42  1  0  0  0
 23 43  1  0  0  0
 24 44  1  0  0  0
 24 45  1  0  0  0
M  END
> <s_m_source_file>
../3v78_ligand.sdf

> <i_m_source_file_index>
1

> <s_epik_input>
W2NIXTFjKFtOSDJdKVtjSF1bY0hdYyhjMTIpYzNjKFtjSF1jKFtOSDJdKVtjSF1bY0hdMylOKFtDSDJdW0NIM10pW0NAQEhdMmM0W2NIXVtjSF1bY0hdW2NIXVtjSF00

> <s_epik_cmdline>
J2VwaWtfYXBwJywgJy1pbWFlJywgJ2xpZ2FuZF9wcm8ubWFlJywgJy1vbWFlJywgJ2xpZ2FuZF9wcmVwLm1hZScsICctbXMnLCAnMScsICctcGgnLCAnNycsICctcGh0JywgJzAuNScsICctbnQn

> <r_lp_tautomer_probability>
1

> <r_epik_Ionization_Penalty>
  0.0102

> <r_epik_Ionization_Penalty_Charging>
  0.0000

> <r_epik_Ionization_Penalty_Neutral>
  0.0102

> <r_epik_State_Penalty>
 -0.0000

> <r_epik_Charging_Adjusted_Penalty>
0

> <i_epik_Tot_Q>
0

> <i_epik_Tot_abs_Q>
0

$$$$
