3v7c_ligand
                    3D
 Schrodinger Suite 2020-3.
 74 80  0  0  1  0            999 V2000
   49.9470   25.2200   21.5180 N   0  0  0  0  0  0
   50.4120   25.3500   20.2750 C   0  0  0  0  0  0
   51.4730   24.6820   19.8380 N   0  0  0  0  0  0
   52.0910   23.8210   20.6630 C   0  0  0  0  0  0
   51.6210   23.6580   21.9700 C   0  0  0  0  0  0
   50.5150   24.3910   22.3880 C   0  0  0  0  0  0
   50.0270   24.2920   23.6190 N   0  0  0  0  0  0
   52.3850   22.7510   22.5650 N   0  0  0  0  0  0
   53.2910   22.3560   21.6660 C   0  0  0  0  0  0
   53.1150   22.9940   20.4980 N   0  0  0  0  0  0
   58.0420   23.7230   17.6750 C   0  0  0  0  0  0
   55.8470   23.9710   16.4330 C   0  0  0  0  0  0
   49.2520   13.9360   25.4270 O   0  0  0  0  0  0
   52.9750   17.1160   17.9250 C   0  0  0  0  0  0
   49.2460   16.7730   19.7540 C   0  0  0  0  0  0
   49.1240   16.9590   18.2110 C   0  0  0  0  0  0
   47.9010   16.5960   20.5270 C   0  0  0  0  0  0
   50.3990   16.4830   17.3890 C   0  0  0  0  0  0
   48.0290   16.8910   22.0430 C   0  0  0  0  0  0
   45.3640   15.9010   24.9050 C   0  0  0  0  0  0
   54.6000   19.1080   18.5680 C   0  0  0  0  0  0
   51.3870   18.5400   17.8720 N   0  0  0  0  0  0
   52.4110   19.1330   18.1510 N   0  0  0  0  0  0
   47.0060   14.1980   25.4130 N   0  0  0  0  0  0
   48.1940   14.6000   23.5650 N   0  0  0  0  0  0
   53.4610   21.4690   18.7890 O   0  0  0  0  0  0
   56.4520   21.8290   17.5590 O   0  0  0  0  0  0
   56.0120   23.7580   18.8470 O   0  0  0  0  0  0
   46.5890   17.1460   24.4380 S   0  0  0  0  0  0
   48.2050   14.2220   24.8420 C   0  0  0  0  0  0
   51.6540   17.2920   17.7160 C   0  0  0  0  0  0
   54.5550   20.6800   18.2640 C   0  0  1  0  0  0
   46.7690   16.4230   22.7820 C   0  0  2  0  0  0
   55.8110   21.3540   18.7610 C   0  0  2  0  0  0
   55.3730   22.6260   19.4910 C   0  0  2  0  0  0
   53.9090   22.7840   19.2480 C   0  0  2  0  0  0
   53.3580   18.3890   18.1990 N   0  0  0  0  0  0
   56.5740   23.3120   17.6100 C   0  0  0  0  0  0
   46.0180   14.6160   24.4240 C   0  0  2  0  0  0
   46.8410   14.9140   23.1490 C   0  0  2  0  0  0
   49.9022   26.0299   19.5924 H   0  0  0  0  0  0
   49.1504   24.8881   23.9127 H   0  0  0  0  0  0
   50.4993   23.6139   24.3450 H   0  0  0  0  0  0
   54.0682   21.6156   21.8554 H   0  0  0  0  0  0
   58.5509   23.4127   16.7505 H   0  0  0  0  0  0
   58.5209   23.2372   18.5380 H   0  0  0  0  0  0
   58.1125   24.8154   17.7834 H   0  0  0  0  0  0
   56.2873   23.6209   15.4877 H   0  0  0  0  0  0
   55.9509   25.0638   16.5034 H   0  0  0  0  0  0
   54.7810   23.7013   16.4631 H   0  0  0  0  0  0
   53.5702   16.2038   17.8849 H   0  0  0  0  0  0
   49.8438   15.8750   19.9689 H   0  0  0  0  0  0
   49.7377   17.6542   20.1918 H   0  0  0  0  0  0
   48.2671   16.3786   17.8383 H   0  0  0  0  0  0
   48.9733   18.0240   17.9808 H   0  0  0  0  0  0
   47.1483   17.2846   20.1156 H   0  0  0  0  0  0
   47.5487   15.5597   20.4174 H   0  0  0  0  0  0
   50.6109   15.4284   17.6192 H   0  0  0  0  0  0
   50.2022   16.5908   16.3121 H   0  0  0  0  0  0
   48.9024   16.3586   22.4477 H   0  0  0  0  0  0
   48.1555   17.9728   22.1966 H   0  0  0  0  0  0
   45.2131   15.9257   25.9943 H   0  0  0  0  0  0
   44.4117   16.1154   24.3980 H   0  0  0  0  0  0
   55.4228   18.6483   18.0009 H   0  0  0  0  0  0
   54.7616   18.9471   19.6441 H   0  0  0  0  0  0
   46.6863   13.9318   26.4313 H   0  0  0  0  0  0
   49.0248   14.6932   22.8501 H   0  0  0  0  0  0
   54.3859   20.7690   17.1807 H   0  0  0  0  0  0
   46.0466   16.6224   21.9768 H   0  0  0  0  0  0
   56.4586   20.6941   19.3569 H   0  0  0  0  0  0
   55.6290   22.6141   20.5607 H   0  0  0  0  0  0
   53.7608   23.6274   18.5575 H   0  0  0  0  0  0
   45.2483   13.8410   24.2943 H   0  0  0  0  0  0
   46.5382   14.3209   22.2735 H   0  0  0  0  0  0
  1  2  1  0  0  0
  1  6  2  0  0  0
  2  3  2  0  0  0
  2 41  1  0  0  0
  3  4  1  0  0  0
  4  5  2  0  0  0
  4 10  1  0  0  0
  5  6  1  0  0  0
  5  8  1  0  0  0
  6  7  1  0  0  0
  7 42  1  0  0  0
  7 43  1  0  0  0
  8  9  2  0  0  0
  9 10  1  0  0  0
  9 44  1  0  0  0
 10 36  1  0  0  0
 11 38  1  0  0  0
 11 45  1  0  0  0
 11 46  1  0  0  0
 11 47  1  0  0  0
 12 38  1  0  0  0
 12 48  1  0  0  0
 12 49  1  0  0  0
 12 50  1  0  0  0
 13 30  2  0  0  0
 14 31  2  0  0  0
 14 37  1  0  0  0
 14 51  1  0  0  0
 15 16  1  0  0  0
 15 17  1  0  0  0
 15 52  1  0  0  0
 15 53  1  0  0  0
 16 18  1  0  0  0
 16 54  1  0  0  0
 16 55  1  0  0  0
 17 19  1  0  0  0
 17 56  1  0  0  0
 17 57  1  0  0  0
 18 31  1  0  0  0
 18 58  1  0  0  0
 18 59  1  0  0  0
 19 33  1  0  0  0
 19 60  1  0  0  0
 19 61  1  0  0  0
 20 29  1  0  0  0
 20 39  1  0  0  0
 20 62  1  0  0  0
 20 63  1  0  0  0
 21 32  1  0  0  0
 21 37  1  0  0  0
 21 64  1  0  0  0
 21 65  1  0  0  0
 22 23  2  0  0  0
 22 31  1  0  0  0
 23 37  1  0  0  0
 24 30  1  0  0  0
 24 39  1  0  0  0
 24 66  1  0  0  0
 25 30  1  0  0  0
 25 40  1  0  0  0
 25 67  1  0  0  0
 26 32  1  0  0  0
 26 36  1  0  0  0
 27 34  1  0  0  0
 27 38  1  0  0  0
 28 35  1  0  0  0
 28 38  1  0  0  0
 29 33  1  0  0  0
 32 34  1  0  0  0
 32 68  1  0  0  0
 33 40  1  0  0  0
 33 69  1  0  0  0
 34 35  1  0  0  0
 34 70  1  0  0  0
 35 36  1  0  0  0
 35 71  1  0  0  0
 36 72  1  0  0  0
 39 40  1  0  0  0
 39 73  1  0  0  0
 40 74  1  0  0  0
M  END
> <s_m_source_file>
../3v7c_ligand.sdf

> <i_m_source_file_index>
1

> <s_epik_input>
bjFbY0hdbmMoW05IMl0pYyhjMTIpbltjSF1uMltDQEBIXShbQ0BASF0oW0NASF0zNClPQyhPMykoW0NIM10pW0NIM10pT1tDQEBIXTRbQ0gyXW4obm41KVtjSF1jNVtDSDJdW0NIMl1bQ0gyXVtDSDJdW0NIMl1bQ0BIXShTW0NIMl02KVtDQEhdKFtDQEhdNjcpW05IXUMoPU8pW05IXTc=

> <s_epik_cmdline>
J2VwaWtfYXBwJywgJy1pbWFlJywgJ2xpZ2FuZF9wcm8ubWFlJywgJy1vbWFlJywgJ2xpZ2FuZF9wcmVwLm1hZScsICctbXMnLCAnMScsICctcGgnLCAnNycsICctcGh0JywgJzAuNScsICctbnQn

> <r_lp_tautomer_probability>
1

> <r_epik_Ionization_Penalty>
  0.0006

> <r_epik_Ionization_Penalty_Charging>
  0.0000

> <r_epik_Ionization_Penalty_Neutral>
  0.0006

> <r_epik_State_Penalty>
 -0.0000

> <r_epik_Charging_Adjusted_Penalty>
0

> <i_epik_Tot_Q>
0

> <i_epik_Tot_abs_Q>
0

> <s_epik_Chemistry_Notes>
This compound contains an acetal/aminal-like group ( X-CH(R)-Y where X, Y are N, S, or O) that may be acid/base labile, releasing an aldehyde.

$$$$
