3v7d_ligand
                    3D
 Schrodinger Suite 2020-3.
164165  0  0  1  0            999 V2000
   28.5500   46.8350  -31.0490 N   0  3  0  0  0  0
   27.8930   46.3090  -29.8570 C   0  0  2  0  0  0
   26.3880   46.5620  -29.9140 C   0  0  0  0  0  0
   25.9500   47.7060  -30.0410 O   0  0  0  0  0  0
   28.4950   46.9360  -28.5970 C   0  0  0  0  0  0
   27.9270   46.3920  -27.3140 C   0  0  0  0  0  0
   27.8980   45.0270  -27.0770 C   0  0  0  0  0  0
   27.4410   47.2480  -26.3360 C   0  0  0  0  0  0
   27.3820   44.5230  -25.8950 C   0  0  0  0  0  0
   26.9270   46.7520  -25.1490 C   0  0  0  0  0  0
   26.8960   45.3880  -24.9300 C   0  0  0  0  0  0
   25.6050   45.4900  -29.8190 N   0  0  0  0  0  0
   24.1480   45.5820  -29.9200 C   0  0  2  0  0  0
   23.4380   45.7950  -28.5790 C   0  0  0  0  0  0
   22.2070   45.7870  -28.5110 O   0  0  0  0  0  0
   23.5750   44.3500  -30.6330 C   0  0  0  0  0  0
   23.9440   43.0440  -29.9420 C   0  0  0  0  0  0
   24.4100   43.0360  -28.8010 O   0  0  0  0  0  0
   23.7320   41.9310  -30.6350 N   0  0  0  0  0  0
   24.2210   45.9720  -27.5180 N   0  0  0  0  0  0
   23.6770   46.2570  -26.2010 C   0  0  0  0  0  0
   23.3750   45.0320  -25.3590 C   0  0  0  0  0  0
   23.1250   45.1420  -24.1570 O   0  0  0  0  0  0
   23.4010   43.8600  -25.9840 N   0  0  0  0  0  0
   23.0310   42.6280  -25.2990 C   0  0  2  0  0  0
   24.2210   41.6780  -25.1760 C   0  0  0  0  0  0
   24.6190   41.0400  -26.1520 O   0  0  0  0  0  0
   21.8840   41.9480  -26.0470 C   0  0  0  0  0  0
   20.7800   42.8950  -26.5290 C   0  0  0  0  0  0
   19.8230   42.1690  -27.4460 C   0  0  0  0  0  0
   20.0290   43.5210  -25.3570 C   0  0  0  0  0  0
   24.7920   41.5910  -23.9790 N   0  0  0  0  0  0
   25.9140   40.6920  -23.7390 C   0  0  2  0  0  0
   25.4540   39.2490  -23.9100 C   0  0  0  0  0  0
   24.3250   38.9050  -23.5600 O   0  0  0  0  0  0
   26.4930   40.8550  -22.3160 C   0  0  2  0  0  0
   26.5850   42.2440  -21.9760 O   0  0  0  0  0  0
   27.8750   40.2270  -22.2270 C   0  0  0  0  0  0
   26.3260   38.4100  -24.4560 N   0  0  0  0  0  0
   26.0200   36.9940  -24.6220 C   0  0  1  0  0  0
   25.7470   36.6760  -26.0950 C   0  0  0  0  0  0
   25.2630   35.3550  -26.2510 O   0  0  0  0  0  0
   27.1600   36.1300  -24.0980 C   0  0  0  0  0  0
   28.3290   36.5060  -24.1920 O   0  0  0  0  0  0
   23.7760   35.4290  -26.8590 P   0  0  0  0  0  0
   23.0400   36.7730  -26.3450 O   0  0  0  0  0  0
   23.8930   35.4440  -28.4640 O   0  0  0  0  0  0
   22.9580   34.1300  -26.3750 O   0  0  0  0  0  0
   26.8180   34.9750  -23.5170 N   0  0  0  0  0  0
   27.8350   33.9940  -23.1300 C   0  0  2  0  0  0
   28.6850   33.5950  -24.3230 C   0  0  0  0  0  0
   28.2350   33.7260  -25.4590 O   0  0  0  0  0  0
   27.0040   32.7870  -22.7040 C   0  0  0  0  0  0
   25.7030   33.3500  -22.2790 C   0  0  0  0  0  0
   25.4600   34.5500  -23.1370 C   0  0  0  0  0  0
   29.8950   33.1110  -24.0830 N   0  0  0  0  0  0
   30.7070   32.6280  -25.1900 C   0  0  2  0  0  0
   30.3710   31.1760  -25.5110 C   0  0  0  0  0  0
   29.7660   30.4770  -24.6990 O   0  0  0  0  0  0
   32.2000   32.8030  -24.9040 C   0  0  0  0  0  0
   32.6600   34.2550  -24.9410 C   0  0  0  0  0  0
   34.1680   34.3960  -24.9140 C   0  0  0  0  0  0
   34.8870   33.4570  -24.5700 O   0  0  0  0  0  0
   34.6570   35.5750  -25.2840 N   0  0  0  0  0  0
   30.7500   30.7430  -26.7080 N   0  0  0  0  0  0
   30.5210   29.3730  -27.1530 C   0  0  2  0  0  0
   31.1600   28.3620  -26.1990 C   0  0  0  0  0  0
   32.1970   28.6330  -25.5940 O   0  0  0  0  0  0
   31.0620   29.1970  -28.5760 C   0  0  0  0  0  0
   30.9050   27.8000  -29.1780 C   0  0  0  0  0  0
   29.4520   27.3280  -29.1700 C   0  0  0  0  0  0
   29.2850   26.0570  -29.8780 N   0  0  0  0  0  0
   29.5060   24.8600  -29.3400 C   0  0  0  0  0  0
   29.9050   24.7590  -28.0810 N   0  0  0  0  0  0
   29.3320   23.7600  -30.0620 N   0  0  0  0  0  0
   30.5180   27.2070  -26.0540 N   0  0  0  0  0  0
   31.0190   26.1300  -25.2090 C   0  0  1  0  0  0
   29.8690   25.1980  -24.8200 C   0  0  0  0  0  0
   28.8210   25.9080  -24.1820 O   0  0  0  0  0  0
   32.0980   25.3370  -25.9430 C   0  0  0  0  0  0
   33.1610   25.0400  -25.3940 O   0  0  0  0  0  0
   27.5780   26.0850  -25.1890 P   0  0  0  0  0  0
   27.7780   27.4340  -26.0440 O   0  0  0  0  0  0
   27.5060   24.8220  -26.1830 O   0  0  0  0  0  0
   26.2140   26.1860  -24.3440 O   0  0  0  0  0  0
   31.9420   24.9680  -27.1090 O   0  0  0  0  0  0
   28.1069   46.3755  -31.9448 H   0  0  0  0  0  0
   29.6239   46.6002  -31.0095 H   0  0  0  0  0  0
   28.4144   47.9258  -31.0912 H   0  0  0  0  0  0
   28.0826   45.2255  -29.8655 H   0  0  0  0  0  0
   29.5791   46.7507  -28.5774 H   0  0  0  0  0  0
   28.3083   48.0200  -28.6018 H   0  0  0  0  0  0
   28.2862   44.3415  -27.8304 H   0  0  0  0  0  0
   27.4640   48.3247  -26.5039 H   0  0  0  0  0  0
   27.3586   43.4466  -25.7248 H   0  0  0  0  0  0
   26.5480   47.4360  -24.3897 H   0  0  0  0  0  0
   26.4894   44.9938  -23.9986 H   0  0  0  0  0  0
   26.0847   44.5130  -29.6597 H   0  0  0  0  0  0
   24.0052   46.4939  -30.5184 H   0  0  0  0  0  0
   22.4774   44.4185  -30.6583 H   0  0  0  0  0  0
   23.9635   44.3077  -31.6612 H   0  0  0  0  0  0
   23.3140   41.9869  -31.6509 H   0  0  0  0  0  0
   23.9744   40.9533  -30.1930 H   0  0  0  0  0  0
   25.3093   45.8971  -27.6591 H   0  0  0  0  0  0
   24.3956   46.8642  -25.6310 H   0  0  0  0  0  0
   22.7320   46.8101  -26.3064 H   0  0  0  0  0  0
   23.7096   43.8311  -27.0394 H   0  0  0  0  0  0
   22.7133   42.9341  -24.2914 H   0  0  0  0  0  0
   22.2783   41.4406  -26.9398 H   0  0  0  0  0  0
   21.4031   41.2100  -25.3882 H   0  0  0  0  0  0
   21.2493   43.7085  -27.1017 H   0  0  0  0  0  0
   20.3824   41.7255  -28.2829 H   0  0  0  0  0  0
   19.0799   42.8795  -27.8372 H   0  0  0  0  0  0
   19.3102   41.3736  -26.8853 H   0  0  0  0  0  0
   20.7416   44.0439  -24.7022 H   0  0  0  0  0  0
   19.5172   42.7322  -24.7861 H   0  0  0  0  0  0
   19.2869   44.2381  -25.7380 H   0  0  0  0  0  0
   24.4019   42.2143  -23.1609 H   0  0  0  0  0  0
   26.6621   40.9762  -24.4938 H   0  0  0  0  0  0
   25.8211   40.4060  -21.5697 H   0  0  0  0  0  0
   25.6825   42.8729  -21.9830 H   0  0  0  0  0  0
   27.8104   39.1602  -22.4871 H   0  0  0  0  0  0
   28.2600   40.3318  -21.2019 H   0  0  0  0  0  0
   28.5543   40.7347  -22.9276 H   0  0  0  0  0  0
   27.2980   38.8051  -24.7865 H   0  0  0  0  0  0
   25.1174   36.8139  -24.0195 H   0  0  0  0  0  0
   24.9936   37.3749  -26.4874 H   0  0  0  0  0  0
   26.6783   36.7793  -26.6712 H   0  0  0  0  0  0
   23.4641   37.7589  -26.5862 H   0  0  0  0  0  0
   22.7823   33.9587  -25.3027 H   0  0  0  0  0  0
   28.5008   34.4110  -22.3601 H   0  0  0  0  0  0
   26.8909   32.1006  -23.5561 H   0  0  0  0  0  0
   27.5106   32.2660  -21.8782 H   0  0  0  0  0  0
   24.9135   32.5976  -22.4223 H   0  0  0  0  0  0
   25.7541   33.6300  -21.2165 H   0  0  0  0  0  0
   24.9607   35.3635  -22.5903 H   0  0  0  0  0  0
   24.8841   34.3095  -24.0428 H   0  0  0  0  0  0
   30.2868   33.0727  -23.0558 H   0  0  0  0  0  0
   30.4316   33.2619  -26.0458 H   0  0  0  0  0  0
   32.4300   32.4103  -23.9026 H   0  0  0  0  0  0
   32.7844   32.2533  -25.6565 H   0  0  0  0  0  0
   32.2952   34.7318  -25.8627 H   0  0  0  0  0  0
   32.2577   34.7895  -24.0678 H   0  0  0  0  0  0
   33.9745   36.3841  -25.5832 H   0  0  0  0  0  0
   35.7443   35.7418  -25.2910 H   0  0  0  0  0  0
   31.2535   31.4603  -27.3728 H   0  0  0  0  0  0
   29.4303   29.2313  -27.1344 H   0  0  0  0  0  0
   30.5381   29.8856  -29.2552 H   0  0  0  0  0  0
   32.1394   29.4185  -28.5887 H   0  0  0  0  0  0
   31.2557   27.8085  -30.2206 H   0  0  0  0  0  0
   31.5009   27.0811  -28.5966 H   0  0  0  0  0  0
   29.1172   27.1895  -28.1314 H   0  0  0  0  0  0
   28.8190   28.0813  -29.6619 H   0  0  0  0  0  0
   28.9557   26.0512  -30.9275 H   0  0  0  0  0  0
   30.0515   25.6659  -27.4760 H   0  0  0  0  0  0
   29.0008   23.8355  -31.1082 H   0  0  0  0  0  0
   29.5190   22.7728  -29.6141 H   0  0  0  0  0  0
   29.5731   27.0812  -26.6030 H   0  0  0  0  0  0
   31.4468   26.6146  -24.3190 H   0  0  0  0  0  0
   29.4654   24.7170  -25.7232 H   0  0  0  0  0  0
   30.2397   24.4270  -24.1285 H   0  0  0  0  0  0
   28.6615   27.5505  -26.6889 H   0  0  0  0  0  0
   28.3547   24.5935  -26.8444 H   0  0  0  0  0  0
   32.7343   24.3978  -27.6161 H   0  0  0  0  0  0
  1  2  1  0  0  0
  1 87  1  0  0  0
  1 88  1  0  0  0
  1 89  1  0  0  0
  2  3  1  0  0  0
  2  5  1  0  0  0
  2 90  1  0  0  0
  3  4  2  0  0  0
  3 12  1  0  0  0
  5  6  1  0  0  0
  5 91  1  0  0  0
  5 92  1  0  0  0
  6  7  2  0  0  0
  6  8  1  0  0  0
  7  9  1  0  0  0
  7 93  1  0  0  0
  8 10  2  0  0  0
  8 94  1  0  0  0
  9 11  2  0  0  0
  9 95  1  0  0  0
 10 11  1  0  0  0
 10 96  1  0  0  0
 11 97  1  0  0  0
 12 13  1  0  0  0
 12 98  1  0  0  0
 13 14  1  0  0  0
 13 16  1  0  0  0
 13 99  1  0  0  0
 14 15  2  0  0  0
 14 20  1  0  0  0
 16 17  1  0  0  0
 16100  1  0  0  0
 16101  1  0  0  0
 17 18  2  0  0  0
 17 19  1  0  0  0
 19102  1  0  0  0
 19103  1  0  0  0
 20 21  1  0  0  0
 20104  1  0  0  0
 21 22  1  0  0  0
 21105  1  0  0  0
 21106  1  0  0  0
 22 23  2  0  0  0
 22 24  1  0  0  0
 24 25  1  0  0  0
 24107  1  0  0  0
 25 26  1  0  0  0
 25 28  1  0  0  0
 25108  1  0  0  0
 26 27  2  0  0  0
 26 32  1  0  0  0
 28 29  1  0  0  0
 28109  1  0  0  0
 28110  1  0  0  0
 29 30  1  0  0  0
 29 31  1  0  0  0
 29111  1  0  0  0
 30112  1  0  0  0
 30113  1  0  0  0
 30114  1  0  0  0
 31115  1  0  0  0
 31116  1  0  0  0
 31117  1  0  0  0
 32 33  1  0  0  0
 32118  1  0  0  0
 33 34  1  0  0  0
 33 36  1  0  0  0
 33119  1  0  0  0
 34 35  2  0  0  0
 34 39  1  0  0  0
 36 37  1  0  0  0
 36 38  1  0  0  0
 36120  1  0  0  0
 37121  1  0  0  0
 38122  1  0  0  0
 38123  1  0  0  0
 38124  1  0  0  0
 39 40  1  0  0  0
 39125  1  0  0  0
 40 41  1  0  0  0
 40 43  1  0  0  0
 40126  1  0  0  0
 41 42  1  0  0  0
 41127  1  0  0  0
 41128  1  0  0  0
 42 45  1  0  0  0
 43 44  2  0  0  0
 43 49  1  0  0  0
 45 46  1  0  0  0
 45 47  2  0  0  0
 45 48  1  0  0  0
 46129  1  0  0  0
 48130  1  0  0  0
 49 50  1  0  0  0
 49 55  1  0  0  0
 50 51  1  0  0  0
 50 53  1  0  0  0
 50131  1  0  0  0
 51 52  2  0  0  0
 51 56  1  0  0  0
 53 54  1  0  0  0
 53132  1  0  0  0
 53133  1  0  0  0
 54 55  1  0  0  0
 54134  1  0  0  0
 54135  1  0  0  0
 55136  1  0  0  0
 55137  1  0  0  0
 56 57  1  0  0  0
 56138  1  0  0  0
 57 58  1  0  0  0
 57 60  1  0  0  0
 57139  1  0  0  0
 58 59  2  0  0  0
 58 65  1  0  0  0
 60 61  1  0  0  0
 60140  1  0  0  0
 60141  1  0  0  0
 61 62  1  0  0  0
 61142  1  0  0  0
 61143  1  0  0  0
 62 63  2  0  0  0
 62 64  1  0  0  0
 64144  1  0  0  0
 64145  1  0  0  0
 65 66  1  0  0  0
 65146  1  0  0  0
 66 67  1  0  0  0
 66 69  1  0  0  0
 66147  1  0  0  0
 67 68  2  0  0  0
 67 76  1  0  0  0
 69 70  1  0  0  0
 69148  1  0  0  0
 69149  1  0  0  0
 70 71  1  0  0  0
 70150  1  0  0  0
 70151  1  0  0  0
 71 72  1  0  0  0
 71152  1  0  0  0
 71153  1  0  0  0
 72 73  1  0  0  0
 72154  1  0  0  0
 73 74  2  0  0  0
 73 75  1  0  0  0
 74155  1  0  0  0
 75156  1  0  0  0
 75157  1  0  0  0
 76 77  1  0  0  0
 76158  1  0  0  0
 77 78  1  0  0  0
 77 80  1  0  0  0
 77159  1  0  0  0
 78 79  1  0  0  0
 78160  1  0  0  0
 78161  1  0  0  0
 79 82  1  0  0  0
 80 81  2  0  0  0
 80 86  1  0  0  0
 82 83  1  0  0  0
 82 84  1  0  0  0
 82 85  2  0  0  0
 83162  1  0  0  0
 84163  1  0  0  0
 86164  1  0  0  0
M  CHG  1   1   1
M  END
> <s_m_source_file>
../3v7d_ligand.sdf

> <i_m_source_file_index>
1

> <s_epik_input>
W2NIXTFbY0hdW2NIXVtjSF1bY0hdYzFbQ0gyXVtDQEhdKFtOSDMrXSlDKD1PKVtOSF1bQ0BASF0oW0NIMl1DKD1PKVtOSDJdKUMoPU8pW05IXVtDSDJdQyg9TylbTkhdW0NAQEhdKFtDSDJdW0NIXShbQ0gzXSlbQ0gzXSlDKD1PKVtOSF1bQ0BASF0oW0NASF0oW09IXSlbQ0gzXSlDKD1PKVtOSF1bQ0BASF0oW0NIMl1PUCg9TykoW09IXSlbT0hdKUMoPU8pTjJbQ0BASF0oW0NIMl1bQ0gyXVtDSDJdMilDKD1PKVtOSF1bQ0BASF0oW0NIMl1bQ0gyXUMoPU8pW05IMl0pQyg9TylbTkhdW0NAQEhdKFtDSDJdW0NIMl1bQ0gyXVtOSF0vQyg9TlxbSF0pW05IMl0pQyg9TylbTkhdW0NASF0oQyg9TylbT0hdKVtDSDJdT1AoPU8pKFtPSF0pW09IXQ==

> <s_epik_cmdline>
J2VwaWtfYXBwJywgJy1pbWFlJywgJ2xpZ2FuZF9wcm8ubWFlJywgJy1vbWFlJywgJ2xpZ2FuZF9wcmVwLm1hZScsICctbXMnLCAnMScsICctcGgnLCAnNycsICctcGh0JywgJzAuNScsICctbnQn

> <s_epik_pKa_notes>
Molecule size exceeds maximum supported for generating protonation states

> <s_epik_Chemistry_Notes>
This compound has an imine and may undergo hydrolysis.

$$$$
