3v7s_ligand
                    3D
 Schrodinger Suite 2020-3.
 66 70  0  0  1  0            999 V2000
   50.9900   24.1150   23.6860 C   0  0  0  0  0  0
   49.3040   13.6750   25.5380 O   0  0  0  0  0  0
   55.3370   23.5110   17.8250 O   0  0  0  0  0  0
   51.6770   25.6000   21.7940 C   0  0  0  0  0  0
   52.3770   25.8960   20.6160 C   0  0  0  0  0  0
   52.6490   23.3660   21.7740 C   0  0  0  0  0  0
   51.0050   18.7090   16.7960 C   0  0  0  0  0  0
   48.8570   16.1200   19.6070 C   0  0  0  0  0  0
   48.6830   17.0190   18.3590 C   0  0  0  0  0  0
   47.5860   16.0780   20.4540 C   0  0  0  0  0  0
   54.0930   20.5810   17.6640 C   0  0  0  0  0  0
   53.7180   20.7030   19.1470 C   0  0  0  0  0  0
   49.5600   16.6450   17.1410 C   0  0  0  0  0  0
   47.8610   16.6070   21.8570 C   0  0  0  0  0  0
   52.8840   20.2980   16.7440 C   0  0  0  0  0  0
   54.6760   21.6220   19.9040 C   0  0  0  0  0  0
   45.5370   15.9070   25.0820 C   0  0  0  0  0  0
   52.0670   17.0220   17.5740 N   0  0  0  0  0  0
   52.8560   17.9660   17.4560 N   0  0  0  0  0  0
   47.0620   14.0230   25.5220 N   0  0  0  0  0  0
   48.2920   14.4690   23.6890 N   0  0  0  0  0  0
   53.9720   25.0200   18.8690 O   0  0  0  0  0  0
   46.6520   17.1170   24.3010 S   0  0  0  0  0  0
   48.2790   14.0290   24.9530 C   0  0  0  0  0  0
   51.8070   24.3420   22.3880 C   0  0  0  0  0  0
   50.8660   17.4440   17.1670 C   0  0  0  0  0  0
   54.5730   23.8070   18.7450 C   0  0  0  0  0  0
   53.2060   24.9440   20.0020 C   0  0  0  0  0  0
   53.3490   23.6640   20.5680 C   0  0  0  0  0  0
   46.7110   16.2040   22.7560 C   0  0  2  0  0  0
   52.2810   18.9720   17.0100 N   0  0  0  0  0  0
   54.2020   23.0080   19.7510 N   0  0  0  0  0  0
   46.0630   14.5370   24.5760 C   0  0  2  0  0  0
   46.9010   14.7640   23.2870 C   0  0  2  0  0  0
   50.4318   25.0302   23.9327 H   0  0  0  0  0  0
   51.6741   23.8690   24.5115 H   0  0  0  0  0  0
   50.2845   23.2847   23.5347 H   0  0  0  0  0  0
   51.0308   26.3519   22.2469 H   0  0  0  0  0  0
   52.2756   26.8846   20.1681 H   0  0  0  0  0  0
   52.7578   22.3829   22.2319 H   0  0  0  0  0  0
   50.2402   19.3793   16.4037 H   0  0  0  0  0  0
   49.0958   15.0942   19.2895 H   0  0  0  0  0  0
   49.6753   16.5111   20.2294 H   0  0  0  0  0  0
   47.6390   16.9716   18.0156 H   0  0  0  0  0  0
   48.9373   18.0577   18.6169 H   0  0  0  0  0  0
   46.8109   16.7006   19.9832 H   0  0  0  0  0  0
   47.2283   15.0404   20.5273 H   0  0  0  0  0  0
   54.5531   21.5204   17.3237 H   0  0  0  0  0  0
   54.8070   19.7546   17.5331 H   0  0  0  0  0  0
   52.7025   21.1163   19.2356 H   0  0  0  0  0  0
   53.7515   19.7089   19.6167 H   0  0  0  0  0  0
   49.7937   15.5706   17.1736 H   0  0  0  0  0  0
   49.0155   16.8738   16.2130 H   0  0  0  0  0  0
   48.8007   16.1766   22.2335 H   0  0  0  0  0  0
   47.9466   17.7032   21.8253 H   0  0  0  0  0  0
   52.1121   21.0646   16.9068 H   0  0  0  0  0  0
   53.2091   20.3223   15.6934 H   0  0  0  0  0  0
   54.6887   21.3422   20.9677 H   0  0  0  0  0  0
   55.6885   21.5206   19.4861 H   0  0  0  0  0  0
   45.6038   15.9997   26.1760 H   0  0  0  0  0  0
   44.5030   16.1001   24.7601 H   0  0  0  0  0  0
   46.7535   13.7047   26.5287 H   0  0  0  0  0  0
   49.1154   14.6262   22.9768 H   0  0  0  0  0  0
   45.9030   16.2822   22.0136 H   0  0  0  0  0  0
   45.2188   13.8396   24.4710 H   0  0  0  0  0  0
   46.6389   14.1010   22.4493 H   0  0  0  0  0  0
  1 25  1  0  0  0
  1 35  1  0  0  0
  1 36  1  0  0  0
  1 37  1  0  0  0
  2 24  2  0  0  0
  3 27  2  0  0  0
  4  5  2  0  0  0
  4 25  1  0  0  0
  4 38  1  0  0  0
  5 28  1  0  0  0
  5 39  1  0  0  0
  6 25  2  0  0  0
  6 29  1  0  0  0
  6 40  1  0  0  0
  7 26  2  0  0  0
  7 31  1  0  0  0
  7 41  1  0  0  0
  8  9  1  0  0  0
  8 10  1  0  0  0
  8 42  1  0  0  0
  8 43  1  0  0  0
  9 13  1  0  0  0
  9 44  1  0  0  0
  9 45  1  0  0  0
 10 14  1  0  0  0
 10 46  1  0  0  0
 10 47  1  0  0  0
 11 12  1  0  0  0
 11 15  1  0  0  0
 11 48  1  0  0  0
 11 49  1  0  0  0
 12 16  1  0  0  0
 12 50  1  0  0  0
 12 51  1  0  0  0
 13 26  1  0  0  0
 13 52  1  0  0  0
 13 53  1  0  0  0
 14 30  1  0  0  0
 14 54  1  0  0  0
 14 55  1  0  0  0
 15 31  1  0  0  0
 15 56  1  0  0  0
 15 57  1  0  0  0
 16 32  1  0  0  0
 16 58  1  0  0  0
 16 59  1  0  0  0
 17 23  1  0  0  0
 17 33  1  0  0  0
 17 60  1  0  0  0
 17 61  1  0  0  0
 18 19  2  0  0  0
 18 26  1  0  0  0
 19 31  1  0  0  0
 20 24  1  0  0  0
 20 33  1  0  0  0
 20 62  1  0  0  0
 21 24  1  0  0  0
 21 34  1  0  0  0
 21 63  1  0  0  0
 22 27  1  0  0  0
 22 28  1  0  0  0
 23 30  1  0  0  0
 27 32  1  0  0  0
 28 29  2  0  0  0
 29 32  1  0  0  0
 30 34  1  0  0  0
 30 64  1  0  0  0
 33 34  1  0  0  0
 33 65  1  0  0  0
 34 66  1  0  0  0
M  END
> <s_m_source_file>
../3v7s_ligand.sdf

> <i_m_source_file_index>
1

> <s_epik_input>
W2NIXTFbY0hdYyhbQ0gzXSlbY0hdYyhjMTIpbihjKD1PKW8yKVtDSDJdW0NIMl1bQ0gyXVtDSDJdbihubjMpW2NIXWMzW0NIMl1bQ0gyXVtDSDJdW0NIMl1bQ0gyXVtDQEhdKFNbQ0gyXTQpW0NASF0oW0NASF00NSlbTkhdQyg9TylbTkhdNQ==

> <s_epik_cmdline>
J2VwaWtfYXBwJywgJy1pbWFlJywgJ2xpZ2FuZF9wcm8ubWFlJywgJy1vbWFlJywgJ2xpZ2FuZF9wcmVwLm1hZScsICctbXMnLCAnMScsICctcGgnLCAnNycsICctcGh0JywgJzAuNScsICctbnQn

> <r_lp_tautomer_probability>
1

> <r_epik_Ionization_Penalty>
  0.0000

> <r_epik_Ionization_Penalty_Charging>
  0.0000

> <r_epik_Ionization_Penalty_Neutral>
  0.0000

> <r_epik_State_Penalty>
 -0.0000

> <r_epik_Charging_Adjusted_Penalty>
3.11793095321913e-14

> <i_epik_Tot_Q>
0

> <i_epik_Tot_abs_Q>
0

$$$$
