3v7t_ligand
                    3D
 Schrodinger Suite 2020-3.
 59 62  0  0  1  0            999 V2000
   50.7940   -9.3510   -7.2960 C   0  0  0  0  0  0
   50.3620   -9.9000   -5.9450 C   0  0  0  0  0  0
   50.8420  -11.3410   -5.7950 C   0  0  0  0  0  0
   50.4700  -11.8350   -4.5040 O   0  0  0  0  0  0
   49.1420  -12.1150   -4.4490 C   0  0  0  0  0  0
   48.2740  -13.0790   -5.5360 S   0  0  0  0  0  0
   48.2710  -11.6490   -3.4690 C   0  0  0  0  0  0
   48.8340  -10.5280   -2.0510 Br  0  0  0  0  0  0
   46.9470  -12.0780   -3.6450 C   0  0  0  0  0  0
   45.8120  -11.6970   -2.6870 C   0  0  0  0  0  0
   46.7880  -12.9270   -4.7450 C   0  0  0  0  0  0
   45.4730  -13.4890   -5.2730 C   0  0  0  0  0  0
   45.0740  -13.1170   -6.3760 O   0  0  0  0  0  0
   44.7450  -14.3650   -4.5760 N   0  0  0  0  0  0
   43.4690  -14.9460   -5.0020 C   0  0  1  0  0  0
   43.7090  -16.4240   -5.3640 C   0  0  0  0  0  0
   42.6460  -14.8500   -3.7060 C   0  0  0  0  0  0
   43.6870  -14.8430   -2.5620 C   0  0  0  0  0  0
   45.0550  -14.9330   -3.2620 C   0  0  1  0  0  0
   45.4330  -16.4150   -3.4680 C   0  0  0  0  0  0
   44.2790  -17.1860   -4.1500 C   0  0  2  0  0  0
   44.7010  -18.6200   -4.5010 C   0  0  0  0  0  0
   45.2030  -18.9550   -5.7640 C   0  0  0  0  0  0
   44.5770  -19.6030   -3.5190 C   0  0  0  0  0  0
   44.0930  -19.2720   -2.3050 F   0  0  0  0  0  0
   44.9470  -20.9210   -3.7900 C   0  0  0  0  0  0
   45.4470  -21.2560   -5.0480 C   0  0  0  0  0  0
   45.5760  -20.2740   -6.0350 C   0  0  0  0  0  0
   46.1330  -20.6540   -7.4100 C   0  0  0  0  0  0
   45.0980  -20.4520   -8.4320 N   0  3  0  0  0  0
   50.4454   -8.3127   -7.3983 H   0  0  0  0  0  0
   50.3578   -9.9649   -8.0977 H   0  0  0  0  0  0
   51.8912   -9.3783   -7.3690 H   0  0  0  0  0  0
   50.7982   -9.2861   -5.1433 H   0  0  0  0  0  0
   49.2648   -9.8727   -5.8720 H   0  0  0  0  0  0
   50.3791  -11.9646   -6.5740 H   0  0  0  0  0  0
   51.9364  -11.3757   -5.8999 H   0  0  0  0  0  0
   46.1990  -11.0205   -1.9107 H   0  0  0  0  0  0
   45.4104  -12.6056   -2.2146 H   0  0  0  0  0  0
   45.0124  -11.1916   -3.2485 H   0  0  0  0  0  0
   43.0268  -14.4349   -5.8699 H   0  0  0  0  0  0
   42.7575  -16.8871   -5.6645 H   0  0  0  0  0  0
   44.4258  -16.4860   -6.1961 H   0  0  0  0  0  0
   42.0518  -13.9244   -3.7168 H   0  0  0  0  0  0
   41.9729  -15.7170   -3.6340 H   0  0  0  0  0  0
   43.5892  -13.9129   -1.9830 H   0  0  0  0  0  0
   43.5126  -15.7057   -1.9022 H   0  0  0  0  0  0
   45.8750  -14.4133   -2.7448 H   0  0  0  0  0  0
   46.3279  -16.4801   -4.1044 H   0  0  0  0  0  0
   45.6420  -16.8791   -2.4928 H   0  0  0  0  0  0
   43.4545  -17.2671   -3.4263 H   0  0  0  0  0  0
   45.3026  -18.1895   -6.5335 H   0  0  0  0  0  0
   44.8455  -21.6864   -3.0206 H   0  0  0  0  0  0
   45.7376  -22.2845   -5.2621 H   0  0  0  0  0  0
   47.0033  -20.0220   -7.6404 H   0  0  0  0  0  0
   46.4388  -21.7106   -7.4025 H   0  0  0  0  0  0
   45.4992  -20.7252   -9.4191 H   0  0  0  0  0  0
   44.7921  -19.3954   -8.4402 H   0  0  0  0  0  0
   44.2275  -21.0840   -8.2022 H   0  0  0  0  0  0
  1  2  1  0  0  0
  1 31  1  0  0  0
  1 32  1  0  0  0
  1 33  1  0  0  0
  2  3  1  0  0  0
  2 34  1  0  0  0
  2 35  1  0  0  0
  3  4  1  0  0  0
  3 36  1  0  0  0
  3 37  1  0  0  0
  4  5  1  0  0  0
  5  6  1  0  0  0
  5  7  2  0  0  0
  6 11  1  0  0  0
  7  8  1  0  0  0
  7  9  1  0  0  0
  9 10  1  0  0  0
  9 11  2  0  0  0
 10 38  1  0  0  0
 10 39  1  0  0  0
 10 40  1  0  0  0
 11 12  1  0  0  0
 12 13  2  0  0  0
 12 14  1  0  0  0
 14 15  1  0  0  0
 14 19  1  0  0  0
 15 16  1  0  0  0
 15 17  1  0  0  0
 15 41  1  0  0  0
 16 21  1  0  0  0
 16 42  1  0  0  0
 16 43  1  0  0  0
 17 18  1  0  0  0
 17 44  1  0  0  0
 17 45  1  0  0  0
 18 19  1  0  0  0
 18 46  1  0  0  0
 18 47  1  0  0  0
 19 20  1  0  0  0
 19 48  1  0  0  0
 20 21  1  0  0  0
 20 49  1  0  0  0
 20 50  1  0  0  0
 21 22  1  0  0  0
 21 51  1  0  0  0
 22 23  2  0  0  0
 22 24  1  0  0  0
 23 28  1  0  0  0
 23 52  1  0  0  0
 24 25  1  0  0  0
 24 26  2  0  0  0
 26 27  1  0  0  0
 26 53  1  0  0  0
 27 28  2  0  0  0
 27 54  1  0  0  0
 28 29  1  0  0  0
 29 30  1  0  0  0
 29 55  1  0  0  0
 29 56  1  0  0  0
 30 57  1  0  0  0
 30 58  1  0  0  0
 30 59  1  0  0  0
M  CHG  1  30   1
M  END
> <s_m_source_file>
../3v7t_ligand.sdf

> <i_m_source_file_index>
1

> <s_epik_input>
W0NIM11bQ0gyXVtDSDJdT2Mxc2MoYyhjMUJyKVtDSDNdKUMoPU8pTihbQ0BASF0yMylbQ0BASF0oW0NIMl1bQ0gyXTMpW0NIMl1bQ0BASF0oW0NIMl0yKWM0W2NIXWMoW0NIMl1bTkgzK10pW2NIXVtjSF1jNEY=

> <s_epik_cmdline>
J2VwaWtfYXBwJywgJy1pbWFlJywgJ2xpZ2FuZF9wcm8ubWFlJywgJy1vbWFlJywgJ2xpZ2FuZF9wcmVwLm1hZScsICctbXMnLCAnMScsICctcGgnLCAnNycsICctcGh0JywgJzAuNScsICctbnQn

> <r_epik_Ionization_Penalty>
  0.0274

> <r_epik_Ionization_Penalty_Charging>
  0.0274

> <r_epik_Ionization_Penalty_Neutral>
  0.0000

> <r_epik_State_Penalty>
  0.0225

> <r_epik_Charging_Adjusted_Penalty>
0.0498973326051758

> <i_epik_Tot_Q>
1

> <i_epik_Tot_abs_Q>
1

$$$$
