3v8s_ligand
                    3D
 Schrodinger Suite 2020-3.
 37 39  0  0  1  0            999 V2000
  -43.7130    0.2100   35.5230 C   0  0  0  0  0  0
  -46.4180    3.1460   30.6340 N   0  0  0  0  0  0
  -46.3030    3.1620   29.2010 C   0  0  0  0  0  0
  -45.5000    4.0420   27.0780 C   0  0  0  0  0  0
  -47.0350    2.1300   27.1010 C   0  0  0  0  0  0
  -47.0610    2.1930   28.4960 C   0  0  0  0  0  0
  -44.5190    4.3300   31.3050 O   0  0  0  0  0  0
  -45.5500    3.7450   31.5960 C   0  0  0  0  0  0
  -45.8990    3.6130   32.9650 N   0  0  0  0  0  0
  -45.0380    4.1810   33.9540 C   0  0  0  0  0  0
  -45.1920    3.6770   35.3450 C   0  0  0  0  0  0
  -45.0400    2.2120   35.5930 C   0  0  0  0  0  0
  -46.0920    1.4910   36.1420 C   0  0  0  0  0  0
  -45.9540    0.1280   36.3790 C   0  0  0  0  0  0
  -44.7630   -0.5140   36.0710 C   0  0  0  0  0  0
  -43.8470    1.5700   35.2820 C   0  0  0  0  0  0
  -45.5270    4.1080   28.4900 C   0  0  0  0  0  0
  -46.2530    3.0700   26.3880 C   0  0  0  0  0  0
  -46.0510    3.2760   25.0540 N   0  0  0  0  0  0
  -45.2200    4.2860   24.8570 N   0  3  0  0  0  0
  -44.8350    4.8030   26.0210 C   0  0  0  0  0  0
  -42.7770   -0.2931   35.2804 H   0  0  0  0  0  0
  -47.2591    2.6229   31.1125 H   0  0  0  0  0  0
  -47.6075    1.3694   26.5701 H   0  0  0  0  0  0
  -47.6748    1.4848   29.0526 H   0  0  0  0  0  0
  -46.8141    3.0846   33.2705 H   0  0  0  0  0  0
  -43.9898    3.9886   33.6817 H   0  0  0  0  0  0
  -45.2091    5.2662   34.0096 H   0  0  0  0  0  0
  -44.4393    4.1509   35.9921 H   0  0  0  0  0  0
  -46.1990    3.9213   35.7142 H   0  0  0  0  0  0
  -47.0272    1.9942   36.3875 H   0  0  0  0  0  0
  -46.7821   -0.4368   36.8071 H   0  0  0  0  0  0
  -44.6524   -1.5820   36.2585 H   0  0  0  0  0  0
  -43.0195    2.1330   34.8503 H   0  0  0  0  0  0
  -44.9607    4.8732   29.0210 H   0  0  0  0  0  0
  -44.1503    5.6395   26.1609 H   0  0  0  0  0  0
  -44.9462    4.5813   23.8334 H   0  0  0  0  0  0
  1 15  2  0  0  0
  1 16  1  0  0  0
  1 22  1  0  0  0
  2  3  1  0  0  0
  2  8  1  0  0  0
  2 23  1  0  0  0
  3  6  2  0  0  0
  3 17  1  0  0  0
  4 17  2  0  0  0
  4 18  1  0  0  0
  4 21  1  0  0  0
  5  6  1  0  0  0
  5 18  2  0  0  0
  5 24  1  0  0  0
  6 25  1  0  0  0
  7  8  2  0  0  0
  8  9  1  0  0  0
  9 10  1  0  0  0
  9 26  1  0  0  0
 10 11  1  0  0  0
 10 27  1  0  0  0
 10 28  1  0  0  0
 11 12  1  0  0  0
 11 29  1  0  0  0
 11 30  1  0  0  0
 12 13  1  0  0  0
 12 16  2  0  0  0
 13 14  2  0  0  0
 13 31  1  0  0  0
 14 15  1  0  0  0
 14 32  1  0  0  0
 15 33  1  0  0  0
 16 34  1  0  0  0
 17 35  1  0  0  0
 18 19  1  0  0  0
 19 20  1  0  0  0
 20 21  2  0  0  0
 20 37  1  0  0  0
 21 36  1  0  0  0
M  CHG  1  20   1
M  END
> <s_m_source_file>
../3v8s_ligand.sdf

> <i_m_source_file_index>
1

> <s_epik_input>
W2NIXTFbY0hdW2NIXVtjSF1bY0hdYzFbQ0gyXVtDSDJdW05IXUMoPU8pW05IXWMoW2NIXTIpW2NIXVtjSF1jKGMyMylbbkhdbltjSF0z

> <s_epik_cmdline>
J2VwaWtfYXBwJywgJy1pbWFlJywgJ2xpZ2FuZF9wcm8ubWFlJywgJy1vbWFlJywgJ2xpZ2FuZF9wcmVwLm1hZScsICctbXMnLCAnMScsICctcGgnLCAnNycsICctcGh0JywgJzAuNScsICctbnQn

> <r_epik_Ionization_Penalty>
  0.0000

> <r_epik_Ionization_Penalty_Charging>
  0.0000

> <r_epik_Ionization_Penalty_Neutral>
  0.0000

> <r_epik_State_Penalty>
  0.2064

> <r_epik_Charging_Adjusted_Penalty>
0.206445326200096

> <i_epik_Tot_Q>
1

> <i_epik_Tot_abs_Q>
1

$$$$
