3v8t_ligand
                    3D
 Schrodinger Suite 2020-3.
 45 48  0  0  1  0            999 V2000
  -49.3900  -18.1100   32.4560 C   0  0  0  0  0  0
  -50.1340  -16.9080   33.0390 C   0  0  0  0  0  0
  -51.6530  -17.0340   32.8670 C   0  0  0  0  0  0
  -52.3090  -15.8280   33.5540 C   0  0  0  0  0  0
  -53.8290  -15.9750   33.6420 C   0  0  0  0  0  0
  -52.1010  -18.2380   33.5080 O   0  0  0  0  0  0
  -52.0240  -17.0410   31.3690 C   0  0  0  0  0  0
  -51.5370  -16.0360   30.5260 C   0  0  0  0  0  0
  -52.8510  -18.0370   30.8330 C   0  0  0  0  0  0
  -53.1790  -18.0330   29.4710 C   0  0  0  0  0  0
  -52.6960  -17.0200   28.6390 C   0  0  0  0  0  0
  -52.8320  -16.7610   27.3360 C   0  0  0  0  0  0
  -51.8570  -16.0440   29.1650 C   0  0  0  0  0  0
  -51.5590  -15.2180   28.1690 N   0  3  0  0  0  0
  -52.1400  -15.6510   27.0490 C   0  0  0  0  0  0
  -52.0070  -15.0210   25.8070 C   0  0  0  0  0  0
  -51.2590  -13.9590   25.5000 N   0  3  0  0  0  0
  -51.3870  -13.6690   24.3010 N   0  0  0  0  0  0
  -52.2090  -14.5130   23.6650 C   0  0  0  0  0  0
  -52.7320  -14.7610   22.4410 C   0  0  0  0  0  0
  -52.6350  -15.4170   24.6420 C   0  0  0  0  0  0
  -53.6950  -16.5030   23.9020 S   0  0  0  0  0  0
  -53.5750  -15.8020   22.3880 C   0  0  0  0  0  0
  -54.3280  -16.2820   21.1450 C   0  0  0  0  0  0
  -54.0670  -15.4300   20.0860 F   0  0  0  0  0  0
  -53.9360  -17.5710   20.8240 F   0  0  0  0  0  0
  -48.3078  -17.9771   32.6013 H   0  0  0  0  0  0
  -49.6085  -18.1902   31.3809 H   0  0  0  0  0  0
  -49.7186  -19.0274   32.9664 H   0  0  0  0  0  0
  -49.9155  -16.8278   34.1141 H   0  0  0  0  0  0
  -49.8054  -15.9906   32.5286 H   0  0  0  0  0  0
  -51.9140  -15.7285   34.5758 H   0  0  0  0  0  0
  -52.0849  -14.9145   32.9837 H   0  0  0  0  0  0
  -54.2546  -15.0911   34.1396 H   0  0  0  0  0  0
  -54.0772  -16.8768   34.2209 H   0  0  0  0  0  0
  -54.2481  -16.0628   32.6288 H   0  0  0  0  0  0
  -51.9150  -18.3917   34.5812 H   0  0  0  0  0  0
  -50.9064  -15.2447   30.9314 H   0  0  0  0  0  0
  -53.2423  -18.8213   31.4810 H   0  0  0  0  0  0
  -53.8111  -18.8204   29.0604 H   0  0  0  0  0  0
  -53.3832  -17.2862   26.5421 H   0  0  0  0  0  0
  -52.4863  -14.1600   21.5654 H   0  0  0  0  0  0
  -55.4223  -16.3155   21.2516 H   0  0  0  0  0  0
  -50.9212  -14.3410   28.3539 H   0  0  0  0  0  0
  -50.6460  -13.4755   26.2749 H   0  0  0  0  0  0
  1  2  1  0  0  0
  1 27  1  0  0  0
  1 28  1  0  0  0
  1 29  1  0  0  0
  2  3  1  0  0  0
  2 30  1  0  0  0
  2 31  1  0  0  0
  3  4  1  0  0  0
  3  6  1  0  0  0
  3  7  1  0  0  0
  4  5  1  0  0  0
  4 32  1  0  0  0
  4 33  1  0  0  0
  5 34  1  0  0  0
  5 35  1  0  0  0
  5 36  1  0  0  0
  6 37  1  0  0  0
  7  8  2  0  0  0
  7  9  1  0  0  0
  8 13  1  0  0  0
  8 38  1  0  0  0
  9 10  2  0  0  0
  9 39  1  0  0  0
 10 11  1  0  0  0
 10 40  1  0  0  0
 11 12  1  0  0  0
 11 13  2  0  0  0
 12 15  2  0  0  0
 12 41  1  0  0  0
 13 14  1  0  0  0
 14 15  1  0  0  0
 14 44  1  0  0  0
 15 16  1  0  0  0
 16 17  2  0  0  0
 16 21  1  0  0  0
 17 18  1  0  0  0
 17 45  1  0  0  0
 18 19  1  0  0  0
 19 20  1  0  0  0
 19 21  2  0  0  0
 20 23  2  0  0  0
 20 42  1  0  0  0
 21 22  1  0  0  0
 22 23  1  0  0  0
 23 24  1  0  0  0
 24 25  1  0  0  0
 24 26  1  0  0  0
 24 43  1  0  0  0
M  CHG  2  14   1  17   1
M  END
> <s_m_source_file>
../3v8t_ligand.sdf

> <i_m_source_file_index>
1

> <s_epik_input>
W0NIM11bQ0gyXUMoW09IXSkoW0NIMl1bQ0gzXSljKFtjSF1bY0hdMSlbY0hdYyhjMTIpW25IXWMoW2NIXTIpLWMobltuSF0zKWMoYzM0KXNjKFtjSF00KVtDSF0oRilG

> <s_epik_cmdline>
J2VwaWtfYXBwJywgJy1pbWFlJywgJ2xpZ2FuZF9wcm8ubWFlJywgJy1vbWFlJywgJ2xpZ2FuZF9wcmVwLm1hZScsICctbXMnLCAnMScsICctcGgnLCAnNycsICctcGh0JywgJzAuNScsICctbnQn

> <r_epik_Ionization_Penalty>
  0.0000

> <r_epik_Ionization_Penalty_Charging>
  0.0000

> <r_epik_Ionization_Penalty_Neutral>
  0.0000

> <r_epik_State_Penalty>
  0.0245

> <r_epik_Charging_Adjusted_Penalty>
0.0244951208634042

> <i_epik_Tot_Q>
2

> <i_epik_Tot_abs_Q>
2

$$$$
