3v8w_ligand
                    3D
 Schrodinger Suite 2020-3.
 52 56  0  0  1  0            999 V2000
  -52.5750  -15.7470   35.1470 C   0  0  0  0  0  0
  -52.7790  -15.7760   33.6280 C   0  0  0  0  0  0
  -51.9360  -16.8660   32.9530 C   0  0  0  0  0  0
  -50.4450  -16.5520   33.1510 C   0  0  0  0  0  0
  -49.5510  -17.6280   32.5280 C   0  0  0  0  0  0
  -52.2320  -18.1320   33.5580 O   0  0  0  0  0  0
  -52.2810  -16.8910   31.4500 C   0  0  0  0  0  0
  -51.8020  -15.8850   30.6030 C   0  0  0  0  0  0
  -53.0900  -17.9040   30.9240 C   0  0  0  0  0  0
  -53.4050  -17.9220   29.5630 C   0  0  0  0  0  0
  -52.9250  -16.9130   28.7280 C   0  0  0  0  0  0
  -53.0500  -16.6840   27.4250 C   0  0  0  0  0  0
  -52.1080  -15.9120   29.2410 C   0  0  0  0  0  0
  -51.8060  -15.1030   28.2310 N   0  3  0  0  0  0
  -52.3720  -15.5750   27.1200 C   0  0  0  0  0  0
  -52.2590  -14.9910   25.8580 C   0  0  0  0  0  0
  -51.5150  -13.9520   25.4870 N   0  3  0  0  0  0
  -51.6770  -13.7130   24.2830 N   0  0  0  0  0  0
  -52.5260  -14.5700   23.7060 C   0  0  0  0  0  0
  -53.0930  -14.8600   22.5110 C   0  0  0  0  0  0
  -52.9280  -15.4250   24.7300 C   0  0  0  0  0  0
  -54.0140  -16.5180   24.0680 S   0  0  0  0  0  0
  -53.9410  -15.9020   22.5000 C   0  0  0  0  0  0
  -54.6970  -16.4130   21.4430 C   0  0  0  0  0  0
  -54.8150  -15.6870   20.2540 C   0  0  0  0  0  0
  -55.5840  -16.1820   19.1990 C   0  0  0  0  0  0
  -56.2430  -17.4040   19.3280 C   0  0  0  0  0  0
  -56.1370  -18.1300   20.5150 C   0  0  0  0  0  0
  -55.3680  -17.6340   21.5690 C   0  0  0  0  0  0
  -53.1972  -14.9529   35.5854 H   0  0  0  0  0  0
  -51.5164  -15.5492   35.3711 H   0  0  0  0  0  0
  -52.8650  -16.7182   35.5745 H   0  0  0  0  0  0
  -53.8376  -15.9738   33.4039 H   0  0  0  0  0  0
  -52.4890  -14.8048   33.2005 H   0  0  0  0  0  0
  -50.2073  -15.5881   32.6774 H   0  0  0  0  0  0
  -50.2215  -16.4970   34.2267 H   0  0  0  0  0  0
  -48.4950  -17.3668   32.6910 H   0  0  0  0  0  0
  -49.7508  -17.6906   31.4481 H   0  0  0  0  0  0
  -49.7651  -18.5995   32.9974 H   0  0  0  0  0  0
  -52.0444  -18.2862   34.6309 H   0  0  0  0  0  0
  -51.1892  -15.0793   31.0072 H   0  0  0  0  0  0
  -53.4768  -18.6839   31.5800 H   0  0  0  0  0  0
  -54.0235  -18.7215   29.1552 H   0  0  0  0  0  0
  -53.5869  -17.2343   26.6383 H   0  0  0  0  0  0
  -52.8746  -14.2830   21.6124 H   0  0  0  0  0  0
  -54.3041  -14.7298   20.1501 H   0  0  0  0  0  0
  -55.6693  -15.6125   18.2735 H   0  0  0  0  0  0
  -56.8402  -17.7917   18.5027 H   0  0  0  0  0  0
  -56.6544  -19.0837   20.6190 H   0  0  0  0  0  0
  -55.2898  -18.2017   22.4962 H   0  0  0  0  0  0
  -51.1804  -14.2152   28.4056 H   0  0  0  0  0  0
  -50.8763  -13.4420   26.2232 H   0  0  0  0  0  0
  1  2  1  0  0  0
  1 30  1  0  0  0
  1 31  1  0  0  0
  1 32  1  0  0  0
  2  3  1  0  0  0
  2 33  1  0  0  0
  2 34  1  0  0  0
  3  4  1  0  0  0
  3  6  1  0  0  0
  3  7  1  0  0  0
  4  5  1  0  0  0
  4 35  1  0  0  0
  4 36  1  0  0  0
  5 37  1  0  0  0
  5 38  1  0  0  0
  5 39  1  0  0  0
  6 40  1  0  0  0
  7  8  2  0  0  0
  7  9  1  0  0  0
  8 13  1  0  0  0
  8 41  1  0  0  0
  9 10  2  0  0  0
  9 42  1  0  0  0
 10 11  1  0  0  0
 10 43  1  0  0  0
 11 12  1  0  0  0
 11 13  2  0  0  0
 12 15  2  0  0  0
 12 44  1  0  0  0
 13 14  1  0  0  0
 14 15  1  0  0  0
 14 51  1  0  0  0
 15 16  1  0  0  0
 16 17  2  0  0  0
 16 21  1  0  0  0
 17 18  1  0  0  0
 17 52  1  0  0  0
 18 19  1  0  0  0
 19 20  1  0  0  0
 19 21  2  0  0  0
 20 23  2  0  0  0
 20 45  1  0  0  0
 21 22  1  0  0  0
 22 23  1  0  0  0
 23 24  1  0  0  0
 24 25  2  0  0  0
 24 29  1  0  0  0
 25 26  1  0  0  0
 25 46  1  0  0  0
 26 27  2  0  0  0
 26 47  1  0  0  0
 27 28  1  0  0  0
 27 48  1  0  0  0
 28 29  2  0  0  0
 28 49  1  0  0  0
 29 50  1  0  0  0
M  CHG  2  14   1  17   1
M  END
> <s_m_source_file>
../3v8w_ligand.sdf

> <i_m_source_file_index>
1

> <s_epik_input>
W0NIM11bQ0gyXUMoW09IXSkoW0NIMl1bQ0gzXSljKFtjSF1bY0hdMSlbY0hdYyhjMTIpW25IXWMoW2NIXTIpLWMobltuSF0zKWMoYzM0KXNjKFtjSF00KS1jNVtjSF1bY0hdW2NIXVtjSF1bY0hdNQ==

> <s_epik_cmdline>
J2VwaWtfYXBwJywgJy1pbWFlJywgJ2xpZ2FuZF9wcm8ubWFlJywgJy1vbWFlJywgJ2xpZ2FuZF9wcmVwLm1hZScsICctbXMnLCAnMScsICctcGgnLCAnNycsICctcGh0JywgJzAuNScsICctbnQn

> <r_epik_Ionization_Penalty>
  0.0000

> <r_epik_Ionization_Penalty_Charging>
  0.0000

> <r_epik_Ionization_Penalty_Neutral>
  0.0000

> <r_epik_State_Penalty>
  0.0334

> <r_epik_Charging_Adjusted_Penalty>
0.0333830262755158

> <i_epik_Tot_Q>
2

> <i_epik_Tot_abs_Q>
2

$$$$
