3v9b_ligand
                    3D
 Schrodinger Suite 2020-3.
 67 71  0  0  1  0            999 V2000
   22.0370   -4.2780   32.7590 C   0  0  0  0  0  0
   21.7330   -3.0170   32.0400 C   0  0  0  0  0  0
   21.4470   -3.0270   30.6450 C   0  0  0  0  0  0
   21.4500   -4.2800   29.9280 C   0  0  0  0  0  0
   21.7360   -5.5000   30.6160 C   0  0  0  0  0  0
   22.0280   -5.5250   32.0140 C   0  0  0  0  0  0
   22.3520   -4.3750   34.1410 O   0  0  0  0  0  0
   22.4370   -3.2780   35.0400 C   0  0  0  0  0  0
   21.2610   -2.5950   35.1890 F   0  0  0  0  0  0
   23.4030   -2.4000   34.5850 F   0  0  0  0  0  0
   22.3230   -6.6530   32.7530 O   0  0  0  0  0  0
   22.9330   -7.7620   32.0400 C   0  0  0  0  0  0
   23.1440   -8.8430   33.0390 C   0  0  0  0  0  0
   21.8400   -9.4940   33.4440 C   0  0  0  0  0  0
   23.0720  -10.2930   33.0350 C   0  0  0  0  0  0
   21.1720   -4.3070   28.4470 C   0  0  1  0  0  0
   19.0310   -4.2710   22.5600 O   0  5  0  0  0  0
   22.9210   -5.6760   27.1440 C   0  0  0  0  0  0
   22.9780   -6.9990   26.6710 C   0  0  0  0  0  0
   21.7090   -7.5970   27.0760 C   0  0  0  0  0  0
   20.9700   -6.6710   27.7470 N   0  0  0  0  0  0
   21.6750   -5.5350   27.7910 N   0  0  0  0  0  0
   21.2320   -8.9660   26.8300 C   0  0  0  0  0  0
   19.9250   -9.3210   27.3240 C   0  0  0  0  0  0
   19.3710  -10.6550   27.1110 C   0  0  0  0  0  0
   20.1710  -11.6430   26.3800 C   0  0  0  0  0  0
   21.4890  -11.2840   25.8860 C   0  0  0  0  0  0
   22.0260   -9.9540   26.1020 C   0  0  0  0  0  0
   18.0770  -10.9240   27.6210 N   0  0  0  0  0  0
   16.8890  -10.1890   27.4710 C   0  0  0  0  0  0
   16.8000   -9.1150   26.8220 O   0  0  0  0  0  0
   19.6310   -4.0670   28.1340 C   0  0  0  0  0  0
   15.6810  -10.7780   28.1600 C   0  0  0  0  0  0
   19.4630   -4.1050   26.6450 C   0  0  0  0  0  0
   20.0870   -3.1000   25.7970 C   0  0  0  0  0  0
   19.9260   -3.1690   24.3920 C   0  0  0  0  0  0
   19.1570   -4.2170   23.7870 N   0  3  0  0  0  0
   18.5390   -5.2070   24.6280 C   0  0  0  0  0  0
   18.6840   -5.1590   26.0370 C   0  0  0  0  0  0
   21.7284   -2.0730   32.5849 H   0  0  0  0  0  0
   21.2275   -2.0958   30.1227 H   0  0  0  0  0  0
   21.7311   -6.4367   30.0586 H   0  0  0  0  0  0
   22.6820   -3.6633   36.0407 H   0  0  0  0  0  0
   22.2600   -8.0958   31.2365 H   0  0  0  0  0  0
   23.8898   -7.4367   31.6055 H   0  0  0  0  0  0
   24.0261   -8.2761   33.3714 H   0  0  0  0  0  0
   21.5875   -9.1998   34.4734 H   0  0  0  0  0  0
   21.0402   -9.1679   32.7628 H   0  0  0  0  0  0
   23.2734  -10.6673   32.0204 H   0  0  0  0  0  0
   23.8207  -10.6992   33.7310 H   0  0  0  0  0  0
   21.8016   -3.5109   28.0229 H   0  0  0  0  0  0
   23.6884   -4.9100   27.0327 H   0  0  0  0  0  0
   23.7913   -7.4740   26.1223 H   0  0  0  0  0  0
   19.3391   -8.5793   27.8669 H   0  0  0  0  0  0
   19.7774  -12.6447   26.2077 H   0  0  0  0  0  0
   22.0815  -12.0229   25.3465 H   0  0  0  0  0  0
   23.0146   -9.6932   25.7241 H   0  0  0  0  0  0
   17.9024  -11.8218   28.2322 H   0  0  0  0  0  0
   19.0328   -4.8586   28.6088 H   0  0  0  0  0  0
   19.3244   -3.0879   28.5307 H   0  0  0  0  0  0
   15.9672  -11.7106   28.6682 H   0  0  0  0  0  0
   14.9012  -10.9913   27.4141 H   0  0  0  0  0  0
   15.2948  -10.0611   28.8995 H   0  0  0  0  0  0
   20.6757   -2.2977   26.2417 H   0  0  0  0  0  0
   20.3939   -2.4137   23.7606 H   0  0  0  0  0  0
   17.9509   -6.0053   24.1752 H   0  0  0  0  0  0
   18.2086   -5.9159   26.6609 H   0  0  0  0  0  0
  1  2  2  0  0  0
  1  6  1  0  0  0
  1  7  1  0  0  0
  2  3  1  0  0  0
  2 40  1  0  0  0
  3  4  2  0  0  0
  3 41  1  0  0  0
  4  5  1  0  0  0
  4 16  1  0  0  0
  5  6  2  0  0  0
  5 42  1  0  0  0
  6 11  1  0  0  0
  7  8  1  0  0  0
  8  9  1  0  0  0
  8 10  1  0  0  0
  8 43  1  0  0  0
 11 12  1  0  0  0
 12 13  1  0  0  0
 12 44  1  0  0  0
 12 45  1  0  0  0
 13 14  1  0  0  0
 13 15  1  0  0  0
 13 46  1  0  0  0
 14 15  1  0  0  0
 14 47  1  0  0  0
 14 48  1  0  0  0
 15 49  1  0  0  0
 15 50  1  0  0  0
 16 22  1  0  0  0
 16 32  1  0  0  0
 16 51  1  0  0  0
 17 37  1  0  0  0
 18 19  2  0  0  0
 18 22  1  0  0  0
 18 52  1  0  0  0
 19 20  1  0  0  0
 19 53  1  0  0  0
 20 21  2  0  0  0
 20 23  1  0  0  0
 21 22  1  0  0  0
 23 24  2  0  0  0
 23 28  1  0  0  0
 24 25  1  0  0  0
 24 54  1  0  0  0
 25 26  2  0  0  0
 25 29  1  0  0  0
 26 27  1  0  0  0
 26 55  1  0  0  0
 27 28  2  0  0  0
 27 56  1  0  0  0
 28 57  1  0  0  0
 29 30  1  0  0  0
 29 58  1  0  0  0
 30 31  2  0  0  0
 30 33  1  0  0  0
 32 34  1  0  0  0
 32 59  1  0  0  0
 32 60  1  0  0  0
 33 61  1  0  0  0
 33 62  1  0  0  0
 33 63  1  0  0  0
 34 35  2  0  0  0
 34 39  1  0  0  0
 35 36  1  0  0  0
 35 64  1  0  0  0
 36 37  2  0  0  0
 36 65  1  0  0  0
 37 38  1  0  0  0
 38 39  2  0  0  0
 38 66  1  0  0  0
 39 67  1  0  0  0
M  CHG  2  17  -1  37   1
M  END
> <s_m_source_file>
../3v9b_ligand.sdf

> <i_m_source_file_index>
1

> <s_epik_input>
W0NIMl0xW0NIMl1bQ0hdMVtDSDJdT2MyW2NIXWMoW2NIXVtjSF1jMk9bQ0hdKEYpRilbQ0BIXShbQ0gyXWMzW2NIXVtjSF1bbitdKFtPLV0pW2NIXVtjSF0zKW4objQpW2NIXVtjSF1jNC1jNVtjSF1jKFtjSF1bY0hdW2NIXTUpW05IXUMoPU8pW0NIM10=

> <s_epik_cmdline>
J2VwaWtfYXBwJywgJy1pbWFlJywgJ2xpZ2FuZF9wcm8ubWFlJywgJy1vbWFlJywgJ2xpZ2FuZF9wcmVwLm1hZScsICctbXMnLCAnMScsICctcGgnLCAnNycsICctcGh0JywgJzAuNScsICctbnQn

> <r_lp_tautomer_probability>
1

> <r_epik_Ionization_Penalty>
  0.0000

> <r_epik_Ionization_Penalty_Charging>
  0.0000

> <r_epik_Ionization_Penalty_Neutral>
  0.0000

> <r_epik_State_Penalty>
 -0.0000

> <r_epik_Charging_Adjusted_Penalty>
1.24995283276689e-06

> <i_epik_Tot_Q>
0

> <i_epik_Tot_abs_Q>
2

$$$$
