3va4_ligand
                    3D
 Schrodinger Suite 2020-3.
130130  0  0  1  0            999 V2000
   20.2430   14.6770   -6.7810 N   0  3  0  0  0  0
   19.7290   14.7750   -5.3770 C   0  0  2  0  0  0
   18.4590   15.7250   -5.3500 C   0  0  0  0  0  0
   18.4530   16.7570   -6.0520 O   0  0  0  0  0  0
   20.9060   15.2230   -4.4230 C   0  0  0  0  0  0
   20.4670   15.3470   -2.9450 C   0  0  0  0  0  0
   22.1670   14.2960   -4.5370 C   0  0  0  0  0  0
   17.3650   15.3660   -4.6300 N   0  0  0  0  0  0
   16.2220   16.3190   -4.4110 C   0  0  2  0  0  0
   16.3310   16.9140   -3.0580 C   0  0  0  0  0  0
   17.1940   16.4990   -2.2780 O   0  0  0  0  0  0
   14.8480   15.6390   -4.4660 C   0  0  0  0  0  0
   14.9480   14.4650   -5.2090 O   0  0  0  0  0  0
   15.4240   17.8630   -2.7450 N   0  0  0  0  0  0
   15.5110   18.5460   -1.4970 C   0  0  1  0  0  0
   14.6160   19.7970   -1.6130 C   0  0  1  0  0  0
   14.7640   20.6780   -0.4030 C   0  0  0  0  0  0
   14.9940   20.5020   -2.8120 O   0  0  0  0  0  0
   13.9410   20.7030   -3.9700 P   0  0  0  0  0  0
   13.5150   19.2440   -4.3400 O   0  5  0  0  0  0
   12.7580   21.4560   -3.4970 O   0  0  0  0  0  0
   14.7770   21.3220   -5.0540 O   0  5  0  0  0  0
   15.1190   17.6490   -0.4020 C   0  0  0  0  0  0
   14.1540   16.8550   -0.5630 O   0  0  0  0  0  0
   15.8250   17.7820    0.7510 N   0  0  0  0  0  0
   15.4980   17.0020    1.9530 C   0  0  2  0  0  0
   14.4010   17.6740    2.7300 C   0  0  0  0  0  0
   14.5330   18.8630    3.1090 O   0  0  0  0  0  0
   16.7740   16.7680    2.8220 C   0  0  0  0  0  0
   16.4780   16.3370    4.2330 C   0  0  0  0  0  0
   17.7290   16.3520    5.0920 C   0  0  0  0  0  0
   17.7490   16.9590    6.1840 O   0  0  0  0  0  0
   18.8080   15.6880    4.6000 N   0  0  0  0  0  0
   13.2840   16.9690    2.9340 N   0  0  0  0  0  0
   12.2360   17.5110    3.8110 C   0  0  2  0  0  0
   12.6320   17.6140    5.2710 C   0  0  0  0  0  0
   13.2900   16.7060    5.8020 O   0  0  0  0  0  0
   10.9690   16.6360    3.7100 C   0  0  0  0  0  0
    9.7400   17.1780    4.4360 C   0  0  0  0  0  0
    8.5790   16.1870    4.3920 C   0  0  0  0  0  0
    8.6200   15.2110    3.5860 O   0  5  0  0  0  0
    7.6790   16.3400    5.2270 O   0  0  0  0  0  0
   12.2040   18.6880    5.9260 N   0  0  0  0  0  0
   12.4500   18.8520    7.3260 C   0  0  2  0  0  0
   11.2790   18.2210    8.0670 C   0  0  0  0  0  0
   10.1010   18.4890    7.7290 O   0  0  0  0  0  0
   12.4760   20.3190    7.7460 C   0  0  0  0  0  0
   13.7580   20.9910    7.2080 C   0  0  0  0  0  0
   13.6450   22.5270    7.4870 C   0  0  0  0  0  0
   15.0460   20.4640    7.8230 C   0  0  0  0  0  0
   11.5810   17.4230    9.0760 N   0  0  0  0  0  0
   10.4990   16.8480    9.8540 C   0  0  2  0  0  0
   10.7370   17.1690   11.3170 C   0  0  0  0  0  0
   10.6480   18.3400   11.7120 O   0  0  0  0  0  0
   10.3180   15.3290    9.6300 C   0  0  0  0  0  0
   10.7740   14.7010    8.3030 C   0  0  0  0  0  0
    9.8460   14.4110    7.2600 C   0  0  0  0  0  0
   12.1310   14.3130    8.1220 C   0  0  0  0  0  0
   10.2650   13.8000    6.0570 C   0  0  0  0  0  0
   12.5730   13.7100    6.9350 C   0  0  0  0  0  0
   11.6500   13.4440    5.8970 C   0  0  0  0  0  0
   12.1180   12.8000    4.7230 O   0  0  0  0  0  0
   11.0220   16.1290   12.1130 N   0  0  0  0  0  0
   11.3620   16.2540   13.5470 C   0  0  2  0  0  0
   12.7350   15.6480   13.6820 C   0  0  0  0  0  0
   13.2150   15.0230   12.7310 O   0  0  0  0  0  0
   10.3640   15.5060   14.4720 C   0  0  0  0  0  0
    9.2060   16.2850   14.7700 O   0  0  0  0  0  0
   13.3550   15.7880   14.7410 O   0  5  0  0  0  0
   19.4268   14.3652   -7.4493 H   0  0  0  0  0  0
   21.0549   13.9360   -6.8233 H   0  0  0  0  0  0
   20.6246   15.6578   -7.1010 H   0  0  0  0  0  0
   19.4053   13.7753   -5.0517 H   0  0  0  0  0  0
   21.1924   16.2322   -4.7538 H   0  0  0  0  0  0
   19.5832   15.9985   -2.8785 H   0  0  0  0  0  0
   21.2873   15.7803   -2.3540 H   0  0  0  0  0  0
   20.2183   14.3503   -2.5516 H   0  0  0  0  0  0
   22.4690   14.2159   -5.5917 H   0  0  0  0  0  0
   21.9234   13.2962   -4.1484 H   0  0  0  0  0  0
   22.9925   14.7261   -3.9508 H   0  0  0  0  0  0
   17.3261   14.3531   -4.2028 H   0  0  0  0  0  0
   16.3113   17.0791   -5.2011 H   0  0  0  0  0  0
   14.5148   15.4025   -3.4447 H   0  0  0  0  0  0
   14.1226   16.3160   -4.9408 H   0  0  0  0  0  0
   14.0604   13.8336   -5.3618 H   0  0  0  0  0  0
   14.6181   18.1096   -3.4519 H   0  0  0  0  0  0
   16.5619   18.7976   -1.2913 H   0  0  0  0  0  0
   13.5494   19.5455   -1.7083 H   0  0  0  0  0  0
   14.4699   20.1176    0.4967 H   0  0  0  0  0  0
   14.1183   21.5619   -0.5118 H   0  0  0  0  0  0
   15.8120   20.9988   -0.3090 H   0  0  0  0  0  0
   16.6610   18.4967    0.7697 H   0  0  0  0  0  0
   15.0980   16.0393    1.6020 H   0  0  0  0  0  0
   17.3908   15.9812    2.3632 H   0  0  0  0  0  0
   17.3538   17.7009    2.8807 H   0  0  0  0  0  0
   15.7411   17.0215    4.6785 H   0  0  0  0  0  0
   16.0719   15.3147    4.2266 H   0  0  0  0  0  0
   18.7400   15.1684    3.6328 H   0  0  0  0  0  0
   19.7493   15.6702    5.1690 H   0  0  0  0  0  0
   13.1455   15.9902    2.4515 H   0  0  0  0  0  0
   12.0980   18.5356    3.4352 H   0  0  0  0  0  0
   10.6831   16.5254    2.6536 H   0  0  0  0  0  0
   11.1729   15.6444    4.1404 H   0  0  0  0  0  0
    9.9919   17.3713    5.4892 H   0  0  0  0  0  0
    9.4155   18.1145    3.9588 H   0  0  0  0  0  0
   11.6507   19.4597    5.3707 H   0  0  0  0  0  0
   13.4288   18.3791    7.4942 H   0  0  0  0  0  0
   11.5946   20.8335    7.3357 H   0  0  0  0  0  0
   12.4619   20.3864    8.8438 H   0  0  0  0  0  0
   13.8378   20.7397    6.1401 H   0  0  0  0  0  0
   12.7149   22.9127    7.0440 H   0  0  0  0  0  0
   14.5063   23.0451    7.0402 H   0  0  0  0  0  0
   13.6343   22.7026    8.5728 H   0  0  0  0  0  0
   15.1298   19.3844    7.6294 H   0  0  0  0  0  0
   15.0337   20.6420    8.9084 H   0  0  0  0  0  0
   15.9056   20.9846    7.3758 H   0  0  0  0  0  0
   12.6256   17.1913    9.3314 H   0  0  0  0  0  0
    9.5896   17.3454    9.4859 H   0  0  0  0  0  0
   10.8779   14.7758   10.3984 H   0  0  0  0  0  0
    9.2504   15.0729    9.6986 H   0  0  0  0  0  0
    8.7945   14.6653    7.3932 H   0  0  0  0  0  0
   12.8454   14.4888    8.9263 H   0  0  0  0  0  0
    9.5483   13.6008    5.2603 H   0  0  0  0  0  0
   13.6239   13.4475    6.8132 H   0  0  0  0  0  0
   11.4210   12.5814    3.9005 H   0  0  0  0  0  0
   10.9922   15.1367   11.6393 H   0  0  0  0  0  0
   11.3368   17.3202   13.8166 H   0  0  0  0  0  0
   10.0317   14.5799   13.9801 H   0  0  0  0  0  0
   10.8596   15.2589   15.4224 H   0  0  0  0  0  0
    8.4174   15.8729   15.4167 H   0  0  0  0  0  0
  1  2  1  0  0  0
  1 70  1  0  0  0
  1 71  1  0  0  0
  1 72  1  0  0  0
  2  3  1  0  0  0
  2  5  1  0  0  0
  2 73  1  0  0  0
  3  4  2  0  0  0
  3  8  1  0  0  0
  5  6  1  0  0  0
  5  7  1  0  0  0
  5 74  1  0  0  0
  6 75  1  0  0  0
  6 76  1  0  0  0
  6 77  1  0  0  0
  7 78  1  0  0  0
  7 79  1  0  0  0
  7 80  1  0  0  0
  8  9  1  0  0  0
  8 81  1  0  0  0
  9 10  1  0  0  0
  9 12  1  0  0  0
  9 82  1  0  0  0
 10 11  2  0  0  0
 10 14  1  0  0  0
 12 13  1  0  0  0
 12 83  1  0  0  0
 12 84  1  0  0  0
 13 85  1  0  0  0
 14 15  1  0  0  0
 14 86  1  0  0  0
 15 16  1  0  0  0
 15 23  1  0  0  0
 15 87  1  0  0  0
 16 17  1  0  0  0
 16 18  1  0  0  0
 16 88  1  0  0  0
 17 89  1  0  0  0
 17 90  1  0  0  0
 17 91  1  0  0  0
 18 19  1  0  0  0
 19 20  1  0  0  0
 19 21  2  0  0  0
 19 22  1  0  0  0
 23 24  2  0  0  0
 23 25  1  0  0  0
 25 26  1  0  0  0
 25 92  1  0  0  0
 26 27  1  0  0  0
 26 29  1  0  0  0
 26 93  1  0  0  0
 27 28  2  0  0  0
 27 34  1  0  0  0
 29 30  1  0  0  0
 29 94  1  0  0  0
 29 95  1  0  0  0
 30 31  1  0  0  0
 30 96  1  0  0  0
 30 97  1  0  0  0
 31 32  2  0  0  0
 31 33  1  0  0  0
 33 98  1  0  0  0
 33 99  1  0  0  0
 34 35  1  0  0  0
 34100  1  0  0  0
 35 36  1  0  0  0
 35 38  1  0  0  0
 35101  1  0  0  0
 36 37  2  0  0  0
 36 43  1  0  0  0
 38 39  1  0  0  0
 38102  1  0  0  0
 38103  1  0  0  0
 39 40  1  0  0  0
 39104  1  0  0  0
 39105  1  0  0  0
 40 41  1  0  0  0
 40 42  2  0  0  0
 43 44  1  0  0  0
 43106  1  0  0  0
 44 45  1  0  0  0
 44 47  1  0  0  0
 44107  1  0  0  0
 45 46  2  0  0  0
 45 51  1  0  0  0
 47 48  1  0  0  0
 47108  1  0  0  0
 47109  1  0  0  0
 48 49  1  0  0  0
 48 50  1  0  0  0
 48110  1  0  0  0
 49111  1  0  0  0
 49112  1  0  0  0
 49113  1  0  0  0
 50114  1  0  0  0
 50115  1  0  0  0
 50116  1  0  0  0
 51 52  1  0  0  0
 51117  1  0  0  0
 52 53  1  0  0  0
 52 55  1  0  0  0
 52118  1  0  0  0
 53 54  2  0  0  0
 53 63  1  0  0  0
 55 56  1  0  0  0
 55119  1  0  0  0
 55120  1  0  0  0
 56 57  2  0  0  0
 56 58  1  0  0  0
 57 59  1  0  0  0
 57121  1  0  0  0
 58 60  2  0  0  0
 58122  1  0  0  0
 59 61  2  0  0  0
 59123  1  0  0  0
 60 61  1  0  0  0
 60124  1  0  0  0
 61 62  1  0  0  0
 62125  1  0  0  0
 63 64  1  0  0  0
 63126  1  0  0  0
 64 65  1  0  0  0
 64 67  1  0  0  0
 64127  1  0  0  0
 65 66  2  0  0  0
 65 69  1  0  0  0
 67 68  1  0  0  0
 67128  1  0  0  0
 67129  1  0  0  0
 68130  1  0  0  0
M  CHG  5   1   1  20  -1  22  -1  41  -1  69  -1
M  END
> <s_m_source_file>
../3va4_ligand.sdf

> <i_m_source_file_index>
1

> <s_epik_input>
W0NIM11bQ0hdKFtDSDNdKVtDQEhdKFtOSDMrXSlDKD1PKVtOSF1bQ0BASF0oW0NIMl1bT0hdKUMoPU8pW05IXVtDQEBIXShbQ0BASF0oW0NIM10pT1AoPU8pKFtPSF0pW09IXSlDKD1PKVtOSF1bQ0BASF0oW0NIMl1bQ0gyXUMoPU8pW05IMl0pQyg9TylbTkhdW0NAQEhdKFtDSDJdW0NIMl1DKD1PKVtPSF0pQyg9TylbTkhdW0NAQEhdKFtDSDJdW0NIXShbQ0gzXSlbQ0gzXSlDKD1PKVtOSF1bQ0BIXShDKD1PKVtOSF1bQ0BIXShDKD1PKVtPSF0pW0NIMl1bT0hdKVtDSDJdYzFbY0hdW2NIXWMoW09IXSlbY0hdW2NIXTE=

> <s_epik_cmdline>
J2VwaWtfYXBwJywgJy1pbWFlJywgJ2xpZ2FuZF9wcm8ubWFlJywgJy1vbWFlJywgJ2xpZ2FuZF9wcmVwLm1hZScsICctbXMnLCAnMScsICctcGgnLCAnNycsICctcGh0JywgJzAuNScsICctbnQn

> <r_lp_tautomer_probability>
0.999999999997365

> <r_epik_Ionization_Penalty>
  0.1806

> <r_epik_Ionization_Penalty_Charging>
  0.1798

> <r_epik_Ionization_Penalty_Neutral>
  0.0009

> <r_epik_State_Penalty>
  0.1494

> <r_epik_Charging_Adjusted_Penalty>
0.329229003435794

> <i_epik_Tot_Q>
-3

> <i_epik_Tot_abs_Q>
5

$$$$
