3vap_ligand
                    3D
 Schrodinger Suite 2020-3.
 70 75  0  0  1  0            999 V2000
    9.7650   24.4620    5.5840 C   0  0  0  0  0  0
    2.3940   35.8260    4.9610 C   0  0  0  0  0  0
    7.3380   29.1230    9.3820 C   0  0  0  0  0  0
    8.5590   29.9720    7.7370 C   0  0  0  0  0  0
    9.8050   23.1890    4.9920 C   0  0  0  0  0  0
   12.1970   23.1590    5.1710 C   0  0  0  0  0  0
    5.7560   32.0320    8.9780 C   0  0  0  0  0  0
    7.3680   30.1210    8.4410 C   0  0  0  0  0  0
   10.9960   25.0890    5.9840 C   0  0  0  0  0  0
   12.2440   24.3790    5.7520 C   0  0  0  0  0  0
    6.4080   31.1670    8.1410 C   0  0  0  0  0  0
    1.9280   36.1660    3.6520 C   0  0  0  0  0  0
    3.2030   34.7300    4.8330 C   0  0  0  0  0  0
    5.1680   32.5230    6.9140 C   0  0  0  0  0  0
    6.2650   30.8280    5.5900 C   0  0  0  0  0  0
    4.6740   33.0930    5.7140 C   0  0  0  0  0  0
    5.7200   31.3930    4.4940 C   0  0  0  0  0  0
    9.9730   27.1620    6.9330 C   0  0  0  0  0  0
    3.2330   39.6030    1.1670 C   0  0  0  0  0  0
    2.1350   39.9810    0.1350 C   0  0  0  0  0  0
    2.6170   39.0780    2.4840 C   0  0  0  0  0  0
    0.4640   38.6600    1.3870 C   0  0  0  0  0  0
    0.9720   38.9430   -0.0220 C   0  0  2  0  0  0
    6.0990   30.9290    3.1290 C   0  0  0  0  0  0
    1.1800   37.6040   -0.7900 C   0  0  0  0  0  0
    1.0780   37.3240    3.3970 C   0  0  0  0  0  0
   10.3670   28.3090    7.8390 C   0  0  0  0  0  0
    8.4290   28.3490    9.2640 N   0  0  0  0  0  0
    2.3520   35.4420    2.5990 N   0  0  0  0  0  0
    4.9700   32.5370    4.5400 N   0  0  0  0  0  0
    9.1310   28.9020    8.2810 N   0  0  0  0  0  0
    5.9480   31.4210    6.8410 N   0  0  0  0  0  0
   11.0000   22.6330    4.8150 N   0  0  0  0  0  0
    5.0830   32.8690    8.1780 N   0  0  0  0  0  0
   11.0540   26.3840    6.5700 N   0  0  0  0  0  0
    3.8110   34.1780    5.8820 N   0  0  0  0  0  0
    1.5670   38.0580    2.1950 N   0  3  2  0  0  0
    8.8160   26.9910    6.5910 O   0  0  0  0  0  0
   13.5110   24.8080    6.0590 F   0  0  0  0  0  0
    3.3980   34.2750    3.0950 S   0  0  0  0  0  0
    8.8124   24.9687    5.7384 H   0  0  0  0  0  0
    2.1499   36.3440    5.8885 H   0  0  0  0  0  0
    6.5457   28.9796   10.1167 H   0  0  0  0  0  0
    8.9372   30.5918    6.9240 H   0  0  0  0  0  0
    8.8918   22.6766    4.6893 H   0  0  0  0  0  0
   13.1163   22.6020    4.9901 H   0  0  0  0  0  0
    5.7797   32.0382   10.0677 H   0  0  0  0  0  0
    6.9176   29.9578    5.5194 H   0  0  0  0  0  0
    3.8765   38.8164    0.7461 H   0  0  0  0  0  0
    3.8412   40.4903    1.3969 H   0  0  0  0  0  0
    1.6656   40.9309    0.4304 H   0  0  0  0  0  0
    2.5897   40.0908   -0.8606 H   0  0  0  0  0  0
    3.4043   38.6180    3.0993 H   0  0  0  0  0  0
    2.1626   39.9144    3.0353 H   0  0  0  0  0  0
    0.1350   39.6001    1.8539 H   0  0  0  0  0  0
   -0.3825   37.9592    1.3378 H   0  0  0  0  0  0
    0.2487   39.4325   -0.6908 H   0  0  0  0  0  0
    6.6961   30.0085    3.2073 H   0  0  0  0  0  0
    6.6914   31.7088    2.6280 H   0  0  0  0  0  0
    5.1892   30.7273    2.5445 H   0  0  0  0  0  0
    1.5464   37.8167   -1.8051 H   0  0  0  0  0  0
    0.2237   37.0639   -0.8510 H   0  0  0  0  0  0
    1.9168   36.9858   -0.2562 H   0  0  0  0  0  0
    0.0449   36.9891    3.2220 H   0  0  0  0  0  0
    1.1031   37.9961    4.2674 H   0  0  0  0  0  0
   10.9501   27.9222    8.6878 H   0  0  0  0  0  0
   10.9760   29.0300    7.2740 H   0  0  0  0  0  0
   12.0282   26.8528    6.7728 H   0  0  0  0  0  0
    3.6352   34.5765    6.8921 H   0  0  0  0  0  0
    2.0461   37.2731    1.5913 H   0  0  0  0  0  0
  1  5  2  0  0  0
  1  9  1  0  0  0
  1 41  1  0  0  0
  2 12  1  0  0  0
  2 13  2  0  0  0
  2 42  1  0  0  0
  3  8  1  0  0  0
  3 28  2  0  0  0
  3 43  1  0  0  0
  4  8  2  0  0  0
  4 31  1  0  0  0
  4 44  1  0  0  0
  5 33  1  0  0  0
  5 45  1  0  0  0
  6 10  1  0  0  0
  6 33  2  0  0  0
  6 46  1  0  0  0
  7 11  2  0  0  0
  7 34  1  0  0  0
  7 47  1  0  0  0
  8 11  1  0  0  0
  9 10  2  0  0  0
  9 35  1  0  0  0
 10 39  1  0  0  0
 11 32  1  0  0  0
 12 26  1  0  0  0
 12 29  2  0  0  0
 13 36  1  0  0  0
 13 40  1  0  0  0
 14 16  1  0  0  0
 14 32  1  0  0  0
 14 34  2  0  0  0
 15 17  2  0  0  0
 15 32  1  0  0  0
 15 48  1  0  0  0
 16 30  2  0  0  0
 16 36  1  0  0  0
 17 24  1  0  0  0
 17 30  1  0  0  0
 18 27  1  0  0  0
 18 35  1  0  0  0
 18 38  2  0  0  0
 19 20  1  0  0  0
 19 21  1  0  0  0
 19 49  1  0  0  0
 19 50  1  0  0  0
 20 23  1  0  0  0
 20 51  1  0  0  0
 20 52  1  0  0  0
 21 37  1  0  0  0
 21 53  1  0  0  0
 21 54  1  0  0  0
 22 23  1  0  0  0
 22 37  1  0  0  0
 22 55  1  0  0  0
 22 56  1  0  0  0
 23 25  1  0  0  0
 23 57  1  0  0  0
 24 58  1  0  0  0
 24 59  1  0  0  0
 24 60  1  0  0  0
 25 61  1  0  0  0
 25 62  1  0  0  0
 25 63  1  0  0  0
 26 37  1  0  0  0
 26 64  1  0  0  0
 26 65  1  0  0  0
 27 31  1  0  0  0
 27 66  1  0  0  0
 27 67  1  0  0  0
 28 31  1  0  0  0
 29 40  1  0  0  0
 35 68  1  0  0  0
 36 69  1  0  0  0
 37 70  1  0  0  0
M  CHG  1  37   1
M  END
> <s_m_source_file>
../3vap_ligand.sdf

> <i_m_source_file_index>
1

> <s_epik_input>
RmMxW2NIXW5bY0hdW2NIXWMxW05IXUMoPU8pW0NIMl1uKFtjSF0yKW5bY0hdYzItYyhbY0hdbjMpbihjMzQpW2NIXWMoW0NIM10pbmM0W05IXWMoc241KVtjSF1jNVtDSDJdW05AQEgrXShbQ0gyXTYpW0NIMl1bQ0gyXVtDSDJdW0NASF02W0NIM10=

> <s_epik_cmdline>
J2VwaWtfYXBwJywgJy1pbWFlJywgJ2xpZ2FuZF9wcm8ubWFlJywgJy1vbWFlJywgJ2xpZ2FuZF9wcmVwLm1hZScsICctbXMnLCAnMScsICctcGgnLCAnNycsICctcGh0JywgJzAuNScsICctbnQn

> <r_lp_tautomer_probability>
1

> <r_epik_Ionization_Penalty>
  0.0093

> <r_epik_Ionization_Penalty_Charging>
  0.0092

> <r_epik_Ionization_Penalty_Neutral>
  0.0001

> <r_epik_State_Penalty>
 -0.0000

> <r_epik_Charging_Adjusted_Penalty>
0.00919240986984392

> <i_epik_Tot_Q>
1

> <i_epik_Tot_abs_Q>
1

$$$$
