3vb4_ligand
                    3D
 Schrodinger Suite 2020-3.
 80 79  0  0  1  0            999 V2000
    0.0720  -20.5130   36.9710 O   0  0  0  0  0  0
   -1.1260  -20.7210   37.1250 C   0  0  0  0  0  0
   -1.6020  -22.0700   37.3740 O   0  0  0  0  0  0
   -0.8350  -22.9940   38.1510 C   0  0  0  0  0  0
   -1.7800  -24.0870   38.6390 C   0  0  0  0  0  0
    0.2640  -23.5910   37.2710 C   0  0  0  0  0  0
   -0.2580  -22.2750   39.3690 C   0  0  0  0  0  0
   -2.0390  -19.7590   37.0600 N   0  0  0  0  0  0
   -1.6590  -18.3800   36.8470 C   0  0  2  0  0  0
   -0.9550  -17.8940   38.0800 C   0  0  0  0  0  0
   -1.3250  -18.2420   39.1950 O   0  0  0  0  0  0
   -2.9130  -17.5460   36.6000 C   0  0  0  0  0  0
    0.0700  -17.0790   37.8830 N   0  0  0  0  0  0
    0.8400  -16.5310   38.9830 C   0  0  2  0  0  0
    0.6120  -15.0480   39.1020 C   0  0  0  0  0  0
    0.7530  -14.3260   38.1250 O   0  0  0  0  0  0
    2.2720  -16.8270   38.5360 C   0  0  0  0  0  0
    3.3200  -15.9990   39.2770 C   0  0  0  0  0  0
    2.5540  -18.3230   38.6570 C   0  0  0  0  0  0
    0.2450  -14.5830   40.2950 N   0  0  0  0  0  0
    0.0160  -13.1660   40.5220 C   0  0  2  0  0  0
    1.3540  -12.4920   40.4060 C   0  0  0  0  0  0
    2.2180  -12.6720   41.2550 O   0  0  0  0  0  0
   -0.5050  -13.0400   41.9550 C   0  0  0  0  0  0
   -1.8920  -13.6580   42.1600 C   0  0  0  0  0  0
   -2.4690  -13.3260   43.5370 C   0  0  0  0  0  0
   -2.8560  -13.2600   41.0460 C   0  0  0  0  0  0
    2.9050   -9.5920   39.4260 C   0  0  0  0  0  0
    3.9240   -9.1710   40.0340 N   0  0  0  0  0  0
    2.8560  -11.0650   39.1490 C   0  0  1  0  0  0
    1.5620  -11.7220   39.3430 N   0  0  0  0  0  0
    3.1770  -11.2950   37.6770 C   0  0  0  0  0  0
    4.6660  -11.4870   37.4450 C   0  0  0  0  0  0
    4.8380  -11.8610   35.9930 C   0  0  0  0  0  0
    4.0710  -11.4280   35.1400 O   0  0  0  0  0  0
    5.8410  -12.6720   35.7180 N   0  0  0  0  0  0
   -2.2059  -24.6165   37.7740 H   0  0  0  0  0  0
   -2.5915  -23.6342   39.2276 H   0  0  0  0  0  0
   -1.2242  -24.7986   39.2673 H   0  0  0  0  0  0
   -0.1923  -24.0980   36.4080 H   0  0  0  0  0  0
    0.8483  -24.3167   37.8558 H   0  0  0  0  0  0
    0.9265  -22.7877   36.9162 H   0  0  0  0  0  0
   -1.0787  -21.8615   39.9735 H   0  0  0  0  0  0
    0.3992  -21.4584   39.0354 H   0  0  0  0  0  0
    0.3210  -22.9874   39.9751 H   0  0  0  0  0  0
   -3.1002  -20.0262   37.1713 H   0  0  0  0  0  0
   -0.9853  -18.3373   35.9785 H   0  0  0  0  0  0
   -3.4223  -17.9089   35.6951 H   0  0  0  0  0  0
   -2.6311  -16.4914   36.4642 H   0  0  0  0  0  0
   -3.5894  -17.6366   37.4627 H   0  0  0  0  0  0
    0.3313  -16.8205   36.8462 H   0  0  0  0  0  0
    0.5460  -16.9639   39.9505 H   0  0  0  0  0  0
    2.3542  -16.5271   37.4809 H   0  0  0  0  0  0
    3.0860  -14.9296   39.1688 H   0  0  0  0  0  0
    4.3144  -16.2016   38.8527 H   0  0  0  0  0  0
    3.3142  -16.2695   40.3432 H   0  0  0  0  0  0
    1.7818  -18.8868   38.1131 H   0  0  0  0  0  0
    2.5416  -18.6138   39.7178 H   0  0  0  0  0  0
    3.5418  -18.5458   38.2272 H   0  0  0  0  0  0
    0.1158  -15.3000   41.1192 H   0  0  0  0  0  0
   -0.6891  -12.7501   39.7872 H   0  0  0  0  0  0
    0.1863  -13.5493   42.6426 H   0  0  0  0  0  0
   -0.5758  -11.9766   42.2273 H   0  0  0  0  0  0
   -1.7673  -14.7499   42.1130 H   0  0  0  0  0  0
   -1.7523  -13.6241   44.3164 H   0  0  0  0  0  0
   -3.4138  -13.8710   43.6798 H   0  0  0  0  0  0
   -2.6558  -12.2441   43.6051 H   0  0  0  0  0  0
   -2.4132  -13.5110   40.0709 H   0  0  0  0  0  0
   -3.0459  -12.1776   41.0948 H   0  0  0  0  0  0
   -3.8038  -13.8045   41.1694 H   0  0  0  0  0  0
    2.0779   -8.9435   39.1014 H   0  0  0  0  0  0
    4.7165   -9.8736   40.3312 H   0  0  0  0  0  0
    0.7602  -11.5760   38.6042 H   0  0  0  0  0  0
    2.6545  -12.1964   37.3243 H   0  0  0  0  0  0
    2.8462  -10.4259   37.0894 H   0  0  0  0  0  0
    5.1962  -10.5503   37.6719 H   0  0  0  0  0  0
    5.0391  -12.2875   38.1007 H   0  0  0  0  0  0
    6.4972  -13.0287   36.5256 H   0  0  0  0  0  0
    6.0214  -12.9917   34.6811 H   0  0  0  0  0  0
    4.0217   -8.1006   40.2680 H   0  0  0  0  0  0
  1  2  2  0  0  0
  2  3  1  0  0  0
  2  8  1  0  0  0
  3  4  1  0  0  0
  4  5  1  0  0  0
  4  6  1  0  0  0
  4  7  1  0  0  0
  5 37  1  0  0  0
  5 38  1  0  0  0
  5 39  1  0  0  0
  6 40  1  0  0  0
  6 41  1  0  0  0
  6 42  1  0  0  0
  7 43  1  0  0  0
  7 44  1  0  0  0
  7 45  1  0  0  0
  8  9  1  0  0  0
  8 46  1  0  0  0
  9 10  1  0  0  0
  9 12  1  0  0  0
  9 47  1  0  0  0
 10 11  2  0  0  0
 10 13  1  0  0  0
 12 48  1  0  0  0
 12 49  1  0  0  0
 12 50  1  0  0  0
 13 14  1  0  0  0
 13 51  1  0  0  0
 14 15  1  0  0  0
 14 17  1  0  0  0
 14 52  1  0  0  0
 15 16  2  0  0  0
 15 20  1  0  0  0
 17 18  1  0  0  0
 17 19  1  0  0  0
 17 53  1  0  0  0
 18 54  1  0  0  0
 18 55  1  0  0  0
 18 56  1  0  0  0
 19 57  1  0  0  0
 19 58  1  0  0  0
 19 59  1  0  0  0
 20 21  1  0  0  0
 20 60  1  0  0  0
 21 22  1  0  0  0
 21 24  1  0  0  0
 21 61  1  0  0  0
 22 23  2  0  0  0
 22 31  1  0  0  0
 24 25  1  0  0  0
 24 62  1  0  0  0
 24 63  1  0  0  0
 25 26  1  0  0  0
 25 27  1  0  0  0
 25 64  1  0  0  0
 26 65  1  0  0  0
 26 66  1  0  0  0
 26 67  1  0  0  0
 27 68  1  0  0  0
 27 69  1  0  0  0
 27 70  1  0  0  0
 28 29  1  0  0  0
 28 30  2  0  0  0
 28 71  1  0  0  0
 29 72  1  0  0  0
 29 80  1  0  0  0
 30 31  1  0  0  0
 30 32  1  0  0  0
 31 73  1  0  0  0
 32 33  1  0  0  0
 32 74  1  0  0  0
 32 75  1  0  0  0
 33 34  1  0  0  0
 33 76  1  0  0  0
 33 77  1  0  0  0
 34 35  2  0  0  0
 34 36  1  0  0  0
 36 78  1  0  0  0
 36 79  1  0  0  0
M  END
> <s_m_source_file>
../3vb4_ligand.sdf

> <i_m_source_file_index>
1

> <s_epik_input>
W0NIM11DKFtDSDNdKShbQ0gzXSlPQyg9TylbTkhdW0NAQEhdKFtDSDNdKUMoPU8pW05IXVtDQEBIXShbQ0hdKFtDSDNdKVtDSDNdKUMoPU8pW05IXVtDQEBIXShbQ0gyXVtDSF0oW0NIM10pW0NIM10pQyg9TylbTkhdW0NASF0oL1tDSF09TlxbSF0pW0NIMl1bQ0gyXUMoPU8pW05IMl0=

> <s_epik_cmdline>
J2VwaWtfYXBwJywgJy1pbWFlJywgJ2xpZ2FuZF9wcm8ubWFlJywgJy1vbWFlJywgJ2xpZ2FuZF9wcmVwLm1hZScsICctbXMnLCAnMScsICctcGgnLCAnNycsICctcGh0JywgJzAuNScsICctbnQn

> <r_lp_tautomer_probability>
1

> <r_epik_Ionization_Penalty>
  0.0000

> <r_epik_Ionization_Penalty_Charging>
  0.0000

> <r_epik_Ionization_Penalty_Neutral>
  0.0000

> <r_epik_State_Penalty>
 -0.0000

> <r_epik_Charging_Adjusted_Penalty>
2.50132770424208e-08

> <i_epik_Tot_Q>
0

> <i_epik_Tot_abs_Q>
0

> <s_epik_Chemistry_Notes>
This compound has an ester and may undergo hydrolysis at high or low pH. This compound has an imine and may undergo hydrolysis.

$$$$
