3vb5_ligand
                    3D
 Schrodinger Suite 2020-3.
 81 81  0  0  1  0            999 V2000
   -2.0550  -20.8830   36.3450 C   0  0  0  0  0  0
   -2.3750  -22.0590   36.3190 O   0  0  0  0  0  0
   -0.6880  -20.4930   36.0520 O   0  0  0  0  0  0
    0.2770  -21.5110   35.7020 C   0  0  0  0  0  0
    1.4310  -20.9270   35.0000 C   0  0  0  0  0  0
    2.4880  -21.7190   34.5730 C   0  0  0  0  0  0
    3.5500  -21.1140   33.9120 C   0  0  0  0  0  0
    3.5560  -19.7400   33.6820 C   0  0  0  0  0  0
    2.4980  -18.9460   34.1140 C   0  0  0  0  0  0
    1.4310  -19.5480   34.7740 C   0  0  0  0  0  0
   -2.9080  -19.8950   36.6340 N   0  0  0  0  0  0
   -2.4310  -18.5010   36.6400 C   0  0  2  0  0  0
   -1.4600  -18.1790   37.7630 C   0  0  0  0  0  0
   -1.4720  -18.7910   38.8230 O   0  0  0  0  0  0
   -3.6200  -17.5340   36.6950 C   0  0  0  0  0  0
   -0.5880  -17.1900   37.5420 N   0  0  0  0  0  0
    0.3870  -16.7480   38.5370 C   0  0  2  0  0  0
    0.2820  -15.2570   38.6850 C   0  0  0  0  0  0
    0.6560  -14.5300   37.7740 O   0  0  0  0  0  0
    1.8060  -17.0750   38.0730 C   0  0  0  0  0  0
    2.8300  -16.1540   38.7260 C   0  0  0  0  0  0
    2.2000  -18.5000   38.4230 C   0  0  0  0  0  0
   -0.2410  -14.7930   39.8250 N   0  0  0  0  0  0
   -0.3730  -13.3650   40.0790 C   0  0  2  0  0  0
    0.9960  -12.7500   40.0160 C   0  0  0  0  0  0
    1.8820  -13.0840   40.7880 O   0  0  0  0  0  0
   -1.0000  -13.2550   41.4650 C   0  0  0  0  0  0
   -2.4270  -13.7980   41.4200 C   0  0  0  0  0  0
   -3.1210  -13.6790   42.7730 C   0  0  0  0  0  0
   -3.2520  -13.1100   40.3310 C   0  0  0  0  0  0
    2.5460   -9.7360   39.1670 C   0  0  0  0  0  0
    3.5850   -9.2330   39.6700 N   0  0  0  0  0  0
    2.5090  -11.2160   38.8760 C   0  0  1  0  0  0
    1.2000  -11.8520   39.0510 N   0  0  0  0  0  0
    2.7920  -11.4620   37.3980 C   0  0  0  0  0  0
    4.2810  -11.5020   37.1130 C   0  0  0  0  0  0
    4.4800  -12.1790   35.7780 C   0  0  0  0  0  0
    3.9320  -11.7520   34.7750 O   0  0  0  0  0  0
    5.2530  -13.2630   35.7540 N   0  0  0  0  0  0
    0.6351  -22.0066   36.6164 H   0  0  0  0  0  0
   -0.1964  -22.2542   35.0435 H   0  0  0  0  0  0
    2.4850  -22.7941   34.7526 H   0  0  0  0  0  0
    4.3879  -21.7213   33.5696 H   0  0  0  0  0  0
    4.3964  -19.2831   33.1593 H   0  0  0  0  0  0
    2.5049  -17.8703   33.9383 H   0  0  0  0  0  0
    0.5922  -18.9417   35.1159 H   0  0  0  0  0  0
   -3.9599  -20.1174   36.8663 H   0  0  0  0  0  0
   -1.8716  -18.4165   35.6966 H   0  0  0  0  0  0
   -4.3217  -17.7690   35.8811 H   0  0  0  0  0  0
   -3.2584  -16.5014   36.5807 H   0  0  0  0  0  0
   -4.1327  -17.6380   37.6626 H   0  0  0  0  0  0
   -0.6276  -16.7029   36.5565 H   0  0  0  0  0  0
    0.1440  -17.2655   39.4767 H   0  0  0  0  0  0
    1.8067  -16.9432   36.9809 H   0  0  0  0  0  0
    2.5808  -15.1075   38.4966 H   0  0  0  0  0  0
    3.8324  -16.3860   38.3370 H   0  0  0  0  0  0
    2.8157  -16.3039   39.8156 H   0  0  0  0  0  0
    1.4835  -19.2005   37.9692 H   0  0  0  0  0  0
    2.1925  -18.6246   39.5159 H   0  0  0  0  0  0
    3.2092  -18.7066   38.0373 H   0  0  0  0  0  0
   -0.5755  -15.5192   40.5804 H   0  0  0  0  0  0
   -0.9935  -12.8659   39.3201 H   0  0  0  0  0  0
   -0.4066  -13.8398   42.1833 H   0  0  0  0  0  0
   -1.0177  -12.2003   41.7768 H   0  0  0  0  0  0
   -2.3541  -14.8679   41.1751 H   0  0  0  0  0  0
   -2.5136  -14.1789   43.5419 H   0  0  0  0  0  0
   -4.1109  -14.1558   42.7205 H   0  0  0  0  0  0
   -3.2390  -12.6165   43.0324 H   0  0  0  0  0  0
   -2.7361  -13.2064   39.3643 H   0  0  0  0  0  0
   -3.3706  -12.0448   40.5788 H   0  0  0  0  0  0
   -4.2425  -13.5841   40.2669 H   0  0  0  0  0  0
    1.6714   -9.1088   38.9398 H   0  0  0  0  0  0
    4.4528   -9.8712   39.8925 H   0  0  0  0  0  0
    0.3792  -11.5786   38.3717 H   0  0  0  0  0  0
    2.3551  -12.4254   37.0964 H   0  0  0  0  0  0
    2.3459  -10.6538   36.7998 H   0  0  0  0  0  0
    4.6761  -10.4759   37.0822 H   0  0  0  0  0  0
    4.7912  -12.0677   37.9066 H   0  0  0  0  0  0
    5.7308  -13.6184   36.6789 H   0  0  0  0  0  0
    5.4138  -13.8031   34.8093 H   0  0  0  0  0  0
    3.6248   -8.1553   39.8870 H   0  0  0  0  0  0
  1  2  2  0  0  0
  1  3  1  0  0  0
  1 11  1  0  0  0
  3  4  1  0  0  0
  4  5  1  0  0  0
  4 40  1  0  0  0
  4 41  1  0  0  0
  5  6  2  0  0  0
  5 10  1  0  0  0
  6  7  1  0  0  0
  6 42  1  0  0  0
  7  8  2  0  0  0
  7 43  1  0  0  0
  8  9  1  0  0  0
  8 44  1  0  0  0
  9 10  2  0  0  0
  9 45  1  0  0  0
 10 46  1  0  0  0
 11 12  1  0  0  0
 11 47  1  0  0  0
 12 13  1  0  0  0
 12 15  1  0  0  0
 12 48  1  0  0  0
 13 14  2  0  0  0
 13 16  1  0  0  0
 15 49  1  0  0  0
 15 50  1  0  0  0
 15 51  1  0  0  0
 16 17  1  0  0  0
 16 52  1  0  0  0
 17 18  1  0  0  0
 17 20  1  0  0  0
 17 53  1  0  0  0
 18 19  2  0  0  0
 18 23  1  0  0  0
 20 21  1  0  0  0
 20 22  1  0  0  0
 20 54  1  0  0  0
 21 55  1  0  0  0
 21 56  1  0  0  0
 21 57  1  0  0  0
 22 58  1  0  0  0
 22 59  1  0  0  0
 22 60  1  0  0  0
 23 24  1  0  0  0
 23 61  1  0  0  0
 24 25  1  0  0  0
 24 27  1  0  0  0
 24 62  1  0  0  0
 25 26  2  0  0  0
 25 34  1  0  0  0
 27 28  1  0  0  0
 27 63  1  0  0  0
 27 64  1  0  0  0
 28 29  1  0  0  0
 28 30  1  0  0  0
 28 65  1  0  0  0
 29 66  1  0  0  0
 29 67  1  0  0  0
 29 68  1  0  0  0
 30 69  1  0  0  0
 30 70  1  0  0  0
 30 71  1  0  0  0
 31 32  1  0  0  0
 31 33  2  0  0  0
 31 72  1  0  0  0
 32 73  1  0  0  0
 32 81  1  0  0  0
 33 34  1  0  0  0
 33 35  1  0  0  0
 34 74  1  0  0  0
 35 36  1  0  0  0
 35 75  1  0  0  0
 35 76  1  0  0  0
 36 37  1  0  0  0
 36 77  1  0  0  0
 36 78  1  0  0  0
 37 38  2  0  0  0
 37 39  1  0  0  0
 39 79  1  0  0  0
 39 80  1  0  0  0
M  END
> <s_m_source_file>
../3vb5_ligand.sdf

> <i_m_source_file_index>
1

> <s_epik_input>
W2NIXTFbY0hdW2NIXVtjSF1bY0hdYzFbQ0gyXU9DKD1PKVtOSF1bQ0BASF0oW0NIM10pQyg9TylbTkhdW0NAQEhdKFtDSF0oW0NIM10pW0NIM10pQyg9TylbTkhdW0NAQEhdKFtDSDJdW0NIXShbQ0gzXSlbQ0gzXSlDKD1PKVtOSF1bQ0BIXSgvW0NIXT1OXFtIXSlbQ0gyXVtDSDJdQyg9TylbTkgyXQ==

> <s_epik_cmdline>
J2VwaWtfYXBwJywgJy1pbWFlJywgJ2xpZ2FuZF9wcm8ubWFlJywgJy1vbWFlJywgJ2xpZ2FuZF9wcmVwLm1hZScsICctbXMnLCAnMScsICctcGgnLCAnNycsICctcGh0JywgJzAuNScsICctbnQn

> <r_lp_tautomer_probability>
1

> <r_epik_Ionization_Penalty>
  0.0000

> <r_epik_Ionization_Penalty_Charging>
  0.0000

> <r_epik_Ionization_Penalty_Neutral>
  0.0000

> <r_epik_State_Penalty>
 -0.0000

> <r_epik_Charging_Adjusted_Penalty>
2.50132770424208e-08

> <i_epik_Tot_Q>
0

> <i_epik_Tot_abs_Q>
0

> <s_epik_Chemistry_Notes>
This compound has an ester and may undergo hydrolysis at high or low pH. This compound has an imine and may undergo hydrolysis.

$$$$
