3vb6_ligand
                    3D
 Schrodinger Suite 2020-3.
 66 65  0  0  1  0            999 V2000
   -1.8720  -20.3410   36.9970 N   0  3  0  0  0  0
   -2.0290  -18.8910   36.9940 C   0  0  2  0  0  0
   -1.2160  -18.2740   38.1120 C   0  0  0  0  0  0
   -1.4930  -18.4920   39.2820 O   0  0  0  0  0  0
   -3.5090  -18.5310   37.1270 C   0  0  0  0  0  0
   -0.1830  -17.4960   37.7620 N   0  0  0  0  0  0
    0.6870  -16.8500   38.7520 C   0  0  2  0  0  0
    0.5390  -15.3480   38.8140 C   0  0  0  0  0  0
    1.2160  -14.6380   38.0790 O   0  0  0  0  0  0
    2.1190  -17.1950   38.3320 C   0  0  0  0  0  0
    3.1470  -16.4380   39.1720 C   0  0  0  0  0  0
    2.3730  -18.7030   38.3770 C   0  0  0  0  0  0
   -0.3440  -14.8630   39.6980 N   0  0  0  0  0  0
   -0.5890  -13.4300   39.8820 C   0  0  2  0  0  0
    0.7000  -12.6540   40.0610 C   0  0  0  0  0  0
    1.2260  -12.5410   41.1660 O   0  0  0  0  0  0
   -1.4440  -13.3380   41.1540 C   0  0  0  0  0  0
   -2.9370  -13.6060   40.9210 C   0  0  0  0  0  0
   -3.7740  -12.6870   41.7990 C   0  0  0  0  0  0
   -3.3780  -13.4440   39.4640 C   0  0  0  0  0  0
    2.4390   -9.8780   39.2550 C   0  0  0  0  0  0
    3.4150   -9.4210   39.9100 N   0  0  0  0  0  0
    2.4670  -11.3470   38.8960 C   0  0  1  0  0  0
    1.2160  -12.1130   38.9580 N   0  0  0  0  0  0
    2.8320  -11.4500   37.4210 C   0  0  0  0  0  0
    4.3290  -11.5790   37.2120 C   0  0  0  0  0  0
    4.4630  -12.3410   35.9250 C   0  0  0  0  0  0
    3.6260  -12.1720   35.0540 O   0  0  0  0  0  0
    5.4970  -13.1770   35.8280 N   0  0  0  0  0  0
   -0.8059  -20.5946   36.9011 H   0  0  0  0  0  0
   -2.4288  -20.7718   36.1518 H   0  0  0  0  0  0
   -2.2628  -20.7502   37.9403 H   0  0  0  0  0  0
   -1.6378  -18.5282   36.0321 H   0  0  0  0  0  0
   -4.0739  -18.9918   36.3033 H   0  0  0  0  0  0
   -3.6257  -17.4380   37.0852 H   0  0  0  0  0  0
   -3.8922  -18.9042   38.0882 H   0  0  0  0  0  0
    0.0024  -17.3491   36.6877 H   0  0  0  0  0  0
    0.3834  -17.2248   39.7406 H   0  0  0  0  0  0
    2.2390  -16.8702   37.2879 H   0  0  0  0  0  0
    2.9395  -15.3590   39.1206 H   0  0  0  0  0  0
    4.1564  -16.6363   38.7824 H   0  0  0  0  0  0
    3.0850  -16.7739   40.2176 H   0  0  0  0  0  0
    1.6194  -19.2202   37.7649 H   0  0  0  0  0  0
    2.3054  -19.0553   39.4169 H   0  0  0  0  0  0
    3.3768  -18.9177   37.9816 H   0  0  0  0  0  0
   -0.8976  -15.5975   40.3013 H   0  0  0  0  0  0
   -1.0726  -13.0276   38.9797 H   0  0  0  0  0  0
   -1.0912  -14.0782   41.8873 H   0  0  0  0  0  0
   -1.3576  -12.3282   41.5817 H   0  0  0  0  0  0
   -3.1048  -14.6590   41.1911 H   0  0  0  0  0  0
   -3.4623  -12.7982   42.8480 H   0  0  0  0  0  0
   -4.8365  -12.9547   41.7018 H   0  0  0  0  0  0
   -3.6281  -11.6439   41.4818 H   0  0  0  0  0  0
   -2.7768  -14.1058   38.8232 H   0  0  0  0  0  0
   -3.2328  -12.3995   39.1510 H   0  0  0  0  0  0
   -4.4412  -13.7103   39.3710 H   0  0  0  0  0  0
    1.5889   -9.2523   38.9455 H   0  0  0  0  0  0
    4.2434  -10.0850   40.1978 H   0  0  0  0  0  0
    0.6958  -12.2250   37.9953 H   0  0  0  0  0  0
    2.3473  -12.3357   36.9843 H   0  0  0  0  0  0
    2.4889  -10.5472   36.8944 H   0  0  0  0  0  0
    4.7775  -10.5768   37.1446 H   0  0  0  0  0  0
    4.7720  -12.1228   38.0594 H   0  0  0  0  0  0
    6.2085  -13.2708   36.6616 H   0  0  0  0  0  0
    5.6386  -13.7729   34.9143 H   0  0  0  0  0  0
    3.4379   -8.3584   40.1935 H   0  0  0  0  0  0
  1  2  1  0  0  0
  1 30  1  0  0  0
  1 31  1  0  0  0
  1 32  1  0  0  0
  2  3  1  0  0  0
  2  5  1  0  0  0
  2 33  1  0  0  0
  3  4  2  0  0  0
  3  6  1  0  0  0
  5 34  1  0  0  0
  5 35  1  0  0  0
  5 36  1  0  0  0
  6  7  1  0  0  0
  6 37  1  0  0  0
  7  8  1  0  0  0
  7 10  1  0  0  0
  7 38  1  0  0  0
  8  9  2  0  0  0
  8 13  1  0  0  0
 10 11  1  0  0  0
 10 12  1  0  0  0
 10 39  1  0  0  0
 11 40  1  0  0  0
 11 41  1  0  0  0
 11 42  1  0  0  0
 12 43  1  0  0  0
 12 44  1  0  0  0
 12 45  1  0  0  0
 13 14  1  0  0  0
 13 46  1  0  0  0
 14 15  1  0  0  0
 14 17  1  0  0  0
 14 47  1  0  0  0
 15 16  2  0  0  0
 15 24  1  0  0  0
 17 18  1  0  0  0
 17 48  1  0  0  0
 17 49  1  0  0  0
 18 19  1  0  0  0
 18 20  1  0  0  0
 18 50  1  0  0  0
 19 51  1  0  0  0
 19 52  1  0  0  0
 19 53  1  0  0  0
 20 54  1  0  0  0
 20 55  1  0  0  0
 20 56  1  0  0  0
 21 22  1  0  0  0
 21 23  2  0  0  0
 21 57  1  0  0  0
 22 58  1  0  0  0
 22 66  1  0  0  0
 23 24  1  0  0  0
 23 25  1  0  0  0
 24 59  1  0  0  0
 25 26  1  0  0  0
 25 60  1  0  0  0
 25 61  1  0  0  0
 26 27  1  0  0  0
 26 62  1  0  0  0
 26 63  1  0  0  0
 27 28  2  0  0  0
 27 29  1  0  0  0
 29 64  1  0  0  0
 29 65  1  0  0  0
M  CHG  1   1   1
M  END
> <s_m_source_file>
../3vb6_ligand.sdf

> <i_m_source_file_index>
1

> <s_epik_input>
W05IMytdW0NAQEhdKFtDSDNdKUMoPU8pW05IXVtDQEBIXShbQ0hdKFtDSDNdKVtDSDNdKUMoPU8pW05IXVtDQEBIXShbQ0gyXVtDSF0oW0NIM10pW0NIM10pQyg9TylbTkhdW0NASF0oL1tDSF09TlxbSF0pW0NIMl1bQ0gyXUMoPU8pW05IMl0=

> <s_epik_cmdline>
J2VwaWtfYXBwJywgJy1pbWFlJywgJ2xpZ2FuZF9wcm8ubWFlJywgJy1vbWFlJywgJ2xpZ2FuZF9wcmVwLm1hZScsICctbXMnLCAnMScsICctcGgnLCAnNycsICctcGh0JywgJzAuNScsICctbnQn

> <r_lp_tautomer_probability>
7e-06

> <r_epik_Ionization_Penalty>
  0.1191

> <r_epik_Ionization_Penalty_Charging>
  0.1191

> <r_epik_Ionization_Penalty_Neutral>
  0.0000

> <r_epik_State_Penalty>
  0.1086

> <r_epik_Charging_Adjusted_Penalty>
0.227714975780517

> <i_epik_Tot_Q>
1

> <i_epik_Tot_abs_Q>
1

> <s_epik_Chemistry_Notes>
This compound has an imine and may undergo hydrolysis.

$$$$
