3vb7_ligand
                    3D
 Schrodinger Suite 2020-3.
 66 65  0  0  1  0            999 V2000
   -1.9420  -20.2680   36.4730 N   0  3  0  0  0  0
   -1.9560  -18.8170   36.5680 C   0  0  2  0  0  0
   -1.1490  -18.3530   37.7520 C   0  0  0  0  0  0
   -1.2210  -18.9440   38.8170 O   0  0  0  0  0  0
   -3.3890  -18.3080   36.7120 C   0  0  0  0  0  0
   -0.3850  -17.2730   37.5740 N   0  0  0  0  0  0
    0.4350  -16.7170   38.6460 C   0  0  2  0  0  0
    0.2220  -15.2310   38.7650 C   0  0  0  0  0  0
    0.4190  -14.5000   37.8080 O   0  0  0  0  0  0
    1.8790  -16.9650   38.2090 C   0  0  0  0  0  0
    2.8550  -16.1370   39.0350 C   0  0  0  0  0  0
    2.2490  -18.4470   38.2530 C   0  0  0  0  0  0
   -0.1780  -14.7460   39.9390 N   0  0  0  0  0  0
   -0.3880  -13.3070   40.1030 C   0  0  2  0  0  0
    0.9270  -12.5760   40.1940 C   0  0  0  0  0  0
    1.5640  -12.5150   41.2380 O   0  0  0  0  0  0
   -1.2120  -13.1560   41.3760 C   0  0  0  0  0  0
   -2.6780  -13.5070   41.1030 C   0  0  0  0  0  0
   -3.5830  -12.6810   42.0010 C   0  0  0  0  0  0
   -3.0890  -13.2980   39.6430 C   0  0  0  0  0  0
    2.5820   -9.8310   39.2230 C   0  0  0  0  0  0
    3.5880   -9.3380   39.7990 N   0  0  0  0  0  0
    2.6000  -11.3010   38.9140 C   0  0  1  0  0  0
    1.3370  -12.0200   39.0590 N   0  0  0  0  0  0
    2.8800  -11.4690   37.4280 C   0  0  0  0  0  0
    4.3400  -11.8080   37.1890 C   0  0  0  0  0  0
    4.4750  -12.1890   35.7400 C   0  0  0  0  0  0
    3.7040  -11.7230   34.9060 O   0  0  0  0  0  0
    5.4570  -13.0450   35.4560 N   0  0  0  0  0  0
   -0.9045  -20.6187   36.3699 H   0  0  0  0  0  0
   -2.5247  -20.5836   35.5950 H   0  0  0  0  0  0
   -2.3862  -20.6993   37.3822 H   0  0  0  0  0  0
   -1.4940  -18.4562   35.6372 H   0  0  0  0  0  0
   -3.9854  -18.6429   35.8505 H   0  0  0  0  0  0
   -3.3855  -17.2087   36.7504 H   0  0  0  0  0  0
   -3.8280  -18.7059   37.6388 H   0  0  0  0  0  0
   -0.3862  -16.8002   36.5808 H   0  0  0  0  0  0
    0.1528  -17.1853   39.6005 H   0  0  0  0  0  0
    1.9576  -16.6395   37.1612 H   0  0  0  0  0  0
    2.5677  -15.0763   38.9873 H   0  0  0  0  0  0
    3.8716  -16.2600   38.6332 H   0  0  0  0  0  0
    2.8305  -16.4769   40.0809 H   0  0  0  0  0  0
    1.5308  -19.0223   37.6503 H   0  0  0  0  0  0
    2.2207  -18.8012   39.2940 H   0  0  0  0  0  0
    3.2618  -18.5843   37.8464 H   0  0  0  0  0  0
   -0.3506  -15.4270   40.7854 H   0  0  0  0  0  0
   -0.9030  -12.8978   39.2214 H   0  0  0  0  0  0
   -0.8184  -13.8315   42.1498 H   0  0  0  0  0  0
   -1.1511  -12.1167   41.7311 H   0  0  0  0  0  0
   -2.7939  -14.5778   41.3263 H   0  0  0  0  0  0
   -3.2909  -12.8284   43.0512 H   0  0  0  0  0  0
   -4.6267  -12.9996   41.8625 H   0  0  0  0  0  0
   -3.4867  -11.6169   41.7395 H   0  0  0  0  0  0
   -2.4358  -13.8946   38.9892 H   0  0  0  0  0  0
   -2.9932  -12.2332   39.3840 H   0  0  0  0  0  0
   -4.1332  -13.6160   39.5069 H   0  0  0  0  0  0
    1.7088   -9.2216   38.9470 H   0  0  0  0  0  0
    4.4424   -9.9801   40.0592 H   0  0  0  0  0  0
    0.7118  -12.0870   38.1564 H   0  0  0  0  0  0
    2.2572  -12.2823   37.0272 H   0  0  0  0  0  0
    2.6430  -10.5324   36.9020 H   0  0  0  0  0  0
    4.9625  -10.9306   37.4186 H   0  0  0  0  0  0
    4.6331  -12.6457   37.8389 H   0  0  0  0  0  0
    6.1090  -13.4201   36.2587 H   0  0  0  0  0  0
    5.6152  -13.3762   34.4190 H   0  0  0  0  0  0
    3.6120   -8.2654   40.0418 H   0  0  0  0  0  0
  1  2  1  0  0  0
  1 30  1  0  0  0
  1 31  1  0  0  0
  1 32  1  0  0  0
  2  3  1  0  0  0
  2  5  1  0  0  0
  2 33  1  0  0  0
  3  4  2  0  0  0
  3  6  1  0  0  0
  5 34  1  0  0  0
  5 35  1  0  0  0
  5 36  1  0  0  0
  6  7  1  0  0  0
  6 37  1  0  0  0
  7  8  1  0  0  0
  7 10  1  0  0  0
  7 38  1  0  0  0
  8  9  2  0  0  0
  8 13  1  0  0  0
 10 11  1  0  0  0
 10 12  1  0  0  0
 10 39  1  0  0  0
 11 40  1  0  0  0
 11 41  1  0  0  0
 11 42  1  0  0  0
 12 43  1  0  0  0
 12 44  1  0  0  0
 12 45  1  0  0  0
 13 14  1  0  0  0
 13 46  1  0  0  0
 14 15  1  0  0  0
 14 17  1  0  0  0
 14 47  1  0  0  0
 15 16  2  0  0  0
 15 24  1  0  0  0
 17 18  1  0  0  0
 17 48  1  0  0  0
 17 49  1  0  0  0
 18 19  1  0  0  0
 18 20  1  0  0  0
 18 50  1  0  0  0
 19 51  1  0  0  0
 19 52  1  0  0  0
 19 53  1  0  0  0
 20 54  1  0  0  0
 20 55  1  0  0  0
 20 56  1  0  0  0
 21 22  1  0  0  0
 21 23  2  0  0  0
 21 57  1  0  0  0
 22 58  1  0  0  0
 22 66  1  0  0  0
 23 24  1  0  0  0
 23 25  1  0  0  0
 24 59  1  0  0  0
 25 26  1  0  0  0
 25 60  1  0  0  0
 25 61  1  0  0  0
 26 27  1  0  0  0
 26 62  1  0  0  0
 26 63  1  0  0  0
 27 28  2  0  0  0
 27 29  1  0  0  0
 29 64  1  0  0  0
 29 65  1  0  0  0
M  CHG  1   1   1
M  END
> <s_m_source_file>
../3vb7_ligand.sdf

> <i_m_source_file_index>
1

> <s_epik_input>
W05IMytdW0NAQEhdKFtDSDNdKUMoPU8pW05IXVtDQEBIXShbQ0hdKFtDSDNdKVtDSDNdKUMoPU8pW05IXVtDQEBIXShbQ0gyXVtDSF0oW0NIM10pW0NIM10pQyg9TylbTkhdW0NASF0oL1tDSF09TlxbSF0pW0NIMl1bQ0gyXUMoPU8pW05IMl0=

> <s_epik_cmdline>
J2VwaWtfYXBwJywgJy1pbWFlJywgJ2xpZ2FuZF9wcm8ubWFlJywgJy1vbWFlJywgJ2xpZ2FuZF9wcmVwLm1hZScsICctbXMnLCAnMScsICctcGgnLCAnNycsICctcGh0JywgJzAuNScsICctbnQn

> <r_lp_tautomer_probability>
7e-06

> <r_epik_Ionization_Penalty>
  0.1191

> <r_epik_Ionization_Penalty_Charging>
  0.1191

> <r_epik_Ionization_Penalty_Neutral>
  0.0000

> <r_epik_State_Penalty>
  0.1086

> <r_epik_Charging_Adjusted_Penalty>
0.227714975780517

> <i_epik_Tot_Q>
1

> <i_epik_Tot_abs_Q>
1

> <s_epik_Chemistry_Notes>
This compound has an imine and may undergo hydrolysis.

$$$$
