3vbd_ligand
                    3D
 Schrodinger Suite 2020-3.
 41 43  0  0  1  0            999 V2000
   -5.8180   10.5810   10.2290 C   0  0  0  0  0  0
   -6.5820    9.3930   10.4320 O   0  0  0  0  0  0
   -5.8440    8.3990   10.9560 C   0  0  0  0  0  0
   -4.5190    8.5380   11.3120 C   0  0  0  0  0  0
   -6.4800    7.1880   11.2200 C   0  0  0  0  0  0
   -5.7310    6.2650   11.8900 C   0  0  0  0  0  0
   -4.4280    6.3610   12.3770 C   0  0  0  0  0  0
   -3.8000    7.5610   11.9970 C   0  0  0  0  0  0
   -2.4530    7.8110   12.2330 C   0  0  0  0  0  0
   -1.7260    6.4630   12.4300 C   0  0  0  0  0  0
   -2.4570    5.7340   13.5120 N   0  3  0  0  0  0
   -3.7850    5.4880   13.2610 C   0  0  1  0  0  0
   -4.2620    4.4090   13.9940 C   0  0  0  0  0  0
   -5.5720    4.3050   14.4440 C   0  0  0  0  0  0
   -6.0460    3.2270   15.1730 C   0  0  0  0  0  0
   -3.4270    3.3280   14.3410 C   0  0  0  0  0  0
   -3.8900    2.2270   15.0920 C   0  0  0  0  0  0
   -5.2190    2.1730   15.5400 C   0  0  0  0  0  0
   -5.8070    0.8320   16.5930 S   0  0  0  0  0  0
   -5.2410    1.1410   17.9210 O   0  0  0  0  0  0
   -7.3180    1.0140   16.5570 O   0  0  0  0  0  0
   -5.3480   -0.5110   16.1290 N   0  0  0  0  0  0
   -6.4625   11.3626    9.8004 H   0  0  0  0  0  0
   -4.9886   10.3699    9.5379 H   0  0  0  0  0  0
   -5.4140   10.9262   11.1921 H   0  0  0  0  0  0
   -4.0068    9.4618   11.0430 H   0  0  0  0  0  0
   -7.5069    6.9910   10.9121 H   0  0  0  0  0  0
   -6.2248    5.3104   12.0716 H   0  0  0  0  0  0
   -2.0230    8.3450   11.3728 H   0  0  0  0  0  0
   -2.3475    8.4279   13.1376 H   0  0  0  0  0  0
   -1.7494    5.8930   11.4895 H   0  0  0  0  0  0
   -0.6814    6.6488   12.7203 H   0  0  0  0  0  0
   -1.9843    4.7547   13.6783 H   0  0  0  0  0  0
   -2.4188    6.3221   14.4408 H   0  0  0  0  0  0
   -4.7618    5.3002   12.7914 H   0  0  0  0  0  0
   -6.2636    5.1147   14.2111 H   0  0  0  0  0  0
   -7.0955    3.2051   15.4664 H   0  0  0  0  0  0
   -2.3862    3.3431   14.0176 H   0  0  0  0  0  0
   -3.2083    1.4096   15.3268 H   0  0  0  0  0  0
   -5.7358   -1.2855   16.8071 H   0  0  0  0  0  0
   -4.2484   -0.5423   16.1273 H   0  0  0  0  0  0
  1  2  1  0  0  0
  1 23  1  0  0  0
  1 24  1  0  0  0
  1 25  1  0  0  0
  2  3  1  0  0  0
  3  4  2  0  0  0
  3  5  1  0  0  0
  4  8  1  0  0  0
  4 26  1  0  0  0
  5  6  2  0  0  0
  5 27  1  0  0  0
  6  7  1  0  0  0
  6 28  1  0  0  0
  7  8  2  0  0  0
  7 12  1  0  0  0
  8  9  1  0  0  0
  9 10  1  0  0  0
  9 29  1  0  0  0
  9 30  1  0  0  0
 10 11  1  0  0  0
 10 31  1  0  0  0
 10 32  1  0  0  0
 11 12  1  0  0  0
 11 33  1  0  0  0
 11 34  1  0  0  0
 12 13  1  0  0  0
 12 35  1  0  0  0
 13 14  2  0  0  0
 13 16  1  0  0  0
 14 15  1  0  0  0
 14 36  1  0  0  0
 15 18  2  0  0  0
 15 37  1  0  0  0
 16 17  2  0  0  0
 16 38  1  0  0  0
 17 18  1  0  0  0
 17 39  1  0  0  0
 18 19  1  0  0  0
 19 20  2  0  0  0
 19 21  2  0  0  0
 19 22  1  0  0  0
 22 40  1  0  0  0
 22 41  1  0  0  0
M  CHG  1  11   1
M  END
> <s_m_source_file>
../3vbd_ligand.sdf

> <i_m_source_file_index>
1

> <s_epik_input>
W0NIM11PYyhbY0hdW2NIXTEpW2NIXWMoYzEyKVtDSDJdW0NIMl1bTkgyK11bQ0BIXTJjM1tjSF1bY0hdYyhbY0hdW2NIXTMpUyg9TykoPU8pW05IMl0=

> <s_epik_cmdline>
J2VwaWtfYXBwJywgJy1pbWFlJywgJ2xpZ2FuZF9wcm8ubWFlJywgJy1vbWFlJywgJ2xpZ2FuZF9wcmVwLm1hZScsICctbXMnLCAnMScsICctcGgnLCAnNycsICctcGh0JywgJzAuNScsICctbnQn

> <r_lp_tautomer_probability>
1

> <r_epik_Ionization_Penalty>
  0.1079

> <r_epik_Ionization_Penalty_Charging>
  0.1067

> <r_epik_Ionization_Penalty_Neutral>
  0.0012

> <r_epik_State_Penalty>
  0.0965

> <r_epik_Charging_Adjusted_Penalty>
0.203175450269703

> <i_epik_Tot_Q>
1

> <i_epik_Tot_abs_Q>
1

$$$$
