3vbg_ligand
                    3D
 Schrodinger Suite 2020-3.
 41 44  0  0  1  0            999 V2000
   12.0190  -19.0310   -9.1740 C   0  0  0  0  0  0
   15.0810  -20.6420   -8.0750 C   0  0  0  0  0  0
   13.7130  -20.3840   -7.9660 C   0  0  0  0  0  0
   13.2850  -19.4680   -8.9050 C   0  0  0  0  0  0
   12.7210  -21.0890   -7.1140 C   0  0  0  0  0  0
   14.4200  -22.6130   -5.9770 N   0  0  0  0  0  0
   14.1740  -23.6380   -5.0920 C   0  0  0  0  0  0
   12.2320  -22.9430   -5.4300 C   0  0  0  0  0  0
   10.8690  -23.9770   -2.0650 C   0  0  0  0  0  0
   10.7240  -23.5790   -0.7520 C   0  0  0  0  0  0
   11.8700  -23.5750    0.0790 C   0  0  0  0  0  0
   13.2800  -24.3720   -1.6260 C   0  0  0  0  0  0
   11.8960  -18.1090  -10.1930 C   0  0  0  0  0  0
   12.9730  -17.6410  -10.9100 C   0  0  0  0  0  0
   14.2410  -18.1060  -10.6510 C   0  0  3  0  0  0
   15.4990  -19.7780   -9.1020 N   0  0  0  0  0  0
   14.4120  -19.0630   -9.6260 C   0  0  0  0  0  0
   13.1380  -22.1670   -6.2060 C   0  0  0  0  0  0
   12.9360  -23.8540   -4.7720 N   0  0  0  0  0  0
   15.0220  -24.4110   -4.4920 O   0  0  0  0  0  0
   10.9580  -22.7770   -5.4090 O   0  0  0  0  0  0
   12.4970  -24.8600   -3.8320 C   0  0  0  0  0  0
   12.1730  -24.3640   -2.4600 C   0  0  0  0  0  0
   13.1060  -23.9430   -0.3350 C   0  0  0  0  0  0
   14.1440  -23.9120    0.4990 F   0  0  0  0  0  0
   11.8140  -23.2230    1.3370 F   0  0  0  0  0  0
   15.4030  -17.5490  -11.4700 C   0  0  0  0  0  0
   12.6070  -16.3850  -12.1640 Cl  0  0  0  0  0  0
   11.1691  -19.4146   -8.5904 H   0  0  0  0  0  0
   15.5538  -21.3885   -7.4199 H   0  0  0  0  0  0
   11.6625  -20.7948   -7.1689 H   0  0  0  0  0  0
   15.4520  -22.3861   -6.2827 H   0  0  0  0  0  0
   10.0283  -23.9927   -2.7586 H   0  0  0  0  0  0
    9.7516  -23.2753   -0.3643 H   0  0  0  0  0  0
   14.2537  -24.7071   -1.9833 H   0  0  0  0  0  0
   10.8829  -17.7475  -10.4233 H   0  0  0  0  0  0
   11.5834  -25.3417   -4.2105 H   0  0  0  0  0  0
   13.2862  -25.6163   -3.7091 H   0  0  0  0  0  0
   15.0204  -16.8232  -12.2027 H   0  0  0  0  0  0
   15.9072  -18.3719  -11.9978 H   0  0  0  0  0  0
   16.1185  -17.0506  -10.7994 H   0  0  0  0  0  0
  1  4  2  0  0  0
  1 13  1  0  0  0
  1 29  1  0  0  0
  2  3  2  0  0  0
  2 16  1  0  0  0
  2 30  1  0  0  0
  3  4  1  0  0  0
  3  5  1  0  0  0
  4 17  1  0  0  0
  5 18  2  0  0  0
  5 31  1  0  0  0
  6  7  1  0  0  0
  6 18  1  0  0  0
  6 32  1  0  0  0
  7 19  1  0  0  0
  7 20  2  0  0  0
  8 18  1  0  0  0
  8 19  1  0  0  0
  8 21  2  0  0  0
  9 10  2  0  0  0
  9 23  1  0  0  0
  9 33  1  0  0  0
 10 11  1  0  0  0
 10 34  1  0  0  0
 11 24  2  0  0  0
 11 26  1  0  0  0
 12 23  2  0  0  0
 12 24  1  0  0  0
 12 35  1  0  0  0
 13 14  2  0  0  0
 13 36  1  0  0  0
 14 15  1  0  0  0
 14 28  1  0  0  0
 15 17  1  0  0  0
 15 27  1  0  0  0
 16 17  2  0  0  0
 19 22  1  0  0  0
 22 23  1  0  0  0
 22 37  1  0  0  0
 22 38  1  0  0  0
 24 25  1  0  0  0
 27 39  1  0  0  0
 27 40  1  0  0  0
 27 41  1  0  0  0
M  END
> <s_m_source_file>
../3vbg_ligand.sdf

> <i_m_source_file_index>
1

> <s_epik_input>
W0NIXT0xW0NIXT1DKENsKVtDSF0oW0NIM10pQyhDMTIpPU5bQ0hdPUMyL1tDSF09QyhcW05IXUMzPU8pQyg9TylOM1tDSDJdYyhbY0hdYzRGKVtjSF1bY0hdYzRG

> <s_epik_cmdline>
J2VwaWtfYXBwJywgJy1pbWFlJywgJ2xpZ2FuZF9wcm8ubWFlJywgJy1vbWFlJywgJ2xpZ2FuZF9wcmVwLm1hZScsICctbXMnLCAnMScsICctcGgnLCAnNycsICctcGh0JywgJzAuNScsICctbnQn

> <r_epik_Ionization_Penalty>
  0.0348

> <r_epik_Ionization_Penalty_Charging>
  0.0000

> <r_epik_Ionization_Penalty_Neutral>
  0.0348

> <r_epik_State_Penalty>
  0.0290

> <r_epik_Charging_Adjusted_Penalty>
0.0289716687521007

> <i_epik_Tot_Q>
0

> <i_epik_Tot_abs_Q>
0

> <s_epik_Chemistry_Notes>
This compound has an imine and may undergo hydrolysis.

$$$$
