3vbq_ligand
                    3D
 Schrodinger Suite 2020-3.
 49 52  0  0  1  0            999 V2000
  -23.7340  -36.8950    2.6490 C   0  0  0  0  0  0
  -23.3650  -34.4490    2.5990 C   0  0  0  0  0  0
  -22.6470  -32.1290    2.8120 C   0  0  0  0  0  0
  -21.4800  -31.3880    1.0980 C   0  0  0  0  0  0
  -22.4730  -33.5340   -3.4880 C   0  0  1  0  0  0
  -21.2850  -32.7990   -4.1430 C   0  0  0  0  0  0
  -22.4380  -30.6290   -3.2610 C   0  0  2  0  0  0
  -23.7140  -32.6230   -3.5420 C   0  0  0  0  0  0
  -23.2080  -31.9970    3.9200 O   0  5  0  0  0  0
  -22.0150  -31.0440    2.2900 N   0  0  0  0  0  0
  -20.8640  -30.6360    0.3570 O   0  0  0  0  0  0
  -21.8560  -33.0740    0.6120 S   0  0  0  0  0  0
  -22.6580  -33.3370    2.0960 C   0  0  0  0  0  0
  -23.4990  -35.7170    1.8790 C   0  0  0  0  0  0
  -23.4200  -35.7650    0.4940 C   0  0  0  0  0  0
  -23.9150  -38.0910    1.9400 C   0  0  0  0  0  0
  -23.8370  -38.1350    0.5240 C   0  0  0  0  0  0
  -23.5760  -36.9990   -0.2370 C   0  0  0  0  0  0
  -23.5750  -36.9990   -1.6770 C   0  0  0  0  0  0
  -23.2190  -35.8760   -2.3550 N   0  0  0  0  0  0
  -23.8960  -38.1150   -2.4630 C   0  0  0  0  0  0
  -23.8870  -38.0650   -3.8300 N   0  0  0  0  0  0
  -23.5090  -36.9050   -4.5460 C   0  0  0  0  0  0
  -23.1810  -35.8300   -3.7130 C   0  0  0  0  0  0
  -22.8310  -34.7090   -4.2780 N   0  0  0  0  0  0
  -21.1210  -31.4780   -3.3340 C   0  0  0  0  0  0
  -22.3060  -29.3900   -2.4670 N   0  3  0  0  0  0
  -23.3730  -31.4830   -2.5650 C   0  0  0  0  0  0
  -23.7711  -36.8665    3.7380 H   0  0  0  0  0  0
  -23.8532  -34.3911    3.5830 H   0  0  0  0  0  0
  -22.1946  -33.8530   -2.4727 H   0  0  0  0  0  0
  -20.3841  -33.4266   -4.0769 H   0  0  0  0  0  0
  -21.5154  -32.5985   -5.1997 H   0  0  0  0  0  0
  -22.7965  -30.3054   -4.2493 H   0  0  0  0  0  0
  -23.8586  -32.2611   -4.5706 H   0  0  0  0  0  0
  -24.6006  -33.1920   -3.2254 H   0  0  0  0  0  0
  -23.2347  -34.8433   -0.0575 H   0  0  0  0  0  0
  -24.1206  -39.0093    2.4900 H   0  0  0  0  0  0
  -23.9861  -39.0879    0.0163 H   0  0  0  0  0  0
  -24.1606  -39.0504   -1.9699 H   0  0  0  0  0  0
  -23.4766  -36.8540   -5.6343 H   0  0  0  0  0  0
  -22.8090  -34.6606   -5.3767 H   0  0  0  0  0  0
  -20.8213  -31.7146   -2.3024 H   0  0  0  0  0  0
  -20.3489  -30.8525   -3.8058 H   0  0  0  0  0  0
  -21.5996  -28.7092   -2.9645 H   0  0  0  0  0  0
  -21.9319  -29.6365   -1.4623 H   0  0  0  0  0  0
  -23.2882  -28.9019   -2.3831 H   0  0  0  0  0  0
  -22.9033  -31.8713   -1.6493 H   0  0  0  0  0  0
  -24.2704  -30.9048   -2.2999 H   0  0  0  0  0  0
  1 14  2  0  0  0
  1 16  1  0  0  0
  1 29  1  0  0  0
  2 13  2  0  0  0
  2 14  1  0  0  0
  2 30  1  0  0  0
  3  9  1  0  0  0
  3 10  2  0  0  0
  3 13  1  0  0  0
  4 10  1  0  0  0
  4 11  2  0  0  0
  4 12  1  0  0  0
  5  6  1  0  0  0
  5  8  1  0  0  0
  5 25  1  0  0  0
  5 31  1  0  0  0
  6 26  1  0  0  0
  6 32  1  0  0  0
  6 33  1  0  0  0
  7 26  1  0  0  0
  7 27  1  0  0  0
  7 28  1  0  0  0
  7 34  1  0  0  0
  8 28  1  0  0  0
  8 35  1  0  0  0
  8 36  1  0  0  0
 12 13  1  0  0  0
 14 15  1  0  0  0
 15 18  2  0  0  0
 15 37  1  0  0  0
 16 17  2  0  0  0
 16 38  1  0  0  0
 17 18  1  0  0  0
 17 39  1  0  0  0
 18 19  1  0  0  0
 19 20  2  0  0  0
 19 21  1  0  0  0
 20 24  1  0  0  0
 21 22  2  0  0  0
 21 40  1  0  0  0
 22 23  1  0  0  0
 23 24  2  0  0  0
 23 41  1  0  0  0
 24 25  1  0  0  0
 25 42  1  0  0  0
 26 43  1  0  0  0
 26 44  1  0  0  0
 27 45  1  0  0  0
 27 46  1  0  0  0
 27 47  1  0  0  0
 28 48  1  0  0  0
 28 49  1  0  0  0
M  CHG  2   9  -1  27   1
M  END
> <s_m_source_file>
../3vbq_ligand.sdf

> <i_m_source_file_index>
1

> <s_epik_input>
Tz1DMVtOSF1DKD1PKVNDLzE9W0NIXVxjMltjSF1bY0hdW2NIXWMoW2NIXTIpLWMzbmMoW2NIXW5bY0hdMylbTkhdW0NASF00W0NIMl1bQ0gyXVtDQEhdKFtOSDMrXSlbQ0gyXVtDSDJdNA==

> <s_epik_cmdline>
J2VwaWtfYXBwJywgJy1pbWFlJywgJ2xpZ2FuZF9wcm8ubWFlJywgJy1vbWFlJywgJ2xpZ2FuZF9wcmVwLm1hZScsICctbXMnLCAnMScsICctcGgnLCAnNycsICctcGh0JywgJzAuNScsICctbnQn

> <r_lp_tautomer_probability>
0.999999901280008

> <r_epik_Ionization_Penalty>
  0.0634

> <r_epik_Ionization_Penalty_Charging>
  0.0632

> <r_epik_Ionization_Penalty_Neutral>
  0.0002

> <r_epik_State_Penalty>
  0.0548

> <r_epik_Charging_Adjusted_Penalty>
0.118050847349962

> <i_epik_Tot_Q>
0

> <i_epik_Tot_abs_Q>
2

$$$$
