3vbv_ligand
                    3D
 Schrodinger Suite 2020-3.
 22 23  0  0  1  0            999 V2000
   22.9780   34.2020    3.2010 C   0  0  0  0  0  0
   23.1880   35.5360    2.7380 C   0  0  0  0  0  0
   22.9520   35.8130    1.3880 C   0  0  0  0  0  0
   23.2350   37.1210    0.9450 C   0  0  0  0  0  0
   23.0140   37.4260   -0.4040 C   0  0  0  0  0  0
   22.5770   36.4410   -1.3450 C   0  0  0  0  0  0
   22.3240   35.1640   -0.8460 C   0  0  0  0  0  0
   21.8780   34.2070   -1.7450 O   0  0  0  0  0  0
   22.5210   34.8030    0.5250 C   0  0  0  0  0  0
   22.2800   33.5110    1.0240 N   0  0  0  0  0  0
   22.4810   33.1810    2.3390 C   0  0  0  0  0  0
   22.3070   31.8460    2.7830 C   0  0  0  0  0  0
   21.7370   31.1420    1.9420 O   0  0  0  0  0  0
   23.0390   31.3140    3.9720 N   0  0  0  0  0  0
   23.2032   33.9581    4.2392 H   0  0  0  0  0  0
   23.5235   36.3181    3.4191 H   0  0  0  0  0  0
   23.6157   37.8750    1.6340 H   0  0  0  0  0  0
   23.1803   38.4468   -0.7480 H   0  0  0  0  0  0
   22.4481   36.6775   -2.4012 H   0  0  0  0  0  0
   21.7234   34.4740   -2.8008 H   0  0  0  0  0  0
   23.5215   32.0075    4.6764 H   0  0  0  0  0  0
   23.0954   30.2288    4.1429 H   0  0  0  0  0  0
  1  2  2  0  0  0
  1 11  1  0  0  0
  1 15  1  0  0  0
  2  3  1  0  0  0
  2 16  1  0  0  0
  3  4  2  0  0  0
  3  9  1  0  0  0
  4  5  1  0  0  0
  4 17  1  0  0  0
  5  6  2  0  0  0
  5 18  1  0  0  0
  6  7  1  0  0  0
  6 19  1  0  0  0
  7  8  1  0  0  0
  7  9  2  0  0  0
  8 20  1  0  0  0
  9 10  1  0  0  0
 10 11  2  0  0  0
 11 12  1  0  0  0
 12 13  2  0  0  0
 12 14  1  0  0  0
 14 21  1  0  0  0
 14 22  1  0  0  0
M  END
> <s_m_source_file>
../3vbv_ligand.sdf

> <i_m_source_file_index>
1

> <s_epik_input>
W2NIXTFbY0hdYyhDKD1PKVtOSDJdKW5jKGMxMiljKFtPSF0pW2NIXVtjSF1bY0hdMg==

> <s_epik_cmdline>
J2VwaWtfYXBwJywgJy1pbWFlJywgJ2xpZ2FuZF9wcm8ubWFlJywgJy1vbWFlJywgJ2xpZ2FuZF9wcmVwLm1hZScsICctbXMnLCAnMScsICctcGgnLCAnNycsICctcGh0JywgJzAuNScsICctbnQn

> <r_epik_Ionization_Penalty>
  0.1061

> <r_epik_Ionization_Penalty_Charging>
  0.0000

> <r_epik_Ionization_Penalty_Neutral>
  0.1061

> <r_epik_State_Penalty>
  0.0959

> <r_epik_Charging_Adjusted_Penalty>
0.0959200246646697

> <i_epik_Tot_Q>
0

> <i_epik_Tot_abs_Q>
0

$$$$
