3vbw_ligand
                    3D
 Schrodinger Suite 2020-3.
 17 18  0  0  1  0            999 V2000
   23.1710   33.5730    3.3930 O   0  5  0  0  0  0
   22.7250   33.9470    2.2880 C   0  0  0  0  0  0
   22.9040   35.1720    1.6910 C   0  0  0  0  0  0
   23.3820   36.3300    2.1930 C   0  0  0  0  0  0
   23.4930   37.4620    1.3670 C   0  0  0  0  0  0
   23.0680   37.3740    0.0280 C   0  0  0  0  0  0
   22.5430   36.1410   -0.4340 C   0  0  0  0  0  0
   22.4930   35.0860    0.3810 C   0  0  0  0  0  0
   22.0290   33.8290    0.1720 C   0  0  0  0  0  0
   21.6140   33.3570   -0.9000 O   0  0  0  0  0  0
   21.8460   33.2340    1.4620 C   0  0  0  0  0  0
   21.7410   31.7360    1.5120 C   0  0  0  0  0  0
   21.5520   30.5400    1.5470 N   0  0  0  0  0  0
   23.6821   36.3875    3.2393 H   0  0  0  0  0  0
   23.9020   38.3938    1.7575 H   0  0  0  0  0  0
   23.1409   38.2338   -0.6380 H   0  0  0  0  0  0
   22.1792   36.0546   -1.4579 H   0  0  0  0  0  0
  1  2  1  0  0  0
  2  3  1  0  0  0
  2 11  2  0  0  0
  3  4  2  0  0  0
  3  8  1  0  0  0
  4  5  1  0  0  0
  4 14  1  0  0  0
  5  6  2  0  0  0
  5 15  1  0  0  0
  6  7  1  0  0  0
  6 16  1  0  0  0
  7  8  2  0  0  0
  7 17  1  0  0  0
  8  9  1  0  0  0
  9 10  2  0  0  0
  9 11  1  0  0  0
 11 12  1  0  0  0
 12 13  3  0  0  0
M  CHG  1   1  -1
M  END
> <s_m_source_file>
../3vbw_ligand.sdf

> <i_m_source_file_index>
1

> <s_epik_input>
Tz1DMVtDSF0oQyNOKUMoPU8pYyhjMTIpW2NIXVtjSF1bY0hdW2NIXTI=

> <s_epik_cmdline>
J2VwaWtfYXBwJywgJy1pbWFlJywgJ2xpZ2FuZF9wcm8ubWFlJywgJy1vbWFlJywgJ2xpZ2FuZF9wcmVwLm1hZScsICctbXMnLCAnMScsICctcGgnLCAnNycsICctcGh0JywgJzAuNScsICctbnQn

> <r_lp_tautomer_probability>
1

> <r_epik_Ionization_Penalty>
  0.0000

> <r_epik_Ionization_Penalty_Charging>
  0.0000

> <r_epik_Ionization_Penalty_Neutral>
  0.0000

> <r_epik_State_Penalty>
 -0.0000

> <r_epik_Charging_Adjusted_Penalty>
6.40733877681051e-07

> <i_epik_Tot_Q>
-1

> <i_epik_Tot_abs_Q>
1

$$$$
