3vbx_ligand
                    3D
 Schrodinger Suite 2020-3.
 18 19  0  0  1  0            999 V2000
  -17.4290  -35.1730   -0.6590 C   0  0  0  0  0  0
  -17.3640  -35.5540   -2.0070 C   0  0  0  0  0  0
  -16.6070  -34.9580   -2.7940 O   0  0  0  0  0  0
  -18.1310  -36.5620   -2.5000 O   0  0  0  0  0  0
  -19.0350  -37.2650   -1.7610 C   0  0  0  0  0  0
  -19.7430  -38.2440   -2.4320 C   0  0  0  0  0  0
  -20.6020  -39.0330   -1.7080 C   0  0  0  0  0  0
  -20.7230  -38.7150   -0.3570 C   0  0  0  0  0  0
  -21.7870  -39.7430    0.6110 Br  0  0  0  0  0  0
  -19.9720  -37.7520    0.3340 C   0  0  0  0  0  0
  -19.0740  -37.0030   -0.3970 C   0  0  0  0  0  0
  -18.2680  -35.9560    0.1260 C   0  0  0  0  0  0
  -18.3460  -35.6520    1.3960 O   0  0  0  0  0  0
  -16.4259  -35.2347   -0.2118 H   0  0  0  0  0  0
  -17.7994  -34.1397   -0.5874 H   0  0  0  0  0  0
  -19.6227  -38.3857   -3.5060 H   0  0  0  0  0  0
  -21.1544  -39.8561   -2.1614 H   0  0  0  0  0  0
  -20.0936  -37.6018    1.4067 H   0  0  0  0  0  0
  1  2  1  0  0  0
  1 12  1  0  0  0
  1 14  1  0  0  0
  1 15  1  0  0  0
  2  3  2  0  0  0
  2  4  1  0  0  0
  4  5  1  0  0  0
  5  6  2  0  0  0
  5 11  1  0  0  0
  6  7  1  0  0  0
  6 16  1  0  0  0
  7  8  2  0  0  0
  7 17  1  0  0  0
  8  9  1  0  0  0
  8 10  1  0  0  0
 10 11  2  0  0  0
 10 18  1  0  0  0
 11 12  1  0  0  0
 12 13  2  0  0  0
M  END
> <s_m_source_file>
../3vbx_ligand.sdf

> <i_m_source_file_index>
1

> <s_epik_input>
Tz1DKE8xKVtDSDJdQyg9TyljKGMxMilbY0hdYyhCcilbY0hdW2NIXTI=

> <s_epik_cmdline>
J2VwaWtfYXBwJywgJy1pbWFlJywgJ2xpZ2FuZF9wcm8ubWFlJywgJy1vbWFlJywgJ2xpZ2FuZF9wcmVwLm1hZScsICctbXMnLCAnMScsICctcGgnLCAnNycsICctcGh0JywgJzAuNScsICctbnQn

> <r_epik_Ionization_Penalty>
  0.0372

> <r_epik_Ionization_Penalty_Charging>
  0.0000

> <r_epik_Ionization_Penalty_Neutral>
  0.0372

> <r_epik_State_Penalty>
  0.0312

> <r_epik_Charging_Adjusted_Penalty>
0.0311565611674646

> <i_epik_Tot_Q>
0

> <i_epik_Tot_abs_Q>
0

$$$$
