3vc4_ligand
                    3D
 Schrodinger Suite 2020-3.
 23 24  0  0  1  0            999 V2000
   42.2280   -2.0760   -2.0700 C   0  0  0  0  0  0
   44.5320   -1.8050   -1.6630 C   0  0  0  0  0  0
   43.4780   -1.9430   -2.5870 C   0  0  0  0  0  0
   44.2540   -1.8310   -0.2490 C   0  0  0  0  0  0
   41.9510   -2.1070   -0.5810 C   0  0  0  0  0  0
   42.9630   -1.9660    0.3070 C   0  0  0  0  0  0
   38.5640   -2.9710    1.0700 C   0  0  0  0  0  0
   38.2140   -3.6680    2.4420 N   0  0  0  0  0  0
   39.4200   -3.9290    3.1110 C   0  0  0  0  0  0
   40.6920   -3.3460    2.2420 S   0  0  0  0  0  0
   40.0130   -2.7820    0.9750 C   0  0  0  0  0  0
   45.3830   -1.6550    0.6810 C   0  0  0  0  0  0
   40.5220   -2.2080   -0.1340 C   0  0  0  0  0  0
   37.7210   -2.6470    0.2790 O   0  5  0  0  0  0
   39.4310   -4.4690    4.1850 O   0  0  0  0  0  0
   46.5030   -2.2360    0.2200 F   0  0  0  0  0  0
   45.0540   -2.0310    1.9390 F   0  0  0  0  0  0
   45.5470   -0.3380    0.5690 F   0  0  0  0  0  0
   41.3870   -2.1643   -2.7578 H   0  0  0  0  0  0
   45.5554   -1.6789   -2.0164 H   0  0  0  0  0  0
   43.6558   -1.9431   -3.6624 H   0  0  0  0  0  0
   42.7921   -1.9572    1.3835 H   0  0  0  0  0  0
   39.8518   -1.7251   -0.8604 H   0  0  0  0  0  0
  1  3  2  0  0  0
  1  5  1  0  0  0
  1 19  1  0  0  0
  2  3  1  0  0  0
  2  4  2  0  0  0
  2 20  1  0  0  0
  3 21  1  0  0  0
  4  6  1  0  0  0
  4 12  1  0  0  0
  5  6  2  0  0  0
  5 13  1  0  0  0
  6 22  1  0  0  0
  7  8  2  0  0  0
  7 11  1  0  0  0
  7 14  1  0  0  0
  8  9  1  0  0  0
  9 10  1  0  0  0
  9 15  2  0  0  0
 10 11  1  0  0  0
 11 13  2  0  0  0
 12 16  1  0  0  0
 12 17  1  0  0  0
 12 18  1  0  0  0
 13 23  1  0  0  0
M  CHG  1  14  -1
M  END
> <s_m_source_file>
../3vc4_ligand.sdf

> <i_m_source_file_index>
1

> <s_epik_input>
RkMoRikoRiljMVtjSF1bY0hdW2NIXWMoW2NIXTEpXFtDSF09Q1wyU0MoPU8pW05IXUMyPU8=

> <s_epik_cmdline>
J2VwaWtfYXBwJywgJy1pbWFlJywgJ2xpZ2FuZF9wcm8ubWFlJywgJy1vbWFlJywgJ2xpZ2FuZF9wcmVwLm1hZScsICctbXMnLCAnMScsICctcGgnLCAnNycsICctcGh0JywgJzAuNScsICctbnQn

> <r_epik_Ionization_Penalty>
  0.0662

> <r_epik_Ionization_Penalty_Charging>
  0.0662

> <r_epik_Ionization_Penalty_Neutral>
  0.0000

> <r_epik_State_Penalty>
  0.0578

> <r_epik_Charging_Adjusted_Penalty>
0.124077434203273

> <i_epik_Tot_Q>
-1

> <i_epik_Tot_abs_Q>
1

$$$$
