3vd7_ligand
                    3D
 Schrodinger Suite 2020-3.
 24 25  0  0  1  0            999 V2000
   53.7990  -11.7540   27.8990 C   0  0  0  0  0  0
   54.3390  -10.4040   27.5970 C   0  0  1  0  0  0
   53.3890   -9.2610   28.0160 C   0  0  2  0  0  0
   51.9060   -9.6500   28.1790 C   0  0  2  0  0  0
   51.6580  -10.9400   28.9850 C   0  0  1  0  0  0
   50.2060  -11.4160   28.8780 C   0  0  0  0  0  0
   54.3490  -12.9680   27.6340 N   0  0  0  0  0  0
   55.5800  -10.2690   28.2920 O   0  0  0  0  0  0
   53.4930   -8.1820   27.0650 O   0  0  0  0  0  0
   51.3400   -9.7820   26.8690 O   0  0  0  0  0  0
   52.6340  -11.9600   28.5020 N   0  0  0  0  0  0
   49.4000  -10.6610   29.7900 O   0  0  0  0  0  0
   52.3660  -13.3300   28.6620 N   0  0  0  0  0  0
   53.4790  -13.9790   28.0980 N   0  0  0  0  0  0
   54.5293  -10.3490   26.5150 H   0  0  0  0  0  0
   53.7363   -8.8943   28.9932 H   0  0  0  0  0  0
   51.3803   -8.8383   28.7031 H   0  0  0  0  0  0
   51.8335  -10.7815   30.0593 H   0  0  0  0  0  0
   49.8451  -11.2638   27.8501 H   0  0  0  0  0  0
   50.1509  -12.4850   29.1314 H   0  0  0  0  0  0
   56.3875  -10.9964   28.1221 H   0  0  0  0  0  0
   54.4787   -7.7634   26.8137 H   0  0  0  0  0  0
   51.4205   -8.9542   26.1491 H   0  0  0  0  0  0
   48.3199  -10.8568   29.8613 H   0  0  0  0  0  0
  1  2  1  0  0  0
  1  7  2  0  0  0
  1 11  1  0  0  0
  2  3  1  0  0  0
  2  8  1  0  0  0
  2 15  1  0  0  0
  3  4  1  0  0  0
  3  9  1  0  0  0
  3 16  1  0  0  0
  4  5  1  0  0  0
  4 10  1  0  0  0
  4 17  1  0  0  0
  5  6  1  0  0  0
  5 11  1  0  0  0
  5 18  1  0  0  0
  6 12  1  0  0  0
  6 19  1  0  0  0
  6 20  1  0  0  0
  7 14  1  0  0  0
  8 21  1  0  0  0
  9 22  1  0  0  0
 10 23  1  0  0  0
 11 13  1  0  0  0
 12 24  1  0  0  0
 13 14  2  0  0  0
M  END
> <s_m_source_file>
../3vd7_ligand.sdf

> <i_m_source_file_index>
1

> <s_epik_input>
bjFubm4oYzEyKVtDQEhdKFtDSDJdW09IXSlbQ0BIXShbT0hdKVtDQEhdKFtPSF0pW0NASF0yW09IXQ==

> <s_epik_cmdline>
J2VwaWtfYXBwJywgJy1pbWFlJywgJ2xpZ2FuZF9wcm8ubWFlJywgJy1vbWFlJywgJ2xpZ2FuZF9wcmVwLm1hZScsICctbXMnLCAnMScsICctcGgnLCAnNycsICctcGh0JywgJzAuNScsICctbnQn

> <r_lp_tautomer_probability>
1

> <r_epik_Ionization_Penalty>
  0.0003

> <r_epik_Ionization_Penalty_Charging>
  0.0000

> <r_epik_Ionization_Penalty_Neutral>
  0.0003

> <r_epik_State_Penalty>
 -0.0000

> <r_epik_Charging_Adjusted_Penalty>
0

> <i_epik_Tot_Q>
0

> <i_epik_Tot_abs_Q>
0

$$$$
