3vdc_ligand
                    3D
 Schrodinger Suite 2020-3.
 33 33  0  0  1  0            999 V2000
  -14.3050  -27.6140  -26.3700 C   0  0  1  0  0  0
  -13.0010  -27.4150  -25.6020 C   0  0  2  0  0  0
  -13.1240  -26.2020  -24.8560 O   0  0  0  0  0  0
  -11.7910  -27.2960  -26.5400 C   0  0  1  0  0  0
  -10.5710  -27.4580  -25.8060 O   0  0  0  0  0  0
  -11.8200  -28.2710  -27.7240 C   0  0  1  0  0  0
  -11.4360  -29.5650  -27.2670 O   0  0  0  0  0  0
  -13.2240  -28.3270  -28.3220 C   0  0  2  0  0  0
  -14.1170  -28.6960  -27.2770 O   0  0  0  0  0  0
  -13.4000  -29.2960  -29.4870 C   0  0  0  0  0  0
  -12.3040  -29.1790  -30.4000 O   0  0  0  0  0  0
  -15.6200  -27.9490  -25.2320 S   0  0  0  0  0  0
  -17.2440  -28.2260  -25.9020 C   0  0  0  0  0  0
  -18.2550  -27.3100  -25.2140 C   0  0  0  0  0  0
  -17.3090  -28.0510  -27.4160 C   0  0  0  0  0  0
  -14.4278  -26.7688  -27.0632 H   0  0  0  0  0  0
  -12.8420  -28.2454  -24.8984 H   0  0  0  0  0  0
  -13.9361  -26.0871  -24.1230 H   0  0  0  0  0  0
  -11.7755  -26.2708  -26.9383 H   0  0  0  0  0  0
  -10.3764  -26.8376  -24.9187 H   0  0  0  0  0  0
  -11.0868  -27.9936  -28.4957 H   0  0  0  0  0  0
  -10.4493  -29.7145  -26.8044 H   0  0  0  0  0  0
  -13.4856  -27.3259  -28.6953 H   0  0  0  0  0  0
  -13.4400  -30.3264  -29.1040 H   0  0  0  0  0  0
  -14.3356  -29.0655  -30.0176 H   0  0  0  0  0  0
  -12.2698  -29.8080  -31.3018 H   0  0  0  0  0  0
  -17.6508  -29.2414  -25.7862 H   0  0  0  0  0  0
  -18.1941  -27.4495  -24.1246 H   0  0  0  0  0  0
  -19.2694  -27.5586  -25.5594 H   0  0  0  0  0  0
  -18.0294  -26.2625  -25.4628 H   0  0  0  0  0  0
  -16.5756  -28.7171  -27.8939 H   0  0  0  0  0  0
  -17.0792  -27.0068  -27.6746 H   0  0  0  0  0  0
  -18.3192  -28.3029  -27.7712 H   0  0  0  0  0  0
  1  2  1  0  0  0
  1  9  1  0  0  0
  1 12  1  0  0  0
  1 16  1  0  0  0
  2  3  1  0  0  0
  2  4  1  0  0  0
  2 17  1  0  0  0
  3 18  1  0  0  0
  4  5  1  0  0  0
  4  6  1  0  0  0
  4 19  1  0  0  0
  5 20  1  0  0  0
  6  7  1  0  0  0
  6  8  1  0  0  0
  6 21  1  0  0  0
  7 22  1  0  0  0
  8  9  1  0  0  0
  8 10  1  0  0  0
  8 23  1  0  0  0
 10 11  1  0  0  0
 10 24  1  0  0  0
 10 25  1  0  0  0
 11 26  1  0  0  0
 12 13  1  0  0  0
 13 14  1  0  0  0
 13 15  1  0  0  0
 13 27  1  0  0  0
 14 28  1  0  0  0
 14 29  1  0  0  0
 14 30  1  0  0  0
 15 31  1  0  0  0
 15 32  1  0  0  0
 15 33  1  0  0  0
M  END
> <s_m_source_file>
../3vdc_ligand.sdf

> <i_m_source_file_index>
1

> <s_epik_input>
W0NIM11bQ0hdKFtDSDNdKVNbQ0BIXTFbQ0BIXShbT0hdKVtDQEBIXShbT0hdKVtDQEBIXShbT0hdKVtDQEhdKE8xKVtDSDJdW09IXQ==

> <s_epik_cmdline>
J2VwaWtfYXBwJywgJy1pbWFlJywgJ2xpZ2FuZF9wcm8ubWFlJywgJy1vbWFlJywgJ2xpZ2FuZF9wcmVwLm1hZScsICctbXMnLCAnMScsICctcGgnLCAnNycsICctcGh0JywgJzAuNScsICctbnQn

> <r_lp_tautomer_probability>
1

> <r_epik_Ionization_Penalty>
  0.0000

> <r_epik_Ionization_Penalty_Charging>
  0.0000

> <r_epik_Ionization_Penalty_Neutral>
  0.0000

> <r_epik_State_Penalty>
 -0.0000

> <r_epik_Charging_Adjusted_Penalty>
0

> <i_epik_Tot_Q>
0

> <i_epik_Tot_abs_Q>
0

> <s_epik_Chemistry_Notes>
This compound contains an acetal/aminal-like group ( X-CH(R)-Y where X, Y are N, S, or O) that may be acid/base labile, releasing an aldehyde.

$$$$
