3veu_ligand
                    3D
 Schrodinger Suite 2020-3.
 90 93  0  0  1  0            999 V2000
   30.1300   78.7340   15.8710 N   0  3  2  0  0  0
   31.1620   77.6620   15.6870 C   0  0  1  0  0  0
   32.1880   78.3420   14.7440 C   0  0  0  0  0  0
   32.2210   79.7750   15.3040 C   0  0  0  0  0  0
   30.7020   80.0210   15.3990 C   0  0  0  0  0  0
   31.8200   77.1910   17.0200 C   0  0  0  0  0  0
   32.1030   75.6830   16.8590 C   0  0  0  0  0  0
   31.2120   75.3110   15.7650 N   0  0  0  0  0  0
   30.6500   76.3590   15.1230 C   0  0  0  0  0  0
   29.8430   76.3140   14.2030 O   0  0  0  0  0  0
   30.9320   73.9250   15.3620 C   0  0  2  0  0  0
   30.7840   73.0020   16.5540 C   0  0  0  0  0  0
   29.6150   73.0780   17.2590 N   0  0  0  0  0  0
   31.6990   72.2320   16.8410 O   0  0  0  0  0  0
   29.2280   78.8160   17.0510 C   0  0  0  0  0  0
   27.8750   78.1100   16.7750 C   0  0  0  0  0  0
   26.9240   78.2220   17.9920 C   0  0  0  0  0  0
   31.9530   73.4350   14.2950 C   0  0  0  0  0  0
   29.3280   72.2530   18.4470 C   0  0  2  0  0  0
   28.3840   71.0680   18.0730 C   0  0  1  0  0  0
   28.9700   70.1470   16.9750 C   0  0  0  0  0  0
   28.1370   68.9400   16.7910 N   0  3  0  0  0  0
   28.8240   67.7810   16.1650 C   0  0  0  0  0  0
   28.7310   73.1270   19.5920 C   0  0  0  0  0  0
   29.5700   74.3480   20.0040 C   0  0  0  0  0  0
   28.9050   75.5810   20.2180 C   0  0  0  0  0  0
   29.6320   76.7340   20.6030 C   0  0  0  0  0  0
   31.0350   76.6590   20.7760 C   0  0  0  0  0  0
   31.7070   75.4310   20.5630 C   0  0  0  0  0  0
   30.9800   74.2780   20.1780 C   0  0  0  0  0  0
   28.0190   70.2770   19.2180 O   0  0  0  0  0  0
   29.9550   67.2260   17.0540 C   0  0  0  0  0  0
   31.2870   67.2340   16.5700 C   0  0  0  0  0  0
   32.3330   66.7300   17.3790 C   0  0  0  0  0  0
   32.0590   66.2150   18.6670 C   0  0  0  0  0  0
   30.7320   66.1940   19.1700 C   0  0  0  0  0  0
   29.6880   66.7070   18.3490 C   0  0  0  0  0  0
   30.4660   65.6170   20.5820 C   0  0  0  0  0  0
   30.3680   66.7230   21.6600 C   0  0  0  0  0  0
   29.2500   64.6500   20.6440 C   0  0  0  0  0  0
   29.2952   78.3808   15.2479 H   0  0  0  0  0  0
   33.1553   77.8238   14.8199 H   0  0  0  0  0  0
   31.8242   78.2893   13.7072 H   0  0  0  0  0  0
   32.7467   79.7790   16.2703 H   0  0  0  0  0  0
   32.7479   80.4329   14.5972 H   0  0  0  0  0  0
   30.2711   80.2765   14.4197 H   0  0  0  0  0  0
   30.4648   80.8150   16.1224 H   0  0  0  0  0  0
   32.7523   77.7506   17.1865 H   0  0  0  0  0  0
   31.1282   77.3744   17.8553 H   0  0  0  0  0  0
   33.1651   75.5333   16.6149 H   0  0  0  0  0  0
   31.8660   75.1630   17.7989 H   0  0  0  0  0  0
   29.9321   73.9484   14.9041 H   0  0  0  0  0  0
   28.8686   73.8008   16.8980 H   0  0  0  0  0  0
   29.7073   78.3296   17.9134 H   0  0  0  0  0  0
   29.0301   79.8716   17.2886 H   0  0  0  0  0  0
   27.3882   78.5771   15.9062 H   0  0  0  0  0  0
   28.0531   77.0447   16.5667 H   0  0  0  0  0  0
   25.9759   77.7126   17.7646 H   0  0  0  0  0  0
   26.7279   79.2827   18.2076 H   0  0  0  0  0  0
   27.3927   77.7503   18.8682 H   0  0  0  0  0  0
   31.9972   74.1606   13.4694 H   0  0  0  0  0  0
   31.6357   72.4561   13.9062 H   0  0  0  0  0  0
   32.9478   73.3419   14.7550 H   0  0  0  0  0  0
   30.3008   71.8543   18.7705 H   0  0  0  0  0  0
   27.4320   71.4986   17.7290 H   0  0  0  0  0  0
   29.0116   70.6939   16.0215 H   0  0  0  0  0  0
   29.9844   69.8334   17.2624 H   0  0  0  0  0  0
   27.7717   68.5940   17.7692 H   0  0  0  0  0  0
   27.2806   69.1807   16.1440 H   0  0  0  0  0  0
   28.0972   66.9735   15.9923 H   0  0  0  0  0  0
   29.2637   68.0900   15.2052 H   0  0  0  0  0  0
   27.7501   73.5167   19.2823 H   0  0  0  0  0  0
   28.6127   72.5139   20.4976 H   0  0  0  0  0  0
   27.8249   75.6426   20.0852 H   0  0  0  0  0  0
   29.1118   77.6779   20.7659 H   0  0  0  0  0  0
   31.5968   77.5447   21.0726 H   0  0  0  0  0  0
   32.7873   75.3728   20.6958 H   0  0  0  0  0  0
   31.5020   73.3352   20.0147 H   0  0  0  0  0  0
   27.5825   70.7609   20.1042 H   0  0  0  0  0  0
   31.5052   67.6274   15.5771 H   0  0  0  0  0  0
   33.3573   66.7389   17.0065 H   0  0  0  0  0  0
   32.8746   65.8305   19.2794 H   0  0  0  0  0  0
   28.6637   66.7014   18.7216 H   0  0  0  0  0  0
   31.3541   65.0102   20.8125 H   0  0  0  0  0  0
   31.2427   67.3859   21.5858 H   0  0  0  0  0  0
   30.3417   66.2610   22.6579 H   0  0  0  0  0  0
   29.4500   67.3082   21.5025 H   0  0  0  0  0  0
   29.3540   63.8797   19.8656 H   0  0  0  0  0  0
   28.3220   65.2167   20.4774 H   0  0  0  0  0  0
   29.2137   64.1695   21.6328 H   0  0  0  0  0  0
  1  2  1  0  0  0
  1  5  1  0  0  0
  1 15  1  0  0  0
  1 41  1  0  0  0
  2  3  1  0  0  0
  2  6  1  0  0  0
  2  9  1  0  0  0
  3  4  1  0  0  0
  3 42  1  0  0  0
  3 43  1  0  0  0
  4  5  1  0  0  0
  4 44  1  0  0  0
  4 45  1  0  0  0
  5 46  1  0  0  0
  5 47  1  0  0  0
  6  7  1  0  0  0
  6 48  1  0  0  0
  6 49  1  0  0  0
  7  8  1  0  0  0
  7 50  1  0  0  0
  7 51  1  0  0  0
  8  9  1  0  0  0
  8 11  1  0  0  0
  9 10  2  0  0  0
 11 12  1  0  0  0
 11 18  1  0  0  0
 11 52  1  0  0  0
 12 13  1  0  0  0
 12 14  2  0  0  0
 13 19  1  0  0  0
 13 53  1  0  0  0
 15 16  1  0  0  0
 15 54  1  0  0  0
 15 55  1  0  0  0
 16 17  1  0  0  0
 16 56  1  0  0  0
 16 57  1  0  0  0
 17 58  1  0  0  0
 17 59  1  0  0  0
 17 60  1  0  0  0
 18 61  1  0  0  0
 18 62  1  0  0  0
 18 63  1  0  0  0
 19 20  1  0  0  0
 19 24  1  0  0  0
 19 64  1  0  0  0
 20 21  1  0  0  0
 20 31  1  0  0  0
 20 65  1  0  0  0
 21 22  1  0  0  0
 21 66  1  0  0  0
 21 67  1  0  0  0
 22 23  1  0  0  0
 22 68  1  0  0  0
 22 69  1  0  0  0
 23 32  1  0  0  0
 23 70  1  0  0  0
 23 71  1  0  0  0
 24 25  1  0  0  0
 24 72  1  0  0  0
 24 73  1  0  0  0
 25 26  2  0  0  0
 25 30  1  0  0  0
 26 27  1  0  0  0
 26 74  1  0  0  0
 27 28  2  0  0  0
 27 75  1  0  0  0
 28 29  1  0  0  0
 28 76  1  0  0  0
 29 30  2  0  0  0
 29 77  1  0  0  0
 30 78  1  0  0  0
 31 79  1  0  0  0
 32 33  2  0  0  0
 32 37  1  0  0  0
 33 34  1  0  0  0
 33 80  1  0  0  0
 34 35  2  0  0  0
 34 81  1  0  0  0
 35 36  1  0  0  0
 35 82  1  0  0  0
 36 37  2  0  0  0
 36 38  1  0  0  0
 37 83  1  0  0  0
 38 39  1  0  0  0
 38 40  1  0  0  0
 38 84  1  0  0  0
 39 85  1  0  0  0
 39 86  1  0  0  0
 39 87  1  0  0  0
 40 88  1  0  0  0
 40 89  1  0  0  0
 40 90  1  0  0  0
M  CHG  2   1   1  22   1
M  END
> <s_m_source_file>
../3veu_ligand.sdf

> <i_m_source_file_index>
1

> <s_epik_input>
W0NIMl0xW0NIMl1bQ0gyXVtOQEgrXShbQ0gyXVtDSDJdW0NIM10pW0NAXTEyW0NIMl1bQ0gyXU4oQzI9TylbQ0BASF0oW0NIM10pQyg9TylbTkhdW0NAQEhdKFtDSDJdYzNbY0hdW2NIXVtjSF1bY0hdW2NIXTMpW0NASF0oW09IXSlbQ0gyXVtOSDIrXVtDSDJdYzRbY0hdW2NIXVtjSF1jKFtjSF00KVtDSF0oW0NIM10pW0NIM10=

> <s_epik_cmdline>
J2VwaWtfYXBwJywgJy1pbWFlJywgJ2xpZ2FuZF9wcm8ubWFlJywgJy1vbWFlJywgJ2xpZ2FuZF9wcmVwLm1hZScsICctbXMnLCAnMScsICctcGgnLCAnNycsICctcGh0JywgJzAuNScsICctbnQn

> <r_lp_tautomer_probability>
1

> <r_epik_Ionization_Penalty>
  0.0304

> <r_epik_Ionization_Penalty_Charging>
  0.0304

> <r_epik_Ionization_Penalty_Neutral>
  0.0000

> <r_epik_State_Penalty>
 -0.0000

> <r_epik_Charging_Adjusted_Penalty>
0.0303902531283377

> <i_epik_Tot_Q>
2

> <i_epik_Tot_abs_Q>
2

$$$$
