3vf3_ligand
                    3D
 Schrodinger Suite 2020-3.
 56 58  0  0  1  0            999 V2000
   29.3810   78.9180   19.8940 Br  0  0  0  0  0  0
   30.1390   77.3370   20.5050 C   0  0  0  0  0  0
   31.3930   77.2540   21.1810 C   0  0  0  0  0  0
   31.8640   75.9770   21.5940 C   0  0  0  0  0  0
   31.1140   74.8060   21.3480 C   0  0  0  0  0  0
   29.8700   74.8920   20.6740 C   0  0  0  0  0  0
   29.3930   76.1630   20.2630 C   0  0  0  0  0  0
   29.0400   73.6260   20.3770 C   0  0  0  0  0  0
   29.7230   72.7210   19.2810 C   0  0  1  0  0  0
   28.8460   71.5130   18.8070 C   0  0  1  0  0  0
   29.5950   70.5510   17.8270 C   0  0  2  0  0  0
   30.1430   71.2460   16.5490 C   0  0  0  0  0  0
   31.2730   72.5680   17.0070 S   0  0  0  0  0  0
   30.1910   73.5540   18.0410 C   0  0  0  0  0  0
   31.6000   73.3340   15.8180 O   0  0  0  0  0  0
   32.3760   72.0310   17.7830 O   0  0  0  0  0  0
   28.7710   69.3580   17.4880 N   0  3  0  0  0  0
   29.3980   68.1270   16.9310 C   0  0  0  0  0  0
   30.4660   67.5790   17.8990 C   0  0  0  0  0  0
   30.0700   67.0210   19.1380 C   0  0  0  0  0  0
   31.0200   66.5080   20.0570 C   0  0  0  0  0  0
   32.4020   66.5860   19.7220 C   0  0  0  0  0  0
   32.8140   67.1400   18.4840 C   0  0  0  0  0  0
   31.8480   67.6460   17.5790 C   0  0  0  0  0  0
   30.5370   65.9020   21.3960 C   0  0  0  0  0  0
   29.1780   65.8110   21.4370 F   0  0  0  0  0  0
   30.9250   66.6790   22.4470 F   0  0  0  0  0  0
   31.0870   64.4690   21.5920 C   0  0  0  0  0  0
   28.4640   70.6540   19.8960 O   0  0  0  0  0  0
   33.0330   75.8630   22.2240 F   0  0  0  0  0  0
   32.1630   78.3410   21.4460 N   0  0  0  0  0  0
   31.4912   73.8374   21.6760 H   0  0  0  0  0  0
   28.4333   76.2346   19.7512 H   0  0  0  0  0  0
   28.9340   73.0328   21.2973 H   0  0  0  0  0  0
   28.0441   73.9177   20.0121 H   0  0  0  0  0  0
   30.6049   72.2930   19.7801 H   0  0  0  0  0  0
   27.9364   71.9612   18.3807 H   0  0  0  0  0  0
   30.4670   70.1562   18.3689 H   0  0  0  0  0  0
   30.6780   70.5093   15.9318 H   0  0  0  0  0  0
   29.3059   71.6677   15.9734 H   0  0  0  0  0  0
   29.3133   73.8618   17.4537 H   0  0  0  0  0  0
   30.7347   74.4469   18.3831 H   0  0  0  0  0  0
   28.2582   68.9977   18.3920 H   0  0  0  0  0  0
   28.0247   69.6318   16.7277 H   0  0  0  0  0  0
   28.6256   67.3586   16.7792 H   0  0  0  0  0  0
   29.8755   68.3621   15.9683 H   0  0  0  0  0  0
   29.0105   66.9848   19.3914 H   0  0  0  0  0  0
   33.1496   66.2164   20.4238 H   0  0  0  0  0  0
   33.8730   67.1768   18.2283 H   0  0  0  0  0  0
   32.1665   68.0878   16.6348 H   0  0  0  0  0  0
   30.7764   63.8382   20.7461 H   0  0  0  0  0  0
   30.6902   64.0488   22.5279 H   0  0  0  0  0  0
   32.1854   64.5014   21.6413 H   0  0  0  0  0  0
   27.9097   71.0652   20.7525 H   0  0  0  0  0  0
   31.8257   79.3420   21.1391 H   0  0  0  0  0  0
   33.1239   78.2204   21.9676 H   0  0  0  0  0  0
  1  2  1  0  0  0
  2  3  2  0  0  0
  2  7  1  0  0  0
  3  4  1  0  0  0
  3 31  1  0  0  0
  4  5  2  0  0  0
  4 30  1  0  0  0
  5  6  1  0  0  0
  5 32  1  0  0  0
  6  7  2  0  0  0
  6  8  1  0  0  0
  7 33  1  0  0  0
  8  9  1  0  0  0
  8 34  1  0  0  0
  8 35  1  0  0  0
  9 10  1  0  0  0
  9 14  1  0  0  0
  9 36  1  0  0  0
 10 11  1  0  0  0
 10 29  1  0  0  0
 10 37  1  0  0  0
 11 12  1  0  0  0
 11 17  1  0  0  0
 11 38  1  0  0  0
 12 13  1  0  0  0
 12 39  1  0  0  0
 12 40  1  0  0  0
 13 14  1  0  0  0
 13 15  2  0  0  0
 13 16  2  0  0  0
 14 41  1  0  0  0
 14 42  1  0  0  0
 17 18  1  0  0  0
 17 43  1  0  0  0
 17 44  1  0  0  0
 18 19  1  0  0  0
 18 45  1  0  0  0
 18 46  1  0  0  0
 19 20  2  0  0  0
 19 24  1  0  0  0
 20 21  1  0  0  0
 20 47  1  0  0  0
 21 22  2  0  0  0
 21 25  1  0  0  0
 22 23  1  0  0  0
 22 48  1  0  0  0
 23 24  2  0  0  0
 23 49  1  0  0  0
 24 50  1  0  0  0
 25 26  1  0  0  0
 25 27  1  0  0  0
 25 28  1  0  0  0
 28 51  1  0  0  0
 28 52  1  0  0  0
 28 53  1  0  0  0
 29 54  1  0  0  0
 31 55  1  0  0  0
 31 56  1  0  0  0
M  CHG  1  17   1
M  END
> <s_m_source_file>
../3vf3_ligand.sdf

> <i_m_source_file_index>
1

> <s_epik_input>
QnJjMWMoW05IMl0pYyhGKVtjSF1jKFtjSF0xKVtDSDJdW0NASF0oW0NIMl0yKVtDQEhdKFtPSF0pW0NASF0oW0NIMl1TMig9Tyk9TylbTkgyK11bQ0gyXWMzW2NIXWMoQyhGKShGKVtDSDNdKVtjSF1bY0hdW2NIXTM=

> <s_epik_cmdline>
J2VwaWtfYXBwJywgJy1pbWFlJywgJ2xpZ2FuZF9wcm8ubWFlJywgJy1vbWFlJywgJ2xpZ2FuZF9wcmVwLm1hZScsICctbXMnLCAnMScsICctcGgnLCAnNycsICctcGh0JywgJzAuNScsICctbnQn

> <r_epik_Ionization_Penalty>
  0.1428

> <r_epik_Ionization_Penalty_Charging>
  0.1427

> <r_epik_Ionization_Penalty_Neutral>
  0.0001

> <r_epik_State_Penalty>
  0.1320

> <r_epik_Charging_Adjusted_Penalty>
0.274672098172957

> <i_epik_Tot_Q>
1

> <i_epik_Tot_abs_Q>
1

$$$$
