3vf7_ligand
                    3D
 Schrodinger Suite 2020-3.
 81 85  0  0  1  0            999 V2000
    7.3650   14.1990   14.7430 O   0  0  0  0  0  0
    6.0010   14.2340   15.1570 C   0  0  0  0  0  0
    8.0210   15.3540   14.9890 C   0  0  0  0  0  0
    7.4450   16.4900   15.5500 C   0  0  0  0  0  0
    8.2580   17.6180   15.6820 C   0  0  0  0  0  0
    9.6220   17.5730   15.4340 C   0  0  0  0  0  0
   10.1670   16.4490   14.8690 C   0  0  0  0  0  0
    9.3470   15.3550   14.5850 C   0  0  0  0  0  0
   10.6240   18.9600   15.8910 S   0  0  0  0  0  0
   11.7350   19.0630   14.8760 O   0  0  0  0  0  0
    9.7410   20.1000   16.0820 O   0  0  0  0  0  0
   11.3200   18.5870   17.3360 N   0  0  1  0  0  0
   10.4260   18.1800   18.3720 C   0  0  0  0  0  0
   10.9490   18.4420   19.7990 C   0  0  1  0  0  0
   10.9400   19.9180   20.1940 C   0  0  0  0  0  0
    9.9710   17.7940   20.6790 N   0  0  0  0  0  0
    9.1240   18.6780   21.1470 C   0  0  0  0  0  0
    8.1410   18.3470   21.8070 O   0  0  0  0  0  0
    9.5330   20.0870   20.7710 C   0  0  0  0  0  0
   12.6160   17.9410   17.3670 C   0  0  0  0  0  0
   13.6710   18.8820   18.0130 C   0  0  1  0  0  0
   14.7690   18.0290   18.3120 O   0  0  0  0  0  0
   14.0560   20.0080   17.0580 C   0  0  1  0  0  0
   14.8780   20.9600   17.7760 N   0  0  0  0  0  0
   14.4480   22.1160   18.2900 C   0  0  0  0  0  0
   13.3460   22.5970   18.2000 O   0  0  0  0  0  0
   15.4600   22.7790   18.9330 O   0  0  0  0  0  0
   15.1760   25.0400   18.0720 C   0  0  0  0  0  0
   15.1550   24.1280   19.2940 C   0  0  2  0  0  0
   16.3160   24.6260   20.1840 C   0  0  0  0  0  0
   17.3790   25.0690   19.2010 C   0  0  1  0  0  0
   18.2090   23.9750   18.7890 O   0  0  0  0  0  0
   18.1100   23.6780   17.4330 C   0  0  0  0  0  0
   17.4160   24.9240   16.8180 C   0  0  0  0  0  0
   16.6190   25.5040   17.9750 C   0  0  1  0  0  0
   14.8060   19.5940   15.7770 C   0  0  0  0  0  0
   16.4780   21.2120   14.7920 C   0  0  0  0  0  0
   16.7700   22.3530   14.0350 C   0  0  0  0  0  0
   15.7490   23.0220   13.3470 C   0  0  0  0  0  0
   14.4500   22.5180   13.3590 C   0  0  0  0  0  0
   14.1610   21.4000   14.1400 C   0  0  0  0  0  0
   15.1520   20.7620   14.8730 C   0  0  0  0  0  0
    5.5242   13.2689   14.9305 H   0  0  0  0  0  0
    5.4754   15.0376   14.6203 H   0  0  0  0  0  0
    5.9511   14.4225   16.2396 H   0  0  0  0  0  0
    6.4039   16.4990   15.8726 H   0  0  0  0  0  0
    7.8072   18.5617   15.9890 H   0  0  0  0  0  0
   11.2326   16.4096   14.6431 H   0  0  0  0  0  0
    9.7508   14.4992   14.0440 H   0  0  0  0  0  0
    9.4760   18.7254   18.2718 H   0  0  0  0  0  0
   10.2385   17.0991   18.2909 H   0  0  0  0  0  0
   11.9745   18.0576   19.9022 H   0  0  0  0  0  0
   11.7332   20.1047   20.9329 H   0  0  0  0  0  0
   11.1165   20.5373   19.3022 H   0  0  0  0  0  0
   10.0255   16.7100   20.8579 H   0  0  0  0  0  0
    9.5725   20.7554   21.6437 H   0  0  0  0  0  0
    8.8727   20.5215   20.0060 H   0  0  0  0  0  0
   12.5502   17.0154   17.9577 H   0  0  0  0  0  0
   12.9300   17.6996   16.3408 H   0  0  0  0  0  0
   13.3622   19.3639   18.9524 H   0  0  0  0  0  0
   14.6322   17.1736   18.9899 H   0  0  0  0  0  0
   13.1108   20.4762   16.7459 H   0  0  0  0  0  0
   15.9471   20.7548   17.9335 H   0  0  0  0  0  0
   14.8660   24.4700   17.1837 H   0  0  0  0  0  0
   14.4830   25.8797   18.2291 H   0  0  0  0  0  0
   14.1586   24.0871   19.7583 H   0  0  0  0  0  0
   15.9652   25.4574   20.8131 H   0  0  0  0  0  0
   16.6655   23.8033   20.8251 H   0  0  0  0  0  0
   18.0526   25.8165   19.6453 H   0  0  0  0  0  0
   19.1163   23.5198   17.0179 H   0  0  0  0  0  0
   17.5109   22.7650   17.3004 H   0  0  0  0  0  0
   18.1798   25.6234   16.4472 H   0  0  0  0  0  0
   16.7706   24.6101   15.9844 H   0  0  0  0  0  0
   16.5350   26.5939   17.8527 H   0  0  0  0  0  0
   15.7493   19.0977   16.0486 H   0  0  0  0  0  0
   14.1815   18.9008   15.1943 H   0  0  0  0  0  0
   17.2731   20.6788   15.3131 H   0  0  0  0  0  0
   17.7943   22.7219   13.9807 H   0  0  0  0  0  0
   15.9714   23.9389   12.8011 H   0  0  0  0  0  0
   13.6690   22.9923   12.7647 H   0  0  0  0  0  0
   13.1398   21.0206   14.1756 H   0  0  0  0  0  0
  1  2  1  0  0  0
  1  3  1  0  0  0
  2 43  1  0  0  0
  2 44  1  0  0  0
  2 45  1  0  0  0
  3  4  2  0  0  0
  3  8  1  0  0  0
  4  5  1  0  0  0
  4 46  1  0  0  0
  5  6  2  0  0  0
  5 47  1  0  0  0
  6  7  1  0  0  0
  6  9  1  0  0  0
  7  8  2  0  0  0
  7 48  1  0  0  0
  8 49  1  0  0  0
  9 10  2  0  0  0
  9 11  2  0  0  0
  9 12  1  0  0  0
 12 13  1  0  0  0
 12 20  1  0  0  0
 13 14  1  0  0  0
 13 50  1  0  0  0
 13 51  1  0  0  0
 14 15  1  0  0  0
 14 16  1  0  0  0
 14 52  1  0  0  0
 15 19  1  0  0  0
 15 53  1  0  0  0
 15 54  1  0  0  0
 16 17  1  0  0  0
 16 55  1  0  0  0
 17 18  2  0  0  0
 17 19  1  0  0  0
 19 56  1  0  0  0
 19 57  1  0  0  0
 20 21  1  0  0  0
 20 58  1  0  0  0
 20 59  1  0  0  0
 21 22  1  0  0  0
 21 23  1  0  0  0
 21 60  1  0  0  0
 22 61  1  0  0  0
 23 24  1  0  0  0
 23 36  1  0  0  0
 23 62  1  0  0  0
 24 25  1  0  0  0
 24 63  1  0  0  0
 25 26  2  0  0  0
 25 27  1  0  0  0
 27 29  1  0  0  0
 28 29  1  0  0  0
 28 35  1  0  0  0
 28 64  1  0  0  0
 28 65  1  0  0  0
 29 30  1  0  0  0
 29 66  1  0  0  0
 30 31  1  0  0  0
 30 67  1  0  0  0
 30 68  1  0  0  0
 31 32  1  0  0  0
 31 35  1  0  0  0
 31 69  1  0  0  0
 32 33  1  0  0  0
 33 34  1  0  0  0
 33 70  1  0  0  0
 33 71  1  0  0  0
 34 35  1  0  0  0
 34 72  1  0  0  0
 34 73  1  0  0  0
 35 74  1  0  0  0
 36 42  1  0  0  0
 36 75  1  0  0  0
 36 76  1  0  0  0
 37 38  2  0  0  0
 37 42  1  0  0  0
 37 77  1  0  0  0
 38 39  1  0  0  0
 38 78  1  0  0  0
 39 40  2  0  0  0
 39 79  1  0  0  0
 40 41  1  0  0  0
 40 80  1  0  0  0
 41 42  2  0  0  0
 41 81  1  0  0  0
M  END
> <s_m_source_file>
../3vf7_ligand.sdf

> <i_m_source_file_index>
1

> <s_epik_input>
W0NIM11PYzFbY0hdW2NIXWMoW2NIXVtjSF0xKVMoPU8pKD1PKU4oW0NIMl1bQ0BIXTJbQ0gyXVtDSDJdQyg9TylbTkhdMilbQ0gyXVtDQEBIXShbT0hdKVtDQEhdKFtDSDJdYzNbY0hdW2NIXVtjSF1bY0hdW2NIXTMpW05IXUMoPU8pT1tDQEBIXShbQ0gyXTQpW0NIMl1bQ0BASF0oW0NAQEhdNDUpW0NIMl1bQ0gyXU81

> <s_epik_cmdline>
J2VwaWtfYXBwJywgJy1pbWFlJywgJ2xpZ2FuZF9wcm8ubWFlJywgJy1vbWFlJywgJ2xpZ2FuZF9wcmVwLm1hZScsICctbXMnLCAnMScsICctcGgnLCAnNycsICctcGh0JywgJzAuNScsICctbnQn

> <r_lp_tautomer_probability>
1

> <r_epik_Ionization_Penalty>
  0.0000

> <r_epik_Ionization_Penalty_Charging>
  0.0000

> <r_epik_Ionization_Penalty_Neutral>
  0.0000

> <r_epik_State_Penalty>
 -0.0000

> <r_epik_Charging_Adjusted_Penalty>
0

> <i_epik_Tot_Q>
0

> <i_epik_Tot_abs_Q>
0

> <s_epik_Chemistry_Notes>
This compound has an ester and may undergo hydrolysis at high or low pH.

$$$$
