3vf8_ligand
                    3D
 Schrodinger Suite 2020-3.
 47 49  0  0  1  0            999 V2000
    4.5720   -5.0060  -16.7650 C   0  0  0  0  0  0
    3.2220   -4.5530  -16.2050 C   0  0  0  0  0  0
    3.3930   -3.1970  -15.7650 O   0  0  0  0  0  0
    2.2550   -2.5230  -15.4210 C   0  0  0  0  0  0
    1.0200   -2.7800  -16.0330 C   0  0  0  0  0  0
    2.3540   -1.5140  -14.4610 C   0  0  0  0  0  0
    3.5420   -1.2640  -13.8740 F   0  0  0  0  0  0
    1.2310   -0.7670  -14.1040 C   0  0  0  0  0  0
    0.0010   -1.0360  -14.7060 C   0  0  0  0  0  0
   -1.2060   -0.5050  -14.5580 N   0  3  0  0  0  0
   -0.1040   -2.0300  -15.6740 C   0  0  0  0  0  0
   -1.3730   -2.0450  -16.0760 N   0  0  0  0  0  0
   -2.0470   -1.1150  -15.3930 C   0  0  0  0  0  0
   -3.4030   -0.8210  -15.5420 C   0  0  0  0  0  0
   -4.3120   -1.4190  -16.3090 N   0  0  0  0  0  0
   -5.4060   -0.8530  -16.1720 N   0  3  0  0  0  0
   -5.3230    0.1700  -15.3100 C   0  0  0  0  0  0
   -4.0630    0.2050  -14.8860 C   0  0  0  0  0  0
   -3.4790    1.0910  -14.0620 N   0  0  0  0  0  0
   -3.8440    2.3670  -13.8430 C   0  0  0  0  0  0
   -4.8560    2.8660  -14.3390 O   0  0  0  0  0  0
   -3.0630    3.0810  -13.0180 N   0  0  0  0  0  0
   -1.8470    2.5140  -12.4070 C   0  0  0  0  0  0
   -0.6280    2.9530  -13.2200 C   0  0  0  0  0  0
   -3.3850    4.4800  -12.6830 C   0  0  0  0  0  0
   -2.9330    5.3950  -13.8240 C   0  0  0  0  0  0
    4.4928   -6.0450  -17.1173 H   0  0  0  0  0  0
    5.3358   -4.9436  -15.9759 H   0  0  0  0  0  0
    4.8579   -4.3550  -17.6043 H   0  0  0  0  0  0
    2.4582   -4.6154  -16.9941 H   0  0  0  0  0  0
    2.9361   -5.2040  -15.3657 H   0  0  0  0  0  0
    0.9364   -3.5627  -16.7869 H   0  0  0  0  0  0
    1.3140    0.0234  -13.3580 H   0  0  0  0  0  0
   -6.0497    0.9064  -14.9363 H   0  0  0  0  0  0
   -2.5978    0.7965  -13.4731 H   0  0  0  0  0  0
   -1.7528    2.8771  -11.3729 H   0  0  0  0  0  0
   -1.9152    1.4161  -12.4053 H   0  0  0  0  0  0
    0.2836    2.5333  -12.7696 H   0  0  0  0  0  0
   -0.5643    4.0512  -13.2213 H   0  0  0  0  0  0
   -0.7267    2.5902  -14.2537 H   0  0  0  0  0  0
   -4.4708    4.5820  -12.5394 H   0  0  0  0  0  0
   -2.8643    4.7644  -11.7567 H   0  0  0  0  0  0
   -3.1733    6.4389  -13.5740 H   0  0  0  0  0  0
   -3.4537    5.1106  -14.7503 H   0  0  0  0  0  0
   -1.8472    5.2930  -13.9676 H   0  0  0  0  0  0
   -6.2845   -1.2122  -16.7280 H   0  0  0  0  0  0
   -1.3653    0.3046  -13.8305 H   0  0  0  0  0  0
  1  2  1  0  0  0
  1 27  1  0  0  0
  1 28  1  0  0  0
  1 29  1  0  0  0
  2  3  1  0  0  0
  2 30  1  0  0  0
  2 31  1  0  0  0
  3  4  1  0  0  0
  4  5  2  0  0  0
  4  6  1  0  0  0
  5 11  1  0  0  0
  5 32  1  0  0  0
  6  7  1  0  0  0
  6  8  2  0  0  0
  8  9  1  0  0  0
  8 33  1  0  0  0
  9 10  1  0  0  0
  9 11  2  0  0  0
 10 13  2  0  0  0
 10 47  1  0  0  0
 11 12  1  0  0  0
 12 13  1  0  0  0
 13 14  1  0  0  0
 14 15  2  0  0  0
 14 18  1  0  0  0
 15 16  1  0  0  0
 16 17  1  0  0  0
 16 46  1  0  0  0
 17 18  2  0  0  0
 17 34  1  0  0  0
 18 19  1  0  0  0
 19 20  1  0  0  0
 19 35  1  0  0  0
 20 21  2  0  0  0
 20 22  1  0  0  0
 22 23  1  0  0  0
 22 25  1  0  0  0
 23 24  1  0  0  0
 23 36  1  0  0  0
 23 37  1  0  0  0
 24 38  1  0  0  0
 24 39  1  0  0  0
 24 40  1  0  0  0
 25 26  1  0  0  0
 25 41  1  0  0  0
 25 42  1  0  0  0
 26 43  1  0  0  0
 26 44  1  0  0  0
 26 45  1  0  0  0
M  CHG  2  10   1  16   1
M  END
> <s_m_source_file>
../3vf8_ligand.sdf

> <i_m_source_file_index>
1

> <s_epik_input>
W0NIM11bQ0gyXU9jKGMoRilbY0hdMSlbY0hdYyhjMTIpW25IXWMobjIpLWMzbltuSF1bY0hdYzNbTkhdQyg9TylOKFtDSDJdW0NIM10pW0NIMl1bQ0gzXQ==

> <s_epik_cmdline>
J2VwaWtfYXBwJywgJy1pbWFlJywgJ2xpZ2FuZF9wcm8ubWFlJywgJy1vbWFlJywgJ2xpZ2FuZF9wcmVwLm1hZScsICctbXMnLCAnMScsICctcGgnLCAnNycsICctcGh0JywgJzAuNScsICctbnQn

> <r_epik_Ionization_Penalty>
  4.1163

> <r_epik_Ionization_Penalty_Charging>
  0.0000

> <r_epik_Ionization_Penalty_Neutral>
  4.1163

> <r_epik_State_Penalty>
  0.2317

> <r_epik_Charging_Adjusted_Penalty>
0.231675893140911

> <i_epik_Tot_Q>
2

> <i_epik_Tot_abs_Q>
2

> <s_epik_Chemistry_Notes>
This compound has an imine and may undergo hydrolysis.

$$$$
