3vf9_ligand
                    3D
 Schrodinger Suite 2020-3.
 36 39  0  0  1  0            999 V2000
    4.6870   -3.1810  -15.2690 C   0  0  0  0  0  0
    3.3940   -3.6470  -15.9460 C   0  0  0  0  0  0
    3.0560   -5.0670  -15.4830 C   0  0  0  0  0  0
    3.5570   -3.6260  -17.3670 O   0  0  0  0  0  0
    2.2210   -2.7200  -15.5700 C   0  0  0  0  0  0
    0.9570   -2.9490  -16.1230 C   0  0  0  0  0  0
    2.3940   -1.6610  -14.6710 C   0  0  0  0  0  0
    1.3210   -0.8350  -14.3330 C   0  0  0  0  0  0
    0.0650   -1.0690  -14.8930 C   0  0  0  0  0  0
   -1.1100   -0.4620  -14.7590 C   0  0  0  0  0  0
   -0.1150   -2.1180  -15.7880 C   0  0  0  0  0  0
   -1.3910   -2.0960  -16.1580 N   0  3  0  0  0  0
   -2.0020   -1.0910  -15.5270 C   0  0  0  0  0  0
   -3.3500   -0.7650  -15.6670 C   0  0  0  0  0  0
   -4.2520   -1.3150  -16.4760 N   0  3  0  0  0  0
   -5.3520   -0.7670  -16.3280 N   0  0  0  0  0  0
   -5.3200    0.1910  -15.3930 C   0  0  0  0  0  0
   -6.1110    1.1020  -14.7840 C   0  0  0  0  0  0
   -4.0080    0.2020  -14.9280 C   0  0  0  0  0  0
   -3.9100    1.4130  -13.7650 S   0  0  0  0  0  0
   -5.5330    1.8750  -13.8510 C   0  0  0  0  0  0
    5.5107   -3.8540  -15.5492 H   0  0  0  0  0  0
    4.5555   -3.1972  -14.1770 H   0  0  0  0  0  0
    4.9230   -2.1572  -15.5947 H   0  0  0  0  0  0
    3.8830   -5.7441  -15.7431 H   0  0  0  0  0  0
    2.1349   -5.4053  -15.9802 H   0  0  0  0  0  0
    2.9073   -5.0716  -14.3931 H   0  0  0  0  0  0
    4.3481   -4.2273  -17.8388 H   0  0  0  0  0  0
    0.8080   -3.7768  -16.8162 H   0  0  0  0  0  0
    3.3748   -1.4800  -14.2313 H   0  0  0  0  0  0
    1.4638   -0.0106  -13.6344 H   0  0  0  0  0  0
   -1.4172    0.4063  -14.1576 H   0  0  0  0  0  0
   -7.1661    1.2041  -15.0378 H   0  0  0  0  0  0
   -6.0183    2.6526  -13.2612 H   0  0  0  0  0  0
   -1.7683   -2.8388  -16.8763 H   0  0  0  0  0  0
   -3.9610   -2.1375  -17.1459 H   0  0  0  0  0  0
  1  2  1  0  0  0
  1 22  1  0  0  0
  1 23  1  0  0  0
  1 24  1  0  0  0
  2  3  1  0  0  0
  2  4  1  0  0  0
  2  5  1  0  0  0
  3 25  1  0  0  0
  3 26  1  0  0  0
  3 27  1  0  0  0
  4 28  1  0  0  0
  5  6  2  0  0  0
  5  7  1  0  0  0
  6 11  1  0  0  0
  6 29  1  0  0  0
  7  8  2  0  0  0
  7 30  1  0  0  0
  8  9  1  0  0  0
  8 31  1  0  0  0
  9 10  1  0  0  0
  9 11  2  0  0  0
 10 13  2  0  0  0
 10 32  1  0  0  0
 11 12  1  0  0  0
 12 13  1  0  0  0
 12 35  1  0  0  0
 13 14  1  0  0  0
 14 15  2  0  0  0
 14 19  1  0  0  0
 15 16  1  0  0  0
 15 36  1  0  0  0
 16 17  1  0  0  0
 17 18  1  0  0  0
 17 19  2  0  0  0
 18 21  2  0  0  0
 18 33  1  0  0  0
 19 20  1  0  0  0
 20 21  1  0  0  0
 21 34  1  0  0  0
M  CHG  2  12   1  15   1
M  END
> <s_m_source_file>
../3vf9_ligand.sdf

> <i_m_source_file_index>
1

> <s_epik_input>
W0NIM11DKFtDSDNdKShbT0hdKWMoW2NIXVtjSF0xKVtjSF1jKGMxMilbbkhdYyhbY0hdMiktYyhuW25IXTMpYyhjMzQpc1tjSF1bY0hdNA==

> <s_epik_cmdline>
J2VwaWtfYXBwJywgJy1pbWFlJywgJ2xpZ2FuZF9wcm8ubWFlJywgJy1vbWFlJywgJ2xpZ2FuZF9wcmVwLm1hZScsICctbXMnLCAnMScsICctcGgnLCAnNycsICctcGh0JywgJzAuNScsICctbnQn

> <r_epik_Ionization_Penalty>
  0.0000

> <r_epik_Ionization_Penalty_Charging>
  0.0000

> <r_epik_Ionization_Penalty_Neutral>
  0.0000

> <r_epik_State_Penalty>
  0.0414

> <r_epik_Charging_Adjusted_Penalty>
0.0413962999945322

> <i_epik_Tot_Q>
2

> <i_epik_Tot_abs_Q>
2

$$$$
