3vfa_ligand
                    3D
 Schrodinger Suite 2020-3.
 81 85  0  0  1  0            999 V2000
   21.7070   29.0210   14.6010 O   0  0  0  0  0  0
   23.0980   28.7120   14.7520 C   0  0  0  0  0  0
   20.9740   27.8870   14.8060 C   0  0  0  0  0  0
   21.5520   26.7560   15.3940 C   0  0  0  0  0  0
   20.7770   25.6310   15.6430 C   0  0  0  0  0  0
   19.4240   25.6390   15.3270 C   0  0  0  0  0  0
   18.8700   26.7590   14.7400 C   0  0  0  0  0  0
   19.6350   27.8760   14.4500 C   0  0  0  0  0  0
   18.3970   24.2640   15.7110 S   0  0  0  0  0  0
   17.3610   24.0920   14.6690 O   0  0  0  0  0  0
   19.3320   23.1160   15.9280 O   0  0  0  0  0  0
   17.7180   24.4800   17.1740 N   0  0  1  0  0  0
   18.6790   24.8310   18.2070 C   0  0  0  0  0  0
   18.0880   24.5120   19.5820 C   0  0  1  0  0  0
   18.0650   23.0230   19.8540 C   0  0  0  0  0  0
   19.0130   25.0900   20.5690 N   0  0  0  0  0  0
   19.7760   24.1650   21.0940 C   0  0  0  0  0  0
   20.6630   24.4150   21.8860 O   0  0  0  0  0  0
   19.3920   22.7810   20.5960 C   0  0  0  0  0  0
   16.4900   25.2440   17.2520 C   0  0  0  0  0  0
   15.3610   24.3450   17.7440 C   0  0  1  0  0  0
   14.1850   25.0620   18.0660 O   0  0  0  0  0  0
   15.0110   23.2280   16.7770 C   0  0  1  0  0  0
   14.1150   22.2800   17.4510 N   0  0  0  0  0  0
   14.4390   21.0990   17.9620 C   0  0  0  0  0  0
   15.5870   20.6170   17.9740 O   0  0  0  0  0  0
   13.3900   20.4240   18.5290 O   0  0  0  0  0  0
   13.6970   18.2050   17.5390 C   0  0  0  0  0  0
   13.7100   19.0490   18.8250 C   0  0  2  0  0  0
   12.5230   18.5190   19.6260 C   0  0  0  0  0  0
   11.4840   18.2120   18.5630 C   0  0  1  0  0  0
   10.6830   19.3320   18.2040 O   0  0  0  0  0  0
   10.6790   19.5450   16.7970 C   0  0  0  0  0  0
   11.5250   18.4550   16.1740 C   0  0  0  0  0  0
   12.2570   17.7850   17.3360 C   0  0  1  0  0  0
   14.4120   23.7000   15.4500 C   0  0  0  0  0  0
   12.7160   22.1810   14.2770 C   0  0  0  0  0  0
   12.3520   21.0390   13.5580 C   0  0  0  0  0  0
   13.3520   20.3130   12.9310 C   0  0  0  0  0  0
   14.6890   20.6350   13.1700 C   0  0  0  0  0  0
   15.0280   21.7320   13.9770 C   0  0  0  0  0  0
   14.0370   22.5090   14.5580 C   0  0  0  0  0  0
   23.6954   29.6210   14.5883 H   0  0  0  0  0  0
   23.3856   27.9467   14.0160 H   0  0  0  0  0  0
   23.2808   28.3311   15.7676 H   0  0  0  0  0  0
   22.6100   26.7583   15.6563 H   0  0  0  0  0  0
   21.2292   24.7434   16.0855 H   0  0  0  0  0  0
   17.8069   26.7640   14.4995 H   0  0  0  0  0  0
   19.1898   28.7352   13.9483 H   0  0  0  0  0  0
   19.6024   24.2513   18.0610 H   0  0  0  0  0  0
   18.9071   25.9054   18.1459 H   0  0  0  0  0  0
   17.0681   24.9164   19.6612 H   0  0  0  0  0  0
   17.1872   22.7762   20.4693 H   0  0  0  0  0  0
   18.0097   22.4769   18.9007 H   0  0  0  0  0  0
   18.9938   26.1706   20.7739 H   0  0  0  0  0  0
   19.2274   22.0701   21.4192 H   0  0  0  0  0  0
   20.1330   22.3668   19.8965 H   0  0  0  0  0  0
   16.6231   26.0815   17.9527 H   0  0  0  0  0  0
   16.2382   25.6361   16.2556 H   0  0  0  0  0  0
   15.6960   23.9239   18.7034 H   0  0  0  0  0  0
   14.2334   25.9155   18.7582 H   0  0  0  0  0  0
   15.9445   22.7054   16.5210 H   0  0  0  0  0  0
   13.0492   22.5229   17.5739 H   0  0  0  0  0  0
   14.0575   18.8142   16.6970 H   0  0  0  0  0  0
   14.3532   17.3315   17.6670 H   0  0  0  0  0  0
   14.6884   19.0484   19.3277 H   0  0  0  0  0  0
   12.8284   17.6212   20.1835 H   0  0  0  0  0  0
   12.1830   19.2910   20.3320 H   0  0  0  0  0  0
   10.7500   17.4860   18.9427 H   0  0  0  0  0  0
    9.6463   19.4943   16.4214 H   0  0  0  0  0  0
   11.1016   20.5360   16.5750 H   0  0  0  0  0  0
   10.8742   17.7420   15.6468 H   0  0  0  0  0  0
   12.2324   18.9026   15.4604 H   0  0  0  0  0  0
   12.3034   16.7027   17.1448 H   0  0  0  0  0  0
   13.5055   24.2912   15.6466 H   0  0  0  0  0  0
   15.1464   24.3213   14.9166 H   0  0  0  0  0  0
   11.9281   22.8445   14.6335 H   0  0  0  0  0  0
   11.3094   20.7278   13.4922 H   0  0  0  0  0  0
   13.0964   19.4963   12.2560 H   0  0  0  0  0  0
   15.4778   20.0282   12.7253 H   0  0  0  0  0  0
   16.0767   21.9748   14.1482 H   0  0  0  0  0  0
  1  2  1  0  0  0
  1  3  1  0  0  0
  2 43  1  0  0  0
  2 44  1  0  0  0
  2 45  1  0  0  0
  3  4  2  0  0  0
  3  8  1  0  0  0
  4  5  1  0  0  0
  4 46  1  0  0  0
  5  6  2  0  0  0
  5 47  1  0  0  0
  6  7  1  0  0  0
  6  9  1  0  0  0
  7  8  2  0  0  0
  7 48  1  0  0  0
  8 49  1  0  0  0
  9 10  2  0  0  0
  9 11  2  0  0  0
  9 12  1  0  0  0
 12 13  1  0  0  0
 12 20  1  0  0  0
 13 14  1  0  0  0
 13 50  1  0  0  0
 13 51  1  0  0  0
 14 15  1  0  0  0
 14 16  1  0  0  0
 14 52  1  0  0  0
 15 19  1  0  0  0
 15 53  1  0  0  0
 15 54  1  0  0  0
 16 17  1  0  0  0
 16 55  1  0  0  0
 17 18  2  0  0  0
 17 19  1  0  0  0
 19 56  1  0  0  0
 19 57  1  0  0  0
 20 21  1  0  0  0
 20 58  1  0  0  0
 20 59  1  0  0  0
 21 22  1  0  0  0
 21 23  1  0  0  0
 21 60  1  0  0  0
 22 61  1  0  0  0
 23 24  1  0  0  0
 23 36  1  0  0  0
 23 62  1  0  0  0
 24 25  1  0  0  0
 24 63  1  0  0  0
 25 26  2  0  0  0
 25 27  1  0  0  0
 27 29  1  0  0  0
 28 29  1  0  0  0
 28 35  1  0  0  0
 28 64  1  0  0  0
 28 65  1  0  0  0
 29 30  1  0  0  0
 29 66  1  0  0  0
 30 31  1  0  0  0
 30 67  1  0  0  0
 30 68  1  0  0  0
 31 32  1  0  0  0
 31 35  1  0  0  0
 31 69  1  0  0  0
 32 33  1  0  0  0
 33 34  1  0  0  0
 33 70  1  0  0  0
 33 71  1  0  0  0
 34 35  1  0  0  0
 34 72  1  0  0  0
 34 73  1  0  0  0
 35 74  1  0  0  0
 36 42  1  0  0  0
 36 75  1  0  0  0
 36 76  1  0  0  0
 37 38  2  0  0  0
 37 42  1  0  0  0
 37 77  1  0  0  0
 38 39  1  0  0  0
 38 78  1  0  0  0
 39 40  2  0  0  0
 39 79  1  0  0  0
 40 41  1  0  0  0
 40 80  1  0  0  0
 41 42  2  0  0  0
 41 81  1  0  0  0
M  END
> <s_m_source_file>
../3vfa_ligand.sdf

> <i_m_source_file_index>
1

> <s_epik_input>
W0NIM11PYzFbY0hdW2NIXWMoW2NIXVtjSF0xKVMoPU8pKD1PKU4oW0NIMl1bQ0BIXTJbQ0gyXVtDSDJdQyg9TylbTkhdMilbQ0gyXVtDQEBIXShbT0hdKVtDQEhdKFtDSDJdYzNbY0hdW2NIXVtjSF1bY0hdW2NIXTMpW05IXUMoPU8pT1tDQEBIXShbQ0gyXTQpW0NIMl1bQ0BASF0oW0NAQEhdNDUpW0NIMl1bQ0gyXU81

> <s_epik_cmdline>
J2VwaWtfYXBwJywgJy1pbWFlJywgJ2xpZ2FuZF9wcm8ubWFlJywgJy1vbWFlJywgJ2xpZ2FuZF9wcmVwLm1hZScsICctbXMnLCAnMScsICctcGgnLCAnNycsICctcGh0JywgJzAuNScsICctbnQn

> <r_lp_tautomer_probability>
1

> <r_epik_Ionization_Penalty>
  0.0000

> <r_epik_Ionization_Penalty_Charging>
  0.0000

> <r_epik_Ionization_Penalty_Neutral>
  0.0000

> <r_epik_State_Penalty>
 -0.0000

> <r_epik_Charging_Adjusted_Penalty>
0

> <i_epik_Tot_Q>
0

> <i_epik_Tot_abs_Q>
0

> <s_epik_Chemistry_Notes>
This compound has an ester and may undergo hydrolysis at high or low pH.

$$$$
