3vfj_ligand
                    3D
 Schrodinger Suite 2020-3.
182193  0  0  1  0            999 V2000
    9.4810   35.2720    9.8570 N   0  3  0  0  0  0
    8.0620   35.6240   10.0230 C   0  0  1  0  0  0
    7.8600   36.8670   10.9260 C   0  0  0  0  0  0
    8.6470   37.8110   10.9110 O   0  0  0  0  0  0
    7.4540   35.8610    8.6460 C   0  0  0  0  0  0
    7.1640   34.7500    7.8600 C   0  0  0  0  0  0
    6.6000   34.9150    6.6060 C   0  0  0  0  0  0
    6.3240   36.1910    6.1390 C   0  0  0  0  0  0
    5.7710   36.3540    4.9070 O   0  0  0  0  0  0
    6.6020   37.3040    6.9230 C   0  0  0  0  0  0
    7.1720   37.1450    8.1860 C   0  0  0  0  0  0
    1.4110   34.9360   14.1580 O   0  0  0  0  0  0
    2.6410   35.5100   14.1410 C   0  0  0  0  0  0
    2.7270   36.8240   14.5890 C   0  0  0  0  0  0
    3.9480   37.4760   14.5730 C   0  0  0  0  0  0
    1.3540   37.6480   15.1550 Cl  0  0  0  0  0  0
    3.7510   34.8310   13.6700 C   0  0  0  0  0  0
    4.9730   35.4890   13.6650 C   0  0  0  0  0  0
    5.0660   36.8040   14.1060 C   0  0  0  0  0  0
    6.2880   37.4570   14.0840 C   0  0  0  0  0  0
    6.5910   37.9760   12.6640 C   0  0  2  0  0  0
    5.5720   38.9930   12.1070 C   0  0  0  0  0  0
    5.6240   40.1640   12.5330 O   0  0  0  0  0  0
    6.7870   36.8730   11.7080 N   0  0  0  0  0  0
    4.7070   38.6070   11.1750 N   0  0  0  0  0  0
    6.3140   38.5340    6.4020 O   0  0  0  0  0  0
    5.6020   39.4510    7.1560 C   0  0  0  0  0  0
    5.0340   39.0780    8.3720 C   0  0  0  0  0  0
    5.5670   40.7840    6.7570 C   0  0  0  0  0  0
    4.9850   41.7440    7.5710 C   0  0  0  0  0  0
    4.9690   43.0400    7.1640 O   0  0  0  0  0  0
    4.4240   41.3760    8.7920 C   0  0  0  0  0  0
    4.4560   40.0360    9.1880 C   0  0  0  0  0  0
    3.8530   39.6210   10.5280 C   0  0  1  0  0  0
    2.3920   39.2120   10.3390 C   0  0  0  0  0  0
    1.5390   40.1220   10.3640 O   0  0  0  0  0  0
    2.0910   37.9340   10.1440 N   0  0  0  0  0  0
    0.6870   37.5270   10.0040 C   0  0  1  0  0  0
    0.3750   37.2120    8.5380 C   0  0  0  0  0  0
    1.1760   36.5130    7.8980 O   0  0  0  0  0  0
    0.3930   36.2980   10.8900 C   0  0  0  0  0  0
    1.0320   36.1660   12.1230 C   0  0  0  0  0  0
    0.7730   35.0620   12.9360 C   0  0  0  0  0  0
   -0.1220   34.0860   12.5180 C   0  0  0  0  0  0
   -0.3810   33.0200   13.3250 O   0  0  0  0  0  0
   -0.7720   34.2060   11.2910 C   0  0  0  0  0  0
   -0.5140   35.3140   10.4780 C   0  0  0  0  0  0
   -0.7290   37.7330    8.0140 N   0  0  0  0  0  0
   -1.3230   37.1810    6.7850 C   0  0  1  0  0  0
   -2.8320   37.1890    6.9840 C   0  0  0  0  0  0
   -3.3200   37.9940    7.8030 O   0  0  0  0  0  0
   -1.0820   37.9630    5.4920 C   0  0  0  0  0  0
   -0.5750   37.2760    4.3930 C   0  0  0  0  0  0
   -0.3860   37.9260    3.1820 C   0  0  0  0  0  0
   -0.6980   39.2800    3.0730 C   0  0  0  0  0  0
   -0.5050   39.9270    1.8970 O   0  0  0  0  0  0
   -1.2160   39.9690    4.1680 C   0  0  0  0  0  0
   -1.4170   39.3110    5.3810 C   0  0  0  0  0  0
   -3.5560   36.3380    6.2710 N   0  0  0  0  0  0
   -2.9550   35.3460    5.3720 C   0  0  2  0  0  0
   -3.2320   35.8200    3.9450 C   0  0  0  0  0  0
   -4.2420   36.5230    3.7230 O   0  0  0  0  0  0
   -3.6010   34.0240    5.7240 C   0  0  2  0  0  0
   -4.9840   34.3380    5.6850 O   0  0  0  0  0  0
   -3.1610   33.8030    7.0320 C   0  0  0  0  0  0
   -1.8990   33.2420    7.2130 C   0  0  0  0  0  0
   -3.9010   34.1810    8.1500 C   0  0  0  0  0  0
   -1.3880   33.0280    8.4900 C   0  0  0  0  0  0
   -3.3930   33.9690    9.4340 C   0  0  0  0  0  0
   -2.1300   33.4000    9.6080 C   0  0  0  0  0  0
   -1.6180   33.1890   10.8620 O   0  0  0  0  0  0
   -2.3560   35.4720    3.0090 N   0  0  0  0  0  0
    2.1150   38.0560    2.3520 O   0  0  0  0  0  0
    1.2810   37.2430    1.6090 C   0  0  0  0  0  0
   -0.0200   37.1830    2.0530 C   0  0  0  0  0  0
    1.8570   36.5820    0.5380 C   0  0  0  0  0  0
    1.0080   35.7410   -0.1700 C   0  0  0  0  0  0
    1.4890   35.0410   -1.2350 O   0  0  0  0  0  0
   -0.3300   35.6190    0.2230 C   0  0  0  0  0  0
   -0.8420   36.3290    1.3150 C   0  0  0  0  0  0
   -2.3100   36.1640    1.7090 C   0  0  1  0  0  0
   -3.0760   35.4080    0.6150 C   0  0  0  0  0  0
   -3.4930   36.0940   -0.3450 O   0  0  0  0  0  0
   -3.2370   34.1760    0.7670 O   0  0  0  0  0  0
    0.5450   32.0010   13.4650 C   0  0  1  0  0  0
    0.1880   31.2040   14.7160 C   0  0  1  0  0  0
    1.2050   30.1000   14.8630 C   0  0  2  0  0  0
    1.1410   29.2260   13.6140 C   0  0  1  0  0  0
    1.4850   30.0810   12.3910 C   0  0  1  0  0  0
    1.4400   29.2300   11.1160 C   0  0  0  0  0  0
    0.3790   32.1960   15.7810 N   0  0  0  0  0  0
    0.8170   29.3110   15.9940 O   0  0  0  0  0  0
    2.0910   28.1710   13.7170 O   0  0  0  0  0  0
    0.5260   31.1760   12.2800 O   0  0  0  0  0  0
    0.1200   28.7020   10.9490 O   0  0  0  0  0  0
   -4.1270   38.4090   11.4850 C   0  0  0  0  0  0
   -3.2310   38.2330   12.7070 C   0  0  0  0  0  0
   -2.8590   36.7670   12.7870 C   0  0  0  0  0  0
   -1.9990   36.4130   14.0110 C   0  0  0  0  0  0
   -2.7350   36.6970   15.3170 C   0  0  0  0  0  0
   -1.8550   36.2220   16.4790 C   0  0  0  0  0  0
   -1.6370   34.7460   16.1880 C   0  0  0  0  0  0
   -0.8190   33.9100   17.1880 C   0  0  0  0  0  0
   -1.9630   39.0360   12.4430 C   0  0  0  0  0  0
   -0.7940   32.5610   16.4530 C   0  0  0  0  0  0
   -1.8490   31.9760   16.2130 O   0  0  0  0  0  0
    9.9335   35.0978   10.8444 H   0  0  0  0  0  0
   10.0067   36.0964    9.3530 H   0  0  0  0  0  0
    9.5636   34.3587    9.2496 H   0  0  0  0  0  0
    7.5944   34.7580   10.5144 H   0  0  0  0  0  0
    7.3810   33.7486    8.2318 H   0  0  0  0  0  0
    6.3740   34.0455    5.9888 H   0  0  0  0  0  0
    5.5493   35.4756    4.2831 H   0  0  0  0  0  0
    7.3939   38.0143    8.8050 H   0  0  0  0  0  0
    4.0289   38.5050   14.9233 H   0  0  0  0  0  0
    3.6677   33.8049   13.3118 H   0  0  0  0  0  0
    5.8654   34.9714   13.3131 H   0  0  0  0  0  0
    6.2612   38.3086   14.7798 H   0  0  0  0  0  0
    7.0821   36.7594   14.3887 H   0  0  0  0  0  0
    7.5574   38.4953   12.7438 H   0  0  0  0  0  0
    6.0471   36.0615   11.6453 H   0  0  0  0  0  0
    4.6221   37.5496   10.8839 H   0  0  0  0  0  0
    5.0445   38.0328    8.6810 H   0  0  0  0  0  0
    5.9994   41.0748    5.7996 H   0  0  0  0  0  0
    5.4151   43.3186    6.1979 H   0  0  0  0  0  0
    3.9636   42.1274    9.4336 H   0  0  0  0  0  0
    3.8563   40.4488   11.2524 H   0  0  0  0  0  0
    2.8904   37.1805   10.0872 H   0  0  0  0  0  0
    0.0846   38.3853   10.3362 H   0  0  0  0  0  0
    1.7370   36.9290   12.4529 H   0  0  0  0  0  0
   -1.0216   35.4122    9.5184 H   0  0  0  0  0  0
   -1.1999   38.5918    8.5148 H   0  0  0  0  0  0
   -0.8313   36.2020    6.6865 H   0  0  0  0  0  0
   -0.3245   36.2191    4.4844 H   0  0  0  0  0  0
   -0.0962   39.3848    1.0316 H   0  0  0  0  0  0
   -1.4650   41.0262    4.0760 H   0  0  0  0  0  0
   -1.8325   39.8464    6.2347 H   0  0  0  0  0  0
   -4.6497   36.3962    6.3734 H   0  0  0  0  0  0
   -1.8670   35.2432    5.4976 H   0  0  0  0  0  0
   -3.4102   33.1149    5.1348 H   0  0  0  0  0  0
   -5.4756   34.5384    4.7216 H   0  0  0  0  0  0
   -1.3033   32.9668    6.3426 H   0  0  0  0  0  0
   -4.8796   34.6437    8.0226 H   0  0  0  0  0  0
   -0.4071   32.5693    8.6148 H   0  0  0  0  0  0
   -3.9859   34.2493   10.3046 H   0  0  0  0  0  0
   -1.6562   34.6499    3.2195 H   0  0  0  0  0  0
    1.7176   38.6086    3.2161 H   0  0  0  0  0  0
    2.9051   36.7125    0.2686 H   0  0  0  0  0  0
    2.5428   35.1470   -1.5322 H   0  0  0  0  0  0
   -0.9894   34.9545   -0.3353 H   0  0  0  0  0  0
   -2.8066   37.1352    1.8513 H   0  0  0  0  0  0
   -3.7801   33.5945    0.0075 H   0  0  0  0  0  0
    1.5418   32.4627   13.5217 H   0  0  0  0  0  0
   -0.8194   30.7630   14.7411 H   0  0  0  0  0  0
    2.2188   30.4858   15.0459 H   0  0  0  0  0  0
    0.1592   28.7387   13.5207 H   0  0  0  0  0  0
    2.4809   30.5324   12.5114 H   0  0  0  0  0  0
    1.7002   29.8547   10.2488 H   0  0  0  0  0  0
    2.1603   28.4031   11.2015 H   0  0  0  0  0  0
    1.3844   32.5886   15.9930 H   0  0  0  0  0  0
    0.7972   29.7608   16.9976 H   0  0  0  0  0  0
    2.0161   27.4415   14.5369 H   0  0  0  0  0  0
   -0.1110   28.0617   10.0849 H   0  0  0  0  0  0
   -5.0598   37.8443   11.6299 H   0  0  0  0  0  0
   -3.6064   38.0340   10.5915 H   0  0  0  0  0  0
   -4.3609   39.4756   11.3524 H   0  0  0  0  0  0
   -3.7229   38.5550   13.6367 H   0  0  0  0  0  0
   -3.7740   36.1591   12.8432 H   0  0  0  0  0  0
   -2.2857   36.4848   11.8916 H   0  0  0  0  0  0
   -1.7433   35.3435   13.9825 H   0  0  0  0  0  0
   -1.0760   37.0111   13.9960 H   0  0  0  0  0  0
   -2.9238   37.7772   15.4040 H   0  0  0  0  0  0
   -3.6926   36.1557   15.3234 H   0  0  0  0  0  0
   -0.9127   36.7896   16.4811 H   0  0  0  0  0  0
   -2.3835   36.3853   17.4298 H   0  0  0  0  0  0
   -2.6100   34.2365   16.1281 H   0  0  0  0  0  0
   -1.1057   34.6355   15.2312 H   0  0  0  0  0  0
    0.1738   34.3648   17.3203 H   0  0  0  0  0  0
   -1.3412   33.8816   18.1557 H   0  0  0  0  0  0
   -2.2125   40.1056   12.3814 H   0  0  0  0  0  0
   -1.5130   38.7092   11.4940 H   0  0  0  0  0  0
   -1.2483   38.8729   13.2631 H   0  0  0  0  0  0
  1  2  1  0  0  0
  1107  1  0  0  0
  1108  1  0  0  0
  1109  1  0  0  0
  2  3  1  0  0  0
  2  5  1  0  0  0
  2110  1  0  0  0
  3  4  2  0  0  0
  3 24  1  0  0  0
  5  6  2  0  0  0
  5 11  1  0  0  0
  6  7  1  0  0  0
  6111  1  0  0  0
  7  8  2  0  0  0
  7112  1  0  0  0
  8  9  1  0  0  0
  8 10  1  0  0  0
  9113  1  0  0  0
 10 11  2  0  0  0
 10 26  1  0  0  0
 11114  1  0  0  0
 12 13  1  0  0  0
 12 43  1  0  0  0
 13 14  2  0  0  0
 13 17  1  0  0  0
 14 15  1  0  0  0
 14 16  1  0  0  0
 15 19  2  0  0  0
 15115  1  0  0  0
 17 18  2  0  0  0
 17116  1  0  0  0
 18 19  1  0  0  0
 18117  1  0  0  0
 19 20  1  0  0  0
 20 21  1  0  0  0
 20118  1  0  0  0
 20119  1  0  0  0
 21 22  1  0  0  0
 21 24  1  0  0  0
 21120  1  0  0  0
 22 23  2  0  0  0
 22 25  1  0  0  0
 24121  1  0  0  0
 25 34  1  0  0  0
 25122  1  0  0  0
 26 27  1  0  0  0
 27 28  2  0  0  0
 27 29  1  0  0  0
 28 33  1  0  0  0
 28123  1  0  0  0
 29 30  2  0  0  0
 29124  1  0  0  0
 30 31  1  0  0  0
 30 32  1  0  0  0
 31125  1  0  0  0
 32 33  2  0  0  0
 32126  1  0  0  0
 33 34  1  0  0  0
 34 35  1  0  0  0
 34127  1  0  0  0
 35 36  2  0  0  0
 35 37  1  0  0  0
 37 38  1  0  0  0
 37128  1  0  0  0
 38 39  1  0  0  0
 38 41  1  0  0  0
 38129  1  0  0  0
 39 40  2  0  0  0
 39 48  1  0  0  0
 41 42  2  0  0  0
 41 47  1  0  0  0
 42 43  1  0  0  0
 42130  1  0  0  0
 43 44  2  0  0  0
 44 45  1  0  0  0
 44 46  1  0  0  0
 45 85  1  0  0  0
 46 47  2  0  0  0
 46 71  1  0  0  0
 47131  1  0  0  0
 48 49  1  0  0  0
 48132  1  0  0  0
 49 50  1  0  0  0
 49 52  1  0  0  0
 49133  1  0  0  0
 50 51  2  0  0  0
 50 59  1  0  0  0
 52 53  2  0  0  0
 52 58  1  0  0  0
 53 54  1  0  0  0
 53134  1  0  0  0
 54 55  2  0  0  0
 54 75  1  0  0  0
 55 56  1  0  0  0
 55 57  1  0  0  0
 56135  1  0  0  0
 57 58  2  0  0  0
 57136  1  0  0  0
 58137  1  0  0  0
 59 60  1  0  0  0
 59138  1  0  0  0
 60 61  1  0  0  0
 60 63  1  0  0  0
 60139  1  0  0  0
 61 62  2  0  0  0
 61 72  1  0  0  0
 63 64  1  0  0  0
 63 65  1  0  0  0
 63140  1  0  0  0
 64141  1  0  0  0
 65 66  2  0  0  0
 65 67  1  0  0  0
 66 68  1  0  0  0
 66142  1  0  0  0
 67 69  2  0  0  0
 67143  1  0  0  0
 68 70  2  0  0  0
 68144  1  0  0  0
 69 70  1  0  0  0
 69145  1  0  0  0
 70 71  1  0  0  0
 72 81  1  0  0  0
 72146  1  0  0  0
 73 74  1  0  0  0
 73147  1  0  0  0
 74 75  2  0  0  0
 74 76  1  0  0  0
 75 80  1  0  0  0
 76 77  2  0  0  0
 76148  1  0  0  0
 77 78  1  0  0  0
 77 79  1  0  0  0
 78149  1  0  0  0
 79 80  2  0  0  0
 79150  1  0  0  0
 80 81  1  0  0  0
 81 82  1  0  0  0
 81151  1  0  0  0
 82 83  2  0  0  0
 82 84  1  0  0  0
 84152  1  0  0  0
 85 86  1  0  0  0
 85 94  1  0  0  0
 85153  1  0  0  0
 86 87  1  0  0  0
 86 91  1  0  0  0
 86154  1  0  0  0
 87 88  1  0  0  0
 87 92  1  0  0  0
 87155  1  0  0  0
 88 89  1  0  0  0
 88 93  1  0  0  0
 88156  1  0  0  0
 89 90  1  0  0  0
 89 94  1  0  0  0
 89157  1  0  0  0
 90 95  1  0  0  0
 90158  1  0  0  0
 90159  1  0  0  0
 91105  1  0  0  0
 91160  1  0  0  0
 92161  1  0  0  0
 93162  1  0  0  0
 95163  1  0  0  0
 96 97  1  0  0  0
 96164  1  0  0  0
 96165  1  0  0  0
 96166  1  0  0  0
 97 98  1  0  0  0
 97104  1  0  0  0
 97167  1  0  0  0
 98 99  1  0  0  0
 98168  1  0  0  0
 98169  1  0  0  0
 99100  1  0  0  0
 99170  1  0  0  0
 99171  1  0  0  0
100101  1  0  0  0
100172  1  0  0  0
100173  1  0  0  0
101102  1  0  0  0
101174  1  0  0  0
101175  1  0  0  0
102103  1  0  0  0
102176  1  0  0  0
102177  1  0  0  0
103105  1  0  0  0
103178  1  0  0  0
103179  1  0  0  0
104180  1  0  0  0
104181  1  0  0  0
104182  1  0  0  0
105106  2  0  0  0
M  CHG  1   1   1
M  END
> <s_m_source_file>
../3vfj_ligand.sdf

> <i_m_source_file_index>
1

> <s_epik_input>
YzEyW2NIXVtjSF1jKFtPSF0pYyhbY0hdMilPYzNbY0hdYyhbY0hdYyhbY0hdMylbT0hdKVtDQEBIXTRbTkhdQyg9TylbQ0BIXShbTkhdQyg9TylbQ0BASF0xW05IMytdKVtDSDJdYzVbY0hdYyhDbCljKFtjSF1bY0hdNSlPYzZbY0hdYzdbQ0BASF0oW05IXUM0PU8pQyg9TylbTkhdW0NAQEhdOGM5W2NIXWMoYyhbT0hdKVtjSF1bY0hdOSljMWMoW2NIXWMoW09IXSlbY0hdYzFbT0hdKVtDQEBIXShDKD1PKVtPSF0pW05IXUMoPU8pW0NAQEhdKFtOSF1DOD1PKVtDQEhdKFtPSF0pYzFbY0hdW2NIXWMoW2NIXVtjSF0xKU9jKFtjSF03KWM2T1tDQEhdMVtDQEBIXShbQ0BASF0oW09IXSlbQ0BIXShbT0hdKVtDQEhdKE8xKVtDSDJdW09IXSlbTkhdQyg9TylbQ0gyXVtDSDJdW0NIMl1bQ0gyXVtDSDJdW0NIMl1bQ0hdKFtDSDNdKVtDSDNd

> <s_epik_cmdline>
J2VwaWtfYXBwJywgJy1pbWFlJywgJ2xpZ2FuZF9wcm8ubWFlJywgJy1vbWFlJywgJ2xpZ2FuZF9wcmVwLm1hZScsICctbXMnLCAnMScsICctcGgnLCAnNycsICctcGh0JywgJzAuNScsICctbnQn

> <s_epik_pKa_notes>
Molecule size exceeds maximum supported for generating protonation states

> <s_epik_Chemistry_Notes>
This compound contains an acetal/aminal-like group ( X-CH(R)-Y where X, Y are N, S, or O) that may be acid/base labile, releasing an aldehyde.

$$$$
