3vfq_ligand
                    3D
 Schrodinger Suite 2020-3.
 57 60  0  0  1  0            999 V2000
   25.1040   -1.9130   16.6720 N   0  0  0  0  0  0
   24.1930   -1.0490   17.1200 C   0  0  0  0  0  0
   23.4850   -0.2900   16.2800 N   0  0  0  0  0  0
   23.6930   -0.3960   14.9380 C   0  0  0  0  0  0
   24.6470   -1.2830   14.4520 C   0  0  0  0  0  0
   25.3510   -2.0350   15.3500 C   0  0  0  0  0  0
   26.2480   -2.8780   14.8570 N   0  0  0  0  0  0
   24.6840   -1.2180   13.1260 N   0  0  0  0  0  0
   23.7790   -0.2920   12.7720 C   0  0  0  0  0  0
   23.1820    0.2100   13.8660 N   0  0  0  0  0  0
   19.0940   -0.9540    9.7090 P   0  0  1  0  0  0
   16.3590   -0.7490   10.0860 P   0  0  1  0  0  0
   22.1560    1.2100   13.8780 C   0  0  1  0  0  0
   20.1050   -2.0550    9.7750 O   0  5  0  0  0  0
   15.6050   -1.1260   11.2930 O   0  0  0  0  0  0
   14.5690   -3.5930    6.4500 C   0  0  2  0  0  0
   13.8140   -4.7590    6.2290 O   0  0  0  0  0  0
   22.1310    2.1010   12.6430 C   0  0  2  0  0  0
   22.7900    3.3440   12.9240 O   0  0  0  0  0  0
   18.8750   -0.2060    8.4360 O   0  0  0  0  0  0
   16.5050    0.6770    9.6950 O   0  5  0  0  0  0
   15.7430   -3.5360    5.4590 C   0  0  2  0  0  0
   15.6470   -4.5720    4.4800 O   0  0  0  0  0  0
   20.6330    2.3630   12.4550 C   0  0  2  0  0  0
   20.2600    3.4660   13.2830 O   0  0  0  0  0  0
   17.7170   -1.5320   10.2030 O   0  0  0  0  0  0
   16.9690   -3.7720    6.3290 C   0  0  2  0  0  0
   17.2590   -5.1700    6.4540 O   0  0  0  0  0  0
   19.9770    1.1010   13.0560 C   0  0  2  0  0  0
   21.1240    0.3070   13.6100 O   0  0  0  0  0  0
   16.5020   -3.2830    7.7070 C   0  0  2  0  0  0
   15.1370   -3.7670    7.7840 O   0  0  0  0  0  0
   19.0120    0.2300   12.1080 C   0  0  0  0  0  0
   19.6230    0.0590   10.8350 O   0  0  0  0  0  0
   16.4240   -1.7660    7.8260 C   0  0  0  0  0  0
   15.6260   -1.4570    8.9300 O   0  0  0  0  0  0
   24.0227   -0.9604   18.1930 H   0  0  0  0  0  0
   26.8425   -3.5074   15.5356 H   0  0  0  0  0  0
   26.3976   -2.9479   13.7695 H   0  0  0  0  0  0
   23.5605    0.0086   11.7473 H   0  0  0  0  0  0
   22.1747    1.8209   14.7926 H   0  0  0  0  0  0
   13.9002   -2.7236    6.3673 H   0  0  0  0  0  0
   13.2697   -4.8906    5.2822 H   0  0  0  0  0  0
   22.6658    1.6976   11.7705 H   0  0  0  0  0  0
   23.8770    3.3647   13.0912 H   0  0  0  0  0  0
   15.7733   -2.6198    4.8510 H   0  0  0  0  0  0
   14.8186   -4.5698    3.7563 H   0  0  0  0  0  0
   20.3357    2.6298   11.4301 H   0  0  0  0  0  0
   20.6166    4.4787   13.0436 H   0  0  0  0  0  0
   17.8877   -3.3313    5.9145 H   0  0  0  0  0  0
   17.6142   -5.7382    5.5816 H   0  0  0  0  0  0
   19.3001    1.4265   13.8597 H   0  0  0  0  0  0
   17.1621   -3.6509    8.5064 H   0  0  0  0  0  0
   18.8395   -0.7550   12.5663 H   0  0  0  0  0  0
   18.0509    0.7508   11.9855 H   0  0  0  0  0  0
   17.4356   -1.3565    7.9635 H   0  0  0  0  0  0
   15.9809   -1.3486    6.9098 H   0  0  0  0  0  0
  1  2  1  0  0  0
  1  6  2  0  0  0
  2  3  2  0  0  0
  2 37  1  0  0  0
  3  4  1  0  0  0
  4  5  2  0  0  0
  4 10  1  0  0  0
  5  6  1  0  0  0
  5  8  1  0  0  0
  6  7  1  0  0  0
  7 38  1  0  0  0
  7 39  1  0  0  0
  8  9  2  0  0  0
  9 10  1  0  0  0
  9 40  1  0  0  0
 10 13  1  0  0  0
 11 14  1  0  0  0
 11 20  2  0  0  0
 11 26  1  0  0  0
 11 34  1  0  0  0
 12 15  2  0  0  0
 12 21  1  0  0  0
 12 26  1  0  0  0
 12 36  1  0  0  0
 13 18  1  0  0  0
 13 30  1  0  0  0
 13 41  1  0  0  0
 16 17  1  0  0  0
 16 22  1  0  0  0
 16 32  1  0  0  0
 16 42  1  0  0  0
 17 43  1  0  0  0
 18 19  1  0  0  0
 18 24  1  0  0  0
 18 44  1  0  0  0
 19 45  1  0  0  0
 22 23  1  0  0  0
 22 27  1  0  0  0
 22 46  1  0  0  0
 23 47  1  0  0  0
 24 25  1  0  0  0
 24 29  1  0  0  0
 24 48  1  0  0  0
 25 49  1  0  0  0
 27 28  1  0  0  0
 27 31  1  0  0  0
 27 50  1  0  0  0
 28 51  1  0  0  0
 29 30  1  0  0  0
 29 33  1  0  0  0
 29 52  1  0  0  0
 31 32  1  0  0  0
 31 35  1  0  0  0
 31 53  1  0  0  0
 33 34  1  0  0  0
 33 54  1  0  0  0
 33 55  1  0  0  0
 35 36  1  0  0  0
 35 56  1  0  0  0
 35 57  1  0  0  0
M  CHG  2  14  -1  21  -1
M  END
> <s_m_source_file>
../3vfq_ligand.sdf

> <i_m_source_file_index>
1

> <s_epik_input>
bjFbY0hdbmMoW05IMl0pYyhjMTIpbltjSF1uMltDQEhdM1tDQEhdKFtPSF0pW0NASF0oW09IXSlbQ0BIXShPMylbQ0gyXU9bUEBAXSg9TykoW09IXSlPW1BAQF0oPU8pKFtPSF0pT1tDSDJdW0NAQEhdKE80KVtDQEBIXShbT0hdKVtDQEBIXShbT0hdKVtDQEhdNFtPSF0=

> <s_epik_cmdline>
J2VwaWtfYXBwJywgJy1pbWFlJywgJ2xpZ2FuZF9wcm8ubWFlJywgJy1vbWFlJywgJ2xpZ2FuZF9wcmVwLm1hZScsICctbXMnLCAnMScsICctcGgnLCAnNycsICctcGh0JywgJzAuNScsICctbnQn

> <r_lp_tautomer_probability>
1

> <r_epik_Ionization_Penalty>
  0.0012

> <r_epik_Ionization_Penalty_Charging>
  0.0006

> <r_epik_Ionization_Penalty_Neutral>
  0.0006

> <r_epik_State_Penalty>
 -0.0000

> <r_epik_Charging_Adjusted_Penalty>
0.000554568258717467

> <i_epik_Tot_Q>
-2

> <i_epik_Tot_abs_Q>
2

> <s_epik_Chemistry_Notes>
This compound contains an acetal/aminal-like group ( X-CH(R)-Y where X, Y are N, S, or O) that may be acid/base labile, releasing an aldehyde.

$$$$
