3vg1_ligand
                    3D
 Schrodinger Suite 2020-3.
 70 73  0  0  1  0            999 V2000
   27.2780   78.1810   16.4870 F   0  0  0  0  0  0
   28.4680   77.9880   17.1190 C   0  0  0  0  0  0
   29.4560   78.6440   16.4510 F   0  0  0  0  0  0
   28.3650   78.4970   18.5770 C   0  0  0  0  0  0
   29.4060   77.8650   19.4680 C   0  0  0  0  0  0
   30.3940   78.4840   20.1410 C   0  0  0  0  0  0
   31.1010   77.6140   20.8180 N   0  3  0  0  0  0
   30.6400   76.3630   20.6390 C   0  0  0  0  0  0
   29.5400   76.3970   19.7790 C   0  0  0  0  0  0
   28.8520   75.2250   19.4060 C   0  0  0  0  0  0
   29.3130   73.9890   19.9310 C   0  0  0  0  0  0
   30.4330   73.9530   20.8140 C   0  0  0  0  0  0
   31.1130   75.1460   21.1790 C   0  0  0  0  0  0
   28.5850   72.6980   19.5180 C   0  0  0  0  0  0
   29.4810   71.7990   18.5950 C   0  0  1  0  0  0
   28.7550   70.4740   18.1840 C   0  0  1  0  0  0
   29.6390   69.5290   17.3040 C   0  0  2  0  0  0
   30.1760   70.1620   15.9900 C   0  0  0  0  0  0
   31.1560   71.6080   16.4040 S   0  0  0  0  0  0
   29.9530   72.5700   17.3210 C   0  0  0  0  0  0
   32.2430   71.2260   17.2860 O   0  0  0  0  0  0
   31.4390   72.3350   15.1800 O   0  0  0  0  0  0
   28.9890   68.2090   17.0760 N   0  3  0  0  0  0
   29.7510   67.0670   16.4890 C   0  0  0  0  0  0
   30.9690   66.7700   17.3790 C   0  0  0  0  0  0
   30.7620   66.2930   18.6920 C   0  0  0  0  0  0
   31.8270   65.9990   19.5880 C   0  0  0  0  0  0
   33.1490   66.2110   19.0910 C   0  0  0  0  0  0
   33.3850   66.6870   17.7750 C   0  0  0  0  0  0
   32.2960   66.9670   16.9150 C   0  0  0  0  0  0
   31.4680   65.4810   21.0280 C   0  0  0  0  0  0
   32.6940   64.8830   21.7910 C   0  0  0  0  0  0
   30.9150   66.6340   21.9230 C   0  0  0  0  0  0
   30.3600   64.3790   20.9760 C   0  0  0  0  0  0
   28.4120   69.7400   19.3760 O   0  0  0  0  0  0
   28.7075   76.9216   16.9949 H   0  0  0  0  0  0
   28.5111   79.5871   18.5960 H   0  0  0  0  0  0
   27.3715   78.2531   18.9812 H   0  0  0  0  0  0
   30.5094   79.5755   20.0679 H   0  0  0  0  0  0
   27.9933   75.2661   18.7358 H   0  0  0  0  0  0
   30.7717   72.9973   21.2141 H   0  0  0  0  0  0
   31.9699   75.1231   21.8523 H   0  0  0  0  0  0
   28.3240   72.1206   20.4171 H   0  0  0  0  0  0
   27.6676   72.9543   18.9678 H   0  0  0  0  0  0
   30.3706   71.5321   19.1844 H   0  0  0  0  0  0
   27.8266   70.7334   17.6542 H   0  0  0  0  0  0
   30.5348   69.2972   17.8988 H   0  0  0  0  0  0
   30.7996   69.4286   15.4579 H   0  0  0  0  0  0
   29.3296   70.4553   15.3516 H   0  0  0  0  0  0
   29.0880   72.7685   16.6711 H   0  0  0  0  0  0
   30.4141   73.5232   17.6191 H   0  0  0  0  0  0
   28.6265   67.8084   18.0342 H   0  0  0  0  0  0
   28.1413   68.3320   16.3858 H   0  0  0  0  0  0
   29.1021   66.1802   16.4393 H   0  0  0  0  0  0
   30.0871   67.3326   15.4758 H   0  0  0  0  0  0
   29.7383   66.1431   19.0349 H   0  0  0  0  0  0
   33.9995   66.0016   19.7398 H   0  0  0  0  0  0
   34.4066   66.8373   17.4258 H   0  0  0  0  0  0
   32.4752   67.3314   15.9035 H   0  0  0  0  0  0
   33.4945   65.6355   21.8455 H   0  0  0  0  0  0
   33.0613   63.9950   21.2558 H   0  0  0  0  0  0
   32.3890   64.5977   22.8086 H   0  0  0  0  0  0
   31.6635   67.4373   21.9900 H   0  0  0  0  0  0
   30.7020   66.2464   22.9302 H   0  0  0  0  0  0
   29.9899   67.0308   21.4796 H   0  0  0  0  0  0
   30.7055   63.5408   20.3531 H   0  0  0  0  0  0
   29.4415   64.8027   20.5439 H   0  0  0  0  0  0
   30.1536   64.0183   21.9945 H   0  0  0  0  0  0
   27.7877   70.2095   20.1505 H   0  0  0  0  0  0
   31.9494   77.9525   21.4309 H   0  0  0  0  0  0
  1  2  1  0  0  0
  2  3  1  0  0  0
  2  4  1  0  0  0
  2 36  1  0  0  0
  4  5  1  0  0  0
  4 37  1  0  0  0
  4 38  1  0  0  0
  5  6  2  0  0  0
  5  9  1  0  0  0
  6  7  1  0  0  0
  6 39  1  0  0  0
  7  8  1  0  0  0
  7 70  1  0  0  0
  8  9  2  0  0  0
  8 13  1  0  0  0
  9 10  1  0  0  0
 10 11  2  0  0  0
 10 40  1  0  0  0
 11 12  1  0  0  0
 11 14  1  0  0  0
 12 13  2  0  0  0
 12 41  1  0  0  0
 13 42  1  0  0  0
 14 15  1  0  0  0
 14 43  1  0  0  0
 14 44  1  0  0  0
 15 16  1  0  0  0
 15 20  1  0  0  0
 15 45  1  0  0  0
 16 17  1  0  0  0
 16 35  1  0  0  0
 16 46  1  0  0  0
 17 18  1  0  0  0
 17 23  1  0  0  0
 17 47  1  0  0  0
 18 19  1  0  0  0
 18 48  1  0  0  0
 18 49  1  0  0  0
 19 20  1  0  0  0
 19 21  2  0  0  0
 19 22  2  0  0  0
 20 50  1  0  0  0
 20 51  1  0  0  0
 23 24  1  0  0  0
 23 52  1  0  0  0
 23 53  1  0  0  0
 24 25  1  0  0  0
 24 54  1  0  0  0
 24 55  1  0  0  0
 25 26  2  0  0  0
 25 30  1  0  0  0
 26 27  1  0  0  0
 26 56  1  0  0  0
 27 28  2  0  0  0
 27 31  1  0  0  0
 28 29  1  0  0  0
 28 57  1  0  0  0
 29 30  2  0  0  0
 29 58  1  0  0  0
 30 59  1  0  0  0
 31 32  1  0  0  0
 31 33  1  0  0  0
 31 34  1  0  0  0
 32 60  1  0  0  0
 32 61  1  0  0  0
 32 62  1  0  0  0
 33 63  1  0  0  0
 33 64  1  0  0  0
 33 65  1  0  0  0
 34 66  1  0  0  0
 34 67  1  0  0  0
 34 68  1  0  0  0
 35 69  1  0  0  0
M  CHG  2   7   1  23   1
M  END
> <s_m_source_file>
../3vg1_ligand.sdf

> <i_m_source_file_index>
1

> <s_epik_input>
RltDSF0oRilbQ0gyXWMoW2NIXVtuSF0xKWMoYzEyKVtjSF1jKFtjSF1bY0hdMilbQ0gyXVtDQEhdKFtDSDJdMylbQ0BIXShbT0hdKVtDQEhdKFtDSDJdUzMoPU8pPU8pW05IMitdW0NIMl1jNFtjSF1jKEMoW0NIM10pKFtDSDNdKVtDSDNdKVtjSF1bY0hdW2NIXTQ=

> <s_epik_cmdline>
J2VwaWtfYXBwJywgJy1pbWFlJywgJ2xpZ2FuZF9wcm8ubWFlJywgJy1vbWFlJywgJ2xpZ2FuZF9wcmVwLm1hZScsICctbXMnLCAnMScsICctcGgnLCAnNycsICctcGh0JywgJzAuNScsICctbnQn

> <r_epik_Ionization_Penalty>
  0.1218

> <r_epik_Ionization_Penalty_Charging>
  0.1217

> <r_epik_Ionization_Penalty_Neutral>
  0.0001

> <r_epik_State_Penalty>
  0.1112

> <r_epik_Charging_Adjusted_Penalty>
0.232908908413904

> <i_epik_Tot_Q>
2

> <i_epik_Tot_abs_Q>
2

$$$$
