3vgc_ligand
                    3D
 Schrodinger Suite 2020-3.
 35 36  0  0  1  0            999 V2000
   27.5050    3.0220   40.4200 C   0  0  0  0  0  0
   27.0110    4.1600   41.0780 C   0  0  0  0  0  0
   26.9860    4.2150   42.4930 C   0  0  0  0  0  0
   27.4640    3.1500   43.2360 C   0  0  0  0  0  0
   27.9790    2.0360   42.5990 C   0  0  0  0  0  0
   27.9990    1.9760   41.2020 C   0  0  0  0  0  0
   26.6080    5.2750   40.3570 C   0  0  0  0  0  0
   26.1900    6.4180   41.0140 C   0  0  0  0  0  0
   26.1610    6.4560   42.4090 C   0  0  0  0  0  0
   26.5570    5.3540   43.1400 C   0  0  0  0  0  0
   27.3440    2.8640   38.9210 C   0  0  0  0  0  0
   28.4220    2.0610   38.1990 C   0  0  2  0  0  0
   32.1940    2.7370   38.3240 C   0  0  0  0  0  0
   30.8560    1.9980   38.3990 C   0  0  0  0  0  0
   29.7480    2.6420   38.0490 N   0  0  0  0  0  0
   30.8330    0.8210   38.7730 O   0  0  0  0  0  0
   28.8840    0.9770   35.9940 O   0  0  0  0  0  0
   26.5990    1.0590   36.7460 O   0  0  0  0  0  0
   27.9030    1.7790   36.7410 B   0  0  0  0  0  0
   27.4345    3.1893   44.3249 H   0  0  0  0  0  0
   28.3694    1.2045   43.1858 H   0  0  0  0  0  0
   28.4095    1.0928   40.7125 H   0  0  0  0  0  0
   26.6209    5.2499   39.2674 H   0  0  0  0  0  0
   25.8821    7.2922   40.4404 H   0  0  0  0  0  0
   25.8251    7.3572   42.9219 H   0  0  0  0  0  0
   26.5304    5.3846   44.2292 H   0  0  0  0  0  0
   26.3946    2.3517   38.7062 H   0  0  0  0  0  0
   27.3409    3.8561   38.4459 H   0  0  0  0  0  0
   28.6291    1.2190   38.8759 H   0  0  0  0  0  0
   32.0253    3.7662   37.9742 H   0  0  0  0  0  0
   32.8618    2.2160   37.6222 H   0  0  0  0  0  0
   32.6566    2.7600   39.3218 H   0  0  0  0  0  0
   29.8613    3.6533   37.6315 H   0  0  0  0  0  0
   29.9156    1.3401   35.8759 H   0  0  0  0  0  0
   25.7301    1.4984   37.2578 H   0  0  0  0  0  0
  1  2  2  0  0  0
  1  6  1  0  0  0
  1 11  1  0  0  0
  2  3  1  0  0  0
  2  7  1  0  0  0
  3  4  2  0  0  0
  3 10  1  0  0  0
  4  5  1  0  0  0
  4 20  1  0  0  0
  5  6  2  0  0  0
  5 21  1  0  0  0
  6 22  1  0  0  0
  7  8  2  0  0  0
  7 23  1  0  0  0
  8  9  1  0  0  0
  8 24  1  0  0  0
  9 10  2  0  0  0
  9 25  1  0  0  0
 10 26  1  0  0  0
 11 12  1  0  0  0
 11 27  1  0  0  0
 11 28  1  0  0  0
 12 15  1  0  0  0
 12 19  1  0  0  0
 12 29  1  0  0  0
 13 14  1  0  0  0
 13 30  1  0  0  0
 13 31  1  0  0  0
 13 32  1  0  0  0
 14 15  1  0  0  0
 14 16  2  0  0  0
 15 33  1  0  0  0
 17 19  1  0  0  0
 17 34  1  0  0  0
 18 19  1  0  0  0
 18 35  1  0  0  0
M  END
> <s_m_source_file>
../3vgc_ligand.sdf

> <i_m_source_file_index>
1

> <s_epik_input>
W0NIM11DKD1PKVtOSF1bQ0BIXShCKFtPSF0pW09IXSlbQ0gyXWMxW2NIXVtjSF1bY0hdYyhjMTIpW2NIXVtjSF1bY0hdW2NIXTI=

> <s_epik_cmdline>
J2VwaWtfYXBwJywgJy1pbWFlJywgJ2xpZ2FuZF9wcm8ubWFlJywgJy1vbWFlJywgJ2xpZ2FuZF9wcmVwLm1hZScsICctbXMnLCAnMScsICctcGgnLCAnNycsICctcGh0JywgJzAuNScsICctbnQn

> <r_lp_tautomer_probability>
1

> <r_epik_Ionization_Penalty>
  0.0000

> <r_epik_Ionization_Penalty_Charging>
  0.0000

> <r_epik_Ionization_Penalty_Neutral>
  0.0000

> <r_epik_State_Penalty>
 -0.0000

> <r_epik_Charging_Adjusted_Penalty>
0

> <i_epik_Tot_Q>
0

> <i_epik_Tot_abs_Q>
0

> <s_epik_Chemistry_Notes>
This compound contains a Lewis acid (boronic acid) which adds nucleophiles to form tetrahedral complexes, lowering the experimental pKa

$$$$
