3vhd_ligand
                    3D
 Schrodinger Suite 2020-3.
 50 52  0  0  1  0            999 V2000
  -11.7180   -5.3100  -10.6610 C   0  0  0  0  0  0
  -10.6440   -6.0100  -11.2300 C   0  0  0  0  0  0
   -9.3400   -5.7390  -10.7060 C   0  0  0  0  0  0
   -9.1060   -4.8110   -9.6660 C   0  0  0  0  0  0
  -10.1990   -4.1100   -9.1470 C   0  0  0  0  0  0
  -11.4930   -4.3680   -9.6110 C   0  0  0  0  0  0
  -10.1270   -3.1390   -8.0690 C   0  0  0  0  0  0
   -7.6700   -4.5790   -9.1970 C   0  0  0  0  0  0
   -9.5430   -3.3820   -6.9730 O   0  0  0  0  0  0
  -10.7750   -1.9450   -8.3180 N   0  0  0  0  0  0
  -10.7960   -7.0170  -12.3920 C   0  0  0  0  0  0
  -13.1020   -5.4090  -11.1310 C   0  0  0  0  0  0
  -13.7840   -4.2180  -11.4850 C   0  0  0  0  0  0
  -15.0840   -4.3840  -11.9490 C   0  0  0  0  0  0
  -15.7030   -5.5520  -12.0550 N   0  0  0  0  0  0
  -14.9660   -6.6660  -11.6980 C   0  0  0  0  0  0
  -13.6890   -6.5950  -11.2560 N   0  0  0  0  0  0
  -15.5440   -7.9480  -11.7560 N   0  0  0  0  0  0
  -10.8300   -0.8710   -7.2690 C   0  0  0  0  0  0
  -11.9790    0.1010   -7.6520 C   0  0  0  0  0  0
  -13.3500   -0.4110   -7.2210 C   0  0  0  0  0  0
  -14.0440   -1.3390   -8.1650 N   0  0  0  0  0  0
  -14.8910   -0.8600   -9.1530 C   0  0  0  0  0  0
  -15.5700   -1.8790  -10.0130 C   0  0  0  0  0  0
  -15.0910    0.3720   -9.3170 O   0  0  0  0  0  0
  -15.3540   -1.6120  -11.5320 C   0  0  0  0  0  0
  -16.0990   -3.0340  -12.4500 S   0  0  0  0  0  0
   -8.4885   -6.2726  -11.1283 H   0  0  0  0  0  0
  -12.3393   -3.8444   -9.1664 H   0  0  0  0  0  0
   -6.9915   -5.2453   -9.7499 H   0  0  0  0  0  0
   -7.5969   -4.7926   -8.1204 H   0  0  0  0  0  0
   -7.3881   -3.5322   -9.3831 H   0  0  0  0  0  0
  -11.2536   -1.7843   -9.2953 H   0  0  0  0  0  0
  -11.8578   -7.1027  -12.6664 H   0  0  0  0  0  0
  -10.4182   -8.0007  -12.0764 H   0  0  0  0  0  0
  -10.2202   -6.6644  -13.2604 H   0  0  0  0  0  0
  -13.3194   -3.2357  -11.3990 H   0  0  0  0  0  0
  -16.5794   -8.0691  -12.1071 H   0  0  0  0  0  0
  -14.9603   -8.8288  -11.4502 H   0  0  0  0  0  0
  -11.0249   -1.3271   -6.2872 H   0  0  0  0  0  0
   -9.8690   -0.3365   -7.2407 H   0  0  0  0  0  0
  -11.8139    1.0736   -7.1655 H   0  0  0  0  0  0
  -11.9970    0.2354   -8.7436 H   0  0  0  0  0  0
  -13.2543   -0.9628   -6.2742 H   0  0  0  0  0  0
  -14.0323    0.4405   -7.0818 H   0  0  0  0  0  0
  -13.8873   -2.4247   -8.0837 H   0  0  0  0  0  0
  -15.1702   -2.8777   -9.7833 H   0  0  0  0  0  0
  -16.6520   -1.8630   -9.8157 H   0  0  0  0  0  0
  -15.8475   -0.6697  -11.8124 H   0  0  0  0  0  0
  -14.2767   -1.5383  -11.7418 H   0  0  0  0  0  0
  1  2  2  0  0  0
  1  6  1  0  0  0
  1 12  1  0  0  0
  2  3  1  0  0  0
  2 11  1  0  0  0
  3  4  2  0  0  0
  3 28  1  0  0  0
  4  5  1  0  0  0
  4  8  1  0  0  0
  5  6  2  0  0  0
  5  7  1  0  0  0
  6 29  1  0  0  0
  7  9  2  0  0  0
  7 10  1  0  0  0
  8 30  1  0  0  0
  8 31  1  0  0  0
  8 32  1  0  0  0
 10 19  1  0  0  0
 10 33  1  0  0  0
 11 34  1  0  0  0
 11 35  1  0  0  0
 11 36  1  0  0  0
 12 13  2  0  0  0
 12 17  1  0  0  0
 13 14  1  0  0  0
 13 37  1  0  0  0
 14 15  2  0  0  0
 14 27  1  0  0  0
 15 16  1  0  0  0
 16 17  2  0  0  0
 16 18  1  0  0  0
 18 38  1  0  0  0
 18 39  1  0  0  0
 19 20  1  0  0  0
 19 40  1  0  0  0
 19 41  1  0  0  0
 20 21  1  0  0  0
 20 42  1  0  0  0
 20 43  1  0  0  0
 21 22  1  0  0  0
 21 44  1  0  0  0
 21 45  1  0  0  0
 22 23  1  0  0  0
 22 46  1  0  0  0
 23 24  1  0  0  0
 23 25  2  0  0  0
 24 26  1  0  0  0
 24 47  1  0  0  0
 24 48  1  0  0  0
 26 27  1  0  0  0
 26 49  1  0  0  0
 26 50  1  0  0  0
M  END
> <s_m_source_file>
../3vhd_ligand.sdf

> <i_m_source_file_index>
1

> <s_epik_input>
YzEyYzNbY0hdYyhuYyhuMylbTkgyXSlTW0NIMl1bQ0gyXUMoPU8pW05IXVtDSDJdW0NIMl1bQ0gyXVtOSF1DKD1PKWMoW2NIXTIpYyhbQ0gzXSlbY0hdYzFbQ0gzXQ==

> <s_epik_cmdline>
J2VwaWtfYXBwJywgJy1pbWFlJywgJ2xpZ2FuZF9wcm8ubWFlJywgJy1vbWFlJywgJ2xpZ2FuZF9wcmVwLm1hZScsICctbXMnLCAnMScsICctcGgnLCAnNycsICctcGh0JywgJzAuNScsICctbnQn

> <r_lp_tautomer_probability>
1

> <r_epik_Ionization_Penalty>
  0.0004

> <r_epik_Ionization_Penalty_Charging>
  0.0000

> <r_epik_Ionization_Penalty_Neutral>
  0.0004

> <r_epik_State_Penalty>
 -0.0000

> <r_epik_Charging_Adjusted_Penalty>
0

> <i_epik_Tot_Q>
0

> <i_epik_Tot_abs_Q>
0

$$$$
