3vhk_ligand
                    3D
 Schrodinger Suite 2020-3.
 39 41  0  0  1  0            999 V2000
  -24.2820   27.8600   12.5080 C   0  0  0  0  0  0
  -25.4720   28.3480   12.0210 C   0  0  0  0  0  0
  -24.2820   26.9950   13.5800 C   0  0  0  0  0  0
  -31.1760   27.3200   21.1670 C   0  0  0  0  0  0
  -26.6560   27.9690   12.6110 C   0  0  0  0  0  0
  -25.4670   26.6190   14.1710 C   0  0  0  0  0  0
  -31.7000   26.0610   21.3640 C   0  0  0  0  0  0
  -30.5310   27.6160   19.9870 C   0  0  0  0  0  0
  -30.9380   25.3870   19.2080 C   0  0  0  0  0  0
  -26.6570   27.1080   13.6850 C   0  0  0  0  0  0
  -31.5840   25.0920   20.3890 C   0  0  0  0  0  0
  -30.4170   26.6490   19.0130 C   0  0  0  0  0  0
  -29.5350   26.3100   15.5560 C   0  0  0  0  0  0
  -29.9110   26.0420   14.2570 C   0  0  0  0  0  0
  -27.8990   26.7340   14.2990 C   0  0  0  0  0  0
  -31.1370   25.5540   13.6100 C   0  0  0  0  0  0
  -32.1510   23.7340   20.5980 C   0  0  0  0  0  0
  -30.3100   26.1830   16.8010 C   0  0  0  0  0  0
  -28.2390   26.7550   15.5700 N   0  0  0  0  0  0
  -28.8640   26.3110   13.4380 O   0  0  0  0  0  0
  -31.5970   23.1950   21.7870 O   0  0  0  0  0  0
  -29.7590   26.9840   17.8400 O   0  0  0  0  0  0
  -23.3404   28.1572   12.0464 H   0  0  0  0  0  0
  -25.4773   29.0315   11.1720 H   0  0  0  0  0  0
  -23.3383   26.6060   13.9625 H   0  0  0  0  0  0
  -31.2718   28.0795   21.9430 H   0  0  0  0  0  0
  -27.6001   28.3534   12.2250 H   0  0  0  0  0  0
  -25.4622   25.9364   15.0208 H   0  0  0  0  0  0
  -32.2107   25.8286   22.2985 H   0  0  0  0  0  0
  -30.1132   28.6096   19.8248 H   0  0  0  0  0  0
  -30.8394   24.6274   18.4325 H   0  0  0  0  0  0
  -31.9077   25.3733   14.3738 H   0  0  0  0  0  0
  -30.9219   24.6161   13.0771 H   0  0  0  0  0  0
  -31.4990   26.3074   12.8949 H   0  0  0  0  0  0
  -33.2449   23.8037   20.6907 H   0  0  0  0  0  0
  -31.8958   23.0941   19.7405 H   0  0  0  0  0  0
  -31.3459   26.5071   16.6227 H   0  0  0  0  0  0
  -30.3057   25.1334   17.1301 H   0  0  0  0  0  0
  -31.8892   22.1892   22.1232 H   0  0  0  0  0  0
  1  2  2  0  0  0
  1  3  1  0  0  0
  1 23  1  0  0  0
  2  5  1  0  0  0
  2 24  1  0  0  0
  3  6  2  0  0  0
  3 25  1  0  0  0
  4  7  2  0  0  0
  4  8  1  0  0  0
  4 26  1  0  0  0
  5 10  2  0  0  0
  5 27  1  0  0  0
  6 10  1  0  0  0
  6 28  1  0  0  0
  7 11  1  0  0  0
  7 29  1  0  0  0
  8 12  2  0  0  0
  8 30  1  0  0  0
  9 11  2  0  0  0
  9 12  1  0  0  0
  9 31  1  0  0  0
 10 15  1  0  0  0
 11 17  1  0  0  0
 12 22  1  0  0  0
 13 14  2  0  0  0
 13 18  1  0  0  0
 13 19  1  0  0  0
 14 16  1  0  0  0
 14 20  1  0  0  0
 15 19  2  0  0  0
 15 20  1  0  0  0
 16 32  1  0  0  0
 16 33  1  0  0  0
 16 34  1  0  0  0
 17 21  1  0  0  0
 17 35  1  0  0  0
 17 36  1  0  0  0
 18 22  1  0  0  0
 18 37  1  0  0  0
 18 38  1  0  0  0
 21 39  1  0  0  0
M  END
> <s_m_source_file>
../3vhk_ligand.sdf

> <i_m_source_file_index>
1

> <s_epik_input>
W2NIXTFbY0hdW2NIXVtjSF1bY0hdYzEtYyhuMilvYyhbQ0gzXSljMltDSDJdT2MoW2NIXTMpW2NIXVtjSF1bY0hdYzNbQ0gyXVtPSF0=

> <s_epik_cmdline>
J2VwaWtfYXBwJywgJy1pbWFlJywgJ2xpZ2FuZF9wcm8ubWFlJywgJy1vbWFlJywgJ2xpZ2FuZF9wcmVwLm1hZScsICctbXMnLCAnMScsICctcGgnLCAnNycsICctcGh0JywgJzAuNScsICctbnQn

> <r_lp_tautomer_probability>
1

> <r_epik_Ionization_Penalty>
  0.0000

> <r_epik_Ionization_Penalty_Charging>
  0.0000

> <r_epik_Ionization_Penalty_Neutral>
  0.0000

> <r_epik_State_Penalty>
 -0.0000

> <r_epik_Charging_Adjusted_Penalty>
0

> <i_epik_Tot_Q>
0

> <i_epik_Tot_abs_Q>
0

$$$$
