3vhu_ligand
                    3D
 Schrodinger Suite 2020-3.
 61 65  0  0  1  0            999 V2000
   20.4060   11.1410   -0.7490 C   0  0  0  0  0  0
   17.3590   13.2880   -0.1940 C   0  0  0  0  0  0
   18.7590   12.9370   -0.6750 C   0  0  1  0  0  0
   18.3130   16.2810    2.1040 C   0  0  1  0  0  0
   19.6550   12.9910    0.5530 C   0  0  1  0  0  0
   16.9060   16.5190    2.6230 C   0  0  0  0  0  0
   17.3460   14.6820    0.4020 C   0  0  0  0  0  0
   20.9110   12.2480    0.1590 C   0  0  0  0  0  0
   18.9730   11.4990   -1.1290 C   0  0  2  0  0  0
   19.1930   13.8800   -1.8060 C   0  0  0  0  0  0
   18.6600   17.3230    1.0510 C   0  0  0  0  0  0
   16.8240   17.8240    3.3910 C   0  0  0  0  0  0
   17.9430   10.5560   -0.5400 C   0  0  0  0  0  0
   16.9540   10.3230   -1.6410 C   0  0  0  0  0  0
   17.6710   10.8220   -2.8470 C   0  0  0  0  0  0
   21.5980   13.1350    4.7090 C   0  0  0  0  0  0
   21.5090   12.0230    5.7000 C   0  0  0  0  0  0
   17.8070   17.8040    4.5130 C   0  0  0  0  0  0
   19.1280   17.1700    4.3110 C   0  0  0  0  0  0
   19.3290   16.4630    3.1890 C   0  0  0  0  0  0
   20.6780   15.8510    2.9930 C   0  0  0  0  0  0
   20.6810   14.4600    2.3750 C   0  0  2  0  0  0
   19.7570   14.3820    1.1650 C   0  0  2  0  0  0
   18.3460   14.8470    1.5510 C   0  0  1  0  0  0
   17.2450   10.7610   -3.9800 O   0  0  0  0  0  0
   18.8750   11.3500   -2.5300 O   0  0  0  0  0  0
   22.5820   13.8560    4.6720 O   0  0  0  0  0  0
   17.5680   18.3570    5.5730 O   0  0  0  0  0  0
   20.1680   13.3110    3.6740 S   0  0  0  0  0  0
   21.0431   11.0814   -1.6437 H   0  0  0  0  0  0
   20.4386   10.1820   -0.2111 H   0  0  0  0  0  0
   16.6600   13.2521   -1.0426 H   0  0  0  0  0  0
   17.0426   12.5652    0.5724 H   0  0  0  0  0  0
   19.2515   12.4722    1.4351 H   0  0  0  0  0  0
   16.2054   16.5633    1.7761 H   0  0  0  0  0  0
   16.6185   15.6961    3.2939 H   0  0  0  0  0  0
   17.6045   15.4157   -0.3757 H   0  0  0  0  0  0
   16.3430   14.9031    0.7958 H   0  0  0  0  0  0
   21.4227   11.8058    1.0265 H   0  0  0  0  0  0
   21.6149   12.8853   -0.3963 H   0  0  0  0  0  0
   19.0436   14.9233   -1.4911 H   0  0  0  0  0  0
   18.5900   13.6779   -2.7035 H   0  0  0  0  0  0
   20.2564   13.7144   -2.0337 H   0  0  0  0  0  0
   18.6208   18.3260    1.5009 H   0  0  0  0  0  0
   17.9370   17.2635    0.2241 H   0  0  0  0  0  0
   19.6730   17.1327    0.6668 H   0  0  0  0  0  0
   17.0549   18.6616    2.7164 H   0  0  0  0  0  0
   15.8087   17.9482    3.7955 H   0  0  0  0  0  0
   18.4350    9.6215   -0.2324 H   0  0  0  0  0  0
   17.4720   11.0277    0.3351 H   0  0  0  0  0  0
   16.7197    9.2500   -1.7024 H   0  0  0  0  0  0
   16.0335   10.8880   -1.4326 H   0  0  0  0  0  0
   22.4333   11.9876    6.2953 H   0  0  0  0  0  0
   21.3779   11.0685    5.1692 H   0  0  0  0  0  0
   20.6502   12.1932    6.3659 H   0  0  0  0  0  0
   19.9350   17.2665    5.0523 H   0  0  0  0  0  0
   21.2766   16.4888    2.3260 H   0  0  0  0  0  0
   21.1843   15.7603    3.9653 H   0  0  0  0  0  0
   21.6633   14.3481    1.8927 H   0  0  0  0  0  0
   20.2113   15.0360    0.4061 H   0  0  0  0  0  0
   18.0320   14.1791    2.3667 H   0  0  0  0  0  0
  1  8  1  0  0  0
  1  9  1  0  0  0
  1 30  1  0  0  0
  1 31  1  0  0  0
  2  3  1  0  0  0
  2  7  1  0  0  0
  2 32  1  0  0  0
  2 33  1  0  0  0
  3  5  1  0  0  0
  3  9  1  0  0  0
  3 10  1  0  0  0
  4  6  1  0  0  0
  4 11  1  0  0  0
  4 20  1  0  0  0
  4 24  1  0  0  0
  5  8  1  0  0  0
  5 23  1  0  0  0
  5 34  1  0  0  0
  6 12  1  0  0  0
  6 35  1  0  0  0
  6 36  1  0  0  0
  7 24  1  0  0  0
  7 37  1  0  0  0
  7 38  1  0  0  0
  8 39  1  0  0  0
  8 40  1  0  0  0
  9 13  1  0  0  0
  9 26  1  0  0  0
 10 41  1  0  0  0
 10 42  1  0  0  0
 10 43  1  0  0  0
 11 44  1  0  0  0
 11 45  1  0  0  0
 11 46  1  0  0  0
 12 18  1  0  0  0
 12 47  1  0  0  0
 12 48  1  0  0  0
 13 14  1  0  0  0
 13 49  1  0  0  0
 13 50  1  0  0  0
 14 15  1  0  0  0
 14 51  1  0  0  0
 14 52  1  0  0  0
 15 25  2  0  0  0
 15 26  1  0  0  0
 16 17  1  0  0  0
 16 27  2  0  0  0
 16 29  1  0  0  0
 17 53  1  0  0  0
 17 54  1  0  0  0
 17 55  1  0  0  0
 18 19  1  0  0  0
 18 28  2  0  0  0
 19 20  2  0  0  0
 19 56  1  0  0  0
 20 21  1  0  0  0
 21 22  1  0  0  0
 21 57  1  0  0  0
 21 58  1  0  0  0
 22 23  1  0  0  0
 22 29  1  0  0  0
 22 59  1  0  0  0
 23 24  1  0  0  0
 23 60  1  0  0  0
 24 61  1  0  0  0
M  END
> <s_m_source_file>
../3vhu_ligand.sdf

> <i_m_source_file_index>
1

> <s_epik_input>
Tz1DKE8xKVtDSDJdW0NIMl1bQ0BdMTJbQ0BdMyhbQ0gzXSlbQ0BASF0oW0NIMl1bQ0gyXTIpW0NASF00W0NASF0oW0NIMl1bQ0gyXTMpW0NAXTUoW0NIM10pQyg9W0NIXUMoPU8pW0NIMl1bQ0gyXTUpW0NIMl1bQ0BIXTRTQyg9TylbQ0gzXQ==

> <s_epik_cmdline>
J2VwaWtfYXBwJywgJy1pbWFlJywgJ2xpZ2FuZF9wcm8ubWFlJywgJy1vbWFlJywgJ2xpZ2FuZF9wcmVwLm1hZScsICctbXMnLCAnMScsICctcGgnLCAnNycsICctcGh0JywgJzAuNScsICctbnQn

> <r_lp_tautomer_probability>
1

> <r_epik_Ionization_Penalty>
  0.0000

> <r_epik_Ionization_Penalty_Charging>
  0.0000

> <r_epik_Ionization_Penalty_Neutral>
  0.0000

> <r_epik_State_Penalty>
 -0.0000

> <r_epik_Charging_Adjusted_Penalty>
0

> <i_epik_Tot_Q>
0

> <i_epik_Tot_abs_Q>
0

> <s_epik_Chemistry_Notes>
This compound has an ester and may undergo hydrolysis at high or low pH.

$$$$
