3vhv_ligand
                    3D
 Schrodinger Suite 2020-3.
 39 43  0  0  1  0            999 V2000
   -1.8470   17.3960   -8.3030 C   0  0  0  0  0  0
   -2.5360   16.2090   -8.3920 C   0  0  0  0  0  0
   -3.3020   15.7670   -7.3370 C   0  0  0  0  0  0
   -3.3750   16.5530   -6.2070 C   0  0  0  0  0  0
   -2.6890   17.7490   -6.1290 C   0  0  0  0  0  0
   -1.9160   18.1850   -7.1780 C   0  0  0  0  0  0
   -1.0810   17.8150   -9.3640 O   0  0  0  0  0  0
   -0.4220   16.7090   -9.9990 C   0  0  0  0  0  0
   -1.4080   15.6570  -10.4360 C   0  0  0  0  0  0
   -2.4350   15.4530   -9.5600 N   0  0  0  0  0  0
   -1.2800   15.0150  -11.4690 O   0  0  0  0  0  0
   -4.1680   16.0490   -5.0680 C   0  0  0  0  0  0
   -4.1720   16.8740   -3.7870 C   0  0  1  0  0  0
   -5.6050   16.5570   -2.6980 S   0  0  0  0  0  0
   -5.8340   14.8800   -3.0380 C   0  0  0  0  0  0
   -5.3860   14.3260   -4.1940 N   0  0  0  0  0  0
   -4.7170   14.8840   -5.2180 N   0  0  0  0  0  0
   -6.4450   13.9900   -2.2980 N   0  0  0  0  0  0
   -6.3960   12.8010   -2.9860 N   0  0  0  0  0  0
   -5.7600   13.0180   -4.1180 C   0  0  0  0  0  0
   -2.8350   16.7960   -3.0880 C   0  0  0  0  0  0
   -1.8730   15.8630   -3.4320 C   0  0  0  0  0  0
   -0.6540   15.8340   -2.7940 C   0  0  0  0  0  0
   -0.3860   16.7580   -1.8070 C   0  0  0  0  0  0
   -1.3380   17.6930   -1.4640 C   0  0  0  0  0  0
   -2.5590   17.7130   -2.0960 C   0  0  0  0  0  0
   -3.8374   14.8192   -7.3938 H   0  0  0  0  0  0
   -2.7616   18.3539   -5.2252 H   0  0  0  0  0  0
   -1.3732   19.1285   -7.1205 H   0  0  0  0  0  0
    0.1221   17.0664  -10.8857 H   0  0  0  0  0  0
    0.2870   16.2506   -9.2938 H   0  0  0  0  0  0
   -3.1878   14.6826   -9.7834 H   0  0  0  0  0  0
   -4.0956   17.8873   -4.2081 H   0  0  0  0  0  0
   -5.5622   12.2643   -4.8802 H   0  0  0  0  0  0
   -2.0838   15.1401   -4.2201 H   0  0  0  0  0  0
    0.0922   15.0877   -3.0665 H   0  0  0  0  0  0
    0.5780   16.7490   -1.2984 H   0  0  0  0  0  0
   -1.1213   18.4235   -0.6846 H   0  0  0  0  0  0
   -3.3078   18.4529   -1.8131 H   0  0  0  0  0  0
  1  2  2  0  0  0
  1  6  1  0  0  0
  1  7  1  0  0  0
  2  3  1  0  0  0
  2 10  1  0  0  0
  3  4  2  0  0  0
  3 27  1  0  0  0
  4  5  1  0  0  0
  4 12  1  0  0  0
  5  6  2  0  0  0
  5 28  1  0  0  0
  6 29  1  0  0  0
  7  8  1  0  0  0
  8  9  1  0  0  0
  8 30  1  0  0  0
  8 31  1  0  0  0
  9 10  1  0  0  0
  9 11  2  0  0  0
 10 32  1  0  0  0
 12 13  1  0  0  0
 12 17  2  0  0  0
 13 14  1  0  0  0
 13 21  1  0  0  0
 13 33  1  0  0  0
 14 15  1  0  0  0
 15 16  1  0  0  0
 15 18  2  0  0  0
 16 17  1  0  0  0
 16 20  1  0  0  0
 18 19  1  0  0  0
 19 20  2  0  0  0
 20 34  1  0  0  0
 21 22  2  0  0  0
 21 26  1  0  0  0
 22 23  1  0  0  0
 22 35  1  0  0  0
 23 24  2  0  0  0
 23 36  1  0  0  0
 24 25  1  0  0  0
 24 37  1  0  0  0
 25 26  2  0  0  0
 25 38  1  0  0  0
 26 39  1  0  0  0
M  END
> <s_m_source_file>
../3vhv_ligand.sdf

> <i_m_source_file_index>
1

> <s_epik_input>
TzFbQ0gyXUMoPU8pW05IXWMoYzEyKVtjSF1jKFtjSF1bY0hdMilDKD1ObihjMzQpW2NIXW5uNClbQ0BASF0oUzMpYzVbY0hdW2NIXVtjSF1bY0hdW2NIXTU=

> <s_epik_cmdline>
J2VwaWtfYXBwJywgJy1pbWFlJywgJ2xpZ2FuZF9wcm8ubWFlJywgJy1vbWFlJywgJ2xpZ2FuZF9wcmVwLm1hZScsICctbXMnLCAnMScsICctcGgnLCAnNycsICctcGh0JywgJzAuNScsICctbnQn

> <r_lp_tautomer_probability>
1

> <r_epik_Ionization_Penalty>
  0.0000

> <r_epik_Ionization_Penalty_Charging>
  0.0000

> <r_epik_Ionization_Penalty_Neutral>
  0.0000

> <r_epik_State_Penalty>
 -0.0000

> <r_epik_Charging_Adjusted_Penalty>
0

> <i_epik_Tot_Q>
0

> <i_epik_Tot_abs_Q>
0

> <s_epik_Chemistry_Notes>
This compound has an imine and may undergo hydrolysis.

$$$$
