3vi2_ligand
                    3D
 Schrodinger Suite 2020-3.
 27 27  0  0  1  0            999 V2000
   18.4180   33.8580    9.8760 C   0  0  0  0  0  0
   25.2220   37.0350   12.7100 O   0  0  0  0  0  0
   22.1880   33.2690   16.0680 O   0  0  0  0  0  0
   25.7190   36.2930   14.7270 O   0  5  0  0  0  0
   20.2830   36.4620   14.6090 O   0  0  0  0  0  0
   19.8350   32.9020   12.4830 C   0  0  0  0  0  0
   20.8150   33.0270   13.4410 C   0  0  0  0  0  0
   19.1740   35.1130   12.9520 C   0  0  0  0  0  0
   23.5560   35.7770   13.8110 C   0  0  0  0  0  0
   23.2440   35.2520   15.2280 C   0  0  0  0  0  0
   17.9990   33.7900   11.2010 O   0  0  0  0  0  0
   24.9480   36.4250   13.7530 C   0  0  0  0  0  0
   22.1260   34.1900   15.2470 C   0  0  0  0  0  0
   19.0090   33.9570   12.2140 C   0  0  0  0  0  0
   20.1450   35.2710   13.9110 C   0  0  0  0  0  0
   20.9830   34.2000   14.1800 C   0  0  0  0  0  0
   17.5539   33.7153    9.2104 H   0  0  0  0  0  0
   19.1615   33.0700    9.6857 H   0  0  0  0  0  0
   18.8698   34.8425    9.6844 H   0  0  0  0  0  0
   19.6148   37.3080   14.3907 H   0  0  0  0  0  0
   19.7179   31.9640   11.9402 H   0  0  0  0  0  0
   21.4806   32.1845   13.6288 H   0  0  0  0  0  0
   18.4965   35.9457   12.7631 H   0  0  0  0  0  0
   23.5276   34.9416   13.0960 H   0  0  0  0  0  0
   22.8063   36.5296   13.5255 H   0  0  0  0  0  0
   24.1472   34.7926   15.6559 H   0  0  0  0  0  0
   22.9205   36.0878   15.8657 H   0  0  0  0  0  0
  1 11  1  0  0  0
  1 17  1  0  0  0
  1 18  1  0  0  0
  1 19  1  0  0  0
  2 12  2  0  0  0
  3 13  2  0  0  0
  4 12  1  0  0  0
  5 15  1  0  0  0
  5 20  1  0  0  0
  6  7  2  0  0  0
  6 14  1  0  0  0
  6 21  1  0  0  0
  7 16  1  0  0  0
  7 22  1  0  0  0
  8 14  2  0  0  0
  8 15  1  0  0  0
  8 23  1  0  0  0
  9 10  1  0  0  0
  9 12  1  0  0  0
  9 24  1  0  0  0
  9 25  1  0  0  0
 10 13  1  0  0  0
 10 26  1  0  0  0
 10 27  1  0  0  0
 11 14  1  0  0  0
 13 16  1  0  0  0
 15 16  2  0  0  0
M  CHG  1   4  -1
M  END
> <s_m_source_file>
../3vi2_ligand.sdf

> <i_m_source_file_index>
1

> <s_epik_input>
W0NIM11PYzFbY0hdW2NIXWMoYyhbT0hdKVtjSF0xKUMoPU8pW0NIMl1bQ0gyXUMoPU8pW09IXQ==

> <s_epik_cmdline>
J2VwaWtfYXBwJywgJy1pbWFlJywgJ2xpZ2FuZF9wcm8ubWFlJywgJy1vbWFlJywgJ2xpZ2FuZF9wcmVwLm1hZScsICctbXMnLCAnMScsICctcGgnLCAnNycsICctcGh0JywgJzAuNScsICctbnQn

> <r_lp_tautomer_probability>
0.99990000499975

> <r_epik_Ionization_Penalty>
  0.0542

> <r_epik_Ionization_Penalty_Charging>
  0.0017

> <r_epik_Ionization_Penalty_Neutral>
  0.0525

> <r_epik_State_Penalty>
  0.0450

> <r_epik_Charging_Adjusted_Penalty>
0.0467578526018261

> <i_epik_Tot_Q>
-1

> <i_epik_Tot_abs_Q>
1

$$$$
