3vi5_ligand
                    3D
 Schrodinger Suite 2020-3.
 46 49  0  0  1  0            999 V2000
   25.0190    5.1200   66.3190 C   0  0  0  0  0  0
   25.9850    0.1350   67.5030 N   0  0  0  0  0  0
   25.9130    2.4050   68.5800 O   0  0  0  0  0  0
   25.8480   -1.7480   65.2010 S   0  0  0  0  0  0
   24.7870    6.5040   66.3010 C   0  0  0  0  0  0
   24.7590    2.5920   62.7060 N   0  0  0  0  0  0
   27.0990   -2.1430   65.9470 O   0  0  0  0  0  0
   22.0900    1.1170   57.8430 S   0  0  0  0  0  0
   24.8590    7.2560   67.4740 C   0  0  0  0  0  0
   20.8680    0.2980   58.1250 N   0  0  0  0  0  0
   24.8210   -2.5290   65.9150 O   0  0  0  0  0  0
   25.2220    6.6390   68.6800 C   0  0  0  0  0  0
   25.7960   -2.2800   63.7890 O   0  5  0  0  0  0
   25.4660    5.2520   68.6870 C   0  0  0  0  0  0
   25.3600    4.4820   67.5170 C   0  0  0  0  0  0
   21.6980    2.3950   57.1670 O   0  0  0  0  0  0
   25.6090    3.0030   67.5320 C   0  0  0  0  0  0
   24.6460    5.0120   64.0050 O   0  0  0  0  0  0
   25.4940    2.1730   66.3090 C   0  0  0  0  0  0
   22.9930    0.3690   56.9190 O   0  0  0  0  0  0
   25.6920    0.6910   66.3300 C   0  0  0  0  0  0
   25.5900   -0.1000   65.1800 C   0  0  0  0  0  0
   25.2610    0.5700   63.9840 C   0  0  0  0  0  0
   25.0510    1.9620   63.8710 C   0  0  0  0  0  0
   24.1790    2.1190   61.5880 C   0  0  0  0  0  0
   23.4860    3.0950   60.8640 C   0  0  0  0  0  0
   22.8270    2.7750   59.6870 C   0  0  0  0  0  0
   22.8720    1.4490   59.2220 C   0  0  0  0  0  0
   23.5830    0.4580   59.9550 C   0  0  0  0  0  0
   24.2490    0.7870   61.1530 C   0  0  0  0  0  0
   25.1690    2.8560   65.0520 C   0  0  0  0  0  0
   24.9270    4.3520   65.0520 C   0  0  0  0  0  0
   26.0640    0.7611   68.4040 H   0  0  0  0  0  0
   26.1482   -0.9507   67.5716 H   0  0  0  0  0  0
   24.5476    6.9975   65.3590 H   0  0  0  0  0  0
   25.0047    3.6568   62.5799 H   0  0  0  0  0  0
   24.6333    8.3222   67.4531 H   0  0  0  0  0  0
   20.3470    0.0799   57.1811 H   0  0  0  0  0  0
   20.1973    0.8582   58.7931 H   0  0  0  0  0  0
   25.3137    7.2228   69.5959 H   0  0  0  0  0  0
   25.7435    4.7648   69.6218 H   0  0  0  0  0  0
   25.1614   -0.0306   63.0799 H   0  0  0  0  0  0
   23.4639    4.1213   61.2304 H   0  0  0  0  0  0
   22.2830    3.5388   59.1313 H   0  0  0  0  0  0
   23.6130   -0.5672   59.5859 H   0  0  0  0  0  0
   24.7977    0.0349   61.7200 H   0  0  0  0  0  0
  1  5  2  0  0  0
  1 15  1  0  0  0
  1 32  1  0  0  0
  2 21  1  0  0  0
  2 33  1  0  0  0
  2 34  1  0  0  0
  3 17  2  0  0  0
  4  7  2  0  0  0
  4 11  2  0  0  0
  4 13  1  0  0  0
  4 22  1  0  0  0
  5  9  1  0  0  0
  5 35  1  0  0  0
  6 24  1  0  0  0
  6 25  1  0  0  0
  6 36  1  0  0  0
  8 10  1  0  0  0
  8 16  2  0  0  0
  8 20  2  0  0  0
  8 28  1  0  0  0
  9 12  2  0  0  0
  9 37  1  0  0  0
 10 38  1  0  0  0
 10 39  1  0  0  0
 12 14  1  0  0  0
 12 40  1  0  0  0
 14 15  2  0  0  0
 14 41  1  0  0  0
 15 17  1  0  0  0
 17 19  1  0  0  0
 18 32  2  0  0  0
 19 21  2  0  0  0
 19 31  1  0  0  0
 21 22  1  0  0  0
 22 23  2  0  0  0
 23 24  1  0  0  0
 23 42  1  0  0  0
 24 31  2  0  0  0
 25 26  2  0  0  0
 25 30  1  0  0  0
 26 27  1  0  0  0
 26 43  1  0  0  0
 27 28  2  0  0  0
 27 44  1  0  0  0
 28 29  1  0  0  0
 29 30  2  0  0  0
 29 45  1  0  0  0
 30 46  1  0  0  0
 31 32  1  0  0  0
M  CHG  1  13  -1
M  END
> <s_m_source_file>
../3vi5_ligand.sdf

> <i_m_source_file_index>
1

> <s_epik_input>
W2NIXTFbY0hdW2NIXVtjSF1jKGMxMilDKD1PKWMzYyhDMj1PKWMoW2NIXWMoUyg9TykoPU8pW09IXSljM1tOSDJdKVtOSF1jNFtjSF1bY0hdYyhTKD1PKSg9TylbTkgyXSlbY0hdW2NIXTQ=

> <s_epik_cmdline>
J2VwaWtfYXBwJywgJy1pbWFlJywgJ2xpZ2FuZF9wcm8ubWFlJywgJy1vbWFlJywgJ2xpZ2FuZF9wcmVwLm1hZScsICctbXMnLCAnMScsICctcGgnLCAnNycsICctcGh0JywgJzAuNScsICctbnQn

> <r_lp_tautomer_probability>
1

> <r_epik_Ionization_Penalty>
  0.0002

> <r_epik_Ionization_Penalty_Charging>
  0.0000

> <r_epik_Ionization_Penalty_Neutral>
  0.0002

> <r_epik_State_Penalty>
 -0.0000

> <r_epik_Charging_Adjusted_Penalty>
1.05178324423018e-06

> <i_epik_Tot_Q>
-1

> <i_epik_Tot_abs_Q>
1

$$$$
