3vi7_ligand
                    3D
 Schrodinger Suite 2020-3.
 70 75  0  0  1  0            999 V2000
   10.4760    2.3430   74.0600 C   0  0  0  0  0  0
   11.0280    2.0690   72.5560 S   0  0  0  0  0  0
   10.3580    3.0120   71.6350 O   0  0  0  0  0  0
   10.6100    0.6640   72.2320 O   0  0  0  0  0  0
   12.5180    2.2300   72.4290 O   0  5  0  0  0  0
    9.1270    2.1510   74.3780 C   0  0  0  0  0  0
    8.2910    1.7330   73.3890 N   0  0  0  0  0  0
    8.6570    2.3810   75.7020 C   0  0  0  0  0  0
    7.3120    2.1900   76.0590 C   0  0  0  0  0  0
    6.4920    1.8140   75.1960 O   0  0  0  0  0  0
    6.8720    2.4180   77.3680 C   0  0  0  0  0  0
    5.5430    2.2270   77.7190 C   0  0  0  0  0  0
    5.0930    2.4580   79.0260 C   0  0  0  0  0  0
    5.9570    2.8940   80.0070 C   0  0  0  0  0  0
    7.2850    3.0790   79.6350 C   0  0  0  0  0  0
    7.7600    2.8450   78.3410 C   0  0  0  0  0  0
    9.1030    3.0420   78.0070 C   0  0  1  0  0  0
    9.9980    3.4610   78.9430 O   0  0  0  0  0  0
    9.5460    2.8040   76.7010 C   0  0  0  0  0  0
   10.8810    2.9910   76.3820 C   0  0  0  0  0  0
   11.3340    2.7630   75.0810 C   0  0  0  0  0  0
   11.7280    3.4080   77.3370 N   0  0  0  0  0  0
   14.9580    2.4430   76.0500 C   0  0  0  0  0  0
   15.5270    1.2870   75.0840 S   0  0  0  0  0  0
   14.9150   -0.0080   75.4680 O   0  0  0  0  0  0
   15.1370    1.6430   73.6880 O   0  5  0  0  0  0
   17.0040    1.1100   75.1940 O   0  0  0  0  0  0
   15.7590    3.4170   76.6460 C   0  0  0  0  0  0
   15.2090    4.3890   77.4800 C   0  0  0  0  0  0
   13.8390    4.3940   77.7080 C   0  0  0  0  0  0
   13.0430    3.4230   77.1170 C   0  0  0  0  0  0
   13.5950    2.4590   76.2930 C   0  0  0  0  0  0
   17.0850    3.3790   76.4210 N   0  0  0  0  0  0
   18.1890    4.9530   75.1260 N   0  0  0  0  0  0
   19.0330    6.0030   75.0430 C   0  0  0  0  0  0
   19.3970    6.6900   73.4270 Cl  0  0  0  0  0  0
   19.5910    6.5300   76.1660 N   0  0  0  0  0  0
   19.3110    6.0010   77.3900 C   0  0  0  0  0  0
   18.4610    4.9450   77.4700 N   0  0  0  0  0  0
   17.9040    4.4380   76.3430 C   0  0  0  0  0  0
   19.8760    6.5240   78.5130 N   0  0  0  0  0  0
   18.6050    6.8660   80.5350 C   0  0  0  0  0  0
   17.9620    8.2600   79.9910 S   0  0  0  0  0  0
   17.0770    7.9810   78.8270 O   0  0  0  0  0  0
   19.0410    9.1790   79.5330 O   0  5  0  0  0  0
   17.1680    8.9570   81.0400 O   0  0  0  0  0  0
   19.5130    6.1100   79.7580 C   0  0  0  0  0  0
   20.0630    4.9100   80.2510 C   0  0  0  0  0  0
   19.7160    4.4400   81.5170 C   0  0  0  0  0  0
   18.8200    5.1820   82.2920 C   0  0  0  0  0  0
   18.2680    6.3780   81.8100 C   0  0  0  0  0  0
    8.6809    1.5629   72.3746 H   0  0  0  0  0  0
    7.2253    1.5652   73.6040 H   0  0  0  0  0  0
    4.8343    1.8903   76.9623 H   0  0  0  0  0  0
    4.0440    2.2903   79.2702 H   0  0  0  0  0  0
    5.6167    3.0847   81.0248 H   0  0  0  0  0  0
    7.9908    3.4238   80.3907 H   0  0  0  0  0  0
    8.8849    4.0884   77.7471 H   0  0  0  0  0  0
    9.6663    3.6526   79.9742 H   0  0  0  0  0  0
   12.3890    2.9172   74.8544 H   0  0  0  0  0  0
   11.3386    3.7409   78.3104 H   0  0  0  0  0  0
   15.8477    5.1377   77.9486 H   0  0  0  0  0  0
   13.3920    5.1556   78.3469 H   0  0  0  0  0  0
   12.9535    1.7077   75.8324 H   0  0  0  0  0  0
   17.5917    2.4127   76.2814 H   0  0  0  0  0  0
   20.6481    7.3029   78.4286 H   0  0  0  0  0  0
   20.7651    4.3449   79.6380 H   0  0  0  0  0  0
   20.1367    3.5088   81.8964 H   0  0  0  0  0  0
   18.5463    4.8260   83.2852 H   0  0  0  0  0  0
   17.5685    6.9365   82.4320 H   0  0  0  0  0  0
  1  2  1  0  0  0
  1  6  2  0  0  0
  1 21  1  0  0  0
  2  3  2  0  0  0
  2  4  2  0  0  0
  2  5  1  0  0  0
  6  7  1  0  0  0
  6  8  1  0  0  0
  7 52  1  0  0  0
  7 53  1  0  0  0
  8  9  1  0  0  0
  8 19  2  0  0  0
  9 10  2  0  0  0
  9 11  1  0  0  0
 11 12  2  0  0  0
 11 16  1  0  0  0
 12 13  1  0  0  0
 12 54  1  0  0  0
 13 14  2  0  0  0
 13 55  1  0  0  0
 14 15  1  0  0  0
 14 56  1  0  0  0
 15 16  2  0  0  0
 15 57  1  0  0  0
 16 17  1  0  0  0
 17 18  1  0  0  0
 17 19  1  0  0  0
 17 58  1  0  0  0
 18 59  1  0  0  0
 19 20  1  0  0  0
 20 21  2  0  0  0
 20 22  1  0  0  0
 21 60  1  0  0  0
 22 31  1  0  0  0
 22 61  1  0  0  0
 23 24  1  0  0  0
 23 28  2  0  0  0
 23 32  1  0  0  0
 24 25  2  0  0  0
 24 26  1  0  0  0
 24 27  2  0  0  0
 28 29  1  0  0  0
 28 33  1  0  0  0
 29 30  2  0  0  0
 29 62  1  0  0  0
 30 31  1  0  0  0
 30 63  1  0  0  0
 31 32  2  0  0  0
 32 64  1  0  0  0
 33 40  1  0  0  0
 33 65  1  0  0  0
 34 35  2  0  0  0
 34 40  1  0  0  0
 35 36  1  0  0  0
 35 37  1  0  0  0
 37 38  2  0  0  0
 38 39  1  0  0  0
 38 41  1  0  0  0
 39 40  2  0  0  0
 41 47  1  0  0  0
 41 66  1  0  0  0
 42 43  1  0  0  0
 42 47  2  0  0  0
 42 51  1  0  0  0
 43 44  2  0  0  0
 43 45  1  0  0  0
 43 46  2  0  0  0
 47 48  1  0  0  0
 48 49  2  0  0  0
 48 67  1  0  0  0
 49 50  1  0  0  0
 49 68  1  0  0  0
 50 51  2  0  0  0
 50 69  1  0  0  0
 51 70  1  0  0  0
M  CHG  3   5  -1  26  -1  45  -1
M  END
> <s_m_source_file>
../3vi7_ligand.sdf

> <i_m_source_file_index>
1

> <s_epik_input>
W2NIXTFbY0hdW2NIXVtjSF1jKEMyPU8pYzFbQ0hdKFtPSF0pYyhjMjMpYyhbY0hdYyhTKD1PKSg9TylbT0hdKWMzW05IMl0pW05IXWMoW2NIXTQpW2NIXVtjSF1jKGM0Uyg9TykoPU8pW09IXSlbTkhdYyhuYzVDbCluYyhuNSlbTkhdYyhjNlMoPU8pKD1PKVtPSF0pW2NIXVtjSF1bY0hdW2NIXTY=

> <s_epik_cmdline>
J2VwaWtfYXBwJywgJy1pbWFlJywgJ2xpZ2FuZF9wcm8ubWFlJywgJy1vbWFlJywgJ2xpZ2FuZF9wcmVwLm1hZScsICctbXMnLCAnMScsICctcGgnLCAnNycsICctcGh0JywgJzAuNScsICctbnQn

> <r_lp_tautomer_probability>
1

> <r_epik_Ionization_Penalty>
  0.0001

> <r_epik_Ionization_Penalty_Charging>
  0.0001

> <r_epik_Ionization_Penalty_Neutral>
  0.0000

> <r_epik_State_Penalty>
 -0.0000

> <r_epik_Charging_Adjusted_Penalty>
8.37664122739403e-05

> <i_epik_Tot_Q>
-3

> <i_epik_Tot_abs_Q>
3

$$$$
