3vid_ligand
                    3D
 Schrodinger Suite 2020-3.
 30 33  0  0  1  0            999 V2000
   -1.3620   19.9310  -28.5670 C   0  0  0  0  0  0
   -0.1970   17.7050  -29.1820 C   0  0  0  0  0  0
   -2.2100   16.6350  -31.3580 C   0  0  0  0  0  0
   -0.4890   20.4680  -27.6210 C   0  0  0  0  0  0
   -3.0710   16.0200  -32.2650 C   0  0  0  0  0  0
   -2.8150   21.8490  -28.3520 C   0  0  0  0  0  0
   -1.9530   22.3900  -27.3970 C   0  0  0  0  0  0
   -3.1710   19.8810  -29.8720 N   0  3  0  0  0  0
   -2.5240   20.6150  -28.9460 C   0  0  0  0  0  0
   -0.7940   21.6980  -27.0280 C   0  0  0  0  0  0
   -2.4310   18.7850  -30.0720 C   0  0  0  0  0  0
   -2.8660   17.8170  -30.9880 C   0  0  0  0  0  0
   -4.0590   17.9710  -31.5940 N   0  3  0  0  0  0
   -4.1510   16.8190  -32.3890 N   0  0  0  0  0  0
   -1.2860   18.7420  -29.2780 C   0  0  0  0  0  0
    0.1100   17.1470  -30.5570 C   0  0  0  0  0  0
   -0.8870   16.0590  -30.9160 C   0  0  0  0  0  0
    0.7119   18.1651  -28.7670 H   0  0  0  0  0  0
   -0.5267   16.8868  -28.5248 H   0  0  0  0  0  0
    0.4213   19.9350  -27.3466 H   0  0  0  0  0  0
   -2.9035   15.0726  -32.7773 H   0  0  0  0  0  0
   -3.7180   22.3891  -28.6365 H   0  0  0  0  0  0
   -2.1826   23.3518  -26.9384 H   0  0  0  0  0  0
   -0.1265   22.1187  -26.2760 H   0  0  0  0  0  0
    0.0469   17.9534  -31.3024 H   0  0  0  0  0  0
    1.1244   16.7217  -30.5620 H   0  0  0  0  0  0
   -1.0406   15.4254  -30.0300 H   0  0  0  0  0  0
   -0.4602   15.4543  -31.7297 H   0  0  0  0  0  0
   -4.1201   20.2419  -30.2951 H   0  0  0  0  0  0
   -4.6717   18.8602  -31.3844 H   0  0  0  0  0  0
  1  4  2  0  0  0
  1  9  1  0  0  0
  1 15  1  0  0  0
  2 15  1  0  0  0
  2 16  1  0  0  0
  2 18  1  0  0  0
  2 19  1  0  0  0
  3  5  2  0  0  0
  3 12  1  0  0  0
  3 17  1  0  0  0
  4 10  1  0  0  0
  4 20  1  0  0  0
  5 14  1  0  0  0
  5 21  1  0  0  0
  6  7  1  0  0  0
  6  9  2  0  0  0
  6 22  1  0  0  0
  7 10  2  0  0  0
  7 23  1  0  0  0
  8  9  1  0  0  0
  8 11  1  0  0  0
  8 29  1  0  0  0
 10 24  1  0  0  0
 11 12  1  0  0  0
 11 15  2  0  0  0
 12 13  2  0  0  0
 13 14  1  0  0  0
 13 30  1  0  0  0
 16 17  1  0  0  0
 16 25  1  0  0  0
 16 26  1  0  0  0
 17 27  1  0  0  0
 17 28  1  0  0  0
M  CHG  2   8   1  13   1
M  END
> <s_m_source_file>
../3vid_ligand.sdf

> <i_m_source_file_index>
1

> <s_epik_input>
W2NIXTFbY0hdW2NIXVtjSF1jKGMxMilbbkhdYzNjNGMoW2NIXVtuSF1uNClbQ0gyXVtDSDJdW0NIMl1jMjM=

> <s_epik_cmdline>
J2VwaWtfYXBwJywgJy1pbWFlJywgJ2xpZ2FuZF9wcm8ubWFlJywgJy1vbWFlJywgJ2xpZ2FuZF9wcmVwLm1hZScsICctbXMnLCAnMScsICctcGgnLCAnNycsICctcGh0JywgJzAuNScsICctbnQn

> <r_epik_Ionization_Penalty>
  0.0000

> <r_epik_Ionization_Penalty_Charging>
  0.0000

> <r_epik_Ionization_Penalty_Neutral>
  0.0000

> <r_epik_State_Penalty>
  0.1827

> <r_epik_Charging_Adjusted_Penalty>
0.182742392485225

> <i_epik_Tot_Q>
2

> <i_epik_Tot_abs_Q>
2

$$$$
