3vjc_ligand
                    3D
 Schrodinger Suite 2020-3.
 92 94  0  0  1  0            999 V2000
   15.7190   65.0890   51.9800 C   0  0  0  0  0  0
   14.2120   52.1260   54.0460 C   0  0  0  0  0  0
   12.1350   65.8550   49.5260 C   0  0  0  0  0  0
   19.5350   53.4300   50.7880 C   0  0  0  0  0  0
   14.9990   53.8410   51.5800 C   0  0  0  0  0  0
   17.2520   64.8110   48.8050 C   0  0  0  0  0  0
   12.7620   63.8630   50.7180 O   0  0  0  0  0  0
   18.7320   56.7470   54.3970 O   0  0  0  0  0  0
   18.7920   63.1290   57.5370 O   0  5  0  0  0  0
   20.3410   58.7270   56.2600 O   0  5  0  0  0  0
   21.2470   59.0500   53.2180 O   0  0  0  0  0  0
   20.0280   61.4140   58.0960 O   0  0  0  0  0  0
   22.0160   60.1040   56.0020 O   0  0  0  0  0  0
   20.6930   60.5370   51.7290 O   0  5  0  0  0  0
   16.1700   60.0230   55.1360 O   0  0  0  0  0  0
   20.7520   61.9630   54.9020 O   0  0  0  0  0  0
   18.1600   56.1490   52.1670 C   0  0  0  0  0  0
   18.4010   54.8610   52.3690 C   0  0  0  0  0  0
   18.5760   61.5280   44.7620 C   0  0  0  0  0  0
   18.1010   62.8350   44.6490 C   0  0  0  0  0  0
   18.1380   60.7250   45.8130 C   0  0  0  0  0  0
   17.2240   63.3360   45.6050 C   0  0  0  0  0  0
   17.2630   61.2240   46.7830 C   0  0  0  0  0  0
   15.3540   51.8370   53.0880 C   0  0  0  0  0  0
   16.2240   62.5930   52.0680 C   0  0  0  0  0  0
   16.6700   62.8430   53.4950 C   0  0  0  0  0  0
   15.8190   63.1270   47.6590 C   0  0  0  0  0  0
   17.2890   52.7250   51.7480 C   0  0  0  0  0  0
   14.4630   64.7800   49.5380 O   0  0  0  0  0  0
   18.1600   58.4850   52.9320 O   0  0  0  0  0  0
   17.9110   62.1480   55.3740 O   0  0  0  0  0  0
   18.7220   61.5400   53.2970 O   0  0  0  0  0  0
   13.0830   64.7800   49.9870 C   0  0  0  0  0  0
   18.3880   57.0970   53.2710 C   0  0  0  0  0  0
   15.7490   63.8770   51.3840 C   0  0  0  0  0  0
   19.2290   61.9780   57.3180 C   0  0  0  0  0  0
   20.8110   59.8110   55.8530 C   0  0  0  0  0  0
   20.5040   59.9770   52.8400 C   0  0  0  0  0  0
   16.8060   62.5350   46.6710 C   0  0  0  0  0  0
   18.1520   53.8840   51.2480 C   0  0  2  0  0  0
   15.9870   53.0860   52.4710 C   0  0  1  0  0  0
   16.4360   63.5300   48.9930 C   0  0  2  0  0  0
   16.9840   60.2980   53.9980 C   0  0  2  0  0  0
   15.2770   63.6870   49.9720 C   0  0  2  0  0  0
   18.7750   61.2570   56.0790 C   0  0  2  0  0  0
   18.2400   59.4210   53.9980 C   0  0  2  0  0  0
   19.9270   60.8260   55.1660 C   0  0  1  0  0  0
   17.5330   61.7240   54.0580 C   0  0  2  0  0  0
   19.4030   60.3960   53.7940 C   0  0  2  0  0  0
   16.0709   65.2012   53.0161 H   0  0  0  0  0  0
   15.3427   65.9636   51.4291 H   0  0  0  0  0  0
   13.8166   51.1788   54.4416 H   0  0  0  0  0  0
   13.4133   52.6627   53.5131 H   0  0  0  0  0  0
   14.5788   52.7459   54.8774 H   0  0  0  0  0  0
   11.1434   65.6847   49.9706 H   0  0  0  0  0  0
   12.0548   65.8275   48.4293 H   0  0  0  0  0  0
   12.5143   66.8382   49.8414 H   0  0  0  0  0  0
   20.1100   54.3009   50.4403 H   0  0  0  0  0  0
   19.4289   52.7082   49.9647 H   0  0  0  0  0  0
   20.0626   52.9537   51.6275 H   0  0  0  0  0  0
   14.0890   54.0704   52.1539 H   0  0  0  0  0  0
   14.7378   53.2177   50.7121 H   0  0  0  0  0  0
   15.4598   54.7778   51.2334 H   0  0  0  0  0  0
   18.0667   64.6251   48.0896 H   0  0  0  0  0  0
   17.6762   65.1206   49.7715 H   0  0  0  0  0  0
   16.5996   65.6079   48.4187 H   0  0  0  0  0  0
   15.6959   59.0367   55.2477 H   0  0  0  0  0  0
   21.2615   62.4771   55.7303 H   0  0  0  0  0  0
   17.7961   56.4935   51.1878 H   0  0  0  0  0  0
   18.7774   54.5182   53.3441 H   0  0  0  0  0  0
   19.2855   61.1375   44.0325 H   0  0  0  0  0  0
   18.4162   63.4612   43.8144 H   0  0  0  0  0  0
   18.4823   59.6930   45.8801 H   0  0  0  0  0  0
   16.8603   64.3602   45.5222 H   0  0  0  0  0  0
   16.9432   60.5961   47.6147 H   0  0  0  0  0  0
   16.1527   51.3003   53.6209 H   0  0  0  0  0  0
   14.9872   51.2171   52.2566 H   0  0  0  0  0  0
   17.0643   62.1846   51.4874 H   0  0  0  0  0  0
   15.3920   61.8734   52.0646 H   0  0  0  0  0  0
   17.2596   63.7707   53.5377 H   0  0  0  0  0  0
   15.7868   62.9397   54.1436 H   0  0  0  0  0  0
   15.3654   64.0312   47.2270 H   0  0  0  0  0  0
   15.0318   62.3903   47.8770 H   0  0  0  0  0  0
   16.9888   52.0973   50.8960 H   0  0  0  0  0  0
   17.8657   52.1205   52.4636 H   0  0  0  0  0  0
   17.5995   54.3410   50.4138 H   0  0  0  0  0  0
   16.2466   53.7818   53.2824 H   0  0  0  0  0  0
   17.1342   62.7773   49.3879 H   0  0  0  0  0  0
   16.2935   60.1071   53.1633 H   0  0  0  0  0  0
   14.6310   62.7967   49.9728 H   0  0  0  0  0  0
   18.2103   60.3582   56.3674 H   0  0  0  0  0  0
   18.3608   58.7814   54.8848 H   0  0  0  0  0  0
  1 35  2  0  0  0
  1 50  1  0  0  0
  1 51  1  0  0  0
  2 24  1  0  0  0
  2 52  1  0  0  0
  2 53  1  0  0  0
  2 54  1  0  0  0
  3 33  1  0  0  0
  3 55  1  0  0  0
  3 56  1  0  0  0
  3 57  1  0  0  0
  4 40  1  0  0  0
  4 58  1  0  0  0
  4 59  1  0  0  0
  4 60  1  0  0  0
  5 41  1  0  0  0
  5 61  1  0  0  0
  5 62  1  0  0  0
  5 63  1  0  0  0
  6 42  1  0  0  0
  6 64  1  0  0  0
  6 65  1  0  0  0
  6 66  1  0  0  0
  7 33  2  0  0  0
  8 34  2  0  0  0
  9 36  1  0  0  0
 10 37  1  0  0  0
 11 38  2  0  0  0
 12 36  2  0  0  0
 13 37  2  0  0  0
 14 38  1  0  0  0
 15 43  1  0  0  0
 15 67  1  0  0  0
 16 47  1  0  0  0
 16 68  1  0  0  0
 17 18  2  0  0  0
 17 34  1  0  0  0
 17 69  1  0  0  0
 18 40  1  0  0  0
 18 70  1  0  0  0
 19 20  2  0  0  0
 19 21  1  0  0  0
 19 71  1  0  0  0
 20 22  1  0  0  0
 20 72  1  0  0  0
 21 23  2  0  0  0
 21 73  1  0  0  0
 22 39  2  0  0  0
 22 74  1  0  0  0
 23 39  1  0  0  0
 23 75  1  0  0  0
 24 41  1  0  0  0
 24 76  1  0  0  0
 24 77  1  0  0  0
 25 26  1  0  0  0
 25 35  1  0  0  0
 25 78  1  0  0  0
 25 79  1  0  0  0
 26 48  1  0  0  0
 26 80  1  0  0  0
 26 81  1  0  0  0
 27 39  1  0  0  0
 27 42  1  0  0  0
 27 82  1  0  0  0
 27 83  1  0  0  0
 28 40  1  0  0  0
 28 41  1  0  0  0
 28 84  1  0  0  0
 28 85  1  0  0  0
 29 33  1  0  0  0
 29 44  1  0  0  0
 30 34  1  0  0  0
 30 46  1  0  0  0
 31 45  1  0  0  0
 31 48  1  0  0  0
 32 48  1  0  0  0
 32 49  1  0  0  0
 35 44  1  0  0  0
 36 45  1  0  0  0
 37 47  1  0  0  0
 38 49  1  0  0  0
 40 86  1  0  0  0
 41 87  1  0  0  0
 42 44  1  0  0  0
 42 88  1  0  0  0
 43 46  1  0  0  0
 43 48  1  0  0  0
 43 89  1  0  0  0
 44 90  1  0  0  0
 45 47  1  0  0  0
 45 91  1  0  0  0
 46 49  1  0  0  0
 46 92  1  0  0  0
 47 49  1  0  0  0
M  CHG  3   9  -1  10  -1  14  -1
M  END
> <s_m_source_file>
../3vjc_ligand.sdf

> <i_m_source_file_index>
1

> <s_epik_input>
W2NIXTFbY0hdW2NIXVtjSF1bY0hdYzFbQ0gyXVtDQEBIXShbQ0gzXSlbQ0BIXShPQyg9TylbQ0gzXSlDKD1bQ0gyXSlbQ0gyXVtDSDJdW0NAXTIzT1tDQEhdKEMoPU8pW09IXSlbQ0BAXShbT0hdKShDKD1PKVtPSF0pW0NAQF0oTzIpKEMoPU8pW09IXSlbQ0BASF0oW0NASF0zW09IXSlPQyg9TykvW0NIXT1bQ0hdL1tDQEBIXShbQ0gzXSlbQ0gyXVtDQEBIXShbQ0gzXSlbQ0gyXVtDSDNd

> <s_epik_cmdline>
J2VwaWtfYXBwJywgJy1pbWFlJywgJ2xpZ2FuZF9wcm8ubWFlJywgJy1vbWFlJywgJ2xpZ2FuZF9wcmVwLm1hZScsICctbXMnLCAnMScsICctcGgnLCAnNycsICctcGh0JywgJzAuNScsICctbnQn

> <r_lp_tautomer_probability>
1

> <r_epik_Ionization_Penalty>
  0.0001

> <r_epik_Ionization_Penalty_Charging>
  0.0001

> <r_epik_Ionization_Penalty_Neutral>
  0.0000

> <r_epik_State_Penalty>
 -0.0000

> <r_epik_Charging_Adjusted_Penalty>
6.92160277534735e-05

> <i_epik_Tot_Q>
-3

> <i_epik_Tot_abs_Q>
3

> <s_epik_Chemistry_Notes>
This compound has an ester and may undergo hydrolysis at high or low pH.

$$$$
