3vje_ligand
                    3D
 Schrodinger Suite 2020-3.
 92 94  0  0  1  0            999 V2000
   27.5770   -7.8390    8.8300 C   0  0  0  0  0  0
   16.6680  -15.5630   11.0370 C   0  0  0  0  0  0
   29.8080  -10.2480    6.1330 C   0  0  0  0  0  0
   15.6450  -12.0390    6.9840 C   0  0  0  0  0  0
   17.1450  -14.8620    8.5410 C   0  0  0  0  0  0
   27.3190  -10.7810   10.7770 C   0  0  0  0  0  0
   27.5750   -9.3910    6.0060 O   0  0  0  0  0  0
   18.4790   -7.9190    8.0930 O   0  0  0  0  0  0
   21.6910   -2.9470   11.0110 O   0  5  0  0  0  0
   19.2220   -5.4980   10.3800 O   0  0  0  0  0  0
   21.7580   -9.1910   12.1950 O   0  0  0  0  0  0
   23.7760   -3.6080   10.8370 O   0  0  0  0  0  0
   19.6550   -5.3670   12.5230 O   0  5  0  0  0  0
   19.7190   -8.4430   11.9140 O   0  5  0  0  0  0
   21.9070   -6.5970    7.2000 O   0  0  0  0  0  0
   22.1130   -5.8900   12.3430 O   0  0  0  0  0  0
   18.1600  -10.1700    8.7260 C   0  0  0  0  0  0
   16.9540  -10.2800    8.1680 C   0  0  0  0  0  0
   25.1300  -15.6750   11.5770 C   0  0  0  0  0  0
   26.5090  -15.5000   11.4570 C   0  0  0  0  0  0
   24.2690  -14.8340   10.8740 C   0  0  0  0  0  0
   27.0160  -14.4990   10.6320 C   0  0  0  0  0  0
   24.7800  -13.8350   10.0360 C   0  0  0  0  0  0
   15.8810  -14.3260   10.6670 C   0  0  0  0  0  0
   25.2950   -8.3780    9.5010 C   0  0  0  0  0  0
   24.4780   -7.5980    8.5030 C   0  0  0  0  0  0
   26.7360  -12.5750    9.0230 C   0  0  0  0  0  0
   16.8250  -12.5110    9.2310 C   0  0  0  0  0  0
   28.1290  -10.4330    7.9900 O   0  0  0  0  0  0
   20.3340   -8.9490    9.0490 O   0  0  0  0  0  0
   23.2750   -5.7020    9.4710 O   0  0  0  0  0  0
   22.8620   -7.7210   10.4030 O   0  0  0  0  0  0
   28.4370   -9.9690    6.6510 C   0  0  0  0  0  0
   18.9580   -8.9410    8.5710 C   0  0  0  0  0  0
   26.6140   -8.7610    8.8630 C   0  0  0  0  0  0
   22.5500   -3.7900   10.6690 C   0  0  0  0  0  0
   20.0080   -5.5910   11.3460 C   0  0  0  0  0  0
   20.9380   -8.4360   11.6380 C   0  0  0  0  0  0
   26.1580  -13.6520    9.9290 C   0  0  0  0  0  0
   16.0860  -11.5090    8.3470 C   0  0  2  0  0  0
   16.1990  -13.8970    9.2400 C   0  0  1  0  0  0
   26.5110  -11.1460    9.5250 C   0  0  2  0  0  0
   22.0640   -7.5270    8.2750 C   0  0  2  0  0  0
   26.7840  -10.1740    8.3770 C   0  0  2  0  0  0
   22.1130   -5.0910   10.0540 C   0  0  2  0  0  0
   20.8840   -7.6450    9.2240 C   0  0  2  0  0  0
   21.4340   -6.0070   11.0890 C   0  0  1  0  0  0
   23.2090   -7.0990    9.1760 C   0  0  2  0  0  0
   21.4820   -7.4640   10.6210 C   0  0  2  0  0  0
   27.3793   -6.8236    9.2039 H   0  0  0  0  0  0
   28.5690   -8.0940    8.4289 H   0  0  0  0  0  0
   16.4254  -15.8569   12.0689 H   0  0  0  0  0  0
   17.7443  -15.3495   10.9599 H   0  0  0  0  0  0
   16.4067  -16.3825   10.3513 H   0  0  0  0  0  0
   29.9042   -9.8444    5.1143 H   0  0  0  0  0  0
   29.9789  -11.3345    6.1146 H   0  0  0  0  0  0
   30.5516   -9.7708    6.7882 H   0  0  0  0  0  0
   15.1257  -11.2422    6.4313 H   0  0  0  0  0  0
   14.9641  -12.8914    7.1249 H   0  0  0  0  0  0
   16.5277  -12.3651    6.4143 H   0  0  0  0  0  0
   16.7052  -15.8702    8.5396 H   0  0  0  0  0  0
   18.1073  -14.8825    9.0735 H   0  0  0  0  0  0
   17.3065  -14.5310    7.5045 H   0  0  0  0  0  0
   27.0971  -11.5003   11.5791 H   0  0  0  0  0  0
   27.0460   -9.7678   11.1071 H   0  0  0  0  0  0
   28.3932  -10.8132   10.5424 H   0  0  0  0  0  0
   21.1197   -6.7535    6.4479 H   0  0  0  0  0  0
   22.1839   -4.9117   12.8409 H   0  0  0  0  0  0
   18.5729  -11.0041    9.3123 H   0  0  0  0  0  0
   16.5563   -9.4602    7.5517 H   0  0  0  0  0  0
   24.7294  -16.4627   12.2151 H   0  0  0  0  0  0
   27.1901  -16.1473   12.0094 H   0  0  0  0  0  0
   23.1906  -14.9547   10.9772 H   0  0  0  0  0  0
   28.0946  -14.3758   10.5343 H   0  0  0  0  0  0
   24.1003  -13.2004    9.4673 H   0  0  0  0  0  0
   14.8047  -14.5395   10.7441 H   0  0  0  0  0  0
   16.1422  -13.5065   11.3527 H   0  0  0  0  0  0
   25.4786   -7.7568   10.3900 H   0  0  0  0  0  0
   24.7467   -9.2853    9.7946 H   0  0  0  0  0  0
   25.0641   -6.7412    8.1391 H   0  0  0  0  0  0
   24.2151   -8.2486    7.6559 H   0  0  0  0  0  0
   27.8228  -12.7176    8.9311 H   0  0  0  0  0  0
   26.2717  -12.6446    8.0282 H   0  0  0  0  0  0
   17.8596  -12.6215    8.8741 H   0  0  0  0  0  0
   16.8321  -12.1484   10.2695 H   0  0  0  0  0  0
   15.1516  -11.2662    8.8743 H   0  0  0  0  0  0
   15.2447  -13.8909    8.6929 H   0  0  0  0  0  0
   25.4612  -11.0720    9.8449 H   0  0  0  0  0  0
   22.2072   -8.4519    7.6970 H   0  0  0  0  0  0
   26.1438  -10.3032    7.4919 H   0  0  0  0  0  0
   21.4038   -4.9168    9.2314 H   0  0  0  0  0  0
   20.0451   -6.9584    9.0375 H   0  0  0  0  0  0
  1 35  2  0  0  0
  1 50  1  0  0  0
  1 51  1  0  0  0
  2 24  1  0  0  0
  2 52  1  0  0  0
  2 53  1  0  0  0
  2 54  1  0  0  0
  3 33  1  0  0  0
  3 55  1  0  0  0
  3 56  1  0  0  0
  3 57  1  0  0  0
  4 40  1  0  0  0
  4 58  1  0  0  0
  4 59  1  0  0  0
  4 60  1  0  0  0
  5 41  1  0  0  0
  5 61  1  0  0  0
  5 62  1  0  0  0
  5 63  1  0  0  0
  6 42  1  0  0  0
  6 64  1  0  0  0
  6 65  1  0  0  0
  6 66  1  0  0  0
  7 33  2  0  0  0
  8 34  2  0  0  0
  9 36  1  0  0  0
 10 37  2  0  0  0
 11 38  2  0  0  0
 12 36  2  0  0  0
 13 37  1  0  0  0
 14 38  1  0  0  0
 15 43  1  0  0  0
 15 67  1  0  0  0
 16 47  1  0  0  0
 16 68  1  0  0  0
 17 18  2  0  0  0
 17 34  1  0  0  0
 17 69  1  0  0  0
 18 40  1  0  0  0
 18 70  1  0  0  0
 19 20  2  0  0  0
 19 21  1  0  0  0
 19 71  1  0  0  0
 20 22  1  0  0  0
 20 72  1  0  0  0
 21 23  2  0  0  0
 21 73  1  0  0  0
 22 39  2  0  0  0
 22 74  1  0  0  0
 23 39  1  0  0  0
 23 75  1  0  0  0
 24 41  1  0  0  0
 24 76  1  0  0  0
 24 77  1  0  0  0
 25 26  1  0  0  0
 25 35  1  0  0  0
 25 78  1  0  0  0
 25 79  1  0  0  0
 26 48  1  0  0  0
 26 80  1  0  0  0
 26 81  1  0  0  0
 27 39  1  0  0  0
 27 42  1  0  0  0
 27 82  1  0  0  0
 27 83  1  0  0  0
 28 40  1  0  0  0
 28 41  1  0  0  0
 28 84  1  0  0  0
 28 85  1  0  0  0
 29 33  1  0  0  0
 29 44  1  0  0  0
 30 34  1  0  0  0
 30 46  1  0  0  0
 31 45  1  0  0  0
 31 48  1  0  0  0
 32 48  1  0  0  0
 32 49  1  0  0  0
 35 44  1  0  0  0
 36 45  1  0  0  0
 37 47  1  0  0  0
 38 49  1  0  0  0
 40 86  1  0  0  0
 41 87  1  0  0  0
 42 44  1  0  0  0
 42 88  1  0  0  0
 43 46  1  0  0  0
 43 48  1  0  0  0
 43 89  1  0  0  0
 44 90  1  0  0  0
 45 47  1  0  0  0
 45 91  1  0  0  0
 46 49  1  0  0  0
 46 92  1  0  0  0
 47 49  1  0  0  0
M  CHG  3   9  -1  13  -1  14  -1
M  END
> <s_m_source_file>
../3vje_ligand.sdf

> <i_m_source_file_index>
1

> <s_epik_input>
W2NIXTFbY0hdW2NIXVtjSF1bY0hdYzFbQ0gyXVtDQEBIXShbQ0gzXSlbQ0BIXShPQyg9TylbQ0gzXSlDKD1bQ0gyXSlbQ0gyXVtDSDJdW0NAXTIzT1tDQEhdKEMoPU8pW09IXSlbQ0BAXShbT0hdKShDKD1PKVtPSF0pW0NAQF0oTzIpKEMoPU8pW09IXSlbQ0BASF0oW0NASF0zW09IXSlPQyg9TykvW0NIXT1bQ0hdL1tDQEBIXShbQ0gzXSlbQ0gyXVtDQEBIXShbQ0gzXSlbQ0gyXVtDSDNd

> <s_epik_cmdline>
J2VwaWtfYXBwJywgJy1pbWFlJywgJ2xpZ2FuZF9wcm8ubWFlJywgJy1vbWFlJywgJ2xpZ2FuZF9wcmVwLm1hZScsICctbXMnLCAnMScsICctcGgnLCAnNycsICctcGh0JywgJzAuNScsICctbnQn

> <r_lp_tautomer_probability>
1

> <r_epik_Ionization_Penalty>
  0.0001

> <r_epik_Ionization_Penalty_Charging>
  0.0001

> <r_epik_Ionization_Penalty_Neutral>
  0.0000

> <r_epik_State_Penalty>
 -0.0000

> <r_epik_Charging_Adjusted_Penalty>
6.92160277534735e-05

> <i_epik_Tot_Q>
-3

> <i_epik_Tot_abs_Q>
3

> <s_epik_Chemistry_Notes>
This compound has an ester and may undergo hydrolysis at high or low pH.

$$$$
