3vjk_ligand
                    3D
 Schrodinger Suite 2020-3.
 61 65  0  0  1  0            999 V2000
   47.4140   63.4950   34.8590 C   0  0  0  0  0  0
   46.1380   63.7000   34.2900 C   0  0  0  0  0  0
   46.1830   64.4610   33.1790 N   0  0  0  0  0  0
   47.5520   64.7540   33.0230 N   0  0  0  0  0  0
   48.2860   64.2030   34.0170 C   0  0  0  0  0  0
   47.8890   65.5280   31.9840 C   0  0  0  0  0  0
   48.8040   66.5880   32.0340 C   0  0  0  0  0  0
   49.0980   67.3800   30.9250 C   0  0  0  0  0  0
   48.4430   67.1560   29.7190 C   0  0  0  0  0  0
   47.5030   66.1340   29.6340 C   0  0  0  0  0  0
   47.2430   65.3510   30.7540 C   0  0  0  0  0  0
   44.9470   63.0710   34.9650 C   0  0  0  0  0  0
   49.6700   64.2700   34.2150 N   0  0  0  0  0  0
   50.5650   63.9250   33.0970 C   0  0  0  0  0  0
   51.8790   64.6990   33.2740 C   0  0  0  0  0  0
   52.4160   64.4870   34.6320 N   0  3  0  0  0  0
   51.5260   64.8350   35.7530 C   0  0  0  0  0  0
   50.2000   64.0680   35.5820 C   0  0  0  0  0  0
   53.7330   65.1320   34.7730 C   0  0  2  0  0  0
   54.6760   64.8000   33.6180 C   0  0  0  0  0  0
   55.9850   64.9930   34.2190 N   0  0  1  0  0  0
   55.9440   65.1260   35.6740 C   0  0  1  0  0  0
   54.5320   64.6540   35.9950 C   0  0  0  0  0  0
   57.0390   64.3510   36.3760 C   0  0  0  0  0  0
   57.5390   64.8160   37.5160 N   0  0  0  0  0  0
   57.0340   66.0430   38.1590 C   0  0  0  0  0  0
   57.8110   66.3710   39.4410 C   0  0  0  0  0  0
   58.6030   64.8690   39.8520 S   0  0  0  0  0  0
   58.6270   64.1530   38.2310 C   0  0  0  0  0  0
   57.4740   63.3280   35.8710 O   0  0  0  0  0  0
   47.6648   62.9183   35.7493 H   0  0  0  0  0  0
   49.3059   66.8019   32.9776 H   0  0  0  0  0  0
   49.8406   68.1741   31.0032 H   0  0  0  0  0  0
   48.6638   67.7748   28.8493 H   0  0  0  0  0  0
   46.9752   65.9485   28.6985 H   0  0  0  0  0  0
   46.4985   64.5593   30.6700 H   0  0  0  0  0  0
   45.2805   62.5152   35.8537 H   0  0  0  0  0  0
   44.4512   62.3815   34.2659 H   0  0  0  0  0  0
   44.2398   63.8571   35.2682 H   0  0  0  0  0  0
   50.7611   62.8426   33.1049 H   0  0  0  0  0  0
   50.0881   64.2043   32.1459 H   0  0  0  0  0  0
   52.6148   64.3458   32.5366 H   0  0  0  0  0  0
   51.6952   65.7730   33.1230 H   0  0  0  0  0  0
   52.5157   63.3950   34.7190 H   0  0  0  0  0  0
   52.0038   64.5512   36.7023 H   0  0  0  0  0  0
   51.3361   65.9185   35.7477 H   0  0  0  0  0  0
   49.4703   64.4392   36.3167 H   0  0  0  0  0  0
   50.3781   62.9958   35.7515 H   0  0  0  0  0  0
   53.4249   66.1866   34.8266 H   0  0  0  0  0  0
   54.5041   63.7640   33.2905 H   0  0  0  0  0  0
   54.4848   65.4860   32.7797 H   0  0  0  0  0  0
   56.6267   64.1308   33.9849 H   0  0  0  0  0  0
   56.1502   66.1572   35.9968 H   0  0  0  0  0  0
   54.1238   65.1188   36.9046 H   0  0  0  0  0  0
   54.4569   63.5596   36.0770 H   0  0  0  0  0  0
   57.1372   66.8899   37.4647 H   0  0  0  0  0  0
   55.9738   65.9103   38.4204 H   0  0  0  0  0  0
   58.5314   67.1769   39.2371 H   0  0  0  0  0  0
   57.1085   66.6963   40.2225 H   0  0  0  0  0  0
   58.4397   63.0695   38.2604 H   0  0  0  0  0  0
   59.5779   64.3468   37.7131 H   0  0  0  0  0  0
  1  2  1  0  0  0
  1  5  2  0  0  0
  1 31  1  0  0  0
  2  3  2  0  0  0
  2 12  1  0  0  0
  3  4  1  0  0  0
  4  5  1  0  0  0
  4  6  1  0  0  0
  5 13  1  0  0  0
  6  7  2  0  0  0
  6 11  1  0  0  0
  7  8  1  0  0  0
  7 32  1  0  0  0
  8  9  2  0  0  0
  8 33  1  0  0  0
  9 10  1  0  0  0
  9 34  1  0  0  0
 10 11  2  0  0  0
 10 35  1  0  0  0
 11 36  1  0  0  0
 12 37  1  0  0  0
 12 38  1  0  0  0
 12 39  1  0  0  0
 13 14  1  0  0  0
 13 18  1  0  0  0
 14 15  1  0  0  0
 14 40  1  0  0  0
 14 41  1  0  0  0
 15 16  1  0  0  0
 15 42  1  0  0  0
 15 43  1  0  0  0
 16 17  1  0  0  0
 16 19  1  0  0  0
 16 44  1  0  0  0
 17 18  1  0  0  0
 17 45  1  0  0  0
 17 46  1  0  0  0
 18 47  1  0  0  0
 18 48  1  0  0  0
 19 20  1  0  0  0
 19 23  1  0  0  0
 19 49  1  0  0  0
 20 21  1  0  0  0
 20 50  1  0  0  0
 20 51  1  0  0  0
 21 22  1  0  0  0
 21 52  1  0  0  0
 22 23  1  0  0  0
 22 24  1  0  0  0
 22 53  1  0  0  0
 23 54  1  0  0  0
 23 55  1  0  0  0
 24 25  1  0  0  0
 24 30  2  0  0  0
 25 26  1  0  0  0
 25 29  1  0  0  0
 26 27  1  0  0  0
 26 56  1  0  0  0
 26 57  1  0  0  0
 27 28  1  0  0  0
 27 58  1  0  0  0
 27 59  1  0  0  0
 28 29  1  0  0  0
 29 60  1  0  0  0
 29 61  1  0  0  0
M  CHG  1  16   1
M  END
> <s_m_source_file>
../3vjk_ligand.sdf

> <i_m_source_file_index>
1

> <s_epik_input>
W2NIXTFbY0hdW2NIXVtjSF1bY0hdYzEtbihuMiljKFtjSF1jMltDSDNdKU4zW0NIMl1bQ0gyXVtOSCtdKFtDSDJdW0NIMl0zKVtDQEBIXTRbQ0gyXVtOSDIrXVtDQEBIXShbQ0gyXTQpQyg9TylONVtDSDJdW0NIMl1TW0NIMl01

> <s_epik_cmdline>
J2VwaWtfYXBwJywgJy1pbWFlJywgJ2xpZ2FuZF9wcm8ubWFlJywgJy1vbWFlJywgJ2xpZ2FuZF9wcmVwLm1hZScsICctbXMnLCAnMScsICctcGgnLCAnNycsICctcGh0JywgJzAuNScsICctbnQn

> <r_lp_tautomer_probability>
1

> <r_epik_Ionization_Penalty>
  0.0129

> <r_epik_Ionization_Penalty_Charging>
  0.0124

> <r_epik_Ionization_Penalty_Neutral>
  0.0005

> <r_epik_State_Penalty>
 -0.0000

> <r_epik_Charging_Adjusted_Penalty>
0.0123866293529571

> <i_epik_Tot_Q>
1

> <i_epik_Tot_abs_Q>
1

> <s_epik_Chemistry_Notes>
This compound contains an acetal/aminal-like group ( X-CH(R)-Y where X, Y are N, S, or O) that may be acid/base labile, releasing an aldehyde.

$$$$
