3vjl_ligand
                    3D
 Schrodinger Suite 2020-3.
 62 66  0  0  1  0            999 V2000
   48.1160   62.4730   34.7320 C   0  0  0  0  0  0
   48.2800   61.1910   35.2670 C   0  0  0  0  0  0
   46.9900   60.6670   35.2180 C   0  0  0  0  0  0
   46.0430   61.4730   34.7230 N   0  0  0  0  0  0
   46.8100   62.5920   34.4190 N   0  0  0  0  0  0
   46.1870   63.6490   33.9070 C   0  0  0  0  0  0
   44.9720   64.0700   34.4750 C   0  0  0  0  0  0
   44.2490   65.1660   34.0060 C   0  0  0  0  0  0
   44.7460   65.8740   32.9180 C   0  0  0  0  0  0
   45.9500   65.4790   32.3290 C   0  0  0  0  0  0
   46.6530   64.3790   32.8130 C   0  0  0  0  0  0
   46.6050   59.2910   35.6730 C   0  0  0  0  0  0
   45.3750   59.3620   36.1890 F   0  0  0  0  0  0
   47.4760   58.8570   36.5820 F   0  0  0  0  0  0
   46.6050   58.4970   34.6050 F   0  0  0  0  0  0
   49.3330   63.3470   34.6410 C   0  0  1  0  0  0
   50.2120   63.1730   35.8770 C   0  0  0  0  0  0
   51.4290   64.1020   35.8460 C   0  0  0  0  0  0
   52.1600   63.8600   34.6010 N   0  3  1  0  0  0
   51.4010   64.0330   33.3440 C   0  0  0  0  0  0
   50.1760   63.1060   33.3840 C   0  0  0  0  0  0
   53.4300   64.6120   34.6170 C   0  0  1  0  0  0
   54.3410   64.2110   35.7880 C   0  0  0  0  0  0
   55.7290   64.6790   35.3460 C   0  0  2  0  0  0
   55.6550   64.5940   33.8980 N   0  0  1  0  0  0
   54.3160   64.3130   33.4090 C   0  0  0  0  0  0
   56.8600   63.8620   35.9380 C   0  0  0  0  0  0
   57.4120   64.2940   37.0690 N   0  0  0  0  0  0
   56.9320   65.5080   37.7270 C   0  0  0  0  0  0
   57.5080   65.6500   39.1110 C   0  0  0  0  0  0
   58.5700   64.2740   39.4110 S   0  0  0  0  0  0
   58.5180   63.5970   37.7430 C   0  0  0  0  0  0
   57.2630   62.8570   35.3700 O   0  0  0  0  0  0
   49.1919   60.7186   35.6321 H   0  0  0  0  0  0
   44.5757   63.5123   35.3236 H   0  0  0  0  0  0
   43.3141   65.4613   34.4823 H   0  0  0  0  0  0
   44.1998   66.7322   32.5266 H   0  0  0  0  0  0
   46.3435   66.0387   31.4805 H   0  0  0  0  0  0
   47.5836   64.0829   32.3289 H   0  0  0  0  0  0
   48.9323   64.3699   34.5855 H   0  0  0  0  0  0
   49.6258   63.4025   36.7791 H   0  0  0  0  0  0
   50.5718   62.1348   35.9279 H   0  0  0  0  0  0
   51.0926   65.1484   35.8888 H   0  0  0  0  0  0
   52.0751   63.8889   36.7104 H   0  0  0  0  0  0
   52.3638   62.7790   34.5973 H   0  0  0  0  0  0
   51.0770   65.0802   33.2525 H   0  0  0  0  0  0
   52.0424   63.7716   32.4894 H   0  0  0  0  0  0
   50.5267   62.0635   33.3721 H   0  0  0  0  0  0
   49.5643   63.2973   32.4900 H   0  0  0  0  0  0
   53.0549   65.6454   34.6547 H   0  0  0  0  0  0
   54.0035   64.7164   36.7049 H   0  0  0  0  0  0
   54.2951   63.1214   35.9318 H   0  0  0  0  0  0
   55.9769   65.7049   35.6560 H   0  0  0  0  0  0
   55.9757   65.5497   33.4578 H   0  0  0  0  0  0
   54.1891   63.2613   33.1126 H   0  0  0  0  0  0
   54.0284   64.9669   32.5725 H   0  0  0  0  0  0
   57.2272   66.3870   37.1352 H   0  0  0  0  0  0
   55.8356   65.4720   37.8082 H   0  0  0  0  0  0
   58.0781   66.5884   39.1763 H   0  0  0  0  0  0
   56.6917   65.6649   39.8482 H   0  0  0  0  0  0
   58.3169   62.5156   37.7549 H   0  0  0  0  0  0
   59.4564   63.7895   37.2023 H   0  0  0  0  0  0
  1  2  2  0  0  0
  1  5  1  0  0  0
  1 16  1  0  0  0
  2  3  1  0  0  0
  2 34  1  0  0  0
  3  4  2  0  0  0
  3 12  1  0  0  0
  4  5  1  0  0  0
  5  6  1  0  0  0
  6  7  2  0  0  0
  6 11  1  0  0  0
  7  8  1  0  0  0
  7 35  1  0  0  0
  8  9  2  0  0  0
  8 36  1  0  0  0
  9 10  1  0  0  0
  9 37  1  0  0  0
 10 11  2  0  0  0
 10 38  1  0  0  0
 11 39  1  0  0  0
 12 13  1  0  0  0
 12 14  1  0  0  0
 12 15  1  0  0  0
 16 17  1  0  0  0
 16 21  1  0  0  0
 16 40  1  0  0  0
 17 18  1  0  0  0
 17 41  1  0  0  0
 17 42  1  0  0  0
 18 19  1  0  0  0
 18 43  1  0  0  0
 18 44  1  0  0  0
 19 20  1  0  0  0
 19 22  1  0  0  0
 19 45  1  0  0  0
 20 21  1  0  0  0
 20 46  1  0  0  0
 20 47  1  0  0  0
 21 48  1  0  0  0
 21 49  1  0  0  0
 22 23  1  0  0  0
 22 26  1  0  0  0
 22 50  1  0  0  0
 23 24  1  0  0  0
 23 51  1  0  0  0
 23 52  1  0  0  0
 24 25  1  0  0  0
 24 27  1  0  0  0
 24 53  1  0  0  0
 25 26  1  0  0  0
 25 54  1  0  0  0
 26 55  1  0  0  0
 26 56  1  0  0  0
 27 28  1  0  0  0
 27 33  2  0  0  0
 28 29  1  0  0  0
 28 32  1  0  0  0
 29 30  1  0  0  0
 29 57  1  0  0  0
 29 58  1  0  0  0
 30 31  1  0  0  0
 30 59  1  0  0  0
 30 60  1  0  0  0
 31 32  1  0  0  0
 32 61  1  0  0  0
 32 62  1  0  0  0
M  CHG  1  19   1
M  END
> <s_m_source_file>
../3vjl_ligand.sdf

> <i_m_source_file_index>
1

> <s_epik_input>
W2NIXTFbY0hdW2NIXVtjSF1bY0hdYzEtbjJuYyhDKEYpKEYpRilbY0hdYzJbQ0BIXTNbQ0gyXVtDSDJdW05AQEgrXShbQ0gyXVtDSDJdMylbQ0BIXTRbQ0gyXVtDQEhdKFtOSDIrXVtDSDJdNClDKD1PKU41W0NIMl1bQ0gyXVNbQ0gyXTU=

> <s_epik_cmdline>
J2VwaWtfYXBwJywgJy1pbWFlJywgJ2xpZ2FuZF9wcm8ubWFlJywgJy1vbWFlJywgJ2xpZ2FuZF9wcmVwLm1hZScsICctbXMnLCAnMScsICctcGgnLCAnNycsICctcGh0JywgJzAuNScsICctbnQn

> <r_lp_tautomer_probability>
1

> <r_epik_Ionization_Penalty>
  0.0222

> <r_epik_Ionization_Penalty_Charging>
  0.0218

> <r_epik_Ionization_Penalty_Neutral>
  0.0004

> <r_epik_State_Penalty>
  0.2154

> <r_epik_Charging_Adjusted_Penalty>
0.237227615237908

> <i_epik_Tot_Q>
1

> <i_epik_Tot_abs_Q>
1

> <s_epik_Chemistry_Notes>
This compound contains an acetal/aminal-like group ( X-CH(R)-Y where X, Y are N, S, or O) that may be acid/base labile, releasing an aldehyde.

$$$$
