3vjm_ligand
                    3D
 Schrodinger Suite 2020-3.
 59 63  0  0  1  0            999 V2000
   48.1550   63.4190   34.3670 C   0  0  0  0  0  0
   47.6300   62.4290   35.2160 C   0  0  0  0  0  0
   46.2870   62.0360   35.1020 C   0  0  0  0  0  0
   45.4900   62.5800   34.1590 N   0  0  0  0  0  0
   45.9480   63.5210   33.3160 C   0  0  0  0  0  0
   47.2810   63.9660   33.3990 C   0  0  0  0  0  0
   47.6970   64.9530   32.5090 C   0  0  0  0  0  0
   46.8150   65.4780   31.5690 C   0  0  0  0  0  0
   45.4940   65.0320   31.5000 C   0  0  0  0  0  0
   45.0620   64.0450   32.3800 C   0  0  0  0  0  0
   45.6270   60.9790   35.9450 C   0  0  0  0  0  0
   49.5550   63.7470   34.4180 N   0  0  0  0  0  0
   50.2410   63.5100   35.6970 C   0  0  0  0  0  0
   51.5480   64.2990   35.7340 C   0  0  0  0  0  0
   52.3370   63.9850   34.5500 N   0  3  0  0  0  0
   51.6530   64.2030   33.2660 C   0  0  0  0  0  0
   53.5990   64.7750   34.5970 C   0  0  2  0  0  0
   54.4960   64.4920   33.3810 C   0  0  0  0  0  0
   55.8560   64.6600   33.8750 N   0  0  1  0  0  0
   55.9120   64.7510   35.3300 C   0  0  1  0  0  0
   54.4970   64.3910   35.7830 C   0  0  0  0  0  0
   50.3380   63.4170   33.2310 C   0  0  0  0  0  0
   56.9850   63.8790   35.9550 C   0  0  0  0  0  0
   57.5020   64.2960   37.1190 N   0  0  0  0  0  0
   58.5790   63.6160   37.8510 C   0  0  0  0  0  0
   58.5120   64.3150   39.4790 S   0  0  0  0  0  0
   57.7370   65.8090   39.0770 C   0  0  0  0  0  0
   56.9930   65.5100   37.7710 C   0  0  0  0  0  0
   45.3120   59.9950   35.1300 F   0  0  0  0  0  0
   46.3840   60.4940   36.9110 F   0  0  0  0  0  0
   44.5030   61.4660   36.4310 F   0  0  0  0  0  0
   57.3640   62.8680   35.3650 O   0  0  0  0  0  0
   48.2690   61.9641   35.9667 H   0  0  0  0  0  0
   48.7233   65.3179   32.5489 H   0  0  0  0  0  0
   47.1601   66.2471   30.8780 H   0  0  0  0  0  0
   44.8083   65.4526   30.7644 H   0  0  0  0  0  0
   44.0345   63.6840   32.3364 H   0  0  0  0  0  0
   49.5949   63.8357   36.5255 H   0  0  0  0  0  0
   50.4596   62.4371   35.8025 H   0  0  0  0  0  0
   51.3256   65.3761   35.7520 H   0  0  0  0  0  0
   52.1153   64.0266   36.6362 H   0  0  0  0  0  0
   52.5102   62.8996   34.5935 H   0  0  0  0  0  0
   51.4369   65.2745   33.1430 H   0  0  0  0  0  0
   52.2995   63.8626   32.4437 H   0  0  0  0  0  0
   53.2216   65.8068   34.6515 H   0  0  0  0  0  0
   54.3158   63.4676   33.0230 H   0  0  0  0  0  0
   54.2624   65.2072   32.5786 H   0  0  0  0  0  0
   56.4676   63.8000   33.5647 H   0  0  0  0  0  0
   56.2177   65.7672   35.6196 H   0  0  0  0  0  0
   54.1945   64.9634   36.6723 H   0  0  0  0  0  0
   54.3946   63.3150   35.9872 H   0  0  0  0  0  0
   50.5511   62.3379   33.2207 H   0  0  0  0  0  0
   49.7686   63.6869   32.3294 H   0  0  0  0  0  0
   58.3890   62.5326   37.8599 H   0  0  0  0  0  0
   59.5412   63.8154   37.3565 H   0  0  0  0  0  0
   57.0494   66.0948   39.8866 H   0  0  0  0  0  0
   58.4973   66.5933   38.9477 H   0  0  0  0  0  0
   57.1205   66.3694   37.0964 H   0  0  0  0  0  0
   55.9255   65.3814   38.0033 H   0  0  0  0  0  0
  1  2  2  0  0  0
  1  6  1  0  0  0
  1 12  1  0  0  0
  2  3  1  0  0  0
  2 33  1  0  0  0
  3  4  2  0  0  0
  3 11  1  0  0  0
  4  5  1  0  0  0
  5  6  2  0  0  0
  5 10  1  0  0  0
  6  7  1  0  0  0
  7  8  2  0  0  0
  7 34  1  0  0  0
  8  9  1  0  0  0
  8 35  1  0  0  0
  9 10  2  0  0  0
  9 36  1  0  0  0
 10 37  1  0  0  0
 11 29  1  0  0  0
 11 30  1  0  0  0
 11 31  1  0  0  0
 12 13  1  0  0  0
 12 22  1  0  0  0
 13 14  1  0  0  0
 13 38  1  0  0  0
 13 39  1  0  0  0
 14 15  1  0  0  0
 14 40  1  0  0  0
 14 41  1  0  0  0
 15 16  1  0  0  0
 15 17  1  0  0  0
 15 42  1  0  0  0
 16 22  1  0  0  0
 16 43  1  0  0  0
 16 44  1  0  0  0
 17 18  1  0  0  0
 17 21  1  0  0  0
 17 45  1  0  0  0
 18 19  1  0  0  0
 18 46  1  0  0  0
 18 47  1  0  0  0
 19 20  1  0  0  0
 19 48  1  0  0  0
 20 21  1  0  0  0
 20 23  1  0  0  0
 20 49  1  0  0  0
 21 50  1  0  0  0
 21 51  1  0  0  0
 22 52  1  0  0  0
 22 53  1  0  0  0
 23 24  1  0  0  0
 23 32  2  0  0  0
 24 25  1  0  0  0
 24 28  1  0  0  0
 25 26  1  0  0  0
 25 54  1  0  0  0
 25 55  1  0  0  0
 26 27  1  0  0  0
 27 28  1  0  0  0
 27 56  1  0  0  0
 27 57  1  0  0  0
 28 58  1  0  0  0
 28 59  1  0  0  0
M  CHG  1  15   1
M  END
> <s_m_source_file>
../3vjm_ligand.sdf

> <i_m_source_file_index>
1

> <s_epik_input>
W2NIXTFbY0hdW2NIXVtjSF1jKGMxMiljKFtjSF1jKG4yKUMoRikoRilGKU4zW0NIMl1bQ0gyXVtOSCtdKFtDSDJdW0NIMl0zKVtDQEBIXTRbQ0gyXVtOSDIrXVtDQEBIXShbQ0gyXTQpQyg9TylONVtDSDJdU1tDSDJdW0NIMl01

> <s_epik_cmdline>
J2VwaWtfYXBwJywgJy1pbWFlJywgJ2xpZ2FuZF9wcm8ubWFlJywgJy1vbWFlJywgJ2xpZ2FuZF9wcmVwLm1hZScsICctbXMnLCAnMScsICctcGgnLCAnNycsICctcGh0JywgJzAuNScsICctbnQn

> <r_lp_tautomer_probability>
1

> <r_epik_Ionization_Penalty>
  0.0086

> <r_epik_Ionization_Penalty_Charging>
  0.0081

> <r_epik_Ionization_Penalty_Neutral>
  0.0005

> <r_epik_State_Penalty>
 -0.0000

> <r_epik_Charging_Adjusted_Penalty>
0.00805186360993346

> <i_epik_Tot_Q>
1

> <i_epik_Tot_abs_Q>
1

> <s_epik_Chemistry_Notes>
This compound contains an acetal/aminal-like group ( X-CH(R)-Y where X, Y are N, S, or O) that may be acid/base labile, releasing an aldehyde.

$$$$
