3vjs_ligand
                    3D
 Schrodinger Suite 2020-3.
 63 81  0  0  1  0            999 V2000
   13.1790    5.5700   25.6200 B   0  0  0  0  0  0
   13.4800    2.7370   25.9090 C   0  0  0  0  0  0
    9.8570   -2.1580   28.5640 O   0  0  0  0  0  0
   13.4980    4.8400   24.0760 B   0  0  0  0  0  0
   12.8540    1.3600   26.2400 C   0  0  0  0  0  0
   15.3460    7.3480   22.1140 O   0  0  0  0  0  0
   15.1040    4.1660   24.0250 B   0  0  0  0  0  0
   11.4960    1.5020   26.9320 C   0  0  0  0  0  0
   16.7180    8.2440   19.7390 O   0  0  0  0  0  0
   15.8080    4.4180   25.6240 B   0  0  0  0  0  0
   11.0470    0.1100   27.3970 C   0  0  0  0  0  0
   14.5200    4.2630   18.5510 O   0  0  0  0  0  0
   14.6130    5.2920   26.6150 B   0  0  0  0  0  0
    9.5910    0.1540   27.8720 C   0  0  0  0  0  0
   12.4680    4.0080   25.1760 B   0  0  0  0  0  0
    8.6460   -1.8090   26.5570 C   0  0  0  0  0  0
   13.6680    3.1310   24.1890 B   0  0  0  0  0  0
    7.7100   -1.1240   28.8740 C   0  0  0  0  0  0
   15.1170    2.8380   25.1830 B   0  0  0  0  0  0
    7.0990   -2.4940   29.2070 C   0  0  0  0  0  0
   14.8110    3.5440   26.8000 B   0  0  0  0  0  0
    8.9600   -1.2470   27.9620 C   0  0  0  0  0  0
   13.1720    4.2690   26.7970 B   0  0  0  0  0  0
    7.6400   -0.9520   25.7810 C   0  0  0  0  0  0
   14.7770    5.6090   24.9290 C   0  0  0  0  0  0
   15.2610    6.9970   24.4470 C   0  0  0  0  0  0
   14.4770    7.4290   23.2170 C   0  0  0  0  0  0
   14.7090    7.9980   21.0500 C   0  0  0  0  0  0
   15.4310    7.6740   19.7520 C   0  0  0  0  0  0
   15.5670    6.1670   19.5520 C   0  0  0  0  0  0
   14.3460    5.6330   18.8330 C   0  0  0  0  0  0
   10.8150   -2.3904   28.0759 H   0  0  0  0  0  0
   12.7090    0.7902   25.3103 H   0  0  0  0  0  0
   13.5256    0.8034   26.9102 H   0  0  0  0  0  0
   11.5934    2.1760   27.7958 H   0  0  0  0  0  0
   10.7649    1.9179   26.2231 H   0  0  0  0  0  0
   16.8401    9.3295   19.8685 H   0  0  0  0  0  0
   11.1315   -0.6006   26.5616 H   0  0  0  0  0  0
   11.6865   -0.2231   28.2277 H   0  0  0  0  0  0
   13.7294    3.7042   18.0288 H   0  0  0  0  0  0
    9.5450    0.6118   28.8711 H   0  0  0  0  0  0
    8.9933    0.7508   27.1673 H   0  0  0  0  0  0
    9.5721   -1.8554   25.9653 H   0  0  0  0  0  0
    8.2210   -2.8191   26.6527 H   0  0  0  0  0  0
    6.9643   -0.5073   28.3510 H   0  0  0  0  0  0
    8.0135   -0.6219   29.8045 H   0  0  0  0  0  0
    6.2193   -2.3559   29.8529 H   0  0  0  0  0  0
    7.8447   -3.1107   29.7300 H   0  0  0  0  0  0
    6.7955   -2.9961   28.2765 H   0  0  0  0  0  0
    7.4591   -1.4025   24.7939 H   0  0  0  0  0  0
    8.0450    0.0626   25.6524 H   0  0  0  0  0  0
    6.6939   -0.9010   26.3398 H   0  0  0  0  0  0
   15.1106    7.7361   25.2477 H   0  0  0  0  0  0
   16.3299    6.9446   24.1925 H   0  0  0  0  0  0
   14.1234    8.4645   23.3299 H   0  0  0  0  0  0
   13.6164    6.7632   23.0555 H   0  0  0  0  0  0
   13.6654    7.6567   20.9838 H   0  0  0  0  0  0
   14.7293    9.0847   21.2192 H   0  0  0  0  0  0
   14.8917    8.1456   18.9173 H   0  0  0  0  0  0
   16.4641    5.9563   18.9512 H   0  0  0  0  0  0
   15.6573    5.6738   20.5311 H   0  0  0  0  0  0
   14.2066    6.1861   17.8925 H   0  0  0  0  0  0
   13.4603    5.7663   19.4715 H   0  0  0  0  0  0
  1 13  1  0  0  0
  1 23  1  0  0  0
  1 25  1  0  0  0
  1 15  1  0  0  0
  1  4  1  0  0  0
  2  5  1  0  0  0
  2 17  1  0  0  0
  2 21  1  0  0  0
  2 15  1  0  0  0
  2 23  1  0  0  0
  2 19  1  0  0  0
  3 22  1  0  0  0
  3 32  1  0  0  0
  4 15  1  0  0  0
  4 17  1  0  0  0
  4 25  1  0  0  0
  4  7  1  0  0  0
  5  8  1  0  0  0
  5 33  1  0  0  0
  5 34  1  0  0  0
  6 27  1  0  0  0
  6 28  1  0  0  0
  7 17  1  0  0  0
  7 19  1  0  0  0
  7 25  1  0  0  0
  7 10  1  0  0  0
  8 11  1  0  0  0
  8 35  1  0  0  0
  8 36  1  0  0  0
  9 29  1  0  0  0
  9 37  1  0  0  0
 10 19  1  0  0  0
 10 21  1  0  0  0
 10 25  1  0  0  0
 10 13  1  0  0  0
 11 14  1  0  0  0
 11 38  1  0  0  0
 11 39  1  0  0  0
 12 31  1  0  0  0
 12 40  1  0  0  0
 13 23  1  0  0  0
 13 25  1  0  0  0
 13 21  1  0  0  0
 14 22  1  0  0  0
 14 41  1  0  0  0
 14 42  1  0  0  0
 15 23  1  0  0  0
 15 17  1  0  0  0
 16 22  1  0  0  0
 16 24  1  0  0  0
 16 43  1  0  0  0
 16 44  1  0  0  0
 17 19  1  0  0  0
 18 20  1  0  0  0
 18 22  1  0  0  0
 18 45  1  0  0  0
 18 46  1  0  0  0
 19 21  1  0  0  0
 20 47  1  0  0  0
 20 48  1  0  0  0
 20 49  1  0  0  0
 21 23  1  0  0  0
 24 50  1  0  0  0
 24 51  1  0  0  0
 24 52  1  0  0  0
 25 26  1  0  0  0
 26 27  1  0  0  0
 26 53  1  0  0  0
 26 54  1  0  0  0
 27 55  1  0  0  0
 27 56  1  0  0  0
 28 29  1  0  0  0
 28 57  1  0  0  0
 28 58  1  0  0  0
 29 30  1  0  0  0
 29 59  1  0  0  0
 30 31  1  0  0  0
 30 60  1  0  0  0
 30 61  1  0  0  0
 31 62  1  0  0  0
 31 63  1  0  0  0
M  END
> <s_m_source_file>
../3vjs_ligand.sdf

> <i_m_source_file_index>
1

> <s_epik_input>
W0NIM11bQ0gyXUMoW09IXSkoW0NIMl1bQ0gzXSlbQ0gyXVtDSDJdW0NIMl1bQ0gyXVtDXTEyMzRbQl01NjdbQl04OSUxMFtCXTUlMTElMTJbQl01JTEzJTE0W0JdJTE1JTE2JTE3W0JdOCUxOChbQl0zJTE2KFtCXTQ3OSUxOClbQl0yJTEzJTE1W0JdMTU2JTExKVtDXSUxMCUxMiUxNCUxN1tDSDJdW0NIMl1PW0NIMl1bQ0hdKFtPSF0pW0NIMl1bQ0gyXVtPSF0=

> <s_epik_cmdline>
J2VwaWtfYXBwJywgJy1pbWFlJywgJ2xpZ2FuZF9wcm8ubWFlJywgJy1vbWFlJywgJ2xpZ2FuZF9wcmVwLm1hZScsICctbXMnLCAnMScsICctcGgnLCAnNycsICctcGh0JywgJzAuNScsICctbnQn

> <r_lp_tautomer_probability>
1

> <r_epik_Ionization_Penalty>
  0.0000

> <r_epik_Ionization_Penalty_Charging>
  0.0000

> <r_epik_Ionization_Penalty_Neutral>
  0.0000

> <r_epik_State_Penalty>
 -0.0000

> <r_epik_Charging_Adjusted_Penalty>
0

> <i_epik_Tot_Q>
0

> <i_epik_Tot_abs_Q>
0

$$$$
