3vjt_ligand
                    3D
 Schrodinger Suite 2020-3.
 63 81  0  0  1  0            999 V2000
   13.1110    5.6940   26.0500 B   0  0  0  0  0  0
   13.3660    2.8430   26.1370 C   0  0  0  0  0  0
    9.5950   -2.0360   28.6960 O   0  0  0  0  0  0
   13.2690    5.0560   24.4420 B   0  0  0  0  0  0
   12.7360    1.4570   26.4460 C   0  0  0  0  0  0
   15.1450    7.2260   22.4450 O   0  0  0  0  0  0
   14.8470    4.3570   24.2020 B   0  0  0  0  0  0
   11.3050    1.5860   26.9860 C   0  0  0  0  0  0
   16.1200    8.5580   19.4380 O   0  0  0  0  0  0
   15.6990    4.4960   25.7410 B   0  0  0  0  0  0
   10.8500    0.2190   27.5300 C   0  0  0  0  0  0
   14.4130    4.5810   18.3270 O   0  0  0  0  0  0
   14.6200    5.3280   26.8900 B   0  0  0  0  0  0
    9.3990    0.2940   28.0310 C   0  0  0  0  0  0
   12.3240    4.1760   25.5780 B   0  0  0  0  0  0
    8.3690   -1.6300   26.6930 C   0  0  0  0  0  0
   13.4070    3.3410   24.4340 B   0  0  0  0  0  0
    7.4770   -0.9460   29.0140 C   0  0  0  0  0  0
   14.9330    2.9590   25.2710 B   0  0  0  0  0  0
    6.8660   -2.3080   29.3810 C   0  0  0  0  0  0
   14.7910    3.5680   26.9490 B   0  0  0  0  0  0
    8.7180   -1.0890   28.1020 C   0  0  0  0  0  0
   13.1780    4.3220   27.1400 B   0  0  0  0  0  0
    7.4560   -0.6910   25.8880 C   0  0  0  0  0  0
   14.6390    5.7460   25.2190 C   0  0  0  0  0  0
   15.0990    7.1440   24.7830 C   0  0  0  0  0  0
   14.3400    7.5730   23.5360 C   0  0  0  0  0  0
   14.7900    8.0510   21.3770 C   0  0  0  0  0  0
   15.5100    7.5140   20.1670 C   0  0  0  0  0  0
   14.5420    6.7850   19.2660 C   0  0  0  0  0  0
   14.6640    5.2940   19.5170 C   0  0  0  0  0  0
   10.5466   -2.2879   28.2050 H   0  0  0  0  0  0
   12.7038    0.8555   25.5256 H   0  0  0  0  0  0
   13.3438    0.9382   27.2019 H   0  0  0  0  0  0
   11.2838    2.3326   27.7936 H   0  0  0  0  0  0
   10.6342    1.9045   26.1745 H   0  0  0  0  0  0
   16.8617    9.2084   19.9248 H   0  0  0  0  0  0
   10.9130   -0.5334   26.7300 H   0  0  0  0  0  0
   11.5011   -0.0785   28.3652 H   0  0  0  0  0  0
   14.4586    3.4819   18.3243 H   0  0  0  0  0  0
    9.3819    0.7289   29.0412 H   0  0  0  0  0  0
    8.8082    0.9246   27.3503 H   0  0  0  0  0  0
    9.2939   -1.7683   26.1139 H   0  0  0  0  0  0
    7.8489   -2.5945   26.7890 H   0  0  0  0  0  0
    6.7293   -0.3404   28.4809 H   0  0  0  0  0  0
    7.7856   -0.4234   29.9314 H   0  0  0  0  0  0
    5.9897   -2.1544   30.0280 H   0  0  0  0  0  0
    7.6137   -2.9136   29.9141 H   0  0  0  0  0  0
    6.5573   -2.8306   28.4636 H   0  0  0  0  0  0
    7.2499   -1.1354   24.9031 H   0  0  0  0  0  0
    7.9549    0.2803   25.7549 H   0  0  0  0  0  0
    6.5099   -0.5460   26.4300 H   0  0  0  0  0  0
   14.9037    7.8632   25.5921 H   0  0  0  0  0  0
   16.1766    7.1234   24.5629 H   0  0  0  0  0  0
   14.1678    8.6594   23.5337 H   0  0  0  0  0  0
   13.3758    7.0488   23.4617 H   0  0  0  0  0  0
   13.6999    8.0170   21.2340 H   0  0  0  0  0  0
   15.0994    9.0842   21.5932 H   0  0  0  0  0  0
   16.3353    6.8617   20.4885 H   0  0  0  0  0  0
   13.5163    7.1161   19.4856 H   0  0  0  0  0  0
   14.7816    7.0058   18.2154 H   0  0  0  0  0  0
   13.9340    4.9958   20.2840 H   0  0  0  0  0  0
   15.6808    5.0693   19.8716 H   0  0  0  0  0  0
  1 13  1  0  0  0
  1 23  1  0  0  0
  1 25  1  0  0  0
  1  4  1  0  0  0
  1 15  1  0  0  0
  2  5  1  0  0  0
  2 17  1  0  0  0
  2 21  1  0  0  0
  2 19  1  0  0  0
  2 15  1  0  0  0
  2 23  1  0  0  0
  3 22  1  0  0  0
  3 32  1  0  0  0
  4 15  1  0  0  0
  4 17  1  0  0  0
  4 25  1  0  0  0
  4  7  1  0  0  0
  5  8  1  0  0  0
  5 33  1  0  0  0
  5 34  1  0  0  0
  6 27  1  0  0  0
  6 28  1  0  0  0
  7 17  1  0  0  0
  7 19  1  0  0  0
  7 10  1  0  0  0
  7 25  1  0  0  0
  8 11  1  0  0  0
  8 35  1  0  0  0
  8 36  1  0  0  0
  9 29  1  0  0  0
  9 37  1  0  0  0
 10 19  1  0  0  0
 10 21  1  0  0  0
 10 25  1  0  0  0
 10 13  1  0  0  0
 11 14  1  0  0  0
 11 38  1  0  0  0
 11 39  1  0  0  0
 12 31  1  0  0  0
 12 40  1  0  0  0
 13 23  1  0  0  0
 13 21  1  0  0  0
 13 25  1  0  0  0
 14 22  1  0  0  0
 14 41  1  0  0  0
 14 42  1  0  0  0
 15 23  1  0  0  0
 15 17  1  0  0  0
 16 22  1  0  0  0
 16 24  1  0  0  0
 16 43  1  0  0  0
 16 44  1  0  0  0
 17 19  1  0  0  0
 18 20  1  0  0  0
 18 22  1  0  0  0
 18 45  1  0  0  0
 18 46  1  0  0  0
 19 21  1  0  0  0
 20 47  1  0  0  0
 20 48  1  0  0  0
 20 49  1  0  0  0
 21 23  1  0  0  0
 24 50  1  0  0  0
 24 51  1  0  0  0
 24 52  1  0  0  0
 25 26  1  0  0  0
 26 27  1  0  0  0
 26 53  1  0  0  0
 26 54  1  0  0  0
 27 55  1  0  0  0
 27 56  1  0  0  0
 28 29  1  0  0  0
 28 57  1  0  0  0
 28 58  1  0  0  0
 29 30  1  0  0  0
 29 59  1  0  0  0
 30 31  1  0  0  0
 30 60  1  0  0  0
 30 61  1  0  0  0
 31 62  1  0  0  0
 31 63  1  0  0  0
M  END
> <s_m_source_file>
../3vjt_ligand.sdf

> <i_m_source_file_index>
1

> <s_epik_input>
W0NIM11bQ0gyXUMoW09IXSkoW0NIMl1bQ0gzXSlbQ0gyXVtDSDJdW0NIMl1bQ0gyXVtDXTEyMzRbQl01NjdbQl04OSUxMFtCXTUlMTElMTJbQl01JTEzJTE0W0JdJTE1JTE2JTE3W0JdOCUxOChbQl0zJTE2KFtCXTQ3OSUxOClbQl0yJTEzJTE1W0JdMTU2JTExKVtDXSUxMCUxMiUxNCUxN1tDSDJdW0NIMl1PW0NIMl1bQ0hdKFtPSF0pW0NIMl1bQ0gyXVtPSF0=

> <s_epik_cmdline>
J2VwaWtfYXBwJywgJy1pbWFlJywgJ2xpZ2FuZF9wcm8ubWFlJywgJy1vbWFlJywgJ2xpZ2FuZF9wcmVwLm1hZScsICctbXMnLCAnMScsICctcGgnLCAnNycsICctcGh0JywgJzAuNScsICctbnQn

> <r_lp_tautomer_probability>
1

> <r_epik_Ionization_Penalty>
  0.0000

> <r_epik_Ionization_Penalty_Charging>
  0.0000

> <r_epik_Ionization_Penalty_Neutral>
  0.0000

> <r_epik_State_Penalty>
 -0.0000

> <r_epik_Charging_Adjusted_Penalty>
0

> <i_epik_Tot_Q>
0

> <i_epik_Tot_abs_Q>
0

$$$$
