3voz_ligand
                    3D
 Schrodinger Suite 2020-3.
 29 30  0  0  1  0            999 V2000
    1.5630  -10.0220   -0.4510 O   0  0  0  0  0  0
   -2.9230   -7.2310   -0.5400 C   0  0  0  0  0  0
   -2.8340   -8.6300   -0.1950 C   0  0  0  0  0  0
   -1.9750   -6.6350   -1.4720 C   0  0  0  0  0  0
   -1.8170   -9.4630   -0.7570 C   0  0  0  0  0  0
   -0.9070   -7.5160   -2.0620 C   0  0  0  0  0  0
    7.6520   -8.9740    0.5870 C   0  0  0  0  0  0
    7.3990  -10.4570    0.2070 C   0  0  0  0  0  0
    0.2190   -9.8940   -2.2540 C   0  0  0  0  0  0
    5.1090  -10.3020    0.5010 N   0  0  0  0  0  0
    3.9260  -10.2050    0.0090 N   0  0  0  0  0  0
    2.8150  -10.0730   -2.3510 N   0  0  0  0  0  0
    7.8500   -7.8500    0.0000 S   0  0  0  0  0  0
    5.4590  -10.2710   -1.9700 S   0  0  0  0  0  0
    1.6020  -10.0010   -1.6710 C   0  0  0  0  0  0
   -0.8330   -8.9020   -1.7090 C   0  0  0  0  0  0
    6.0760  -10.3500   -0.4670 C   0  0  0  0  0  0
    3.8450  -10.1680   -1.3920 C   0  0  0  0  0  0
   -3.7067   -6.6149   -0.0991 H   0  0  0  0  0  0
   -3.5527   -9.0575    0.5042 H   0  0  0  0  0  0
   -2.0376   -5.5791   -1.7350 H   0  0  0  0  0  0
   -1.7663  -10.5167   -0.4828 H   0  0  0  0  0  0
   -0.1850   -7.0965   -2.7626 H   0  0  0  0  0  0
    7.6353   -9.0253    1.6857 H   0  0  0  0  0  0
    8.2040  -10.8082   -0.4553 H   0  0  0  0  0  0
    7.3805  -11.0713    1.1193 H   0  0  0  0  0  0
    0.2892   -9.6136   -3.3153 H   0  0  0  0  0  0
   -0.2929  -10.8635   -2.1640 H   0  0  0  0  0  0
    2.8313  -10.0499   -3.4506 H   0  0  0  0  0  0
  1 15  2  0  0  0
  2  3  2  0  0  0
  2  4  1  0  0  0
  2 19  1  0  0  0
  3  5  1  0  0  0
  3 20  1  0  0  0
  4  6  2  0  0  0
  4 21  1  0  0  0
  5 16  2  0  0  0
  5 22  1  0  0  0
  6 16  1  0  0  0
  6 23  1  0  0  0
  7  8  1  0  0  0
  7 13  2  0  0  0
  7 24  1  0  0  0
  8 17  1  0  0  0
  8 25  1  0  0  0
  8 26  1  0  0  0
  9 15  1  0  0  0
  9 16  1  0  0  0
  9 27  1  0  0  0
  9 28  1  0  0  0
 10 11  1  0  0  0
 10 17  2  0  0  0
 11 18  2  0  0  0
 12 15  1  0  0  0
 12 18  1  0  0  0
 12 29  1  0  0  0
 14 17  1  0  0  0
 14 18  1  0  0  0
M  END
> <s_m_source_file>
../3voz_ligand.sdf

> <i_m_source_file_index>
1

> <s_epik_input>
W2NIXTFbY0hdW2NIXVtjSF1bY0hdYzFbQ0gyXUMoPU8pW05IXWMoczIpbm5jMltDSDJdW0NIXT1T

> <s_epik_cmdline>
J2VwaWtfYXBwJywgJy1pbWFlJywgJ2xpZ2FuZF9wcm8ubWFlJywgJy1vbWFlJywgJ2xpZ2FuZF9wcmVwLm1hZScsICctbXMnLCAnMScsICctcGgnLCAnNycsICctcGh0JywgJzAuNScsICctbnQn

> <r_lp_tautomer_probability>
0.99990000499975

> <r_epik_Ionization_Penalty>
  0.0521

> <r_epik_Ionization_Penalty_Charging>
  0.0000

> <r_epik_Ionization_Penalty_Neutral>
  0.0521

> <r_epik_State_Penalty>
  0.0447

> <r_epik_Charging_Adjusted_Penalty>
0.0447121731835653

> <i_epik_Tot_Q>
0

> <i_epik_Tot_abs_Q>
0

$$$$
