3vp1_ligand
                    3D
 Schrodinger Suite 2020-3.
 29 30  0  0  1  0            999 V2000
    1.5630  -10.0170   -0.4480 O   0  0  0  0  0  0
   -2.9230   -7.2310   -0.5400 C   0  0  0  0  0  0
   -2.8220   -8.6310   -0.2040 C   0  0  0  0  0  0
   -1.9380   -6.6400   -1.4980 C   0  0  0  0  0  0
   -1.8170   -9.4630   -0.7570 C   0  0  0  0  0  0
   -0.9070   -7.5160   -2.0620 C   0  0  0  0  0  0
    7.6240   -8.9110    0.5390 C   0  0  0  0  0  0
    7.3940  -10.4340    0.2140 C   0  0  0  0  0  0
    0.2190   -9.8940   -2.2540 C   0  0  0  0  0  0
    5.1090  -10.2910    0.4910 N   0  0  0  0  0  0
    3.9300  -10.1970    0.0000 N   0  0  0  0  0  0
    2.8150  -10.0730   -2.3510 N   0  0  0  0  0  0
    7.8500   -7.8500    0.0000 S   0  0  0  0  0  0
    5.4590  -10.2710   -1.9700 S   0  0  0  0  0  0
    1.6020  -10.0010   -1.6710 C   0  0  0  0  0  0
   -0.8330   -8.9000   -1.7100 C   0  0  0  0  0  0
    6.0760  -10.3500   -0.4670 C   0  0  0  0  0  0
    3.8450  -10.1680   -1.3920 C   0  0  0  0  0  0
   -3.7064   -6.6128   -0.1016 H   0  0  0  0  0  0
   -3.5394   -9.0607    0.4952 H   0  0  0  0  0  0
   -1.9857   -5.5855   -1.7696 H   0  0  0  0  0  0
   -1.7682  -10.5164   -0.4812 H   0  0  0  0  0  0
   -0.1820   -7.1041   -2.7640 H   0  0  0  0  0  0
    7.5215   -8.9613    1.6331 H   0  0  0  0  0  0
    8.2088  -10.7989   -0.4286 H   0  0  0  0  0  0
    7.3794  -11.0107    1.1506 H   0  0  0  0  0  0
    0.2893   -9.6152   -3.3158 H   0  0  0  0  0  0
   -0.2935  -10.8630   -2.1625 H   0  0  0  0  0  0
    2.8313  -10.0499   -3.4506 H   0  0  0  0  0  0
  1 15  2  0  0  0
  2  3  2  0  0  0
  2  4  1  0  0  0
  2 19  1  0  0  0
  3  5  1  0  0  0
  3 20  1  0  0  0
  4  6  2  0  0  0
  4 21  1  0  0  0
  5 16  2  0  0  0
  5 22  1  0  0  0
  6 16  1  0  0  0
  6 23  1  0  0  0
  7  8  1  0  0  0
  7 13  2  0  0  0
  7 24  1  0  0  0
  8 17  1  0  0  0
  8 25  1  0  0  0
  8 26  1  0  0  0
  9 15  1  0  0  0
  9 16  1  0  0  0
  9 27  1  0  0  0
  9 28  1  0  0  0
 10 11  1  0  0  0
 10 17  2  0  0  0
 11 18  2  0  0  0
 12 15  1  0  0  0
 12 18  1  0  0  0
 12 29  1  0  0  0
 14 17  1  0  0  0
 14 18  1  0  0  0
M  END
> <s_m_source_file>
../3vp1_ligand.sdf

> <i_m_source_file_index>
1

> <s_epik_input>
W2NIXTFbY0hdW2NIXVtjSF1bY0hdYzFbQ0gyXUMoPU8pW05IXWMoczIpbm5jMltDSDJdW0NIXT1T

> <s_epik_cmdline>
J2VwaWtfYXBwJywgJy1pbWFlJywgJ2xpZ2FuZF9wcm8ubWFlJywgJy1vbWFlJywgJ2xpZ2FuZF9wcmVwLm1hZScsICctbXMnLCAnMScsICctcGgnLCAnNycsICctcGh0JywgJzAuNScsICctbnQn

> <r_lp_tautomer_probability>
0.99990000499975

> <r_epik_Ionization_Penalty>
  0.0521

> <r_epik_Ionization_Penalty_Charging>
  0.0000

> <r_epik_Ionization_Penalty_Neutral>
  0.0521

> <r_epik_State_Penalty>
  0.0447

> <r_epik_Charging_Adjusted_Penalty>
0.0447121731835653

> <i_epik_Tot_Q>
0

> <i_epik_Tot_abs_Q>
0

$$$$
