3vp3_ligand
                    3D
 Schrodinger Suite 2020-3.
 18 18  0  0  1  0            999 V2000
    7.5220   -7.5220    0.0000 C   0  0  0  0  0  0
    6.7470   -8.4990    0.8920 C   0  0  0  0  0  0
    7.0360   -9.4950   -0.2300 C   0  0  0  0  0  0
    5.5940   -9.9510   -0.3860 C   0  0  0  0  0  0
    4.7990  -10.1750   -1.8910 S   0  0  0  0  0  0
    4.7040   -9.7850    0.6580 N   0  0  0  0  0  0
    3.5530   -9.8350    0.1730 N   0  0  0  0  0  0
    3.2700  -10.0230   -1.1360 C   0  0  0  0  0  0
    2.0750  -10.0150   -1.7210 N   0  0  0  0  0  0
    7.5667   -6.5369    0.4875 H   0  0  0  0  0  0
    7.0123   -7.4282   -0.9703 H   0  0  0  0  0  0
    8.5430   -7.9000   -0.1572 H   0  0  0  0  0  0
    7.2567   -8.5928    1.8623 H   0  0  0  0  0  0
    5.7260   -8.1210    1.0492 H   0  0  0  0  0  0
    7.4699   -8.9632   -1.0896 H   0  0  0  0  0  0
    7.7466  -10.2546    0.1280 H   0  0  0  0  0  0
    1.9921  -10.1837   -2.8048 H   0  0  0  0  0  0
    1.1700   -9.8397   -1.1208 H   0  0  0  0  0  0
  1  2  1  0  0  0
  1 10  1  0  0  0
  1 11  1  0  0  0
  1 12  1  0  0  0
  2  3  1  0  0  0
  2 13  1  0  0  0
  2 14  1  0  0  0
  3  4  1  0  0  0
  3 15  1  0  0  0
  3 16  1  0  0  0
  4  5  1  0  0  0
  4  6  2  0  0  0
  5  8  1  0  0  0
  6  7  1  0  0  0
  7  8  2  0  0  0
  8  9  1  0  0  0
  9 17  1  0  0  0
  9 18  1  0  0  0
M  END
> <s_m_source_file>
../3vp3_ligand.sdf

> <i_m_source_file_index>
1

> <s_epik_input>
W0NIM11bQ0gyXVtDSDJdYzFzYyhubjEpW05IMl0=

> <s_epik_cmdline>
J2VwaWtfYXBwJywgJy1pbWFlJywgJ2xpZ2FuZF9wcm8ubWFlJywgJy1vbWFlJywgJ2xpZ2FuZF9wcmVwLm1hZScsICctbXMnLCAnMScsICctcGgnLCAnNycsICctcGh0JywgJzAuNScsICctbnQn

> <r_lp_tautomer_probability>
1

> <r_epik_Ionization_Penalty>
  0.0000

> <r_epik_Ionization_Penalty_Charging>
  0.0000

> <r_epik_Ionization_Penalty_Neutral>
  0.0000

> <r_epik_State_Penalty>
 -0.0000

> <r_epik_Charging_Adjusted_Penalty>
0

> <i_epik_Tot_Q>
0

> <i_epik_Tot_abs_Q>
0

$$$$
