3vp4_ligand
                    3D
 Schrodinger Suite 2020-3.
 15 15  0  0  1  0            999 V2000
    4.3050   -9.9910    0.5300 N   0  0  0  0  0  0
    2.3240  -10.0450   -2.6500 N   0  0  0  0  0  0
    3.1280  -10.0250   -0.1270 N   0  0  0  0  0  0
    6.6810   -9.9200    0.4440 C   0  0  0  0  0  0
    3.2120  -10.0210   -1.5620 C   0  0  0  0  0  0
    7.1040   -8.4550    0.5190 C   0  0  0  0  0  0
    5.4020   -9.9580   -0.3380 C   0  0  0  0  0  0
    4.8870   -9.9730   -1.8660 S   0  0  0  0  0  0
    1.2387  -10.0761   -2.4735 H   0  0  0  0  0  0
    2.7139  -10.0327   -3.6785 H   0  0  0  0  0  0
    7.4660  -10.5029   -0.0600 H   0  0  0  0  0  0
    6.5302  -10.3107    1.4612 H   0  0  0  0  0  0
    8.0429   -8.3731    1.0862 H   0  0  0  0  0  0
    6.3190   -7.8721    1.0230 H   0  0  0  0  0  0
    7.2548   -8.0644   -0.4982 H   0  0  0  0  0  0
  1  3  1  0  0  0
  1  7  2  0  0  0
  2  5  1  0  0  0
  2  9  1  0  0  0
  2 10  1  0  0  0
  3  5  2  0  0  0
  4  6  1  0  0  0
  4  7  1  0  0  0
  4 11  1  0  0  0
  4 12  1  0  0  0
  5  8  1  0  0  0
  6 13  1  0  0  0
  6 14  1  0  0  0
  6 15  1  0  0  0
  7  8  1  0  0  0
M  END
> <s_m_source_file>
../3vp4_ligand.sdf

> <i_m_source_file_index>
1

> <s_epik_input>
W0NIM11bQ0gyXWMoczEpbm5jMVtOSDJd

> <s_epik_cmdline>
J2VwaWtfYXBwJywgJy1pbWFlJywgJ2xpZ2FuZF9wcm8ubWFlJywgJy1vbWFlJywgJ2xpZ2FuZF9wcmVwLm1hZScsICctbXMnLCAnMScsICctcGgnLCAnNycsICctcGh0JywgJzAuNScsICctbnQn

> <r_lp_tautomer_probability>
1

> <r_epik_Ionization_Penalty>
  0.0002

> <r_epik_Ionization_Penalty_Charging>
  0.0000

> <r_epik_Ionization_Penalty_Neutral>
  0.0002

> <r_epik_State_Penalty>
 -0.0000

> <r_epik_Charging_Adjusted_Penalty>
0

> <i_epik_Tot_Q>
0

> <i_epik_Tot_abs_Q>
0

$$$$
