3vqh_ligand
                    3D
 Schrodinger Suite 2020-3.
 48 50  0  0  1  0            999 V2000
   -7.0620    9.9490   -3.0380 C   0  0  0  0  0  0
   -7.2650   10.0170   -1.6590 C   0  0  0  0  0  0
   -6.1870    9.9860   -0.7770 C   0  0  0  0  0  0
   -4.8830    9.8960   -1.2680 C   0  0  0  0  0  0
   -4.6660    9.8390   -2.6520 C   0  0  0  0  0  0
   -3.3680    9.7470   -3.1630 C   0  0  0  0  0  0
   -3.1480    9.6910   -4.4750 N   0  0  0  0  0  0
   -4.1530    9.7200   -5.3400 C   0  0  0  0  0  0
   -5.4780    9.8060   -4.9020 C   0  0  0  0  0  0
   -5.7500    9.8660   -3.5310 C   0  0  0  0  0  0
   -8.4890    9.9930   -4.1080 S   0  0  0  0  0  0
   -8.2180   10.8510   -5.2860 O   0  0  0  0  0  0
   -9.6110   10.6030   -3.3390 O   0  0  0  0  0  0
   -8.9110    8.4930   -4.6080 N   0  0  3  0  0  0
   -9.1830    7.5200   -3.5110 C   0  0  0  0  0  0
  -10.6680    7.5000   -3.0950 C   0  0  0  0  0  0
  -11.5640    7.6010   -4.2570 N   0  3  0  0  0  0
  -11.9320    9.0140   -4.4740 C   0  0  0  0  0  0
  -12.6050    9.5440   -3.3690 C   0  0  0  0  0  0
  -12.3610   10.8670   -2.9990 C   0  0  0  0  0  0
  -12.9890   11.4870   -1.9120 C   0  0  0  0  0  0
  -13.9060   10.7960   -1.1260 C   0  0  0  0  0  0
  -14.5130   11.4300   -0.0450 C   0  0  0  0  0  0
  -14.2100   12.7570    0.2590 C   0  0  0  0  0  0
  -15.0760   13.6160    1.7250 Br  0  0  0  0  0  0
  -13.2910   13.4490   -0.5310 C   0  0  0  0  0  0
  -12.6930   12.8100   -1.6130 C   0  0  0  0  0  0
   -8.2792   10.0953   -1.2673 H   0  0  0  0  0  0
   -6.3618   10.0321    0.2979 H   0  0  0  0  0  0
   -4.0386    9.8702   -0.5793 H   0  0  0  0  0  0
   -2.5221    9.7207   -2.4761 H   0  0  0  0  0  0
   -3.9428    9.6761   -6.4086 H   0  0  0  0  0  0
   -6.2941    9.8262   -5.6243 H   0  0  0  0  0  0
   -8.8388    8.1429   -5.6483 H   0  0  0  0  0  0
   -8.9104    6.5074   -3.8431 H   0  0  0  0  0  0
   -8.5869    7.7886   -2.6264 H   0  0  0  0  0  0
  -10.8891    6.5589   -2.5701 H   0  0  0  0  0  0
  -10.8731    8.3494   -2.4268 H   0  0  0  0  0  0
  -11.0512    7.2146   -5.1501 H   0  0  0  0  0  0
  -12.4730    7.0099   -4.0716 H   0  0  0  0  0  0
  -11.0219    9.6078   -4.6449 H   0  0  0  0  0  0
  -12.5902    9.0908   -5.3520 H   0  0  0  0  0  0
  -13.3178    8.9346   -2.7941 H   0  0  0  0  0  0
  -11.6453   11.4752   -3.5716 H   0  0  0  0  0  0
  -14.1491    9.7587   -1.3564 H   0  0  0  0  0  0
  -15.2305   10.8850    0.5684 H   0  0  0  0  0  0
  -13.0427   14.4853   -0.3016 H   0  0  0  0  0  0
  -11.9826   13.3556   -2.2341 H   0  0  0  0  0  0
  1  2  2  0  0  0
  1 10  1  0  0  0
  1 11  1  0  0  0
  2  3  1  0  0  0
  2 28  1  0  0  0
  3  4  2  0  0  0
  3 29  1  0  0  0
  4  5  1  0  0  0
  4 30  1  0  0  0
  5  6  1  0  0  0
  5 10  2  0  0  0
  6  7  2  0  0  0
  6 31  1  0  0  0
  7  8  1  0  0  0
  8  9  2  0  0  0
  8 32  1  0  0  0
  9 10  1  0  0  0
  9 33  1  0  0  0
 11 12  2  0  0  0
 11 13  2  0  0  0
 11 14  1  0  0  0
 14 15  1  0  0  0
 14 34  1  0  0  0
 15 16  1  0  0  0
 15 35  1  0  0  0
 15 36  1  0  0  0
 16 17  1  0  0  0
 16 37  1  0  0  0
 16 38  1  0  0  0
 17 18  1  0  0  0
 17 39  1  0  0  0
 17 40  1  0  0  0
 18 19  1  0  0  0
 18 41  1  0  0  0
 18 42  1  0  0  0
 19 20  2  0  0  0
 19 43  1  0  0  0
 20 21  1  0  0  0
 20 44  1  0  0  0
 21 22  2  0  0  0
 21 27  1  0  0  0
 22 23  1  0  0  0
 22 45  1  0  0  0
 23 24  2  0  0  0
 23 46  1  0  0  0
 24 25  1  0  0  0
 24 26  1  0  0  0
 26 27  2  0  0  0
 26 47  1  0  0  0
 27 48  1  0  0  0
M  CHG  1  17   1
M  END
> <s_m_source_file>
../3vqh_ligand.sdf

> <i_m_source_file_index>
1

> <s_epik_input>
W2NIXTFuW2NIXVtjSF1jKGMxMiljKFtjSF1bY0hdW2NIXTIpUyg9TykoPU8pW05IXVtDSDJdW0NIMl1bTkgyK11bQ0gyXS9bQ0hdPVtDSF0vYzNbY0hdW2NIXWMoQnIpW2NIXVtjSF0z

> <s_epik_cmdline>
J2VwaWtfYXBwJywgJy1pbWFlJywgJ2xpZ2FuZF9wcm8ubWFlJywgJy1vbWFlJywgJ2xpZ2FuZF9wcmVwLm1hZScsICctbXMnLCAnMScsICctcGgnLCAnNycsICctcGh0JywgJzAuNScsICctbnQn

> <r_epik_Ionization_Penalty>
  0.0120

> <r_epik_Ionization_Penalty_Charging>
  0.0102

> <r_epik_Ionization_Penalty_Neutral>
  0.0019

> <r_epik_State_Penalty>
  0.0078

> <r_epik_Charging_Adjusted_Penalty>
0.0179151466999302

> <i_epik_Tot_Q>
1

> <i_epik_Tot_abs_Q>
1

$$$$
