3vqs_ligand
                    3D
 Schrodinger Suite 2020-3.
 70 75  0  0  1  0            999 V2000
   50.1140   33.1550   47.6920 N   0  0  0  0  0  0
   48.9010   33.7970   45.2790 N   0  0  3  0  0  0
   47.6100   34.3230   44.4820 S   0  0  0  0  0  0
   46.3200   34.4030   45.5890 C   0  0  0  0  0  0
   47.2850   33.3730   43.4900 O   0  0  0  0  0  0
   47.8290   35.7480   44.0780 O   0  0  0  0  0  0
   46.1700   35.5600   46.3970 C   0  0  0  0  0  0
   45.0210   35.6420   47.2540 C   0  0  0  0  0  0
   44.0990   34.5890   47.2040 C   0  0  0  0  0  0
   44.2040   33.4670   46.3670 C   0  0  0  0  0  0
   45.3190   33.4170   45.5370 C   0  0  0  0  0  0
   48.9280   32.3510   45.5680 C   0  0  2  0  0  0
   49.1700   32.2380   47.1130 C   0  0  0  0  0  0
   50.0460   34.5890   47.2850 C   0  0  0  0  0  0
   49.9270   34.7070   45.7580 C   0  0  0  0  0  0
   50.0860   31.6240   44.8390 C   0  0  0  0  0  0
   50.5080   30.4720   45.2220 O   0  0  0  0  0  0
   50.7020   32.3070   43.8020 N   0  0  0  0  0  0
   51.6350   31.5290   42.9850 C   0  0  0  0  0  0
   51.0580   30.6640   41.8820 C   0  0  0  0  0  0
   51.1630   29.2630   42.0110 C   0  0  0  0  0  0
   50.5900   28.4290   41.0370 C   0  0  0  0  0  0
   50.0400   29.0300   39.9000 C   0  0  0  0  0  0
   49.9180   30.4340   39.7930 C   0  0  0  0  0  0
   50.4130   31.2430   40.7810 C   0  0  0  0  0  0
   51.2920   32.6870   48.2700 C   0  0  0  0  0  0
   51.5330   30.9430   48.5830 S   0  0  0  0  0  0
   52.2270   33.5210   48.6760 N   0  0  0  0  0  0
   53.2450   32.7630   49.2690 C   0  0  0  0  0  0
   53.0140   31.3560   49.2590 C   0  0  0  0  0  0
   54.0430   30.5940   49.8120 C   0  0  0  0  0  0
   55.1360   31.1820   50.3350 N   0  0  0  0  0  0
   55.3010   32.5150   50.2620 C   0  0  0  0  0  0
   54.3990   33.3790   49.7470 N   0  0  0  0  0  0
   49.5410   28.3230   38.8630 O   0  0  0  0  0  0
   48.2320   27.8390   38.9190 C   0  0  0  0  0  0
   42.8280   34.6650   48.0320 C   0  0  0  0  0  0
   56.5480   33.1860   50.7840 C   0  0  0  0  0  0
   57.1480   32.7440   52.1230 C   0  0  0  0  0  0
   57.8560   32.4670   50.8150 C   0  0  0  0  0  0
   47.9620   27.2670   37.7530 F   0  0  0  0  0  0
   47.3950   28.8290   39.1160 F   0  0  0  0  0  0
   48.0280   26.9650   39.8900 F   0  0  0  0  0  0
   42.4240   33.5180   48.6110 F   0  0  0  0  0  0
   41.7450   35.0640   47.2610 F   0  0  0  0  0  0
   42.7310   35.5370   49.0310 F   0  0  0  0  0  0
   49.3790   30.8980   38.6750 F   0  0  0  0  0  0
   46.9060   36.3634   46.3678 H   0  0  0  0  0  0
   44.8718   36.4926   47.9191 H   0  0  0  0  0  0
   43.4524   32.6776   46.3675 H   0  0  0  0  0  0
   45.4191   32.5939   44.8295 H   0  0  0  0  0  0
   47.9785   31.9319   45.2036 H   0  0  0  0  0  0
   49.5085   31.2057   47.2856 H   0  0  0  0  0  0
   48.1843   32.3834   47.5791 H   0  0  0  0  0  0
   49.1681   35.0610   47.7503 H   0  0  0  0  0  0
   50.9586   35.1073   47.6144 H   0  0  0  0  0  0
   50.8908   34.4495   45.2947 H   0  0  0  0  0  0
   49.6558   35.7389   45.4906 H   0  0  0  0  0  0
   50.5261   33.3689   43.5754 H   0  0  0  0  0  0
   52.3356   32.2100   42.4796 H   0  0  0  0  0  0
   52.1970   30.8366   43.6290 H   0  0  0  0  0  0
   51.6867   28.8296   42.8631 H   0  0  0  0  0  0
   50.5744   27.3465   41.1633 H   0  0  0  0  0  0
   50.3064   32.3256   40.7116 H   0  0  0  0  0  0
   53.9614   29.5071   49.8210 H   0  0  0  0  0  0
   56.2057   34.1347   50.3449 H   0  0  0  0  0  0
   57.3144   33.6258   52.7591 H   0  0  0  0  0  0
   56.4539   32.0547   52.6261 H   0  0  0  0  0  0
   57.7749   31.5333   50.2391 H   0  0  0  0  0  0
   58.6354   33.1044   50.3721 H   0  0  0  0  0  0
  1 13  1  0  0  0
  1 14  1  0  0  0
  1 26  1  0  0  0
  2  3  1  0  0  0
  2 12  1  0  0  0
  2 15  1  0  0  0
  3  4  1  0  0  0
  3  5  2  0  0  0
  3  6  2  0  0  0
  4  7  2  0  0  0
  4 11  1  0  0  0
  7  8  1  0  0  0
  7 48  1  0  0  0
  8  9  2  0  0  0
  8 49  1  0  0  0
  9 10  1  0  0  0
  9 37  1  0  0  0
 10 11  2  0  0  0
 10 50  1  0  0  0
 11 51  1  0  0  0
 12 13  1  0  0  0
 12 16  1  0  0  0
 12 52  1  0  0  0
 13 53  1  0  0  0
 13 54  1  0  0  0
 14 15  1  0  0  0
 14 55  1  0  0  0
 14 56  1  0  0  0
 15 57  1  0  0  0
 15 58  1  0  0  0
 16 17  2  0  0  0
 16 18  1  0  0  0
 18 19  1  0  0  0
 18 59  1  0  0  0
 19 20  1  0  0  0
 19 60  1  0  0  0
 19 61  1  0  0  0
 20 21  2  0  0  0
 20 25  1  0  0  0
 21 22  1  0  0  0
 21 62  1  0  0  0
 22 23  2  0  0  0
 22 63  1  0  0  0
 23 24  1  0  0  0
 23 35  1  0  0  0
 24 25  2  0  0  0
 24 47  1  0  0  0
 25 64  1  0  0  0
 26 27  1  0  0  0
 26 28  2  0  0  0
 27 30  1  0  0  0
 28 29  1  0  0  0
 29 30  2  0  0  0
 29 34  1  0  0  0
 30 31  1  0  0  0
 31 32  2  0  0  0
 31 65  1  0  0  0
 32 33  1  0  0  0
 33 34  2  0  0  0
 33 38  1  0  0  0
 35 36  1  0  0  0
 36 41  1  0  0  0
 36 42  1  0  0  0
 36 43  1  0  0  0
 37 44  1  0  0  0
 37 45  1  0  0  0
 37 46  1  0  0  0
 38 39  1  0  0  0
 38 40  1  0  0  0
 38 66  1  0  0  0
 39 40  1  0  0  0
 39 67  1  0  0  0
 39 68  1  0  0  0
 40 69  1  0  0  0
 40 70  1  0  0  0
M  END
> <s_m_source_file>
../3vqs_ligand.sdf

> <i_m_source_file_index>
1

> <s_epik_input>
W0NIMl0xW0NIMl1bQ0hdMWMobjIpbltjSF1jKGMyMylzYyhuMylONFtDSDJdW0NAQEhdKE4oW0NIMl1bQ0gyXTQpUyg9TykoPU8pYzVbY0hdW2NIXWMoQyhGKShGKUYpW2NIXVtjSF01KUMoPU8pW05IXVtDSDJdYzZbY0hdW2NIXWMoYyhGKVtjSF02KU9DKEYpKEYpRg==

> <s_epik_cmdline>
J2VwaWtfYXBwJywgJy1pbWFlJywgJ2xpZ2FuZF9wcm8ubWFlJywgJy1vbWFlJywgJ2xpZ2FuZF9wcmVwLm1hZScsICctbXMnLCAnMScsICctcGgnLCAnNycsICctcGh0JywgJzAuNScsICctbnQn

> <r_lp_tautomer_probability>
1

> <r_epik_Ionization_Penalty>
  0.0000

> <r_epik_Ionization_Penalty_Charging>
  0.0000

> <r_epik_Ionization_Penalty_Neutral>
  0.0000

> <r_epik_State_Penalty>
 -0.0000

> <r_epik_Charging_Adjusted_Penalty>
0

> <i_epik_Tot_Q>
0

> <i_epik_Tot_abs_Q>
0

$$$$
