3vrt_ligand
                    3D
 Schrodinger Suite 2020-3.
 65 67  0  0  1  0            999 V2000
   10.5150   -5.7840   27.3870 O   0  0  0  0  0  0
   11.3990   -4.7380   26.9680 C   0  0  0  0  0  0
   12.6790   -4.7920   27.7930 C   0  0  0  0  0  0
   13.0560   -3.4090   28.3090 C   0  0  0  0  0  0
   12.9010   -2.3580   27.2160 C   0  0  1  0  0  0
   11.6970   -1.4630   27.4860 C   0  0  0  0  0  0
   14.1710   -1.5330   27.0690 C   0  0  2  0  0  0
   13.8780   -0.1120   26.6220 C   0  0  1  0  0  0
   12.7160   -0.1280   25.6400 C   0  0  0  0  0  0
   13.6220    0.9070   27.7130 C   0  0  0  0  0  0
   13.2640    2.2420   27.0510 C   0  0  0  0  0  0
   14.1790    2.6790   25.8960 C   0  0  0  0  0  0
   15.1040   -2.1020   26.0000 C   0  0  0  0  0  0
   15.5780   -0.9280   25.1400 C   0  0  0  0  0  0
   15.1460    0.3000   25.9240 C   0  0  1  0  0  0
   14.7900    1.5170   25.1390 C   0  0  0  0  0  0
   15.0020    1.5810   23.8180 C   0  0  0  0  0  0
   14.6430    2.7870   23.0780 C   0  0  0  0  0  0
   14.2220    2.6940   21.8090 C   0  0  0  0  0  0
   13.8500    3.9410   21.0430 C   0  0  0  0  0  0
   14.1190    1.3420   21.1450 C   0  0  0  0  0  0
   14.8550    1.3740   19.8100 C   0  0  1  0  0  0
   14.5020    0.2180   19.0430 O   0  0  0  0  0  0
   14.4680    2.6120   19.0560 C   0  0  0  0  0  0
   14.0220    2.5180   17.8180 C   0  0  0  0  0  0
   14.5880    3.9570   19.7100 C   0  0  2  0  0  0
   15.9700    4.2580   19.9330 O   0  0  0  0  0  0
    9.5350   -5.9032   26.9018 H   0  0  0  0  0  0
   11.6436   -4.8691   25.9036 H   0  0  0  0  0  0
   10.9097   -3.7638   27.1145 H   0  0  0  0  0  0
   12.5326   -5.4613   28.6536 H   0  0  0  0  0  0
   13.5016   -5.1716   27.1691 H   0  0  0  0  0  0
   12.4016   -3.1411   29.1516 H   0  0  0  0  0  0
   14.1031   -3.4162   28.6458 H   0  0  0  0  0  0
   12.7280   -2.8816   26.2642 H   0  0  0  0  0  0
   10.7944   -2.0835   27.5878 H   0  0  0  0  0  0
   11.5669   -0.7610   26.6491 H   0  0  0  0  0  0
   11.8608   -0.8987   28.4159 H   0  0  0  0  0  0
   14.6308   -1.5527   28.0681 H   0  0  0  0  0  0
   11.7973   -0.4306   26.1639 H   0  0  0  0  0  0
   12.9292   -0.8425   24.8313 H   0  0  0  0  0  0
   12.5814    0.8775   25.2148 H   0  0  0  0  0  0
   12.7900    0.5651   28.3461 H   0  0  0  0  0  0
   14.5272    1.0216   28.3274 H   0  0  0  0  0  0
   12.2476    2.1837   26.6343 H   0  0  0  0  0  0
   13.3075    3.0462   27.8003 H   0  0  0  0  0  0
   13.6002    3.2749   25.1750 H   0  0  0  0  0  0
   15.0061    3.2859   26.2929 H   0  0  0  0  0  0
   15.9589   -2.5960   26.4848 H   0  0  0  0  0  0
   14.5568   -2.8337   25.3875 H   0  0  0  0  0  0
   16.6701   -0.9795   25.0191 H   0  0  0  0  0  0
   15.0969   -0.9794   24.1521 H   0  0  0  0  0  0
   15.9998    0.6030   26.5479 H   0  0  0  0  0  0
   15.4468    0.7245   23.2902 H   0  0  0  0  0  0
   14.7180    3.7720   23.5618 H   0  0  0  0  0  0
   12.7651    3.9500   20.8617 H   0  0  0  0  0  0
   14.1312    4.8287   21.6286 H   0  0  0  0  0  0
   14.5717    0.5788   21.7951 H   0  0  0  0  0  0
   13.0603    1.0970   20.9743 H   0  0  0  0  0  0
   15.9458    1.3371   19.9475 H   0  0  0  0  0  0
   14.7101   -0.7878   19.4367 H   0  0  0  0  0  0
   13.9340    1.5319   17.3385 H   0  0  0  0  0  0
   13.7381    3.4257   17.2653 H   0  0  0  0  0  0
   14.2004    4.7410   19.0428 H   0  0  0  0  0  0
   16.2564    5.2086   20.4066 H   0  0  0  0  0  0
  1  2  1  0  0  0
  1 28  1  0  0  0
  2  3  1  0  0  0
  2 29  1  0  0  0
  2 30  1  0  0  0
  3  4  1  0  0  0
  3 31  1  0  0  0
  3 32  1  0  0  0
  4  5  1  0  0  0
  4 33  1  0  0  0
  4 34  1  0  0  0
  5  6  1  0  0  0
  5  7  1  0  0  0
  5 35  1  0  0  0
  6 36  1  0  0  0
  6 37  1  0  0  0
  6 38  1  0  0  0
  7  8  1  0  0  0
  7 13  1  0  0  0
  7 39  1  0  0  0
  8  9  1  0  0  0
  8 10  1  0  0  0
  8 15  1  0  0  0
  9 40  1  0  0  0
  9 41  1  0  0  0
  9 42  1  0  0  0
 10 11  1  0  0  0
 10 43  1  0  0  0
 10 44  1  0  0  0
 11 12  1  0  0  0
 11 45  1  0  0  0
 11 46  1  0  0  0
 12 16  1  0  0  0
 12 47  1  0  0  0
 12 48  1  0  0  0
 13 14  1  0  0  0
 13 49  1  0  0  0
 13 50  1  0  0  0
 14 15  1  0  0  0
 14 51  1  0  0  0
 14 52  1  0  0  0
 15 16  1  0  0  0
 15 53  1  0  0  0
 16 17  2  0  0  0
 17 18  1  0  0  0
 17 54  1  0  0  0
 18 19  2  0  0  0
 18 55  1  0  0  0
 19 20  1  0  0  0
 19 21  1  0  0  0
 20 26  1  0  0  0
 20 56  1  0  0  0
 20 57  1  0  0  0
 21 22  1  0  0  0
 21 58  1  0  0  0
 21 59  1  0  0  0
 22 23  1  0  0  0
 22 24  1  0  0  0
 22 60  1  0  0  0
 23 61  1  0  0  0
 24 25  2  0  0  0
 24 26  1  0  0  0
 25 62  1  0  0  0
 25 63  1  0  0  0
 26 27  1  0  0  0
 26 64  1  0  0  0
 27 65  1  0  0  0
M  END
> <s_m_source_file>
../3vrt_ligand.sdf

> <i_m_source_file_index>
1

> <s_epik_input>
W09IXVtDSDJdW0NIMl1bQ0gyXVtDQEBIXShbQ0gzXSlbQ0BIXTFbQ0gyXVtDSDJdW0NASF0oW0NAQF0xMltDSDNdKUMoXFtDSDJdW0NIMl1bQ0gyXTIpPVtDSF1cW0NIXT1DM1tDSDJdW0NAQEhdKFtPSF0pQyg9W0NIMl0pW0NAQEhdKFtDSDJdMylbT0hd

> <s_epik_cmdline>
J2VwaWtfYXBwJywgJy1pbWFlJywgJ2xpZ2FuZF9wcm8ubWFlJywgJy1vbWFlJywgJ2xpZ2FuZF9wcmVwLm1hZScsICctbXMnLCAnMScsICctcGgnLCAnNycsICctcGh0JywgJzAuNScsICctbnQn

> <r_lp_tautomer_probability>
1

> <r_epik_Ionization_Penalty>
  0.0000

> <r_epik_Ionization_Penalty_Charging>
  0.0000

> <r_epik_Ionization_Penalty_Neutral>
  0.0000

> <r_epik_State_Penalty>
 -0.0000

> <r_epik_Charging_Adjusted_Penalty>
0

> <i_epik_Tot_Q>
0

> <i_epik_Tot_abs_Q>
0

$$$$
