3vru_ligand
                    3D
 Schrodinger Suite 2020-3.
 73 75  0  0  1  0            999 V2000
  -11.9620   19.4710   -7.4140 O   0  0  0  0  0  0
  -11.4210   20.5210   -6.6390 C   0  0  0  0  0  0
  -10.0270   20.8420   -7.1020 C   0  0  0  0  0  0
  -11.3550   20.0000   -5.1770 C   0  0  0  0  0  0
  -12.3050   21.7910   -6.8870 C   0  0  0  0  0  0
  -13.5710   21.9660   -6.0600 C   0  0  0  0  0  0
  -14.5560   22.8230   -6.8340 C   0  0  1  0  0  0
  -15.2130   22.0500   -7.9950 C   0  0  0  0  0  0
  -15.6920   23.4790   -6.0040 C   0  0  1  0  0  0
  -16.2600   22.6260   -4.8310 C   0  0  0  0  0  0
  -17.0250   23.6570   -3.9660 C   0  0  0  0  0  0
  -16.7790   24.9840   -4.6930 C   0  0  2  0  0  0
  -15.3950   24.8520   -5.3460 C   0  0  1  0  0  0
  -14.1950   24.8090   -4.3840 C   0  0  0  0  0  0
  -15.2570   26.0270   -6.3760 C   0  0  0  0  0  0
  -15.5410   27.4340   -5.7610 C   0  0  0  0  0  0
  -16.8420   27.4790   -4.8990 C   0  0  0  0  0  0
  -16.8910   26.2970   -3.9120 C   0  0  0  0  0  0
  -16.9600   26.4270   -2.5000 C   0  0  0  0  0  0
  -16.5560   27.6190   -1.8820 C   0  0  0  0  0  0
  -16.5950   27.8120   -0.5050 C   0  0  2  0  0  0
  -16.3630   29.2230    0.0510 C   0  0  0  0  0  0
  -16.1530   26.6870    0.4400 C   0  0  0  0  0  0
  -16.9160   26.7950    1.7760 C   0  0  1  0  0  0
  -16.5560   25.7980    2.6850 O   0  0  0  0  0  0
  -16.5550   28.1410    2.3550 C   0  0  0  0  0  0
  -16.0200   28.2940    3.6070 C   0  0  0  0  0  0
  -16.9460   29.3370    1.5010 C   0  0  2  0  0  0
  -18.3770   29.2630    1.4850 O   0  0  0  0  0  0
  -11.4949   18.4753   -7.3937 H   0  0  0  0  0  0
   -9.3773   19.9689   -6.9419 H   0  0  0  0  0  0
   -9.6387   21.6978   -6.5303 H   0  0  0  0  0  0
  -10.0452   21.0941   -8.1726 H   0  0  0  0  0  0
  -10.7081   19.1114   -5.1333 H   0  0  0  0  0  0
  -12.3666   19.7343   -4.8364 H   0  0  0  0  0  0
  -10.9435   20.7855   -4.5261 H   0  0  0  0  0  0
  -11.7115   22.6955   -6.6877 H   0  0  0  0  0  0
  -12.6481   21.8006   -7.9321 H   0  0  0  0  0  0
  -14.0166   20.9806   -5.8587 H   0  0  0  0  0  0
  -13.3220   22.4572   -5.1078 H   0  0  0  0  0  0
  -13.8931   23.6221   -7.1974 H   0  0  0  0  0  0
  -14.4326   21.5715   -8.6049 H   0  0  0  0  0  0
  -15.7903   22.7475   -8.6196 H   0  0  0  0  0  0
  -15.8848   21.2795   -7.5887 H   0  0  0  0  0  0
  -16.4075   23.5915   -6.8319 H   0  0  0  0  0  0
  -16.9224   21.8451   -5.2328 H   0  0  0  0  0  0
  -15.4296   22.1563   -4.2835 H   0  0  0  0  0  0
  -18.0912   23.3885   -3.9328 H   0  0  0  0  0  0
  -16.6147   23.6558   -2.9454 H   0  0  0  0  0  0
  -17.6190   25.1035   -5.3930 H   0  0  0  0  0  0
  -14.3219   23.9764   -3.6765 H   0  0  0  0  0  0
  -14.1363   25.7566   -3.8284 H   0  0  0  0  0  0
  -13.2689   24.6633   -4.9594 H   0  0  0  0  0  0
  -14.2329   26.0446   -6.7771 H   0  0  0  0  0  0
  -15.9709   25.8784   -7.1996 H   0  0  0  0  0  0
  -14.7027   27.7263   -5.1116 H   0  0  0  0  0  0
  -15.6531   28.1716   -6.5693 H   0  0  0  0  0  0
  -16.8704   28.4180   -4.3267 H   0  0  0  0  0  0
  -17.7208   27.4248   -5.5584 H   0  0  0  0  0  0
  -17.3310   25.5915   -1.8882 H   0  0  0  0  0  0
  -15.4988   27.8132   -2.1158 H   0  0  0  0  0  0
  -17.1723   28.4514   -2.2526 H   0  0  0  0  0  0
  -17.6699   27.6718   -0.6919 H   0  0  0  0  0  0
  -15.2836   29.4328    0.0798 H   0  0  0  0  0  0
  -16.8624   29.9589   -0.5963 H   0  0  0  0  0  0
  -16.3684   25.7130   -0.0235 H   0  0  0  0  0  0
  -15.0730   26.7715    0.6307 H   0  0  0  0  0  0
  -17.9963   26.6196    1.6654 H   0  0  0  0  0  0
  -16.7397   24.7408    2.4431 H   0  0  0  0  0  0
  -15.7472   27.4089    4.2005 H   0  0  0  0  0  0
  -15.8633   29.3019    4.0187 H   0  0  0  0  0  0
  -16.6280   30.3001    1.9269 H   0  0  0  0  0  0
  -18.9604   30.0143    0.9326 H   0  0  0  0  0  0
  1  2  1  0  0  0
  1 30  1  0  0  0
  2  3  1  0  0  0
  2  4  1  0  0  0
  2  5  1  0  0  0
  3 31  1  0  0  0
  3 32  1  0  0  0
  3 33  1  0  0  0
  4 34  1  0  0  0
  4 35  1  0  0  0
  4 36  1  0  0  0
  5  6  1  0  0  0
  5 37  1  0  0  0
  5 38  1  0  0  0
  6  7  1  0  0  0
  6 39  1  0  0  0
  6 40  1  0  0  0
  7  8  1  0  0  0
  7  9  1  0  0  0
  7 41  1  0  0  0
  8 42  1  0  0  0
  8 43  1  0  0  0
  8 44  1  0  0  0
  9 10  1  0  0  0
  9 13  1  0  0  0
  9 45  1  0  0  0
 10 11  1  0  0  0
 10 46  1  0  0  0
 10 47  1  0  0  0
 11 12  1  0  0  0
 11 48  1  0  0  0
 11 49  1  0  0  0
 12 13  1  0  0  0
 12 18  1  0  0  0
 12 50  1  0  0  0
 13 14  1  0  0  0
 13 15  1  0  0  0
 14 51  1  0  0  0
 14 52  1  0  0  0
 14 53  1  0  0  0
 15 16  1  0  0  0
 15 54  1  0  0  0
 15 55  1  0  0  0
 16 17  1  0  0  0
 16 56  1  0  0  0
 16 57  1  0  0  0
 17 18  1  0  0  0
 17 58  1  0  0  0
 17 59  1  0  0  0
 18 19  2  0  0  0
 19 20  1  0  0  0
 19 60  1  0  0  0
 20 21  1  0  0  0
 20 61  1  0  0  0
 20 62  1  0  0  0
 21 22  1  0  0  0
 21 23  1  0  0  0
 21 63  1  0  0  0
 22 28  1  0  0  0
 22 64  1  0  0  0
 22 65  1  0  0  0
 23 24  1  0  0  0
 23 66  1  0  0  0
 23 67  1  0  0  0
 24 25  1  0  0  0
 24 26  1  0  0  0
 24 68  1  0  0  0
 25 69  1  0  0  0
 26 27  2  0  0  0
 26 28  1  0  0  0
 27 70  1  0  0  0
 27 71  1  0  0  0
 28 29  1  0  0  0
 28 72  1  0  0  0
 29 73  1  0  0  0
M  END
> <s_m_source_file>
../3vru_ligand.sdf

> <i_m_source_file_index>
1

> <s_epik_input>
W09IXUMoW0NIM10pKFtDSDNdKVtDSDJdW0NIMl1bQ0BASF0oW0NIM10pW0NASF0xW0NIMl1bQ0gyXVtDQEhdKFtDQEBdMTJbQ0gzXSkvQyhbQ0gyXVtDSDJdW0NIMl0yKT1bQ0hdL1tDSDJdW0NAQEhdM1tDSDJdW0NAQEhdKFtPSF0pQyg9W0NIMl0pW0NAQEhdKFtDSDJdMylbT0hd

> <s_epik_cmdline>
J2VwaWtfYXBwJywgJy1pbWFlJywgJ2xpZ2FuZF9wcm8ubWFlJywgJy1vbWFlJywgJ2xpZ2FuZF9wcmVwLm1hZScsICctbXMnLCAnMScsICctcGgnLCAnNycsICctcGh0JywgJzAuNScsICctbnQn

> <r_lp_tautomer_probability>
1

> <r_epik_Ionization_Penalty>
  0.0000

> <r_epik_Ionization_Penalty_Charging>
  0.0000

> <r_epik_Ionization_Penalty_Neutral>
  0.0000

> <r_epik_State_Penalty>
 -0.0000

> <r_epik_Charging_Adjusted_Penalty>
0

> <i_epik_Tot_Q>
0

> <i_epik_Tot_abs_Q>
0

$$$$
