3vrv_ligand
                    3D
 Schrodinger Suite 2020-3.
 79 81  0  0  1  0            999 V2000
   -9.6420   22.5300   -6.9780 C   0  0  0  0  0  0
  -10.1650   21.1290   -7.5020 C   0  0  0  0  0  0
  -11.5060   20.8100   -6.8370 C   0  0  0  0  0  0
  -11.3490   20.5300   -5.3350 C   0  0  0  0  0  0
  -10.2790   19.4850   -5.0740 C   0  0  0  0  0  0
  -12.0880   19.6180   -7.4050 O   0  0  0  0  0  0
  -12.3910   22.0500   -7.0570 C   0  0  0  0  0  0
  -13.6460   22.0690   -6.1880 C   0  0  0  0  0  0
  -14.7290   22.8540   -6.9630 C   0  0  1  0  0  0
  -15.4410   21.9700   -7.9930 C   0  0  0  0  0  0
  -15.7930   23.6150   -6.1420 C   0  0  1  0  0  0
  -16.3420   22.8420   -4.9190 C   0  0  0  0  0  0
  -16.9510   23.9150   -4.0030 C   0  0  0  0  0  0
  -16.7910   25.2040   -4.7700 C   0  0  2  0  0  0
  -15.4590   25.0220   -5.5280 C   0  0  1  0  0  0
  -14.2360   25.0060   -4.5880 C   0  0  0  0  0  0
  -15.3540   26.1890   -6.5660 C   0  0  0  0  0  0
  -15.5280   27.5990   -5.9110 C   0  0  0  0  0  0
  -16.7200   27.7260   -4.9170 C   0  0  0  0  0  0
  -16.7520   26.4860   -3.9780 C   0  0  3  0  0  0
  -16.8710   26.6120   -2.5580 C   0  0  0  0  0  0
  -16.7380   27.9140   -1.9530 C   0  0  0  0  0  0
  -16.5510   28.0340   -0.5500 C   0  0  0  0  0  0
  -16.3210   26.7800    0.3200 C   0  0  0  0  0  0
  -16.4270   29.4320    0.0440 C   0  0  0  0  0  0
  -17.0520   29.5850    1.4200 C   0  0  1  0  0  0
  -18.4780   29.5400    1.3270 O   0  0  0  0  0  0
  -16.5940   28.4090    2.2870 C   0  0  0  0  0  0
  -15.8950   28.6150    3.4610 C   0  0  0  0  0  0
  -16.9600   27.0200    1.7350 C   0  0  2  0  0  0
  -16.5060   26.1090    2.6320 O   0  0  0  0  0  0
   -8.6780   22.7628   -7.4539 H   0  0  0  0  0  0
   -9.5114   22.4877   -5.8866 H   0  0  0  0  0  0
  -10.3736   23.3119   -7.2298 H   0  0  0  0  0  0
  -10.2956   21.1713   -8.5934 H   0  0  0  0  0  0
   -9.4335   20.3470   -7.2503 H   0  0  0  0  0  0
  -11.0641   21.4576   -4.8169 H   0  0  0  0  0  0
  -12.3026   20.1614   -4.9291 H   0  0  0  0  0  0
  -10.1938   19.3099   -3.9914 H   0  0  0  0  0  0
   -9.3147   19.8421   -5.4647 H   0  0  0  0  0  0
  -10.5533   18.5459   -5.5769 H   0  0  0  0  0  0
  -11.5618   18.6556   -7.3217 H   0  0  0  0  0  0
  -11.8156   22.9575   -6.8218 H   0  0  0  0  0  0
  -12.7184   22.0853   -8.1065 H   0  0  0  0  0  0
  -13.9773   21.0371   -5.9997 H   0  0  0  0  0  0
  -13.4218   22.5625   -5.2308 H   0  0  0  0  0  0
  -14.1310   23.6375   -7.4514 H   0  0  0  0  0  0
  -14.6933   21.4219   -8.5850 H   0  0  0  0  0  0
  -16.0471   22.6002   -8.6605 H   0  0  0  0  0  0
  -16.0936   21.2535   -7.4726 H   0  0  0  0  0  0
  -16.4951   23.7200   -6.9822 H   0  0  0  0  0  0
  -17.1001   22.1183   -5.2528 H   0  0  0  0  0  0
  -15.5183   22.3076   -4.4230 H   0  0  0  0  0  0
  -18.0087   23.6790   -3.8147 H   0  0  0  0  0  0
  -16.4044   23.9356   -3.0486 H   0  0  0  0  0  0
  -17.7008   25.3460   -5.3718 H   0  0  0  0  0  0
  -14.3357   24.1781   -3.8707 H   0  0  0  0  0  0
  -14.1806   25.9594   -4.0422 H   0  0  0  0  0  0
  -13.3196   24.8691   -5.1809 H   0  0  0  0  0  0
  -14.3662   26.1622   -7.0492 H   0  0  0  0  0  0
  -16.1384   26.0732   -7.3285 H   0  0  0  0  0  0
  -14.6200   27.8550   -5.3453 H   0  0  0  0  0  0
  -15.6944   28.3504   -6.6969 H   0  0  0  0  0  0
  -16.5988   28.6379   -4.3138 H   0  0  0  0  0  0
  -17.6630   27.7818   -5.4805 H   0  0  0  0  0  0
  -16.3513   26.2189   -2.9890 H   0  0  0  0  0  0
  -17.8650   26.2634   -2.2410 H   0  0  0  0  0  0
  -16.0960   26.0031   -2.0696 H   0  0  0  0  0  0
  -16.7817   28.8159   -2.5812 H   0  0  0  0  0  0
  -16.7933   25.9097   -0.1591 H   0  0  0  0  0  0
  -15.2410   26.5995    0.4249 H   0  0  0  0  0  0
  -15.3636   29.6954    0.1429 H   0  0  0  0  0  0
  -16.9243   30.1568   -0.6173 H   0  0  0  0  0  0
  -16.8068   30.5672    1.8503 H   0  0  0  0  0  0
  -19.0155   30.3023    0.7439 H   0  0  0  0  0  0
  -15.6688   29.6387    3.7940 H   0  0  0  0  0  0
  -15.5647   27.7553    4.0625 H   0  0  0  0  0  0
  -18.0454   26.8429    1.7097 H   0  0  0  0  0  0
  -16.6550   25.0347    2.4483 H   0  0  0  0  0  0
  1  2  1  0  0  0
  1 32  1  0  0  0
  1 33  1  0  0  0
  1 34  1  0  0  0
  2  3  1  0  0  0
  2 35  1  0  0  0
  2 36  1  0  0  0
  3  4  1  0  0  0
  3  6  1  0  0  0
  3  7  1  0  0  0
  4  5  1  0  0  0
  4 37  1  0  0  0
  4 38  1  0  0  0
  5 39  1  0  0  0
  5 40  1  0  0  0
  5 41  1  0  0  0
  6 42  1  0  0  0
  7  8  1  0  0  0
  7 43  1  0  0  0
  7 44  1  0  0  0
  8  9  1  0  0  0
  8 45  1  0  0  0
  8 46  1  0  0  0
  9 10  1  0  0  0
  9 11  1  0  0  0
  9 47  1  0  0  0
 10 48  1  0  0  0
 10 49  1  0  0  0
 10 50  1  0  0  0
 11 12  1  0  0  0
 11 15  1  0  0  0
 11 51  1  0  0  0
 12 13  1  0  0  0
 12 52  1  0  0  0
 12 53  1  0  0  0
 13 14  1  0  0  0
 13 54  1  0  0  0
 13 55  1  0  0  0
 14 15  1  0  0  0
 14 20  1  0  0  0
 14 56  1  0  0  0
 15 16  1  0  0  0
 15 17  1  0  0  0
 16 57  1  0  0  0
 16 58  1  0  0  0
 16 59  1  0  0  0
 17 18  1  0  0  0
 17 60  1  0  0  0
 17 61  1  0  0  0
 18 19  1  0  0  0
 18 62  1  0  0  0
 18 63  1  0  0  0
 19 20  1  0  0  0
 19 64  1  0  0  0
 19 65  1  0  0  0
 20 21  1  0  0  0
 20 66  1  0  0  0
 21 22  1  0  0  0
 21 67  1  0  0  0
 21 68  1  0  0  0
 22 23  2  0  0  0
 22 69  1  0  0  0
 23 24  1  0  0  0
 23 25  1  0  0  0
 24 30  1  0  0  0
 24 70  1  0  0  0
 24 71  1  0  0  0
 25 26  1  0  0  0
 25 72  1  0  0  0
 25 73  1  0  0  0
 26 27  1  0  0  0
 26 28  1  0  0  0
 26 74  1  0  0  0
 27 75  1  0  0  0
 28 29  2  0  0  0
 28 30  1  0  0  0
 29 76  1  0  0  0
 29 77  1  0  0  0
 30 31  1  0  0  0
 30 78  1  0  0  0
 31 79  1  0  0  0
M  END
> <s_m_source_file>
../3vrv_ligand.sdf

> <i_m_source_file_index>
1

> <s_epik_input>
W0NIM11bQ0gyXUMoW09IXSkoW0NIMl1bQ0gzXSlbQ0gyXVtDSDJdW0NAQEhdKFtDSDNdKVtDQEhdMVtDSDJdW0NIMl1bQ0BIXShbQ0BAXTEyW0NIM10pW0NIXShbQ0gyXVtDSDJdW0NIMl0yKVtDSDJdW0NIXT1DM1tDSDJdW0NAQEhdKFtPSF0pQyg9W0NIMl0pW0NAQEhdKFtDSDJdMylbT0hd

> <s_epik_cmdline>
J2VwaWtfYXBwJywgJy1pbWFlJywgJ2xpZ2FuZF9wcm8ubWFlJywgJy1vbWFlJywgJ2xpZ2FuZF9wcmVwLm1hZScsICctbXMnLCAnMScsICctcGgnLCAnNycsICctcGh0JywgJzAuNScsICctbnQn

> <r_lp_tautomer_probability>
1

> <r_epik_Ionization_Penalty>
  0.0000

> <r_epik_Ionization_Penalty_Charging>
  0.0000

> <r_epik_Ionization_Penalty_Neutral>
  0.0000

> <r_epik_State_Penalty>
 -0.0000

> <r_epik_Charging_Adjusted_Penalty>
0

> <i_epik_Tot_Q>
0

> <i_epik_Tot_abs_Q>
0

$$$$
