3vrw_ligand
                    3D
 Schrodinger Suite 2020-3.
 91 93  0  0  1  0            999 V2000
  -16.5250   29.6780    0.2300 C   0  0  0  0  0  0
  -17.0580   29.7140    1.6800 C   0  0  1  0  0  0
  -18.4610   29.8360    1.6620 O   0  0  0  0  0  0
  -16.6680   28.5780    2.3940 C   0  0  0  0  0  0
  -16.0210   28.7190    3.6310 C   0  0  0  0  0  0
  -16.8740   27.3260    1.8350 C   0  0  2  0  0  0
  -16.3680   26.3250    2.7020 O   0  0  0  0  0  0
  -16.1550   27.2480    0.4500 C   0  0  0  0  0  0
  -16.4620   28.3970   -0.3480 C   0  0  0  0  0  0
  -16.8280   28.2850   -1.6890 C   0  0  0  0  0  0
  -16.2930   27.0360   -2.4250 C   0  0  0  0  0  0
  -16.6050   26.8300   -3.7790 C   0  0  1  0  0  0
  -16.7910   27.9200   -4.6130 C   0  0  0  0  0  0
  -15.6380   28.0100   -5.6040 C   0  0  0  0  0  0
  -15.2180   26.6400   -6.2040 C   0  0  0  0  0  0
  -15.1000   25.5780   -5.1480 C   0  0  1  0  0  0
  -13.8870   25.8920   -4.1980 C   0  0  0  0  0  0
  -16.4550   25.5880   -4.4750 C   0  0  1  0  0  0
  -16.5070   24.2850   -3.6850 C   0  0  0  0  0  0
  -15.5660   23.3010   -4.4870 C   0  0  0  0  0  0
  -15.0380   24.1140   -5.6900 C   0  0  2  0  0  0
  -13.6200   23.6140   -6.1570 C   0  0  2  0  0  0
  -13.1000   24.4760   -7.3190 C   0  0  0  0  0  0
  -13.5890   22.1300   -6.6340 C   0  0  2  0  0  0
  -12.1300   21.6790   -6.9640 C   0  0  0  0  0  0
  -11.7340   20.2500   -6.5280 C   0  0  0  0  0  0
  -10.2080   20.1110   -6.5340 C   0  0  0  0  0  0
   -9.5530   21.4420   -6.1500 C   0  0  0  0  0  0
  -12.1730   19.2780   -7.4570 O   0  0  0  0  0  0
  -12.3200   19.9320   -5.1360 C   0  0  0  0  0  0
  -11.7910   18.5850   -4.6030 C   0  0  0  0  0  0
  -14.4220   21.9400   -7.8930 C   0  0  0  0  0  0
  -15.8900   22.0360   -7.5260 C   0  0  0  0  0  0
  -16.7760   21.3960   -8.6000 C   0  0  0  0  0  0
  -17.8020   20.5860   -7.8100 C   0  0  0  0  0  0
  -17.1779   30.2835   -0.4158 H   0  0  0  0  0  0
  -15.5038   30.0860    0.2045 H   0  0  0  0  0  0
  -16.6751   30.5516    2.2815 H   0  0  0  0  0  0
  -18.9330   30.6808    1.1389 H   0  0  0  0  0  0
  -15.8660   29.7201    4.0597 H   0  0  0  0  0  0
  -15.6688   27.8284    4.1721 H   0  0  0  0  0  0
  -17.9656   27.1940    1.8037 H   0  0  0  0  0  0
  -16.7623   26.2326    3.7247 H   0  0  0  0  0  0
  -15.0667   27.2037    0.6038 H   0  0  0  0  0  0
  -16.4866   26.3459   -0.0850 H   0  0  0  0  0  0
  -17.4578   29.0579   -2.1536 H   0  0  0  0  0  0
  -15.1932   27.0411   -2.4040 H   0  0  0  0  0  0
  -16.6650   26.1290   -1.9261 H   0  0  0  0  0  0
  -17.5201   26.6510   -3.1955 H   0  0  0  0  0  0
  -17.7365   27.8037   -5.1629 H   0  0  0  0  0  0
  -16.8276   28.8401   -4.0113 H   0  0  0  0  0  0
  -15.9262   28.6594   -6.4438 H   0  0  0  0  0  0
  -14.7546   28.4307   -5.1015 H   0  0  0  0  0  0
  -15.9708   26.3145   -6.9370 H   0  0  0  0  0  0
  -14.2420   26.7411   -6.7011 H   0  0  0  0  0  0
  -13.9631   26.9281   -3.8364 H   0  0  0  0  0  0
  -12.9451   25.7652   -4.7519 H   0  0  0  0  0  0
  -13.9042   25.2024   -3.3412 H   0  0  0  0  0  0
  -17.3529   25.6433   -5.1081 H   0  0  0  0  0  0
  -16.1414   24.4613   -2.6626 H   0  0  0  0  0  0
  -17.5443   23.9211   -3.6458 H   0  0  0  0  0  0
  -14.7432   22.9691   -3.8368 H   0  0  0  0  0  0
  -16.1464   22.4274   -4.8187 H   0  0  0  0  0  0
  -15.6332   24.0055   -6.6087 H   0  0  0  0  0  0
  -12.9681   23.7057   -5.2758 H   0  0  0  0  0  0
  -13.1062   25.5349   -7.0213 H   0  0  0  0  0  0
  -13.7486   24.3380   -8.1967 H   0  0  0  0  0  0
  -12.0732   24.1717   -7.5703 H   0  0  0  0  0  0
  -14.0205   21.5187   -5.8277 H   0  0  0  0  0  0
  -11.9722   21.7155   -8.0520 H   0  0  0  0  0  0
  -11.4166   22.3530   -6.4672 H   0  0  0  0  0  0
   -9.9072   19.3399   -5.8095 H   0  0  0  0  0  0
   -9.8702   19.8208   -7.5398 H   0  0  0  0  0  0
   -8.4589   21.3281   -6.1583 H   0  0  0  0  0  0
   -9.8834   21.7362   -5.1429 H   0  0  0  0  0  0
   -9.8464   22.2172   -6.8732 H   0  0  0  0  0  0
  -11.8557   19.3393   -8.5085 H   0  0  0  0  0  0
  -12.0361   20.7252   -4.4287 H   0  0  0  0  0  0
  -13.4165   19.8764   -5.2037 H   0  0  0  0  0  0
  -12.2254   18.3867   -3.6121 H   0  0  0  0  0  0
  -10.6949   18.6282   -4.5209 H   0  0  0  0  0  0
  -12.0753   17.7794   -5.2959 H   0  0  0  0  0  0
  -14.1679   22.7232   -8.6224 H   0  0  0  0  0  0
  -14.2100   20.9518   -8.3273 H   0  0  0  0  0  0
  -16.0645   21.5153   -6.5729 H   0  0  0  0  0  0
  -16.1739   23.0938   -7.4232 H   0  0  0  0  0  0
  -17.2498   22.1850   -9.2024 H   0  0  0  0  0  0
  -16.1603   20.7578   -9.2508 H   0  0  0  0  0  0
  -18.4893   20.0849   -8.5075 H   0  0  0  0  0  0
  -18.3726   21.2585   -7.1526 H   0  0  0  0  0  0
  -17.2830   19.8312   -7.2009 H   0  0  0  0  0  0
  1  2  1  0  0  0
  1  9  1  0  0  0
  1 36  1  0  0  0
  1 37  1  0  0  0
  2  3  1  0  0  0
  2  4  1  0  0  0
  2 38  1  0  0  0
  3 39  1  0  0  0
  4  5  2  0  0  0
  4  6  1  0  0  0
  5 40  1  0  0  0
  5 41  1  0  0  0
  6  7  1  0  0  0
  6  8  1  0  0  0
  6 42  1  0  0  0
  7 43  1  0  0  0
  8  9  1  0  0  0
  8 44  1  0  0  0
  8 45  1  0  0  0
  9 10  2  0  0  0
 10 11  1  0  0  0
 10 46  1  0  0  0
 11 12  1  0  0  0
 11 47  1  0  0  0
 11 48  1  0  0  0
 12 13  1  0  0  0
 12 18  1  0  0  0
 12 49  1  0  0  0
 13 14  1  0  0  0
 13 50  1  0  0  0
 13 51  1  0  0  0
 14 15  1  0  0  0
 14 52  1  0  0  0
 14 53  1  0  0  0
 15 16  1  0  0  0
 15 54  1  0  0  0
 15 55  1  0  0  0
 16 17  1  0  0  0
 16 18  1  0  0  0
 16 21  1  0  0  0
 17 56  1  0  0  0
 17 57  1  0  0  0
 17 58  1  0  0  0
 18 19  1  0  0  0
 18 59  1  0  0  0
 19 20  1  0  0  0
 19 60  1  0  0  0
 19 61  1  0  0  0
 20 21  1  0  0  0
 20 62  1  0  0  0
 20 63  1  0  0  0
 21 22  1  0  0  0
 21 64  1  0  0  0
 22 23  1  0  0  0
 22 24  1  0  0  0
 22 65  1  0  0  0
 23 66  1  0  0  0
 23 67  1  0  0  0
 23 68  1  0  0  0
 24 25  1  0  0  0
 24 32  1  0  0  0
 24 69  1  0  0  0
 25 26  1  0  0  0
 25 70  1  0  0  0
 25 71  1  0  0  0
 26 27  1  0  0  0
 26 29  1  0  0  0
 26 30  1  0  0  0
 27 28  1  0  0  0
 27 72  1  0  0  0
 27 73  1  0  0  0
 28 74  1  0  0  0
 28 75  1  0  0  0
 28 76  1  0  0  0
 29 77  1  0  0  0
 30 31  1  0  0  0
 30 78  1  0  0  0
 30 79  1  0  0  0
 31 80  1  0  0  0
 31 81  1  0  0  0
 31 82  1  0  0  0
 32 33  1  0  0  0
 32 83  1  0  0  0
 32 84  1  0  0  0
 33 34  1  0  0  0
 33 85  1  0  0  0
 33 86  1  0  0  0
 34 35  1  0  0  0
 34 87  1  0  0  0
 34 88  1  0  0  0
 35 89  1  0  0  0
 35 90  1  0  0  0
 35 91  1  0  0  0
M  END
> <s_m_source_file>
../3vrw_ligand.sdf

> <i_m_source_file_index>
1

> <s_epik_input>
W0NIMl09QzFbQ0BIXShbT0hdKVtDSDJdQyhbQ0gyXVtDQEhdMVtPSF0pPVtDSF1bQ0gyXVtDQEBIXShbQ0gyXVtDSDJdW0NIMl0yKVtDQEBIXShbQ0BdMjNbQ0gzXSlbQ0gyXVtDSDJdW0NAQEhdM1tDQEhdKFtDSDNdKVtDQEhdKFtDSDJdQyhbT0hdKShbQ0gyXVtDSDNdKVtDSDJdW0NIM10pW0NIMl1bQ0gyXVtDSDJdW0NIM10=

> <s_epik_cmdline>
J2VwaWtfYXBwJywgJy1pbWFlJywgJ2xpZ2FuZF9wcm8ubWFlJywgJy1vbWFlJywgJ2xpZ2FuZF9wcmVwLm1hZScsICctbXMnLCAnMScsICctcGgnLCAnNycsICctcGh0JywgJzAuNScsICctbnQn

> <r_lp_tautomer_probability>
1

> <r_epik_Ionization_Penalty>
  0.0000

> <r_epik_Ionization_Penalty_Charging>
  0.0000

> <r_epik_Ionization_Penalty_Neutral>
  0.0000

> <r_epik_State_Penalty>
 -0.0000

> <r_epik_Charging_Adjusted_Penalty>
0

> <i_epik_Tot_Q>
0

> <i_epik_Tot_abs_Q>
0

$$$$
