3vs3_ligand
                    3D
 Schrodinger Suite 2020-3.
 71 76  0  0  1  0            999 V2000
    0.7620    2.2500   13.0380 N   0  0  0  0  0  0
   -0.0460    3.3260   12.9360 C   0  0  0  0  0  0
    0.4600    4.6200   13.0450 C   0  0  0  0  0  0
    1.7170    5.1730   13.2820 C   0  0  0  0  0  0
    3.0740    4.5740   13.4400 C   0  0  0  0  0  0
    3.9480    5.0830   14.3990 C   0  0  0  0  0  0
    5.2330    4.5610   14.5230 C   0  0  0  0  0  0
    5.6460    3.5430   13.6720 C   0  0  0  0  0  0
    6.9060    3.0120   13.7580 O   0  0  0  0  0  0
    7.4570    2.6040   14.9420 C   0  0  0  0  0  0
    8.7190    3.0670   15.2960 C   0  0  0  0  0  0
    9.3030    2.6540   16.4860 C   0  0  0  0  0  0
    8.6320    1.7690   17.3230 C   0  0  0  0  0  0
    7.3740    1.2990   16.9630 C   0  0  0  0  0  0
    6.7860    1.7110   15.7690 C   0  0  0  0  0  0
    4.7840    3.0640   12.6930 C   0  0  0  0  0  0
    3.5010    3.5860   12.5690 C   0  0  0  0  0  0
    1.5460    6.5380   13.2800 C   0  0  0  0  0  0
    0.2630    6.8350   13.0800 N   0  0  0  0  0  0
   -0.4290    5.6920   12.9480 C   0  0  0  0  0  0
   -1.7440    5.4400   12.7320 N   0  0  0  0  0  0
   -2.1970    4.1830   12.6220 C   0  0  0  0  0  0
   -1.3690    3.1350   12.7240 N   0  0  0  0  0  0
   -0.2030    8.2500   13.0670 C   0  0  2  0  0  0
   -1.3920    8.5180   13.9860 C   0  0  0  0  0  0
   -1.5980   10.0280   14.0670 C   0  0  0  0  0  0
   -1.8750   10.5860   12.6710 C   0  0  2  0  0  0
   -0.7150   10.2600   11.7330 C   0  0  0  0  0  0
   -0.4890    8.7560   11.6600 C   0  0  0  0  0  0
   -1.8870   12.0430   12.7400 N   0  3  2  0  0  0
   -2.8870   12.7020   11.9150 C   0  0  0  0  0  0
   -2.5270   14.1790   11.9520 C   0  0  0  0  0  0
   -2.5090   14.5130   13.3640 N   0  0  3  0  0  0
   -3.4560   15.5050   13.8500 C   0  0  0  0  0  0
   -1.5530   13.8990   14.2810 C   0  0  0  0  0  0
   -0.9040   12.6940   13.5990 C   0  0  0  0  0  0
    1.8399    2.3860   13.2103 H   0  0  0  0  0  0
    0.3427    1.2369   12.9489 H   0  0  0  0  0  0
    3.6247    5.8921   15.0539 H   0  0  0  0  0  0
    5.9111    4.9487   15.2833 H   0  0  0  0  0  0
    9.2507    3.7550   14.6387 H   0  0  0  0  0  0
   10.2896    3.0242   16.7648 H   0  0  0  0  0  0
    9.0904    1.4452   18.2574 H   0  0  0  0  0  0
    6.8458    0.6056   17.6174 H   0  0  0  0  0  0
    5.8035    1.3344   15.4845 H   0  0  0  0  0  0
    5.1154    2.2746   12.0184 H   0  0  0  0  0  0
    2.8340    3.2187   11.7890 H   0  0  0  0  0  0
    2.3426    7.2685   13.4212 H   0  0  0  0  0  0
   -3.2588    4.0106   12.4463 H   0  0  0  0  0  0
    0.6599    8.7982   13.4732 H   0  0  0  0  0  0
   -2.2901    8.0346   13.5740 H   0  0  0  0  0  0
   -1.1820    8.1101   14.9857 H   0  0  0  0  0  0
   -2.4532   10.2467   14.7233 H   0  0  0  0  0  0
   -0.6923   10.5003   14.4753 H   0  0  0  0  0  0
   -2.8403   10.1978   12.3140 H   0  0  0  0  0  0
   -0.9427   10.6348   10.7242 H   0  0  0  0  0  0
    0.2026   10.7400   12.1040 H   0  0  0  0  0  0
    0.3692    8.5335   11.0089 H   0  0  0  0  0  0
   -1.3869    8.2572   11.2664 H   0  0  0  0  0  0
   -1.1699   12.0884   11.9071 H   0  0  0  0  0  0
   -2.8405   12.3008   10.8918 H   0  0  0  0  0  0
   -3.8871   12.5197   12.3352 H   0  0  0  0  0  0
   -1.5436   14.3286   11.4824 H   0  0  0  0  0  0
   -3.2866   14.7554   11.4036 H   0  0  0  0  0  0
   -4.0874   15.8480   13.0172 H   0  0  0  0  0  0
   -2.9073   16.3605   14.2706 H   0  0  0  0  0  0
   -4.0892   15.0564   14.6296 H   0  0  0  0  0  0
   -0.7785   14.6328   14.5487 H   0  0  0  0  0  0
   -2.0767   13.5703   15.1907 H   0  0  0  0  0  0
   -0.5545   11.9820   14.3612 H   0  0  0  0  0  0
   -0.0505   13.0289   12.9912 H   0  0  0  0  0  0
  1  2  1  0  0  0
  1 37  1  0  0  0
  1 38  1  0  0  0
  2  3  2  0  0  0
  2 23  1  0  0  0
  3  4  1  0  0  0
  3 20  1  0  0  0
  4  5  1  0  0  0
  4 18  2  0  0  0
  5  6  2  0  0  0
  5 17  1  0  0  0
  6  7  1  0  0  0
  6 39  1  0  0  0
  7  8  2  0  0  0
  7 40  1  0  0  0
  8  9  1  0  0  0
  8 16  1  0  0  0
  9 10  1  0  0  0
 10 11  2  0  0  0
 10 15  1  0  0  0
 11 12  1  0  0  0
 11 41  1  0  0  0
 12 13  2  0  0  0
 12 42  1  0  0  0
 13 14  1  0  0  0
 13 43  1  0  0  0
 14 15  2  0  0  0
 14 44  1  0  0  0
 15 45  1  0  0  0
 16 17  2  0  0  0
 16 46  1  0  0  0
 17 47  1  0  0  0
 18 19  1  0  0  0
 18 48  1  0  0  0
 19 20  1  0  0  0
 19 24  1  0  0  0
 20 21  2  0  0  0
 21 22  1  0  0  0
 22 23  2  0  0  0
 22 49  1  0  0  0
 24 25  1  0  0  0
 24 29  1  0  0  0
 24 50  1  0  0  0
 25 26  1  0  0  0
 25 51  1  0  0  0
 25 52  1  0  0  0
 26 27  1  0  0  0
 26 53  1  0  0  0
 26 54  1  0  0  0
 27 28  1  0  0  0
 27 30  1  0  0  0
 27 55  1  0  0  0
 28 29  1  0  0  0
 28 56  1  0  0  0
 28 57  1  0  0  0
 29 58  1  0  0  0
 29 59  1  0  0  0
 30 31  1  0  0  0
 30 36  1  0  0  0
 30 60  1  0  0  0
 31 32  1  0  0  0
 31 61  1  0  0  0
 31 62  1  0  0  0
 32 33  1  0  0  0
 32 63  1  0  0  0
 32 64  1  0  0  0
 33 34  1  0  0  0
 33 35  1  0  0  0
 34 65  1  0  0  0
 34 66  1  0  0  0
 34 67  1  0  0  0
 35 36  1  0  0  0
 35 68  1  0  0  0
 35 69  1  0  0  0
 36 70  1  0  0  0
 36 71  1  0  0  0
M  CHG  1  30   1
M  END
> <s_m_source_file>
../3vs3_ligand.sdf

> <i_m_source_file_index>
1

> <s_epik_input>
W0NIMl0xW0NIMl1bTkgrXShbQ0gzXSlbQ0gyXVtDSDJdW05ASCtdMVtDQEBIXShbQ0gyXVtDSDJdMilbQ0gyXVtDSDJdW0NASF0ybihjKGMzNCluW2NIXW5jM1tOSDJdKVtjSF1jNC1jNVtjSF1bY0hdYyhbY0hdW2NIXTUpT2M2W2NIXVtjSF1bY0hdW2NIXVtjSF02

> <s_epik_cmdline>
J2VwaWtfYXBwJywgJy1pbWFlJywgJ2xpZ2FuZF9wcm8ubWFlJywgJy1vbWFlJywgJ2xpZ2FuZF9wcmVwLm1hZScsICctbXMnLCAnMScsICctcGgnLCAnNycsICctcGh0JywgJzAuNScsICctbnQn

> <r_lp_tautomer_probability>
1

> <r_epik_Ionization_Penalty>
  0.0074

> <r_epik_Ionization_Penalty_Charging>
  0.0007

> <r_epik_Ionization_Penalty_Neutral>
  0.0067

> <r_epik_State_Penalty>
 -0.0000

> <r_epik_Charging_Adjusted_Penalty>
0.000698231749577511

> <i_epik_Tot_Q>
1

> <i_epik_Tot_abs_Q>
1

$$$$
