3vsw_ligand
                    3D
 Schrodinger Suite 2020-3.
 87 88  0  0  1  0            999 V2000
  176.5800  198.7880   97.1730 C   0  0  0  0  0  0
  177.8080  199.3830   96.6860 N   0  0  2  0  0  0
  178.3310  198.9100   95.4420 C   0  0  0  0  0  0
  177.2820  198.9760   94.3060 C   0  0  0  0  0  0
  175.9920  198.3630   94.7180 N   0  0  0  0  0  0
  175.5790  198.4560   96.0430 C   0  0  0  0  0  0
  175.2060  197.7210   93.7900 C   0  0  0  0  0  0
  174.4500  198.4750   92.8700 C   0  0  0  0  0  0
  173.5990  197.8190   91.9430 C   0  0  0  0  0  0
  173.4130  196.4010   92.0510 C   0  0  0  0  0  0
  174.2030  195.6480   92.9510 C   0  0  0  0  0  0
  175.1480  196.3080   93.7650 C   0  0  0  0  0  0
  174.5050  199.8160   92.8560 O   0  0  0  0  0  0
  174.8110  200.6770   91.8000 C   0  0  0  0  0  0
  175.4900  201.9500   92.3220 C   0  0  0  0  0  0
  175.6610  202.9240   91.1530 C   0  0  0  0  0  0
  176.9660  202.8150   90.6200 O   0  0  0  0  0  0
  177.4200  204.0990   90.2380 C   0  0  0  0  0  0
  178.7000  199.9980   97.6170 C   0  0  0  0  0  0
  178.1020  201.1680   98.4370 C   0  0  1  0  0  0
  178.8050  201.3100   99.8230 C   0  0  2  0  0  0
  178.2790  202.4010   97.6550 N   0  3  0  0  0  0
  178.0570  202.2010  100.8490 C   0  0  0  0  0  0
  180.1060  201.8390   99.6330 O   0  0  0  0  0  0
  178.7280  202.6910  102.1670 C   0  0  2  0  0  0
  179.1150  201.4750  103.0320 C   0  0  0  0  0  0
  180.3890  201.1080  103.2090 N   0  0  0  0  0  0
  178.2230  200.8050  103.5710 O   0  0  0  0  0  0
  177.8910  203.7810  102.9520 C   0  0  0  0  0  0
  180.7950  199.7620  103.6290 C   0  0  0  0  0  0
  181.4990  199.6380  104.9890 C   0  0  0  0  0  0
  182.5280  200.8040  105.0580 C   0  0  0  0  0  0
  183.6160  200.7610  104.2380 N   0  0  0  0  0  0
  180.4810  199.7660  106.1580 C   0  0  0  0  0  0
  182.2980  198.3020  105.1040 C   0  0  0  0  0  0
  182.3520  201.7530  105.8150 O   0  0  0  0  0  0
  178.5950  204.3260  104.2460 C   0  0  0  0  0  0
  177.3000  204.9630  102.1520 C   0  0  0  0  0  0
  174.4290  198.2580   96.3830 O   0  0  0  0  0  0
  176.8107  197.8507   97.7004 H   0  0  0  0  0  0
  176.0837  199.4851   97.8642 H   0  0  0  0  0  0
  179.1929  199.5271   95.1483 H   0  0  0  0  0  0
  178.6503  197.8632   95.5527 H   0  0  0  0  0  0
  177.0977  200.0267   94.0377 H   0  0  0  0  0  0
  177.6594  198.4338   93.4264 H   0  0  0  0  0  0
  173.0939  198.3847   91.1601 H   0  0  0  0  0  0
  172.6616  195.9027   91.4385 H   0  0  0  0  0  0
  174.0827  194.5666   93.0152 H   0  0  0  0  0  0
  175.8367  195.7260   94.3775 H   0  0  0  0  0  0
  175.4920  200.1709   91.0999 H   0  0  0  0  0  0
  173.8858  200.9560   91.2745 H   0  0  0  0  0  0
  174.8631  202.4064   93.1022 H   0  0  0  0  0  0
  176.4730  201.6944   92.7445 H   0  0  0  0  0  0
  174.9283  202.6865   90.3677 H   0  0  0  0  0  0
  175.4991  203.9530   91.5064 H   0  0  0  0  0  0
  178.4354  204.0202   89.8224 H   0  0  0  0  0  0
  177.4340  204.7596   91.1174 H   0  0  0  0  0  0
  176.7437  204.5157   89.4771 H   0  0  0  0  0  0
  179.0416  199.2493   98.3469 H   0  0  0  0  0  0
  179.5674  200.4072   97.0783 H   0  0  0  0  0  0
  177.0237  201.0184   98.5946 H   0  0  0  0  0  0
  178.9229  200.3054  100.2553 H   0  0  0  0  0  0
  177.7806  202.2918   96.6805 H   0  0  0  0  0  0
  179.3522  202.5856   97.4994 H   0  0  0  0  0  0
  177.8366  203.2477   98.2003 H   0  0  0  0  0  0
  177.7539  203.1415  100.3656 H   0  0  0  0  0  0
  177.1641  201.6712  101.2125 H   0  0  0  0  0  0
  180.8030  201.3485   98.9376 H   0  0  0  0  0  0
  179.6611  203.2038  101.8906 H   0  0  0  0  0  0
  181.1509  201.8790  103.0218 H   0  0  0  0  0  0
  177.0056  203.1873  103.2232 H   0  0  0  0  0  0
  179.9076  199.1154  103.6956 H   0  0  0  0  0  0
  181.4982  199.3448  102.8932 H   0  0  0  0  0  0
  183.7629  199.9045  103.5635 H   0  0  0  0  0  0
  184.3471  201.5828  104.2507 H   0  0  0  0  0  0
  179.9280  200.7119  106.0607 H   0  0  0  0  0  0
  181.0202  199.7534  107.1167 H   0  0  0  0  0  0
  179.7750  198.9232  106.1233 H   0  0  0  0  0  0
  183.0119  198.2288  104.2703 H   0  0  0  0  0  0
  181.6000  197.4528  105.0646 H   0  0  0  0  0  0
  182.8452  198.2830  106.0581 H   0  0  0  0  0  0
  179.0161  203.4849  104.8162 H   0  0  0  0  0  0
  177.8595  204.8583  104.8670 H   0  0  0  0  0  0
  179.4024  205.0165  103.9609 H   0  0  0  0  0  0
  176.8068  204.5821  101.2456 H   0  0  0  0  0  0
  178.1077  205.6534  101.8674 H   0  0  0  0  0  0
  176.5647  205.4952  102.7734 H   0  0  0  0  0  0
  1  2  1  0  0  0
  1  6  1  0  0  0
  1 40  1  0  0  0
  1 41  1  0  0  0
  2  3  1  0  0  0
  2 19  1  0  0  0
  3  4  1  0  0  0
  3 42  1  0  0  0
  3 43  1  0  0  0
  4  5  1  0  0  0
  4 44  1  0  0  0
  4 45  1  0  0  0
  5  6  1  0  0  0
  5  7  1  0  0  0
  6 39  2  0  0  0
  7  8  2  0  0  0
  7 12  1  0  0  0
  8  9  1  0  0  0
  8 13  1  0  0  0
  9 10  2  0  0  0
  9 46  1  0  0  0
 10 11  1  0  0  0
 10 47  1  0  0  0
 11 12  2  0  0  0
 11 48  1  0  0  0
 12 49  1  0  0  0
 13 14  1  0  0  0
 14 15  1  0  0  0
 14 50  1  0  0  0
 14 51  1  0  0  0
 15 16  1  0  0  0
 15 52  1  0  0  0
 15 53  1  0  0  0
 16 17  1  0  0  0
 16 54  1  0  0  0
 16 55  1  0  0  0
 17 18  1  0  0  0
 18 56  1  0  0  0
 18 57  1  0  0  0
 18 58  1  0  0  0
 19 20  1  0  0  0
 19 59  1  0  0  0
 19 60  1  0  0  0
 20 21  1  0  0  0
 20 22  1  0  0  0
 20 61  1  0  0  0
 21 23  1  0  0  0
 21 24  1  0  0  0
 21 62  1  0  0  0
 22 63  1  0  0  0
 22 64  1  0  0  0
 22 65  1  0  0  0
 23 25  1  0  0  0
 23 66  1  0  0  0
 23 67  1  0  0  0
 24 68  1  0  0  0
 25 26  1  0  0  0
 25 29  1  0  0  0
 25 69  1  0  0  0
 26 27  1  0  0  0
 26 28  2  0  0  0
 27 30  1  0  0  0
 27 70  1  0  0  0
 29 37  1  0  0  0
 29 38  1  0  0  0
 29 71  1  0  0  0
 30 31  1  0  0  0
 30 72  1  0  0  0
 30 73  1  0  0  0
 31 32  1  0  0  0
 31 34  1  0  0  0
 31 35  1  0  0  0
 32 33  1  0  0  0
 32 36  2  0  0  0
 33 74  1  0  0  0
 33 75  1  0  0  0
 34 76  1  0  0  0
 34 77  1  0  0  0
 34 78  1  0  0  0
 35 79  1  0  0  0
 35 80  1  0  0  0
 35 81  1  0  0  0
 37 82  1  0  0  0
 37 83  1  0  0  0
 37 84  1  0  0  0
 38 85  1  0  0  0
 38 86  1  0  0  0
 38 87  1  0  0  0
M  CHG  1  22   1
M  END
> <s_m_source_file>
../3vsw_ligand.sdf

> <i_m_source_file_index>
1

> <s_epik_input>
W0NIM11PW0NIMl1bQ0gyXVtDSDJdT2MoW2NIXVtjSF1bY0hdW2NIXTEpYzFOKFtDSDJdW0NIMl0yKUMoPU8pW0NIMl1bTkBIK10yW0NIMl1bQ0BIXShbTkgzK10pW0NAQEhdKFtPSF0pW0NIMl1bQ0BASF0oW0NIXShbQ0gzXSlbQ0gzXSlDKD1PKVtOSF1bQ0gyXUMoW0NIM10pKFtDSDNdKUMoPU8pW05IMl0=

> <s_epik_cmdline>
J2VwaWtfYXBwJywgJy1pbWFlJywgJ2xpZ2FuZF9wcm8ubWFlJywgJy1vbWFlJywgJ2xpZ2FuZF9wcmVwLm1hZScsICctbXMnLCAnMScsICctcGgnLCAnNycsICctcGh0JywgJzAuNScsICctbnQn

> <r_lp_tautomer_probability>
1

> <r_epik_Ionization_Penalty>
  0.0352

> <r_epik_Ionization_Penalty_Charging>
  0.0352

> <r_epik_Ionization_Penalty_Neutral>
  0.0000

> <r_epik_State_Penalty>
 -0.0000

> <r_epik_Charging_Adjusted_Penalty>
0.0351733797709418

> <i_epik_Tot_Q>
1

> <i_epik_Tot_abs_Q>
1

$$$$
