3vsx_ligand
                    3D
 Schrodinger Suite 2020-3.
 79 80  0  0  1  0            999 V2000
  -57.8350 -161.0780 -136.4860 C   0  0  0  0  0  0
  -58.6460 -160.1120 -137.0690 C   0  0  0  0  0  0
  -58.4240 -158.7820 -136.7620 C   0  0  0  0  0  0
  -57.4240 -158.3830 -135.8940 C   0  0  0  0  0  0
  -56.6160 -159.3520 -135.3140 C   0  0  0  0  0  0
  -56.8220 -160.6960 -135.6090 C   0  0  0  0  0  0
  -59.6490 -160.5270 -137.9380 N   0  0  0  0  0  0
  -59.4290 -157.5770 -137.4820 Cl  0  0  0  0  0  0
  -59.2840 -160.9690 -139.2940 C   0  0  0  0  0  0
  -60.3800 -160.7780 -140.3220 C   0  0  0  0  0  0
  -61.5950 -161.3790 -139.7860 N   0  0  1  0  0  0
  -62.0480 -160.9650 -138.4740 C   0  0  0  0  0  0
  -60.9550 -160.5090 -137.4980 C   0  0  0  0  0  0
  -61.2720 -160.1480 -136.3770 O   0  0  0  0  0  0
  -59.9840 -161.4680 -141.6310 C   0  0  0  0  0  0
  -60.5950 -159.2860 -140.5820 C   0  0  0  0  0  0
  -62.6280 -161.8180 -140.7110 C   0  0  0  0  0  0
  -63.4310 -162.9940 -140.1430 C   0  0  1  0  0  0
  -64.8040 -163.1380 -140.8010 C   0  0  2  0  0  0
  -65.7890 -164.0050 -139.9990 C   0  0  0  0  0  0
  -67.1100 -164.2380 -140.7550 C   0  0  2  0  0  0
  -67.8180 -162.8900 -140.9850 C   0  0  0  0  0  0
  -67.9450 -162.5830 -142.2890 N   0  0  0  0  0  0
  -68.5920 -161.3300 -142.6170 C   0  0  0  0  0  0
  -69.8710 -161.5980 -143.4170 C   0  0  0  0  0  0
  -62.6670 -164.2340 -140.1550 N   0  3  0  0  0  0
  -64.6720 -163.6240 -142.1110 O   0  0  0  0  0  0
  -68.0510 -165.2600 -140.0840 C   0  0  0  0  0  0
  -68.2070 -162.1890 -140.0540 O   0  0  0  0  0  0
  -67.4010 -166.6280 -139.8740 C   0  0  0  0  0  0
  -69.3940 -165.3770 -140.7990 C   0  0  0  0  0  0
  -69.4600 -162.1540 -144.7860 C   0  0  0  0  0  0
  -70.6510 -160.2970 -143.6370 C   0  0  0  0  0  0
  -70.7550 -162.6430 -142.7200 C   0  0  0  0  0  0
  -68.7220 -161.2870 -145.5150 N   0  0  0  0  0  0
  -69.7760 -163.2840 -145.1410 O   0  0  0  0  0  0
  -57.9910 -162.1324 -136.7143 H   0  0  0  0  0  0
  -57.2729 -157.3272 -135.6693 H   0  0  0  0  0  0
  -55.8209 -159.0599 -134.6280 H   0  0  0  0  0  0
  -56.1871 -161.4546 -135.1513 H   0  0  0  0  0  0
  -58.4101 -160.3991 -139.6426 H   0  0  0  0  0  0
  -59.0394 -162.0413 -139.2767 H   0  0  0  0  0  0
  -62.7399 -160.1160 -138.5760 H   0  0  0  0  0  0
  -62.5653 -161.8027 -137.9835 H   0  0  0  0  0  0
  -59.8286 -162.5414 -141.4473 H   0  0  0  0  0  0
  -59.0535 -161.0229 -142.0131 H   0  0  0  0  0  0
  -60.7855 -161.3352 -142.3725 H   0  0  0  0  0  0
  -60.8796 -158.7876 -139.6436 H   0  0  0  0  0  0
  -61.3961 -159.1549 -141.3244 H   0  0  0  0  0  0
  -59.6640 -158.8427 -140.9650 H   0  0  0  0  0  0
  -63.3212 -160.9869 -140.9077 H   0  0  0  0  0  0
  -62.1629 -162.1387 -141.6548 H   0  0  0  0  0  0
  -63.5990 -162.8139 -139.0709 H   0  0  0  0  0  0
  -65.2358 -162.1340 -140.9256 H   0  0  0  0  0  0
  -65.3339 -164.9859 -139.7974 H   0  0  0  0  0  0
  -66.0243 -163.5072 -139.0467 H   0  0  0  0  0  0
  -66.8449 -164.6897 -141.7223 H   0  0  0  0  0  0
  -67.5804 -163.2405 -143.0920 H   0  0  0  0  0  0
  -68.8487 -160.7963 -141.6901 H   0  0  0  0  0  0
  -67.9100 -160.7118 -143.2192 H   0  0  0  0  0  0
  -61.6933 -164.0694 -139.6705 H   0  0  0  0  0  0
  -62.5093 -164.5574 -141.1945 H   0  0  0  0  0  0
  -63.2215 -165.0116 -139.6091 H   0  0  0  0  0  0
  -64.0021 -163.1168 -142.8209 H   0  0  0  0  0  0
  -68.2628 -164.8646 -139.0796 H   0  0  0  0  0  0
  -66.4382 -166.5010 -139.3573 H   0  0  0  0  0  0
  -67.2332 -167.1078 -140.8495 H   0  0  0  0  0  0
  -68.0640 -167.2592 -139.2641 H   0  0  0  0  0  0
  -69.8278 -164.3748 -140.9306 H   0  0  0  0  0  0
  -70.0765 -165.9960 -140.1982 H   0  0  0  0  0  0
  -69.2457 -165.8446 -141.7836 H   0  0  0  0  0  0
  -70.0035 -159.5613 -144.1364 H   0  0  0  0  0  0
  -70.9790 -159.8975 -142.6660 H   0  0  0  0  0  0
  -71.5303 -160.4986 -144.2665 H   0  0  0  0  0  0
  -70.1799 -163.5687 -142.5704 H   0  0  0  0  0  0
  -71.6347 -162.8549 -143.3455 H   0  0  0  0  0  0
  -71.0834 -162.2538 -141.7450 H   0  0  0  0  0  0
  -68.4876 -160.2905 -145.1125 H   0  0  0  0  0  0
  -68.3560 -161.5781 -146.5106 H   0  0  0  0  0  0
  1  2  2  0  0  0
  1  6  1  0  0  0
  1 37  1  0  0  0
  2  3  1  0  0  0
  2  7  1  0  0  0
  3  4  2  0  0  0
  3  8  1  0  0  0
  4  5  1  0  0  0
  4 38  1  0  0  0
  5  6  2  0  0  0
  5 39  1  0  0  0
  6 40  1  0  0  0
  7  9  1  0  0  0
  7 13  1  0  0  0
  9 10  1  0  0  0
  9 41  1  0  0  0
  9 42  1  0  0  0
 10 11  1  0  0  0
 10 15  1  0  0  0
 10 16  1  0  0  0
 11 12  1  0  0  0
 11 17  1  0  0  0
 12 13  1  0  0  0
 12 43  1  0  0  0
 12 44  1  0  0  0
 13 14  2  0  0  0
 15 45  1  0  0  0
 15 46  1  0  0  0
 15 47  1  0  0  0
 16 48  1  0  0  0
 16 49  1  0  0  0
 16 50  1  0  0  0
 17 18  1  0  0  0
 17 51  1  0  0  0
 17 52  1  0  0  0
 18 19  1  0  0  0
 18 26  1  0  0  0
 18 53  1  0  0  0
 19 20  1  0  0  0
 19 27  1  0  0  0
 19 54  1  0  0  0
 20 21  1  0  0  0
 20 55  1  0  0  0
 20 56  1  0  0  0
 21 22  1  0  0  0
 21 28  1  0  0  0
 21 57  1  0  0  0
 22 23  1  0  0  0
 22 29  2  0  0  0
 23 24  1  0  0  0
 23 58  1  0  0  0
 24 25  1  0  0  0
 24 59  1  0  0  0
 24 60  1  0  0  0
 25 32  1  0  0  0
 25 33  1  0  0  0
 25 34  1  0  0  0
 26 61  1  0  0  0
 26 62  1  0  0  0
 26 63  1  0  0  0
 27 64  1  0  0  0
 28 30  1  0  0  0
 28 31  1  0  0  0
 28 65  1  0  0  0
 30 66  1  0  0  0
 30 67  1  0  0  0
 30 68  1  0  0  0
 31 69  1  0  0  0
 31 70  1  0  0  0
 31 71  1  0  0  0
 32 35  1  0  0  0
 32 36  2  0  0  0
 33 72  1  0  0  0
 33 73  1  0  0  0
 33 74  1  0  0  0
 34 75  1  0  0  0
 34 76  1  0  0  0
 34 77  1  0  0  0
 35 78  1  0  0  0
 35 79  1  0  0  0
M  CHG  1  26   1
M  END
> <s_m_source_file>
../3vsx_ligand.sdf

> <i_m_source_file_index>
1

> <s_epik_input>
Q2xjMVtjSF1bY0hdW2NIXVtjSF1jMU4oW0NIMl1DMihbQ0gzXSlbQ0gzXSlDKD1PKVtDSDJdW05ASCtdMltDSDJdW0NASF0oW05IMytdKVtDQEBIXShbT0hdKVtDSDJdW0NAQEhdKFtDSF0oW0NIM10pW0NIM10pQyg9TylbTkhdW0NIMl1DKFtDSDNdKShbQ0gzXSlDKD1PKVtOSDJd

> <s_epik_cmdline>
J2VwaWtfYXBwJywgJy1pbWFlJywgJ2xpZ2FuZF9wcm8ubWFlJywgJy1vbWFlJywgJ2xpZ2FuZF9wcmVwLm1hZScsICctbXMnLCAnMScsICctcGgnLCAnNycsICctcGh0JywgJzAuNScsICctbnQn

> <r_lp_tautomer_probability>
1

> <r_epik_Ionization_Penalty>
  0.0355

> <r_epik_Ionization_Penalty_Charging>
  0.0355

> <r_epik_Ionization_Penalty_Neutral>
  0.0000

> <r_epik_State_Penalty>
 -0.0000

> <r_epik_Charging_Adjusted_Penalty>
0.0355199200804525

> <i_epik_Tot_Q>
1

> <i_epik_Tot_abs_Q>
1

$$$$
