3vtb_ligand
                    3D
 Schrodinger Suite 2020-3.
 88 93  0  0  1  0            999 V2000
    9.7720   -1.0620   27.8090 C   0  0  0  0  0  0
    8.7920   -2.2970   27.5990 C   0  0  0  0  0  0
    7.3010   -1.7880   27.3790 C   0  0  1  0  0  0
    6.8400   -1.0030   28.6700 C   0  0  0  0  0  0
    7.7880    0.2660   28.9130 C   0  0  1  0  0  0
    9.2760   -0.2350   29.1370 C   0  0  0  0  0  0
    9.6700   -0.1050   26.5280 C   0  0  0  0  0  0
    7.2270   -0.8330   26.1030 C   0  0  0  0  0  0
    7.7290    1.2260   27.6380 C   0  0  0  0  0  0
    8.1900    0.4200   26.3300 C   0  0  1  0  0  0
   11.1890   -1.6950   27.9480 C   0  0  1  0  0  0
   12.1830   -0.6620   28.1470 C   0  0  0  0  0  0
   11.2480   -2.5810   29.0770 O   0  0  0  0  0  0
   12.9310    0.2400   28.2900 C   0  0  0  0  0  0
   13.7610    1.4000   28.4430 C   0  0  0  0  0  0
   13.0410    2.5410   27.6800 C   0  0  1  0  0  0
   11.9080    3.0980   28.6240 C   0  0  0  0  0  0
   14.1310    3.6060   27.2420 C   0  0  2  0  0  0
   13.6650    4.8330   26.3980 C   0  0  2  0  0  0
   15.1090    5.3820   26.0480 C   0  0  1  0  0  0
   15.8420    4.1320   25.4820 C   0  0  0  0  0  0
   15.3090    3.0080   26.3610 C   0  0  0  0  0  0
   12.9040    5.9720   27.2120 C   0  0  0  0  0  0
   12.7860    7.2870   26.3450 C   0  0  0  0  0  0
   14.2000    7.7590   25.9040 C   0  0  0  0  0  0
   14.8790    6.6100   25.0950 C   0  0  0  0  0  0
   12.7460    4.3610   25.1450 C   0  0  0  0  0  0
   15.2000    6.6250   23.7930 C   0  0  0  0  0  0
   14.9960    7.7190   22.8590 C   0  0  0  0  0  0
   14.6800    7.6570   21.5770 C   0  0  0  0  0  0
   14.5420    8.9940   20.8170 C   0  0  0  0  0  0
   15.1680    8.9610   19.3860 C   0  0  2  0  0  0
   14.6770    7.7290   18.5700 C   0  0  0  0  0  0
   15.0440    6.4000   19.2520 C   0  0  1  0  0  0
   14.4380    6.3890   20.7030 C   0  0  0  0  0  0
   13.9550    7.7990   17.4120 C   0  0  0  0  0  0
   14.4820    5.3100   18.4630 O   0  0  0  0  0  0
   16.6110    8.8940   19.4860 O   0  0  0  0  0  0
    9.1094   -2.8708   26.7158 H   0  0  0  0  0  0
    8.8227   -2.9447   28.4876 H   0  0  0  0  0  0
    6.6338   -2.6471   27.2150 H   0  0  0  0  0  0
    5.8035   -0.6587   28.5391 H   0  0  0  0  0  0
    6.8977   -1.6685   29.5439 H   0  0  0  0  0  0
    7.4574    0.8227   29.8023 H   0  0  0  0  0  0
    9.3151   -0.8953   30.0159 H   0  0  0  0  0  0
    9.9365    0.6297   29.2984 H   0  0  0  0  0  0
   10.3364    0.7598   26.6624 H   0  0  0  0  0  0
    9.9701   -0.6629   25.6287 H   0  0  0  0  0  0
    7.5482   -1.3889   25.2098 H   0  0  0  0  0  0
    6.1929   -0.4842   25.9655 H   0  0  0  0  0  0
    6.6995    1.5876   27.4986 H   0  0  0  0  0  0
    8.4008    2.0831   27.7929 H   0  0  0  0  0  0
    8.1517    1.0852   25.4547 H   0  0  0  0  0  0
   11.4618   -2.2795   27.0570 H   0  0  0  0  0  0
   10.5714   -3.4465   29.1329 H   0  0  0  0  0  0
   13.8640    1.6387   29.5118 H   0  0  0  0  0  0
   14.7542    1.1993   28.0148 H   0  0  0  0  0  0
   12.5500    2.1921   26.7596 H   0  0  0  0  0  0
   11.2052    2.2885   28.8704 H   0  0  0  0  0  0
   11.3689    3.9082   28.1112 H   0  0  0  0  0  0
   12.3593    3.4859   29.5491 H   0  0  0  0  0  0
   14.4258    3.9460   28.2457 H   0  0  0  0  0  0
   15.7537    5.7732   26.8489 H   0  0  0  0  0  0
   15.5815    4.0033   24.4211 H   0  0  0  0  0  0
   16.9291    4.2694   25.5785 H   0  0  0  0  0  0
   16.1029    2.6271   27.0203 H   0  0  0  0  0  0
   14.9221    2.1863   25.7405 H   0  0  0  0  0  0
   11.8935    5.6238   27.4722 H   0  0  0  0  0  0
   13.4617    6.1998   28.1324 H   0  0  0  0  0  0
   12.1765    7.0840   25.4521 H   0  0  0  0  0  0
   12.3093    8.0784   26.9421 H   0  0  0  0  0  0
   14.1072    8.6561   25.2742 H   0  0  0  0  0  0
   14.8015    7.9964   26.7939 H   0  0  0  0  0  0
   13.2698    3.5746   24.5818 H   0  0  0  0  0  0
   12.5566    5.2204   24.4850 H   0  0  0  0  0  0
   11.7892    3.9683   25.5195 H   0  0  0  0  0  0
   15.6692    5.7433   23.3320 H   0  0  0  0  0  0
   15.1375    8.6961   23.3440 H   0  0  0  0  0  0
   13.4766    9.2444   20.7060 H   0  0  0  0  0  0
   15.0490    9.7906   21.3813 H   0  0  0  0  0  0
   14.9273    9.8956   18.8582 H   0  0  0  0  0  0
   16.1320    6.2384   19.2662 H   0  0  0  0  0  0
   14.8759    5.5114   21.2010 H   0  0  0  0  0  0
   13.3568    6.2348   20.5721 H   0  0  0  0  0  0
   13.7212    8.7779   16.9680 H   0  0  0  0  0  0
   13.6076    6.8765   16.9238 H   0  0  0  0  0  0
   14.7964    5.1682   17.4185 H   0  0  0  0  0  0
   17.1617    9.6769   20.0280 H   0  0  0  0  0  0
  1  2  1  0  0  0
  1  6  1  0  0  0
  1  7  1  0  0  0
  1 11  1  0  0  0
  2  3  1  0  0  0
  2 39  1  0  0  0
  2 40  1  0  0  0
  3  4  1  0  0  0
  3  8  1  0  0  0
  3 41  1  0  0  0
  4  5  1  0  0  0
  4 42  1  0  0  0
  4 43  1  0  0  0
  5  6  1  0  0  0
  5  9  1  0  0  0
  5 44  1  0  0  0
  6 45  1  0  0  0
  6 46  1  0  0  0
  7 10  1  0  0  0
  7 47  1  0  0  0
  7 48  1  0  0  0
  8 10  1  0  0  0
  8 49  1  0  0  0
  8 50  1  0  0  0
  9 10  1  0  0  0
  9 51  1  0  0  0
  9 52  1  0  0  0
 10 53  1  0  0  0
 11 12  1  0  0  0
 11 13  1  0  0  0
 11 54  1  0  0  0
 12 14  3  0  0  0
 13 55  1  0  0  0
 14 15  1  0  0  0
 15 16  1  0  0  0
 15 56  1  0  0  0
 15 57  1  0  0  0
 16 17  1  0  0  0
 16 18  1  0  0  0
 16 58  1  0  0  0
 17 59  1  0  0  0
 17 60  1  0  0  0
 17 61  1  0  0  0
 18 19  1  0  0  0
 18 22  1  0  0  0
 18 62  1  0  0  0
 19 20  1  0  0  0
 19 23  1  0  0  0
 19 27  1  0  0  0
 20 21  1  0  0  0
 20 26  1  0  0  0
 20 63  1  0  0  0
 21 22  1  0  0  0
 21 64  1  0  0  0
 21 65  1  0  0  0
 22 66  1  0  0  0
 22 67  1  0  0  0
 23 24  1  0  0  0
 23 68  1  0  0  0
 23 69  1  0  0  0
 24 25  1  0  0  0
 24 70  1  0  0  0
 24 71  1  0  0  0
 25 26  1  0  0  0
 25 72  1  0  0  0
 25 73  1  0  0  0
 26 28  2  0  0  0
 27 74  1  0  0  0
 27 75  1  0  0  0
 27 76  1  0  0  0
 28 29  1  0  0  0
 28 77  1  0  0  0
 29 30  2  0  0  0
 29 78  1  0  0  0
 30 31  1  0  0  0
 30 35  1  0  0  0
 31 32  1  0  0  0
 31 79  1  0  0  0
 31 80  1  0  0  0
 32 33  1  0  0  0
 32 38  1  0  0  0
 32 81  1  0  0  0
 33 34  1  0  0  0
 33 36  2  0  0  0
 34 35  1  0  0  0
 34 37  1  0  0  0
 34 82  1  0  0  0
 35 83  1  0  0  0
 35 84  1  0  0  0
 36 85  1  0  0  0
 36 86  1  0  0  0
 37 87  1  0  0  0
 38 88  1  0  0  0
M  END
> <s_m_source_file>
../3vtb_ligand.sdf

> <i_m_source_file_index>
1

> <s_epik_input>
W0NIMl0xW0NAQEhdKFtDSDJdMilbQ0gyXVtDQEhdKFtDSDJdMylbQ0gyXVtDQEBIXTJbQ0gyXUMxM1tDQEhdKFtPSF0pQyNDW0NIMl1bQ0BASF0oW0NIM10pW0NASF00W0NIMl1bQ0gyXVtDQEhdKFtDQEBdNDVbQ0gzXSkvQyhbQ0gyXVtDSDJdW0NIMl01KT1bQ0hdL1tDSF09QzZbQ0gyXVtDQEBIXShbT0hdKUMoPVtDSDJdKVtDQEBIXShbQ0gyXTYpW09IXQ==

> <s_epik_cmdline>
J2VwaWtfYXBwJywgJy1pbWFlJywgJ2xpZ2FuZF9wcm8ubWFlJywgJy1vbWFlJywgJ2xpZ2FuZF9wcmVwLm1hZScsICctbXMnLCAnMScsICctcGgnLCAnNycsICctcGh0JywgJzAuNScsICctbnQn

> <r_lp_tautomer_probability>
1

> <r_epik_Ionization_Penalty>
  0.0000

> <r_epik_Ionization_Penalty_Charging>
  0.0000

> <r_epik_Ionization_Penalty_Neutral>
  0.0000

> <r_epik_State_Penalty>
 -0.0000

> <r_epik_Charging_Adjusted_Penalty>
0

> <i_epik_Tot_Q>
0

> <i_epik_Tot_abs_Q>
0

$$$$
