3vtc_ligand
                    3D
 Schrodinger Suite 2020-3.
 91 96  0  0  1  0            999 V2000
    3.6850   -1.1560   35.4470 C   0  0  0  0  0  0
    2.3590   -1.2190   36.3030 C   0  0  0  0  0  0
    1.3130   -0.1880   35.7470 C   0  0  1  0  0  0
    1.9060    1.2640   35.8390 C   0  0  0  0  0  0
    3.2190    1.3490   34.9820 C   0  0  1  0  0  0
    4.2600    0.3180   35.5220 C   0  0  0  0  0  0
    3.3320   -1.4720   33.9440 C   0  0  0  0  0  0
    0.9880   -0.5250   34.2490 C   0  0  0  0  0  0
    2.9010    1.0130   33.4880 C   0  0  0  0  0  0
    2.2950   -0.4330   33.3930 C   0  0  1  0  0  0
    4.7440   -2.2220   35.8850 C   0  0  0  0  0  0
    4.9830   -2.5210   37.4010 C   0  0  2  0  0  0
    5.7300   -1.4160   38.0030 C   0  0  0  0  0  0
    6.3040   -0.4770   38.4430 C   0  0  0  0  0  0
    6.9730    0.7240   38.9330 C   0  0  0  0  0  0
    6.6740    1.9820   38.0580 C   0  0  2  0  0  0
    7.7620    3.1100   38.2120 C   0  0  2  0  0  0
    5.2410    2.4310   38.4530 C   0  0  0  0  0  0
    5.7390   -3.7020   37.5440 O   0  0  0  0  0  0
    7.6670    4.3940   37.3160 C   0  0  2  0  0  0
    9.0900    4.9770   37.5900 C   0  0  1  0  0  0
   10.0280    3.7810   37.3850 C   0  0  0  0  0  0
    9.2270    2.6060   37.9710 C   0  0  0  0  0  0
    6.6460    5.4800   37.8090 C   0  0  0  0  0  0
    6.8420    6.8630   37.1270 C   0  0  0  0  0  0
    8.3110    7.3430   37.2020 C   0  0  0  0  0  0
    9.3070    6.2640   36.7570 C   0  0  0  0  0  0
    7.4120    4.0160   35.7990 C   0  0  0  0  0  0
   10.2500    6.3790   35.8060 C   0  0  0  0  0  0
   10.5440    7.5570   34.9810 C   0  0  0  0  0  0
   11.0880    7.5770   33.7590 C   0  0  0  0  0  0
   11.3430    8.9040   33.0670 C   0  0  0  0  0  0
   12.6990    9.0090   32.3130 C   0  0  2  0  0  0
   12.9050    7.8050   31.3970 C   0  0  0  0  0  0
   12.8240    6.4760   32.1620 C   0  0  1  0  0  0
   11.5010    6.3390   32.9500 C   0  0  0  0  0  0
   13.0770    7.9050   30.0630 C   0  0  0  0  0  0
   12.9350    5.3950   31.2500 O   0  0  0  0  0  0
   13.7840    9.0650   33.2490 O   0  0  0  0  0  0
    1.9342   -2.2321   36.2470 H   0  0  0  0  0  0
    2.5871   -0.9745   37.3509 H   0  0  0  0  0  0
    0.3907   -0.2470   36.3436 H   0  0  0  0  0  0
    1.1701    1.9856   35.4546 H   0  0  0  0  0  0
    2.1373    1.4998   36.8882 H   0  0  0  0  0  0
    3.6323    2.3661   35.0499 H   0  0  0  0  0  0
    4.4954    0.5670   36.5673 H   0  0  0  0  0  0
    5.1741    0.3864   34.9140 H   0  0  0  0  0  0
    4.2462   -1.4219   33.3343 H   0  0  0  0  0  0
    2.8990   -2.4807   33.8733 H   0  0  0  0  0  0
    0.5794   -1.5441   34.1828 H   0  0  0  0  0  0
    0.2483    0.1923   33.8639 H   0  0  0  0  0  0
    2.1758    1.7407   33.0949 H   0  0  0  0  0  0
    3.8269    1.0618   32.8961 H   0  0  0  0  0  0
    2.0597   -0.6536   32.3413 H   0  0  0  0  0  0
    4.4740   -3.2016   35.4637 H   0  0  0  0  0  0
    5.7370   -1.9254   35.5163 H   0  0  0  0  0  0
    4.0544   -2.6848   37.9674 H   0  0  0  0  0  0
    6.6358    0.9393   39.9577 H   0  0  0  0  0  0
    8.0613    0.5641   38.9311 H   0  0  0  0  0  0
    6.7087    1.7417   36.9851 H   0  0  0  0  0  0
    7.5350    3.3901   39.2512 H   0  0  0  0  0  0
    4.5434    1.5912   38.3182 H   0  0  0  0  0  0
    4.9310    3.2713   37.8144 H   0  0  0  0  0  0
    5.2335    2.7485   39.5061 H   0  0  0  0  0  0
    5.3504   -4.6544   37.1543 H   0  0  0  0  0  0
    9.2966    5.3564   38.6016 H   0  0  0  0  0  0
   10.2351    3.6572   36.3118 H   0  0  0  0  0  0
   10.9713    3.9585   37.9223 H   0  0  0  0  0  0
    9.6645    2.2804   38.9263 H   0  0  0  0  0  0
    9.2129    1.7608   37.2671 H   0  0  0  0  0  0
    5.6211    5.1455   37.5909 H   0  0  0  0  0  0
    6.7611    5.6261   38.8932 H   0  0  0  0  0  0
    6.5573    6.7926   36.0668 H   0  0  0  0  0  0
    6.2101    7.6115   37.6274 H   0  0  0  0  0  0
    8.4450    8.2171   36.5477 H   0  0  0  0  0  0
    8.5537    7.6202   38.2385 H   0  0  0  0  0  0
    8.1409    3.2551   35.4832 H   0  0  0  0  0  0
    7.5249    4.9138   35.1735 H   0  0  0  0  0  0
    6.3932    3.6167   35.6869 H   0  0  0  0  0  0
   10.9060    5.5265   35.5760 H   0  0  0  0  0  0
   10.2646    8.4997   35.4742 H   0  0  0  0  0  0
   10.5555    9.0857   32.3208 H   0  0  0  0  0  0
   11.3360    9.7133   33.8119 H   0  0  0  0  0  0
   12.7475    9.9439   31.7355 H   0  0  0  0  0  0
   13.6863    6.3914   32.8398 H   0  0  0  0  0  0
   11.6293    5.4833   33.6292 H   0  0  0  0  0  0
   10.7201    6.1066   32.2109 H   0  0  0  0  0  0
   13.1251    8.8957   29.5874 H   0  0  0  0  0  0
   13.1692    6.9959   29.4507 H   0  0  0  0  0  0
   13.8149    5.3165   30.5946 H   0  0  0  0  0  0
   13.8208    9.8669   34.0011 H   0  0  0  0  0  0
  1  2  1  0  0  0
  1  6  1  0  0  0
  1  7  1  0  0  0
  1 11  1  0  0  0
  2  3  1  0  0  0
  2 40  1  0  0  0
  2 41  1  0  0  0
  3  4  1  0  0  0
  3  8  1  0  0  0
  3 42  1  0  0  0
  4  5  1  0  0  0
  4 43  1  0  0  0
  4 44  1  0  0  0
  5  6  1  0  0  0
  5  9  1  0  0  0
  5 45  1  0  0  0
  6 46  1  0  0  0
  6 47  1  0  0  0
  7 10  1  0  0  0
  7 48  1  0  0  0
  7 49  1  0  0  0
  8 10  1  0  0  0
  8 50  1  0  0  0
  8 51  1  0  0  0
  9 10  1  0  0  0
  9 52  1  0  0  0
  9 53  1  0  0  0
 10 54  1  0  0  0
 11 12  1  0  0  0
 11 55  1  0  0  0
 11 56  1  0  0  0
 12 13  1  0  0  0
 12 19  1  0  0  0
 12 57  1  0  0  0
 13 14  3  0  0  0
 14 15  1  0  0  0
 15 16  1  0  0  0
 15 58  1  0  0  0
 15 59  1  0  0  0
 16 17  1  0  0  0
 16 18  1  0  0  0
 16 60  1  0  0  0
 17 20  1  0  0  0
 17 23  1  0  0  0
 17 61  1  0  0  0
 18 62  1  0  0  0
 18 63  1  0  0  0
 18 64  1  0  0  0
 19 65  1  0  0  0
 20 21  1  0  0  0
 20 24  1  0  0  0
 20 28  1  0  0  0
 21 22  1  0  0  0
 21 27  1  0  0  0
 21 66  1  0  0  0
 22 23  1  0  0  0
 22 67  1  0  0  0
 22 68  1  0  0  0
 23 69  1  0  0  0
 23 70  1  0  0  0
 24 25  1  0  0  0
 24 71  1  0  0  0
 24 72  1  0  0  0
 25 26  1  0  0  0
 25 73  1  0  0  0
 25 74  1  0  0  0
 26 27  1  0  0  0
 26 75  1  0  0  0
 26 76  1  0  0  0
 27 29  2  0  0  0
 28 77  1  0  0  0
 28 78  1  0  0  0
 28 79  1  0  0  0
 29 30  1  0  0  0
 29 80  1  0  0  0
 30 31  2  0  0  0
 30 81  1  0  0  0
 31 32  1  0  0  0
 31 36  1  0  0  0
 32 33  1  0  0  0
 32 82  1  0  0  0
 32 83  1  0  0  0
 33 34  1  0  0  0
 33 39  1  0  0  0
 33 84  1  0  0  0
 34 35  1  0  0  0
 34 37  2  0  0  0
 35 36  1  0  0  0
 35 38  1  0  0  0
 35 85  1  0  0  0
 36 86  1  0  0  0
 36 87  1  0  0  0
 37 88  1  0  0  0
 37 89  1  0  0  0
 38 90  1  0  0  0
 39 91  1  0  0  0
M  END
> <s_m_source_file>
../3vtc_ligand.sdf

> <i_m_source_file_index>
1

> <s_epik_input>
W0NIMl0xW0NAQEhdKFtDSDJdMilbQ0gyXVtDQEhdKFtDSDJdMylbQ0gyXVtDQEBIXTJbQ0gyXUMxM1tDSDJdW0NAQEhdKFtPSF0pQyNDW0NIMl1bQ0BASF0oW0NIM10pW0NASF00W0NIMl1bQ0gyXVtDQEhdKFtDQEBdNDVbQ0gzXSkvQyhbQ0gyXVtDSDJdW0NIMl01KT1bQ0hdL1tDSF09QzZbQ0gyXVtDQEBIXShbT0hdKUMoPVtDSDJdKVtDQEBIXShbQ0gyXTYpW09IXQ==

> <s_epik_cmdline>
J2VwaWtfYXBwJywgJy1pbWFlJywgJ2xpZ2FuZF9wcm8ubWFlJywgJy1vbWFlJywgJ2xpZ2FuZF9wcmVwLm1hZScsICctbXMnLCAnMScsICctcGgnLCAnNycsICctcGh0JywgJzAuNScsICctbnQn

> <r_lp_tautomer_probability>
1

> <r_epik_Ionization_Penalty>
  0.0000

> <r_epik_Ionization_Penalty_Charging>
  0.0000

> <r_epik_Ionization_Penalty_Neutral>
  0.0000

> <r_epik_State_Penalty>
 -0.0000

> <r_epik_Charging_Adjusted_Penalty>
0

> <i_epik_Tot_Q>
0

> <i_epik_Tot_abs_Q>
0

$$$$
