3vtr_ligand
                    3D
 Schrodinger Suite 2020-3.
116119  0  0  1  0            999 V2000
  -30.3440   72.2900   44.8490 O   0  0  0  0  0  0
  -30.7600   71.3530   44.1840 C   0  0  0  0  0  0
  -29.8150   70.3430   43.5870 C   0  0  0  0  0  0
  -32.0680   71.1890   43.9590 N   0  0  0  0  0  0
  -33.0250   72.1440   44.5240 C   0  0  2  0  0  0
  -34.1910   71.3550   45.1140 C   0  0  1  0  0  0
  -34.7000   72.0600   46.2520 O   0  0  0  0  0  0
  -35.3400   71.1410   44.1340 C   0  0  1  0  0  0
  -35.7950   72.4020   43.4290 C   0  0  1  0  0  0
  -37.1850   72.7460   43.9460 C   0  0  0  0  0  0
  -37.6280   74.0180   43.3770 O   0  0  0  0  0  0
  -34.8680   73.4650   43.6780 O   0  0  0  0  0  0
  -33.5110   73.0720   43.3990 C   0  0  1  0  0  0
  -32.6730   74.2520   43.3620 O   0  0  0  0  0  0
  -34.9550   70.2230   43.1290 O   0  0  0  0  0  0
  -34.5700   68.9950   43.7070 C   0  0  2  0  0  0
  -33.4000   68.6270   42.9790 O   0  0  0  0  0  0
  -32.9630   67.2780   43.1170 C   0  0  2  0  0  0
  -31.7840   67.0720   42.1690 C   0  0  0  0  0  0
  -32.1120   67.5750   40.8540 O   0  0  0  0  0  0
  -34.0900   66.2920   42.8170 C   0  0  2  0  0  0
  -35.3560   66.5990   43.5990 C   0  0  2  0  0  0
  -36.4330   65.8160   43.0750 O   0  0  0  0  0  0
  -35.7540   68.0560   43.4830 C   0  0  1  0  0  0
  -36.6880   68.2790   44.5880 N   0  0  0  0  0  0
  -37.9130   68.7740   44.3830 C   0  0  0  0  0  0
  -38.7810   68.9510   45.6010 C   0  0  0  0  0  0
  -38.3210   69.0790   43.2660 O   0  0  0  0  0  0
  -33.6800   65.0300   43.2930 O   0  0  0  0  0  0
  -33.8590   63.9780   42.3630 C   0  0  2  0  0  0
  -35.2250   63.5530   42.3730 O   0  0  0  0  0  0
  -35.4860   62.4680   41.4820 C   0  0  2  0  0  0
  -36.9750   62.1710   41.5520 C   0  0  0  0  0  0
  -37.7050   63.2840   41.0080 O   0  0  0  0  0  0
  -34.6310   61.2560   41.8620 C   0  0  2  0  0  0
  -33.1570   61.6450   41.9720 C   0  0  2  0  0  0
  -32.3760   60.5510   42.4770 O   0  0  0  0  0  0
  -32.9680   62.8580   42.8740 C   0  0  1  0  0  0
  -31.5950   63.3270   42.6870 N   0  0  0  0  0  0
  -30.7770   63.7660   43.6600 C   0  0  0  0  0  0
  -31.2800   63.7880   45.0730 C   0  0  0  0  0  0
  -29.6440   64.1390   43.4070 O   0  0  0  0  0  0
  -34.6750   60.2720   40.8370 O   0  0  0  0  0  0
  -35.6020   59.1980   41.0070 C   0  0  1  0  0  0
  -35.3440   58.1930   39.8630 C   0  0  2  0  0  0
  -36.6090   57.6110   39.3370 N   0  3  0  0  0  0
  -36.3190   56.6910   38.2190 C   0  0  0  0  0  0
  -37.4060   56.8850   40.3450 C   0  0  0  0  0  0
  -37.4560   58.6870   38.7920 C   0  0  0  0  0  0
  -34.2910   57.1300   40.2160 C   0  0  1  0  0  0
  -33.3220   57.0390   39.1680 O   0  0  0  0  0  0
  -33.5960   57.4560   41.5270 C   0  0  2  0  0  0
  -32.6750   56.4100   41.8400 O   0  0  0  0  0  0
  -34.6620   57.5740   42.6090 C   0  0  2  0  0  0
  -35.5740   58.6480   42.3390 O   0  0  0  0  0  0
  -34.0240   57.8030   43.9690 C   0  0  0  0  0  0
  -35.0580   57.9970   44.9510 O   0  0  0  0  0  0
  -28.7808   70.6057   43.8544 H   0  0  0  0  0  0
  -29.9220   70.3431   42.4922 H   0  0  0  0  0  0
  -30.0522   69.3428   43.9785 H   0  0  0  0  0  0
  -32.4269   70.3434   43.3539 H   0  0  0  0  0  0
  -32.5272   72.7284   45.3118 H   0  0  0  0  0  0
  -33.8146   70.3757   45.4445 H   0  0  0  0  0  0
  -34.0290   72.3175   47.0848 H   0  0  0  0  0  0
  -36.1777   70.7086   44.7008 H   0  0  0  0  0  0
  -35.7890   72.2934   42.3344 H   0  0  0  0  0  0
  -37.8907   71.9537   43.6556 H   0  0  0  0  0  0
  -37.1582   72.8292   45.0425 H   0  0  0  0  0  0
  -38.6152   74.4248   43.6416 H   0  0  0  0  0  0
  -33.4870   72.6027   42.4044 H   0  0  0  0  0  0
  -31.5958   74.1555   43.1610 H   0  0  0  0  0  0
  -34.2928   69.0499   44.7701 H   0  0  0  0  0  0
  -32.6703   67.1587   44.1706 H   0  0  0  0  0  0
  -30.9057   67.6112   42.5536 H   0  0  0  0  0  0
  -31.5534   65.9988   42.0984 H   0  0  0  0  0  0
  -31.3749   67.5087   40.0402 H   0  0  0  0  0  0
  -34.2785   66.2704   41.7335 H   0  0  0  0  0  0
  -35.2010   66.3269   44.6535 H   0  0  0  0  0  0
  -36.3586   64.7186   43.0600 H   0  0  0  0  0  0
  -36.1965   68.2574   42.4963 H   0  0  0  0  0  0
  -36.3884   68.0379   45.6186 H   0  0  0  0  0  0
  -38.2310   68.6202   46.4944 H   0  0  0  0  0  0
  -39.6955   68.3499   45.4900 H   0  0  0  0  0  0
  -39.0504   70.0121   45.7082 H   0  0  0  0  0  0
  -33.6504   64.3255   41.3404 H   0  0  0  0  0  0
  -35.2040   62.7885   40.4682 H   0  0  0  0  0  0
  -37.1958   61.2644   40.9695 H   0  0  0  0  0  0
  -37.2687   62.0138   42.6004 H   0  0  0  0  0  0
  -38.8040   63.2560   40.9718 H   0  0  0  0  0  0
  -35.0403   60.8168   42.7838 H   0  0  0  0  0  0
  -32.7659   61.8545   40.9655 H   0  0  0  0  0  0
  -32.3838   59.5827   41.9552 H   0  0  0  0  0  0
  -33.1611   62.6103   43.9282 H   0  0  0  0  0  0
  -31.1504   63.3397   41.6810 H   0  0  0  0  0  0
  -32.3154   63.4176   45.0994 H   0  0  0  0  0  0
  -31.2492   64.8183   45.4571 H   0  0  0  0  0  0
  -30.6442   63.1443   45.6986 H   0  0  0  0  0  0
  -36.6244   59.6034   40.9918 H   0  0  0  0  0  0
  -34.9318   58.7543   39.0115 H   0  0  0  0  0  0
  -35.6859   55.8661   38.5778 H   0  0  0  0  0  0
  -35.7931   57.2370   37.4219 H   0  0  0  0  0  0
  -37.2620   56.2846   37.8245 H   0  0  0  0  0  0
  -36.8019   56.0718   40.7738 H   0  0  0  0  0  0
  -38.3033   56.4633   39.8686 H   0  0  0  0  0  0
  -37.7067   57.5789   41.1438 H   0  0  0  0  0  0
  -36.8910   59.2504   38.0348 H   0  0  0  0  0  0
  -37.7562   59.3646   39.6049 H   0  0  0  0  0  0
  -38.3529   58.2490   38.3296 H   0  0  0  0  0  0
  -34.7586   56.1367   40.2849 H   0  0  0  0  0  0
  -33.6423   56.8086   38.1412 H   0  0  0  0  0  0
  -32.9848   58.3685   41.4659 H   0  0  0  0  0  0
  -31.8393   56.1910   41.1590 H   0  0  0  0  0  0
  -35.2732   56.6595   42.6028 H   0  0  0  0  0  0
  -33.4165   56.9273   44.2411 H   0  0  0  0  0  0
  -33.3826   58.6957   43.9275 H   0  0  0  0  0  0
  -34.7908   58.1784   46.0025 H   0  0  0  0  0  0
  1  2  2  0  0  0
  2  3  1  0  0  0
  2  4  1  0  0  0
  3 58  1  0  0  0
  3 59  1  0  0  0
  3 60  1  0  0  0
  4  5  1  0  0  0
  4 61  1  0  0  0
  5  6  1  0  0  0
  5 13  1  0  0  0
  5 62  1  0  0  0
  6  7  1  0  0  0
  6  8  1  0  0  0
  6 63  1  0  0  0
  7 64  1  0  0  0
  8  9  1  0  0  0
  8 15  1  0  0  0
  8 65  1  0  0  0
  9 10  1  0  0  0
  9 12  1  0  0  0
  9 66  1  0  0  0
 10 11  1  0  0  0
 10 67  1  0  0  0
 10 68  1  0  0  0
 11 69  1  0  0  0
 12 13  1  0  0  0
 13 14  1  0  0  0
 13 70  1  0  0  0
 14 71  1  0  0  0
 15 16  1  0  0  0
 16 17  1  0  0  0
 16 24  1  0  0  0
 16 72  1  0  0  0
 17 18  1  0  0  0
 18 19  1  0  0  0
 18 21  1  0  0  0
 18 73  1  0  0  0
 19 20  1  0  0  0
 19 74  1  0  0  0
 19 75  1  0  0  0
 20 76  1  0  0  0
 21 22  1  0  0  0
 21 29  1  0  0  0
 21 77  1  0  0  0
 22 23  1  0  0  0
 22 24  1  0  0  0
 22 78  1  0  0  0
 23 79  1  0  0  0
 24 25  1  0  0  0
 24 80  1  0  0  0
 25 26  1  0  0  0
 25 81  1  0  0  0
 26 27  1  0  0  0
 26 28  2  0  0  0
 27 82  1  0  0  0
 27 83  1  0  0  0
 27 84  1  0  0  0
 29 30  1  0  0  0
 30 31  1  0  0  0
 30 38  1  0  0  0
 30 85  1  0  0  0
 31 32  1  0  0  0
 32 33  1  0  0  0
 32 35  1  0  0  0
 32 86  1  0  0  0
 33 34  1  0  0  0
 33 87  1  0  0  0
 33 88  1  0  0  0
 34 89  1  0  0  0
 35 36  1  0  0  0
 35 43  1  0  0  0
 35 90  1  0  0  0
 36 37  1  0  0  0
 36 38  1  0  0  0
 36 91  1  0  0  0
 37 92  1  0  0  0
 38 39  1  0  0  0
 38 93  1  0  0  0
 39 40  1  0  0  0
 39 94  1  0  0  0
 40 41  1  0  0  0
 40 42  2  0  0  0
 41 95  1  0  0  0
 41 96  1  0  0  0
 41 97  1  0  0  0
 43 44  1  0  0  0
 44 45  1  0  0  0
 44 55  1  0  0  0
 44 98  1  0  0  0
 45 46  1  0  0  0
 45 50  1  0  0  0
 45 99  1  0  0  0
 46 47  1  0  0  0
 46 48  1  0  0  0
 46 49  1  0  0  0
 47100  1  0  0  0
 47101  1  0  0  0
 47102  1  0  0  0
 48103  1  0  0  0
 48104  1  0  0  0
 48105  1  0  0  0
 49106  1  0  0  0
 49107  1  0  0  0
 49108  1  0  0  0
 50 51  1  0  0  0
 50 52  1  0  0  0
 50109  1  0  0  0
 51110  1  0  0  0
 52 53  1  0  0  0
 52 54  1  0  0  0
 52111  1  0  0  0
 53112  1  0  0  0
 54 55  1  0  0  0
 54 56  1  0  0  0
 54113  1  0  0  0
 56 57  1  0  0  0
 56114  1  0  0  0
 56115  1  0  0  0
 57116  1  0  0  0
M  CHG  1  46   1
M  END
> <s_m_source_file>
../3vtr_ligand.sdf

> <i_m_source_file_index>
1

> <s_epik_input>
Tz1DKFtDSDNdKVtOSF1bQ0BASF0xW0NAQEhdKFtPSF0pW0NAQEhdKFtDQEBIXShbQ0gyXVtPSF0pT1tDQEhdMVtPSF0pT1tDQEBIXTJPW0NASF0oW0NIMl1bT0hdKVtDQEhdKFtDQEhdKFtPSF0pW0NASF0yW05IXUMoPU8pW0NIM10pT1tDQEBIXTNPW0NASF0oW0NIMl1bT0hdKVtDQEhdKFtDQEhdKFtPSF0pW0NASF0zW05IXUMoPU8pW0NIM10pT1tDQEhdNFtDQEhdKFtOK10oW0NIM10pKFtDSDNdKVtDSDNdKVtDQEBIXShbT0hdKVtDQEhdKFtPSF0pW0NASF0oTzQpW0NIMl1bT0hd

> <s_epik_cmdline>
J2VwaWtfYXBwJywgJy1pbWFlJywgJ2xpZ2FuZF9wcm8ubWFlJywgJy1vbWFlJywgJ2xpZ2FuZF9wcmVwLm1hZScsICctbXMnLCAnMScsICctcGgnLCAnNycsICctcGh0JywgJzAuNScsICctbnQn

> <r_lp_tautomer_probability>
1

> <r_epik_Ionization_Penalty>
  0.0008

> <r_epik_Ionization_Penalty_Charging>
  0.0000

> <r_epik_Ionization_Penalty_Neutral>
  0.0008

> <r_epik_State_Penalty>
 -0.0000

> <r_epik_Charging_Adjusted_Penalty>
0

> <i_epik_Tot_Q>
1

> <i_epik_Tot_abs_Q>
1

> <s_epik_Chemistry_Notes>
This compound contains an acetal/aminal-like group ( X-CH(R)-Y where X, Y are N, S, or O) that may be acid/base labile, releasing an aldehyde.

$$$$
