3vuc_ligand
                    3D
 Schrodinger Suite 2020-3.
 85 89  0  0  1  0            999 V2000
  181.3610  200.6240  104.6390 C   0  0  1  0  0  0
  182.7800  200.1490  104.3010 C   0  0  2  0  0  0
  181.3830  201.1180  106.0820 C   0  0  1  0  0  0
  183.1360  198.9610  105.2020 C   0  0  0  0  0  0
  181.6980  199.9620  107.0290 C   0  0  0  0  0  0
  183.0880  199.3960  106.6890 C   0  0  2  0  0  0
  182.4530  202.2570  106.2670 C   0  0  0  0  0  0
  183.8770  201.7320  106.0050 C   0  0  2  0  0  0
  183.8690  201.2650  104.5360 C   0  0  0  0  0  0
  184.1580  200.5000  106.9130 C   0  0  0  0  0  0
  183.2390  198.2400  107.5260 O   0  0  0  0  0  0
  181.0440  201.7890  103.8030 N   0  0  0  0  0  0
  179.4740  202.0200  100.3570 C   0  0  2  0  0  0
  178.6660  201.8430   99.0580 C   0  0  2  0  0  0
  179.1540  200.6930   98.1580 C   0  0  0  0  0  0
  178.7680  203.1200   98.3150 N   0  3  0  0  0  0
  178.1460  200.3700   97.1090 N   0  0  2  0  0  0
  176.9800  199.6990   97.6980 C   0  0  0  0  0  0
  175.9630  199.2990   96.6590 C   0  0  0  0  0  0
  176.2450  199.2080   95.3400 N   0  0  0  0  0  0
  177.5750  199.5210   94.7950 C   0  0  0  0  0  0
  178.6490  199.5790   95.9080 C   0  0  0  0  0  0
  179.8700  200.2460   95.2570 C   0  0  0  0  0  0
  179.0290  198.1260   96.2900 C   0  0  0  0  0  0
  175.2630  198.8500   94.4160 C   0  0  0  0  0  0
  174.6600  199.8690   93.7030 C   0  0  0  0  0  0
  173.7290  199.5400   92.7430 C   0  0  0  0  0  0
  173.3490  198.2260   92.5060 C   0  0  0  0  0  0
  173.9440  197.1980   93.2340 C   0  0  0  0  0  0
  174.9000  197.5480   94.1600 C   0  0  0  0  0  0
  174.8500  199.0340   97.0370 O   0  0  0  0  0  0
  175.5760  196.2760   95.0430 Cl  0  0  0  0  0  0
  178.7280  203.0250  101.2650 C   0  0  0  0  0  0
  179.4640  203.3230  102.5850 C   0  0  2  0  0  0
  179.7790  202.1090  103.4450 C   0  0  0  0  0  0
  178.8650  201.4320  103.8320 O   0  0  0  0  0  0
  178.6260  204.3300  103.4020 C   0  0  0  0  0  0
  180.8320  202.4490  100.0650 O   0  0  0  0  0  0
  179.3790  204.7090  104.7070 C   0  0  0  0  0  0
  180.6137  199.8368  104.4602 H   0  0  0  0  0  0
  182.7613  199.8589  103.2401 H   0  0  0  0  0  0
  180.3757  201.4956  106.3118 H   0  0  0  0  0  0
  182.4143  198.1472  105.0379 H   0  0  0  0  0  0
  184.1489  198.6073  104.9593 H   0  0  0  0  0  0
  181.6908  200.3260  108.0670 H   0  0  0  0  0  0
  180.9392  199.1744  106.9113 H   0  0  0  0  0  0
  182.2449  203.0739  105.5603 H   0  0  0  0  0  0
  182.4049  202.6416  107.2965 H   0  0  0  0  0  0
  184.6347  202.5048  106.2018 H   0  0  0  0  0  0
  184.8633  200.8649  104.2887 H   0  0  0  0  0  0
  183.6517  202.1306  103.8929 H   0  0  0  0  0  0
  184.1380  200.8220  107.9646 H   0  0  0  0  0  0
  185.1537  200.1001  106.6709 H   0  0  0  0  0  0
  182.5297  197.4035  107.4417 H   0  0  0  0  0  0
  181.8515  202.4426  103.4414 H   0  0  0  0  0  0
  179.6233  201.0624  100.8773 H   0  0  0  0  0  0
  177.6209  201.6157   99.3152 H   0  0  0  0  0  0
  180.0932  200.9858   97.6659 H   0  0  0  0  0  0
  179.3252  199.7954   98.7704 H   0  0  0  0  0  0
  178.4203  203.9449   98.9542 H   0  0  0  0  0  0
  178.1440  203.0688   97.4106 H   0  0  0  0  0  0
  179.8155  203.2947   98.0283 H   0  0  0  0  0  0
  177.3068  198.7888   98.2222 H   0  0  0  0  0  0
  176.4887  200.3767   98.4117 H   0  0  0  0  0  0
  177.8667  198.7452   94.0718 H   0  0  0  0  0  0
  177.5442  200.4986   94.2916 H   0  0  0  0  0  0
  179.6181  201.2800   94.9788 H   0  0  0  0  0  0
  180.1582  199.6839   94.3565 H   0  0  0  0  0  0
  180.7080  200.2517   95.9695 H   0  0  0  0  0  0
  178.1649  197.6321   96.7584 H   0  0  0  0  0  0
  179.8708  198.1412   96.9979 H   0  0  0  0  0  0
  179.3210  197.5734   95.3848 H   0  0  0  0  0  0
  174.9159  200.9107   93.8964 H   0  0  0  0  0  0
  173.2766  200.3357   92.1511 H   0  0  0  0  0  0
  172.5909  198.0003   91.7560 H   0  0  0  0  0  0
  173.6632  196.1567   93.0763 H   0  0  0  0  0  0
  178.6065  203.9799  100.7326 H   0  0  0  0  0  0
  177.7382  202.6208  101.5236 H   0  0  0  0  0  0
  180.4513  203.7190  102.3050 H   0  0  0  0  0  0
  178.4578  205.2376  102.8037 H   0  0  0  0  0  0
  177.6577  203.8766  103.6606 H   0  0  0  0  0  0
  181.4799  201.8285   99.4285 H   0  0  0  0  0  0
  178.7760  205.4262  105.2831 H   0  0  0  0  0  0
  180.3471  205.1651  104.4524 H   0  0  0  0  0  0
  179.5470  203.8040  105.3093 H   0  0  0  0  0  0
  1  2  1  0  0  0
  1  3  1  0  0  0
  1 12  1  0  0  0
  1 40  1  0  0  0
  2  4  1  0  0  0
  2  9  1  0  0  0
  2 41  1  0  0  0
  3  5  1  0  0  0
  3  7  1  0  0  0
  3 42  1  0  0  0
  4  6  1  0  0  0
  4 43  1  0  0  0
  4 44  1  0  0  0
  5  6  1  0  0  0
  5 45  1  0  0  0
  5 46  1  0  0  0
  6 10  1  0  0  0
  6 11  1  0  0  0
  7  8  1  0  0  0
  7 47  1  0  0  0
  7 48  1  0  0  0
  8  9  1  0  0  0
  8 10  1  0  0  0
  8 49  1  0  0  0
  9 50  1  0  0  0
  9 51  1  0  0  0
 10 52  1  0  0  0
 10 53  1  0  0  0
 11 54  1  0  0  0
 12 35  1  0  0  0
 12 55  1  0  0  0
 13 14  1  0  0  0
 13 33  1  0  0  0
 13 38  1  0  0  0
 13 56  1  0  0  0
 14 15  1  0  0  0
 14 16  1  0  0  0
 14 57  1  0  0  0
 15 17  1  0  0  0
 15 58  1  0  0  0
 15 59  1  0  0  0
 16 60  1  0  0  0
 16 61  1  0  0  0
 16 62  1  0  0  0
 17 18  1  0  0  0
 17 22  1  0  0  0
 18 19  1  0  0  0
 18 63  1  0  0  0
 18 64  1  0  0  0
 19 20  1  0  0  0
 19 31  2  0  0  0
 20 21  1  0  0  0
 20 25  1  0  0  0
 21 22  1  0  0  0
 21 65  1  0  0  0
 21 66  1  0  0  0
 22 23  1  0  0  0
 22 24  1  0  0  0
 23 67  1  0  0  0
 23 68  1  0  0  0
 23 69  1  0  0  0
 24 70  1  0  0  0
 24 71  1  0  0  0
 24 72  1  0  0  0
 25 26  2  0  0  0
 25 30  1  0  0  0
 26 27  1  0  0  0
 26 73  1  0  0  0
 27 28  2  0  0  0
 27 74  1  0  0  0
 28 29  1  0  0  0
 28 75  1  0  0  0
 29 30  2  0  0  0
 29 76  1  0  0  0
 30 32  1  0  0  0
 33 34  1  0  0  0
 33 77  1  0  0  0
 33 78  1  0  0  0
 34 35  1  0  0  0
 34 37  1  0  0  0
 34 79  1  0  0  0
 35 36  2  0  0  0
 37 39  1  0  0  0
 37 80  1  0  0  0
 37 81  1  0  0  0
 38 82  1  0  0  0
 39 83  1  0  0  0
 39 84  1  0  0  0
 39 85  1  0  0  0
M  CHG  1  16   1
M  END
> <s_m_source_file>
../3vuc_ligand.sdf

> <i_m_source_file_index>
1

> <s_epik_input>
W0NIMl0xW0NASF0oW0NIMl0yKVtDSDJdW0NASF0oW0NIMl0zKVtDQEhdKFtDQEBIXTFbQ0gyXVtDQEBdMjNbT0hdKVtOSF1DKD1PKVtDQEhdKFtDSDJdW0NIM10pW0NIMl1bQ0BIXShbT0hdKVtDQEBIXShbTkgzK10pW0NIMl1bTkBASCtdKEM0KFtDSDNdKVtDSDNdKVtDSDJdQyg9TylOKFtDSDJdNCljNVtjSF1bY0hdW2NIXVtjSF1jNUNs

> <s_epik_cmdline>
J2VwaWtfYXBwJywgJy1pbWFlJywgJ2xpZ2FuZF9wcm8ubWFlJywgJy1vbWFlJywgJ2xpZ2FuZF9wcmVwLm1hZScsICctbXMnLCAnMScsICctcGgnLCAnNycsICctcGh0JywgJzAuNScsICctbnQn

> <r_lp_tautomer_probability>
1

> <r_epik_Ionization_Penalty>
  0.0376

> <r_epik_Ionization_Penalty_Charging>
  0.0376

> <r_epik_Ionization_Penalty_Neutral>
  0.0000

> <r_epik_State_Penalty>
 -0.0000

> <r_epik_Charging_Adjusted_Penalty>
0.0376109438945951

> <i_epik_Tot_Q>
1

> <i_epik_Tot_abs_Q>
1

$$$$
