3vv6_ligand
                    3D
 Schrodinger Suite 2020-3.
 33 35  0  0  1  0            999 V2000
   16.6850   42.3020  -10.1490 O   0  0  0  0  0  0
   16.4250   41.2790   -9.4800 C   0  0  0  0  0  0
   15.8070   41.3830   -8.2080 N   0  0  0  0  0  0
   15.4900   42.7190   -7.6850 C   0  0  0  0  0  0
   15.5480   40.1920   -7.4660 C   0  0  0  0  0  0
   14.9690   40.2420   -6.2300 N   0  0  0  0  0  0
   15.8720   38.9850   -8.0040 N   0  0  0  0  0  0
   16.4690   38.8640   -9.2310 C   0  0  0  0  0  0
   16.7390   40.0160   -9.9850 C   0  0  0  0  0  0
   16.7880   37.5080   -9.7750 C   0  0  1  0  0  0
   17.7090   37.5820  -11.0010 C   0  0  0  0  0  0
   18.2420   37.0070   -9.6860 C   0  0  1  0  0  0
   19.2070   37.8890   -8.9650 C   0  0  0  0  0  0
   19.1080   38.0600   -7.5740 C   0  0  0  0  0  0
   20.0090   38.8750   -6.8840 C   0  0  0  0  0  0
   21.0330   39.5140   -7.5870 C   0  0  0  0  0  0
   21.1460   39.3420   -8.9660 C   0  0  0  0  0  0
   20.2450   38.5250   -9.6580 C   0  0  0  0  0  0
   15.7752   43.4801   -8.4262 H   0  0  0  0  0  0
   16.0470   42.8891   -6.7518 H   0  0  0  0  0  0
   14.4105   42.7880   -7.4854 H   0  0  0  0  0  0
   14.7032   41.2127   -5.7860 H   0  0  0  0  0  0
   17.1963   39.9243  -10.9702 H   0  0  0  0  0  0
   15.8185   37.0699   -9.4954 H   0  0  0  0  0  0
   17.2766   36.9895  -11.8207 H   0  0  0  0  0  0
   17.8111   38.6297  -11.3202 H   0  0  0  0  0  0
   18.7283   36.0754   -9.3610 H   0  0  0  0  0  0
   18.3167   37.5494   -7.0251 H   0  0  0  0  0  0
   19.9137   39.0110   -5.8067 H   0  0  0  0  0  0
   21.7443   40.1476   -7.0571 H   0  0  0  0  0  0
   21.9433   39.8485   -9.5099 H   0  0  0  0  0  0
   20.3506   38.3838  -10.7336 H   0  0  0  0  0  0
   14.7685   39.3116   -5.6785 H   0  0  0  0  0  0
  1  2  2  0  0  0
  2  3  1  0  0  0
  2  9  1  0  0  0
  3  4  1  0  0  0
  3  5  1  0  0  0
  4 19  1  0  0  0
  4 20  1  0  0  0
  4 21  1  0  0  0
  5  6  1  0  0  0
  5  7  2  0  0  0
  6 22  1  0  0  0
  6 33  1  0  0  0
  7  8  1  0  0  0
  8  9  2  0  0  0
  8 10  1  0  0  0
  9 23  1  0  0  0
 10 11  1  0  0  0
 10 12  1  0  0  0
 10 24  1  0  0  0
 11 12  1  0  0  0
 11 25  1  0  0  0
 11 26  1  0  0  0
 12 13  1  0  0  0
 12 27  1  0  0  0
 13 14  2  0  0  0
 13 18  1  0  0  0
 14 15  1  0  0  0
 14 28  1  0  0  0
 15 16  2  0  0  0
 15 29  1  0  0  0
 16 17  1  0  0  0
 16 30  1  0  0  0
 17 18  2  0  0  0
 17 31  1  0  0  0
 18 32  1  0  0  0
M  END
> <s_m_source_file>
../3vv6_ligand.sdf

> <i_m_source_file_index>
1

> <s_epik_input>
Tz1jMW4oW0NIM10pL2MoPU5cW0hdKVtuSF1jKFtjSF0xKVtDQEhdMltDSDJdW0NASF0yYzNbY0hdW2NIXVtjSF1bY0hdW2NIXTM=

> <s_epik_cmdline>
J2VwaWtfYXBwJywgJy1pbWFlJywgJ2xpZ2FuZF9wcm8ubWFlJywgJy1vbWFlJywgJ2xpZ2FuZF9wcmVwLm1hZScsICctbXMnLCAnMScsICctcGgnLCAnNycsICctcGh0JywgJzAuNScsICctbnQn

> <r_lp_tautomer_probability>
1

> <r_epik_Ionization_Penalty>
  0.0020

> <r_epik_Ionization_Penalty_Charging>
  0.0000

> <r_epik_Ionization_Penalty_Neutral>
  0.0020

> <r_epik_State_Penalty>
 -0.0000

> <r_epik_Charging_Adjusted_Penalty>
1.8384936039946e-07

> <i_epik_Tot_Q>
0

> <i_epik_Tot_abs_Q>
0

> <s_epik_Chemistry_Notes>
This compound has an imine and may undergo hydrolysis.

$$$$
