3vv7_ligand
                    3D
 Schrodinger Suite 2020-3.
 47 50  0  0  1  0            999 V2000
  -15.9190  -42.5680  -10.5060 O   0  0  0  0  0  0
  -15.9080  -41.5710   -9.7390 C   0  0  0  0  0  0
  -15.5030  -41.7340   -8.3890 N   0  0  0  0  0  0
  -15.1220  -43.0760   -7.9240 C   0  0  0  0  0  0
  -15.4950  -40.5980   -7.5260 C   0  0  0  0  0  0
  -15.1090  -40.7460   -6.2170 N   0  0  0  0  0  0
  -15.8760  -39.3700   -8.0190 N   0  0  0  0  0  0
  -16.2780  -39.2020   -9.3200 C   0  0  0  0  0  0
  -16.2890  -40.3040  -10.1980 C   0  0  0  0  0  0
  -16.6700  -37.8580   -9.8340 C   0  0  1  0  0  0
  -17.5800  -37.9910  -11.0690 C   0  0  0  0  0  0
  -18.1540  -37.4340   -9.7690 C   0  0  1  0  0  0
  -19.1790  -38.3200   -9.1240 C   0  0  0  0  0  0
  -20.2210  -38.8950   -9.8730 C   0  0  0  0  0  0
  -21.1950  -39.6960   -9.2640 C   0  0  0  0  0  0
  -21.1530  -39.9140   -7.8880 C   0  0  0  0  0  0
  -20.1290  -39.3320   -7.1310 C   0  0  0  0  0  0
  -19.1610  -38.5300   -7.7390 C   0  0  0  0  0  0
  -20.0920  -39.5630   -5.6630 C   0  0  0  0  0  0
  -19.5490  -38.6110   -4.7940 C   0  0  0  0  0  0
  -19.5410  -38.8580   -3.4200 C   0  0  0  0  0  0
  -20.1000  -40.0390   -2.9260 C   0  0  0  0  0  0
  -20.6420  -40.9900   -3.7890 C   0  0  0  0  0  0
  -20.6380  -40.7370   -5.1580 C   0  0  0  0  0  0
  -21.1810  -42.1640   -3.2940 O   0  0  0  0  0  0
  -21.3380  -43.3460   -4.0910 C   0  0  0  0  0  0
  -15.2036  -43.7896   -8.7571 H   0  0  0  0  0  0
  -15.7926  -43.3857   -7.1089 H   0  0  0  0  0  0
  -14.0848  -43.0565   -7.5581 H   0  0  0  0  0  0
  -15.1008  -39.8758   -5.5442 H   0  0  0  0  0  0
  -15.6239  -39.9959  -11.0182 H   0  0  0  0  0  0
  -17.3264  -40.3425  -10.5619 H   0  0  0  0  0  0
  -17.1732  -37.3841  -11.8913 H   0  0  0  0  0  0
  -17.6254  -39.0454  -11.3792 H   0  0  0  0  0  0
  -18.6586  -36.5220   -9.4173 H   0  0  0  0  0  0
  -20.2715  -38.7140  -10.9467 H   0  0  0  0  0  0
  -21.9842  -40.1480   -9.8648 H   0  0  0  0  0  0
  -21.9104  -40.5319   -7.4057 H   0  0  0  0  0  0
  -18.3854  -38.0638   -7.1313 H   0  0  0  0  0  0
  -19.1349  -37.6825   -5.1869 H   0  0  0  0  0  0
  -19.1006  -38.1327   -2.7359 H   0  0  0  0  0  0
  -20.1125  -40.2193   -1.8511 H   0  0  0  0  0  0
  -21.0683  -41.4685   -5.8420 H   0  0  0  0  0  0
  -21.7860  -44.1434   -3.4799 H   0  0  0  0  0  0
  -20.3543  -43.6740   -4.4581 H   0  0  0  0  0  0
  -21.9942  -43.1270   -4.9463 H   0  0  0  0  0  0
  -15.8637  -38.4864   -7.3639 H   0  0  0  0  0  0
  1  2  2  0  0  0
  2  3  1  0  0  0
  2  9  1  0  0  0
  3  4  1  0  0  0
  3  5  1  0  0  0
  4 27  1  0  0  0
  4 28  1  0  0  0
  4 29  1  0  0  0
  5  6  2  0  0  0
  5  7  1  0  0  0
  6 30  1  0  0  0
  7  8  1  0  0  0
  7 47  1  0  0  0
  8  9  1  0  0  0
  8 10  2  0  0  0
  9 31  1  0  0  0
  9 32  1  0  0  0
 10 11  1  0  0  0
 10 12  1  0  0  0
 11 12  1  0  0  0
 11 33  1  0  0  0
 11 34  1  0  0  0
 12 13  1  0  0  0
 12 35  1  0  0  0
 13 14  2  0  0  0
 13 18  1  0  0  0
 14 15  1  0  0  0
 14 36  1  0  0  0
 15 16  2  0  0  0
 15 37  1  0  0  0
 16 17  1  0  0  0
 16 38  1  0  0  0
 17 18  2  0  0  0
 17 19  1  0  0  0
 18 39  1  0  0  0
 19 20  2  0  0  0
 19 24  1  0  0  0
 20 21  1  0  0  0
 20 40  1  0  0  0
 21 22  2  0  0  0
 21 41  1  0  0  0
 22 23  1  0  0  0
 22 42  1  0  0  0
 23 24  2  0  0  0
 23 25  1  0  0  0
 24 43  1  0  0  0
 25 26  1  0  0  0
 26 44  1  0  0  0
 26 45  1  0  0  0
 26 46  1  0  0  0
M  END
> <s_m_source_file>
../3vv7_ligand.sdf

> <i_m_source_file_index>
1

> <s_epik_input>
Tz1DMU4oW0NIM10pL0MoPU4vW0hdKU49QyhbQ0gyXTEpW0NASF0yW0NIMl1bQ0BIXTJjM1tjSF1bY0hdW2NIXWMoW2NIXTMpLWM0W2NIXVtjSF1bY0hdYyhbY0hdNClPW0NIM10=

> <s_epik_cmdline>
J2VwaWtfYXBwJywgJy1pbWFlJywgJ2xpZ2FuZF9wcm8ubWFlJywgJy1vbWFlJywgJ2xpZ2FuZF9wcmVwLm1hZScsICctbXMnLCAnMScsICctcGgnLCAnNycsICctcGh0JywgJzAuNScsICctbnQn

> <r_lp_tautomer_probability>
1

> <r_epik_Ionization_Penalty>
  0.0000

> <r_epik_Ionization_Penalty_Charging>
  0.0000

> <r_epik_Ionization_Penalty_Neutral>
  0.0000

> <r_epik_State_Penalty>
 -0.0000

> <r_epik_Charging_Adjusted_Penalty>
1.77512918233221e-08

> <i_epik_Tot_Q>
0

> <i_epik_Tot_abs_Q>
0

> <s_epik_Chemistry_Notes>
This compound has an imine and may undergo hydrolysis.

$$$$
