3vv8_ligand
                    3D
 Schrodinger Suite 2020-3.
 46 49  0  0  1  0            999 V2000
   17.1560   41.4330  -10.0600 O   0  0  0  0  0  0
   16.9830   40.4190   -9.3280 C   0  0  0  0  0  0
   16.4740   40.5600   -8.0150 N   0  0  0  0  0  0
   16.1690   41.9090   -7.5200 C   0  0  0  0  0  0
   16.2940   39.4040   -7.2040 C   0  0  0  0  0  0
   15.8150   39.5110   -5.9390 N   0  0  0  0  0  0
   16.6060   38.1740   -7.6960 N   0  0  0  0  0  0
   17.0930   38.0140   -8.9550 C   0  0  0  0  0  0
   17.2860   39.1320   -9.7850 C   0  0  0  0  0  0
   17.4150   36.6480   -9.4600 C   0  0  1  0  0  0
   18.3720   36.7600  -10.6580 C   0  0  0  0  0  0
   18.8940   36.2700   -9.3080 C   0  0  1  0  0  0
   19.7130   37.2360   -8.4960 C   0  0  0  0  0  0
   20.9400   37.6940   -8.9700 C   0  0  0  0  0  0
   21.7350   38.5480   -8.2030 C   0  0  0  0  0  0
   21.3180   38.9510   -6.9370 C   0  0  0  0  0  0
   20.1030   38.4810   -6.4390 C   0  0  0  0  0  0
   19.3200   37.6220   -7.2120 C   0  0  0  0  0  0
   22.1800   39.8620   -6.1160 C   0  0  0  0  0  0
   23.5200   40.0180   -6.4630 C   0  0  0  0  0  0
   24.3370   40.8520   -5.7040 C   0  0  0  0  0  0
   23.8410   41.5250   -4.5960 C   0  0  0  0  0  0
   22.5130   41.3630   -4.2270 C   0  0  0  0  0  0
   21.9840   42.1000   -3.0250 C   0  0  0  0  0  0
   21.6860   40.5290   -4.9830 C   0  0  0  0  0  0
   16.3809   42.6457   -8.3089 H   0  0  0  0  0  0
   16.7913   42.1257   -6.6392 H   0  0  0  0  0  0
   15.1064   41.9657   -7.2412 H   0  0  0  0  0  0
   15.6826   38.6094   -5.3229 H   0  0  0  0  0  0
   16.6766   38.9050  -10.6722 H   0  0  0  0  0  0
   18.3525   39.0783  -10.0492 H   0  0  0  0  0  0
   18.0176   36.1109  -11.4723 H   0  0  0  0  0  0
   18.4022   37.8027  -11.0070 H   0  0  0  0  0  0
   19.4622   35.3884   -8.9763 H   0  0  0  0  0  0
   21.2851   37.3808   -9.9553 H   0  0  0  0  0  0
   22.6877   38.9013   -8.5976 H   0  0  0  0  0  0
   19.7654   38.7839   -5.4479 H   0  0  0  0  0  0
   18.3819   37.2443   -6.8052 H   0  0  0  0  0  0
   23.9273   39.4895   -7.3249 H   0  0  0  0  0  0
   25.3827   40.9783   -5.9845 H   0  0  0  0  0  0
   24.4930   42.1792   -4.0171 H   0  0  0  0  0  0
   22.7918   42.6965   -2.5759 H   0  0  0  0  0  0
   21.6089   41.3759   -2.2867 H   0  0  0  0  0  0
   21.1649   42.7659   -3.3344 H   0  0  0  0  0  0
   20.6448   40.3942   -4.6901 H   0  0  0  0  0  0
   16.4657   37.2798   -7.0709 H   0  0  0  0  0  0
  1  2  2  0  0  0
  2  3  1  0  0  0
  2  9  1  0  0  0
  3  4  1  0  0  0
  3  5  1  0  0  0
  4 26  1  0  0  0
  4 27  1  0  0  0
  4 28  1  0  0  0
  5  6  2  0  0  0
  5  7  1  0  0  0
  6 29  1  0  0  0
  7  8  1  0  0  0
  7 46  1  0  0  0
  8  9  1  0  0  0
  8 10  2  0  0  0
  9 30  1  0  0  0
  9 31  1  0  0  0
 10 11  1  0  0  0
 10 12  1  0  0  0
 11 12  1  0  0  0
 11 32  1  0  0  0
 11 33  1  0  0  0
 12 13  1  0  0  0
 12 34  1  0  0  0
 13 14  2  0  0  0
 13 18  1  0  0  0
 14 15  1  0  0  0
 14 35  1  0  0  0
 15 16  2  0  0  0
 15 36  1  0  0  0
 16 17  1  0  0  0
 16 19  1  0  0  0
 17 18  2  0  0  0
 17 37  1  0  0  0
 18 38  1  0  0  0
 19 20  2  0  0  0
 19 25  1  0  0  0
 20 21  1  0  0  0
 20 39  1  0  0  0
 21 22  2  0  0  0
 21 40  1  0  0  0
 22 23  1  0  0  0
 22 41  1  0  0  0
 23 24  1  0  0  0
 23 25  2  0  0  0
 24 42  1  0  0  0
 24 43  1  0  0  0
 24 44  1  0  0  0
 25 45  1  0  0  0
M  END
> <s_m_source_file>
../3vv8_ligand.sdf

> <i_m_source_file_index>
1

> <s_epik_input>
Tz1DMU4oW0NIM10pL0MoPU4vW0hdKU49QyhbQ0gyXTEpW0NASF0yW0NIMl1bQ0BIXTJjM1tjSF1bY0hdYyhbY0hdW2NIXTMpLWM0W2NIXVtjSF1bY0hdYyhbQ0gzXSlbY0hdNA==

> <s_epik_cmdline>
J2VwaWtfYXBwJywgJy1pbWFlJywgJ2xpZ2FuZF9wcm8ubWFlJywgJy1vbWFlJywgJ2xpZ2FuZF9wcmVwLm1hZScsICctbXMnLCAnMScsICctcGgnLCAnNycsICctcGh0JywgJzAuNScsICctbnQn

> <r_lp_tautomer_probability>
1

> <r_epik_Ionization_Penalty>
  0.0000

> <r_epik_Ionization_Penalty_Charging>
  0.0000

> <r_epik_Ionization_Penalty_Neutral>
  0.0000

> <r_epik_State_Penalty>
 -0.0000

> <r_epik_Charging_Adjusted_Penalty>
1.77512918233221e-08

> <i_epik_Tot_Q>
0

> <i_epik_Tot_abs_Q>
0

> <s_epik_Chemistry_Notes>
This compound has an imine and may undergo hydrolysis.

$$$$
