3vva_ligand
                    3D
 Schrodinger Suite 2020-3.
 48 48  0  0  1  0            999 V2000
  -45.8290   -4.0480  -26.2810 O   0  0  0  0  0  0
  -46.4430   -3.5740  -25.1690 C   0  0  0  0  0  0
  -47.6150   -4.1990  -24.7760 C   0  0  0  0  0  0
  -48.1450   -5.3640  -25.5930 C   0  0  0  0  0  0
  -49.4910   -5.5310  -25.3050 C   0  0  0  0  0  0
  -50.5330   -4.8750  -25.9190 C   0  0  0  0  0  0
  -51.9510   -5.1670  -25.4490 C   0  0  0  0  0  0
  -52.5980   -4.0000  -25.0500 C   0  0  0  0  0  0
  -53.2160   -3.2160  -26.0160 C   0  0  0  0  0  0
  -53.9150   -2.0470  -25.7210 C   0  0  0  0  0  0
  -54.5370   -1.2900  -26.8950 C   0  0  1  0  0  0
  -55.7810   -0.7300  -26.5060 O   0  0  0  0  0  0
  -44.3070   -1.8080  -26.0490 O   0  0  0  0  0  0
  -44.6550   -1.7900  -24.8800 C   0  0  0  0  0  0
  -45.9390   -2.4800  -24.4520 C   0  0  0  0  0  0
  -48.2620   -3.7100  -23.6340 C   0  0  0  0  0  0
  -49.4190   -4.2270  -23.1350 O   0  5  0  0  0  0
  -50.2510   -3.9340  -27.0730 C   0  0  0  0  0  0
  -54.0760   -1.5220  -24.2740 C   0  0  0  0  0  0
  -53.5820   -0.2040  -27.3640 C   0  0  0  0  0  0
  -46.5970   -2.0240  -23.3140 C   0  0  0  0  0  0
  -47.7700   -2.6570  -22.9200 C   0  0  0  0  0  0
  -48.7160   -2.2340  -21.5320 Cl  0  0  0  0  0  0
  -46.0410   -0.8450  -22.5200 C   0  0  0  0  0  0
  -46.2530   -4.9088  -26.8188 H   0  0  0  0  0  0
  -48.0153   -5.1497  -26.6641 H   0  0  0  0  0  0
  -47.5903   -6.2773  -25.3320 H   0  0  0  0  0  0
  -49.6943   -6.2624  -24.5089 H   0  0  0  0  0  0
  -52.5230   -5.6227  -26.2706 H   0  0  0  0  0  0
  -51.9190   -5.8605  -24.5957 H   0  0  0  0  0  0
  -53.3995   -4.2498  -24.3392 H   0  0  0  0  0  0
  -51.8750   -3.3271  -24.5657 H   0  0  0  0  0  0
  -53.1332   -3.5593  -27.0578 H   0  0  0  0  0  0
  -54.7899   -1.9651  -27.7258 H   0  0  0  0  0  0
  -56.5874   -1.3824  -26.1397 H   0  0  0  0  0  0
  -44.0382   -1.2726  -24.1304 H   0  0  0  0  0  0
  -49.1653   -3.8721  -27.2387 H   0  0  0  0  0  0
  -50.6432   -2.9342  -26.8351 H   0  0  0  0  0  0
  -50.7398   -4.3127  -27.9828 H   0  0  0  0  0  0
  -53.5610   -2.2008  -23.5783 H   0  0  0  0  0  0
  -55.1447   -1.4758  -24.0175 H   0  0  0  0  0  0
  -53.6368   -0.5164  -24.1978 H   0  0  0  0  0  0
  -52.6256   -0.6597  -27.6602 H   0  0  0  0  0  0
  -53.4097    0.5110  -26.5460 H   0  0  0  0  0  0
  -54.0197    0.3223  -28.2250 H   0  0  0  0  0  0
  -45.1137   -0.4892  -22.9928 H   0  0  0  0  0  0
  -45.8277   -1.1650  -21.4894 H   0  0  0  0  0  0
  -46.7809   -0.0312  -22.5056 H   0  0  0  0  0  0
  1  2  1  0  0  0
  1 25  1  0  0  0
  2  3  2  0  0  0
  2 15  1  0  0  0
  3  4  1  0  0  0
  3 16  1  0  0  0
  4  5  1  0  0  0
  4 26  1  0  0  0
  4 27  1  0  0  0
  5  6  2  0  0  0
  5 28  1  0  0  0
  6  7  1  0  0  0
  6 18  1  0  0  0
  7  8  1  0  0  0
  7 29  1  0  0  0
  7 30  1  0  0  0
  8  9  1  0  0  0
  8 31  1  0  0  0
  8 32  1  0  0  0
  9 10  2  0  0  0
  9 33  1  0  0  0
 10 11  1  0  0  0
 10 19  1  0  0  0
 11 12  1  0  0  0
 11 20  1  0  0  0
 11 34  1  0  0  0
 12 35  1  0  0  0
 13 14  2  0  0  0
 14 15  1  0  0  0
 14 36  1  0  0  0
 15 21  2  0  0  0
 16 17  1  0  0  0
 16 22  2  0  0  0
 18 37  1  0  0  0
 18 38  1  0  0  0
 18 39  1  0  0  0
 19 40  1  0  0  0
 19 41  1  0  0  0
 19 42  1  0  0  0
 20 43  1  0  0  0
 20 44  1  0  0  0
 20 45  1  0  0  0
 21 22  1  0  0  0
 21 24  1  0  0  0
 22 23  1  0  0  0
 24 46  1  0  0  0
 24 47  1  0  0  0
 24 48  1  0  0  0
M  CHG  1  17  -1
M  END
> <s_m_source_file>
../3vva_ligand.sdf

> <i_m_source_file_index>
1

> <s_epik_input>
Tz1bQ0hdYzFjKFtDSDNdKWMoQ2wpYyhbT0hdKWMoYzFbT0hdKVtDSDJdL1tDSF09QyhbQ0gzXSkvW0NIMl1bQ0gyXS9bQ0hdPUMoW0NIM10pL1tDQEBIXShbT0hdKVtDSDNd

> <s_epik_cmdline>
J2VwaWtfYXBwJywgJy1pbWFlJywgJ2xpZ2FuZF9wcm8ubWFlJywgJy1vbWFlJywgJ2xpZ2FuZF9wcmVwLm1hZScsICctbXMnLCAnMScsICctcGgnLCAnNycsICctcGh0JywgJzAuNScsICctbnQn

> <r_lp_tautomer_probability>
1

> <r_epik_Ionization_Penalty>
  0.1224

> <r_epik_Ionization_Penalty_Charging>
  0.1203

> <r_epik_Ionization_Penalty_Neutral>
  0.0022

> <r_epik_State_Penalty>
 -0.0000

> <r_epik_Charging_Adjusted_Penalty>
0.120271709726384

> <i_epik_Tot_Q>
-1

> <i_epik_Tot_abs_Q>
1

$$$$
