3vvy_ligand
                    3D
 Schrodinger Suite 2020-3.
 45 48  0  0  1  0            999 V2000
    5.1040   15.5370  -32.2680 C   0  0  0  0  0  0
    4.1550   16.5650  -32.3740 C   0  0  0  0  0  0
    3.1320   16.4380  -33.2820 C   0  0  0  0  0  0
    2.9680   15.3140  -34.0630 C   0  0  0  0  0  0
    3.7430   13.0580  -34.6490 N   0  0  0  0  0  0
    4.7240   12.1700  -34.7880 C   0  0  1  0  0  0
    6.6720   11.0700  -33.5810 C   0  0  0  0  0  0
    7.6410   11.2310  -32.5900 C   0  0  0  0  0  0
    7.7610   12.3730  -31.8300 C   0  0  0  0  0  0
    6.9100   13.4650  -31.9630 C   0  0  0  0  0  0
    5.7880   12.1660  -33.7100 C   0  0  0  0  0  0
    5.9270   13.3280  -32.9900 C   0  0  0  0  0  0
    4.9430   14.4160  -33.0870 C   0  0  0  0  0  0
    3.8940   14.2650  -33.9970 C   0  0  0  0  0  0
    4.6110   10.9230  -35.5010 C   0  0  0  0  0  0
    5.3630   10.7280  -36.7010 C   0  0  0  0  0  0
    5.2570    9.5180  -37.3500 C   0  0  0  0  0  0
    4.3580    8.5440  -36.8750 C   0  0  0  0  0  0
    3.6580    8.7720  -35.6640 C   0  0  0  0  0  0
    3.7440    9.9800  -35.0350 C   0  0  0  0  0  0
    2.6770   13.1020  -35.7170 C   0  0  0  0  0  0
    1.3940   12.6820  -35.0460 C   0  0  0  0  0  0
    2.2260   17.4940  -33.4650 N   0  0  0  0  0  0
    8.4090   10.1080  -32.3580 N   0  0  0  0  0  0
    5.9385   15.6102  -31.5706 H   0  0  0  0  0  0
    4.2284   17.4520  -31.7447 H   0  0  0  0  0  0
    2.1133   15.2411  -34.7355 H   0  0  0  0  0  0
    4.7771   12.8121  -35.6795 H   0  0  0  0  0  0
    6.6025   10.1768  -34.2019 H   0  0  0  0  0  0
    8.5598   12.4235  -31.0901 H   0  0  0  0  0  0
    6.9870   14.3526  -31.3350 H   0  0  0  0  0  0
    6.0044   11.5175  -37.0926 H   0  0  0  0  0  0
    5.8678    9.3147  -38.2296 H   0  0  0  0  0  0
    4.2016    7.6217  -37.4344 H   0  0  0  0  0  0
    3.0478    7.9784  -35.2328 H   0  0  0  0  0  0
    3.1226   10.1897  -34.1644 H   0  0  0  0  0  0
    2.5994   14.1243  -36.1157 H   0  0  0  0  0  0
    2.9437   12.4107  -36.5300 H   0  0  0  0  0  0
    0.5750   12.6949  -35.7802 H   0  0  0  0  0  0
    1.1633   13.3791  -34.2270 H   0  0  0  0  0  0
    1.5076   11.6655  -34.6413 H   0  0  0  0  0  0
    2.3199   18.4098  -32.8630 H   0  0  0  0  0  0
    1.4219   17.4059  -34.2105 H   0  0  0  0  0  0
    8.2825    9.2154  -32.9882 H   0  0  0  0  0  0
    9.1476   10.1056  -31.5429 H   0  0  0  0  0  0
  1  2  2  0  0  0
  1 13  1  0  0  0
  1 25  1  0  0  0
  2  3  1  0  0  0
  2 26  1  0  0  0
  3  4  2  0  0  0
  3 23  1  0  0  0
  4 14  1  0  0  0
  4 27  1  0  0  0
  5  6  1  0  0  0
  5 14  1  0  0  0
  5 21  1  0  0  0
  6 11  1  0  0  0
  6 15  1  0  0  0
  6 28  1  0  0  0
  7  8  2  0  0  0
  7 11  1  0  0  0
  7 29  1  0  0  0
  8  9  1  0  0  0
  8 24  1  0  0  0
  9 10  2  0  0  0
  9 30  1  0  0  0
 10 12  1  0  0  0
 10 31  1  0  0  0
 11 12  2  0  0  0
 12 13  1  0  0  0
 13 14  2  0  0  0
 15 16  2  0  0  0
 15 20  1  0  0  0
 16 17  1  0  0  0
 16 32  1  0  0  0
 17 18  2  0  0  0
 17 33  1  0  0  0
 18 19  1  0  0  0
 18 34  1  0  0  0
 19 20  2  0  0  0
 19 35  1  0  0  0
 20 36  1  0  0  0
 21 22  1  0  0  0
 21 37  1  0  0  0
 21 38  1  0  0  0
 22 39  1  0  0  0
 22 40  1  0  0  0
 22 41  1  0  0  0
 23 42  1  0  0  0
 23 43  1  0  0  0
 24 44  1  0  0  0
 24 45  1  0  0  0
M  END
> <s_m_source_file>
../3vvy_ligand.sdf

> <i_m_source_file_index>
1

> <s_epik_input>
W2NIXTFjKFtOSDJdKVtjSF1bY0hdYyhjMTIpYzNjKFtjSF1jKFtOSDJdKVtjSF1bY0hdMylOKFtDSDJdW0NIM10pW0NAQEhdMmM0W2NIXVtjSF1bY0hdW2NIXVtjSF00

> <s_epik_cmdline>
J2VwaWtfYXBwJywgJy1pbWFlJywgJ2xpZ2FuZF9wcm8ubWFlJywgJy1vbWFlJywgJ2xpZ2FuZF9wcmVwLm1hZScsICctbXMnLCAnMScsICctcGgnLCAnNycsICctcGh0JywgJzAuNScsICctbnQn

> <r_lp_tautomer_probability>
1

> <r_epik_Ionization_Penalty>
  0.0102

> <r_epik_Ionization_Penalty_Charging>
  0.0000

> <r_epik_Ionization_Penalty_Neutral>
  0.0102

> <r_epik_State_Penalty>
 -0.0000

> <r_epik_Charging_Adjusted_Penalty>
0

> <i_epik_Tot_Q>
0

> <i_epik_Tot_abs_Q>
0

$$$$
