3vvz_ligand
                    3D
 Schrodinger Suite 2020-3.
 65 68  0  0  1  0            999 V2000
    5.0130   16.5430  -34.4700 C   0  0  0  0  0  0
    3.8310   16.4820  -35.1860 C   0  0  0  0  0  0
    2.9070   17.5230  -35.1160 C   0  0  0  0  0  0
    3.1700   18.6410  -34.3190 C   0  0  0  0  0  0
    4.3580   18.7110  -33.5990 C   0  0  0  0  0  0
    5.2670   17.6490  -33.6820 C   0  0  0  0  0  0
    5.9290   15.5080  -34.5140 O   0  0  0  0  0  0
    5.6940   14.3910  -35.2930 C   0  0  0  0  0  0
    4.5200   14.3100  -36.0340 C   0  0  0  0  0  0
    3.5740   15.3730  -35.9650 C   0  0  0  0  0  0
    6.6340   13.3700  -35.3120 C   0  0  0  0  0  0
    6.4210   12.2310  -36.0830 C   0  0  0  0  0  0
    5.2440   12.1310  -36.8240 C   0  0  0  0  0  0
    4.3020   13.1550  -36.8020 C   0  0  0  0  0  0
    7.3520   11.2400  -36.0940 N   0  0  0  0  0  0
    2.3000   15.3640  -36.7520 C   0  0  0  0  0  0
    1.2040   14.6930  -36.2310 C   0  0  0  0  0  0
    0.0050   14.6630  -36.9700 C   0  0  0  0  0  0
   -0.1090   15.2780  -38.2250 C   0  0  0  0  0  0
    0.9960   15.9520  -38.7410 C   0  0  0  0  0  0
    2.1910   16.0090  -38.0180 C   0  0  0  0  0  0
    4.9550   10.9230  -37.6830 C   0  0  0  0  0  0
    2.1970   19.8130  -34.2420 C   0  0  0  0  0  0
    8.3720   11.2100  -35.0120 C   0  0  0  0  0  0
    7.9630   10.7720  -33.6520 C   0  0  0  0  0  0
    4.5980   19.8600  -32.7860 N   0  0  0  0  0  0
    5.6350   19.5460  -31.6780 C   0  0  0  0  0  0
    5.7870   20.8020  -30.8430 C   0  0  0  0  0  0
    3.3050   16.7870  -38.7020 C   0  0  0  0  0  0
    4.4000   16.9820  -38.1680 O   0  0  0  0  0  0
    3.0680   17.3430  -40.0580 O   0  0  0  0  0  0
    4.1070   18.0100  -40.8050 C   0  0  0  0  0  0
    3.6930   18.1710  -42.2740 C   0  0  0  0  0  0
    1.9781   17.4654  -35.6834 H   0  0  0  0  0  0
    6.1952   17.6960  -33.1125 H   0  0  0  0  0  0
    4.2771   15.0066  -35.2025 H   0  0  0  0  0  0
    7.5444   13.4607  -34.7196 H   0  0  0  0  0  0
    3.3867   13.0596  -37.3862 H   0  0  0  0  0  0
    7.3616   10.4710  -36.8804 H   0  0  0  0  0  0
    1.2693   14.1957  -35.2632 H   0  0  0  0  0  0
   -0.8598   14.1463  -36.5538 H   0  0  0  0  0  0
   -1.0427   15.2298  -38.7853 H   0  0  0  0  0  0
    0.9282   16.4378  -39.7144 H   0  0  0  0  0  0
    5.7844   10.2055  -37.5976 H   0  0  0  0  0  0
    4.8476   11.2362  -38.7320 H   0  0  0  0  0  0
    4.0225   10.4474  -37.3450 H   0  0  0  0  0  0
    1.3154   19.5991  -34.8641 H   0  0  0  0  0  0
    2.6916   20.7248  -34.6080 H   0  0  0  0  0  0
    1.8823   19.9603  -33.1983 H   0  0  0  0  0  0
    9.1835   10.5223  -35.2921 H   0  0  0  0  0  0
    8.7816   12.2204  -34.8661 H   0  0  0  0  0  0
    8.8318   10.8086  -32.9783 H   0  0  0  0  0  0
    7.5782    9.7425  -33.6986 H   0  0  0  0  0  0
    7.1763   11.4407  -33.2726 H   0  0  0  0  0  0
    4.1581   20.8656  -32.8586 H   0  0  0  0  0  0
    5.2710   18.7112  -31.0611 H   0  0  0  0  0  0
    6.5937   19.2690  -32.1409 H   0  0  0  0  0  0
    6.5177   20.6226  -30.0406 H   0  0  0  0  0  0
    4.8154   21.0685  -30.4013 H   0  0  0  0  0  0
    6.1381   21.6263  -31.4812 H   0  0  0  0  0  0
    4.2876   19.0055  -40.3732 H   0  0  0  0  0  0
    5.0318   17.4163  -40.7571 H   0  0  0  0  0  0
    4.4956   18.6805  -42.8274 H   0  0  0  0  0  0
    2.7713   18.7685  -42.3318 H   0  0  0  0  0  0
    3.5154   17.1793  -42.7157 H   0  0  0  0  0  0
  1  2  2  0  0  0
  1  6  1  0  0  0
  1  7  1  0  0  0
  2  3  1  0  0  0
  2 10  1  0  0  0
  3  4  2  0  0  0
  3 34  1  0  0  0
  4  5  1  0  0  0
  4 23  1  0  0  0
  5  6  2  0  0  0
  5 26  1  0  0  0
  6 35  1  0  0  0
  7  8  1  0  0  0
  8  9  2  0  0  0
  8 11  1  0  0  0
  9 10  1  0  0  0
  9 14  1  0  0  0
 10 16  1  0  0  0
 10 36  1  0  0  0
 11 12  2  0  0  0
 11 37  1  0  0  0
 12 13  1  0  0  0
 12 15  1  0  0  0
 13 14  2  0  0  0
 13 22  1  0  0  0
 14 38  1  0  0  0
 15 24  1  0  0  0
 15 39  1  0  0  0
 16 17  2  0  0  0
 16 21  1  0  0  0
 17 18  1  0  0  0
 17 40  1  0  0  0
 18 19  2  0  0  0
 18 41  1  0  0  0
 19 20  1  0  0  0
 19 42  1  0  0  0
 20 21  2  0  0  0
 20 43  1  0  0  0
 21 29  1  0  0  0
 22 44  1  0  0  0
 22 45  1  0  0  0
 22 46  1  0  0  0
 23 47  1  0  0  0
 23 48  1  0  0  0
 23 49  1  0  0  0
 24 25  1  0  0  0
 24 50  1  0  0  0
 24 51  1  0  0  0
 25 52  1  0  0  0
 25 53  1  0  0  0
 25 54  1  0  0  0
 26 27  1  0  0  0
 26 55  1  0  0  0
 27 28  1  0  0  0
 27 56  1  0  0  0
 27 57  1  0  0  0
 28 58  1  0  0  0
 28 59  1  0  0  0
 28 60  1  0  0  0
 29 30  2  0  0  0
 29 31  1  0  0  0
 31 32  1  0  0  0
 32 33  1  0  0  0
 32 61  1  0  0  0
 32 62  1  0  0  0
 33 63  1  0  0  0
 33 64  1  0  0  0
 33 65  1  0  0  0
M  END
> <s_m_source_file>
../3vvz_ligand.sdf

> <i_m_source_file_index>
1

> <s_epik_input>
W0NIM11bQ0gyXVtOSF1jKGMoW2NIXTEpW0NIM10pW2NIXWMoTzIpYzFbQ0hdKGMoYzIzKVtjSF1jKFtDSDNdKWMoW2NIXTMpW05IXVtDSDJdW0NIM10pYzRbY0hdW2NIXVtjSF1bY0hdYzRDKD1PKU9bQ0gyXVtDSDNd

> <s_epik_cmdline>
J2VwaWtfYXBwJywgJy1pbWFlJywgJ2xpZ2FuZF9wcm8ubWFlJywgJy1vbWFlJywgJ2xpZ2FuZF9wcmVwLm1hZScsICctbXMnLCAnMScsICctcGgnLCAnNycsICctcGh0JywgJzAuNScsICctbnQn

> <r_lp_tautomer_probability>
1

> <r_epik_Ionization_Penalty>
  0.0007

> <r_epik_Ionization_Penalty_Charging>
  0.0000

> <r_epik_Ionization_Penalty_Neutral>
  0.0007

> <r_epik_State_Penalty>
 -0.0000

> <r_epik_Charging_Adjusted_Penalty>
0

> <i_epik_Tot_Q>
0

> <i_epik_Tot_abs_Q>
0

> <s_epik_Chemistry_Notes>
This compound has an ester and may undergo hydrolysis at high or low pH.

$$$$
