3vw0_ligand
                    3D
 Schrodinger Suite 2020-3.
 77 80  0  0  1  0            999 V2000
  -41.7490    0.0060  -24.5050 C   0  0  0  0  0  0
  -40.7870    0.4170  -23.6230 C   0  0  0  0  0  0
  -40.0550   -0.4850  -22.8940 C   0  0  0  0  0  0
  -40.3010   -1.8110  -23.0610 C   0  0  0  0  0  0
  -42.0010   -1.3290  -24.6490 C   0  0  0  0  0  0
  -41.2700   -2.2280  -23.9380 C   0  0  0  0  0  0
  -41.4820   -3.5500  -24.0940 C   0  0  0  0  0  0
  -42.4180   -3.9820  -24.9520 C   0  0  0  0  0  0
  -43.1530   -3.0830  -25.6510 C   0  0  1  0  0  0
  -42.9540   -1.7120  -25.5740 N   0  0  0  0  0  0
  -51.5280   -6.1200  -28.9950 C   0  0  0  0  0  0
  -51.4450   -4.7440  -29.4360 C   0  0  0  0  0  0
  -52.2910   -3.8290  -28.8710 N   0  0  0  0  0  0
  -53.1930   -4.2210  -27.8770 C   0  0  0  0  0  0
  -53.2450   -5.5400  -27.4660 C   0  0  0  0  0  0
  -52.4130   -6.4790  -28.0330 C   0  0  1  0  0  0
  -50.7210   -7.0440  -29.5710 C   0  0  0  0  0  0
  -49.8370   -6.6450  -30.5500 C   0  0  0  0  0  0
  -49.7330   -5.3410  -30.9750 C   0  0  0  0  0  0
  -50.5490   -4.3920  -30.4130 C   0  0  0  0  0  0
  -52.1360   -2.4870  -29.3520 C   0  0  0  0  0  0
  -50.6390   -2.3220  -29.4360 C   0  0  0  0  0  0
  -50.2220   -0.9840  -29.9560 C   0  0  0  0  0  0
  -48.7550   -0.8200  -29.6780 C   0  0  0  0  0  0
  -48.4720   -0.5920  -28.2150 C   0  0  0  0  0  0
  -47.0200   -0.2110  -28.0420 C   0  0  0  0  0  0
  -46.8700    0.7210  -26.8770 C   0  0  0  0  0  0
  -45.4290    0.8090  -26.4480 C   0  0  0  0  0  0
  -44.6950   -0.4820  -26.6710 C   0  0  0  0  0  0
  -44.1940   -0.9990  -25.3450 C   0  0  0  0  0  0
  -44.1680   -3.6190  -26.5890 C   0  0  0  0  0  0
  -54.1140   -3.2390  -27.2250 C   0  0  0  0  0  0
  -40.7140   -4.5280  -23.3260 N   0  0  0  0  0  0
  -52.4420   -7.8910  -27.6340 N   0  3  0  0  0  0
  -42.3093    0.7373  -25.0876 H   0  0  0  0  0  0
  -40.5986    1.4832  -23.4972 H   0  0  0  0  0  0
  -39.2912   -0.1451  -22.1946 H   0  0  0  0  0  0
  -39.7267   -2.5455  -22.4964 H   0  0  0  0  0  0
  -42.5858   -5.0609  -25.0854 H   0  0  0  0  0  0
  -42.6892   -2.7165  -24.7233 H   0  0  0  0  0  0
  -53.9539   -5.8442  -26.6818 H   0  0  0  0  0  0
  -51.6565   -6.2749  -27.2609 H   0  0  0  0  0  0
  -50.7705   -8.0887  -29.2640 H   0  0  0  0  0  0
  -49.1922   -7.3954  -31.0074 H   0  0  0  0  0  0
  -49.0135   -5.0659  -31.7462 H   0  0  0  0  0  0
  -50.4851   -3.3554  -30.7439 H   0  0  0  0  0  0
  -52.6260   -2.3899  -30.3320 H   0  0  0  0  0  0
  -52.5976   -1.7868  -28.6403 H   0  0  0  0  0  0
  -50.2003   -2.4404  -28.4342 H   0  0  0  0  0  0
  -50.2233   -3.0848  -30.1108 H   0  0  0  0  0  0
  -50.4131   -0.9354  -31.0382 H   0  0  0  0  0  0
  -50.7973   -0.1970  -29.4464 H   0  0  0  0  0  0
  -48.2187   -1.7279  -29.9912 H   0  0  0  0  0  0
  -48.3701    0.0449  -30.2382 H   0  0  0  0  0  0
  -49.1133    0.2191  -27.8396 H   0  0  0  0  0  0
  -48.6806   -1.5143  -27.6531 H   0  0  0  0  0  0
  -46.4225   -1.1165  -27.8604 H   0  0  0  0  0  0
  -46.6608    0.2886  -28.9538 H   0  0  0  0  0  0
  -47.2177    1.7246  -27.1632 H   0  0  0  0  0  0
  -47.4705    0.3519  -26.0325 H   0  0  0  0  0  0
  -44.9220    1.5961  -27.0254 H   0  0  0  0  0  0
  -45.3796    1.0511  -25.3761 H   0  0  0  0  0  0
  -45.3767   -1.2181  -27.1220 H   0  0  0  0  0  0
  -43.8442   -0.3082  -27.3463 H   0  0  0  0  0  0
  -44.9337   -1.6826  -24.9028 H   0  0  0  0  0  0
  -44.0129   -0.1600  -24.6571 H   0  0  0  0  0  0
  -44.1899   -4.7165  -26.5176 H   0  0  0  0  0  0
  -43.9098   -3.3235  -27.6166 H   0  0  0  0  0  0
  -45.1574   -3.2148  -26.3288 H   0  0  0  0  0  0
  -53.9521   -2.2410  -27.6583 H   0  0  0  0  0  0
  -53.9105   -3.2070  -26.1445 H   0  0  0  0  0  0
  -55.1566   -3.5469  -27.3928 H   0  0  0  0  0  0
  -39.9430   -4.1889  -22.6185 H   0  0  0  0  0  0
  -40.9070   -5.6032  -23.4555 H   0  0  0  0  0  0
  -51.6960   -8.4519  -28.2161 H   0  0  0  0  0  0
  -53.4430   -8.3054  -27.8246 H   0  0  0  0  0  0
  -52.2087   -7.9740  -26.5622 H   0  0  0  0  0  0
  1  2  2  0  0  0
  1  5  1  0  0  0
  1 35  1  0  0  0
  2  3  1  0  0  0
  2 36  1  0  0  0
  3  4  2  0  0  0
  3 37  1  0  0  0
  4  6  1  0  0  0
  4 38  1  0  0  0
  5  6  2  0  0  0
  5 10  1  0  0  0
  6  7  1  0  0  0
  7  8  2  0  0  0
  7 33  1  0  0  0
  8  9  1  0  0  0
  8 39  1  0  0  0
  9 10  1  0  0  0
  9 31  1  0  0  0
  9 40  1  0  0  0
 10 30  1  0  0  0
 11 12  2  0  0  0
 11 16  1  0  0  0
 11 17  1  0  0  0
 12 13  1  0  0  0
 12 20  1  0  0  0
 13 14  1  0  0  0
 13 21  1  0  0  0
 14 15  2  0  0  0
 14 32  1  0  0  0
 15 16  1  0  0  0
 15 41  1  0  0  0
 16 34  1  0  0  0
 16 42  1  0  0  0
 17 18  2  0  0  0
 17 43  1  0  0  0
 18 19  1  0  0  0
 18 44  1  0  0  0
 19 20  2  0  0  0
 19 45  1  0  0  0
 20 46  1  0  0  0
 21 22  1  0  0  0
 21 47  1  0  0  0
 21 48  1  0  0  0
 22 23  1  0  0  0
 22 49  1  0  0  0
 22 50  1  0  0  0
 23 24  1  0  0  0
 23 51  1  0  0  0
 23 52  1  0  0  0
 24 25  1  0  0  0
 24 53  1  0  0  0
 24 54  1  0  0  0
 25 26  1  0  0  0
 25 55  1  0  0  0
 25 56  1  0  0  0
 26 27  1  0  0  0
 26 57  1  0  0  0
 26 58  1  0  0  0
 27 28  1  0  0  0
 27 59  1  0  0  0
 27 60  1  0  0  0
 28 29  1  0  0  0
 28 61  1  0  0  0
 28 62  1  0  0  0
 29 30  1  0  0  0
 29 63  1  0  0  0
 29 64  1  0  0  0
 30 65  1  0  0  0
 30 66  1  0  0  0
 31 67  1  0  0  0
 31 68  1  0  0  0
 31 69  1  0  0  0
 32 70  1  0  0  0
 32 71  1  0  0  0
 32 72  1  0  0  0
 33 73  1  0  0  0
 33 74  1  0  0  0
 34 75  1  0  0  0
 34 76  1  0  0  0
 34 77  1  0  0  0
M  CHG  1  34   1
M  END
> <s_m_source_file>
../3vw0_ligand.sdf

> <i_m_source_file_index>
1

> <s_epik_input>
W2NIXTFbY0hdW2NIXVtjSF1jKGMxMilDKFtOSDJdKT1bQ0hdW0NASF0oW0NIM10pTjJbQ0gyXVtDSDJdW0NIMl1bQ0gyXVtDSDJdW0NIMl1bQ0gyXVtDSDJdW0NIMl1bQ0gyXU4oQyhbQ0gzXSk9W0NIXVtDSF0zW05IMytdKWMoYzM0KVtjSF1bY0hdW2NIXVtjSF00

> <s_epik_cmdline>
J2VwaWtfYXBwJywgJy1pbWFlJywgJ2xpZ2FuZF9wcm8ubWFlJywgJy1vbWFlJywgJ2xpZ2FuZF9wcmVwLm1hZScsICctbXMnLCAnMScsICctcGgnLCAnNycsICctcGh0JywgJzAuNScsICctbnQn

> <r_lp_tautomer_probability>
1

> <r_epik_Ionization_Penalty>
  0.0856

> <r_epik_Ionization_Penalty_Charging>
  0.0752

> <r_epik_Ionization_Penalty_Neutral>
  0.0104

> <r_epik_State_Penalty>
 -0.0000

> <r_epik_Charging_Adjusted_Penalty>
0.0752078879603939

> <i_epik_Tot_Q>
1

> <i_epik_Tot_abs_Q>
1

> <s_epik_Chemistry_Notes>
This compound has an imine and may undergo hydrolysis.

$$$$
