3vw1_ligand
                    3D
 Schrodinger Suite 2020-3.
 59 61  0  0  1  0            999 V2000
  -13.4020    2.7860  -18.6720 C   0  0  0  0  0  0
  -12.6860    3.3930  -17.5410 C   0  0  0  0  0  0
  -11.6340    2.7120  -16.9750 C   0  0  0  0  0  0
  -10.9790    3.2650  -15.8490 C   0  0  0  0  0  0
  -11.4240    4.5220  -15.3720 C   0  0  0  0  0  0
  -12.4950    5.1980  -15.9950 C   0  0  0  0  0  0
  -13.1250    4.6120  -17.0780 C   0  0  0  0  0  0
  -14.8730    3.0700  -18.8150 C   0  0  0  0  0  0
  -15.3830    3.5690  -20.0210 C   0  0  0  0  0  0
  -16.7790    3.8380  -20.1240 C   0  0  0  0  0  0
  -17.6380    3.6340  -19.0460 C   0  0  0  0  0  0
  -17.1200    3.1630  -17.8470 C   0  0  0  0  0  0
  -15.7410    2.8780  -17.7030 C   0  0  0  0  0  0
  -12.6310    2.0310  -19.6670 C   0  0  0  0  0  0
  -11.2440    2.1680  -19.7960 C   0  0  0  0  0  0
  -10.6130    1.4160  -20.8130 C   0  0  0  0  0  0
  -11.3340    0.5240  -21.6340 C   0  0  0  0  0  0
  -12.6950    0.4160  -21.4570 C   0  0  0  0  0  0
  -13.3330    1.1710  -20.4870 C   0  0  0  0  0  0
   -9.4710    4.6310  -13.8240 C   0  0  0  0  0  0
  -11.3910    6.1790  -13.4840 C   0  0  0  0  0  0
  -19.5190    4.6360  -20.2470 C   0  0  0  0  0  0
  -19.7550    3.4460  -17.9850 C   0  0  0  0  0  0
   -9.2330   -0.1860  -22.7330 C   0  0  0  0  0  0
  -11.3620   -0.8560  -23.8100 C   0  0  0  0  0  0
  -10.7970    5.0960  -14.2540 N   0  0  0  0  0  0
  -18.9750    3.9030  -19.1200 N   0  0  0  0  0  0
  -10.6850   -0.1980  -22.6840 N   0  0  0  0  0  0
  -13.5304    1.6950  -18.6158 H   0  0  0  0  0  0
  -11.3084    1.7576  -17.3887 H   0  0  0  0  0  0
  -10.1568    2.7393  -15.3635 H   0  0  0  0  0  0
  -12.8218    6.1705  -15.6270 H   0  0  0  0  0  0
  -13.9638    5.1127  -17.5615 H   0  0  0  0  0  0
  -14.7215    3.7489  -20.8684 H   0  0  0  0  0  0
  -17.1828    4.2109  -21.0653 H   0  0  0  0  0  0
  -17.7885    3.0097  -16.9998 H   0  0  0  0  0  0
  -15.3486    2.5161  -16.7527 H   0  0  0  0  0  0
  -10.6747    2.8266  -19.1401 H   0  0  0  0  0  0
   -9.5398    1.5285  -20.9670 H   0  0  0  0  0  0
  -13.2720   -0.2656  -22.0820 H   0  0  0  0  0  0
  -14.4131    1.0841  -20.3686 H   0  0  0  0  0  0
   -9.1366    3.8163  -14.4831 H   0  0  0  0  0  0
   -9.5290    4.2645  -12.7885 H   0  0  0  0  0  0
   -8.7548    5.4641  -13.8785 H   0  0  0  0  0  0
  -12.3753    6.4314  -13.9053 H   0  0  0  0  0  0
  -10.7362    7.0618  -13.5275 H   0  0  0  0  0  0
  -11.5104    5.8622  -12.4374 H   0  0  0  0  0  0
  -18.7140    4.8580  -20.9630 H   0  0  0  0  0  0
  -19.9638    5.5773  -19.8919 H   0  0  0  0  0  0
  -20.2918    4.0286  -20.7408 H   0  0  0  0  0  0
  -19.0983    2.9189  -17.2772 H   0  0  0  0  0  0
  -20.5430    2.7620  -18.3332 H   0  0  0  0  0  0
  -20.2150    4.3107  -17.4842 H   0  0  0  0  0  0
   -8.8404    0.3295  -21.8441 H   0  0  0  0  0  0
   -8.9011    0.3416  -23.6394 H   0  0  0  0  0  0
   -8.8582   -1.2200  -22.7526 H   0  0  0  0  0  0
  -12.4511   -0.8032  -23.6645 H   0  0  0  0  0  0
  -11.0494   -1.9094  -23.8608 H   0  0  0  0  0  0
  -11.0923   -0.3479  -24.7476 H   0  0  0  0  0  0
  1  2  1  0  0  0
  1  8  1  0  0  0
  1 14  1  0  0  0
  1 29  1  0  0  0
  2  3  2  0  0  0
  2  7  1  0  0  0
  3  4  1  0  0  0
  3 30  1  0  0  0
  4  5  2  0  0  0
  4 31  1  0  0  0
  5  6  1  0  0  0
  5 26  1  0  0  0
  6  7  2  0  0  0
  6 32  1  0  0  0
  7 33  1  0  0  0
  8  9  2  0  0  0
  8 13  1  0  0  0
  9 10  1  0  0  0
  9 34  1  0  0  0
 10 11  2  0  0  0
 10 35  1  0  0  0
 11 12  1  0  0  0
 11 27  1  0  0  0
 12 13  2  0  0  0
 12 36  1  0  0  0
 13 37  1  0  0  0
 14 15  2  0  0  0
 14 19  1  0  0  0
 15 16  1  0  0  0
 15 38  1  0  0  0
 16 17  2  0  0  0
 16 39  1  0  0  0
 17 18  1  0  0  0
 17 28  1  0  0  0
 18 19  2  0  0  0
 18 40  1  0  0  0
 19 41  1  0  0  0
 20 26  1  0  0  0
 20 42  1  0  0  0
 20 43  1  0  0  0
 20 44  1  0  0  0
 21 26  1  0  0  0
 21 45  1  0  0  0
 21 46  1  0  0  0
 21 47  1  0  0  0
 22 27  1  0  0  0
 22 48  1  0  0  0
 22 49  1  0  0  0
 22 50  1  0  0  0
 23 27  1  0  0  0
 23 51  1  0  0  0
 23 52  1  0  0  0
 23 53  1  0  0  0
 24 28  1  0  0  0
 24 54  1  0  0  0
 24 55  1  0  0  0
 24 56  1  0  0  0
 25 28  1  0  0  0
 25 57  1  0  0  0
 25 58  1  0  0  0
 25 59  1  0  0  0
M  END
> <s_m_source_file>
../3vw1_ligand.sdf

> <i_m_source_file_index>
1

> <s_epik_input>
W2NIXTFbY0hdYyhOKFtDSDNdKVtDSDNdKVtjSF1bY0hdYzFbQ0hdKGMyW2NIXVtjSF1jKFtjSF1bY0hdMilOKFtDSDNdKVtDSDNdKWMzW2NIXVtjSF1jKFtjSF1bY0hdMylOKFtDSDNdKVtDSDNd

> <s_epik_cmdline>
J2VwaWtfYXBwJywgJy1pbWFlJywgJ2xpZ2FuZF9wcm8ubWFlJywgJy1vbWFlJywgJ2xpZ2FuZF9wcmVwLm1hZScsICctbXMnLCAnMScsICctcGgnLCAnNycsICctcGh0JywgJzAuNScsICctbnQn

> <r_epik_Ionization_Penalty>
  0.0258

> <r_epik_Ionization_Penalty_Charging>
  0.0000

> <r_epik_Ionization_Penalty_Neutral>
  0.0258

> <r_epik_State_Penalty>
  0.0211

> <r_epik_Charging_Adjusted_Penalty>
0.0210591436216147

> <i_epik_Tot_Q>
0

> <i_epik_Tot_abs_Q>
0

$$$$
