3vw9_ligand
                    3D
 Schrodinger Suite 2020-3.
 48 51  0  0  1  0            999 V2000
    5.6130  -10.7480  -24.6640 C   0  0  0  0  0  0
    9.7490  -12.1760  -28.2440 C   0  0  0  0  0  0
    5.2810  -10.5450  -26.1660 C   0  0  0  0  0  0
    7.2330  -11.6170  -27.2870 C   0  0  0  0  0  0
    5.3370  -12.6620  -27.4930 C   0  0  0  0  0  0
    6.2500  -13.3940  -28.1340 C   0  0  0  0  0  0
    7.4300  -12.7650  -28.0510 C   0  0  0  0  0  0
    8.7220  -13.0980  -28.4770 C   0  0  0  0  0  0
    9.4790  -11.0440  -27.4650 C   0  0  0  0  0  0
    4.9530  -11.9970  -24.0440 C   0  0  0  0  0  0
    2.8650  -13.0760  -23.7180 C   0  0  0  0  0  0
    3.5280  -11.8320  -23.9930 O   0  0  0  0  0  0
    5.9400  -11.5870  -26.9870 N   0  0  0  0  0  0
    8.2550  -10.7870  -27.0010 N   0  0  0  0  0  0
   11.0720  -12.4630  -28.6030 C   0  0  0  0  0  0
   11.4590  -12.8890  -29.8730 C   0  0  0  0  0  0
   12.0630  -12.3360  -27.6070 N   0  0  0  0  0  0
   11.7860  -11.8910  -26.3050 O   0  5  0  0  0  0
   13.4030  -12.6430  -27.8780 C   0  0  0  0  0  0
   14.2160  -12.4940  -26.9410 O   0  0  0  0  0  0
   13.7770  -13.0590  -29.1660 C   0  0  0  0  0  0
   12.8170  -13.1490  -30.1900 C   0  0  0  0  0  0
   13.1880  -13.5830  -31.4890 C   0  0  0  0  0  0
   12.3010  -14.3370  -32.2790 C   0  0  0  0  0  0
   12.7100  -14.7920  -33.5450 C   0  0  0  0  0  0
   13.9870  -14.4920  -34.0400 C   0  0  0  0  0  0
   14.8670  -13.7200  -33.2830 C   0  0  0  0  0  0
   14.4580  -13.2700  -32.0150 C   0  0  0  0  0  0
    6.7005  -10.8580  -24.5405 H   0  0  0  0  0  0
    5.2652   -9.8762  -24.0905 H   0  0  0  0  0  0
    4.1927  -10.6089  -26.3128 H   0  0  0  0  0  0
    5.6372   -9.5559  -26.4899 H   0  0  0  0  0  0
    4.2780  -12.9025  -27.3992 H   0  0  0  0  0  0
    6.0670  -14.3424  -28.6392 H   0  0  0  0  0  0
    8.9217  -14.0468  -28.9751 H   0  0  0  0  0  0
   10.2905  -10.3547  -27.2316 H   0  0  0  0  0  0
    5.1913  -12.8795  -24.6559 H   0  0  0  0  0  0
    5.3348  -12.1448  -23.0230 H   0  0  0  0  0  0
    1.7776  -12.9128  -23.6862 H   0  0  0  0  0  0
    3.2057  -13.4664  -22.7477 H   0  0  0  0  0  0
    3.1039  -13.8016  -24.5095 H   0  0  0  0  0  0
   10.6986  -13.0257  -30.6419 H   0  0  0  0  0  0
   14.8164  -13.3134  -29.3732 H   0  0  0  0  0  0
   11.3011  -14.5674  -31.9113 H   0  0  0  0  0  0
   12.0249  -15.3861  -34.1498 H   0  0  0  0  0  0
   14.2922  -14.8630  -35.0184 H   0  0  0  0  0  0
   15.8556  -13.4693  -33.6675 H   0  0  0  0  0  0
   15.1419  -12.6623  -31.4224 H   0  0  0  0  0  0
  1  3  1  0  0  0
  1 10  1  0  0  0
  1 29  1  0  0  0
  1 30  1  0  0  0
  2  8  2  0  0  0
  2  9  1  0  0  0
  2 15  1  0  0  0
  3 13  1  0  0  0
  3 31  1  0  0  0
  3 32  1  0  0  0
  4  7  2  0  0  0
  4 13  1  0  0  0
  4 14  1  0  0  0
  5  6  2  0  0  0
  5 13  1  0  0  0
  5 33  1  0  0  0
  6  7  1  0  0  0
  6 34  1  0  0  0
  7  8  1  0  0  0
  8 35  1  0  0  0
  9 14  2  0  0  0
  9 36  1  0  0  0
 10 12  1  0  0  0
 10 37  1  0  0  0
 10 38  1  0  0  0
 11 12  1  0  0  0
 11 39  1  0  0  0
 11 40  1  0  0  0
 11 41  1  0  0  0
 15 16  2  0  0  0
 15 17  1  0  0  0
 16 22  1  0  0  0
 16 42  1  0  0  0
 17 18  1  0  0  0
 17 19  1  0  0  0
 19 20  2  0  0  0
 19 21  1  0  0  0
 21 22  2  0  0  0
 21 43  1  0  0  0
 22 23  1  0  0  0
 23 24  2  0  0  0
 23 28  1  0  0  0
 24 25  1  0  0  0
 24 44  1  0  0  0
 25 26  2  0  0  0
 25 45  1  0  0  0
 26 27  1  0  0  0
 26 46  1  0  0  0
 27 28  2  0  0  0
 27 47  1  0  0  0
 28 48  1  0  0  0
M  CHG  1  18  -1
M  END
> <s_m_source_file>
../3vw9_ligand.sdf

> <i_m_source_file_index>
1

> <s_epik_input>
W0NIM11PW0NIMl1bQ0gyXVtDSDJdbjFbY0hdW2NIXWMoYzEyKVtjSF1jKFtjSF1uMiktYzNbY0hdYyhbY0hdYyg9TyluM1tPSF0pLWM0W2NIXVtjSF1bY0hdW2NIXVtjSF00

> <s_epik_cmdline>
J2VwaWtfYXBwJywgJy1pbWFlJywgJ2xpZ2FuZF9wcm8ubWFlJywgJy1vbWFlJywgJ2xpZ2FuZF9wcmVwLm1hZScsICctbXMnLCAnMScsICctcGgnLCAnNycsICctcGh0JywgJzAuNScsICctbnQn

> <r_lp_tautomer_probability>
1

> <r_epik_Ionization_Penalty>
  0.0006

> <r_epik_Ionization_Penalty_Charging>
  0.0000

> <r_epik_Ionization_Penalty_Neutral>
  0.0006

> <r_epik_State_Penalty>
 -0.0000

> <r_epik_Charging_Adjusted_Penalty>
1.91434875182785e-06

> <i_epik_Tot_Q>
-1

> <i_epik_Tot_abs_Q>
1

$$$$
