3vws_ligand
                    3D
 Schrodinger Suite 2020-3.
 35 37  0  0  1  0            999 V2000
   36.7950   61.6280   14.1380 Cl  0  0  0  0  0  0
   35.3500   62.4450   13.5400 C   0  0  0  0  0  0
   35.5820   63.7580   13.1470 C   0  0  0  0  0  0
   34.5240   64.5220   12.6650 C   0  0  0  0  0  0
   34.0630   61.8430   13.4470 C   0  0  0  0  0  0
   32.9920   62.6320   12.9460 C   0  0  0  0  0  0
   33.2330   64.0060   12.5480 C   0  0  0  0  0  0
   32.1290   65.0580   12.0050 S   0  0  0  0  0  0
   32.1950   65.5620   10.6460 O   0  0  0  0  0  0
   31.0920   64.1400   11.5530 O   0  0  0  0  0  0
   31.1860   65.6660   13.1420 N   0  0  0  0  0  0
   30.8340   65.2000   14.3800 C   0  0  0  0  0  0
   30.1130   63.9830   14.5600 C   0  0  0  0  0  0
   29.7240   63.5680   15.8640 C   0  0  0  0  0  0
   31.1710   66.0150   15.5170 C   0  0  0  0  0  0
   30.7740   65.6000   16.8230 C   0  0  0  0  0  0
   30.8980   66.0980   18.1610 C   0  0  0  0  0  0
   31.6110   67.3900   18.5440 C   0  0  0  0  0  0
   32.1090   68.1640   17.6910 O   0  0  0  0  0  0
   31.7330   67.6640   19.7640 O   0  5  0  0  0  0
   30.0620   64.3920   16.9780 C   0  0  0  0  0  0
   29.7760   64.1600   18.2480 O   0  0  0  0  0  0
   30.2570   65.1930   19.0260 C   0  0  0  0  0  0
   30.0100   65.0910   20.5270 C   0  0  0  0  0  0
   36.5827   64.1846   13.2158 H   0  0  0  0  0  0
   34.7092   65.5548   12.3699 H   0  0  0  0  0  0
   33.9038   60.8084   13.7508 H   0  0  0  0  0  0
   31.9924   62.2058   12.8611 H   0  0  0  0  0  0
   30.6876   66.6338   12.9839 H   0  0  0  0  0  0
   29.8592   63.3689   13.6960 H   0  0  0  0  0  0
   29.1771   62.6364   16.0092 H   0  0  0  0  0  0
   31.7259   66.9433   15.3814 H   0  0  0  0  0  0
   30.4395   65.9701   21.0298 H   0  0  0  0  0  0
   30.4848   64.1780   20.9155 H   0  0  0  0  0  0
   28.9275   65.0514   20.7186 H   0  0  0  0  0  0
  1  2  1  0  0  0
  2  3  2  0  0  0
  2  5  1  0  0  0
  3  4  1  0  0  0
  3 25  1  0  0  0
  4  7  2  0  0  0
  4 26  1  0  0  0
  5  6  2  0  0  0
  5 27  1  0  0  0
  6  7  1  0  0  0
  6 28  1  0  0  0
  7  8  1  0  0  0
  8  9  2  0  0  0
  8 10  2  0  0  0
  8 11  1  0  0  0
 11 12  1  0  0  0
 11 29  1  0  0  0
 12 13  2  0  0  0
 12 15  1  0  0  0
 13 14  1  0  0  0
 13 30  1  0  0  0
 14 21  2  0  0  0
 14 31  1  0  0  0
 15 16  2  0  0  0
 15 32  1  0  0  0
 16 17  1  0  0  0
 16 21  1  0  0  0
 17 18  1  0  0  0
 17 23  2  0  0  0
 18 19  2  0  0  0
 18 20  1  0  0  0
 21 22  1  0  0  0
 22 23  1  0  0  0
 23 24  1  0  0  0
 24 33  1  0  0  0
 24 34  1  0  0  0
 24 35  1  0  0  0
M  CHG  1  20  -1
M  END
> <s_m_source_file>
../3vws_ligand.sdf

> <i_m_source_file_index>
1

> <s_epik_input>
Q2xjMVtjSF1bY0hdYyhbY0hdW2NIXTEpUyg9TykoPU8pW05IXWMoW2NIXTIpW2NIXVtjSF1jKGMyMylvYyhbQ0gzXSljM0MoPU8pW09IXQ==

> <s_epik_cmdline>
J2VwaWtfYXBwJywgJy1pbWFlJywgJ2xpZ2FuZF9wcm8ubWFlJywgJy1vbWFlJywgJ2xpZ2FuZF9wcmVwLm1hZScsICctbXMnLCAnMScsICctcGgnLCAnNycsICctcGh0JywgJzAuNScsICctbnQn

> <r_epik_Ionization_Penalty>
  0.0297

> <r_epik_Ionization_Penalty_Charging>
  0.0001

> <r_epik_Ionization_Penalty_Neutral>
  0.0296

> <r_epik_State_Penalty>
  0.0243

> <r_epik_Charging_Adjusted_Penalty>
0.0244625025530017

> <i_epik_Tot_Q>
-1

> <i_epik_Tot_abs_Q>
1

$$$$
