3vyd_ligand
                    3D
 Schrodinger Suite 2020-3.
 70 72  0  0  1  0            999 V2000
  173.4250  199.5370   92.5130 C   0  0  0  0  0  0
  172.9670  198.3170   92.0460 C   0  0  0  0  0  0
  174.3350  199.6000   93.5500 C   0  0  0  0  0  0
  173.4130  197.1340   92.6030 C   0  0  0  0  0  0
  174.7820  198.4350   94.1190 C   0  0  0  0  0  0
  174.3210  197.2340   93.6410 C   0  0  0  0  0  0
  175.2650  198.3740   96.4510 C   0  0  0  0  0  0
  178.9890  201.4900  101.8850 C   0  0  0  0  0  0
  175.7000  199.4700   97.3210 C   0  0  0  0  0  0
  178.1270  201.0980   99.6590 C   0  0  0  0  0  0
  178.9580  203.3530  100.3970 C   0  0  0  0  0  0
  178.0350  203.1630   98.2450 C   0  0  0  0  0  0
  176.8210  199.3340   94.8850 C   0  0  0  0  0  0
  179.1560  201.8600  100.4720 C   0  0  1  0  0  0
  178.1960  201.6490   98.2470 C   0  0  2  0  0  0
  177.7330  199.1800   96.0530 C   0  0  0  0  0  0
  178.9210  200.0020   95.6500 C   0  0  0  0  0  0
  178.1190  197.7400   96.3090 C   0  0  0  0  0  0
  182.4440  198.6520  104.1840 C   0  0  0  0  0  0
  182.7910  201.1520  104.0170 C   0  0  0  0  0  0
  177.1290  201.1010   97.3410 C   0  0  0  0  0  0
  180.4700  200.1870  104.2150 C   0  0  0  0  0  0
  180.0950  201.6250  104.0350 C   0  0  0  0  0  0
  181.9370  200.0310  104.5930 C   0  0  0  0  0  0
  179.1210  203.7670   99.0110 N   0  3  0  0  0  0
  175.6990  198.4930   95.1510 N   0  0  0  0  0  0
  177.1310  199.6510   97.2980 N   0  3  1  0  0  0
  180.1060  201.8080  102.6110 N   0  0  0  0  0  0
  174.5790  197.5140   96.9500 O   0  0  0  0  0  0
  177.9730  200.9680  102.3030 O   0  0  0  0  0  0
  174.9130  195.8230   94.3650 Cl  0  0  0  0  0  0
  173.0633  200.4586   92.0570 H   0  0  0  0  0  0
  172.2459  198.2894   91.2291 H   0  0  0  0  0  0
  174.6935  200.5637   93.9117 H   0  0  0  0  0  0
  173.0652  196.1665   92.2409 H   0  0  0  0  0  0
  175.2322  200.4088   96.9898 H   0  0  0  0  0  0
  175.3999  199.2566   98.3575 H   0  0  0  0  0  0
  178.3694  200.0251   99.6737 H   0  0  0  0  0  0
  177.1282  201.2542  100.0927 H   0  0  0  0  0  0
  177.9477  203.6071  100.7501 H   0  0  0  0  0  0
  179.7046  203.8542  101.0305 H   0  0  0  0  0  0
  178.0653  203.5336   97.2097 H   0  0  0  0  0  0
  177.0706  203.4298   98.7018 H   0  0  0  0  0  0
  176.5165  200.3871   94.7939 H   0  0  0  0  0  0
  177.3434  199.0228   93.9683 H   0  0  0  0  0  0
  180.1565  201.6009  100.0952 H   0  0  0  0  0  0
  179.1785  201.3346   97.8652 H   0  0  0  0  0  0
  179.3370  199.6091   94.7106 H   0  0  0  0  0  0
  179.6859  199.9522   96.4389 H   0  0  0  0  0  0
  178.6113  201.0475   95.5050 H   0  0  0  0  0  0
  178.5826  197.3184   95.4049 H   0  0  0  0  0  0
  177.2204  197.1595   96.5651 H   0  0  0  0  0  0
  178.8347  197.6950   97.1431 H   0  0  0  0  0  0
  183.5035  198.5534  104.4627 H   0  0  0  0  0  0
  182.3382  198.5303  103.0959 H   0  0  0  0  0  0
  181.8559  197.8777  104.6984 H   0  0  0  0  0  0
  183.8400  201.0025  104.3123 H   0  0  0  0  0  0
  182.4357  202.1189  104.4029 H   0  0  0  0  0  0
  182.7143  201.1446  102.9197 H   0  0  0  0  0  0
  176.1414  201.4288   97.6975 H   0  0  0  0  0  0
  177.2909  201.4713   96.3179 H   0  0  0  0  0  0
  179.8574  199.7457  105.0150 H   0  0  0  0  0  0
  180.2945  199.6419  103.2758 H   0  0  0  0  0  0
  179.0997  201.8014  104.4689 H   0  0  0  0  0  0
  180.8342  202.2629  104.5416 H   0  0  0  0  0  0
  182.0221  200.1128  105.6866 H   0  0  0  0  0  0
  179.0732  204.8642   98.9480 H   0  0  0  0  0  0
  180.0956  203.4204   98.6370 H   0  0  0  0  0  0
  177.6855  199.1185   98.0847 H   0  0  0  0  0  0
  181.0055  202.2000  102.1138 H   0  0  0  0  0  0
  1  2  2  0  0  0
  1  3  1  0  0  0
  1 32  1  0  0  0
  2  4  1  0  0  0
  2 33  1  0  0  0
  3  5  2  0  0  0
  3 34  1  0  0  0
  4  6  2  0  0  0
  4 35  1  0  0  0
  5  6  1  0  0  0
  5 26  1  0  0  0
  6 31  1  0  0  0
  7  9  1  0  0  0
  7 26  1  0  0  0
  7 29  2  0  0  0
  8 14  1  0  0  0
  8 28  1  0  0  0
  8 30  2  0  0  0
  9 27  1  0  0  0
  9 36  1  0  0  0
  9 37  1  0  0  0
 10 14  1  0  0  0
 10 15  1  0  0  0
 10 38  1  0  0  0
 10 39  1  0  0  0
 11 14  1  0  0  0
 11 25  1  0  0  0
 11 40  1  0  0  0
 11 41  1  0  0  0
 12 15  1  0  0  0
 12 25  1  0  0  0
 12 42  1  0  0  0
 12 43  1  0  0  0
 13 16  1  0  0  0
 13 26  1  0  0  0
 13 44  1  0  0  0
 13 45  1  0  0  0
 14 46  1  0  0  0
 15 21  1  0  0  0
 15 47  1  0  0  0
 16 17  1  0  0  0
 16 18  1  0  0  0
 16 27  1  0  0  0
 17 48  1  0  0  0
 17 49  1  0  0  0
 17 50  1  0  0  0
 18 51  1  0  0  0
 18 52  1  0  0  0
 18 53  1  0  0  0
 19 24  1  0  0  0
 19 54  1  0  0  0
 19 55  1  0  0  0
 19 56  1  0  0  0
 20 24  1  0  0  0
 20 57  1  0  0  0
 20 58  1  0  0  0
 20 59  1  0  0  0
 21 27  1  0  0  0
 21 60  1  0  0  0
 21 61  1  0  0  0
 22 23  1  0  0  0
 22 24  1  0  0  0
 22 62  1  0  0  0
 22 63  1  0  0  0
 23 28  1  0  0  0
 23 64  1  0  0  0
 23 65  1  0  0  0
 24 66  1  0  0  0
 25 67  1  0  0  0
 25 68  1  0  0  0
 27 69  1  0  0  0
 28 70  1  0  0  0
M  CHG  2  25   1  27   1
M  END
> <s_m_source_file>
../3vyd_ligand.sdf

> <i_m_source_file_index>
1

> <s_epik_input>
Q2xjMVtjSF1bY0hdW2NIXVtjSF1jMU4oW0NIMl1DMihbQ0gzXSlbQ0gzXSlDKD1PKVtDSDJdW05AQEgrXTJbQ0gyXVtDQEBIXShbQ0gyXVtOSDIrXVtDSDJdMylbQ0gyXVtDQEBIXTNDKD1PKVtOSF1bQ0gyXVtDSDJdW0NIXShbQ0gzXSlbQ0gzXQ==

> <s_epik_cmdline>
J2VwaWtfYXBwJywgJy1pbWFlJywgJ2xpZ2FuZF9wcm8ubWFlJywgJy1vbWFlJywgJ2xpZ2FuZF9wcmVwLm1hZScsICctbXMnLCAnMScsICctcGgnLCAnNycsICctcGh0JywgJzAuNScsICctbnQn

> <r_epik_Ionization_Penalty>
  0.3802

> <r_epik_Ionization_Penalty_Charging>
  0.3802

> <r_epik_Ionization_Penalty_Neutral>
  0.0000

> <r_epik_State_Penalty>
  0.3767

> <r_epik_Charging_Adjusted_Penalty>
0.756876021108255

> <i_epik_Tot_Q>
2

> <i_epik_Tot_abs_Q>
2

$$$$
