3vye_ligand
                    3D
 Schrodinger Suite 2020-3.
 66 68  0  0  1  0            999 V2000
  179.7930  202.1500  100.7210 C   0  0  2  0  0  0
  179.4240  203.6160  100.5170 C   0  0  0  0  0  0
  179.5100  204.0200   99.1220 N   0  3  0  0  0  0
  178.6230  203.2160   98.2830 C   0  0  0  0  0  0
  178.9560  201.7290   98.3620 C   0  0  1  0  0  0
  178.9910  201.2090   99.8010 C   0  0  0  0  0  0
  178.1080  200.9350   97.4740 N   0  0  2  0  0  0
  176.7920  200.5940   97.9520 C   0  0  0  0  0  0
  175.8500  200.0060   96.8830 C   0  0  0  0  0  0
  176.4170  199.6350   95.6740 N   0  0  0  0  0  0
  177.8600  199.7850   95.3910 C   0  0  0  0  0  0
  178.7460  199.9750   96.6020 C   0  0  0  0  0  0
  174.6600  199.8850   97.1190 O   0  0  0  0  0  0
  180.1180  200.5000   96.1500 C   0  0  0  0  0  0
  178.9310  198.6410   97.3400 C   0  0  0  0  0  0
  175.6030  199.1090   94.6860 C   0  0  0  0  0  0
  175.3040  197.7630   94.5850 C   0  0  0  0  0  0
  174.4870  197.2520   93.5920 C   0  0  0  0  0  0
  173.9500  198.1350   92.6610 C   0  0  0  0  0  0
  174.2380  199.4970   92.7400 C   0  0  0  0  0  0
  175.0670  199.9860   93.7540 C   0  0  0  0  0  0
  175.9620  196.6730   95.7350 Cl  0  0  0  0  0  0
  179.6450  201.7510  102.1970 C   0  0  0  0  0  0
  178.7060  201.0650  102.5920 O   0  0  0  0  0  0
  180.6350  202.2230  102.9770 N   0  0  0  0  0  0
  180.6000  201.9030  104.3970 C   0  0  0  0  0  0
  181.0380  200.4520  104.6060 C   0  0  0  0  0  0
  182.5190  200.3000  104.9620 C   0  0  0  0  0  0
  183.0970  198.9570  104.5150 C   0  0  0  0  0  0
  183.3890  201.4870  104.5340 C   0  0  0  0  0  0
  180.8513  202.0489  100.4386 H   0  0  0  0  0  0
  178.3915  203.7849  100.8567 H   0  0  0  0  0  0
  180.1095  204.2509  101.0976 H   0  0  0  0  0  0
  179.2195  205.0767   99.0277 H   0  0  0  0  0  0
  180.5426  203.8905   98.7657 H   0  0  0  0  0  0
  177.5825  203.3534   98.6125 H   0  0  0  0  0  0
  178.7208  203.5351   97.2349 H   0  0  0  0  0  0
  179.9633  201.5769   97.9471 H   0  0  0  0  0  0
  179.4566  200.2124   99.8002 H   0  0  0  0  0  0
  177.9572  201.1304  100.1684 H   0  0  0  0  0  0
  176.8754  199.8418   98.7503 H   0  0  0  0  0  0
  176.3005  201.4952   98.3473 H   0  0  0  0  0  0
  178.2281  198.8854   94.8761 H   0  0  0  0  0  0
  178.0185  200.6649   94.7502 H   0  0  0  0  0  0
  179.9887  201.4557   95.6209 H   0  0  0  0  0  0
  180.5867  199.7681   95.4757 H   0  0  0  0  0  0
  180.7605  200.6519   97.0299 H   0  0  0  0  0  0
  177.9505  198.2626   97.6648 H   0  0  0  0  0  0
  179.5744  198.7944   98.2189 H   0  0  0  0  0  0
  179.4006  197.9105   96.6648 H   0  0  0  0  0  0
  174.2698  196.1851   93.5407 H   0  0  0  0  0  0
  173.3025  197.7613   91.8678 H   0  0  0  0  0  0
  173.8146  200.1841   92.0073 H   0  0  0  0  0  0
  175.2912  201.0511   93.8121 H   0  0  0  0  0  0
  181.4546  202.8341  102.5710 H   0  0  0  0  0  0
  181.2822  202.5731  104.9408 H   0  0  0  0  0  0
  179.5763  202.0346  104.7774 H   0  0  0  0  0  0
  180.4570  200.0084  105.4280 H   0  0  0  0  0  0
  180.8633  199.8797  103.6830 H   0  0  0  0  0  0
  182.5485  200.3036  106.0616 H   0  0  0  0  0  0
  182.4349  198.1440  104.8476 H   0  0  0  0  0  0
  184.0948  198.8217  104.9578 H   0  0  0  0  0  0
  183.1771  198.9392  103.4181 H   0  0  0  0  0  0
  182.9276  202.4235  104.8805 H   0  0  0  0  0  0
  183.4730  201.5034  103.4373 H   0  0  0  0  0  0
  184.3908  201.3859  104.9770 H   0  0  0  0  0  0
  1  2  1  0  0  0
  1  6  1  0  0  0
  1 23  1  0  0  0
  1 31  1  0  0  0
  2  3  1  0  0  0
  2 32  1  0  0  0
  2 33  1  0  0  0
  3  4  1  0  0  0
  3 34  1  0  0  0
  3 35  1  0  0  0
  4  5  1  0  0  0
  4 36  1  0  0  0
  4 37  1  0  0  0
  5  6  1  0  0  0
  5  7  1  0  0  0
  5 38  1  0  0  0
  6 39  1  0  0  0
  6 40  1  0  0  0
  7  8  1  0  0  0
  7 12  1  0  0  0
  8  9  1  0  0  0
  8 41  1  0  0  0
  8 42  1  0  0  0
  9 10  1  0  0  0
  9 13  2  0  0  0
 10 11  1  0  0  0
 10 16  1  0  0  0
 11 12  1  0  0  0
 11 43  1  0  0  0
 11 44  1  0  0  0
 12 14  1  0  0  0
 12 15  1  0  0  0
 14 45  1  0  0  0
 14 46  1  0  0  0
 14 47  1  0  0  0
 15 48  1  0  0  0
 15 49  1  0  0  0
 15 50  1  0  0  0
 16 17  2  0  0  0
 16 21  1  0  0  0
 17 18  1  0  0  0
 17 22  1  0  0  0
 18 19  2  0  0  0
 18 51  1  0  0  0
 19 20  1  0  0  0
 19 52  1  0  0  0
 20 21  2  0  0  0
 20 53  1  0  0  0
 21 54  1  0  0  0
 23 24  2  0  0  0
 23 25  1  0  0  0
 25 26  1  0  0  0
 25 55  1  0  0  0
 26 27  1  0  0  0
 26 56  1  0  0  0
 26 57  1  0  0  0
 27 28  1  0  0  0
 27 58  1  0  0  0
 27 59  1  0  0  0
 28 29  1  0  0  0
 28 30  1  0  0  0
 28 60  1  0  0  0
 29 61  1  0  0  0
 29 62  1  0  0  0
 29 63  1  0  0  0
 30 64  1  0  0  0
 30 65  1  0  0  0
 30 66  1  0  0  0
M  CHG  1   3   1
M  END
> <s_m_source_file>
../3vye_ligand.sdf

> <i_m_source_file_index>
1

> <s_epik_input>
W0NIM11bQ0hdKFtDSDNdKVtDSDJdW0NIMl1bTkhdQyg9TylbQ0BASF0xW0NIMl1bTkgyK11bQ0gyXVtDQEBIXShbQ0gyXTEpW05AQEgrXShDMihbQ0gzXSlbQ0gzXSlbQ0gyXUMoPU8pTihbQ0gyXTIpYzNjKENsKVtjSF1bY0hdW2NIXVtjSF0z

> <s_epik_cmdline>
J2VwaWtfYXBwJywgJy1pbWFlJywgJ2xpZ2FuZF9wcm8ubWFlJywgJy1vbWFlJywgJ2xpZ2FuZF9wcmVwLm1hZScsICctbXMnLCAnMScsICctcGgnLCAnNycsICctcGh0JywgJzAuNScsICctbnQn

> <r_lp_tautomer_probability>
1

> <r_epik_Ionization_Penalty>
  0.0047

> <r_epik_Ionization_Penalty_Charging>
  0.0047

> <r_epik_Ionization_Penalty_Neutral>
  0.0000

> <r_epik_State_Penalty>
 -0.0000

> <r_epik_Charging_Adjusted_Penalty>
0.00469764325462879

> <i_epik_Tot_Q>
1

> <i_epik_Tot_abs_Q>
1

$$$$
