3vyf_ligand
                    3D
 Schrodinger Suite 2020-3.
 78 80  0  0  1  0            999 V2000
  179.8850  202.0820  100.5240 C   0  0  2  0  0  0
  179.4540  203.5470  100.4220 C   0  0  0  0  0  0
  179.4900  204.0490   99.0530 N   0  3  0  0  0  0
  178.6080  203.2680   98.1940 C   0  0  0  0  0  0
  179.0040  201.7930   98.1480 C   0  0  1  0  0  0
  179.1320  201.1730   99.5450 C   0  0  0  0  0  0
  178.1850  201.0140   97.2100 N   0  0  2  0  0  0
  177.0670  200.3720   97.8600 C   0  0  0  0  0  0
  176.0720  199.8370   96.8320 C   0  0  0  0  0  0
  176.6240  199.3500   95.6740 N   0  0  0  0  0  0
  178.0870  199.3410   95.4370 C   0  0  0  0  0  0
  178.9670  200.0260   96.4880 C   0  0  0  0  0  0
  174.8700  199.8560   97.0530 O   0  0  0  0  0  0
  179.5060  198.9670   97.4550 C   0  0  0  0  0  0
  180.1380  200.7160   95.7870 C   0  0  0  0  0  0
  175.7860  198.8470   94.6910 C   0  0  0  0  0  0
  175.4350  197.5080   94.6050 C   0  0  0  0  0  0
  174.5960  197.0330   93.6150 C   0  0  0  0  0  0
  174.1000  197.9240   92.6710 C   0  0  0  0  0  0
  174.4440  199.2740   92.7400 C   0  0  0  0  0  0
  175.2910  199.7360   93.7460 C   0  0  0  0  0  0
  176.0490  196.3930   95.7740 Cl  0  0  0  0  0  0
  179.6900  201.5850  101.9580 C   0  0  0  0  0  0
  178.7440  200.8760  102.2710 O   0  0  0  0  0  0
  180.6510  202.0050  102.8020 N   0  0  0  0  0  0
  180.5520  201.5850  104.1890 C   0  0  0  0  0  0
  181.2660  200.2400  104.3790 C   0  0  0  0  0  0
  181.0680  202.6920  105.1090 C   0  0  0  0  0  0
  180.3550  204.0290  104.8870 C   0  0  0  0  0  0
  181.0950  205.2050  105.5240 C   0  0  0  0  0  0
  178.8760  203.9850  105.2710 C   0  0  0  0  0  0
  182.7050  200.3670  104.8860 C   0  0  0  0  0  0
  183.2750  199.0320  105.3630 C   0  0  0  0  0  0
  183.6260  201.0770  103.8950 C   0  0  0  0  0  0
  180.9497  202.0364  100.2514 H   0  0  0  0  0  0
  178.4239  203.6528  100.7932 H   0  0  0  0  0  0
  180.1279  204.1705  101.0278 H   0  0  0  0  0  0
  179.1618  205.0988   99.0387 H   0  0  0  0  0  0
  180.5167  203.9805   98.6642 H   0  0  0  0  0  0
  177.5768  203.3331   98.5713 H   0  0  0  0  0  0
  178.6490  203.6647   97.1688 H   0  0  0  0  0  0
  179.9996  201.7234   97.6855 H   0  0  0  0  0  0
  179.6691  200.2184   99.4439 H   0  0  0  0  0  0
  178.1175  200.9844   99.9261 H   0  0  0  0  0  0
  177.4306  199.5321   98.4702 H   0  0  0  0  0  0
  176.5518  201.0983   98.5057 H   0  0  0  0  0  0
  178.4437  198.3017   95.3852 H   0  0  0  0  0  0
  178.3079  199.8521   94.4884 H   0  0  0  0  0  0
  178.6648  198.4697   97.9601 H   0  0  0  0  0  0
  180.1506  199.4492   98.2047 H   0  0  0  0  0  0
  180.0895  198.2218   96.8945 H   0  0  0  0  0  0
  179.7526  201.4768   95.0922 H   0  0  0  0  0  0
  180.7213  199.9700   95.2272 H   0  0  0  0  0  0
  180.7823  201.1975   96.5374 H   0  0  0  0  0  0
  174.3278  195.9773   93.5753 H   0  0  0  0  0  0
  173.4428  197.5683   91.8775 H   0  0  0  0  0  0
  174.0479  199.9721   92.0025 H   0  0  0  0  0  0
  175.5636  200.7904   93.7907 H   0  0  0  0  0  0
  181.4879  202.6413  102.4784 H   0  0  0  0  0  0
  179.4847  201.4388  104.4115 H   0  0  0  0  0  0
  180.7151  199.6329  105.1124 H   0  0  0  0  0  0
  181.3057  199.7069  103.4176 H   0  0  0  0  0  0
  180.9132  202.3989  106.1579 H   0  0  0  0  0  0
  182.1413  202.8495  104.9269 H   0  0  0  0  0  0
  180.3777  204.2080  103.8019 H   0  0  0  0  0  0
  182.1501  205.1857  105.2136 H   0  0  0  0  0  0
  181.0335  205.1268  106.6195 H   0  0  0  0  0  0
  180.6339  206.1487  105.1973 H   0  0  0  0  0  0
  178.3967  203.1220  104.7857 H   0  0  0  0  0  0
  178.3837  204.9116  104.9407 H   0  0  0  0  0  0
  178.7834  203.8897  106.3629 H   0  0  0  0  0  0
  182.6599  201.0188  105.7709 H   0  0  0  0  0  0
  182.5741  198.5662  106.0714 H   0  0  0  0  0  0
  184.2407  199.2027  105.8613 H   0  0  0  0  0  0
  183.4205  198.3660  104.4997 H   0  0  0  0  0  0
  183.1684  202.0284  103.5860 H   0  0  0  0  0  0
  183.7763  200.4385  103.0119 H   0  0  0  0  0  0
  184.5964  201.2752  104.3736 H   0  0  0  0  0  0
  1  2  1  0  0  0
  1  6  1  0  0  0
  1 23  1  0  0  0
  1 35  1  0  0  0
  2  3  1  0  0  0
  2 36  1  0  0  0
  2 37  1  0  0  0
  3  4  1  0  0  0
  3 38  1  0  0  0
  3 39  1  0  0  0
  4  5  1  0  0  0
  4 40  1  0  0  0
  4 41  1  0  0  0
  5  6  1  0  0  0
  5  7  1  0  0  0
  5 42  1  0  0  0
  6 43  1  0  0  0
  6 44  1  0  0  0
  7  8  1  0  0  0
  7 12  1  0  0  0
  8  9  1  0  0  0
  8 45  1  0  0  0
  8 46  1  0  0  0
  9 10  1  0  0  0
  9 13  2  0  0  0
 10 11  1  0  0  0
 10 16  1  0  0  0
 11 12  1  0  0  0
 11 47  1  0  0  0
 11 48  1  0  0  0
 12 14  1  0  0  0
 12 15  1  0  0  0
 14 49  1  0  0  0
 14 50  1  0  0  0
 14 51  1  0  0  0
 15 52  1  0  0  0
 15 53  1  0  0  0
 15 54  1  0  0  0
 16 17  2  0  0  0
 16 21  1  0  0  0
 17 18  1  0  0  0
 17 22  1  0  0  0
 18 19  2  0  0  0
 18 55  1  0  0  0
 19 20  1  0  0  0
 19 56  1  0  0  0
 20 21  2  0  0  0
 20 57  1  0  0  0
 21 58  1  0  0  0
 23 24  2  0  0  0
 23 25  1  0  0  0
 25 26  1  0  0  0
 25 59  1  0  0  0
 26 27  1  0  0  0
 26 28  1  0  0  0
 26 60  1  0  0  0
 27 32  1  0  0  0
 27 61  1  0  0  0
 27 62  1  0  0  0
 28 29  1  0  0  0
 28 63  1  0  0  0
 28 64  1  0  0  0
 29 30  1  0  0  0
 29 31  1  0  0  0
 29 65  1  0  0  0
 30 66  1  0  0  0
 30 67  1  0  0  0
 30 68  1  0  0  0
 31 69  1  0  0  0
 31 70  1  0  0  0
 31 71  1  0  0  0
 32 33  1  0  0  0
 32 34  1  0  0  0
 32 72  1  0  0  0
 33 73  1  0  0  0
 33 74  1  0  0  0
 33 75  1  0  0  0
 34 76  1  0  0  0
 34 77  1  0  0  0
 34 78  1  0  0  0
M  CHG  1   3   1
M  END
> <s_m_source_file>
../3vyf_ligand.sdf

> <i_m_source_file_index>
1

> <s_epik_input>
W0NIM11bQ0hdKFtDSDNdKVtDSDJdW0NIXShbQ0gyXVtDSF0oW0NIM10pW0NIM10pW05IXUMoPU8pW0NAQEhdMVtDSDJdW05IMitdW0NIMl1bQ0BASF0oW0NIMl0xKVtOQEBIK10oQzIoW0NIM10pW0NIM10pW0NIMl1DKD1PKU4oW0NIMl0yKWMzYyhDbClbY0hdW2NIXVtjSF1bY0hdMw==

> <s_epik_cmdline>
J2VwaWtfYXBwJywgJy1pbWFlJywgJ2xpZ2FuZF9wcm8ubWFlJywgJy1vbWFlJywgJ2xpZ2FuZF9wcmVwLm1hZScsICctbXMnLCAnMScsICctcGgnLCAnNycsICctcGh0JywgJzAuNScsICctbnQn

> <r_lp_tautomer_probability>
1

> <r_epik_Ionization_Penalty>
  0.0047

> <r_epik_Ionization_Penalty_Charging>
  0.0047

> <r_epik_Ionization_Penalty_Neutral>
  0.0000

> <r_epik_State_Penalty>
 -0.0000

> <r_epik_Charging_Adjusted_Penalty>
0.00469928728761098

> <i_epik_Tot_Q>
1

> <i_epik_Tot_abs_Q>
1

$$$$
