3vzd_ligand
                    3D
 Schrodinger Suite 2020-3.
 31 33  0  0  1  0            999 V2000
    1.5590  -31.1530   -6.8870 C   0  0  0  0  0  0
    1.5330  -29.9210   -6.2260 C   0  0  0  0  0  0
    2.6640  -29.1040   -6.3360 C   0  0  0  0  0  0
    2.7350  -27.9200   -5.6920 O   0  0  0  0  0  0
    3.7780  -29.4900   -7.0730 C   0  0  0  0  0  0
    3.7920  -30.7060   -7.7180 C   0  0  0  0  0  0
    2.6810  -31.5380   -7.6520 C   0  0  0  0  0  0
    2.7860  -32.7080   -8.3190 N   0  0  0  0  0  0
    2.2300  -33.8860   -7.9700 C   0  0  0  0  0  0
    1.4250  -34.1280   -6.9130 N   0  0  0  0  0  0
    2.4050  -35.3480   -8.8700 S   0  0  0  0  0  0
    1.3650  -36.2360   -7.8310 C   0  0  0  0  0  0
    0.9800  -35.4160   -6.8040 C   0  0  0  0  0  0
    0.1580  -35.8070   -5.7490 C   0  0  0  0  0  0
   -0.0170  -34.9190   -4.6830 C   0  0  0  0  0  0
   -0.8570  -35.2230   -3.6160 C   0  0  0  0  0  0
   -1.5150  -36.4580   -3.6000 C   0  0  0  0  0  0
   -2.5470  -36.8280   -2.2560 Cl  0  0  0  0  0  0
   -1.3330  -37.3380   -4.6630 C   0  0  0  0  0  0
   -0.5080  -37.0400   -5.7390 C   0  0  0  0  0  0
    0.7031  -31.8236   -6.8106 H   0  0  0  0  0  0
    0.6642  -29.6086   -5.6466 H   0  0  0  0  0  0
    1.8816  -27.5668   -5.0945 H   0  0  0  0  0  0
    4.6418  -28.8286   -7.1402 H   0  0  0  0  0  0
    4.6733  -31.0158   -8.2797 H   0  0  0  0  0  0
    3.3733  -32.7609   -9.2476 H   0  0  0  0  0  0
    1.0630  -37.2746   -7.9659 H   0  0  0  0  0  0
    0.5160  -33.9682   -4.6880 H   0  0  0  0  0  0
   -1.0004  -34.5096   -2.8045 H   0  0  0  0  0  0
   -1.8563  -38.2941   -4.6501 H   0  0  0  0  0  0
   -0.3812  -37.7488   -6.5573 H   0  0  0  0  0  0
  1  2  2  0  0  0
  1  7  1  0  0  0
  1 21  1  0  0  0
  2  3  1  0  0  0
  2 22  1  0  0  0
  3  4  1  0  0  0
  3  5  2  0  0  0
  4 23  1  0  0  0
  5  6  1  0  0  0
  5 24  1  0  0  0
  6  7  2  0  0  0
  6 25  1  0  0  0
  7  8  1  0  0  0
  8  9  1  0  0  0
  8 26  1  0  0  0
  9 10  2  0  0  0
  9 11  1  0  0  0
 10 13  1  0  0  0
 11 12  1  0  0  0
 12 13  2  0  0  0
 12 27  1  0  0  0
 13 14  1  0  0  0
 14 15  2  0  0  0
 14 20  1  0  0  0
 15 16  1  0  0  0
 15 28  1  0  0  0
 16 17  2  0  0  0
 16 29  1  0  0  0
 17 18  1  0  0  0
 17 19  1  0  0  0
 19 20  2  0  0  0
 19 30  1  0  0  0
 20 31  1  0  0  0
M  END
> <s_m_source_file>
../3vzd_ligand.sdf

> <i_m_source_file_index>
1

> <s_epik_input>
W09IXWMxW2NIXVtjSF1jKFtjSF1bY0hdMSlbTkhdYzJuYyhbY0hdczIpLWMzW2NIXVtjSF1jKENsKVtjSF1bY0hdMw==

> <s_epik_cmdline>
J2VwaWtfYXBwJywgJy1pbWFlJywgJ2xpZ2FuZF9wcm8ubWFlJywgJy1vbWFlJywgJ2xpZ2FuZF9wcmVwLm1hZScsICctbXMnLCAnMScsICctcGgnLCAnNycsICctcGh0JywgJzAuNScsICctbnQn

> <r_lp_tautomer_probability>
1

> <r_epik_Ionization_Penalty>
  0.0004

> <r_epik_Ionization_Penalty_Charging>
  0.0000

> <r_epik_Ionization_Penalty_Neutral>
  0.0004

> <r_epik_State_Penalty>
 -0.0000

> <r_epik_Charging_Adjusted_Penalty>
0

> <i_epik_Tot_Q>
0

> <i_epik_Tot_abs_Q>
0

$$$$
