3vzg_ligand
                    3D
 Schrodinger Suite 2020-3.
 38 38  0  0  1  0            999 V2000
   23.8050   -0.9000    7.1800 N   0  3  0  0  0  0
   23.5930   -0.0650    8.3530 C   0  0  2  0  0  0
   24.2560   -0.6740    9.5600 C   0  0  0  0  0  0
   24.2190   -1.9150    9.7180 O   0  5  0  0  0  0
   22.0950    0.2000    8.5930 C   0  0  2  0  0  0
   21.8460    0.7600    9.8910 O   0  0  0  0  0  0
   21.2290   -1.0500    8.4320 C   0  0  0  0  0  0
   24.8270    0.0980   10.3620 O   0  0  0  0  0  0
   21.9320    2.1930    9.9670 C   0  0  2  0  0  0
   21.7010    2.6560   11.4100 C   0  0  2  0  0  0
   20.2210    2.6070   11.8060 C   0  0  2  0  0  0
   19.3120    3.2600   10.7630 C   0  0  1  0  0  0
   19.6270    2.7530    9.3520 C   0  0  1  0  0  0
   18.8480    3.5160    8.2840 C   0  0  0  0  0  0
   22.2060    3.9880   11.5660 O   0  0  0  0  0  0
   20.0320    3.2460   13.0750 O   0  0  0  0  0  0
   17.9470    2.9730   11.0910 O   0  0  0  0  0  0
   21.0290    2.8570    9.0610 O   0  0  0  0  0  0
   19.3850    4.8320    8.1170 O   0  0  0  0  0  0
   24.8830   -1.0681    7.0396 H   0  0  0  0  0  0
   23.3937   -0.3968    6.2925 H   0  0  0  0  0  0
   23.2986   -1.8662    7.3214 H   0  0  0  0  0  0
   24.0964    0.8877    8.1316 H   0  0  0  0  0  0
   21.7864    0.9696    7.8702 H   0  0  0  0  0  0
   21.4065   -1.4939    7.4413 H   0  0  0  0  0  0
   20.1679   -0.7755    8.5261 H   0  0  0  0  0  0
   21.4896   -1.7797    9.2128 H   0  0  0  0  0  0
   22.9338    2.4443    9.5885 H   0  0  0  0  0  0
   22.2768    2.0213   12.0996 H   0  0  0  0  0  0
   19.9219    1.5569   11.9391 H   0  0  0  0  0  0
   19.4186    4.3544   10.7933 H   0  0  0  0  0  0
   19.3866    1.6804    9.3114 H   0  0  0  0  0  0
   18.9153    2.9783    7.3268 H   0  0  0  0  0  0
   17.7934    3.5959    8.5863 H   0  0  0  0  0  0
   23.2565    4.2095   11.3263 H   0  0  0  0  0  0
   20.6048    2.9087   13.9514 H   0  0  0  0  0  0
   17.5433    3.2672   12.0710 H   0  0  0  0  0  0
   18.9389    5.5190    7.3828 H   0  0  0  0  0  0
  1  2  1  0  0  0
  1 20  1  0  0  0
  1 21  1  0  0  0
  1 22  1  0  0  0
  2  3  1  0  0  0
  2  5  1  0  0  0
  2 23  1  0  0  0
  3  4  1  0  0  0
  3  8  2  0  0  0
  5  6  1  0  0  0
  5  7  1  0  0  0
  5 24  1  0  0  0
  6  9  1  0  0  0
  7 25  1  0  0  0
  7 26  1  0  0  0
  7 27  1  0  0  0
  9 10  1  0  0  0
  9 18  1  0  0  0
  9 28  1  0  0  0
 10 11  1  0  0  0
 10 15  1  0  0  0
 10 29  1  0  0  0
 11 12  1  0  0  0
 11 16  1  0  0  0
 11 30  1  0  0  0
 12 13  1  0  0  0
 12 17  1  0  0  0
 12 31  1  0  0  0
 13 14  1  0  0  0
 13 18  1  0  0  0
 13 32  1  0  0  0
 14 19  1  0  0  0
 14 33  1  0  0  0
 14 34  1  0  0  0
 15 35  1  0  0  0
 16 36  1  0  0  0
 17 37  1  0  0  0
 19 38  1  0  0  0
M  CHG  2   1   1   4  -1
M  END
> <s_m_source_file>
../3vzg_ligand.sdf

> <i_m_source_file_index>
1

> <s_epik_input>
W09IXUMoPU8pW0NAQEhdKFtOSDMrXSlbQ0BASF0oW0NIM10pT1tDQEBIXTFbQ0BASF0oW09IXSlbQ0BASF0oW09IXSlbQ0BIXShbT0hdKVtDQEhdKE8xKVtDSDJdW09IXQ==

> <s_epik_cmdline>
J2VwaWtfYXBwJywgJy1pbWFlJywgJ2xpZ2FuZF9wcm8ubWFlJywgJy1vbWFlJywgJ2xpZ2FuZF9wcmVwLm1hZScsICctbXMnLCAnMScsICctcGgnLCAnNycsICctcGh0JywgJzAuNScsICctbnQn

> <r_lp_tautomer_probability>
1

> <r_epik_Ionization_Penalty>
  0.0088

> <r_epik_Ionization_Penalty_Charging>
  0.0088

> <r_epik_Ionization_Penalty_Neutral>
  0.0000

> <r_epik_State_Penalty>
 -0.0000

> <r_epik_Charging_Adjusted_Penalty>
0.00884492538901114

> <i_epik_Tot_Q>
0

> <i_epik_Tot_abs_Q>
2

> <s_epik_Chemistry_Notes>
This compound contains an acetal/aminal-like group ( X-CH(R)-Y where X, Y are N, S, or O) that may be acid/base labile, releasing an aldehyde.

$$$$
