3vzv_ligand
                    3D
 Schrodinger Suite 2020-3.
 72 76  0  0  1  0            999 V2000
   10.1510   -3.5540  -32.2010 O   0  0  0  0  0  0
    9.2080   -3.9500  -31.5020 C   0  0  0  0  0  0
    8.2350   -4.7920  -31.9980 N   0  0  0  0  0  0
    8.1770   -5.2340  -33.3980 C   0  0  2  0  0  0
    7.7870   -3.9400  -34.2390 C   0  0  0  0  0  0
    7.9820   -4.0040  -35.4730 O   0  0  0  0  0  0
    7.2710   -2.7160  -33.6980 N   0  0  0  0  0  0
    5.9070   -2.5370  -33.0190 C   0  0  0  0  0  0
    8.1050   -1.4560  -33.8040 C   0  0  0  0  0  0
    7.0850   -6.2890  -33.3440 C   0  0  0  0  0  0
    6.8330   -6.6030  -31.8580 C   0  0  0  0  0  0
    7.0540   -5.2500  -31.2180 C   0  0  0  0  0  0
    9.1520   -3.3520  -30.1050 C   0  0  1  0  0  0
   10.2610   -3.4980  -29.0450 C   0  0  2  0  0  0
   10.9650   -4.8370  -28.6520 C   0  0  0  0  0  0
   10.5100   -6.1860  -29.2050 C   0  0  0  0  0  0
   12.4810   -4.6530  -28.8210 C   0  0  0  0  0  0
    9.5080   -2.9420  -27.8980 N   0  0  0  0  0  0
    9.9030   -2.7800  -26.5390 C   0  0  2  0  0  0
    9.3540   -3.9140  -25.6910 C   0  0  0  0  0  0
   10.1780   -4.3570  -24.6700 C   0  0  0  0  0  0
    9.7020   -5.3560  -23.8720 C   0  0  0  0  0  0
    8.0940   -4.4820  -25.9540 C   0  0  0  0  0  0
    7.6220   -5.5060  -25.1400 C   0  0  0  0  0  0
    8.4410   -5.9200  -24.1030 C   0  0  0  0  0  0
    7.9610   -7.1870  -22.9740 Cl  0  0  0  0  0  0
    8.0750   -2.1260  -29.7810 S   0  0  0  0  0  0
    8.6840   -1.9040  -28.1970 C   0  0  0  0  0  0
    8.5370   -1.0180  -27.3510 N   0  0  0  0  0  0
    9.3900   -1.3490  -26.1780 C   0  0  2  0  0  0
   10.5900   -0.3800  -26.1020 C   0  0  0  0  0  0
    8.6360   -1.3260  -24.8030 C   0  0  0  0  0  0
    9.4350   -1.2800  -23.6510 C   0  0  0  0  0  0
    8.8800   -1.2840  -22.3890 C   0  0  0  0  0  0
    7.2350   -1.3900  -24.6720 C   0  0  0  0  0  0
    6.6910   -1.3960  -23.4050 C   0  0  0  0  0  0
    7.5130   -1.3420  -22.2760 C   0  0  0  0  0  0
    6.8510   -1.3150  -20.6410 Cl  0  0  0  0  0  0
    9.1021   -5.6764  -33.7962 H   0  0  0  0  0  0
    5.3817   -3.5031  -32.9912 H   0  0  0  0  0  0
    5.3076   -1.8099  -33.5864 H   0  0  0  0  0  0
    6.0538   -2.1697  -31.9926 H   0  0  0  0  0  0
    9.0578   -1.6878  -34.3024 H   0  0  0  0  0  0
    8.3045   -1.0625  -32.7963 H   0  0  0  0  0  0
    7.5583   -0.7027  -34.3902 H   0  0  0  0  0  0
    6.1729   -5.8972  -33.8179 H   0  0  0  0  0  0
    7.4187   -7.1899  -33.8798 H   0  0  0  0  0  0
    5.8075   -6.9803  -31.7318 H   0  0  0  0  0  0
    7.5488   -7.3659  -31.5179 H   0  0  0  0  0  0
    7.3150   -5.2957  -30.1504 H   0  0  0  0  0  0
    6.2229   -4.5440  -31.3624 H   0  0  0  0  0  0
    8.9545   -4.4337  -30.0758 H   0  0  0  0  0  0
   11.1669   -2.9997  -29.4205 H   0  0  0  0  0  0
   10.6332   -4.9987  -27.6158 H   0  0  0  0  0  0
    9.4232   -6.2896  -29.0706 H   0  0  0  0  0  0
   11.0248   -6.9954  -28.6667 H   0  0  0  0  0  0
   10.7543   -6.2445  -30.2759 H   0  0  0  0  0  0
   12.7792   -3.6752  -28.4148 H   0  0  0  0  0  0
   12.7393   -4.7006  -29.8892 H   0  0  0  0  0  0
   13.0098   -5.4515  -28.2800 H   0  0  0  0  0  0
   10.9926   -2.8810  -26.4268 H   0  0  0  0  0  0
   11.1661   -3.9254  -24.5105 H   0  0  0  0  0  0
   10.3108   -5.7198  -23.0442 H   0  0  0  0  0  0
    7.4927   -4.1224  -26.7890 H   0  0  0  0  0  0
    6.6477   -5.9638  -25.3112 H   0  0  0  0  0  0
   11.1280   -0.3867  -27.0614 H   0  0  0  0  0  0
   11.2694   -0.7001  -25.2983 H   0  0  0  0  0  0
   10.2273    0.6371  -25.8922 H   0  0  0  0  0  0
   10.5192   -1.2402  -23.7560 H   0  0  0  0  0  0
    9.5117   -1.2421  -21.5017 H   0  0  0  0  0  0
    6.5948   -1.4338  -25.5531 H   0  0  0  0  0  0
    5.6089   -1.4433  -23.2827 H   0  0  0  0  0  0
  1  2  2  0  0  0
  2  3  1  0  0  0
  2 13  1  0  0  0
  3  4  1  0  0  0
  3 12  1  0  0  0
  4  5  1  0  0  0
  4 10  1  0  0  0
  4 39  1  0  0  0
  5  6  2  0  0  0
  5  7  1  0  0  0
  7  8  1  0  0  0
  7  9  1  0  0  0
  8 40  1  0  0  0
  8 41  1  0  0  0
  8 42  1  0  0  0
  9 43  1  0  0  0
  9 44  1  0  0  0
  9 45  1  0  0  0
 10 11  1  0  0  0
 10 46  1  0  0  0
 10 47  1  0  0  0
 11 12  1  0  0  0
 11 48  1  0  0  0
 11 49  1  0  0  0
 12 50  1  0  0  0
 12 51  1  0  0  0
 13 14  1  0  0  0
 13 27  1  0  0  0
 13 52  1  0  0  0
 14 15  1  0  0  0
 14 18  1  0  0  0
 14 53  1  0  0  0
 15 16  1  0  0  0
 15 17  1  0  0  0
 15 54  1  0  0  0
 16 55  1  0  0  0
 16 56  1  0  0  0
 16 57  1  0  0  0
 17 58  1  0  0  0
 17 59  1  0  0  0
 17 60  1  0  0  0
 18 19  1  0  0  0
 18 28  1  0  0  0
 19 20  1  0  0  0
 19 30  1  0  0  0
 19 61  1  0  0  0
 20 21  2  0  0  0
 20 23  1  0  0  0
 21 22  1  0  0  0
 21 62  1  0  0  0
 22 25  2  0  0  0
 22 63  1  0  0  0
 23 24  2  0  0  0
 23 64  1  0  0  0
 24 25  1  0  0  0
 24 65  1  0  0  0
 25 26  1  0  0  0
 27 28  1  0  0  0
 28 29  2  0  0  0
 29 30  1  0  0  0
 30 31  1  0  0  0
 30 32  1  0  0  0
 31 66  1  0  0  0
 31 67  1  0  0  0
 31 68  1  0  0  0
 32 33  2  0  0  0
 32 35  1  0  0  0
 33 34  1  0  0  0
 33 69  1  0  0  0
 34 37  2  0  0  0
 34 70  1  0  0  0
 35 36  2  0  0  0
 35 71  1  0  0  0
 36 37  1  0  0  0
 36 72  1  0  0  0
 37 38  1  0  0  0
M  END
> <s_m_source_file>
../3vzv_ligand.sdf

> <i_m_source_file_index>
1

> <s_epik_input>
W0NIM11OKFtDSDNdKUMoPU8pW0NASF0oW0NIMl1bQ0gyXVtDSDJdMSlOMUMoPU8pW0NAQEhdKFtDQEBIXTJbQ0hdKFtDSDNdKVtDSDNdKVNDKE4yMyk9TltDQEBdKFtDSDNdKShjNFtjSF1bY0hdYyhDbClbY0hdW2NIXTQpW0NASF0zYzVbY0hdW2NIXWMoQ2wpW2NIXVtjSF01

> <s_epik_cmdline>
J2VwaWtfYXBwJywgJy1pbWFlJywgJ2xpZ2FuZF9wcm8ubWFlJywgJy1vbWFlJywgJ2xpZ2FuZF9wcmVwLm1hZScsICctbXMnLCAnMScsICctcGgnLCAnNycsICctcGh0JywgJzAuNScsICctbnQn

> <r_lp_tautomer_probability>
1

> <r_epik_Ionization_Penalty>
  0.0398

> <r_epik_Ionization_Penalty_Charging>
  0.0000

> <r_epik_Ionization_Penalty_Neutral>
  0.0398

> <r_epik_State_Penalty>
  0.0335

> <r_epik_Charging_Adjusted_Penalty>
0.0334806297551437

> <i_epik_Tot_Q>
0

> <i_epik_Tot_abs_Q>
0

> <s_epik_Chemistry_Notes>
This compound has an imine and may undergo hydrolysis.

$$$$
