3w0l_ligand
                    3D
 Schrodinger Suite 2020-3.
 27 26  0  0  1  0            999 V2000
   -5.6470   28.8100   17.9350 C   0  0  0  0  0  0
   -5.7450   27.9550   16.7230 C   0  0  0  0  0  0
   -7.0300   27.7590   15.9930 C   0  0  2  0  0  0
   -7.4420   26.3280   16.1580 C   0  0  1  0  0  0
   -8.9440   26.2030   16.0220 C   0  0  1  0  0  0
   -9.3060   24.7680   16.0110 C   0  0  0  0  0  0
   -4.3360   28.9280   18.3120 O   0  0  0  0  0  0
   -4.7670   27.3690   16.3270 O   0  0  0  0  0  0
   -6.7690   27.9490   14.6480 O   0  0  0  0  0  0
   -6.7690   25.6110   15.1810 O   0  0  0  0  0  0
   -9.5960   26.8180   17.0660 O   0  0  0  0  0  0
  -10.5400   24.6650   16.6390 O   0  0  0  0  0  0
  -10.6920   23.7670   17.9050 P   0  0  0  0  0  0
   -9.7660   22.5950   17.7720 O   0  0  0  0  0  0
  -10.3370   24.5400   19.1430 O   0  5  0  0  0  0
  -12.1280   23.3090   17.9860 O   0  5  0  0  0  0
   -6.0539   29.8077   17.7137 H   0  0  0  0  0  0
   -6.2220   28.3528   18.7537 H   0  0  0  0  0  0
   -7.8065   28.4746   16.3011 H   0  0  0  0  0  0
   -7.1295   25.8866   17.1158 H   0  0  0  0  0  0
   -9.3155   26.7321   15.1320 H   0  0  0  0  0  0
   -9.3641   24.4125   14.9717 H   0  0  0  0  0  0
   -8.5410   24.1927   16.5530 H   0  0  0  0  0  0
   -4.0694   29.5280   19.1945 H   0  0  0  0  0  0
   -6.4460   28.9357   14.2844 H   0  0  0  0  0  0
   -5.6692   25.6112   15.1580 H   0  0  0  0  0  0
   -9.4563   27.8945   17.2440 H   0  0  0  0  0  0
  1  2  1  0  0  0
  1  7  1  0  0  0
  1 17  1  0  0  0
  1 18  1  0  0  0
  2  3  1  0  0  0
  2  8  2  0  0  0
  3  4  1  0  0  0
  3  9  1  0  0  0
  3 19  1  0  0  0
  4  5  1  0  0  0
  4 10  1  0  0  0
  4 20  1  0  0  0
  5  6  1  0  0  0
  5 11  1  0  0  0
  5 21  1  0  0  0
  6 12  1  0  0  0
  6 22  1  0  0  0
  6 23  1  0  0  0
  7 24  1  0  0  0
  9 25  1  0  0  0
 10 26  1  0  0  0
 11 27  1  0  0  0
 12 13  1  0  0  0
 13 14  2  0  0  0
 13 15  1  0  0  0
 13 16  1  0  0  0
M  CHG  2  15  -1  16  -1
M  END
> <s_m_source_file>
../3w0l_ligand.sdf

> <i_m_source_file_index>
1

> <s_epik_input>
W09IXVtDSDJdQyg9TylbQ0BASF0oW09IXSlbQ0BIXShbT0hdKVtDQEhdKFtPSF0pW0NIMl1PUCg9TykoW09IXSlbT0hd

> <s_epik_cmdline>
J2VwaWtfYXBwJywgJy1pbWFlJywgJ2xpZ2FuZF9wcm8ubWFlJywgJy1vbWFlJywgJ2xpZ2FuZF9wcmVwLm1hZScsICctbXMnLCAnMScsICctcGgnLCAnNycsICctcGh0JywgJzAuNScsICctbnQn

> <r_epik_Ionization_Penalty>
  0.1106

> <r_epik_Ionization_Penalty_Charging>
  0.1105

> <r_epik_Ionization_Penalty_Neutral>
  0.0000

> <r_epik_State_Penalty>
  0.1003

> <r_epik_Charging_Adjusted_Penalty>
0.210837828199232

> <i_epik_Tot_Q>
-2

> <i_epik_Tot_abs_Q>
2

$$$$
