3w2o_ligand
                    3D
 Schrodinger Suite 2020-3.
 63 66  0  0  1  0            999 V2000
  -52.1510    2.1220  -22.8700 N   0  0  0  0  0  0
  -47.8660   -1.1650  -21.8410 N   0  0  0  0  0  0
  -50.5690    1.1850  -18.7860 C   0  0  0  0  0  0
  -51.7780    1.8470  -18.8100 C   0  0  0  0  0  0
  -48.7720    0.2360  -20.0680 C   0  0  0  0  0  0
  -47.9830    0.1950  -21.3570 C   0  0  0  0  0  0
  -47.1420   -1.4080  -22.9260 C   0  0  0  0  0  0
  -50.0240    1.3660  -24.5580 C   0  0  0  0  0  0
  -49.8610    1.9510  -27.3330 C   0  0  0  0  0  0
  -49.7870    0.3510  -25.4890 C   0  0  0  0  0  0
  -50.4560    1.0930  -30.6780 C   0  0  0  0  0  0
  -47.9420   -0.1420  -30.7920 C   0  0  0  0  0  0
  -48.2450    0.7630  -29.7700 C   0  0  0  0  0  0
  -46.5730   -0.7950  -30.8410 C   0  0  0  0  0  0
  -44.5230   -0.3080  -22.4320 C   0  0  0  0  0  0
  -46.1250   -1.0680  -29.6150 F   0  0  0  0  0  0
  -46.6170   -1.9150  -31.5580 F   0  0  0  0  0  0
  -45.7220    0.0380  -31.4200 F   0  0  0  0  0  0
  -48.9080   -0.4120  -31.7680 C   0  0  0  0  0  0
  -50.1610    0.2010  -31.7110 C   0  0  0  0  0  0
  -49.5020    1.3810  -29.6990 C   0  0  0  0  0  0
  -49.7910    2.2800  -28.6820 O   0  0  0  0  0  0
  -50.1080    2.9710  -26.4140 C   0  0  0  0  0  0
  -50.3160    4.6520  -27.0380 Cl  0  0  0  0  0  0
  -50.1760    2.6820  -25.0400 C   0  0  0  0  0  0
  -49.7060    0.6330  -26.8590 C   0  0  0  0  0  0
  -50.1010    1.0380  -23.2180 N   0  0  0  0  0  0
  -51.0320    1.5180  -22.3550 C   0  0  0  0  0  0
  -53.1400    2.6330  -22.1080 C   0  0  0  0  0  0
  -50.9470    1.4420  -20.9520 C   0  0  0  0  0  0
  -51.9750    1.9830  -20.2100 C   0  0  0  0  0  0
  -53.0580    2.5730  -20.7680 N   0  0  0  0  0  0
  -50.0630    0.9450  -20.0260 N   0  0  0  0  0  0
  -47.3620   -0.8710  -24.0020 O   0  0  0  0  0  0
  -45.9910   -2.3740  -22.7610 C   0  0  0  0  0  0
  -44.6500   -1.6960  -23.0550 C   0  0  0  0  0  0
  -43.6160   -2.4950  -22.4780 O   0  0  0  0  0  0
  -44.4170   -1.6260  -24.5630 C   0  0  0  0  0  0
  -48.3744   -1.9834  -21.3102 H   0  0  0  0  0  0
  -50.0685    0.8840  -17.8657 H   0  0  0  0  0  0
  -52.4082    2.1752  -17.9834 H   0  0  0  0  0  0
  -49.0177   -0.7897  -19.7558 H   0  0  0  0  0  0
  -48.1715    0.7234  -19.2858 H   0  0  0  0  0  0
  -46.9795    0.6064  -21.1734 H   0  0  0  0  0  0
  -48.4989    0.8090  -22.1099 H   0  0  0  0  0  0
  -49.6633   -0.6756  -25.1441 H   0  0  0  0  0  0
  -51.4364    1.5674  -30.6353 H   0  0  0  0  0  0
  -47.4918    0.9919  -29.0161 H   0  0  0  0  0  0
  -44.6934   -0.3760  -21.3474 H   0  0  0  0  0  0
  -45.2700    0.3643  -22.8791 H   0  0  0  0  0  0
  -43.5141    0.0876  -22.6206 H   0  0  0  0  0  0
  -48.6806   -1.1053  -32.5778 H   0  0  0  0  0  0
  -50.9092   -0.0168  -32.4731 H   0  0  0  0  0  0
  -50.3499    3.4926  -24.3323 H   0  0  0  0  0  0
  -49.5211   -0.1759  -27.5659 H   0  0  0  0  0  0
  -49.3726    0.3398  -22.7799 H   0  0  0  0  0  0
  -54.0070    3.0953  -22.5799 H   0  0  0  0  0  0
  -45.9738   -2.7507  -21.7277 H   0  0  0  0  0  0
  -46.1171   -3.2169  -23.4565 H   0  0  0  0  0  0
  -43.5990   -2.6724  -21.3925 H   0  0  0  0  0  0
  -45.2041   -1.0139  -25.0276 H   0  0  0  0  0  0
  -44.4444   -2.6412  -24.9857 H   0  0  0  0  0  0
  -43.4347   -1.1725  -24.7616 H   0  0  0  0  0  0
  1 28  2  0  0  0
  1 29  1  0  0  0
  2  6  1  0  0  0
  2  7  1  0  0  0
  2 39  1  0  0  0
  3  4  2  0  0  0
  3 33  1  0  0  0
  3 40  1  0  0  0
  4 31  1  0  0  0
  4 41  1  0  0  0
  5  6  1  0  0  0
  5 33  1  0  0  0
  5 42  1  0  0  0
  5 43  1  0  0  0
  6 44  1  0  0  0
  6 45  1  0  0  0
  7 34  2  0  0  0
  7 35  1  0  0  0
  8 10  2  0  0  0
  8 25  1  0  0  0
  8 27  1  0  0  0
  9 22  1  0  0  0
  9 23  1  0  0  0
  9 26  2  0  0  0
 10 26  1  0  0  0
 10 46  1  0  0  0
 11 20  2  0  0  0
 11 21  1  0  0  0
 11 47  1  0  0  0
 12 13  1  0  0  0
 12 14  1  0  0  0
 12 19  2  0  0  0
 13 21  2  0  0  0
 13 48  1  0  0  0
 14 16  1  0  0  0
 14 17  1  0  0  0
 14 18  1  0  0  0
 15 36  1  0  0  0
 15 49  1  0  0  0
 15 50  1  0  0  0
 15 51  1  0  0  0
 19 20  1  0  0  0
 19 52  1  0  0  0
 20 53  1  0  0  0
 21 22  1  0  0  0
 23 24  1  0  0  0
 23 25  2  0  0  0
 25 54  1  0  0  0
 26 55  1  0  0  0
 27 28  1  0  0  0
 27 56  1  0  0  0
 28 30  1  0  0  0
 29 32  2  0  0  0
 29 57  1  0  0  0
 30 31  2  0  0  0
 30 33  1  0  0  0
 31 32  1  0  0  0
 35 36  1  0  0  0
 35 58  1  0  0  0
 35 59  1  0  0  0
 36 37  1  0  0  0
 36 38  1  0  0  0
 37 60  1  0  0  0
 38 61  1  0  0  0
 38 62  1  0  0  0
 38 63  1  0  0  0
M  END
> <s_m_source_file>
../3w2o_ligand.sdf

> <i_m_source_file_index>
1

> <s_epik_input>
RkMoRikoRiljMVtjSF1jKFtjSF1bY0hdW2NIXTEpT2MoYyhDbClbY0hdMilbY0hdW2NIXWMyW05IXWMzbltjSF1uYyhjMzQpW2NIXVtjSF1uNFtDSDJdW0NIMl1bTkhdQyg9TylbQ0gyXUMoW0NIM10pKFtPSF0pW0NIM10=

> <s_epik_cmdline>
J2VwaWtfYXBwJywgJy1pbWFlJywgJ2xpZ2FuZF9wcm8ubWFlJywgJy1vbWFlJywgJ2xpZ2FuZF9wcmVwLm1hZScsICctbXMnLCAnMScsICctcGgnLCAnNycsICctcGh0JywgJzAuNScsICctbnQn

> <r_lp_tautomer_probability>
1

> <r_epik_Ionization_Penalty>
  0.0000

> <r_epik_Ionization_Penalty_Charging>
  0.0000

> <r_epik_Ionization_Penalty_Neutral>
  0.0000

> <r_epik_State_Penalty>
 -0.0000

> <r_epik_Charging_Adjusted_Penalty>
0

> <i_epik_Tot_Q>
0

> <i_epik_Tot_abs_Q>
0

$$$$
