3w2p_ligand
                    3D
 Schrodinger Suite 2020-3.
 68 71  0  0  1  0            999 V2000
  146.5290   24.7500   50.2060 C   0  0  0  0  0  0
  147.7900   25.2830   50.3750 C   0  0  0  0  0  0
  148.0040   26.6420   50.3920 C   0  0  0  0  0  0
  146.9420   27.4940   50.2150 C   0  0  0  0  0  0
  145.6670   26.9730   50.0390 C   0  0  0  0  0  0
  145.4530   25.5960   50.0330 C   0  0  0  0  0  0
  147.2810   28.8440   50.2580 O   0  0  0  0  0  0
  146.3570   29.8140   49.8900 C   0  0  0  0  0  0
  149.5950   27.2700   50.6370 Cl  0  0  0  0  0  0
  146.0680   30.8190   50.7800 C   0  0  0  0  0  0
  145.1700   31.8040   50.4360 C   0  0  0  0  0  0
  144.5740   31.7810   49.1950 C   0  0  0  0  0  0
  144.8730   30.7730   48.3000 C   0  0  0  0  0  0
  145.7730   29.7910   48.6470 C   0  0  0  0  0  0
  144.2400   30.7360   46.9430 C   0  0  0  0  0  0
  143.9020   29.4770   46.5120 F   0  0  0  0  0  0
  145.0850   31.2220   45.9920 F   0  0  0  0  0  0
  143.1050   31.4930   46.8770 F   0  0  0  0  0  0
  147.7610   20.9810   53.4790 N   0  0  0  0  0  0
  147.6180   22.3040   53.4810 C   0  0  0  0  0  0
  147.2300   23.0940   52.4790 N   0  0  0  0  0  0
  146.9230   22.5500   51.2910 C   0  0  0  0  0  0
  147.4520   20.4260   52.2930 C   0  0  0  0  0  0
  147.0290   21.1740   51.2090 C   0  0  0  0  0  0
  146.8250   20.2780   50.1850 N   0  0  0  0  0  0
  147.0870   18.9960   50.6020 C   0  0  0  0  0  0
  147.4780   19.0530   51.9210 C   0  0  0  0  0  0
  146.4090   20.6230   48.8210 C   0  0  0  0  0  0
  145.2170   19.8550   48.3060 C   0  0  0  0  0  0
  144.0870   20.3480   49.0240 N   0  0  0  0  0  0
  143.4550   19.5260   49.9110 C   0  0  0  0  0  0
  142.3150   20.2540   50.5470 C   0  0  0  0  0  0
  143.7450   18.3540   50.1450 O   0  0  0  0  0  0
  146.5190   23.3390   50.2010 N   0  0  0  0  0  0
  141.0470   19.5800   50.0640 C   0  0  0  0  0  0
  140.4300   20.2940   48.8810 C   0  0  0  0  0  0
  139.1550   19.6570   48.5670 N   0  3  0  0  0  0
  138.0750   20.5940   48.8800 C   0  0  0  0  0  0
  139.1450   19.4210   47.1290 C   0  0  0  0  0  0
  148.6387   24.6102   50.4982 H   0  0  0  0  0  0
  144.8231   27.6495   49.9039 H   0  0  0  0  0  0
  144.4498   25.1931   49.8936 H   0  0  0  0  0  0
  146.5492   30.8368   51.7579 H   0  0  0  0  0  0
  144.9318   32.5987   51.1430 H   0  0  0  0  0  0
  143.8642   32.5606   48.9184 H   0  0  0  0  0  0
  146.0208   28.9997   47.9395 H   0  0  0  0  0  0
  147.8471   22.8058   54.4211 H   0  0  0  0  0  0
  147.0008   18.0938   49.9965 H   0  0  0  0  0  0
  147.7535   18.2110   52.5559 H   0  0  0  0  0  0
  146.1402   21.6888   48.7782 H   0  0  0  0  0  0
  147.2368   20.4254   48.1241 H   0  0  0  0  0  0
  145.1070   20.0300   47.2256 H   0  0  0  0  0  0
  145.3655   18.7807   48.4902 H   0  0  0  0  0  0
  143.7368   21.3776   48.8588 H   0  0  0  0  0  0
  142.4021   20.1870   51.6415 H   0  0  0  0  0  0
  142.3383   21.3104   50.2413 H   0  0  0  0  0  0
  146.1808   22.7945   49.3070 H   0  0  0  0  0  0
  141.2740   18.5482   49.7577 H   0  0  0  0  0  0
  140.3063   19.5665   50.8771 H   0  0  0  0  0  0
  140.2679   21.3519   49.1350 H   0  0  0  0  0  0
  141.1068   20.2240   48.0167 H   0  0  0  0  0  0
  139.0258   18.7228   49.1332 H   0  0  0  0  0  0
  138.0611   20.7892   49.9625 H   0  0  0  0  0  0
  137.1122   20.1594   48.5734 H   0  0  0  0  0  0
  138.2401   21.5376   48.3394 H   0  0  0  0  0  0
  139.9496   18.7181   46.8672 H   0  0  0  0  0  0
  139.3029   20.3725   46.6002 H   0  0  0  0  0  0
  138.1750   18.9943   46.8342 H   0  0  0  0  0  0
  1  2  2  0  0  0
  1  6  1  0  0  0
  1 34  1  0  0  0
  2  3  1  0  0  0
  2 40  1  0  0  0
  3  4  2  0  0  0
  3  9  1  0  0  0
  4  5  1  0  0  0
  4  7  1  0  0  0
  5  6  2  0  0  0
  5 41  1  0  0  0
  6 42  1  0  0  0
  7  8  1  0  0  0
  8 10  2  0  0  0
  8 14  1  0  0  0
 10 11  1  0  0  0
 10 43  1  0  0  0
 11 12  2  0  0  0
 11 44  1  0  0  0
 12 13  1  0  0  0
 12 45  1  0  0  0
 13 14  2  0  0  0
 13 15  1  0  0  0
 14 46  1  0  0  0
 15 16  1  0  0  0
 15 17  1  0  0  0
 15 18  1  0  0  0
 19 20  1  0  0  0
 19 23  2  0  0  0
 20 21  2  0  0  0
 20 47  1  0  0  0
 21 22  1  0  0  0
 22 24  2  0  0  0
 22 34  1  0  0  0
 23 24  1  0  0  0
 23 27  1  0  0  0
 24 25  1  0  0  0
 25 26  1  0  0  0
 25 28  1  0  0  0
 26 27  2  0  0  0
 26 48  1  0  0  0
 27 49  1  0  0  0
 28 29  1  0  0  0
 28 50  1  0  0  0
 28 51  1  0  0  0
 29 30  1  0  0  0
 29 52  1  0  0  0
 29 53  1  0  0  0
 30 31  1  0  0  0
 30 54  1  0  0  0
 31 32  1  0  0  0
 31 33  2  0  0  0
 32 35  1  0  0  0
 32 55  1  0  0  0
 32 56  1  0  0  0
 34 57  1  0  0  0
 35 36  1  0  0  0
 35 58  1  0  0  0
 35 59  1  0  0  0
 36 37  1  0  0  0
 36 60  1  0  0  0
 36 61  1  0  0  0
 37 38  1  0  0  0
 37 39  1  0  0  0
 37 62  1  0  0  0
 38 63  1  0  0  0
 38 64  1  0  0  0
 38 65  1  0  0  0
 39 66  1  0  0  0
 39 67  1  0  0  0
 39 68  1  0  0  0
M  CHG  1  37   1
M  END
> <s_m_source_file>
../3w2p_ligand.sdf

> <i_m_source_file_index>
1

> <s_epik_input>
RkMoRikoRiljKFtjSF0xKVtjSF1bY0hdW2NIXWMxT2MoW2NIXVtjSF0yKWMoQ2wpW2NIXWMyW05IXWMobltjSF1uMyljKGMzNCluKFtjSF1bY0hdNClbQ0gyXVtDSDJdW05IXUMoPU8pW0NIMl1bQ0gyXVtDSDJdW05IK10oW0NIM10pW0NIM10=

> <s_epik_cmdline>
J2VwaWtfYXBwJywgJy1pbWFlJywgJ2xpZ2FuZF9wcm8ubWFlJywgJy1vbWFlJywgJ2xpZ2FuZF9wcmVwLm1hZScsICctbXMnLCAnMScsICctcGgnLCAnNycsICctcGh0JywgJzAuNScsICctbnQn

> <r_lp_tautomer_probability>
1

> <r_epik_Ionization_Penalty>
  0.0029

> <r_epik_Ionization_Penalty_Charging>
  0.0029

> <r_epik_Ionization_Penalty_Neutral>
  0.0000

> <r_epik_State_Penalty>
 -0.0000

> <r_epik_Charging_Adjusted_Penalty>
0.00294708296688263

> <i_epik_Tot_Q>
1

> <i_epik_Tot_abs_Q>
1

$$$$
