3w2q_ligand
                    3D
 Schrodinger Suite 2020-3.
 72 75  0  0  1  0            999 V2000
    1.6540   24.0130   52.9560 C   0  0  0  0  0  0
    1.4380   32.8040   50.9840 C   0  0  0  0  0  0
    0.7120   33.1510   49.8680 C   0  0  0  0  0  0
   -0.6920   25.3770   50.5860 C   0  0  0  0  0  0
   -0.3220   26.6740   50.2790 C   0  0  0  0  0  0
    1.5180   31.4700   51.3170 C   0  0  0  0  0  0
   -0.2430   20.2390   50.6080 C   0  0  0  0  0  0
    1.4860   18.6010   51.9670 C   0  0  0  0  0  0
    1.5860   24.7340   50.4600 C   0  0  0  0  0  0
    0.1010   32.1580   49.1370 C   0  0  0  0  0  0
    2.4140   21.7490   53.2910 C   0  0  0  0  0  0
    1.5910   22.6310   52.6340 C   0  0  0  0  0  0
    0.6610   20.7900   51.4970 C   0  0  0  0  0  0
    1.5360   19.9630   52.1990 C   0  0  0  0  0  0
    0.2560   24.3780   50.6770 C   0  0  0  0  0  0
   -0.2890   18.8740   50.3880 C   0  0  0  0  0  0
    0.6790   22.1640   51.7100 C   0  0  0  0  0  0
    1.0090   26.9990   50.0810 C   0  0  0  0  0  0
    0.5890   18.0550   51.0710 C   0  0  0  0  0  0
    1.9850   26.0320   50.1740 C   0  0  0  0  0  0
    0.8740   30.5420   50.5260 C   0  0  0  0  0  0
   -2.5910   18.6340   49.7030 C   0  0  0  0  0  0
    1.4020   14.5190   51.1490 C   0  0  0  0  0  0
   -7.8310   18.6070   48.7490 C   0  0  0  0  0  0
   -7.7170   17.6040   46.6680 C   0  0  0  0  0  0
    0.9620   29.0940   50.8960 C   0  0  0  0  0  0
   -3.5540   17.6700   49.0670 C   0  0  0  0  0  0
   -5.0110   18.1230   49.1960 C   0  0  0  0  0  0
   -5.7260   17.7130   47.9130 C   0  0  0  0  0  0
    1.6900   16.0010   51.2810 C   0  0  0  0  0  0
    1.6220   25.1290   53.3000 N   0  0  0  0  0  0
    2.4160   20.4320   53.0930 N   0  0  0  0  0  0
    0.1640   30.8560   49.4370 N   0  0  0  0  0  0
   -0.1760   23.0610   51.0220 N   0  0  0  0  0  0
   -1.2370   18.3410   49.4770 N   0  0  0  0  0  0
   -6.9590   18.4390   47.5950 N   0  3  0  0  0  0
   -3.0180   19.5790   50.3580 O   0  0  0  0  0  0
    1.3970   28.2990   49.7800 O   0  0  0  0  0  0
    0.5230   16.6890   50.8330 O   0  0  0  0  0  0
    3.6570   26.4980   49.9210 Cl  0  0  0  0  0  0
    1.9357   33.5632   51.5874 H   0  0  0  0  0  0
    0.6223   34.1950   49.5679 H   0  0  0  0  0  0
   -1.7423   25.1416   50.7577 H   0  0  0  0  0  0
   -1.0854   27.4472   50.1922 H   0  0  0  0  0  0
    2.0825   31.1522   52.1936 H   0  0  0  0  0  0
   -0.9315   20.8915   50.0710 H   0  0  0  0  0  0
    2.1701   17.9436   52.5036 H   0  0  0  0  0  0
    2.3481   23.9568   50.5176 H   0  0  0  0  0  0
   -0.4711   32.4514   48.2568 H   0  0  0  0  0  0
    3.1122   22.1541   54.0235 H   0  0  0  0  0  0
    2.2777   13.9440   51.4844 H   0  0  0  0  0  0
    1.1871   14.2795   50.0971 H   0  0  0  0  0  0
    0.5322   14.2578   51.7697 H   0  0  0  0  0  0
   -8.7353   19.1564   48.4483 H   0  0  0  0  0  0
   -7.3011   19.1724   49.5297 H   0  0  0  0  0  0
   -8.1153   17.6192   49.1406 H   0  0  0  0  0  0
   -8.6554   18.1118   46.4005 H   0  0  0  0  0  0
   -7.9452   16.6398   47.1457 H   0  0  0  0  0  0
   -7.1216   17.4313   45.7594 H   0  0  0  0  0  0
    1.6818   28.9688   51.7183 H   0  0  0  0  0  0
   -0.0275   28.7368   51.2173 H   0  0  0  0  0  0
   -3.3234   17.5745   47.9957 H   0  0  0  0  0  0
   -3.4617   16.6865   49.5510 H   0  0  0  0  0  0
   -5.4708   17.6351   50.0681 H   0  0  0  0  0  0
   -5.0454   19.2147   49.3262 H   0  0  0  0  0  0
   -5.0554   17.8662   47.0546 H   0  0  0  0  0  0
   -6.0077   16.6514   47.9734 H   0  0  0  0  0  0
    1.9049   16.2405   52.3329 H   0  0  0  0  0  0
    2.5598   16.2622   50.6604 H   0  0  0  0  0  0
   -1.1889   22.7265   50.7536 H   0  0  0  0  0  0
   -0.9002   17.7232   48.6315 H   0  0  0  0  0  0
   -6.6768   19.4291   47.2076 H   0  0  0  0  0  0
  1 12  1  0  0  0
  1 31  3  0  0  0
  2  3  2  0  0  0
  2  6  1  0  0  0
  2 41  1  0  0  0
  3 10  1  0  0  0
  3 42  1  0  0  0
  4  5  2  0  0  0
  4 15  1  0  0  0
  4 43  1  0  0  0
  5 18  1  0  0  0
  5 44  1  0  0  0
  6 21  2  0  0  0
  6 45  1  0  0  0
  7 13  2  0  0  0
  7 16  1  0  0  0
  7 46  1  0  0  0
  8 14  2  0  0  0
  8 19  1  0  0  0
  8 47  1  0  0  0
  9 15  2  0  0  0
  9 20  1  0  0  0
  9 48  1  0  0  0
 10 33  2  0  0  0
 10 49  1  0  0  0
 11 12  1  0  0  0
 11 32  2  0  0  0
 11 50  1  0  0  0
 12 17  2  0  0  0
 13 14  1  0  0  0
 13 17  1  0  0  0
 14 32  1  0  0  0
 15 34  1  0  0  0
 16 19  2  0  0  0
 16 35  1  0  0  0
 17 34  1  0  0  0
 18 20  2  0  0  0
 18 38  1  0  0  0
 19 39  1  0  0  0
 20 40  1  0  0  0
 21 26  1  0  0  0
 21 33  1  0  0  0
 22 27  1  0  0  0
 22 35  1  0  0  0
 22 37  2  0  0  0
 23 30  1  0  0  0
 23 51  1  0  0  0
 23 52  1  0  0  0
 23 53  1  0  0  0
 24 36  1  0  0  0
 24 54  1  0  0  0
 24 55  1  0  0  0
 24 56  1  0  0  0
 25 36  1  0  0  0
 25 57  1  0  0  0
 25 58  1  0  0  0
 25 59  1  0  0  0
 26 38  1  0  0  0
 26 60  1  0  0  0
 26 61  1  0  0  0
 27 28  1  0  0  0
 27 62  1  0  0  0
 27 63  1  0  0  0
 28 29  1  0  0  0
 28 64  1  0  0  0
 28 65  1  0  0  0
 29 36  1  0  0  0
 29 66  1  0  0  0
 29 67  1  0  0  0
 30 39  1  0  0  0
 30 68  1  0  0  0
 30 69  1  0  0  0
 34 70  1  0  0  0
 35 71  1  0  0  0
 36 72  1  0  0  0
M  CHG  1  36   1
M  END
> <s_m_source_file>
../3w2q_ligand.sdf

> <i_m_source_file_index>
1

> <s_epik_input>
W0NIM11bTkgrXShbQ0gzXSlbQ0gyXVtDSDJdW0NIMl1DKD1PKVtOSF1jKFtjSF0xKWMoT1tDSDJdW0NIM10pW2NIXWMoYzEyKW5bY0hdYyhDI04pYzJbTkhdYzNbY0hdW2NIXWMoYyhDbClbY0hdMylPW0NIMl1jNFtjSF1bY0hdW2NIXVtjSF1uNA==

> <s_epik_cmdline>
J2VwaWtfYXBwJywgJy1pbWFlJywgJ2xpZ2FuZF9wcm8ubWFlJywgJy1vbWFlJywgJ2xpZ2FuZF9wcmVwLm1hZScsICctbXMnLCAnMScsICctcGgnLCAnNycsICctcGh0JywgJzAuNScsICctbnQn

> <r_lp_tautomer_probability>
1

> <r_epik_Ionization_Penalty>
  0.0071

> <r_epik_Ionization_Penalty_Charging>
  0.0030

> <r_epik_Ionization_Penalty_Neutral>
  0.0041

> <r_epik_State_Penalty>
 -0.0000

> <r_epik_Charging_Adjusted_Penalty>
0.00303718406299064

> <i_epik_Tot_Q>
1

> <i_epik_Tot_abs_Q>
1

$$$$
