3w2r_ligand
                    3D
 Schrodinger Suite 2020-3.
 73 77  0  0  1  0            999 V2000
    5.4560   16.1160   46.4940 C   0  0  0  0  0  0
    4.5280   16.9110   45.8490 C   0  0  0  0  0  0
    4.6750   10.7990   46.8950 C   0  0  0  0  0  0
    5.7160   14.8610   45.9700 C   0  0  0  0  0  0
    4.5450   11.9180   46.1060 C   0  0  0  0  0  0
    8.1300    5.2950   49.6710 C   0  0  0  0  0  0
    4.1270   15.2310   44.1940 C   0  0  0  0  0  0
    6.5170   10.0600   45.5680 C   0  0  0  0  0  0
    6.7800    5.0150   49.6240 C   0  0  0  0  0  0
    9.3050    8.3340   48.1570 C   0  0  0  0  0  0
    8.3420    6.5280   49.0090 C   0  0  0  0  0  0
    7.1150    6.9990   48.5740 C   0  0  0  0  0  0
    3.8620   16.4740   44.7190 C   0  0  0  0  0  0
    5.6630    9.8700   46.6410 C   0  0  0  0  0  0
    5.0560   14.4370   44.8300 C   0  0  0  0  0  0
    5.4080   12.1030   45.0460 C   0  0  0  0  0  0
    6.3930   11.1810   44.7670 C   0  0  0  0  0  0
    7.0290    8.1880   47.8800 C   0  0  0  0  0  0
    2.1950   17.1610   42.9610 C   0  0  0  0  0  0
   -0.7060   19.6670   39.2140 C   0  0  0  0  0  0
   -1.4180   19.3690   40.5060 C   0  0  0  0  0  0
    0.4580   18.6950   39.0020 C   0  0  0  0  0  0
   -0.4180   19.4270   41.6450 C   0  0  0  0  0  0
    1.4260   18.7470   40.1680 C   0  0  0  0  0  0
    0.6770   18.4010   41.4380 C   0  0  0  0  0  0
    4.7550    6.0500   48.7010 C   0  0  0  0  0  0
    3.9410    6.6060   49.8330 C   0  0  0  0  0  0
    2.3010    9.6130   49.5660 C   0  0  0  0  0  0
    3.0480    8.6650   50.4530 C   0  0  0  0  0  0
    9.4960    7.1960   48.8190 N   0  0  0  0  0  0
    8.1730    8.8550   47.6800 N   0  0  0  0  0  0
    6.1830    6.0500   48.9590 N   0  0  0  0  0  0
    5.7890    8.7040   47.4220 N   0  0  0  0  0  0
    2.9300   17.3440   44.1180 N   0  0  0  0  0  0
    1.5540   18.3230   42.5940 N   0  0  0  0  0  0
    2.0300   16.1120   42.3630 O   0  0  0  0  0  0
    1.5420    8.8190   48.6810 O   0  0  0  0  0  0
    5.3030   13.2140   44.2270 O   0  0  0  0  0  0
    4.0050    8.0080   49.6250 O   0  0  0  0  0  0
    7.4610   11.4160   43.4250 Cl  0  0  0  0  0  0
    5.9687   16.4668   47.3897 H   0  0  0  0  0  0
    4.3160   17.9060   46.2403 H   0  0  0  0  0  0
    3.9907   10.6445   47.7293 H   0  0  0  0  0  0
    6.4405   14.2071   46.4554 H   0  0  0  0  0  0
    3.7671   12.6520   46.3164 H   0  0  0  0  0  0
    8.8976    4.6762   50.1357 H   0  0  0  0  0  0
    3.6149   14.8826   43.2971 H   0  0  0  0  0  0
    7.2907    9.3228   45.3534 H   0  0  0  0  0  0
    6.2842    4.1369   50.0377 H   0  0  0  0  0  0
   10.2026    8.9261   47.9785 H   0  0  0  0  0  0
   -1.4107   19.5666   38.3754 H   0  0  0  0  0  0
   -0.3119   20.6936   39.2408 H   0  0  0  0  0  0
   -2.2097   20.1151   40.6689 H   0  0  0  0  0  0
   -1.8650   18.3652   40.4553 H   0  0  0  0  0  0
    0.0682   17.6704   38.9116 H   0  0  0  0  0  0
    0.9978   18.9644   38.0822 H   0  0  0  0  0  0
    0.0331   20.4294   41.6862 H   0  0  0  0  0  0
   -0.9314   19.2167   42.5948 H   0  0  0  0  0  0
    2.2371   18.0223   40.0038 H   0  0  0  0  0  0
    1.8493   19.7591   40.2483 H   0  0  0  0  0  0
    0.2603   17.3856   41.3650 H   0  0  0  0  0  0
    4.4552    5.0089   48.5106 H   0  0  0  0  0  0
    4.5843    6.6520   47.7963 H   0  0  0  0  0  0
    2.9133    6.2188   49.7704 H   0  0  0  0  0  0
    4.3894    6.3027   50.7906 H   0  0  0  0  0  0
    1.6485   10.2519   50.1792 H   0  0  0  0  0  0
    3.0167   10.2412   49.0154 H   0  0  0  0  0  0
    3.5438    9.2287   51.2570 H   0  0  0  0  0  0
    2.3446    7.9421   50.8919 H   0  0  0  0  0  0
    4.8924    8.1363   47.7114 H   0  0  0  0  0  0
    2.7096   18.3178   44.5796 H   0  0  0  0  0  0
    1.7269   19.2148   43.2143 H   0  0  0  0  0  0
    0.9022    9.2968   47.9244 H   0  0  0  0  0  0
  1  2  2  0  0  0
  1  4  1  0  0  0
  1 41  1  0  0  0
  2 13  1  0  0  0
  2 42  1  0  0  0
  3  5  2  0  0  0
  3 14  1  0  0  0
  3 43  1  0  0  0
  4 15  2  0  0  0
  4 44  1  0  0  0
  5 16  1  0  0  0
  5 45  1  0  0  0
  6  9  2  0  0  0
  6 11  1  0  0  0
  6 46  1  0  0  0
  7 13  2  0  0  0
  7 15  1  0  0  0
  7 47  1  0  0  0
  8 14  2  0  0  0
  8 17  1  0  0  0
  8 48  1  0  0  0
  9 32  1  0  0  0
  9 49  1  0  0  0
 10 30  2  0  0  0
 10 31  1  0  0  0
 10 50  1  0  0  0
 11 12  2  0  0  0
 11 30  1  0  0  0
 12 18  1  0  0  0
 12 32  1  0  0  0
 13 34  1  0  0  0
 14 33  1  0  0  0
 15 38  1  0  0  0
 16 17  2  0  0  0
 16 38  1  0  0  0
 17 40  1  0  0  0
 18 31  2  0  0  0
 18 33  1  0  0  0
 19 34  1  0  0  0
 19 35  1  0  0  0
 19 36  2  0  0  0
 20 21  1  0  0  0
 20 22  1  0  0  0
 20 51  1  0  0  0
 20 52  1  0  0  0
 21 23  1  0  0  0
 21 53  1  0  0  0
 21 54  1  0  0  0
 22 24  1  0  0  0
 22 55  1  0  0  0
 22 56  1  0  0  0
 23 25  1  0  0  0
 23 57  1  0  0  0
 23 58  1  0  0  0
 24 25  1  0  0  0
 24 59  1  0  0  0
 24 60  1  0  0  0
 25 35  1  0  0  0
 25 61  1  0  0  0
 26 27  1  0  0  0
 26 32  1  0  0  0
 26 62  1  0  0  0
 26 63  1  0  0  0
 27 39  1  0  0  0
 27 64  1  0  0  0
 27 65  1  0  0  0
 28 29  1  0  0  0
 28 37  1  0  0  0
 28 66  1  0  0  0
 28 67  1  0  0  0
 29 39  1  0  0  0
 29 68  1  0  0  0
 29 69  1  0  0  0
 33 70  1  0  0  0
 34 71  1  0  0  0
 35 72  1  0  0  0
 37 73  1  0  0  0
M  END
> <s_m_source_file>
../3w2r_ligand.sdf

> <i_m_source_file_index>
1

> <s_epik_input>
W0NIMl0xW0NIMl1bQ0gyXVtDSDJdW0NIMl1bQ0hdMVtOSF1DKD1PKVtOSF1jMltjSF1bY0hdW2NIXWMoW2NIXTIpT2MoYyhDbClbY0hdMylbY0hdW2NIXWMzW05IXWMobltjSF1uNCljKGM0NSluKFtjSF1bY0hdNSlbQ0gyXVtDSDJdT1tDSDJdW0NIMl1bT0hd

> <s_epik_cmdline>
J2VwaWtfYXBwJywgJy1pbWFlJywgJ2xpZ2FuZF9wcm8ubWFlJywgJy1vbWFlJywgJ2xpZ2FuZF9wcmVwLm1hZScsICctbXMnLCAnMScsICctcGgnLCAnNycsICctcGh0JywgJzAuNScsICctbnQn

> <r_lp_tautomer_probability>
1

> <r_epik_Ionization_Penalty>
  0.0000

> <r_epik_Ionization_Penalty_Charging>
  0.0000

> <r_epik_Ionization_Penalty_Neutral>
  0.0000

> <r_epik_State_Penalty>
 -0.0000

> <r_epik_Charging_Adjusted_Penalty>
0

> <i_epik_Tot_Q>
0

> <i_epik_Tot_abs_Q>
0

$$$$
