3w2s_ligand
                    3D
 Schrodinger Suite 2020-3.
 73 77  0  0  1  0            999 V2000
    7.3170    4.6510    7.2570 C   0  0  0  0  0  0
    6.0730    4.8240    6.6950 C   0  0  0  0  0  0
    5.9920    1.1650   11.2350 C   0  0  0  0  0  0
    7.7200    3.3840    7.6270 C   0  0  0  0  0  0
    6.2520    1.5790    9.9470 C   0  0  0  0  0  0
    8.3250   -1.4620   17.1090 C   0  0  0  0  0  0
    5.6160    2.4880    6.8580 C   0  0  0  0  0  0
    7.0150   -0.9560   10.7700 C   0  0  0  0  0  0
    7.0010   -1.8240   17.1680 C   0  0  0  0  0  0
    9.5940   -0.0680   14.0500 C   0  0  0  0  0  0
    8.5660   -0.9470   15.8110 C   0  0  0  0  0  0
    7.3830   -0.9980   15.0920 C   0  0  0  0  0  0
    5.2180    3.7600    6.4970 C   0  0  0  0  0  0
    6.3790   -0.1030   11.6520 C   0  0  0  0  0  0
    6.8570    2.3270    7.4250 C   0  0  0  0  0  0
    6.9030    0.7120    9.0860 C   0  0  0  0  0  0
    7.2720   -0.5470    9.4860 C   0  0  0  0  0  0
    7.3340   -0.5620   13.7760 C   0  0  0  0  0  0
    2.8990    3.1250    6.1010 C   0  0  0  0  0  0
   -1.9640    2.0650    4.3190 C   0  0  0  0  0  0
   -0.7930    1.1360    4.5380 C   0  0  0  0  0  0
   -1.9500    3.2040    5.3170 C   0  0  0  0  0  0
    0.5170    1.9020    4.4730 C   0  0  0  0  0  0
   -0.6270    3.9430    5.2800 C   0  0  0  0  0  0
    0.5200    2.9830    5.5380 C   0  0  0  0  0  0
    5.0420   -1.8330   15.6810 C   0  0  0  0  0  0
    4.1150   -0.6950   16.1030 C   0  0  0  0  0  0
    3.2150    1.9740   13.9120 C   0  0  0  0  0  0
    3.3640    1.3260   15.2570 C   0  0  0  0  0  0
    9.7240   -0.4730   15.3180 N   0  0  0  0  0  0
    8.5000   -0.0970   13.2880 N   0  0  0  0  0  0
    6.4460   -1.5330   15.9510 N   0  0  0  0  0  0
    6.1650   -0.5630   12.9540 N   0  0  0  0  0  0
    3.9710    3.9730    5.9170 N   0  0  0  0  0  0
    1.7670    3.7130    5.6040 N   0  0  0  0  0  0
    2.9310    1.9970    6.5960 O   0  0  0  0  0  0
    2.4280    1.1120   13.1130 O   0  0  0  0  0  0
    7.2340    1.0460    7.7850 O   0  0  0  0  0  0
    4.2700    0.2510   15.0550 O   0  0  0  0  0  0
    8.0750   -1.5550    8.3270 Cl  0  0  0  0  0  0
    7.9769    5.5053    7.4083 H   0  0  0  0  0  0
    5.7562    5.8243    6.3997 H   0  0  0  0  0  0
    5.4817    1.8334   11.9285 H   0  0  0  0  0  0
    8.7022    3.2215    8.0707 H   0  0  0  0  0  0
    5.9506    2.5714    9.6118 H   0  0  0  0  0  0
    9.0556   -1.5540   17.9127 H   0  0  0  0  0  0
    4.9610    1.6318    6.6969 H   0  0  0  0  0  0
    7.3123   -1.9532   11.0944 H   0  0  0  0  0  0
    6.4880   -2.2615   18.0245 H   0  0  0  0  0  0
   10.4922    0.3351   13.5822 H   0  0  0  0  0  0
   -1.9133    2.4859    3.3040 H   0  0  0  0  0  0
   -2.9034    1.5051    4.4372 H   0  0  0  0  0  0
   -0.8803    0.6629    5.5272 H   0  0  0  0  0  0
   -0.7905    0.3593    3.7591 H   0  0  0  0  0  0
   -2.7564    3.9124    5.0762 H   0  0  0  0  0  0
   -2.1028    2.8052    6.3307 H   0  0  0  0  0  0
    1.3548    1.2110    4.6477 H   0  0  0  0  0  0
    0.6231    2.3633    3.4801 H   0  0  0  0  0  0
   -0.4928    4.4053    4.2909 H   0  0  0  0  0  0
   -0.6219    4.7248    6.0538 H   0  0  0  0  0  0
    0.4438    2.5045    6.5256 H   0  0  0  0  0  0
    4.7764   -2.7463   16.2335 H   0  0  0  0  0  0
    4.9336   -2.0130   14.6013 H   0  0  0  0  0  0
    3.0846   -1.0718   16.1826 H   0  0  0  0  0  0
    4.4379   -0.3015   17.0781 H   0  0  0  0  0  0
    2.7211    2.9500   14.0279 H   0  0  0  0  0  0
    4.2084    2.1169   13.4618 H   0  0  0  0  0  0
    3.7604    2.0589   15.9752 H   0  0  0  0  0  0
    2.3829    0.9680   15.6023 H   0  0  0  0  0  0
    5.1605   -0.8859   13.2651 H   0  0  0  0  0  0
    3.8051    4.8519    5.2767 H   0  0  0  0  0  0
    1.8141    4.7542    5.2523 H   0  0  0  0  0  0
    2.1886    1.3894   12.0758 H   0  0  0  0  0  0
  1  2  2  0  0  0
  1  4  1  0  0  0
  1 41  1  0  0  0
  2 13  1  0  0  0
  2 42  1  0  0  0
  3  5  2  0  0  0
  3 14  1  0  0  0
  3 43  1  0  0  0
  4 15  2  0  0  0
  4 44  1  0  0  0
  5 16  1  0  0  0
  5 45  1  0  0  0
  6  9  2  0  0  0
  6 11  1  0  0  0
  6 46  1  0  0  0
  7 13  2  0  0  0
  7 15  1  0  0  0
  7 47  1  0  0  0
  8 14  2  0  0  0
  8 17  1  0  0  0
  8 48  1  0  0  0
  9 32  1  0  0  0
  9 49  1  0  0  0
 10 30  2  0  0  0
 10 31  1  0  0  0
 10 50  1  0  0  0
 11 12  2  0  0  0
 11 30  1  0  0  0
 12 18  1  0  0  0
 12 32  1  0  0  0
 13 34  1  0  0  0
 14 33  1  0  0  0
 15 38  1  0  0  0
 16 17  2  0  0  0
 16 38  1  0  0  0
 17 40  1  0  0  0
 18 31  2  0  0  0
 18 33  1  0  0  0
 19 34  1  0  0  0
 19 35  1  0  0  0
 19 36  2  0  0  0
 20 21  1  0  0  0
 20 22  1  0  0  0
 20 51  1  0  0  0
 20 52  1  0  0  0
 21 23  1  0  0  0
 21 53  1  0  0  0
 21 54  1  0  0  0
 22 24  1  0  0  0
 22 55  1  0  0  0
 22 56  1  0  0  0
 23 25  1  0  0  0
 23 57  1  0  0  0
 23 58  1  0  0  0
 24 25  1  0  0  0
 24 59  1  0  0  0
 24 60  1  0  0  0
 25 35  1  0  0  0
 25 61  1  0  0  0
 26 27  1  0  0  0
 26 32  1  0  0  0
 26 62  1  0  0  0
 26 63  1  0  0  0
 27 39  1  0  0  0
 27 64  1  0  0  0
 27 65  1  0  0  0
 28 29  1  0  0  0
 28 37  1  0  0  0
 28 66  1  0  0  0
 28 67  1  0  0  0
 29 39  1  0  0  0
 29 68  1  0  0  0
 29 69  1  0  0  0
 33 70  1  0  0  0
 34 71  1  0  0  0
 35 72  1  0  0  0
 37 73  1  0  0  0
M  END
> <s_m_source_file>
../3w2s_ligand.sdf

> <i_m_source_file_index>
1

> <s_epik_input>
W0NIMl0xW0NIMl1bQ0gyXVtDSDJdW0NIMl1bQ0hdMVtOSF1DKD1PKVtOSF1jMltjSF1bY0hdW2NIXWMoW2NIXTIpT2MoYyhDbClbY0hdMylbY0hdW2NIXWMzW05IXWMobltjSF1uNCljKGM0NSluKFtjSF1bY0hdNSlbQ0gyXVtDSDJdT1tDSDJdW0NIMl1bT0hd

> <s_epik_cmdline>
J2VwaWtfYXBwJywgJy1pbWFlJywgJ2xpZ2FuZF9wcm8ubWFlJywgJy1vbWFlJywgJ2xpZ2FuZF9wcmVwLm1hZScsICctbXMnLCAnMScsICctcGgnLCAnNycsICctcGh0JywgJzAuNScsICctbnQn

> <r_lp_tautomer_probability>
1

> <r_epik_Ionization_Penalty>
  0.0000

> <r_epik_Ionization_Penalty_Charging>
  0.0000

> <r_epik_Ionization_Penalty_Neutral>
  0.0000

> <r_epik_State_Penalty>
 -0.0000

> <r_epik_Charging_Adjusted_Penalty>
0

> <i_epik_Tot_Q>
0

> <i_epik_Tot_abs_Q>
0

$$$$
