3w2t_ligand
                    3D
 Schrodinger Suite 2020-3.
 50 53  0  0  1  0            999 V2000
   57.1700   63.0460   35.5880 O   0  0  0  0  0  0
   56.7870   64.0630   36.1730 C   0  0  0  0  0  0
   57.1580   64.2780   37.4880 N   0  0  0  0  0  0
   57.1170   65.6730   37.9470 C   0  0  0  0  0  0
   58.0270   65.7030   39.1640 C   0  0  0  0  0  0
   59.0990   64.6710   38.8510 C   0  0  0  0  0  0
   58.4260   63.6620   37.9440 C   0  0  1  0  0  0
   58.0630   62.4880   38.8100 C   0  0  0  0  0  0
   56.8540   62.3750   39.1960 N   0  0  0  0  0  0
   55.8330   65.0430   35.4920 C   0  0  0  0  0  0
   55.1020   64.4610   34.3580 N   0  3  0  0  0  0
   53.8000   63.7760   34.4750 C   0  0  1  0  0  0
   53.8400   62.7430   35.6230 C   0  0  0  0  0  0
   52.4890   62.0350   35.7860 C   0  0  1  0  0  0
   51.3650   63.0660   36.0110 C   0  0  0  0  0  0
   51.2980   64.0550   34.8400 C   0  0  1  0  0  0
   52.6610   64.7690   34.7610 C   0  0  0  0  0  0
   51.0340   63.2850   33.5280 C   0  0  0  0  0  0
   52.2290   61.2820   34.4790 C   0  0  0  0  0  0
   52.1690   62.2640   33.3080 C   0  0  1  0  0  0
   51.9400   61.4640   32.1510 O   0  0  0  0  0  0
   53.4910   63.0300   33.1620 C   0  0  0  0  0  0
   57.4821   66.3332   37.1465 H   0  0  0  0  0  0
   56.0822   65.9446   38.2029 H   0  0  0  0  0  0
   58.4472   66.7126   39.2828 H   0  0  0  0  0  0
   57.4482   65.4388   40.0613 H   0  0  0  0  0  0
   59.9462   65.1626   38.3505 H   0  0  0  0  0  0
   59.4450   64.2065   39.7862 H   0  0  0  0  0  0
   58.8326   61.7551   39.0938 H   0  0  0  0  0  0
   56.1081   63.1252   38.8947 H   0  0  0  0  0  0
   55.0858   65.3927   36.2195 H   0  0  0  0  0  0
   56.4023   65.9028   35.1091 H   0  0  0  0  0  0
   54.8745   65.2491   33.6251 H   0  0  0  0  0  0
   55.7203   63.6854   33.8824 H   0  0  0  0  0  0
   54.6076   61.9851   35.4076 H   0  0  0  0  0  0
   54.0830   63.2530   36.5669 H   0  0  0  0  0  0
   52.5119   61.3522   36.6481 H   0  0  0  0  0  0
   50.4000   62.5444   36.0928 H   0  0  0  0  0  0
   51.5598   63.6243   36.9386 H   0  0  0  0  0  0
   50.4868   64.7820   34.9931 H   0  0  0  0  0  0
   52.8466   65.2733   35.7208 H   0  0  0  0  0  0
   52.6164   65.5175   33.9562 H   0  0  0  0  0  0
   50.0705   62.7590   33.5991 H   0  0  0  0  0  0
   51.0039   63.9932   32.6869 H   0  0  0  0  0  0
   53.0410   60.5609   34.3035 H   0  0  0  0  0  0
   51.2712   60.7457   34.5491 H   0  0  0  0  0  0
   51.0343   60.8436   32.0817 H   0  0  0  0  0  0
   53.4057   63.7554   32.3395 H   0  0  0  0  0  0
   54.3033   62.3213   32.9430 H   0  0  0  0  0  0
   56.5562   61.5273   39.8305 H   0  0  0  0  0  0
  1  2  2  0  0  0
  2  3  1  0  0  0
  2 10  1  0  0  0
  3  4  1  0  0  0
  3  7  1  0  0  0
  4  5  1  0  0  0
  4 23  1  0  0  0
  4 24  1  0  0  0
  5  6  1  0  0  0
  5 25  1  0  0  0
  5 26  1  0  0  0
  6  7  1  0  0  0
  6 27  1  0  0  0
  6 28  1  0  0  0
  7  8  2  0  0  0
  8  9  1  0  0  0
  8 29  1  0  0  0
  9 30  1  0  0  0
  9 50  1  0  0  0
 10 11  1  0  0  0
 10 31  1  0  0  0
 10 32  1  0  0  0
 11 12  1  0  0  0
 11 33  1  0  0  0
 11 34  1  0  0  0
 12 13  1  0  0  0
 12 17  1  0  0  0
 12 22  1  0  0  0
 13 14  1  0  0  0
 13 35  1  0  0  0
 13 36  1  0  0  0
 14 15  1  0  0  0
 14 19  1  0  0  0
 14 37  1  0  0  0
 15 16  1  0  0  0
 15 38  1  0  0  0
 15 39  1  0  0  0
 16 17  1  0  0  0
 16 18  1  0  0  0
 16 40  1  0  0  0
 17 41  1  0  0  0
 17 42  1  0  0  0
 18 20  1  0  0  0
 18 43  1  0  0  0
 18 44  1  0  0  0
 19 20  1  0  0  0
 19 45  1  0  0  0
 19 46  1  0  0  0
 20 21  1  0  0  0
 20 22  1  0  0  0
 21 47  1  0  0  0
 22 48  1  0  0  0
 22 49  1  0  0  0
M  CHG  1  11   1
M  END
> <s_m_source_file>
../3w2t_ligand.sdf

> <i_m_source_file_index>
1

> <s_epik_input>
W0hdL049W0NIXVxbQ0BASF0xW0NIMl1bQ0gyXVtDSDJdTjFDKD1PKVtDSDJdW05IMitdW0NAQF0yM1tDSDJdW0NASF00W0NIMl1bQ0BASF0oW0NIMl0yKVtDSDJdW0NAQF0oW0NIMl00KShbT0hdKVtDSDJdMw==

> <s_epik_cmdline>
J2VwaWtfYXBwJywgJy1pbWFlJywgJ2xpZ2FuZF9wcm8ubWFlJywgJy1vbWFlJywgJ2xpZ2FuZF9wcmVwLm1hZScsICctbXMnLCAnMScsICctcGgnLCAnNycsICctcGh0JywgJzAuNScsICctbnQn

> <r_lp_tautomer_probability>
7e-06

> <r_epik_Ionization_Penalty>
  0.0347

> <r_epik_Ionization_Penalty_Charging>
  0.0346

> <r_epik_Ionization_Penalty_Neutral>
  0.0000

> <r_epik_State_Penalty>
  0.0288

> <r_epik_Charging_Adjusted_Penalty>
0.0634805444210436

> <i_epik_Tot_Q>
1

> <i_epik_Tot_abs_Q>
1

> <s_epik_Chemistry_Notes>
This compound has an imine and may undergo hydrolysis.

$$$$
