3w32_ligand
                    3D
 Schrodinger Suite 2020-3.
 62 65  0  0  1  0            999 V2000
   17.5230   28.9900    5.7980 C   0  0  0  0  0  0
   16.2910   28.4180    6.0800 C   0  0  0  0  0  0
   17.3990   32.4000   11.0690 C   0  0  0  0  0  0
   17.7660   30.2650    6.2690 C   0  0  0  0  0  0
   17.6200   31.9950    9.7720 C   0  0  0  0  0  0
   15.6050   30.4080    7.2680 C   0  0  0  0  0  0
   15.7860   33.9910   10.3130 C   0  0  0  0  0  0
   12.7480   33.5660   13.3790 C   0  0  0  0  0  0
   14.9420   34.4920   14.5740 C   0  0  0  0  0  0
   15.3700   29.1340    6.8090 C   0  0  0  0  0  0
   16.4800   33.3980   11.3520 C   0  0  0  0  0  0
   16.8300   30.9650    6.9940 C   0  0  0  0  0  0
   16.9230   32.5970    8.7430 C   0  0  0  0  0  0
   15.9950   33.5920    9.0090 C   0  0  0  0  0  0
   13.6990   34.5620   15.1920 C   0  0  0  0  0  0
   14.9890   33.9350   13.3050 C   0  0  0  0  0  0
   16.1630   35.0290   15.1700 C   0  0  0  0  0  0
   16.4430   35.1960   16.4650 C   0  0  0  0  0  0
   17.7340   35.8640   16.8100 C   0  0  0  0  0  0
   15.5660   34.8150   17.5820 C   0  0  0  0  0  0
   14.3100   35.6400   17.4090 C   0  0  0  0  0  0
   23.0390   35.0530   18.7000 C   0  0  0  0  0  0
   20.0480   36.3220   16.1570 C   0  0  0  0  0  0
   20.7350   35.5380   17.2580 C   0  0  0  0  0  0
   14.0380   28.5220    7.1200 C   0  0  0  0  0  0
   12.5980   34.0910   14.5900 N   0  0  0  0  0  0
   13.8910   33.4610   12.6950 N   0  0  0  0  0  0
   13.3910   35.0600   16.4560 N   0  0  0  0  0  0
   16.2480   33.8570   12.6500 N   0  0  0  0  0  0
   18.7330   35.7910   15.8670 N   0  0  0  0  0  0
   17.8350   36.4820   17.8600 O   0  0  0  0  0  0
   23.0660   36.4370   16.4890 O   0  0  0  0  0  0
   21.9970   37.4430   18.5570 O   0  0  0  0  0  0
   17.1180   32.2490    7.4240 O   0  0  0  0  0  0
   14.0970   27.6110    8.1150 F   0  0  0  0  0  0
   13.1660   29.4380    7.5620 F   0  0  0  0  0  0
   13.5590   27.8560    6.0390 F   0  0  0  0  0  0
   22.2760   36.3050   17.7000 S   0  0  0  0  0  0
   15.1370   34.3430    7.7020 Cl  0  0  0  0  0  0
   18.2752   28.4501    5.2229 H   0  0  0  0  0  0
   16.0557   27.4135    5.7282 H   0  0  0  0  0  0
   17.9528   31.9307   11.8821 H   0  0  0  0  0  0
   18.7289   30.7310    6.0599 H   0  0  0  0  0  0
   18.3399   31.2049    9.5588 H   0  0  0  0  0  0
   14.8474   30.9558    7.8285 H   0  0  0  0  0  0
   15.0667   34.7816   10.5266 H   0  0  0  0  0  0
   11.8495   33.1828   12.8953 H   0  0  0  0  0  0
   16.9026   35.3117   14.4065 H   0  0  0  0  0  0
   15.3499   33.7378   17.5275 H   0  0  0  0  0  0
   16.0669   35.0407   18.5350 H   0  0  0  0  0  0
   13.7889   35.7213   18.3743 H   0  0  0  0  0  0
   14.5779   36.6451   17.0512 H   0  0  0  0  0  0
   23.2640   34.1739   18.0783 H   0  0  0  0  0  0
   22.3541   34.7633   19.5106 H   0  0  0  0  0  0
   23.9717   35.4459   19.1309 H   0  0  0  0  0  0
   19.9383   37.3714   16.4679 H   0  0  0  0  0  0
   20.6528   36.2727   15.2395 H   0  0  0  0  0  0
   20.0851   35.5049   18.1449 H   0  0  0  0  0  0
   20.9328   34.5134   16.9100 H   0  0  0  0  0  0
   12.3221   34.9779   16.7025 H   0  0  0  0  0  0
   17.0884   34.2039   13.2691 H   0  0  0  0  0  0
   18.5302   35.3274   14.8903 H   0  0  0  0  0  0
  1  2  2  0  0  0
  1  4  1  0  0  0
  1 40  1  0  0  0
  2 10  1  0  0  0
  2 41  1  0  0  0
  3  5  2  0  0  0
  3 11  1  0  0  0
  3 42  1  0  0  0
  4 12  2  0  0  0
  4 43  1  0  0  0
  5 13  1  0  0  0
  5 44  1  0  0  0
  6 10  2  0  0  0
  6 12  1  0  0  0
  6 45  1  0  0  0
  7 11  2  0  0  0
  7 14  1  0  0  0
  7 46  1  0  0  0
  8 26  2  0  0  0
  8 27  1  0  0  0
  8 47  1  0  0  0
  9 15  2  0  0  0
  9 16  1  0  0  0
  9 17  1  0  0  0
 10 25  1  0  0  0
 11 29  1  0  0  0
 12 34  1  0  0  0
 13 14  2  0  0  0
 13 34  1  0  0  0
 14 39  1  0  0  0
 15 26  1  0  0  0
 15 28  1  0  0  0
 16 27  2  0  0  0
 16 29  1  0  0  0
 17 18  2  0  0  0
 17 48  1  0  0  0
 18 19  1  0  0  0
 18 20  1  0  0  0
 19 30  1  0  0  0
 19 31  2  0  0  0
 20 21  1  0  0  0
 20 49  1  0  0  0
 20 50  1  0  0  0
 21 28  1  0  0  0
 21 51  1  0  0  0
 21 52  1  0  0  0
 22 38  1  0  0  0
 22 53  1  0  0  0
 22 54  1  0  0  0
 22 55  1  0  0  0
 23 24  1  0  0  0
 23 30  1  0  0  0
 23 56  1  0  0  0
 23 57  1  0  0  0
 24 38  1  0  0  0
 24 58  1  0  0  0
 24 59  1  0  0  0
 25 35  1  0  0  0
 25 36  1  0  0  0
 25 37  1  0  0  0
 28 60  1  0  0  0
 29 61  1  0  0  0
 30 62  1  0  0  0
 32 38  2  0  0  0
 33 38  2  0  0  0
M  END
> <s_m_source_file>
../3w32_ligand.sdf

> <i_m_source_file_index>
1

> <s_epik_input>
RkMoRikoRiljMVtjSF1bY0hdW2NIXWMoW2NIXTEpT2MoYyhDbClbY0hdMilbY0hdW2NIXWMyW05IXWMzbltjSF1uYyhjMzQpW05IXVtDSDJdW0NIMl1DKD1bQ0hdNClDKD1PKVtOSF1bQ0gyXVtDSDJdUyg9TykoPU8pW0NIM10=

> <s_epik_cmdline>
J2VwaWtfYXBwJywgJy1pbWFlJywgJ2xpZ2FuZF9wcm8ubWFlJywgJy1vbWFlJywgJ2xpZ2FuZF9wcmVwLm1hZScsICctbXMnLCAnMScsICctcGgnLCAnNycsICctcGh0JywgJzAuNScsICctbnQn

> <r_lp_tautomer_probability>
1

> <r_epik_Ionization_Penalty>
  0.0277

> <r_epik_Ionization_Penalty_Charging>
  0.0000

> <r_epik_Ionization_Penalty_Neutral>
  0.0277

> <r_epik_State_Penalty>
  0.0202

> <r_epik_Charging_Adjusted_Penalty>
0.0202438405121733

> <i_epik_Tot_Q>
0

> <i_epik_Tot_abs_Q>
0

$$$$
