3w33_ligand
                    3D
 Schrodinger Suite 2020-3.
 57 61  0  0  1  0            999 V2000
   18.1380   29.6370    6.3460 C   0  0  0  0  0  0
   17.5280   32.8280   11.2660 C   0  0  0  0  0  0
   18.0650   30.9560    6.7410 C   0  0  0  0  0  0
   17.5790   32.4710    9.9370 C   0  0  0  0  0  0
   17.0580   28.7870    6.4820 C   0  0  0  0  0  0
   14.5340   30.9960    7.9760 C   0  0  0  0  0  0
   15.9490   34.5580   10.7240 C   0  0  0  0  0  0
   13.6320   29.9650    8.0080 C   0  0  0  0  0  0
   13.2060   33.8790   13.8920 C   0  0  0  0  0  0
   15.8170   30.6690    7.4450 C   0  0  0  0  0  0
   15.4160   34.8310   15.0410 C   0  0  0  0  0  0
   16.7100   33.8780   11.6700 C   0  0  0  0  0  0
   16.9090   31.4830    7.2940 C   0  0  0  0  0  0
   16.8110   33.1500    9.0120 C   0  0  0  0  0  0
   15.9180   29.3400    7.0420 C   0  0  0  0  0  0
   15.9940   34.1970    9.3990 C   0  0  0  0  0  0
   14.1950   34.8430   15.7160 C   0  0  0  0  0  0
   15.4230   34.3190   13.7540 C   0  0  0  0  0  0
   16.6660   35.4100   15.5710 C   0  0  0  0  0  0
   17.0560   35.4950   16.8450 C   0  0  0  0  0  0
   18.3500   36.1810   17.1170 C   0  0  0  0  0  0
   16.2420   34.9900   17.9680 C   0  0  0  0  0  0
   14.9810   35.8450   17.9060 C   0  0  0  0  0  0
   20.2410   37.0910   15.8830 C   0  0  0  0  0  0
   21.6500   36.6330   16.1700 C   0  0  0  0  0  0
   13.0870   34.3590   15.1270 N   0  0  0  0  0  0
   14.3310   33.8280   13.1710 N   0  0  0  0  0  0
   13.9540   35.3000   17.0250 N   0  0  0  0  0  0
   16.6390   34.2990   13.0000 N   0  0  0  0  0  0
   19.2900   36.0320   16.1340 N   0  0  0  0  0  0
   18.5380   36.8390   18.1370 O   0  0  0  0  0  0
   21.7000   36.2510   17.5370 O   0  0  0  0  0  0
   16.8660   32.8250    7.6660 O   0  0  0  0  0  0
   14.4040   28.5880    7.3480 S   0  0  0  0  0  0
   15.0450   35.0360    8.2210 Cl  0  0  0  0  0  0
   19.0660   29.2578    5.9181 H   0  0  0  0  0  0
   18.1273   32.2890   11.9998 H   0  0  0  0  0  0
   18.9364   31.5987    6.6154 H   0  0  0  0  0  0
   18.2246   31.6537    9.6158 H   0  0  0  0  0  0
   17.1001   27.7441    6.1677 H   0  0  0  0  0  0
   14.2882   31.9966    8.3316 H   0  0  0  0  0  0
   15.3113   35.3847   11.0370 H   0  0  0  0  0  0
   12.6103   30.0132    8.3847 H   0  0  0  0  0  0
   12.3014   33.4908   13.4238 H   0  0  0  0  0  0
   17.3114   35.8016   14.7709 H   0  0  0  0  0  0
   16.0310   33.9211   17.8163 H   0  0  0  0  0  0
   16.7934   35.1248   18.9102 H   0  0  0  0  0  0
   14.5436   35.9268   18.9120 H   0  0  0  0  0  0
   15.2362   36.8484   17.5345 H   0  0  0  0  0  0
   19.9947   37.9463   16.5293 H   0  0  0  0  0  0
   20.1614   37.3935   14.8284 H   0  0  0  0  0  0
   21.8974   35.7796   15.5215 H   0  0  0  0  0  0
   22.3508   37.4579   15.9739 H   0  0  0  0  0  0
   12.9131   35.2265   17.3731 H   0  0  0  0  0  0
   17.5479   34.6375   13.5190 H   0  0  0  0  0  0
   19.3233   35.1096   15.5356 H   0  0  0  0  0  0
   22.6405   35.8801   17.9704 H   0  0  0  0  0  0
  1  3  2  0  0  0
  1  5  1  0  0  0
  1 36  1  0  0  0
  2  4  2  0  0  0
  2 12  1  0  0  0
  2 37  1  0  0  0
  3 13  1  0  0  0
  3 38  1  0  0  0
  4 14  1  0  0  0
  4 39  1  0  0  0
  5 15  2  0  0  0
  5 40  1  0  0  0
  6  8  2  0  0  0
  6 10  1  0  0  0
  6 41  1  0  0  0
  7 12  2  0  0  0
  7 16  1  0  0  0
  7 42  1  0  0  0
  8 34  1  0  0  0
  8 43  1  0  0  0
  9 26  2  0  0  0
  9 27  1  0  0  0
  9 44  1  0  0  0
 10 13  2  0  0  0
 10 15  1  0  0  0
 11 17  2  0  0  0
 11 18  1  0  0  0
 11 19  1  0  0  0
 12 29  1  0  0  0
 13 33  1  0  0  0
 14 16  2  0  0  0
 14 33  1  0  0  0
 15 34  1  0  0  0
 16 35  1  0  0  0
 17 26  1  0  0  0
 17 28  1  0  0  0
 18 27  2  0  0  0
 18 29  1  0  0  0
 19 20  2  0  0  0
 19 45  1  0  0  0
 20 21  1  0  0  0
 20 22  1  0  0  0
 21 30  1  0  0  0
 21 31  2  0  0  0
 22 23  1  0  0  0
 22 46  1  0  0  0
 22 47  1  0  0  0
 23 28  1  0  0  0
 23 48  1  0  0  0
 23 49  1  0  0  0
 24 25  1  0  0  0
 24 30  1  0  0  0
 24 50  1  0  0  0
 24 51  1  0  0  0
 25 32  1  0  0  0
 25 52  1  0  0  0
 25 53  1  0  0  0
 28 54  1  0  0  0
 29 55  1  0  0  0
 30 56  1  0  0  0
 32 57  1  0  0  0
M  END
> <s_m_source_file>
../3w33_ligand.sdf

> <i_m_source_file_index>
1

> <s_epik_input>
W2NIXTFbY0hdc2MoYzEyKVtjSF1bY0hdW2NIXWMyT2MoYyhDbClbY0hdMylbY0hdW2NIXWMzW05IXWM0bltjSF1uYyhjNDUpW05IXVtDSDJdW0NIMl1DKD1bQ0hdNSlDKD1PKVtOSF1bQ0gyXVtDSDJdW09IXQ==

> <s_epik_cmdline>
J2VwaWtfYXBwJywgJy1pbWFlJywgJ2xpZ2FuZF9wcm8ubWFlJywgJy1vbWFlJywgJ2xpZ2FuZF9wcmVwLm1hZScsICctbXMnLCAnMScsICctcGgnLCAnNycsICctcGh0JywgJzAuNScsICctbnQn

> <r_epik_Ionization_Penalty>
  0.0316

> <r_epik_Ionization_Penalty_Charging>
  0.0000

> <r_epik_Ionization_Penalty_Neutral>
  0.0316

> <r_epik_State_Penalty>
  0.0234

> <r_epik_Charging_Adjusted_Penalty>
0.0234146859910334

> <i_epik_Tot_Q>
0

> <i_epik_Tot_abs_Q>
0

$$$$
