3w37_ligand
                    3D
 Schrodinger Suite 2020-3.
 88 91  0  0  1  0            999 V2000
   -0.3310   -7.3210  -21.5390 C   0  0  2  0  0  0
    0.0430   -8.5600  -22.3890 C   0  0  1  0  0  0
   -1.1120   -8.9100  -23.3300 C   0  0  2  0  0  0
   -2.2520   -9.4630  -22.4840 C   0  0  1  0  0  0
   -2.5620   -8.5160  -21.3760 C   0  0  0  0  0  0
   -3.8920   -8.6690  -20.7060 C   0  0  0  0  0  0
   -1.6970   -7.5810  -20.9190 C   0  0  0  0  0  0
    1.2480   -8.3150  -23.1330 O   0  0  0  0  0  0
   -0.7750   -9.9810  -24.2340 O   0  0  0  0  0  0
   -3.4070   -9.6300  -23.3300 O   0  0  0  0  0  0
   -3.7380   -9.7540  -19.7730 O   0  0  0  0  0  0
   -0.6000   -1.8880  -20.8330 C   0  0  2  0  0  0
    0.3150   -2.8630  -20.1110 C   0  0  1  0  0  0
    0.7010   -4.0530  -21.0030 C   0  0  2  0  0  0
   -0.5630   -4.7860  -21.4080 C   0  0  1  0  0  0
   -1.4260   -3.7650  -22.1510 C   0  0  1  0  0  0
   -2.7640   -4.3860  -22.4880 C   0  0  0  0  0  0
   -0.3100   -5.9980  -22.2220 N   0  3  0  0  0  0
    1.4950   -2.1520  -19.6970 O   0  0  0  0  0  0
    1.4930   -4.8700  -20.1470 O   0  0  0  0  0  0
   -1.7280   -2.6190  -21.3120 O   0  0  0  0  0  0
   -0.3520    2.0770  -24.2980 C   0  0  2  0  0  0
   -1.0890    2.0370  -22.9880 C   0  0  1  0  0  0
   -0.4090    1.0430  -22.0570 C   0  0  2  0  0  0
   -0.4910   -0.3360  -22.6990 C   0  0  1  0  0  0
    0.3180   -0.2670  -23.9770 C   0  0  1  0  0  0
    0.2880   -1.6140  -24.6990 C   0  0  0  0  0  0
   -1.0410    3.3420  -22.3980 O   0  0  0  0  0  0
   -1.2220    1.0580  -20.8850 O   0  0  0  0  0  0
    0.1660   -1.3230  -21.8940 O   0  0  0  0  0  0
   -0.2330    0.7400  -24.8430 O   0  0  0  0  0  0
   -1.0650   -1.8830  -25.1140 O   0  0  0  0  0  0
    3.8780    4.6730  -26.1260 C   0  0  1  0  0  0
    2.4350    4.9730  -26.5390 C   0  0  1  0  0  0
    1.3920    4.4790  -25.5260 C   0  0  2  0  0  0
    1.6540    3.0350  -25.1110 C   0  0  1  0  0  0
    3.1090    2.8610  -24.7320 C   0  0  1  0  0  0
    3.2860    1.3790  -24.4840 C   0  0  0  0  0  0
    4.2950    5.4270  -24.9710 O   0  0  0  0  0  0
    2.2390    6.3840  -26.7260 O   0  0  0  0  0  0
    0.1080    4.5320  -26.1580 O   0  0  0  0  0  0
    0.9100    2.6320  -23.9500 O   0  0  0  0  0  0
    3.9790    3.2850  -25.7950 O   0  0  0  0  0  0
    4.4930    1.1990  -23.7850 O   0  0  0  0  0  0
    0.4635   -7.1770  -20.7920 H   0  0  0  0  0  0
    0.2896   -9.4232  -21.7534 H   0  0  0  0  0  0
   -1.3556   -8.0284  -23.9411 H   0  0  0  0  0  0
   -2.0123  -10.4463  -22.0532 H   0  0  0  0  0  0
   -4.1526   -7.7330  -20.1903 H   0  0  0  0  0  0
   -4.6588   -8.8974  -21.4609 H   0  0  0  0  0  0
   -1.9669   -6.9584  -20.0532 H   0  0  0  0  0  0
    2.1759   -8.0497  -22.6052 H   0  0  0  0  0  0
    0.0321   -9.8467  -24.9692 H   0  0  0  0  0  0
   -3.3577  -10.2980  -24.2026 H   0  0  0  0  0  0
   -4.5875  -10.0667  -19.1480 H   0  0  0  0  0  0
   -1.0031   -1.0562  -20.2367 H   0  0  0  0  0  0
   -0.1780   -3.2386  -19.2022 H   0  0  0  0  0  0
    1.2787   -3.8106  -21.9072 H   0  0  0  0  0  0
   -1.0656   -5.2025  -20.5226 H   0  0  0  0  0  0
   -0.8743   -3.4128  -23.0351 H   0  0  0  0  0  0
   -2.6085   -5.2675  -23.1273 H   0  0  0  0  0  0
   -3.3853   -3.6513  -23.0212 H   0  0  0  0  0  0
   -3.2709   -4.6906  -21.5605 H   0  0  0  0  0  0
    0.6792   -5.8346  -22.6745 H   0  0  0  0  0  0
   -1.0801   -5.9784  -23.0072 H   0  0  0  0  0  0
    1.4052   -1.2668  -19.0501 H   0  0  0  0  0  0
    2.4497   -4.4924  -19.7569 H   0  0  0  0  0  0
   -0.8162    2.6695  -25.1002 H   0  0  0  0  0  0
   -2.1484    1.7832  -23.1406 H   0  0  0  0  0  0
    0.6304    1.2872  -21.7924 H   0  0  0  0  0  0
   -1.5395   -0.6483  -22.8135 H   0  0  0  0  0  0
    1.3499    0.0366  -23.7469 H   0  0  0  0  0  0
    0.9483   -1.5737  -25.5779 H   0  0  0  0  0  0
    0.6343   -2.4038  -24.0162 H   0  0  0  0  0  0
   -1.4841    4.2002  -22.9244 H   0  0  0  0  0  0
   -1.2946    1.9722  -20.2776 H   0  0  0  0  0  0
   -1.3001   -2.8116  -25.6548 H   0  0  0  0  0  0
    4.5771    4.9254  -26.9369 H   0  0  0  0  0  0
    2.2746    4.4879  -27.5131 H   0  0  0  0  0  0
    1.3768    5.1271  -24.6373 H   0  0  0  0  0  0
    1.3224    2.3948  -25.9418 H   0  0  0  0  0  0
    3.4003    3.4922  -23.8795 H   0  0  0  0  0  0
    2.4411    1.0035  -23.8880 H   0  0  0  0  0  0
    3.3205    0.8477  -25.4466 H   0  0  0  0  0  0
    4.2963    6.5265  -25.0031 H   0  0  0  0  0  0
    2.8866    6.9423  -27.4181 H   0  0  0  0  0  0
   -0.2796    5.4893  -26.5366 H   0  0  0  0  0  0
    4.8182    0.1874  -23.5004 H   0  0  0  0  0  0
  1  2  1  0  0  0
  1  7  1  0  0  0
  1 18  1  0  0  0
  1 45  1  0  0  0
  2  3  1  0  0  0
  2  8  1  0  0  0
  2 46  1  0  0  0
  3  4  1  0  0  0
  3  9  1  0  0  0
  3 47  1  0  0  0
  4  5  1  0  0  0
  4 10  1  0  0  0
  4 48  1  0  0  0
  5  6  1  0  0  0
  5  7  2  0  0  0
  6 11  1  0  0  0
  6 49  1  0  0  0
  6 50  1  0  0  0
  7 51  1  0  0  0
  8 52  1  0  0  0
  9 53  1  0  0  0
 10 54  1  0  0  0
 11 55  1  0  0  0
 12 13  1  0  0  0
 12 21  1  0  0  0
 12 30  1  0  0  0
 12 56  1  0  0  0
 13 14  1  0  0  0
 13 19  1  0  0  0
 13 57  1  0  0  0
 14 15  1  0  0  0
 14 20  1  0  0  0
 14 58  1  0  0  0
 15 16  1  0  0  0
 15 18  1  0  0  0
 15 59  1  0  0  0
 16 17  1  0  0  0
 16 21  1  0  0  0
 16 60  1  0  0  0
 17 61  1  0  0  0
 17 62  1  0  0  0
 17 63  1  0  0  0
 18 64  1  0  0  0
 18 65  1  0  0  0
 19 66  1  0  0  0
 20 67  1  0  0  0
 22 23  1  0  0  0
 22 31  1  0  0  0
 22 42  1  0  0  0
 22 68  1  0  0  0
 23 24  1  0  0  0
 23 28  1  0  0  0
 23 69  1  0  0  0
 24 25  1  0  0  0
 24 29  1  0  0  0
 24 70  1  0  0  0
 25 26  1  0  0  0
 25 30  1  0  0  0
 25 71  1  0  0  0
 26 27  1  0  0  0
 26 31  1  0  0  0
 26 72  1  0  0  0
 27 32  1  0  0  0
 27 73  1  0  0  0
 27 74  1  0  0  0
 28 75  1  0  0  0
 29 76  1  0  0  0
 32 77  1  0  0  0
 33 34  1  0  0  0
 33 39  1  0  0  0
 33 43  1  0  0  0
 33 78  1  0  0  0
 34 35  1  0  0  0
 34 40  1  0  0  0
 34 79  1  0  0  0
 35 36  1  0  0  0
 35 41  1  0  0  0
 35 80  1  0  0  0
 36 37  1  0  0  0
 36 42  1  0  0  0
 36 81  1  0  0  0
 37 38  1  0  0  0
 37 43  1  0  0  0
 37 82  1  0  0  0
 38 44  1  0  0  0
 38 83  1  0  0  0
 38 84  1  0  0  0
 39 85  1  0  0  0
 40 86  1  0  0  0
 41 87  1  0  0  0
 44 88  1  0  0  0
M  CHG  1  18   1
M  END
> <s_m_source_file>
../3w37_ligand.sdf

> <i_m_source_file_index>
1

> <s_epik_input>
W09IXVtDSDJdQyg9W0NIXTEpW0NAQEhdKFtPSF0pW0NASF0oW09IXSlbQ0BASF0oW09IXSlbQ0BIXTFbTkgyK11bQ0BIXShbQ0BIXShPMilbQ0gzXSlbQ0BIXShbT0hdKVtDQEBIXShbT0hdKVtDQEhdMk9bQ0BIXShbQ0BIXShPMylbQ0gyXVtPSF0pW0NASF0oW09IXSlbQ0BASF0oW09IXSlbQ0BIXTNPW0NASF0oW0NASF0oTzQpW0NIMl1bT0hdKVtDQEhdKFtPSF0pW0NAQEhdKFtPSF0pW0NASF00W09IXQ==

> <s_epik_cmdline>
J2VwaWtfYXBwJywgJy1pbWFlJywgJ2xpZ2FuZF9wcm8ubWFlJywgJy1vbWFlJywgJ2xpZ2FuZF9wcmVwLm1hZScsICctbXMnLCAnMScsICctcGgnLCAnNycsICctcGh0JywgJzAuNScsICctbnQn

> <r_epik_Ionization_Penalty>
  0.1167

> <r_epik_Ionization_Penalty_Charging>
  0.1167

> <r_epik_Ionization_Penalty_Neutral>
  0.0001

> <r_epik_State_Penalty>
  0.1063

> <r_epik_Charging_Adjusted_Penalty>
0.222957502643002

> <i_epik_Tot_Q>
1

> <i_epik_Tot_abs_Q>
1

> <s_epik_Chemistry_Notes>
This compound contains an acetal/aminal-like group ( X-CH(R)-Y where X, Y are N, S, or O) that may be acid/base labile, releasing an aldehyde.

$$$$
