3w54_ligand
                    3D
 Schrodinger Suite 2020-3.
 44 44  0  0  1  0            999 V2000
   89.5270   39.5770   43.8400 C   0  0  0  0  0  0
   90.3270   40.0400   42.6190 C   0  0  0  0  0  0
   91.3620   41.1600   42.7740 C   0  0  0  0  0  0
   90.0870   39.3960   41.2310 C   0  0  0  0  0  0
   89.0470   38.2690   41.0800 C   0  0  0  0  0  0
   88.6720   38.0660   39.5950 C   0  0  0  0  0  0
   87.7910   36.8130   39.5320 C   0  0  0  0  0  0
   86.4130   36.7920   40.2760 C   0  0  0  0  0  0
   88.3070   35.6440   38.7300 C   0  0  0  0  0  0
   87.5940   34.3030   38.6920 C   0  0  0  0  0  0
   88.4370   33.3780   39.3430 C   0  0  0  0  0  0
   89.2520   32.5050   38.6400 C   0  0  0  0  0  0
   89.2210   32.5470   37.2870 O   0  0  0  0  0  0
   90.1050   31.5890   39.2730 C   0  0  0  0  0  0
   90.8960   30.6970   38.5350 C   0  0  0  0  0  0
   91.2530   30.9340   37.4000 O   0  0  0  0  0  0
   90.1500   31.5550   40.6700 C   0  0  0  0  0  0
   91.0190   30.6290   41.2750 C   0  0  0  0  0  0
   89.3380   32.4380   41.4190 C   0  0  0  0  0  0
   89.2460   32.5380   43.2820 Cl  0  0  0  0  0  0
   88.5210   33.3190   40.7250 C   0  0  0  0  0  0
   87.7680   34.1540   41.4670 O   0  5  0  0  0  0
   89.8414   40.1516   44.7237 H   0  0  0  0  0  0
   89.7106   38.5065   44.0142 H   0  0  0  0  0  0
   88.4544   39.7403   43.6590 H   0  0  0  0  0  0
   91.3917   41.4891   43.8232 H   0  0  0  0  0  0
   91.0834   42.0082   42.1314 H   0  0  0  0  0  0
   92.3536   40.7864   42.4787 H   0  0  0  0  0  0
   90.6580   39.7434   40.3574 H   0  0  0  0  0  0
   89.4644   37.3300   41.4725 H   0  0  0  0  0  0
   88.1389   38.5302   41.6431 H   0  0  0  0  0  0
   88.1251   38.9483   39.2311 H   0  0  0  0  0  0
   89.5878   37.9314   39.0006 H   0  0  0  0  0  0
   86.2581   37.7531   40.7881 H   0  0  0  0  0  0
   86.4079   35.9776   41.0154 H   0  0  0  0  0  0
   85.6052   36.6306   39.5470 H   0  0  0  0  0  0
   89.2323   35.7448   38.1437 H   0  0  0  0  0  0
   86.6284   34.3863   39.2122 H   0  0  0  0  0  0
   87.4228   34.0082   37.6461 H   0  0  0  0  0  0
   88.5580   33.2591   36.7739 H   0  0  0  0  0  0
   91.1927   29.7551   39.0195 H   0  0  0  0  0  0
   91.5430   30.0552   40.4965 H   0  0  0  0  0  0
   90.4392   29.9422   41.9091 H   0  0  0  0  0  0
   91.7543   31.1656   41.8925 H   0  0  0  0  0  0
  1  2  1  0  0  0
  1 23  1  0  0  0
  1 24  1  0  0  0
  1 25  1  0  0  0
  2  3  1  0  0  0
  2  4  2  0  0  0
  3 26  1  0  0  0
  3 27  1  0  0  0
  3 28  1  0  0  0
  4  5  1  0  0  0
  4 29  1  0  0  0
  5  6  1  0  0  0
  5 30  1  0  0  0
  5 31  1  0  0  0
  6  7  1  0  0  0
  6 32  1  0  0  0
  6 33  1  0  0  0
  7  8  1  0  0  0
  7  9  2  0  0  0
  8 34  1  0  0  0
  8 35  1  0  0  0
  8 36  1  0  0  0
  9 10  1  0  0  0
  9 37  1  0  0  0
 10 11  1  0  0  0
 10 38  1  0  0  0
 10 39  1  0  0  0
 11 12  2  0  0  0
 11 21  1  0  0  0
 12 13  1  0  0  0
 12 14  1  0  0  0
 13 40  1  0  0  0
 14 15  1  0  0  0
 14 17  2  0  0  0
 15 16  2  0  0  0
 15 41  1  0  0  0
 17 18  1  0  0  0
 17 19  1  0  0  0
 18 42  1  0  0  0
 18 43  1  0  0  0
 18 44  1  0  0  0
 19 20  1  0  0  0
 19 21  2  0  0  0
 21 22  1  0  0  0
M  CHG  1  22  -1
M  END
> <s_m_source_file>
../3w54_ligand.sdf

> <i_m_source_file_index>
1

> <s_epik_input>
W0NIM11DKFtDSDNdKT1bQ0hdW0NIMl1bQ0gyXS9DKFtDSDNdKT1bQ0hdL1tDSDJdYzFjKFtPSF0pYyhbQ0hdPU8pYyhbQ0gzXSljKENsKWMxW09IXQ==

> <s_epik_cmdline>
J2VwaWtfYXBwJywgJy1pbWFlJywgJ2xpZ2FuZF9wcm8ubWFlJywgJy1vbWFlJywgJ2xpZ2FuZF9wcmVwLm1hZScsICctbXMnLCAnMScsICctcGgnLCAnNycsICctcGh0JywgJzAuNScsICctbnQn

> <r_lp_tautomer_probability>
1

> <r_epik_Ionization_Penalty>
  0.1207

> <r_epik_Ionization_Penalty_Charging>
  0.1185

> <r_epik_Ionization_Penalty_Neutral>
  0.0022

> <r_epik_State_Penalty>
 -0.0000

> <r_epik_Charging_Adjusted_Penalty>
0.118461497690442

> <i_epik_Tot_Q>
-1

> <i_epik_Tot_abs_Q>
1

$$$$
