3w55_ligand
                    3D
 Schrodinger Suite 2020-3.
 50 51  0  0  1  0            999 V2000
   17.5780   38.0050   45.2320 C   0  0  0  0  0  0
   17.3670   39.1160   44.3650 C   0  0  0  0  0  0
   18.8550   37.4200   45.2680 C   0  0  0  0  0  0
   18.4340   39.5990   43.5970 C   0  0  0  0  0  0
   19.6950   39.0090   43.6670 C   0  0  0  0  0  0
   15.2730   37.8420   45.9850 O   0  0  0  0  0  0
   19.8960   37.9160   44.5000 C   0  0  0  0  0  0
   15.3380   39.8540   43.1080 C   0  0  0  0  0  0
   12.9280   38.1820   45.7230 C   0  0  0  0  0  0
   16.0740   39.8070   44.2400 C   0  0  0  0  0  0
   12.9240   39.4980   42.4050 C   0  0  1  0  0  0
   16.5490   37.3750   46.1400 C   0  0  0  0  0  0
   13.9730   37.6700   46.7100 C   0  0  2  0  0  0
   13.8970   40.3680   43.1480 C   0  0  0  0  0  0
   16.8310   36.5160   46.9810 O   0  0  0  0  0  0
   11.4560   39.7640   42.5150 C   0  0  1  0  0  0
   11.4100   38.5000   43.3410 C   0  0  0  0  0  0
   11.9540   37.4750   42.9850 O   0  0  0  0  0  0
   10.6660   38.5160   44.6400 C   0  0  0  0  0  0
   11.4710   37.7740   45.7100 C   0  0  0  0  0  0
   13.3050   38.9910   41.2070 O   0  0  0  0  0  0
   10.8980   40.9310   43.0710 O   0  0  0  0  0  0
   19.1290   36.4610   45.9730 O   0  0  0  0  0  0
   20.7280   39.5140   42.9000 O   0  0  0  0  0  0
   21.9810   39.5700   43.5770 C   0  0  0  0  0  0
   13.9330   38.3370   48.0830 C   0  0  0  0  0  0
   18.2648   40.4579   42.9309 H   0  0  0  0  0  0
   20.7173   38.2357   45.1583 H   0  0  0  0  0  0
   20.2562   37.1305   43.8194 H   0  0  0  0  0  0
   15.7742   39.5223   42.1542 H   0  0  0  0  0  0
   12.8431   39.2750   45.8130 H   0  0  0  0  0  0
   13.2322   37.9210   44.6986 H   0  0  0  0  0  0
   15.7145   40.3079   45.1510 H   0  0  0  0  0  0
   13.0966   38.5455   42.9274 H   0  0  0  0  0  0
   13.8052   36.6156   46.9746 H   0  0  0  0  0  0
   13.5559   40.4222   44.1924 H   0  0  0  0  0  0
   13.8522   41.3695   42.6952 H   0  0  0  0  0  0
   10.8545   40.0167   41.6294 H   0  0  0  0  0  0
   10.5095   39.5567   44.9601 H   0  0  0  0  0  0
    9.6919   38.0217   44.5107 H   0  0  0  0  0  0
   11.3940   36.6959   45.5058 H   0  0  0  0  0  0
   11.0196   37.9950   46.6884 H   0  0  0  0  0  0
   14.3638   38.7587   41.0197 H   0  0  0  0  0  0
   10.9114   41.8722   42.5018 H   0  0  0  0  0  0
   22.7450   39.9812   42.9008 H   0  0  0  0  0  0
   22.2746   38.5569   43.8892 H   0  0  0  0  0  0
   21.8903   40.2151   44.4634 H   0  0  0  0  0  0
   14.7173   37.9064   48.7228 H   0  0  0  0  0  0
   12.9490   38.1673   48.5445 H   0  0  0  0  0  0
   14.1038   39.4178   47.9707 H   0  0  0  0  0  0
  1  2  2  0  0  0
  1  3  1  0  0  0
  1 12  1  0  0  0
  2  4  1  0  0  0
  2 10  1  0  0  0
  3  7  1  0  0  0
  3 23  2  0  0  0
  4  5  2  0  0  0
  4 27  1  0  0  0
  5  7  1  0  0  0
  5 24  1  0  0  0
  6 12  1  0  0  0
  6 13  1  0  0  0
  7 28  1  0  0  0
  7 29  1  0  0  0
  8 10  2  0  0  0
  8 14  1  0  0  0
  8 30  1  0  0  0
  9 13  1  0  0  0
  9 20  1  0  0  0
  9 31  1  0  0  0
  9 32  1  0  0  0
 10 33  1  0  0  0
 11 14  1  0  0  0
 11 16  1  0  0  0
 11 21  1  0  0  0
 11 34  1  0  0  0
 12 15  2  0  0  0
 13 26  1  0  0  0
 13 35  1  0  0  0
 14 36  1  0  0  0
 14 37  1  0  0  0
 16 17  1  0  0  0
 16 22  1  0  0  0
 16 38  1  0  0  0
 17 18  2  0  0  0
 17 19  1  0  0  0
 19 20  1  0  0  0
 19 39  1  0  0  0
 19 40  1  0  0  0
 20 41  1  0  0  0
 20 42  1  0  0  0
 21 43  1  0  0  0
 22 44  1  0  0  0
 24 25  1  0  0  0
 25 45  1  0  0  0
 25 46  1  0  0  0
 25 47  1  0  0  0
 26 48  1  0  0  0
 26 49  1  0  0  0
 26 50  1  0  0  0
M  END
> <s_m_source_file>
../3w55_ligand.sdf

> <i_m_source_file_index>
1

> <s_epik_input>
Tz1DMVtDSDJdQyhPW0NIM10pPVtDSF1DKD1DMTIpXFtDSF09W0NIXVxbQ0gyXVtDQEhdKFtPSF0pW0NASF0oW09IXSlDKD1PKVtDSDJdW0NIMl1bQ0gyXVtDQEhdKFtDSDNdKU9DMj1P

> <s_epik_cmdline>
J2VwaWtfYXBwJywgJy1pbWFlJywgJ2xpZ2FuZF9wcm8ubWFlJywgJy1vbWFlJywgJ2xpZ2FuZF9wcmVwLm1hZScsICctbXMnLCAnMScsICctcGgnLCAnNycsICctcGh0JywgJzAuNScsICctbnQn

> <r_lp_tautomer_probability>
1

> <r_epik_Ionization_Penalty>
  0.0000

> <r_epik_Ionization_Penalty_Charging>
  0.0000

> <r_epik_Ionization_Penalty_Neutral>
  0.0000

> <r_epik_State_Penalty>
 -0.0000

> <r_epik_Charging_Adjusted_Penalty>
0

> <i_epik_Tot_Q>
0

> <i_epik_Tot_abs_Q>
0

> <s_epik_Chemistry_Notes>
This compound has an ester and may undergo hydrolysis at high or low pH.

$$$$
