3w5e_ligand
                    3D
 Schrodinger Suite 2020-3.
 61 64  0  0  1  0            999 V2000
   28.0180   19.2340  -17.2970 N   0  0  0  0  0  0
   25.5770   18.4020  -16.3630 C   0  0  0  0  0  0
   25.7000   18.8900  -17.6020 N   0  0  0  0  0  0
   26.8990   19.2950  -18.0300 C   0  0  0  0  0  0
   26.9470   19.8550  -19.3960 C   0  0  0  0  0  0
   24.2950   17.9920  -15.9270 N   0  0  0  0  0  0
   28.1220   19.9630  -20.1220 C   0  0  0  0  0  0
   28.1630   20.4620  -21.4140 C   0  0  0  0  0  0
   27.0170   20.8910  -22.0420 C   0  0  0  0  0  0
   25.8360   20.7990  -21.3350 C   0  0  0  0  0  0
   25.8000   20.2900  -20.0490 C   0  0  0  0  0  0
   27.9050   18.7400  -16.0590 C   0  0  0  0  0  0
   26.6970   18.3210  -15.5570 C   0  0  0  0  0  0
   26.6410   17.6930  -13.8970 S   0  0  0  0  0  0
   28.2360   16.9660  -13.7310 C   0  0  0  0  0  0
   29.2480   18.0750  -13.9260 C   0  0  0  0  0  0
   29.1980   18.7030  -15.3040 C   0  0  0  0  0  0
   26.7150   18.8380  -13.0150 O   0  0  0  0  0  0
   25.6170   16.6900  -13.8350 O   0  0  0  0  0  0
   23.2590   17.6400  -16.8310 C   0  0  0  0  0  0
   22.7560   18.5190  -17.7720 C   0  0  0  0  0  0
   21.6940   15.9890  -17.6470 C   0  0  0  0  0  0
   22.7020   16.3820  -16.7850 C   0  0  0  0  0  0
   21.2000   16.8610  -18.5900 C   0  0  0  0  0  0
   21.7480   18.1360  -18.6350 C   0  0  0  0  0  0
   20.1150   16.4210  -19.5270 C   0  0  0  0  0  0
   20.2970   17.0070  -20.9180 C   0  0  0  0  0  0
   21.2770   16.3540  -21.6600 N   0  0  0  0  0  0
   19.6340   17.9710  -21.2980 O   0  0  0  0  0  0
   21.7920   16.7140  -22.9890 C   0  0  0  0  0  0
   22.6000   17.9890  -23.0160 C   0  0  0  0  0  0
   22.7400   15.6330  -23.4350 C   0  0  0  0  0  0
   20.7000   16.8120  -24.0320 C   0  0  0  0  0  0
   24.0714   17.9370  -14.8514 H   0  0  0  0  0  0
   29.0540   19.6417  -19.6570 H   0  0  0  0  0  0
   29.1163   20.5153  -21.9398 H   0  0  0  0  0  0
   27.0410   21.2875  -23.0570 H   0  0  0  0  0  0
   24.9095   21.1352  -21.8005 H   0  0  0  0  0  0
   24.8424   20.2283  -19.5320 H   0  0  0  0  0  0
   28.3338   16.5212  -12.7297 H   0  0  0  0  0  0
   28.3636   16.1838  -14.4938 H   0  0  0  0  0  0
   29.0623   18.8739  -13.1930 H   0  0  0  0  0  0
   30.2626   17.6749  -13.7830 H   0  0  0  0  0  0
   29.9443   18.1388  -15.8825 H   0  0  0  0  0  0
   29.5584   19.7298  -15.1434 H   0  0  0  0  0  0
   23.1609   19.5291  -17.8338 H   0  0  0  0  0  0
   21.2875   14.9799  -17.5787 H   0  0  0  0  0  0
   23.0677   15.6712  -16.0440 H   0  0  0  0  0  0
   21.3742   18.8508  -19.3680 H   0  0  0  0  0  0
   20.1253   15.3242  -19.6107 H   0  0  0  0  0  0
   19.1397   16.7500  -19.1390 H   0  0  0  0  0  0
   21.6744   15.4719  -21.1366 H   0  0  0  0  0  0
   23.3990   17.9328  -22.2620 H   0  0  0  0  0  0
   21.9443   18.8434  -22.7924 H   0  0  0  0  0  0
   23.0454   18.1197  -24.0132 H   0  0  0  0  0  0
   23.5516   15.5308  -22.6996 H   0  0  0  0  0  0
   23.1641   15.8985  -24.4146 H   0  0  0  0  0  0
   22.1970   14.6799  -23.5166 H   0  0  0  0  0  0
   19.9841   17.5947  -23.7408 H   0  0  0  0  0  0
   20.1776   15.8469  -24.1076 H   0  0  0  0  0  0
   21.1446   17.0656  -25.0057 H   0  0  0  0  0  0
  1  4  2  0  0  0
  1 12  1  0  0  0
  2  3  2  0  0  0
  2  6  1  0  0  0
  2 13  1  0  0  0
  3  4  1  0  0  0
  4  5  1  0  0  0
  5  7  2  0  0  0
  5 11  1  0  0  0
  6 20  1  0  0  0
  6 34  1  0  0  0
  7  8  1  0  0  0
  7 35  1  0  0  0
  8  9  2  0  0  0
  8 36  1  0  0  0
  9 10  1  0  0  0
  9 37  1  0  0  0
 10 11  2  0  0  0
 10 38  1  0  0  0
 11 39  1  0  0  0
 12 13  2  0  0  0
 12 17  1  0  0  0
 13 14  1  0  0  0
 14 15  1  0  0  0
 14 18  2  0  0  0
 14 19  2  0  0  0
 15 16  1  0  0  0
 15 40  1  0  0  0
 15 41  1  0  0  0
 16 17  1  0  0  0
 16 42  1  0  0  0
 16 43  1  0  0  0
 17 44  1  0  0  0
 17 45  1  0  0  0
 20 21  2  0  0  0
 20 23  1  0  0  0
 21 25  1  0  0  0
 21 46  1  0  0  0
 22 23  2  0  0  0
 22 24  1  0  0  0
 22 47  1  0  0  0
 23 48  1  0  0  0
 24 25  2  0  0  0
 24 26  1  0  0  0
 25 49  1  0  0  0
 26 27  1  0  0  0
 26 50  1  0  0  0
 26 51  1  0  0  0
 27 28  1  0  0  0
 27 29  2  0  0  0
 28 30  1  0  0  0
 28 52  1  0  0  0
 30 31  1  0  0  0
 30 32  1  0  0  0
 30 33  1  0  0  0
 31 53  1  0  0  0
 31 54  1  0  0  0
 31 55  1  0  0  0
 32 56  1  0  0  0
 32 57  1  0  0  0
 32 58  1  0  0  0
 33 59  1  0  0  0
 33 60  1  0  0  0
 33 61  1  0  0  0
M  END
> <s_m_source_file>
../3w5e_ligand.sdf

> <i_m_source_file_index>
1

> <s_epik_input>
W2NIXTFbY0hdW2NIXVtjSF1bY0hdYzEtYyhuMiluYyhjKGMyMylTKD1PKSg9TylbQ0gyXVtDSDJdW0NIMl0zKVtOSF1jNFtjSF1bY0hdYyhbY0hdW2NIXTQpW0NIMl1DKD1PKVtOSF1DKFtDSDNdKShbQ0gzXSlbQ0gzXQ==

> <s_epik_cmdline>
J2VwaWtfYXBwJywgJy1pbWFlJywgJ2xpZ2FuZF9wcm8ubWFlJywgJy1vbWFlJywgJ2xpZ2FuZF9wcmVwLm1hZScsICctbXMnLCAnMScsICctcGgnLCAnNycsICctcGh0JywgJzAuNScsICctbnQn

> <r_lp_tautomer_probability>
1

> <r_epik_Ionization_Penalty>
  0.0001

> <r_epik_Ionization_Penalty_Charging>
  0.0000

> <r_epik_Ionization_Penalty_Neutral>
  0.0001

> <r_epik_State_Penalty>
 -0.0000

> <r_epik_Charging_Adjusted_Penalty>
0

> <i_epik_Tot_Q>
0

> <i_epik_Tot_abs_Q>
0

$$$$
