3w5t_ligand
                    3D
 Schrodinger Suite 2020-3.
 74 77  0  0  1  0            999 V2000
   66.0260   12.8810   -5.9940 O   0  0  0  0  0  0
   64.2380   15.2100   -8.4270 C   0  0  0  0  0  0
   65.3250   14.7040   -7.3940 C   0  0  0  0  0  0
   65.0850   13.1670   -6.9550 C   0  0  2  0  0  0
   63.6070   12.9260   -6.3410 C   0  0  0  0  0  0
   62.4920   13.3930   -7.4610 C   0  0  1  0  0  0
   60.9690   13.1860   -6.8650 C   0  0  0  0  0  0
   60.7810   14.0730   -5.5290 C   0  0  0  0  0  0
   61.0330   15.6600   -5.8150 C   0  0  2  0  0  0
   62.5460   15.8960   -6.3790 C   0  0  1  0  0  0
   62.7690   15.0160   -7.8320 C   0  0  1  0  0  0
   62.7840   17.4480   -6.6420 C   0  0  0  0  0  0
   62.5890   18.3370   -5.3590 C   0  0  0  0  0  0
   61.1370   18.1000   -4.6580 C   0  0  1  0  0  0
   60.8810   16.4930   -4.5150 C   0  0  1  0  0  0
   59.4330   16.4270   -3.8220 C   0  0  0  0  0  0
   59.7670   17.3220   -2.6860 C   0  0  0  0  0  0
   60.8830   18.4080   -3.0940 C   0  0  2  0  0  0
   60.0150   18.8290   -5.6730 C   0  0  0  0  0  0
   61.8030   15.5480   -8.9270 C   0  0  0  0  0  0
   60.4350   19.9390   -2.7100 C   0  0  2  0  0  0
   61.6180   20.9820   -3.1090 C   0  0  0  0  0  0
   60.2020   19.9410   -1.2220 C   0  0  0  0  0  0
   59.7430   21.2150   -0.5330 C   0  0  0  0  0  0
   59.4990   21.0500    0.9060 C   0  0  0  0  0  0
   66.5960   11.7520   -5.7490 C   0  0  0  0  0  0
   67.8030   11.6340   -4.7800 C   0  0  0  0  0  0
   68.9550   12.1030   -3.8090 C   0  0  0  0  0  0
   58.5220   21.6690    1.3440 O   0  0  0  0  0  0
   60.2270   20.3120    1.6060 O   0  5  0  0  0  0
   66.4540   10.5820   -6.0900 O   0  0  0  0  0  0
   64.4006   16.2775   -8.6370 H   0  0  0  0  0  0
   64.3242   14.6353   -9.3610 H   0  0  0  0  0  0
   66.3242   14.7766   -7.8482 H   0  0  0  0  0  0
   65.2879   15.3269   -6.4881 H   0  0  0  0  0  0
   65.2959   12.4497   -7.7618 H   0  0  0  0  0  0
   63.4775   11.8595   -6.1048 H   0  0  0  0  0  0
   63.4894   13.5216   -5.4237 H   0  0  0  0  0  0
   62.5793   12.7608   -8.3570 H   0  0  0  0  0  0
   60.2339   13.5032   -7.6193 H   0  0  0  0  0  0
   60.8111   12.1247   -6.6228 H   0  0  0  0  0  0
   59.7566   13.9491   -5.1478 H   0  0  0  0  0  0
   61.4992   13.7415   -4.7647 H   0  0  0  0  0  0
   60.2680   16.0173   -6.5200 H   0  0  0  0  0  0
   63.2604   15.5999   -5.5967 H   0  0  0  0  0  0
   63.8122   17.6058   -6.9997 H   0  0  0  0  0  0
   62.0728   17.8045   -7.4017 H   0  0  0  0  0  0
   63.3676   18.0922   -4.6215 H   0  0  0  0  0  0
   62.6654   19.3993   -5.6339 H   0  0  0  0  0  0
   61.6620   15.9613   -3.9517 H   0  0  0  0  0  0
   58.6738   16.8059   -4.5221 H   0  0  0  0  0  0
   59.2002   15.3850   -3.5574 H   0  0  0  0  0  0
   58.8624   17.8586   -2.3638 H   0  0  0  0  0  0
   60.1556   16.7230   -1.8492 H   0  0  0  0  0  0
   61.8269   18.3093   -2.5378 H   0  0  0  0  0  0
   60.2482   18.5774   -6.7181 H   0  0  0  0  0  0
   60.0556   19.9203   -5.5407 H   0  0  0  0  0  0
   59.0064   18.4668   -5.4249 H   0  0  0  0  0  0
   61.9524   14.9782   -9.8560 H   0  0  0  0  0  0
   62.0096   16.6124   -9.1125 H   0  0  0  0  0  0
   60.7634   15.4299   -8.5876 H   0  0  0  0  0  0
   59.4970   20.2651   -3.1830 H   0  0  0  0  0  0
   61.7707   20.9640   -4.1982 H   0  0  0  0  0  0
   62.5501   20.6901   -2.6031 H   0  0  0  0  0  0
   61.3330   21.9971   -2.7955 H   0  0  0  0  0  0
   59.4237   19.2050   -0.9718 H   0  0  0  0  0  0
   61.1360   19.6773   -0.7042 H   0  0  0  0  0  0
   60.5129   21.9921   -0.6486 H   0  0  0  0  0  0
   58.8028   21.5597   -0.9882 H   0  0  0  0  0  0
   67.5129   11.0348   -3.9043 H   0  0  0  0  0  0
   68.6419   11.1453   -5.2971 H   0  0  0  0  0  0
   69.5009   11.2238   -3.4362 H   0  0  0  0  0  0
   68.5190   12.6508   -2.9606 H   0  0  0  0  0  0
   69.6480   12.7613   -4.3534 H   0  0  0  0  0  0
  1  4  1  0  0  0
  1 26  1  0  0  0
  2  3  1  0  0  0
  2 11  1  0  0  0
  2 32  1  0  0  0
  2 33  1  0  0  0
  3  4  1  0  0  0
  3 34  1  0  0  0
  3 35  1  0  0  0
  4  5  1  0  0  0
  4 36  1  0  0  0
  5  6  1  0  0  0
  5 37  1  0  0  0
  5 38  1  0  0  0
  6  7  1  0  0  0
  6 11  1  0  0  0
  6 39  1  0  0  0
  7  8  1  0  0  0
  7 40  1  0  0  0
  7 41  1  0  0  0
  8  9  1  0  0  0
  8 42  1  0  0  0
  8 43  1  0  0  0
  9 10  1  0  0  0
  9 15  1  0  0  0
  9 44  1  0  0  0
 10 11  1  0  0  0
 10 12  1  0  0  0
 10 45  1  0  0  0
 11 20  1  0  0  0
 12 13  1  0  0  0
 12 46  1  0  0  0
 12 47  1  0  0  0
 13 14  1  0  0  0
 13 48  1  0  0  0
 13 49  1  0  0  0
 14 15  1  0  0  0
 14 18  1  0  0  0
 14 19  1  0  0  0
 15 16  1  0  0  0
 15 50  1  0  0  0
 16 17  1  0  0  0
 16 51  1  0  0  0
 16 52  1  0  0  0
 17 18  1  0  0  0
 17 53  1  0  0  0
 17 54  1  0  0  0
 18 21  1  0  0  0
 18 55  1  0  0  0
 19 56  1  0  0  0
 19 57  1  0  0  0
 19 58  1  0  0  0
 20 59  1  0  0  0
 20 60  1  0  0  0
 20 61  1  0  0  0
 21 22  1  0  0  0
 21 23  1  0  0  0
 21 62  1  0  0  0
 22 63  1  0  0  0
 22 64  1  0  0  0
 22 65  1  0  0  0
 23 24  1  0  0  0
 23 66  1  0  0  0
 23 67  1  0  0  0
 24 25  1  0  0  0
 24 68  1  0  0  0
 24 69  1  0  0  0
 25 29  2  0  0  0
 25 30  1  0  0  0
 26 27  1  0  0  0
 26 31  2  0  0  0
 27 28  1  0  0  0
 27 70  1  0  0  0
 27 71  1  0  0  0
 28 72  1  0  0  0
 28 73  1  0  0  0
 28 74  1  0  0  0
M  CHG  1  30  -1
M  END
> <s_m_source_file>
../3w5t_ligand.sdf

> <i_m_source_file_index>
1

> <s_epik_input>
W0NIM11bQ0gyXUMoPU8pT1tDQEhdKFtDSDJdW0NIMl0xKVtDSDJdW0NASF0oW0NAXTEyW0NIM10pW0NIMl1bQ0gyXVtDQEBIXTNbQ0BASF0yW0NIMl1bQ0gyXVtDQEBdNChbQ0gzXSlbQ0BIXTNbQ0gyXVtDSDJdW0NAQEhdNFtDQEhdKFtDSDNdKVtDSDJdW0NIMl1DKD1PKVtPSF0=

> <s_epik_cmdline>
J2VwaWtfYXBwJywgJy1pbWFlJywgJ2xpZ2FuZF9wcm8ubWFlJywgJy1vbWFlJywgJ2xpZ2FuZF9wcmVwLm1hZScsICctbXMnLCAnMScsICctcGgnLCAnNycsICctcGh0JywgJzAuNScsICctbnQn

> <r_lp_tautomer_probability>
1

> <r_epik_Ionization_Penalty>
  0.0059

> <r_epik_Ionization_Penalty_Charging>
  0.0059

> <r_epik_Ionization_Penalty_Neutral>
  0.0000

> <r_epik_State_Penalty>
 -0.0000

> <r_epik_Charging_Adjusted_Penalty>
0.00586384311406739

> <i_epik_Tot_Q>
-1

> <i_epik_Tot_abs_Q>
1

> <s_epik_Chemistry_Notes>
This compound has an ester and may undergo hydrolysis at high or low pH.

$$$$
