3w8o_ligand
                    3D
 Schrodinger Suite 2020-3.
 61 72  0  0  1  0            999 V2000
   69.1290  -51.3070   -9.1240 C   0  0  0  0  0  0
   70.5120  -51.2710   -9.3770 C   0  0  0  0  0  0
   71.2090  -52.4570   -9.6560 C   0  0  0  0  0  0
   70.5330  -53.6870   -9.6780 C   0  0  0  0  0  0
   68.5030  -52.5330   -9.1600 C   0  0  0  0  0  0
   67.1100  -52.9510   -8.9660 C   0  0  0  0  0  0
   66.1380  -52.0550   -8.6710 N   0  0  0  0  0  0
   64.8760  -52.4500   -8.2910 C   0  0  0  0  0  0
   63.8740  -51.4720   -7.8730 C   0  0  0  0  0  0
   63.9030  -50.1090   -7.7390 C   0  0  0  0  0  0
   62.7490  -49.4690   -7.2850 C   0  0  0  0  0  0
   61.6000  -50.2240   -6.9820 C   0  0  0  0  0  0
   61.6100  -51.6180   -7.1400 C   0  0  0  0  0  0
   62.7770  -52.2080   -7.5720 C   0  0  0  0  0  0
   66.9070  -54.2800   -9.0910 N   0  0  0  0  0  0
   63.6940  -56.3340   -8.2830 N   0  0  0  0  0  0
   66.2020  -56.8450   -9.1140 N   0  0  0  0  0  0
   64.4300  -53.7520   -8.2770 N   0  0  0  0  0  0
   63.1380  -53.5820   -7.8810 C   0  0  0  0  0  0
   62.2560  -54.6120   -7.6630 N   0  0  0  0  0  0
   62.4790  -55.8570   -8.0810 C   0  0  0  0  0  0
   69.1760  -53.6810   -9.4230 C   0  0  0  0  0  0
   68.1660  -54.7480   -9.2920 C   0  0  0  0  0  0
   68.4650  -56.0510   -9.5490 N   0  0  0  0  0  0
   67.5390  -57.0570   -9.3970 C   0  0  0  0  0  0
   67.8530  -58.4380   -9.7800 C   0  0  0  0  0  0
   69.0140  -59.0800  -10.1600 C   0  0  0  0  0  0
   68.9590  -60.4550  -10.3840 C   0  0  0  0  0  0
   67.7540  -61.1450  -10.1910 C   0  0  0  0  0  0
   66.6130  -60.4500   -9.7820 C   0  0  0  0  0  0
   66.7150  -59.1150   -9.5740 C   0  0  0  0  0  0
   65.7220  -58.1120   -9.2200 C   0  0  0  0  0  0
   64.4450  -58.5000   -8.8900 N   0  0  0  0  0  0
   63.4580  -57.5960   -8.6270 C   0  0  0  0  0  0
   62.1130  -58.0480   -8.2610 C   0  0  0  0  0  0
   61.4690  -59.2520   -8.4030 C   0  0  0  0  0  0
   61.4640  -56.9170   -7.9240 C   0  0  0  0  0  0
   60.1030  -56.9060   -7.6690 C   0  0  0  0  0  0
   59.4150  -58.1280   -7.7370 C   0  0  0  0  0  0
   60.1050  -59.3050   -8.1060 C   0  0  0  0  0  0
   65.3230  -55.3010   -8.7040 Fe  0  0  0  0  0  0
   68.5718  -50.3957   -8.9069 H   0  0  0  0  0  0
   71.0439  -50.3198   -9.3564 H   0  0  0  0  0  0
   72.2799  -52.4227   -9.8564 H   0  0  0  0  0  0
   71.0619  -54.6163   -9.8894 H   0  0  0  0  0  0
   66.3470  -50.9768   -8.7320 H   0  0  0  0  0  0
   64.8014  -49.5408   -7.9800 H   0  0  0  0  0  0
   62.7372  -48.3857   -7.1651 H   0  0  0  0  0  0
   60.7001  -49.7241   -6.6236 H   0  0  0  0  0  0
   60.7229  -52.2147   -6.9277 H   0  0  0  0  0  0
   61.3166  -54.4264   -7.1216 H   0  0  0  0  0  0
   69.4738  -56.3269   -9.8898 H   0  0  0  0  0  0
   69.9463  -58.5285  -10.2814 H   0  0  0  0  0  0
   69.8504  -60.9920  -10.7083 H   0  0  0  0  0  0
   67.7074  -62.2209  -10.3596 H   0  0  0  0  0  0
   65.6655  -60.9682   -9.6341 H   0  0  0  0  0  0
   64.1928  -59.5691   -8.8314 H   0  0  0  0  0  0
   62.0057  -60.1398   -8.7374 H   0  0  0  0  0  0
   59.5833  -55.9798   -7.4237 H   0  0  0  0  0  0
   58.3506  -58.1689   -7.5056 H   0  0  0  0  0  0
   59.5725  -60.2546   -8.1589 H   0  0  0  0  0  0
  1  2  2  0  0  0
  1  5  1  0  0  0
  1 42  1  0  0  0
  2  3  1  0  0  0
  2 43  1  0  0  0
  3  4  2  0  0  0
  3 44  1  0  0  0
  4 22  1  0  0  0
  4 45  1  0  0  0
  5  6  2  0  0  0
  5 22  1  0  0  0
  6  7  1  0  0  0
  6 15  1  0  0  0
  7  8  1  0  0  0
  7 46  1  0  0  0
  8  9  2  0  0  0
  8 18  1  0  0  0
  9 10  1  0  0  0
  9 14  1  0  0  0
 10 11  2  0  0  0
 10 47  1  0  0  0
 11 12  1  0  0  0
 11 48  1  0  0  0
 12 13  2  0  0  0
 12 49  1  0  0  0
 13 14  1  0  0  0
 13 50  1  0  0  0
 14 19  2  0  0  0
 15 23  1  0  0  0
 15 41  1  0  0  0
 16 21  1  0  0  0
 16 34  1  0  0  0
 16 41  1  0  0  0
 17 25  1  0  0  0
 17 32  1  0  0  0
 17 41  1  0  0  0
 18 19  1  0  0  0
 18 41  1  0  0  0
 19 20  1  0  0  0
 20 21  1  0  0  0
 20 51  1  0  0  0
 21 37  2  0  0  0
 22 23  2  0  0  0
 23 24  1  0  0  0
 24 25  1  0  0  0
 24 52  1  0  0  0
 25 26  2  0  0  0
 26 27  1  0  0  0
 26 31  1  0  0  0
 27 28  2  0  0  0
 27 53  1  0  0  0
 28 29  1  0  0  0
 28 54  1  0  0  0
 29 30  2  0  0  0
 29 55  1  0  0  0
 30 31  1  0  0  0
 30 56  1  0  0  0
 31 32  2  0  0  0
 32 33  1  0  0  0
 33 34  1  0  0  0
 33 57  1  0  0  0
 34 35  2  0  0  0
 35 36  1  0  0  0
 35 37  1  0  0  0
 36 40  2  0  0  0
 36 58  1  0  0  0
 37 38  1  0  0  0
 38 39  2  0  0  0
 38 59  1  0  0  0
 39 40  1  0  0  0
 39 60  1  0  0  0
 40 61  1  0  0  0
M  END
> <s_m_source_file>
../3w8o_ligand.sdf

> <i_m_source_file_index>
1

> <s_epik_input>
W2NIXTFbY0hdW2NIXVtjSF1jKGMxYzJuM1tGZV00NTYpYzNbTkhdYzduNWMoYzhjN1tjSF1bY0hdW2NIXVtjSF04KVtOSF1jOW40YyhjMWM5W2NIXVtjSF1bY0hdW2NIXTEpW05IXWMxYzNjKGMobjE2KVtOSF0yKVtjSF1bY0hdW2NIXVtjSF0z

> <s_epik_cmdline>
J2VwaWtfYXBwJywgJy1pbWFlJywgJ2xpZ2FuZF9wcm8ubWFlJywgJy1vbWFlJywgJ2xpZ2FuZF9wcmVwLm1hZScsICctbXMnLCAnMScsICctcGgnLCAnNycsICctcGh0JywgJzAuNScsICctbnQn

> <r_lp_tautomer_probability>
1

> <r_epik_Ionization_Penalty>
  0.0002

> <r_epik_Ionization_Penalty_Charging>
  0.0000

> <r_epik_Ionization_Penalty_Neutral>
  0.0002

> <r_epik_State_Penalty>
 -0.0000

> <r_epik_Charging_Adjusted_Penalty>
0

> <i_epik_Tot_Q>
0

> <i_epik_Tot_abs_Q>
0

$$$$
