3w9k_ligand
                    3D
 Schrodinger Suite 2020-3.
 43 42  0  0  1  0            999 V2000
   -5.2350   15.3900  -16.4610 C   0  0  0  0  0  0
   -4.3630   15.1130  -15.5970 O   0  0  0  0  0  0
   -5.6760   16.5800  -16.5020 O   0  5  0  0  0  0
   -5.7520   14.3620  -17.4640 C   0  0  0  0  0  0
   -6.2680   13.0310  -16.8930 C   0  0  0  0  0  0
   -7.8060   12.9430  -16.8860 C   0  0  0  0  0  0
   -8.4440   11.9140  -17.8350 C   0  0  0  0  0  0
   -9.8310   12.3500  -18.2170 C   0  0  0  0  0  0
  -10.4800   11.4010  -19.1860 C   0  0  0  0  0  0
  -11.8660   11.8840  -19.5210 C   0  0  0  0  0  0
  -12.3940   10.9820  -20.6130 C   0  0  0  0  0  0
  -13.6650   11.5020  -21.2430 C   0  0  0  0  0  0
  -13.9300   10.3690  -22.1820 C   0  0  0  0  0  0
  -14.7010   10.7630  -23.4060 C   0  0  0  0  0  0
  -14.3610    9.7330  -24.4500 C   0  0  0  0  0  0
  -14.3390    8.3610  -23.8150 C   0  0  0  0  0  0
   -6.5950   14.7901  -18.0262 H   0  0  0  0  0  0
   -4.9453   14.0924  -18.1616 H   0  0  0  0  0  0
   -5.8858   12.1982  -17.5016 H   0  0  0  0  0  0
   -5.9195   12.9172  -15.8559 H   0  0  0  0  0  0
   -8.1533   12.6743  -15.8774 H   0  0  0  0  0  0
   -8.2303   13.9166  -17.1726 H   0  0  0  0  0  0
   -7.8315   11.8247  -18.7443 H   0  0  0  0  0  0
   -8.4993   10.9369  -17.3328 H   0  0  0  0  0  0
  -10.4604   12.4009  -17.3163 H   0  0  0  0  0  0
   -9.7863   13.3423  -18.6897 H   0  0  0  0  0  0
   -9.8800   11.3497  -20.1066 H   0  0  0  0  0  0
  -10.5428   10.4005  -18.7331 H   0  0  0  0  0  0
  -12.5016   11.8242  -18.6252 H   0  0  0  0  0  0
  -11.8172   12.9270  -19.8670 H   0  0  0  0  0  0
  -11.6399   10.8891  -21.4084 H   0  0  0  0  0  0
  -12.6102    9.9878  -20.1948 H   0  0  0  0  0  0
  -14.4301   11.6399  -20.4648 H   0  0  0  0  0  0
  -13.4634   12.4656  -21.7338 H   0  0  0  0  0  0
  -12.9743    9.9433  -22.5219 H   0  0  0  0  0  0
  -14.5137    9.5931  -21.6650 H   0  0  0  0  0  0
  -15.7771   10.7614  -23.1778 H   0  0  0  0  0  0
  -14.3950   11.7708  -23.7235 H   0  0  0  0  0  0
  -15.1179    9.7560  -25.2479 H   0  0  0  0  0  0
  -13.3718    9.9558  -24.8765 H   0  0  0  0  0  0
  -14.0906    7.6080  -24.5775 H   0  0  0  0  0  0
  -15.3282    8.1385  -23.3885 H   0  0  0  0  0  0
  -13.5822    8.3384  -23.0171 H   0  0  0  0  0  0
  1  2  2  0  0  0
  1  3  1  0  0  0
  1  4  1  0  0  0
  4  5  1  0  0  0
  4 17  1  0  0  0
  4 18  1  0  0  0
  5  6  1  0  0  0
  5 19  1  0  0  0
  5 20  1  0  0  0
  6  7  1  0  0  0
  6 21  1  0  0  0
  6 22  1  0  0  0
  7  8  1  0  0  0
  7 23  1  0  0  0
  7 24  1  0  0  0
  8  9  1  0  0  0
  8 25  1  0  0  0
  8 26  1  0  0  0
  9 10  1  0  0  0
  9 27  1  0  0  0
  9 28  1  0  0  0
 10 11  1  0  0  0
 10 29  1  0  0  0
 10 30  1  0  0  0
 11 12  1  0  0  0
 11 31  1  0  0  0
 11 32  1  0  0  0
 12 13  1  0  0  0
 12 33  1  0  0  0
 12 34  1  0  0  0
 13 14  1  0  0  0
 13 35  1  0  0  0
 13 36  1  0  0  0
 14 15  1  0  0  0
 14 37  1  0  0  0
 14 38  1  0  0  0
 15 16  1  0  0  0
 15 39  1  0  0  0
 15 40  1  0  0  0
 16 41  1  0  0  0
 16 42  1  0  0  0
 16 43  1  0  0  0
M  CHG  1   3  -1
M  END
> <s_m_source_file>
../3w9k_ligand.sdf

> <i_m_source_file_index>
1

> <s_epik_input>
Tz1DKFtPSF0pW0NIMl1bQ0gyXVtDSDJdW0NIMl1bQ0gyXVtDSDJdW0NIMl1bQ0gyXVtDSDJdW0NIMl1bQ0gyXVtDSDJdW0NIM10=

> <s_epik_cmdline>
J2VwaWtfYXBwJywgJy1pbWFlJywgJ2xpZ2FuZF9wcm8ubWFlJywgJy1vbWFlJywgJ2xpZ2FuZF9wcmVwLm1hZScsICctbXMnLCAnMScsICctcGgnLCAnNycsICctcGh0JywgJzAuNScsICctbnQn

> <r_lp_tautomer_probability>
1

> <r_epik_Ionization_Penalty>
  0.0049

> <r_epik_Ionization_Penalty_Charging>
  0.0049

> <r_epik_Ionization_Penalty_Neutral>
  0.0000

> <r_epik_State_Penalty>
 -0.0000

> <r_epik_Charging_Adjusted_Penalty>
0.00486649495677768

> <i_epik_Tot_Q>
-1

> <i_epik_Tot_abs_Q>
1

$$$$
