3wab_ligand
                    3D
 Schrodinger Suite 2020-3.
 29 28  0  0  1  0            999 V2000
    4.3240  -14.8920    0.1900 C   0  0  0  0  0  0
    4.5370  -16.0260   -0.8150 C   0  0  0  0  0  0
    3.3300  -16.9650   -0.7940 C   0  0  0  0  0  0
    3.1940  -17.6400    0.5720 C   0  0  0  0  0  0
    4.4450  -18.4690    0.8740 C   0  0  0  0  0  0
    5.4590  -13.9590    0.1720 N   0  3  0  0  0  0
    4.2030  -19.3430    2.1080 C   0  0  2  0  0  0
    3.9110  -18.4850    3.3400 C   0  0  0  0  0  0
    4.9030  -18.0460    3.9640 O   0  5  0  0  0  0
    2.7320  -18.4770    3.7510 O   0  0  0  0  0  0
    5.4280  -20.2160    2.3830 C   0  0  0  0  0  0
    5.2140  -21.2200    3.8980 S   0  0  0  0  0  0
    3.4077  -14.3408   -0.0680 H   0  0  0  0  0  0
    4.2265  -15.3123    1.2019 H   0  0  0  0  0  0
    4.6541  -15.6043   -1.8242 H   0  0  0  0  0  0
    5.4426  -16.5893   -0.5457 H   0  0  0  0  0  0
    2.4148  -16.3903   -0.9993 H   0  0  0  0  0  0
    3.4559  -17.7412   -1.5632 H   0  0  0  0  0  0
    3.0726  -16.8719    1.3500 H   0  0  0  0  0  0
    2.3145  -18.3007    0.5686 H   0  0  0  0  0  0
    4.6753  -19.1125    0.0121 H   0  0  0  0  0  0
    5.2935  -17.7958    1.0660 H   0  0  0  0  0  0
    5.2836  -13.1541    0.9010 H   0  0  0  0  0  0
    5.5621  -13.5265   -0.8341 H   0  0  0  0  0  0
    6.3809  -14.4980    0.4357 H   0  0  0  0  0  0
    3.3302  -19.9811    1.9052 H   0  0  0  0  0  0
    5.5903  -20.8976    1.5350 H   0  0  0  0  0  0
    6.3129  -19.5756    2.5132 H   0  0  0  0  0  0
    6.0147  -21.8996    4.2251 H   0  0  0  0  0  0
  1  2  1  0  0  0
  1  6  1  0  0  0
  1 13  1  0  0  0
  1 14  1  0  0  0
  2  3  1  0  0  0
  2 15  1  0  0  0
  2 16  1  0  0  0
  3  4  1  0  0  0
  3 17  1  0  0  0
  3 18  1  0  0  0
  4  5  1  0  0  0
  4 19  1  0  0  0
  4 20  1  0  0  0
  5  7  1  0  0  0
  5 21  1  0  0  0
  5 22  1  0  0  0
  6 23  1  0  0  0
  6 24  1  0  0  0
  6 25  1  0  0  0
  7  8  1  0  0  0
  7 11  1  0  0  0
  7 26  1  0  0  0
  8  9  1  0  0  0
  8 10  2  0  0  0
 11 12  1  0  0  0
 11 27  1  0  0  0
 11 28  1  0  0  0
 12 29  1  0  0  0
M  CHG  2   6   1   9  -1
M  END
> <s_m_source_file>
../3wab_ligand.sdf

> <i_m_source_file_index>
1

> <s_epik_input>
W05IMytdW0NIMl1bQ0gyXVtDSDJdW0NIMl1bQ0gyXVtDQEhdKEMoPU8pW09IXSlbQ0gyXVtTSF0=

> <s_epik_cmdline>
J2VwaWtfYXBwJywgJy1pbWFlJywgJ2xpZ2FuZF9wcm8ubWFlJywgJy1vbWFlJywgJ2xpZ2FuZF9wcmVwLm1hZScsICctbXMnLCAnMScsICctcGgnLCAnNycsICctcGh0JywgJzAuNScsICctbnQn

> <r_lp_tautomer_probability>
1

> <r_epik_Ionization_Penalty>
  0.0024

> <r_epik_Ionization_Penalty_Charging>
  0.0014

> <r_epik_Ionization_Penalty_Neutral>
  0.0010

> <r_epik_State_Penalty>
 -0.0000

> <r_epik_Charging_Adjusted_Penalty>
0.00142347366761739

> <i_epik_Tot_Q>
0

> <i_epik_Tot_abs_Q>
2

$$$$
