3wav_ligand
                    3D
 Schrodinger Suite 2020-3.
 40 42  0  0  1  0            999 V2000
   15.8010   39.1020   18.4880 C   0  0  0  0  0  0
   17.2150   39.1240   18.9550 C   0  0  0  0  0  0
   18.1130   39.6140   17.9490 N   0  3  0  0  0  0
   19.3870   40.0910   18.3310 C   0  0  0  0  0  0
   18.0020   38.8380   16.7510 C   0  0  0  0  0  0
   16.6520   38.9990   16.1540 C   0  0  0  0  0  0
   15.6020   38.7970   17.0990 N   0  0  0  0  0  0
   14.3250   38.2520   16.7300 C   0  0  0  0  0  0
   13.6610   37.9520   15.1500 S   0  0  0  0  0  0
   13.3880   37.8250   17.6320 N   0  3  0  0  0  0
   12.2330   37.3050   17.0860 C   0  0  0  0  0  0
   11.1850   36.8230   17.8600 O   0  5  0  0  0  0
   12.1760   37.2820   15.6400 C   0  0  0  0  0  0
   10.9560   36.7350   14.8630 C   0  0  0  0  0  0
   11.0060   36.7020   13.3140 C   0  0  0  0  0  0
   11.3600   37.8760   12.5330 C   0  0  0  0  0  0
   11.3590   37.8060   11.2010 C   0  0  0  0  0  0
   11.8060   39.2210   10.3030 Cl  0  0  0  0  0  0
   10.9980   36.5940   10.5700 C   0  0  0  0  0  0
   10.9640   36.4110    8.8810 Cl  0  0  0  0  0  0
   10.6370   35.4560   11.3550 C   0  0  0  0  0  0
   10.6390   35.5280   12.6950 C   0  0  0  0  0  0
   15.2407   38.3412   19.0512 H   0  0  0  0  0  0
   15.3451   40.0895   18.6523 H   0  0  0  0  0  0
   17.3002   39.7779   19.8354 H   0  0  0  0  0  0
   17.5283   38.1044   19.2239 H   0  0  0  0  0  0
   17.7716   40.6306   17.7042 H   0  0  0  0  0  0
   19.2988   40.6641   19.2658 H   0  0  0  0  0  0
   19.7879   40.7407   17.5390 H   0  0  0  0  0  0
   20.0661   39.2396   18.4856 H   0  0  0  0  0  0
   18.7573   39.1739   16.0253 H   0  0  0  0  0  0
   18.1659   37.7759   16.9856 H   0  0  0  0  0  0
   16.5489   40.0168   15.7496 H   0  0  0  0  0  0
   16.5199   38.2673   15.3434 H   0  0  0  0  0  0
   10.7731   35.6906   15.1558 H   0  0  0  0  0  0
   10.0694   37.3422   15.0978 H   0  0  0  0  0  0
   11.6246   38.8078   13.0329 H   0  0  0  0  0  0
   10.3584   34.5243   10.8627 H   0  0  0  0  0  0
   10.3515   34.6615   13.2905 H   0  0  0  0  0  0
   13.5845   37.9097   18.7110 H   0  0  0  0  0  0
  1  2  1  0  0  0
  1  7  1  0  0  0
  1 23  1  0  0  0
  1 24  1  0  0  0
  2  3  1  0  0  0
  2 25  1  0  0  0
  2 26  1  0  0  0
  3  4  1  0  0  0
  3  5  1  0  0  0
  3 27  1  0  0  0
  4 28  1  0  0  0
  4 29  1  0  0  0
  4 30  1  0  0  0
  5  6  1  0  0  0
  5 31  1  0  0  0
  5 32  1  0  0  0
  6  7  1  0  0  0
  6 33  1  0  0  0
  6 34  1  0  0  0
  7  8  1  0  0  0
  8  9  1  0  0  0
  8 10  2  0  0  0
  9 13  1  0  0  0
 10 11  1  0  0  0
 10 40  1  0  0  0
 11 12  1  0  0  0
 11 13  2  0  0  0
 13 14  1  0  0  0
 14 15  1  0  0  0
 14 35  1  0  0  0
 14 36  1  0  0  0
 15 16  2  0  0  0
 15 22  1  0  0  0
 16 17  1  0  0  0
 16 37  1  0  0  0
 17 18  1  0  0  0
 17 19  2  0  0  0
 19 20  1  0  0  0
 19 21  1  0  0  0
 21 22  2  0  0  0
 21 38  1  0  0  0
 22 39  1  0  0  0
M  CHG  3   3   1  10   1  12  -1
M  END
> <s_m_source_file>
../3wav_ligand.sdf

> <i_m_source_file_index>
1

> <s_epik_input>
W0NIM11bTkgrXTFbQ0gyXVtDSDJdTihbQ0gyXVtDSDJdMSljMnNjKGMobjIpW09IXSlbQ0gyXWMzW2NIXWMoQ2wpYyhDbClbY0hdW2NIXTM=

> <s_epik_cmdline>
J2VwaWtfYXBwJywgJy1pbWFlJywgJ2xpZ2FuZF9wcm8ubWFlJywgJy1vbWFlJywgJ2xpZ2FuZF9wcmVwLm1hZScsICctbXMnLCAnMScsICctcGgnLCAnNycsICctcGh0JywgJzAuNScsICctbnQn

> <r_epik_Ionization_Penalty>
  0.2926

> <r_epik_Ionization_Penalty_Charging>
  0.2926

> <r_epik_Ionization_Penalty_Neutral>
  0.0000

> <r_epik_State_Penalty>
  0.2856

> <r_epik_Charging_Adjusted_Penalty>
0.578191781076877

> <i_epik_Tot_Q>
1

> <i_epik_Tot_abs_Q>
3

$$$$
