3waw_ligand
                    3D
 Schrodinger Suite 2020-3.
 42 44  0  0  1  0            999 V2000
   19.9710   40.3730   19.8830 C   0  0  0  0  0  0
   19.4810   40.3840   18.6120 C   0  0  0  0  0  0
   18.1580   39.9420   18.2970 N   0  0  0  0  0  0
   17.7170   40.0860   16.7560 C   0  0  0  0  0  0
   17.4020   39.3810   16.4460 C   0  0  0  0  0  0
   16.9650   39.3530   19.2140 C   0  0  0  0  0  0
   16.5140   38.7210   18.8830 C   0  0  0  0  0  0
   16.1620   38.8370   17.3110 N   0  0  0  0  0  0
   14.8190   38.3730   17.0310 C   0  0  0  0  0  0
   14.1340   38.2060   15.4910 S   0  0  0  0  0  0
   13.8980   37.9610   17.9460 N   0  3  0  0  0  0
   12.6990   37.5390   17.4030 C   0  0  0  0  0  0
   11.6260   37.0750   18.1290 O   0  5  0  0  0  0
   12.6370   37.6030   16.0090 C   0  0  0  0  0  0
   11.4170   37.1950   15.2490 C   0  0  0  0  0  0
   11.4620   37.1850   13.7560 C   0  0  0  0  0  0
   11.0400   36.0190   13.1460 C   0  0  0  0  0  0
   11.0160   35.9110   11.7690 C   0  0  0  0  0  0
   10.4950   34.4230   11.0520 Cl  0  0  0  0  0  0
   11.4140   36.9880   10.9810 C   0  0  0  0  0  0
   11.3780   36.8250    9.2530 Cl  0  0  0  0  0  0
   11.8280   38.1740   11.5900 C   0  0  0  0  0  0
   11.8450   38.2810   12.9810 C   0  0  0  0  0  0
   21.0025   40.7550   19.8816 H   0  0  0  0  0  0
   19.9617   39.3436   20.2706 H   0  0  0  0  0  0
   19.3444   41.0115   20.5231 H   0  0  0  0  0  0
   19.4903   41.4134   18.2244 H   0  0  0  0  0  0
   20.1076   39.7455   17.9719 H   0  0  0  0  0  0
   16.9481   40.8675   16.6662 H   0  0  0  0  0  0
   18.5918   40.3608   16.1484 H   0  0  0  0  0  0
   17.0503   39.5571   15.4187 H   0  0  0  0  0  0
   18.1802   38.6036   16.4389 H   0  0  0  0  0  0
   17.3830   38.9645   20.1544 H   0  0  0  0  0  0
   16.2440   40.1535   19.4363 H   0  0  0  0  0  0
   17.0657   37.7765   18.9996 H   0  0  0  0  0  0
   15.5479   38.6480   19.4038 H   0  0  0  0  0  0
   11.1415   36.1659   15.5230 H   0  0  0  0  0  0
   10.5876   37.8744   15.4948 H   0  0  0  0  0  0
   10.7225   35.1750   13.7583 H   0  0  0  0  0  0
   12.1391   39.0196   10.9765 H   0  0  0  0  0  0
   12.1543   39.2111   13.4578 H   0  0  0  0  0  0
   14.1405   37.9829   19.0187 H   0  0  0  0  0  0
  1  2  1  0  0  0
  1 24  1  0  0  0
  1 25  1  0  0  0
  1 26  1  0  0  0
  2  3  1  0  0  0
  2 27  1  0  0  0
  2 28  1  0  0  0
  3  4  1  0  0  0
  3  6  1  0  0  0
  4  5  1  0  0  0
  4 29  1  0  0  0
  4 30  1  0  0  0
  5  8  1  0  0  0
  5 31  1  0  0  0
  5 32  1  0  0  0
  6  7  1  0  0  0
  6 33  1  0  0  0
  6 34  1  0  0  0
  7  8  1  0  0  0
  7 35  1  0  0  0
  7 36  1  0  0  0
  8  9  1  0  0  0
  9 10  1  0  0  0
  9 11  2  0  0  0
 10 14  1  0  0  0
 11 12  1  0  0  0
 11 42  1  0  0  0
 12 13  1  0  0  0
 12 14  2  0  0  0
 14 15  1  0  0  0
 15 16  1  0  0  0
 15 37  1  0  0  0
 15 38  1  0  0  0
 16 17  2  0  0  0
 16 23  1  0  0  0
 17 18  1  0  0  0
 17 39  1  0  0  0
 18 19  1  0  0  0
 18 20  2  0  0  0
 20 21  1  0  0  0
 20 22  1  0  0  0
 22 23  2  0  0  0
 22 40  1  0  0  0
 23 41  1  0  0  0
M  CHG  2  11   1  13  -1
M  END
> <s_m_source_file>
../3waw_ligand.sdf

> <i_m_source_file_index>
1

> <s_epik_input>
W0NIM11bQ0gyXU4xW0NIMl1bQ0gyXU4oW0NIMl1bQ0gyXTEpYzJzYyhjKG4yKVtPSF0pW0NIMl1jM1tjSF1jKENsKWMoQ2wpW2NIXVtjSF0z

> <s_epik_cmdline>
J2VwaWtfYXBwJywgJy1pbWFlJywgJ2xpZ2FuZF9wcm8ubWFlJywgJy1vbWFlJywgJ2xpZ2FuZF9wcmVwLm1hZScsICctbXMnLCAnMScsICctcGgnLCAnNycsICctcGh0JywgJzAuNScsICctbnQn

> <r_epik_Ionization_Penalty>
  0.3811

> <r_epik_Ionization_Penalty_Charging>
  0.0003

> <r_epik_Ionization_Penalty_Neutral>
  0.3808

> <r_epik_State_Penalty>
  0.3788

> <r_epik_Charging_Adjusted_Penalty>
0.379111046748573

> <i_epik_Tot_Q>
0

> <i_epik_Tot_abs_Q>
2

$$$$
