3wax_ligand
                    3D
 Schrodinger Suite 2020-3.
 57 60  0  0  1  0            999 V2000
   23.4950   35.7970   14.6940 O   0  0  0  0  0  0
   23.6060   37.2740   14.7400 B   0  0  0  0  0  0
   24.1350   38.0610   13.5920 O   0  0  0  0  0  0
   22.7360   38.1400   16.0470 C   0  0  0  0  0  0
   21.6270   37.5430   16.7210 C   0  0  0  0  0  0
   23.1920   39.4230   16.4220 C   0  0  0  0  0  0
   22.5550   40.1210   17.4640 C   0  0  0  0  0  0
   21.4520   39.5240   18.1340 C   0  0  0  0  0  0
   20.9960   38.2450   17.7660 C   0  0  0  0  0  0
   19.8280   37.6500   18.4820 C   0  0  0  0  0  0
   18.6280   38.4500   18.2530 N   0  3  0  0  0  0
   17.5110   38.1360   19.1260 C   0  0  0  0  0  0
   16.2720   38.9420   18.8740 C   0  0  0  0  0  0
   18.2320   38.6090   16.8760 C   0  0  0  0  0  0
   17.0170   39.4440   16.6750 C   0  0  0  0  0  0
   15.9690   38.9410   17.4790 N   0  0  0  0  0  0
   14.6910   38.3850   17.0730 C   0  0  0  0  0  0
   14.1440   38.1570   15.4950 S   0  0  0  0  0  0
   13.7400   37.8960   17.9280 N   0  3  0  0  0  0
   12.6200   37.3870   17.2940 C   0  0  0  0  0  0
   11.5480   36.8560   18.0450 O   0  5  0  0  0  0
   12.6270   37.4270   15.8980 C   0  0  0  0  0  0
   11.5080   36.9460   15.0920 C   0  0  0  0  0  0
   11.4660   37.0300   13.5890 C   0  0  0  0  0  0
   11.8870   38.1610   12.8840 C   0  0  0  0  0  0
   11.7980   38.1800   11.4710 C   0  0  0  0  0  0
   12.3260   39.5600   10.5850 Cl  0  0  0  0  0  0
   11.2720   37.0740   10.7830 C   0  0  0  0  0  0
   11.1520   37.1030    9.0490 Cl  0  0  0  0  0  0
   10.8360   35.9500   11.4820 C   0  0  0  0  0  0
   10.9280   35.9280   12.8870 C   0  0  0  0  0  0
   22.9202   35.5459   13.9807 H   0  0  0  0  0  0
   22.9201   35.5458   13.9806 H   0  0  0  0  0  0
   23.5889   37.9121   12.8290 H   0  0  0  0  0  0
   23.5890   37.9121   12.8291 H   0  0  0  0  0  0
   23.2301   37.6056   15.2437 H   0  0  0  0  0  0
   21.2742   36.5449   16.4221 H   0  0  0  0  0  0
   24.0464   39.8764   15.8981 H   0  0  0  0  0  0
   22.9109   41.1204   17.7546 H   0  0  0  0  0  0
   20.9543   40.0724   18.9473 H   0  0  0  0  0  0
   19.6531   36.6287   18.1128 H   0  0  0  0  0  0
   20.0367   37.6189   19.5616 H   0  0  0  0  0  0
   18.9584   39.4582   18.5433 H   0  0  0  0  0  0
   17.2333   37.0791   19.0004 H   0  0  0  0  0  0
   17.8006   38.3172   20.1716 H   0  0  0  0  0  0
   15.4299   38.5031   19.4291 H   0  0  0  0  0  0
   16.4331   39.9769   19.2102 H   0  0  0  0  0  0
   19.0463   39.0891   16.3134 H   0  0  0  0  0  0
   18.0172   37.6222   16.4399 H   0  0  0  0  0  0
   17.2351   40.4836   16.9609 H   0  0  0  0  0  0
   16.7194   39.4095   15.6166 H   0  0  0  0  0  0
   11.3680   35.8687   15.2649 H   0  0  0  0  0  0
   10.5925   37.4851   15.3769 H   0  0  0  0  0  0
   12.2798   39.0196   13.4165 H   0  0  0  0  0  0
   10.4290   35.0989   10.9481 H   0  0  0  0  0  0
   10.5832   35.0584   13.4346 H   0  0  0  0  0  0
   13.9069   37.9314   19.0147 H   0  0  0  0  0  0
  1  2  1  0  0  0
  1 32  1  0  0  0
  1 33  1  0  0  0
  2  3  1  0  0  0
  2  4  1  0  0  0
  3 34  1  0  0  0
  3 35  1  0  0  0
  4  5  2  0  0  0
  4  6  1  0  0  0
  4 36  1  0  0  0
  5  9  1  0  0  0
  5 37  1  0  0  0
  6  7  2  0  0  0
  6 38  1  0  0  0
  7  8  1  0  0  0
  7 39  1  0  0  0
  8  9  2  0  0  0
  8 40  1  0  0  0
  9 10  1  0  0  0
 10 11  1  0  0  0
 10 41  1  0  0  0
 10 42  1  0  0  0
 11 12  1  0  0  0
 11 14  1  0  0  0
 11 43  1  0  0  0
 12 13  1  0  0  0
 12 44  1  0  0  0
 12 45  1  0  0  0
 13 16  1  0  0  0
 13 46  1  0  0  0
 13 47  1  0  0  0
 14 15  1  0  0  0
 14 48  1  0  0  0
 14 49  1  0  0  0
 15 16  1  0  0  0
 15 50  1  0  0  0
 15 51  1  0  0  0
 16 17  1  0  0  0
 17 18  1  0  0  0
 17 19  2  0  0  0
 18 22  1  0  0  0
 19 20  1  0  0  0
 19 57  1  0  0  0
 20 21  1  0  0  0
 20 22  2  0  0  0
 22 23  1  0  0  0
 23 24  1  0  0  0
 23 52  1  0  0  0
 23 53  1  0  0  0
 24 25  2  0  0  0
 24 31  1  0  0  0
 25 26  1  0  0  0
 25 54  1  0  0  0
 26 27  1  0  0  0
 26 28  2  0  0  0
 28 29  1  0  0  0
 28 30  1  0  0  0
 30 31  2  0  0  0
 30 55  1  0  0  0
 31 56  1  0  0  0
M  CHG  3  11   1  19   1  21  -1
M  END
> <MOLECULAR_FORMULA>
C21H26N3O3SCl2B

> <MOLECULAR_WEIGHT>
482

> <NUM_HB_ATOMS>
5

> <NUM_ROTOR>
5

> <XLOGP2>
4.73

> <s_m_source_file>
../3wax_ligand.sdf

> <i_m_source_file_index>
1

> <s_epik_input>
W09IMl1CKFtPSDJdKVtDSF0xPVtDSF1DKD1bQ0hdW0NIXT1bQ0hdMSlbQ0gyXVtOSCtdMltDSDJdW0NIMl1OKFtDSDJdW0NIMl0yKWMzc2MoYyhuMylbT0hdKVtDSDJdYzRbY0hdYyhDbCljKENsKVtjSF1bY0hdNA==

> <s_epik_cmdline>
J2VwaWtfYXBwJywgJy1pbWFlJywgJ2xpZ2FuZF9wcm8ubWFlJywgJy1vbWFlJywgJ2xpZ2FuZF9wcmVwLm1hZScsICctbXMnLCAnMScsICctcGgnLCAnNycsICctcGh0JywgJzAuNScsICctbnQn

> <r_epik_Ionization_Penalty>
  0.0428

> <r_epik_Ionization_Penalty_Charging>
  0.0428

> <r_epik_Ionization_Penalty_Neutral>
  0.0000

> <r_epik_State_Penalty>
  0.0360

> <r_epik_Charging_Adjusted_Penalty>
0.0788039448695761

> <i_epik_Tot_Q>
1

> <i_epik_Tot_abs_Q>
3

$$$$
