3way_ligand
                    3D
 Schrodinger Suite 2020-3.
 51 54  0  0  1  0            999 V2000
   11.8990   38.0700   12.7480 C   0  0  0  0  0  0
   11.7590   38.0040   11.3610 C   0  0  0  0  0  0
   12.2060   39.3670   10.3800 Cl  0  0  0  0  0  0
   11.2640   36.8400   10.7630 C   0  0  0  0  0  0
   11.1440   36.7160    8.9710 Cl  0  0  0  0  0  0
   10.8840   35.7640   11.5580 C   0  0  0  0  0  0
   10.9760   35.8550   12.9480 C   0  0  0  0  0  0
   11.4020   37.0460   13.5380 C   0  0  0  0  0  0
   11.5350   36.9110   14.9480 C   0  0  0  0  0  0
   12.4130   37.5260   15.7520 C   0  0  0  0  0  0
   14.0140   38.1650   15.3190 S   0  0  0  0  0  0
   12.4080   37.4440   17.1130 C   0  0  0  0  0  0
   11.4520   37.0290   17.7690 O   0  0  0  0  0  0
   13.4560   37.9870   17.7630 N   0  0  0  0  0  0
   14.4080   38.4490   16.9310 C   0  0  0  0  0  0
   15.5970   38.8880   17.3860 N   0  0  0  0  0  0
   15.8680   39.4160   18.7450 C   0  0  0  0  0  0
   17.2400   38.9080   19.2300 C   0  0  0  0  0  0
   16.6800   39.1540   16.4410 C   0  0  0  0  0  0
   17.9610   38.6940   17.0560 C   0  0  0  0  0  0
   18.3470   39.3280   18.3320 N   0  0  0  0  0  0
   19.6510   38.8070   18.8730 C   0  0  0  0  0  0
   20.5800   38.5910   17.8210 C   0  0  0  0  0  0
   20.6730   37.2610   17.4380 C   0  0  0  0  0  0
   21.4700   36.8760   16.3930 C   0  0  0  0  0  0
   22.2100   37.8540   15.7760 C   0  0  0  0  0  0
   23.1870   37.1820   14.3610 B   0  0  0  0  0  0
   23.5890   35.7340   14.5060 O   0  0  0  0  0  0
   24.0190   38.2480   13.5940 O   0  0  0  0  0  0
   22.1360   39.2110   16.1040 C   0  0  0  0  0  0
   21.3110   39.5960   17.1770 C   0  0  0  0  0  0
   12.3972   38.9235   13.2078 H   0  0  0  0  0  0
   10.5141   34.8490   11.0954 H   0  0  0  0  0  0
   10.7160   34.9988   13.5705 H   0  0  0  0  0  0
   10.8038   36.2056   15.3695 H   0  0  0  0  0  0
   15.8734   40.5156   18.7168 H   0  0  0  0  0  0
   15.0844   39.0708   19.4355 H   0  0  0  0  0  0
   17.4453   39.3084   20.2338 H   0  0  0  0  0  0
   17.2313   37.8087   19.2685 H   0  0  0  0  0  0
   16.4926   38.6071   15.5052 H   0  0  0  0  0  0
   16.7275   40.2329   16.2319 H   0  0  0  0  0  0
   17.9015   37.6154   17.2635 H   0  0  0  0  0  0
   18.7917   38.8885   16.3617 H   0  0  0  0  0  0
   20.0745   39.5387   19.5767 H   0  0  0  0  0  0
   19.4770   37.8545   19.3950 H   0  0  0  0  0  0
   20.1006   36.5077   17.9793 H   0  0  0  0  0  0
   21.5149   35.8374   16.0651 H   0  0  0  0  0  0
   22.9462   35.0381   15.0650 H   0  0  0  0  0  0
   23.6597   39.2858   13.5318 H   0  0  0  0  0  0
   22.7036   39.9528   15.5422 H   0  0  0  0  0  0
   21.2438   40.6366   17.4944 H   0  0  0  0  0  0
  1  2  2  0  0  0
  1  8  1  0  0  0
  1 32  1  0  0  0
  2  3  1  0  0  0
  2  4  1  0  0  0
  4  5  1  0  0  0
  4  6  2  0  0  0
  6  7  1  0  0  0
  6 33  1  0  0  0
  7  8  2  0  0  0
  7 34  1  0  0  0
  8  9  1  0  0  0
  9 10  2  0  0  0
  9 35  1  0  0  0
 10 11  1  0  0  0
 10 12  1  0  0  0
 11 15  1  0  0  0
 12 13  2  0  0  0
 12 14  1  0  0  0
 14 15  2  0  0  0
 15 16  1  0  0  0
 16 17  1  0  0  0
 16 19  1  0  0  0
 17 18  1  0  0  0
 17 36  1  0  0  0
 17 37  1  0  0  0
 18 21  1  0  0  0
 18 38  1  0  0  0
 18 39  1  0  0  0
 19 20  1  0  0  0
 19 40  1  0  0  0
 19 41  1  0  0  0
 20 21  1  0  0  0
 20 42  1  0  0  0
 20 43  1  0  0  0
 21 22  1  0  0  0
 22 23  1  0  0  0
 22 44  1  0  0  0
 22 45  1  0  0  0
 23 24  2  0  0  0
 23 31  1  0  0  0
 24 25  1  0  0  0
 24 46  1  0  0  0
 25 26  2  0  0  0
 25 47  1  0  0  0
 26 27  1  0  0  0
 26 30  1  0  0  0
 27 28  1  0  0  0
 27 29  1  0  0  0
 28 48  1  0  0  0
 29 49  1  0  0  0
 30 31  2  0  0  0
 30 50  1  0  0  0
 31 51  1  0  0  0
M  END
> <s_m_source_file>
../3way_ligand.sdf

> <i_m_source_file_index>
1

> <s_epik_input>
Q2xjMVtjSF1bY0hdYyhbY0hdYzFDbCkvW0NIXT1DMlxTQyg9TkMyPU8pTjNbQ0gyXVtDSDJdW05IK10oW0NIMl1bQ0gyXTMpW0NIMl1jNFtjSF1bY0hdYyhCKFtPSF0pW09IXSlbY0hdW2NIXTQ=

> <s_epik_cmdline>
J2VwaWtfYXBwJywgJy1pbWFlJywgJ2xpZ2FuZF9wcm8ubWFlJywgJy1vbWFlJywgJ2xpZ2FuZF9wcmVwLm1hZScsICctbXMnLCAnMScsICctcGgnLCAnNycsICctcGh0JywgJzAuNScsICctbnQn

> <r_epik_Ionization_Penalty>
  0.0948

> <r_epik_Ionization_Penalty_Charging>
  0.0000

> <r_epik_Ionization_Penalty_Neutral>
  0.0948

> <r_epik_State_Penalty>
  0.0848

> <r_epik_Charging_Adjusted_Penalty>
0.084809446028627

> <i_epik_Tot_Q>
0

> <i_epik_Tot_abs_Q>
0

> <s_epik_Chemistry_Notes>
This compound has an imine and may undergo hydrolysis. This compound contains a Lewis acid (boronic acid) which adds nucleophiles to form tetrahedral complexes, lowering the experimental pKa

$$$$
