3wb4_ligand
                    3D
 Schrodinger Suite 2020-3.
 38 39  0  0  1  0            999 V2000
   16.5230   41.9820  -10.0520 O   0  0  0  0  0  0
   16.3150   41.0250   -9.3310 C   0  0  0  0  0  0
   15.9980   41.1700   -8.0300 N   0  0  0  0  0  0
   15.7640   42.5190   -7.5210 C   0  0  0  0  0  0
   15.8890   40.0480   -7.2630 C   0  0  0  0  0  0
   15.2410   40.1160   -6.1080 N   0  0  0  0  0  0
   16.3790   38.9300   -7.5850 N   0  3  0  0  0  0
   16.4210   39.6320   -9.8880 C   0  0  0  0  0  0
   17.0980   38.7620   -8.8390 C   0  0  2  0  0  0
   17.0530   37.3060   -9.2750 C   0  0  0  0  0  0
   18.5640   39.2100   -8.7090 C   0  0  0  0  0  0
   19.1920   38.7440   -7.3920 C   0  0  0  0  0  0
   20.5340   39.4010   -7.1300 C   0  0  0  0  0  0
   21.6230   39.1870   -7.9690 C   0  0  0  0  0  0
   22.8540   39.8060   -7.7060 C   0  0  0  0  0  0
   22.9960   40.6370   -6.5930 C   0  0  0  0  0  0
   21.9190   40.8530   -5.7430 C   0  0  0  0  0  0
   20.6970   40.2280   -6.0210 C   0  0  0  0  0  0
   15.9144   43.2478   -8.3311 H   0  0  0  0  0  0
   16.4686   42.7295   -6.7029 H   0  0  0  0  0  0
   14.7329   42.5955   -7.1457 H   0  0  0  0  0  0
   14.7958   41.0677   -5.7823 H   0  0  0  0  0  0
   16.2653   38.0658   -6.9139 H   0  0  0  0  0  0
   15.4143   39.2484  -10.1102 H   0  0  0  0  0  0
   17.0183   39.6508  -10.8115 H   0  0  0  0  0  0
   16.0055   36.9835   -9.3686 H   0  0  0  0  0  0
   17.5629   36.6829   -8.5255 H   0  0  0  0  0  0
   17.5580   37.1983  -10.2463 H   0  0  0  0  0  0
   19.1513   38.7878   -9.5378 H   0  0  0  0  0  0
   18.6164   40.3082   -8.7447 H   0  0  0  0  0  0
   18.5212   38.9947   -6.5570 H   0  0  0  0  0  0
   19.3462   37.6553   -7.4243 H   0  0  0  0  0  0
   21.5190   38.5344   -8.8359 H   0  0  0  0  0  0
   23.7008   39.6380   -8.3714 H   0  0  0  0  0  0
   23.9535   41.1170   -6.3909 H   0  0  0  0  0  0
   22.0234   41.4998   -4.8719 H   0  0  0  0  0  0
   19.8519   40.3929   -5.3526 H   0  0  0  0  0  0
   15.1487   39.2207   -5.4756 H   0  0  0  0  0  0
  1  2  2  0  0  0
  2  3  1  0  0  0
  2  8  1  0  0  0
  3  4  1  0  0  0
  3  5  1  0  0  0
  4 19  1  0  0  0
  4 20  1  0  0  0
  4 21  1  0  0  0
  5  6  1  0  0  0
  5  7  2  0  0  0
  6 22  1  0  0  0
  6 38  1  0  0  0
  7  9  1  0  0  0
  7 23  1  0  0  0
  8  9  1  0  0  0
  8 24  1  0  0  0
  8 25  1  0  0  0
  9 10  1  0  0  0
  9 11  1  0  0  0
 10 26  1  0  0  0
 10 27  1  0  0  0
 10 28  1  0  0  0
 11 12  1  0  0  0
 11 29  1  0  0  0
 11 30  1  0  0  0
 12 13  1  0  0  0
 12 31  1  0  0  0
 12 32  1  0  0  0
 13 14  2  0  0  0
 13 18  1  0  0  0
 14 15  1  0  0  0
 14 33  1  0  0  0
 15 16  2  0  0  0
 15 34  1  0  0  0
 16 17  1  0  0  0
 16 35  1  0  0  0
 17 18  2  0  0  0
 17 36  1  0  0  0
 18 37  1  0  0  0
M  CHG  1   7   1
M  END
> <s_m_source_file>
../3wb4_ligand.sdf

> <i_m_source_file_index>
1

> <s_epik_input>
Tz1DKFtDSDJdMSlOKFtDSDNdKS9DKD1OXFtIXSlbTkhdW0NAXTEoW0NIM10pW0NIMl1bQ0gyXWMyW2NIXVtjSF1bY0hdW2NIXVtjSF0y

> <s_epik_cmdline>
J2VwaWtfYXBwJywgJy1pbWFlJywgJ2xpZ2FuZF9wcm8ubWFlJywgJy1vbWFlJywgJ2xpZ2FuZF9wcmVwLm1hZScsICctbXMnLCAnMScsICctcGgnLCAnNycsICctcGh0JywgJzAuNScsICctbnQn

> <r_lp_tautomer_probability>
1

> <r_epik_Ionization_Penalty>
  0.0001

> <r_epik_Ionization_Penalty_Charging>
  0.0001

> <r_epik_Ionization_Penalty_Neutral>
  0.0000

> <r_epik_State_Penalty>
 -0.0000

> <r_epik_Charging_Adjusted_Penalty>
0.000146259525560361

> <i_epik_Tot_Q>
1

> <i_epik_Tot_abs_Q>
1

> <s_epik_Chemistry_Notes>
This compound has an imine and may undergo hydrolysis.

$$$$
