3wb5_ligand
                    3D
 Schrodinger Suite 2020-3.
 39 41  0  0  1  0            999 V2000
   18.1760   40.7490   -9.5500 O   0  0  0  0  0  0
   17.7680   39.8640   -8.8190 C   0  0  0  0  0  0
   17.2590   40.1190   -7.6050 N   0  0  0  0  0  0
   16.9560   41.4830   -7.1870 C   0  0  0  0  0  0
   17.0540   39.0920   -6.7740 C   0  0  0  0  0  0
   16.2080   39.2320   -5.7550 N   0  0  0  0  0  0
   17.6810   38.0020   -6.9000 N   0  3  0  0  0  0
   17.8640   38.4370   -9.2900 C   0  0  0  0  0  0
   18.3300   37.5790   -8.1310 C   0  0  2  0  0  0
   18.0070   36.1220   -8.4250 C   0  0  0  0  0  0
   19.8460   37.7220   -8.0230 C   0  0  2  0  0  0
   20.4200   37.0000   -6.8080 C   0  0  0  0  0  0
   20.2380   38.5120   -6.7780 C   0  0  1  0  0  0
   21.4960   39.2280   -7.0720 C   0  0  0  0  0  0
   21.5330   40.6130   -6.9740 C   0  0  0  0  0  0
   22.7100   41.2970   -7.2500 C   0  0  0  0  0  0
   23.8470   40.5950   -7.6250 C   0  0  0  0  0  0
   23.8080   39.2100   -7.7240 C   0  0  0  0  0  0
   22.6320   38.5240   -7.4520 C   0  0  0  0  0  0
   17.1917   42.1784   -8.0061 H   0  0  0  0  0  0
   17.5599   41.7385   -6.3038 H   0  0  0  0  0  0
   15.8879   41.5608   -6.9359 H   0  0  0  0  0  0
   15.6522   40.1725   -5.6269 H   0  0  0  0  0  0
   17.7589   37.3106   -6.0480 H   0  0  0  0  0  0
   16.8763   38.0976   -9.6352 H   0  0  0  0  0  0
   18.5843   38.3721  -10.1188 H   0  0  0  0  0  0
   16.9172   35.9973   -8.5068 H   0  0  0  0  0  0
   18.3882   35.4901   -7.6092 H   0  0  0  0  0  0
   18.4821   35.8249   -9.3716 H   0  0  0  0  0  0
   20.0964   37.7561   -9.0936 H   0  0  0  0  0  0
   19.6880   36.2675   -6.4371 H   0  0  0  0  0  0
   21.3462   36.4801   -7.0941 H   0  0  0  0  0  0
   19.7703   39.2198   -6.0778 H   0  0  0  0  0  0
   20.6388   41.1629   -6.6806 H   0  0  0  0  0  0
   22.7406   42.3838   -7.1722 H   0  0  0  0  0  0
   24.7711   41.1308   -7.8420 H   0  0  0  0  0  0
   24.7029   38.6604   -8.0160 H   0  0  0  0  0  0
   22.6000   37.4377   -7.5362 H   0  0  0  0  0  0
   16.0651   38.4071   -5.0415 H   0  0  0  0  0  0
  1  2  2  0  0  0
  2  3  1  0  0  0
  2  8  1  0  0  0
  3  4  1  0  0  0
  3  5  1  0  0  0
  4 20  1  0  0  0
  4 21  1  0  0  0
  4 22  1  0  0  0
  5  6  1  0  0  0
  5  7  2  0  0  0
  6 23  1  0  0  0
  6 39  1  0  0  0
  7  9  1  0  0  0
  7 24  1  0  0  0
  8  9  1  0  0  0
  8 25  1  0  0  0
  8 26  1  0  0  0
  9 10  1  0  0  0
  9 11  1  0  0  0
 10 27  1  0  0  0
 10 28  1  0  0  0
 10 29  1  0  0  0
 11 12  1  0  0  0
 11 13  1  0  0  0
 11 30  1  0  0  0
 12 13  1  0  0  0
 12 31  1  0  0  0
 12 32  1  0  0  0
 13 14  1  0  0  0
 13 33  1  0  0  0
 14 15  2  0  0  0
 14 19  1  0  0  0
 15 16  1  0  0  0
 15 34  1  0  0  0
 16 17  2  0  0  0
 16 35  1  0  0  0
 17 18  1  0  0  0
 17 36  1  0  0  0
 18 19  2  0  0  0
 18 37  1  0  0  0
 19 38  1  0  0  0
M  CHG  1   7   1
M  END
> <s_m_source_file>
../3wb5_ligand.sdf

> <i_m_source_file_index>
1

> <s_epik_input>
Tz1DKFtDSDJdMSlOKFtDSDNdKS9DKD1OXFtIXSlbTkhdW0NAXTEoW0NIM10pW0NAQEhdMltDSDJdW0NASF0yYzNbY0hdW2NIXVtjSF1bY0hdW2NIXTM=

> <s_epik_cmdline>
J2VwaWtfYXBwJywgJy1pbWFlJywgJ2xpZ2FuZF9wcm8ubWFlJywgJy1vbWFlJywgJ2xpZ2FuZF9wcmVwLm1hZScsICctbXMnLCAnMScsICctcGgnLCAnNycsICctcGh0JywgJzAuNScsICctbnQn

> <r_lp_tautomer_probability>
1

> <r_epik_Ionization_Penalty>
  0.0001

> <r_epik_Ionization_Penalty_Charging>
  0.0001

> <r_epik_Ionization_Penalty_Neutral>
  0.0000

> <r_epik_State_Penalty>
 -0.0000

> <r_epik_Charging_Adjusted_Penalty>
0.000145260881489543

> <i_epik_Tot_Q>
1

> <i_epik_Tot_abs_Q>
1

> <s_epik_Chemistry_Notes>
This compound has an imine and may undergo hydrolysis.

$$$$
