3wbl_ligand
                    3D
 Schrodinger Suite 2020-3.
 54 57  0  0  1  0            999 V2000
   25.1200   62.0390   11.0040 C   0  0  0  0  0  0
   24.1410   62.0040   12.1770 C   0  0  0  0  0  0
   24.7440   62.7200   13.3970 C   0  0  0  0  0  0
   25.3240   64.0270   13.0680 N   0  3  0  0  0  0
   26.1520   64.2120   11.8850 C   0  0  0  0  0  0
   25.5750   63.4660   10.6610 C   0  0  1  0  0  0
   26.5340   63.3840    9.5600 N   0  0  0  0  0  0
   27.1090   64.4670    8.9410 C   0  0  0  0  0  0
   28.3350   64.2240    8.1050 C   0  0  0  0  0  0
   28.8800   62.8130    7.9940 C   0  0  0  0  0  0
   26.6030   65.7400    9.0670 N   0  0  0  0  0  0
   27.1960   66.7830    8.4110 C   0  0  0  0  0  0
   26.7740   68.1570    8.3730 C   0  0  0  0  0  0
   27.7360   68.7580    7.5490 C   0  0  0  0  0  0
   28.6870   67.8690    7.0620 N   0  0  0  0  0  0
   28.3390   66.6440    7.6120 N   0  0  0  0  0  0
   28.9880   65.3970    7.4270 C   0  0  0  0  0  0
   30.1030   65.3480    6.6500 N   0  0  0  0  0  0
   31.0720   64.3900    6.6780 C   0  0  0  0  0  0
   31.6300   63.8960    7.8770 C   0  0  0  0  0  0
   32.6150   62.8950    7.8240 C   0  0  0  0  0  0
   31.5080   63.8920    5.4460 C   0  0  0  0  0  0
   32.4890   62.9070    5.3950 C   0  0  0  0  0  0
   33.0570   62.4050    6.5810 C   0  0  0  0  0  0
   34.0310   61.4180    6.5340 O   0  0  0  0  0  0
   34.8230   61.1220    5.3720 C   0  0  0  0  0  0
   36.2150   61.7260    5.5020 C   0  0  0  0  0  0
   26.0140   61.4492   11.2549 H   0  0  0  0  0  0
   24.6383   61.6131   10.1115 H   0  0  0  0  0  0
   23.2067   62.5087   11.8900 H   0  0  0  0  0  0
   23.9260   60.9588   12.4441 H   0  0  0  0  0  0
   23.9598   62.8835   14.1508 H   0  0  0  0  0  0
   25.5434   62.0995   13.8282 H   0  0  0  0  0  0
   24.5172   64.7615   12.9284 H   0  0  0  0  0  0
   25.9797   64.3542   13.8884 H   0  0  0  0  0  0
   26.2098   65.2832   11.6418 H   0  0  0  0  0  0
   27.1630   63.8254   12.0809 H   0  0  0  0  0  0
   24.7273   64.0643   10.2956 H   0  0  0  0  0  0
   26.8424   62.4023    9.1712 H   0  0  0  0  0  0
   28.2412   62.1269    8.5695 H   0  0  0  0  0  0
   29.9042   62.7830    8.3942 H   0  0  0  0  0  0
   28.8899   62.5058    6.9378 H   0  0  0  0  0  0
   25.9170   68.6180    8.8640 H   0  0  0  0  0  0
   27.7379   69.8221    7.3126 H   0  0  0  0  0  0
   30.2906   66.1370    5.9068 H   0  0  0  0  0  0
   31.2988   64.2887    8.8383 H   0  0  0  0  0  0
   33.0372   62.4976    8.7470 H   0  0  0  0  0  0
   31.0773   64.2773    4.5218 H   0  0  0  0  0  0
   32.8199   62.5215    4.4306 H   0  0  0  0  0  0
   34.9173   60.0317    5.2606 H   0  0  0  0  0  0
   34.3354   61.5410    4.4794 H   0  0  0  0  0  0
   36.8034   61.4879    4.6036 H   0  0  0  0  0  0
   36.7145   61.3085    6.3887 H   0  0  0  0  0  0
   36.1325   62.8178    5.6076 H   0  0  0  0  0  0
  1  2  1  0  0  0
  1  6  1  0  0  0
  1 28  1  0  0  0
  1 29  1  0  0  0
  2  3  1  0  0  0
  2 30  1  0  0  0
  2 31  1  0  0  0
  3  4  1  0  0  0
  3 32  1  0  0  0
  3 33  1  0  0  0
  4  5  1  0  0  0
  4 34  1  0  0  0
  4 35  1  0  0  0
  5  6  1  0  0  0
  5 36  1  0  0  0
  5 37  1  0  0  0
  6  7  1  0  0  0
  6 38  1  0  0  0
  7  8  1  0  0  0
  7 39  1  0  0  0
  8  9  1  0  0  0
  8 11  2  0  0  0
  9 10  1  0  0  0
  9 17  2  0  0  0
 10 40  1  0  0  0
 10 41  1  0  0  0
 10 42  1  0  0  0
 11 12  1  0  0  0
 12 13  2  0  0  0
 12 16  1  0  0  0
 13 14  1  0  0  0
 13 43  1  0  0  0
 14 15  2  0  0  0
 14 44  1  0  0  0
 15 16  1  0  0  0
 16 17  1  0  0  0
 17 18  1  0  0  0
 18 19  1  0  0  0
 18 45  1  0  0  0
 19 20  2  0  0  0
 19 22  1  0  0  0
 20 21  1  0  0  0
 20 46  1  0  0  0
 21 24  2  0  0  0
 21 47  1  0  0  0
 22 23  2  0  0  0
 22 48  1  0  0  0
 23 24  1  0  0  0
 23 49  1  0  0  0
 24 25  1  0  0  0
 25 26  1  0  0  0
 26 27  1  0  0  0
 26 50  1  0  0  0
 26 51  1  0  0  0
 27 52  1  0  0  0
 27 53  1  0  0  0
 27 54  1  0  0  0
M  CHG  1   4   1
M  END
> <s_m_source_file>
../3wbl_ligand.sdf

> <i_m_source_file_index>
1

> <s_epik_input>
W0NIMl0xW05IMitdW0NIMl1bQ0gyXVtDSDJdW0NAQEhdMVtOSF1jKG4yKWMoW0NIM10pYyhuKGMyMyluW2NIXVtjSF0zKVtOSF1jNFtjSF1bY0hdYyhbY0hdW2NIXTQpT1tDSDJdW0NIM10=

> <s_epik_cmdline>
J2VwaWtfYXBwJywgJy1pbWFlJywgJ2xpZ2FuZF9wcm8ubWFlJywgJy1vbWFlJywgJ2xpZ2FuZF9wcmVwLm1hZScsICctbXMnLCAnMScsICctcGgnLCAnNycsICctcGh0JywgJzAuNScsICctbnQn

> <r_lp_tautomer_probability>
1

> <r_epik_Ionization_Penalty>
  0.0003

> <r_epik_Ionization_Penalty_Charging>
  0.0003

> <r_epik_Ionization_Penalty_Neutral>
  0.0000

> <r_epik_State_Penalty>
 -0.0000

> <r_epik_Charging_Adjusted_Penalty>
0.000278072219921451

> <i_epik_Tot_Q>
1

> <i_epik_Tot_abs_Q>
1

$$$$
