3wc5_ligand
                    3D
 Schrodinger Suite 2020-3.
 28 27  0  0  1  0            999 V2000
    4.8260  -17.6990    3.7800 O   0  0  0  0  0  0
    3.8990  -18.4820    3.3930 C   0  0  0  0  0  0
    2.7440  -18.5410    3.9530 O   0  5  0  0  0  0
    4.1950  -19.3060    2.1570 C   0  0  2  0  0  0
    5.4710  -20.1220    2.4030 C   0  0  0  0  0  0
    5.2450  -21.3380    3.9530 Se  0  0  0  0  0  0
    4.4410  -18.3750    0.9640 C   0  0  0  0  0  0
    3.2070  -17.5470    0.5190 C   0  0  0  0  0  0
    3.3800  -16.9540   -0.9110 C   0  0  0  0  0  0
    4.6710  -16.0860   -1.0910 C   0  0  0  0  0  0
    4.7060  -15.2310    0.1580 C   0  0  0  0  0  0
    5.2450  -13.9350   -0.1300 N   0  3  0  0  0  0
    3.3366  -19.9634    1.9547 H   0  0  0  0  0  0
    5.6987  -20.7243    1.5112 H   0  0  0  0  0  0
    6.3089  -19.4395    2.6081 H   0  0  0  0  0  0
    5.2314  -17.6536    1.2188 H   0  0  0  0  0  0
    4.7542  -18.9697    0.0932 H   0  0  0  0  0  0
    2.3152  -18.1909    0.5160 H   0  0  0  0  0  0
    3.0540  -16.7120    1.2186 H   0  0  0  0  0  0
    3.4358  -17.7730   -1.6433 H   0  0  0  0  0  0
    2.5207  -16.3091   -1.1469 H   0  0  0  0  0  0
    5.5481  -16.7452   -1.1695 H   0  0  0  0  0  0
    4.5826  -15.4828   -2.0066 H   0  0  0  0  0  0
    3.6850  -15.1122    0.5497 H   0  0  0  0  0  0
    5.3359  -15.7171    0.9176 H   0  0  0  0  0  0
    5.2610  -13.3319    0.7898 H   0  0  0  0  0  0
    4.6184  -13.4367   -0.8843 H   0  0  0  0  0  0
    6.2693  -14.0415   -0.5165 H   0  0  0  0  0  0
  1  2  2  0  0  0
  2  3  1  0  0  0
  2  4  1  0  0  0
  4  5  1  0  0  0
  4  7  1  0  0  0
  4 13  1  0  0  0
  5  6  1  0  0  0
  5 14  1  0  0  0
  5 15  1  0  0  0
  7  8  1  0  0  0
  7 16  1  0  0  0
  7 17  1  0  0  0
  8  9  1  0  0  0
  8 18  1  0  0  0
  8 19  1  0  0  0
  9 10  1  0  0  0
  9 20  1  0  0  0
  9 21  1  0  0  0
 10 11  1  0  0  0
 10 22  1  0  0  0
 10 23  1  0  0  0
 11 12  1  0  0  0
 11 24  1  0  0  0
 11 25  1  0  0  0
 12 26  1  0  0  0
 12 27  1  0  0  0
 12 28  1  0  0  0
M  CHG  2   3  -1  12   1
M  END
> <s_m_source_file>
../3wc5_ligand.sdf

> <i_m_source_file_index>
1

> <s_epik_input>
Tz1DKFtPSF0pW0NASF0oW0NIMl1bU2VIXSlbQ0gyXVtDSDJdW0NIMl1bQ0gyXVtDSDJdW05IMytd

> <s_epik_cmdline>
J2VwaWtfYXBwJywgJy1pbWFlJywgJ2xpZ2FuZF9wcm8ubWFlJywgJy1vbWFlJywgJ2xpZ2FuZF9wcmVwLm1hZScsICctbXMnLCAnMScsICctcGgnLCAnNycsICctcGh0JywgJzAuNScsICctbnQn

> <r_lp_tautomer_probability>
1

> <r_epik_Ionization_Penalty>
  0.0028

> <r_epik_Ionization_Penalty_Charging>
  0.0028

> <r_epik_Ionization_Penalty_Neutral>
  0.0000

> <r_epik_State_Penalty>
 -0.0000

> <r_epik_Charging_Adjusted_Penalty>
0.00283823045057091

> <i_epik_Tot_Q>
0

> <i_epik_Tot_abs_Q>
2

$$$$
