3wc7_ligand
                    3D
 Schrodinger Suite 2020-3.
 63 63  0  0  1  0            999 V2000
    4.7640  -17.5580    4.0460 O   0  5  0  0  0  0
    3.9570  -18.3930    3.5650 C   0  0  0  0  0  0
    2.8420  -18.6020    4.0860 O   0  0  0  0  0  0
    4.3300  -19.1190    2.2900 C   0  0  2  0  0  0
    3.6440  -18.4160    1.1080 C   0  0  0  0  0  0
    3.6510  -16.9000    1.2450 C   0  0  0  0  0  0
    3.1030  -16.2370   -0.0170 C   0  0  0  0  0  0
    4.0120  -16.5280   -1.2120 C   0  0  0  0  0  0
    5.3340  -15.7740   -1.1260 C   0  0  0  0  0  0
    5.1260  -14.3940   -0.7170 N   0  3  0  0  0  0
    3.8210  -20.5520    2.2690 C   0  0  0  0  0  0
    4.7130  -21.5880    3.4550 P   0  0  1  0  0  0
    5.8450  -22.2800    2.7480 O   0  0  0  0  0  0
    5.1230  -20.7130    4.6120 O   0  5  0  0  0  0
    3.6090  -22.9310    4.0390 C   0  0  2  0  0  0
    3.3260  -23.9540    2.9290 C   0  0  0  0  0  0
    2.4090  -23.3200    1.8800 C   0  0  0  0  0  0
    2.6890  -25.2250    3.4870 C   0  0  0  0  0  0
    2.3760  -22.3820    4.5640 N   0  0  0  0  0  0
    2.0050  -22.6300    5.8320 C   0  0  0  0  0  0
    2.6340  -23.3600    6.6080 O   0  0  0  0  0  0
    0.7420  -21.9360    6.3130 C   0  0  0  0  0  0
   -0.1860  -22.9970    6.8770 C   0  0  0  0  0  0
   -0.5040  -24.0820    5.8660 C   0  0  0  0  0  0
   -1.0770  -23.7380    4.6420 C   0  0  0  0  0  0
   -0.2520  -25.4140    6.1760 C   0  0  0  0  0  0
   -0.5520  -26.3900    5.2380 C   0  0  0  0  0  0
   -1.1130  -26.0360    4.0080 C   0  0  0  0  0  0
   -1.3690  -24.7110    3.7010 C   0  0  0  0  0  0
    5.4288  -19.1162    2.2395 H   0  0  0  0  0  0
    4.1666  -18.6733    0.1749 H   0  0  0  0  0  0
    2.5962  -18.7446    1.0439 H   0  0  0  0  0  0
    3.0241  -16.6062    2.0998 H   0  0  0  0  0  0
    4.6813  -16.5514    1.4090 H   0  0  0  0  0  0
    2.0971  -16.6281   -0.2294 H   0  0  0  0  0  0
    3.0489  -15.1488    0.1344 H   0  0  0  0  0  0
    4.2343  -17.6046   -1.2500 H   0  0  0  0  0  0
    3.5055  -16.2252   -2.1403 H   0  0  0  0  0  0
    5.9881  -16.2637   -0.3896 H   0  0  0  0  0  0
    5.8233  -15.7783   -2.1112 H   0  0  0  0  0  0
    6.0956  -13.8772   -0.6641 H   0  0  0  0  0  0
    4.6450  -14.3732    0.2720 H   0  0  0  0  0  0
    4.4801  -13.8879   -1.4496 H   0  0  0  0  0  0
    2.7523  -20.5653    2.5290 H   0  0  0  0  0  0
    3.9590  -20.9754    1.2632 H   0  0  0  0  0  0
    3.9084  -23.5625    4.8885 H   0  0  0  0  0  0
    4.2800  -24.2437    2.4644 H   0  0  0  0  0  0
    2.8788  -22.4065    1.4864 H   0  0  0  0  0  0
    1.4437  -23.0660    2.3423 H   0  0  0  0  0  0
    2.2456  -24.0319    1.0575 H   0  0  0  0  0  0
    3.3571  -25.6704    4.2388 H   0  0  0  0  0  0
    2.5265  -25.9430    2.6696 H   0  0  0  0  0  0
    1.7246  -24.9770    3.9544 H   0  0  0  0  0  0
    1.7357  -21.7572    3.9240 H   0  0  0  0  0  0
    1.0003  -21.2027    7.0912 H   0  0  0  0  0  0
    0.2625  -21.4203    5.4680 H   0  0  0  0  0  0
    0.2875  -23.4725    7.7486 H   0  0  0  0  0  0
   -1.1334  -22.5299    7.1839 H   0  0  0  0  0  0
   -1.2972  -22.6930    4.4239 H   0  0  0  0  0  0
    0.1747  -25.6865    7.1413 H   0  0  0  0  0  0
   -0.3495  -27.4376    5.4609 H   0  0  0  0  0  0
   -1.3518  -26.8128    3.2816 H   0  0  0  0  0  0
   -1.7933  -24.4380    2.7348 H   0  0  0  0  0  0
  1  2  1  0  0  0
  2  3  2  0  0  0
  2  4  1  0  0  0
  4  5  1  0  0  0
  4 11  1  0  0  0
  4 30  1  0  0  0
  5  6  1  0  0  0
  5 31  1  0  0  0
  5 32  1  0  0  0
  6  7  1  0  0  0
  6 33  1  0  0  0
  6 34  1  0  0  0
  7  8  1  0  0  0
  7 35  1  0  0  0
  7 36  1  0  0  0
  8  9  1  0  0  0
  8 37  1  0  0  0
  8 38  1  0  0  0
  9 10  1  0  0  0
  9 39  1  0  0  0
  9 40  1  0  0  0
 10 41  1  0  0  0
 10 42  1  0  0  0
 10 43  1  0  0  0
 11 12  1  0  0  0
 11 44  1  0  0  0
 11 45  1  0  0  0
 12 13  2  0  0  0
 12 14  1  0  0  0
 12 15  1  0  0  0
 15 16  1  0  0  0
 15 19  1  0  0  0
 15 46  1  0  0  0
 16 17  1  0  0  0
 16 18  1  0  0  0
 16 47  1  0  0  0
 17 48  1  0  0  0
 17 49  1  0  0  0
 17 50  1  0  0  0
 18 51  1  0  0  0
 18 52  1  0  0  0
 18 53  1  0  0  0
 19 20  1  0  0  0
 19 54  1  0  0  0
 20 21  2  0  0  0
 20 22  1  0  0  0
 22 23  1  0  0  0
 22 55  1  0  0  0
 22 56  1  0  0  0
 23 24  1  0  0  0
 23 57  1  0  0  0
 23 58  1  0  0  0
 24 25  2  0  0  0
 24 26  1  0  0  0
 25 29  1  0  0  0
 25 59  1  0  0  0
 26 27  2  0  0  0
 26 60  1  0  0  0
 27 28  1  0  0  0
 27 61  1  0  0  0
 28 29  2  0  0  0
 28 62  1  0  0  0
 29 63  1  0  0  0
M  CHG  3   1  -1  10   1  14  -1
M  END
> <s_m_source_file>
../3wc7_ligand.sdf

> <i_m_source_file_index>
1

> <s_epik_input>
W05IMytdW0NIMl1bQ0gyXVtDSDJdW0NIMl1bQ0gyXVtDQEBIXShDKD1PKVtPSF0pW0NIMl1bUEBAXSg9TykoW09IXSlbQ0BIXShbQ0hdKFtDSDNdKVtDSDNdKVtOSF1DKD1PKVtDSDJdW0NIMl1jMVtjSF1bY0hdW2NIXVtjSF1bY0hdMQ==

> <s_epik_cmdline>
J2VwaWtfYXBwJywgJy1pbWFlJywgJ2xpZ2FuZF9wcm8ubWFlJywgJy1vbWFlJywgJ2xpZ2FuZF9wcmVwLm1hZScsICctbXMnLCAnMScsICctcGgnLCAnNycsICctcGh0JywgJzAuNScsICctbnQn

> <r_lp_tautomer_probability>
1

> <r_epik_Ionization_Penalty>
  0.0028

> <r_epik_Ionization_Penalty_Charging>
  0.0028

> <r_epik_Ionization_Penalty_Neutral>
  0.0000

> <r_epik_State_Penalty>
 -0.0000

> <r_epik_Charging_Adjusted_Penalty>
0.002796517852885

> <i_epik_Tot_Q>
-1

> <i_epik_Tot_abs_Q>
3

$$$$
