3wcb_ligand
                    3D
 Schrodinger Suite 2020-3.
 54 54  0  0  1  0            999 V2000
   10.3940  -16.2320  -13.0450 O   0  5  0  0  0  0
   11.7970  -16.5050  -13.7860 P   0  0  0  0  0  0
   12.4190  -15.0550  -14.1050 O   0  5  0  0  0  0
   11.6390  -17.3350  -15.0020 O   0  0  0  0  0  0
   12.9050  -17.2790  -12.5010 C   0  0  1  0  0  0
   13.0240  -16.1260  -11.0380 P   0  0  0  0  0  0
   14.4550  -16.4090  -10.3570 O   0  5  0  0  0  0
   13.1040  -14.6410  -11.6540 O   0  0  0  0  0  0
   11.8970  -16.2880  -10.0910 O   0  0  0  0  0  0
   12.5190  -18.6070  -12.1440 O   0  0  0  0  0  0
   14.3070  -17.3710  -13.1090 C   0  0  0  0  0  0
   14.3470  -18.4450  -14.1290 N   0  3  0  0  0  0
   14.1840  -18.2770  -15.4370 C   0  0  0  0  0  0
   14.4640  -19.7470  -13.8870 C   0  0  0  0  0  0
   14.3460  -20.3910  -15.0450 C   0  0  0  0  0  0
   14.1590  -19.4870  -16.0020 N   0  0  0  0  0  0
   13.7790  -19.7650  -17.4020 C   0  0  0  0  0  0
   14.2700  -21.1450  -17.8520 C   0  0  0  0  0  0
   15.0570  -21.0050  -19.1560 C   0  0  0  0  0  0
   14.1030  -21.1200  -20.3470 C   0  0  0  0  0  0
   14.5440  -20.1550  -21.4500 C   0  0  0  0  0  0
   15.2670  -20.9330  -22.5520 C   0  0  0  0  0  0
   14.8180  -20.4170  -23.9210 C   0  0  0  0  0  0
   15.9270  -20.6570  -24.9480 C   0  0  0  0  0  0
   15.8650  -19.5760  -26.0280 C   0  0  0  0  0  0
   16.2470  -20.1790  -27.3810 C   0  0  0  0  0  0
   13.8966  -14.3857  -12.3727 H   0  0  0  0  0  0
   11.5368  -18.7893  -11.6835 H   0  0  0  0  0  0
   14.5649  -16.4122  -13.5825 H   0  0  0  0  0  0
   15.0361  -17.5966  -12.3169 H   0  0  0  0  0  0
   14.0880  -17.3231  -15.9557 H   0  0  0  0  0  0
   14.6277  -20.2058  -12.9119 H   0  0  0  0  0  0
   14.3942  -21.4709  -15.1849 H   0  0  0  0  0  0
   12.6835  -19.7366  -17.4971 H   0  0  0  0  0  0
   14.2241  -19.0047  -18.0607 H   0  0  0  0  0  0
   14.9201  -21.5741  -17.0753 H   0  0  0  0  0  0
   13.4063  -21.8067  -18.0139 H   0  0  0  0  0  0
   15.5550  -20.0245  -19.1802 H   0  0  0  0  0  0
   15.8131  -21.8018  -19.2153 H   0  0  0  0  0  0
   14.1206  -22.1500  -20.7327 H   0  0  0  0  0  0
   13.0822  -20.8665  -20.0250 H   0  0  0  0  0  0
   13.6609  -19.6548  -21.8742 H   0  0  0  0  0  0
   15.2246  -19.4013  -21.0273 H   0  0  0  0  0  0
   16.3531  -20.7943  -22.4465 H   0  0  0  0  0  0
   15.0238  -22.0023  -22.4659 H   0  0  0  0  0  0
   13.9082  -20.9505  -24.2336 H   0  0  0  0  0  0
   14.6069  -19.3394  -23.8555 H   0  0  0  0  0  0
   16.9054  -20.6186  -24.4468 H   0  0  0  0  0  0
   15.7906  -21.6456  -25.4107 H   0  0  0  0  0  0
   14.8436  -19.1715  -26.0837 H   0  0  0  0  0  0
   16.5667  -18.7668  -25.7775 H   0  0  0  0  0  0
   16.2016  -19.3995  -28.1558 H   0  0  0  0  0  0
   15.5455  -20.9879  -27.6331 H   0  0  0  0  0  0
   17.2686  -20.5832  -27.3270 H   0  0  0  0  0  0
  1  2  1  0  0  0
  2  3  1  0  0  0
  2  4  2  0  0  0
  2  5  1  0  0  0
  5  6  1  0  0  0
  5 10  1  0  0  0
  5 11  1  0  0  0
  6  7  1  0  0  0
  6  8  1  0  0  0
  6  9  2  0  0  0
  8 27  1  0  0  0
 10 28  1  0  0  0
 11 12  1  0  0  0
 11 29  1  0  0  0
 11 30  1  0  0  0
 12 13  2  0  0  0
 12 14  1  0  0  0
 13 16  1  0  0  0
 13 31  1  0  0  0
 14 15  2  0  0  0
 14 32  1  0  0  0
 15 16  1  0  0  0
 15 33  1  0  0  0
 16 17  1  0  0  0
 17 18  1  0  0  0
 17 34  1  0  0  0
 17 35  1  0  0  0
 18 19  1  0  0  0
 18 36  1  0  0  0
 18 37  1  0  0  0
 19 20  1  0  0  0
 19 38  1  0  0  0
 19 39  1  0  0  0
 20 21  1  0  0  0
 20 40  1  0  0  0
 20 41  1  0  0  0
 21 22  1  0  0  0
 21 42  1  0  0  0
 21 43  1  0  0  0
 22 23  1  0  0  0
 22 44  1  0  0  0
 22 45  1  0  0  0
 23 24  1  0  0  0
 23 46  1  0  0  0
 23 47  1  0  0  0
 24 25  1  0  0  0
 24 48  1  0  0  0
 24 49  1  0  0  0
 25 26  1  0  0  0
 25 50  1  0  0  0
 25 51  1  0  0  0
 26 52  1  0  0  0
 26 53  1  0  0  0
 26 54  1  0  0  0
M  CHG  4   1  -1   3  -1   7  -1  12   1
M  END
> <s_m_source_file>
../3wcb_ligand.sdf

> <i_m_source_file_index>
1

> <s_epik_input>
W09IXVAoPU8pKFtPSF0pQyhbT0hdKShQKD1PKShbT0hdKVtPSF0pW0NIMl1bbitdMVtjSF1uKFtjSF1bY0hdMSlbQ0gyXVtDSDJdW0NIMl1bQ0gyXVtDSDJdW0NIMl1bQ0gyXVtDSDJdW0NIMl1bQ0gzXQ==

> <s_epik_cmdline>
J2VwaWtfYXBwJywgJy1pbWFlJywgJ2xpZ2FuZF9wcm8ubWFlJywgJy1vbWFlJywgJ2xpZ2FuZF9wcmVwLm1hZScsICctbXMnLCAnMScsICctcGgnLCAnNycsICctcGh0JywgJzAuNScsICctbnQn

> <r_lp_tautomer_probability>
1

> <r_epik_Ionization_Penalty>
  0.1153

> <r_epik_Ionization_Penalty_Charging>
  0.1152

> <r_epik_Ionization_Penalty_Neutral>
  0.0001

> <r_epik_State_Penalty>
  0.1048

> <r_epik_Charging_Adjusted_Penalty>
0.220073125570439

> <i_epik_Tot_Q>
-2

> <i_epik_Tot_abs_Q>
4

$$$$
