3wcf_ligand
                    3D
 Schrodinger Suite 2020-3.
 53 53  0  0  1  0            999 V2000
  -16.4000   50.8790  -48.4570 O   0  5  0  0  0  0
  -15.6240   50.3950  -49.7820 P   0  0  0  0  0  0
  -14.4020   51.4200  -49.9960 O   0  5  0  0  0  0
  -16.5110   50.3120  -50.9630 O   0  0  0  0  0  0
  -14.8620   48.7770  -49.3670 C   0  0  2  0  0  0
  -13.8820   48.9520  -47.8210 P   0  0  0  0  0  0
  -14.9430   48.8940  -46.6120 O   0  5  0  0  0  0
  -12.9880   47.6190  -47.6910 O   0  0  0  0  0  0
  -13.0650   50.1850  -47.7970 O   0  0  0  0  0  0
  -13.9630   48.3550  -50.5300 C   0  0  0  0  0  0
  -13.8990   46.8810  -50.6250 N   0  3  0  0  0  0
  -12.8740   46.1320  -50.2190 C   0  0  0  0  0  0
  -14.9710   46.1000  -50.7100 C   0  0  0  0  0  0
  -14.6320   44.8820  -50.2980 C   0  0  0  0  0  0
  -13.3420   44.9160  -49.9670 N   0  0  0  0  0  0
  -12.5910   43.8400  -49.2830 C   0  0  0  0  0  0
  -11.8490   44.3460  -48.0450 C   0  0  0  0  0  0
  -12.7870   44.4400  -46.8390 C   0  0  0  0  0  0
  -12.0010   43.9510  -45.6190 C   0  0  0  0  0  0
  -12.9000   43.8490  -44.3870 C   0  0  0  0  0  0
  -12.0760   43.2970  -43.2200 C   0  0  0  0  0  0
  -12.9960   43.0680  -42.0200 C   0  0  0  0  0  0
  -13.3770   41.5920  -41.9030 C   0  0  0  0  0  0
  -12.6600   41.0110  -40.6830 C   0  0  0  0  0  0
  -13.0750   41.8040  -39.4400 C   0  0  0  0  0  0
  -15.5567   47.9243  -49.3471 H   0  0  0  0  0  0
  -13.4706   46.6305  -47.6951 H   0  0  0  0  0  0
  -14.3675   48.7569  -51.4707 H   0  0  0  0  0  0
  -12.9480   48.7476  -50.3700 H   0  0  0  0  0  0
  -11.8395   46.4588  -50.1132 H   0  0  0  0  0  0
  -15.9580   46.4053  -51.0575 H   0  0  0  0  0  0
  -15.2894   44.0144  -50.2414 H   0  0  0  0  0  0
  -13.2888   43.0520  -48.9633 H   0  0  0  0  0  0
  -11.8489   43.4142  -49.9743 H   0  0  0  0  0  0
  -11.0300   43.6538  -47.8000 H   0  0  0  0  0  0
  -11.4362   45.3452  -48.2478 H   0  0  0  0  0  0
  -13.1053   45.4841  -46.7026 H   0  0  0  0  0  0
  -13.6700   43.8070  -47.0110 H   0  0  0  0  0  0
  -11.5792   42.9570  -45.8289 H   0  0  0  0  0  0
  -11.1858   44.6566  -45.4011 H   0  0  0  0  0  0
  -13.2866   44.8467  -44.1316 H   0  0  0  0  0  0
  -13.7413   43.1737  -44.6019 H   0  0  0  0  0  0
  -11.6120   42.3449  -43.5168 H   0  0  0  0  0  0
  -11.2911   44.0193  -42.9513 H   0  0  0  0  0  0
  -12.4800   43.3754  -41.0985 H   0  0  0  0  0  0
  -13.9133   43.6627  -42.1424 H   0  0  0  0  0  0
  -14.4665   41.5032  -41.7800 H   0  0  0  0  0  0
  -13.0663   41.0597  -42.8141 H   0  0  0  0  0  0
  -12.9410   39.9545  -40.5612 H   0  0  0  0  0  0
  -11.5720   41.0868  -40.8265 H   0  0  0  0  0  0
  -12.5645   41.3939  -38.5561 H   0  0  0  0  0  0
  -14.1638   41.7276  -39.3030 H   0  0  0  0  0  0
  -12.7948   42.8599  -39.5683 H   0  0  0  0  0  0
  1  2  1  0  0  0
  2  3  1  0  0  0
  2  4  2  0  0  0
  2  5  1  0  0  0
  5  6  1  0  0  0
  5 10  1  0  0  0
  5 26  1  0  0  0
  6  7  1  0  0  0
  6  8  1  0  0  0
  6  9  2  0  0  0
  8 27  1  0  0  0
 10 11  1  0  0  0
 10 28  1  0  0  0
 10 29  1  0  0  0
 11 12  2  0  0  0
 11 13  1  0  0  0
 12 15  1  0  0  0
 12 30  1  0  0  0
 13 14  2  0  0  0
 13 31  1  0  0  0
 14 15  1  0  0  0
 14 32  1  0  0  0
 15 16  1  0  0  0
 16 17  1  0  0  0
 16 33  1  0  0  0
 16 34  1  0  0  0
 17 18  1  0  0  0
 17 35  1  0  0  0
 17 36  1  0  0  0
 18 19  1  0  0  0
 18 37  1  0  0  0
 18 38  1  0  0  0
 19 20  1  0  0  0
 19 39  1  0  0  0
 19 40  1  0  0  0
 20 21  1  0  0  0
 20 41  1  0  0  0
 20 42  1  0  0  0
 21 22  1  0  0  0
 21 43  1  0  0  0
 21 44  1  0  0  0
 22 23  1  0  0  0
 22 45  1  0  0  0
 22 46  1  0  0  0
 23 24  1  0  0  0
 23 47  1  0  0  0
 23 48  1  0  0  0
 24 25  1  0  0  0
 24 49  1  0  0  0
 24 50  1  0  0  0
 25 51  1  0  0  0
 25 52  1  0  0  0
 25 53  1  0  0  0
M  CHG  4   1  -1   3  -1   7  -1  11   1
M  END
> <s_m_source_file>
../3wcf_ligand.sdf

> <i_m_source_file_index>
1

> <s_epik_input>
W09IXVAoPU8pKFtPSF0pW0NIXShQKD1PKShbT0hdKVtPSF0pW0NIMl1bbitdMVtjSF1uKFtjSF1bY0hdMSlbQ0gyXVtDSDJdW0NIMl1bQ0gyXVtDSDJdW0NIMl1bQ0gyXVtDSDJdW0NIMl1bQ0gzXQ==

> <s_epik_cmdline>
J2VwaWtfYXBwJywgJy1pbWFlJywgJ2xpZ2FuZF9wcm8ubWFlJywgJy1vbWFlJywgJ2xpZ2FuZF9wcmVwLm1hZScsICctbXMnLCAnMScsICctcGgnLCAnNycsICctcGh0JywgJzAuNScsICctbnQn

> <r_lp_tautomer_probability>
1

> <r_epik_Ionization_Penalty>
  0.1830

> <r_epik_Ionization_Penalty_Charging>
  0.1829

> <r_epik_Ionization_Penalty_Neutral>
  0.0000

> <r_epik_State_Penalty>
  0.1724

> <r_epik_Charging_Adjusted_Penalty>
0.355366122329017

> <i_epik_Tot_Q>
-2

> <i_epik_Tot_abs_Q>
4

$$$$
