3wcg_ligand
                    3D
 Schrodinger Suite 2020-3.
 68 68  0  0  1  0            999 V2000
   15.2470  -18.7520  -14.6060 O   0  5  0  0  0  0
   13.9670  -17.8340  -14.2730 P   0  0  0  0  0  0
   12.7010  -18.5990  -14.9080 O   0  5  0  0  0  0
   14.1070  -16.4550  -14.7910 O   0  0  0  0  0  0
   13.7420  -17.9030  -12.4500 C   0  0  2  0  0  0
   14.7780  -16.6220  -11.6370 P   0  0  0  0  0  0
   13.9940  -15.2250  -11.8020 O   0  5  0  0  0  0
   14.7410  -16.9690  -10.0660 O   0  0  0  0  0  0
   16.1580  -16.5680  -12.1730 O   0  0  0  0  0  0
   14.1610  -19.2840  -11.9400 C   0  0  0  0  0  0
   13.0200  -20.2270  -11.9290 N   0  3  0  0  0  0
   12.7040  -21.0770  -12.9030 C   0  0  0  0  0  0
   12.1980  -20.4430  -10.9070 C   0  0  0  0  0  0
   11.3740  -21.4310  -11.2470 C   0  0  0  0  0  0
   11.6880  -21.8210  -12.4780 N   0  0  0  0  0  0
   11.0560  -22.9350  -13.2220 C   0  0  0  0  0  0
   10.2510  -22.4180  -14.4160 C   0  0  0  0  0  0
   10.5340  -23.2930  -15.6390 C   0  0  0  0  0  0
   11.4060  -22.5190  -16.6300 C   0  0  0  0  0  0
   12.8280  -23.0810  -16.6100 C   0  0  0  0  0  0
   13.8190  -21.9750  -16.9810 C   0  0  0  0  0  0
   14.9140  -22.5470  -17.8830 C   0  0  0  0  0  0
   15.5060  -21.4280  -18.7430 C   0  0  0  0  0  0
   15.3900  -21.8010  -20.2220 C   0  0  0  0  0  0
   15.4720  -20.5360  -21.0800 C   0  0  0  0  0  0
   15.3310  -20.9120  -22.5560 C   0  0  0  0  0  0
   16.4200  -20.2100  -23.3700 C   0  0  0  0  0  0
   16.3680  -20.6960  -24.8200 C   0  0  0  0  0  0
   16.5000  -19.5000  -25.7650 C   0  0  0  0  0  0
   16.5650  -19.9950  -27.2110 C   0  0  0  0  0  0
   12.6879  -17.8835  -12.1363 H   0  0  0  0  0  0
   13.7770  -17.0401   -9.5410 H   0  0  0  0  0  0
   14.9452  -19.6938  -12.5935 H   0  0  0  0  0  0
   14.5484  -19.1941  -10.9144 H   0  0  0  0  0  0
   13.1912  -21.1500  -13.8753 H   0  0  0  0  0  0
   12.1988  -19.9060   -9.9585 H   0  0  0  0  0  0
   10.5812  -21.8471  -10.6254 H   0  0  0  0  0  0
   11.8354  -23.6166  -13.5935 H   0  0  0  0  0  0
   10.3771  -23.4842  -12.5530 H   0  0  0  0  0  0
    9.1776  -22.4558  -14.1785 H   0  0  0  0  0  0
   10.5423  -21.3796  -14.6326 H   0  0  0  0  0  0
   11.0603  -24.2057  -15.3229 H   0  0  0  0  0  0
    9.5843  -23.5661  -16.1222 H   0  0  0  0  0  0
   10.9877  -22.6191  -17.6424 H   0  0  0  0  0  0
   11.4289  -21.4565  -16.3462 H   0  0  0  0  0  0
   13.0592  -23.4578  -15.6027 H   0  0  0  0  0  0
   12.9075  -23.9033  -17.3362 H   0  0  0  0  0  0
   13.2893  -21.1718  -17.5142 H   0  0  0  0  0  0
   14.2748  -21.5690  -16.0659 H   0  0  0  0  0  0
   15.7068  -22.9894  -17.2618 H   0  0  0  0  0  0
   14.4843  -23.3214  -18.5354 H   0  0  0  0  0  0
   14.9564  -20.4934  -18.5577 H   0  0  0  0  0  0
   16.5657  -21.2878  -18.4836 H   0  0  0  0  0  0
   16.2110  -22.4805  -20.4942 H   0  0  0  0  0  0
   14.4263  -22.3007  -20.3997 H   0  0  0  0  0  0
   14.6614  -19.8482  -20.7975 H   0  0  0  0  0  0
   16.4428  -20.0450  -20.9175 H   0  0  0  0  0  0
   15.4352  -22.0013  -22.6684 H   0  0  0  0  0  0
   14.3419  -20.5986  -22.9214 H   0  0  0  0  0  0
   16.2552  -19.1228  -23.3421 H   0  0  0  0  0  0
   17.4058  -20.4425  -22.9410 H   0  0  0  0  0  0
   17.1946  -21.3988  -25.0010 H   0  0  0  0  0  0
   15.4091  -21.2030  -25.0026 H   0  0  0  0  0  0
   15.6294  -18.8387  -25.6433 H   0  0  0  0  0  0
   17.4188  -18.9441  -25.5268 H   0  0  0  0  0  0
   16.6599  -19.1342  -27.8893 H   0  0  0  0  0  0
   15.6462  -20.5506  -27.4500 H   0  0  0  0  0  0
   17.4356  -20.6561  -27.3335 H   0  0  0  0  0  0
  1  2  1  0  0  0
  2  3  1  0  0  0
  2  4  2  0  0  0
  2  5  1  0  0  0
  5  6  1  0  0  0
  5 10  1  0  0  0
  5 31  1  0  0  0
  6  7  1  0  0  0
  6  8  1  0  0  0
  6  9  2  0  0  0
  8 32  1  0  0  0
 10 11  1  0  0  0
 10 33  1  0  0  0
 10 34  1  0  0  0
 11 12  2  0  0  0
 11 13  1  0  0  0
 12 15  1  0  0  0
 12 35  1  0  0  0
 13 14  2  0  0  0
 13 36  1  0  0  0
 14 15  1  0  0  0
 14 37  1  0  0  0
 15 16  1  0  0  0
 16 17  1  0  0  0
 16 38  1  0  0  0
 16 39  1  0  0  0
 17 18  1  0  0  0
 17 40  1  0  0  0
 17 41  1  0  0  0
 18 19  1  0  0  0
 18 42  1  0  0  0
 18 43  1  0  0  0
 19 20  1  0  0  0
 19 44  1  0  0  0
 19 45  1  0  0  0
 20 21  1  0  0  0
 20 46  1  0  0  0
 20 47  1  0  0  0
 21 22  1  0  0  0
 21 48  1  0  0  0
 21 49  1  0  0  0
 22 23  1  0  0  0
 22 50  1  0  0  0
 22 51  1  0  0  0
 23 24  1  0  0  0
 23 52  1  0  0  0
 23 53  1  0  0  0
 24 25  1  0  0  0
 24 54  1  0  0  0
 24 55  1  0  0  0
 25 26  1  0  0  0
 25 56  1  0  0  0
 25 57  1  0  0  0
 26 27  1  0  0  0
 26 58  1  0  0  0
 26 59  1  0  0  0
 27 28  1  0  0  0
 27 60  1  0  0  0
 27 61  1  0  0  0
 28 29  1  0  0  0
 28 62  1  0  0  0
 28 63  1  0  0  0
 29 30  1  0  0  0
 29 64  1  0  0  0
 29 65  1  0  0  0
 30 66  1  0  0  0
 30 67  1  0  0  0
 30 68  1  0  0  0
M  CHG  4   1  -1   3  -1   7  -1  11   1
M  END
> <s_m_source_file>
../3wcg_ligand.sdf

> <i_m_source_file_index>
1

> <s_epik_input>
W09IXVAoPU8pKFtPSF0pW0NIXShQKD1PKShbT0hdKVtPSF0pW0NIMl1bbitdMVtjSF1uKFtjSF1bY0hdMSlbQ0gyXVtDSDJdW0NIMl1bQ0gyXVtDSDJdW0NIMl1bQ0gyXVtDSDJdW0NIMl1bQ0gyXVtDSDJdW0NIMl1bQ0gyXVtDSDJdW0NIM10=

> <s_epik_cmdline>
J2VwaWtfYXBwJywgJy1pbWFlJywgJ2xpZ2FuZF9wcm8ubWFlJywgJy1vbWFlJywgJ2xpZ2FuZF9wcmVwLm1hZScsICctbXMnLCAnMScsICctcGgnLCAnNycsICctcGh0JywgJzAuNScsICctbnQn

> <r_lp_tautomer_probability>
1

> <r_epik_Ionization_Penalty>
  0.1830

> <r_epik_Ionization_Penalty_Charging>
  0.1829

> <r_epik_Ionization_Penalty_Neutral>
  0.0000

> <r_epik_State_Penalty>
  0.1724

> <r_epik_Charging_Adjusted_Penalty>
0.355366122329017

> <i_epik_Tot_Q>
-2

> <i_epik_Tot_abs_Q>
4

$$$$
