3wch_ligand
                    3D
 Schrodinger Suite 2020-3.
 54 54  0  0  1  0            999 V2000
  -12.5120   47.8440  -56.0390 O   0  5  0  0  0  0
  -12.5230   48.0560  -54.4430 P   0  0  0  0  0  0
  -11.5100   49.2740  -54.1580 O   0  5  0  0  0  0
  -12.1610   46.8260  -53.7050 O   0  0  0  0  0  0
  -14.2250   48.6860  -54.0140 C   0  0  1  0  0  0
  -14.7930   49.7950  -55.4070 P   0  0  0  0  0  0
  -16.0730   50.6090  -54.8660 O   0  5  0  0  0  0
  -13.6270   50.8880  -55.6080 O   0  0  0  0  0  0
  -15.0900   49.0480  -56.6470 O   0  0  0  0  0  0
  -15.1550   47.6450  -53.7080 O   0  0  0  0  0  0
  -14.0820   49.5550  -52.7610 C   0  0  0  0  0  0
  -13.3840   48.8360  -51.6670 N   0  3  0  0  0  0
  -13.8060   47.7540  -51.0170 C   0  0  0  0  0  0
  -12.2570   49.2400  -51.0890 C   0  0  0  0  0  0
  -11.9790   48.4070  -50.0900 C   0  0  0  0  0  0
  -12.9340   47.4820  -50.0480 N   0  0  0  0  0  0
  -12.9960   46.3280  -49.1190 C   0  0  0  0  0  0
  -13.6870   46.7090  -47.8070 C   0  0  0  0  0  0
  -13.8830   45.5030  -46.8830 C   0  0  0  0  0  0
  -12.5590   44.7630  -46.6820 C   0  0  0  0  0  0
  -12.3380   44.3670  -45.2180 C   0  0  0  0  0  0
  -13.4480   43.4810  -44.6450 C   0  0  0  0  0  0
  -13.0040   42.9890  -43.2650 C   0  0  0  0  0  0
  -14.0870   42.1670  -42.5610 C   0  0  0  0  0  0
  -13.5020   41.6350  -41.2490 C   0  0  0  0  0  0
  -14.6080   41.1070  -40.3330 C   0  0  0  0  0  0
  -13.3081   51.5140  -54.7616 H   0  0  0  0  0  0
  -15.4120   46.8953  -54.4708 H   0  0  0  0  0  0
  -13.5026   50.4577  -53.0050 H   0  0  0  0  0  0
  -15.0798   49.8460  -52.4007 H   0  0  0  0  0  0
  -14.7103   47.1876  -51.2396 H   0  0  0  0  0  0
  -11.6629   50.1052  -51.3832 H   0  0  0  0  0  0
  -11.1194   48.4711  -49.4228 H   0  0  0  0  0  0
  -13.5615   45.5095  -49.5883 H   0  0  0  0  0  0
  -11.9758   45.9853  -48.8913 H   0  0  0  0  0  0
  -13.0762   47.4519  -47.2732 H   0  0  0  0  0  0
  -14.6769   47.1364  -48.0246 H   0  0  0  0  0  0
  -14.2530   45.8463  -45.9056 H   0  0  0  0  0  0
  -14.6140   44.8134  -47.3302 H   0  0  0  0  0  0
  -12.5555   43.8461  -47.2897 H   0  0  0  0  0  0
  -11.7260   45.4112  -46.9916 H   0  0  0  0  0  0
  -11.3944   43.8089  -45.1276 H   0  0  0  0  0  0
  -12.2890   45.2732  -44.5964 H   0  0  0  0  0  0
  -14.3754   44.0660  -44.5571 H   0  0  0  0  0  0
  -13.6165   42.6250  -45.3150 H   0  0  0  0  0  0
  -12.1119   42.3543  -43.3716 H   0  0  0  0  0  0
  -12.7653   43.8528  -42.6271 H   0  0  0  0  0  0
  -14.9579   42.8070  -42.3560 H   0  0  0  0  0  0
  -14.3908   41.3305  -43.2075 H   0  0  0  0  0  0
  -12.8010   40.8155  -41.4658 H   0  0  0  0  0  0
  -12.9694   42.4454  -40.7297 H   0  0  0  0  0  0
  -14.1630   40.7315  -39.3997 H   0  0  0  0  0  0
  -15.1438   40.2900  -40.8384 H   0  0  0  0  0  0
  -15.3123   41.9199  -40.1024 H   0  0  0  0  0  0
  1  2  1  0  0  0
  2  3  1  0  0  0
  2  4  2  0  0  0
  2  5  1  0  0  0
  5  6  1  0  0  0
  5 10  1  0  0  0
  5 11  1  0  0  0
  6  7  1  0  0  0
  6  8  1  0  0  0
  6  9  2  0  0  0
  8 27  1  0  0  0
 10 28  1  0  0  0
 11 12  1  0  0  0
 11 29  1  0  0  0
 11 30  1  0  0  0
 12 13  2  0  0  0
 12 14  1  0  0  0
 13 16  1  0  0  0
 13 31  1  0  0  0
 14 15  2  0  0  0
 14 32  1  0  0  0
 15 16  1  0  0  0
 15 33  1  0  0  0
 16 17  1  0  0  0
 17 18  1  0  0  0
 17 34  1  0  0  0
 17 35  1  0  0  0
 18 19  1  0  0  0
 18 36  1  0  0  0
 18 37  1  0  0  0
 19 20  1  0  0  0
 19 38  1  0  0  0
 19 39  1  0  0  0
 20 21  1  0  0  0
 20 40  1  0  0  0
 20 41  1  0  0  0
 21 22  1  0  0  0
 21 42  1  0  0  0
 21 43  1  0  0  0
 22 23  1  0  0  0
 22 44  1  0  0  0
 22 45  1  0  0  0
 23 24  1  0  0  0
 23 46  1  0  0  0
 23 47  1  0  0  0
 24 25  1  0  0  0
 24 48  1  0  0  0
 24 49  1  0  0  0
 25 26  1  0  0  0
 25 50  1  0  0  0
 25 51  1  0  0  0
 26 52  1  0  0  0
 26 53  1  0  0  0
 26 54  1  0  0  0
M  CHG  4   1  -1   3  -1   7  -1  12   1
M  END
> <s_m_source_file>
../3wch_ligand.sdf

> <i_m_source_file_index>
1

> <s_epik_input>
W09IXVAoPU8pKFtPSF0pQyhbT0hdKShQKD1PKShbT0hdKVtPSF0pW0NIMl1bbitdMVtjSF1uKFtjSF1bY0hdMSlbQ0gyXVtDSDJdW0NIMl1bQ0gyXVtDSDJdW0NIMl1bQ0gyXVtDSDJdW0NIMl1bQ0gzXQ==

> <s_epik_cmdline>
J2VwaWtfYXBwJywgJy1pbWFlJywgJ2xpZ2FuZF9wcm8ubWFlJywgJy1vbWFlJywgJ2xpZ2FuZF9wcmVwLm1hZScsICctbXMnLCAnMScsICctcGgnLCAnNycsICctcGh0JywgJzAuNScsICctbnQn

> <r_lp_tautomer_probability>
1

> <r_epik_Ionization_Penalty>
  0.1153

> <r_epik_Ionization_Penalty_Charging>
  0.1152

> <r_epik_Ionization_Penalty_Neutral>
  0.0001

> <r_epik_State_Penalty>
  0.1048

> <r_epik_Charging_Adjusted_Penalty>
0.220073125570439

> <i_epik_Tot_Q>
-2

> <i_epik_Tot_abs_Q>
4

$$$$
