3wci_ligand
                    3D
 Schrodinger Suite 2020-3.
 69 69  0  0  1  0            999 V2000
  -20.8630   43.9190  -53.4910 O   0  5  0  0  0  0
  -20.2270   45.3760  -53.2270 P   0  0  0  0  0  0
  -18.8050   45.0150  -52.5640 O   0  5  0  0  0  0
  -21.0250   46.2460  -52.3300 O   0  0  0  0  0  0
  -19.8430   46.1370  -54.8980 C   0  0  1  0  0  0
  -20.1840   44.9780  -56.3270 P   0  0  0  0  0  0
  -19.5930   45.7710  -57.6000 O   0  5  0  0  0  0
  -19.2210   43.7180  -56.0440 O   0  0  0  0  0  0
  -21.6040   44.5980  -56.5250 O   0  0  0  0  0  0
  -20.3850   47.4410  -55.1140 O   0  0  0  0  0  0
  -18.3230   46.3310  -54.9060 C   0  0  0  0  0  0
  -17.9090   47.5000  -54.0940 N   0  3  0  0  0  0
  -18.4890   48.0680  -53.0370 C   0  0  0  0  0  0
  -16.8070   48.1900  -54.3700 C   0  0  0  0  0  0
  -16.7100   49.1860  -53.4950 C   0  0  0  0  0  0
  -17.7610   49.1220  -52.6810 N   0  0  0  0  0  0
  -18.1910   50.2270  -51.7930 C   0  0  0  0  0  0
  -17.8490   49.9620  -50.3250 C   0  0  0  0  0  0
  -16.3780   49.5580  -50.2180 C   0  0  0  0  0  0
  -15.9150   49.7110  -48.7680 C   0  0  0  0  0  0
  -14.4740   49.2140  -48.6420 C   0  0  0  0  0  0
  -14.4710   47.6850  -48.6170 C   0  0  0  0  0  0
  -13.0270   47.1800  -48.6200 C   0  0  0  0  0  0
  -12.9910   45.7200  -48.1640 C   0  0  0  0  0  0
  -13.4190   45.6600  -46.6960 C   0  0  0  0  0  0
  -13.3610   44.2240  -46.1730 C   0  0  0  0  0  0
  -13.7570   44.2410  -44.6950 C   0  0  0  0  0  0
  -13.7870   42.8220  -44.1250 C   0  0  0  0  0  0
  -14.2040   42.9100  -42.6550 C   0  0  0  0  0  0
  -14.2660   41.5170  -42.0280 C   0  0  0  0  0  0
  -14.6450   41.6550  -40.5520 C   0  0  0  0  0  0
  -18.1444   43.8742  -55.8810 H   0  0  0  0  0  0
  -21.4750   47.5840  -55.1532 H   0  0  0  0  0  0
  -17.8369   45.4353  -54.4920 H   0  0  0  0  0  0
  -17.9791   46.4906  -55.9386 H   0  0  0  0  0  0
  -19.4021   47.7274  -52.5489 H   0  0  0  0  0  0
  -16.1040   47.9760  -55.1751 H   0  0  0  0  0  0
  -15.9102   49.9253  -53.4518 H   0  0  0  0  0  0
  -17.6889   51.1576  -52.0962 H   0  0  0  0  0  0
  -19.2806   50.3564  -51.8700 H   0  0  0  0  0  0
  -18.0254   50.8747  -49.7369 H   0  0  0  0  0  0
  -18.4842   49.1501  -49.9413 H   0  0  0  0  0  0
  -16.2616   48.5105  -50.5328 H   0  0  0  0  0  0
  -15.7716   50.2057  -50.8682 H   0  0  0  0  0  0
  -15.9657   50.7705  -48.4768 H   0  0  0  0  0  0
  -16.5677   49.1183  -48.1102 H   0  0  0  0  0  0
  -13.8867   49.5707  -49.5010 H   0  0  0  0  0  0
  -14.0332   49.5997  -47.7109 H   0  0  0  0  0  0
  -14.9818   47.3322  -47.7089 H   0  0  0  0  0  0
  -14.9958   47.3027  -49.5049 H   0  0  0  0  0  0
  -12.6145   47.2549  -49.6370 H   0  0  0  0  0  0
  -12.4232   47.7916  -47.9335 H   0  0  0  0  0  0
  -13.6811   45.1260  -48.7812 H   0  0  0  0  0  0
  -11.9697   45.3266  -48.2740 H   0  0  0  0  0  0
  -12.7453   46.2854  -46.0918 H   0  0  0  0  0  0
  -14.4497   46.0318  -46.5991 H   0  0  0  0  0  0
  -14.0599   43.5967  -46.7458 H   0  0  0  0  0  0
  -12.3392   43.8331  -46.2875 H   0  0  0  0  0  0
  -13.0271   44.8363  -44.1267 H   0  0  0  0  0  0
  -14.7567   44.6874  -44.5883 H   0  0  0  0  0  0
  -14.5109   42.2155  -44.6891 H   0  0  0  0  0  0
  -12.7869   42.3717  -44.2094 H   0  0  0  0  0  0
  -13.4721   43.5171  -42.1020 H   0  0  0  0  0  0
  -15.1972   43.3774  -42.5829 H   0  0  0  0  0  0
  -15.0217   40.9127  -42.5513 H   0  0  0  0  0  0
  -13.2830   41.0312  -42.1159 H   0  0  0  0  0  0
  -14.6924   40.6575  -40.0908 H   0  0  0  0  0  0
  -15.6269   42.1441  -40.4698 H   0  0  0  0  0  0
  -13.8881   42.2627  -40.0344 H   0  0  0  0  0  0
  1  2  1  0  0  0
  2  3  1  0  0  0
  2  4  2  0  0  0
  2  5  1  0  0  0
  5  6  1  0  0  0
  5 10  1  0  0  0
  5 11  1  0  0  0
  6  7  1  0  0  0
  6  8  1  0  0  0
  6  9  2  0  0  0
  8 32  1  0  0  0
 10 33  1  0  0  0
 11 12  1  0  0  0
 11 34  1  0  0  0
 11 35  1  0  0  0
 12 13  2  0  0  0
 12 14  1  0  0  0
 13 16  1  0  0  0
 13 36  1  0  0  0
 14 15  2  0  0  0
 14 37  1  0  0  0
 15 16  1  0  0  0
 15 38  1  0  0  0
 16 17  1  0  0  0
 17 18  1  0  0  0
 17 39  1  0  0  0
 17 40  1  0  0  0
 18 19  1  0  0  0
 18 41  1  0  0  0
 18 42  1  0  0  0
 19 20  1  0  0  0
 19 43  1  0  0  0
 19 44  1  0  0  0
 20 21  1  0  0  0
 20 45  1  0  0  0
 20 46  1  0  0  0
 21 22  1  0  0  0
 21 47  1  0  0  0
 21 48  1  0  0  0
 22 23  1  0  0  0
 22 49  1  0  0  0
 22 50  1  0  0  0
 23 24  1  0  0  0
 23 51  1  0  0  0
 23 52  1  0  0  0
 24 25  1  0  0  0
 24 53  1  0  0  0
 24 54  1  0  0  0
 25 26  1  0  0  0
 25 55  1  0  0  0
 25 56  1  0  0  0
 26 27  1  0  0  0
 26 57  1  0  0  0
 26 58  1  0  0  0
 27 28  1  0  0  0
 27 59  1  0  0  0
 27 60  1  0  0  0
 28 29  1  0  0  0
 28 61  1  0  0  0
 28 62  1  0  0  0
 29 30  1  0  0  0
 29 63  1  0  0  0
 29 64  1  0  0  0
 30 31  1  0  0  0
 30 65  1  0  0  0
 30 66  1  0  0  0
 31 67  1  0  0  0
 31 68  1  0  0  0
 31 69  1  0  0  0
M  CHG  4   1  -1   3  -1   7  -1  12   1
M  END
> <s_m_source_file>
../3wci_ligand.sdf

> <i_m_source_file_index>
1

> <s_epik_input>
W09IXVAoPU8pKFtPSF0pQyhbT0hdKShQKD1PKShbT0hdKVtPSF0pW0NIMl1bbitdMVtjSF1uKFtjSF1bY0hdMSlbQ0gyXVtDSDJdW0NIMl1bQ0gyXVtDSDJdW0NIMl1bQ0gyXVtDSDJdW0NIMl1bQ0gyXVtDSDJdW0NIMl1bQ0gyXVtDSDJdW0NIM10=

> <s_epik_cmdline>
J2VwaWtfYXBwJywgJy1pbWFlJywgJ2xpZ2FuZF9wcm8ubWFlJywgJy1vbWFlJywgJ2xpZ2FuZF9wcmVwLm1hZScsICctbXMnLCAnMScsICctcGgnLCAnNycsICctcGh0JywgJzAuNScsICctbnQn

> <r_lp_tautomer_probability>
1

> <r_epik_Ionization_Penalty>
  0.1153

> <r_epik_Ionization_Penalty_Charging>
  0.1152

> <r_epik_Ionization_Penalty_Neutral>
  0.0001

> <r_epik_State_Penalty>
  0.1048

> <r_epik_Charging_Adjusted_Penalty>
0.220073125570439

> <i_epik_Tot_Q>
-2

> <i_epik_Tot_abs_Q>
4

$$$$
