3wcl_ligand
                    3D
 Schrodinger Suite 2020-3.
 68 68  0  0  1  0            999 V2000
  -19.6040   43.6550  -53.5180 O   0  5  0  0  0  0
  -20.3370   45.0050  -53.0370 P   0  0  0  0  0  0
  -20.2960   44.9800  -51.4270 O   0  5  0  0  0  0
  -21.7160   45.1050  -53.5650 O   0  0  0  0  0  0
  -19.2460   46.3870  -53.5630 C   0  0  2  0  0  0
  -18.9900   46.2320  -55.3760 P   0  0  0  0  0  0
  -19.9080   47.3460  -56.0880 O   0  5  0  0  0  0
  -17.4640   46.6660  -55.6470 O   0  0  0  0  0  0
  -19.2830   44.8670  -55.8650 O   0  0  0  0  0  0
  -17.9020   46.2560  -52.8400 C   0  0  0  0  0  0
  -17.1090   47.5070  -52.8610 N   0  3  0  0  0  0
  -17.1940   48.4730  -51.9450 C   0  0  0  0  0  0
  -16.1460   47.8350  -53.7160 C   0  0  0  0  0  0
  -15.6420   49.0080  -53.3400 C   0  0  0  0  0  0
  -16.3000   49.4030  -52.2500 N   0  0  0  0  0  0
  -16.1670   50.7230  -51.5920 C   0  0  0  0  0  0
  -15.2580   50.6350  -50.3650 C   0  0  0  0  0  0
  -15.8710   49.6830  -49.3350 C   0  0  0  0  0  0
  -14.9760   49.6400  -48.0980 C   0  0  0  0  0  0
  -13.6610   48.9270  -48.4310 C   0  0  0  0  0  0
  -13.8720   47.4160  -48.3520 C   0  0  0  0  0  0
  -12.5680   46.6870  -48.6950 C   0  0  0  0  0  0
  -12.6640   45.2260  -48.2530 C   0  0  0  0  0  0
  -12.8100   45.1850  -46.7280 C   0  0  0  0  0  0
  -12.9900   43.7510  -46.2270 C   0  0  0  0  0  0
  -13.2500   43.7830  -44.7190 C   0  0  0  0  0  0
  -13.5330   42.3710  -44.2000 C   0  0  0  0  0  0
  -13.7760   42.4270  -42.6910 C   0  0  0  0  0  0
  -14.0250   41.0160  -42.1530 C   0  0  0  0  0  0
  -14.1830   41.0760  -40.6330 C   0  0  0  0  0  0
  -19.5515   47.3881  -53.2245 H   0  0  0  0  0  0
  -17.1106   47.6592  -55.3329 H   0  0  0  0  0  0
  -18.0765   45.9887  -51.7873 H   0  0  0  0  0  0
  -17.3009   45.4713  -53.3227 H   0  0  0  0  0  0
  -17.8775   48.4939  -51.0961 H   0  0  0  0  0  0
  -15.8249   47.2462  -54.5752 H   0  0  0  0  0  0
  -14.8354   49.5490  -53.8348 H   0  0  0  0  0  0
  -15.7338   51.4440  -52.3008 H   0  0  0  0  0  0
  -17.1588   51.0746  -51.2716 H   0  0  0  0  0  0
  -14.2699   50.2577  -50.6671 H   0  0  0  0  0  0
  -15.1480   51.6339  -49.9177 H   0  0  0  0  0  0
  -16.8723   50.0417  -49.0545 H   0  0  0  0  0  0
  -15.9507   48.6753  -49.7689 H   0  0  0  0  0  0
  -14.7588   50.6662  -47.7668 H   0  0  0  0  0  0
  -15.4901   49.0957  -47.2921 H   0  0  0  0  0  0
  -13.3421   49.2017  -49.4473 H   0  0  0  0  0  0
  -12.8873   49.2290  -47.7098 H   0  0  0  0  0  0
  -14.1830   47.1420  -47.3331 H   0  0  0  0  0  0
  -14.6530   47.1170  -49.0666 H   0  0  0  0  0  0
  -12.3990   46.7295  -49.7811 H   0  0  0  0  0  0
  -11.7290   47.1716  -48.1741 H   0  0  0  0  0  0
  -13.5394   44.7567  -48.7257 H   0  0  0  0  0  0
  -11.7523   44.6904  -48.5564 H   0  0  0  0  0  0
  -11.9082   45.6086  -46.2618 H   0  0  0  0  0  0
  -13.6891   45.7741  -46.4278 H   0  0  0  0  0  0
  -13.8440   43.2871  -46.7423 H   0  0  0  0  0  0
  -12.0778   43.1726  -46.4353 H   0  0  0  0  0  0
  -12.3658   44.1853  -44.2029 H   0  0  0  0  0  0
  -14.1194   44.4238  -44.5103 H   0  0  0  0  0  0
  -14.4248   41.9677  -44.7021 H   0  0  0  0  0  0
  -12.6693   41.7231  -44.4103 H   0  0  0  0  0  0
  -12.8936   42.8555  -42.1932 H   0  0  0  0  0  0
  -14.6549   43.0553  -42.4842 H   0  0  0  0  0  0
  -14.9423   40.6086  -42.6030 H   0  0  0  0  0  0
  -13.1725   40.3700  -42.4097 H   0  0  0  0  0  0
  -14.3622   40.0633  -40.2427 H   0  0  0  0  0  0
  -15.0352   41.7232  -40.3782 H   0  0  0  0  0  0
  -13.2653   41.4846  -40.1848 H   0  0  0  0  0  0
  1  2  1  0  0  0
  2  3  1  0  0  0
  2  4  2  0  0  0
  2  5  1  0  0  0
  5  6  1  0  0  0
  5 10  1  0  0  0
  5 31  1  0  0  0
  6  7  1  0  0  0
  6  8  1  0  0  0
  6  9  2  0  0  0
  8 32  1  0  0  0
 10 11  1  0  0  0
 10 33  1  0  0  0
 10 34  1  0  0  0
 11 12  2  0  0  0
 11 13  1  0  0  0
 12 15  1  0  0  0
 12 35  1  0  0  0
 13 14  2  0  0  0
 13 36  1  0  0  0
 14 15  1  0  0  0
 14 37  1  0  0  0
 15 16  1  0  0  0
 16 17  1  0  0  0
 16 38  1  0  0  0
 16 39  1  0  0  0
 17 18  1  0  0  0
 17 40  1  0  0  0
 17 41  1  0  0  0
 18 19  1  0  0  0
 18 42  1  0  0  0
 18 43  1  0  0  0
 19 20  1  0  0  0
 19 44  1  0  0  0
 19 45  1  0  0  0
 20 21  1  0  0  0
 20 46  1  0  0  0
 20 47  1  0  0  0
 21 22  1  0  0  0
 21 48  1  0  0  0
 21 49  1  0  0  0
 22 23  1  0  0  0
 22 50  1  0  0  0
 22 51  1  0  0  0
 23 24  1  0  0  0
 23 52  1  0  0  0
 23 53  1  0  0  0
 24 25  1  0  0  0
 24 54  1  0  0  0
 24 55  1  0  0  0
 25 26  1  0  0  0
 25 56  1  0  0  0
 25 57  1  0  0  0
 26 27  1  0  0  0
 26 58  1  0  0  0
 26 59  1  0  0  0
 27 28  1  0  0  0
 27 60  1  0  0  0
 27 61  1  0  0  0
 28 29  1  0  0  0
 28 62  1  0  0  0
 28 63  1  0  0  0
 29 30  1  0  0  0
 29 64  1  0  0  0
 29 65  1  0  0  0
 30 66  1  0  0  0
 30 67  1  0  0  0
 30 68  1  0  0  0
M  CHG  4   1  -1   3  -1   7  -1  11   1
M  END
> <s_m_source_file>
../3wcl_ligand.sdf

> <i_m_source_file_index>
1

> <s_epik_input>
W09IXVAoPU8pKFtPSF0pW0NIXShQKD1PKShbT0hdKVtPSF0pW0NIMl1bbitdMVtjSF1uKFtjSF1bY0hdMSlbQ0gyXVtDSDJdW0NIMl1bQ0gyXVtDSDJdW0NIMl1bQ0gyXVtDSDJdW0NIMl1bQ0gyXVtDSDJdW0NIMl1bQ0gyXVtDSDJdW0NIM10=

> <s_epik_cmdline>
J2VwaWtfYXBwJywgJy1pbWFlJywgJ2xpZ2FuZF9wcm8ubWFlJywgJy1vbWFlJywgJ2xpZ2FuZF9wcmVwLm1hZScsICctbXMnLCAnMScsICctcGgnLCAnNycsICctcGh0JywgJzAuNScsICctbnQn

> <r_lp_tautomer_probability>
1

> <r_epik_Ionization_Penalty>
  0.1830

> <r_epik_Ionization_Penalty_Charging>
  0.1829

> <r_epik_Ionization_Penalty_Neutral>
  0.0000

> <r_epik_State_Penalty>
  0.1724

> <r_epik_Charging_Adjusted_Penalty>
0.355366122329017

> <i_epik_Tot_Q>
-2

> <i_epik_Tot_abs_Q>
4

$$$$
