3wd2_ligand
                    3D
 Schrodinger Suite 2020-3.
 67 68  0  0  1  0            999 V2000
  -20.5830   -7.0540  -31.3050 C   0  0  0  0  0  0
  -21.0110   -6.1550  -30.2030 N   0  0  0  0  0  0
  -20.3360   -5.0190  -29.9600 C   0  0  0  0  0  0
  -19.3410   -4.6340  -30.5960 O   0  0  0  0  0  0
  -20.8010   -4.2960  -28.9120 N   0  3  0  0  0  0
  -20.3210   -3.1210  -28.4650 C   0  0  0  0  0  0
  -19.2580   -2.4960  -29.0320 N   0  0  0  0  0  0
  -20.9510   -2.6270  -27.3870 N   0  0  0  0  0  0
  -20.5680   -1.4040  -26.6610 C   0  0  0  0  0  0
  -20.7970   -0.2260  -27.5600 C   0  0  0  0  0  0
  -21.6240    0.8740  -26.9100 C   0  0  0  0  0  0
  -21.8650    1.8750  -28.0350 C   0  0  2  0  0  0
  -20.9330    1.4300  -29.1110 N   0  0  0  0  0  0
  -20.7810    1.9630  -30.3190 C   0  0  0  0  0  0
  -21.3870    2.9630  -30.6930 O   0  0  0  0  0  0
  -19.7510    1.2290  -31.2310 C   0  0  0  0  0  0
  -19.4750    2.0530  -32.4260 N   0  0  0  0  0  0
  -19.2490    1.5140  -33.4150 N   0  0  0  0  0  0
  -18.9220    1.1750  -34.4680 N   0  0  0  0  0  0
  -21.5790    3.2950  -27.5460 C   0  0  0  0  0  0
  -20.4700    3.7920  -27.7460 O   0  0  0  0  0  0
  -22.5810    3.9460  -26.9280 N   0  0  0  0  0  0
  -22.3730    5.3460  -26.4530 C   0  0  0  0  0  0
  -21.7520    6.2110  -27.5890 C   0  0  0  0  0  0
  -21.0120    7.3600  -27.2970 C   0  0  0  0  0  0
  -20.4460    8.1030  -28.3490 C   0  0  0  0  0  0
  -20.6150    7.7320  -29.6870 C   0  0  0  0  0  0
  -21.3550    6.5920  -29.9900 C   0  0  0  0  0  0
  -21.9120    5.8470  -28.9380 C   0  0  0  0  0  0
  -23.8980    3.3130  -26.6770 C   0  0  0  0  0  0
  -24.9340    3.4760  -27.8270 C   0  0  0  0  0  0
  -24.5470    3.5420  -29.1720 C   0  0  0  0  0  0
  -25.5070    3.6770  -30.1840 C   0  0  0  0  0  0
  -26.8630    3.7410  -29.8630 C   0  0  0  0  0  0
  -27.2620    3.6710  -28.5290 C   0  0  0  0  0  0
  -26.3010    3.5370  -27.5200 C   0  0  0  0  0  0
  -21.2526   -7.9257  -31.3481 H   0  0  0  0  0  0
  -19.5522   -7.3921  -31.1230 H   0  0  0  0  0  0
  -20.6273   -6.5101  -32.2601 H   0  0  0  0  0  0
  -21.8816   -6.4189  -29.5846 H   0  0  0  0  0  0
  -18.7694   -2.9337  -29.9150 H   0  0  0  0  0  0
  -21.8183   -3.2157  -27.0535 H   0  0  0  0  0  0
  -21.1822   -1.3088  -25.7535 H   0  0  0  0  0  0
  -19.5059   -1.4615  -26.3805 H   0  0  0  0  0  0
  -19.8288    0.2114  -27.8450 H   0  0  0  0  0  0
  -21.3319   -0.5530  -28.4638 H   0  0  0  0  0  0
  -22.5636    0.4488  -26.5274 H   0  0  0  0  0  0
  -21.0564    1.3166  -26.0782 H   0  0  0  0  0  0
  -22.8969    1.8934  -28.4155 H   0  0  0  0  0  0
  -20.2711    0.5675  -28.9434 H   0  0  0  0  0  0
  -18.8167    1.0681  -30.6732 H   0  0  0  0  0  0
  -20.1637    0.2582  -31.5427 H   0  0  0  0  0  0
  -23.3393    5.7800  -26.1566 H   0  0  0  0  0  0
  -21.6921    5.3428  -25.5891 H   0  0  0  0  0  0
  -20.8746    7.6776  -26.2634 H   0  0  0  0  0  0
  -19.8599    8.9918  -28.1151 H   0  0  0  0  0  0
  -20.1721    8.3290  -30.4842 H   0  0  0  0  0  0
  -21.4993    6.2834  -31.0254 H   0  0  0  0  0  0
  -22.4896    4.9537  -29.1757 H   0  0  0  0  0  0
  -23.7623    2.2320  -26.5252 H   0  0  0  0  0  0
  -24.3521    3.7553  -25.7780 H   0  0  0  0  0  0
  -23.4902    3.4879  -29.4335 H   0  0  0  0  0  0
  -25.1928    3.7322  -31.2263 H   0  0  0  0  0  0
  -27.6077    3.8453  -30.6521 H   0  0  0  0  0  0
  -28.3202    3.7205  -28.2722 H   0  0  0  0  0  0
  -26.6202    3.4792  -26.4794 H   0  0  0  0  0  0
  -21.6598   -4.6613  -28.3297 H   0  0  0  0  0  0
  1  2  1  0  0  0
  1 37  1  0  0  0
  1 38  1  0  0  0
  1 39  1  0  0  0
  2  3  1  0  0  0
  2 40  1  0  0  0
  3  4  2  0  0  0
  3  5  1  0  0  0
  5  6  1  0  0  0
  5 67  1  0  0  0
  6  7  2  0  0  0
  6  8  1  0  0  0
  7 41  1  0  0  0
  8  9  1  0  0  0
  8 42  1  0  0  0
  9 10  1  0  0  0
  9 43  1  0  0  0
  9 44  1  0  0  0
 10 11  1  0  0  0
 10 45  1  0  0  0
 10 46  1  0  0  0
 11 12  1  0  0  0
 11 47  1  0  0  0
 11 48  1  0  0  0
 12 13  1  0  0  0
 12 20  1  0  0  0
 12 49  1  0  0  0
 13 14  1  0  0  0
 13 50  1  0  0  0
 14 15  2  0  0  0
 14 16  1  0  0  0
 16 17  1  0  0  0
 16 51  1  0  0  0
 16 52  1  0  0  0
 17 18  2  0  0  0
 18 19  3  0  0  0
 20 21  2  0  0  0
 20 22  1  0  0  0
 22 23  1  0  0  0
 22 30  1  0  0  0
 23 24  1  0  0  0
 23 53  1  0  0  0
 23 54  1  0  0  0
 24 25  2  0  0  0
 24 29  1  0  0  0
 25 26  1  0  0  0
 25 55  1  0  0  0
 26 27  2  0  0  0
 26 56  1  0  0  0
 27 28  1  0  0  0
 27 57  1  0  0  0
 28 29  2  0  0  0
 28 58  1  0  0  0
 29 59  1  0  0  0
 30 31  1  0  0  0
 30 60  1  0  0  0
 30 61  1  0  0  0
 31 32  2  0  0  0
 31 36  1  0  0  0
 32 33  1  0  0  0
 32 62  1  0  0  0
 33 34  2  0  0  0
 33 63  1  0  0  0
 34 35  1  0  0  0
 34 64  1  0  0  0
 35 36  2  0  0  0
 35 65  1  0  0  0
 36 66  1  0  0  0
M  CHG  1   5   1
M  END
> <s_m_source_file>
../3wd2_ligand.sdf

> <i_m_source_file_index>
1

> <s_epik_input>
W0NIM11bTkhdQyg9TylbTkhdL0MoPU5cW0hdKVtOSF1bQ0gyXVtDSDJdW0NIMl1bQ0BIXShbTkhdQyg9TylbQ0gyXU49TiNOKUMoPU8pTihbQ0gyXWMxW2NIXVtjSF1bY0hdW2NIXVtjSF0xKVtDSDJdYzJbY0hdW2NIXVtjSF1bY0hdW2NIXTI=

> <s_epik_cmdline>
J2VwaWtfYXBwJywgJy1pbWFlJywgJ2xpZ2FuZF9wcm8ubWFlJywgJy1vbWFlJywgJ2xpZ2FuZF9wcmVwLm1hZScsICctbXMnLCAnMScsICctcGgnLCAnNycsICctcGh0JywgJzAuNScsICctbnQn

> <r_epik_Ionization_Penalty>
  0.0000

> <r_epik_Ionization_Penalty_Charging>
  0.0000

> <r_epik_Ionization_Penalty_Neutral>
  0.0000

> <r_epik_State_Penalty>
  0.0357

> <r_epik_Charging_Adjusted_Penalty>
0.0357265642839832

> <i_epik_Tot_Q>
1

> <i_epik_Tot_abs_Q>
1

> <s_epik_Chemistry_Notes>
This compound has an imine and may undergo hydrolysis.

$$$$
