3wd9_ligand
                    3D
 Schrodinger Suite 2020-3.
 58 60  0  0  1  0            999 V2000
   27.8840   19.0800  -16.3670 C   0  0  0  0  0  0
   27.8150   19.5120  -17.6410 N   0  0  0  0  0  0
   26.6090   19.4440  -18.2290 C   0  0  0  0  0  0
   25.5110   18.9730  -17.6210 N   0  0  0  0  0  0
   25.5830   18.5420  -16.3490 C   0  0  0  0  0  0
   26.7970   18.5830  -15.6680 C   0  0  0  0  0  0
   26.4600   19.9230  -19.6170 C   0  0  0  0  0  0
   27.4330   20.6960  -20.2310 C   0  0  0  0  0  0
   27.3200   21.1540  -21.5320 C   0  0  0  0  0  0
   26.1980   20.8510  -22.2770 C   0  0  0  0  0  0
   25.2080   20.0850  -21.6950 C   0  0  0  0  0  0
   25.3450   19.6320  -20.3910 C   0  0  0  0  0  0
   24.4020   18.0640  -15.7270 N   0  0  0  0  0  0
   23.2270   17.7140  -16.4590 C   0  0  0  0  0  0
   22.6100   16.4970  -16.2770 C   0  0  0  0  0  0
   21.4710   16.1360  -16.9720 C   0  0  0  0  0  0
   20.9240   17.0090  -17.8830 C   0  0  0  0  0  0
   21.5240   18.2310  -18.0630 C   0  0  0  0  0  0
   22.6500   18.5780  -17.3610 C   0  0  0  0  0  0
   19.7000   16.7060  -18.6780 C   0  0  0  0  0  0
   19.9260   15.7660  -19.8280 C   0  0  0  0  0  0
   21.1160   15.9760  -20.4980 N   0  0  0  0  0  0
   19.1000   14.9080  -20.1150 O   0  0  0  0  0  0
   26.9660   18.1420  -14.2570 C   0  0  0  0  0  0
   26.0250   18.1470  -13.4760 O   0  0  0  0  0  0
   28.2290   17.7600  -13.9060 N   0  0  0  0  0  0
   21.4120   15.3270  -21.7630 C   0  0  0  0  0  0
   21.8780   16.2590  -22.8780 C   0  0  0  0  0  0
   20.8670   17.3420  -23.1700 C   0  0  0  0  0  0
   23.1930   16.9150  -22.5360 C   0  0  0  0  0  0
   22.0810   15.4450  -24.1300 C   0  0  0  0  0  0
   28.8474   19.1240  -15.8590 H   0  0  0  0  0  0
   28.3271   20.9547  -19.6638 H   0  0  0  0  0  0
   28.1178   21.7546  -21.9689 H   0  0  0  0  0  0
   26.0961   21.2085  -23.3016 H   0  0  0  0  0  0
   24.3126   19.8344  -22.2639 H   0  0  0  0  0  0
   24.5488   19.0260  -19.9587 H   0  0  0  0  0  0
   24.3641   17.9489  -14.6337 H   0  0  0  0  0  0
   23.0342   15.7939  -15.5602 H   0  0  0  0  0  0
   21.0087   15.1642  -16.7989 H   0  0  0  0  0  0
   21.0982   18.9372  -18.7758 H   0  0  0  0  0  0
   23.0972   19.5590  -17.5211 H   0  0  0  0  0  0
   18.9453   16.2413  -18.0264 H   0  0  0  0  0  0
   19.2964   17.6384  -19.0995 H   0  0  0  0  0  0
   21.8501   16.6586  -20.0450 H   0  0  0  0  0  0
   29.0362   17.7764  -14.6531 H   0  0  0  0  0  0
   28.4393   17.4358  -12.8761 H   0  0  0  0  0  0
   22.2136   14.5879  -21.6172 H   0  0  0  0  0  0
   20.5094   14.8203  -22.1352 H   0  0  0  0  0  0
   20.7062   17.9470  -22.2655 H   0  0  0  0  0  0
   19.9161   16.8826  -23.4776 H   0  0  0  0  0  0
   21.2423   17.9853  -23.9795 H   0  0  0  0  0  0
   23.0756   17.5179  -21.6235 H   0  0  0  0  0  0
   23.5058   17.5644  -23.3669 H   0  0  0  0  0  0
   23.9563   16.1408  -22.3683 H   0  0  0  0  0  0
   21.1362   14.9533  -24.4048 H   0  0  0  0  0  0
   22.8527   14.6820  -23.9502 H   0  0  0  0  0  0
   22.4023   16.1056  -24.9488 H   0  0  0  0  0  0
  1  2  2  0  0  0
  1  6  1  0  0  0
  1 32  1  0  0  0
  2  3  1  0  0  0
  3  4  2  0  0  0
  3  7  1  0  0  0
  4  5  1  0  0  0
  5  6  2  0  0  0
  5 13  1  0  0  0
  6 24  1  0  0  0
  7  8  2  0  0  0
  7 12  1  0  0  0
  8  9  1  0  0  0
  8 33  1  0  0  0
  9 10  2  0  0  0
  9 34  1  0  0  0
 10 11  1  0  0  0
 10 35  1  0  0  0
 11 12  2  0  0  0
 11 36  1  0  0  0
 12 37  1  0  0  0
 13 14  1  0  0  0
 13 38  1  0  0  0
 14 15  2  0  0  0
 14 19  1  0  0  0
 15 16  1  0  0  0
 15 39  1  0  0  0
 16 17  2  0  0  0
 16 40  1  0  0  0
 17 18  1  0  0  0
 17 20  1  0  0  0
 18 19  2  0  0  0
 18 41  1  0  0  0
 19 42  1  0  0  0
 20 21  1  0  0  0
 20 43  1  0  0  0
 20 44  1  0  0  0
 21 22  1  0  0  0
 21 23  2  0  0  0
 22 27  1  0  0  0
 22 45  1  0  0  0
 24 25  2  0  0  0
 24 26  1  0  0  0
 26 46  1  0  0  0
 26 47  1  0  0  0
 27 28  1  0  0  0
 27 48  1  0  0  0
 27 49  1  0  0  0
 28 29  1  0  0  0
 28 30  1  0  0  0
 28 31  1  0  0  0
 29 50  1  0  0  0
 29 51  1  0  0  0
 29 52  1  0  0  0
 30 53  1  0  0  0
 30 54  1  0  0  0
 30 55  1  0  0  0
 31 56  1  0  0  0
 31 57  1  0  0  0
 31 58  1  0  0  0
M  END
> <s_m_source_file>
../3wd9_ligand.sdf

> <i_m_source_file_index>
1

> <s_epik_input>
W2NIXTFbY0hdW2NIXVtjSF1bY0hdYzEtYzJuW2NIXWMoQyg9TylbTkgyXSljKG4yKVtOSF1jM1tjSF1bY0hdYyhbY0hdW2NIXTMpW0NIMl1DKD1PKVtOSF1bQ0gyXUMoW0NIM10pKFtDSDNdKVtDSDNd

> <s_epik_cmdline>
J2VwaWtfYXBwJywgJy1pbWFlJywgJ2xpZ2FuZF9wcm8ubWFlJywgJy1vbWFlJywgJ2xpZ2FuZF9wcmVwLm1hZScsICctbXMnLCAnMScsICctcGgnLCAnNycsICctcGh0JywgJzAuNScsICctbnQn

> <r_lp_tautomer_probability>
1

> <r_epik_Ionization_Penalty>
  0.0000

> <r_epik_Ionization_Penalty_Charging>
  0.0000

> <r_epik_Ionization_Penalty_Neutral>
  0.0000

> <r_epik_State_Penalty>
 -0.0000

> <r_epik_Charging_Adjusted_Penalty>
0

> <i_epik_Tot_Q>
0

> <i_epik_Tot_abs_Q>
0

$$$$
