3wdc_ligand
                    3D
 Schrodinger Suite 2020-3.
159162  0  0  1  0            999 V2000
  -27.2300   12.3770   -5.4760 O   0  0  0  0  0  0
  -26.1170   12.2490   -5.9890 C   0  0  0  0  0  0
  -25.0990   11.3760   -5.2510 C   0  0  2  0  0  0
  -25.7100    9.9620   -5.0890 C   0  0  1  0  0  0
  -25.8300    9.2660   -6.4250 C   0  0  0  0  0  0
  -26.9450    9.2040   -7.2100 C   0  0  0  0  0  0
  -26.6650    8.4610   -8.3210 N   0  0  0  0  0  0
  -27.6600    8.1320   -9.3810 C   0  0  0  0  0  0
  -28.9530    8.9040   -9.1300 C   0  0  0  0  0  0
  -27.9330    6.6200   -9.3420 C   0  0  1  0  0  0
  -28.6320    6.1440   -8.0720 C   0  0  0  0  0  0
  -28.7790    6.2470  -10.4190 O   0  0  0  0  0  0
  -27.1530    8.5460  -10.7500 C   0  0  0  0  0  0
  -25.3590    8.0230   -8.2730 C   0  0  0  0  0  0
  -24.6020    7.2250   -9.1400 C   0  0  0  0  0  0
  -23.2750    6.9360   -8.7920 C   0  0  0  0  0  0
  -22.7260    7.3940   -7.6010 C   0  0  0  0  0  0
  -23.4450    8.2130   -6.7210 C   0  0  0  0  0  0
  -24.7930    8.5180   -7.0500 C   0  0  0  0  0  0
  -24.9220    9.1960   -4.1950 O   0  0  0  0  0  0
  -24.8350   11.9590   -3.9480 N   0  0  0  0  0  0
  -25.8500   12.8650   -7.1670 N   0  0  0  0  0  0
  -26.9410   13.6000   -7.8120 C   0  0  0  0  0  0
  -24.5460   12.7490   -7.9040 C   0  0  1  0  0  0
  -24.7620   11.8200   -9.0870 C   0  0  0  0  0  0
  -23.5060   11.5440   -9.8800 C   0  0  2  0  0  0
  -23.8420   10.6950  -11.1000 C   0  0  0  0  0  0
  -24.7620   11.4600  -11.8950 O   0  0  0  0  0  0
  -22.4060   10.8940   -9.0450 C   0  0  0  0  0  0
  -24.0990   14.1550   -8.3360 C   0  0  0  0  0  0
  -24.1380   14.5020   -9.5140 O   0  0  0  0  0  0
  -23.6620   14.9170   -7.3760 N   0  0  0  0  0  0
  -23.2200   16.2870   -7.6870 C   0  0  2  0  0  0
  -21.9460   16.6750   -6.9810 C   0  0  0  0  0  0
  -21.1940   17.4600   -7.5790 O   0  0  0  0  0  0
  -24.2950   17.3210   -7.4380 C   0  0  0  0  0  0
  -21.7310   16.2110   -5.7370 N   0  0  0  0  0  0
  -20.5970   16.6330   -4.9430 C   0  0  2  0  0  0
  -20.0760   15.4040   -4.1910 C   0  0  0  0  0  0
  -20.9500   17.7420   -3.9430 C   0  0  2  0  0  0
  -21.7890   17.1210   -2.9740 O   0  0  0  0  0  0
  -21.7600   17.8030   -1.7190 C   0  0  0  0  0  0
  -21.5240   18.9470   -4.6100 C   0  0  0  0  0  0
  -20.6640   19.9290   -5.1360 C   0  0  0  0  0  0
  -21.1680   21.0960   -5.7160 C   0  0  0  0  0  0
  -22.5160   21.2530   -5.8050 C   0  0  0  0  0  0
  -23.3850   20.3220   -5.3070 C   0  0  0  0  0  0
  -22.8680   19.1550   -4.6660 C   0  0  0  0  0  0
  -20.7190   14.3640   -4.1540 O   0  0  0  0  0  0
  -18.9760   15.5930   -3.4870 N   0  0  0  0  0  0
  -18.4460   14.5880   -2.5630 C   0  0  2  0  0  0
  -19.1420   14.7880   -1.2060 C   0  0  0  0  0  0
  -18.9140   15.8260   -0.6100 O   0  0  0  0  0  0
  -16.9380   14.7930   -2.4490 C   0  0  0  0  0  0
  -16.3050   13.9470   -1.3610 C   0  0  0  0  0  0
  -16.2800   14.5760   -3.8000 C   0  0  0  0  0  0
  -19.9830   13.8860   -0.6580 N   0  0  0  0  0  0
  -20.5140   14.1890    0.6750 C   0  0  0  0  0  0
  -20.4380   12.6180   -1.2870 C   0  0  1  0  0  0
  -19.9760   11.3560   -0.5540 C   0  0  0  0  0  0
  -18.5060   11.0130   -0.7200 C   0  0  0  0  0  0
  -18.2050    9.8690    0.2540 C   0  0  0  0  0  0
  -18.1730   10.5970   -2.1380 C   0  0  0  0  0  0
  -21.9580   12.6280   -1.3160 C   0  0  0  0  0  0
  -22.6390   11.8570   -0.6170 O   0  0  0  0  0  0
  -24.1770   13.1070   -3.7940 C   0  0  0  0  0  0
  -23.9590   13.5580   -2.3690 C   0  0  2  0  0  0
  -23.7430   13.7340   -4.7660 O   0  0  0  0  0  0
  -24.5620   14.9390   -2.1390 C   0  0  2  0  0  0
  -24.3770   15.4230   -0.7130 C   0  0  0  0  0  0
  -26.0230   14.8840   -2.4490 C   0  0  0  0  0  0
  -26.6600   15.4200   -3.4890 C   0  0  0  0  0  0
  -28.1580   15.2200   -3.6600 C   0  0  0  0  0  0
  -26.0060   16.2370   -4.5660 C   0  0  0  0  0  0
  -22.5300   13.4880   -2.1350 N   0  0  0  0  0  0
  -24.1285   11.3461   -5.7679 H   0  0  0  0  0  0
  -26.7041    9.9993   -4.6195 H   0  0  0  0  0  0
  -27.9037    9.6719   -6.9862 H   0  0  0  0  0  0
  -29.3565    8.6325   -8.1433 H   0  0  0  0  0  0
  -29.6878    8.6516   -9.9087 H   0  0  0  0  0  0
  -28.7463    9.9841   -9.1571 H   0  0  0  0  0  0
  -26.9631    6.1145   -9.4594 H   0  0  0  0  0  0
  -28.0200    6.4063   -7.1964 H   0  0  0  0  0  0
  -28.7643    5.0528   -8.1133 H   0  0  0  0  0  0
  -29.6156    6.6298   -7.9908 H   0  0  0  0  0  0
  -28.4893    6.4837  -11.4534 H   0  0  0  0  0  0
  -26.9635    9.6295  -10.7586 H   0  0  0  0  0  0
  -27.9085    8.2998  -11.5106 H   0  0  0  0  0  0
  -26.2194    8.0087  -10.9731 H   0  0  0  0  0  0
  -25.0341    6.8380  -10.0629 H   0  0  0  0  0  0
  -22.6624    6.3405   -9.4689 H   0  0  0  0  0  0
  -21.7062    7.1078   -7.3438 H   0  0  0  0  0  0
  -22.9852    8.6036   -5.8132 H   0  0  0  0  0  0
  -24.7352    9.5619   -3.1746 H   0  0  0  0  0  0
  -25.1828   11.4500   -3.0370 H   0  0  0  0  0  0
  -27.8231   13.5982   -7.1548 H   0  0  0  0  0  0
  -27.1943   13.1167   -8.7671 H   0  0  0  0  0  0
  -26.6246   14.6369   -7.9984 H   0  0  0  0  0  0
  -23.7633   12.3164   -7.2635 H   0  0  0  0  0  0
  -25.1421   10.8520   -8.7284 H   0  0  0  0  0  0
  -25.4926   12.2681   -9.7765 H   0  0  0  0  0  0
  -23.1138   12.5189  -10.2052 H   0  0  0  0  0  0
  -22.9215   10.4820  -11.6633 H   0  0  0  0  0  0
  -24.2994    9.7492  -10.7739 H   0  0  0  0  0  0
  -25.1504   11.0464  -12.8374 H   0  0  0  0  0  0
  -22.1848   11.5273   -8.1732 H   0  0  0  0  0  0
  -21.4987   10.7824   -9.6569 H   0  0  0  0  0  0
  -22.7418    9.9039   -8.7031 H   0  0  0  0  0  0
  -23.6207   14.5474   -6.3408 H   0  0  0  0  0  0
  -23.0128   16.2427   -8.7664 H   0  0  0  0  0  0
  -25.2171   17.0240   -7.9590 H   0  0  0  0  0  0
  -23.9587   18.2978   -7.8158 H   0  0  0  0  0  0
  -24.4911   17.3933   -6.3580 H   0  0  0  0  0  0
  -22.4512   15.4879   -5.3266 H   0  0  0  0  0  0
  -19.8714   17.0401   -5.6626 H   0  0  0  0  0  0
  -20.1011   18.1625   -3.3840 H   0  0  0  0  0  0
  -22.4209   17.2878   -1.0064 H   0  0  0  0  0  0
  -22.1049   18.8385   -1.8564 H   0  0  0  0  0  0
  -20.7318   17.8078   -1.3280 H   0  0  0  0  0  0
  -19.5857   19.7765   -5.0901 H   0  0  0  0  0  0
  -20.4934   21.8661   -6.0901 H   0  0  0  0  0  0
  -22.9148   22.1458   -6.2867 H   0  0  0  0  0  0
  -24.4612   20.4690   -5.3983 H   0  0  0  0  0  0
  -23.5502   18.4305   -4.2213 H   0  0  0  0  0  0
  -18.4528   16.5520   -3.6158 H   0  0  0  0  0  0
  -18.6476   13.5798   -2.9541 H   0  0  0  0  0  0
  -16.7599   15.8335   -2.1396 H   0  0  0  0  0  0
  -16.8140   14.1386   -0.4048 H   0  0  0  0  0  0
  -15.2400   14.2063   -1.2679 H   0  0  0  0  0  0
  -16.4019   12.8826   -1.6212 H   0  0  0  0  0  0
  -16.7720   15.2089   -4.5533 H   0  0  0  0  0  0
  -16.3766   13.5191   -4.0893 H   0  0  0  0  0  0
  -15.2148   14.8428   -3.7361 H   0  0  0  0  0  0
  -20.1022   15.1472    1.0246 H   0  0  0  0  0  0
  -20.2273   13.3897    1.3742 H   0  0  0  0  0  0
  -21.6108   14.2573    0.6259 H   0  0  0  0  0  0
  -19.9847   12.6060   -2.2892 H   0  0  0  0  0  0
  -20.1496   11.4748    0.5257 H   0  0  0  0  0  0
  -20.5433   10.4890   -0.9234 H   0  0  0  0  0  0
  -17.8939   11.9040   -0.5165 H   0  0  0  0  0  0
  -18.4514   10.1852    1.2784 H   0  0  0  0  0  0
  -17.1374    9.6102    0.1969 H   0  0  0  0  0  0
  -18.8102    8.9904   -0.0141 H   0  0  0  0  0  0
  -18.3939   11.4271   -2.8251 H   0  0  0  0  0  0
  -18.7780    9.7210   -2.4148 H   0  0  0  0  0  0
  -17.1053   10.3408   -2.2038 H   0  0  0  0  0  0
  -24.4281   12.8945   -1.6276 H   0  0  0  0  0  0
  -24.0564   15.6541   -2.8046 H   0  0  0  0  0  0
  -23.3035   15.4663   -0.4769 H   0  0  0  0  0  0
  -24.8767   14.7280   -0.0222 H   0  0  0  0  0  0
  -24.8167   16.4256   -0.6062 H   0  0  0  0  0  0
  -26.5856   14.3197   -1.6907 H   0  0  0  0  0  0
  -28.5442   14.6132   -2.8278 H   0  0  0  0  0  0
  -28.3527   14.7036   -4.6115 H   0  0  0  0  0  0
  -28.6604   16.1986   -3.6644 H   0  0  0  0  0  0
  -24.9298   16.3257   -4.3564 H   0  0  0  0  0  0
  -26.4584   17.2393   -4.5916 H   0  0  0  0  0  0
  -26.1507   15.7444   -5.5388 H   0  0  0  0  0  0
  -21.8527   14.1803   -2.6566 H   0  0  0  0  0  0
  1  2  2  0  0  0
  2  3  1  0  0  0
  2 22  1  0  0  0
  3  4  1  0  0  0
  3 21  1  0  0  0
  3 76  1  0  0  0
  4  5  1  0  0  0
  4 20  1  0  0  0
  4 77  1  0  0  0
  5  6  2  0  0  0
  5 19  1  0  0  0
  6  7  1  0  0  0
  6 78  1  0  0  0
  7  8  1  0  0  0
  7 14  1  0  0  0
  8  9  1  0  0  0
  8 10  1  0  0  0
  8 13  1  0  0  0
  9 79  1  0  0  0
  9 80  1  0  0  0
  9 81  1  0  0  0
 10 11  1  0  0  0
 10 12  1  0  0  0
 10 82  1  0  0  0
 11 83  1  0  0  0
 11 84  1  0  0  0
 11 85  1  0  0  0
 12 86  1  0  0  0
 13 87  1  0  0  0
 13 88  1  0  0  0
 13 89  1  0  0  0
 14 15  1  0  0  0
 14 19  2  0  0  0
 15 16  2  0  0  0
 15 90  1  0  0  0
 16 17  1  0  0  0
 16 91  1  0  0  0
 17 18  2  0  0  0
 17 92  1  0  0  0
 18 19  1  0  0  0
 18 93  1  0  0  0
 20 94  1  0  0  0
 21 66  1  0  0  0
 21 95  1  0  0  0
 22 23  1  0  0  0
 22 24  1  0  0  0
 23 96  1  0  0  0
 23 97  1  0  0  0
 23 98  1  0  0  0
 24 25  1  0  0  0
 24 30  1  0  0  0
 24 99  1  0  0  0
 25 26  1  0  0  0
 25100  1  0  0  0
 25101  1  0  0  0
 26 27  1  0  0  0
 26 29  1  0  0  0
 26102  1  0  0  0
 27 28  1  0  0  0
 27103  1  0  0  0
 27104  1  0  0  0
 28105  1  0  0  0
 29106  1  0  0  0
 29107  1  0  0  0
 29108  1  0  0  0
 30 31  2  0  0  0
 30 32  1  0  0  0
 32 33  1  0  0  0
 32109  1  0  0  0
 33 34  1  0  0  0
 33 36  1  0  0  0
 33110  1  0  0  0
 34 35  2  0  0  0
 34 37  1  0  0  0
 36111  1  0  0  0
 36112  1  0  0  0
 36113  1  0  0  0
 37 38  1  0  0  0
 37114  1  0  0  0
 38 39  1  0  0  0
 38 40  1  0  0  0
 38115  1  0  0  0
 39 49  2  0  0  0
 39 50  1  0  0  0
 40 41  1  0  0  0
 40 43  1  0  0  0
 40116  1  0  0  0
 41 42  1  0  0  0
 42117  1  0  0  0
 42118  1  0  0  0
 42119  1  0  0  0
 43 44  2  0  0  0
 43 48  1  0  0  0
 44 45  1  0  0  0
 44120  1  0  0  0
 45 46  2  0  0  0
 45121  1  0  0  0
 46 47  1  0  0  0
 46122  1  0  0  0
 47 48  2  0  0  0
 47123  1  0  0  0
 48124  1  0  0  0
 50 51  1  0  0  0
 50125  1  0  0  0
 51 52  1  0  0  0
 51 54  1  0  0  0
 51126  1  0  0  0
 52 53  2  0  0  0
 52 57  1  0  0  0
 54 55  1  0  0  0
 54 56  1  0  0  0
 54127  1  0  0  0
 55128  1  0  0  0
 55129  1  0  0  0
 55130  1  0  0  0
 56131  1  0  0  0
 56132  1  0  0  0
 56133  1  0  0  0
 57 58  1  0  0  0
 57 59  1  0  0  0
 58134  1  0  0  0
 58135  1  0  0  0
 58136  1  0  0  0
 59 60  1  0  0  0
 59 64  1  0  0  0
 59137  1  0  0  0
 60 61  1  0  0  0
 60138  1  0  0  0
 60139  1  0  0  0
 61 62  1  0  0  0
 61 63  1  0  0  0
 61140  1  0  0  0
 62141  1  0  0  0
 62142  1  0  0  0
 62143  1  0  0  0
 63144  1  0  0  0
 63145  1  0  0  0
 63146  1  0  0  0
 64 65  2  0  0  0
 64 75  1  0  0  0
 66 67  1  0  0  0
 66 68  2  0  0  0
 67 69  1  0  0  0
 67 75  1  0  0  0
 67147  1  0  0  0
 69 70  1  0  0  0
 69 71  1  0  0  0
 69148  1  0  0  0
 70149  1  0  0  0
 70150  1  0  0  0
 70151  1  0  0  0
 71 72  2  0  0  0
 71152  1  0  0  0
 72 73  1  0  0  0
 72 74  1  0  0  0
 73153  1  0  0  0
 73154  1  0  0  0
 73155  1  0  0  0
 74156  1  0  0  0
 74157  1  0  0  0
 74158  1  0  0  0
 75159  1  0  0  0
M  END
> <s_m_source_file>
../3wdc_ligand.sdf

> <i_m_source_file_index>
1

> <s_epik_input>
W0NIM11bQ0BASF0oW09IXSlDKFtDSDNdKShbQ0gzXSluMVtjSF1jKGMoYzEyKVtjSF1bY0hdW2NIXVtjSF0yKVtDQEBIXShbT0hdKVtDQEBIXShDMz1PKVtOSF1DKD1PKVtDQEhdKFtDQEhdKFtDSDNdKVtDSF09QyhbQ0gzXSlbQ0gzXSlbTkhdQyg9TylbQ0BIXShbQ0gyXVtDSF0oW0NIM10pW0NIM10pTihbQ0gzXSlDKD1PKVtDQEhdKFtDSF0oW0NIM10pW0NIM10pW05IXUMoPU8pW0NASF0oW0NASF0oT1tDSDNdKWM0W2NIXVtjSF1bY0hdW2NIXVtjSF00KVtOSF1DKD1PKVtDQEhdKFtDSDNdKVtOSF1DKD1PKVtDQEBIXShOM1tDSDNdKVtDSDJdW0NAQEhdKFtDSDNdKVtDSDJdW09IXQ==

> <s_epik_cmdline>
J2VwaWtfYXBwJywgJy1pbWFlJywgJ2xpZ2FuZF9wcm8ubWFlJywgJy1vbWFlJywgJ2xpZ2FuZF9wcmVwLm1hZScsICctbXMnLCAnMScsICctcGgnLCAnNycsICctcGh0JywgJzAuNScsICctbnQn

> <s_epik_pKa_notes>
Molecule size exceeds maximum supported for generating protonation states

$$$$
