3wdd_ligand
                    3D
 Schrodinger Suite 2020-3.
159162  0  0  1  0            999 V2000
  -27.1580   12.5840   -5.5370 O   0  0  0  0  0  0
  -26.0520   12.4210   -6.0560 C   0  0  0  0  0  0
  -25.0460   11.5660   -5.3010 C   0  0  2  0  0  0
  -25.6600   10.1640   -5.1110 C   0  0  1  0  0  0
  -25.7440    9.4230   -6.4150 C   0  0  0  0  0  0
  -26.8560    9.3680   -7.2220 C   0  0  0  0  0  0
  -26.5490    8.6100   -8.3170 N   0  0  0  0  0  0
  -27.5570    8.2670   -9.3850 C   0  0  0  0  0  0
  -28.8430    9.0360   -9.1180 C   0  0  0  0  0  0
  -27.8160    6.7390   -9.3420 C   0  0  1  0  0  0
  -28.5110    6.2550   -8.0840 C   0  0  0  0  0  0
  -28.6550    6.3580  -10.4120 O   0  0  0  0  0  0
  -27.0020    8.6800  -10.7460 C   0  0  0  0  0  0
  -25.2590    8.1630   -8.2390 C   0  0  0  0  0  0
  -24.4590    7.3530   -9.0520 C   0  0  0  0  0  0
  -23.1650    7.0690   -8.6700 C   0  0  0  0  0  0
  -22.6190    7.5930   -7.5160 C   0  0  0  0  0  0
  -23.3670    8.3730   -6.6530 C   0  0  0  0  0  0
  -24.6970    8.6620   -7.0270 C   0  0  0  0  0  0
  -24.8700    9.4140   -4.1960 O   0  0  0  0  0  0
  -24.8190   12.1780   -3.9830 N   0  0  0  0  0  0
  -25.7650   12.9800   -7.2410 N   0  0  0  0  0  0
  -26.8600   13.6980   -7.9090 C   0  0  0  0  0  0
  -24.4970   12.8310   -7.9700 C   0  0  1  0  0  0
  -24.6850   11.9060   -9.1600 C   0  0  0  0  0  0
  -23.4150   11.6390   -9.9610 C   0  0  2  0  0  0
  -23.7580   10.8170  -11.2170 C   0  0  0  0  0  0
  -24.6630   11.5820  -12.0050 O   0  0  0  0  0  0
  -22.3580   10.9350   -9.1260 C   0  0  0  0  0  0
  -24.0400   14.2310   -8.4020 C   0  0  0  0  0  0
  -24.0770   14.5840   -9.5830 O   0  0  0  0  0  0
  -23.6210   15.0200   -7.4990 N   0  0  0  0  0  0
  -23.1410   16.3830   -7.8310 C   0  0  2  0  0  0
  -21.8550   16.7160   -7.1210 C   0  0  0  0  0  0
  -21.0630   17.4740   -7.7190 O   0  0  0  0  0  0
  -24.2170   17.4390   -7.5140 C   0  0  0  0  0  0
  -21.6240   16.2390   -5.8870 N   0  0  0  0  0  0
  -20.4640   16.6150   -5.0770 C   0  0  2  0  0  0
  -19.9640   15.3960   -4.3030 C   0  0  0  0  0  0
  -20.7890   17.7380   -4.0670 C   0  0  2  0  0  0
  -21.6710   17.1180   -3.1050 O   0  0  0  0  0  0
  -21.6370   17.8360   -1.8670 C   0  0  0  0  0  0
  -21.3770   18.9770   -4.7180 C   0  0  0  0  0  0
  -20.4940   19.9190   -5.2240 C   0  0  0  0  0  0
  -20.9420   21.1110   -5.7890 C   0  0  0  0  0  0
  -22.2950   21.3220   -5.9670 C   0  0  0  0  0  0
  -23.2070   20.3810   -5.4840 C   0  0  0  0  0  0
  -22.7340   19.1990   -4.8620 C   0  0  0  0  0  0
  -20.6210   14.3300   -4.2970 O   0  0  0  0  0  0
  -18.8850   15.5900   -3.5970 N   0  0  0  0  0  0
  -18.3730   14.6050   -2.6540 C   0  0  2  0  0  0
  -19.0480   14.8570   -1.2980 C   0  0  0  0  0  0
  -18.7470   15.9100   -0.7390 O   0  0  0  0  0  0
  -16.8520   14.8220   -2.5620 C   0  0  0  0  0  0
  -16.2280   13.9720   -1.4790 C   0  0  0  0  0  0
  -16.2300   14.5470   -3.9070 C   0  0  0  0  0  0
  -19.9420   14.0430   -0.7310 N   0  0  0  0  0  0
  -20.4650   14.3860    0.6370 C   0  0  0  0  0  0
  -20.4360   12.7520   -1.2900 C   0  0  1  0  0  0
  -19.9960   11.5360   -0.4510 C   0  0  0  0  0  0
  -18.5080   11.2030   -0.5520 C   0  0  0  0  0  0
  -18.1670   10.1710    0.5310 C   0  0  0  0  0  0
  -18.1300   10.6990   -1.9450 C   0  0  0  0  0  0
  -21.9710   12.8240   -1.3320 C   0  0  0  0  0  0
  -22.6700   12.0820   -0.6340 O   0  0  0  0  0  0
  -24.1660   13.3200   -3.8520 C   0  0  0  0  0  0
  -23.9700   13.8030   -2.4170 C   0  0  2  0  0  0
  -23.6850   13.9560   -4.7880 O   0  0  0  0  0  0
  -24.5600   15.1760   -2.1680 C   0  0  2  0  0  0
  -24.3820   15.6330   -0.7210 C   0  0  0  0  0  0
  -25.9930   15.1160   -2.5660 C   0  0  0  0  0  0
  -26.6480   15.6790   -3.5780 C   0  0  0  0  0  0
  -28.1260   15.4850   -3.7930 C   0  0  0  0  0  0
  -25.9300   16.4640   -4.6280 C   0  0  0  0  0  0
  -22.5190   13.7440   -2.1150 N   0  0  0  0  0  0
  -24.0791   11.5209   -5.8236 H   0  0  0  0  0  0
  -26.6654   10.2318   -4.6700 H   0  0  0  0  0  0
  -27.8153    9.8458   -7.0230 H   0  0  0  0  0  0
  -29.2486    8.7432   -8.1384 H   0  0  0  0  0  0
  -29.5780    8.8051   -9.9031 H   0  0  0  0  0  0
  -28.6317   10.1155   -9.1196 H   0  0  0  0  0  0
  -26.8450    6.2341   -9.4524 H   0  0  0  0  0  0
  -27.9057    6.5215   -7.2051 H   0  0  0  0  0  0
  -28.6313    5.1625   -8.1288 H   0  0  0  0  0  0
  -29.5001    6.7299   -8.0057 H   0  0  0  0  0  0
  -28.3695    6.5975  -11.4470 H   0  0  0  0  0  0
  -26.8254    9.7657  -10.7558 H   0  0  0  0  0  0
  -27.7262    8.4192  -11.5318 H   0  0  0  0  0  0
  -26.0545    8.1527  -10.9309 H   0  0  0  0  0  0
  -24.8567    6.9484   -9.9828 H   0  0  0  0  0  0
  -22.5580    6.4142   -9.2952 H   0  0  0  0  0  0
  -21.5750    7.3876   -7.2794 H   0  0  0  0  0  0
  -22.9461    8.7497   -5.7208 H   0  0  0  0  0  0
  -24.6927    9.7969   -3.1801 H   0  0  0  0  0  0
  -25.1962   11.6845   -3.0751 H   0  0  0  0  0  0
  -27.7368   13.7287   -7.2455 H   0  0  0  0  0  0
  -27.1240   13.1782   -8.8418 H   0  0  0  0  0  0
  -26.5385   14.7244   -8.1395 H   0  0  0  0  0  0
  -23.7536   12.3666   -7.3054 H   0  0  0  0  0  0
  -25.0539   10.9302   -8.8112 H   0  0  0  0  0  0
  -25.4147   12.3466   -9.8553 H   0  0  0  0  0  0
  -22.9866   12.6090  -10.2538 H   0  0  0  0  0  0
  -22.8378   10.6124  -11.7839 H   0  0  0  0  0  0
  -24.2230    9.8663  -10.9173 H   0  0  0  0  0  0
  -25.0407   11.1786  -12.9561 H   0  0  0  0  0  0
  -22.1304   11.5405   -8.2363 H   0  0  0  0  0  0
  -21.4444   10.8051   -9.7247 H   0  0  0  0  0  0
  -22.7343    9.9500   -8.8128 H   0  0  0  0  0  0
  -23.6186   14.6753   -6.4544 H   0  0  0  0  0  0
  -22.9267   16.3624   -8.9097 H   0  0  0  0  0  0
  -25.1488   17.1821   -8.0391 H   0  0  0  0  0  0
  -23.8693   18.4281   -7.8468 H   0  0  0  0  0  0
  -24.4012   17.4608   -6.4297 H   0  0  0  0  0  0
  -22.3647   15.5289   -5.4906 H   0  0  0  0  0  0
  -19.7236   16.9698   -5.8091 H   0  0  0  0  0  0
  -19.9101   18.1249   -3.5305 H   0  0  0  0  0  0
  -22.3121   17.3537   -1.1448 H   0  0  0  0  0  0
  -21.9613   18.8735   -2.0358 H   0  0  0  0  0  0
  -20.6115   17.8325   -1.4692 H   0  0  0  0  0  0
  -19.4229   19.7219   -5.1785 H   0  0  0  0  0  0
  -20.2259   21.8756   -6.0900 H   0  0  0  0  0  0
  -22.6485   22.2161   -6.4805 H   0  0  0  0  0  0
  -24.2782   20.5551   -5.5851 H   0  0  0  0  0  0
  -23.4452   18.4593   -4.4944 H   0  0  0  0  0  0
  -18.3565   16.5446   -3.7364 H   0  0  0  0  0  0
  -18.6063   13.5895   -3.0067 H   0  0  0  0  0  0
  -16.6382   15.8653   -2.2868 H   0  0  0  0  0  0
  -16.7052   14.1989   -0.5142 H   0  0  0  0  0  0
  -15.1517   14.1903   -1.4160 H   0  0  0  0  0  0
  -16.3729   12.9083   -1.7186 H   0  0  0  0  0  0
  -16.7074   15.1814   -4.6683 H   0  0  0  0  0  0
  -16.3749   13.4884   -4.1684 H   0  0  0  0  0  0
  -15.1537   14.7705   -3.8658 H   0  0  0  0  0  0
  -20.0448   15.3502    0.9590 H   0  0  0  0  0  0
  -20.1705   13.6014    1.3495 H   0  0  0  0  0  0
  -21.5622   14.4572    0.6028 H   0  0  0  0  0  0
  -19.9925   12.6435   -2.2907 H   0  0  0  0  0  0
  -20.2103   11.7264    0.6110 H   0  0  0  0  0  0
  -20.5472   10.6434   -0.7819 H   0  0  0  0  0  0
  -17.9218   12.1200   -0.3927 H   0  0  0  0  0  0
  -18.4519   10.5666    1.5171 H   0  0  0  0  0  0
  -17.0861    9.9672    0.5160 H   0  0  0  0  0  0
  -18.7185    9.2394    0.3363 H   0  0  0  0  0  0
  -18.3881   11.4625   -2.6937 H   0  0  0  0  0  0
  -18.6812    9.7720   -2.1616 H   0  0  0  0  0  0
  -17.0488   10.4999   -1.9820 H   0  0  0  0  0  0
  -24.4987   13.1423   -1.7142 H   0  0  0  0  0  0
  -24.0472   15.9286   -2.7849 H   0  0  0  0  0  0
  -23.3103   15.6614   -0.4747 H   0  0  0  0  0  0
  -24.8943   14.9292   -0.0486 H   0  0  0  0  0  0
  -24.8132   16.6375   -0.5981 H   0  0  0  0  0  0
  -26.5311   14.4777   -1.8497 H   0  0  0  0  0  0
  -28.5433   14.8969   -2.9623 H   0  0  0  0  0  0
  -28.2917   14.9507   -4.7401 H   0  0  0  0  0  0
  -28.6224   16.4658   -3.8336 H   0  0  0  0  0  0
  -24.8645   16.5393   -4.3651 H   0  0  0  0  0  0
  -26.3639   17.4727   -4.6925 H   0  0  0  0  0  0
  -26.0332   15.9576   -5.5991 H   0  0  0  0  0  0
  -21.8362   14.4893   -2.5489 H   0  0  0  0  0  0
  1  2  2  0  0  0
  2  3  1  0  0  0
  2 22  1  0  0  0
  3  4  1  0  0  0
  3 21  1  0  0  0
  3 76  1  0  0  0
  4  5  1  0  0  0
  4 20  1  0  0  0
  4 77  1  0  0  0
  5  6  2  0  0  0
  5 19  1  0  0  0
  6  7  1  0  0  0
  6 78  1  0  0  0
  7  8  1  0  0  0
  7 14  1  0  0  0
  8  9  1  0  0  0
  8 10  1  0  0  0
  8 13  1  0  0  0
  9 79  1  0  0  0
  9 80  1  0  0  0
  9 81  1  0  0  0
 10 11  1  0  0  0
 10 12  1  0  0  0
 10 82  1  0  0  0
 11 83  1  0  0  0
 11 84  1  0  0  0
 11 85  1  0  0  0
 12 86  1  0  0  0
 13 87  1  0  0  0
 13 88  1  0  0  0
 13 89  1  0  0  0
 14 15  1  0  0  0
 14 19  2  0  0  0
 15 16  2  0  0  0
 15 90  1  0  0  0
 16 17  1  0  0  0
 16 91  1  0  0  0
 17 18  2  0  0  0
 17 92  1  0  0  0
 18 19  1  0  0  0
 18 93  1  0  0  0
 20 94  1  0  0  0
 21 66  1  0  0  0
 21 95  1  0  0  0
 22 23  1  0  0  0
 22 24  1  0  0  0
 23 96  1  0  0  0
 23 97  1  0  0  0
 23 98  1  0  0  0
 24 25  1  0  0  0
 24 30  1  0  0  0
 24 99  1  0  0  0
 25 26  1  0  0  0
 25100  1  0  0  0
 25101  1  0  0  0
 26 27  1  0  0  0
 26 29  1  0  0  0
 26102  1  0  0  0
 27 28  1  0  0  0
 27103  1  0  0  0
 27104  1  0  0  0
 28105  1  0  0  0
 29106  1  0  0  0
 29107  1  0  0  0
 29108  1  0  0  0
 30 31  2  0  0  0
 30 32  1  0  0  0
 32 33  1  0  0  0
 32109  1  0  0  0
 33 34  1  0  0  0
 33 36  1  0  0  0
 33110  1  0  0  0
 34 35  2  0  0  0
 34 37  1  0  0  0
 36111  1  0  0  0
 36112  1  0  0  0
 36113  1  0  0  0
 37 38  1  0  0  0
 37114  1  0  0  0
 38 39  1  0  0  0
 38 40  1  0  0  0
 38115  1  0  0  0
 39 49  2  0  0  0
 39 50  1  0  0  0
 40 41  1  0  0  0
 40 43  1  0  0  0
 40116  1  0  0  0
 41 42  1  0  0  0
 42117  1  0  0  0
 42118  1  0  0  0
 42119  1  0  0  0
 43 44  2  0  0  0
 43 48  1  0  0  0
 44 45  1  0  0  0
 44120  1  0  0  0
 45 46  2  0  0  0
 45121  1  0  0  0
 46 47  1  0  0  0
 46122  1  0  0  0
 47 48  2  0  0  0
 47123  1  0  0  0
 48124  1  0  0  0
 50 51  1  0  0  0
 50125  1  0  0  0
 51 52  1  0  0  0
 51 54  1  0  0  0
 51126  1  0  0  0
 52 53  2  0  0  0
 52 57  1  0  0  0
 54 55  1  0  0  0
 54 56  1  0  0  0
 54127  1  0  0  0
 55128  1  0  0  0
 55129  1  0  0  0
 55130  1  0  0  0
 56131  1  0  0  0
 56132  1  0  0  0
 56133  1  0  0  0
 57 58  1  0  0  0
 57 59  1  0  0  0
 58134  1  0  0  0
 58135  1  0  0  0
 58136  1  0  0  0
 59 60  1  0  0  0
 59 64  1  0  0  0
 59137  1  0  0  0
 60 61  1  0  0  0
 60138  1  0  0  0
 60139  1  0  0  0
 61 62  1  0  0  0
 61 63  1  0  0  0
 61140  1  0  0  0
 62141  1  0  0  0
 62142  1  0  0  0
 62143  1  0  0  0
 63144  1  0  0  0
 63145  1  0  0  0
 63146  1  0  0  0
 64 65  2  0  0  0
 64 75  1  0  0  0
 66 67  1  0  0  0
 66 68  2  0  0  0
 67 69  1  0  0  0
 67 75  1  0  0  0
 67147  1  0  0  0
 69 70  1  0  0  0
 69 71  1  0  0  0
 69148  1  0  0  0
 70149  1  0  0  0
 70150  1  0  0  0
 70151  1  0  0  0
 71 72  2  0  0  0
 71152  1  0  0  0
 72 73  1  0  0  0
 72 74  1  0  0  0
 73153  1  0  0  0
 73154  1  0  0  0
 73155  1  0  0  0
 74156  1  0  0  0
 74157  1  0  0  0
 74158  1  0  0  0
 75159  1  0  0  0
M  END
> <s_m_source_file>
../3wdd_ligand.sdf

> <i_m_source_file_index>
1

> <s_epik_input>
W0NIM11bQ0BASF0oW09IXSlDKFtDSDNdKShbQ0gzXSluMVtjSF1jKGMoYzEyKVtjSF1bY0hdW2NIXVtjSF0yKVtDQEBIXShbT0hdKVtDQEBIXShDMz1PKVtOSF1DKD1PKVtDQEhdKFtDQEhdKFtDSDNdKVtDSF09QyhbQ0gzXSlbQ0gzXSlbTkhdQyg9TylbQ0BIXShbQ0gyXVtDSF0oW0NIM10pW0NIM10pTihbQ0gzXSlDKD1PKVtDQEhdKFtDSF0oW0NIM10pW0NIM10pW05IXUMoPU8pW0NASF0oW0NASF0oT1tDSDNdKWM0W2NIXVtjSF1bY0hdW2NIXVtjSF00KVtOSF1DKD1PKVtDQEhdKFtDSDNdKVtOSF1DKD1PKVtDQEBIXShOM1tDSDNdKVtDSDJdW0NAQEhdKFtDSDNdKVtDSDJdW09IXQ==

> <s_epik_cmdline>
J2VwaWtfYXBwJywgJy1pbWFlJywgJ2xpZ2FuZF9wcm8ubWFlJywgJy1vbWFlJywgJ2xpZ2FuZF9wcmVwLm1hZScsICctbXMnLCAnMScsICctcGgnLCAnNycsICctcGh0JywgJzAuNScsICctbnQn

> <s_epik_pKa_notes>
Molecule size exceeds maximum supported for generating protonation states

$$$$
