3wde_ligand
                    3D
 Schrodinger Suite 2020-3.
159162  0  0  1  0            999 V2000
  -27.3650   12.3950   -5.5210 O   0  0  0  0  0  0
  -26.2680   12.3130   -6.0150 C   0  0  0  0  0  0
  -25.2420   11.4190   -5.3120 C   0  0  2  0  0  0
  -25.8580    9.9870   -5.1620 C   0  0  1  0  0  0
  -25.9460    9.2320   -6.4750 C   0  0  0  0  0  0
  -27.1170    9.2290   -7.2270 C   0  0  0  0  0  0
  -26.7830    8.4850   -8.3330 N   0  0  0  0  0  0
  -27.8050    8.1410   -9.3990 C   0  0  0  0  0  0
  -29.0860    8.9190   -9.1280 C   0  0  0  0  0  0
  -28.0610    6.6120   -9.3880 C   0  0  1  0  0  0
  -28.8460    6.1780   -8.1580 C   0  0  0  0  0  0
  -28.8820    6.2140  -10.4630 O   0  0  0  0  0  0
  -27.2880    8.5680  -10.7570 C   0  0  0  0  0  0
  -25.4860    8.0130   -8.3010 C   0  0  0  0  0  0
  -24.7350    7.1990   -9.1740 C   0  0  0  0  0  0
  -23.3930    6.8950   -8.8460 C   0  0  0  0  0  0
  -22.8220    7.3800   -7.6570 C   0  0  0  0  0  0
  -23.5560    8.1840   -6.7550 C   0  0  0  0  0  0
  -24.8990    8.5260   -7.1060 C   0  0  0  0  0  0
  -25.0560    9.2320   -4.2470 O   0  0  0  0  0  0
  -24.9370   11.9630   -3.9880 N   0  0  0  0  0  0
  -25.9690   12.9070   -7.1780 N   0  0  0  0  0  0
  -27.0580   13.6200   -7.8550 C   0  0  0  0  0  0
  -24.6950   12.7770   -7.9190 C   0  0  1  0  0  0
  -24.8710   11.8010   -9.0930 C   0  0  0  0  0  0
  -23.6080   11.5520   -9.9160 C   0  0  2  0  0  0
  -23.9300   10.7330  -11.1620 C   0  0  0  0  0  0
  -24.8620   11.4680  -11.9930 O   0  0  0  0  0  0
  -22.5220   10.8830   -9.0830 C   0  0  0  0  0  0
  -24.2160   14.1640   -8.3390 C   0  0  0  0  0  0
  -24.2440   14.5050   -9.5130 O   0  0  0  0  0  0
  -23.7800   14.9110   -7.3950 N   0  0  0  0  0  0
  -23.3300   16.2930   -7.6990 C   0  0  2  0  0  0
  -22.0540   16.7140   -6.9820 C   0  0  0  0  0  0
  -21.2850   17.4910   -7.5980 O   0  0  0  0  0  0
  -24.4220   17.3310   -7.4370 C   0  0  0  0  0  0
  -21.8440   16.2590   -5.7690 N   0  0  0  0  0  0
  -20.6690   16.6620   -5.0170 C   0  0  2  0  0  0
  -20.1520   15.4530   -4.2380 C   0  0  0  0  0  0
  -21.0220   17.7630   -3.9810 C   0  0  2  0  0  0
  -21.8890   17.1890   -2.9770 O   0  0  0  0  0  0
  -21.8830   17.9180   -1.7200 C   0  0  0  0  0  0
  -21.5910   19.0080   -4.6230 C   0  0  0  0  0  0
  -20.7310   19.9860   -5.1720 C   0  0  0  0  0  0
  -21.2900   21.1350   -5.7530 C   0  0  0  0  0  0
  -22.6660   21.3180   -5.7980 C   0  0  0  0  0  0
  -23.5040   20.3720   -5.2720 C   0  0  0  0  0  0
  -22.9680   19.2280   -4.6470 C   0  0  0  0  0  0
  -20.7530   14.3560   -4.2300 O   0  0  0  0  0  0
  -19.0640   15.6550   -3.5390 N   0  0  0  0  0  0
  -18.4760   14.6650   -2.5690 C   0  0  2  0  0  0
  -19.1850   14.8160   -1.2190 C   0  0  0  0  0  0
  -18.9710   15.8720   -0.6440 O   0  0  0  0  0  0
  -16.9360   14.8680   -2.4740 C   0  0  0  0  0  0
  -16.3320   13.9380   -1.4450 C   0  0  0  0  0  0
  -16.3030   14.6810   -3.8690 C   0  0  0  0  0  0
  -20.0160   13.8790   -0.6840 N   0  0  0  0  0  0
  -20.5810   14.1630    0.6490 C   0  0  0  0  0  0
  -20.4700   12.6440   -1.3340 C   0  0  1  0  0  0
  -20.0040   11.3540   -0.6320 C   0  0  0  0  0  0
  -18.5440   10.9960   -0.7920 C   0  0  0  0  0  0
  -18.2880    9.8510    0.1910 C   0  0  0  0  0  0
  -18.2040   10.6350   -2.2230 C   0  0  0  0  0  0
  -21.9950   12.6560   -1.3700 C   0  0  0  0  0  0
  -22.6660   11.8950   -0.6310 O   0  0  0  0  0  0
  -24.2570   13.0720   -3.8380 C   0  0  0  0  0  0
  -24.0050   13.5360   -2.4240 C   0  0  2  0  0  0
  -23.7930   13.7140   -4.7820 O   0  0  0  0  0  0
  -24.5930   14.9300   -2.1830 C   0  0  2  0  0  0
  -24.3350   15.3710   -0.7390 C   0  0  0  0  0  0
  -26.0930   14.8480   -2.4530 C   0  0  0  0  0  0
  -26.7470   15.4310   -3.4730 C   0  0  0  0  0  0
  -28.2290   15.1880   -3.6140 C   0  0  0  0  0  0
  -26.0820   16.2610   -4.5430 C   0  0  0  0  0  0
  -22.5540   13.4660   -2.2080 N   0  0  0  0  0  0
  -24.2891   11.4147   -5.8615 H   0  0  0  0  0  0
  -26.8736   10.0466   -4.7436 H   0  0  0  0  0  0
  -28.0705    9.7031   -6.9944 H   0  0  0  0  0  0
  -29.4888    8.6313   -8.1457 H   0  0  0  0  0  0
  -29.8260    8.6904   -9.9091 H   0  0  0  0  0  0
  -28.8682    9.9972   -9.1335 H   0  0  0  0  0  0
  -27.0879    6.1096   -9.4918 H   0  0  0  0  0  0
  -28.2843    6.4462   -7.2511 H   0  0  0  0  0  0
  -28.9988    5.0890   -8.1860 H   0  0  0  0  0  0
  -29.8221    6.6851   -8.1482 H   0  0  0  0  0  0
  -28.5626    6.4033  -11.4984 H   0  0  0  0  0  0
  -27.1090    9.6533  -10.7565 H   0  0  0  0  0  0
  -28.0327    8.3195  -11.5275 H   0  0  0  0  0  0
  -26.3468    8.0413  -10.9732 H   0  0  0  0  0  0
  -25.1823    6.8096  -10.0886 H   0  0  0  0  0  0
  -22.7973    6.2800   -9.5205 H   0  0  0  0  0  0
  -21.7869    7.1299   -7.4243 H   0  0  0  0  0  0
  -23.1123    8.5319   -5.8221 H   0  0  0  0  0  0
  -24.8717    9.6144   -3.2322 H   0  0  0  0  0  0
  -25.2813   11.4378   -3.0849 H   0  0  0  0  0  0
  -27.9419   13.6458   -7.2007 H   0  0  0  0  0  0
  -27.3100   13.1006   -8.7913 H   0  0  0  0  0  0
  -26.7386   14.6482   -8.0805 H   0  0  0  0  0  0
  -23.9327   12.3523   -7.2493 H   0  0  0  0  0  0
  -25.1975   10.8226   -8.7106 H   0  0  0  0  0  0
  -25.6283   12.1948   -9.7869 H   0  0  0  0  0  0
  -23.2151   12.5274  -10.2388 H   0  0  0  0  0  0
  -23.0046   10.5443  -11.7260 H   0  0  0  0  0  0
  -24.3800    9.7743  -10.8645 H   0  0  0  0  0  0
  -25.2134   11.0348  -12.9411 H   0  0  0  0  0  0
  -22.3123   11.4956   -8.1938 H   0  0  0  0  0  0
  -21.6065   10.7849   -9.6848 H   0  0  0  0  0  0
  -22.8631    9.8855   -8.7689 H   0  0  0  0  0  0
  -23.7379   14.5334   -6.3627 H   0  0  0  0  0  0
  -23.1071   16.2285   -8.7742 H   0  0  0  0  0  0
  -25.3454   17.0301   -7.9535 H   0  0  0  0  0  0
  -24.0940   18.3112   -7.8134 H   0  0  0  0  0  0
  -24.6120   17.3983   -6.3556 H   0  0  0  0  0  0
  -22.5710   15.5644   -5.3229 H   0  0  0  0  0  0
  -19.9531   17.0238   -5.7697 H   0  0  0  0  0  0
  -20.1370   18.1144   -3.4302 H   0  0  0  0  0  0
  -22.5618   17.4262   -1.0077 H   0  0  0  0  0  0
  -22.2192   18.9509   -1.8936 H   0  0  0  0  0  0
  -20.8634   17.9287   -1.3072 H   0  0  0  0  0  0
  -19.6499   19.8501   -5.1446 H   0  0  0  0  0  0
  -20.6337   21.8958   -6.1756 H   0  0  0  0  0  0
  -23.0799   22.2176   -6.2535 H   0  0  0  0  0  0
  -24.5842   20.5032   -5.3364 H   0  0  0  0  0  0
  -23.6372   18.5072   -4.1772 H   0  0  0  0  0  0
  -18.5735   16.6266   -3.6983 H   0  0  0  0  0  0
  -18.6609   13.6426   -2.9303 H   0  0  0  0  0  0
  -16.7030   15.8829   -2.1195 H   0  0  0  0  0  0
  -16.8131   14.1074   -0.4704 H   0  0  0  0  0  0
  -15.2532   14.1356   -1.3606 H   0  0  0  0  0  0
  -16.4905   12.8948   -1.7558 H   0  0  0  0  0  0
  -16.7725   15.3759   -4.5808 H   0  0  0  0  0  0
  -16.4613   13.6465   -4.2078 H   0  0  0  0  0  0
  -15.2240   14.8873   -3.8127 H   0  0  0  0  0  0
  -20.1668   15.1086    1.0289 H   0  0  0  0  0  0
  -20.3222   13.3460    1.3386 H   0  0  0  0  0  0
  -21.6752   14.2462    0.5733 H   0  0  0  0  0  0
  -20.0107   12.6766   -2.3330 H   0  0  0  0  0  0
  -20.1774   11.4426    0.4506 H   0  0  0  0  0  0
  -20.5709   10.4973   -1.0252 H   0  0  0  0  0  0
  -17.8954   11.8578   -0.5758 H   0  0  0  0  0  0
  -18.5533   10.1748    1.2082 H   0  0  0  0  0  0
  -17.2243    9.5726    0.1606 H   0  0  0  0  0  0
  -18.9025    8.9828   -0.0894 H   0  0  0  0  0  0
  -18.4090   11.4955   -2.8768 H   0  0  0  0  0  0
  -18.8171    9.7788   -2.5407 H   0  0  0  0  0  0
  -17.1389   10.3686   -2.2908 H   0  0  0  0  0  0
  -24.4769   12.8718   -1.6849 H   0  0  0  0  0  0
  -24.1256   15.6696   -2.8497 H   0  0  0  0  0  0
  -23.2510   15.4252   -0.5603 H   0  0  0  0  0  0
  -24.7847   14.6433   -0.0475 H   0  0  0  0  0  0
  -24.7841   16.3612   -0.5722 H   0  0  0  0  0  0
  -26.6463   14.2452   -1.7177 H   0  0  0  0  0  0
  -28.5815   14.5735   -2.7725 H   0  0  0  0  0  0
  -28.4260   14.6621   -4.5598 H   0  0  0  0  0  0
  -28.7603   16.1512   -3.6125 H   0  0  0  0  0  0
  -25.0097   16.3585   -4.3179 H   0  0  0  0  0  0
  -26.5429   17.2594   -4.5719 H   0  0  0  0  0  0
  -26.2086   15.7703   -5.5193 H   0  0  0  0  0  0
  -21.8810   14.1259   -2.7752 H   0  0  0  0  0  0
  1  2  2  0  0  0
  2  3  1  0  0  0
  2 22  1  0  0  0
  3  4  1  0  0  0
  3 21  1  0  0  0
  3 76  1  0  0  0
  4  5  1  0  0  0
  4 20  1  0  0  0
  4 77  1  0  0  0
  5  6  2  0  0  0
  5 19  1  0  0  0
  6  7  1  0  0  0
  6 78  1  0  0  0
  7  8  1  0  0  0
  7 14  1  0  0  0
  8  9  1  0  0  0
  8 10  1  0  0  0
  8 13  1  0  0  0
  9 79  1  0  0  0
  9 80  1  0  0  0
  9 81  1  0  0  0
 10 11  1  0  0  0
 10 12  1  0  0  0
 10 82  1  0  0  0
 11 83  1  0  0  0
 11 84  1  0  0  0
 11 85  1  0  0  0
 12 86  1  0  0  0
 13 87  1  0  0  0
 13 88  1  0  0  0
 13 89  1  0  0  0
 14 15  1  0  0  0
 14 19  2  0  0  0
 15 16  2  0  0  0
 15 90  1  0  0  0
 16 17  1  0  0  0
 16 91  1  0  0  0
 17 18  2  0  0  0
 17 92  1  0  0  0
 18 19  1  0  0  0
 18 93  1  0  0  0
 20 94  1  0  0  0
 21 66  1  0  0  0
 21 95  1  0  0  0
 22 23  1  0  0  0
 22 24  1  0  0  0
 23 96  1  0  0  0
 23 97  1  0  0  0
 23 98  1  0  0  0
 24 25  1  0  0  0
 24 30  1  0  0  0
 24 99  1  0  0  0
 25 26  1  0  0  0
 25100  1  0  0  0
 25101  1  0  0  0
 26 27  1  0  0  0
 26 29  1  0  0  0
 26102  1  0  0  0
 27 28  1  0  0  0
 27103  1  0  0  0
 27104  1  0  0  0
 28105  1  0  0  0
 29106  1  0  0  0
 29107  1  0  0  0
 29108  1  0  0  0
 30 31  2  0  0  0
 30 32  1  0  0  0
 32 33  1  0  0  0
 32109  1  0  0  0
 33 34  1  0  0  0
 33 36  1  0  0  0
 33110  1  0  0  0
 34 35  2  0  0  0
 34 37  1  0  0  0
 36111  1  0  0  0
 36112  1  0  0  0
 36113  1  0  0  0
 37 38  1  0  0  0
 37114  1  0  0  0
 38 39  1  0  0  0
 38 40  1  0  0  0
 38115  1  0  0  0
 39 49  2  0  0  0
 39 50  1  0  0  0
 40 41  1  0  0  0
 40 43  1  0  0  0
 40116  1  0  0  0
 41 42  1  0  0  0
 42117  1  0  0  0
 42118  1  0  0  0
 42119  1  0  0  0
 43 44  2  0  0  0
 43 48  1  0  0  0
 44 45  1  0  0  0
 44120  1  0  0  0
 45 46  2  0  0  0
 45121  1  0  0  0
 46 47  1  0  0  0
 46122  1  0  0  0
 47 48  2  0  0  0
 47123  1  0  0  0
 48124  1  0  0  0
 50 51  1  0  0  0
 50125  1  0  0  0
 51 52  1  0  0  0
 51 54  1  0  0  0
 51126  1  0  0  0
 52 53  2  0  0  0
 52 57  1  0  0  0
 54 55  1  0  0  0
 54 56  1  0  0  0
 54127  1  0  0  0
 55128  1  0  0  0
 55129  1  0  0  0
 55130  1  0  0  0
 56131  1  0  0  0
 56132  1  0  0  0
 56133  1  0  0  0
 57 58  1  0  0  0
 57 59  1  0  0  0
 58134  1  0  0  0
 58135  1  0  0  0
 58136  1  0  0  0
 59 60  1  0  0  0
 59 64  1  0  0  0
 59137  1  0  0  0
 60 61  1  0  0  0
 60138  1  0  0  0
 60139  1  0  0  0
 61 62  1  0  0  0
 61 63  1  0  0  0
 61140  1  0  0  0
 62141  1  0  0  0
 62142  1  0  0  0
 62143  1  0  0  0
 63144  1  0  0  0
 63145  1  0  0  0
 63146  1  0  0  0
 64 65  2  0  0  0
 64 75  1  0  0  0
 66 67  1  0  0  0
 66 68  2  0  0  0
 67 69  1  0  0  0
 67 75  1  0  0  0
 67147  1  0  0  0
 69 70  1  0  0  0
 69 71  1  0  0  0
 69148  1  0  0  0
 70149  1  0  0  0
 70150  1  0  0  0
 70151  1  0  0  0
 71 72  2  0  0  0
 71152  1  0  0  0
 72 73  1  0  0  0
 72 74  1  0  0  0
 73153  1  0  0  0
 73154  1  0  0  0
 73155  1  0  0  0
 74156  1  0  0  0
 74157  1  0  0  0
 74158  1  0  0  0
 75159  1  0  0  0
M  END
> <s_m_source_file>
../3wde_ligand.sdf

> <i_m_source_file_index>
1

> <s_epik_input>
W0NIM11bQ0BASF0oW09IXSlDKFtDSDNdKShbQ0gzXSluMVtjSF1jKGMoYzEyKVtjSF1bY0hdW2NIXVtjSF0yKVtDQEBIXShbT0hdKVtDQEBIXShDMz1PKVtOSF1DKD1PKVtDQEhdKFtDQEhdKFtDSDNdKVtDSF09QyhbQ0gzXSlbQ0gzXSlbTkhdQyg9TylbQ0BIXShbQ0gyXVtDSF0oW0NIM10pW0NIM10pTihbQ0gzXSlDKD1PKVtDQEhdKFtDSF0oW0NIM10pW0NIM10pW05IXUMoPU8pW0NASF0oW0NASF0oT1tDSDNdKWM0W2NIXVtjSF1bY0hdW2NIXVtjSF00KVtOSF1DKD1PKVtDQEhdKFtDSDNdKVtOSF1DKD1PKVtDQEBIXShOM1tDSDNdKVtDSDJdW0NAQEhdKFtDSDNdKVtDSDJdW09IXQ==

> <s_epik_cmdline>
J2VwaWtfYXBwJywgJy1pbWFlJywgJ2xpZ2FuZF9wcm8ubWFlJywgJy1vbWFlJywgJ2xpZ2FuZF9wcmVwLm1hZScsICctbXMnLCAnMScsICctcGgnLCAnNycsICctcGh0JywgJzAuNScsICctbnQn

> <s_epik_pKa_notes>
Molecule size exceeds maximum supported for generating protonation states

$$$$
