3wdz_ligand
                    3D
 Schrodinger Suite 2020-3.
174174  0  0  1  0            999 V2000
   -3.4700   -5.3210   15.7060 N   0  3  0  0  0  0
   -3.2740   -4.8750   14.2890 C   0  0  2  0  0  0
   -2.7520   -3.4410   14.2140 C   0  0  0  0  0  0
   -2.8260   -2.6950   15.1910 O   0  0  0  0  0  0
   -4.5650   -5.0400   13.4840 C   0  0  0  0  0  0
   -4.9910   -6.4830   13.3800 C   0  0  0  0  0  0
   -6.2850   -6.6290   12.5980 C   0  0  0  0  0  0
   -6.7470   -8.0850   12.5910 C   0  0  0  0  0  0
   -7.9270   -8.3420   11.7150 N   0  3  0  0  0  0
   -2.2050   -3.0710   13.0570 N   0  0  0  0  0  0
   -1.6630   -1.7160   12.8410 C   0  0  2  0  0  0
   -2.7370   -0.8060   12.2840 C   0  0  0  0  0  0
   -3.4330   -1.1320   11.3130 O   0  0  0  0  0  0
   -0.4210   -1.7170   11.9420 C   0  0  0  0  0  0
    0.8110   -2.3120   12.6070 C   0  0  0  0  0  0
    1.8120   -2.8420   11.5910 C   0  0  0  0  0  0
    1.3770   -3.5120   10.6160 O   0  0  0  0  0  0
    3.0320   -2.5920   11.7650 O   0  0  0  0  0  0
   -2.8100    0.3610   12.9040 N   0  0  0  0  0  0
   -3.8890    1.2850   12.7130 C   0  0  2  0  0  0
   -3.3590    2.7010   12.5270 C   0  0  0  0  0  0
   -2.5200    3.1460   13.3150 O   0  0  0  0  0  0
   -4.8150    1.1260   13.9410 C   0  0  0  0  0  0
   -5.1820    2.4470   14.6030 C   0  0  0  0  0  0
   -6.0140    0.2850   13.5700 C   0  0  0  0  0  0
   -3.8240    3.4070   11.4960 N   0  0  0  0  0  0
   -3.3790    4.7870   11.2730 C   0  0  2  0  0  0
   -3.9150    5.6220   12.4200 C   0  0  0  0  0  0
   -5.1220    5.7350   12.5670 O   0  0  0  0  0  0
   -3.8760    5.3280    9.9430 C   0  0  0  0  0  0
   -3.1810    4.7000    8.7500 C   0  0  0  0  0  0
   -3.2860    5.2860    7.6770 O   0  0  0  0  0  0
   -2.5330    3.6410    8.8500 O   0  0  0  0  0  0
   -3.0200    6.2180   13.2330 N   0  0  0  0  0  0
   -3.4510    6.8260   14.5100 C   0  0  2  0  0  0
   -4.4170    7.9910   14.3660 C   0  0  0  0  0  0
   -5.1360    8.3020   15.3270 O   0  0  0  0  0  0
   -2.1330    7.2990   15.1520 C   0  0  0  0  0  0
   -1.1830    7.4520   14.0260 C   0  0  0  0  0  0
   -1.6260    6.5660   12.8860 C   0  0  0  0  0  0
   -4.4340    8.6320   13.1890 N   0  0  0  0  0  0
   -5.3200    9.8020   12.9630 C   0  0  1  0  0  0
   -4.7010   10.8190   12.0220 C   0  0  0  0  0  0
   -4.6010   10.1810   10.7720 O   0  0  0  0  0  0
   -6.7200    9.4850   12.4780 C   0  0  0  0  0  0
   -7.5860   10.3640   12.5280 O   0  0  0  0  0  0
   -3.1770    9.9960   10.0510 P   0  0  0  0  0  0
   -2.5920   11.3860   10.2550 O   0  0  0  0  0  0
   -2.5060    8.8770   10.8120 O   0  0  0  0  0  0
   -3.4320    9.5640    8.6190 O   0  0  0  0  0  0
   -6.9680    8.2550   12.0170 N   0  0  0  0  0  0
   -8.3130    7.8450   11.5510 C   0  0  2  0  0  0
   -8.8360    6.5300   12.1520 C   0  0  0  0  0  0
  -10.0210    6.1810   11.9870 O   0  0  0  0  0  0
   -8.3510    7.6250   10.0270 C   0  0  2  0  0  0
   -7.5840    6.4600    9.7080 O   0  0  0  0  0  0
   -7.8240    8.8460    9.2600 C   0  0  0  0  0  0
   -7.9390    5.7840   12.7920 N   0  0  0  0  0  0
   -8.2460    4.4620   13.2750 C   0  0  0  0  0  0
   -8.1680    3.3790   12.2090 C   0  0  0  0  0  0
   -8.1730    2.2190   12.5520 O   0  0  0  0  0  0
   -8.1040    3.7190   10.9230 N   0  0  0  0  0  0
   -8.1280    2.6820    9.8510 C   0  0  2  0  0  0
   -6.9410    1.6950    9.8320 C   0  0  0  0  0  0
   -5.8290    2.0400   10.2400 O   0  0  0  0  0  0
   -8.2880    3.3130    8.4570 C   0  0  0  0  0  0
   -9.4500    4.2930    8.3160 C   0  0  0  0  0  0
   -9.9350    4.4210    6.8870 C   0  0  0  0  0  0
   -9.4110    3.7400    5.9860 O   0  0  0  0  0  0
  -10.8460    5.2040    6.6400 O   0  0  0  0  0  0
   -7.1880    0.4820    9.3320 N   0  0  0  0  0  0
   -6.1790   -0.5930    9.2400 C   0  0  2  0  0  0
   -5.1090   -0.4330    8.1670 C   0  0  0  0  0  0
   -5.3540    0.1340    7.0980 O   0  0  0  0  0  0
   -6.8570   -1.9610    9.0080 C   0  0  0  0  0  0
   -7.6530   -2.6730   10.1300 C   0  0  0  0  0  0
   -8.4100   -3.8810    9.5770 C   0  0  0  0  0  0
   -6.7680   -3.0550   11.3150 C   0  0  0  0  0  0
   -3.9390   -0.9990    8.4800 N   0  0  0  0  0  0
   -2.7490   -1.1220    7.6120 C   0  0  2  0  0  0
   -1.9850    0.1840    7.4970 C   0  0  0  0  0  0
   -1.4361    0.6491    8.5314 O   0  0  0  0  0  0
   -3.0360   -1.8160    6.2550 C   0  0  0  0  0  0
   -3.3160   -0.9290    5.0540 C   0  0  0  0  0  0
   -3.1110   -1.6600    3.7140 C   0  0  0  0  0  0
   -3.0290   -1.0160    2.6700 O   0  0  0  0  0  0
   -3.0170   -3.0010    3.7390 N   0  0  0  0  0  0
   -1.9015    0.7883    6.3945 O   0  0  0  0  0  0
   -2.5306   -5.1933   16.2638 H   0  0  0  0  0  0
   -3.7633   -6.3811   15.7195 H   0  0  0  0  0  0
   -4.2600   -4.7160   16.1749 H   0  0  0  0  0  0
   -2.5033   -5.5323   13.8601 H   0  0  0  0  0  0
   -5.3756   -4.4788   13.9719 H   0  0  0  0  0  0
   -4.4136   -4.6542   12.4651 H   0  0  0  0  0  0
   -4.2080   -7.0603   12.8666 H   0  0  0  0  0  0
   -5.1468   -6.8929   14.3888 H   0  0  0  0  0  0
   -7.0661   -6.0093   13.0627 H   0  0  0  0  0  0
   -6.1254   -6.3006   11.5604 H   0  0  0  0  0  0
   -5.9295   -8.7273   12.2317 H   0  0  0  0  0  0
   -7.0280   -8.3854   13.6112 H   0  0  0  0  0  0
   -8.1957   -9.4075   11.7651 H   0  0  0  0  0  0
   -7.6783   -8.0750   10.6773 H   0  0  0  0  0  0
   -8.7769   -7.7330   12.0568 H   0  0  0  0  0  0
   -2.1653   -3.8148   12.2475 H   0  0  0  0  0  0
   -1.3627   -1.3578   13.8368 H   0  0  0  0  0  0
   -0.6239   -2.3085   11.0370 H   0  0  0  0  0  0
   -0.1738   -0.6837   11.6569 H   0  0  0  0  0  0
    1.3116   -1.5396   13.2094 H   0  0  0  0  0  0
    0.5097   -3.1463   13.2575 H   0  0  0  0  0  0
    2.0765   -3.9083    9.8652 H   0  0  0  0  0  0
   -1.9895    0.6085   13.5937 H   0  0  0  0  0  0
   -4.4077    1.0321   11.7765 H   0  0  0  0  0  0
   -4.2744    0.5862   14.7325 H   0  0  0  0  0  0
   -4.2644    3.0036   14.8442 H   0  0  0  0  0  0
   -5.7450    2.2500   15.5272 H   0  0  0  0  0  0
   -5.8017    3.0417   13.9158 H   0  0  0  0  0  0
   -5.6748   -0.6494   13.0989 H   0  0  0  0  0  0
   -6.6484    0.8419   12.8648 H   0  0  0  0  0  0
   -6.5917    0.0502   14.4762 H   0  0  0  0  0  0
   -4.5483    2.9449   10.8091 H   0  0  0  0  0  0
   -2.2794    4.7900   11.2432 H   0  0  0  0  0  0
   -4.9532    5.1278    9.8452 H   0  0  0  0  0  0
   -3.6992    6.4128    9.8993 H   0  0  0  0  0  0
   -2.0407    3.2118    7.9649 H   0  0  0  0  0  0
   -4.0213    6.0758   15.0774 H   0  0  0  0  0  0
   -2.3003    8.2541   15.6715 H   0  0  0  0  0  0
   -1.7854    6.5451   15.8737 H   0  0  0  0  0  0
   -1.1703    8.5016   13.6971 H   0  0  0  0  0  0
   -0.1750    7.1584   14.3542 H   0  0  0  0  0  0
   -1.0255    5.6471   12.8149 H   0  0  0  0  0  0
   -1.6088    7.0909   11.9195 H   0  0  0  0  0  0
   -3.7757    8.2767   12.3825 H   0  0  0  0  0  0
   -5.4093   10.2018   13.9839 H   0  0  0  0  0  0
   -5.3482   11.7066   11.9643 H   0  0  0  0  0  0
   -3.7099   11.1117   12.3990 H   0  0  0  0  0  0
   -2.3863   11.7524   11.2716 H   0  0  0  0  0  0
   -3.9166   10.2554    7.9139 H   0  0  0  0  0  0
   -6.1344    7.5378   11.9902 H   0  0  0  0  0  0
   -8.9097    8.7012   11.8988 H   0  0  0  0  0  0
   -9.3763    7.4126    9.6899 H   0  0  0  0  0  0
   -7.8307    5.4945   10.1738 H   0  0  0  0  0  0
   -8.4261    9.7295    9.5188 H   0  0  0  0  0  0
   -7.8947    8.6581    8.1785 H   0  0  0  0  0  0
   -6.7736    9.0252    9.5332 H   0  0  0  0  0  0
   -6.9358    6.2074   12.9480 H   0  0  0  0  0  0
   -7.5356    4.1875   14.0687 H   0  0  0  0  0  0
   -9.2695    4.4473   13.6779 H   0  0  0  0  0  0
   -8.0325    4.7839   10.6566 H   0  0  0  0  0  0
   -9.0187    2.1049   10.1400 H   0  0  0  0  0  0
   -7.3754    3.8708    8.2001 H   0  0  0  0  0  0
   -8.4551    2.5204    7.7127 H   0  0  0  0  0  0
  -10.2958    3.9496    8.9298 H   0  0  0  0  0  0
   -9.1320    5.2900    8.6549 H   0  0  0  0  0  0
   -9.7648    3.8345    4.9488 H   0  0  0  0  0  0
   -8.2138    0.3054    8.9762 H   0  0  0  0  0  0
   -5.6827   -0.4860   10.2158 H   0  0  0  0  0  0
   -7.5946   -1.8718    8.1968 H   0  0  0  0  0  0
   -6.0958   -2.7053    8.7312 H   0  0  0  0  0  0
   -8.3973   -1.9657   10.5247 H   0  0  0  0  0  0
   -9.0339   -3.5654    8.7278 H   0  0  0  0  0  0
   -9.0502   -4.3046   10.3649 H   0  0  0  0  0  0
   -7.6905   -4.6420    9.2406 H   0  0  0  0  0  0
   -6.2421   -2.1616   11.6829 H   0  0  0  0  0  0
   -6.0324   -3.8079   10.9956 H   0  0  0  0  0  0
   -7.3922   -3.4705   12.1198 H   0  0  0  0  0  0
   -3.9161   -1.3987    9.5046 H   0  0  0  0  0  0
   -2.0893   -1.8021    8.1708 H   0  0  0  0  0  0
   -2.1693   -2.4285    5.9659 H   0  0  0  0  0  0
   -3.9232   -2.4589    6.3524 H   0  0  0  0  0  0
   -4.3585   -0.5799    5.0911 H   0  0  0  0  0  0
   -2.6384   -0.0627    5.0721 H   0  0  0  0  0  0
   -3.0957   -3.5401    4.6946 H   0  0  0  0  0  0
   -2.8614   -3.5590    2.8039 H   0  0  0  0  0  0
   -1.3442    1.7342    6.3266 H   0  0  0  0  0  0
  1  2  1  0  0  0
  1 89  1  0  0  0
  1 90  1  0  0  0
  1 91  1  0  0  0
  2  3  1  0  0  0
  2  5  1  0  0  0
  2 92  1  0  0  0
  3  4  2  0  0  0
  3 10  1  0  0  0
  5  6  1  0  0  0
  5 93  1  0  0  0
  5 94  1  0  0  0
  6  7  1  0  0  0
  6 95  1  0  0  0
  6 96  1  0  0  0
  7  8  1  0  0  0
  7 97  1  0  0  0
  7 98  1  0  0  0
  8  9  1  0  0  0
  8 99  1  0  0  0
  8100  1  0  0  0
  9101  1  0  0  0
  9102  1  0  0  0
  9103  1  0  0  0
 10 11  1  0  0  0
 10104  1  0  0  0
 11 12  1  0  0  0
 11 14  1  0  0  0
 11105  1  0  0  0
 12 13  2  0  0  0
 12 19  1  0  0  0
 14 15  1  0  0  0
 14106  1  0  0  0
 14107  1  0  0  0
 15 16  1  0  0  0
 15108  1  0  0  0
 15109  1  0  0  0
 16 17  1  0  0  0
 16 18  2  0  0  0
 17110  1  0  0  0
 19 20  1  0  0  0
 19111  1  0  0  0
 20 21  1  0  0  0
 20 23  1  0  0  0
 20112  1  0  0  0
 21 22  2  0  0  0
 21 26  1  0  0  0
 23 24  1  0  0  0
 23 25  1  0  0  0
 23113  1  0  0  0
 24114  1  0  0  0
 24115  1  0  0  0
 24116  1  0  0  0
 25117  1  0  0  0
 25118  1  0  0  0
 25119  1  0  0  0
 26 27  1  0  0  0
 26120  1  0  0  0
 27 28  1  0  0  0
 27 30  1  0  0  0
 27121  1  0  0  0
 28 29  2  0  0  0
 28 34  1  0  0  0
 30 31  1  0  0  0
 30122  1  0  0  0
 30123  1  0  0  0
 31 32  2  0  0  0
 31 33  1  0  0  0
 33124  1  0  0  0
 34 35  1  0  0  0
 34 40  1  0  0  0
 35 36  1  0  0  0
 35 38  1  0  0  0
 35125  1  0  0  0
 36 37  2  0  0  0
 36 41  1  0  0  0
 38 39  1  0  0  0
 38126  1  0  0  0
 38127  1  0  0  0
 39 40  1  0  0  0
 39128  1  0  0  0
 39129  1  0  0  0
 40130  1  0  0  0
 40131  1  0  0  0
 41 42  1  0  0  0
 41132  1  0  0  0
 42 43  1  0  0  0
 42 45  1  0  0  0
 42133  1  0  0  0
 43 44  1  0  0  0
 43134  1  0  0  0
 43135  1  0  0  0
 44 47  1  0  0  0
 45 46  2  0  0  0
 45 51  1  0  0  0
 47 48  1  0  0  0
 47 49  2  0  0  0
 47 50  1  0  0  0
 48136  1  0  0  0
 50137  1  0  0  0
 51 52  1  0  0  0
 51138  1  0  0  0
 52 53  1  0  0  0
 52 55  1  0  0  0
 52139  1  0  0  0
 53 54  2  0  0  0
 53 58  1  0  0  0
 55 56  1  0  0  0
 55 57  1  0  0  0
 55140  1  0  0  0
 56141  1  0  0  0
 57142  1  0  0  0
 57143  1  0  0  0
 57144  1  0  0  0
 58 59  1  0  0  0
 58145  1  0  0  0
 59 60  1  0  0  0
 59146  1  0  0  0
 59147  1  0  0  0
 60 61  2  0  0  0
 60 62  1  0  0  0
 62 63  1  0  0  0
 62148  1  0  0  0
 63 64  1  0  0  0
 63 66  1  0  0  0
 63149  1  0  0  0
 64 65  2  0  0  0
 64 71  1  0  0  0
 66 67  1  0  0  0
 66150  1  0  0  0
 66151  1  0  0  0
 67 68  1  0  0  0
 67152  1  0  0  0
 67153  1  0  0  0
 68 69  1  0  0  0
 68 70  2  0  0  0
 69154  1  0  0  0
 71 72  1  0  0  0
 71155  1  0  0  0
 72 73  1  0  0  0
 72 75  1  0  0  0
 72156  1  0  0  0
 73 74  2  0  0  0
 73 79  1  0  0  0
 75 76  1  0  0  0
 75157  1  0  0  0
 75158  1  0  0  0
 76 77  1  0  0  0
 76 78  1  0  0  0
 76159  1  0  0  0
 77160  1  0  0  0
 77161  1  0  0  0
 77162  1  0  0  0
 78163  1  0  0  0
 78164  1  0  0  0
 78165  1  0  0  0
 79 80  1  0  0  0
 79166  1  0  0  0
 80 81  1  0  0  0
 80 83  1  0  0  0
 80167  1  0  0  0
 81 82  2  0  0  0
 81 88  1  0  0  0
 83 84  1  0  0  0
 83168  1  0  0  0
 83169  1  0  0  0
 84 85  1  0  0  0
 84170  1  0  0  0
 84171  1  0  0  0
 85 86  2  0  0  0
 85 87  1  0  0  0
 87172  1  0  0  0
 87173  1  0  0  0
 88174  1  0  0  0
M  CHG  2   1   1   9   1
M  END
> <s_m_source_file>
../3wdz_ligand.sdf

> <i_m_source_file_index>
1

> <s_epik_input>
W05IMytdW0NIMl1bQ0gyXVtDSDJdW0NIMl1bQ0BIXShbTkgzK10pQyg9TylbTkhdW0NAQEhdKFtDSDJdW0NIMl1DKD1PKVtPSF0pQyg9TylbTkhdW0NAQEhdKFtDSF0oW0NIM10pW0NIM10pQyg9TylbTkhdW0NAQEhdKFtDSDJdQyg9TylbT0hdKUMoPU8pTjFbQ0BASF0oW0NIMl1bQ0gyXVtDSDJdMSlDKD1PKVtOSF1bQ0BASF0oW0NIMl1PUCg9TykoW09IXSlbT0hdKUMoPU8pW05IXVtDQEBIXShbQ0BIXShbT0hdKVtDSDNdKUMoPU8pW05IXVtDSDJdQyg9TylbTkhdW0NAQEhdKFtDSDJdW0NIMl1DKD1PKVtPSF0pQyg9TylbTkhdW0NAQEhdKFtDSDJdW0NIXShbQ0gzXSlbQ0gzXSlDKD1PKVtOSF1bQ0BIXShDKD1PKVtPSF0pW0NIMl1bQ0gyXUMoPU8pW05IMl0=

> <s_epik_cmdline>
J2VwaWtfYXBwJywgJy1pbWFlJywgJ2xpZ2FuZF9wcm8ubWFlJywgJy1vbWFlJywgJ2xpZ2FuZF9wcmVwLm1hZScsICctbXMnLCAnMScsICctcGgnLCAnNycsICctcGh0JywgJzAuNScsICctbnQn

> <s_epik_pKa_notes>
Molecule size exceeds maximum supported for generating protonation states

$$$$
