3we4_ligand
                    3D
 Schrodinger Suite 2020-3.
 51 54  0  0  1  0            999 V2000
  -14.4280   10.1030  -14.4140 C   0  0  0  0  0  0
  -14.1710    8.8990  -13.6940 C   0  0  0  0  0  0
  -14.4000    7.7260  -14.3850 C   0  0  0  0  0  0
  -14.8110    7.6930  -15.6470 N   0  3  0  0  0  0
  -14.8550   10.0730  -15.6910 N   0  0  0  0  0  0
   -6.5540   15.7550   -9.5750 F   0  0  0  0  0  0
   -7.5750   16.4120   -9.1030 C   0  0  0  0  0  0
   -7.1320   17.6530   -8.8700 F   0  0  0  0  0  0
   -7.7720   15.9270   -7.8740 F   0  0  0  0  0  0
   -8.7790   16.3980  -10.0280 C   0  0  0  0  0  0
   -8.6520   17.1360  -11.2120 C   0  0  0  0  0  0
   -9.6740   17.2310  -12.1190 C   0  0  0  0  0  0
   -9.9320   15.7370   -9.6760 C   0  0  0  0  0  0
  -10.9860   15.8260  -10.5990 C   0  0  0  0  0  0
  -10.8510   16.5700  -11.7960 C   0  0  0  0  0  0
  -12.0500   16.4460  -12.4490 N   0  3  0  0  0  0
  -12.2530   15.2630  -10.5310 N   0  0  0  0  0  0
  -12.8760   15.6490  -11.6250 C   0  0  0  0  0  0
  -14.2550   15.3280  -12.0720 C   0  0  0  0  0  0
  -14.5450   14.1520  -12.8890 N   0  3  0  0  0  0
  -14.4200   13.0090  -11.9580 C   0  0  0  0  0  0
  -14.9630   11.7490  -12.6220 C   0  0  0  0  0  0
  -13.7000   13.8510  -14.0630 C   0  0  0  0  0  0
  -14.1990   12.5330  -14.7180 C   0  0  0  0  0  0
  -14.2590   11.3870  -13.8570 N   0  0  0  0  0  0
  -13.6960    8.8050  -12.2830 C   0  0  0  0  0  0
  -12.2930    9.3450  -12.0570 C   0  0  0  0  0  0
  -15.0260    8.8770  -16.2350 C   0  0  0  0  0  0
  -14.2352    6.7801  -13.8689 H   0  0  0  0  0  0
   -7.7127   17.6495  -11.4174 H   0  0  0  0  0  0
   -9.5686   17.7957  -13.0453 H   0  0  0  0  0  0
  -10.0217   15.1811   -8.7427 H   0  0  0  0  0  0
  -14.9012   15.1847  -11.1934 H   0  0  0  0  0  0
  -14.6446   16.1559  -12.6825 H   0  0  0  0  0  0
  -13.3610   12.8599  -11.7007 H   0  0  0  0  0  0
  -14.9939   13.2170  -11.0429 H   0  0  0  0  0  0
  -14.8691   10.8998  -11.9291 H   0  0  0  0  0  0
  -16.0223   11.8972  -12.8788 H   0  0  0  0  0  0
  -13.7710   14.6761  -14.7870 H   0  0  0  0  0  0
  -12.6544   13.7339  -13.7419 H   0  0  0  0  0  0
  -15.2186   12.6787  -15.1044 H   0  0  0  0  0  0
  -13.5289   12.2584  -15.5460 H   0  0  0  0  0  0
  -14.3702    9.3788  -11.6302 H   0  0  0  0  0  0
  -13.6894    7.7512  -11.9677 H   0  0  0  0  0  0
  -12.0251    9.2369  -10.9956 H   0  0  0  0  0  0
  -12.2598   10.4082  -12.3371 H   0  0  0  0  0  0
  -11.5790    8.7806  -12.6747 H   0  0  0  0  0  0
  -15.3776    8.8544  -17.2665 H   0  0  0  0  0  0
  -12.1974   16.9312  -13.4251 H   0  0  0  0  0  0
  -14.9571    6.7272  -16.1528 H   0  0  0  0  0  0
  -15.5278   14.3610  -13.3367 H   0  0  0  0  0  0
  1  2  2  0  0  0
  1  5  1  0  0  0
  1 25  1  0  0  0
  2  3  1  0  0  0
  2 26  1  0  0  0
  3  4  2  0  0  0
  3 29  1  0  0  0
  4 28  1  0  0  0
  4 50  1  0  0  0
  5 28  2  0  0  0
  6  7  1  0  0  0
  7  8  1  0  0  0
  7  9  1  0  0  0
  7 10  1  0  0  0
 10 11  2  0  0  0
 10 13  1  0  0  0
 11 12  1  0  0  0
 11 30  1  0  0  0
 12 15  2  0  0  0
 12 31  1  0  0  0
 13 14  2  0  0  0
 13 32  1  0  0  0
 14 15  1  0  0  0
 14 17  1  0  0  0
 15 16  1  0  0  0
 16 18  1  0  0  0
 16 49  1  0  0  0
 17 18  2  0  0  0
 18 19  1  0  0  0
 19 20  1  0  0  0
 19 33  1  0  0  0
 19 34  1  0  0  0
 20 21  1  0  0  0
 20 23  1  0  0  0
 20 51  1  0  0  0
 21 22  1  0  0  0
 21 35  1  0  0  0
 21 36  1  0  0  0
 22 25  1  0  0  0
 22 37  1  0  0  0
 22 38  1  0  0  0
 23 24  1  0  0  0
 23 39  1  0  0  0
 23 40  1  0  0  0
 24 25  1  0  0  0
 24 41  1  0  0  0
 24 42  1  0  0  0
 26 27  1  0  0  0
 26 43  1  0  0  0
 26 44  1  0  0  0
 27 45  1  0  0  0
 27 46  1  0  0  0
 27 47  1  0  0  0
 28 48  1  0  0  0
M  CHG  3   4   1  16   1  20   1
M  END
> <s_m_source_file>
../3we4_ligand.sdf

> <i_m_source_file_index>
1

> <s_epik_input>
bjFbY0hdbltjSF1jKFtDSDJdW0NIM10pYzFOKFtDSDJdW0NIMl0yKVtDSDJdW0NIMl1bTkgrXTJbQ0gyXWMobjMpW25IXWMoYzM0KVtjSF1bY0hdYyhDKEYpKEYpRilbY0hdNA==

> <s_epik_cmdline>
J2VwaWtfYXBwJywgJy1pbWFlJywgJ2xpZ2FuZF9wcm8ubWFlJywgJy1vbWFlJywgJ2xpZ2FuZF9wcmVwLm1hZScsICctbXMnLCAnMScsICctcGgnLCAnNycsICctcGh0JywgJzAuNScsICctbnQn

> <r_lp_tautomer_probability>
1

> <r_epik_Ionization_Penalty>
  2.3368

> <r_epik_Ionization_Penalty_Charging>
  2.3368

> <r_epik_Ionization_Penalty_Neutral>
  0.0000

> <r_epik_State_Penalty>
 -0.0000

> <r_epik_Charging_Adjusted_Penalty>
2.33679953172212

> <i_epik_Tot_Q>
3

> <i_epik_Tot_abs_Q>
3

> <s_epik_Chemistry_Notes>
This compound has an imine and may undergo hydrolysis.

$$$$
