3wf5_ligand
                    3D
 Schrodinger Suite 2020-3.
 40 44  0  0  1  0            999 V2000
  -13.1510    7.1800  -14.8580 N   0  0  0  0  0  0
  -13.4170    8.3490  -15.4210 C   0  0  0  0  0  0
  -13.4410    9.5790  -14.8610 N   0  0  0  0  0  0
  -13.1640    9.6770  -13.5500 C   0  0  0  0  0  0
  -13.2170   10.9450  -12.9280 N   0  0  0  0  0  0
  -13.0560   12.1910  -13.7480 C   0  0  0  0  0  0
  -12.0490   13.1250  -13.0700 C   0  0  0  0  0  0
  -12.1570   13.3600  -11.5430 C   0  0  0  0  0  0
  -11.0440   14.1540  -11.0110 C   0  0  0  0  0  0
  -10.8190   15.4340  -11.5810 N   0  0  0  0  0  0
   -9.6880   15.9640  -10.9210 C   0  0  0  0  0  0
   -9.0210   17.1960  -11.0570 C   0  0  0  0  0  0
   -7.9260   17.3810  -10.2380 C   0  0  0  0  0  0
   -7.5010   16.4070   -9.3180 C   0  0  0  0  0  0
   -8.1630   15.2130   -9.1790 C   0  0  0  0  0  0
   -9.2840   14.9780   -9.9940 C   0  0  0  0  0  0
  -10.1440   13.8650  -10.0770 N   0  0  0  0  0  0
  -12.5060   12.0390  -10.8840 C   0  0  0  0  0  0
  -13.5360   11.1140  -11.4980 C   0  0  0  0  0  0
  -12.8730    8.5180  -12.8120 C   0  0  0  0  0  0
  -12.5200    8.1550  -11.4620 C   0  0  0  0  0  0
  -12.3430    6.8160  -11.3730 N   0  3  0  0  0  0
  -12.5570    6.2930  -12.6130 N   0  0  0  0  0  0
  -12.8820    7.2910  -13.5180 C   0  0  0  0  0  0
  -13.6492    8.3143  -16.4854 H   0  0  0  0  0  0
  -12.6906   11.9252  -14.7509 H   0  0  0  0  0  0
  -14.0268   12.7009  -13.8347 H   0  0  0  0  0  0
  -11.0307   12.7366  -13.2190 H   0  0  0  0  0  0
  -12.1263   14.1298  -13.5109 H   0  0  0  0  0  0
   -9.3817   17.9395  -11.7830 H   0  0  0  0  0  0
   -7.3798   18.3319  -10.3239 H   0  0  0  0  0  0
   -6.6185   16.5932   -8.6883 H   0  0  0  0  0  0
   -7.8290   14.4678   -8.4570 H   0  0  0  0  0  0
  -11.6042   11.4126  -10.8180 H   0  0  0  0  0  0
  -12.8976   12.2257   -9.8731 H   0  0  0  0  0  0
  -14.5410   11.5492  -11.3955 H   0  0  0  0  0  0
  -13.5078   10.1347  -10.9978 H   0  0  0  0  0  0
  -12.4116    8.8561  -10.6344 H   0  0  0  0  0  0
  -12.0752    6.3595  -10.4087 H   0  0  0  0  0  0
  -11.4820   15.8064  -12.3758 H   0  0  0  0  0  0
  1  2  2  0  0  0
  1 24  1  0  0  0
  2  3  1  0  0  0
  2 25  1  0  0  0
  3  4  2  0  0  0
  4  5  1  0  0  0
  4 20  1  0  0  0
  5  6  1  0  0  0
  5 19  1  0  0  0
  6  7  1  0  0  0
  6 26  1  0  0  0
  6 27  1  0  0  0
  7  8  1  0  0  0
  7 28  1  0  0  0
  7 29  1  0  0  0
  8  9  2  0  0  0
  8 18  1  0  0  0
  9 10  1  0  0  0
  9 17  1  0  0  0
 10 11  1  0  0  0
 10 40  1  0  0  0
 11 12  2  0  0  0
 11 16  1  0  0  0
 12 13  1  0  0  0
 12 30  1  0  0  0
 13 14  2  0  0  0
 13 31  1  0  0  0
 14 15  1  0  0  0
 14 32  1  0  0  0
 15 16  1  0  0  0
 15 33  1  0  0  0
 16 17  2  0  0  0
 18 19  1  0  0  0
 18 34  1  0  0  0
 18 35  1  0  0  0
 19 36  1  0  0  0
 19 37  1  0  0  0
 20 21  1  0  0  0
 20 24  2  0  0  0
 21 22  2  0  0  0
 21 38  1  0  0  0
 22 23  1  0  0  0
 22 39  1  0  0  0
 23 24  1  0  0  0
M  CHG  1  22   1
M  END
> <s_m_source_file>
../3wf5_ligand.sdf

> <i_m_source_file_index>
1

> <s_epik_input>
W2NIXTFuW25IXWMoYzEyKW5bY0hdbmMyTjNbQ0gyXVtDSDJdW0NIXShbQ0gyXVtDSDJdMylDKD1ONClOPUMoQzQ9NSlbQ0gyXVtDSF09W0NIXVtDSF01

> <s_epik_cmdline>
J2VwaWtfYXBwJywgJy1pbWFlJywgJ2xpZ2FuZF9wcm8ubWFlJywgJy1vbWFlJywgJ2xpZ2FuZF9wcmVwLm1hZScsICctbXMnLCAnMScsICctcGgnLCAnNycsICctcGh0JywgJzAuNScsICctbnQn

> <r_lp_tautomer_probability>
1

> <r_epik_Ionization_Penalty>
  0.0000

> <r_epik_Ionization_Penalty_Charging>
  0.0000

> <r_epik_Ionization_Penalty_Neutral>
  0.0000

> <r_epik_State_Penalty>
 -0.0000

> <r_epik_Charging_Adjusted_Penalty>
0

> <i_epik_Tot_Q>
1

> <i_epik_Tot_abs_Q>
1

> <s_epik_Chemistry_Notes>
This compound has an imine and may undergo hydrolysis.

$$$$
