3wf6_ligand
                    3D
 Schrodinger Suite 2020-3.
 39 43  0  0  1  0            999 V2000
    7.2240  -13.3080   15.0940 N   0  0  0  0  0  0
    8.4280  -13.4240   15.6520 C   0  0  0  0  0  0
    9.6410  -13.2620   15.1040 N   0  0  0  0  0  0
    9.7020  -12.9480   13.8060 C   0  0  0  0  0  0
   10.9700  -12.7780   13.2230 N   0  0  0  0  0  0
   11.1550  -12.3820   11.7720 C   0  0  0  0  0  0
   12.3560  -11.5960   11.4690 C   0  0  0  0  0  0
   13.4760  -11.7070   12.1810 C   0  0  0  0  0  0
   14.6630  -10.9260   11.8970 C   0  0  0  0  0  0
   14.8490   -9.8060   11.0080 C   0  0  0  0  0  0
   14.0300   -9.0960   10.1160 C   0  0  0  0  0  0
   14.5500   -8.0450    9.3920 C   0  0  0  0  0  0
   15.8970   -7.6620    9.5170 C   0  0  0  0  0  0
   16.7430   -8.3380   10.3610 C   0  0  0  0  0  0
   16.2060   -9.4070   11.1010 C   0  0  0  0  0  0
   16.8290  -10.2400   12.0340 N   0  0  0  0  0  0
   15.8810  -11.1550   12.5050 C   0  0  0  0  0  0
   13.5230  -12.6770   13.3100 C   0  0  0  0  0  0
   12.1980  -12.8870   14.0330 C   0  0  0  0  0  0
    8.4990  -12.7930   13.0590 C   0  0  0  0  0  0
    8.0730  -12.5000   11.7280 C   0  0  0  0  0  0
    6.7310  -12.5070   11.6450 N   0  3  0  0  0  0
    6.2540  -12.8070   12.8840 N   0  0  0  0  0  0
    7.2840  -12.9950   13.7740 C   0  0  0  0  0  0
    8.4270  -13.6896   16.7092 H   0  0  0  0  0  0
   11.2170  -13.2871   11.1500 H   0  0  0  0  0  0
   10.2998  -11.7714   11.4467 H   0  0  0  0  0  0
   12.3103  -10.8967   10.6212 H   0  0  0  0  0  0
   12.9737   -9.3781    9.9947 H   0  0  0  0  0  0
   13.9074   -7.4846    8.6970 H   0  0  0  0  0  0
   16.2738   -6.8192    8.9375 H   0  0  0  0  0  0
   17.8046   -8.0715   10.4708 H   0  0  0  0  0  0
   16.1683  -11.9088   13.2528 H   0  0  0  0  0  0
   13.8368  -13.6620   12.9342 H   0  0  0  0  0  0
   14.2421  -12.3264   14.0649 H   0  0  0  0  0  0
   12.1760  -12.1348   14.8353 H   0  0  0  0  0  0
   12.2578  -13.8926   14.4748 H   0  0  0  0  0  0
    8.7441  -12.2982   10.8932 H   0  0  0  0  0  0
    6.2382  -12.2917   10.6854 H   0  0  0  0  0  0
  1  2  2  0  0  0
  1 24  1  0  0  0
  2  3  1  0  0  0
  2 25  1  0  0  0
  3  4  2  0  0  0
  4  5  1  0  0  0
  4 20  1  0  0  0
  5  6  1  0  0  0
  5 19  1  0  0  0
  6  7  1  0  0  0
  6 26  1  0  0  0
  6 27  1  0  0  0
  7  8  2  0  0  0
  7 28  1  0  0  0
  8  9  1  0  0  0
  8 18  1  0  0  0
  9 10  2  0  0  0
  9 17  1  0  0  0
 10 11  1  0  0  0
 10 15  1  0  0  0
 11 12  2  0  0  0
 11 29  1  0  0  0
 12 13  1  0  0  0
 12 30  1  0  0  0
 13 14  1  0  0  0
 13 31  1  0  0  0
 14 15  2  0  0  0
 14 32  1  0  0  0
 15 16  1  0  0  0
 16 17  2  0  0  0
 17 33  1  0  0  0
 18 19  1  0  0  0
 18 34  1  0  0  0
 18 35  1  0  0  0
 19 36  1  0  0  0
 19 37  1  0  0  0
 20 21  1  0  0  0
 20 24  2  0  0  0
 21 22  2  0  0  0
 21 38  1  0  0  0
 22 23  1  0  0  0
 22 39  1  0  0  0
 23 24  1  0  0  0
M  CHG  1  22   1
M  END
> <s_m_source_file>
../3wf6_ligand.sdf

> <i_m_source_file_index>
1

> <s_epik_input>
W2NIXTFuW25IXWMoYzEyKW5bY0hdbmMyTjNbQ0gyXVtDSF09QyhbQ0gyXVtDSDJdMylDPTRbQ0hdPU5DKEM0NSk9W0NIXVtDSDJdW0NIXT1bQ0hdNQ==

> <s_epik_cmdline>
J2VwaWtfYXBwJywgJy1pbWFlJywgJ2xpZ2FuZF9wcm8ubWFlJywgJy1vbWFlJywgJ2xpZ2FuZF9wcmVwLm1hZScsICctbXMnLCAnMScsICctcGgnLCAnNycsICctcGh0JywgJzAuNScsICctbnQn

> <r_lp_tautomer_probability>
1

> <r_epik_Ionization_Penalty>
  0.0000

> <r_epik_Ionization_Penalty_Charging>
  0.0000

> <r_epik_Ionization_Penalty_Neutral>
  0.0000

> <r_epik_State_Penalty>
 -0.0000

> <r_epik_Charging_Adjusted_Penalty>
0

> <i_epik_Tot_Q>
1

> <i_epik_Tot_abs_Q>
1

> <s_epik_Chemistry_Notes>
This compound has an imine and may undergo hydrolysis.

$$$$
