3wf7_ligand
                    3D
 Schrodinger Suite 2020-3.
 45 48  0  0  1  0            999 V2000
    7.3580  -13.5180   15.3770 N   0  0  0  0  0  0
    8.6170  -13.5240   15.8540 C   0  0  0  0  0  0
    9.7850  -13.4400   15.1660 N   0  0  0  0  0  0
    9.7160  -13.3610   13.8080 C   0  0  0  0  0  0
   10.9120  -13.2820   13.1090 N   0  0  0  0  0  0
   11.1260  -13.6990   11.7610 C   0  0  0  0  0  0
   11.5510  -12.5400   10.8970 C   0  0  0  0  0  0
   12.8390  -11.8770   11.3500 C   0  0  0  0  0  0
   13.1230  -10.5720   10.6400 C   0  0  0  0  0  0
   12.2590  -10.0670    9.9280 O   0  0  0  0  0  0
   14.3970   -9.9860   10.8190 N   0  0  0  0  0  0
   14.8720   -8.7580   10.2490 C   0  0  0  0  0  0
   14.0270   -7.8820    9.5700 C   0  0  0  0  0  0
   14.5290   -6.7040    9.0550 C   0  0  0  0  0  0
   13.5900   -5.7890    8.3350 C   0  0  0  0  0  0
   12.6980   -5.2260    9.1570 F   0  0  0  0  0  0
   14.1580   -4.7550    7.6960 F   0  0  0  0  0  0
   12.8440   -6.4070    7.4070 F   0  0  0  0  0  0
   15.8560   -6.3530    9.1760 C   0  0  0  0  0  0
   16.6980   -7.2220    9.8490 C   0  0  0  0  0  0
   16.2220   -8.3990   10.3810 C   0  0  0  0  0  0
   12.8540  -11.6630   12.9070 C   0  0  0  0  0  0
   12.0830  -12.6980   13.7590 C   0  0  0  0  0  0
    8.4460  -13.3580   13.1740 C   0  0  0  0  0  0
    8.0150  -13.2800   11.8300 N   0  3  0  0  0  0
    6.6730  -13.3240   11.9020 C   0  0  0  0  0  0
    6.2020  -13.4120   13.2200 N   0  0  0  0  0  0
    7.3260  -13.4400   14.0250 C   0  0  0  0  0  0
    8.7115  -13.6074   16.9367 H   0  0  0  0  0  0
   11.9146  -14.4655   11.7351 H   0  0  0  0  0  0
   10.1938  -14.1182   11.3545 H   0  0  0  0  0  0
   11.7093  -12.8898    9.8662 H   0  0  0  0  0  0
   10.7666  -11.7689   10.9061 H   0  0  0  0  0  0
   13.6354  -12.5663   11.0327 H   0  0  0  0  0  0
   15.1460  -10.4816   11.4541 H   0  0  0  0  0  0
   12.9721   -8.1267    9.4460 H   0  0  0  0  0  0
   16.2312   -5.4202    8.7550 H   0  0  0  0  0  0
   17.7529   -6.9705    9.9591 H   0  0  0  0  0  0
   16.9042   -9.0622   10.9129 H   0  0  0  0  0  0
   13.8917  -11.6909   13.2709 H   0  0  0  0  0  0
   12.4073  -10.6869   13.1473 H   0  0  0  0  0  0
   11.7720  -12.1806   14.6786 H   0  0  0  0  0  0
   12.7983  -13.4949   14.0107 H   0  0  0  0  0  0
    6.0208  -13.2944   11.0291 H   0  0  0  0  0  0
    8.7541  -13.2038   11.0189 H   0  0  0  0  0  0
  1  2  2  0  0  0
  1 28  1  0  0  0
  2  3  1  0  0  0
  2 29  1  0  0  0
  3  4  2  0  0  0
  4  5  1  0  0  0
  4 24  1  0  0  0
  5  6  1  0  0  0
  5 23  1  0  0  0
  6  7  1  0  0  0
  6 30  1  0  0  0
  6 31  1  0  0  0
  7  8  1  0  0  0
  7 32  1  0  0  0
  7 33  1  0  0  0
  8  9  1  0  0  0
  8 22  1  0  0  0
  8 34  1  0  0  0
  9 10  2  0  0  0
  9 11  1  0  0  0
 11 12  1  0  0  0
 11 35  1  0  0  0
 12 13  2  0  0  0
 12 21  1  0  0  0
 13 14  1  0  0  0
 13 36  1  0  0  0
 14 15  1  0  0  0
 14 19  2  0  0  0
 15 16  1  0  0  0
 15 17  1  0  0  0
 15 18  1  0  0  0
 19 20  1  0  0  0
 19 37  1  0  0  0
 20 21  2  0  0  0
 20 38  1  0  0  0
 21 39  1  0  0  0
 22 23  1  0  0  0
 22 40  1  0  0  0
 22 41  1  0  0  0
 23 42  1  0  0  0
 23 43  1  0  0  0
 24 25  1  0  0  0
 24 28  2  0  0  0
 25 26  2  0  0  0
 25 45  1  0  0  0
 26 27  1  0  0  0
 26 44  1  0  0  0
 27 28  1  0  0  0
M  CHG  1  25   1
M  END
> <s_m_source_file>
../3wf7_ligand.sdf

> <i_m_source_file_index>
1

> <s_epik_input>
bjFbY0hdW25IXWMoYzEyKW5bY0hdbmMyTjNbQ0gyXVtDSDJdW0NIXShbQ0gyXVtDSDJdMylDKD1PKVtOSF1jNFtjSF1jKEMoRikoRilGKVtjSF1bY0hdW2NIXTQ=

> <s_epik_cmdline>
J2VwaWtfYXBwJywgJy1pbWFlJywgJ2xpZ2FuZF9wcm8ubWFlJywgJy1vbWFlJywgJ2xpZ2FuZF9wcmVwLm1hZScsICctbXMnLCAnMScsICctcGgnLCAnNycsICctcGh0JywgJzAuNScsICctbnQn

> <r_epik_Ionization_Penalty>
  0.0131

> <r_epik_Ionization_Penalty_Charging>
  0.0000

> <r_epik_Ionization_Penalty_Neutral>
  0.0131

> <r_epik_State_Penalty>
  0.3717

> <r_epik_Charging_Adjusted_Penalty>
0.371709226775383

> <i_epik_Tot_Q>
1

> <i_epik_Tot_abs_Q>
1

$$$$
