3wf8_ligand
                    3D
 Schrodinger Suite 2020-3.
 55 58  0  0  1  0            999 V2000
   -3.9230   14.6280  -30.6320 N   0  0  0  0  0  0
   -3.6930   15.9200  -30.1150 C   0  0  0  0  0  0
   -4.6980   16.5640  -29.3350 C   0  0  0  0  0  0
   -4.4580   17.8460  -28.8380 C   0  0  0  0  0  0
   -3.2440   18.5000  -29.1050 C   0  0  0  0  0  0
   -2.2610   17.8780  -29.8710 C   0  0  0  0  0  0
   -2.5040   16.5620  -30.3710 C   0  0  0  0  0  0
   -1.5230   15.9210  -31.1430 C   0  0  0  0  0  0
   -0.2650   16.6720  -31.4220 C   0  0  0  0  0  0
   -0.2230   17.3370  -32.4460 O   0  0  0  0  0  0
    0.8340   16.6530  -30.5920 O   0  0  0  0  0  0
    1.8960   17.4410  -31.0090 C   0  0  0  0  0  0
    2.6160   16.9950  -32.2500 C   0  0  0  0  0  0
    2.2610   15.9500  -32.7840 O   0  0  0  0  0  0
    3.6780   17.8090  -32.7850 N   0  0  0  0  0  0
    4.4400   17.4790  -33.9660 C   0  0  0  0  0  0
    5.6150   18.1740  -34.1790 C   0  0  0  0  0  0
    6.3870   17.9090  -35.3000 C   0  0  0  0  0  0
    5.9910   16.9550  -36.2240 C   0  0  0  0  0  0
    7.0140   16.6320  -37.6300 S   0  0  0  0  0  0
    7.7950   17.7830  -37.9860 O   0  0  0  0  0  0
    6.2110   16.3510  -38.7740 O   0  0  0  0  0  0
    7.9570   15.3460  -37.3060 N   0  0  0  0  0  0
    4.8100   16.2540  -36.0290 C   0  0  0  0  0  0
    4.0360   16.5250  -34.9000 C   0  0  0  0  0  0
   -1.7330   14.6270  -31.6620 C   0  0  0  0  0  0
   -0.6490   13.9800  -32.5050 C   0  0  0  0  0  0
   -0.1310   12.6620  -32.0150 C   0  0  0  0  0  0
   -1.0200   11.4920  -32.2720 C   0  0  0  0  0  0
   -2.3150   11.5190  -31.5250 C   0  0  0  0  0  0
   -3.2770   12.5930  -31.9000 C   0  0  0  0  0  0
   -2.9450   13.9820  -31.3970 C   0  0  0  0  0  0
   -5.6428   16.0609  -29.1292 H   0  0  0  0  0  0
   -5.2193   18.3439  -28.2375 H   0  0  0  0  0  0
   -3.0700   19.5009  -28.7101 H   0  0  0  0  0  0
   -1.3214   18.3871  -30.0855 H   0  0  0  0  0  0
    1.5365   18.4590  -31.2200 H   0  0  0  0  0  0
    2.6582   17.4782  -30.2168 H   0  0  0  0  0  0
    3.9536   18.7504  -32.2871 H   0  0  0  0  0  0
    5.9357   18.9321  -33.4645 H   0  0  0  0  0  0
    7.3160   18.4573  -35.4562 H   0  0  0  0  0  0
    8.5991   15.1343  -38.1737 H   0  0  0  0  0  0
    7.3243   14.4711  -37.0958 H   0  0  0  0  0  0
    4.4905   15.5006  -36.7490 H   0  0  0  0  0  0
    3.1026   15.9836  -34.7458 H   0  0  0  0  0  0
   -1.0333   13.7977  -33.5195 H   0  0  0  0  0  0
    0.2227   14.6489  -32.5578 H   0  0  0  0  0  0
    0.8277   12.4393  -32.5062 H   0  0  0  0  0  0
    0.0170   12.7081  -30.9260 H   0  0  0  0  0  0
   -1.2699   11.4495  -33.3424 H   0  0  0  0  0  0
   -0.5021   10.5667  -31.9794 H   0  0  0  0  0  0
   -2.8485   10.5699  -31.6817 H   0  0  0  0  0  0
   -2.1164   11.6551  -30.4517 H   0  0  0  0  0  0
   -3.3329   12.6689  -32.9960 H   0  0  0  0  0  0
   -4.2719   12.3509  -31.4980 H   0  0  0  0  0  0
  1  2  2  0  0  0
  1 32  1  0  0  0
  2  3  1  0  0  0
  2  7  1  0  0  0
  3  4  2  0  0  0
  3 33  1  0  0  0
  4  5  1  0  0  0
  4 34  1  0  0  0
  5  6  2  0  0  0
  5 35  1  0  0  0
  6  7  1  0  0  0
  6 36  1  0  0  0
  7  8  2  0  0  0
  8  9  1  0  0  0
  8 26  1  0  0  0
  9 10  2  0  0  0
  9 11  1  0  0  0
 11 12  1  0  0  0
 12 13  1  0  0  0
 12 37  1  0  0  0
 12 38  1  0  0  0
 13 14  2  0  0  0
 13 15  1  0  0  0
 15 16  1  0  0  0
 15 39  1  0  0  0
 16 17  2  0  0  0
 16 25  1  0  0  0
 17 18  1  0  0  0
 17 40  1  0  0  0
 18 19  2  0  0  0
 18 41  1  0  0  0
 19 20  1  0  0  0
 19 24  1  0  0  0
 20 21  2  0  0  0
 20 22  2  0  0  0
 20 23  1  0  0  0
 23 42  1  0  0  0
 23 43  1  0  0  0
 24 25  2  0  0  0
 24 44  1  0  0  0
 25 45  1  0  0  0
 26 27  1  0  0  0
 26 32  2  0  0  0
 27 28  1  0  0  0
 27 46  1  0  0  0
 27 47  1  0  0  0
 28 29  1  0  0  0
 28 48  1  0  0  0
 28 49  1  0  0  0
 29 30  1  0  0  0
 29 50  1  0  0  0
 29 51  1  0  0  0
 30 31  1  0  0  0
 30 52  1  0  0  0
 30 53  1  0  0  0
 31 32  1  0  0  0
 31 54  1  0  0  0
 31 55  1  0  0  0
M  END
> <s_m_source_file>
../3wf8_ligand.sdf

> <i_m_source_file_index>
1

> <s_epik_input>
W0NIMl0xW0NIMl1bQ0gyXVtDSDJdW0NIMl1jKG4yKWMxYyhjKGMyMylbY0hdW2NIXVtjSF1bY0hdMylDKD1PKU9bQ0gyXUMoPU8pW05IXWM0W2NIXVtjSF1jKFMoPU8pKD1PKVtOSDJdKVtjSF1bY0hdNA==

> <s_epik_cmdline>
J2VwaWtfYXBwJywgJy1pbWFlJywgJ2xpZ2FuZF9wcm8ubWFlJywgJy1vbWFlJywgJ2xpZ2FuZF9wcmVwLm1hZScsICctbXMnLCAnMScsICctcGgnLCAnNycsICctcGh0JywgJzAuNScsICctbnQn

> <r_lp_tautomer_probability>
1

> <r_epik_Ionization_Penalty>
  0.0007

> <r_epik_Ionization_Penalty_Charging>
  0.0000

> <r_epik_Ionization_Penalty_Neutral>
  0.0007

> <r_epik_State_Penalty>
 -0.0000

> <r_epik_Charging_Adjusted_Penalty>
0

> <i_epik_Tot_Q>
0

> <i_epik_Tot_abs_Q>
0

> <s_epik_Chemistry_Notes>
This compound has an ester and may undergo hydrolysis at high or low pH.

$$$$
