3wff_ligand
                    3D
 Schrodinger Suite 2020-3.
 36 39  0  0  1  0            999 V2000
    4.1330    6.0110   59.4660 C   0  0  0  0  0  0
    2.7020    9.7150   58.1390 C   0  0  0  0  0  0
    4.5280    5.1990   60.5090 C   0  0  0  0  0  0
    2.2180   10.5500   59.1300 C   0  0  0  0  0  0
    3.6730    4.0730   58.1490 C   0  0  0  0  0  0
    0.8740    8.7980   60.0430 C   0  0  0  0  0  0
    3.6980    5.4510   58.2730 C   0  0  0  0  0  0
    2.2490    8.4070   58.1050 C   0  0  0  0  0  0
    4.0650    3.2670   59.1960 C   0  0  0  0  0  0
    4.4810    3.8280   60.3740 C   0  0  0  0  0  0
    1.3220   10.0920   60.0690 C   0  0  0  0  0  0
    1.3440    7.9800   59.0430 C   0  0  0  0  0  0
    2.6950    7.4810   57.0840 C   0  0  0  0  0  0
    3.2730    6.2780   57.1390 C   0  0  0  0  0  0
    2.5250    7.7900   55.6580 C   0  0  0  0  0  0
    4.1830    1.0400   60.1270 C   0  0  0  0  0  0
    3.5120    5.7480   55.7660 C   0  0  0  0  0  0
    4.1520    1.7770   61.4460 C   0  0  0  0  0  0
    4.0590    1.8830   59.0580 N   0  0  0  0  0  0
    2.0280    8.8120   55.2280 O   0  0  0  0  0  0
    4.3070   -0.1800   60.0490 O   0  0  0  0  0  0
    4.9080    3.0120   61.3930 O   0  0  0  0  0  0
    3.0240    6.7740   54.9110 O   0  0  0  0  0  0
    0.8310   10.8630   61.0530 F   0  0  0  0  0  0
    0.9020    6.7210   58.9970 F   0  0  0  0  0  0
    4.1626    7.0947   59.5791 H   0  0  0  0  0  0
    3.4211   10.0772   57.4042 H   0  0  0  0  0  0
    4.8778    5.6423   61.4413 H   0  0  0  0  0  0
    2.5515   11.5870   59.1678 H   0  0  0  0  0  0
    3.3402    3.6208   57.2147 H   0  0  0  0  0  0
    0.1696    8.4297   60.7889 H   0  0  0  0  0  0
    4.5879    5.5678   55.6247 H   0  0  0  0  0  0
    2.9620    4.8042   55.6364 H   0  0  0  0  0  0
    3.1112    2.0212   61.7052 H   0  0  0  0  0  0
    4.5859    1.1411   62.2317 H   0  0  0  0  0  0
    3.9517    1.4301   58.0613 H   0  0  0  0  0  0
  1  3  2  0  0  0
  1  7  1  0  0  0
  1 26  1  0  0  0
  2  4  2  0  0  0
  2  8  1  0  0  0
  2 27  1  0  0  0
  3 10  1  0  0  0
  3 28  1  0  0  0
  4 11  1  0  0  0
  4 29  1  0  0  0
  5  7  2  0  0  0
  5  9  1  0  0  0
  5 30  1  0  0  0
  6 11  2  0  0  0
  6 12  1  0  0  0
  6 31  1  0  0  0
  7 14  1  0  0  0
  8 12  2  0  0  0
  8 13  1  0  0  0
  9 10  2  0  0  0
  9 19  1  0  0  0
 10 22  1  0  0  0
 11 24  1  0  0  0
 12 25  1  0  0  0
 13 14  2  0  0  0
 13 15  1  0  0  0
 14 17  1  0  0  0
 15 20  2  0  0  0
 15 23  1  0  0  0
 16 18  1  0  0  0
 16 19  1  0  0  0
 16 21  2  0  0  0
 17 23  1  0  0  0
 17 32  1  0  0  0
 17 33  1  0  0  0
 18 22  1  0  0  0
 18 34  1  0  0  0
 18 35  1  0  0  0
 19 36  1  0  0  0
M  END
> <s_m_source_file>
../3wff_ligand.sdf

> <i_m_source_file_index>
1

> <s_epik_input>
W05IXTFDKD1PKVtDSDJdT2MoYzEyKVtjSF1bY0hdYyhbY0hdMilDKFtDSDJdT0MzPU8pPUMzYzRbY0hdW2NIXWMoRilbY0hdYzRG

> <s_epik_cmdline>
J2VwaWtfYXBwJywgJy1pbWFlJywgJ2xpZ2FuZF9wcm8ubWFlJywgJy1vbWFlJywgJ2xpZ2FuZF9wcmVwLm1hZScsICctbXMnLCAnMScsICctcGgnLCAnNycsICctcGh0JywgJzAuNScsICctbnQn

> <r_lp_tautomer_probability>
1

> <r_epik_Ionization_Penalty>
  0.0000

> <r_epik_Ionization_Penalty_Charging>
  0.0000

> <r_epik_Ionization_Penalty_Neutral>
  0.0000

> <r_epik_State_Penalty>
 -0.0000

> <r_epik_Charging_Adjusted_Penalty>
0

> <i_epik_Tot_Q>
0

> <i_epik_Tot_abs_Q>
0

> <s_epik_Chemistry_Notes>
This compound has an ester and may undergo hydrolysis at high or low pH.

$$$$
