3wfg_ligand
                    3D
 Schrodinger Suite 2020-3.
 39 42  0  0  1  0            999 V2000
    1.5810   30.8420   42.2480 C   0  0  0  0  0  0
    0.7280   33.6720   40.6850 C   0  0  0  0  0  0
    1.7030   33.1140   38.5870 C   0  0  0  0  0  0
    2.0640   30.6480   43.5240 C   0  0  0  0  0  0
    1.4630   34.8340   40.7160 C   0  0  0  0  0  0
    2.4320   34.2870   38.6260 C   0  0  0  0  0  0
   -0.5290   29.9430   42.8980 C   0  0  0  0  0  0
    0.8410   32.7900   39.6310 C   0  0  0  0  0  0
    0.2770   30.5040   41.9120 C   0  0  0  0  0  0
   -0.0380   29.7500   44.1750 C   0  0  0  0  0  0
    1.2420   30.1070   44.4980 C   0  0  0  0  0  0
    2.2920   35.1370   39.6850 C   0  0  0  0  0  0
    0.0430   31.5530   39.5980 C   0  0  0  0  0  0
   -0.2420   30.6540   40.5480 C   0  0  0  0  0  0
   -0.7510   31.1550   38.4010 C   0  0  0  0  0  0
   -0.5200   29.1930   46.4870 C   0  0  0  0  0  0
    0.7340   29.9610   46.7970 C   0  0  0  0  0  0
   -1.1680   29.6060   40.0370 C   0  0  2  0  0  0
   -0.5990   28.2150   40.0690 C   0  0  0  0  0  0
   -0.8570   29.1790   45.1770 N   0  0  0  0  0  0
   -0.8170   31.7190   37.3130 O   0  0  0  0  0  0
   -1.1990   28.6880   47.3840 O   0  0  0  0  0  0
    1.7440   29.8890   45.7790 O   0  0  0  0  0  0
   -1.4140   30.0070   38.6890 O   0  0  0  0  0  0
    3.0170   36.2960   39.7420 F   0  0  0  0  0  0
    2.2353   31.2690   41.4879 H   0  0  0  0  0  0
    0.0467   33.4450   41.5050 H   0  0  0  0  0  0
    1.8031   32.4402   37.7361 H   0  0  0  0  0  0
    3.0914   30.9200   43.7661 H   0  0  0  0  0  0
    1.3799   35.5102   41.5668 H   0  0  0  0  0  0
    3.1165   34.5328   37.8141 H   0  0  0  0  0  0
   -1.5531   29.6543   42.6616 H   0  0  0  0  0  0
    0.4889   31.0252   46.9293 H   0  0  0  0  0  0
    1.1839   29.5706   47.7217 H   0  0  0  0  0  0
   -2.0919   29.5631   40.6325 H   0  0  0  0  0  0
   -0.4142   27.9184   41.1120 H   0  0  0  0  0  0
    0.3472   28.1929   39.5084 H   0  0  0  0  0  0
   -1.3136   27.5159   39.6100 H   0  0  0  0  0  0
   -1.8086   28.7001   44.9028 H   0  0  0  0  0  0
  1  4  2  0  0  0
  1  9  1  0  0  0
  1 26  1  0  0  0
  2  5  2  0  0  0
  2  8  1  0  0  0
  2 27  1  0  0  0
  3  6  1  0  0  0
  3  8  2  0  0  0
  3 28  1  0  0  0
  4 11  1  0  0  0
  4 29  1  0  0  0
  5 12  1  0  0  0
  5 30  1  0  0  0
  6 12  2  0  0  0
  6 31  1  0  0  0
  7  9  2  0  0  0
  7 10  1  0  0  0
  7 32  1  0  0  0
  8 13  1  0  0  0
  9 14  1  0  0  0
 10 11  2  0  0  0
 10 20  1  0  0  0
 11 23  1  0  0  0
 12 25  1  0  0  0
 13 14  2  0  0  0
 13 15  1  0  0  0
 14 18  1  0  0  0
 15 21  2  0  0  0
 15 24  1  0  0  0
 16 17  1  0  0  0
 16 20  1  0  0  0
 16 22  2  0  0  0
 17 23  1  0  0  0
 17 33  1  0  0  0
 17 34  1  0  0  0
 18 19  1  0  0  0
 18 24  1  0  0  0
 18 35  1  0  0  0
 19 36  1  0  0  0
 19 37  1  0  0  0
 19 38  1  0  0  0
 20 39  1  0  0  0
M  END
> <s_m_source_file>
../3wfg_ligand.sdf

> <i_m_source_file_index>
1

> <s_epik_input>
W05IXTFDKD1PKVtDSDJdT2MoYzEyKVtjSF1bY0hdYyhbY0hdMilDKFtDQEhdKFtDSDNdKU9DMz1PKT1DM2M0W2NIXVtjSF1jKEYpW2NIXVtjSF00

> <s_epik_cmdline>
J2VwaWtfYXBwJywgJy1pbWFlJywgJ2xpZ2FuZF9wcm8ubWFlJywgJy1vbWFlJywgJ2xpZ2FuZF9wcmVwLm1hZScsICctbXMnLCAnMScsICctcGgnLCAnNycsICctcGh0JywgJzAuNScsICctbnQn

> <r_lp_tautomer_probability>
1

> <r_epik_Ionization_Penalty>
  0.0000

> <r_epik_Ionization_Penalty_Charging>
  0.0000

> <r_epik_Ionization_Penalty_Neutral>
  0.0000

> <r_epik_State_Penalty>
 -0.0000

> <r_epik_Charging_Adjusted_Penalty>
0

> <i_epik_Tot_Q>
0

> <i_epik_Tot_abs_Q>
0

> <s_epik_Chemistry_Notes>
This compound has an ester and may undergo hydrolysis at high or low pH.

$$$$
