3wgg_ligand
                    3D
 Schrodinger Suite 2020-3.
 71 75  0  0  1  0            999 V2000
    4.5600   27.0870   13.9620 P   0  0  2  0  0  0
    3.3900   27.4530   14.8480 O   0  0  0  0  0  0
    5.2650   28.1460   13.1310 O   0  5  0  0  0  0
    4.1140   25.8390   13.0430 O   0  0  0  0  0  0
    3.4710   24.6600   13.5290 C   0  0  0  0  0  0
    2.5820   24.2390   12.3670 C   0  0  1  0  0  0
    2.0220   22.9480   12.5240 O   0  0  0  0  0  0
    1.4100   25.1930   12.2130 C   0  0  1  0  0  0
    1.4510   25.5890   10.8350 O   0  0  0  0  0  0
    0.1850   24.3160   12.5300 C   0  0  1  0  0  0
   -0.9310   24.6480   11.6920 O   0  0  0  0  0  0
    0.6720   22.9620   12.0970 C   0  0  2  0  0  0
    0.0610   21.8390   12.8020 N   0  0  0  0  0  0
   -0.3780   21.7610   14.0780 C   0  0  0  0  0  0
   -0.7910   20.4850   14.2890 N   0  0  0  0  0  0
   -0.6230   19.8040   13.1260 C   0  0  0  0  0  0
   -0.8760   18.5070   12.7050 C   0  0  0  0  0  0
   -1.4150   17.5960   13.5430 N   0  0  0  0  0  0
   -0.5890   18.1590   11.4450 N   0  0  0  0  0  0
   -0.0870   19.0270   10.5480 C   0  0  0  0  0  0
    0.1350   20.2850   10.9050 N   0  0  0  0  0  0
   -0.1100   20.6790   12.1820 C   0  0  0  0  0  0
    5.7020   26.4300   14.9370 O   0  0  0  0  0  0
    7.2040   26.1690   14.3920 P   0  0  2  0  0  0
    8.0430   27.3780   14.6710 O   0  0  0  0  0  0
    7.1650   25.6980   12.9520 O   0  5  0  0  0  0
    7.7510   25.0170   15.3960 O   0  0  0  0  0  0
    7.3120   23.6450   15.3930 C   0  0  0  0  0  0
    7.9270   22.8810   16.5820 C   0  0  1  0  0  0
    9.2210   23.4390   16.9080 O   0  0  0  0  0  0
    7.1420   22.9610   17.8750 C   0  0  1  0  0  0
    7.3620   21.7410   18.6270 O   0  0  0  0  0  0
    7.8180   24.0800   18.6400 C   0  0  1  0  0  0
    7.6730   23.7370   20.0050 O   0  0  0  0  0  0
    9.2850   24.0730   18.1900 C   0  0  1  0  0  0
   10.2200   23.2390   19.0140 N   0  0  0  0  0  0
   10.7690   23.7590   20.1690 C   0  0  0  0  0  0
   11.6230   23.0850   20.9670 C   0  0  0  0  0  0
   12.1170   23.7540   22.1780 C   0  0  0  0  0  0
   11.5920   24.7900   22.5790 O   0  0  0  0  0  0
   13.1710   23.2050   22.7830 N   0  0  0  0  0  0
   12.0760   21.6830   20.6000 C   0  0  0  0  0  0
   11.4570   21.2280   19.2870 C   0  0  0  0  0  0
   10.6020   21.9830   18.5780 C   0  0  0  0  0  0
    4.2302   23.9022   13.7725 H   0  0  0  0  0  0
    2.8931   24.9035   14.4327 H   0  0  0  0  0  0
    3.2258   24.1749   11.4774 H   0  0  0  0  0  0
    1.4178   26.1228   12.8007 H   0  0  0  0  0  0
    2.2743   26.2196   10.4682 H   0  0  0  0  0  0
   -0.2001   24.4097   13.5561 H   0  0  0  0  0  0
   -1.4552   25.6055   11.8279 H   0  0  0  0  0  0
    0.4987   22.8128   11.0210 H   0  0  0  0  0  0
   -0.3970   22.5735   14.8044 H   0  0  0  0  0  0
   -1.6532   17.8756   14.5798 H   0  0  0  0  0  0
   -1.6159   16.5741   13.1889 H   0  0  0  0  0  0
    0.1361   18.6981    9.5330 H   0  0  0  0  0  0
    6.2155   23.6107   15.4740 H   0  0  0  0  0  0
    7.6257   23.1617   14.4560 H   0  0  0  0  0  0
    8.0063   21.8321   16.2603 H   0  0  0  0  0  0
    6.0578   23.0777   17.7305 H   0  0  0  0  0  0
    6.9568   20.7871   18.2584 H   0  0  0  0  0  0
    7.3771   25.0826   18.5376 H   0  0  0  0  0  0
    6.6722   23.7032   20.4603 H   0  0  0  0  0  0
    9.7005   25.0915   18.1956 H   0  0  0  0  0  0
   10.4717   24.7866   20.4252 H   0  0  0  0  0  0
   13.6091   22.2761   22.3891 H   0  0  0  0  0  0
   13.6023   23.6811   23.6760 H   0  0  0  0  0  0
   13.1708   21.6672   20.4947 H   0  0  0  0  0  0
   11.7736   20.9811   21.3911 H   0  0  0  0  0  0
   11.7401   20.2291   18.9237 H   0  0  0  0  0  0
   10.1908   21.6056   17.6301 H   0  0  0  0  0  0
  1  2  2  0  0  0
  1  3  1  0  0  0
  1  4  1  0  0  0
  1 23  1  0  0  0
  4  5  1  0  0  0
  5  6  1  0  0  0
  5 45  1  0  0  0
  5 46  1  0  0  0
  6  7  1  0  0  0
  6  8  1  0  0  0
  6 47  1  0  0  0
  7 12  1  0  0  0
  8  9  1  0  0  0
  8 10  1  0  0  0
  8 48  1  0  0  0
  9 49  1  0  0  0
 10 11  1  0  0  0
 10 12  1  0  0  0
 10 50  1  0  0  0
 11 51  1  0  0  0
 12 13  1  0  0  0
 12 52  1  0  0  0
 13 14  1  0  0  0
 13 22  1  0  0  0
 14 15  2  0  0  0
 14 53  1  0  0  0
 15 16  1  0  0  0
 16 17  2  0  0  0
 16 22  1  0  0  0
 17 18  1  0  0  0
 17 19  1  0  0  0
 18 54  1  0  0  0
 18 55  1  0  0  0
 19 20  2  0  0  0
 20 21  1  0  0  0
 20 56  1  0  0  0
 21 22  2  0  0  0
 23 24  1  0  0  0
 24 25  2  0  0  0
 24 26  1  0  0  0
 24 27  1  0  0  0
 27 28  1  0  0  0
 28 29  1  0  0  0
 28 57  1  0  0  0
 28 58  1  0  0  0
 29 30  1  0  0  0
 29 31  1  0  0  0
 29 59  1  0  0  0
 30 35  1  0  0  0
 31 32  1  0  0  0
 31 33  1  0  0  0
 31 60  1  0  0  0
 32 61  1  0  0  0
 33 34  1  0  0  0
 33 35  1  0  0  0
 33 62  1  0  0  0
 34 63  1  0  0  0
 35 36  1  0  0  0
 35 64  1  0  0  0
 36 37  1  0  0  0
 36 44  1  0  0  0
 37 38  2  0  0  0
 37 65  1  0  0  0
 38 39  1  0  0  0
 38 42  1  0  0  0
 39 40  2  0  0  0
 39 41  1  0  0  0
 41 66  1  0  0  0
 41 67  1  0  0  0
 42 43  1  0  0  0
 42 68  1  0  0  0
 42 69  1  0  0  0
 43 44  2  0  0  0
 43 70  1  0  0  0
 44 71  1  0  0  0
M  CHG  2   3  -1  26  -1
M  END
> <s_m_source_file>
../3wgg_ligand.sdf

> <i_m_source_file_index>
1

> <s_epik_input>
W05IMl1jMW5bY0hdbmMoYzEyKW4oW2NIXW4yKVtDQEBIXShbQ0BIXShbT0hdKVtDQEBIXTNbT0hdKU9bQ0BASF0zW0NIMl1PW1BAXSg9TykoW09IXSlPW1BAXSg9TykoW09IXSlPW0NIMl1bQ0BIXTRPW0NAQEhdKFtDQEhdKFtPSF0pW0NAQEhdNFtPSF0pTjVbQ0hdPUMoQyg9TylbTkgyXSlbQ0gyXVtDSF09W0NIXTU=

> <s_epik_cmdline>
J2VwaWtfYXBwJywgJy1pbWFlJywgJ2xpZ2FuZF9wcm8ubWFlJywgJy1vbWFlJywgJ2xpZ2FuZF9wcmVwLm1hZScsICctbXMnLCAnMScsICctcGgnLCAnNycsICctcGh0JywgJzAuNScsICctbnQn

> <r_lp_tautomer_probability>
1

> <r_epik_Ionization_Penalty>
  0.0010

> <r_epik_Ionization_Penalty_Charging>
  0.0005

> <r_epik_Ionization_Penalty_Neutral>
  0.0005

> <r_epik_State_Penalty>
 -0.0000

> <r_epik_Charging_Adjusted_Penalty>
0.000545842572464081

> <i_epik_Tot_Q>
-2

> <i_epik_Tot_abs_Q>
2

> <s_epik_Chemistry_Notes>
This compound has an imine and may undergo hydrolysis. This compound contains an acetal/aminal-like group ( X-CH(R)-Y where X, Y are N, S, or O) that may be acid/base labile, releasing an aldehyde.

$$$$
