3whw_ligand
                    3D
 Schrodinger Suite 2020-3.
 66 74  0  0  1  0            999 V2000
    3.9440  -24.0030   14.3440 N   0  0  0  0  0  0
    3.1430  -22.9450   14.1180 C   0  0  0  0  0  0
    3.6040  -21.8690   13.4930 N   0  0  0  0  0  0
    1.8510  -22.9650   14.5250 C   0  0  0  0  0  0
    1.3660  -24.0660   15.1620 C   0  0  0  0  0  0
    0.0620  -24.0440   15.5480 C   0  0  0  0  0  0
   -0.7480  -23.0000   15.3090 C   0  0  0  0  0  0
   -0.3190  -21.9860   14.5940 C   0  0  0  0  0  0
    1.0320  -21.9190   14.2380 C   0  0  0  0  0  0
    1.5230  -20.7990   13.6650 N   0  0  0  0  0  0
    2.8070  -20.8210   13.2820 C   0  0  0  0  0  0
   -0.5110  -25.2030   16.2330 C   0  0  1  0  0  0
    0.2300  -26.3200   16.5030 C   0  0  0  0  0  0
   -0.4040  -27.3640   17.1570 C   0  0  0  0  0  0
   -1.7420  -27.2340   17.5070 C   0  0  0  0  0  0
   -2.4250  -26.0740   17.2080 C   0  0  0  0  0  0
   -1.7660  -25.1310   16.5810 N   0  0  3  0  0  0
   -1.6900  -21.9100   18.6240 O   0  0  0  0  0  0
   -2.0920  -22.4150   17.6230 C   0  0  0  0  0  0
    3.3720  -19.6380   12.5840 C   0  0  0  0  0  0
   -5.7820  -22.7700   18.1830 O   0  0  0  0  0  0
   -5.5800  -23.5810   17.3030 C   0  0  0  0  0  0
   -4.7770  -23.2130   16.1090 C   0  0  0  0  0  0
   -4.3320  -24.1730   15.1240 C   0  0  0  0  0  0
   -4.3520  -21.8550   15.8640 C   0  0  0  0  0  0
   -3.5740  -21.9400   14.6260 C   0  0  0  0  0  0
   -3.5510  -23.3410   14.1610 C   0  0  1  0  0  0
   -6.1570  -24.9000   17.3980 O   0  0  0  0  0  0
   -6.8540  -25.2300   18.5250 C   0  0  0  0  0  0
   -8.2100  -25.0030   18.6440 C   0  0  0  0  0  0
   -8.9500  -24.4420   17.6430 O   0  0  0  0  0  0
   -9.0050  -23.0350   17.4130 C   0  0  0  0  0  0
   -8.8800  -25.3850   19.7890 C   0  0  0  0  0  0
   -8.1910  -25.9810   20.8300 C   0  0  0  0  0  0
   -6.8290  -26.2110   20.7180 C   0  0  0  0  0  0
   -6.1820  -25.8270   19.5570 C   0  0  0  0  0  0
   -4.8440  -26.0250   19.4240 O   0  0  0  0  0  0
   -4.2820  -27.2290   19.9320 C   0  0  0  0  0  0
   -2.7170  -23.2000   16.0670 Ru  0  0  0  0  0  0
    4.9921  -23.9804   14.0110 H   0  0  0  0  0  0
    3.5504  -24.8902   14.8617 H   0  0  0  0  0  0
    1.9987  -24.9323   15.3554 H   0  0  0  0  0  0
   -1.0096  -21.2031   14.2805 H   0  0  0  0  0  0
   -0.8036  -25.6316   15.2631 H   0  0  0  0  0  0
    0.6023  -26.7495   15.5612 H   0  0  0  0  0  0
    1.0816  -26.0489   17.1443 H   0  0  0  0  0  0
   -0.3732  -28.2645   16.5261 H   0  0  0  0  0  0
    0.1088  -27.5656   18.1090 H   0  0  0  0  0  0
   -2.3287  -28.0220   17.0121 H   0  0  0  0  0  0
   -1.8466  -27.3294   18.5979 H   0  0  0  0  0  0
   -3.2828  -26.3100   16.5611 H   0  0  0  0  0  0
   -2.7841  -25.6098   18.1383 H   0  0  0  0  0  0
   -1.3817  -22.7570   16.8558 H   0  0  0  0  0  0
    4.4291  -19.8245   12.3434 H   0  0  0  0  0  0
    3.2945  -18.7557   13.2364 H   0  0  0  0  0  0
    2.8109  -19.4577   11.6552 H   0  0  0  0  0  0
   -3.5607  -23.5701   13.0852 H   0  0  0  0  0  0
   -9.6632  -22.8290   16.5561 H   0  0  0  0  0  0
   -7.9940  -22.6589   17.1976 H   0  0  0  0  0  0
   -9.4002  -22.5323   18.3081 H   0  0  0  0  0  0
   -9.9537  -25.2167   19.8729 H   0  0  0  0  0  0
   -8.7195  -26.2698   21.7385 H   0  0  0  0  0  0
   -6.2777  -26.6857   21.5297 H   0  0  0  0  0  0
   -3.1978  -27.2345   19.7463 H   0  0  0  0  0  0
   -4.7447  -28.0906   19.4284 H   0  0  0  0  0  0
   -4.4690  -27.2929   21.0141 H   0  0  0  0  0  0
  1  2  1  0  0  0
  1 40  1  0  0  0
  1 41  1  0  0  0
  2  3  2  0  0  0
  2  4  1  0  0  0
  3 11  1  0  0  0
  4  5  2  0  0  0
  4  9  1  0  0  0
  5  6  1  0  0  0
  5 42  1  0  0  0
  6  7  2  0  0  0
  6 12  1  0  0  0
  7  8  1  0  0  0
  7 39  1  0  0  0
  8  9  2  0  0  0
  8 43  1  0  0  0
  9 10  1  0  0  0
 10 11  2  0  0  0
 11 20  1  0  0  0
 12 13  1  0  0  0
 12 17  1  0  0  0
 12 44  1  0  0  0
 13 14  1  0  0  0
 13 45  1  0  0  0
 13 46  1  0  0  0
 14 15  1  0  0  0
 14 47  1  0  0  0
 14 48  1  0  0  0
 15 16  1  0  0  0
 15 49  1  0  0  0
 15 50  1  0  0  0
 16 17  1  0  0  0
 16 51  1  0  0  0
 16 52  1  0  0  0
 17 39  1  0  0  0
 18 19  2  0  0  0
 19 39  1  0  0  0
 19 53  1  0  0  0
 20 54  1  0  0  0
 20 55  1  0  0  0
 20 56  1  0  0  0
 21 22  2  0  0  0
 22 23  1  0  0  0
 22 28  1  0  0  0
 23 24  2  0  0  0
 23 25  1  0  0  0
 24 27  1  0  0  0
 24 39  1  0  0  0
 25 26  2  0  0  0
 25 39  1  0  0  0
 26 27  1  0  0  0
 26 39  1  0  0  0
 27 39  1  0  0  0
 27 57  1  0  0  0
 28 29  1  0  0  0
 29 30  2  0  0  0
 29 36  1  0  0  0
 30 31  1  0  0  0
 30 33  1  0  0  0
 31 32  1  0  0  0
 32 58  1  0  0  0
 32 59  1  0  0  0
 32 60  1  0  0  0
 33 34  2  0  0  0
 33 61  1  0  0  0
 34 35  1  0  0  0
 34 62  1  0  0  0
 35 36  2  0  0  0
 35 63  1  0  0  0
 36 37  1  0  0  0
 37 38  1  0  0  0
 38 64  1  0  0  0
 38 65  1  0  0  0
 38 66  1  0  0  0
M  END
> <s_m_source_file>
../3whw_ligand.sdf

> <i_m_source_file_index>
1

> <s_epik_input>
W05IMl1jMW5jKFtDSDNdKW5jKFtjSF0yKWMxW2NIXWMoW0NIXTNONFtDSDJdW0NIMl1bQ0gyXVtDSDJdMyljMltSdUhdNDU2NyhbQ0hdPU8pQzhbQ0BIXTdDNj1DNUM9OEMoPU8pT2M5YyhPW0NIM10pW2NIXVtjSF1bY0hdYzlPW0NIM10=

> <s_epik_cmdline>
J2VwaWtfYXBwJywgJy1pbWFlJywgJ2xpZ2FuZF9wcm8ubWFlJywgJy1vbWFlJywgJ2xpZ2FuZF9wcmVwLm1hZScsICctbXMnLCAnMScsICctcGgnLCAnNycsICctcGh0JywgJzAuNScsICctbnQn

> <r_lp_tautomer_probability>
0.999978000241998

> <r_epik_Ionization_Penalty>
  0.0099

> <r_epik_Ionization_Penalty_Charging>
  0.0000

> <r_epik_Ionization_Penalty_Neutral>
  0.0099

> <r_epik_State_Penalty>
  0.0075

> <r_epik_Charging_Adjusted_Penalty>
0.00745772139091217

> <i_epik_Tot_Q>
0

> <i_epik_Tot_abs_Q>
0

$$$$
