3wi2_ligand
                    3D
 Schrodinger Suite 2020-3.
 53 57  0  0  1  0            999 V2000
   19.4890    3.5550   63.0760 C   0  0  0  0  0  0
   26.3060    5.3400   53.5370 C   0  0  0  0  0  0
   26.5190    4.7150   54.7490 C   0  0  0  0  0  0
   20.1450    2.8200   62.1160 C   0  0  0  0  0  0
   18.2310    4.0390   62.8120 C   0  0  0  0  0  0
   25.0810    5.8870   53.2120 C   0  0  0  0  0  0
   22.8460    6.3230   53.8190 C   0  0  0  0  0  0
   25.4850    4.6430   55.6540 C   0  0  0  0  0  0
   16.7280    3.5370   56.1930 C   0  0  0  0  0  0
   19.5430    2.5590   60.8970 C   0  0  0  0  0  0
   17.6120    3.7730   61.6140 C   0  0  0  0  0  0
   17.7650    4.3660   55.8240 C   0  0  0  0  0  0
   21.8380    6.2210   54.7550 C   0  0  0  0  0  0
   18.9160    4.1840   57.9520 C   0  0  0  0  0  0
   24.0690    5.7880   54.1400 C   0  0  0  0  0  0
   24.2420    5.1740   55.3730 C   0  0  0  0  0  0
   16.7950    3.0380   57.4830 C   0  0  0  0  0  0
   17.8640    3.3650   58.2990 C   0  0  0  0  0  0
   18.2720    3.0290   60.6600 C   0  0  0  0  0  0
   18.8280    4.6780   56.6650 C   0  0  0  0  0  0
   22.0760    5.6050   55.9610 C   0  0  0  0  0  0
   16.4420    2.0260   59.3270 C   0  0  0  0  0  0
   15.7970   -0.2270   59.7750 C   0  0  0  0  0  0
   14.5260    1.5690   60.9180 C   0  0  0  0  0  0
   20.9680    5.5080   56.9440 C   0  0  0  0  0  0
   15.8810    1.1650   60.3890 C   0  0  0  0  0  0
   23.2580    5.0830   56.2900 N   0  0  0  0  0  0
   15.9210    2.1960   58.1310 N   0  0  0  0  0  0
   17.6230    2.7140   59.4620 N   0  0  0  0  0  0
   19.7940    5.5310   56.1500 O   0  0  0  0  0  0
   19.9632    3.7515   64.0375 H   0  0  0  0  0  0
   27.1243    5.4031   52.8197 H   0  0  0  0  0  0
   27.4921    4.2847   54.9858 H   0  0  0  0  0  0
   21.1467    2.4401   62.3167 H   0  0  0  0  0  0
   17.7174    4.6412   63.5615 H   0  0  0  0  0  0
   24.9205    6.3804   52.2534 H   0  0  0  0  0  0
   22.6776    6.8109   52.8589 H   0  0  0  0  0  0
   25.6511    4.1556   56.6147 H   0  0  0  0  0  0
   15.9104    3.2907   55.5155 H   0  0  0  0  0  0
   20.0703    1.9873   60.1333 H   0  0  0  0  0  0
   16.6069    4.1476   61.4200 H   0  0  0  0  0  0
   17.7516    4.7986   54.8236 H   0  0  0  0  0  0
   20.8510    6.6295   54.5382 H   0  0  0  0  0  0
   19.7383    4.4194   58.6277 H   0  0  0  0  0  0
   16.7856   -0.5184   59.3906 H   0  0  0  0  0  0
   15.0699   -0.2204   58.9496 H   0  0  0  0  0  0
   15.4748   -0.9471   60.5416 H   0  0  0  0  0  0
   14.5899    2.5740   61.3605 H   0  0  0  0  0  0
   14.2029    0.8503   61.6855 H   0  0  0  0  0  0
   13.7980    1.5770   60.0934 H   0  0  0  0  0  0
   21.0631    4.5710   57.5124 H   0  0  0  0  0  0
   21.0151    6.3625   57.6352 H   0  0  0  0  0  0
   16.5470    1.2613   61.2591 H   0  0  0  0  0  0
  1  4  2  0  0  0
  1  5  1  0  0  0
  1 31  1  0  0  0
  2  3  2  0  0  0
  2  6  1  0  0  0
  2 32  1  0  0  0
  3  8  1  0  0  0
  3 33  1  0  0  0
  4 10  1  0  0  0
  4 34  1  0  0  0
  5 11  2  0  0  0
  5 35  1  0  0  0
  6 15  2  0  0  0
  6 36  1  0  0  0
  7 13  2  0  0  0
  7 15  1  0  0  0
  7 37  1  0  0  0
  8 16  2  0  0  0
  8 38  1  0  0  0
  9 12  1  0  0  0
  9 17  2  0  0  0
  9 39  1  0  0  0
 10 19  2  0  0  0
 10 40  1  0  0  0
 11 19  1  0  0  0
 11 41  1  0  0  0
 12 20  2  0  0  0
 12 42  1  0  0  0
 13 21  1  0  0  0
 13 43  1  0  0  0
 14 18  2  0  0  0
 14 20  1  0  0  0
 14 44  1  0  0  0
 15 16  1  0  0  0
 16 27  1  0  0  0
 17 18  1  0  0  0
 17 28  1  0  0  0
 18 29  1  0  0  0
 19 29  1  0  0  0
 20 30  1  0  0  0
 21 25  1  0  0  0
 21 27  2  0  0  0
 22 26  1  0  0  0
 22 28  2  0  0  0
 22 29  1  0  0  0
 23 26  1  0  0  0
 23 45  1  0  0  0
 23 46  1  0  0  0
 23 47  1  0  0  0
 24 26  1  0  0  0
 24 48  1  0  0  0
 24 49  1  0  0  0
 24 50  1  0  0  0
 25 30  1  0  0  0
 25 51  1  0  0  0
 25 52  1  0  0  0
 26 53  1  0  0  0
M  END
> <s_m_source_file>
../3wi2_ligand.sdf

> <i_m_source_file_index>
1

> <s_epik_input>
W2NIXTFbY0hdW2NIXVtjSF1bY0hdYzEtbihjKG4yKVtDSF0oW0NIM10pW0NIM10pYyhjMjMpW2NIXWMoW2NIXVtjSF0zKU9bQ0gyXWMoW2NIXVtjSF00KW5jKGM0NSlbY0hdW2NIXVtjSF1bY0hdNQ==

> <s_epik_cmdline>
J2VwaWtfYXBwJywgJy1pbWFlJywgJ2xpZ2FuZF9wcm8ubWFlJywgJy1vbWFlJywgJ2xpZ2FuZF9wcmVwLm1hZScsICctbXMnLCAnMScsICctcGgnLCAnNycsICctcGh0JywgJzAuNScsICctbnQn

> <r_epik_Ionization_Penalty>
  0.0464

> <r_epik_Ionization_Penalty_Charging>
  0.0000

> <r_epik_Ionization_Penalty_Neutral>
  0.0464

> <r_epik_State_Penalty>
  0.0374

> <r_epik_Charging_Adjusted_Penalty>
0.0373660750201451

> <i_epik_Tot_Q>
0

> <i_epik_Tot_abs_Q>
0

$$$$
