3wi6_ligand
                    3D
 Schrodinger Suite 2020-3.
 36 39  0  0  1  0            999 V2000
  -36.1510  -16.8720  -15.3710 N   0  0  0  0  0  0
  -34.8540  -17.2160  -15.9080 C   0  0  1  0  0  0
  -34.8750  -17.4700  -17.3970 C   0  0  0  0  0  0
  -33.5100  -17.9500  -17.8170 C   0  0  0  0  0  0
  -32.4320  -16.9660  -17.3810 C   0  0  0  0  0  0
  -32.5690  -16.4980  -16.0290 N   0  3  0  0  0  0
  -33.8850  -16.0710  -15.6390 C   0  0  0  0  0  0
  -36.5520  -17.3180  -14.1720 C   0  0  0  0  0  0
  -37.7120  -16.7020  -13.5200 C   0  0  0  0  0  0
  -38.5630  -15.5510  -13.9600 C   0  0  0  0  0  0
  -39.4830  -15.3890  -12.7440 C   0  0  0  0  0  0
  -39.1680  -16.4630  -11.8140 N   0  3  0  0  0  0
  -35.9750  -18.3600  -13.5280 N   0  0  0  0  0  0
  -36.4740  -18.7560  -12.3190 C   0  0  0  0  0  0
  -36.0430  -19.7860  -11.4400 C   0  0  0  0  0  0
  -36.8440  -19.8120  -10.3090 C   0  0  0  0  0  0
  -37.7690  -18.8290  -10.4090 N   0  0  0  0  0  0
  -37.4930  -18.2300  -11.6660 N   0  0  0  0  0  0
  -38.1410  -17.2070  -12.2370 C   0  0  0  0  0  0
  -36.8331  -16.2311  -15.9488 H   0  0  0  0  0  0
  -34.5899  -18.1505  -15.3912 H   0  0  0  0  0  0
  -35.6305  -18.2355  -17.6277 H   0  0  0  0  0  0
  -35.1248  -16.5376  -17.9245 H   0  0  0  0  0  0
  -33.3063  -18.9268  -17.3540 H   0  0  0  0  0  0
  -33.4771  -18.0493  -18.9120 H   0  0  0  0  0  0
  -31.4452  -17.4461  -17.4564 H   0  0  0  0  0  0
  -32.4594  -16.0798  -18.0321 H   0  0  0  0  0  0
  -32.2907  -17.3026  -15.3325 H   0  0  0  0  0  0
  -31.9086  -15.6324  -15.8719 H   0  0  0  0  0  0
  -34.1866  -15.1902  -16.2248 H   0  0  0  0  0  0
  -33.9004  -15.8216  -14.5677 H   0  0  0  0  0  0
  -38.5359  -14.9836  -14.8903 H   0  0  0  0  0  0
  -40.2346  -14.6124  -12.6023 H   0  0  0  0  0  0
  -35.2051  -20.4574  -11.6277 H   0  0  0  0  0  0
  -36.7453  -20.5089   -9.4767 H   0  0  0  0  0  0
  -39.7549  -16.5813  -10.8912 H   0  0  0  0  0  0
  1  2  1  0  0  0
  1  8  1  0  0  0
  1 20  1  0  0  0
  2  3  1  0  0  0
  2  7  1  0  0  0
  2 21  1  0  0  0
  3  4  1  0  0  0
  3 22  1  0  0  0
  3 23  1  0  0  0
  4  5  1  0  0  0
  4 24  1  0  0  0
  4 25  1  0  0  0
  5  6  1  0  0  0
  5 26  1  0  0  0
  5 27  1  0  0  0
  6  7  1  0  0  0
  6 28  1  0  0  0
  6 29  1  0  0  0
  7 30  1  0  0  0
  7 31  1  0  0  0
  8  9  2  0  0  0
  8 13  1  0  0  0
  9 10  1  0  0  0
  9 19  1  0  0  0
 10 11  2  0  0  0
 10 32  1  0  0  0
 11 12  1  0  0  0
 11 33  1  0  0  0
 12 19  2  0  0  0
 12 36  1  0  0  0
 13 14  2  0  0  0
 14 15  1  0  0  0
 14 18  1  0  0  0
 15 16  2  0  0  0
 15 34  1  0  0  0
 16 17  1  0  0  0
 16 35  1  0  0  0
 17 18  1  0  0  0
 18 19  1  0  0  0
M  CHG  2   6   1  12   1
M  END
> <s_m_source_file>
../3wi6_ligand.sdf

> <i_m_source_file_index>
1

> <s_epik_input>
W0NIMl0xW05IMitdW0NIMl1bQ0gyXVtDSDJdW0NAQEhdMVtOSF1jMm5jKFtjSF1bY0hdW25IXTMpbjNjKGMyNCluW2NIXVtjSF00

> <s_epik_cmdline>
J2VwaWtfYXBwJywgJy1pbWFlJywgJ2xpZ2FuZF9wcm8ubWFlJywgJy1vbWFlJywgJ2xpZ2FuZF9wcmVwLm1hZScsICctbXMnLCAnMScsICctcGgnLCAnNycsICctcGh0JywgJzAuNScsICctbnQn

> <r_lp_tautomer_probability>
1

> <r_epik_Ionization_Penalty>
  0.0003

> <r_epik_Ionization_Penalty_Charging>
  0.0003

> <r_epik_Ionization_Penalty_Neutral>
  0.0000

> <r_epik_State_Penalty>
 -0.0000

> <r_epik_Charging_Adjusted_Penalty>
0.000278214688985769

> <i_epik_Tot_Q>
2

> <i_epik_Tot_abs_Q>
2

$$$$
