3wix_ligand
                    3D
 Schrodinger Suite 2020-3.
 55 59  0  0  1  0            999 V2000
   -7.9480    9.0820  -62.6290 C   0  0  0  0  0  0
   -8.5610   10.0160  -61.8110 C   0  0  0  0  0  0
   -7.7450    7.8050  -62.1510 C   0  0  0  0  0  0
   -7.4960    9.3870  -64.0110 C   0  0  0  0  0  0
   -8.9440    9.6720  -60.5230 C   0  0  0  0  0  0
   -8.1290    7.4610  -60.8760 C   0  0  0  0  0  0
   -7.9130   10.4420  -64.5580 O   0  0  0  0  0  0
   -6.6860    8.5680  -64.5350 O   0  5  0  0  0  0
   -8.7180    8.3900  -60.0520 C   0  0  0  0  0  0
   -8.6890    8.1250  -56.3170 C   0  0  0  0  0  0
   -8.4020    8.5490  -57.6640 C   0  0  0  0  0  0
   -9.0440    7.9710  -58.6890 C   0  0  0  0  0  0
   -9.9570    6.9740  -58.4260 N   0  0  0  0  0  0
  -10.2560    6.5370  -57.1560 C   0  0  0  0  0  0
   -9.5800    7.1530  -56.0700 C   0  0  0  0  0  0
  -10.6730    6.3060  -59.3500 N   0  0  0  0  0  0
  -11.4330    5.4470  -58.6610 C   0  0  0  0  0  0
  -11.2150    5.5470  -57.2560 C   0  0  0  0  0  0
  -12.4000    4.5250  -59.4210 C   0  0  0  0  0  0
  -11.8330    4.7890  -56.1450 C   0  0  0  0  0  0
  -13.2340    5.2760  -55.8220 C   0  0  0  0  0  0
  -13.3100    6.4200  -54.8390 C   0  0  0  0  0  0
  -12.1740    6.3520  -53.9750 O   0  0  0  0  0  0
  -12.0280    4.1490  -60.5540 O   0  0  0  0  0  0
  -13.5140    4.2750  -58.8890 O   0  5  0  0  0  0
  -12.0970    7.4380  -53.1170 C   0  0  0  0  0  0
  -12.5250    8.6920  -53.4660 C   0  0  0  0  0  0
  -12.4220    9.7440  -52.5790 C   0  0  0  0  0  0
  -11.8600    9.5150  -51.3370 C   0  0  0  0  0  0
  -11.4160    8.2490  -50.9930 C   0  0  0  0  0  0
  -11.5230    7.2000  -51.8830 C   0  0  0  0  0  0
  -10.8480    8.0260  -49.7590 C   0  0  0  0  0  0
  -10.3980    6.7590  -49.4380 C   0  0  0  0  0  0
  -10.5120    5.7050  -50.3220 C   0  0  0  0  0  0
  -11.0760    5.9310  -51.5620 C   0  0  0  0  0  0
   -8.7432   11.0251  -62.1805 H   0  0  0  0  0  0
   -7.2744    7.0589  -62.7913 H   0  0  0  0  0  0
   -9.4232   10.4115  -59.8814 H   0  0  0  0  0  0
   -7.9652    6.4451  -60.5167 H   0  0  0  0  0  0
   -8.1730    8.6025  -55.4840 H   0  0  0  0  0  0
   -7.6684    9.3339  -57.8480 H   0  0  0  0  0  0
   -9.7829    6.8393  -55.0460 H   0  0  0  0  0  0
  -11.8974    3.7254  -56.4180 H   0  0  0  0  0  0
  -11.2179    4.8985  -55.2396 H   0  0  0  0  0  0
  -13.7228    5.6241  -56.7439 H   0  0  0  0  0  0
  -13.8175    4.4515  -55.3865 H   0  0  0  0  0  0
  -13.3088    7.3743  -55.3862 H   0  0  0  0  0  0
  -14.2351    6.3364  -54.2498 H   0  0  0  0  0  0
  -12.9514    8.8604  -54.4549 H   0  0  0  0  0  0
  -12.7773   10.7375  -52.8527 H   0  0  0  0  0  0
  -11.7658   10.3348  -50.6249 H   0  0  0  0  0  0
  -10.7539    8.8411  -49.0415 H   0  0  0  0  0  0
   -9.9419    6.5880  -48.4629 H   0  0  0  0  0  0
  -10.1624    4.7102  -50.0457 H   0  0  0  0  0  0
  -11.1681    5.1170  -52.2811 H   0  0  0  0  0  0
  1  2  2  0  0  0
  1  3  1  0  0  0
  1  4  1  0  0  0
  2  5  1  0  0  0
  2 36  1  0  0  0
  3  6  2  0  0  0
  3 37  1  0  0  0
  4  7  2  0  0  0
  4  8  1  0  0  0
  5  9  2  0  0  0
  5 38  1  0  0  0
  6  9  1  0  0  0
  6 39  1  0  0  0
  9 12  1  0  0  0
 10 11  1  0  0  0
 10 15  2  0  0  0
 10 40  1  0  0  0
 11 12  2  0  0  0
 11 41  1  0  0  0
 12 13  1  0  0  0
 13 14  1  0  0  0
 13 16  1  0  0  0
 14 15  1  0  0  0
 14 18  2  0  0  0
 15 42  1  0  0  0
 16 17  2  0  0  0
 17 18  1  0  0  0
 17 19  1  0  0  0
 18 20  1  0  0  0
 19 24  2  0  0  0
 19 25  1  0  0  0
 20 21  1  0  0  0
 20 43  1  0  0  0
 20 44  1  0  0  0
 21 22  1  0  0  0
 21 45  1  0  0  0
 21 46  1  0  0  0
 22 23  1  0  0  0
 22 47  1  0  0  0
 22 48  1  0  0  0
 23 26  1  0  0  0
 26 27  2  0  0  0
 26 31  1  0  0  0
 27 28  1  0  0  0
 27 49  1  0  0  0
 28 29  2  0  0  0
 28 50  1  0  0  0
 29 30  1  0  0  0
 29 51  1  0  0  0
 30 31  2  0  0  0
 30 32  1  0  0  0
 31 35  1  0  0  0
 32 33  2  0  0  0
 32 52  1  0  0  0
 33 34  1  0  0  0
 33 53  1  0  0  0
 34 35  2  0  0  0
 34 54  1  0  0  0
 35 55  1  0  0  0
M  CHG  2   8  -1  25  -1
M  END
> <s_m_source_file>
../3wix_ligand.sdf

> <i_m_source_file_index>
1

> <s_epik_input>
Tz1DKFtPSF0pYzFbY0hdW2NIXWMoW2NIXVtjSF0xKS1jMltjSF1bY0hdW2NIXWMobjIzKWMoYyhuMylDKD1PKVtPSF0pW0NIMl1bQ0gyXVtDSDJdT2MoW2NIXVtjSF1bY0hdNCljKGM0NSlbY0hdW2NIXVtjSF1bY0hdNQ==

> <s_epik_cmdline>
J2VwaWtfYXBwJywgJy1pbWFlJywgJ2xpZ2FuZF9wcm8ubWFlJywgJy1vbWFlJywgJ2xpZ2FuZF9wcmVwLm1hZScsICctbXMnLCAnMScsICctcGgnLCAnNycsICctcGh0JywgJzAuNScsICctbnQn

> <r_lp_tautomer_probability>
1

> <r_epik_Ionization_Penalty>
  0.0014

> <r_epik_Ionization_Penalty_Charging>
  0.0014

> <r_epik_Ionization_Penalty_Neutral>
  0.0000

> <r_epik_State_Penalty>
 -0.0000

> <r_epik_Charging_Adjusted_Penalty>
0.00135799523304425

> <i_epik_Tot_Q>
-2

> <i_epik_Tot_abs_Q>
2

$$$$
