3wiz_ligand
                    3D
 Schrodinger Suite 2020-3.
108114  0  0  1  0            999 V2000
   34.2320   10.6560  -45.5370 C   0  0  0  0  0  0
   46.4070   15.0630  -41.7730 C   0  0  0  0  0  0
   45.3430   15.4540  -42.5530 C   0  0  0  0  0  0
   34.2080    9.6830  -46.5210 C   0  0  0  0  0  0
   33.4140   10.5400  -44.4300 C   0  0  0  0  0  0
   49.3610   15.5030  -45.5210 C   0  0  0  0  0  0
   47.6690   14.9800  -42.3240 C   0  0  0  0  0  0
   45.5510   15.7580  -43.8810 C   0  0  0  0  0  0
   49.1440   15.1990  -44.1940 C   0  0  0  0  0  0
   37.8220   10.5670  -49.0750 C   0  0  0  0  0  0
   36.5070   10.7690  -49.4360 C   0  0  0  0  0  0
   30.3640   10.0300  -47.9590 C   0  0  0  0  0  0
   48.3050   15.8960  -46.3120 C   0  0  0  0  0  0
   33.3650    8.5960  -46.3950 C   0  0  0  0  0  0
   32.5650    9.4550  -44.3130 C   0  0  0  0  0  0
   30.9980   10.9670  -48.7520 C   0  0  0  0  0  0
   36.3450   12.5830  -47.8600 C   0  0  0  0  0  0
   30.9870   12.5040  -46.9130 C   0  0  0  0  0  0
   47.8780   15.2850  -43.6520 C   0  0  0  0  0  0
   46.8130   15.6760  -44.4390 C   0  0  0  0  0  0
   38.3990   11.3670  -48.1080 C   0  0  0  0  0  0
   35.7840   11.7730  -48.8270 C   0  0  0  0  0  0
   37.6650   12.3710  -47.5050 C   0  0  0  0  0  0
   42.7160   13.1220  -47.9860 C   0  0  0  0  0  0
   30.0350   10.2990  -46.6420 C   0  0  0  0  0  0
   30.3570   11.5530  -46.1430 C   0  0  0  0  0  0
   47.0380   15.9770  -45.7690 C   0  0  0  0  0  0
   32.5400    8.4790  -45.2940 C   0  0  0  0  0  0
   31.3060   12.1950  -48.2140 C   0  0  0  0  0  0
   42.0430   11.9960  -47.5760 C   0  0  0  0  0  0
   41.7250   13.9060  -48.6300 C   0  0  0  0  0  0
   42.4220   10.8140  -46.8840 C   0  0  0  0  0  0
   41.5020    9.8730  -46.6300 C   0  0  0  0  0  0
   40.1340   10.0570  -47.0470 C   0  0  0  0  0  0
   39.7860   11.1730  -47.7040 C   0  0  0  0  0  0
   34.3880   11.9400  -49.2370 C   0  0  0  0  0  0
   41.8430   15.1970  -49.2540 C   0  0  0  0  0  0
   38.3110   13.2240  -46.4670 C   0  0  0  0  0  0
   26.0100    4.6270  -45.5260 C   0  0  0  0  0  0
   25.1650    6.5610  -44.4860 C   0  0  0  0  0  0
   44.1470   13.4060  -47.7870 C   0  0  0  0  0  0
   44.3880   14.6410  -46.9570 C   0  0  0  0  0  0
   28.2330    7.3450  -45.3990 C   0  0  0  0  0  0
   26.9850    6.7270  -45.9860 C   0  0  0  0  0  0
   45.6820   15.2660  -47.4130 C   0  0  0  0  0  0
   30.3960    7.2220  -46.6190 C   0  0  0  0  0  0
   29.1190    8.0420  -46.4060 C   0  0  2  0  0  0
   40.5390   13.2940  -48.6100 N   0  0  0  0  0  0
   40.7350   12.1320  -47.9680 N   0  0  0  0  0  0
   29.3950    9.3490  -45.8180 N   0  0  0  0  0  0
   33.7870   13.1720  -48.8790 N   0  0  0  0  0  0
   26.3800    5.9070  -44.9430 N   0  3  0  0  0  0
   30.0700   11.9520  -44.7810 N   0  3  0  0  0  0
   29.4100   11.2120  -44.0500 O   0  0  0  0  0  0
   33.8050   11.0430  -49.8210 O   0  5  0  0  0  0
   42.8450   15.5970  -49.8250 O   0  0  0  0  0  0
   30.5310   13.0390  -44.4250 O   0  5  0  0  0  0
   31.7420   14.7010  -48.6230 O   0  0  0  0  0  0
   31.8560   13.0630  -50.5770 O   0  0  0  0  0  0
   40.7080   15.9330  -49.1260 O   0  5  0  0  0  0
   45.9830   16.3760  -46.5740 O   0  0  0  0  0  0
   31.4520    7.0970  -45.1260 S   0  0  0  0  0  0
   32.1240   13.4250  -49.1980 S   0  0  0  0  0  0
   34.8967   11.5142  -45.6356 H   0  0  0  0  0  0
   46.2530   14.8193  -40.7218 H   0  0  0  0  0  0
   44.3434   15.5228  -42.1239 H   0  0  0  0  0  0
   34.8536    9.7744  -47.3945 H   0  0  0  0  0  0
   33.4378   11.3018  -43.6508 H   0  0  0  0  0  0
   50.3640   15.4325  -45.9420 H   0  0  0  0  0  0
   48.5095   14.6701  -41.7030 H   0  0  0  0  0  0
   44.7087   16.0674  -44.4999 H   0  0  0  0  0  0
   49.9799   14.8880  -43.5674 H   0  0  0  0  0  0
   38.4047    9.7784  -49.5512 H   0  0  0  0  0  0
   36.0428   10.1407  -50.1961 H   0  0  0  0  0  0
   30.1171    9.0557  -48.3807 H   0  0  0  0  0  0
   48.4682   16.1419  -47.3613 H   0  0  0  0  0  0
   33.3510    7.8275  -47.1679 H   0  0  0  0  0  0
   31.9125    9.3679  -43.4443 H   0  0  0  0  0  0
   31.2501   10.7369  -49.7872 H   0  0  0  0  0  0
   35.7607   13.3721  -47.3867 H   0  0  0  0  0  0
   31.2283   13.4831  -46.4993 H   0  0  0  0  0  0
   43.4539   10.6736  -46.5620 H   0  0  0  0  0  0
   41.7899    8.9624  -46.1046 H   0  0  0  0  0  0
   39.3872    9.2935  -46.8295 H   0  0  0  0  0  0
   37.5862   13.9647  -46.0980 H   0  0  0  0  0  0
   39.1755   13.7438  -46.9056 H   0  0  0  0  0  0
   38.6479   12.5929  -45.6314 H   0  0  0  0  0  0
   25.5507    3.9917  -44.7543 H   0  0  0  0  0  0
   26.9084    4.1312  -45.9222 H   0  0  0  0  0  0
   25.2910    4.7901  -46.3424 H   0  0  0  0  0  0
   24.6960    5.9538  -43.6977 H   0  0  0  0  0  0
   24.4673    6.6691  -45.3295 H   0  0  0  0  0  0
   25.4123    7.5550  -44.0849 H   0  0  0  0  0  0
   44.6210   12.5575  -47.2719 H   0  0  0  0  0  0
   44.6299   13.5582  -48.7635 H   0  0  0  0  0  0
   43.5557   15.3461  -47.0987 H   0  0  0  0  0  0
   44.4553   14.3618  -45.8952 H   0  0  0  0  0  0
   27.9511    8.0960  -44.6464 H   0  0  0  0  0  0
   28.8420    6.5613  -44.9247 H   0  0  0  0  0  0
   26.2951    7.5235  -46.3017 H   0  0  0  0  0  0
   27.2555    6.1102  -46.8557 H   0  0  0  0  0  0
   46.4907   14.5231  -47.3488 H   0  0  0  0  0  0
   45.5782   15.6059  -48.4540 H   0  0  0  0  0  0
   30.1284    6.1974  -46.9165 H   0  0  0  0  0  0
   31.0026    7.6869  -47.4101 H   0  0  0  0  0  0
   28.6453    8.1911  -47.3875 H   0  0  0  0  0  0
   29.1059    9.5559  -44.7770 H   0  0  0  0  0  0
   27.0810    5.7682  -44.1068 H   0  0  0  0  0  0
  1  4  2  0  0  0
  1  5  1  0  0  0
  1 64  1  0  0  0
  2  3  2  0  0  0
  2  7  1  0  0  0
  2 65  1  0  0  0
  3  8  1  0  0  0
  3 66  1  0  0  0
  4 14  1  0  0  0
  4 67  1  0  0  0
  5 15  2  0  0  0
  5 68  1  0  0  0
  6  9  2  0  0  0
  6 13  1  0  0  0
  6 69  1  0  0  0
  7 19  2  0  0  0
  7 70  1  0  0  0
  8 20  2  0  0  0
  8 71  1  0  0  0
  9 19  1  0  0  0
  9 72  1  0  0  0
 10 11  2  0  0  0
 10 21  1  0  0  0
 10 73  1  0  0  0
 11 22  1  0  0  0
 11 74  1  0  0  0
 12 16  2  0  0  0
 12 25  1  0  0  0
 12 75  1  0  0  0
 13 27  2  0  0  0
 13 76  1  0  0  0
 14 28  2  0  0  0
 14 77  1  0  0  0
 15 28  1  0  0  0
 15 78  1  0  0  0
 16 29  1  0  0  0
 16 79  1  0  0  0
 17 22  2  0  0  0
 17 23  1  0  0  0
 17 80  1  0  0  0
 18 26  1  0  0  0
 18 29  2  0  0  0
 18 81  1  0  0  0
 19 20  1  0  0  0
 20 27  1  0  0  0
 21 23  2  0  0  0
 21 35  1  0  0  0
 22 36  1  0  0  0
 23 38  1  0  0  0
 24 30  2  0  0  0
 24 31  1  0  0  0
 24 41  1  0  0  0
 25 26  2  0  0  0
 25 50  1  0  0  0
 26 53  1  0  0  0
 27 61  1  0  0  0
 28 62  1  0  0  0
 29 63  1  0  0  0
 30 32  1  0  0  0
 30 49  1  0  0  0
 31 37  1  0  0  0
 31 48  2  0  0  0
 32 33  2  0  0  0
 32 82  1  0  0  0
 33 34  1  0  0  0
 33 83  1  0  0  0
 34 35  2  0  0  0
 34 84  1  0  0  0
 35 49  1  0  0  0
 36 51  2  0  0  0
 36 55  1  0  0  0
 37 56  2  0  0  0
 37 60  1  0  0  0
 38 85  1  0  0  0
 38 86  1  0  0  0
 38 87  1  0  0  0
 39 52  1  0  0  0
 39 88  1  0  0  0
 39 89  1  0  0  0
 39 90  1  0  0  0
 40 52  1  0  0  0
 40 91  1  0  0  0
 40 92  1  0  0  0
 40 93  1  0  0  0
 41 42  1  0  0  0
 41 94  1  0  0  0
 41 95  1  0  0  0
 42 45  1  0  0  0
 42 96  1  0  0  0
 42 97  1  0  0  0
 43 44  1  0  0  0
 43 47  1  0  0  0
 43 98  1  0  0  0
 43 99  1  0  0  0
 44 52  1  0  0  0
 44100  1  0  0  0
 44101  1  0  0  0
 45 61  1  0  0  0
 45102  1  0  0  0
 45103  1  0  0  0
 46 47  1  0  0  0
 46 62  1  0  0  0
 46104  1  0  0  0
 46105  1  0  0  0
 47 50  1  0  0  0
 47106  1  0  0  0
 48 49  1  0  0  0
 50107  1  0  0  0
 51 63  1  0  0  0
 52108  1  0  0  0
 53 54  2  0  0  0
 53 57  1  0  0  0
 58 63  2  0  0  0
 59 63  2  0  0  0
M  CHG  5  52   1  53   1  55  -1  57  -1  60  -1
M  END
> <s_m_source_file>
../3wiz_ligand.sdf

> <i_m_source_file_index>
1

> <s_epik_input>
W2NIXTFbY0hdW2NIXVtjSF1bY0hdYzFTW0NIMl1bQ0BASF0oW0NIMl1bQ0gyXVtOSCtdKFtDSDNdKVtDSDNdKVtOSF1jMltjSF1bY0hdYyhbY0hdYzJbTitdKD1PKVtPLV0pUyg9TykoPU8pW05IXUMoPU8pYyhbY0hdYzNbQ0gzXSlbY0hdW2NIXWMzLWMoW2NIXVtjSF1bY0hdNCluKGM0NSluYyhDKD1PKVtPSF0pYzVbQ0gyXVtDSDJdW0NIMl1PYyhbY0hdW2NIXVtjSF02KWMoYzY3KVtjSF1bY0hdW2NIXVtjSF03

> <s_epik_cmdline>
J2VwaWtfYXBwJywgJy1pbWFlJywgJ2xpZ2FuZF9wcm8ubWFlJywgJy1vbWFlJywgJ2xpZ2FuZF9wcmVwLm1hZScsICctbXMnLCAnMScsICctcGgnLCAnNycsICctcGh0JywgJzAuNScsICctbnQn

> <r_lp_tautomer_probability>
1

> <r_epik_Ionization_Penalty>
  0.0040

> <r_epik_Ionization_Penalty_Charging>
  0.0040

> <r_epik_Ionization_Penalty_Neutral>
  0.0000

> <r_epik_State_Penalty>
 -0.0000

> <r_epik_Charging_Adjusted_Penalty>
0.00402677093436799

> <i_epik_Tot_Q>
-1

> <i_epik_Tot_abs_Q>
5

$$$$
