3wjw_ligand
                    3D
 Schrodinger Suite 2020-3.
 35 36  0  0  1  0            999 V2000
   15.9160   38.6260   37.1020 O   0  0  0  0  0  0
   15.5740   39.5820   36.3850 C   0  0  0  0  0  0
   14.2580   39.8870   36.2970 N   0  0  0  0  0  0
   13.8450   40.9290   35.5600 C   0  0  0  0  0  0
   12.5980   41.1050   35.4780 O   0  0  0  0  0  0
   14.7160   41.5010   34.6450 C   0  0  0  0  0  0
   16.0580   41.1290   34.5980 C   0  0  0  0  0  0
   16.7990   41.2860   33.2890 C   0  0  0  0  0  0
   16.5300   40.2660   35.6550 N   0  0  0  0  0  0
   17.9780   40.0110   35.8510 C   0  0  2  0  0  0
   18.2080   38.6740   35.3370 O   0  0  0  0  0  0
   18.4730   39.9960   37.2640 C   0  0  2  0  0  0
   18.9280   41.3080   37.5750 O   0  0  0  0  0  0
   19.6290   39.0280   37.1890 C   0  0  2  0  0  0
   20.7580   39.6830   36.5790 O   0  0  0  0  0  0
   19.1320   37.9880   36.2100 C   0  0  1  0  0  0
   18.3860   36.8240   36.8530 C   0  0  0  0  0  0
   19.4310   36.0410   37.4610 O   0  0  0  0  0  0
   19.0740   34.7050   38.2980 P   0  0  0  0  0  0
   18.9640   33.5920   37.3150 O   0  5  0  0  0  0
   17.7810   34.8920   39.0070 O   0  0  0  0  0  0
   20.2500   34.5700   39.2360 O   0  5  0  0  0  0
   13.5152   39.2779   36.8330 H   0  0  0  0  0  0
   14.3444   42.2546   33.9506 H   0  0  0  0  0  0
   16.2550   41.9898   32.6419 H   0  0  0  0  0  0
   16.8711   40.3089   32.7890 H   0  0  0  0  0  0
   17.8098   41.6736   33.4841 H   0  0  0  0  0  0
   18.5117   40.8208   35.3320 H   0  0  0  0  0  0
   17.7340   39.7583   38.0434 H   0  0  0  0  0  0
   18.2064   42.1332   37.6663 H   0  0  0  0  0  0
   19.9671   38.6518   38.1658 H   0  0  0  0  0  0
   21.2854   40.4847   37.1168 H   0  0  0  0  0  0
   19.9917   37.5761   35.6611 H   0  0  0  0  0  0
   17.6711   37.2112   37.5939 H   0  0  0  0  0  0
   17.8431   36.2634   36.0778 H   0  0  0  0  0  0
  1  2  2  0  0  0
  2  3  1  0  0  0
  2  9  1  0  0  0
  3  4  1  0  0  0
  3 23  1  0  0  0
  4  5  2  0  0  0
  4  6  1  0  0  0
  6  7  2  0  0  0
  6 24  1  0  0  0
  7  8  1  0  0  0
  7  9  1  0  0  0
  8 25  1  0  0  0
  8 26  1  0  0  0
  8 27  1  0  0  0
  9 10  1  0  0  0
 10 11  1  0  0  0
 10 12  1  0  0  0
 10 28  1  0  0  0
 11 16  1  0  0  0
 12 13  1  0  0  0
 12 14  1  0  0  0
 12 29  1  0  0  0
 13 30  1  0  0  0
 14 15  1  0  0  0
 14 16  1  0  0  0
 14 31  1  0  0  0
 15 32  1  0  0  0
 16 17  1  0  0  0
 16 33  1  0  0  0
 17 18  1  0  0  0
 17 34  1  0  0  0
 17 35  1  0  0  0
 18 19  1  0  0  0
 19 20  1  0  0  0
 19 21  2  0  0  0
 19 22  1  0  0  0
M  CHG  2  20  -1  22  -1
M  END
> <s_m_source_file>
../3wjw_ligand.sdf

> <i_m_source_file_index>
1

> <s_epik_input>
Tz1jMVtuSF1jKD1PKVtjSF1jKFtDSDNdKW4xW0NAQEhdMk9bQ0BASF0oW0NAQEhdKFtPSF0pW0NASF0yW09IXSlbQ0gyXU9QKD1PKShbT0hdKVtPSF0=

> <s_epik_cmdline>
J2VwaWtfYXBwJywgJy1pbWFlJywgJ2xpZ2FuZF9wcm8ubWFlJywgJy1vbWFlJywgJ2xpZ2FuZF9wcmVwLm1hZScsICctbXMnLCAnMScsICctcGgnLCAnNycsICctcGh0JywgJzAuNScsICctbnQn

> <r_lp_tautomer_probability>
0.999537046341301

> <r_epik_Ionization_Penalty>
  0.1064

> <r_epik_Ionization_Penalty_Charging>
  0.1064

> <r_epik_Ionization_Penalty_Neutral>
  0.0000

> <r_epik_State_Penalty>
  0.0955

> <r_epik_Charging_Adjusted_Penalty>
0.201913754965302

> <i_epik_Tot_Q>
-2

> <i_epik_Tot_abs_Q>
2

> <s_epik_Chemistry_Notes>
This compound contains an acetal/aminal-like group ( X-CH(R)-Y where X, Y are N, S, or O) that may be acid/base labile, releasing an aldehyde.

$$$$
