3wk4_ligand
                    3D
 Schrodinger Suite 2020-3.
 31 32  0  0  1  0            999 V2000
  -18.1070  -12.3080   68.8770 C   0  0  0  0  0  0
  -19.2770  -11.6000   68.7810 C   0  0  0  0  0  0
  -16.9930  -11.8760   68.1840 C   0  0  0  0  0  0
  -19.3140  -10.4780   67.9910 C   0  0  0  0  0  0
  -17.0250  -10.7490   67.3850 C   0  0  0  0  0  0
  -18.2070  -10.0430   67.2900 C   0  0  0  0  0  0
  -17.7200   -8.8660   65.2730 C   0  0  0  0  0  0
  -18.0830   -5.8910   61.3600 C   0  0  0  0  0  0
  -18.7510   -5.3370   62.6120 C   0  0  0  0  0  0
  -18.6090   -6.8200   62.4420 C   0  0  0  0  0  0
  -16.1820   -7.0150   63.1200 C   0  0  0  0  0  0
  -17.6170   -7.6050   63.2150 C   0  0  1  0  0  0
  -18.3090   -8.8810   66.4930 N   0  0  0  0  0  0
  -18.0310   -7.7160   64.6020 N   0  0  0  0  0  0
  -17.0280   -9.8000   64.8650 O   0  0  0  0  0  0
  -18.0563  -13.2044   69.4951 H   0  0  0  0  0  0
  -20.1650  -11.9233   69.3241 H   0  0  0  0  0  0
  -16.0637  -12.4392   68.2697 H   0  0  0  0  0  0
  -20.2439   -9.9144   67.9150 H   0  0  0  0  0  0
  -16.1370  -10.4251   66.8422 H   0  0  0  0  0  0
  -18.6467   -5.5706   60.4714 H   0  0  0  0  0  0
  -17.0521   -5.5125   61.2964 H   0  0  0  0  0  0
  -18.0417   -4.6919   63.1511 H   0  0  0  0  0  0
  -19.6362   -4.7499   62.3261 H   0  0  0  0  0  0
  -19.3178   -7.6581   62.5136 H   0  0  0  0  0  0
  -15.8862   -6.9386   62.0633 H   0  0  0  0  0  0
  -15.4789   -7.6736   63.6509 H   0  0  0  0  0  0
  -16.1655   -6.0153   63.5786 H   0  0  0  0  0  0
  -17.6403   -8.6223   62.7973 H   0  0  0  0  0  0
  -18.8607   -8.0053   66.8655 H   0  0  0  0  0  0
  -18.5771   -6.8898   65.0808 H   0  0  0  0  0  0
  1  2  2  0  0  0
  1  3  1  0  0  0
  1 16  1  0  0  0
  2  4  1  0  0  0
  2 17  1  0  0  0
  3  5  2  0  0  0
  3 18  1  0  0  0
  4  6  2  0  0  0
  4 19  1  0  0  0
  5  6  1  0  0  0
  5 20  1  0  0  0
  6 13  1  0  0  0
  7 13  1  0  0  0
  7 14  1  0  0  0
  7 15  2  0  0  0
  8  9  1  0  0  0
  8 10  1  0  0  0
  8 21  1  0  0  0
  8 22  1  0  0  0
  9 10  1  0  0  0
  9 23  1  0  0  0
  9 24  1  0  0  0
 10 12  1  0  0  0
 10 25  1  0  0  0
 11 12  1  0  0  0
 11 26  1  0  0  0
 11 27  1  0  0  0
 11 28  1  0  0  0
 12 14  1  0  0  0
 12 29  1  0  0  0
 13 30  1  0  0  0
 14 31  1  0  0  0
M  END
> <s_m_source_file>
../3wk4_ligand.sdf

> <i_m_source_file_index>
1

> <s_epik_input>
W2NIXTFbY0hdW2NIXVtjSF1bY0hdYzFbTkhdQyg9TylbTkhdW0NASF0oW0NIM10pW0NIXTJbQ0gyXVtDSDJdMg==

> <s_epik_cmdline>
J2VwaWtfYXBwJywgJy1pbWFlJywgJ2xpZ2FuZF9wcm8ubWFlJywgJy1vbWFlJywgJ2xpZ2FuZF9wcmVwLm1hZScsICctbXMnLCAnMScsICctcGgnLCAnNycsICctcGh0JywgJzAuNScsICctbnQn

> <r_lp_tautomer_probability>
1

> <r_epik_Ionization_Penalty>
  0.0000

> <r_epik_Ionization_Penalty_Charging>
  0.0000

> <r_epik_Ionization_Penalty_Neutral>
  0.0000

> <r_epik_State_Penalty>
 -0.0000

> <r_epik_Charging_Adjusted_Penalty>
0

> <i_epik_Tot_Q>
0

> <i_epik_Tot_abs_Q>
0

$$$$
