3wk5_ligand
                    3D
 Schrodinger Suite 2020-3.
 28 29  0  0  1  0            999 V2000
  -16.6890   -7.1060   61.4080 C   0  0  0  0  0  0
  -17.5290   -6.0210   61.3370 C   0  0  0  0  0  0
  -17.2760   -7.0040   63.5440 C   0  0  0  0  0  0
  -17.4110   -8.5460   65.3930 C   0  0  0  0  0  0
  -17.3490  -10.4930   69.8750 C   0  0  0  0  0  0
  -17.9080  -11.5960   69.0150 C   0  0  0  0  0  0
  -16.8320   -9.4150   68.9520 C   0  0  0  0  0  0
  -18.1450  -11.0150   67.6510 C   0  0  0  0  0  0
  -17.2270   -9.8210   67.5490 C   0  0  0  0  0  0
  -17.8990   -8.6750   66.8120 C   0  0  0  0  0  0
  -16.5490   -7.6560   62.6570 N   0  0  0  0  0  0
  -17.4010   -7.2460   64.9180 N   0  0  0  0  0  0
  -17.0700   -9.5260   64.7530 O   0  0  0  0  0  0
  -18.1650   -5.6810   62.8930 S   0  0  0  0  0  0
  -16.1709   -7.5015   60.5344 H   0  0  0  0  0  0
  -17.7566   -5.4614   60.4297 H   0  0  0  0  0  0
  -18.1436  -10.0952   70.5234 H   0  0  0  0  0  0
  -16.5331  -10.8904   70.4966 H   0  0  0  0  0  0
  -17.1849  -12.4233   68.9639 H   0  0  0  0  0  0
  -18.8504  -11.9591   69.4510 H   0  0  0  0  0  0
  -17.2863   -8.4507   69.2238 H   0  0  0  0  0  0
  -15.7383   -9.3447   69.0466 H   0  0  0  0  0  0
  -17.9074  -11.7682   66.8853 H   0  0  0  0  0  0
  -19.1998  -10.7172   67.5575 H   0  0  0  0  0  0
  -16.3297  -10.0898   66.9723 H   0  0  0  0  0  0
  -17.6850   -7.7451   67.3593 H   0  0  0  0  0  0
  -18.9835   -8.8588   66.8115 H   0  0  0  0  0  0
  -17.4912   -6.4031   65.6190 H   0  0  0  0  0  0
  1  2  2  0  0  0
  1 11  1  0  0  0
  1 15  1  0  0  0
  2 14  1  0  0  0
  2 16  1  0  0  0
  3 11  2  0  0  0
  3 12  1  0  0  0
  3 14  1  0  0  0
  4 10  1  0  0  0
  4 12  1  0  0  0
  4 13  2  0  0  0
  5  6  1  0  0  0
  5  7  1  0  0  0
  5 17  1  0  0  0
  5 18  1  0  0  0
  6  8  1  0  0  0
  6 19  1  0  0  0
  6 20  1  0  0  0
  7  9  1  0  0  0
  7 21  1  0  0  0
  7 22  1  0  0  0
  8  9  1  0  0  0
  8 23  1  0  0  0
  8 24  1  0  0  0
  9 10  1  0  0  0
  9 25  1  0  0  0
 10 26  1  0  0  0
 10 27  1  0  0  0
 12 28  1  0  0  0
M  END
> <s_m_source_file>
../3wk5_ligand.sdf

> <i_m_source_file_index>
1

> <s_epik_input>
czFbY0hdW2NIXW5jMVtOSF1DKD1PKVtDSDJdW0NIXTJbQ0gyXVtDSDJdW0NIMl1bQ0gyXTI=

> <s_epik_cmdline>
J2VwaWtfYXBwJywgJy1pbWFlJywgJ2xpZ2FuZF9wcm8ubWFlJywgJy1vbWFlJywgJ2xpZ2FuZF9wcmVwLm1hZScsICctbXMnLCAnMScsICctcGgnLCAnNycsICctcGh0JywgJzAuNScsICctbnQn

> <r_lp_tautomer_probability>
1

> <r_epik_Ionization_Penalty>
  0.0002

> <r_epik_Ionization_Penalty_Charging>
  0.0000

> <r_epik_Ionization_Penalty_Neutral>
  0.0002

> <r_epik_State_Penalty>
 -0.0000

> <r_epik_Charging_Adjusted_Penalty>
0

> <i_epik_Tot_Q>
0

> <i_epik_Tot_abs_Q>
0

$$$$
