3wk6_ligand
                    3D
 Schrodinger Suite 2020-3.
 32 33  0  0  1  0            999 V2000
  -17.7760  -13.6400   68.9160 C   0  0  0  0  0  0
  -18.9120  -12.8660   69.0940 C   0  0  0  0  0  0
  -16.7370  -13.0990   68.2200 C   0  0  0  0  0  0
  -19.0390  -11.5810   68.6150 C   0  0  0  0  0  0
  -16.8720  -11.8050   67.7360 C   0  0  0  0  0  0
  -18.0040  -11.0390   67.9150 C   0  0  0  0  0  0
  -17.8300   -7.9850   64.1450 C   0  0  0  0  0  0
  -17.4190   -7.9760   61.9090 C   0  0  0  0  0  0
  -17.4240   -6.5120   62.1620 C   0  0  1  0  0  0
  -17.9720   -5.8550   60.9440 C   0  0  0  0  0  0
  -18.1150   -9.6390   67.3890 C   0  0  0  0  0  0
  -18.2530   -9.5980   65.8860 C   0  0  0  0  0  0
  -17.2340   -8.6550   63.2300 N   0  3  0  0  0  0
  -17.8990   -8.2650   65.4760 N   0  0  0  0  0  0
  -18.6120   -6.5550   63.5300 S   0  0  0  0  0  0
  -17.7157  -14.6504   69.3204 H   0  0  0  0  0  0
  -19.7495  -13.2973   69.6423 H   0  0  0  0  0  0
  -15.8232  -13.6677   68.0477 H   0  0  0  0  0  0
  -19.9498  -11.0091   68.7926 H   0  0  0  0  0  0
  -16.0378  -11.3712   67.1846 H   0  0  0  0  0  0
  -18.3751   -8.2725   61.4529 H   0  0  0  0  0  0
  -16.5937   -8.2274   61.2266 H   0  0  0  0  0  0
  -16.4380   -6.0278   62.2207 H   0  0  0  0  0  0
  -17.2096   -5.8585   60.1511 H   0  0  0  0  0  0
  -18.2501   -4.8174   61.1807 H   0  0  0  0  0  0
  -18.8613   -6.4036   60.6001 H   0  0  0  0  0  0
  -19.0003   -9.1527   67.8247 H   0  0  0  0  0  0
  -17.2131   -9.0718   67.6628 H   0  0  0  0  0  0
  -17.5766  -10.3392   65.4354 H   0  0  0  0  0  0
  -19.2910   -9.8313   65.6066 H   0  0  0  0  0  0
  -17.6900   -7.4942   66.2324 H   0  0  0  0  0  0
  -16.6953   -9.5789   63.4873 H   0  0  0  0  0  0
  1  2  2  0  0  0
  1  3  1  0  0  0
  1 16  1  0  0  0
  2  4  1  0  0  0
  2 17  1  0  0  0
  3  5  2  0  0  0
  3 18  1  0  0  0
  4  6  2  0  0  0
  4 19  1  0  0  0
  5  6  1  0  0  0
  5 20  1  0  0  0
  6 11  1  0  0  0
  7 13  2  0  0  0
  7 14  1  0  0  0
  7 15  1  0  0  0
  8  9  1  0  0  0
  8 13  1  0  0  0
  8 21  1  0  0  0
  8 22  1  0  0  0
  9 10  1  0  0  0
  9 15  1  0  0  0
  9 23  1  0  0  0
 10 24  1  0  0  0
 10 25  1  0  0  0
 10 26  1  0  0  0
 11 12  1  0  0  0
 11 27  1  0  0  0
 11 28  1  0  0  0
 12 14  1  0  0  0
 12 29  1  0  0  0
 12 30  1  0  0  0
 13 32  1  0  0  0
 14 31  1  0  0  0
M  CHG  1  13   1
M  END
> <s_m_source_file>
../3wk6_ligand.sdf

> <i_m_source_file_index>
1

> <s_epik_input>
W2NIXTFbY0hdW2NIXVtjSF1bY0hdYzFbQ0gyXVtDSDJdW05IXUMyPU5bQ0gyXVtDQEhdKFMyKVtDSDNd

> <s_epik_cmdline>
J2VwaWtfYXBwJywgJy1pbWFlJywgJ2xpZ2FuZF9wcm8ubWFlJywgJy1vbWFlJywgJ2xpZ2FuZF9wcmVwLm1hZScsICctbXMnLCAnMScsICctcGgnLCAnNycsICctcGh0JywgJzAuNScsICctbnQn

> <r_epik_Ionization_Penalty>
  0.0125

> <r_epik_Ionization_Penalty_Charging>
  0.0103

> <r_epik_Ionization_Penalty_Neutral>
  0.0022

> <r_epik_State_Penalty>
  0.0079

> <r_epik_Charging_Adjusted_Penalty>
0.0182467567757418

> <i_epik_Tot_Q>
1

> <i_epik_Tot_abs_Q>
1

> <s_epik_Chemistry_Notes>
This compound has an imine and may undergo hydrolysis.

$$$$
