3wk7_ligand
                    3D
 Schrodinger Suite 2020-3.
 25 27  0  0  1  0            999 V2000
  -18.6530  -11.6440   69.2250 C   0  0  0  0  0  0
  -17.4350  -12.2240   68.9590 C   0  0  0  0  0  0
  -19.1180  -10.5870   68.4740 C   0  0  0  0  0  0
  -16.6190  -11.7920   67.9240 C   0  0  0  0  0  0
  -16.1080   -7.7670   63.9850 C   0  0  0  0  0  0
  -18.3270   -7.5400   63.8670 C   0  0  0  0  0  0
  -17.3300   -8.1670   64.5910 C   0  0  0  0  0  0
  -18.3180  -10.1490   67.4260 C   0  0  0  0  0  0
  -17.0950  -10.7500   67.1570 C   0  0  0  0  0  0
  -17.4870   -9.1030   65.7040 C   0  0  0  0  0  0
  -18.2610   -5.9820   61.8570 C   0  0  0  0  0  0
  -16.3310   -6.9550   62.9430 N   0  0  0  0  0  0
  -18.5400   -9.1230   66.5090 N   0  0  0  0  0  0
  -16.5780  -10.0780   66.0560 N   0  3  0  0  0  0
  -17.6830   -6.8140   62.8920 N   0  0  0  0  0  0
  -19.2611  -12.0273   70.0444 H   0  0  0  0  0  0
  -17.0991  -13.0520   69.5832 H   0  0  0  0  0  0
  -20.0750  -10.1134   68.6931 H   0  0  0  0  0  0
  -15.6510  -12.2527   67.7271 H   0  0  0  0  0  0
  -15.1201   -8.0796   64.3233 H   0  0  0  0  0  0
  -19.4020   -7.6071   64.0343 H   0  0  0  0  0  0
  -19.3562   -5.9772   61.9594 H   0  0  0  0  0  0
  -17.9868   -6.3817   60.8695 H   0  0  0  0  0  0
  -17.8790   -4.9552   61.9560 H   0  0  0  0  0  0
  -15.6041  -10.3737   65.6386 H   0  0  0  0  0  0
  1  2  2  0  0  0
  1  3  1  0  0  0
  1 16  1  0  0  0
  2  4  1  0  0  0
  2 17  1  0  0  0
  3  8  2  0  0  0
  3 18  1  0  0  0
  4  9  2  0  0  0
  4 19  1  0  0  0
  5  7  1  0  0  0
  5 12  2  0  0  0
  5 20  1  0  0  0
  6  7  2  0  0  0
  6 15  1  0  0  0
  6 21  1  0  0  0
  7 10  1  0  0  0
  8  9  1  0  0  0
  8 13  1  0  0  0
  9 14  1  0  0  0
 10 13  2  0  0  0
 10 14  1  0  0  0
 11 15  1  0  0  0
 11 22  1  0  0  0
 11 23  1  0  0  0
 11 24  1  0  0  0
 12 15  1  0  0  0
 14 25  1  0  0  0
M  CHG  1  14   1
M  END
> <s_m_source_file>
../3wk7_ligand.sdf

> <i_m_source_file_index>
1

> <s_epik_input>
W2NIXTFbY0hdW2NIXVtjSF1jKGMxMilbbkhdYyhuMiktYzNbY0hdbm4oW2NIXTMpW0NIM10=

> <s_epik_cmdline>
J2VwaWtfYXBwJywgJy1pbWFlJywgJ2xpZ2FuZF9wcm8ubWFlJywgJy1vbWFlJywgJ2xpZ2FuZF9wcmVwLm1hZScsICctbXMnLCAnMScsICctcGgnLCAnNycsICctcGh0JywgJzAuNScsICctbnQn

> <r_epik_Ionization_Penalty>
  0.0000

> <r_epik_Ionization_Penalty_Charging>
  0.0000

> <r_epik_Ionization_Penalty_Neutral>
  0.0000

> <r_epik_State_Penalty>
  0.0001

> <r_epik_Charging_Adjusted_Penalty>
7.83356906498679e-05

> <i_epik_Tot_Q>
1

> <i_epik_Tot_abs_Q>
1

> <s_epik_Chemistry_Notes>
This compound has an imine and may undergo hydrolysis.

$$$$
