3wk9_ligand
                    3D
 Schrodinger Suite 2020-3.
 23 24  0  0  1  0            999 V2000
  -16.4680  -12.0910   68.4970 C   0  0  0  0  0  0
  -18.8400  -11.8210   68.7410 C   0  0  0  0  0  0
  -16.5780  -13.4530   68.6630 C   0  0  0  0  0  0
  -18.9310  -13.1710   68.9020 C   0  0  0  0  0  0
  -16.3680   -7.8500   68.9390 C   0  0  0  0  0  0
  -17.5950  -11.3100   68.5370 C   0  0  0  0  0  0
  -17.8280  -14.0090   68.8570 C   0  0  0  0  0  0
  -16.8730   -9.0600   69.3130 C   0  0  0  0  0  0
  -15.8860   -7.8170   71.0650 C   0  0  0  0  0  0
  -17.5290   -9.8890   68.3310 C   0  0  0  0  0  0
  -15.8080   -7.1530   69.9430 N   0  0  0  0  0  0
  -15.3660   -7.2200   72.1560 N   0  0  0  0  0  0
  -16.6480   -9.3840   70.9950 S   0  0  0  0  0  0
  -18.0780  -15.9460   69.0700 Br  0  0  0  0  0  0
  -15.4910  -11.6357   68.3347 H   0  0  0  0  0  0
  -19.7218  -11.1811   68.7740 H   0  0  0  0  0  0
  -15.6902  -14.0850   68.6417 H   0  0  0  0  0  0
  -19.9135  -13.6108   69.0736 H   0  0  0  0  0  0
  -16.4143   -7.4799   67.9148 H   0  0  0  0  0  0
  -16.9907   -9.6788   67.3950 H   0  0  0  0  0  0
  -18.5481   -9.4799   68.2676 H   0  0  0  0  0  0
  -14.9089   -6.2230   72.0721 H   0  0  0  0  0  0
  -15.3988   -7.7298   73.1302 H   0  0  0  0  0  0
  1  3  2  0  0  0
  1  6  1  0  0  0
  1 15  1  0  0  0
  2  4  1  0  0  0
  2  6  2  0  0  0
  2 16  1  0  0  0
  3  7  1  0  0  0
  3 17  1  0  0  0
  4  7  2  0  0  0
  4 18  1  0  0  0
  5  8  2  0  0  0
  5 11  1  0  0  0
  5 19  1  0  0  0
  6 10  1  0  0  0
  7 14  1  0  0  0
  8 10  1  0  0  0
  8 13  1  0  0  0
  9 11  2  0  0  0
  9 12  1  0  0  0
  9 13  1  0  0  0
 10 20  1  0  0  0
 10 21  1  0  0  0
 12 22  1  0  0  0
 12 23  1  0  0  0
M  END
> <s_m_source_file>
../3wk9_ligand.sdf

> <i_m_source_file_index>
1

> <s_epik_input>
W2NIXTFbY0hdYyhCcilbY0hdW2NIXWMxW0NIMl1jMltjSF1uYyhzMilbTkgyXQ==

> <s_epik_cmdline>
J2VwaWtfYXBwJywgJy1pbWFlJywgJ2xpZ2FuZF9wcm8ubWFlJywgJy1vbWFlJywgJ2xpZ2FuZF9wcmVwLm1hZScsICctbXMnLCAnMScsICctcGgnLCAnNycsICctcGh0JywgJzAuNScsICctbnQn

> <r_epik_Ionization_Penalty>
  0.0104

> <r_epik_Ionization_Penalty_Charging>
  0.0000

> <r_epik_Ionization_Penalty_Neutral>
  0.0104

> <r_epik_State_Penalty>
  0.0080

> <r_epik_Charging_Adjusted_Penalty>
0.00798650902861648

> <i_epik_Tot_Q>
0

> <i_epik_Tot_abs_Q>
0

$$$$
