3wka_ligand
                    3D
 Schrodinger Suite 2020-3.
 32 33  0  0  1  0            999 V2000
  -16.4540   -9.4940   70.6780 C   0  0  0  0  0  0
  -16.2550   -9.8590   71.9530 C   0  0  0  0  0  0
  -16.1090   -8.0940   70.2770 C   0  0  0  0  0  0
  -15.3900   -7.6630   72.5630 C   0  0  0  0  0  0
  -17.9050  -12.1560   67.5970 C   0  0  0  0  0  0
  -16.5450  -12.3550   68.2540 C   0  0  0  0  0  0
  -18.8610  -11.3940   68.4850 C   0  0  0  0  0  0
  -15.9660  -11.0830   68.8860 C   0  0  0  0  0  0
  -18.2530  -10.1230   69.0680 C   0  0  0  0  0  0
  -15.5220   -9.4520   74.2800 C   0  0  0  0  0  0
  -15.6140   -7.2810   71.2640 N   0  0  0  0  0  0
  -16.9600  -10.3710   69.7210 N   0  0  0  0  0  0
  -15.7270   -8.9850   72.9020 N   0  0  0  0  0  0
  -16.5840  -11.1420   72.2950 N   0  0  0  0  0  0
  -16.2610   -7.6490   69.1470 O   0  0  0  0  0  0
  -14.9200   -6.8420   73.3330 O   0  0  0  0  0  0
  -17.7812  -11.5895   66.6623 H   0  0  0  0  0  0
  -18.3520  -13.1363   67.3751 H   0  0  0  0  0  0
  -16.6305  -13.1052   69.0539 H   0  0  0  0  0  0
  -15.8216  -12.7021   67.5016 H   0  0  0  0  0  0
  -19.7481  -11.1023   67.9036 H   0  0  0  0  0  0
  -19.1679  -12.0325   69.3265 H   0  0  0  0  0  0
  -15.1103  -11.3477   69.5245 H   0  0  0  0  0  0
  -15.6332  -10.3980   68.0923 H   0  0  0  0  0  0
  -18.0928   -9.3906   68.2631 H   0  0  0  0  0  0
  -18.9374   -9.6997   69.8180 H   0  0  0  0  0  0
  -15.8380  -10.5024   74.3620 H   0  0  0  0  0  0
  -16.1178   -8.8350   74.9687 H   0  0  0  0  0  0
  -14.4567   -9.3682   74.5409 H   0  0  0  0  0  0
  -15.3637   -6.2336   71.0398 H   0  0  0  0  0  0
  -17.0000  -11.8235   71.5383 H   0  0  0  0  0  0
  -16.4326  -11.4922   73.3267 H   0  0  0  0  0  0
  1  2  2  0  0  0
  1  3  1  0  0  0
  1 12  1  0  0  0
  2 13  1  0  0  0
  2 14  1  0  0  0
  3 11  1  0  0  0
  3 15  2  0  0  0
  4 11  1  0  0  0
  4 13  1  0  0  0
  4 16  2  0  0  0
  5  6  1  0  0  0
  5  7  1  0  0  0
  5 17  1  0  0  0
  5 18  1  0  0  0
  6  8  1  0  0  0
  6 19  1  0  0  0
  6 20  1  0  0  0
  7  9  1  0  0  0
  7 21  1  0  0  0
  7 22  1  0  0  0
  8 12  1  0  0  0
  8 23  1  0  0  0
  8 24  1  0  0  0
  9 12  1  0  0  0
  9 25  1  0  0  0
  9 26  1  0  0  0
 10 13  1  0  0  0
 10 27  1  0  0  0
 10 28  1  0  0  0
 10 29  1  0  0  0
 11 30  1  0  0  0
 14 31  1  0  0  0
 14 32  1  0  0  0
M  END
> <s_m_source_file>
../3wka_ligand.sdf

> <i_m_source_file_index>
1

> <s_epik_input>
Tz1jMVtuSF1jKD1PKW4oW0NIM10pYyhbTkgyXSljMU4yW0NIMl1bQ0gyXVtDSDJdW0NIMl1bQ0gyXTI=

> <s_epik_cmdline>
J2VwaWtfYXBwJywgJy1pbWFlJywgJ2xpZ2FuZF9wcm8ubWFlJywgJy1vbWFlJywgJ2xpZ2FuZF9wcmVwLm1hZScsICctbXMnLCAnMScsICctcGgnLCAnNycsICctcGh0JywgJzAuNScsICctbnQn

> <r_lp_tautomer_probability>
1

> <r_epik_Ionization_Penalty>
  0.0004

> <r_epik_Ionization_Penalty_Charging>
  0.0000

> <r_epik_Ionization_Penalty_Neutral>
  0.0004

> <r_epik_State_Penalty>
 -0.0000

> <r_epik_Charging_Adjusted_Penalty>
1.21783390136472e-06

> <i_epik_Tot_Q>
0

> <i_epik_Tot_abs_Q>
0

> <s_epik_Chemistry_Notes>
This compound has an imine and may undergo hydrolysis.

$$$$
