3wkb_ligand
                    3D
 Schrodinger Suite 2020-3.
 32 34  0  0  1  0            999 V2000
  -18.5290   -3.7500   53.8850 C   0  0  0  0  0  0
  -17.3040   -3.3290   53.3710 C   0  0  0  0  0  0
  -18.5970   -4.9460   54.5750 C   0  0  0  0  0  0
  -13.3450   -5.3240   59.1270 C   0  0  0  0  0  0
  -13.3780   -4.5940   57.9480 C   0  0  0  0  0  0
  -16.1380   -4.0660   53.5160 C   0  0  0  0  0  0
  -17.4360   -5.6860   54.7360 C   0  0  0  0  0  0
  -13.8300   -6.6230   59.0920 C   0  0  0  0  0  0
  -13.8800   -5.1400   56.7650 C   0  0  0  0  0  0
  -16.2150   -5.2730   54.2100 C   0  0  0  0  0  0
  -14.3280   -7.1460   57.8910 C   0  0  0  0  0  0
  -14.3840   -6.4420   56.6980 C   0  0  0  0  0  0
  -15.5600   -8.9860   56.8250 C   0  0  0  0  0  0
  -15.8610   -8.1590   55.5670 C   0  0  0  0  0  0
  -14.9760   -6.1230   54.3450 C   0  0  0  0  0  0
  -14.8130   -8.4530   57.8620 N   0  0  0  0  0  0
  -14.8820   -7.0710   55.4770 N   0  0  0  0  0  0
  -15.9530  -10.1270   56.9960 O   0  0  0  0  0  0
  -19.4235   -3.1431   53.7446 H   0  0  0  0  0  0
  -17.2604   -2.3820   52.8331 H   0  0  0  0  0  0
  -19.5435   -5.2996   54.9838 H   0  0  0  0  0  0
  -12.9522   -4.8925   60.0476 H   0  0  0  0  0  0
  -13.0034   -3.5704   57.9450 H   0  0  0  0  0  0
  -15.1935   -3.7136   53.1015 H   0  0  0  0  0  0
  -17.4805   -6.6220   55.2927 H   0  0  0  0  0  0
  -13.8238   -7.2342   59.9945 H   0  0  0  0  0  0
  -13.8788   -4.5295   55.8620 H   0  0  0  0  0  0
  -15.7876   -8.8033   54.6784 H   0  0  0  0  0  0
  -16.8772   -7.7436   55.6357 H   0  0  0  0  0  0
  -14.8614   -6.7492   53.4479 H   0  0  0  0  0  0
  -14.0953   -5.4729   54.4532 H   0  0  0  0  0  0
  -14.6083   -9.1344   58.7010 H   0  0  0  0  0  0
  1  2  2  0  0  0
  1  3  1  0  0  0
  1 19  1  0  0  0
  2  6  1  0  0  0
  2 20  1  0  0  0
  3  7  2  0  0  0
  3 21  1  0  0  0
  4  5  2  0  0  0
  4  8  1  0  0  0
  4 22  1  0  0  0
  5  9  1  0  0  0
  5 23  1  0  0  0
  6 10  2  0  0  0
  6 24  1  0  0  0
  7 10  1  0  0  0
  7 25  1  0  0  0
  8 11  2  0  0  0
  8 26  1  0  0  0
  9 12  2  0  0  0
  9 27  1  0  0  0
 10 15  1  0  0  0
 11 12  1  0  0  0
 11 16  1  0  0  0
 12 17  1  0  0  0
 13 14  1  0  0  0
 13 16  1  0  0  0
 13 18  2  0  0  0
 14 17  1  0  0  0
 14 28  1  0  0  0
 14 29  1  0  0  0
 15 17  1  0  0  0
 15 30  1  0  0  0
 15 31  1  0  0  0
 16 32  1  0  0  0
M  END
> <s_m_source_file>
../3wkb_ligand.sdf

> <i_m_source_file_index>
1

> <s_epik_input>
W2NIXTFbY0hdW2NIXVtjSF1bY0hdYzFbQ0gyXU4oW0NIMl1DKD1PKVtOSF0yKWMoYzIzKVtjSF1bY0hdW2NIXVtjSF0z

> <s_epik_cmdline>
J2VwaWtfYXBwJywgJy1pbWFlJywgJ2xpZ2FuZF9wcm8ubWFlJywgJy1vbWFlJywgJ2xpZ2FuZF9wcmVwLm1hZScsICctbXMnLCAnMScsICctcGgnLCAnNycsICctcGh0JywgJzAuNScsICctbnQn

> <r_lp_tautomer_probability>
1

> <r_epik_Ionization_Penalty>
  0.0001

> <r_epik_Ionization_Penalty_Charging>
  0.0000

> <r_epik_Ionization_Penalty_Neutral>
  0.0001

> <r_epik_State_Penalty>
 -0.0000

> <r_epik_Charging_Adjusted_Penalty>
0

> <i_epik_Tot_Q>
0

> <i_epik_Tot_abs_Q>
0

$$$$
