3wkc_ligand
                    3D
 Schrodinger Suite 2020-3.
 38 40  0  0  1  0            999 V2000
  -13.6730   -3.5510   59.7680 C   0  0  0  0  0  0
  -11.5370   -4.3000   57.7840 C   0  0  0  0  0  0
  -13.7460   -4.6650   58.9070 C   0  0  0  0  0  0
  -12.7610   -4.9140   57.9030 C   0  0  0  0  0  0
  -14.8390   -3.5650   60.4850 C   0  0  0  0  0  0
  -14.9340   -5.3420   59.0840 C   0  0  0  0  0  0
  -12.1830   -5.8720   56.0100 C   0  0  0  0  0  0
  -18.5990   -6.9170   62.7270 C   0  0  0  0  0  0
  -18.3580   -5.4800   62.5010 C   0  0  0  0  0  0
  -17.7580   -7.5230   61.6440 C   0  0  0  0  0  0
  -16.9560   -5.4950   61.9390 C   0  0  2  0  0  0
  -15.2280   -2.5860   61.5170 C   0  0  0  0  0  0
  -15.4940   -6.5530   58.4230 C   0  0  0  0  0  0
  -16.9310   -5.0530   60.5050 C   0  0  0  0  0  0
  -13.1280   -5.7840   56.9100 N   0  0  0  0  0  0
  -15.5820   -4.6620   60.0750 N   0  0  0  0  0  0
  -12.2480   -6.6380   54.9160 N   0  0  0  0  0  0
  -16.5310   -6.8190   61.8110 O   0  0  0  0  0  0
  -10.8110   -4.8990   56.3500 S   0  0  0  0  0  0
  -12.8592   -2.8301   59.8463 H   0  0  0  0  0  0
  -11.1086   -3.5703   58.4711 H   0  0  0  0  0  0
  -18.2709   -7.1887   63.7411 H   0  0  0  0  0  0
  -19.6728   -7.1300   62.6197 H   0  0  0  0  0  0
  -19.1057   -5.0894   61.7950 H   0  0  0  0  0  0
  -18.4383   -4.9401   63.4560 H   0  0  0  0  0  0
  -17.6653   -8.6058   61.8143 H   0  0  0  0  0  0
  -18.2328   -7.3447   60.6679 H   0  0  0  0  0  0
  -16.3137   -4.9100   62.6137 H   0  0  0  0  0  0
  -14.4360   -1.8300   61.6223 H   0  0  0  0  0  0
  -15.3714   -3.1030   62.4773 H   0  0  0  0  0  0
  -16.1667   -2.0948   61.2212 H   0  0  0  0  0  0
  -14.7871   -6.9153   57.6621 H   0  0  0  0  0  0
  -16.4509   -6.2995   57.9434 H   0  0  0  0  0  0
  -15.6576   -7.3387   59.1752 H   0  0  0  0  0  0
  -17.2720   -5.8772   59.8613 H   0  0  0  0  0  0
  -17.5976   -4.1875   60.3764 H   0  0  0  0  0  0
  -13.1415   -7.2507   54.7259 H   0  0  0  0  0  0
  -11.4079   -6.6554   54.2061 H   0  0  0  0  0  0
  1  3  1  0  0  0
  1  5  2  0  0  0
  1 20  1  0  0  0
  2  4  2  0  0  0
  2 19  1  0  0  0
  2 21  1  0  0  0
  3  4  1  0  0  0
  3  6  2  0  0  0
  4 15  1  0  0  0
  5 12  1  0  0  0
  5 16  1  0  0  0
  6 13  1  0  0  0
  6 16  1  0  0  0
  7 15  2  0  0  0
  7 17  1  0  0  0
  7 19  1  0  0  0
  8  9  1  0  0  0
  8 10  1  0  0  0
  8 22  1  0  0  0
  8 23  1  0  0  0
  9 11  1  0  0  0
  9 24  1  0  0  0
  9 25  1  0  0  0
 10 18  1  0  0  0
 10 26  1  0  0  0
 10 27  1  0  0  0
 11 14  1  0  0  0
 11 18  1  0  0  0
 11 28  1  0  0  0
 12 29  1  0  0  0
 12 30  1  0  0  0
 12 31  1  0  0  0
 13 32  1  0  0  0
 13 33  1  0  0  0
 13 34  1  0  0  0
 14 16  1  0  0  0
 14 35  1  0  0  0
 14 36  1  0  0  0
 17 37  1  0  0  0
 17 38  1  0  0  0
M  END
> <s_m_source_file>
../3wkc_ligand.sdf

> <i_m_source_file_index>
1

> <s_epik_input>
bjFjKFtOSDJdKXNbY0hdYzEtYzJbY0hdYyhbQ0gzXSluKGMyW0NIM10pW0NIMl1bQ0BIXTNbQ0gyXVtDSDJdW0NIMl1PMw==

> <s_epik_cmdline>
J2VwaWtfYXBwJywgJy1pbWFlJywgJ2xpZ2FuZF9wcm8ubWFlJywgJy1vbWFlJywgJ2xpZ2FuZF9wcmVwLm1hZScsICctbXMnLCAnMScsICctcGgnLCAnNycsICctcGh0JywgJzAuNScsICctbnQn

> <r_lp_tautomer_probability>
1

> <r_epik_Ionization_Penalty>
  0.0038

> <r_epik_Ionization_Penalty_Charging>
  0.0000

> <r_epik_Ionization_Penalty_Neutral>
  0.0038

> <r_epik_State_Penalty>
 -0.0000

> <r_epik_Charging_Adjusted_Penalty>
0

> <i_epik_Tot_Q>
0

> <i_epik_Tot_abs_Q>
0

$$$$
