3wkd_ligand
                    3D
 Schrodinger Suite 2020-3.
 36 38  0  0  1  0            999 V2000
  -18.5460   -3.7830   53.3940 C   0  0  0  0  0  0
  -19.0930   -4.7170   54.2460 C   0  0  0  0  0  0
  -17.1850   -3.6580   53.3050 C   0  0  0  0  0  0
  -18.2880   -5.5280   55.0060 C   0  0  0  0  0  0
  -14.8780   -7.6730   57.7660 C   0  0  0  0  0  0
  -14.2700   -8.6030   58.6020 C   0  0  0  0  0  0
  -15.4250   -9.6520   56.6840 C   0  0  0  0  0  0
  -15.5330   -8.2760   56.6500 C   0  0  0  0  0  0
  -16.3730   -4.4790   54.0660 C   0  0  0  0  0  0
  -16.9140   -5.4190   54.9210 C   0  0  0  0  0  0
  -16.2560   -7.6180   55.6150 C   0  0  0  0  0  0
  -14.6300   -2.9900   53.6720 C   0  0  0  0  0  0
  -14.3720   -5.4410   53.2270 C   0  0  0  0  0  0
  -13.1830   -2.9050   54.0220 C   0  0  0  0  0  0
  -12.8930   -5.2700   53.4930 C   0  0  0  0  0  0
  -14.9910   -4.3580   53.9670 N   0  0  0  0  0  0
  -16.0890   -6.2580   55.6980 N   0  0  0  0  0  0
  -16.9830   -8.2380   54.8220 O   0  0  0  0  0  0
  -12.5260   -3.8980   53.2540 O   0  0  0  0  0  0
  -14.5240  -10.2300   58.0470 S   0  0  0  0  0  0
  -19.1941   -3.1455   52.7926 H   0  0  0  0  0  0
  -20.1764   -4.8129   54.3173 H   0  0  0  0  0  0
  -16.7447   -2.9162   52.6387 H   0  0  0  0  0  0
  -18.7344   -6.2603   55.6787 H   0  0  0  0  0  0
  -14.8568   -6.5978   57.9438 H   0  0  0  0  0  0
  -13.7033   -8.3432   59.4962 H   0  0  0  0  0  0
  -15.8617  -10.3077   55.9307 H   0  0  0  0  0  0
  -15.1979   -2.2737   54.2839 H   0  0  0  0  0  0
  -14.7644   -2.7498   52.6070 H   0  0  0  0  0  0
  -14.5613   -5.3648   52.1461 H   0  0  0  0  0  0
  -14.6977   -6.4278   53.5877 H   0  0  0  0  0  0
  -12.8044   -1.9021   53.7754 H   0  0  0  0  0  0
  -13.0546   -3.0909   55.0985 H   0  0  0  0  0  0
  -12.6755   -5.5342   54.5384 H   0  0  0  0  0  0
  -12.3213   -5.9280   52.8220 H   0  0  0  0  0  0
  -15.3256   -5.8204   56.3581 H   0  0  0  0  0  0
  1  2  2  0  0  0
  1  3  1  0  0  0
  1 21  1  0  0  0
  2  4  1  0  0  0
  2 22  1  0  0  0
  3  9  2  0  0  0
  3 23  1  0  0  0
  4 10  2  0  0  0
  4 24  1  0  0  0
  5  6  2  0  0  0
  5  8  1  0  0  0
  5 25  1  0  0  0
  6 20  1  0  0  0
  6 26  1  0  0  0
  7  8  2  0  0  0
  7 20  1  0  0  0
  7 27  1  0  0  0
  8 11  1  0  0  0
  9 10  1  0  0  0
  9 16  1  0  0  0
 10 17  1  0  0  0
 11 17  1  0  0  0
 11 18  2  0  0  0
 12 14  1  0  0  0
 12 16  1  0  0  0
 12 28  1  0  0  0
 12 29  1  0  0  0
 13 15  1  0  0  0
 13 16  1  0  0  0
 13 30  1  0  0  0
 13 31  1  0  0  0
 14 19  1  0  0  0
 14 32  1  0  0  0
 14 33  1  0  0  0
 15 19  1  0  0  0
 15 34  1  0  0  0
 15 35  1  0  0  0
 17 36  1  0  0  0
M  END
> <s_m_source_file>
../3wkd_ligand.sdf

> <i_m_source_file_index>
1

> <s_epik_input>
W0NIMl0xW0NIMl1PW0NIMl1bQ0gyXU4xYzJbY0hdW2NIXVtjSF1bY0hdYzJbTkhdQyg9TyljM1tjSF1bY0hdc1tjSF0z

> <s_epik_cmdline>
J2VwaWtfYXBwJywgJy1pbWFlJywgJ2xpZ2FuZF9wcm8ubWFlJywgJy1vbWFlJywgJ2xpZ2FuZF9wcmVwLm1hZScsICctbXMnLCAnMScsICctcGgnLCAnNycsICctcGh0JywgJzAuNScsICctbnQn

> <r_lp_tautomer_probability>
1

> <r_epik_Ionization_Penalty>
  0.0000

> <r_epik_Ionization_Penalty_Charging>
  0.0000

> <r_epik_Ionization_Penalty_Neutral>
  0.0000

> <r_epik_State_Penalty>
 -0.0000

> <r_epik_Charging_Adjusted_Penalty>
0

> <i_epik_Tot_Q>
0

> <i_epik_Tot_abs_Q>
0

$$$$
