3wke_ligand
                    3D
 Schrodinger Suite 2020-3.
 61 65  0  0  1  0            999 V2000
  -16.6670   -9.3110   73.4410 C   0  0  0  0  0  0
  -15.8340  -11.5260   73.8560 C   0  0  0  0  0  0
  -16.9020   -9.6390   72.1250 C   0  0  0  0  0  0
  -16.0810  -11.8400   72.5400 C   0  0  0  0  0  0
  -16.1360  -10.2550   74.2870 C   0  0  0  0  0  0
  -16.6120  -10.9070   71.6780 C   0  0  0  0  0  0
  -15.9070   -9.8750   75.6790 C   0  0  0  0  0  0
  -17.2640   -8.0950   64.6590 C   0  0  0  0  0  0
  -18.3770  -10.2340   67.1550 C   0  0  0  0  0  0
  -16.6450   -8.5750   67.9110 C   0  0  0  0  0  0
  -18.0760  -11.0650   68.3860 C   0  0  0  0  0  0
  -16.1680   -9.5730   68.9280 C   0  0  0  0  0  0
  -17.3460   -5.5350   60.0040 C   0  0  0  0  0  0
  -15.1610   -6.5300   60.6020 C   0  0  0  0  0  0
  -15.7210   -4.2540   61.3890 C   0  0  0  0  0  0
  -17.2850   -7.4250   61.6060 C   0  0  0  0  0  0
  -17.8590   -5.1710   62.4020 C   0  0  0  0  0  0
  -15.6550   -6.1510   62.9980 C   0  0  0  0  0  0
  -16.6370   -6.8370   60.3480 C   0  0  1  0  0  0
  -17.2010   -4.5660   61.1620 C   0  0  2  0  0  0
  -15.0070   -5.5460   61.7530 C   0  0  1  0  0  0
  -17.2640   -9.2950   66.7300 C   0  0  2  0  0  0
  -17.3420  -10.3250   69.5020 C   0  0  2  0  0  0
  -17.1440   -6.4560   62.7770 C   0  0  0  0  0  0
  -17.8250   -8.2860   65.8790 N   0  0  0  0  0  0
  -17.7500   -6.9930   63.9800 N   0  0  0  0  0  0
  -16.4410   -8.9120   76.2100 O   0  0  0  0  0  0
  -16.4160   -8.8640   64.2500 O   0  0  0  0  0  0
  -15.0670  -10.7810   76.2380 O   0  5  0  0  0  0
  -16.8120  -11.3220   70.3730 O   0  0  0  0  0  0
  -16.8999   -8.3117   73.8088 H   0  0  0  0  0  0
  -15.4109  -12.2634   74.5382 H   0  0  0  0  0  0
  -17.3156   -8.8980   71.4409 H   0  0  0  0  0  0
  -15.8532  -12.8413   72.1744 H   0  0  0  0  0  0
  -18.5714  -10.9001   66.3015 H   0  0  0  0  0  0
  -19.2630   -9.6094   67.3418 H   0  0  0  0  0  0
  -17.3978   -7.9164   68.3687 H   0  0  0  0  0  0
  -15.7939   -7.9719   67.5619 H   0  0  0  0  0  0
  -19.0177  -11.4331   68.8191 H   0  0  0  0  0  0
  -17.4426  -11.9195   68.1057 H   0  0  0  0  0  0
  -15.4811  -10.2857   68.4482 H   0  0  0  0  0  0
  -15.6430   -9.0474   69.7393 H   0  0  0  0  0  0
  -16.8950   -5.0996   59.1001 H   0  0  0  0  0  0
  -18.4122   -5.7351   59.8218 H   0  0  0  0  0  0
  -14.6315   -7.4601   60.8560 H   0  0  0  0  0  0
  -14.7168   -6.0907   59.6967 H   0  0  0  0  0  0
  -15.2898   -3.8327   60.4689 H   0  0  0  0  0  0
  -15.6211   -3.5260   62.2075 H   0  0  0  0  0  0
  -18.3533   -7.6070   61.4173 H   0  0  0  0  0  0
  -16.7913   -8.3737   61.8636 H   0  0  0  0  0  0
  -17.7936   -4.4576   63.2367 H   0  0  0  0  0  0
  -18.9157   -5.3882   62.1873 H   0  0  0  0  0  0
  -15.1453   -7.0909   63.2567 H   0  0  0  0  0  0
  -15.5687   -5.4443   63.8365 H   0  0  0  0  0  0
  -16.7211   -7.5588   59.5222 H   0  0  0  0  0  0
  -17.7093   -3.6185   60.9300 H   0  0  0  0  0  0
  -13.9436   -5.3377   61.9424 H   0  0  0  0  0  0
  -16.5000   -9.8671   66.1832 H   0  0  0  0  0  0
  -18.0060   -9.6507   70.0627 H   0  0  0  0  0  0
  -18.6858   -7.6933   66.2222 H   0  0  0  0  0  0
  -18.6487   -6.5192   64.4018 H   0  0  0  0  0  0
  1  3  2  0  0  0
  1  5  1  0  0  0
  1 31  1  0  0  0
  2  4  1  0  0  0
  2  5  2  0  0  0
  2 32  1  0  0  0
  3  6  1  0  0  0
  3 33  1  0  0  0
  4  6  2  0  0  0
  4 34  1  0  0  0
  5  7  1  0  0  0
  6 30  1  0  0  0
  7 27  2  0  0  0
  7 29  1  0  0  0
  8 25  1  0  0  0
  8 26  1  0  0  0
  8 28  2  0  0  0
  9 11  1  0  0  0
  9 22  1  0  0  0
  9 35  1  0  0  0
  9 36  1  0  0  0
 10 12  1  0  0  0
 10 22  1  0  0  0
 10 37  1  0  0  0
 10 38  1  0  0  0
 11 23  1  0  0  0
 11 39  1  0  0  0
 11 40  1  0  0  0
 12 23  1  0  0  0
 12 41  1  0  0  0
 12 42  1  0  0  0
 13 19  1  0  0  0
 13 20  1  0  0  0
 13 43  1  0  0  0
 13 44  1  0  0  0
 14 19  1  0  0  0
 14 21  1  0  0  0
 14 45  1  0  0  0
 14 46  1  0  0  0
 15 20  1  0  0  0
 15 21  1  0  0  0
 15 47  1  0  0  0
 15 48  1  0  0  0
 16 19  1  0  0  0
 16 24  1  0  0  0
 16 49  1  0  0  0
 16 50  1  0  0  0
 17 20  1  0  0  0
 17 24  1  0  0  0
 17 51  1  0  0  0
 17 52  1  0  0  0
 18 21  1  0  0  0
 18 24  1  0  0  0
 18 53  1  0  0  0
 18 54  1  0  0  0
 19 55  1  0  0  0
 20 56  1  0  0  0
 21 57  1  0  0  0
 22 25  1  0  0  0
 22 58  1  0  0  0
 23 30  1  0  0  0
 23 59  1  0  0  0
 24 26  1  0  0  0
 25 60  1  0  0  0
 26 61  1  0  0  0
M  CHG  1  29  -1
M  END
> <s_m_source_file>
../3wke_ligand.sdf

> <i_m_source_file_index>
1

> <s_epik_input>
Tz1DKFtPSF0pYzFbY0hdW2NIXWMoW2NIXVtjSF0xKU9bQ0BASF0oW0NIMl1bQ0gyXTIpW0NIMl1bQ0gyXVtDQEhdMltOSF1DKD1PKVtOSF1DMzRbQ0gyXVtDQEhdNVtDSDJdW0NAQEhdKFtDSDJdMylbQ0gyXVtDQEhdKFtDSDJdNSlbQ0gyXTQ=

> <s_epik_cmdline>
J2VwaWtfYXBwJywgJy1pbWFlJywgJ2xpZ2FuZF9wcm8ubWFlJywgJy1vbWFlJywgJ2xpZ2FuZF9wcmVwLm1hZScsICctbXMnLCAnMScsICctcGgnLCAnNycsICctcGh0JywgJzAuNScsICctbnQn

> <r_lp_tautomer_probability>
1

> <r_epik_Ionization_Penalty>
  0.0026

> <r_epik_Ionization_Penalty_Charging>
  0.0025

> <r_epik_Ionization_Penalty_Neutral>
  0.0001

> <r_epik_State_Penalty>
 -0.0000

> <r_epik_Charging_Adjusted_Penalty>
0.00248062909960697

> <i_epik_Tot_Q>
-1

> <i_epik_Tot_abs_Q>
1

$$$$
