3wmb_ligand
                    3D
 Schrodinger Suite 2020-3.
 44 47  0  0  1  0            999 V2000
   32.1420    1.6440   14.1680 O   0  5  0  0  0  0
   33.3680    2.2800   14.1380 C   0  0  1  0  0  0
   33.5550    3.5480   14.9180 C   0  0  0  0  0  0
   34.8350    4.1760   14.8670 C   0  0  0  0  0  0
   32.4910    4.1420   15.7200 C   0  0  0  0  0  0
   32.7310    5.3440   16.4420 C   0  0  0  0  0  0
   34.0020    5.9680   16.3870 C   0  0  0  0  0  0
   35.0710    5.3690   15.5830 C   0  0  0  0  0  0
   36.3910    6.0130   15.5200 C   0  0  0  0  0  0
   37.4270    5.4220   14.7380 C   0  0  0  0  0  0
   37.1940    4.2150   14.0140 C   0  0  0  0  0  0
   35.8830    3.5750   14.0730 C   0  0  0  0  0  0
   35.6350    2.3170   13.3190 C   0  0  1  0  0  0
   36.6550    1.7230   12.5400 O   0  5  0  0  0  0
   34.3840    1.7310   13.3970 N   0  3  3  0  0  0
   34.1130    0.4780   12.6420 C   0  0  0  0  0  0
   34.9480   -0.7550   12.8730 C   0  0  0  0  0  0
   35.5720   -1.3480   11.6590 N   0  0  1  0  0  0
   35.5850   -2.7750   11.7340 C   0  0  0  0  0  0
   36.8630   -3.4130   11.3270 C   0  0  0  0  0  0
   37.2050   -4.2640    9.8780 S   0  0  0  0  0  0
   38.0310   -3.4230   12.0370 N   0  0  0  0  0  0
   39.0860   -4.0570   11.4600 N   0  0  0  0  0  0
   38.8760   -4.6140   10.2520 C   0  0  0  0  0  0
   39.8790   -5.3710    9.4160 C   0  0  0  0  0  0
   33.0432    2.8650   13.2649 H   0  0  0  0  0  0
   31.5121    3.6648   15.7660 H   0  0  0  0  0  0
   31.9342    5.7866   17.0397 H   0  0  0  0  0  0
   34.1839    6.8894   16.9402 H   0  0  0  0  0  0
   36.5769    6.9368   16.0678 H   0  0  0  0  0  0
   38.4068    5.8974   14.6930 H   0  0  0  0  0  0
   37.9923    3.7719   13.4186 H   0  0  0  0  0  0
   35.3106    2.9037   12.4469 H   0  0  0  0  0  0
   33.0875    0.1389   12.8504 H   0  0  0  0  0  0
   34.2245    0.6679   11.5643 H   0  0  0  0  0  0
   35.7741   -0.5152   13.5586 H   0  0  0  0  0  0
   34.3221   -1.5442   13.3149 H   0  0  0  0  0  0
   35.0003   -1.0471   10.7687 H   0  0  0  0  0  0
   35.3918   -3.0895   12.7702 H   0  0  0  0  0  0
   34.8048   -3.1839   11.0752 H   0  0  0  0  0  0
   39.4026   -5.7006    8.4809 H   0  0  0  0  0  0
   40.2346   -6.2487    9.9756 H   0  0  0  0  0  0
   40.7308   -4.7153    9.1823 H   0  0  0  0  0  0
   34.0579    2.3104   12.5207 H   0  0  0  0  0  0
  1  2  1  0  0  0
  2  3  1  0  0  0
  2 15  1  0  0  0
  2 26  1  0  0  0
  3  4  2  0  0  0
  3  5  1  0  0  0
  4  8  1  0  0  0
  4 12  1  0  0  0
  5  6  2  0  0  0
  5 27  1  0  0  0
  6  7  1  0  0  0
  6 28  1  0  0  0
  7  8  2  0  0  0
  7 29  1  0  0  0
  8  9  1  0  0  0
  9 10  2  0  0  0
  9 30  1  0  0  0
 10 11  1  0  0  0
 10 31  1  0  0  0
 11 12  2  0  0  0
 11 32  1  0  0  0
 12 13  1  0  0  0
 13 14  1  0  0  0
 13 15  1  0  0  0
 13 33  1  0  0  0
 15 16  1  0  0  0
 15 44  1  0  0  0
 16 17  1  0  0  0
 16 34  1  0  0  0
 16 35  1  0  0  0
 17 18  1  0  0  0
 17 36  1  0  0  0
 17 37  1  0  0  0
 18 19  1  0  0  0
 18 38  1  0  0  0
 19 20  1  0  0  0
 19 39  1  0  0  0
 19 40  1  0  0  0
 20 21  1  0  0  0
 20 22  2  0  0  0
 21 24  1  0  0  0
 22 23  1  0  0  0
 23 24  2  0  0  0
 24 25  1  0  0  0
 25 41  1  0  0  0
 25 42  1  0  0  0
 25 43  1  0  0  0
M  CHG  3   1  -1  14  -1  15   1
M  END
> <s_m_source_file>
../3wmb_ligand.sdf

> <i_m_source_file_index>
1

> <s_epik_input>
bjFuYyhbQ0gzXSlzYzFbQ0gyXVtOSDIrXVtDSDJdW0NIMl1bTkgrXShbQ0hdMltPSF0pW0NIXShbT0hdKWMzW2NIXVtjSF1bY0hdYyhjM2MyNClbY0hdW2NIXVtjSF00

> <s_epik_cmdline>
J2VwaWtfYXBwJywgJy1pbWFlJywgJ2xpZ2FuZF9wcm8ubWFlJywgJy1vbWFlJywgJ2xpZ2FuZF9wcmVwLm1hZScsICctbXMnLCAnMScsICctcGgnLCAnNycsICctcGh0JywgJzAuNScsICctbnQn

> <r_lp_tautomer_probability>
1

> <r_epik_Ionization_Penalty>
  0.0955

> <r_epik_Ionization_Penalty_Charging>
  0.0870

> <r_epik_Ionization_Penalty_Neutral>
  0.0085

> <r_epik_State_Penalty>
  0.0775

> <r_epik_Charging_Adjusted_Penalty>
0.164533197291784

> <i_epik_Tot_Q>
-1

> <i_epik_Tot_abs_Q>
3

> <s_epik_Chemistry_Notes>
This compound contains an acetal/aminal-like group ( X-CH(R)-Y where X, Y are N, S, or O) that may be acid/base labile, releasing an aldehyde.

$$$$
