3wmc_ligand
                    3D
 Schrodinger Suite 2020-3.
 52 55  0  0  1  0            999 V2000
  -34.5750   -2.3410  189.3930 O   0  5  0  0  0  0
  -33.9020   -1.1220  189.4290 C   0  0  3  0  0  0
  -32.7530   -0.9530  190.3390 C   0  0  0  0  0  0
  -32.0690    0.2970  190.3730 C   0  0  0  0  0  0
  -32.5140    1.3680  189.5170 C   0  0  0  0  0  0
  -31.8200    2.6470  189.5520 C   0  0  0  0  0  0
  -30.7170    2.8280  190.4220 C   0  0  0  0  0  0
  -30.2790    1.7540  191.2720 C   0  0  0  0  0  0
  -29.1480    1.9100  192.1820 N   0  0  0  0  0  0
  -29.3860    2.3230  193.5540 C   0  0  0  0  0  0
  -27.7890    1.6420  191.7230 C   0  0  0  0  0  0
  -30.9750    0.4800  191.2370 C   0  0  0  0  0  0
  -30.5310   -0.5890  192.0910 C   0  0  0  0  0  0
  -31.2150   -1.8380  192.0540 C   0  0  0  0  0  0
  -32.3170   -2.0230  191.1850 C   0  0  0  0  0  0
  -33.6620    1.1490  188.6330 C   0  0  1  0  0  0
  -34.1160    2.1840  187.7870 O   0  5  0  0  0  0
  -34.3090   -0.0900  188.6280 N   0  3  1  0  0  0
  -35.4290   -0.3000  187.7510 C   0  0  0  0  0  0
  -36.8050    0.2560  188.1450 C   0  0  0  0  0  0
  -37.9710   -0.0720  187.2050 N   0  0  1  0  0  0
  -39.2060    0.5250  187.6880 C   0  0  0  0  0  0
  -39.5860    1.9070  187.1710 C   0  0  0  0  0  0
  -39.8090    2.4360  185.5530 S   0  0  0  0  0  0
  -39.8230    2.9880  187.9210 N   0  0  0  0  0  0
  -40.1450    4.1260  187.2750 N   0  0  0  0  0  0
  -40.1970    4.0640  185.9470 C   0  0  0  0  0  0
  -40.5370    5.2070  185.0150 C   0  0  0  0  0  0
  -34.5805   -0.7708  190.2204 H   0  0  0  0  0  0
  -32.1486    3.4641  188.9098 H   0  0  0  0  0  0
  -30.1977    3.7860  190.4473 H   0  0  0  0  0  0
  -30.4642    2.4763  193.7090 H   0  0  0  0  0  0
  -28.8498    3.2627  193.7523 H   0  0  0  0  0  0
  -29.0243    1.5427  194.2398 H   0  0  0  0  0  0
  -27.8116    1.3442  190.6643 H   0  0  0  0  0  0
  -27.3528    0.8298  192.3231 H   0  0  0  0  0  0
  -27.1782    2.5499  191.8356 H   0  0  0  0  0  0
  -29.6814   -0.4450  192.7584 H   0  0  0  0  0  0
  -30.8884   -2.6548  192.6976 H   0  0  0  0  0  0
  -32.8348   -2.9819  191.1597 H   0  0  0  0  0  0
  -34.3393    1.4998  189.4256 H   0  0  0  0  0  0
  -35.2194    0.1572  186.7727 H   0  0  0  0  0  0
  -35.5970   -1.3795  187.6228 H   0  0  0  0  0  0
  -37.0926   -0.1409  189.1298 H   0  0  0  0  0  0
  -36.7571    1.3539  188.1920 H   0  0  0  0  0  0
  -37.7549    0.3226  186.2012 H   0  0  0  0  0  0
  -40.0548   -0.1218  187.4212 H   0  0  0  0  0  0
  -39.1575    0.6338  188.7815 H   0  0  0  0  0  0
  -40.5000    4.8544  183.9737 H   0  0  0  0  0  0
  -39.8100    6.0209  185.1526 H   0  0  0  0  0  0
  -41.5481    5.5763  185.2414 H   0  0  0  0  0  0
  -34.9850    0.2598  189.4222 H   0  0  0  0  0  0
  1  2  1  0  0  0
  2  3  1  0  0  0
  2 18  1  0  0  0
  2 29  1  0  0  0
  3  4  2  0  0  0
  3 15  1  0  0  0
  4  5  1  0  0  0
  4 12  1  0  0  0
  5  6  2  0  0  0
  5 16  1  0  0  0
  6  7  1  0  0  0
  6 30  1  0  0  0
  7  8  2  0  0  0
  7 31  1  0  0  0
  8  9  1  0  0  0
  8 12  1  0  0  0
  9 10  1  0  0  0
  9 11  1  0  0  0
 10 32  1  0  0  0
 10 33  1  0  0  0
 10 34  1  0  0  0
 11 35  1  0  0  0
 11 36  1  0  0  0
 11 37  1  0  0  0
 12 13  2  0  0  0
 13 14  1  0  0  0
 13 38  1  0  0  0
 14 15  2  0  0  0
 14 39  1  0  0  0
 15 40  1  0  0  0
 16 17  1  0  0  0
 16 18  1  0  0  0
 16 41  1  0  0  0
 18 19  1  0  0  0
 18 52  1  0  0  0
 19 20  1  0  0  0
 19 42  1  0  0  0
 19 43  1  0  0  0
 20 21  1  0  0  0
 20 44  1  0  0  0
 20 45  1  0  0  0
 21 22  1  0  0  0
 21 46  1  0  0  0
 22 23  1  0  0  0
 22 47  1  0  0  0
 22 48  1  0  0  0
 23 24  1  0  0  0
 23 25  2  0  0  0
 24 27  1  0  0  0
 25 26  1  0  0  0
 26 27  2  0  0  0
 27 28  1  0  0  0
 28 49  1  0  0  0
 28 50  1  0  0  0
 28 51  1  0  0  0
M  CHG  3   1  -1  17  -1  18   1
M  END
> <s_m_source_file>
../3wmc_ligand.sdf

> <i_m_source_file_index>
1

> <s_epik_input>
bjFuYyhbQ0gzXSlzYzFbQ0gyXVtOSDIrXVtDSDJdW0NIMl1bTkgrXShbQ0hdMltPSF0pW0NIXShbT0hdKWMoYzNjMjQpW2NIXVtjSF1jKE4oW0NIM10pW0NIM10pYzNbY0hdW2NIXVtjSF00

> <s_epik_cmdline>
J2VwaWtfYXBwJywgJy1pbWFlJywgJ2xpZ2FuZF9wcm8ubWFlJywgJy1vbWFlJywgJ2xpZ2FuZF9wcmVwLm1hZScsICctbXMnLCAnMScsICctcGgnLCAnNycsICctcGh0JywgJzAuNScsICctbnQn

> <r_lp_tautomer_probability>
1

> <r_epik_Ionization_Penalty>
  0.0988

> <r_epik_Ionization_Penalty_Charging>
  0.0902

> <r_epik_Ionization_Penalty_Neutral>
  0.0086

> <r_epik_State_Penalty>
  0.0742

> <r_epik_Charging_Adjusted_Penalty>
0.164414448226669

> <i_epik_Tot_Q>
-1

> <i_epik_Tot_abs_Q>
3

> <s_epik_Chemistry_Notes>
This compound contains an acetal/aminal-like group ( X-CH(R)-Y where X, Y are N, S, or O) that may be acid/base labile, releasing an aldehyde.

$$$$
