3wnr_ligand
                    3D
 Schrodinger Suite 2020-3.
 19 19  0  0  1  0            999 V2000
   10.9110   -9.7310   -4.9110 S   0  0  0  0  0  0
    9.8050   -8.9590   -3.9180 C   0  0  0  0  0  0
    9.1480   -9.6810   -2.8820 N   0  0  0  0  0  0
    9.4430  -11.0840   -2.6570 C   0  0  0  0  0  0
    8.2130  -11.9270   -2.9880 C   0  0  0  0  0  0
    7.2380  -11.4350   -3.8570 C   0  0  0  0  0  0
    6.1160  -12.2140   -4.1690 C   0  0  0  0  0  0
    5.9780  -13.4780   -3.6230 C   0  0  0  0  0  0
    6.9560  -13.9690   -2.7510 C   0  0  0  0  0  0
    8.0690  -13.1970   -2.4350 C   0  0  0  0  0  0
    9.5848   -7.8914   -4.0656 H   0  0  0  0  0  0
    8.4106   -9.1656   -2.2490 H   0  0  0  0  0  0
   10.2800  -11.3906   -3.3016 H   0  0  0  0  0  0
    9.7172  -11.2366   -1.6027 H   0  0  0  0  0  0
    7.3496  -10.4426   -4.2939 H   0  0  0  0  0  0
    5.3519  -11.8244   -4.8417 H   0  0  0  0  0  0
    5.1103  -14.0892   -3.8714 H   0  0  0  0  0  0
    6.8449  -14.9626   -2.3167 H   0  0  0  0  0  0
    8.8275  -13.5855   -1.7554 H   0  0  0  0  0  0
  1  2  2  0  0  0
  2  3  1  0  0  0
  2 11  1  0  0  0
  3  4  1  0  0  0
  3 12  1  0  0  0
  4  5  1  0  0  0
  4 13  1  0  0  0
  4 14  1  0  0  0
  5  6  2  0  0  0
  5 10  1  0  0  0
  6  7  1  0  0  0
  6 15  1  0  0  0
  7  8  2  0  0  0
  7 16  1  0  0  0
  8  9  1  0  0  0
  8 17  1  0  0  0
  9 10  2  0  0  0
  9 18  1  0  0  0
 10 19  1  0  0  0
M  END
> <s_m_source_file>
../3wnr_ligand.sdf

> <i_m_source_file_index>
1

> <s_epik_input>
Uz1bQ0hdW05IXVtDSDJdYzFbY0hdW2NIXVtjSF1bY0hdW2NIXTE=

> <s_epik_cmdline>
J2VwaWtfYXBwJywgJy1pbWFlJywgJ2xpZ2FuZF9wcm8ubWFlJywgJy1vbWFlJywgJ2xpZ2FuZF9wcmVwLm1hZScsICctbXMnLCAnMScsICctcGgnLCAnNycsICctcGh0JywgJzAuNScsICctbnQn

> <r_lp_tautomer_probability>
1

> <r_epik_Ionization_Penalty>
  0.0000

> <r_epik_Ionization_Penalty_Charging>
  0.0000

> <r_epik_Ionization_Penalty_Neutral>
  0.0000

> <r_epik_State_Penalty>
 -0.0000

> <r_epik_Charging_Adjusted_Penalty>
0

> <i_epik_Tot_Q>
0

> <i_epik_Tot_abs_Q>
0

$$$$
