3wns_ligand
                    3D
 Schrodinger Suite 2020-3.
 13 12  0  0  1  0            999 V2000
   30.2600   17.2050  102.3970 C   0  0  0  0  0  0
   30.1220   15.7460  102.1740 C   0  0  0  0  0  0
   29.0520   14.9700  102.6190 C   0  0  0  0  0  0
   30.9290   18.9840  100.6830 C   0  0  0  0  0  0
   30.1710   17.8500  101.0880 N   0  0  0  0  0  0
   31.9880   19.6580  101.7240 S   0  0  0  0  0  0
   29.4516   17.5531  103.0568 H   0  0  0  0  0  0
   31.2324   17.4138  102.8670 H   0  0  0  0  0  0
   30.9443   15.2786  101.6125 H   0  0  0  0  0  0
   28.2297   15.4374  103.1805 H   0  0  0  0  0  0
   29.0304   13.8905  102.4085 H   0  0  0  0  0  0
   30.8042   19.4062   99.6749 H   0  0  0  0  0  0
   29.4771   17.4601  100.3288 H   0  0  0  0  0  0
  1  2  1  0  0  0
  1  5  1  0  0  0
  1  7  1  0  0  0
  1  8  1  0  0  0
  2  3  2  0  0  0
  2  9  1  0  0  0
  3 10  1  0  0  0
  3 11  1  0  0  0
  4  5  1  0  0  0
  4  6  2  0  0  0
  4 12  1  0  0  0
  5 13  1  0  0  0
M  END
> <s_m_source_file>
../3wns_ligand.sdf

> <i_m_source_file_index>
1

> <s_epik_input>
W0NIMl09W0NIXVtDSDJdW05IXVtDSF09Uw==

> <s_epik_cmdline>
J2VwaWtfYXBwJywgJy1pbWFlJywgJ2xpZ2FuZF9wcm8ubWFlJywgJy1vbWFlJywgJ2xpZ2FuZF9wcmVwLm1hZScsICctbXMnLCAnMScsICctcGgnLCAnNycsICctcGh0JywgJzAuNScsICctbnQn

> <r_lp_tautomer_probability>
1

> <r_epik_Ionization_Penalty>
  0.0000

> <r_epik_Ionization_Penalty_Charging>
  0.0000

> <r_epik_Ionization_Penalty_Neutral>
  0.0000

> <r_epik_State_Penalty>
 -0.0000

> <r_epik_Charging_Adjusted_Penalty>
0

> <i_epik_Tot_Q>
0

> <i_epik_Tot_abs_Q>
0

$$$$
