3wp0_ligand
                    3D
 Schrodinger Suite 2020-3.
266266  0  0  1  0            999 V2000
   24.3020  -30.4240   19.4650 N   0  3  0  0  0  0
   25.0940  -31.3250   18.6320 C   0  0  2  0  0  0
   25.2950  -32.6910   19.2950 C   0  0  0  0  0  0
   26.4040  -33.0340   19.7410 O   0  0  0  0  0  0
   26.4490  -30.6980   18.2640 C   0  0  0  0  0  0
   24.2110  -33.4610   19.3640 N   0  0  0  0  0  0
   24.3060  -34.8810   19.6660 C   0  0  2  0  0  0
   23.8100  -35.6710   18.4600 C   0  0  0  0  0  0
   22.9420  -35.1940   17.7220 O   0  0  0  0  0  0
   23.4680  -35.2370   20.8840 C   0  0  0  0  0  0
   24.1160  -34.8050   22.0590 O   0  0  0  0  0  0
   24.3530  -36.8690   18.2660 N   0  0  0  0  0  0
   23.9300  -37.7320   17.1670 C   0  0  2  0  0  0
   24.0680  -37.0160   15.8310 C   0  0  0  0  0  0
   23.1620  -37.0350   14.9840 O   0  0  0  0  0  0
   22.5110  -38.2700   17.4100 C   0  0  0  0  0  0
   22.4750  -39.2270   18.5720 C   0  0  0  0  0  0
   21.0530  -39.7290   18.9210 C   0  0  0  0  0  0
   20.1160  -38.6420   19.1920 N   0  0  0  0  0  0
   20.0530  -37.9410   20.3270 C   0  0  0  0  0  0
   20.8910  -38.1800   21.3480 N   0  0  0  0  0  0
   19.1350  -36.9830   20.4500 N   0  0  0  0  0  0
   25.2330  -36.3860   15.6590 N   0  0  0  0  0  0
   25.6040  -35.6740   14.4470 C   0  0  2  0  0  0
   25.7200  -36.6740   13.2810 C   0  0  0  0  0  0
   26.2430  -37.7920   13.4490 O   0  0  0  0  0  0
   26.9480  -34.9280   14.6540 C   0  0  0  0  0  0
   27.4000  -34.2360   13.3540 C   0  0  0  0  0  0
   26.8310  -33.9000   15.7890 C   0  0  0  0  0  0
   25.2010  -36.3060   12.1130 N   0  0  0  0  0  0
   25.3160  -37.1760   10.9400 C   0  0  2  0  0  0
   26.7750  -37.5090   10.6380 C   0  0  0  0  0  0
   27.6810  -36.6970   10.8780 O   0  0  0  0  0  0
   24.6260  -36.5460    9.7180 C   0  0  0  0  0  0
   23.0930  -36.5980    9.8430 C   0  0  0  0  0  0
   22.3990  -36.0920    8.5860 C   0  0  0  0  0  0
   20.8800  -36.0470    8.8170 C   0  0  0  0  0  0
   20.1450  -35.7300    7.5330 N   0  3  0  0  0  0
   26.9960  -38.7150   10.1270 N   0  0  0  0  0  0
   28.3370  -39.2140    9.8660 C   0  0  1  0  0  0
   28.2350  -40.6730    9.3930 C   0  0  0  0  0  0
   27.4770  -40.7190    8.1960 O   0  0  0  0  0  0
   29.0890  -38.3480    8.8150 C   0  0  0  0  0  0
   30.3020  -38.1240    8.9350 O   0  0  0  0  0  0
   26.8360  -42.2020    7.9930 P   0  0  0  0  0  0
   25.9820  -42.1510    6.6430 O   0  0  0  0  0  0
   27.9810  -43.3360    7.9250 O   0  0  0  0  0  0
   25.9530  -42.6100    9.2830 O   0  0  0  0  0  0
   28.3830  -37.8610    7.8000 N   0  0  0  0  0  0
   29.0390  -37.0050    6.8150 C   0  0  2  0  0  0
   29.5760  -35.7540    7.4970 C   0  0  0  0  0  0
   30.7240  -35.3140    7.2320 O   0  0  0  0  0  0
   28.0880  -36.6050    5.6820 C   0  0  0  0  0  0
   28.6880  -35.6300    4.6400 C   0  0  0  0  0  0
   29.7470  -36.3310    3.7910 C   0  0  0  0  0  0
   27.5910  -35.0370    3.7280 C   0  0  0  0  0  0
   28.7530  -35.1650    8.3540 N   0  0  0  0  0  0
   29.1840  -33.9700    9.0930 C   0  0  2  0  0  0
   30.3390  -34.3020   10.0590 C   0  0  0  0  0  0
   31.2930  -33.5140   10.1860 O   0  0  0  0  0  0
   28.0160  -33.3010    9.8340 C   0  0  0  0  0  0
   28.3700  -31.8990   10.3870 C   0  0  0  0  0  0
   27.1410  -31.1900   10.9720 C   0  0  0  0  0  0
   27.4640  -29.7570   11.4170 C   0  0  0  0  0  0
   28.0720  -28.9440   10.2890 N   0  3  0  0  0  0
   30.2860  -35.4700   10.7060 N   0  0  0  0  0  0
   31.4380  -35.9060   11.5310 C   0  0  2  0  0  0
   32.7310  -36.0380   10.7120 C   0  0  0  0  0  0
   33.8060  -35.7510   11.2400 O   0  0  0  0  0  0
   31.1810  -37.2310   12.2450 C   0  0  0  0  0  0
   30.1640  -37.1840   13.4090 C   0  0  0  0  0  0
   30.3730  -38.3940   14.3220 C   0  0  0  0  0  0
   29.1090  -39.2310   14.5420 C   0  0  0  0  0  0
   28.2120  -38.6560   15.5950 N   0  3  0  0  0  0
   32.6330  -36.4840    9.4480 N   0  0  0  0  0  0
   33.8160  -36.6620    8.5970 C   0  0  2  0  0  0
   34.5770  -35.3390    8.3300 C   0  0  0  0  0  0
   35.7710  -35.3440    7.9750 O   0  0  0  0  0  0
   33.4580  -37.3610    7.2760 C   0  0  0  0  0  0
   32.8760  -36.4660    6.3160 O   0  0  0  0  0  0
   33.8890  -34.2150    8.5360 N   0  0  0  0  0  0
   34.4900  -32.8880    8.3810 C   0  0  2  0  0  0
   35.5450  -32.6790    9.4660 C   0  0  0  0  0  0
   36.4640  -31.8690    9.2930 O   0  0  0  0  0  0
   33.4210  -31.7750    8.4600 C   0  0  0  0  0  0
   32.3140  -31.7290    7.3820 C   0  0  0  0  0  0
   31.2730  -30.6370    7.7060 C   0  0  0  0  0  0
   32.9050  -31.4670    5.9890 C   0  0  0  0  0  0
   35.4410  -33.4160   10.5740 N   0  0  0  0  0  0
   36.4220  -33.2810   11.6660 C   0  0  2  0  0  0
   37.7920  -33.9130   11.3700 C   0  0  0  0  0  0
   38.7870  -33.5600   12.0340 O   0  0  0  0  0  0
   35.8710  -33.8680   12.9610 C   0  0  0  0  0  0
   34.5040  -33.3270   13.3120 C   0  0  0  0  0  0
   33.9800  -33.9550   14.5890 C   0  0  0  0  0  0
   34.8980  -33.6610   15.6870 N   0  0  0  0  0  0
   34.6060  -33.8210   16.9750 C   0  0  0  0  0  0
   33.4110  -34.2840   17.3320 N   0  0  0  0  0  0
   35.5100  -33.5190   17.9020 N   0  0  0  0  0  0
   37.8360  -34.9070   10.4690 N   0  0  0  0  0  0
   39.1220  -35.3410    9.9310 C   0  0  2  0  0  0
   39.1880  -35.1650    8.4160 C   0  0  0  0  0  0
   39.0370  -36.1310    7.6730 O   0  0  0  0  0  0
   39.3220  -36.8170   10.2910 C   0  0  0  0  0  0
   39.1330  -37.0860   11.8160 C   0  0  0  0  0  0
   39.1380  -38.5620   12.1750 C   0  0  0  0  0  0
   39.9070  -39.3530   11.6080 O   0  0  0  0  0  0
   38.2970  -38.9400   13.1480 N   0  0  0  0  0  0
   39.6670  -33.9980    8.0010 N   0  0  0  0  0  0
   39.6440  -33.5720    6.6080 C   0  0  2  0  0  0
   41.0330  -33.7010    6.0720 C   0  0  0  0  0  0
   42.0010  -33.5990    6.8390 O   0  0  0  0  0  0
   39.2200  -32.1070    6.4790 C   0  0  0  0  0  0
   37.8620  -31.9380    6.8230 O   0  0  0  0  0  0
   41.1090  -33.9440    4.7660 N   0  0  0  0  0  0
   42.3550  -34.0040    4.0170 C   0  0  2  0  0  0
   42.7340  -32.6360    3.4520 C   0  0  0  0  0  0
   41.9150  -31.7100    3.4540 O   0  0  0  0  0  0
   42.2080  -35.0180    2.8870 C   0  0  0  0  0  0
   41.8180  -36.3720    3.3650 C   0  0  0  0  0  0
   42.6400  -37.0680    4.2480 C   0  0  0  0  0  0
   40.6240  -36.9480    2.9660 C   0  0  0  0  0  0
   42.2790  -38.3280    4.7200 C   0  0  0  0  0  0
   40.2490  -38.2110    3.4330 C   0  0  0  0  0  0
   41.0760  -38.9030    4.3100 C   0  0  0  0  0  0
   43.8880  -32.4506    2.9813 O   0  0  0  0  0  0
   23.3415  -30.9007   19.7102 H   0  0  0  0  0  0
   24.1176  -29.4870   18.9190 H   0  0  0  0  0  0
   24.8505  -30.2057   20.3932 H   0  0  0  0  0  0
   24.4815  -31.4549   17.7276 H   0  0  0  0  0  0
   26.2835  -29.7193   17.7899 H   0  0  0  0  0  0
   26.9810  -31.3592   17.5641 H   0  0  0  0  0  0
   27.0518  -30.5670   19.1747 H   0  0  0  0  0  0
   23.2277  -33.0010   19.1867 H   0  0  0  0  0  0
   25.3655  -35.0841   19.8810 H   0  0  0  0  0  0
   22.4868  -34.7451   20.8105 H   0  0  0  0  0  0
   23.3292  -36.3273   20.9276 H   0  0  0  0  0  0
   23.6504  -34.9803   23.0401 H   0  0  0  0  0  0
   25.1391  -37.2052   18.9581 H   0  0  0  0  0  0
   24.6296  -38.5808   17.1621 H   0  0  0  0  0  0
   21.8334  -37.4315   17.6286 H   0  0  0  0  0  0
   22.1609  -38.7998   16.5118 H   0  0  0  0  0  0
   23.0860  -40.1112   18.3378 H   0  0  0  0  0  0
   22.8762  -38.7310   19.4681 H   0  0  0  0  0  0
   20.6534  -40.3130   18.0789 H   0  0  0  0  0  0
   21.0981  -40.3634   19.8185 H   0  0  0  0  0  0
   19.3846  -38.3427   18.4268 H   0  0  0  0  0  0
   21.6538  -38.9677   21.2606 H   0  0  0  0  0  0
   20.8149  -37.5881   22.2721 H   0  0  0  0  0  0
   18.4416  -36.7761   19.6215 H   0  0  0  0  0  0
   25.9317  -36.4287   16.5075 H   0  0  0  0  0  0
   24.7933  -34.9548   14.2586 H   0  0  0  0  0  0
   27.7130  -35.6664   14.9360 H   0  0  0  0  0  0
   27.4798  -34.9824   12.5499 H   0  0  0  0  0  0
   28.3798  -33.7617   13.5126 H   0  0  0  0  0  0
   26.6632  -33.4698   13.0712 H   0  0  0  0  0  0
   26.5079  -34.4064   16.7105 H   0  0  0  0  0  0
   26.0924  -33.1327   15.5140 H   0  0  0  0  0  0
   27.8089  -33.4247   15.9554 H   0  0  0  0  0  0
   24.6821  -35.3395   12.0321 H   0  0  0  0  0  0
   24.7958  -38.1042   11.2192 H   0  0  0  0  0  0
   24.9312  -35.4931    9.6270 H   0  0  0  0  0  0
   24.9188  -37.0925    8.8094 H   0  0  0  0  0  0
   22.7743  -37.6365   10.0161 H   0  0  0  0  0  0
   22.7725  -35.9705   10.6877 H   0  0  0  0  0  0
   22.7623  -35.0813    8.3482 H   0  0  0  0  0  0
   22.6209  -36.7681    7.7472 H   0  0  0  0  0  0
   20.5364  -37.0239    9.1879 H   0  0  0  0  0  0
   20.6448  -35.2697    9.5590 H   0  0  0  0  0  0
   19.0625  -35.7041    7.7270 H   0  0  0  0  0  0
   20.3649  -36.5048    6.7838 H   0  0  0  0  0  0
   20.4733  -34.7506    7.1548 H   0  0  0  0  0  0
   26.1217  -39.3428    9.9002 H   0  0  0  0  0  0
   28.8638  -39.1423   10.8290 H   0  0  0  0  0  0
   29.2441  -41.0699    9.2082 H   0  0  0  0  0  0
   27.7401  -41.2761   10.1685 H   0  0  0  0  0  0
   28.7381  -43.3060    7.1276 H   0  0  0  0  0  0
   25.0861  -41.9977    9.5721 H   0  0  0  0  0  0
   27.3136  -38.0974    7.6979 H   0  0  0  0  0  0
   29.8586  -37.6140    6.4059 H   0  0  0  0  0  0
   27.7764  -37.5041    5.1302 H   0  0  0  0  0  0
   27.2020  -36.1089    6.1049 H   0  0  0  0  0  0
   29.1726  -34.8073    5.1862 H   0  0  0  0  0  0
   30.5241  -36.7504    4.4469 H   0  0  0  0  0  0
   30.2022  -35.6059    3.1003 H   0  0  0  0  0  0
   29.2772  -37.1415    3.2145 H   0  0  0  0  0  0
   26.8326  -34.5342    4.3461 H   0  0  0  0  0  0
   27.1172  -35.8451    3.1514 H   0  0  0  0  0  0
   28.0422  -34.3095    3.0372 H   0  0  0  0  0  0
   27.7441  -35.5744    8.5107 H   0  0  0  0  0  0
   29.5411  -33.2799    8.3144 H   0  0  0  0  0  0
   27.1654  -33.1827    9.1467 H   0  0  0  0  0  0
   27.7146  -33.9284   10.6858 H   0  0  0  0  0  0
   29.1228  -31.9981   11.1829 H   0  0  0  0  0  0
   28.7743  -31.2761    9.5755 H   0  0  0  0  0  0
   26.3478  -31.1436   10.2113 H   0  0  0  0  0  0
   26.7775  -31.7485   11.8472 H   0  0  0  0  0  0
   26.5403  -29.2580   11.7452 H   0  0  0  0  0  0
   28.1816  -29.7847   12.2502 H   0  0  0  0  0  0
   28.2888  -27.9264   10.6460 H   0  0  0  0  0  0
   27.3633  -28.8948    9.4492 H   0  0  0  0  0  0
   29.0047  -29.4216    9.9542 H   0  0  0  0  0  0
   29.3926  -36.1071   10.6284 H   0  0  0  0  0  0
   31.5301  -35.0956   12.2691 H   0  0  0  0  0  0
   30.7898  -37.9654   11.5255 H   0  0  0  0  0  0
   32.1221  -37.6044   12.6750 H   0  0  0  0  0  0
   30.3111  -36.2599   13.9873 H   0  0  0  0  0  0
   29.1416  -37.2041   13.0037 H   0  0  0  0  0  0
   31.1311  -39.0586   13.8821 H   0  0  0  0  0  0
   30.7138  -38.0528   15.3107 H   0  0  0  0  0  0
   28.5368  -39.2845   13.6040 H   0  0  0  0  0  0
   29.3917  -40.2462   14.8574 H   0  0  0  0  0  0
   27.3244  -39.2956   15.7097 H   0  0  0  0  0  0
   27.8990  -37.6443   15.2975 H   0  0  0  0  0  0
   28.7539  -38.6059   16.5509 H   0  0  0  0  0  0
   31.6325  -36.7176    9.0549 H   0  0  0  0  0  0
   34.4564  -37.3205    9.2021 H   0  0  0  0  0  0
   34.3676  -37.7891    6.8295 H   0  0  0  0  0  0
   32.7323  -38.1643    7.4711 H   0  0  0  0  0  0
   32.5739  -36.8410    5.3270 H   0  0  0  0  0  0
   32.8339  -34.3097    8.8323 H   0  0  0  0  0  0
   34.9548  -32.8842    7.3841 H   0  0  0  0  0  0
   32.8779  -31.8553    9.4132 H   0  0  0  0  0  0
   33.9102  -30.7917    8.3985 H   0  0  0  0  0  0
   31.8203  -32.7119    7.3752 H   0  0  0  0  0  0
   30.8470  -30.8209    8.7033 H   0  0  0  0  0  0
   30.4703  -30.6611    6.9543 H   0  0  0  0  0  0
   31.7597  -29.6506    7.6913 H   0  0  0  0  0  0
   33.6479  -32.2435    5.7539 H   0  0  0  0  0  0
   33.3899  -30.4797    5.9762 H   0  0  0  0  0  0
   32.1005  -31.4902    5.2391 H   0  0  0  0  0  0
   34.6102  -34.1310   10.6663 H   0  0  0  0  0  0
   36.5524  -32.1913   11.7408 H   0  0  0  0  0  0
   35.7855  -34.9601   12.8613 H   0  0  0  0  0  0
   36.5515  -33.6278   13.7912 H   0  0  0  0  0  0
   34.5663  -32.2381   13.4552 H   0  0  0  0  0  0
   33.8008  -33.5499   12.4960 H   0  0  0  0  0  0
   32.9870  -33.5420   14.8200 H   0  0  0  0  0  0
   33.9024  -35.0443   14.4569 H   0  0  0  0  0  0
   35.9074  -33.2800   15.4729 H   0  0  0  0  0  0
   32.6653  -34.5329   16.5626 H   0  0  0  0  0  0
   33.1686  -34.4179   18.3966 H   0  0  0  0  0  0
   36.4972  -33.1364   17.6035 H   0  0  0  0  0  0
   36.9078  -35.3942   10.1358 H   0  0  0  0  0  0
   39.8835  -34.6945   10.3916 H   0  0  0  0  0  0
   38.5907  -37.4302    9.7440 H   0  0  0  0  0  0
   40.3405  -37.1272   10.0143 H   0  0  0  0  0  0
   39.9496  -36.6076   12.3767 H   0  0  0  0  0  0
   38.1694  -36.6699   12.1451 H   0  0  0  0  0  0
   37.6341  -38.2000   13.6202 H   0  0  0  0  0  0
   38.2698  -39.9902   13.4742 H   0  0  0  0  0  0
   40.0970  -33.3399    8.7704 H   0  0  0  0  0  0
   38.9327  -34.2272    6.0839 H   0  0  0  0  0  0
   39.8324  -31.4876    7.1508 H   0  0  0  0  0  0
   39.3635  -31.7738    5.4406 H   0  0  0  0  0  0
   37.4043  -30.9386    6.7812 H   0  0  0  0  0  0
   40.1499  -34.1049    4.2519 H   0  0  0  0  0  0
   43.1257  -34.3187    4.7360 H   0  0  0  0  0  0
   41.4324  -34.6759    2.1860 H   0  0  0  0  0  0
   43.1658  -35.1156    2.3550 H   0  0  0  0  0  0
   43.5789  -36.6206    4.5743 H   0  0  0  0  0  0
   39.9691  -36.4107    2.2801 H   0  0  0  0  0  0
   42.9344  -38.8628    5.4074 H   0  0  0  0  0  0
   39.3071  -38.6537    3.1091 H   0  0  0  0  0  0
   40.7865  -39.8884    4.6750 H   0  0  0  0  0  0
   44.1642  -31.4670    2.5737 H   0  0  0  0  0  0
  1  2  1  0  0  0
  1127  1  0  0  0
  1128  1  0  0  0
  1129  1  0  0  0
  2  3  1  0  0  0
  2  5  1  0  0  0
  2130  1  0  0  0
  3  4  2  0  0  0
  3  6  1  0  0  0
  5131  1  0  0  0
  5132  1  0  0  0
  5133  1  0  0  0
  6  7  1  0  0  0
  6134  1  0  0  0
  7  8  1  0  0  0
  7 10  1  0  0  0
  7135  1  0  0  0
  8  9  2  0  0  0
  8 12  1  0  0  0
 10 11  1  0  0  0
 10136  1  0  0  0
 10137  1  0  0  0
 11138  1  0  0  0
 12 13  1  0  0  0
 12139  1  0  0  0
 13 14  1  0  0  0
 13 16  1  0  0  0
 13140  1  0  0  0
 14 15  2  0  0  0
 14 23  1  0  0  0
 16 17  1  0  0  0
 16141  1  0  0  0
 16142  1  0  0  0
 17 18  1  0  0  0
 17143  1  0  0  0
 17144  1  0  0  0
 18 19  1  0  0  0
 18145  1  0  0  0
 18146  1  0  0  0
 19 20  1  0  0  0
 19147  1  0  0  0
 20 21  1  0  0  0
 20 22  2  0  0  0
 21148  1  0  0  0
 21149  1  0  0  0
 22150  1  0  0  0
 23 24  1  0  0  0
 23151  1  0  0  0
 24 25  1  0  0  0
 24 27  1  0  0  0
 24152  1  0  0  0
 25 26  2  0  0  0
 25 30  1  0  0  0
 27 28  1  0  0  0
 27 29  1  0  0  0
 27153  1  0  0  0
 28154  1  0  0  0
 28155  1  0  0  0
 28156  1  0  0  0
 29157  1  0  0  0
 29158  1  0  0  0
 29159  1  0  0  0
 30 31  1  0  0  0
 30160  1  0  0  0
 31 32  1  0  0  0
 31 34  1  0  0  0
 31161  1  0  0  0
 32 33  2  0  0  0
 32 39  1  0  0  0
 34 35  1  0  0  0
 34162  1  0  0  0
 34163  1  0  0  0
 35 36  1  0  0  0
 35164  1  0  0  0
 35165  1  0  0  0
 36 37  1  0  0  0
 36166  1  0  0  0
 36167  1  0  0  0
 37 38  1  0  0  0
 37168  1  0  0  0
 37169  1  0  0  0
 38170  1  0  0  0
 38171  1  0  0  0
 38172  1  0  0  0
 39 40  1  0  0  0
 39173  1  0  0  0
 40 41  1  0  0  0
 40 43  1  0  0  0
 40174  1  0  0  0
 41 42  1  0  0  0
 41175  1  0  0  0
 41176  1  0  0  0
 42 45  1  0  0  0
 43 44  2  0  0  0
 43 49  1  0  0  0
 45 46  2  0  0  0
 45 47  1  0  0  0
 45 48  1  0  0  0
 47177  1  0  0  0
 48178  1  0  0  0
 49 50  1  0  0  0
 49179  1  0  0  0
 50 51  1  0  0  0
 50 53  1  0  0  0
 50180  1  0  0  0
 51 52  2  0  0  0
 51 57  1  0  0  0
 53 54  1  0  0  0
 53181  1  0  0  0
 53182  1  0  0  0
 54 55  1  0  0  0
 54 56  1  0  0  0
 54183  1  0  0  0
 55184  1  0  0  0
 55185  1  0  0  0
 55186  1  0  0  0
 56187  1  0  0  0
 56188  1  0  0  0
 56189  1  0  0  0
 57 58  1  0  0  0
 57190  1  0  0  0
 58 59  1  0  0  0
 58 61  1  0  0  0
 58191  1  0  0  0
 59 60  2  0  0  0
 59 66  1  0  0  0
 61 62  1  0  0  0
 61192  1  0  0  0
 61193  1  0  0  0
 62 63  1  0  0  0
 62194  1  0  0  0
 62195  1  0  0  0
 63 64  1  0  0  0
 63196  1  0  0  0
 63197  1  0  0  0
 64 65  1  0  0  0
 64198  1  0  0  0
 64199  1  0  0  0
 65200  1  0  0  0
 65201  1  0  0  0
 65202  1  0  0  0
 66 67  1  0  0  0
 66203  1  0  0  0
 67 68  1  0  0  0
 67 70  1  0  0  0
 67204  1  0  0  0
 68 69  2  0  0  0
 68 75  1  0  0  0
 70 71  1  0  0  0
 70205  1  0  0  0
 70206  1  0  0  0
 71 72  1  0  0  0
 71207  1  0  0  0
 71208  1  0  0  0
 72 73  1  0  0  0
 72209  1  0  0  0
 72210  1  0  0  0
 73 74  1  0  0  0
 73211  1  0  0  0
 73212  1  0  0  0
 74213  1  0  0  0
 74214  1  0  0  0
 74215  1  0  0  0
 75 76  1  0  0  0
 75216  1  0  0  0
 76 77  1  0  0  0
 76 79  1  0  0  0
 76217  1  0  0  0
 77 78  2  0  0  0
 77 81  1  0  0  0
 79 80  1  0  0  0
 79218  1  0  0  0
 79219  1  0  0  0
 80220  1  0  0  0
 81 82  1  0  0  0
 81221  1  0  0  0
 82 83  1  0  0  0
 82 85  1  0  0  0
 82222  1  0  0  0
 83 84  2  0  0  0
 83 89  1  0  0  0
 85 86  1  0  0  0
 85223  1  0  0  0
 85224  1  0  0  0
 86 87  1  0  0  0
 86 88  1  0  0  0
 86225  1  0  0  0
 87226  1  0  0  0
 87227  1  0  0  0
 87228  1  0  0  0
 88229  1  0  0  0
 88230  1  0  0  0
 88231  1  0  0  0
 89 90  1  0  0  0
 89232  1  0  0  0
 90 91  1  0  0  0
 90 93  1  0  0  0
 90233  1  0  0  0
 91 92  2  0  0  0
 91100  1  0  0  0
 93 94  1  0  0  0
 93234  1  0  0  0
 93235  1  0  0  0
 94 95  1  0  0  0
 94236  1  0  0  0
 94237  1  0  0  0
 95 96  1  0  0  0
 95238  1  0  0  0
 95239  1  0  0  0
 96 97  1  0  0  0
 96240  1  0  0  0
 97 98  1  0  0  0
 97 99  2  0  0  0
 98241  1  0  0  0
 98242  1  0  0  0
 99243  1  0  0  0
100101  1  0  0  0
100244  1  0  0  0
101102  1  0  0  0
101104  1  0  0  0
101245  1  0  0  0
102103  2  0  0  0
102109  1  0  0  0
104105  1  0  0  0
104246  1  0  0  0
104247  1  0  0  0
105106  1  0  0  0
105248  1  0  0  0
105249  1  0  0  0
106107  2  0  0  0
106108  1  0  0  0
108250  1  0  0  0
108251  1  0  0  0
109110  1  0  0  0
109252  1  0  0  0
110111  1  0  0  0
110113  1  0  0  0
110253  1  0  0  0
111112  2  0  0  0
111115  1  0  0  0
113114  1  0  0  0
113254  1  0  0  0
113255  1  0  0  0
114256  1  0  0  0
115116  1  0  0  0
115257  1  0  0  0
116117  1  0  0  0
116119  1  0  0  0
116258  1  0  0  0
117118  2  0  0  0
117126  1  0  0  0
119120  1  0  0  0
119259  1  0  0  0
119260  1  0  0  0
120121  2  0  0  0
120122  1  0  0  0
121123  1  0  0  0
121261  1  0  0  0
122124  2  0  0  0
122262  1  0  0  0
123125  2  0  0  0
123263  1  0  0  0
124125  1  0  0  0
124264  1  0  0  0
125265  1  0  0  0
126266  1  0  0  0
M  CHG  4   1   1  38   1  65   1  74   1
M  END
> <s_m_source_file>
../3wp0_ligand.sdf

> <i_m_source_file_index>
1

> <s_epik_input>
W05IMytdW0NAQEhdKFtDSDNdKUMoPU8pW05IXVtDQEBIXShbQ0gyXVtPSF0pQyg9TylbTkhdW0NAQEhdKFtDSDJdW0NIMl1bQ0gyXVtOSF0vQyhbTkgyXSk9TlxbSF0pQyg9TylbTkhdW0NAQEhdKFtDSF0oW0NIM10pW0NIM10pQyg9TylbTkhdW0NAQEhdKFtDSDJdW0NIMl1bQ0gyXVtDSDJdW05IMytdKUMoPU8pW05IXVtDQEBIXShbQ0gyXU9QKD1PKShbT0hdKVtPSF0pQyg9TylbTkhdW0NAQEhdKFtDSDJdW0NIXShbQ0gzXSlbQ0gzXSlDKD1PKVtOSF1bQ0BASF0oW0NIMl1bQ0gyXVtDSDJdW0NIMl1bTkgzK10pQyg9TylbTkhdW0NAQEhdKFtDSDJdW0NIMl1bQ0gyXVtDSDJdW05IMytdKUMoPU8pW05IXVtDQEBIXShbQ0gyXVtPSF0pQyg9TylbTkhdW0NAQEhdKFtDSDJdW0NIXShbQ0gzXSlbQ0gzXSlDKD1PKVtOSF1bQ0BASF0oW0NIMl1bQ0gyXVtDSDJdW05IXS9DKFtOSDJdKT1OXFtIXSlDKD1PKVtOSF1bQ0BASF0oW0NIMl1bQ0gyXUMoPU8pW05IMl0pQyg9TylbTkhdW0NAQEhdKFtDSDJdW09IXSlDKD1PKVtOSF1bQ0BIXShDKD1PKVtPSF0pW0NIMl1jMVtjSF1bY0hdW2NIXVtjSF1bY0hdMQ==

> <s_epik_cmdline>
J2VwaWtfYXBwJywgJy1pbWFlJywgJ2xpZ2FuZF9wcm8ubWFlJywgJy1vbWFlJywgJ2xpZ2FuZF9wcmVwLm1hZScsICctbXMnLCAnMScsICctcGgnLCAnNycsICctcGh0JywgJzAuNScsICctbnQn

> <s_epik_pKa_notes>
Molecule size exceeds maximum supported for generating protonation states

> <s_epik_Chemistry_Notes>
This compound has an imine and may undergo hydrolysis.

$$$$
