3wp1_ligand
                    3D
 Schrodinger Suite 2020-3.
227227  0  0  1  0            999 V2000
  141.8710  140.6160   -5.2290 N   0  3  0  0  0  0
  142.8400  140.8310   -6.3010 C   0  0  2  0  0  0
  143.6890  142.0570   -5.9810 C   0  0  0  0  0  0
  144.8880  142.0850   -6.2520 O   0  0  0  0  0  0
  142.1330  141.0230   -7.6480 C   0  0  0  0  0  0
  142.6470  140.1370   -8.7650 C   0  0  0  0  0  0
  144.1580  139.9950   -8.7060 C   0  0  0  0  0  0
  144.7220  139.6580  -10.0780 C   0  0  0  0  0  0
  143.9690  138.5630  -10.7710 N   0  3  0  0  0  0
  143.0540  143.0770   -5.4140 N   0  0  0  0  0  0
  143.7720  144.2460   -4.9380 C   0  0  2  0  0  0
  144.5490  143.7910   -3.7070 C   0  0  0  0  0  0
  144.0640  142.9530   -2.9380 O   0  0  0  0  0  0
  142.7910  145.3670   -4.5760 C   0  0  0  0  0  0
  143.4360  146.6830   -4.1180 C   0  0  0  0  0  0
  142.4860  147.4810   -3.2060 C   0  0  0  0  0  0
  142.5910  148.9950   -3.4430 C   0  0  0  0  0  0
  141.7100  149.8300   -2.5510 N   0  3  0  0  0  0
  145.7520  144.3230   -3.5240 N   0  0  0  0  0  0
  146.5910  143.9320   -2.4020 C   0  0  2  0  0  0
  145.9190  144.2330   -1.0600 C   0  0  0  0  0  0
  145.1070  145.1410   -0.9570 O   0  0  0  0  0  0
  147.9490  144.6370   -2.4930 C   0  0  0  0  0  0
  148.4780  144.8810   -1.1980 O   0  0  0  0  0  0
  146.2300  143.4450   -0.0420 N   0  0  0  0  0  0
  145.7430  143.7220    1.3030 C   0  0  2  0  0  0
  146.6090  144.7550    2.0420 C   0  0  0  0  0  0
  146.2930  145.1340    3.1760 O   0  0  0  0  0  0
  145.7280  142.4460    2.1320 C   0  0  0  0  0  0
  145.0160  141.2330    1.5550 C   0  0  0  0  0  0
  145.2890  140.0170    2.4570 C   0  0  0  0  0  0
  143.5250  141.5150    1.4250 C   0  0  0  0  0  0
  147.7200  145.1580    1.4370 N   0  0  0  0  0  0
  148.6210  146.1340    2.0550 C   0  0  2  0  0  0
  148.8750  145.8900    3.5420 C   0  0  0  0  0  0
  148.7180  146.8070    4.3410 O   0  0  0  0  0  0
  148.0840  147.5550    1.8620 C   0  0  0  0  0  0
  147.8130  147.9170    0.4080 C   0  0  0  0  0  0
  147.0440  149.2100    0.2910 C   0  0  0  0  0  0
  146.7210  149.5250   -1.0970 N   0  0  0  0  0  0
  145.6000  150.1370   -1.4640 C   0  0  0  0  0  0
  144.7120  150.4850   -0.5440 N   0  0  0  0  0  0
  145.3580  150.3970   -2.7380 N   0  0  0  0  0  0
  149.2390  144.6700    3.9220 N   0  0  0  0  0  0
  149.3950  144.3610    5.3400 C   0  0  2  0  0  0
  150.5340  145.1270    5.9900 C   0  0  0  0  0  0
  150.4580  145.4580    7.1670 O   0  0  0  0  0  0
  149.5900  142.8670    5.5680 C   0  0  0  0  0  0
  148.4220  142.0100    5.1410 C   0  0  0  0  0  0
  148.7220  141.2360    3.8800 C   0  0  0  0  0  0
  149.1340  141.8140    2.8370 O   0  0  0  0  0  0
  148.5400  139.9100    3.9610 N   0  0  0  0  0  0
  151.5900  145.3920    5.2250 N   0  0  0  0  0  0
  152.7380  146.1440    5.7240 C   0  0  1  0  0  0
  153.7180  146.4110    4.5930 C   0  0  0  0  0  0
  154.3990  145.2440    4.2170 O   0  0  0  0  0  0
  152.2490  147.4910    6.2160 C   0  0  0  0  0  0
  152.6240  147.9900    7.2830 O   0  0  0  0  0  0
  153.9720  144.8510    2.7110 P   0  0  0  0  0  0
  154.9150  145.6950    1.7240 O   0  0  0  0  0  0
  152.4430  145.2890    2.4480 O   0  0  0  0  0  0
  154.1760  143.2630    2.5230 O   0  0  0  0  0  0
  151.3860  148.0770    5.4100 N   0  0  0  0  0  0
  150.9470  149.4180    5.6740 C   0  0  2  0  0  0
  150.1010  149.4840    6.9460 C   0  0  0  0  0  0
  150.3400  150.3280    7.8030 O   0  0  0  0  0  0
  150.1870  149.9580    4.4760 C   0  0  0  0  0  0
  149.7760  151.3720    4.6380 C   0  0  0  0  0  0
  150.7260  152.3720    4.6420 C   0  0  0  0  0  0
  148.4430  151.7070    4.8040 C   0  0  0  0  0  0
  150.3580  153.6920    4.7960 C   0  0  0  0  0  0
  148.0700  153.0150    4.9620 C   0  0  0  0  0  0
  149.0300  154.0130    4.9570 C   0  0  0  0  0  0
  149.1250  148.5930    7.0810 N   0  0  0  0  0  0
  148.3140  148.6010    8.2910 C   0  0  2  0  0  0
  149.2030  148.2920    9.4750 C   0  0  0  0  0  0
  149.0040  148.8050   10.5750 O   0  0  0  0  0  0
  147.1790  147.5730    8.2400 C   0  0  0  0  0  0
  147.0320  146.8310    6.9370 C   0  0  0  0  0  0
  146.0080  145.7000    7.0590 C   0  0  0  0  0  0
  144.6770  146.1340    6.6490 N   0  0  0  0  0  0
  143.7880  146.6900    7.4670 C   0  0  0  0  0  0
  144.0860  146.8790    8.7470 N   0  0  0  0  0  0
  142.6010  147.0570    7.0060 N   0  0  0  0  0  0
  150.1980  147.4550    9.2390 N   0  0  0  0  0  0
  151.0470  147.0140   10.3240 C   0  0  2  0  0  0
  151.9560  148.1140   10.7980 C   0  0  0  0  0  0
  152.4110  148.0860   11.9400 O   0  0  0  0  0  0
  151.8860  145.8200    9.9100 C   0  0  0  0  0  0
  151.9280  144.8470   11.0220 C   0  0  0  0  0  0
  152.4370  143.5240   10.5920 C   0  0  0  0  0  0
  152.5470  142.6440   11.7500 N   0  0  0  0  0  0
  151.5070  142.0640   12.3410 C   0  0  0  0  0  0
  150.2730  142.2700   11.8770 N   0  0  0  0  0  0
  151.7040  141.2760   13.3930 N   0  0  0  0  0  0
  152.2270  149.0750    9.9180 N   0  0  0  0  0  0
  153.1770  150.1340   10.2180 C   0  0  2  0  0  0
  152.8110  150.9210   11.4950 C   0  0  0  0  0  0
  151.6390  151.2600   11.7190 O   0  0  0  0  0  0
  153.3110  151.0710    9.0140 C   0  0  0  0  0  0
  154.4620  152.0610    9.1430 C   0  0  0  0  0  0
  154.3950  153.2710    7.8390 S   0  0  0  0  0  0
  152.8600  154.1310    8.2160 C   0  0  0  0  0  0
  153.8200  151.1900   12.3290 N   0  0  0  0  0  0
  153.6340  151.8990   13.5970 C   0  0  2  0  0  0
  153.3480  153.3710   13.3390 C   0  0  0  0  0  0
  154.0490  154.0110   12.5560 O   0  0  0  0  0  0
  154.8710  151.7590   14.4990 C   0  0  0  0  0  0
  152.3895  153.9369   13.9295 O   0  0  0  0  0  0
  142.4029  140.4814   -4.2756 H   0  0  0  0  0  0
  141.2763  139.7168   -5.4473 H   0  0  0  0  0  0
  141.2043  141.4880   -5.1570 H   0  0  0  0  0  0
  143.4629  139.9250   -6.3349 H   0  0  0  0  0  0
  141.0614  140.8020   -7.5344 H   0  0  0  0  0  0
  142.2593  142.0630   -7.9835 H   0  0  0  0  0  0
  142.1979  139.1368   -8.6758 H   0  0  0  0  0  0
  142.3745  140.5760   -9.7361 H   0  0  0  0  0  0
  144.6020  140.9409   -8.3623 H   0  0  0  0  0  0
  144.4235  139.1895   -8.0055 H   0  0  0  0  0  0
  144.6798  140.5496  -10.7209 H   0  0  0  0  0  0
  145.7668  139.3297   -9.9745 H   0  0  0  0  0  0
  144.4253  138.3688  -11.7529 H   0  0  0  0  0  0
  142.9211  138.8682  -10.9076 H   0  0  0  0  0  0
  144.0080  137.6484  -10.1611 H   0  0  0  0  0  0
  141.9604  143.0226   -5.3087 H   0  0  0  0  0  0
  144.4335  144.6069   -5.7394 H   0  0  0  0  0  0
  142.1736  145.6113   -5.4530 H   0  0  0  0  0  0
  142.1423  145.0347   -3.7521 H   0  0  0  0  0  0
  144.3578  146.4644   -3.5589 H   0  0  0  0  0  0
  143.6776  147.2984   -4.9972 H   0  0  0  0  0  0
  141.4475  147.1755   -3.4015 H   0  0  0  0  0  0
  142.7349  147.2817   -2.1532 H   0  0  0  0  0  0
  143.6262  149.3227   -3.2671 H   0  0  0  0  0  0
  142.3050  149.2245   -4.4801 H   0  0  0  0  0  0
  141.8502  150.8946   -2.7899 H   0  0  0  0  0  0
  141.9789  149.6517   -1.4994 H   0  0  0  0  0  0
  140.6576  149.5535   -2.7124 H   0  0  0  0  0  0
  146.1103  145.0743   -4.2431 H   0  0  0  0  0  0
  146.7103  142.8431   -2.5025 H   0  0  0  0  0  0
  148.6544  144.0034   -3.0507 H   0  0  0  0  0  0
  147.8289  145.5983   -3.0140 H   0  0  0  0  0  0
  149.4509  145.3820   -1.0868 H   0  0  0  0  0  0
  146.8681  142.5682   -0.2262 H   0  0  0  0  0  0
  144.7299  144.1157    1.1341 H   0  0  0  0  0  0
  146.7610  142.1139    2.3126 H   0  0  0  0  0  0
  145.2316  142.6397    3.0943 H   0  0  0  0  0  0
  145.3953  141.0239    0.5439 H   0  0  0  0  0  0
  146.3737  139.8471    2.5250 H   0  0  0  0  0  0
  144.8045  139.1270    2.0291 H   0  0  0  0  0  0
  144.8840  140.2076    3.4618 H   0  0  0  0  0  0
  143.3725  142.3888    0.7744 H   0  0  0  0  0  0
  143.1026  141.7202    2.4197 H   0  0  0  0  0  0
  143.0231  140.6396    0.9870 H   0  0  0  0  0  0
  147.9571  144.7401    0.4475 H   0  0  0  0  0  0
  149.5661  145.9736    1.5154 H   0  0  0  0  0  0
  147.1358  147.6660    2.4084 H   0  0  0  0  0  0
  148.8164  148.2793    2.2478 H   0  0  0  0  0  0
  148.7681  148.0319   -0.1254 H   0  0  0  0  0  0
  147.2228  147.1182   -0.0649 H   0  0  0  0  0  0
  146.1029  149.1292    0.8547 H   0  0  0  0  0  0
  147.6471  150.0337    0.7006 H   0  0  0  0  0  0
  147.4222  149.2539   -1.9000 H   0  0  0  0  0  0
  144.9072  150.2716    0.5173 H   0  0  0  0  0  0
  143.7797  150.9872   -0.8416 H   0  0  0  0  0  0
  146.0910  150.1107   -3.5066 H   0  0  0  0  0  0
  149.4229  143.8923    3.1661 H   0  0  0  0  0  0
  148.4436  144.6994    5.7761 H   0  0  0  0  0  0
  150.4654  142.5205    4.9992 H   0  0  0  0  0  0
  149.7505  142.6775    6.6396 H   0  0  0  0  0  0
  148.1845  141.2903    5.9383 H   0  0  0  0  0  0
  147.5474  142.6499    4.9522 H   0  0  0  0  0  0
  148.1782  139.4607    4.8976 H   0  0  0  0  0  0
  148.7525  139.2715    3.0908 H   0  0  0  0  0  0
  151.5811  145.0259    4.1878 H   0  0  0  0  0  0
  153.1979  145.5406    6.5205 H   0  0  0  0  0  0
  153.1724  146.7931    3.7176 H   0  0  0  0  0  0
  154.4584  147.1569    4.9178 H   0  0  0  0  0  0
  152.1500  146.3453    2.5394 H   0  0  0  0  0  0
  155.1698  142.8149    2.6701 H   0  0  0  0  0  0
  151.0022  147.5352    4.5330 H   0  0  0  0  0  0
  151.8691  149.9987    5.8241 H   0  0  0  0  0  0
  150.8226  149.8962    3.5803 H   0  0  0  0  0  0
  149.2757  149.3618    4.3207 H   0  0  0  0  0  0
  151.7787  152.1161    4.5222 H   0  0  0  0  0  0
  147.6849  150.9238    4.8090 H   0  0  0  0  0  0
  151.1148  154.4764    4.7902 H   0  0  0  0  0  0
  147.0183  153.2704    5.0916 H   0  0  0  0  0  0
  148.7330  155.0544    5.0808 H   0  0  0  0  0  0
  148.9264  147.8542    6.2906 H   0  0  0  0  0  0
  147.8886  149.6137    8.3490 H   0  0  0  0  0  0
  147.3411  146.8091    9.0147 H   0  0  0  0  0  0
  146.2184  148.0782    8.4186 H   0  0  0  0  0  0
  146.6955  147.5271    6.1546 H   0  0  0  0  0  0
  148.0017  146.3980    6.6502 H   0  0  0  0  0  0
  146.3119  144.8595    6.4178 H   0  0  0  0  0  0
  145.9565  145.3633    8.1049 H   0  0  0  0  0  0
  144.3550  146.0086    5.6047 H   0  0  0  0  0  0
  145.0703  146.5756    9.1332 H   0  0  0  0  0  0
  143.3486  147.3390    9.4213 H   0  0  0  0  0  0
  142.3506  146.9020    5.9461 H   0  0  0  0  0  0
  150.3803  147.0936    8.2162 H   0  0  0  0  0  0
  150.3441  146.7427   11.1254 H   0  0  0  0  0  0
  151.4390  145.3478    9.0227 H   0  0  0  0  0  0
  152.9069  146.1538    9.6726 H   0  0  0  0  0  0
  152.5895  145.2252   11.8153 H   0  0  0  0  0  0
  150.9143  144.7073   11.4255 H   0  0  0  0  0  0
  151.7421  143.0834    9.8620 H   0  0  0  0  0  0
  153.4273  143.6450   10.1287 H   0  0  0  0  0  0
  153.5342  142.4270   12.1841 H   0  0  0  0  0  0
  150.1148  142.9230   11.0060 H   0  0  0  0  0  0
  149.4140  141.7868   12.3654 H   0  0  0  0  0  0
  152.7231  141.1091   13.7720 H   0  0  0  0  0  0
  151.7137  149.0559    8.9453 H   0  0  0  0  0  0
  154.1225  149.6020   10.3996 H   0  0  0  0  0  0
  153.4865  150.4771    8.1049 H   0  0  0  0  0  0
  152.3853  151.6539    8.8982 H   0  0  0  0  0  0
  154.3950  152.5769   10.1122 H   0  0  0  0  0  0
  155.4185  151.5214    9.0802 H   0  0  0  0  0  0
  152.6912  154.9232    7.4717 H   0  0  0  0  0  0
  152.9270  154.5782    9.2188 H   0  0  0  0  0  0
  152.0234  153.4173    8.1880 H   0  0  0  0  0  0
  154.8236  150.8546   12.0285 H   0  0  0  0  0  0
  152.7648  151.4227   14.0740 H   0  0  0  0  0  0
  155.0727  150.6932   14.6819 H   0  0  0  0  0  0
  154.6856  152.2668   15.4570 H   0  0  0  0  0  0
  155.7398  152.2168   14.0035 H   0  0  0  0  0  0
  152.1808  155.0010   13.7446 H   0  0  0  0  0  0
  1  2  1  0  0  0
  1110  1  0  0  0
  1111  1  0  0  0
  1112  1  0  0  0
  2  3  1  0  0  0
  2  5  1  0  0  0
  2113  1  0  0  0
  3  4  2  0  0  0
  3 10  1  0  0  0
  5  6  1  0  0  0
  5114  1  0  0  0
  5115  1  0  0  0
  6  7  1  0  0  0
  6116  1  0  0  0
  6117  1  0  0  0
  7  8  1  0  0  0
  7118  1  0  0  0
  7119  1  0  0  0
  8  9  1  0  0  0
  8120  1  0  0  0
  8121  1  0  0  0
  9122  1  0  0  0
  9123  1  0  0  0
  9124  1  0  0  0
 10 11  1  0  0  0
 10125  1  0  0  0
 11 12  1  0  0  0
 11 14  1  0  0  0
 11126  1  0  0  0
 12 13  2  0  0  0
 12 19  1  0  0  0
 14 15  1  0  0  0
 14127  1  0  0  0
 14128  1  0  0  0
 15 16  1  0  0  0
 15129  1  0  0  0
 15130  1  0  0  0
 16 17  1  0  0  0
 16131  1  0  0  0
 16132  1  0  0  0
 17 18  1  0  0  0
 17133  1  0  0  0
 17134  1  0  0  0
 18135  1  0  0  0
 18136  1  0  0  0
 18137  1  0  0  0
 19 20  1  0  0  0
 19138  1  0  0  0
 20 21  1  0  0  0
 20 23  1  0  0  0
 20139  1  0  0  0
 21 22  2  0  0  0
 21 25  1  0  0  0
 23 24  1  0  0  0
 23140  1  0  0  0
 23141  1  0  0  0
 24142  1  0  0  0
 25 26  1  0  0  0
 25143  1  0  0  0
 26 27  1  0  0  0
 26 29  1  0  0  0
 26144  1  0  0  0
 27 28  2  0  0  0
 27 33  1  0  0  0
 29 30  1  0  0  0
 29145  1  0  0  0
 29146  1  0  0  0
 30 31  1  0  0  0
 30 32  1  0  0  0
 30147  1  0  0  0
 31148  1  0  0  0
 31149  1  0  0  0
 31150  1  0  0  0
 32151  1  0  0  0
 32152  1  0  0  0
 32153  1  0  0  0
 33 34  1  0  0  0
 33154  1  0  0  0
 34 35  1  0  0  0
 34 37  1  0  0  0
 34155  1  0  0  0
 35 36  2  0  0  0
 35 44  1  0  0  0
 37 38  1  0  0  0
 37156  1  0  0  0
 37157  1  0  0  0
 38 39  1  0  0  0
 38158  1  0  0  0
 38159  1  0  0  0
 39 40  1  0  0  0
 39160  1  0  0  0
 39161  1  0  0  0
 40 41  1  0  0  0
 40162  1  0  0  0
 41 42  1  0  0  0
 41 43  2  0  0  0
 42163  1  0  0  0
 42164  1  0  0  0
 43165  1  0  0  0
 44 45  1  0  0  0
 44166  1  0  0  0
 45 46  1  0  0  0
 45 48  1  0  0  0
 45167  1  0  0  0
 46 47  2  0  0  0
 46 53  1  0  0  0
 48 49  1  0  0  0
 48168  1  0  0  0
 48169  1  0  0  0
 49 50  1  0  0  0
 49170  1  0  0  0
 49171  1  0  0  0
 50 51  2  0  0  0
 50 52  1  0  0  0
 52172  1  0  0  0
 52173  1  0  0  0
 53 54  1  0  0  0
 53174  1  0  0  0
 54 55  1  0  0  0
 54 57  1  0  0  0
 54175  1  0  0  0
 55 56  1  0  0  0
 55176  1  0  0  0
 55177  1  0  0  0
 56 59  1  0  0  0
 57 58  2  0  0  0
 57 63  1  0  0  0
 59 60  2  0  0  0
 59 61  1  0  0  0
 59 62  1  0  0  0
 61178  1  0  0  0
 62179  1  0  0  0
 63 64  1  0  0  0
 63180  1  0  0  0
 64 65  1  0  0  0
 64 67  1  0  0  0
 64181  1  0  0  0
 65 66  2  0  0  0
 65 74  1  0  0  0
 67 68  1  0  0  0
 67182  1  0  0  0
 67183  1  0  0  0
 68 69  2  0  0  0
 68 70  1  0  0  0
 69 71  1  0  0  0
 69184  1  0  0  0
 70 72  2  0  0  0
 70185  1  0  0  0
 71 73  2  0  0  0
 71186  1  0  0  0
 72 73  1  0  0  0
 72187  1  0  0  0
 73188  1  0  0  0
 74 75  1  0  0  0
 74189  1  0  0  0
 75 76  1  0  0  0
 75 78  1  0  0  0
 75190  1  0  0  0
 76 77  2  0  0  0
 76 85  1  0  0  0
 78 79  1  0  0  0
 78191  1  0  0  0
 78192  1  0  0  0
 79 80  1  0  0  0
 79193  1  0  0  0
 79194  1  0  0  0
 80 81  1  0  0  0
 80195  1  0  0  0
 80196  1  0  0  0
 81 82  1  0  0  0
 81197  1  0  0  0
 82 83  1  0  0  0
 82 84  2  0  0  0
 83198  1  0  0  0
 83199  1  0  0  0
 84200  1  0  0  0
 85 86  1  0  0  0
 85201  1  0  0  0
 86 87  1  0  0  0
 86 89  1  0  0  0
 86202  1  0  0  0
 87 88  2  0  0  0
 87 96  1  0  0  0
 89 90  1  0  0  0
 89203  1  0  0  0
 89204  1  0  0  0
 90 91  1  0  0  0
 90205  1  0  0  0
 90206  1  0  0  0
 91 92  1  0  0  0
 91207  1  0  0  0
 91208  1  0  0  0
 92 93  1  0  0  0
 92209  1  0  0  0
 93 94  1  0  0  0
 93 95  2  0  0  0
 94210  1  0  0  0
 94211  1  0  0  0
 95212  1  0  0  0
 96 97  1  0  0  0
 96213  1  0  0  0
 97 98  1  0  0  0
 97100  1  0  0  0
 97214  1  0  0  0
 98 99  2  0  0  0
 98104  1  0  0  0
100101  1  0  0  0
100215  1  0  0  0
100216  1  0  0  0
101102  1  0  0  0
101217  1  0  0  0
101218  1  0  0  0
102103  1  0  0  0
103219  1  0  0  0
103220  1  0  0  0
103221  1  0  0  0
104105  1  0  0  0
104222  1  0  0  0
105106  1  0  0  0
105108  1  0  0  0
105223  1  0  0  0
106107  2  0  0  0
106109  1  0  0  0
108224  1  0  0  0
108225  1  0  0  0
108226  1  0  0  0
109227  1  0  0  0
M  CHG  3   1   1   9   1  18   1
M  END
> <s_m_source_file>
../3wp1_ligand.sdf

> <i_m_source_file_index>
1

> <s_epik_input>
W05IMytdW0NIMl1bQ0gyXVtDSDJdW0NIMl1bQ0BIXShbTkgzK10pQyg9TylbTkhdW0NAQEhdKFtDSDJdW0NIMl1bQ0gyXVtDSDJdW05IMytdKUMoPU8pW05IXVtDQEBIXShbQ0gyXVtPSF0pQyg9TylbTkhdW0NAQEhdKFtDSDJdW0NIXShbQ0gzXSlbQ0gzXSlDKD1PKVtOSF1bQ0BASF0oW0NIMl1bQ0gyXVtDSDJdW05IXS9DKFtOSDJdKT1OXFtIXSlDKD1PKVtOSF1bQ0BASF0oW0NIMl1bQ0gyXUMoPU8pW05IMl0pQyg9TylbTkhdW0NAQEhdKFtDSDJdT1AoPU8pKFtPSF0pW09IXSlDKD1PKVtOSF1bQ0BASF0oW0NIMl1jMVtjSF1bY0hdW2NIXVtjSF1bY0hdMSlDKD1PKVtOSF1bQ0BASF0oW0NIMl1bQ0gyXVtDSDJdW05IXS9DKFtOSDJdKT1OXFtIXSlDKD1PKVtOSF1bQ0BASF0oW0NIMl1bQ0gyXVtDSDJdW05IXS9DKFtOSDJdKT1OXFtIXSlDKD1PKVtOSF1bQ0BASF0oW0NIMl1bQ0gyXVNbQ0gzXSlDKD1PKVtOSF1bQ0BASF0oW0NIM10pQyg9TylbT0hd

> <s_epik_cmdline>
J2VwaWtfYXBwJywgJy1pbWFlJywgJ2xpZ2FuZF9wcm8ubWFlJywgJy1vbWFlJywgJ2xpZ2FuZF9wcmVwLm1hZScsICctbXMnLCAnMScsICctcGgnLCAnNycsICctcGh0JywgJzAuNScsICctbnQn

> <s_epik_pKa_notes>
Molecule size exceeds maximum supported for generating protonation states

> <s_epik_Chemistry_Notes>
This compound has an imine and may undergo hydrolysis.

$$$$
