3wq5_ligand
                    3D
 Schrodinger Suite 2020-3.
 59 61  0  0  1  0            999 V2000
  -29.2160   12.6310  -21.6010 C   0  0  0  0  0  0
  -29.0250   12.3870  -20.0990 C   0  0  0  0  0  0
  -30.4000   12.4930  -22.1780 N   0  3  0  0  0  0
  -29.8670   11.2040  -19.5670 C   0  0  0  0  0  0
  -30.1600   11.1540  -18.2060 C   0  0  0  0  0  0
  -30.9120   10.1090  -17.6760 C   0  0  0  0  0  0
  -31.3780    9.0980  -18.5070 C   0  0  0  0  0  0
  -30.3360   10.1800  -20.3920 C   0  0  0  0  0  0
  -31.0930    9.1370  -19.8670 C   0  0  0  0  0  0
  -28.1860   13.0460  -22.3220 N   0  0  0  0  0  0
  -28.3040   13.2750  -23.7750 C   0  0  2  0  0  0
  -29.7050   13.5110  -24.0840 O   0  0  0  0  0  0
  -27.6140   12.0670  -24.4410 C   0  0  2  0  0  0
  -26.2160   12.3480  -24.5870 O   0  0  0  0  0  0
  -28.2320   11.6960  -25.7930 C   0  0  1  0  0  0
  -27.8120   10.3900  -26.2050 O   0  0  0  0  0  0
  -29.7410   11.7190  -25.6430 C   0  0  2  0  0  0
  -30.3620   11.2080  -26.8180 O   0  0  0  0  0  0
  -30.1830   13.1470  -25.3800 C   0  0  1  0  0  0
  -31.6890   13.2030  -25.2670 C   0  0  0  0  0  0
  -31.9550   12.3800  -24.1160 O   0  0  0  0  0  0
  -33.3540   12.1350  -23.9520 C   0  0  2  0  0  0
  -33.8470   13.0020  -22.8990 O   0  0  0  0  0  0
  -35.2480   12.7800  -22.6310 C   0  0  0  0  0  0
  -35.4530   11.3370  -22.1710 C   0  0  1  0  0  0
  -36.8260   11.1070  -21.8490 O   0  0  0  0  0  0
  -35.0110   10.4020  -23.2890 C   0  0  2  0  0  0
  -35.2040    9.0470  -22.8960 O   0  0  0  0  0  0
  -33.5390   10.6630  -23.5750 C   0  0  1  0  0  0
  -33.0660    9.8090  -24.6250 O   0  0  0  0  0  0
  -27.9675   12.1625  -19.8956 H   0  0  0  0  0  0
  -29.3228   13.2867  -19.5406 H   0  0  0  0  0  0
  -31.2625   12.1489  -21.5883 H   0  0  0  0  0  0
  -29.7960   11.9429  -17.5478 H   0  0  0  0  0  0
  -31.1350   10.0841  -16.6094 H   0  0  0  0  0  0
  -31.9648    8.2774  -18.0942 H   0  0  0  0  0  0
  -30.1070   10.1977  -21.4575 H   0  0  0  0  0  0
  -31.4631    8.3493  -20.5233 H   0  0  0  0  0  0
  -27.2261   13.2203  -21.8139 H   0  0  0  0  0  0
  -27.8453   14.2039  -24.1447 H   0  0  0  0  0  0
  -27.6849   11.1864  -23.7857 H   0  0  0  0  0  0
  -25.6175   12.6322  -23.7089 H   0  0  0  0  0  0
  -27.8860   12.3660  -26.5938 H   0  0  0  0  0  0
  -26.7441   10.1810  -26.3661 H   0  0  0  0  0  0
  -30.0775   11.0446  -24.8418 H   0  0  0  0  0  0
  -30.1482   10.1817  -27.1511 H   0  0  0  0  0  0
  -29.7887   13.8252  -26.1511 H   0  0  0  0  0  0
  -32.0075   14.2463  -25.1249 H   0  0  0  0  0  0
  -32.1409   12.8038  -26.1871 H   0  0  0  0  0  0
  -33.8825   12.3989  -24.8799 H   0  0  0  0  0  0
  -35.5840   13.4688  -21.8420 H   0  0  0  0  0  0
  -35.8296   12.9602  -23.5471 H   0  0  0  0  0  0
  -34.9124   11.1300  -21.2357 H   0  0  0  0  0  0
  -37.3121   11.6981  -21.0589 H   0  0  0  0  0  0
  -35.6280   10.5192  -24.1921 H   0  0  0  0  0  0
  -36.2129    8.6839  -22.6504 H   0  0  0  0  0  0
  -32.9199   10.3915  -22.7072 H   0  0  0  0  0  0
  -32.0184    9.8712  -24.9547 H   0  0  0  0  0  0
  -30.5210   12.7225  -23.2470 H   0  0  0  0  0  0
  1  2  1  0  0  0
  1  3  2  0  0  0
  1 10  1  0  0  0
  2  4  1  0  0  0
  2 31  1  0  0  0
  2 32  1  0  0  0
  3 33  1  0  0  0
  3 59  1  0  0  0
  4  5  2  0  0  0
  4  8  1  0  0  0
  5  6  1  0  0  0
  5 34  1  0  0  0
  6  7  2  0  0  0
  6 35  1  0  0  0
  7  9  1  0  0  0
  7 36  1  0  0  0
  8  9  2  0  0  0
  8 37  1  0  0  0
  9 38  1  0  0  0
 10 11  1  0  0  0
 10 39  1  0  0  0
 11 12  1  0  0  0
 11 13  1  0  0  0
 11 40  1  0  0  0
 12 19  1  0  0  0
 13 14  1  0  0  0
 13 15  1  0  0  0
 13 41  1  0  0  0
 14 42  1  0  0  0
 15 16  1  0  0  0
 15 17  1  0  0  0
 15 43  1  0  0  0
 16 44  1  0  0  0
 17 18  1  0  0  0
 17 19  1  0  0  0
 17 45  1  0  0  0
 18 46  1  0  0  0
 19 20  1  0  0  0
 19 47  1  0  0  0
 20 21  1  0  0  0
 20 48  1  0  0  0
 20 49  1  0  0  0
 21 22  1  0  0  0
 22 23  1  0  0  0
 22 29  1  0  0  0
 22 50  1  0  0  0
 23 24  1  0  0  0
 24 25  1  0  0  0
 24 51  1  0  0  0
 24 52  1  0  0  0
 25 26  1  0  0  0
 25 27  1  0  0  0
 25 53  1  0  0  0
 26 54  1  0  0  0
 27 28  1  0  0  0
 27 29  1  0  0  0
 27 55  1  0  0  0
 28 56  1  0  0  0
 29 30  1  0  0  0
 29 57  1  0  0  0
 30 58  1  0  0  0
M  CHG  1   3   1
M  END
> <s_m_source_file>
../3wq5_ligand.sdf

> <i_m_source_file_index>
1

> <s_epik_input>
W2NIXTFbY0hdW2NIXVtjSF1bY0hdYzFbQ0gyXS9DKD1OL1tIXSlbTkhdW0NAQEhdMk9bQ0BASF0oW0NAQEhdKFtPSF0pW0NASF0oW09IXSlbQ0BIXTJbT0hdKVtDSDJdT1tDQEBIXTNPW0NIMl1bQ0BASF0oW09IXSlbQ0BIXShbT0hdKVtDQEhdM1tPSF0=

> <s_epik_cmdline>
J2VwaWtfYXBwJywgJy1pbWFlJywgJ2xpZ2FuZF9wcm8ubWFlJywgJy1vbWFlJywgJ2xpZ2FuZF9wcmVwLm1hZScsICctbXMnLCAnMScsICctcGgnLCAnNycsICctcGh0JywgJzAuNScsICctbnQn

> <r_lp_tautomer_probability>
1

> <r_epik_Ionization_Penalty>
  0.0023

> <r_epik_Ionization_Penalty_Charging>
  0.0023

> <r_epik_Ionization_Penalty_Neutral>
  0.0000

> <r_epik_State_Penalty>
 -0.0000

> <r_epik_Charging_Adjusted_Penalty>
0.00228157466939162

> <i_epik_Tot_Q>
1

> <i_epik_Tot_abs_Q>
1

> <s_epik_Chemistry_Notes>
This compound has an imine and may undergo hydrolysis. This compound contains an acetal/aminal-like group ( X-CH(R)-Y where X, Y are N, S, or O) that may be acid/base labile, releasing an aldehyde.

$$$$
