3wq6_ligand
                    3D
 Schrodinger Suite 2020-3.
 79 82  0  0  1  0            999 V2000
   -1.3230   31.5630   18.0160 C   0  0  0  0  0  0
   -0.3400   30.8640   18.7110 C   0  0  0  0  0  0
   -0.4520   30.6750   20.0840 C   0  0  0  0  0  0
   -1.5540   31.1840   20.7640 C   0  0  0  0  0  0
   -2.5290   31.8900   20.0660 C   0  0  0  0  0  0
   -2.4160   32.0930   18.6920 C   0  0  0  0  0  0
   -3.5210   32.8380   17.9200 C   0  0  0  0  0  0
   -3.4350   34.3080   17.7560 N   0  0  0  0  0  0
   -2.6030   34.8260   16.7350 C   0  0  0  0  0  0
   -2.2050   34.1960   15.7570 O   0  0  0  0  0  0
   -3.3220   35.1430   18.8860 C   0  0  0  0  0  0
   -3.4260   34.8100   20.0670 O   0  0  0  0  0  0
   -3.0220   36.5600   18.3810 C   0  0  0  0  0  0
   -2.3500   36.3260   17.0110 C   0  0  1  0  0  0
   -0.5560   36.7420   17.0630 S   0  0  0  0  0  0
    0.1190   35.2900   17.9510 C   0  0  0  0  0  0
    0.0540   35.3420   19.4890 C   0  0  0  0  0  0
    0.5630   33.9950   20.0140 C   0  0  0  0  0  0
    0.3320   33.7200   21.5080 C   0  0  0  0  0  0
   -0.7150   34.2240   22.1230 N   0  3  0  0  0  0
    1.1970   32.9280   22.1140 N   0  0  0  0  0  0
    1.1500   32.5480   23.5140 C   0  0  2  0  0  0
   -0.2160   32.2660   23.8500 O   0  0  0  0  0  0
    1.9070   33.6250   24.3380 C   0  0  2  0  0  0
    3.2920   33.2700   24.4530 O   0  0  0  0  0  0
    1.3280   33.8220   25.7400 C   0  0  1  0  0  0
    1.8230   35.0470   26.2880 O   0  0  0  0  0  0
   -0.1920   33.8490   25.6330 C   0  0  2  0  0  0
   -0.7880   34.2190   26.8770 O   0  0  0  0  0  0
   -0.6370   32.4540   25.2150 C   0  0  1  0  0  0
   -2.1440   32.3740   25.2110 C   0  0  0  0  0  0
   -2.4870   33.3300   24.2070 O   0  0  0  0  0  0
   -3.8910   33.4840   24.0620 C   0  0  2  0  0  0
   -4.3570   32.5700   23.0470 O   0  0  0  0  0  0
   -5.7520   32.7760   22.7010 C   0  0  0  0  0  0
   -5.9980   34.2170   22.2320 C   0  0  1  0  0  0
   -7.3870   34.3900   21.9120 O   0  0  0  0  0  0
   -5.5510   35.1910   23.3220 C   0  0  2  0  0  0
   -5.7090   36.5510   22.9110 O   0  0  0  0  0  0
   -4.0780   34.9290   23.6050 C   0  0  1  0  0  0
   -3.5830   35.8350   24.5970 O   0  0  0  0  0  0
   -1.2353   31.6953   16.9376 H   0  0  0  0  0  0
    0.5212   30.4631   18.1765 H   0  0  0  0  0  0
    0.3209   30.1299   20.6258 H   0  0  0  0  0  0
   -1.6531   31.0304   21.8386 H   0  0  0  0  0  0
   -3.3913   32.2889   20.6003 H   0  0  0  0  0  0
   -3.5716   32.4541   16.8904 H   0  0  0  0  0  0
   -4.4883   32.6782   18.4188 H   0  0  0  0  0  0
   -3.9620   37.1246   18.2931 H   0  0  0  0  0  0
   -2.3538   37.0687   19.0915 H   0  0  0  0  0  0
   -2.9222   36.8857   16.2564 H   0  0  0  0  0  0
   -0.4365   34.3881   17.6545 H   0  0  0  0  0  0
    1.1820   35.1661   17.6966 H   0  0  0  0  0  0
    0.6879   36.1630   19.8552 H   0  0  0  0  0  0
   -0.9854   35.5117   19.8066 H   0  0  0  0  0  0
    0.0625   33.1780   19.4735 H   0  0  0  0  0  0
    1.6496   33.9271   19.8568 H   0  0  0  0  0  0
   -1.4100   34.8799   21.5781 H   0  0  0  0  0  0
    2.0020   32.5482   21.4677 H   0  0  0  0  0  0
    1.6168   31.5721   23.7133 H   0  0  0  0  0  0
    1.8690   34.5837   23.8000 H   0  0  0  0  0  0
    3.8893   33.0849   23.5480 H   0  0  0  0  0  0
    1.6561   33.0458   26.4470 H   0  0  0  0  0  0
    2.9045   35.1883   26.4309 H   0  0  0  0  0  0
   -0.5467   34.6280   24.9421 H   0  0  0  0  0  0
   -0.5691   35.2012   27.3212 H   0  0  0  0  0  0
   -0.1985   31.6830   25.8656 H   0  0  0  0  0  0
   -2.4561   31.3502   24.9570 H   0  0  0  0  0  0
   -2.5279   32.6378   26.2075 H   0  0  0  0  0  0
   -4.4169   33.2200   24.9913 H   0  0  0  0  0  0
   -6.0338   32.0889   21.8895 H   0  0  0  0  0  0
   -6.3810   32.5805   23.5820 H   0  0  0  0  0  0
   -5.4704   34.4399   21.2928 H   0  0  0  0  0  0
   -7.8569   33.7593   21.1430 H   0  0  0  0  0  0
   -6.1872   35.1001   24.2147 H   0  0  0  0  0  0
   -6.7079   36.9371   22.6595 H   0  0  0  0  0  0
   -3.4721   35.1412   22.7118 H   0  0  0  0  0  0
   -2.5321   35.7793   24.9173 H   0  0  0  0  0  0
   -0.8961   33.9898   23.1824 H   0  0  0  0  0  0
  1  2  2  0  0  0
  1  6  1  0  0  0
  1 42  1  0  0  0
  2  3  1  0  0  0
  2 43  1  0  0  0
  3  4  2  0  0  0
  3 44  1  0  0  0
  4  5  1  0  0  0
  4 45  1  0  0  0
  5  6  2  0  0  0
  5 46  1  0  0  0
  6  7  1  0  0  0
  7  8  1  0  0  0
  7 47  1  0  0  0
  7 48  1  0  0  0
  8  9  1  0  0  0
  8 11  1  0  0  0
  9 10  2  0  0  0
  9 14  1  0  0  0
 11 12  2  0  0  0
 11 13  1  0  0  0
 13 14  1  0  0  0
 13 49  1  0  0  0
 13 50  1  0  0  0
 14 15  1  0  0  0
 14 51  1  0  0  0
 15 16  1  0  0  0
 16 17  1  0  0  0
 16 52  1  0  0  0
 16 53  1  0  0  0
 17 18  1  0  0  0
 17 54  1  0  0  0
 17 55  1  0  0  0
 18 19  1  0  0  0
 18 56  1  0  0  0
 18 57  1  0  0  0
 19 20  2  0  0  0
 19 21  1  0  0  0
 20 58  1  0  0  0
 20 79  1  0  0  0
 21 22  1  0  0  0
 21 59  1  0  0  0
 22 23  1  0  0  0
 22 24  1  0  0  0
 22 60  1  0  0  0
 23 30  1  0  0  0
 24 25  1  0  0  0
 24 26  1  0  0  0
 24 61  1  0  0  0
 25 62  1  0  0  0
 26 27  1  0  0  0
 26 28  1  0  0  0
 26 63  1  0  0  0
 27 64  1  0  0  0
 28 29  1  0  0  0
 28 30  1  0  0  0
 28 65  1  0  0  0
 29 66  1  0  0  0
 30 31  1  0  0  0
 30 67  1  0  0  0
 31 32  1  0  0  0
 31 68  1  0  0  0
 31 69  1  0  0  0
 32 33  1  0  0  0
 33 34  1  0  0  0
 33 40  1  0  0  0
 33 70  1  0  0  0
 34 35  1  0  0  0
 35 36  1  0  0  0
 35 71  1  0  0  0
 35 72  1  0  0  0
 36 37  1  0  0  0
 36 38  1  0  0  0
 36 73  1  0  0  0
 37 74  1  0  0  0
 38 39  1  0  0  0
 38 40  1  0  0  0
 38 75  1  0  0  0
 39 76  1  0  0  0
 40 41  1  0  0  0
 40 77  1  0  0  0
 41 78  1  0  0  0
M  CHG  1  20   1
M  END
> <s_m_source_file>
../3wq6_ligand.sdf

> <i_m_source_file_index>
1

> <s_epik_input>
W2NIXTFbY0hdW2NIXVtjSF1bY0hdYzFbQ0gyXU4yQyg9TylbQ0BASF0oW0NIMl1DMj1PKVNbQ0gyXVtDSDJdW0NIMl0vQyg9TlxbSF0pW05IXVtDQEBIXTNPW0NAQEhdKFtDQEBIXShbT0hdKVtDQEhdKFtPSF0pW0NASF0zW09IXSlbQ0gyXU9bQ0BASF00T1tDSDJdW0NAQEhdKFtPSF0pW0NASF0oW09IXSlbQ0BIXTRbT0hd

> <s_epik_cmdline>
J2VwaWtfYXBwJywgJy1pbWFlJywgJ2xpZ2FuZF9wcm8ubWFlJywgJy1vbWFlJywgJ2xpZ2FuZF9wcmVwLm1hZScsICctbXMnLCAnMScsICctcGgnLCAnNycsICctcGh0JywgJzAuNScsICctbnQn

> <r_lp_tautomer_probability>
1

> <r_epik_Ionization_Penalty>
  0.0008

> <r_epik_Ionization_Penalty_Charging>
  0.0008

> <r_epik_Ionization_Penalty_Neutral>
  0.0000

> <r_epik_State_Penalty>
 -0.0000

> <r_epik_Charging_Adjusted_Penalty>
0.000791215896372523

> <i_epik_Tot_Q>
1

> <i_epik_Tot_abs_Q>
1

> <s_epik_Chemistry_Notes>
This compound has an imine and may undergo hydrolysis. This compound contains an acetal/aminal-like group ( X-CH(R)-Y where X, Y are N, S, or O) that may be acid/base labile, releasing an aldehyde.

$$$$
