3wqh_ligand
                    3D
 Schrodinger Suite 2020-3.
 54 56  0  0  1  0            999 V2000
   50.3840   50.3090   36.6630 N   0  0  0  0  0  0
   47.2120   50.6150   37.8760 N   0  0  0  0  0  0
   45.4720   52.1400   34.9750 N   0  3  0  0  0  0
   45.3230   51.1640   31.3750 N   0  0  0  0  0  0
   43.7290   49.1470   27.2580 N   0  0  0  0  0  0
   45.9620   48.7400   28.0500 N   0  0  0  0  0  0
   47.1110   48.0610   27.6630 N   0  0  0  0  0  0
   47.7620   52.3970   36.5880 O   0  0  0  0  0  0
   43.1130   51.2730   30.8430 O   0  0  0  0  0  0
   49.5660   50.3910   37.4750 C   0  0  0  0  0  0
   48.5120   50.5140   38.4970 C   0  0  2  0  0  0
   48.3610   49.2870   39.4120 C   0  0  0  0  0  0
   46.8620   49.1530   39.6460 C   0  0  0  0  0  0
   46.2400   49.6450   38.3400 C   0  0  0  0  0  0
   46.9390   51.5510   36.9420 C   0  0  0  0  0  0
   45.5380   51.5360   36.3230 C   0  0  0  0  0  0
   45.8960   51.3210   33.8070 C   0  0  0  0  0  0
   47.4280   51.3780   33.6390 C   0  0  0  0  0  0
   45.4570   49.8410   33.9370 C   0  0  0  0  0  0
   45.2180   51.9720   32.5890 C   0  0  0  0  0  0
   44.2580   50.8850   30.5990 C   0  0  0  0  0  0
   44.5550   50.0580   29.3700 C   0  0  0  0  0  0
   45.7910   49.4740   29.1820 C   0  0  0  0  0  0
   43.5590   49.8580   28.3740 C   0  0  0  0  0  0
   44.9370   48.5720   27.0830 C   0  0  0  0  0  0
   45.4740   47.7880   26.1090 C   0  0  0  0  0  0
   46.7980   47.5030   26.5080 C   0  0  0  0  0  0
   47.7910   46.6690   25.7570 C   0  0  0  0  0  0
   44.4340   52.4285   34.7529 H   0  0  0  0  0  0
   46.1157   53.0314   34.9407 H   0  0  0  0  0  0
   46.2982   50.7595   31.0662 H   0  0  0  0  0  0
   48.8033   51.4304   39.0312 H   0  0  0  0  0  0
   48.7744   48.4008   38.9082 H   0  0  0  0  0  0
   48.9050   49.4614   40.3520 H   0  0  0  0  0  0
   46.6157   48.1010   39.8524 H   0  0  0  0  0  0
   46.5681   49.7737   40.5052 H   0  0  0  0  0  0
   45.2696   50.1410   38.4894 H   0  0  0  0  0  0
   46.1323   48.8467   37.5909 H   0  0  0  0  0  0
   44.8749   52.0883   37.0051 H   0  0  0  0  0  0
   45.2168   50.4853   36.2701 H   0  0  0  0  0  0
   47.9101   50.9120   34.5110 H   0  0  0  0  0  0
   47.7493   52.4270   33.5594 H   0  0  0  0  0  0
   47.7172   50.8357   32.7267 H   0  0  0  0  0  0
   45.9485   49.3882   34.8107 H   0  0  0  0  0  0
   45.7454   49.2919   33.0285 H   0  0  0  0  0  0
   44.3655   49.7921   34.0640 H   0  0  0  0  0  0
   45.6975   52.9479   32.4225 H   0  0  0  0  0  0
   44.1573   52.1225   32.8387 H   0  0  0  0  0  0
   46.5945   49.5956   29.9084 H   0  0  0  0  0  0
   42.5848   50.3199   28.5346 H   0  0  0  0  0  0
   44.9793   47.4471   25.1996 H   0  0  0  0  0  0
   48.7359   46.6293   26.3188 H   0  0  0  0  0  0
   47.9711   47.1153   24.7679 H   0  0  0  0  0  0
   47.3950   45.6503   25.6331 H   0  0  0  0  0  0
  1 10  3  0  0  0
  2 11  1  0  0  0
  2 14  1  0  0  0
  2 15  1  0  0  0
  3 16  1  0  0  0
  3 17  1  0  0  0
  3 29  1  0  0  0
  3 30  1  0  0  0
  4 20  1  0  0  0
  4 21  1  0  0  0
  4 31  1  0  0  0
  5 24  2  0  0  0
  5 25  1  0  0  0
  6  7  1  0  0  0
  6 23  1  0  0  0
  6 25  1  0  0  0
  7 27  2  0  0  0
  8 15  2  0  0  0
  9 21  2  0  0  0
 10 11  1  0  0  0
 11 12  1  0  0  0
 11 32  1  0  0  0
 12 13  1  0  0  0
 12 33  1  0  0  0
 12 34  1  0  0  0
 13 14  1  0  0  0
 13 35  1  0  0  0
 13 36  1  0  0  0
 14 37  1  0  0  0
 14 38  1  0  0  0
 15 16  1  0  0  0
 16 39  1  0  0  0
 16 40  1  0  0  0
 17 18  1  0  0  0
 17 19  1  0  0  0
 17 20  1  0  0  0
 18 41  1  0  0  0
 18 42  1  0  0  0
 18 43  1  0  0  0
 19 44  1  0  0  0
 19 45  1  0  0  0
 19 46  1  0  0  0
 20 47  1  0  0  0
 20 48  1  0  0  0
 21 22  1  0  0  0
 22 23  2  0  0  0
 22 24  1  0  0  0
 23 49  1  0  0  0
 24 50  1  0  0  0
 25 26  2  0  0  0
 26 27  1  0  0  0
 26 51  1  0  0  0
 27 28  1  0  0  0
 28 52  1  0  0  0
 28 53  1  0  0  0
 28 54  1  0  0  0
M  CHG  1   3   1
M  END
> <s_m_source_file>
../3wqh_ligand.sdf

> <i_m_source_file_index>
1

> <s_epik_input>
W0NIMl0xW0NIMl1bQ0gyXVtDQEBIXShDI04pTjFDKD1PKVtDSDJdW05IMitdQyhbQ0gzXSkoW0NIM10pW0NIMl1bTkhdQyg9TyljKFtjSF0yKVtjSF1uYyhuMjMpW2NIXWMobjMpW0NIM10=

> <s_epik_cmdline>
J2VwaWtfYXBwJywgJy1pbWFlJywgJ2xpZ2FuZF9wcm8ubWFlJywgJy1vbWFlJywgJ2xpZ2FuZF9wcmVwLm1hZScsICctbXMnLCAnMScsICctcGgnLCAnNycsICctcGh0JywgJzAuNScsICctbnQn

> <r_epik_Ionization_Penalty>
  0.1266

> <r_epik_Ionization_Penalty_Charging>
  0.1266

> <r_epik_Ionization_Penalty_Neutral>
  0.0000

> <r_epik_State_Penalty>
  0.1161

> <r_epik_Charging_Adjusted_Penalty>
0.242665817056513

> <i_epik_Tot_Q>
1

> <i_epik_Tot_abs_Q>
1

$$$$
