3wqm_ligand
                    3D
 Schrodinger Suite 2020-3.
 45 48  0  0  1  0            999 V2000
   -4.7870  -15.7090   25.8500 C   0  0  0  0  0  0
   -4.4910  -15.5170   27.2290 C   0  0  0  0  0  0
   -4.8040  -16.5320   28.1710 C   0  0  0  0  0  0
   -5.4120  -17.7410   27.7390 C   0  0  0  0  0  0
   -5.7070  -17.9340   26.3620 C   0  0  0  0  0  0
   -5.3940  -16.9180   25.4220 C   0  0  0  0  0  0
   -5.5650  -16.8450   24.0700 O   0  0  0  0  0  0
   -5.0980  -15.6380   23.6060 C   0  0  0  0  0  0
   -4.6050  -14.9110   24.7230 C   0  0  0  0  0  0
   -4.0550  -13.6150   24.5420 C   0  0  0  0  0  0
   -4.0020  -13.0460   23.2500 C   0  0  0  0  0  0
   -4.4870  -13.7610   22.1300 C   0  0  0  0  0  0
   -5.0440  -15.0690   22.2810 C   0  0  0  0  0  0
   -5.5240  -15.7960   21.1380 C   0  0  0  0  0  0
   -6.5290  -16.8140   21.2520 C   0  0  0  0  0  0
   -4.9860  -15.5180   19.8440 C   0  0  0  0  0  0
   -5.4360  -16.2290   18.7100 C   0  0  0  0  0  0
   -6.4220  -17.2300   18.8340 C   0  0  0  0  0  0
   -6.9820  -17.5330   20.1090 C   0  0  0  0  0  0
   -8.0620  -18.6300   20.2850 C   0  0  0  0  0  0
   -9.2110  -18.7070   19.2430 C   0  0  1  0  0  0
  -10.3520  -20.1370   19.6880 P   0  0  0  0  0  0
  -10.4530  -20.2290   21.2960 O   0  5  0  0  0  0
  -11.8210  -19.7680   19.1660 O   0  5  0  0  0  0
   -9.8890  -21.4060   19.0820 O   0  0  0  0  0  0
  -10.2840  -17.1560   19.1510 P   0  0  0  0  0  0
  -11.3610  -17.2980   20.3540 O   0  5  0  0  0  0
   -9.4090  -15.8480   19.4730 O   0  0  0  0  0  0
  -10.9380  -17.0890   17.8230 O   0  0  0  0  0  0
   -8.6640  -18.9570   17.9400 O   0  0  0  0  0  0
   -4.0238  -14.5902   27.5619 H   0  0  0  0  0  0
   -4.5776  -16.3835   29.2268 H   0  0  0  0  0  0
   -5.6521  -18.5199   28.4627 H   0  0  0  0  0  0
   -6.1730  -18.8612   26.0285 H   0  0  0  0  0  0
   -3.6740  -13.0594   25.3989 H   0  0  0  0  0  0
   -3.5842  -12.0483   23.1152 H   0  0  0  0  0  0
   -4.4354  -13.3091   21.1394 H   0  0  0  0  0  0
   -6.9530  -17.0409   22.2302 H   0  0  0  0  0  0
   -4.2210  -14.7498   19.7310 H   0  0  0  0  0  0
   -5.0174  -16.0021   17.7295 H   0  0  0  0  0  0
   -6.7571  -17.7741   17.9509 H   0  0  0  0  0  0
   -7.5861  -19.6213   20.2545 H   0  0  0  0  0  0
   -8.5670  -18.4954   21.2529 H   0  0  0  0  0  0
   -8.8695  -15.7686   20.4283 H   0  0  0  0  0  0
   -8.0046  -19.8222   17.7771 H   0  0  0  0  0  0
  1  2  2  0  0  0
  1  6  1  0  0  0
  1  9  1  0  0  0
  2  3  1  0  0  0
  2 31  1  0  0  0
  3  4  2  0  0  0
  3 32  1  0  0  0
  4  5  1  0  0  0
  4 33  1  0  0  0
  5  6  2  0  0  0
  5 34  1  0  0  0
  6  7  1  0  0  0
  7  8  1  0  0  0
  8  9  2  0  0  0
  8 13  1  0  0  0
  9 10  1  0  0  0
 10 11  2  0  0  0
 10 35  1  0  0  0
 11 12  1  0  0  0
 11 36  1  0  0  0
 12 13  2  0  0  0
 12 37  1  0  0  0
 13 14  1  0  0  0
 14 15  2  0  0  0
 14 16  1  0  0  0
 15 19  1  0  0  0
 15 38  1  0  0  0
 16 17  2  0  0  0
 16 39  1  0  0  0
 17 18  1  0  0  0
 17 40  1  0  0  0
 18 19  2  0  0  0
 18 41  1  0  0  0
 19 20  1  0  0  0
 20 21  1  0  0  0
 20 42  1  0  0  0
 20 43  1  0  0  0
 21 22  1  0  0  0
 21 26  1  0  0  0
 21 30  1  0  0  0
 22 23  1  0  0  0
 22 24  1  0  0  0
 22 25  2  0  0  0
 26 27  1  0  0  0
 26 28  1  0  0  0
 26 29  2  0  0  0
 28 44  1  0  0  0
 30 45  1  0  0  0
M  CHG  3  23  -1  24  -1  27  -1
M  END
> <s_m_source_file>
../3wqm_ligand.sdf

> <i_m_source_file_index>
1

> <s_epik_input>
W2NIXTFbY0hdW2NIXVtjSF1jKGMxMilvYzNjMltjSF1bY0hdW2NIXWMzLWM0W2NIXWMoW2NIXVtjSF1bY0hdNClbQ0gyXUMoW09IXSkoUCg9TykoW09IXSlbT0hdKVAoPU8pKFtPSF0pW09IXQ==

> <s_epik_cmdline>
J2VwaWtfYXBwJywgJy1pbWFlJywgJ2xpZ2FuZF9wcm8ubWFlJywgJy1vbWFlJywgJ2xpZ2FuZF9wcmVwLm1hZScsICctbXMnLCAnMScsICctcGgnLCAnNycsICctcGh0JywgJzAuNScsICctbnQn

> <r_epik_Ionization_Penalty>
  0.1987

> <r_epik_Ionization_Penalty_Charging>
  0.1986

> <r_epik_Ionization_Penalty_Neutral>
  0.0000

> <r_epik_State_Penalty>
  0.1884

> <r_epik_Charging_Adjusted_Penalty>
0.387000418665595

> <i_epik_Tot_Q>
-3

> <i_epik_Tot_abs_Q>
3

$$$$
