3wqv_ligand
                    3D
 Schrodinger Suite 2020-3.
118122  0  0  1  0            999 V2000
  -39.2160   21.9680    3.6960 C   0  0  2  0  0  0
  -37.8700   21.9270    2.9920 C   0  0  1  0  0  0
  -36.8400   22.6610    3.8430 C   0  0  2  0  0  0
  -37.3320   24.0630    4.2180 C   0  0  1  0  0  0
  -38.7820   24.0270    4.7040 C   0  0  1  0  0  0
  -39.3310   25.4340    4.9340 C   0  0  0  0  0  0
  -37.4600   20.5570    2.7480 N   0  3  0  0  0  0
  -40.1670   21.2260    2.9710 O   0  0  0  0  0  0
  -35.6200   22.6950    3.1370 O   0  0  0  0  0  0
  -36.5830   24.6090    5.2830 O   0  0  0  0  0  0
  -39.6100   23.3190    3.8000 O   0  0  0  0  0  0
  -39.4340   26.1190    3.7080 O   0  0  0  0  0  0
  -35.3510   25.2340    4.8860 C   0  0  1  0  0  0
  -34.9860   26.2670    5.9480 C   0  0  1  0  0  0
  -33.6130   26.8940    5.7260 C   0  0  2  0  0  0
  -32.5540   25.8390    5.4160 C   0  0  1  0  0  0
  -33.0620   24.8540    4.3640 C   0  0  1  0  0  0
  -32.0870   23.7050    4.1600 C   0  0  0  0  0  0
  -36.0000   27.3030    6.0000 N   0  3  0  0  0  0
  -33.2680   27.6310    6.8790 O   0  0  0  0  0  0
  -31.3720   26.4500    4.9330 O   0  0  0  0  0  0
  -34.3070   24.3000    4.7360 O   0  0  0  0  0  0
  -32.4880   22.9600    3.0330 O   0  0  0  0  0  0
  -30.4090   26.7140    5.9720 C   0  0  1  0  0  0
  -29.0150   26.7950    5.3610 C   0  0  1  0  0  0
  -27.9440   27.0880    6.4110 C   0  0  2  0  0  0
  -28.3480   28.1910    7.3870 C   0  0  1  0  0  0
  -29.8260   28.1010    7.7820 C   0  0  1  0  0  0
  -30.3150   29.3490    8.5150 C   0  0  0  0  0  0
  -28.7000   25.5690    4.6540 N   0  3  0  0  0  0
  -26.7430   27.4470    5.7630 O   0  0  0  0  0  0
  -27.5510   28.0220    8.5430 O   0  0  0  0  0  0
  -30.6580   27.9170    6.6550 O   0  0  0  0  0  0
  -31.0630   30.1620    7.6370 O   0  0  0  0  0  0
  -26.9260   29.2410    9.0050 C   0  0  1  0  0  0
  -25.8160   28.9060    9.9810 C   0  0  1  0  0  0
  -25.4360   30.1590   10.7530 C   0  0  2  0  0  0
  -25.2120   31.3670    9.8240 C   0  0  1  0  0  0
  -26.0880   31.3720    8.5600 C   0  0  1  0  0  0
  -25.4430   32.2340    7.4770 C   0  0  0  0  0  0
  -26.2380   27.8550   10.8870 N   0  3  0  0  0  0
  -24.2710   29.8450   11.4900 O   0  0  0  0  0  0
  -25.4630   32.5950   10.4940 O   0  0  0  0  0  0
  -26.3650   30.0850    8.0280 O   0  0  0  0  0  0
  -24.1300   31.7930    7.2070 O   0  0  0  0  0  0
  -24.5130   32.8370   11.5520 C   0  0  1  0  0  0
  -24.0490   34.2980   11.5680 C   0  0  1  0  0  0
  -23.3340   34.7070   12.8620 C   0  0  2  0  0  0
  -23.8750   34.0140   14.1080 C   0  0  1  0  0  0
  -24.0080   32.5390   13.7840 C   0  0  1  0  0  0
  -24.3160   31.6730   14.9950 C   0  0  0  0  0  0
  -23.1670   34.5460   10.4430 N   0  3  0  0  0  0
  -23.4140   36.1070   13.0200 O   0  0  0  0  0  0
  -22.9980   34.1900   15.1980 O   0  0  0  0  0  0
  -25.0130   32.4370   12.8090 O   0  0  0  0  0  0
  -23.1530   30.9250   15.2570 O   0  0  0  0  0  0
  -39.2168   21.5346    4.7070 H   0  0  0  0  0  0
  -37.9417   22.3806    1.9925 H   0  0  0  0  0  0
  -36.6040   22.1124    4.7667 H   0  0  0  0  0  0
  -37.1778   24.7212    3.3502 H   0  0  0  0  0  0
  -38.8404   23.4391    5.6319 H   0  0  0  0  0  0
  -40.3272   25.3679    5.3957 H   0  0  0  0  0  0
  -38.6537   25.9874    5.6012 H   0  0  0  0  0  0
  -38.2190   20.0511    2.1332 H   0  0  0  0  0  0
  -37.3542   20.0295    3.7075 H   0  0  0  0  0  0
  -36.4959   20.5516    2.2183 H   0  0  0  0  0  0
  -40.0105   20.1510    2.7984 H   0  0  0  0  0  0
  -35.1505   21.7574    2.8047 H   0  0  0  0  0  0
  -39.8132   27.1513    3.6849 H   0  0  0  0  0  0
  -35.4879   25.6410    3.8733 H   0  0  0  0  0  0
  -34.9812   25.7662    6.9274 H   0  0  0  0  0  0
  -33.6369   27.6239    4.9034 H   0  0  0  0  0  0
  -32.2626   25.3236    6.3431 H   0  0  0  0  0  0
  -33.2444   25.4042    3.4291 H   0  0  0  0  0  0
  -31.0756   24.1065    3.9994 H   0  0  0  0  0  0
  -32.0883   23.0603    5.0513 H   0  0  0  0  0  0
  -36.9863   26.8430    6.1602 H   0  0  0  0  0  0
  -36.0047   27.8594    5.0511 H   0  0  0  0  0  0
  -35.7779   27.9921    6.8281 H   0  0  0  0  0  0
  -33.9301   28.4328    7.2378 H   0  0  0  0  0  0
  -31.9059   22.0810    2.7192 H   0  0  0  0  0  0
  -30.5503   25.9223    6.7225 H   0  0  0  0  0  0
  -29.0087   27.5961    4.6073 H   0  0  0  0  0  0
  -27.7289   26.1702    6.9779 H   0  0  0  0  0  0
  -28.1454   29.1871    6.9665 H   0  0  0  0  0  0
  -29.9488   27.1986    8.3990 H   0  0  0  0  0  0
  -30.9502   29.0513    9.3623 H   0  0  0  0  0  0
  -29.4503   29.9181    8.8872 H   0  0  0  0  0  0
  -29.4775   25.3694    3.9019 H   0  0  0  0  0  0
  -28.6582   24.7339    5.3688 H   0  0  0  0  0  0
  -27.7253   25.6736    4.1550 H   0  0  0  0  0  0
  -26.2956   26.7706    5.0198 H   0  0  0  0  0  0
  -31.4954   31.1073    7.9967 H   0  0  0  0  0  0
  -27.7806   29.8211    9.3833 H   0  0  0  0  0  0
  -24.9433   28.4992    9.4492 H   0  0  0  0  0  0
  -26.2063   30.4331   11.4889 H   0  0  0  0  0  0
  -24.1445   31.3472    9.5593 H   0  0  0  0  0  0
  -27.0925   31.7192    8.8434 H   0  0  0  0  0  0
  -26.0376   32.1686    6.5538 H   0  0  0  0  0  0
  -25.4049   33.2800    7.8152 H   0  0  0  0  0  0
  -26.5080   26.9590   10.3088 H   0  0  0  0  0  0
  -27.1106   28.1962   11.4633 H   0  0  0  0  0  0
  -25.4155   27.6127   11.5760 H   0  0  0  0  0  0
  -24.2782   29.0030   12.1978 H   0  0  0  0  0  0
  -23.5220   32.3078    6.4485 H   0  0  0  0  0  0
  -23.6785   32.1438   11.3700 H   0  0  0  0  0  0
  -24.9407   34.9308   11.4476 H   0  0  0  0  0  0
  -22.2638   34.4683   12.7739 H   0  0  0  0  0  0
  -24.8176   34.4585   14.4601 H   0  0  0  0  0  0
  -23.0816   32.1410   13.3443 H   0  0  0  0  0  0
  -24.5710   32.3160   15.8503 H   0  0  0  0  0  0
  -25.1654   31.0124   14.7669 H   0  0  0  0  0  0
  -23.6721   34.2553    9.5101 H   0  0  0  0  0  0
  -22.2468   33.9550   10.5613 H   0  0  0  0  0  0
  -22.9134   35.6157   10.4048 H   0  0  0  0  0  0
  -23.0664   36.7720   12.2157 H   0  0  0  0  0  0
  -22.7821   35.2015   15.5724 H   0  0  0  0  0  0
  -23.1326   30.2166   16.0982 H   0  0  0  0  0  0
  1  2  1  0  0  0
  1  8  1  0  0  0
  1 11  1  0  0  0
  1 57  1  0  0  0
  2  3  1  0  0  0
  2  7  1  0  0  0
  2 58  1  0  0  0
  3  4  1  0  0  0
  3  9  1  0  0  0
  3 59  1  0  0  0
  4  5  1  0  0  0
  4 10  1  0  0  0
  4 60  1  0  0  0
  5  6  1  0  0  0
  5 11  1  0  0  0
  5 61  1  0  0  0
  6 12  1  0  0  0
  6 62  1  0  0  0
  6 63  1  0  0  0
  7 64  1  0  0  0
  7 65  1  0  0  0
  7 66  1  0  0  0
  8 67  1  0  0  0
  9 68  1  0  0  0
 10 13  1  0  0  0
 12 69  1  0  0  0
 13 14  1  0  0  0
 13 22  1  0  0  0
 13 70  1  0  0  0
 14 15  1  0  0  0
 14 19  1  0  0  0
 14 71  1  0  0  0
 15 16  1  0  0  0
 15 20  1  0  0  0
 15 72  1  0  0  0
 16 17  1  0  0  0
 16 21  1  0  0  0
 16 73  1  0  0  0
 17 18  1  0  0  0
 17 22  1  0  0  0
 17 74  1  0  0  0
 18 23  1  0  0  0
 18 75  1  0  0  0
 18 76  1  0  0  0
 19 77  1  0  0  0
 19 78  1  0  0  0
 19 79  1  0  0  0
 20 80  1  0  0  0
 21 24  1  0  0  0
 23 81  1  0  0  0
 24 25  1  0  0  0
 24 33  1  0  0  0
 24 82  1  0  0  0
 25 26  1  0  0  0
 25 30  1  0  0  0
 25 83  1  0  0  0
 26 27  1  0  0  0
 26 31  1  0  0  0
 26 84  1  0  0  0
 27 28  1  0  0  0
 27 32  1  0  0  0
 27 85  1  0  0  0
 28 29  1  0  0  0
 28 33  1  0  0  0
 28 86  1  0  0  0
 29 34  1  0  0  0
 29 87  1  0  0  0
 29 88  1  0  0  0
 30 89  1  0  0  0
 30 90  1  0  0  0
 30 91  1  0  0  0
 31 92  1  0  0  0
 32 35  1  0  0  0
 34 93  1  0  0  0
 35 36  1  0  0  0
 35 44  1  0  0  0
 35 94  1  0  0  0
 36 37  1  0  0  0
 36 41  1  0  0  0
 36 95  1  0  0  0
 37 38  1  0  0  0
 37 42  1  0  0  0
 37 96  1  0  0  0
 38 39  1  0  0  0
 38 43  1  0  0  0
 38 97  1  0  0  0
 39 40  1  0  0  0
 39 44  1  0  0  0
 39 98  1  0  0  0
 40 45  1  0  0  0
 40 99  1  0  0  0
 40100  1  0  0  0
 41101  1  0  0  0
 41102  1  0  0  0
 41103  1  0  0  0
 42104  1  0  0  0
 43 46  1  0  0  0
 45105  1  0  0  0
 46 47  1  0  0  0
 46 55  1  0  0  0
 46106  1  0  0  0
 47 48  1  0  0  0
 47 52  1  0  0  0
 47107  1  0  0  0
 48 49  1  0  0  0
 48 53  1  0  0  0
 48108  1  0  0  0
 49 50  1  0  0  0
 49 54  1  0  0  0
 49109  1  0  0  0
 50 51  1  0  0  0
 50 55  1  0  0  0
 50110  1  0  0  0
 51 56  1  0  0  0
 51111  1  0  0  0
 51112  1  0  0  0
 52113  1  0  0  0
 52114  1  0  0  0
 52115  1  0  0  0
 53116  1  0  0  0
 54117  1  0  0  0
 56118  1  0  0  0
M  CHG  5   7   1  19   1  30   1  41   1  52   1
M  END
> <s_m_source_file>
../3wqv_ligand.sdf

> <i_m_source_file_index>
1

> <s_epik_input>
W09IXVtDQEhdMVtDQEhdKFtOSDMrXSlbQ0BASF0oW09IXSlbQ0BASF0oW0NASF0oTzEpW0NIMl1bT0hdKU9bQ0BIXTJbQ0BIXShbTkgzK10pW0NAQEhdKFtPSF0pW0NAQEhdKFtDQEhdKE8yKVtDSDJdW09IXSlPW0NASF0zW0NASF0oW05IMytdKVtDQEBIXShbT0hdKVtDQEBIXShbQ0BIXShPMylbQ0gyXVtPSF0pT1tDQEhdNFtDQEhdKFtOSDMrXSlbQ0BASF0oW09IXSlbQ0BASF0oW0NASF0oTzQpW0NIMl1bT0hdKU9bQ0BIXTVbQ0BIXShbTkgzK10pW0NAQEhdKFtPSF0pW0NASF0oW09IXSlbQ0BIXShPNSlbQ0gyXVtPSF0=

> <s_epik_cmdline>
J2VwaWtfYXBwJywgJy1pbWFlJywgJ2xpZ2FuZF9wcm8ubWFlJywgJy1vbWFlJywgJ2xpZ2FuZF9wcmVwLm1hZScsICctbXMnLCAnMScsICctcGgnLCAnNycsICctcGh0JywgJzAuNScsICctbnQn

> <r_lp_tautomer_probability>
1

> <r_epik_Ionization_Penalty>
  1.1979

> <r_epik_Ionization_Penalty_Charging>
  1.1976

> <r_epik_Ionization_Penalty_Neutral>
  0.0002

> <r_epik_State_Penalty>
 -0.0000

> <r_epik_Charging_Adjusted_Penalty>
1.19761938116166

> <i_epik_Tot_Q>
5

> <i_epik_Tot_abs_Q>
5

> <s_epik_Chemistry_Notes>
This compound contains an acetal/aminal-like group ( X-CH(R)-Y where X, Y are N, S, or O) that may be acid/base labile, releasing an aldehyde.

$$$$
