3wqw_ligand
                    3D
 Schrodinger Suite 2020-3.
116120  0  0  1  0            999 V2000
  -38.9660   22.0520    3.5140 C   0  0  0  0  0  0
  -37.7730   21.8970    2.5430 C   0  0  1  0  0  0
  -36.7490   22.6040    3.4850 C   0  0  2  0  0  0
  -37.3230   24.0230    3.8580 C   0  0  1  0  0  0
  -38.7890   24.0320    4.3890 C   0  0  1  0  0  0
  -39.3980   25.4210    4.7280 C   0  0  0  0  0  0
  -37.5340   20.4760    2.4060 N   0  3  0  0  0  0
  -39.7710   21.0120    3.7990 O   0  0  0  0  0  0
  -35.4730   22.6040    2.8570 O   0  0  0  0  0  0
  -36.5620   24.6490    4.8980 O   0  0  0  0  0  0
  -39.6320   23.3140    3.4730 O   0  0  0  0  0  0
  -39.3160   26.1200    3.5260 O   0  0  0  0  0  0
  -35.3170   25.2290    4.5580 C   0  0  1  0  0  0
  -34.9800   26.2450    5.6710 C   0  0  1  0  0  0
  -33.6180   26.8910    5.4450 C   0  0  2  0  0  0
  -32.6000   25.7770    5.1910 C   0  0  1  0  0  0
  -33.0690   24.8250    4.0850 C   0  0  1  0  0  0
  -32.0570   23.6610    3.8690 C   0  0  0  0  0  0
  -35.9950   27.2950    5.7900 N   0  3  0  0  0  0
  -33.3360   27.6850    6.6330 O   0  0  0  0  0  0
  -31.3470   26.3430    4.7630 O   0  0  0  0  0  0
  -34.2990   24.2370    4.4470 O   0  0  0  0  0  0
  -32.5190   22.9810    2.7070 O   0  0  0  0  0  0
  -30.3580   26.5520    5.8140 C   0  0  1  0  0  0
  -28.9930   26.8000    5.1890 C   0  0  1  0  0  0
  -27.8770   27.0110    6.2010 C   0  0  2  0  0  0
  -28.3120   28.1810    7.0430 C   0  0  1  0  0  0
  -29.7420   27.9540    7.5370 C   0  0  1  0  0  0
  -30.1550   29.0940    8.4900 C   0  0  0  0  0  0
  -28.5760   25.9560    4.0780 N   0  3  0  0  0  0
  -26.6850   27.3320    5.4890 O   0  0  0  0  0  0
  -27.4540   28.0810    8.1480 O   0  0  0  0  0  0
  -30.6200   27.8140    6.4250 O   0  0  0  0  0  0
  -30.4440   30.1210    7.5990 O   0  0  0  0  0  0
  -26.8490   29.3320    8.6060 C   0  0  1  0  0  0
  -25.8460   28.9600    9.7080 C   0  0  1  0  0  0
  -25.4420   30.1940   10.5470 C   0  0  2  0  0  0
  -25.1980   31.4170    9.6020 C   0  0  1  0  0  0
  -25.7920   31.3790    8.1590 C   0  0  1  0  0  0
  -24.8000   32.0130    7.1650 C   0  0  0  0  0  0
  -26.3670   27.8270   10.4860 N   0  3  0  0  0  0
  -24.3220   29.8950   11.4290 O   0  0  0  0  0  0
  -25.6230   32.6410   10.2180 O   0  0  0  0  0  0
  -26.2200   30.1200    7.6330 O   0  0  0  0  0  0
  -23.5030   31.4570    7.2650 O   0  0  0  0  0  0
  -24.7630   32.9520   11.3520 C   0  0  1  0  0  0
  -24.1270   34.3690   11.2830 C   0  0  1  0  0  0
  -23.4030   34.7700   12.6250 C   0  0  2  0  0  0
  -23.9490   34.1670   13.9420 C   0  0  1  0  0  0
  -24.1860   32.7000   13.5940 C   0  0  1  0  0  0
  -24.1850   31.7110   14.7640 C   0  0  0  0  0  0
  -23.2270   34.4600   10.1190 N   0  3  0  0  0  0
  -23.1920   36.1830   12.7900 O   0  0  0  0  0  0
  -23.0140   34.2990   15.0030 O   0  0  0  0  0  0
  -25.2740   32.6280   12.6610 O   0  0  0  0  0  0
  -22.8980   31.1150   14.7590 O   0  0  0  0  0  0
  -37.8143   22.2270    1.4945 H   0  0  0  0  0  0
  -36.5012   22.0561    4.4061 H   0  0  0  0  0  0
  -37.2228   24.6228    2.9414 H   0  0  0  0  0  0
  -38.8009   23.4678    5.3332 H   0  0  0  0  0  0
  -40.4370   25.2932    5.0658 H   0  0  0  0  0  0
  -38.8085   25.8948    5.5267 H   0  0  0  0  0  0
  -38.2869   20.0408    1.7324 H   0  0  0  0  0  0
  -37.6037   19.9956    3.3931 H   0  0  0  0  0  0
  -36.5297   20.3117    1.9884 H   0  0  0  0  0  0
  -35.0036   21.6529    2.5653 H   0  0  0  0  0  0
  -39.6816   27.1557    3.4660 H   0  0  0  0  0  0
  -35.4001   25.6488    3.5447 H   0  0  0  0  0  0
  -34.9879   25.7095    6.6318 H   0  0  0  0  0  0
  -33.5729   27.5943    4.6004 H   0  0  0  0  0  0
  -32.4274   25.2399    6.1353 H   0  0  0  0  0  0
  -33.2522   25.4090    3.1710 H   0  0  0  0  0  0
  -31.0482   24.0746    3.7229 H   0  0  0  0  0  0
  -32.0597   23.0042    4.7514 H   0  0  0  0  0  0
  -36.9808   26.8352    5.9533 H   0  0  0  0  0  0
  -36.0168   27.8904    4.8653 H   0  0  0  0  0  0
  -35.7494   27.9477    6.6407 H   0  0  0  0  0  0
  -34.0034   28.5137    6.9118 H   0  0  0  0  0  0
  -31.9736   22.1033    2.3301 H   0  0  0  0  0  0
  -30.4324   25.7028    6.5092 H   0  0  0  0  0  0
  -29.1707   27.7321    4.6325 H   0  0  0  0  0  0
  -27.6295   26.1284    6.8091 H   0  0  0  0  0  0
  -28.2225   29.1594    6.5483 H   0  0  0  0  0  0
  -29.8515   26.9878    8.0512 H   0  0  0  0  0  0
  -31.0261   28.7786    9.0830 H   0  0  0  0  0  0
  -29.3183   29.3296    9.1642 H   0  0  0  0  0  0
  -29.4140   25.8334    3.3760 H   0  0  0  0  0  0
  -28.2709   24.9708    4.4604 H   0  0  0  0  0  0
  -27.7281   26.4263    3.5584 H   0  0  0  0  0  0
  -26.2255   26.5878    4.8219 H   0  0  0  0  0  0
  -30.7774   31.0990    7.9764 H   0  0  0  0  0  0
  -27.6773   30.0054    8.8713 H   0  0  0  0  0  0
  -24.9129   28.5659    9.2790 H   0  0  0  0  0  0
  -26.2223   30.4460   11.2802 H   0  0  0  0  0  0
  -24.1032   31.4491    9.4997 H   0  0  0  0  0  0
  -26.7714   31.8755    8.2241 H   0  0  0  0  0  0
  -25.1584   31.8536    6.1373 H   0  0  0  0  0  0
  -24.7219   33.0922    7.3629 H   0  0  0  0  0  0
  -26.6252   27.0026    9.8051 H   0  0  0  0  0  0
  -27.2653   28.1427   11.0369 H   0  0  0  0  0  0
  -25.6004   27.4879   11.1982 H   0  0  0  0  0  0
  -24.3873   29.0542   12.1352 H   0  0  0  0  0  0
  -22.6969   31.8204    6.6107 H   0  0  0  0  0  0
  -24.0133   32.1544   11.2439 H   0  0  0  0  0  0
  -24.9169   35.1086   11.0855 H   0  0  0  0  0  0
  -22.3846   34.3767   12.4904 H   0  0  0  0  0  0
  -24.8236   34.6816   14.3666 H   0  0  0  0  0  0
  -23.3428   32.2972   13.0137 H   0  0  0  0  0  0
  -24.3718   32.2533   15.7026 H   0  0  0  0  0  0
  -24.9747   30.9607   14.6106 H   0  0  0  0  0  0
  -23.7740   34.1720    9.2092 H   0  0  0  0  0  0
  -22.3721   33.7828   10.2627 H   0  0  0  0  0  0
  -22.8633   35.4931   10.0166 H   0  0  0  0  0  0
  -22.8044   36.7826   11.9532 H   0  0  0  0  0  0
  -22.7367   35.2980   15.3706 H   0  0  0  0  0  0
  -22.6399   30.3572   15.5134 H   0  0  0  0  0  0
  1  2  1  0  0  0
  1  8  2  0  0  0
  1 11  1  0  0  0
  2  3  1  0  0  0
  2  7  1  0  0  0
  2 57  1  0  0  0
  3  4  1  0  0  0
  3  9  1  0  0  0
  3 58  1  0  0  0
  4  5  1  0  0  0
  4 10  1  0  0  0
  4 59  1  0  0  0
  5  6  1  0  0  0
  5 11  1  0  0  0
  5 60  1  0  0  0
  6 12  1  0  0  0
  6 61  1  0  0  0
  6 62  1  0  0  0
  7 63  1  0  0  0
  7 64  1  0  0  0
  7 65  1  0  0  0
  9 66  1  0  0  0
 10 13  1  0  0  0
 12 67  1  0  0  0
 13 14  1  0  0  0
 13 22  1  0  0  0
 13 68  1  0  0  0
 14 15  1  0  0  0
 14 19  1  0  0  0
 14 69  1  0  0  0
 15 16  1  0  0  0
 15 20  1  0  0  0
 15 70  1  0  0  0
 16 17  1  0  0  0
 16 21  1  0  0  0
 16 71  1  0  0  0
 17 18  1  0  0  0
 17 22  1  0  0  0
 17 72  1  0  0  0
 18 23  1  0  0  0
 18 73  1  0  0  0
 18 74  1  0  0  0
 19 75  1  0  0  0
 19 76  1  0  0  0
 19 77  1  0  0  0
 20 78  1  0  0  0
 21 24  1  0  0  0
 23 79  1  0  0  0
 24 25  1  0  0  0
 24 33  1  0  0  0
 24 80  1  0  0  0
 25 26  1  0  0  0
 25 30  1  0  0  0
 25 81  1  0  0  0
 26 27  1  0  0  0
 26 31  1  0  0  0
 26 82  1  0  0  0
 27 28  1  0  0  0
 27 32  1  0  0  0
 27 83  1  0  0  0
 28 29  1  0  0  0
 28 33  1  0  0  0
 28 84  1  0  0  0
 29 34  1  0  0  0
 29 85  1  0  0  0
 29 86  1  0  0  0
 30 87  1  0  0  0
 30 88  1  0  0  0
 30 89  1  0  0  0
 31 90  1  0  0  0
 32 35  1  0  0  0
 34 91  1  0  0  0
 35 36  1  0  0  0
 35 44  1  0  0  0
 35 92  1  0  0  0
 36 37  1  0  0  0
 36 41  1  0  0  0
 36 93  1  0  0  0
 37 38  1  0  0  0
 37 42  1  0  0  0
 37 94  1  0  0  0
 38 39  1  0  0  0
 38 43  1  0  0  0
 38 95  1  0  0  0
 39 40  1  0  0  0
 39 44  1  0  0  0
 39 96  1  0  0  0
 40 45  1  0  0  0
 40 97  1  0  0  0
 40 98  1  0  0  0
 41 99  1  0  0  0
 41100  1  0  0  0
 41101  1  0  0  0
 42102  1  0  0  0
 43 46  1  0  0  0
 45103  1  0  0  0
 46 47  1  0  0  0
 46 55  1  0  0  0
 46104  1  0  0  0
 47 48  1  0  0  0
 47 52  1  0  0  0
 47105  1  0  0  0
 48 49  1  0  0  0
 48 53  1  0  0  0
 48106  1  0  0  0
 49 50  1  0  0  0
 49 54  1  0  0  0
 49107  1  0  0  0
 50 51  1  0  0  0
 50 55  1  0  0  0
 50108  1  0  0  0
 51 56  1  0  0  0
 51109  1  0  0  0
 51110  1  0  0  0
 52111  1  0  0  0
 52112  1  0  0  0
 52113  1  0  0  0
 53114  1  0  0  0
 54115  1  0  0  0
 56116  1  0  0  0
M  CHG  5   7   1  19   1  30   1  41   1  52   1
M  END
> <s_m_source_file>
../3wqw_ligand.sdf

> <i_m_source_file_index>
1

> <s_epik_input>
Tz1DMVtDQEhdKFtOSDMrXSlbQ0BASF0oW09IXSlbQ0BASF0oW0NASF0oTzEpW0NIMl1bT0hdKU9bQ0BIXTJbQ0BIXShbTkgzK10pW0NAQEhdKFtPSF0pW0NAQEhdKFtDQEhdKE8yKVtDSDJdW09IXSlPW0NASF0zW0NASF0oW05IMytdKVtDQEBIXShbT0hdKVtDQEBIXShbQ0BIXShPMylbQ0gyXVtPSF0pT1tDQEhdNFtDQEhdKFtOSDMrXSlbQ0BASF0oW09IXSlbQ0BASF0oW0NASF0oTzQpW0NIMl1bT0hdKU9bQ0BIXTVbQ0BIXShbTkgzK10pW0NAQEhdKFtPSF0pW0NASF0oW09IXSlbQ0BIXShPNSlbQ0gyXVtPSF0=

> <s_epik_cmdline>
J2VwaWtfYXBwJywgJy1pbWFlJywgJ2xpZ2FuZF9wcm8ubWFlJywgJy1vbWFlJywgJ2xpZ2FuZF9wcmVwLm1hZScsICctbXMnLCAnMScsICctcGgnLCAnNycsICctcGh0JywgJzAuNScsICctbnQn

> <r_epik_Ionization_Penalty>
  1.5026

> <r_epik_Ionization_Penalty_Charging>
  1.5019

> <r_epik_Ionization_Penalty_Neutral>
  0.0007

> <r_epik_State_Penalty>
  0.3821

> <r_epik_Charging_Adjusted_Penalty>
1.88406545772894

> <i_epik_Tot_Q>
5

> <i_epik_Tot_abs_Q>
5

> <s_epik_Chemistry_Notes>
This compound has an ester and may undergo hydrolysis at high or low pH. This compound contains an acetal/aminal-like group ( X-CH(R)-Y where X, Y are N, S, or O) that may be acid/base labile, releasing an aldehyde.

$$$$
