3wsy_ligand
                    3D
 Schrodinger Suite 2020-3.
185186  0  0  1  0            999 V2000
   20.8940   19.1780   57.3670 N   0  3  0  0  0  0
   21.6300   17.9900   56.7860 C   0  0  2  0  0  0
   23.1010   18.3730   56.4830 C   0  0  0  0  0  0
   23.3420   19.2610   55.6660 O   0  0  0  0  0  0
   20.8330   17.4100   55.5780 C   0  0  0  0  0  0
   21.2460   16.4280   54.4580 C   0  0  0  0  0  0
   22.0760   15.2610   54.9540 C   0  0  0  0  0  0
   20.0420   15.9370   53.6450 C   0  0  0  0  0  0
   24.0800   17.7220   57.1620 N   0  0  0  0  0  0
   25.4600   18.2220   57.2870 C   0  0  2  0  0  0
   26.1900   18.4210   55.9640 C   0  0  0  0  0  0
   26.1570   17.5430   55.1040 O   0  0  0  0  0  0
   26.1540   17.1320   58.0990 C   0  0  0  0  0  0
   25.3940   15.9070   57.7660 C   0  0  0  0  0  0
   23.9690   16.3580   57.7000 C   0  0  0  0  0  0
   26.8620   19.5650   55.8430 N   0  0  0  0  0  0
   27.4420   20.0540   54.5820 C   0  0  2  0  0  0
   28.7220   19.3520   54.0930 C   0  0  0  0  0  0
   29.0170   19.3940   52.9010 O   0  0  0  0  0  0
   27.6650   21.5880   54.6300 C   0  0  0  0  0  0
   28.6230   22.1000   55.7150 C   0  0  0  0  0  0
   29.3170   23.4170   55.3530 C   0  0  0  0  0  0
   29.0670   24.4490   55.9740 O   0  0  0  0  0  0
   30.1970   23.3820   54.3490 N   0  0  0  0  0  0
   29.4850   18.7310   54.9900 N   0  0  0  0  0  0
   30.7660   18.1260   54.5920 C   0  0  2  0  0  0
   31.0000   16.7050   55.1350 C   0  0  0  0  0  0
   32.1230   16.3250   55.4820 O   0  0  0  0  0  0
   31.9200   19.0500   54.9720 C   0  0  0  0  0  0
   31.8830   19.4520   56.4270 C   0  0  0  0  0  0
   31.3150   18.6970   57.2510 O   0  0  0  0  0  0
   32.4260   20.5320   56.7430 O   0  0  0  0  0  0
   29.9180   15.9390   55.2050 N   0  0  0  0  0  0
   29.9480   14.5470   55.5940 C   0  0  2  0  0  0
   28.9810   13.7980   54.7200 C   0  0  0  0  0  0
   27.9030   14.2930   54.3970 O   0  0  0  0  0  0
   29.4840   14.3830   57.0350 C   0  0  0  0  0  0
   30.2930   15.1680   58.0390 C   0  0  0  0  0  0
   29.5270   15.3150   59.3370 C   0  0  0  0  0  0
   30.4290   15.5660   60.4490 N   0  0  0  0  0  0
   31.1480   14.6230   61.0410 C   0  0  0  0  0  0
   31.0810   13.3610   60.6290 N   0  0  0  0  0  0
   31.9430   14.9440   62.0450 N   0  0  0  0  0  0
   29.3590   12.5850   54.3620 N   0  0  0  0  0  0
   28.4480   11.6960   53.6800 C   0  0  0  0  0  0
   28.3940   12.0400   52.2210 C   0  0  0  0  0  0
   27.3530   12.4820   51.7140 O   0  0  0  0  0  0
   29.5360   11.8460   51.5590 N   0  0  0  0  0  0
   29.6610   12.1020   50.1260 C   0  0  2  0  0  0
   30.0900   10.8760   49.3540 C   0  0  0  0  0  0
   30.9290   10.0840   49.7850 O   0  0  0  0  0  0
   30.5400   13.3160   49.8480 C   0  0  0  0  0  0
   29.8740   14.5980   50.2140 C   0  0  0  0  0  0
   30.0270   15.1360   51.4890 C   0  0  0  0  0  0
   29.0250   15.2330   49.3180 C   0  0  0  0  0  0
   29.3750   16.3120   51.8470 C   0  0  0  0  0  0
   28.3710   16.4110   49.6700 C   0  0  0  0  0  0
   28.5400   16.9460   50.9360 C   0  0  0  0  0  0
   29.4850   10.7570   48.1890 N   0  0  0  0  0  0
   29.3760    9.5010   47.5180 C   0  0  2  0  0  0
   29.9540    9.6210   46.1310 C   0  0  0  0  0  0
   29.7670   10.6440   45.4710 O   0  0  0  0  0  0
   27.8950    9.2010   47.4210 C   0  0  0  0  0  0
   27.3190    7.8020   47.4600 C   0  0  0  0  0  0
   28.1760    6.7810   48.1910 C   0  0  0  0  0  0
   25.9590    7.9700   48.1170 C   0  0  0  0  0  0
   30.6520    8.5820   45.6840 N   0  0  0  0  0  0
   31.2580    8.5800   44.3530 C   0  0  2  0  0  0
   31.1030    7.1930   43.7570 C   0  0  0  0  0  0
   31.3760    6.1920   44.4410 O   0  0  0  0  0  0
   32.7680    8.8910   44.4140 C   0  0  0  0  0  0
   33.3300    9.0360   43.0150 C   0  0  0  0  0  0
   33.0340   10.1420   45.2340 C   0  0  0  0  0  0
   30.6960    7.1170   42.4920 N   0  0  0  0  0  0
   30.6150    5.8150   41.8190 C   0  0  2  0  0  0
   31.8800    5.5730   40.9780 C   0  0  0  0  0  0
   32.4550    6.5370   40.4800 O   0  0  0  0  0  0
   29.3600    5.7540   40.9490 C   0  0  0  0  0  0
   29.1580    4.3620   40.4060 C   0  0  0  0  0  0
   28.1500    6.1450   41.7670 C   0  0  0  0  0  0
   32.3290    4.3270   40.8110 N   0  0  0  0  0  0
   33.5420    4.1130   40.0090 C   0  0  2  0  0  0
   33.4120    3.3930   38.6670 C   0  0  0  0  0  0
   32.8160    2.3250   38.5810 O   0  0  0  0  0  0
   34.6360    3.4940   40.8450 C   0  0  0  0  0  0
   35.6990    4.5040   41.2260 C   0  0  0  0  0  0
   37.0530    3.8480   41.4420 C   0  0  0  0  0  0
   37.4440    2.8890   40.7360 O   0  0  0  0  0  0
   37.7860    4.3610   42.4250 N   0  0  0  0  0  0
   33.9010    3.8680   37.6480 O   0  0  0  0  0  0
   21.4625   19.5810   58.2181 H   0  0  0  0  0  0
   19.8977   18.8607   57.7087 H   0  0  0  0  0  0
   20.7869   19.9556   56.5964 H   0  0  0  0  0  0
   21.6801   17.1887   57.5380 H   0  0  0  0  0  0
   19.9607   16.8515   55.9484 H   0  0  0  0  0  0
   20.4938   18.2339   54.9329 H   0  0  0  0  0  0
   21.9059   16.9948   53.7847 H   0  0  0  0  0  0
   22.9314   15.6393   55.5329 H   0  0  0  0  0  0
   22.4428   14.6805   54.0947 H   0  0  0  0  0  0
   21.4562   14.6162   55.5944 H   0  0  0  0  0  0
   19.4572   16.8014   53.2974 H   0  0  0  0  0  0
   19.4093   15.2966   54.2771 H   0  0  0  0  0  0
   20.3959   15.3608   52.7774 H   0  0  0  0  0  0
   25.4284   19.2220   57.7442 H   0  0  0  0  0  0
   27.2088   17.0633   57.7944 H   0  0  0  0  0  0
   26.0968   17.3795   59.1693 H   0  0  0  0  0  0
   25.7439   15.5092   56.8020 H   0  0  0  0  0  0
   25.5502   15.1535   58.5520 H   0  0  0  0  0  0
   23.4895   16.3920   58.6894 H   0  0  0  0  0  0
   23.3616   15.7436   57.0191 H   0  0  0  0  0  0
   26.9711   20.1561   56.7642 H   0  0  0  0  0  0
   26.6497   19.7596   53.8781 H   0  0  0  0  0  0
   28.0832   21.9279   53.6710 H   0  0  0  0  0  0
   26.7045   22.0927   54.8106 H   0  0  0  0  0  0
   28.0641   22.2701   56.6470 H   0  0  0  0  0  0
   29.4107   21.3527   55.8910 H   0  0  0  0  0  0
   30.3907   22.4371   53.8201 H   0  0  0  0  0  0
   30.7281   24.2980   54.0510 H   0  0  0  0  0  0
   29.1506   18.6724   56.0363 H   0  0  0  0  0  0
   30.6775   18.0367   53.4992 H   0  0  0  0  0  0
   32.8759   18.5384   54.7860 H   0  0  0  0  0  0
   31.8707   19.9666   54.3658 H   0  0  0  0  0  0
   31.2779   18.9730   58.3152 H   0  0  0  0  0  0
   28.9617   16.4175   54.9472 H   0  0  0  0  0  0
   30.9863   14.2066   55.4675 H   0  0  0  0  0  0
   28.4414   14.7218   57.1253 H   0  0  0  0  0  0
   29.5516   13.3237   57.3237 H   0  0  0  0  0  0
   31.2385   14.6427   58.2391 H   0  0  0  0  0  0
   30.5078   16.1684   57.6351 H   0  0  0  0  0  0
   28.8252   16.1580   59.2551 H   0  0  0  0  0  0
   28.9670   14.3900   59.5391 H   0  0  0  0  0  0
   30.5436   16.5859   60.8448 H   0  0  0  0  0  0
   30.4198   13.0898   59.7928 H   0  0  0  0  0  0
   31.6868   12.5879   61.1242 H   0  0  0  0  0  0
   32.0011   15.9873   62.3887 H   0  0  0  0  0  0
   30.3831   12.2543   54.5897 H   0  0  0  0  0  0
   28.7935   10.6580   53.7952 H   0  0  0  0  0  0
   27.4424   11.7980   54.1139 H   0  0  0  0  0  0
   30.4021   11.4802   52.1300 H   0  0  0  0  0  0
   28.6380   12.3338   49.7948 H   0  0  0  0  0  0
   31.4687   13.2378   50.4323 H   0  0  0  0  0  0
   30.7835   13.3547   48.7760 H   0  0  0  0  0  0
   30.6644   14.6306   52.2145 H   0  0  0  0  0  0
   28.8685   14.8048   48.3279 H   0  0  0  0  0  0
   29.5194   16.7351   52.8411 H   0  0  0  0  0  0
   27.7257   16.9122   48.9486 H   0  0  0  0  0  0
   28.0195   17.8616   51.2167 H   0  0  0  0  0  0
   29.0569   11.6625   47.7342 H   0  0  0  0  0  0
   29.9341    8.7447   48.0894 H   0  0  0  0  0  0
   27.3667    9.6892   48.2532 H   0  0  0  0  0  0
   27.5055    9.5822   46.4655 H   0  0  0  0  0  0
   27.2639    7.3898   46.4416 H   0  0  0  0  0  0
   29.1486    6.6894   47.6854 H   0  0  0  0  0  0
   27.6675    5.8056   48.1873 H   0  0  0  0  0  0
   28.3319    7.1093   49.2292 H   0  0  0  0  0  0
   25.3720    8.7147   47.5595 H   0  0  0  0  0  0
   26.0925    8.3103   49.1545 H   0  0  0  0  0  0
   25.4281    7.0066   48.1125 H   0  0  0  0  0  0
   30.7685    7.7087   46.3427 H   0  0  0  0  0  0
   30.7203    9.3510   43.7816 H   0  0  0  0  0  0
   33.2917    8.0578   44.9055 H   0  0  0  0  0  0
   33.1258    8.1201   42.4411 H   0  0  0  0  0  0
   34.4164    9.1989   43.0714 H   0  0  0  0  0  0
   32.8559    9.8944   42.5166 H   0  0  0  0  0  0
   32.6177   10.0137   46.2441 H   0  0  0  0  0  0
   32.5582   11.0067   44.7484 H   0  0  0  0  0  0
   34.1187   10.3113   45.3032 H   0  0  0  0  0  0
   30.4199    8.0340   41.9508 H   0  0  0  0  0  0
   30.5457    5.0537   42.6100 H   0  0  0  0  0  0
   29.4759    6.4481   40.1035 H   0  0  0  0  0  0
   30.0349    4.0704   39.8093 H   0  0  0  0  0  0
   28.2598    4.3428   39.7713 H   0  0  0  0  0  0
   29.0320    3.6573   41.2412 H   0  0  0  0  0  0
   28.2901    7.1602   42.1668 H   0  0  0  0  0  0
   28.0259    5.4369   42.5996 H   0  0  0  0  0  0
   27.2537    6.1224   41.1297 H   0  0  0  0  0  0
   31.8086    3.4687   41.2609 H   0  0  0  0  0  0
   33.7722    5.1532   39.7353 H   0  0  0  0  0  0
   32.7312    1.8193   37.6078 H   0  0  0  0  0  0
   34.2036    3.0848   41.7700 H   0  0  0  0  0  0
   35.1185    2.6851   40.2768 H   0  0  0  0  0  0
   35.8015    5.2490   40.4232 H   0  0  0  0  0  0
   35.4079    5.0083   42.1592 H   0  0  0  0  0  0
   37.3994    5.2034   43.0174 H   0  0  0  0  0  0
   38.7792    3.9432   42.6461 H   0  0  0  0  0  0
  1  2  1  0  0  0
  1 91  1  0  0  0
  1 92  1  0  0  0
  1 93  1  0  0  0
  2  3  1  0  0  0
  2  5  1  0  0  0
  2 94  1  0  0  0
  3  4  2  0  0  0
  3  9  1  0  0  0
  5  6  1  0  0  0
  5 95  1  0  0  0
  5 96  1  0  0  0
  6  7  1  0  0  0
  6  8  1  0  0  0
  6 97  1  0  0  0
  7 98  1  0  0  0
  7 99  1  0  0  0
  7100  1  0  0  0
  8101  1  0  0  0
  8102  1  0  0  0
  8103  1  0  0  0
  9 10  1  0  0  0
  9 15  1  0  0  0
 10 11  1  0  0  0
 10 13  1  0  0  0
 10104  1  0  0  0
 11 12  2  0  0  0
 11 16  1  0  0  0
 13 14  1  0  0  0
 13105  1  0  0  0
 13106  1  0  0  0
 14 15  1  0  0  0
 14107  1  0  0  0
 14108  1  0  0  0
 15109  1  0  0  0
 15110  1  0  0  0
 16 17  1  0  0  0
 16111  1  0  0  0
 17 18  1  0  0  0
 17 20  1  0  0  0
 17112  1  0  0  0
 18 19  2  0  0  0
 18 25  1  0  0  0
 20 21  1  0  0  0
 20113  1  0  0  0
 20114  1  0  0  0
 21 22  1  0  0  0
 21115  1  0  0  0
 21116  1  0  0  0
 22 23  2  0  0  0
 22 24  1  0  0  0
 24117  1  0  0  0
 24118  1  0  0  0
 25 26  1  0  0  0
 25119  1  0  0  0
 26 27  1  0  0  0
 26 29  1  0  0  0
 26120  1  0  0  0
 27 28  2  0  0  0
 27 33  1  0  0  0
 29 30  1  0  0  0
 29121  1  0  0  0
 29122  1  0  0  0
 30 31  1  0  0  0
 30 32  2  0  0  0
 31123  1  0  0  0
 33 34  1  0  0  0
 33124  1  0  0  0
 34 35  1  0  0  0
 34 37  1  0  0  0
 34125  1  0  0  0
 35 36  2  0  0  0
 35 44  1  0  0  0
 37 38  1  0  0  0
 37126  1  0  0  0
 37127  1  0  0  0
 38 39  1  0  0  0
 38128  1  0  0  0
 38129  1  0  0  0
 39 40  1  0  0  0
 39130  1  0  0  0
 39131  1  0  0  0
 40 41  1  0  0  0
 40132  1  0  0  0
 41 42  1  0  0  0
 41 43  2  0  0  0
 42133  1  0  0  0
 42134  1  0  0  0
 43135  1  0  0  0
 44 45  1  0  0  0
 44136  1  0  0  0
 45 46  1  0  0  0
 45137  1  0  0  0
 45138  1  0  0  0
 46 47  2  0  0  0
 46 48  1  0  0  0
 48 49  1  0  0  0
 48139  1  0  0  0
 49 50  1  0  0  0
 49 52  1  0  0  0
 49140  1  0  0  0
 50 51  2  0  0  0
 50 59  1  0  0  0
 52 53  1  0  0  0
 52141  1  0  0  0
 52142  1  0  0  0
 53 54  2  0  0  0
 53 55  1  0  0  0
 54 56  1  0  0  0
 54143  1  0  0  0
 55 57  2  0  0  0
 55144  1  0  0  0
 56 58  2  0  0  0
 56145  1  0  0  0
 57 58  1  0  0  0
 57146  1  0  0  0
 58147  1  0  0  0
 59 60  1  0  0  0
 59148  1  0  0  0
 60 61  1  0  0  0
 60 63  1  0  0  0
 60149  1  0  0  0
 61 62  2  0  0  0
 61 67  1  0  0  0
 63 64  1  0  0  0
 63150  1  0  0  0
 63151  1  0  0  0
 64 65  1  0  0  0
 64 66  1  0  0  0
 64152  1  0  0  0
 65153  1  0  0  0
 65154  1  0  0  0
 65155  1  0  0  0
 66156  1  0  0  0
 66157  1  0  0  0
 66158  1  0  0  0
 67 68  1  0  0  0
 67159  1  0  0  0
 68 69  1  0  0  0
 68 71  1  0  0  0
 68160  1  0  0  0
 69 70  2  0  0  0
 69 74  1  0  0  0
 71 72  1  0  0  0
 71 73  1  0  0  0
 71161  1  0  0  0
 72162  1  0  0  0
 72163  1  0  0  0
 72164  1  0  0  0
 73165  1  0  0  0
 73166  1  0  0  0
 73167  1  0  0  0
 74 75  1  0  0  0
 74168  1  0  0  0
 75 76  1  0  0  0
 75 78  1  0  0  0
 75169  1  0  0  0
 76 77  2  0  0  0
 76 81  1  0  0  0
 78 79  1  0  0  0
 78 80  1  0  0  0
 78170  1  0  0  0
 79171  1  0  0  0
 79172  1  0  0  0
 79173  1  0  0  0
 80174  1  0  0  0
 80175  1  0  0  0
 80176  1  0  0  0
 81 82  1  0  0  0
 81177  1  0  0  0
 82 83  1  0  0  0
 82 85  1  0  0  0
 82178  1  0  0  0
 83 84  1  0  0  0
 83 90  2  0  0  0
 84179  1  0  0  0
 85 86  1  0  0  0
 85180  1  0  0  0
 85181  1  0  0  0
 86 87  1  0  0  0
 86182  1  0  0  0
 86183  1  0  0  0
 87 88  2  0  0  0
 87 89  1  0  0  0
 89184  1  0  0  0
 89185  1  0  0  0
M  CHG  1   1   1
M  END
> <s_m_source_file>
../3wsy_ligand.sdf

> <i_m_source_file_index>
1

> <s_epik_input>
W0NIM11bQ0hdKFtDSDNdKVtDSDJdW0NASF0oW05IMytdKUMoPU8pTjFbQ0BASF0oW0NIMl1bQ0gyXVtDSDJdMSlDKD1PKVtOSF1bQ0BASF0oW0NIMl1bQ0gyXUMoPU8pW05IMl0pQyg9TylbTkhdW0NAQEhdKFtDSDJdQyg9TylbT0hdKUMoPU8pW05IXVtDQEBIXShbQ0gyXVtDSDJdW0NIMl1bTkhdL0MoW05IMl0pPU5cW0hdKUMoPU8pW05IXVtDSDJdQyg9TylbTkhdW0NAQEhdKFtDSDJdYzJbY0hdW2NIXVtjSF1bY0hdW2NIXTIpQyg9TylbTkhdW0NAQEhdKFtDSDJdW0NIXShbQ0gzXSlbQ0gzXSlDKD1PKVtOSF1bQ0BASF0oW0NIXShbQ0gzXSlbQ0gzXSlDKD1PKVtOSF1bQ0BASF0oW0NIXShbQ0gzXSlbQ0gzXSlDKD1PKVtOSF1bQ0BIXShDKD1PKVtPSF0pW0NIMl1bQ0gyXUMoPU8pW05IMl0=

> <s_epik_cmdline>
J2VwaWtfYXBwJywgJy1pbWFlJywgJ2xpZ2FuZF9wcm8ubWFlJywgJy1vbWFlJywgJ2xpZ2FuZF9wcmVwLm1hZScsICctbXMnLCAnMScsICctcGgnLCAnNycsICctcGh0JywgJzAuNScsICctbnQn

> <s_epik_pKa_notes>
Molecule size exceeds maximum supported for generating protonation states

> <s_epik_Chemistry_Notes>
This compound has an imine and may undergo hydrolysis.

$$$$
