3wt5_ligand
                    3D
 Schrodinger Suite 2020-3.
 86 88  0  0  1  0            999 V2000
   12.5990    8.9660   55.8230 O   0  0  0  0  0  0
   11.4810    8.8990   54.9070 C   0  0  1  0  0  0
   11.6460    7.6600   54.0680 C   0  0  0  0  0  0
   11.8500    7.8200   52.8100 C   0  0  0  0  0  0
   11.6650    6.3650   54.7650 C   0  0  2  0  0  0
   11.7730    5.2790   53.8150 O   0  0  0  0  0  0
   10.4430    6.2070   55.6170 C   0  0  0  0  0  0
   10.1520    8.7940   55.6310 C   0  0  0  0  0  0
   10.0010    7.4680   56.3240 C   0  0  0  0  0  0
    9.3830    7.4390   57.5040 C   0  0  0  0  0  0
    9.1280    6.2020   58.2670 C   0  0  0  0  0  0
    8.1220    6.1320   59.1570 C   0  0  0  0  0  0
    7.1920    7.2760   59.4780 C   0  0  0  0  0  0
    5.6880    6.8080   59.4490 C   0  0  0  0  0  0
    5.4370    5.4590   60.1050 C   0  0  0  0  0  0
    7.8220    4.8690   59.8760 C   0  0  1  0  0  0
    6.4030    4.4170   59.5930 C   0  0  2  0  0  0
    6.1560    4.2450   58.1170 C   0  0  0  0  0  0
    8.6790    3.6530   59.6940 C   0  0  0  0  0  0
    7.7640    2.5230   60.2120 C   0  0  0  0  0  0
    6.3660    3.0580   60.3370 C   0  0  2  0  0  0
    5.2760    2.0690   59.8460 C   0  0  2  0  0  0
    3.8790    2.7150   59.7600 C   0  0  0  0  0  0
    5.2210    0.8170   60.6990 C   0  0  2  0  0  0
    4.0930   -0.1400   60.2260 C   0  0  0  0  0  0
    4.2370   -0.5060   58.7560 C   0  0  0  0  0  0
    5.3480   -1.4810   58.6000 C   0  0  0  0  0  0
    5.2090   -2.3170   57.3290 C   0  0  0  0  0  0
    4.9750    1.1190   62.1790 C   0  0  0  0  0  0
    4.9120   -0.1790   62.9970 C   0  0  0  0  0  0
    5.0380   -0.0220   64.5350 C   0  0  0  0  0  0
    6.4350    0.4150   64.8990 C   0  0  0  0  0  0
    3.9730    0.9520   65.0550 C   0  0  0  0  0  0
    4.8430   -1.3130   65.1350 O   0  0  0  0  0  0
   13.6249    9.0447   55.4339 H   0  0  0  0  0  0
   11.5146    9.8304   54.3228 H   0  0  0  0  0  0
   11.8169    8.8282   52.3713 H   0  0  0  0  0  0
   12.0578    6.9488   52.1713 H   0  0  0  0  0  0
   12.5648    6.3245   55.3964 H   0  0  0  0  0  0
   12.6183    5.2453   53.1119 H   0  0  0  0  0  0
    9.5995    5.8801   54.9912 H   0  0  0  0  0  0
   10.6343    5.4549   56.3966 H   0  0  0  0  0  0
   10.0823    9.5901   56.3868 H   0  0  0  0  0  0
    9.3307    8.9025   54.9074 H   0  0  0  0  0  0
    9.0302    8.3742   57.9632 H   0  0  0  0  0  0
    9.7754    5.3287   58.0990 H   0  0  0  0  0  0
    7.4208    7.6640   60.4815 H   0  0  0  0  0  0
    7.3260    8.0768   58.7359 H   0  0  0  0  0  0
    5.0649    7.5434   59.9791 H   0  0  0  0  0  0
    5.3498    6.7252   58.4056 H   0  0  0  0  0  0
    5.5639    5.5515   61.1937 H   0  0  0  0  0  0
    4.4119    5.1280   59.8822 H   0  0  0  0  0  0
    8.0474    5.2175   60.8947 H   0  0  0  0  0  0
    6.1894    5.2271   57.6228 H   0  0  0  0  0  0
    5.1668    3.7897   57.9614 H   0  0  0  0  0  0
    6.9314    3.5926   57.6891 H   0  0  0  0  0  0
    8.9363    3.5416   58.6303 H   0  0  0  0  0  0
    9.6005    3.7621   60.2846 H   0  0  0  0  0  0
    7.7814    1.6827   59.5023 H   0  0  0  0  0  0
    8.1234    2.1812   61.1938 H   0  0  0  0  0  0
    6.0974    3.1865   61.3959 H   0  0  0  0  0  0
    5.5680    1.7601   58.8314 H   0  0  0  0  0  0
    3.9318    3.6215   59.1392 H   0  0  0  0  0  0
    3.5357    2.9820   60.7704 H   0  0  0  0  0  0
    3.1727    2.0024   59.3091 H   0  0  0  0  0  0
    6.2175    0.3660   60.5827 H   0  0  0  0  0  0
    4.1275   -1.0675   60.8164 H   0  0  0  0  0  0
    3.1166    0.3471   60.3651 H   0  0  0  0  0  0
    3.2994   -0.9550   58.3964 H   0  0  0  0  0  0
    4.4571    0.4001   58.1724 H   0  0  0  0  0  0
    6.3052   -0.9413   58.5506 H   0  0  0  0  0  0
    5.3577   -2.1666   59.4601 H   0  0  0  0  0  0
    6.0516   -3.0206   57.2590 H   0  0  0  0  0  0
    5.2115   -1.6535   56.4516 H   0  0  0  0  0  0
    4.2638   -2.8788   57.3612 H   0  0  0  0  0  0
    5.7935    1.7432   62.5668 H   0  0  0  0  0  0
    4.0209    1.6549   62.2902 H   0  0  0  0  0  0
    3.9478   -0.6778   62.8196 H   0  0  0  0  0  0
    5.7315   -0.8457   62.6906 H   0  0  0  0  0  0
    6.6356    1.4040   64.4612 H   0  0  0  0  0  0
    7.1606   -0.3132   64.5077 H   0  0  0  0  0  0
    6.5275    0.4729   65.9936 H   0  0  0  0  0  0
    4.1235    1.9397   64.5949 H   0  0  0  0  0  0
    4.0589    1.0398   66.1481 H   0  0  0  0  0  0
    2.9730    0.5749   64.7949 H   0  0  0  0  0  0
    5.5161   -2.1450   64.8807 H   0  0  0  0  0  0
  1  2  1  0  0  0
  1 35  1  0  0  0
  2  3  1  0  0  0
  2  8  1  0  0  0
  2 36  1  0  0  0
  3  4  2  0  0  0
  3  5  1  0  0  0
  4 37  1  0  0  0
  4 38  1  0  0  0
  5  6  1  0  0  0
  5  7  1  0  0  0
  5 39  1  0  0  0
  6 40  1  0  0  0
  7  9  1  0  0  0
  7 41  1  0  0  0
  7 42  1  0  0  0
  8  9  1  0  0  0
  8 43  1  0  0  0
  8 44  1  0  0  0
  9 10  2  0  0  0
 10 11  1  0  0  0
 10 45  1  0  0  0
 11 12  2  0  0  0
 11 46  1  0  0  0
 12 13  1  0  0  0
 12 16  1  0  0  0
 13 14  1  0  0  0
 13 47  1  0  0  0
 13 48  1  0  0  0
 14 15  1  0  0  0
 14 49  1  0  0  0
 14 50  1  0  0  0
 15 17  1  0  0  0
 15 51  1  0  0  0
 15 52  1  0  0  0
 16 17  1  0  0  0
 16 19  1  0  0  0
 16 53  1  0  0  0
 17 18  1  0  0  0
 17 21  1  0  0  0
 18 54  1  0  0  0
 18 55  1  0  0  0
 18 56  1  0  0  0
 19 20  1  0  0  0
 19 57  1  0  0  0
 19 58  1  0  0  0
 20 21  1  0  0  0
 20 59  1  0  0  0
 20 60  1  0  0  0
 21 22  1  0  0  0
 21 61  1  0  0  0
 22 23  1  0  0  0
 22 24  1  0  0  0
 22 62  1  0  0  0
 23 63  1  0  0  0
 23 64  1  0  0  0
 23 65  1  0  0  0
 24 25  1  0  0  0
 24 29  1  0  0  0
 24 66  1  0  0  0
 25 26  1  0  0  0
 25 67  1  0  0  0
 25 68  1  0  0  0
 26 27  1  0  0  0
 26 69  1  0  0  0
 26 70  1  0  0  0
 27 28  1  0  0  0
 27 71  1  0  0  0
 27 72  1  0  0  0
 28 73  1  0  0  0
 28 74  1  0  0  0
 28 75  1  0  0  0
 29 30  1  0  0  0
 29 76  1  0  0  0
 29 77  1  0  0  0
 30 31  1  0  0  0
 30 78  1  0  0  0
 30 79  1  0  0  0
 31 32  1  0  0  0
 31 33  1  0  0  0
 31 34  1  0  0  0
 32 80  1  0  0  0
 32 81  1  0  0  0
 32 82  1  0  0  0
 33 83  1  0  0  0
 33 84  1  0  0  0
 33 85  1  0  0  0
 34 86  1  0  0  0
M  END
> <s_m_source_file>
../3wt5_ligand.sdf

> <i_m_source_file_index>
1

> <s_epik_input>
W09IXVtDQEhdMUMoPVtDSDJdKVtDQEhdKFtPSF0pW0NIMl1DKFtDSDJdMSk9W0NIXS9bQ0hdPUMoXFtDSDJdW0NIMl1bQ0gyXTIpW0NAQEhdKFtDQF0yM1tDSDNdKVtDSDJdW0NIMl1bQ0BASF0zW0NASF0oW0NIM10pW0NASF0oW0NIMl1bQ0gyXVtDSDJdW0NIM10pW0NIMl1bQ0gyXUMoW0NIM10pKFtDSDNdKVtPSF0=

> <s_epik_cmdline>
J2VwaWtfYXBwJywgJy1pbWFlJywgJ2xpZ2FuZF9wcm8ubWFlJywgJy1vbWFlJywgJ2xpZ2FuZF9wcmVwLm1hZScsICctbXMnLCAnMScsICctcGgnLCAnNycsICctcGh0JywgJzAuNScsICctbnQn

> <r_lp_tautomer_probability>
1

> <r_epik_Ionization_Penalty>
  0.0000

> <r_epik_Ionization_Penalty_Charging>
  0.0000

> <r_epik_Ionization_Penalty_Neutral>
  0.0000

> <r_epik_State_Penalty>
 -0.0000

> <r_epik_Charging_Adjusted_Penalty>
0

> <i_epik_Tot_Q>
0

> <i_epik_Tot_abs_Q>
0

$$$$
