3wt7_ligand
                    3D
 Schrodinger Suite 2020-3.
 89 91  0  0  1  0            999 V2000
    2.1660   -0.6100   59.2180 O   0  0  0  0  0  0
    2.6420    0.1330   58.1250 C   0  0  0  0  0  0
    2.8900   -0.9000   57.0220 C   0  0  0  0  0  0
    1.6270   -1.6020   56.5910 C   0  0  0  0  0  0
    1.5200    1.1490   57.7860 C   0  0  0  0  0  0
    1.8510    1.9070   56.5170 C   0  0  0  0  0  0
    4.0000    0.7880   58.4930 C   0  0  0  0  0  0
    3.8350    1.7930   59.6350 C   0  0  1  0  0  0
    4.6220    1.3220   60.8810 C   0  0  0  0  0  0
    4.0210    1.9570   62.1230 C   0  0  0  0  0  0
    4.7940    1.5040   63.3630 C   0  0  0  0  0  0
    4.2700    2.2260   64.5840 C   0  0  0  0  0  0
    4.1150    3.2310   59.1690 C   0  0  1  0  0  0
    2.9800    4.0850   59.6700 C   0  0  0  0  0  0
    5.5140    3.7460   59.5510 C   0  0  1  0  0  0
    6.6350    2.9210   58.8600 C   0  0  0  0  0  0
    7.7720    3.9010   58.5090 C   0  0  0  0  0  0
    5.8360    5.2000   59.1790 C   0  0  1  0  0  0
    7.3510    5.2190   59.2210 C   0  0  2  0  0  0
    5.3150    5.5060   57.7410 C   0  0  0  0  0  0
    5.3850    6.2630   60.1380 C   0  0  0  0  0  0
    5.7940    7.6450   59.6290 C   0  0  0  0  0  0
    7.2870    7.7650   59.3680 C   0  0  0  0  0  0
    7.8450    6.5080   58.6690 C   0  0  0  0  0  0
    8.7080    6.5390   57.6400 C   0  0  0  0  0  0
    9.1480    7.8080   57.0790 C   0  0  0  0  0  0
    9.7890    7.9100   55.8970 C   0  0  0  0  0  0
   10.1540    9.2750   55.3500 C   0  0  0  0  0  0
   10.1440    6.6520   55.1240 C   0  0  0  0  0  0
   11.5280    6.7300   54.4810 C   0  0  1  0  0  0
   11.7030    5.6130   53.5320 O   0  0  0  0  0  0
   11.6890    8.0620   53.8350 C   0  0  0  0  0  0
   11.9930    8.1260   52.5740 C   0  0  0  0  0  0
   11.5080    9.3130   54.6480 C   0  0  2  0  0  0
   12.5950    9.4290   55.5920 O   0  0  0  0  0  0
    1.2097   -1.1484   59.1424 H   0  0  0  0  0  0
    3.3161   -0.3995   56.1400 H   0  0  0  0  0  0
    3.5934   -1.6634   57.3860 H   0  0  0  0  0  0
    1.8634   -2.3295   55.8005 H   0  0  0  0  0  0
    0.9095   -0.8624   56.2061 H   0  0  0  0  0  0
    1.1868   -2.1262   57.4521 H   0  0  0  0  0  0
    0.5705    0.6124   57.6426 H   0  0  0  0  0  0
    1.4140    1.8674   58.6122 H   0  0  0  0  0  0
    1.0440    2.6208   56.2952 H   0  0  0  0  0  0
    1.9530    1.1978   55.6823 H   0  0  0  0  0  0
    2.7964    2.4528   56.6520 H   0  0  0  0  0  0
    4.7090    0.0089   58.8096 H   0  0  0  0  0  0
    4.4025    1.3154   57.6156 H   0  0  0  0  0  0
    2.7801    1.8255   59.9450 H   0  0  0  0  0  0
    4.5609    0.2266   60.9608 H   0  0  0  0  0  0
    5.6753    1.6244   60.7854 H   0  0  0  0  0  0
    4.0781    3.0523   62.0390 H   0  0  0  0  0  0
    2.9688    1.6510   62.2187 H   0  0  0  0  0  0
    4.6668    0.4198   63.4986 H   0  0  0  0  0  0
    5.8618    1.7346   63.2340 H   0  0  0  0  0  0
    4.8288    1.8969   65.4725 H   0  0  0  0  0  0
    3.2025    1.9957   64.7161 H   0  0  0  0  0  0
    4.3975    3.3105   64.4515 H   0  0  0  0  0  0
    4.1280    3.2872   58.0705 H   0  0  0  0  0  0
    2.0228    3.6454   59.3530 H   0  0  0  0  0  0
    3.0732    5.0992   59.2545 H   0  0  0  0  0  0
    3.0152    4.1340   60.7683 H   0  0  0  0  0  0
    5.4806    3.6595   60.6471 H   0  0  0  0  0  0
    6.9944    2.1421   59.5485 H   0  0  0  0  0  0
    6.2355    2.4499   57.9498 H   0  0  0  0  0  0
    8.7261    3.5069   58.8891 H   0  0  0  0  0  0
    7.8322    4.0168   57.4168 H   0  0  0  0  0  0
    7.8100    5.2557   60.2200 H   0  0  0  0  0  0
    5.6545    4.7180   57.0526 H   0  0  0  0  0  0
    5.7077    6.4780   57.4079 H   0  0  0  0  0  0
    4.2155    5.5377   57.7484 H   0  0  0  0  0  0
    4.2901    6.2266   60.2374 H   0  0  0  0  0  0
    5.8483    6.0908   61.1207 H   0  0  0  0  0  0
    5.2719    7.8571   58.6843 H   0  0  0  0  0  0
    5.5236    8.4057   60.3761 H   0  0  0  0  0  0
    7.4775    8.6346   58.7219 H   0  0  0  0  0  0
    7.8170    7.8948   60.3231 H   0  0  0  0  0  0
    9.0891    5.5995   57.2133 H   0  0  0  0  0  0
    8.9344    8.7117   57.6686 H   0  0  0  0  0  0
    9.3967    9.5909   54.6175 H   0  0  0  0  0  0
   10.1924   10.0022   56.1745 H   0  0  0  0  0  0
   10.1358    5.7884   55.8053 H   0  0  0  0  0  0
    9.4072    6.4938   54.3227 H   0  0  0  0  0  0
   12.3384    6.6241   55.2172 H   0  0  0  0  0  0
   11.6095    4.5743   53.8818 H   0  0  0  0  0  0
   12.1223    7.2017   51.9918 H   0  0  0  0  0  0
   12.1212    9.1045   52.0881 H   0  0  0  0  0  0
   11.5736   10.2083   54.0122 H   0  0  0  0  0  0
   12.6370   10.2864   56.2798 H   0  0  0  0  0  0
  1  2  1  0  0  0
  1 36  1  0  0  0
  2  3  1  0  0  0
  2  5  1  0  0  0
  2  7  1  0  0  0
  3  4  1  0  0  0
  3 37  1  0  0  0
  3 38  1  0  0  0
  4 39  1  0  0  0
  4 40  1  0  0  0
  4 41  1  0  0  0
  5  6  1  0  0  0
  5 42  1  0  0  0
  5 43  1  0  0  0
  6 44  1  0  0  0
  6 45  1  0  0  0
  6 46  1  0  0  0
  7  8  1  0  0  0
  7 47  1  0  0  0
  7 48  1  0  0  0
  8  9  1  0  0  0
  8 13  1  0  0  0
  8 49  1  0  0  0
  9 10  1  0  0  0
  9 50  1  0  0  0
  9 51  1  0  0  0
 10 11  1  0  0  0
 10 52  1  0  0  0
 10 53  1  0  0  0
 11 12  1  0  0  0
 11 54  1  0  0  0
 11 55  1  0  0  0
 12 56  1  0  0  0
 12 57  1  0  0  0
 12 58  1  0  0  0
 13 14  1  0  0  0
 13 15  1  0  0  0
 13 59  1  0  0  0
 14 60  1  0  0  0
 14 61  1  0  0  0
 14 62  1  0  0  0
 15 16  1  0  0  0
 15 18  1  0  0  0
 15 63  1  0  0  0
 16 17  1  0  0  0
 16 64  1  0  0  0
 16 65  1  0  0  0
 17 19  1  0  0  0
 17 66  1  0  0  0
 17 67  1  0  0  0
 18 19  1  0  0  0
 18 20  1  0  0  0
 18 21  1  0  0  0
 19 24  1  0  0  0
 19 68  1  0  0  0
 20 69  1  0  0  0
 20 70  1  0  0  0
 20 71  1  0  0  0
 21 22  1  0  0  0
 21 72  1  0  0  0
 21 73  1  0  0  0
 22 23  1  0  0  0
 22 74  1  0  0  0
 22 75  1  0  0  0
 23 24  1  0  0  0
 23 76  1  0  0  0
 23 77  1  0  0  0
 24 25  2  0  0  0
 25 26  1  0  0  0
 25 78  1  0  0  0
 26 27  2  0  0  0
 26 79  1  0  0  0
 27 28  1  0  0  0
 27 29  1  0  0  0
 28 34  1  0  0  0
 28 80  1  0  0  0
 28 81  1  0  0  0
 29 30  1  0  0  0
 29 82  1  0  0  0
 29 83  1  0  0  0
 30 31  1  0  0  0
 30 32  1  0  0  0
 30 84  1  0  0  0
 31 85  1  0  0  0
 32 33  2  0  0  0
 32 34  1  0  0  0
 33 86  1  0  0  0
 33 87  1  0  0  0
 34 35  1  0  0  0
 34 88  1  0  0  0
 35 89  1  0  0  0
M  END
> <s_m_source_file>
../3wt7_ligand.sdf

> <i_m_source_file_index>
1

> <s_epik_input>
W0NIM11bQ0gyXUMoW09IXSkoW0NIMl1bQ0gzXSlbQ0gyXVtDQEBIXShbQ0gyXVtDSDJdW0NIMl1bQ0gzXSlbQ0BASF0oW0NIM10pW0NASF0xW0NIMl1bQ0gyXVtDQEhdKFtDQEBdMTJbQ0gzXSkvQyhbQ0gyXVtDSDJdW0NIMl0yKT1bQ0hdL1tDSF09QzNbQ0gyXVtDQEBIXShbT0hdKUMoPVtDSDJdKVtDQEBIXShbQ0gyXTMpW09IXQ==

> <s_epik_cmdline>
J2VwaWtfYXBwJywgJy1pbWFlJywgJ2xpZ2FuZF9wcm8ubWFlJywgJy1vbWFlJywgJ2xpZ2FuZF9wcmVwLm1hZScsICctbXMnLCAnMScsICctcGgnLCAnNycsICctcGh0JywgJzAuNScsICctbnQn

> <r_lp_tautomer_probability>
1

> <r_epik_Ionization_Penalty>
  0.0000

> <r_epik_Ionization_Penalty_Charging>
  0.0000

> <r_epik_Ionization_Penalty_Neutral>
  0.0000

> <r_epik_State_Penalty>
 -0.0000

> <r_epik_Charging_Adjusted_Penalty>
0

> <i_epik_Tot_Q>
0

> <i_epik_Tot_abs_Q>
0

$$$$
