3wth_ligand
                    3D
 Schrodinger Suite 2020-3.
 25 26  0  0  1  0            999 V2000
   29.8560  -27.6020  -31.3680 C   0  0  0  0  0  0
   29.3540  -26.8250  -32.4410 C   0  0  0  0  0  0
   29.5090  -25.4140  -32.3870 C   0  0  0  0  0  0
   28.9150  -24.4310  -33.6930 Cl  0  0  0  0  0  0
   30.1200  -24.8280  -31.3360 N   0  0  0  0  0  0
   30.6060  -25.5360  -30.3030 C   0  0  0  0  0  0
   30.4990  -26.9610  -30.2690 C   0  0  0  0  0  0
   31.0550  -27.7770  -29.0910 C   0  0  0  0  0  0
   30.4750  -27.4690  -27.7720 N   0  0  0  0  0  0
   31.0470  -26.4860  -26.8430 C   0  0  0  0  0  0
   30.1240  -26.4880  -25.6040 C   0  0  0  0  0  0
   29.0780  -27.4740  -25.9010 N   0  0  0  0  0  0
   29.3130  -28.0280  -27.1790 C   0  0  0  0  0  0
   28.5980  -28.9220  -27.7480 N   0  0  0  0  0  0
   27.4680  -29.6000  -27.4070 N   0  3  0  0  0  0
   27.0040  -30.4590  -28.2380 O   0  0  0  0  0  0
   26.8430  -29.4210  -26.2870 O   0  5  0  0  0  0
   29.7509  -28.6868  -31.3827 H   0  0  0  0  0  0
   28.8599  -27.2992  -33.2890 H   0  0  0  0  0  0
   31.0901  -25.0151  -29.4769 H   0  0  0  0  0  0
   30.8710  -28.8471  -29.2670 H   0  0  0  0  0  0
   32.1371  -27.6009  -29.0013 H   0  0  0  0  0  0
   31.9396  -25.8794  -26.9961 H   0  0  0  0  0  0
   30.2275  -25.8855  -24.7016 H   0  0  0  0  0  0
   28.2826  -27.6701  -25.1669 H   0  0  0  0  0  0
  1  2  2  0  0  0
  1  7  1  0  0  0
  1 18  1  0  0  0
  2  3  1  0  0  0
  2 19  1  0  0  0
  3  4  1  0  0  0
  3  5  2  0  0  0
  5  6  1  0  0  0
  6  7  2  0  0  0
  6 20  1  0  0  0
  7  8  1  0  0  0
  8  9  1  0  0  0
  8 21  1  0  0  0
  8 22  1  0  0  0
  9 10  1  0  0  0
  9 13  1  0  0  0
 10 11  2  0  0  0
 10 23  1  0  0  0
 11 12  1  0  0  0
 11 24  1  0  0  0
 12 13  1  0  0  0
 12 25  1  0  0  0
 13 14  2  0  0  0
 14 15  1  0  0  0
 15 16  2  0  0  0
 15 17  1  0  0  0
M  CHG  2  15   1  17  -1
M  END
> <s_m_source_file>
../3wth_ligand.sdf

> <i_m_source_file_index>
1

> <s_epik_input>
Q2xjMVtjSF1bY0hdYyhbY0hdbjEpW0NIMl1uMltjSF1bY0hdbmMyW05IXVtOK10oPU8pW08tXQ==

> <s_epik_cmdline>
J2VwaWtfYXBwJywgJy1pbWFlJywgJ2xpZ2FuZF9wcm8ubWFlJywgJy1vbWFlJywgJ2xpZ2FuZF9wcmVwLm1hZScsICctbXMnLCAnMScsICctcGgnLCAnNycsICctcGh0JywgJzAuNScsICctbnQn

> <r_lp_tautomer_probability>
1

> <r_epik_Ionization_Penalty>
  0.0432

> <r_epik_Ionization_Penalty_Charging>
  0.0004

> <r_epik_Ionization_Penalty_Neutral>
  0.0429

> <r_epik_State_Penalty>
 -0.0000

> <r_epik_Charging_Adjusted_Penalty>
0.00035515606057923

> <i_epik_Tot_Q>
0

> <i_epik_Tot_abs_Q>
2

$$$$
