3wtl_ligand
                    3D
 Schrodinger Suite 2020-3.
 28 29  0  0  1  0            999 V2000
   28.8470  -23.9490  -33.6410 Cl  0  0  0  0  0  0
   29.5030  -24.9020  -32.3930 C   0  0  0  0  0  0
   30.1050  -24.2000  -31.3710 N   0  0  0  0  0  0
   30.6600  -24.9380  -30.3450 C   0  0  0  0  0  0
   30.6410  -26.3590  -30.2890 C   0  0  0  0  0  0
   31.2740  -27.1620  -29.1540 C   0  0  0  0  0  0
   30.7630  -26.8810  -27.8110 N   0  0  0  0  0  0
   29.9980  -27.0260  -31.3750 C   0  0  0  0  0  0
   29.4190  -26.2990  -32.4440 C   0  0  0  0  0  0
   29.5730  -27.2800  -27.1910 C   0  0  0  0  0  0
   28.6110  -28.0460  -27.7510 C   0  0  0  0  0  0
   29.5680  -26.7520  -25.9240 N   0  0  0  0  0  0
   30.7400  -25.9720  -25.6060 C   0  0  0  0  0  0
   31.5810  -26.0510  -26.9020 C   0  0  0  0  0  0
   27.3890  -28.4380  -27.0760 N   0  3  0  0  0  0
   27.1540  -28.0770  -25.9030 O   0  0  0  0  0  0
   26.6330  -29.1370  -27.7540 O   0  5  0  0  0  0
   31.1417  -24.3995  -29.5289 H   0  0  0  0  0  0
   31.1076  -28.2355  -29.3272 H   0  0  0  0  0  0
   32.3546  -26.9593  -29.1197 H   0  0  0  0  0  0
   29.9517  -28.1150  -31.3818 H   0  0  0  0  0  0
   28.9274  -26.8069  -33.2737 H   0  0  0  0  0  0
   28.7299  -28.4122  -28.7814 H   0  0  0  0  0  0
   28.7716  -26.8781  -25.1758 H   0  0  0  0  0  0
   30.4399  -24.9424  -25.3614 H   0  0  0  0  0  0
   31.2547  -26.4188  -24.7426 H   0  0  0  0  0  0
   32.5530  -26.5384  -26.7356 H   0  0  0  0  0  0
   31.7400  -25.0605  -27.3533 H   0  0  0  0  0  0
  1  2  1  0  0  0
  2  3  2  0  0  0
  2  9  1  0  0  0
  3  4  1  0  0  0
  4  5  2  0  0  0
  4 18  1  0  0  0
  5  6  1  0  0  0
  5  8  1  0  0  0
  6  7  1  0  0  0
  6 19  1  0  0  0
  6 20  1  0  0  0
  7 10  1  0  0  0
  7 14  1  0  0  0
  8  9  2  0  0  0
  8 21  1  0  0  0
  9 22  1  0  0  0
 10 11  2  0  0  0
 10 12  1  0  0  0
 11 15  1  0  0  0
 11 23  1  0  0  0
 12 13  1  0  0  0
 12 24  1  0  0  0
 13 14  1  0  0  0
 13 25  1  0  0  0
 13 26  1  0  0  0
 14 27  1  0  0  0
 14 28  1  0  0  0
 15 16  2  0  0  0
 15 17  1  0  0  0
M  CHG  2  15   1  17  -1
M  END
> <s_m_source_file>
../3wtl_ligand.sdf

> <i_m_source_file_index>
1

> <s_epik_input>
Q2xjMW5bY0hdYyhbY0hdW2NIXTEpW0NIMl1OMi9DKD1bQ0hdL1tOK10oPU8pW08tXSlbTkhdW0NIMl1bQ0gyXTI=

> <s_epik_cmdline>
J2VwaWtfYXBwJywgJy1pbWFlJywgJ2xpZ2FuZF9wcm8ubWFlJywgJy1vbWFlJywgJ2xpZ2FuZF9wcmVwLm1hZScsICctbXMnLCAnMScsICctcGgnLCAnNycsICctcGh0JywgJzAuNScsICctbnQn

> <r_lp_tautomer_probability>
1

> <r_epik_Ionization_Penalty>
  0.0000

> <r_epik_Ionization_Penalty_Charging>
  0.0000

> <r_epik_Ionization_Penalty_Neutral>
  0.0000

> <r_epik_State_Penalty>
 -0.0000

> <r_epik_Charging_Adjusted_Penalty>
0

> <i_epik_Tot_Q>
0

> <i_epik_Tot_abs_Q>
2

$$$$
