3wut_ligand
                    3D
 Schrodinger Suite 2020-3.
196200  0  0  1  0            999 V2000
   13.8830   47.3240   16.4810 N   0  3  0  0  0  0
   15.2440   47.7270   16.8350 C   0  0  2  0  0  0
   16.2230   46.5640   16.6340 C   0  0  0  0  0  0
   15.8220   45.4830   16.1940 O   0  0  0  0  0  0
   15.2880   48.2450   18.2780 C   0  0  0  0  0  0
   16.5190   49.0640   18.7020 C   0  0  0  0  0  0
   16.9270   50.0490   17.6120 C   0  0  0  0  0  0
   16.3150   49.7660   20.0500 C   0  0  0  0  0  0
   17.5050   46.7970   16.9190 N   0  0  0  0  0  0
   18.4940   45.7230   16.9530 C   0  0  2  0  0  0
   18.3220   44.8940   18.2180 C   0  0  0  0  0  0
   17.9180   45.4070   19.2680 O   0  0  0  0  0  0
   19.9050   46.2740   16.8650 C   0  0  0  0  0  0
   18.6140   43.6030   18.0980 N   0  0  0  0  0  0
   18.4740   42.6740   19.2050 C   0  0  2  0  0  0
   19.8330   42.0860   19.5580 C   0  0  0  0  0  0
   20.5630   41.6040   18.6880 O   0  0  0  0  0  0
   17.5140   41.5300   18.8430 C   0  0  0  0  0  0
   17.1120   40.7550   20.0880 C   0  0  0  0  0  0
   16.2830   42.0820   18.1160 C   0  0  0  0  0  0
   20.1790   42.1480   20.8360 N   0  0  0  0  0  0
   21.4030   41.5410   21.3110 C   0  0  0  0  0  0
   21.0990   40.2510   22.0400 C   0  0  0  0  0  0
   19.9370   39.9580   22.3300 O   0  0  0  0  0  0
   22.1440   39.4710   22.3400 N   0  0  0  0  0  0
   22.0230   38.2150   23.0820 C   0  0  2  0  0  0
   21.4350   38.4250   24.4780 C   0  0  0  0  0  0
   21.6960   39.4440   25.1070 O   0  0  0  0  0  0
   23.4780   37.7250   23.1720 C   0  0  0  0  0  0
   24.3190   38.9500   22.9340 C   0  0  0  0  0  0
   23.5360   39.7450   21.9450 C   0  0  0  0  0  0
   20.6570   37.4510   24.9660 N   0  0  0  0  0  0
   19.9600   37.5100   26.2590 C   0  0  2  0  0  0
   20.8870   37.7680   27.4470 C   0  0  0  0  0  0
   20.4260   38.1030   28.5400 O   0  0  0  0  0  0
   19.3220   36.1240   26.3750 C   0  0  0  0  0  0
   20.0940   35.2510   25.4010 C   0  0  0  0  0  0
   20.4540   36.1610   24.2840 C   0  0  0  0  0  0
   22.1850   37.5940   27.2200 N   0  0  0  0  0  0
   23.2080   37.9400   28.1980 C   0  0  2  0  0  0
   24.5050   38.1540   27.4530 C   0  0  0  0  0  0
   24.5880   37.8900   26.2530 O   0  0  0  0  0  0
   23.3690   36.8460   29.2540 C   0  0  0  0  0  0
   22.8860   35.6000   28.7740 O   0  0  0  0  0  0
   25.5040   38.6710   28.1540 N   0  0  0  0  0  0
   26.8040   38.9070   27.5470 C   0  0  2  0  0  0
   27.5980   37.6040   27.5400 C   0  0  0  0  0  0
   28.4010   37.3560   26.6440 O   0  0  0  0  0  0
   27.5370   40.0270   28.2900 C   0  0  0  0  0  0
   27.2950   41.4410   27.7410 C   0  0  0  0  0  0
   28.1340   41.6620   26.4980 C   0  0  0  0  0  0
   25.8180   41.7090   27.4380 C   0  0  0  0  0  0
   27.3310   36.7640   28.5340 N   0  0  0  0  0  0
   27.9300   35.4400   28.6290 C   0  0  2  0  0  0
   26.9040   34.3440   28.3480 C   0  0  0  0  0  0
   25.7280   34.4810   28.6910 O   0  0  0  0  0  0
   28.5550   35.2370   30.0070 C   0  0  0  0  0  0
   29.8030   36.0780   30.2020 C   0  0  0  0  0  0
   30.3170   36.6770   29.2530 O   0  0  0  0  0  0
   30.3070   36.1160   31.4290 N   0  0  0  0  0  0
   27.3450   33.2590   27.7160 N   0  0  0  0  0  0
   26.4100   32.2010   27.3720 C   0  0  2  0  0  0
   25.8830   31.5140   28.6160 C   0  0  0  0  0  0
   26.6420   31.0390   29.4580 O   0  0  0  0  0  0
   26.9910   31.1680   26.3990 C   0  0  0  0  0  0
   25.9390   30.1500   26.0090 C   0  0  0  0  0  0
   24.8800   30.5040   25.1800 C   0  0  0  0  0  0
   25.9660   28.8600   26.5080 C   0  0  0  0  0  0
   23.8960   29.5980   24.8400 C   0  0  0  0  0  0
   24.9750   27.9400   26.1710 C   0  0  0  0  0  0
   23.9460   28.3170   25.3320 C   0  0  0  0  0  0
   22.9650   27.4190   24.9820 O   0  0  0  0  0  0
   24.5660   31.4810   28.7260 N   0  0  0  0  0  0
   23.9220   30.7740   29.8080 C   0  0  2  0  0  0
   23.0860   29.6640   29.2160 C   0  0  0  0  0  0
   22.1560   29.9220   28.4520 O   0  0  0  0  0  0
   23.0340   31.7230   30.6330 C   0  0  2  0  0  0
   23.9060   32.8190   31.2480 C   0  0  0  0  0  0
   22.2510   30.9470   31.6890 C   0  0  0  0  0  0
   23.1520   33.7960   32.0970 C   0  0  0  0  0  0
   23.4270   28.4150   29.5530 N   0  0  0  0  0  0
   22.7160   27.2390   29.0460 C   0  0  2  0  0  0
   21.2690   27.2330   29.5170 C   0  0  0  0  0  0
   20.9890   27.7430   30.6050 O   0  0  0  0  0  0
   23.4760   26.0750   29.6840 C   0  0  0  0  0  0
   24.8300   26.6480   30.0560 C   0  0  0  0  0  0
   24.5360   28.0480   30.4490 C   0  0  0  0  0  0
   20.3600   26.6710   28.7090 N   0  0  0  0  0  0
   18.9510   26.5250   29.0920 C   0  0  2  0  0  0
   18.7920   25.6000   30.3030 C   0  0  0  0  0  0
   19.7320   24.8530   30.6130 O   0  0  0  0  0  0
   18.3170   25.8990   27.8450 C   0  0  0  0  0  0
   19.4620   25.2400   27.1080 C   0  0  0  0  0  0
   20.6300   26.1420   27.3600 C   0  0  0  0  0  0
   17.7280   25.6240   30.9390 O   0  0  0  0  0  0
   13.8676   46.9553   15.4447 H   0  0  0  0  0  0
   13.2091   48.1885   16.5727 H   0  0  0  0  0  0
   13.5490   46.5251   17.1594 H   0  0  0  0  0  0
   15.5068   48.5419   16.1445 H   0  0  0  0  0  0
   14.4252   48.9033   18.4577 H   0  0  0  0  0  0
   15.2513   47.3942   18.9743 H   0  0  0  0  0  0
   17.3528   48.3593   18.8368 H   0  0  0  0  0  0
   17.0636   49.5098   16.6630 H   0  0  0  0  0  0
   17.8706   50.5385   17.8947 H   0  0  0  0  0  0
   16.1411   50.8093   17.4920 H   0  0  0  0  0  0
   16.0224   49.0251   20.8086 H   0  0  0  0  0  0
   15.5234   50.5236   19.9528 H   0  0  0  0  0  0
   17.2529   50.2528   20.3555 H   0  0  0  0  0  0
   17.8098   47.8323   17.1320 H   0  0  0  0  0  0
   18.2997   45.1043   16.0645 H   0  0  0  0  0  0
   20.0095   46.8692   15.9458 H   0  0  0  0  0  0
   20.6233   45.4411   16.8463 H   0  0  0  0  0  0
   20.1050   46.9111   17.7391 H   0  0  0  0  0  0
   18.9718   43.2449   17.1214 H   0  0  0  0  0  0
   18.0725   43.2721   20.0363 H   0  0  0  0  0  0
   18.0279   40.8268   18.1711 H   0  0  0  0  0  0
   18.0135   40.3715   20.5882 H   0  0  0  0  0  0
   16.4647   39.9127   19.8025 H   0  0  0  0  0  0
   16.5670   41.4202   20.7739 H   0  0  0  0  0  0
   16.6034   42.6366   17.2217 H   0  0  0  0  0  0
   15.7322   42.7566   18.7880 H   0  0  0  0  0  0
   15.6299   41.2491   17.8165 H   0  0  0  0  0  0
   19.5163   42.6729   21.5397 H   0  0  0  0  0  0
   22.0607   41.3246   20.4562 H   0  0  0  0  0  0
   21.9118   42.2318   21.9994 H   0  0  0  0  0  0
   21.3332   37.5336   22.5626 H   0  0  0  0  0  0
   23.6595   37.2961   24.1686 H   0  0  0  0  0  0
   23.6544   36.9569   22.4046 H   0  0  0  0  0  0
   24.4561   39.4905   23.8822 H   0  0  0  0  0  0
   25.3003   38.6498   22.5379 H   0  0  0  0  0  0
   23.6956   39.4115   20.9090 H   0  0  0  0  0  0
   23.7317   40.8251   22.0167 H   0  0  0  0  0  0
   19.2571   38.3561   26.2512 H   0  0  0  0  0  0
   19.4188   35.7612   27.4089 H   0  0  0  0  0  0
   18.2571   36.1869   26.1066 H   0  0  0  0  0  0
   20.9857   34.8444   25.9005 H   0  0  0  0  0  0
   19.4532   34.4231   25.0634 H   0  0  0  0  0  0
   19.6482   36.2614   23.5419 H   0  0  0  0  0  0
   21.3840   35.8637   23.7774 H   0  0  0  0  0  0
   22.4750   37.1701   26.2473 H   0  0  0  0  0  0
   22.8807   38.8625   28.6999 H   0  0  0  0  0  0
   24.4333   36.7368   29.5095 H   0  0  0  0  0  0
   22.8018   37.1204   30.1557 H   0  0  0  0  0  0
   22.9308   34.7083   29.4166 H   0  0  0  0  0  0
   25.3371   38.9224   29.2118 H   0  0  0  0  0  0
   26.6288   39.2304   26.5103 H   0  0  0  0  0  0
   27.2166   40.0398   29.3422 H   0  0  0  0  0  0
   28.6218   39.8520   28.2391 H   0  0  0  0  0  0
   27.6025   42.1593   28.5152 H   0  0  0  0  0  0
   29.1913   41.4662   26.7297 H   0  0  0  0  0  0
   28.0195   42.7020   26.1585 H   0  0  0  0  0  0
   27.8000   40.9781   25.7038 H   0  0  0  0  0  0
   25.2215   41.5451   28.3476 H   0  0  0  0  0  0
   25.4760   41.0253   26.6471 H   0  0  0  0  0  0
   25.6956   42.7492   27.1017 H   0  0  0  0  0  0
   26.6251   37.1050   29.3056 H   0  0  0  0  0  0
   28.7069   35.4206   27.8505 H   0  0  0  0  0  0
   27.8291   35.5189   30.7840 H   0  0  0  0  0  0
   28.8333   34.1801   30.1313 H   0  0  0  0  0  0
   29.8136   35.5655   32.2436 H   0  0  0  0  0  0
   31.2182   36.6980   31.6315 H   0  0  0  0  0  0
   28.4087   33.1596   27.4540 H   0  0  0  0  0  0
   25.5979   32.7446   26.8670 H   0  0  0  0  0  0
   27.3461   31.6782   25.4915 H   0  0  0  0  0  0
   27.8317   30.6451   26.8783 H   0  0  0  0  0  0
   24.8259   31.5203   24.7898 H   0  0  0  0  0  0
   26.7742   28.5588   27.1745 H   0  0  0  0  0  0
   23.0806   29.8988   24.1821 H   0  0  0  0  0  0
   25.0124   26.9259   26.5688 H   0  0  0  0  0  0
   22.1490   27.7290   24.3127 H   0  0  0  0  0  0
   23.9590   32.0055   27.9734 H   0  0  0  0  0  0
   24.7256   30.3677   30.4397 H   0  0  0  0  0  0
   22.2863   32.2044   29.9855 H   0  0  0  0  0  0
   24.6747   32.3604   31.8874 H   0  0  0  0  0  0
   24.3916   33.3944   30.4461 H   0  0  0  0  0  0
   21.6417   30.1734   31.1988 H   0  0  0  0  0  0
   21.5943   31.6370   32.2391 H   0  0  0  0  0  0
   22.9528   30.4715   32.3900 H   0  0  0  0  0  0
   23.8486   34.5466   32.4987 H   0  0  0  0  0  0
   22.6684   33.2624   32.9285 H   0  0  0  0  0  0
   22.3853   34.2964   31.4872 H   0  0  0  0  0  0
   22.6997   27.2349   27.9461 H   0  0  0  0  0  0
   22.9278   25.7205   30.5693 H   0  0  0  0  0  0
   23.5679   25.2547   28.9569 H   0  0  0  0  0  0
   25.2584   26.0672   30.8861 H   0  0  0  0  0  0
   25.5019   26.5954   29.1866 H   0  0  0  0  0  0
   25.3863   28.7240   30.2759 H   0  0  0  0  0  0
   24.2062   28.1340   31.4949 H   0  0  0  0  0  0
   18.5249   27.4968   29.3818 H   0  0  0  0  0  0
   19.6381   24.1812   31.4790 H   0  0  0  0  0  0
   17.5560   25.1654   28.1496 H   0  0  0  0  0  0
   17.8453   26.6864   27.2389 H   0  0  0  0  0  0
   19.6258   24.2303   27.5127 H   0  0  0  0  0  0
   19.2177   25.1708   26.0377 H   0  0  0  0  0  0
   20.6819   26.9748   26.6432 H   0  0  0  0  0  0
   21.5876   25.6008   27.3632 H   0  0  0  0  0  0
  1  2  1  0  0  0
  1 96  1  0  0  0
  1 97  1  0  0  0
  1 98  1  0  0  0
  2  3  1  0  0  0
  2  5  1  0  0  0
  2 99  1  0  0  0
  3  4  2  0  0  0
  3  9  1  0  0  0
  5  6  1  0  0  0
  5100  1  0  0  0
  5101  1  0  0  0
  6  7  1  0  0  0
  6  8  1  0  0  0
  6102  1  0  0  0
  7103  1  0  0  0
  7104  1  0  0  0
  7105  1  0  0  0
  8106  1  0  0  0
  8107  1  0  0  0
  8108  1  0  0  0
  9 10  1  0  0  0
  9109  1  0  0  0
 10 11  1  0  0  0
 10 13  1  0  0  0
 10110  1  0  0  0
 11 12  2  0  0  0
 11 14  1  0  0  0
 13111  1  0  0  0
 13112  1  0  0  0
 13113  1  0  0  0
 14 15  1  0  0  0
 14114  1  0  0  0
 15 16  1  0  0  0
 15 18  1  0  0  0
 15115  1  0  0  0
 16 17  2  0  0  0
 16 21  1  0  0  0
 18 19  1  0  0  0
 18 20  1  0  0  0
 18116  1  0  0  0
 19117  1  0  0  0
 19118  1  0  0  0
 19119  1  0  0  0
 20120  1  0  0  0
 20121  1  0  0  0
 20122  1  0  0  0
 21 22  1  0  0  0
 21123  1  0  0  0
 22 23  1  0  0  0
 22124  1  0  0  0
 22125  1  0  0  0
 23 24  2  0  0  0
 23 25  1  0  0  0
 25 26  1  0  0  0
 25 31  1  0  0  0
 26 27  1  0  0  0
 26 29  1  0  0  0
 26126  1  0  0  0
 27 28  2  0  0  0
 27 32  1  0  0  0
 29 30  1  0  0  0
 29127  1  0  0  0
 29128  1  0  0  0
 30 31  1  0  0  0
 30129  1  0  0  0
 30130  1  0  0  0
 31131  1  0  0  0
 31132  1  0  0  0
 32 33  1  0  0  0
 32 38  1  0  0  0
 33 34  1  0  0  0
 33 36  1  0  0  0
 33133  1  0  0  0
 34 35  2  0  0  0
 34 39  1  0  0  0
 36 37  1  0  0  0
 36134  1  0  0  0
 36135  1  0  0  0
 37 38  1  0  0  0
 37136  1  0  0  0
 37137  1  0  0  0
 38138  1  0  0  0
 38139  1  0  0  0
 39 40  1  0  0  0
 39140  1  0  0  0
 40 41  1  0  0  0
 40 43  1  0  0  0
 40141  1  0  0  0
 41 42  2  0  0  0
 41 45  1  0  0  0
 43 44  1  0  0  0
 43142  1  0  0  0
 43143  1  0  0  0
 44144  1  0  0  0
 45 46  1  0  0  0
 45145  1  0  0  0
 46 47  1  0  0  0
 46 49  1  0  0  0
 46146  1  0  0  0
 47 48  2  0  0  0
 47 53  1  0  0  0
 49 50  1  0  0  0
 49147  1  0  0  0
 49148  1  0  0  0
 50 51  1  0  0  0
 50 52  1  0  0  0
 50149  1  0  0  0
 51150  1  0  0  0
 51151  1  0  0  0
 51152  1  0  0  0
 52153  1  0  0  0
 52154  1  0  0  0
 52155  1  0  0  0
 53 54  1  0  0  0
 53156  1  0  0  0
 54 55  1  0  0  0
 54 57  1  0  0  0
 54157  1  0  0  0
 55 56  2  0  0  0
 55 61  1  0  0  0
 57 58  1  0  0  0
 57158  1  0  0  0
 57159  1  0  0  0
 58 59  2  0  0  0
 58 60  1  0  0  0
 60160  1  0  0  0
 60161  1  0  0  0
 61 62  1  0  0  0
 61162  1  0  0  0
 62 63  1  0  0  0
 62 65  1  0  0  0
 62163  1  0  0  0
 63 64  2  0  0  0
 63 73  1  0  0  0
 65 66  1  0  0  0
 65164  1  0  0  0
 65165  1  0  0  0
 66 67  2  0  0  0
 66 68  1  0  0  0
 67 69  1  0  0  0
 67166  1  0  0  0
 68 70  2  0  0  0
 68167  1  0  0  0
 69 71  2  0  0  0
 69168  1  0  0  0
 70 71  1  0  0  0
 70169  1  0  0  0
 71 72  1  0  0  0
 72170  1  0  0  0
 73 74  1  0  0  0
 73171  1  0  0  0
 74 75  1  0  0  0
 74 77  1  0  0  0
 74172  1  0  0  0
 75 76  2  0  0  0
 75 81  1  0  0  0
 77 78  1  0  0  0
 77 79  1  0  0  0
 77173  1  0  0  0
 78 80  1  0  0  0
 78174  1  0  0  0
 78175  1  0  0  0
 79176  1  0  0  0
 79177  1  0  0  0
 79178  1  0  0  0
 80179  1  0  0  0
 80180  1  0  0  0
 80181  1  0  0  0
 81 82  1  0  0  0
 81 87  1  0  0  0
 82 83  1  0  0  0
 82 85  1  0  0  0
 82182  1  0  0  0
 83 84  2  0  0  0
 83 88  1  0  0  0
 85 86  1  0  0  0
 85183  1  0  0  0
 85184  1  0  0  0
 86 87  1  0  0  0
 86185  1  0  0  0
 86186  1  0  0  0
 87187  1  0  0  0
 87188  1  0  0  0
 88 89  1  0  0  0
 88 94  1  0  0  0
 89 90  1  0  0  0
 89 92  1  0  0  0
 89189  1  0  0  0
 90 91  1  0  0  0
 90 95  2  0  0  0
 91190  1  0  0  0
 92 93  1  0  0  0
 92191  1  0  0  0
 92192  1  0  0  0
 93 94  1  0  0  0
 93193  1  0  0  0
 93194  1  0  0  0
 94195  1  0  0  0
 94196  1  0  0  0
M  CHG  1   1   1
M  END
> <s_m_source_file>
../3wut_ligand.sdf

> <i_m_source_file_index>
1

> <s_epik_input>
W0NIM11bQ0hdKFtDSDNdKVtDSDJdW0NASF0oW05IMytdKUMoPU8pW05IXVtDQEBIXShbQ0gzXSlDKD1PKVtOSF1bQ0BASF0oW0NIXShbQ0gzXSlbQ0gzXSlDKD1PKVtOSF1bQ0gyXUMoPU8pTjFbQ0BASF0oW0NIMl1bQ0gyXVtDSDJdMSlDKD1PKU4yW0NAQEhdKFtDSDJdW0NIMl1bQ0gyXTIpQyg9TylbTkhdW0NAQEhdKFtDSDJdW09IXSlDKD1PKVtOSF1bQ0BASF0oW0NIMl1bQ0hdKFtDSDNdKVtDSDNdKUMoPU8pW05IXVtDQEBIXShbQ0gyXUMoPU8pW05IMl0pQyg9TylbTkhdW0NAQEhdKFtDSDJdYzNbY0hdW2NIXWMoW09IXSlbY0hdW2NIXTMpQyg9TylbTkhdW0NAQEhdKFtDQEBIXShbQ0gzXSlbQ0gyXVtDSDNdKUMoPU8pTjRbQ0BASF0oW0NIMl1bQ0gyXVtDSDJdNClDKD1PKU41W0NASF0oQyg9TylbT0hdKVtDSDJdW0NIMl1bQ0gyXTU=

> <s_epik_cmdline>
J2VwaWtfYXBwJywgJy1pbWFlJywgJ2xpZ2FuZF9wcm8ubWFlJywgJy1vbWFlJywgJ2xpZ2FuZF9wcmVwLm1hZScsICctbXMnLCAnMScsICctcGgnLCAnNycsICctcGh0JywgJzAuNScsICctbnQn

> <s_epik_pKa_notes>
Molecule size exceeds maximum supported for generating protonation states

$$$$
