3wuu_ligand
                    3D
 Schrodinger Suite 2020-3.
204208  0  0  1  0            999 V2000
  -26.3780   41.7050  -35.0580 N   0  3  0  0  0  0
  -25.0410   41.9350  -34.5200 C   0  0  2  0  0  0
  -24.2920   40.6160  -34.3540 C   0  0  0  0  0  0
  -24.1150   40.1320  -33.2350 O   0  0  0  0  0  0
  -25.1210   42.6570  -33.1770 C   0  0  0  0  0  0
  -23.7880   43.2400  -32.7510 C   0  0  0  0  0  0
  -22.7620   42.5330  -32.8470 O   0  0  0  0  0  0
  -23.7630   44.4150  -32.3310 O   0  0  0  0  0  0
  -23.8250   40.0580  -35.4650 N   0  0  0  0  0  0
  -23.3410   38.6850  -35.4760 C   0  0  2  0  0  0
  -22.0120   38.5200  -36.2020 C   0  0  0  0  0  0
  -21.9560   38.4600  -37.4320 O   0  0  0  0  0  0
  -24.3970   37.7580  -36.0880 C   0  0  0  0  0  0
  -24.1370   36.2500  -36.0430 C   0  0  0  0  0  0
  -23.5660   35.8840  -34.6950 C   0  0  0  0  0  0
  -25.4020   35.4700  -36.3860 C   0  0  0  0  0  0
  -20.9470   38.4560  -35.4130 N   0  0  0  0  0  0
  -19.6110   38.1320  -35.8870 C   0  0  2  0  0  0
  -18.8620   37.8260  -34.6020 C   0  0  0  0  0  0
  -19.1410   38.4260  -33.5650 O   0  0  0  0  0  0
  -18.9920   39.2980  -36.6150 C   0  0  0  0  0  0
  -17.9250   36.8880  -34.6540 N   0  0  0  0  0  0
  -17.3690   36.3210  -33.4300 C   0  0  2  0  0  0
  -16.0110   36.9080  -33.0450 C   0  0  0  0  0  0
  -15.1960   37.2220  -33.9110 O   0  0  0  0  0  0
  -17.2620   34.7980  -33.5400 C   0  0  0  0  0  0
  -17.0460   34.1880  -32.1830 C   0  0  0  0  0  0
  -18.5250   34.2240  -34.1490 C   0  0  0  0  0  0
  -15.7800   37.0480  -31.7390 N   0  0  0  0  0  0
  -14.4940   37.4790  -31.2150 C   0  0  0  0  0  0
  -13.8910   36.4110  -30.3200 C   0  0  0  0  0  0
  -14.5080   35.3700  -30.0950 O   0  0  0  0  0  0
  -12.6790   36.6580  -29.8040 N   0  0  0  0  0  0
  -11.9750   35.7080  -28.9340 C   0  0  2  0  0  0
  -12.5990   35.6510  -27.5390 C   0  0  0  0  0  0
  -13.2710   36.6030  -27.1380 O   0  0  0  0  0  0
  -10.5640   36.2930  -28.8620 C   0  0  0  0  0  0
  -10.7610   37.7560  -29.0650 C   0  0  0  0  0  0
  -11.9000   37.8870  -30.0300 C   0  0  0  0  0  0
  -12.3890   34.5400  -26.8110 N   0  0  0  0  0  0
  -12.9130   34.3780  -25.4490 C   0  0  2  0  0  0
  -12.3770   35.4290  -24.4790 C   0  0  0  0  0  0
  -13.0960   35.8390  -23.5690 O   0  0  0  0  0  0
  -12.4300   32.9780  -25.0470 C   0  0  0  0  0  0
  -11.3190   32.6580  -25.9920 C   0  0  0  0  0  0
  -11.6790   33.3360  -27.2710 C   0  0  0  0  0  0
  -11.1340   35.8580  -24.6720 N   0  0  0  0  0  0
  -10.5750   36.9510  -23.8820 C   0  0  2  0  0  0
   -9.4060   37.6010  -24.6070 C   0  0  0  0  0  0
   -9.1330   37.2990  -25.7690 O   0  0  0  0  0  0
  -10.1180   36.4570  -22.5070 C   0  0  0  0  0  0
   -8.8790   35.7780  -22.5950 O   0  0  0  0  0  0
   -8.7180   38.4980  -23.9140 N   0  0  0  0  0  0
   -7.5470   39.1530  -24.4740 C   0  0  2  0  0  0
   -6.2850   38.5880  -23.8340 C   0  0  0  0  0  0
   -5.1690   38.8640  -24.2760 O   0  0  0  0  0  0
   -7.6320   40.6660  -24.2710 C   0  0  0  0  0  0
   -8.1800   41.4930  -25.4380 C   0  0  0  0  0  0
   -9.3840   40.8280  -26.0870 C   0  0  0  0  0  0
   -8.5380   42.8900  -24.9570 C   0  0  0  0  0  0
   -6.4790   37.7910  -22.7890 N   0  0  0  0  0  0
   -5.3850   37.0930  -22.1290 C   0  0  2  0  0  0
   -5.4830   35.6000  -22.3990 C   0  0  0  0  0  0
   -6.5440   35.1010  -22.7740 O   0  0  0  0  0  0
   -5.4060   37.3480  -20.6190 C   0  0  0  0  0  0
   -5.0650   38.7830  -20.2620 C   0  0  0  0  0  0
   -3.9020   39.1860  -20.3070 O   0  0  0  0  0  0
   -6.0780   39.5590  -19.8910 N   0  0  0  0  0  0
   -4.3810   34.8840  -22.2060 N   0  0  0  0  0  0
   -4.3840   33.4430  -22.4160 C   0  0  2  0  0  0
   -4.0160   32.6830  -21.1350 C   0  0  0  0  0  0
   -3.0400   33.0240  -20.4640 O   0  0  0  0  0  0
   -3.4570   33.0620  -23.5720 C   0  0  0  0  0  0
   -3.7250   31.6780  -24.1060 C   0  0  0  0  0  0
   -2.9540   30.5980  -23.7050 C   0  0  0  0  0  0
   -4.7610   31.4490  -25.0020 C   0  0  0  0  0  0
   -3.1990   29.3310  -24.1850 C   0  0  0  0  0  0
   -5.0140   30.1870  -25.4890 C   0  0  0  0  0  0
   -4.2290   29.1300  -25.0760 C   0  0  0  0  0  0
   -4.4760   27.8650  -25.5530 O   0  0  0  0  0  0
   -4.7940   31.6440  -20.7980 N   0  0  0  0  0  0
   -5.9600   31.1990  -21.5650 C   0  0  2  0  0  0
   -7.2610   31.8580  -21.1230 C   0  0  0  0  0  0
   -8.1610   31.9920  -21.9500 O   0  0  0  0  0  0
   -6.0120   29.7050  -21.2640 C   0  0  0  0  0  0
   -5.4620   29.5890  -19.8790 C   0  0  0  0  0  0
   -4.4460   30.7000  -19.7200 C   0  0  0  0  0  0
   -7.3660   32.2490  -19.8530 N   0  0  0  0  0  0
   -8.6410   32.6710  -19.2930 C   0  0  0  0  0  0
   -9.4770   31.4650  -18.8880 C   0  0  0  0  0  0
  -10.4860   31.6010  -18.1930 O   0  0  0  0  0  0
   -9.0240   30.2890  -19.3320 N   0  0  0  0  0  0
   -9.6590   28.9820  -19.1080 C   0  0  2  0  0  0
  -11.1840   28.9990  -18.9670 C   0  0  0  0  0  0
  -11.9040   29.1780  -19.9500 O   0  0  0  0  0  0
   -8.9980   28.2410  -17.9330 C   0  0  0  0  0  0
   -9.8130   28.2110  -16.6600 C   0  0  0  0  0  0
  -10.6320   27.1250  -16.3600 C   0  0  0  0  0  0
   -9.7580   29.2610  -15.7520 C   0  0  0  0  0  0
  -11.3790   27.0920  -15.1960 C   0  0  0  0  0  0
  -10.5010   29.2360  -14.5830 C   0  0  0  0  0  0
  -11.3080   28.1490  -14.3100 C   0  0  0  0  0  0
  -12.0470   28.1220  -13.1500 O   0  0  0  0  0  0
  -11.7150   28.8340  -17.8680 O   0  0  0  0  0  0
  -26.3000   41.1848  -36.0241 H   0  0  0  0  0  0
  -26.8866   42.6698  -35.2011 H   0  0  0  0  0  0
  -26.9551   41.0871  -34.3543 H   0  0  0  0  0  0
  -24.5306   42.5668  -35.2618 H   0  0  0  0  0  0
  -25.8447   43.4824  -33.2470 H   0  0  0  0  0  0
  -25.4454   41.9499  -32.3993 H   0  0  0  0  0  0
  -21.7851   42.9372  -32.5432 H   0  0  0  0  0  0
  -23.8084   40.6545  -36.3891 H   0  0  0  0  0  0
  -23.1719   38.4598  -34.4127 H   0  0  0  0  0  0
  -25.3555   37.8999  -35.5673 H   0  0  0  0  0  0
  -24.5204   37.9965  -37.1547 H   0  0  0  0  0  0
  -23.3880   35.9658  -36.7968 H   0  0  0  0  0  0
  -22.6594   36.4780  -34.5073 H   0  0  0  0  0  0
  -23.3122   34.8137  -34.6826 H   0  0  0  0  0  0
  -24.3102   36.0935  -33.9125 H   0  0  0  0  0  0
  -25.7673   35.7809  -37.3759 H   0  0  0  0  0  0
  -26.1744   35.6732  -35.6296 H   0  0  0  0  0  0
  -25.1765   34.3934  -36.3998 H   0  0  0  0  0  0
  -21.1166   38.6647  -34.3464 H   0  0  0  0  0  0
  -19.6334   37.3026  -36.6092 H   0  0  0  0  0  0
  -19.5556   39.4943  -37.5390 H   0  0  0  0  0  0
  -17.9475   39.0609  -36.8658 H   0  0  0  0  0  0
  -19.0212   40.1895  -35.9713 H   0  0  0  0  0  0
  -17.5678   36.5383  -35.6339 H   0  0  0  0  0  0
  -18.1016   36.6184  -32.6652 H   0  0  0  0  0  0
  -16.4028   34.5456  -34.1788 H   0  0  0  0  0  0
  -16.1298   34.6018  -31.7366 H   0  0  0  0  0  0
  -16.9448   33.0973  -32.2832 H   0  0  0  0  0  0
  -17.9054   34.4186  -31.5363 H   0  0  0  0  0  0
  -18.6874   34.6675  -35.1425 H   0  0  0  0  0  0
  -19.3826   34.4546  -33.4999 H   0  0  0  0  0  0
  -18.4219   33.1332  -34.2468 H   0  0  0  0  0  0
  -16.6075   36.8237  -31.0498 H   0  0  0  0  0  0
  -13.8043   37.6729  -32.0497 H   0  0  0  0  0  0
  -14.6272   38.3997  -30.6280 H   0  0  0  0  0  0
  -12.0322   34.6894  -29.3454 H   0  0  0  0  0  0
  -10.1240   36.0692  -27.8790 H   0  0  0  0  0  0
   -9.9417   35.8477  -29.6522 H   0  0  0  0  0  0
  -10.9985   38.2311  -28.1017 H   0  0  0  0  0  0
   -9.8399   38.1968  -29.4740 H   0  0  0  0  0  0
  -11.5625   37.9199  -31.0764 H   0  0  0  0  0  0
  -12.5298   38.7641  -29.8201 H   0  0  0  0  0  0
  -14.0050   34.5103  -25.4561 H   0  0  0  0  0  0
  -12.0800   32.9962  -24.0043 H   0  0  0  0  0  0
  -13.2598   32.2623  -25.1428 H   0  0  0  0  0  0
  -10.3709   33.0409  -25.5864 H   0  0  0  0  0  0
  -11.2492   31.5677  -26.1202 H   0  0  0  0  0  0
  -12.3507   32.7314  -27.8981 H   0  0  0  0  0  0
  -10.7971   33.6322  -27.8580 H   0  0  0  0  0  0
  -10.5234   35.3709  -25.4466 H   0  0  0  0  0  0
  -11.3975   37.6733  -23.7741 H   0  0  0  0  0  0
  -10.0012   37.3155  -21.8292 H   0  0  0  0  0  0
  -10.8694   35.7659  -22.0973 H   0  0  0  0  0  0
   -8.4147   35.3611  -21.6891 H   0  0  0  0  0  0
   -9.0505   38.7432  -22.8945 H   0  0  0  0  0  0
   -7.5516   38.9281  -25.5508 H   0  0  0  0  0  0
   -8.2907   40.8850  -23.4177 H   0  0  0  0  0  0
   -6.6271   41.0661  -24.0706 H   0  0  0  0  0  0
   -7.3981   41.5662  -26.2083 H   0  0  0  0  0  0
   -9.1063   39.8198  -26.4282 H   0  0  0  0  0  0
   -9.7148   41.4282  -26.9474 H   0  0  0  0  0  0
  -10.2016   40.7551  -25.3547 H   0  0  0  0  0  0
   -7.6564   43.3546  -24.4912 H   0  0  0  0  0  0
   -9.3517   42.8265  -24.2195 H   0  0  0  0  0  0
   -8.8649   43.4997  -25.8122 H   0  0  0  0  0  0
   -7.5096   37.6673  -22.4248 H   0  0  0  0  0  0
   -4.4641   37.5030  -22.5693 H   0  0  0  0  0  0
   -6.4100   37.1325  -20.2247 H   0  0  0  0  0  0
   -4.6707   36.6947  -20.1265 H   0  0  0  0  0  0
   -7.1005   39.1542  -19.8663 H   0  0  0  0  0  0
   -5.8940   40.6061  -19.6086 H   0  0  0  0  0  0
   -3.4594   35.3910  -21.8841 H   0  0  0  0  0  0
   -5.4234   33.2028  -22.6843 H   0  0  0  0  0  0
   -3.5925   33.7731  -24.4003 H   0  0  0  0  0  0
   -2.4121   33.0928  -23.2296 H   0  0  0  0  0  0
   -2.1397   30.7545  -22.9975 H   0  0  0  0  0  0
   -5.3843   32.2829  -25.3250 H   0  0  0  0  0  0
   -2.5817   28.4929  -23.8617 H   0  0  0  0  0  0
   -5.8280   30.0237  -26.1953 H   0  0  0  0  0  0
   -3.8509   27.0216  -25.2245 H   0  0  0  0  0  0
   -5.8290   31.4721  -22.6225 H   0  0  0  0  0  0
   -7.0530   29.3547  -21.3248 H   0  0  0  0  0  0
   -5.3988   29.1615  -21.9979 H   0  0  0  0  0  0
   -6.2785   29.6980  -19.1500 H   0  0  0  0  0  0
   -4.9879   28.6043  -19.7540 H   0  0  0  0  0  0
   -3.4141   30.3462  -19.8614 H   0  0  0  0  0  0
   -4.5297   31.2070  -18.7474 H   0  0  0  0  0  0
   -6.4628   32.2483  -19.2251 H   0  0  0  0  0  0
   -8.4628   33.2944  -18.4044 H   0  0  0  0  0  0
   -9.1966   33.2526  -20.0434 H   0  0  0  0  0  0
   -8.0911   30.3552  -19.9110 H   0  0  0  0  0  0
   -9.4589   28.4726  -20.0622 H   0  0  0  0  0  0
   -8.8154   27.1938  -18.2160 H   0  0  0  0  0  0
   -8.0422   28.7257  -17.6849 H   0  0  0  0  0  0
  -10.6853   26.2865  -17.0544 H   0  0  0  0  0  0
   -9.1195   30.1189  -15.9629 H   0  0  0  0  0  0
  -12.0196   26.2371  -14.9795 H   0  0  0  0  0  0
  -10.4490   30.0696  -13.8826 H   0  0  0  0  0  0
  -12.6912   27.2584  -12.9282 H   0  0  0  0  0  0
  -12.8113   28.8483  -17.7792 H   0  0  0  0  0  0
  1  2  1  0  0  0
  1105  1  0  0  0
  1106  1  0  0  0
  1107  1  0  0  0
  2  3  1  0  0  0
  2  5  1  0  0  0
  2108  1  0  0  0
  3  4  2  0  0  0
  3  9  1  0  0  0
  5  6  1  0  0  0
  5109  1  0  0  0
  5110  1  0  0  0
  6  7  1  0  0  0
  6  8  2  0  0  0
  7111  1  0  0  0
  9 10  1  0  0  0
  9112  1  0  0  0
 10 11  1  0  0  0
 10 13  1  0  0  0
 10113  1  0  0  0
 11 12  2  0  0  0
 11 17  1  0  0  0
 13 14  1  0  0  0
 13114  1  0  0  0
 13115  1  0  0  0
 14 15  1  0  0  0
 14 16  1  0  0  0
 14116  1  0  0  0
 15117  1  0  0  0
 15118  1  0  0  0
 15119  1  0  0  0
 16120  1  0  0  0
 16121  1  0  0  0
 16122  1  0  0  0
 17 18  1  0  0  0
 17123  1  0  0  0
 18 19  1  0  0  0
 18 21  1  0  0  0
 18124  1  0  0  0
 19 20  2  0  0  0
 19 22  1  0  0  0
 21125  1  0  0  0
 21126  1  0  0  0
 21127  1  0  0  0
 22 23  1  0  0  0
 22128  1  0  0  0
 23 24  1  0  0  0
 23 26  1  0  0  0
 23129  1  0  0  0
 24 25  2  0  0  0
 24 29  1  0  0  0
 26 27  1  0  0  0
 26 28  1  0  0  0
 26130  1  0  0  0
 27131  1  0  0  0
 27132  1  0  0  0
 27133  1  0  0  0
 28134  1  0  0  0
 28135  1  0  0  0
 28136  1  0  0  0
 29 30  1  0  0  0
 29137  1  0  0  0
 30 31  1  0  0  0
 30138  1  0  0  0
 30139  1  0  0  0
 31 32  2  0  0  0
 31 33  1  0  0  0
 33 34  1  0  0  0
 33 39  1  0  0  0
 34 35  1  0  0  0
 34 37  1  0  0  0
 34140  1  0  0  0
 35 36  2  0  0  0
 35 40  1  0  0  0
 37 38  1  0  0  0
 37141  1  0  0  0
 37142  1  0  0  0
 38 39  1  0  0  0
 38143  1  0  0  0
 38144  1  0  0  0
 39145  1  0  0  0
 39146  1  0  0  0
 40 41  1  0  0  0
 40 46  1  0  0  0
 41 42  1  0  0  0
 41 44  1  0  0  0
 41147  1  0  0  0
 42 43  2  0  0  0
 42 47  1  0  0  0
 44 45  1  0  0  0
 44148  1  0  0  0
 44149  1  0  0  0
 45 46  1  0  0  0
 45150  1  0  0  0
 45151  1  0  0  0
 46152  1  0  0  0
 46153  1  0  0  0
 47 48  1  0  0  0
 47154  1  0  0  0
 48 49  1  0  0  0
 48 51  1  0  0  0
 48155  1  0  0  0
 49 50  2  0  0  0
 49 53  1  0  0  0
 51 52  1  0  0  0
 51156  1  0  0  0
 51157  1  0  0  0
 52158  1  0  0  0
 53 54  1  0  0  0
 53159  1  0  0  0
 54 55  1  0  0  0
 54 57  1  0  0  0
 54160  1  0  0  0
 55 56  2  0  0  0
 55 61  1  0  0  0
 57 58  1  0  0  0
 57161  1  0  0  0
 57162  1  0  0  0
 58 59  1  0  0  0
 58 60  1  0  0  0
 58163  1  0  0  0
 59164  1  0  0  0
 59165  1  0  0  0
 59166  1  0  0  0
 60167  1  0  0  0
 60168  1  0  0  0
 60169  1  0  0  0
 61 62  1  0  0  0
 61170  1  0  0  0
 62 63  1  0  0  0
 62 65  1  0  0  0
 62171  1  0  0  0
 63 64  2  0  0  0
 63 69  1  0  0  0
 65 66  1  0  0  0
 65172  1  0  0  0
 65173  1  0  0  0
 66 67  2  0  0  0
 66 68  1  0  0  0
 68174  1  0  0  0
 68175  1  0  0  0
 69 70  1  0  0  0
 69176  1  0  0  0
 70 71  1  0  0  0
 70 73  1  0  0  0
 70177  1  0  0  0
 71 72  2  0  0  0
 71 81  1  0  0  0
 73 74  1  0  0  0
 73178  1  0  0  0
 73179  1  0  0  0
 74 75  2  0  0  0
 74 76  1  0  0  0
 75 77  1  0  0  0
 75180  1  0  0  0
 76 78  2  0  0  0
 76181  1  0  0  0
 77 79  2  0  0  0
 77182  1  0  0  0
 78 79  1  0  0  0
 78183  1  0  0  0
 79 80  1  0  0  0
 80184  1  0  0  0
 81 82  1  0  0  0
 81 87  1  0  0  0
 82 83  1  0  0  0
 82 85  1  0  0  0
 82185  1  0  0  0
 83 84  2  0  0  0
 83 88  1  0  0  0
 85 86  1  0  0  0
 85186  1  0  0  0
 85187  1  0  0  0
 86 87  1  0  0  0
 86188  1  0  0  0
 86189  1  0  0  0
 87190  1  0  0  0
 87191  1  0  0  0
 88 89  1  0  0  0
 88192  1  0  0  0
 89 90  1  0  0  0
 89193  1  0  0  0
 89194  1  0  0  0
 90 91  2  0  0  0
 90 92  1  0  0  0
 92 93  1  0  0  0
 92195  1  0  0  0
 93 94  1  0  0  0
 93 96  1  0  0  0
 93196  1  0  0  0
 94 95  2  0  0  0
 94104  1  0  0  0
 96 97  1  0  0  0
 96197  1  0  0  0
 96198  1  0  0  0
 97 98  2  0  0  0
 97 99  1  0  0  0
 98100  1  0  0  0
 98199  1  0  0  0
 99101  2  0  0  0
 99200  1  0  0  0
100102  2  0  0  0
100201  1  0  0  0
101102  1  0  0  0
101202  1  0  0  0
102103  1  0  0  0
103203  1  0  0  0
104204  1  0  0  0
M  CHG  1   1   1
M  END
> <s_m_source_file>
../3wuu_ligand.sdf

> <i_m_source_file_index>
1

> <s_epik_input>
W09IXUMoPU8pW0NIMl1bQ0BIXShbTkgzK10pQyg9TylbTkhdW0NAQEhdKFtDSDJdW0NIXShbQ0gzXSlbQ0gzXSlDKD1PKVtOSF1bQ0BASF0oW0NIM10pQyg9TylbTkhdW0NAQEhdKFtDSF0oW0NIM10pW0NIM10pQyg9TylbTkhdW0NIMl1DKD1PKU4xW0NAQEhdKFtDSDJdW0NIMl1bQ0gyXTEpQyg9TylOMltDQEBIXShbQ0gyXVtDSDJdW0NIMl0yKUMoPU8pW05IXVtDQEBIXShbQ0gyXVtPSF0pQyg9TylbTkhdW0NAQEhdKFtDSDJdW0NIXShbQ0gzXSlbQ0gzXSlDKD1PKVtOSF1bQ0BASF0oW0NIMl1DKD1PKVtOSDJdKUMoPU8pW05IXVtDQEBIXShbQ0gyXWMzW2NIXVtjSF1jKFtPSF0pW2NIXVtjSF0zKUMoPU8pTjRbQ0BASF0oW0NIMl1bQ0gyXVtDSDJdNClDKD1PKVtOSF1bQ0gyXUMoPU8pW05IXVtDQEhdKEMoPU8pW09IXSlbQ0gyXWM1W2NIXVtjSF1jKFtPSF0pW2NIXVtjSF01

> <s_epik_cmdline>
J2VwaWtfYXBwJywgJy1pbWFlJywgJ2xpZ2FuZF9wcm8ubWFlJywgJy1vbWFlJywgJ2xpZ2FuZF9wcmVwLm1hZScsICctbXMnLCAnMScsICctcGgnLCAnNycsICctcGh0JywgJzAuNScsICctbnQn

> <s_epik_pKa_notes>
Molecule size exceeds maximum supported for generating protonation states

$$$$
