3wuv_ligand
                    3D
 Schrodinger Suite 2020-3.
200206  0  0  1  0            999 V2000
  -64.2030   76.5440   57.7260 N   0  3  0  0  0  0
  -63.9050   75.2180   58.2540 C   0  0  2  0  0  0
  -62.4070   75.0150   58.4650 C   0  0  0  0  0  0
  -61.8950   73.9020   58.3320 O   0  0  0  0  0  0
  -64.4550   74.1320   57.3300 C   0  0  0  0  0  0
  -63.8700   74.1500   55.9300 C   0  0  0  0  0  0
  -64.0250   72.8180   55.2300 C   0  0  0  0  0  0
  -64.7790   71.9540   55.6800 O   0  0  0  0  0  0
  -63.3040   72.6370   54.1290 N   0  0  0  0  0  0
  -61.7060   76.0960   58.7840 N   0  0  0  0  0  0
  -60.3130   75.9930   59.1900 C   0  0  2  0  0  0
  -60.2800   75.4530   60.6140 C   0  0  0  0  0  0
  -61.1260   75.8050   61.4360 O   0  0  0  0  0  0
  -59.6300   77.3470   59.1110 C   0  0  0  0  0  0
  -59.3150   74.5880   60.9010 N   0  0  0  0  0  0
  -59.2260   73.9700   62.2170 C   0  0  2  0  0  0
  -57.8760   74.2290   62.8690 C   0  0  0  0  0  0
  -56.8390   74.2010   62.2080 O   0  0  0  0  0  0
  -59.4710   72.4620   62.1220 C   0  0  0  0  0  0
  -60.8010   72.0740   61.4950 C   0  0  0  0  0  0
  -61.0850   70.5870   61.6100 C   0  0  0  0  0  0
  -60.2670   69.8270   62.1290 O   0  0  0  0  0  0
  -62.2500   70.1670   61.1300 N   0  0  0  0  0  0
  -57.8960   74.4890   64.1710 N   0  0  0  0  0  0
  -56.6710   74.5960   64.9360 C   0  0  0  0  0  0
  -56.3060   73.2390   65.5020 C   0  0  0  0  0  0
  -56.9450   72.2380   65.1780 O   0  0  0  0  0  0
  -55.2710   73.1970   66.3510 N   0  0  0  0  0  0
  -54.8760   71.9740   67.0550 C   0  0  2  0  0  0
  -56.0050   71.5130   67.9680 C   0  0  0  0  0  0
  -56.9370   72.2810   68.2090 O   0  0  0  0  0  0
  -53.6750   72.4310   67.8930 C   0  0  0  0  0  0
  -53.1570   73.6380   67.1910 C   0  0  0  0  0  0
  -54.3750   74.3220   66.6580 C   0  0  0  0  0  0
  -55.9380   70.2680   68.4600 N   0  0  0  0  0  0
  -56.9470   69.8030   69.4170 C   0  0  2  0  0  0
  -57.0120   70.7030   70.6520 C   0  0  0  0  0  0
  -58.0950   70.9390   71.1880 O   0  0  0  0  0  0
  -56.4420   68.4090   69.7920 C   0  0  0  0  0  0
  -55.6870   67.9560   68.5860 C   0  0  0  0  0  0
  -55.0120   69.1920   68.0650 C   0  0  0  0  0  0
  -55.8550   71.1920   71.0910 N   0  0  0  0  0  0
  -55.7610   72.1080   72.2260 C   0  0  2  0  0  0
  -54.4590   72.9070   72.1180 C   0  0  0  0  0  0
  -53.5280   72.4710   71.4440 O   0  0  0  0  0  0
  -55.8300   71.3380   73.5500 C   0  0  0  0  0  0
  -55.6180   69.8510   73.4110 C   0  0  0  0  0  0
  -54.3400   69.3150   73.3570 C   0  0  0  0  0  0
  -56.6980   68.9800   73.3350 C   0  0  0  0  0  0
  -54.1430   67.9560   73.2280 C   0  0  0  0  0  0
  -56.5110   67.6190   73.2050 C   0  0  0  0  0  0
  -55.2310   67.1120   73.1510 C   0  0  0  0  0  0
  -55.0370   65.7560   73.0230 O   0  0  0  0  0  0
  -54.3930   74.0840   72.7680 N   0  0  0  0  0  0
  -53.2260   74.9680   72.6180 C   0  0  2  0  0  0
  -51.8670   74.3450   72.9690 C   0  0  0  0  0  0
  -50.8730   74.7080   72.3410 O   0  0  0  0  0  0
  -53.5440   76.1420   73.5600 C   0  0  0  0  0  0
  -54.6470   75.6540   74.4480 C   0  0  0  0  0  0
  -55.4330   74.7040   73.6070 C   0  0  0  0  0  0
  -51.8150   73.4400   73.9430 N   0  0  0  0  0  0
  -50.5510   72.7930   74.2970 C   0  0  2  0  0  0
  -50.5380   71.3310   73.8720 C   0  0  0  0  0  0
  -51.5530   70.6420   73.9610 O   0  0  0  0  0  0
  -50.2480   72.8780   75.8080 C   0  0  2  0  0  0
  -51.2460   72.1610   76.5450 O   0  0  0  0  0  0
  -50.2190   74.3260   76.2670 C   0  0  0  0  0  0
  -49.3840   70.8580   73.4150 N   0  0  0  0  0  0
  -49.2800   69.4830   72.9450 C   0  0  2  0  0  0
  -49.3610   68.4780   74.0860 C   0  0  0  0  0  0
  -48.7040   68.6310   75.1150 O   0  0  0  0  0  0
  -47.9950   69.2570   72.1460 C   0  0  0  0  0  0
  -47.8800   67.8450   71.6230 C   0  0  0  0  0  0
  -48.6660   67.4150   70.5620 C   0  0  0  0  0  0
  -46.9990   66.9370   72.1960 C   0  0  0  0  0  0
  -48.5750   66.1250   70.0810 C   0  0  0  0  0  0
  -46.8980   65.6420   71.7190 C   0  0  0  0  0  0
  -47.6890   65.2410   70.6620 C   0  0  0  0  0  0
  -47.5940   63.9530   70.1820 O   0  0  0  0  0  0
  -50.1790   67.4520   73.8890 N   0  0  0  0  0  0
  -50.2690   66.3430   74.8250 C   0  0  2  0  0  0
  -50.0190   65.0410   74.0740 C   0  0  0  0  0  0
  -50.7920   64.6740   73.1900 O   0  0  0  0  0  0
  -51.6460   66.2920   75.5110 C   0  0  2  0  0  0
  -51.8660   67.5540   76.3520 C   0  0  0  0  0  0
  -51.7680   65.0380   76.3670 C   0  0  0  0  0  0
  -53.2840   67.7130   76.8570 C   0  0  0  0  0  0
  -48.9250   64.3460   74.4190 N   0  0  0  0  0  0
  -48.5210   63.1040   73.7490 C   0  0  2  0  0  0
  -49.6120   62.0430   73.8130 C   0  0  0  0  0  0
  -50.4630   62.1000   74.6990 O   0  0  0  0  0  0
  -47.3070   62.6490   74.5640 C   0  0  0  0  0  0
  -46.7850   63.8890   75.1960 C   0  0  0  0  0  0
  -47.9880   64.7280   75.4880 C   0  0  0  0  0  0
  -49.6000   61.0900   72.8690 N   0  0  0  0  0  0
  -50.5610   59.9850   72.9030 C   0  0  2  0  0  0
  -50.0980   58.8850   73.8510 C   0  0  0  0  0  0
  -50.9100   58.0460   74.2400 O   0  0  0  0  0  0
  -50.5470   59.4780   71.4620 C   0  0  0  0  0  0
  -49.1650   59.7630   70.9940 C   0  0  0  0  0  0
  -48.7580   61.0530   71.6590 C   0  0  0  0  0  0
  -48.9210   58.8570   74.2090 O   0  0  0  0  0  0
  -63.7987   77.3086   58.4056 H   0  0  0  0  0  0
  -65.2926   76.6683   57.6408 H   0  0  0  0  0  0
  -63.7424   76.6554   56.7333 H   0  0  0  0  0  0
  -64.4152   75.1890   59.2281 H   0  0  0  0  0  0
  -64.2374   73.1421   57.7575 H   0  0  0  0  0  0
  -65.5431   74.2554   57.2262 H   0  0  0  0  0  0
  -64.3830   74.9145   55.3281 H   0  0  0  0  0  0
  -62.7968   74.3852   55.9840 H   0  0  0  0  0  0
  -62.6442   73.4387   53.7656 H   0  0  0  0  0  0
  -63.3668   71.6855   53.5807 H   0  0  0  0  0  0
  -62.1940   77.0807   58.7378 H   0  0  0  0  0  0
  -59.8087   75.3100   58.4906 H   0  0  0  0  0  0
  -59.6662   77.7161   58.0754 H   0  0  0  0  0  0
  -58.5815   77.2478   59.4285 H   0  0  0  0  0  0
  -60.1476   78.0578   59.7719 H   0  0  0  0  0  0
  -58.5750   74.3401   60.1258 H   0  0  0  0  0  0
  -60.0150   74.4600   62.8064 H   0  0  0  0  0  0
  -58.6831   72.0005   61.5087 H   0  0  0  0  0  0
  -59.4545   72.0236   63.1307 H   0  0  0  0  0  0
  -61.6156   72.6147   61.9991 H   0  0  0  0  0  0
  -60.7931   72.3360   60.4267 H   0  0  0  0  0  0
  -62.9484   70.8848   60.6750 H   0  0  0  0  0  0
  -62.5165   69.1013   61.1874 H   0  0  0  0  0  0
  -58.8682   74.6239   64.6677 H   0  0  0  0  0  0
  -55.8602   74.9497   64.2822 H   0  0  0  0  0  0
  -56.8148   75.3096   65.7607 H   0  0  0  0  0  0
  -54.6592   71.1559   66.3523 H   0  0  0  0  0  0
  -54.0088   72.6658   68.9145 H   0  0  0  0  0  0
  -52.9251   71.6270   67.9280 H   0  0  0  0  0  0
  -52.6130   74.2727   67.9059 H   0  0  0  0  0  0
  -52.4768   73.3290   66.3836 H   0  0  0  0  0  0
  -54.1741   74.8921   65.7390 H   0  0  0  0  0  0
  -54.8523   74.9790   67.4000 H   0  0  0  0  0  0
  -57.9497   69.8231   68.9651 H   0  0  0  0  0  0
  -55.7971   68.4794   70.6803 H   0  0  0  0  0  0
  -57.2990   67.7554   70.0120 H   0  0  0  0  0  0
  -54.9571   67.1866   68.8780 H   0  0  0  0  0  0
  -56.3887   67.5354   67.8507 H   0  0  0  0  0  0
  -54.9039   69.1848   66.9704 H   0  0  0  0  0  0
  -54.0299   69.3646   68.5293 H   0  0  0  0  0  0
  -54.9439   70.8785   70.5603 H   0  0  0  0  0  0
  -56.6275   72.7828   72.1644 H   0  0  0  0  0  0
  -55.0533   71.7127   74.2329 H   0  0  0  0  0  0
  -56.8203   71.4819   74.0067 H   0  0  0  0  0  0
  -53.4773   69.9785   73.4175 H   0  0  0  0  0  0
  -57.7114   69.3791   73.3789 H   0  0  0  0  0  0
  -53.1319   67.5509   73.1871 H   0  0  0  0  0  0
  -57.3695   66.9500   73.1455 H   0  0  0  0  0  0
  -54.0163   65.3481   72.9796 H   0  0  0  0  0  0
  -53.1327   75.2145   71.5500 H   0  0  0  0  0  0
  -52.6457   76.4005   74.1398 H   0  0  0  0  0  0
  -53.8607   77.0126   72.9669 H   0  0  0  0  0  0
  -54.2155   75.1542   75.3277 H   0  0  0  0  0  0
  -55.2594   76.5073   74.7748 H   0  0  0  0  0  0
  -56.1684   75.2107   72.9648 H   0  0  0  0  0  0
  -55.9377   73.9267   74.1996 H   0  0  0  0  0  0
  -52.7366   73.1798   74.4843 H   0  0  0  0  0  0
  -49.8075   73.3655   73.7229 H   0  0  0  0  0  0
  -49.2903   72.3916   76.0452 H   0  0  0  0  0  0
  -51.4126   71.0916   76.3484 H   0  0  0  0  0  0
  -49.4525   74.8750   75.7004 H   0  0  0  0  0  0
  -49.9804   74.3658   77.3401 H   0  0  0  0  0  0
  -51.2031   74.7856   76.0929 H   0  0  0  0  0  0
  -48.5019   71.5148   73.3934 H   0  0  0  0  0  0
  -50.1601   69.3678   72.2953 H   0  0  0  0  0  0
  -47.9743   69.9401   71.2841 H   0  0  0  0  0  0
  -47.1242   69.4518   72.7892 H   0  0  0  0  0  0
  -49.3680   68.1096   70.1006 H   0  0  0  0  0  0
  -46.3772   67.2495   73.0349 H   0  0  0  0  0  0
  -49.1996   65.8060   69.2466 H   0  0  0  0  0  0
  -46.1976   64.9427   72.1757 H   0  0  0  0  0  0
  -48.2241   63.6322   69.3394 H   0  0  0  0  0  0
  -50.8016   67.4583   72.9822 H   0  0  0  0  0  0
  -49.4887   66.5266   75.5782 H   0  0  0  0  0  0
  -52.4322   66.2472   74.7430 H   0  0  0  0  0  0
  -51.2073   67.5273   77.2325 H   0  0  0  0  0  0
  -51.6336   68.4429   75.7471 H   0  0  0  0  0  0
  -51.6060   64.1489   75.7399 H   0  0  0  0  0  0
  -52.7728   64.9945   76.8125 H   0  0  0  0  0  0
  -51.0132   65.0651   77.1667 H   0  0  0  0  0  0
  -53.3610   68.6371   77.4487 H   0  0  0  0  0  0
  -53.5475   66.8509   77.4874 H   0  0  0  0  0  0
  -53.9739   67.7665   76.0019 H   0  0  0  0  0  0
  -48.3276   63.2926   72.6827 H   0  0  0  0  0  0
  -47.6255   61.9120   75.3159 H   0  0  0  0  0  0
  -46.5655   62.1911   73.8928 H   0  0  0  0  0  0
  -46.2430   63.6306   76.1176 H   0  0  0  0  0  0
  -46.1019   64.3963   74.4989 H   0  0  0  0  0  0
  -47.7777   65.8058   75.4234 H   0  0  0  0  0  0
  -48.4354   64.4997   76.4666 H   0  0  0  0  0  0
  -51.5424   60.3276   73.2627 H   0  0  0  0  0  0
  -50.5897   57.2466   74.9243 H   0  0  0  0  0  0
  -50.7752   58.4020   71.4497 H   0  0  0  0  0  0
  -51.3033   60.0199   70.8752 H   0  0  0  0  0  0
  -48.5005   58.9374   71.2887 H   0  0  0  0  0  0
  -49.1621   59.8628   69.8985 H   0  0  0  0  0  0
  -48.9728   61.9336   71.0358 H   0  0  0  0  0  0
  -47.6972   61.0598   71.9501 H   0  0  0  0  0  0
  1  2  1  0  0  0
  1103  1  0  0  0
  1104  1  0  0  0
  1105  1  0  0  0
  2  3  1  0  0  0
  2  5  1  0  0  0
  2106  1  0  0  0
  3  4  2  0  0  0
  3 10  1  0  0  0
  5  6  1  0  0  0
  5107  1  0  0  0
  5108  1  0  0  0
  6  7  1  0  0  0
  6109  1  0  0  0
  6110  1  0  0  0
  7  8  2  0  0  0
  7  9  1  0  0  0
  9111  1  0  0  0
  9112  1  0  0  0
 10 11  1  0  0  0
 10113  1  0  0  0
 11 12  1  0  0  0
 11 14  1  0  0  0
 11114  1  0  0  0
 12 13  2  0  0  0
 12 15  1  0  0  0
 14115  1  0  0  0
 14116  1  0  0  0
 14117  1  0  0  0
 15 16  1  0  0  0
 15118  1  0  0  0
 16 17  1  0  0  0
 16 19  1  0  0  0
 16119  1  0  0  0
 17 18  2  0  0  0
 17 24  1  0  0  0
 19 20  1  0  0  0
 19120  1  0  0  0
 19121  1  0  0  0
 20 21  1  0  0  0
 20122  1  0  0  0
 20123  1  0  0  0
 21 22  2  0  0  0
 21 23  1  0  0  0
 23124  1  0  0  0
 23125  1  0  0  0
 24 25  1  0  0  0
 24126  1  0  0  0
 25 26  1  0  0  0
 25127  1  0  0  0
 25128  1  0  0  0
 26 27  2  0  0  0
 26 28  1  0  0  0
 28 29  1  0  0  0
 28 34  1  0  0  0
 29 30  1  0  0  0
 29 32  1  0  0  0
 29129  1  0  0  0
 30 31  2  0  0  0
 30 35  1  0  0  0
 32 33  1  0  0  0
 32130  1  0  0  0
 32131  1  0  0  0
 33 34  1  0  0  0
 33132  1  0  0  0
 33133  1  0  0  0
 34134  1  0  0  0
 34135  1  0  0  0
 35 36  1  0  0  0
 35 41  1  0  0  0
 36 37  1  0  0  0
 36 39  1  0  0  0
 36136  1  0  0  0
 37 38  2  0  0  0
 37 42  1  0  0  0
 39 40  1  0  0  0
 39137  1  0  0  0
 39138  1  0  0  0
 40 41  1  0  0  0
 40139  1  0  0  0
 40140  1  0  0  0
 41141  1  0  0  0
 41142  1  0  0  0
 42 43  1  0  0  0
 42143  1  0  0  0
 43 44  1  0  0  0
 43 46  1  0  0  0
 43144  1  0  0  0
 44 45  2  0  0  0
 44 54  1  0  0  0
 46 47  1  0  0  0
 46145  1  0  0  0
 46146  1  0  0  0
 47 48  2  0  0  0
 47 49  1  0  0  0
 48 50  1  0  0  0
 48147  1  0  0  0
 49 51  2  0  0  0
 49148  1  0  0  0
 50 52  2  0  0  0
 50149  1  0  0  0
 51 52  1  0  0  0
 51150  1  0  0  0
 52 53  1  0  0  0
 53151  1  0  0  0
 54 55  1  0  0  0
 54 60  1  0  0  0
 55 56  1  0  0  0
 55 58  1  0  0  0
 55152  1  0  0  0
 56 57  2  0  0  0
 56 61  1  0  0  0
 58 59  1  0  0  0
 58153  1  0  0  0
 58154  1  0  0  0
 59 60  1  0  0  0
 59155  1  0  0  0
 59156  1  0  0  0
 60157  1  0  0  0
 60158  1  0  0  0
 61 62  1  0  0  0
 61159  1  0  0  0
 62 63  1  0  0  0
 62 65  1  0  0  0
 62160  1  0  0  0
 63 64  2  0  0  0
 63 68  1  0  0  0
 65 66  1  0  0  0
 65 67  1  0  0  0
 65161  1  0  0  0
 66162  1  0  0  0
 67163  1  0  0  0
 67164  1  0  0  0
 67165  1  0  0  0
 68 69  1  0  0  0
 68166  1  0  0  0
 69 70  1  0  0  0
 69 72  1  0  0  0
 69167  1  0  0  0
 70 71  2  0  0  0
 70 80  1  0  0  0
 72 73  1  0  0  0
 72168  1  0  0  0
 72169  1  0  0  0
 73 74  2  0  0  0
 73 75  1  0  0  0
 74 76  1  0  0  0
 74170  1  0  0  0
 75 77  2  0  0  0
 75171  1  0  0  0
 76 78  2  0  0  0
 76172  1  0  0  0
 77 78  1  0  0  0
 77173  1  0  0  0
 78 79  1  0  0  0
 79174  1  0  0  0
 80 81  1  0  0  0
 80175  1  0  0  0
 81 82  1  0  0  0
 81 84  1  0  0  0
 81176  1  0  0  0
 82 83  2  0  0  0
 82 88  1  0  0  0
 84 85  1  0  0  0
 84 86  1  0  0  0
 84177  1  0  0  0
 85 87  1  0  0  0
 85178  1  0  0  0
 85179  1  0  0  0
 86180  1  0  0  0
 86181  1  0  0  0
 86182  1  0  0  0
 87183  1  0  0  0
 87184  1  0  0  0
 87185  1  0  0  0
 88 89  1  0  0  0
 88 94  1  0  0  0
 89 90  1  0  0  0
 89 92  1  0  0  0
 89186  1  0  0  0
 90 91  2  0  0  0
 90 95  1  0  0  0
 92 93  1  0  0  0
 92187  1  0  0  0
 92188  1  0  0  0
 93 94  1  0  0  0
 93189  1  0  0  0
 93190  1  0  0  0
 94191  1  0  0  0
 94192  1  0  0  0
 95 96  1  0  0  0
 95101  1  0  0  0
 96 97  1  0  0  0
 96 99  1  0  0  0
 96193  1  0  0  0
 97 98  1  0  0  0
 97102  2  0  0  0
 98194  1  0  0  0
 99100  1  0  0  0
 99195  1  0  0  0
 99196  1  0  0  0
100101  1  0  0  0
100197  1  0  0  0
100198  1  0  0  0
101199  1  0  0  0
101200  1  0  0  0
M  CHG  1   1   1
M  END
> <s_m_source_file>
../3wuv_ligand.sdf

> <i_m_source_file_index>
1

> <s_epik_input>
Tz1DKFtOSDJdKVtDSDJdW0NIMl1bQ0BIXShbTkgzK10pQyg9TylbTkhdW0NAQEhdKFtDSDNdKUMoPU8pW05IXVtDQEBIXShbQ0gyXVtDSDJdQyg9TylbTkgyXSlDKD1PKVtOSF1bQ0gyXUMoPU8pTjFbQ0BASF0oW0NIMl1bQ0gyXVtDSDJdMSlDKD1PKU4yW0NAQEhdKFtDSDJdW0NIMl1bQ0gyXTIpQyg9TylbTkhdW0NAQEhdKFtDSDJdYzNbY0hdW2NIXWMoW09IXSlbY0hdW2NIXTMpQyg9TylONFtDQEBIXShbQ0gyXVtDSDJdW0NIMl00KUMoPU8pW05IXVtDQEBIXShbQ0BIXShbT0hdKVtDSDNdKUMoPU8pW05IXVtDQEBIXShbQ0gyXWM1W2NIXVtjSF1jKFtPSF0pW2NIXVtjSF01KUMoPU8pW05IXVtDQEBIXShbQ0BASF0oW0NIM10pW0NIMl1bQ0gzXSlDKD1PKU42W0NAQEhdKFtDSDJdW0NIMl1bQ0gyXTYpQyg9TylON1tDQEhdKEMoPU8pW09IXSlbQ0gyXVtDSDJdW0NIMl03

> <s_epik_cmdline>
J2VwaWtfYXBwJywgJy1pbWFlJywgJ2xpZ2FuZF9wcm8ubWFlJywgJy1vbWFlJywgJ2xpZ2FuZF9wcmVwLm1hZScsICctbXMnLCAnMScsICctcGgnLCAnNycsICctcGh0JywgJzAuNScsICctbnQn

> <s_epik_pKa_notes>
Molecule size exceeds maximum supported for generating protonation states

$$$$
