3wv2_ligand
                    3D
 Schrodinger Suite 2020-3.
 38 40  0  0  1  0            999 V2000
   -3.1430  -30.5370   47.8010 C   0  0  0  0  0  0
   -3.2010  -30.2210   46.4580 C   0  0  0  0  0  0
  -12.0830  -30.0370   44.9140 C   0  0  0  0  0  0
   -4.1760  -31.2500   48.3730 C   0  0  0  0  0  0
  -10.9710  -30.7880   44.6100 C   0  0  0  0  0  0
   -4.2820  -30.6100   45.6920 C   0  0  0  0  0  0
  -13.2800  -30.2900   44.2790 C   0  0  0  0  0  0
  -12.2450  -32.0460   43.0590 C   0  0  0  0  0  0
   -5.2490  -31.6390   47.5950 C   0  0  0  0  0  0
  -11.0470  -31.8010   43.6800 C   0  0  0  0  0  0
   -5.3190  -31.3270   46.2530 C   0  0  0  0  0  0
  -13.3630  -31.3010   43.3450 C   0  0  0  0  0  0
   -6.3440  -32.3980   48.2140 C   0  0  0  0  0  0
   -7.3450  -32.3730   46.0320 C   0  0  0  0  0  0
   -8.5540  -32.8230   45.2530 C   0  0  0  0  0  0
  -15.5150  -30.6160   42.9230 C   0  0  0  0  0  0
   -9.8800  -32.6660   43.2940 C   0  0  0  0  0  0
   -6.4010  -31.7040   45.4560 N   0  0  0  0  0  0
   -7.3610  -32.7330   47.3530 N   0  0  0  0  0  0
   -8.6490  -32.3780   43.9660 N   0  0  0  0  0  0
   -6.2940  -32.6810   49.4020 O   0  0  0  0  0  0
   -9.3780  -33.5240   45.8060 O   0  0  0  0  0  0
  -14.5380  -31.6320   42.6630 O   0  0  0  0  0  0
   -2.2893  -30.2261   48.4032 H   0  0  0  0  0  0
   -2.3870  -29.6600   45.9989 H   0  0  0  0  0  0
  -12.0174  -29.2421   45.6569 H   0  0  0  0  0  0
   -4.1458  -31.5049   49.4324 H   0  0  0  0  0  0
  -10.0241  -30.5800   45.1082 H   0  0  0  0  0  0
   -4.3165  -30.3483   44.6344 H   0  0  0  0  0  0
  -14.1599  -29.6916   44.5149 H   0  0  0  0  0  0
  -12.3113  -32.8480   42.3238 H   0  0  0  0  0  0
  -16.4477  -30.8602   42.3935 H   0  0  0  0  0  0
  -15.1368  -29.6450   42.5708 H   0  0  0  0  0  0
  -15.7102  -30.5632   44.0043 H   0  0  0  0  0  0
  -10.1145  -33.7179   43.5145 H   0  0  0  0  0  0
   -9.6795  -32.5527   42.2184 H   0  0  0  0  0  0
   -8.2240  -33.3087   47.7187 H   0  0  0  0  0  0
   -7.8521  -31.8291   43.4428 H   0  0  0  0  0  0
  1  2  2  0  0  0
  1  4  1  0  0  0
  1 24  1  0  0  0
  2  6  1  0  0  0
  2 25  1  0  0  0
  3  5  2  0  0  0
  3  7  1  0  0  0
  3 26  1  0  0  0
  4  9  2  0  0  0
  4 27  1  0  0  0
  5 10  1  0  0  0
  5 28  1  0  0  0
  6 11  2  0  0  0
  6 29  1  0  0  0
  7 12  2  0  0  0
  7 30  1  0  0  0
  8 10  2  0  0  0
  8 12  1  0  0  0
  8 31  1  0  0  0
  9 11  1  0  0  0
  9 13  1  0  0  0
 10 17  1  0  0  0
 11 18  1  0  0  0
 12 23  1  0  0  0
 13 19  1  0  0  0
 13 21  2  0  0  0
 14 15  1  0  0  0
 14 18  2  0  0  0
 14 19  1  0  0  0
 15 20  1  0  0  0
 15 22  2  0  0  0
 16 23  1  0  0  0
 16 32  1  0  0  0
 16 33  1  0  0  0
 16 34  1  0  0  0
 17 20  1  0  0  0
 17 35  1  0  0  0
 17 36  1  0  0  0
 19 37  1  0  0  0
 20 38  1  0  0  0
M  END
> <s_m_source_file>
../3wv2_ligand.sdf

> <i_m_source_file_index>
1

> <s_epik_input>
W2NIXTFbY0hdW2NIXVtjSF1jKGMxMiluYyhbbkhdYzI9TylDKD1PKVtOSF1bQ0gyXWMzW2NIXVtjSF1bY0hdYyhbY0hdMylPW0NIM10=

> <s_epik_cmdline>
J2VwaWtfYXBwJywgJy1pbWFlJywgJ2xpZ2FuZF9wcm8ubWFlJywgJy1vbWFlJywgJ2xpZ2FuZF9wcmVwLm1hZScsICctbXMnLCAnMScsICctcGgnLCAnNycsICctcGh0JywgJzAuNScsICctbnQn

> <r_lp_tautomer_probability>
1

> <r_epik_Ionization_Penalty>
  0.0018

> <r_epik_Ionization_Penalty_Charging>
  0.0017

> <r_epik_Ionization_Penalty_Neutral>
  0.0000

> <r_epik_State_Penalty>
 -0.0000

> <r_epik_Charging_Adjusted_Penalty>
0.00174443108479411

> <i_epik_Tot_Q>
0

> <i_epik_Tot_abs_Q>
0

$$$$
