3wv3_ligand
                    3D
 Schrodinger Suite 2020-3.
 35 37  0  0  1  0            999 V2000
   44.6300   -6.1850  -15.1710 C   0  0  0  0  0  0
   44.3810   -5.3900  -14.0630 C   0  0  0  0  0  0
   43.9350   -5.9610  -16.3400 C   0  0  0  0  0  0
   48.1150   -5.2620   -7.3730 C   0  0  0  0  0  0
   42.7390   -4.1670  -15.3130 C   0  0  0  0  0  0
   47.2210   -5.9960   -6.6230 C   0  0  0  0  0  0
   47.5200   -4.6960   -8.5340 C   0  0  0  0  0  0
   43.4450   -4.3780  -14.1450 C   0  0  0  0  0  0
   42.9840   -4.9600  -16.4130 C   0  0  0  0  0  0
   46.1900   -5.0070   -8.6560 C   0  0  0  0  0  0
   48.1570   -3.8760   -9.5330 C   0  0  0  0  0  0
   45.9830   -3.8770  -10.5360 C   0  0  0  0  0  0
   45.2320   -3.3810  -11.7240 C   0  0  0  0  0  0
   42.7070   -5.4820  -18.6370 C   0  0  0  0  0  0
   43.1710   -3.5070  -12.9460 C   0  0  0  0  0  0
   45.3750   -4.6170   -9.6430 N   0  0  0  0  0  0
   47.3050   -3.5010  -10.5220 N   0  0  0  0  0  0
   43.9500   -3.8270  -11.7760 N   0  0  0  0  0  0
   49.3370   -3.5600   -9.4750 O   0  0  0  0  0  0
   45.8050   -2.7400  -12.5950 O   0  0  0  0  0  0
   42.2470   -4.6820  -17.5540 O   0  0  0  0  0  0
   45.6610   -5.9950   -7.3370 S   0  0  0  0  0  0
   45.3711   -6.9826  -15.1181 H   0  0  0  0  0  0
   44.9211   -5.5628  -13.1321 H   0  0  0  0  0  0
   44.1370   -6.5787  -17.2151 H   0  0  0  0  0  0
   49.1633   -5.1299   -7.1054 H   0  0  0  0  0  0
   41.9907   -3.3761  -15.3646 H   0  0  0  0  0  0
   47.4728   -6.5107   -5.6958 H   0  0  0  0  0  0
   42.1170   -5.2548  -19.5371 H   0  0  0  0  0  0
   42.5917   -6.5458  -18.3819 H   0  0  0  0  0  0
   43.7679   -5.2639  -18.8292 H   0  0  0  0  0  0
   43.3909   -2.4587  -13.1964 H   0  0  0  0  0  0
   42.1135   -3.6012  -12.6584 H   0  0  0  0  0  0
   47.6660   -2.8740  -11.3506 H   0  0  0  0  0  0
   43.5025   -4.4151  -10.9612 H   0  0  0  0  0  0
  1  2  2  0  0  0
  1  3  1  0  0  0
  1 23  1  0  0  0
  2  8  1  0  0  0
  2 24  1  0  0  0
  3  9  2  0  0  0
  3 25  1  0  0  0
  4  6  2  0  0  0
  4  7  1  0  0  0
  4 26  1  0  0  0
  5  8  2  0  0  0
  5  9  1  0  0  0
  5 27  1  0  0  0
  6 22  1  0  0  0
  6 28  1  0  0  0
  7 10  2  0  0  0
  7 11  1  0  0  0
  8 15  1  0  0  0
  9 21  1  0  0  0
 10 16  1  0  0  0
 10 22  1  0  0  0
 11 17  1  0  0  0
 11 19  2  0  0  0
 12 13  1  0  0  0
 12 16  2  0  0  0
 12 17  1  0  0  0
 13 18  1  0  0  0
 13 20  2  0  0  0
 14 21  1  0  0  0
 14 29  1  0  0  0
 14 30  1  0  0  0
 14 31  1  0  0  0
 15 18  1  0  0  0
 15 32  1  0  0  0
 15 33  1  0  0  0
 17 34  1  0  0  0
 18 35  1  0  0  0
M  END
> <s_m_source_file>
../3wv3_ligand.sdf

> <i_m_source_file_index>
1

> <s_epik_input>
W0NIM11PYyhbY0hdMSlbY0hdW2NIXVtjSF1jMVtDSDJdW05IXUMoPU8pYyhbbkhdYzI9TyluYyhjMjMpc1tjSF1bY0hdMw==

> <s_epik_cmdline>
J2VwaWtfYXBwJywgJy1pbWFlJywgJ2xpZ2FuZF9wcm8ubWFlJywgJy1vbWFlJywgJ2xpZ2FuZF9wcmVwLm1hZScsICctbXMnLCAnMScsICctcGgnLCAnNycsICctcGh0JywgJzAuNScsICctbnQn

> <r_lp_tautomer_probability>
1

> <r_epik_Ionization_Penalty>
  0.0007

> <r_epik_Ionization_Penalty_Charging>
  0.0007

> <r_epik_Ionization_Penalty_Neutral>
  0.0000

> <r_epik_State_Penalty>
 -0.0000

> <r_epik_Charging_Adjusted_Penalty>
0.000714581899505661

> <i_epik_Tot_Q>
0

> <i_epik_Tot_abs_Q>
0

$$$$
