3wvm_ligand
                    3D
 Schrodinger Suite 2020-3.
 55 54  0  0  1  0            999 V2000
    5.8020  -16.5780   -1.5630 C   0  0  0  0  0  0
    6.8590  -15.9210   -1.4970 O   0  0  0  0  0  0
    4.7810  -16.3510   -0.8460 O   0  5  0  0  0  0
    5.6830  -17.6950   -2.5740 C   0  0  0  0  0  0
    6.9570  -18.0980   -3.2800 C   0  0  0  0  0  0
    6.7950  -19.2040   -4.2910 C   0  0  0  0  0  0
    8.1130  -19.6940   -4.8260 C   0  0  0  0  0  0
    8.0210  -20.6320   -6.0410 C   0  0  0  0  0  0
    7.1100  -21.8260   -5.8630 C   0  0  0  0  0  0
    7.5580  -22.8080   -4.7830 C   0  0  0  0  0  0
    6.5040  -23.8460   -4.5350 C   0  0  0  0  0  0
    6.8610  -25.0090   -3.6460 C   0  0  0  0  0  0
    7.4210  -24.6230   -2.3470 C   0  0  0  0  0  0
    6.6000  -23.5870   -1.5450 C   0  0  0  0  0  0
    7.0560  -23.4450   -0.1130 C   0  0  0  0  0  0
    6.3870  -22.3600    0.6600 C   0  0  0  0  0  0
    6.5790  -20.9580    0.1070 C   0  0  0  0  0  0
    8.0420  -20.5480   -0.1650 C   0  0  0  0  0  0
    8.9420  -20.5470    1.1090 C   0  0  0  0  0  0
   10.3910  -20.2580    0.7490 C   0  0  0  0  0  0
    5.3135  -18.6031   -2.0752 H   0  0  0  0  0  0
    4.9791  -17.3994   -3.3659 H   0  0  0  0  0  0
    7.3667  -17.2317   -3.8200 H   0  0  0  0  0  0
    7.6910  -18.4493   -2.5399 H   0  0  0  0  0  0
    6.2819  -20.0568   -3.8225 H   0  0  0  0  0  0
    6.1993  -18.8396   -5.1409 H   0  0  0  0  0  0
    8.7233  -18.8346   -5.1406 H   0  0  0  0  0  0
    8.6431  -20.2521   -4.0402 H   0  0  0  0  0  0
    7.6395  -20.0727   -6.9079 H   0  0  0  0  0  0
    9.0196  -21.0310   -6.2727 H   0  0  0  0  0  0
    6.1035  -21.4809   -5.5842 H   0  0  0  0  0  0
    7.0561  -22.3899   -6.8059 H   0  0  0  0  0  0
    8.4816  -23.3111   -5.1052 H   0  0  0  0  0  0
    7.7452  -22.2626   -3.8463 H   0  0  0  0  0  0
    5.6313  -23.3758   -4.0583 H   0  0  0  0  0  0
    6.2008  -24.2966   -5.4916 H   0  0  0  0  0  0
    5.9597  -25.6064   -3.4441 H   0  0  0  0  0  0
    7.6122  -25.6368   -4.1475 H   0  0  0  0  0  0
    7.5062  -25.5125   -1.7056 H   0  0  0  0  0  0
    8.4171  -24.1802   -2.4941 H   0  0  0  0  0  0
    6.6902  -22.5996   -2.0213 H   0  0  0  0  0  0
    5.5429  -23.8907   -1.5280 H   0  0  0  0  0  0
    6.8607  -24.3823    0.4286 H   0  0  0  0  0  0
    8.1339  -23.2268   -0.0913 H   0  0  0  0  0  0
    5.3023  -22.5414    0.6830 H   0  0  0  0  0  0
    6.7784  -22.3472    1.6879 H   0  0  0  0  0  0
    6.0468  -20.8658   -0.8512 H   0  0  0  0  0  0
    6.1779  -20.2239    0.8213 H   0  0  0  0  0  0
    8.4921  -21.2499   -0.8825 H   0  0  0  0  0  0
    8.0661  -19.5307   -0.5829 H   0  0  0  0  0  0
    8.5895  -19.7727    1.8063 H   0  0  0  0  0  0
    8.8883  -21.5315    1.5967 H   0  0  0  0  0  0
   11.0037  -20.2628    1.6625 H   0  0  0  0  0  0
   10.4593  -19.2717    0.2669 H   0  0  0  0  0  0
   10.7580  -21.0305    0.0572 H   0  0  0  0  0  0
  1  2  2  0  0  0
  1  3  1  0  0  0
  1  4  1  0  0  0
  4  5  1  0  0  0
  4 21  1  0  0  0
  4 22  1  0  0  0
  5  6  1  0  0  0
  5 23  1  0  0  0
  5 24  1  0  0  0
  6  7  1  0  0  0
  6 25  1  0  0  0
  6 26  1  0  0  0
  7  8  1  0  0  0
  7 27  1  0  0  0
  7 28  1  0  0  0
  8  9  1  0  0  0
  8 29  1  0  0  0
  8 30  1  0  0  0
  9 10  1  0  0  0
  9 31  1  0  0  0
  9 32  1  0  0  0
 10 11  1  0  0  0
 10 33  1  0  0  0
 10 34  1  0  0  0
 11 12  1  0  0  0
 11 35  1  0  0  0
 11 36  1  0  0  0
 12 13  1  0  0  0
 12 37  1  0  0  0
 12 38  1  0  0  0
 13 14  1  0  0  0
 13 39  1  0  0  0
 13 40  1  0  0  0
 14 15  1  0  0  0
 14 41  1  0  0  0
 14 42  1  0  0  0
 15 16  1  0  0  0
 15 43  1  0  0  0
 15 44  1  0  0  0
 16 17  1  0  0  0
 16 45  1  0  0  0
 16 46  1  0  0  0
 17 18  1  0  0  0
 17 47  1  0  0  0
 17 48  1  0  0  0
 18 19  1  0  0  0
 18 49  1  0  0  0
 18 50  1  0  0  0
 19 20  1  0  0  0
 19 51  1  0  0  0
 19 52  1  0  0  0
 20 53  1  0  0  0
 20 54  1  0  0  0
 20 55  1  0  0  0
M  CHG  1   3  -1
M  END
> <s_m_source_file>
../3wvm_ligand.sdf

> <i_m_source_file_index>
1

> <s_epik_input>
Tz1DKFtPSF0pW0NIMl1bQ0gyXVtDSDJdW0NIMl1bQ0gyXVtDSDJdW0NIMl1bQ0gyXVtDSDJdW0NIMl1bQ0gyXVtDSDJdW0NIMl1bQ0gyXVtDSDJdW0NIMl1bQ0gzXQ==

> <s_epik_cmdline>
J2VwaWtfYXBwJywgJy1pbWFlJywgJ2xpZ2FuZF9wcm8ubWFlJywgJy1vbWFlJywgJ2xpZ2FuZF9wcmVwLm1hZScsICctbXMnLCAnMScsICctcGgnLCAnNycsICctcGh0JywgJzAuNScsICctbnQn

> <r_lp_tautomer_probability>
1

> <r_epik_Ionization_Penalty>
  0.0049

> <r_epik_Ionization_Penalty_Charging>
  0.0049

> <r_epik_Ionization_Penalty_Neutral>
  0.0000

> <r_epik_State_Penalty>
 -0.0000

> <r_epik_Charging_Adjusted_Penalty>
0.00486649495677768

> <i_epik_Tot_Q>
-1

> <i_epik_Tot_abs_Q>
1

$$$$
