3wyk_ligand
                    3D
 Schrodinger Suite 2020-3.
 41 44  0  0  1  0            999 V2000
    9.8850    1.2820  -20.3450 C   0  0  0  0  0  0
    8.7230    1.4310  -19.6170 C   0  0  0  0  0  0
   10.7000    0.1830  -20.1450 C   0  0  0  0  0  0
    9.5300   -1.5200  -23.6420 C   0  0  0  0  0  0
    9.4790   -2.4420  -24.6630 C   0  0  0  0  0  0
    8.3810    0.4750  -18.6820 C   0  0  0  0  0  0
   10.3670   -0.7790  -19.2130 C   0  0  0  0  0  0
    8.7970   -1.7260  -22.4940 C   0  0  0  0  0  0
    7.9540   -3.2720  -16.4850 C   0  0  0  0  0  0
    7.9550   -3.7510  -23.3780 C   0  0  0  0  0  0
    8.8420   -2.5500  -15.6550 C   0  0  0  0  0  0
    8.6870   -3.5620  -24.5310 C   0  0  0  0  0  0
    9.2050   -0.6180  -18.4890 C   0  0  0  0  0  0
    7.9990   -2.8400  -22.3490 C   0  0  0  0  0  0
    7.9740   -2.6160  -17.6970 C   0  0  0  0  0  0
    5.2890   -3.9530  -20.1150 C   0  0  0  0  0  0
    6.0220   -3.6510  -21.1860 C   0  0  0  0  0  0
    7.2970   -2.9440  -18.9120 C   0  0  0  0  0  0
    5.9390   -3.5880  -18.8440 C   0  0  0  0  0  0
    8.6170   -4.5670  -25.6330 C   0  0  0  0  0  0
    9.3940   -1.5210  -16.3050 N   0  0  0  0  0  0
    7.9060   -2.7210  -20.0300 N   0  0  0  0  0  0
    8.8560   -1.5760  -17.5360 N   0  0  0  0  0  0
    7.2630   -3.0700  -21.1720 N   0  0  0  0  0  0
    5.4130   -3.7900  -17.7610 O   0  0  0  0  0  0
    9.8290   -5.1320  -25.9120 F   0  0  0  0  0  0
    7.7720   -5.6080  -25.3740 F   0  0  0  0  0  0
    8.1430   -4.0080  -26.7830 F   0  0  0  0  0  0
   10.1625    2.0352  -21.0825 H   0  0  0  0  0  0
    8.0803    2.2964  -19.7787 H   0  0  0  0  0  0
   11.6141    0.0754  -20.7289 H   0  0  0  0  0  0
   10.1493   -0.6286  -23.7418 H   0  0  0  0  0  0
   10.0619   -2.2870  -25.5709 H   0  0  0  0  0  0
    7.4662    0.5813  -18.0990 H   0  0  0  0  0  0
   11.0080   -1.6460  -19.0531 H   0  0  0  0  0  0
    8.8491   -0.9955  -21.6867 H   0  0  0  0  0  0
    7.3766   -4.1585  -16.2224 H   0  0  0  0  0  0
    7.3301   -4.6387  -23.2804 H   0  0  0  0  0  0
    9.0504   -2.8012  -14.6150 H   0  0  0  0  0  0
    4.3072   -4.4228  -20.1733 H   0  0  0  0  0  0
    5.5961   -3.8874  -22.1611 H   0  0  0  0  0  0
  1  2  2  0  0  0
  1  3  1  0  0  0
  1 29  1  0  0  0
  2  6  1  0  0  0
  2 30  1  0  0  0
  3  7  2  0  0  0
  3 31  1  0  0  0
  4  5  2  0  0  0
  4  8  1  0  0  0
  4 32  1  0  0  0
  5 12  1  0  0  0
  5 33  1  0  0  0
  6 13  2  0  0  0
  6 34  1  0  0  0
  7 13  1  0  0  0
  7 35  1  0  0  0
  8 14  2  0  0  0
  8 36  1  0  0  0
  9 11  1  0  0  0
  9 15  2  0  0  0
  9 37  1  0  0  0
 10 12  2  0  0  0
 10 14  1  0  0  0
 10 38  1  0  0  0
 11 21  2  0  0  0
 11 39  1  0  0  0
 12 20  1  0  0  0
 13 23  1  0  0  0
 14 24  1  0  0  0
 15 18  1  0  0  0
 15 23  1  0  0  0
 16 17  2  0  0  0
 16 19  1  0  0  0
 16 40  1  0  0  0
 17 24  1  0  0  0
 17 41  1  0  0  0
 18 19  1  0  0  0
 18 22  2  0  0  0
 19 25  2  0  0  0
 20 26  1  0  0  0
 20 27  1  0  0  0
 20 28  1  0  0  0
 21 23  1  0  0  0
 22 24  1  0  0  0
M  END
> <s_m_source_file>
../3wyk_ligand.sdf

> <i_m_source_file_index>
1

> <s_epik_input>
W2NIXTFbY0hdW2NIXVtjSF1bY0hdYzEtbjJuW2NIXVtjSF1jMi1jM2MoPU8pW2NIXVtjSF1uKG4zKS1jKFtjSF00KVtjSF1bY0hdW2NIXWM0QyhGKShGKUY=

> <s_epik_cmdline>
J2VwaWtfYXBwJywgJy1pbWFlJywgJ2xpZ2FuZF9wcm8ubWFlJywgJy1vbWFlJywgJ2xpZ2FuZF9wcmVwLm1hZScsICctbXMnLCAnMScsICctcGgnLCAnNycsICctcGh0JywgJzAuNScsICctbnQn

> <r_lp_tautomer_probability>
1

> <r_epik_Ionization_Penalty>
  0.0000

> <r_epik_Ionization_Penalty_Charging>
  0.0000

> <r_epik_Ionization_Penalty_Neutral>
  0.0000

> <r_epik_State_Penalty>
 -0.0000

> <r_epik_Charging_Adjusted_Penalty>
6.11857443010839e-07

> <i_epik_Tot_Q>
0

> <i_epik_Tot_abs_Q>
0

$$$$
