3wyl_ligand
                    3D
 Schrodinger Suite 2020-3.
 45 48  0  0  1  0            999 V2000
    9.9470    1.7290  -20.4580 C   0  0  0  0  0  0
    8.6890    1.7000  -19.8990 C   0  0  0  0  0  0
   10.8860    0.7730  -20.1220 C   0  0  0  0  0  0
    9.6400   -0.7770  -23.7360 C   0  0  0  0  0  0
    9.7030   -1.6400  -24.8040 C   0  0  0  0  0  0
    8.3700    0.7150  -18.9900 C   0  0  0  0  0  0
   10.5730   -0.2190  -19.2200 C   0  0  0  0  0  0
    8.9240   -1.1400  -22.6220 C   0  0  0  0  0  0
    8.0730   -2.8730  -16.6620 C   0  0  0  0  0  0
    8.3490   -3.2100  -23.6220 C   0  0  0  0  0  0
    8.9060   -2.0950  -15.8260 C   0  0  0  0  0  0
    9.0570   -2.8570  -24.7420 C   0  0  0  0  0  0
    9.3150   -0.2290  -18.6660 C   0  0  0  0  0  0
    8.2740   -2.3550  -22.5570 C   0  0  0  0  0  0
    8.1540   -2.2770  -17.9010 C   0  0  0  0  0  0
    6.3250   -3.3220  -21.4590 C   0  0  0  0  0  0
    7.5520   -2.6330  -19.1400 C   0  0  0  0  0  0
    5.5990   -3.6620  -20.3910 C   0  0  0  0  0  0
    6.2160   -3.3140  -19.1170 C   0  0  0  0  0  0
    3.9800   -4.8360  -21.5600 C   0  0  0  0  0  0
    9.0930   -3.8320  -25.8710 C   0  0  0  0  0  0
    9.4800   -1.0780  -16.4760 N   0  0  0  0  0  0
    8.1710   -2.3560  -20.2400 N   0  0  0  0  0  0
    9.0040   -1.2120  -17.7310 N   0  0  0  0  0  0
    7.5510   -2.7050  -21.4080 N   0  0  0  0  0  0
    5.6620   -3.5680  -18.0640 O   0  0  0  0  0  0
    4.3680   -4.2770  -20.3040 O   0  0  0  0  0  0
    9.8720   -3.4330  -26.9270 F   0  0  0  0  0  0
    9.5590   -5.0610  -25.4720 F   0  0  0  0  0  0
    7.8320   -4.0290  -26.3680 F   0  0  0  0  0  0
   10.2040    2.5123  -21.1711 H   0  0  0  0  0  0
    7.9496    2.4521  -20.1741 H   0  0  0  0  0  0
   11.8780    0.8042  -20.5725 H   0  0  0  0  0  0
   10.1525    0.1843  -23.7730 H   0  0  0  0  0  0
   10.2622   -1.3632  -25.6978 H   0  0  0  0  0  0
    7.3806    0.6847  -18.5335 H   0  0  0  0  0  0
   11.3063   -0.9794  -18.9512 H   0  0  0  0  0  0
    8.8683   -0.4566  -21.7747 H   0  0  0  0  0  0
    7.4926   -3.7534  -16.3860 H   0  0  0  0  0  0
    7.8443   -4.1752  -23.5803 H   0  0  0  0  0  0
    9.0630   -2.3018  -14.7674 H   0  0  0  0  0  0
    5.9148   -3.5508  -22.4426 H   0  0  0  0  0  0
    2.9966   -5.3182  -21.4586 H   0  0  0  0  0  0
    4.7239   -5.5828  -21.8744 H   0  0  0  0  0  0
    3.9208   -4.0374  -22.3141 H   0  0  0  0  0  0
  1  2  2  0  0  0
  1  3  1  0  0  0
  1 31  1  0  0  0
  2  6  1  0  0  0
  2 32  1  0  0  0
  3  7  2  0  0  0
  3 33  1  0  0  0
  4  5  2  0  0  0
  4  8  1  0  0  0
  4 34  1  0  0  0
  5 12  1  0  0  0
  5 35  1  0  0  0
  6 13  2  0  0  0
  6 36  1  0  0  0
  7 13  1  0  0  0
  7 37  1  0  0  0
  8 14  2  0  0  0
  8 38  1  0  0  0
  9 11  1  0  0  0
  9 15  2  0  0  0
  9 39  1  0  0  0
 10 12  2  0  0  0
 10 14  1  0  0  0
 10 40  1  0  0  0
 11 22  2  0  0  0
 11 41  1  0  0  0
 12 21  1  0  0  0
 13 24  1  0  0  0
 14 25  1  0  0  0
 15 17  1  0  0  0
 15 24  1  0  0  0
 16 18  2  0  0  0
 16 25  1  0  0  0
 16 42  1  0  0  0
 17 19  1  0  0  0
 17 23  2  0  0  0
 18 19  1  0  0  0
 18 27  1  0  0  0
 19 26  2  0  0  0
 20 27  1  0  0  0
 20 43  1  0  0  0
 20 44  1  0  0  0
 20 45  1  0  0  0
 21 28  1  0  0  0
 21 29  1  0  0  0
 21 30  1  0  0  0
 22 24  1  0  0  0
 23 25  1  0  0  0
M  END
> <s_m_source_file>
../3wyl_ligand.sdf

> <i_m_source_file_index>
1

> <s_epik_input>
W2NIXTFbY0hdW2NIXVtjSF1bY0hdYzEtbjJuW2NIXVtjSF1jMi1jM2MoPU8pYyhPW0NIM10pW2NIXW4objMpLWMoW2NIXTQpW2NIXVtjSF1bY0hdYzRDKEYpKEYpRg==

> <s_epik_cmdline>
J2VwaWtfYXBwJywgJy1pbWFlJywgJ2xpZ2FuZF9wcm8ubWFlJywgJy1vbWFlJywgJ2xpZ2FuZF9wcmVwLm1hZScsICctbXMnLCAnMScsICctcGgnLCAnNycsICctcGh0JywgJzAuNScsICctbnQn

> <r_lp_tautomer_probability>
1

> <r_epik_Ionization_Penalty>
  0.0000

> <r_epik_Ionization_Penalty_Charging>
  0.0000

> <r_epik_Ionization_Penalty_Neutral>
  0.0000

> <r_epik_State_Penalty>
 -0.0000

> <r_epik_Charging_Adjusted_Penalty>
6.11857443010839e-07

> <i_epik_Tot_Q>
0

> <i_epik_Tot_abs_Q>
0

$$$$
