3wyy_ligand
                    3D
 Schrodinger Suite 2020-3.
 75 79  0  0  1  0            999 V2000
  -32.9620  -17.4130   -2.2690 N   0  0  0  0  0  0
  -33.4470  -17.6640   -3.2990 C   0  0  0  0  0  0
  -34.0670  -17.9820   -4.6010 C   0  0  0  0  0  0
  -33.1200  -17.8750   -5.6780 O   0  0  0  0  0  0
  -33.5250  -17.6620   -6.9840 C   0  0  0  0  0  0
  -33.5900  -16.2770   -7.5340 C   0  0  0  0  0  0
  -33.2970  -15.1490   -6.6230 C   0  0  0  0  0  0
  -34.3700  -15.0510   -5.8280 C   0  0  0  0  0  0
  -34.6640  -14.1290   -4.7180 C   0  0  0  0  0  0
  -33.9500  -14.1550   -3.7270 O   0  0  0  0  0  0
  -35.7380  -13.3370   -4.8180 N   0  0  0  0  0  0
  -35.7620  -12.1460   -5.6560 C   0  0  0  0  0  0
  -36.9790  -11.2660   -5.3680 C   0  0  0  0  0  0
  -36.5760  -10.1100   -4.6220 O   0  0  0  0  0  0
  -37.3570   -8.9470   -4.9280 C   0  0  0  0  0  0
  -33.8560  -18.7270   -7.8230 C   0  0  0  0  0  0
  -34.2710  -18.4980   -9.1390 C   0  0  0  0  0  0
  -34.3380  -17.1890   -9.6430 C   0  0  0  0  0  0
  -34.0160  -16.0810   -8.8520 C   0  0  0  0  0  0
  -34.5640  -19.5940   -9.8920 N   0  0  0  0  0  0
  -35.4370  -19.7200  -10.9410 C   0  0  0  0  0  0
  -35.9040  -18.6520  -11.6540 N   0  0  0  0  0  0
  -36.7570  -18.7790  -12.7060 C   0  0  0  0  0  0
  -37.2060  -20.1370  -13.1030 C   0  0  0  0  0  0
  -38.0160  -20.3120  -14.0890 C   0  0  0  0  0  0
  -38.7570  -20.4860  -14.9640 N   0  0  0  0  0  0
  -36.6900  -21.2810  -12.3290 C   0  0  0  0  0  0
  -37.0600  -22.5450  -12.6420 N   0  0  0  0  0  0
  -35.8220  -21.0230  -11.2770 C   0  0  0  0  0  0
  -37.2180  -17.7180  -13.4220 N   0  0  0  0  0  0
  -36.9230  -16.3230  -13.1470 C   0  0  0  0  0  0
  -37.3170  -15.5010  -14.3870 C   0  0  0  0  0  0
  -37.0740  -13.9990  -14.1480 C   0  0  2  0  0  0
  -35.5930  -13.7500  -13.8400 C   0  0  0  0  0  0
  -37.9170  -13.5730  -12.9390 C   0  0  0  0  0  0
  -37.5280  -14.3730  -11.6860 C   0  0  1  0  0  0
  -37.7450  -15.8690  -11.9310 C   0  0  0  0  0  0
  -36.0380  -14.1490  -11.4020 C   0  0  0  0  0  0
  -35.1870  -14.5740  -12.6120 C   0  0  1  0  0  0
  -35.4270  -16.0680  -12.8930 C   0  0  0  0  0  0
  -34.4551  -19.0111   -4.5807 H   0  0  0  0  0  0
  -34.8934  -17.2822   -4.7943 H   0  0  0  0  0  0
  -32.4528  -14.4554   -6.4955 H   0  0  0  0  0  0
  -35.2183  -15.7384   -5.9618 H   0  0  0  0  0  0
  -36.6274  -13.6168   -4.2343 H   0  0  0  0  0  0
  -34.8562  -11.5497   -5.4717 H   0  0  0  0  0  0
  -35.7963  -12.4431   -6.7146 H   0  0  0  0  0  0
  -37.4332  -10.9463   -6.3175 H   0  0  0  0  0  0
  -37.7150  -11.8378   -4.7837 H   0  0  0  0  0  0
  -37.0010   -8.0976   -4.3265 H   0  0  0  0  0  0
  -38.4140   -9.1436   -4.6954 H   0  0  0  0  0  0
  -37.2551   -8.7077   -5.9968 H   0  0  0  0  0  0
  -33.7904  -19.7486   -7.4486 H   0  0  0  0  0  0
  -34.6486  -17.0324  -10.6760 H   0  0  0  0  0  0
  -34.0964  -15.0732   -9.2593 H   0  0  0  0  0  0
  -34.0656  -20.5526   -9.6853 H   0  0  0  0  0  0
  -37.7492  -22.7247  -13.4803 H   0  0  0  0  0  0
  -36.6714  -23.3924  -12.0581 H   0  0  0  0  0  0
  -35.4295  -21.8580  -10.6967 H   0  0  0  0  0  0
  -37.8643  -17.9866  -14.2707 H   0  0  0  0  0  0
  -36.7142  -15.8248  -15.2483 H   0  0  0  0  0  0
  -38.3835  -15.6569  -14.6066 H   0  0  0  0  0  0
  -37.3503  -13.4206  -15.0419 H   0  0  0  0  0  0
  -34.9831  -14.0512  -14.7044 H   0  0  0  0  0  0
  -35.4358  -12.6807  -13.6351 H   0  0  0  0  0  0
  -37.7560  -12.5035  -12.7383 H   0  0  0  0  0  0
  -38.9813  -13.7496  -13.1535 H   0  0  0  0  0  0
  -38.1457  -14.0432  -10.8377 H   0  0  0  0  0  0
  -38.8126  -16.0551  -12.1199 H   0  0  0  0  0  0
  -37.4263  -16.4327  -11.0418 H   0  0  0  0  0  0
  -35.8599  -13.0829  -11.1975 H   0  0  0  0  0  0
  -35.7377  -14.7452  -10.5277 H   0  0  0  0  0  0
  -34.1219  -14.3997  -12.3993 H   0  0  0  0  0  0
  -35.0970  -16.6568  -12.0244 H   0  0  0  0  0  0
  -34.8484  -16.3666  -13.7796 H   0  0  0  0  0  0
  1  2  3  0  0  0
  2  3  1  0  0  0
  3  4  1  0  0  0
  3 41  1  0  0  0
  3 42  1  0  0  0
  4  5  1  0  0  0
  5  6  2  0  0  0
  5 16  1  0  0  0
  6  7  1  0  0  0
  6 19  1  0  0  0
  7  8  2  0  0  0
  7 43  1  0  0  0
  8  9  1  0  0  0
  8 44  1  0  0  0
  9 10  2  0  0  0
  9 11  1  0  0  0
 11 12  1  0  0  0
 11 45  1  0  0  0
 12 13  1  0  0  0
 12 46  1  0  0  0
 12 47  1  0  0  0
 13 14  1  0  0  0
 13 48  1  0  0  0
 13 49  1  0  0  0
 14 15  1  0  0  0
 15 50  1  0  0  0
 15 51  1  0  0  0
 15 52  1  0  0  0
 16 17  2  0  0  0
 16 53  1  0  0  0
 17 18  1  0  0  0
 17 20  1  0  0  0
 18 19  2  0  0  0
 18 54  1  0  0  0
 19 55  1  0  0  0
 20 21  1  0  0  0
 20 56  1  0  0  0
 21 22  2  0  0  0
 21 29  1  0  0  0
 22 23  1  0  0  0
 23 24  2  0  0  0
 23 30  1  0  0  0
 24 25  1  0  0  0
 24 27  1  0  0  0
 25 26  3  0  0  0
 27 28  1  0  0  0
 27 29  2  0  0  0
 28 57  1  0  0  0
 28 58  1  0  0  0
 29 59  1  0  0  0
 30 31  1  0  0  0
 30 60  1  0  0  0
 31 32  1  0  0  0
 31 37  1  0  0  0
 31 40  1  0  0  0
 32 33  1  0  0  0
 32 61  1  0  0  0
 32 62  1  0  0  0
 33 34  1  0  0  0
 33 35  1  0  0  0
 33 63  1  0  0  0
 34 39  1  0  0  0
 34 64  1  0  0  0
 34 65  1  0  0  0
 35 36  1  0  0  0
 35 66  1  0  0  0
 35 67  1  0  0  0
 36 37  1  0  0  0
 36 38  1  0  0  0
 36 68  1  0  0  0
 37 69  1  0  0  0
 37 70  1  0  0  0
 38 39  1  0  0  0
 38 71  1  0  0  0
 38 72  1  0  0  0
 39 40  1  0  0  0
 39 73  1  0  0  0
 40 74  1  0  0  0
 40 75  1  0  0  0
M  END
> <s_m_source_file>
../3wyy_ligand.sdf

> <i_m_source_file_index>
1

> <s_epik_input>
W0NIM11PW0NIMl1bQ0gyXVtOSF1DKD1PKVxbQ0hdPVtDSF1cYyhjMU9bQ0gyXUMjTilbY0hdW2NIXWMoW2NIXTEpW05IXWMybmMoYyhDI04pYyhbTkgyXSlbY0hdMilbTkhdQzM0W0NIMl1bQ0BASF01W0NIMl1bQ0BIXShbQ0gyXTQpW0NIMl1bQ0BASF0oW0NIMl01KVtDSDJdMw==

> <s_epik_cmdline>
J2VwaWtfYXBwJywgJy1pbWFlJywgJ2xpZ2FuZF9wcm8ubWFlJywgJy1vbWFlJywgJ2xpZ2FuZF9wcmVwLm1hZScsICctbXMnLCAnMScsICctcGgnLCAnNycsICctcGh0JywgJzAuNScsICctbnQn

> <r_epik_Ionization_Penalty>
  0.0740

> <r_epik_Ionization_Penalty_Charging>
  0.0000

> <r_epik_Ionization_Penalty_Neutral>
  0.0740

> <r_epik_State_Penalty>
  0.0651

> <r_epik_Charging_Adjusted_Penalty>
0.0651434104057514

> <i_epik_Tot_Q>
0

> <i_epik_Tot_abs_Q>
0

$$$$
