3wz6_ligand
                    3D
 Schrodinger Suite 2020-3.
 58 61  0  0  1  0            999 V2000
   46.4610    5.8500   10.8400 O   0  0  0  0  0  0
   47.0880    5.5240    9.8580 C   0  0  0  0  0  0
   47.5370    4.0890    9.6810 C   0  0  0  0  0  0
   46.5860    3.2280   10.4100 N   0  0  1  0  0  0
   45.3870    2.9880    9.5810 C   0  0  0  0  0  0
   44.3180    2.1460   10.2370 C   0  0  0  0  0  0
   44.4170    0.7640   10.2220 C   0  0  0  0  0  0
   43.4250   -0.0060   10.8130 C   0  0  0  0  0  0
   42.3350    0.6050   11.4100 C   0  0  0  0  0  0
   42.2360    1.9870   11.4240 C   0  0  0  0  0  0
   43.2260    2.7570   10.8370 C   0  0  0  0  0  0
   47.4000    6.4610    8.8890 N   0  0  0  0  0  0
   46.9010    7.7850    8.8450 C   0  0  0  0  0  0
   47.8490    9.0760    8.8650 S   0  0  0  0  0  0
   45.5810    8.2120    8.7980 C   0  0  0  0  0  0
   45.4790    9.6080    8.7650 C   0  0  0  0  0  0
   44.2170   10.3790    8.7130 C   0  0  0  0  0  0
   44.0920   11.5470    9.4570 C   0  0  0  0  0  0
   42.9160   12.2810    9.4130 C   0  0  0  0  0  0
   41.8610   11.8560    8.6190 C   0  0  0  0  0  0
   41.9820   10.6920    7.8740 C   0  0  0  0  0  0
   43.1610    9.9580    7.9150 C   0  0  0  0  0  0
   46.7220   10.2130    8.8030 C   0  0  0  0  0  0
   44.4180    7.3070    8.7770 C   0  0  0  0  0  0
   43.5640    7.3880    9.6340 O   0  0  0  0  0  0
   44.3290    6.3640    7.7710 N   0  0  0  0  0  0
   43.1640    5.4920    7.5500 C   0  0  0  0  0  0
   41.9930    6.2920    7.0520 C   0  0  0  0  0  0
   42.1330    7.1250    5.9540 C   0  0  0  0  0  0
   41.0520    7.8640    5.5050 C   0  0  0  0  0  0
   39.8290    7.7720    6.1500 C   0  0  0  0  0  0
   39.6930    6.9420    7.2530 C   0  0  0  0  0  0
   40.7740    6.2020    7.7050 C   0  0  0  0  0  0
   47.5398    3.8351    8.6107 H   0  0  0  0  0  0
   48.5515    3.9692   10.0889 H   0  0  0  0  0  0
   47.0657    2.2655   10.6411 H   0  0  0  0  0  0
   44.9190    3.9502    9.3260 H   0  0  0  0  0  0
   45.6781    2.4658    8.6577 H   0  0  0  0  0  0
   45.2720    0.2827    9.7472 H   0  0  0  0  0  0
   43.5039   -1.0931   10.8073 H   0  0  0  0  0  0
   41.5545   -0.0016   11.8692 H   0  0  0  0  0  0
   41.3795    2.4677   11.8967 H   0  0  0  0  0  0
   43.1475    3.8441   10.8462 H   0  0  0  0  0  0
   48.0860    6.1980    8.0703 H   0  0  0  0  0  0
   44.9214   11.8871   10.0772 H   0  0  0  0  0  0
   42.8207   13.1926   10.0029 H   0  0  0  0  0  0
   40.9386   12.4355    8.5805 H   0  0  0  0  0  0
   41.1510   10.3528    7.2556 H   0  0  0  0  0  0
   43.2574    9.0500    7.3197 H   0  0  0  0  0  0
   46.9050   11.2875    8.7925 H   0  0  0  0  0  0
   45.2058    6.2882    7.1111 H   0  0  0  0  0  0
   43.4163    4.7255    6.8024 H   0  0  0  0  0  0
   42.8864    5.0042    8.4960 H   0  0  0  0  0  0
   43.0935    7.1985    5.4440 H   0  0  0  0  0  0
   41.1631    8.5201    4.6417 H   0  0  0  0  0  0
   38.9769    8.3498    5.7919 H   0  0  0  0  0  0
   38.7336    6.8716    7.7655 H   0  0  0  0  0  0
   40.6657    5.5506    8.5722 H   0  0  0  0  0  0
  1  2  2  0  0  0
  2  3  1  0  0  0
  2 12  1  0  0  0
  3  4  1  0  0  0
  3 34  1  0  0  0
  3 35  1  0  0  0
  4  5  1  0  0  0
  4 36  1  0  0  0
  5  6  1  0  0  0
  5 37  1  0  0  0
  5 38  1  0  0  0
  6  7  2  0  0  0
  6 11  1  0  0  0
  7  8  1  0  0  0
  7 39  1  0  0  0
  8  9  2  0  0  0
  8 40  1  0  0  0
  9 10  1  0  0  0
  9 41  1  0  0  0
 10 11  2  0  0  0
 10 42  1  0  0  0
 11 43  1  0  0  0
 12 13  1  0  0  0
 12 44  1  0  0  0
 13 14  1  0  0  0
 13 15  2  0  0  0
 14 23  1  0  0  0
 15 16  1  0  0  0
 15 24  1  0  0  0
 16 17  1  0  0  0
 16 23  2  0  0  0
 17 18  2  0  0  0
 17 22  1  0  0  0
 18 19  1  0  0  0
 18 45  1  0  0  0
 19 20  2  0  0  0
 19 46  1  0  0  0
 20 21  1  0  0  0
 20 47  1  0  0  0
 21 22  2  0  0  0
 21 48  1  0  0  0
 22 49  1  0  0  0
 23 50  1  0  0  0
 24 25  2  0  0  0
 24 26  1  0  0  0
 26 27  1  0  0  0
 26 51  1  0  0  0
 27 28  1  0  0  0
 27 52  1  0  0  0
 27 53  1  0  0  0
 28 29  2  0  0  0
 28 33  1  0  0  0
 29 30  1  0  0  0
 29 54  1  0  0  0
 30 31  2  0  0  0
 30 55  1  0  0  0
 31 32  1  0  0  0
 31 56  1  0  0  0
 32 33  2  0  0  0
 32 57  1  0  0  0
 33 58  1  0  0  0
M  END
> <s_m_source_file>
../3wz6_ligand.sdf

> <i_m_source_file_index>
1

> <s_epik_input>
W2NIXTFbY0hdW2NIXVtjSF1bY0hdYzFbQ0gyXVtOSDIrXVtDSDJdQyg9TylbTkhdYzJzW2NIXWMoLWMzW2NIXVtjSF1bY0hdW2NIXVtjSF0zKWMyQyg9TylbTkhdW0NIMl1jNFtjSF1bY0hdW2NIXVtjSF1bY0hdNA==

> <s_epik_cmdline>
J2VwaWtfYXBwJywgJy1pbWFlJywgJ2xpZ2FuZF9wcm8ubWFlJywgJy1vbWFlJywgJ2xpZ2FuZF9wcmVwLm1hZScsICctbXMnLCAnMScsICctcGgnLCAnNycsICctcGh0JywgJzAuNScsICctbnQn

> <r_epik_Ionization_Penalty>
  0.1106

> <r_epik_Ionization_Penalty_Charging>
  0.0000

> <r_epik_Ionization_Penalty_Neutral>
  0.1106

> <r_epik_State_Penalty>
  0.1003

> <r_epik_Charging_Adjusted_Penalty>
0.100295859787332

> <i_epik_Tot_Q>
0

> <i_epik_Tot_abs_Q>
0

$$$$
