3wz7_ligand
                    3D
 Schrodinger Suite 2020-3.
 66 70  0  0  1  0            999 V2000
   48.3990   11.3480    9.5180 C   0  0  0  0  0  0
   47.6000   10.0910    9.2900 C   0  0  0  0  0  0
   46.1140    9.8570    9.0780 C   0  0  0  0  0  0
   45.4230   11.2260    9.1230 C   0  0  0  0  0  0
   46.1520   12.3500    9.8470 C   0  0  0  0  0  0
   47.5310   12.5670    9.2580 C   0  0  0  0  0  0
   48.1020    8.5250    9.1960 S   0  0  0  0  0  0
   46.9390    7.4300    8.9380 C   0  0  0  0  0  0
   45.7360    8.3750    8.8790 C   0  0  0  0  0  0
   44.4740    7.5870    8.6410 C   0  0  0  0  0  0
   43.5650    7.6810    9.4700 O   0  0  0  0  0  0
   44.3530    6.8830    7.5140 N   0  0  0  0  0  0
   43.1640    6.1200    7.1480 C   0  0  0  0  0  0
   42.0900    7.0880    6.6700 C   0  0  0  0  0  0
   42.4280    8.3610    6.2320 C   0  0  0  0  0  0
   41.4300    9.2260    5.7870 C   0  0  0  0  0  0
   40.0950    8.8340    5.7730 C   0  0  0  0  0  0
   39.7480    7.5580    6.1930 C   0  0  0  0  0  0
   40.7480    6.6970    6.6360 C   0  0  0  0  0  0
   47.0460    6.1020    8.8170 N   0  0  0  0  0  0
   46.7570    5.2450    9.7850 C   0  0  0  0  0  0
   46.3470    5.5930   10.8780 O   0  0  0  0  0  0
   46.9490    3.7840    9.4630 C   0  0  0  0  0  0
   46.1940    2.9600   10.3910 N   0  3  0  0  0  0
   44.7570    2.8390   10.2330 C   0  0  0  0  0  0
   44.2070    1.8550   11.2460 C   0  0  0  0  0  0
   42.7310    1.6870   11.0180 C   0  0  0  0  0  0
   41.7410    2.6530   11.1860 C   0  0  0  0  0  0
   40.5160    2.1360   10.8870 N   0  3  0  0  0  0
   40.6540    0.8410   10.5220 C   0  0  0  0  0  0
   42.0940    0.5280   10.5990 C   0  0  0  0  0  0
   42.5780   -0.7410   10.2860 C   0  0  0  0  0  0
   41.6570   -1.7100    9.9020 C   0  0  0  0  0  0
   40.2930   -1.4230    9.8230 C   0  0  0  0  0  0
   39.7760   -0.1590   10.1230 C   0  0  0  0  0  0
   48.7558   11.3720   10.5583 H   0  0  0  0  0  0
   49.2607   11.3639    8.8344 H   0  0  0  0  0  0
   45.2653   11.5910    8.0974 H   0  0  0  0  0  0
   44.4522   11.1302    9.6314 H   0  0  0  0  0  0
   45.5758   13.2821    9.7513 H   0  0  0  0  0  0
   46.2584   12.0924   10.9111 H   0  0  0  0  0  0
   47.9908   13.4507    9.7244 H   0  0  0  0  0  0
   47.4420   12.7292    8.1737 H   0  0  0  0  0  0
   45.2234    6.9011    6.8417 H   0  0  0  0  0  0
   43.4151    5.4136    6.3430 H   0  0  0  0  0  0
   42.8014    5.5631    8.0246 H   0  0  0  0  0  0
   43.4694    8.6827    6.2361 H   0  0  0  0  0  0
   41.6994   10.2251    5.4446 H   0  0  0  0  0  0
   39.3249    9.5266    5.4334 H   0  0  0  0  0  0
   38.7073    7.2344    6.1763 H   0  0  0  0  0  0
   40.4783    5.6933    6.9645 H   0  0  0  0  0  0
   47.3919    5.6621    7.8700 H   0  0  0  0  0  0
   46.5989    3.5851    8.4393 H   0  0  0  0  0  0
   48.0160    3.5283    9.5418 H   0  0  0  0  0  0
   46.5599    1.9238   10.3425 H   0  0  0  0  0  0
   46.3224    3.3467   11.4128 H   0  0  0  0  0  0
   44.2870    3.8211   10.3894 H   0  0  0  0  0  0
   44.5285    2.4806    9.2184 H   0  0  0  0  0  0
   44.7124    0.8852   11.1269 H   0  0  0  0  0  0
   44.3830    2.2379   12.2621 H   0  0  0  0  0  0
   42.0118    3.6661   11.5182 H   0  0  0  0  0  0
   43.6430   -0.9666   10.3403 H   0  0  0  0  0  0
   42.0070   -2.7130    9.6580 H   0  0  0  0  0  0
   39.6067   -2.2124    9.5165 H   0  0  0  0  0  0
   38.7067    0.0376   10.0455 H   0  0  0  0  0  0
   39.6186    2.7672   10.9655 H   0  0  0  0  0  0
  1  2  1  0  0  0
  1  6  1  0  0  0
  1 36  1  0  0  0
  1 37  1  0  0  0
  2  3  2  0  0  0
  2  7  1  0  0  0
  3  4  1  0  0  0
  3  9  1  0  0  0
  4  5  1  0  0  0
  4 38  1  0  0  0
  4 39  1  0  0  0
  5  6  1  0  0  0
  5 40  1  0  0  0
  5 41  1  0  0  0
  6 42  1  0  0  0
  6 43  1  0  0  0
  7  8  1  0  0  0
  8  9  2  0  0  0
  8 20  1  0  0  0
  9 10  1  0  0  0
 10 11  2  0  0  0
 10 12  1  0  0  0
 12 13  1  0  0  0
 12 44  1  0  0  0
 13 14  1  0  0  0
 13 45  1  0  0  0
 13 46  1  0  0  0
 14 15  2  0  0  0
 14 19  1  0  0  0
 15 16  1  0  0  0
 15 47  1  0  0  0
 16 17  2  0  0  0
 16 48  1  0  0  0
 17 18  1  0  0  0
 17 49  1  0  0  0
 18 19  2  0  0  0
 18 50  1  0  0  0
 19 51  1  0  0  0
 20 21  1  0  0  0
 20 52  1  0  0  0
 21 22  2  0  0  0
 21 23  1  0  0  0
 23 24  1  0  0  0
 23 53  1  0  0  0
 23 54  1  0  0  0
 24 25  1  0  0  0
 24 55  1  0  0  0
 24 56  1  0  0  0
 25 26  1  0  0  0
 25 57  1  0  0  0
 25 58  1  0  0  0
 26 27  1  0  0  0
 26 59  1  0  0  0
 26 60  1  0  0  0
 27 28  2  0  0  0
 27 31  1  0  0  0
 28 29  1  0  0  0
 28 61  1  0  0  0
 29 30  1  0  0  0
 29 66  1  0  0  0
 30 31  2  0  0  0
 30 35  1  0  0  0
 31 32  1  0  0  0
 32 33  2  0  0  0
 32 62  1  0  0  0
 33 34  1  0  0  0
 33 63  1  0  0  0
 34 35  2  0  0  0
 34 64  1  0  0  0
 35 65  1  0  0  0
M  CHG  2  24   1  29   1
M  END
> <s_m_source_file>
../3wz7_ligand.sdf

> <i_m_source_file_index>
1

> <s_epik_input>
W2NIXTFbY0hdW2NIXVtjSF1bY0hdYzFbQ0gyXVtOSF1DKD1PKWMoYyhjMjMpW0NIMl1bQ0gyXVtDSDJdW0NIMl0yKWMoczMpW05IXUMoPU8pW0NIMl1bTkgyK11bQ0gyXVtDSDJdYyhbY0hdW25IXTQpYyhjNDUpW2NIXVtjSF1bY0hdW2NIXTU=

> <s_epik_cmdline>
J2VwaWtfYXBwJywgJy1pbWFlJywgJ2xpZ2FuZF9wcm8ubWFlJywgJy1vbWFlJywgJ2xpZ2FuZF9wcmVwLm1hZScsICctbXMnLCAnMScsICctcGgnLCAnNycsICctcGh0JywgJzAuNScsICctbnQn

> <r_epik_Ionization_Penalty>
  0.1976

> <r_epik_Ionization_Penalty_Charging>
  0.1976

> <r_epik_Ionization_Penalty_Neutral>
  0.0000

> <r_epik_State_Penalty>
  0.1874

> <r_epik_Charging_Adjusted_Penalty>
0.385060551565746

> <i_epik_Tot_Q>
2

> <i_epik_Tot_abs_Q>
2

$$$$
