3wzj_ligand
                    3D
 Schrodinger Suite 2020-3.
 72 77  0  0  1  0            999 V2000
  -40.5550  -21.0020  -16.5600 O   0  0  0  0  0  0
  -39.5070  -21.6050  -16.4790 C   0  0  0  0  0  0
  -38.9860  -22.2970  -17.6520 N   0  0  0  0  0  0
  -39.8010  -22.2150  -18.8580 C   0  0  0  0  0  0
  -40.8140  -23.3290  -18.9460 C   0  0  0  0  0  0
  -39.6000  -23.3360  -19.8570 C   0  0  0  0  0  0
  -38.7090  -21.6440  -15.1620 C   0  0  0  0  0  0
  -37.9850  -22.7930  -14.8450 C   0  0  0  0  0  0
  -37.2410  -22.8460  -13.6520 C   0  0  0  0  0  0
  -37.2550  -21.7190  -12.8220 C   0  0  0  0  0  0
  -37.9800  -20.5670  -13.1340 C   0  0  0  0  0  0
  -38.7110  -20.5330  -14.3280 C   0  0  0  0  0  0
  -36.4580  -21.7310  -11.5130 C   0  0  0  0  0  0
  -36.1270  -22.8220  -10.7590 C   0  0  0  0  0  0
  -35.4220  -22.3700   -9.6980 N   0  0  0  0  0  0
  -35.3220  -20.9880   -9.8190 C   0  0  0  0  0  0
  -35.9570  -20.6040  -10.9360 N   0  0  0  0  0  0
  -36.0390  -19.2690  -11.3740 N   0  0  0  0  0  0
  -35.4490  -18.2950  -10.6010 C   0  0  0  0  0  0
  -35.4520  -16.9040  -10.9460 N   0  0  0  0  0  0
  -36.4290  -16.1290  -11.7020 C   0  0  0  0  0  0
  -37.6440  -16.9070  -12.1730 C   0  0  0  0  0  0
  -38.6190  -15.8820  -12.7200 C   0  0  0  0  0  0
  -38.0200  -14.9770  -13.8060 C   0  0  0  0  0  0
  -36.6080  -14.4380  -13.5430 C   0  0  0  0  0  0
  -35.7120  -15.4800  -12.8940 C   0  0  0  0  0  0
  -34.7620  -18.6650   -9.3920 C   0  0  0  0  0  0
  -34.6960  -19.9980   -9.0040 C   0  0  0  0  0  0
  -34.0020  -20.3990   -7.7630 N   0  0  0  0  0  0
  -33.5250  -19.3120   -6.8630 C   0  0  0  0  0  0
  -34.4840  -19.0320   -5.6800 C   0  0  0  0  0  0
  -34.0930  -19.9510   -4.5740 C   0  0  0  0  0  0
  -34.4260  -19.4920   -3.1600 C   0  0  0  0  0  0
  -34.1560  -18.0540   -2.9770 O   0  0  0  0  0  0
  -34.7790  -17.1830   -3.9980 C   0  0  0  0  0  0
  -34.3660  -17.5800   -5.4110 C   0  0  0  0  0  0
  -38.0395  -22.8573  -17.6649 H   0  0  0  0  0  0
  -39.8024  -21.1164  -18.9144 H   0  0  0  0  0  0
  -40.8793  -23.8427  -17.9755 H   0  0  0  0  0  0
  -41.7975  -22.9106  -19.2062 H   0  0  0  0  0  0
  -39.5701  -22.9193  -20.8746 H   0  0  0  0  0  0
  -38.6519  -23.8515  -19.6439 H   0  0  0  0  0  0
  -37.9955  -23.6485  -15.5203 H   0  0  0  0  0  0
  -36.6721  -23.7359  -13.3828 H   0  0  0  0  0  0
  -37.9770  -19.7100  -12.4605 H   0  0  0  0  0  0
  -39.2769  -19.6422  -14.6007 H   0  0  0  0  0  0
  -36.3830  -23.8597  -10.9728 H   0  0  0  0  0  0
  -34.5517  -16.4142  -10.5465 H   0  0  0  0  0  0
  -36.8144  -15.4017  -10.9723 H   0  0  0  0  0  0
  -37.3422  -17.6210  -12.9534 H   0  0  0  0  0  0
  -38.0806  -17.4541  -11.3245 H   0  0  0  0  0  0
  -39.4828  -16.3982  -13.1643 H   0  0  0  0  0  0
  -38.9619  -15.2298  -11.9033 H   0  0  0  0  0  0
  -37.9588  -15.5325  -14.7535 H   0  0  0  0  0  0
  -38.6600  -14.0924  -13.9403 H   0  0  0  0  0  0
  -36.1480  -14.1349  -14.4951 H   0  0  0  0  0  0
  -36.6665  -13.5691  -12.8710 H   0  0  0  0  0  0
  -34.7887  -14.9938  -12.5460 H   0  0  0  0  0  0
  -35.4623  -16.2523  -13.6365 H   0  0  0  0  0  0
  -34.2916  -17.8969   -8.7781 H   0  0  0  0  0  0
  -33.8321  -21.4515   -7.4922 H   0  0  0  0  0  0
  -32.5483  -19.5888   -6.4395 H   0  0  0  0  0  0
  -33.4248  -18.3787   -7.4364 H   0  0  0  0  0  0
  -35.5591  -19.2173   -5.8206 H   0  0  0  0  0  0
  -34.6011  -20.9180   -4.7038 H   0  0  0  0  0  0
  -33.0038  -20.1038   -4.5920 H   0  0  0  0  0  0
  -35.4919  -19.6732   -2.9572 H   0  0  0  0  0  0
  -33.8148  -20.0541   -2.4385 H   0  0  0  0  0  0
  -35.8740  -17.2578   -3.9249 H   0  0  0  0  0  0
  -34.4705  -16.1408   -3.8285 H   0  0  0  0  0  0
  -33.3207  -17.2657   -5.5471 H   0  0  0  0  0  0
  -35.0098  -17.0243   -6.1087 H   0  0  0  0  0  0
  1  2  2  0  0  0
  2  3  1  0  0  0
  2  7  1  0  0  0
  3  4  1  0  0  0
  3 37  1  0  0  0
  4  5  1  0  0  0
  4  6  1  0  0  0
  4 38  1  0  0  0
  5  6  1  0  0  0
  5 39  1  0  0  0
  5 40  1  0  0  0
  6 41  1  0  0  0
  6 42  1  0  0  0
  7  8  2  0  0  0
  7 12  1  0  0  0
  8  9  1  0  0  0
  8 43  1  0  0  0
  9 10  2  0  0  0
  9 44  1  0  0  0
 10 11  1  0  0  0
 10 13  1  0  0  0
 11 12  2  0  0  0
 11 45  1  0  0  0
 12 46  1  0  0  0
 13 14  2  0  0  0
 13 17  1  0  0  0
 14 15  1  0  0  0
 14 47  1  0  0  0
 15 16  2  0  0  0
 16 17  1  0  0  0
 16 28  1  0  0  0
 17 18  1  0  0  0
 18 19  2  0  0  0
 19 20  1  0  0  0
 19 27  1  0  0  0
 20 21  1  0  0  0
 20 48  1  0  0  0
 21 22  1  0  0  0
 21 26  1  0  0  0
 21 49  1  0  0  0
 22 23  1  0  0  0
 22 50  1  0  0  0
 22 51  1  0  0  0
 23 24  1  0  0  0
 23 52  1  0  0  0
 23 53  1  0  0  0
 24 25  1  0  0  0
 24 54  1  0  0  0
 24 55  1  0  0  0
 25 26  1  0  0  0
 25 56  1  0  0  0
 25 57  1  0  0  0
 26 58  1  0  0  0
 26 59  1  0  0  0
 27 28  2  0  0  0
 27 60  1  0  0  0
 28 29  1  0  0  0
 29 30  1  0  0  0
 29 61  1  0  0  0
 30 31  1  0  0  0
 30 62  1  0  0  0
 30 63  1  0  0  0
 31 32  1  0  0  0
 31 36  1  0  0  0
 31 64  1  0  0  0
 32 33  1  0  0  0
 32 65  1  0  0  0
 32 66  1  0  0  0
 33 34  1  0  0  0
 33 67  1  0  0  0
 33 68  1  0  0  0
 34 35  1  0  0  0
 35 36  1  0  0  0
 35 69  1  0  0  0
 35 70  1  0  0  0
 36 71  1  0  0  0
 36 72  1  0  0  0
M  END
> <s_m_source_file>
../3wzj_ligand.sdf

> <i_m_source_file_index>
1

> <s_epik_input>
W0NIMl0xW0NIMl1bQ0hdMVtOSF1DKD1PKWMyW2NIXVtjSF1jKFtjSF1bY0hdMiktYyhbY0hdbjMpbihjMzQpbmMoW05IXVtDSF01W0NIMl1bQ0gyXVtDSDJdW0NIMl1bQ0gyXTUpW2NIXWM0W05IXVtDSDJdW0NIXTZbQ0gyXVtDSDJdT1tDSDJdW0NIMl02

> <s_epik_cmdline>
J2VwaWtfYXBwJywgJy1pbWFlJywgJ2xpZ2FuZF9wcm8ubWFlJywgJy1vbWFlJywgJ2xpZ2FuZF9wcmVwLm1hZScsICctbXMnLCAnMScsICctcGgnLCAnNycsICctcGh0JywgJzAuNScsICctbnQn

> <r_lp_tautomer_probability>
1

> <r_epik_Ionization_Penalty>
  0.0081

> <r_epik_Ionization_Penalty_Charging>
  0.0000

> <r_epik_Ionization_Penalty_Neutral>
  0.0081

> <r_epik_State_Penalty>
 -0.0000

> <r_epik_Charging_Adjusted_Penalty>
0

> <i_epik_Tot_Q>
0

> <i_epik_Tot_abs_Q>
0

$$$$
