3wzk_ligand
                    3D
 Schrodinger Suite 2020-3.
 47 51  0  0  1  0            999 V2000
    5.3130  -34.4040  -16.5480 O   0  0  0  0  0  0
    4.2520  -33.7880  -16.4980 C   0  0  0  0  0  0
    3.7900  -33.1340  -17.5710 N   0  0  0  0  0  0
    4.6200  -33.0470  -18.7650 C   0  0  0  0  0  0
    4.2780  -31.8320  -19.6250 C   0  0  0  0  0  0
    5.4780  -31.7930  -18.6800 C   0  0  0  0  0  0
    3.4760  -33.7770  -15.2050 C   0  0  0  0  0  0
    2.6790  -32.6800  -14.8730 C   0  0  0  0  0  0
    1.9620  -32.6740  -13.6690 C   0  0  0  0  0  0
    2.0290  -33.7580  -12.7920 C   0  0  0  0  0  0
    2.8440  -34.8430  -13.1220 C   0  0  0  0  0  0
    3.5570  -34.8610  -14.3270 C   0  0  0  0  0  0
    1.2430  -33.6920  -11.5120 C   0  0  0  0  0  0
    0.7050  -34.8130  -10.9790 N   0  0  0  0  0  0
    0.6900  -36.1280  -11.3170 C   0  0  0  0  0  0
    0.0260  -37.0870  -10.5240 C   0  0  0  0  0  0
   -0.6260  -36.7360   -9.3880 N   0  0  0  0  0  0
   -0.6370  -35.4360   -9.0070 C   0  0  0  0  0  0
    0.0640  -34.4210   -9.8560 C   0  0  0  0  0  0
    0.1850  -33.0790   -9.7040 N   0  0  0  0  0  0
    0.9230  -32.5930  -10.7310 C   0  0  0  0  0  0
   -1.2740  -35.0140   -7.8940 N   0  0  0  0  0  0
   -1.9050  -35.9340   -6.9690 C   0  0  0  0  0  0
   -0.9140  -36.4260   -5.9370 C   0  0  0  0  0  0
   -0.2750  -35.2420   -4.8350 S   0  0  0  0  0  0
    0.7150  -36.3820   -3.9760 C   0  0  0  0  0  0
    0.5190  -37.6310   -4.5770 C   0  0  0  0  0  0
   -0.3720  -37.6760   -5.6570 C   0  0  0  0  0  0
    2.7950  -32.6651  -17.5575 H   0  0  0  0  0  0
    4.7616  -34.1214  -18.9540 H   0  0  0  0  0  0
    4.3187  -32.1120  -20.6880 H   0  0  0  0  0  0
    3.2656  -31.4804  -19.3769 H   0  0  0  0  0  0
    5.4599  -31.4054  -17.6507 H   0  0  0  0  0  0
    6.5129  -32.0370  -18.9618 H   0  0  0  0  0  0
    2.6144  -31.8283  -15.5502 H   0  0  0  0  0  0
    1.3446  -31.8126  -13.4142 H   0  0  0  0  0  0
    2.9259  -35.6847  -12.4343 H   0  0  0  0  0  0
    4.1760  -35.7217  -14.5804 H   0  0  0  0  0  0
    1.2034  -36.4502  -12.2229 H   0  0  0  0  0  0
    0.0372  -38.1328  -10.8309 H   0  0  0  0  0  0
    1.2058  -31.5550  -10.9062 H   0  0  0  0  0  0
   -1.3044  -33.9317   -7.7000 H   0  0  0  0  0  0
   -2.7311  -35.4245   -6.4514 H   0  0  0  0  0  0
   -2.2977  -36.7994   -7.5230 H   0  0  0  0  0  0
    1.3659  -36.1656   -3.1289 H   0  0  0  0  0  0
    1.0339  -38.5238   -4.2223 H   0  0  0  0  0  0
   -0.6121  -38.5829   -6.2120 H   0  0  0  0  0  0
  1  2  2  0  0  0
  2  3  1  0  0  0
  2  7  1  0  0  0
  3  4  1  0  0  0
  3 29  1  0  0  0
  4  5  1  0  0  0
  4  6  1  0  0  0
  4 30  1  0  0  0
  5  6  1  0  0  0
  5 31  1  0  0  0
  5 32  1  0  0  0
  6 33  1  0  0  0
  6 34  1  0  0  0
  7  8  2  0  0  0
  7 12  1  0  0  0
  8  9  1  0  0  0
  8 35  1  0  0  0
  9 10  2  0  0  0
  9 36  1  0  0  0
 10 11  1  0  0  0
 10 13  1  0  0  0
 11 12  2  0  0  0
 11 37  1  0  0  0
 12 38  1  0  0  0
 13 14  1  0  0  0
 13 21  2  0  0  0
 14 15  1  0  0  0
 14 19  1  0  0  0
 15 16  2  0  0  0
 15 39  1  0  0  0
 16 17  1  0  0  0
 16 40  1  0  0  0
 17 18  2  0  0  0
 18 19  1  0  0  0
 18 22  1  0  0  0
 19 20  2  0  0  0
 20 21  1  0  0  0
 21 41  1  0  0  0
 22 23  1  0  0  0
 22 42  1  0  0  0
 23 24  1  0  0  0
 23 43  1  0  0  0
 23 44  1  0  0  0
 24 25  1  0  0  0
 24 28  2  0  0  0
 25 26  1  0  0  0
 26 27  2  0  0  0
 26 45  1  0  0  0
 27 28  1  0  0  0
 27 46  1  0  0  0
 28 47  1  0  0  0
M  END
> <s_m_source_file>
../3wzk_ligand.sdf

> <i_m_source_file_index>
1

> <s_epik_input>
W0NIMl0xW0NIMl1bQ0hdMVtOSF1DKD1PKWMyW2NIXVtjSF1jKFtjSF1bY0hdMiktYzNbY0hdbmMobjM0KWMobltjSF1bY0hdNClbTkhdW0NIMl1jNXNbY0hdW2NIXVtjSF01

> <s_epik_cmdline>
J2VwaWtfYXBwJywgJy1pbWFlJywgJ2xpZ2FuZF9wcm8ubWFlJywgJy1vbWFlJywgJ2xpZ2FuZF9wcmVwLm1hZScsICctbXMnLCAnMScsICctcGgnLCAnNycsICctcGh0JywgJzAuNScsICctbnQn

> <r_lp_tautomer_probability>
1

> <r_epik_Ionization_Penalty>
  0.0018

> <r_epik_Ionization_Penalty_Charging>
  0.0017

> <r_epik_Ionization_Penalty_Neutral>
  0.0001

> <r_epik_State_Penalty>
 -0.0000

> <r_epik_Charging_Adjusted_Penalty>
0.00165967002128949

> <i_epik_Tot_Q>
0

> <i_epik_Tot_abs_Q>
0

$$$$
