3wzn_ligand
                    3D
 Schrodinger Suite 2020-3.
 31 32  0  0  1  0            999 V2000
    2.5050  -17.5940    0.5180 C   0  0  0  0  0  0
    3.2150  -18.3450   -0.2270 O   0  0  0  0  0  0
    1.2720  -17.9390    0.7660 O   0  5  0  0  0  0
    3.0720  -16.2990    1.0680 C   0  0  0  0  0  0
    4.4450  -16.4720    1.7530 C   0  0  0  0  0  0
    4.4990  -17.4910    2.9000 C   0  0  0  0  0  0
    5.9440  -17.5640    3.3890 C   0  0  0  0  0  0
    6.0300  -18.4630    4.6300 C   0  0  2  0  0  0
    5.3050  -17.8350    6.0940 S   0  0  0  0  0  0
    6.0770  -19.1380    7.1250 C   0  0  0  0  0  0
    7.4740  -19.2850    6.4940 C   0  0  2  0  0  0
    8.3710  -18.2920    7.0950 N   0  0  0  0  0  0
    8.8490  -17.4930    6.1320 C   0  0  0  0  0  0
    9.5110  -16.3660    6.4070 O   0  0  0  0  0  0
    8.3830  -17.7250    4.8820 N   0  0  0  0  0  0
    7.4980  -18.9010    5.0020 C   0  0  2  0  0  0
    3.2010  -15.5776    0.2477 H   0  0  0  0  0  0
    2.3801  -15.8841    1.8157 H   0  0  0  0  0  0
    5.1853  -16.8064    1.0113 H   0  0  0  0  0  0
    4.7644  -15.5108    2.1821 H   0  0  0  0  0  0
    3.8360  -17.1624    3.7139 H   0  0  0  0  0  0
    4.1694  -18.4741    2.5329 H   0  0  0  0  0  0
    6.5795  -17.9810    2.5939 H   0  0  0  0  0  0
    6.2952  -16.5541    3.6473 H   0  0  0  0  0  0
    5.5153  -19.3161    4.1639 H   0  0  0  0  0  0
    6.1162  -18.8021    8.1717 H   0  0  0  0  0  0
    5.4808  -20.0600    7.0579 H   0  0  0  0  0  0
    7.7977  -20.3213    6.6708 H   0  0  0  0  0  0
    8.5494  -18.2976    8.1804 H   0  0  0  0  0  0
    8.5310  -17.2456    3.9031 H   0  0  0  0  0  0
    7.8914  -19.6981    4.3540 H   0  0  0  0  0  0
  1  2  2  0  0  0
  1  3  1  0  0  0
  1  4  1  0  0  0
  4  5  1  0  0  0
  4 17  1  0  0  0
  4 18  1  0  0  0
  5  6  1  0  0  0
  5 19  1  0  0  0
  5 20  1  0  0  0
  6  7  1  0  0  0
  6 21  1  0  0  0
  6 22  1  0  0  0
  7  8  1  0  0  0
  7 23  1  0  0  0
  7 24  1  0  0  0
  8  9  1  0  0  0
  8 16  1  0  0  0
  8 25  1  0  0  0
  9 10  1  0  0  0
 10 11  1  0  0  0
 10 26  1  0  0  0
 10 27  1  0  0  0
 11 12  1  0  0  0
 11 16  1  0  0  0
 11 28  1  0  0  0
 12 13  1  0  0  0
 12 29  1  0  0  0
 13 14  2  0  0  0
 13 15  1  0  0  0
 15 16  1  0  0  0
 15 30  1  0  0  0
 16 31  1  0  0  0
M  CHG  1   3  -1
M  END
> <s_m_source_file>
../3wzn_ligand.sdf

> <i_m_source_file_index>
1

> <s_epik_input>
Tz1DKFtPSF0pW0NIMl1bQ0gyXVtDSDJdW0NIMl1bQ0BIXShTW0NIMl0xKVtDQEhdKFtDQEhdMTIpW05IXUMoPU8pW05IXTI=

> <s_epik_cmdline>
J2VwaWtfYXBwJywgJy1pbWFlJywgJ2xpZ2FuZF9wcm8ubWFlJywgJy1vbWFlJywgJ2xpZ2FuZF9wcmVwLm1hZScsICctbXMnLCAnMScsICctcGgnLCAnNycsICctcGh0JywgJzAuNScsICctbnQn

> <r_lp_tautomer_probability>
1

> <r_epik_Ionization_Penalty>
  0.0045

> <r_epik_Ionization_Penalty_Charging>
  0.0044

> <r_epik_Ionization_Penalty_Neutral>
  0.0000

> <r_epik_State_Penalty>
 -0.0000

> <r_epik_Charging_Adjusted_Penalty>
0.00443833021372702

> <i_epik_Tot_Q>
-1

> <i_epik_Tot_abs_Q>
1

$$$$
