3wzp_ligand
                    3D
 Schrodinger Suite 2020-3.
 52 53  0  0  1  0            999 V2000
   34.9460   -5.0490   33.2030 O   0  0  0  0  0  0
   34.6840   -3.9670   32.5880 C   0  0  0  0  0  0
   35.4650   -3.3650   31.7630 O   0  5  0  0  0  0
   33.3790   -3.2680   33.0790 C   0  0  0  0  0  0
   32.1570   -3.8540   32.3500 C   0  0  0  0  0  0
   30.8470   -3.2820   32.8680 C   0  0  0  0  0  0
   29.6940   -3.8380   32.0630 C   0  0  0  0  0  0
   28.3890   -3.3380   32.7000 C   0  0  0  0  0  0
   27.2370   -3.8930   32.0030 N   0  0  0  0  0  0
   26.7510   -5.1070   32.3150 C   0  0  0  0  0  0
   27.3160   -5.8340   33.1270 O   0  0  0  0  0  0
   25.4190   -5.5650   31.6760 C   0  0  0  0  0  0
   25.4130   -6.9760   31.0750 C   0  0  0  0  0  0
   26.4080   -7.0290   29.9100 C   0  0  0  0  0  0
   26.4540   -8.4060   29.2550 C   0  0  0  0  0  0
   27.4670   -8.3660   28.1030 C   0  0  2  0  0  0
   26.8600   -7.5690   26.5960 S   0  0  0  0  0  0
   28.3760   -8.0830   25.7280 C   0  0  0  0  0  0
   28.6640   -9.4850   26.1960 C   0  0  1  0  0  0
   27.9800   -9.7610   27.5840 C   0  0  2  0  0  0
   26.9300  -10.7160   27.2120 N   0  3  0  0  0  0
   26.9790  -10.9750   25.8890 C   0  0  0  0  0  0
   26.1650  -11.8320   25.2870 N   0  0  0  0  0  0
   28.0060  -10.3950   25.2660 N   0  0  0  0  0  0
   33.2632   -3.4264   34.1614 H   0  0  0  0  0  0
   33.4400   -2.1896   32.8707 H   0  0  0  0  0  0
   32.2269   -3.6266   31.2760 H   0  0  0  0  0  0
   32.1328   -4.9444   32.4931 H   0  0  0  0  0  0
   30.7195   -3.5571   33.9254 H   0  0  0  0  0  0
   30.8626   -2.1862   32.7736 H   0  0  0  0  0  0
   29.7694   -3.4864   31.0234 H   0  0  0  0  0  0
   29.7301   -4.9372   32.0818 H   0  0  0  0  0  0
   28.3530   -3.6491   33.7545 H   0  0  0  0  0  0
   28.3487   -2.2404   32.6400 H   0  0  0  0  0  0
   26.7473   -3.3166   31.2043 H   0  0  0  0  0  0
   24.6244   -5.5532   32.4365 H   0  0  0  0  0  0
   25.1518   -4.8822   30.8560 H   0  0  0  0  0  0
   25.7063   -7.7040   31.8457 H   0  0  0  0  0  0
   24.4031   -7.2150   30.7103 H   0  0  0  0  0  0
   26.1153   -6.2956   29.1442 H   0  0  0  0  0  0
   27.4169   -6.7916   30.2784 H   0  0  0  0  0  0
   26.7619   -9.1557   29.9988 H   0  0  0  0  0  0
   25.4565   -8.6615   28.8681 H   0  0  0  0  0  0
   28.2536   -7.9126   28.7241 H   0  0  0  0  0  0
   28.2047   -8.0530   24.6418 H   0  0  0  0  0  0
   29.1975   -7.3994   25.9887 H   0  0  0  0  0  0
   29.7544   -9.6295   26.2027 H   0  0  0  0  0  0
   28.5552  -10.2296   28.3961 H   0  0  0  0  0  0
   26.1701  -11.2039   27.8402 H   0  0  0  0  0  0
   25.3316  -12.2837   25.8450 H   0  0  0  0  0  0
   28.3865  -10.5024   24.2395 H   0  0  0  0  0  0
   26.3234  -12.0910   24.2297 H   0  0  0  0  0  0
  1  2  2  0  0  0
  2  3  1  0  0  0
  2  4  1  0  0  0
  4  5  1  0  0  0
  4 25  1  0  0  0
  4 26  1  0  0  0
  5  6  1  0  0  0
  5 27  1  0  0  0
  5 28  1  0  0  0
  6  7  1  0  0  0
  6 29  1  0  0  0
  6 30  1  0  0  0
  7  8  1  0  0  0
  7 31  1  0  0  0
  7 32  1  0  0  0
  8  9  1  0  0  0
  8 33  1  0  0  0
  8 34  1  0  0  0
  9 10  1  0  0  0
  9 35  1  0  0  0
 10 11  2  0  0  0
 10 12  1  0  0  0
 12 13  1  0  0  0
 12 36  1  0  0  0
 12 37  1  0  0  0
 13 14  1  0  0  0
 13 38  1  0  0  0
 13 39  1  0  0  0
 14 15  1  0  0  0
 14 40  1  0  0  0
 14 41  1  0  0  0
 15 16  1  0  0  0
 15 42  1  0  0  0
 15 43  1  0  0  0
 16 17  1  0  0  0
 16 20  1  0  0  0
 16 44  1  0  0  0
 17 18  1  0  0  0
 18 19  1  0  0  0
 18 45  1  0  0  0
 18 46  1  0  0  0
 19 20  1  0  0  0
 19 24  1  0  0  0
 19 47  1  0  0  0
 20 21  1  0  0  0
 20 48  1  0  0  0
 21 22  2  0  0  0
 21 49  1  0  0  0
 22 23  1  0  0  0
 22 24  1  0  0  0
 23 50  1  0  0  0
 23 52  1  0  0  0
 24 51  1  0  0  0
M  CHG  2   3  -1  21   1
M  END
> <s_m_source_file>
../3wzp_ligand.sdf

> <i_m_source_file_index>
1

> <s_epik_input>
Tz1DKFtPSF0pW0NIMl1bQ0gyXVtDSDJdW0NIMl1bQ0gyXVtOSF1DKD1PKVtDSDJdW0NIMl1bQ0gyXVtDSDJdW0NASF0oU1tDSDJdMSlbQ0BIXShbQ0BIXTEyKVtOSF0vQyg9TlxbSF0pW05IXTI=

> <s_epik_cmdline>
J2VwaWtfYXBwJywgJy1pbWFlJywgJ2xpZ2FuZF9wcm8ubWFlJywgJy1vbWFlJywgJ2xpZ2FuZF9wcmVwLm1hZScsICctbXMnLCAnMScsICctcGgnLCAnNycsICctcGh0JywgJzAuNScsICctbnQn

> <r_epik_Ionization_Penalty>
  0.0218

> <r_epik_Ionization_Penalty_Charging>
  0.0218

> <r_epik_Ionization_Penalty_Neutral>
  0.0000

> <r_epik_State_Penalty>
  0.0136

> <r_epik_Charging_Adjusted_Penalty>
0.0354353148172151

> <i_epik_Tot_Q>
0

> <i_epik_Tot_abs_Q>
2

> <s_epik_Chemistry_Notes>
This compound has an imine and may undergo hydrolysis.

$$$$
