3wzq_ligand
                    3D
 Schrodinger Suite 2020-3.
 52 53  0  0  1  0            999 V2000
   17.3100   -8.8310    5.5710 O   0  5  0  0  0  0
   16.3410   -9.3580    6.1920 C   0  0  0  0  0  0
   16.3990  -10.3400    6.9830 O   0  0  0  0  0  0
   14.9550   -8.7370    5.9800 C   0  0  0  0  0  0
   14.8330   -7.4730    6.8480 C   0  0  0  0  0  0
   13.3870   -7.3210    7.3110 C   0  0  0  0  0  0
   13.2180   -5.9440    7.9410 C   0  0  0  0  0  0
   12.0120   -5.2180    7.3310 C   0  0  0  0  0  0
   11.6480   -4.0460    8.1390 N   0  0  0  0  0  0
   12.4540   -2.9520    8.3090 C   0  0  0  0  0  0
   13.5810   -2.8120    7.8200 O   0  0  0  0  0  0
   11.8410   -1.8390    9.1590 C   0  0  0  0  0  0
   12.9100   -1.0840    9.9830 C   0  0  0  0  0  0
   13.3450   -1.9660   11.1820 C   0  0  0  0  0  0
   14.4190   -1.1950   11.9790 C   0  0  0  0  0  0
   14.7690   -2.1060   13.2350 C   0  0  2  0  0  0
   13.5850   -2.0910   14.6050 S   0  0  0  0  0  0
   14.7410   -2.9550   15.6710 C   0  0  0  0  0  0
   16.1120   -2.2100   15.4050 C   0  0  1  0  0  0
   16.1340   -1.7470   13.9330 C   0  0  2  0  0  0
   16.2870   -0.2710   14.0100 N   0  3  0  0  0  0
   16.3460    0.0730   15.3100 C   0  0  0  0  0  0
   16.4650    1.3550   15.6930 N   0  0  0  0  0  0
   16.2320   -0.9680   16.1730 N   0  0  0  0  0  0
   14.8304   -8.4718    4.9198 H   0  0  0  0  0  0
   14.1801   -9.4618    6.2702 H   0  0  0  0  0  0
   15.4935   -7.5639    7.7229 H   0  0  0  0  0  0
   15.1262   -6.5927    6.2571 H   0  0  0  0  0  0
   12.7130   -7.4221    6.4476 H   0  0  0  0  0  0
   13.1549   -8.1014    8.0507 H   0  0  0  0  0  0
   13.0588   -6.0533    9.0239 H   0  0  0  0  0  0
   14.1233   -5.3453    7.7621 H   0  0  0  0  0  0
   12.2614   -4.8843    6.3130 H   0  0  0  0  0  0
   11.1526   -5.9035    7.2919 H   0  0  0  0  0  0
   10.6758   -4.0125    8.6525 H   0  0  0  0  0  0
   11.3363   -1.1134    8.5043 H   0  0  0  0  0  0
   11.1106   -2.2718    9.8584 H   0  0  0  0  0  0
   13.7810   -0.8709    9.3459 H   0  0  0  0  0  0
   12.4870   -0.1388   10.3539 H   0  0  0  0  0  0
   12.4736   -2.1718   11.8209 H   0  0  0  0  0  0
   13.7581   -2.9146   10.8086 H   0  0  0  0  0  0
   15.3031   -1.0361   11.3441 H   0  0  0  0  0  0
   14.0139   -0.2219   12.2938 H   0  0  0  0  0  0
   14.8905   -3.0302   12.6510 H   0  0  0  0  0  0
   14.4116   -2.8668   16.7168 H   0  0  0  0  0  0
   14.7785   -4.0170   15.3867 H   0  0  0  0  0  0
   16.9466   -2.8619   15.7024 H   0  0  0  0  0  0
   16.9640   -2.1869   13.3606 H   0  0  0  0  0  0
   16.3525    0.5043   13.2324 H   0  0  0  0  0  0
   16.5534    2.1490   14.9368 H   0  0  0  0  0  0
   16.2192   -0.9978   17.2725 H   0  0  0  0  0  0
   16.4740    1.6108   16.7628 H   0  0  0  0  0  0
  1  2  1  0  0  0
  2  3  2  0  0  0
  2  4  1  0  0  0
  4  5  1  0  0  0
  4 25  1  0  0  0
  4 26  1  0  0  0
  5  6  1  0  0  0
  5 27  1  0  0  0
  5 28  1  0  0  0
  6  7  1  0  0  0
  6 29  1  0  0  0
  6 30  1  0  0  0
  7  8  1  0  0  0
  7 31  1  0  0  0
  7 32  1  0  0  0
  8  9  1  0  0  0
  8 33  1  0  0  0
  8 34  1  0  0  0
  9 10  1  0  0  0
  9 35  1  0  0  0
 10 11  2  0  0  0
 10 12  1  0  0  0
 12 13  1  0  0  0
 12 36  1  0  0  0
 12 37  1  0  0  0
 13 14  1  0  0  0
 13 38  1  0  0  0
 13 39  1  0  0  0
 14 15  1  0  0  0
 14 40  1  0  0  0
 14 41  1  0  0  0
 15 16  1  0  0  0
 15 42  1  0  0  0
 15 43  1  0  0  0
 16 17  1  0  0  0
 16 20  1  0  0  0
 16 44  1  0  0  0
 17 18  1  0  0  0
 18 19  1  0  0  0
 18 45  1  0  0  0
 18 46  1  0  0  0
 19 20  1  0  0  0
 19 24  1  0  0  0
 19 47  1  0  0  0
 20 21  1  0  0  0
 20 48  1  0  0  0
 21 22  2  0  0  0
 21 49  1  0  0  0
 22 23  1  0  0  0
 22 24  1  0  0  0
 23 50  1  0  0  0
 23 52  1  0  0  0
 24 51  1  0  0  0
M  CHG  2   1  -1  21   1
M  END
> <s_m_source_file>
../3wzq_ligand.sdf

> <i_m_source_file_index>
1

> <s_epik_input>
W09IXUMoPU8pW0NIMl1bQ0gyXVtDSDJdW0NIMl1bQ0gyXVtOSF1DKD1PKVtDSDJdW0NIMl1bQ0gyXVtDSDJdW0NASF0oU1tDSDJdMSlbQ0BIXShbQ0BIXTEyKVtOSF0vQyg9TlxbSF0pW05IXTI=

> <s_epik_cmdline>
J2VwaWtfYXBwJywgJy1pbWFlJywgJ2xpZ2FuZF9wcm8ubWFlJywgJy1vbWFlJywgJ2xpZ2FuZF9wcmVwLm1hZScsICctbXMnLCAnMScsICctcGgnLCAnNycsICctcGh0JywgJzAuNScsICctbnQn

> <r_epik_Ionization_Penalty>
  0.0218

> <r_epik_Ionization_Penalty_Charging>
  0.0218

> <r_epik_Ionization_Penalty_Neutral>
  0.0000

> <r_epik_State_Penalty>
  0.0136

> <r_epik_Charging_Adjusted_Penalty>
0.0354353148172151

> <i_epik_Tot_Q>
0

> <i_epik_Tot_abs_Q>
2

> <s_epik_Chemistry_Notes>
This compound has an imine and may undergo hydrolysis.

$$$$
