3wzu_ligand
                    3D
 Schrodinger Suite 2020-3.
 50 51  0  0  1  0            999 V2000
  -10.1080  -15.2060    1.2950 C   0  0  0  0  0  0
  -10.7630  -15.1460   -0.0580 C   0  0  0  0  0  0
  -10.7150  -16.1610    2.2480 C   0  0  0  0  0  0
  -11.8560  -15.9670   -0.3430 C   0  0  0  0  0  0
  -12.3730  -16.8530    0.6020 C   0  0  0  0  0  0
   -7.8280  -14.9660    2.5830 O   0  0  0  0  0  0
  -11.8110  -16.9360    1.8740 C   0  0  0  0  0  0
  -10.3150  -14.5110   -2.4280 C   0  0  0  0  0  0
   -5.5020  -14.6000    1.9170 C   0  0  0  0  0  0
  -10.2650  -14.2440   -1.1170 C   0  0  0  0  0  0
   -8.2130  -13.3480   -3.0840 C   0  0  1  0  0  0
   -8.9190  -14.3710    1.7850 C   0  0  0  0  0  0
   -6.6710  -14.1300    2.7920 C   0  0  2  0  0  0
   -9.7240  -13.4850   -3.3630 C   0  0  0  0  0  0
   -8.8580  -13.1590    1.5790 O   0  0  0  0  0  0
   -7.8550  -12.6760   -1.7210 C   0  0  1  0  0  0
   -6.3830  -12.6420   -1.3310 C   0  0  0  0  0  0
   -5.5190  -12.3820   -2.1530 O   0  0  0  0  0  0
   -5.9610  -12.8900    0.1060 C   0  0  0  0  0  0
   -5.6820  -14.3730    0.4060 C   0  0  0  0  0  0
   -7.6340  -14.6580   -3.1840 O   0  0  0  0  0  0
   -8.3690  -11.3340   -1.6610 O   0  0  0  0  0  0
  -10.1910  -16.2650    3.4980 O   0  0  0  0  0  0
  -13.4540  -17.6530    0.3180 O   0  0  0  0  0  0
  -13.9200  -17.8810   -1.0090 C   0  0  0  0  0  0
   -6.2550  -14.1190    4.2630 C   0  0  0  0  0  0
  -12.3170  -15.9141   -1.3293 H   0  0  0  0  0  0
  -12.2414  -17.6277    2.5982 H   0  0  0  0  0  0
  -10.7732  -15.4464   -2.7817 H   0  0  0  0  0  0
   -4.5873  -14.0625    2.2075 H   0  0  0  0  0  0
   -5.3517  -15.6809    2.0555 H   0  0  0  0  0  0
   -9.8300  -13.2971   -0.7648 H   0  0  0  0  0  0
   -7.7547  -12.7293   -3.8696 H   0  0  0  0  0  0
   -7.0031  -13.1252    2.4917 H   0  0  0  0  0  0
   -9.8778  -13.8058   -4.4039 H   0  0  0  0  0  0
  -10.2168  -12.5149   -3.2017 H   0  0  0  0  0  0
   -8.3628  -13.2718   -0.9483 H   0  0  0  0  0  0
   -5.0399  -12.3279    0.3199 H   0  0  0  0  0  0
   -6.7596  -12.5573    0.7853 H   0  0  0  0  0  0
   -4.7655  -14.6753   -0.1219 H   0  0  0  0  0  0
   -6.5291  -14.9737    0.0433 H   0  0  0  0  0  0
   -7.7952  -15.2630   -4.0884 H   0  0  0  0  0  0
   -9.4226  -11.1370   -1.9081 H   0  0  0  0  0  0
   -9.3257  -15.6493    3.7846 H   0  0  0  0  0  0
  -14.7919  -18.5511   -0.9814 H   0  0  0  0  0  0
  -13.1196  -18.3450   -1.6040 H   0  0  0  0  0  0
  -14.2083  -16.9229   -1.4661 H   0  0  0  0  0  0
   -7.1001  -13.7807    4.8805 H   0  0  0  0  0  0
   -5.4047  -13.4344    4.3985 H   0  0  0  0  0  0
   -5.9608  -15.1340    4.5684 H   0  0  0  0  0  0
  1  2  2  0  0  0
  1  3  1  0  0  0
  1 12  1  0  0  0
  2  4  1  0  0  0
  2 10  1  0  0  0
  3  7  2  0  0  0
  3 23  1  0  0  0
  4  5  2  0  0  0
  4 27  1  0  0  0
  5  7  1  0  0  0
  5 24  1  0  0  0
  6 12  1  0  0  0
  6 13  1  0  0  0
  7 28  1  0  0  0
  8 10  2  0  0  0
  8 14  1  0  0  0
  8 29  1  0  0  0
  9 13  1  0  0  0
  9 20  1  0  0  0
  9 30  1  0  0  0
  9 31  1  0  0  0
 10 32  1  0  0  0
 11 14  1  0  0  0
 11 16  1  0  0  0
 11 21  1  0  0  0
 11 33  1  0  0  0
 12 15  2  0  0  0
 13 26  1  0  0  0
 13 34  1  0  0  0
 14 35  1  0  0  0
 14 36  1  0  0  0
 16 17  1  0  0  0
 16 22  1  0  0  0
 16 37  1  0  0  0
 17 18  2  0  0  0
 17 19  1  0  0  0
 19 20  1  0  0  0
 19 38  1  0  0  0
 19 39  1  0  0  0
 20 40  1  0  0  0
 20 41  1  0  0  0
 21 42  1  0  0  0
 22 43  1  0  0  0
 23 44  1  0  0  0
 24 25  1  0  0  0
 25 45  1  0  0  0
 25 46  1  0  0  0
 25 47  1  0  0  0
 26 48  1  0  0  0
 26 49  1  0  0  0
 26 50  1  0  0  0
M  END
> <s_m_source_file>
../3wzu_ligand.sdf

> <i_m_source_file_index>
1

> <s_epik_input>
W09IXWMxW2NIXWMoT1tDSDNdKVtjSF1jKGMxMilcW0NIXT1bQ0hdXFtDSDJdW0NASF0oW09IXSlbQ0BIXShbT0hdKUMoPU8pW0NIMl1bQ0gyXVtDSDJdW0NASF0oW0NIM10pT0MyPU8=

> <s_epik_cmdline>
J2VwaWtfYXBwJywgJy1pbWFlJywgJ2xpZ2FuZF9wcm8ubWFlJywgJy1vbWFlJywgJ2xpZ2FuZF9wcmVwLm1hZScsICctbXMnLCAnMScsICctcGgnLCAnNycsICctcGh0JywgJzAuNScsICctbnQn

> <r_lp_tautomer_probability>
1

> <r_epik_Ionization_Penalty>
  0.0025

> <r_epik_Ionization_Penalty_Charging>
  0.0000

> <r_epik_Ionization_Penalty_Neutral>
  0.0025

> <r_epik_State_Penalty>
 -0.0000

> <r_epik_Charging_Adjusted_Penalty>
0

> <i_epik_Tot_Q>
0

> <i_epik_Tot_abs_Q>
0

> <s_epik_Chemistry_Notes>
This compound has an ester and may undergo hydrolysis at high or low pH.

$$$$
