3x00_ligand
                    3D
 Schrodinger Suite 2020-3.
 52 53  0  0  1  0            999 V2000
   24.4080  -67.8760    6.8310 C   0  0  0  0  0  0
   23.3380  -68.2730    6.3330 O   0  0  0  0  0  0
   25.7420  -68.5240    6.6600 C   0  0  0  0  0  0
   25.6780  -69.8230    7.3980 C   0  0  0  0  0  0
   26.8840  -70.5910    7.0210 C   0  0  0  0  0  0
   26.9920  -71.7670    7.9090 C   0  0  0  0  0  0
   28.1510  -72.6200    7.3570 C   0  0  0  0  0  0
   28.2910  -73.8220    8.1080 N   0  0  0  0  0  0
   27.5310  -74.8930    8.0700 C   0  0  0  0  0  0
   26.5160  -74.9820    7.3420 O   0  0  0  0  0  0
   27.9110  -76.1240    8.9110 C   0  0  0  0  0  0
   26.7910  -76.6320    9.8020 C   0  0  0  0  0  0
   26.4060  -75.7500   10.9450 C   0  0  0  0  0  0
   25.2300  -76.3650   11.6790 C   0  0  0  0  0  0
   24.8150  -75.5170   12.9040 C   0  0  2  0  0  0
   26.0280  -75.6230   14.2710 S   0  0  0  0  0  0
   24.8060  -74.8890   15.3020 C   0  0  0  0  0  0
   23.4200  -75.3770   15.0060 C   0  0  1  0  0  0
   23.4340  -75.8830   13.5340 C   0  0  2  0  0  0
   23.2950  -77.2810   13.5890 N   0  3  0  0  0  0
   22.9360  -77.6690   14.8850 C   0  0  0  0  0  0
   22.9680  -78.9900   15.2220 N   0  0  0  0  0  0
   23.2900  -76.6480   15.7010 N   0  0  0  0  0  0
   24.4207  -66.9731    7.4592 H   0  0  0  0  0  0
   25.9354  -68.6881    5.5896 H   0  0  0  0  0  0
   26.5229  -67.8716    7.0778 H   0  0  0  0  0  0
   25.6621  -69.6292    8.4807 H   0  0  0  0  0  0
   24.7651  -70.3644    7.1090 H   0  0  0  0  0  0
   26.7975  -70.9191    5.9746 H   0  0  0  0  0  0
   27.7741  -69.9545    7.1333 H   0  0  0  0  0  0
   27.2016  -71.4330    8.9359 H   0  0  0  0  0  0
   26.0458  -72.3277    7.8917 H   0  0  0  0  0  0
   27.9489  -72.8776    6.3069 H   0  0  0  0  0  0
   29.0891  -72.0490    7.4204 H   0  0  0  0  0  0
   29.1177  -73.9290    8.8257 H   0  0  0  0  0  0
   28.1953  -76.9506    8.2433 H   0  0  0  0  0  0
   28.7587  -75.8734    9.5657 H   0  0  0  0  0  0
   25.8786  -76.7677    9.2027 H   0  0  0  0  0  0
   27.0841  -77.5945   10.2467 H   0  0  0  0  0  0
   27.2579  -75.6494   11.6336 H   0  0  0  0  0  0
   26.1237  -74.7576   10.5635 H   0  0  0  0  0  0
   24.3689  -76.4351   10.9982 H   0  0  0  0  0  0
   25.5025  -77.3712   12.0302 H   0  0  0  0  0  0
   24.6396  -74.5796   12.3558 H   0  0  0  0  0  0
   25.0251  -75.1234   16.3542 H   0  0  0  0  0  0
   24.8135  -73.7982   15.1601 H   0  0  0  0  0  0
   22.6739  -74.6197   15.2886 H   0  0  0  0  0  0
   22.5945  -75.5234   12.9208 H   0  0  0  0  0  0
   23.4236  -78.0401   12.8034 H   0  0  0  0  0  0
   22.6607  -79.7518   14.4905 H   0  0  0  0  0  0
   23.4753  -76.7042   16.7838 H   0  0  0  0  0  0
   23.3011  -79.2937   16.2254 H   0  0  0  0  0  0
  1  2  2  0  0  0
  1  3  1  0  0  0
  1 24  1  0  0  0
  3  4  1  0  0  0
  3 25  1  0  0  0
  3 26  1  0  0  0
  4  5  1  0  0  0
  4 27  1  0  0  0
  4 28  1  0  0  0
  5  6  1  0  0  0
  5 29  1  0  0  0
  5 30  1  0  0  0
  6  7  1  0  0  0
  6 31  1  0  0  0
  6 32  1  0  0  0
  7  8  1  0  0  0
  7 33  1  0  0  0
  7 34  1  0  0  0
  8  9  1  0  0  0
  8 35  1  0  0  0
  9 10  2  0  0  0
  9 11  1  0  0  0
 11 12  1  0  0  0
 11 36  1  0  0  0
 11 37  1  0  0  0
 12 13  1  0  0  0
 12 38  1  0  0  0
 12 39  1  0  0  0
 13 14  1  0  0  0
 13 40  1  0  0  0
 13 41  1  0  0  0
 14 15  1  0  0  0
 14 42  1  0  0  0
 14 43  1  0  0  0
 15 16  1  0  0  0
 15 19  1  0  0  0
 15 44  1  0  0  0
 16 17  1  0  0  0
 17 18  1  0  0  0
 17 45  1  0  0  0
 17 46  1  0  0  0
 18 19  1  0  0  0
 18 23  1  0  0  0
 18 47  1  0  0  0
 19 20  1  0  0  0
 19 48  1  0  0  0
 20 21  2  0  0  0
 20 49  1  0  0  0
 21 22  1  0  0  0
 21 23  1  0  0  0
 22 50  1  0  0  0
 22 52  1  0  0  0
 23 51  1  0  0  0
M  CHG  1  20   1
M  END
> <s_m_source_file>
../3x00_ligand.sdf

> <i_m_source_file_index>
1

> <s_epik_input>
Tz1bQ0hdW0NIMl1bQ0gyXVtDSDJdW0NIMl1bQ0gyXVtOSF1DKD1PKVtDSDJdW0NIMl1bQ0gyXVtDSDJdW0NASF0oU1tDSDJdMSlbQ0BIXShbQ0BIXTEyKVtOSF0vQyg9TlxbSF0pW05IXTI=

> <s_epik_cmdline>
J2VwaWtfYXBwJywgJy1pbWFlJywgJ2xpZ2FuZF9wcm8ubWFlJywgJy1vbWFlJywgJ2xpZ2FuZF9wcmVwLm1hZScsICctbXMnLCAnMScsICctcGgnLCAnNycsICctcGh0JywgJzAuNScsICctbnQn

> <r_lp_tautomer_probability>
0.99990000499975

> <r_epik_Ionization_Penalty>
  0.0172

> <r_epik_Ionization_Penalty_Charging>
  0.0172

> <r_epik_Ionization_Penalty_Neutral>
  0.0000

> <r_epik_State_Penalty>
  0.0136

> <r_epik_Charging_Adjusted_Penalty>
0.0308480911572206

> <i_epik_Tot_Q>
1

> <i_epik_Tot_abs_Q>
1

> <s_epik_Chemistry_Notes>
This compound has an imine and may undergo hydrolysis.

$$$$
