3zcl_ligand
                    3D
 Schrodinger Suite 2020-3.
 43 46  0  0  1  0            999 V2000
   20.2660   82.0660    1.6170 C   0  0  0  0  0  0
   19.6400   82.9450    2.6970 C   0  0  0  0  0  0
   18.7390   83.9990    2.0730 C   0  0  0  0  0  0
   18.8560   82.1120    3.6070 N   0  0  0  0  0  0
   18.6130   82.4170    4.9340 C   0  0  0  0  0  0
   17.9750   81.3380    5.7900 C   0  0  0  0  0  0
   17.7230   81.6030    7.0940 C   0  0  0  0  0  0
   18.0590   82.8750    7.6300 C   0  0  0  0  0  0
   17.9400   83.4130    8.8210 N   0  0  0  0  0  0
   18.4450   84.6960    8.7510 N   0  0  0  0  0  0
   18.8620   84.9140    7.5150 C   0  0  0  0  0  0
   19.4830   86.1620    6.9600 C   0  0  1  0  0  0
   18.8940   87.4150    7.6140 C   0  0  0  0  0  0
   20.9930   86.1060    7.1160 C   0  0  0  0  0  0
   21.7460   86.2200    8.2870 C   0  0  0  0  0  0
   23.0780   86.1120    7.9810 N   0  3  0  0  0  0
   23.2170   85.9280    6.6370 C   0  0  0  0  0  0
   24.4070   85.7810    5.9820 N   0  0  0  0  0  0
   24.2870   85.6090    4.6190 C   0  0  0  0  0  0
   23.0700   85.5790    3.9080 C   0  0  0  0  0  0
   21.8650   85.7380    4.6430 C   0  0  0  0  0  0
   21.9330   85.9190    6.0610 C   0  0  0  0  0  0
   18.6360   83.7850    6.7640 N   0  0  0  0  0  0
   18.9260   83.6050    5.4400 N   0  0  0  0  0  0
   20.8563   82.6918    0.9315 H   0  0  0  0  0  0
   19.4712   81.5547    1.0542 H   0  0  0  0  0  0
   20.9215   81.3182    2.0873 H   0  0  0  0  0  0
   20.4281   83.4347    3.2879 H   0  0  0  0  0  0
   19.3284   84.6263    1.3880 H   0  0  0  0  0  0
   18.3067   84.6276    2.8655 H   0  0  0  0  0  0
   17.9302   83.5056    1.5141 H   0  0  0  0  0  0
   18.4133   81.1712    3.2479 H   0  0  0  0  0  0
   17.7241   80.3671    5.3628 H   0  0  0  0  0  0
   17.2649   80.8445    7.7288 H   0  0  0  0  0  0
   19.2470   86.2021    5.8864 H   0  0  0  0  0  0
   17.8022   87.4196    7.4803 H   0  0  0  0  0  0
   19.3248   88.3111    7.1435 H   0  0  0  0  0  0
   19.1320   87.4144    8.6880 H   0  0  0  0  0  0
   21.2416   86.3716    9.2527 H   0  0  0  0  0  0
   25.2061   85.4865    4.0459 H   0  0  0  0  0  0
   23.0542   85.4381    2.8273 H   0  0  0  0  0  0
   20.9014   85.7224    4.1338 H   0  0  0  0  0  0
   23.8327   86.1786    8.7785 H   0  0  0  0  0  0
  1  2  1  0  0  0
  1 25  1  0  0  0
  1 26  1  0  0  0
  1 27  1  0  0  0
  2  3  1  0  0  0
  2  4  1  0  0  0
  2 28  1  0  0  0
  3 29  1  0  0  0
  3 30  1  0  0  0
  3 31  1  0  0  0
  4  5  1  0  0  0
  4 32  1  0  0  0
  5  6  1  0  0  0
  5 24  2  0  0  0
  6  7  2  0  0  0
  6 33  1  0  0  0
  7  8  1  0  0  0
  7 34  1  0  0  0
  8  9  2  0  0  0
  8 23  1  0  0  0
  9 10  1  0  0  0
 10 11  2  0  0  0
 11 12  1  0  0  0
 11 23  1  0  0  0
 12 13  1  0  0  0
 12 14  1  0  0  0
 12 35  1  0  0  0
 13 36  1  0  0  0
 13 37  1  0  0  0
 13 38  1  0  0  0
 14 15  2  0  0  0
 14 22  1  0  0  0
 15 16  1  0  0  0
 15 39  1  0  0  0
 16 17  1  0  0  0
 16 43  1  0  0  0
 17 18  1  0  0  0
 17 22  2  0  0  0
 18 19  2  0  0  0
 19 20  1  0  0  0
 19 40  1  0  0  0
 20 21  2  0  0  0
 20 41  1  0  0  0
 21 22  1  0  0  0
 21 42  1  0  0  0
 23 24  1  0  0  0
M  CHG  1  16   1
M  END
> <s_m_source_file>
../3zcl_ligand.sdf

> <i_m_source_file_index>
1

> <s_epik_input>
W0NIM11bQ0hdKFtDSDNdKVtOSF1jKFtjSF1bY0hdMSlubihjMTIpYyhubjIpW0NAQEhdKFtDSDNdKWMoW2NIXVtuSF0zKWMoYzM0KVtjSF1bY0hdW2NIXW40

> <s_epik_cmdline>
J2VwaWtfYXBwJywgJy1pbWFlJywgJ2xpZ2FuZF9wcm8ubWFlJywgJy1vbWFlJywgJ2xpZ2FuZF9wcmVwLm1hZScsICctbXMnLCAnMScsICctcGgnLCAnNycsICctcGh0JywgJzAuNScsICctbnQn

> <r_epik_Ionization_Penalty>
  0.0871

> <r_epik_Ionization_Penalty_Charging>
  0.0000

> <r_epik_Ionization_Penalty_Neutral>
  0.0871

> <r_epik_State_Penalty>
  0.0775

> <r_epik_Charging_Adjusted_Penalty>
0.0774621166439377

> <i_epik_Tot_Q>
1

> <i_epik_Tot_abs_Q>
1

$$$$
