3zcw_ligand
                    3D
 Schrodinger Suite 2020-3.
 49 52  0  0  1  0            999 V2000
   -2.9620   -5.8180   12.6990 F   0  0  0  0  0  0
   -1.6840   -5.6420   12.5050 C   0  0  0  0  0  0
   -1.0290   -6.0040   13.5880 F   0  0  0  0  0  0
   -1.3320   -6.4500   11.4950 F   0  0  0  0  0  0
   -1.3780   -4.1690   12.1960 C   0  0  0  0  0  0
   -0.3580   -3.5260   12.9450 C   0  0  0  0  0  0
   -0.0470   -2.2110   12.6690 C   0  0  0  0  0  0
   -0.7440   -1.5430   11.6660 C   0  0  0  0  0  0
   -1.7450   -2.1600   10.9340 C   0  0  0  0  0  0
   -2.0620   -3.4870   11.2000 C   0  0  0  0  0  0
   -3.1910   -4.1740   10.3780 C   0  0  0  0  0  0
   -3.4540   -3.4850    9.0980 N   0  0  0  0  0  0
   -2.7890   -3.7480    7.9930 C   0  0  0  0  0  0
   -1.7260   -4.6350    7.7430 C   0  0  0  0  0  0
   -1.2060   -4.7040    6.4490 C   0  0  0  0  0  0
   -1.7540   -3.8730    5.4540 C   0  0  0  0  0  0
   -1.2090   -3.9140    4.0320 C   0  0  0  0  0  0
   -1.9160   -3.4550    3.0880 O   0  5  0  0  0  0
   -0.0980   -4.4270    3.8110 O   0  0  0  0  0  0
   -2.7990   -2.9870    5.7330 C   0  0  0  0  0  0
   -3.3340   -2.9330    7.0130 C   0  0  0  0  0  0
   -4.3010   -2.1940    7.5680 N   0  0  0  0  0  0
   -4.3750   -2.5490    8.8710 C   0  0  0  0  0  0
   -5.2440   -2.0790    9.7660 N   0  0  0  0  0  0
   -6.0270   -0.9950    9.6720 C   0  0  0  0  0  0
   -5.6460    0.0950    8.9050 C   0  0  0  0  0  0
   -6.4800    1.2050    8.8360 C   0  0  0  0  0  0
   -6.1240    2.2710    8.1170 F   0  0  0  0  0  0
   -7.6710    1.2720    9.5440 C   0  0  0  0  0  0
   -8.4470    2.3880    9.4500 O   0  0  0  0  0  0
   -9.4170    2.5720   10.5220 C   0  0  0  0  0  0
   -8.0600    0.1740   10.3020 C   0  0  0  0  0  0
   -7.2370   -0.9590   10.3760 C   0  0  0  0  0  0
    0.1733   -4.0653   13.7292 H   0  0  0  0  0  0
    0.7358   -1.7004   13.2299 H   0  0  0  0  0  0
   -0.4947   -0.5040   11.4504 H   0  0  0  0  0  0
   -2.2783   -1.6110   10.1579 H   0  0  0  0  0  0
   -2.9013   -5.2109   10.1525 H   0  0  0  0  0  0
   -4.1229   -4.1725   10.9624 H   0  0  0  0  0  0
   -1.3175   -5.2544    8.5415 H   0  0  0  0  0  0
   -0.3910   -5.3885    6.2139 H   0  0  0  0  0  0
   -3.1923   -2.3408    4.9482 H   0  0  0  0  0  0
   -5.3834   -2.6011   10.7241 H   0  0  0  0  0  0
   -4.7015    0.0819    8.3612 H   0  0  0  0  0  0
   -9.9855    3.4974   10.3472 H   0  0  0  0  0  0
   -8.8902    2.6416   11.4852 H   0  0  0  0  0  0
  -10.1074    1.7159   10.5427 H   0  0  0  0  0  0
   -9.0075    0.1936   10.8405 H   0  0  0  0  0  0
   -7.5395   -1.8128   10.9823 H   0  0  0  0  0  0
  1  2  1  0  0  0
  2  3  1  0  0  0
  2  4  1  0  0  0
  2  5  1  0  0  0
  5  6  2  0  0  0
  5 10  1  0  0  0
  6  7  1  0  0  0
  6 34  1  0  0  0
  7  8  2  0  0  0
  7 35  1  0  0  0
  8  9  1  0  0  0
  8 36  1  0  0  0
  9 10  2  0  0  0
  9 37  1  0  0  0
 10 11  1  0  0  0
 11 12  1  0  0  0
 11 38  1  0  0  0
 11 39  1  0  0  0
 12 13  1  0  0  0
 12 23  1  0  0  0
 13 14  1  0  0  0
 13 21  2  0  0  0
 14 15  2  0  0  0
 14 40  1  0  0  0
 15 16  1  0  0  0
 15 41  1  0  0  0
 16 17  1  0  0  0
 16 20  2  0  0  0
 17 18  1  0  0  0
 17 19  2  0  0  0
 20 21  1  0  0  0
 20 42  1  0  0  0
 21 22  1  0  0  0
 22 23  2  0  0  0
 23 24  1  0  0  0
 24 25  1  0  0  0
 24 43  1  0  0  0
 25 26  2  0  0  0
 25 33  1  0  0  0
 26 27  1  0  0  0
 26 44  1  0  0  0
 27 28  1  0  0  0
 27 29  2  0  0  0
 29 30  1  0  0  0
 29 32  1  0  0  0
 30 31  1  0  0  0
 31 45  1  0  0  0
 31 46  1  0  0  0
 31 47  1  0  0  0
 32 33  2  0  0  0
 32 48  1  0  0  0
 33 49  1  0  0  0
M  CHG  1  18  -1
M  END
> <s_m_source_file>
../3zcw_ligand.sdf

> <i_m_source_file_index>
1

> <s_epik_input>
RkMoRikoRiljMVtjSF1bY0hdW2NIXVtjSF1jMVtDSDJdbjJjKG5jKGMyMylbY0hdYyhbY0hdW2NIXTMpQyg9TylbT0hdKVtOSF1jNFtjSF1jKEYpYyhPW0NIM10pW2NIXVtjSF00

> <s_epik_cmdline>
J2VwaWtfYXBwJywgJy1pbWFlJywgJ2xpZ2FuZF9wcm8ubWFlJywgJy1vbWFlJywgJ2xpZ2FuZF9wcmVwLm1hZScsICctbXMnLCAnMScsICctcGgnLCAnNycsICctcGh0JywgJzAuNScsICctbnQn

> <r_epik_Ionization_Penalty>
  0.0835

> <r_epik_Ionization_Penalty_Charging>
  0.0006

> <r_epik_Ionization_Penalty_Neutral>
  0.0829

> <r_epik_State_Penalty>
  0.0736

> <r_epik_Charging_Adjusted_Penalty>
0.0742300968158744

> <i_epik_Tot_Q>
-1

> <i_epik_Tot_abs_Q>
1

$$$$
