3zcz_ligand
                    3D
 Schrodinger Suite 2020-3.
 39 38  0  0  1  0            999 V2000
   -1.7240   -1.2100   35.1790 N   0  0  0  0  0  0
   -5.6160    1.4030   29.5620 O   0  5  0  0  0  0
   -1.7600    0.1010   35.4840 C   0  0  0  0  0  0
   -0.8820    0.6610   36.1290 O   0  0  0  0  0  0
   -0.7000   -1.9840   35.5770 C   0  0  2  0  0  0
    0.0750   -2.4040   34.3560 C   0  0  0  0  0  0
   -1.1140   -3.1790   36.4170 C   0  0  1  0  0  0
   -1.5990   -2.7340   37.8090 C   0  0  0  0  0  0
   -1.9180   -3.7570   38.6120 F   0  0  0  0  0  0
   -0.6110   -2.0420   38.3460 F   0  0  0  0  0  0
   -2.6670   -1.9590   37.6970 F   0  0  0  0  0  0
   -2.9440    0.9100   34.9790 C   0  0  0  0  0  0
   -2.5170    1.5410   33.6530 C   0  0  0  0  0  0
   -2.1460   -3.9020   35.7240 O   0  0  0  0  0  0
   -3.4160    2.5150   31.4950 C   0  0  0  0  0  0
   -4.6300    3.1570   30.8200 C   0  0  2  0  0  0
   -3.5840    2.4190   33.0110 C   0  0  0  0  0  0
   -6.6900    2.1020   31.3430 O   0  0  0  0  0  0
   -5.7180    2.1520   30.5600 C   0  0  0  0  0  0
   -4.2190    3.7150   29.5430 N   0  3  0  0  0  0
   -2.5484   -1.6458   34.5955 H   0  0  0  0  0  0
   -0.1493   -1.2854   36.2241 H   0  0  0  0  0  0
    0.3558   -1.5128   33.7755 H   0  0  0  0  0  0
   -0.5483   -3.0645   33.7353 H   0  0  0  0  0  0
    0.9835   -2.9415   34.6653 H   0  0  0  0  0  0
   -0.2722   -3.8788   36.5246 H   0  0  0  0  0  0
   -3.8076    0.2444   34.8338 H   0  0  0  0  0  0
   -3.1989    1.6860   35.7158 H   0  0  0  0  0  0
   -1.6319    2.1735   33.8161 H   0  0  0  0  0  0
   -2.2727    0.7477   32.9312 H   0  0  0  0  0  0
   -1.9602   -4.2912   34.7121 H   0  0  0  0  0  0
   -3.2729    1.4978   31.1014 H   0  0  0  0  0  0
   -2.5196    3.1179   31.2875 H   0  0  0  0  0  0
   -5.0267    3.9615   31.4568 H   0  0  0  0  0  0
   -4.5789    1.9982   33.2188 H   0  0  0  0  0  0
   -3.5216    3.4354   33.4270 H   0  0  0  0  0  0
   -3.4217    4.4551   29.7059 H   0  0  0  0  0  0
   -5.0796    4.2030   29.0621 H   0  0  0  0  0  0
   -3.8446    2.9094   28.8943 H   0  0  0  0  0  0
  1  3  1  0  0  0
  1  5  1  0  0  0
  1 21  1  0  0  0
  2 19  1  0  0  0
  3  4  2  0  0  0
  3 12  1  0  0  0
  5  6  1  0  0  0
  5  7  1  0  0  0
  5 22  1  0  0  0
  6 23  1  0  0  0
  6 24  1  0  0  0
  6 25  1  0  0  0
  7  8  1  0  0  0
  7 14  1  0  0  0
  7 26  1  0  0  0
  8  9  1  0  0  0
  8 10  1  0  0  0
  8 11  1  0  0  0
 12 13  1  0  0  0
 12 27  1  0  0  0
 12 28  1  0  0  0
 13 17  1  0  0  0
 13 29  1  0  0  0
 13 30  1  0  0  0
 14 31  1  0  0  0
 15 16  1  0  0  0
 15 17  1  0  0  0
 15 32  1  0  0  0
 15 33  1  0  0  0
 16 19  1  0  0  0
 16 20  1  0  0  0
 16 34  1  0  0  0
 17 35  1  0  0  0
 17 36  1  0  0  0
 18 19  2  0  0  0
 20 37  1  0  0  0
 20 38  1  0  0  0
 20 39  1  0  0  0
M  CHG  2   2  -1  20   1
M  END
> <s_m_source_file>
../3zcz_ligand.sdf

> <i_m_source_file_index>
1

> <s_epik_input>
RkMoRikoRilbQ0BASF0oW09IXSlbQ0BASF0oW0NIM10pW05IXUMoPU8pW0NIMl1bQ0gyXVtDSDJdW0NIMl1bQ0BASF0oW05IMytdKUMoPU8pW09IXQ==

> <s_epik_cmdline>
J2VwaWtfYXBwJywgJy1pbWFlJywgJ2xpZ2FuZF9wcm8ubWFlJywgJy1vbWFlJywgJ2xpZ2FuZF9wcmVwLm1hZScsICctbXMnLCAnMScsICctcGgnLCAnNycsICctcGh0JywgJzAuNScsICctbnQn

> <r_lp_tautomer_probability>
1

> <r_epik_Ionization_Penalty>
  0.0020

> <r_epik_Ionization_Penalty_Charging>
  0.0010

> <r_epik_Ionization_Penalty_Neutral>
  0.0010

> <r_epik_State_Penalty>
 -0.0000

> <r_epik_Charging_Adjusted_Penalty>
0.00101900003343294

> <i_epik_Tot_Q>
0

> <i_epik_Tot_abs_Q>
2

$$$$
