3zdh_ligand
                    3D
 Schrodinger Suite 2020-3.
 35 35  0  0  1  0            999 V2000
   54.5300   -4.0710  -53.4570 C   0  0  0  0  0  0
   53.3550   -4.6400  -53.2060 N   0  3  0  0  0  0
   53.0420   -4.2550  -51.9180 C   0  0  0  0  0  0
   54.0570   -3.4620  -51.4380 C   0  0  0  0  0  0
   54.9980   -3.3530  -52.4440 N   0  0  0  0  0  0
   55.2700   -4.1340  -54.5800 O   0  0  0  0  0  0
   54.6820   -4.8500  -55.6570 C   0  0  0  0  0  0
   55.3980   -4.5080  -56.9800 C   0  0  0  0  0  0
   56.8640   -4.9910  -57.1220 C   0  0  2  0  0  0
   57.7320   -4.5380  -55.9850 N   0  3  0  0  0  0
   57.4160   -4.5710  -58.5030 C   0  0  0  0  0  0
   57.8920   -3.0650  -55.8480 C   0  0  0  0  0  0
   59.0300   -5.2540  -55.8990 C   0  0  0  0  0  0
   56.2460   -2.6180  -52.3960 C   0  0  0  0  0  0
   52.1403   -4.5334  -51.3725 H   0  0  0  0  0  0
   54.1097   -3.0051  -50.4498 H   0  0  0  0  0  0
   54.7692   -5.9305  -55.4699 H   0  0  0  0  0  0
   53.6198   -4.5772  -55.7421 H   0  0  0  0  0  0
   54.8513   -4.9606  -57.8204 H   0  0  0  0  0  0
   55.4291   -3.4160  -57.1084 H   0  0  0  0  0  0
   56.9012   -6.0873  -57.0395 H   0  0  0  0  0  0
   57.1574   -4.8340  -55.0949 H   0  0  0  0  0  0
   56.7397   -4.9300  -59.2928 H   0  0  0  0  0  0
   58.4143   -5.0097  -58.6477 H   0  0  0  0  0  0
   57.4869   -3.4744  -58.5514 H   0  0  0  0  0  0
   56.9067   -2.5811  -55.9181 H   0  0  0  0  0  0
   58.5425   -2.6905  -56.6521 H   0  0  0  0  0  0
   58.3451   -2.8346  -54.8725 H   0  0  0  0  0  0
   58.8599   -6.3355  -56.0054 H   0  0  0  0  0  0
   59.4971   -5.0505  -54.9241 H   0  0  0  0  0  0
   59.6945   -4.9064  -56.7037 H   0  0  0  0  0  0
   56.7725   -2.7265  -53.3557 H   0  0  0  0  0  0
   56.8748   -3.0157  -51.5857 H   0  0  0  0  0  0
   56.0379   -1.5540  -52.2101 H   0  0  0  0  0  0
   52.8683   -5.2589  -53.9742 H   0  0  0  0  0  0
  1  2  2  0  0  0
  1  5  1  0  0  0
  1  6  1  0  0  0
  2  3  1  0  0  0
  2 35  1  0  0  0
  3  4  2  0  0  0
  3 15  1  0  0  0
  4  5  1  0  0  0
  4 16  1  0  0  0
  5 14  1  0  0  0
  6  7  1  0  0  0
  7  8  1  0  0  0
  7 17  1  0  0  0
  7 18  1  0  0  0
  8  9  1  0  0  0
  8 19  1  0  0  0
  8 20  1  0  0  0
  9 10  1  0  0  0
  9 11  1  0  0  0
  9 21  1  0  0  0
 10 12  1  0  0  0
 10 13  1  0  0  0
 10 22  1  0  0  0
 11 23  1  0  0  0
 11 24  1  0  0  0
 11 25  1  0  0  0
 12 26  1  0  0  0
 12 27  1  0  0  0
 12 28  1  0  0  0
 13 29  1  0  0  0
 13 30  1  0  0  0
 13 31  1  0  0  0
 14 32  1  0  0  0
 14 33  1  0  0  0
 14 34  1  0  0  0
M  CHG  2   2   1  10   1
M  END
> <s_m_source_file>
../3zdh_ligand.sdf

> <i_m_source_file_index>
1

> <s_epik_input>
W0NIM11uMVtjSF1bY0hdbmMxT1tDSDJdW0NIMl1bQ0BASF0oW0NIM10pW05IK10oW0NIM10pW0NIM10=

> <s_epik_cmdline>
J2VwaWtfYXBwJywgJy1pbWFlJywgJ2xpZ2FuZF9wcm8ubWFlJywgJy1vbWFlJywgJ2xpZ2FuZF9wcmVwLm1hZScsICctbXMnLCAnMScsICctcGgnLCAnNycsICctcGh0JywgJzAuNScsICctbnQn

> <r_lp_tautomer_probability>
1

> <r_epik_Ionization_Penalty>
  0.0093

> <r_epik_Ionization_Penalty_Charging>
  0.0052

> <r_epik_Ionization_Penalty_Neutral>
  0.0041

> <r_epik_State_Penalty>
 -0.0000

> <r_epik_Charging_Adjusted_Penalty>
0.00518236152647262

> <i_epik_Tot_Q>
2

> <i_epik_Tot_abs_Q>
2

$$$$
