3zdv_ligand
                    3D
 Schrodinger Suite 2020-3.
 50 51  0  0  1  0            999 V2000
   -5.4500   18.4130   23.8760 C   0  0  1  0  0  0
   -4.6730   17.8180   22.7410 C   0  0  2  0  0  0
   -5.5570   17.5100   21.5500 C   0  0  2  0  0  0
   -6.7470   16.7060   21.9710 C   0  0  1  0  0  0
   -7.5090   17.5130   23.0480 C   0  0  1  0  0  0
   -8.7570   16.8290   23.5720 C   0  0  0  0  0  0
   -6.4580   20.4930   24.4840 C   0  0  0  0  0  0
   -5.7840   19.7210   23.4610 O   0  0  0  0  0  0
   -4.0810   16.5800   23.1670 O   0  0  0  0  0  0
   -4.7870   16.8080   20.5600 O   0  0  0  0  0  0
   -7.5560   16.3780   20.8400 O   0  0  0  0  0  0
   -6.6140   17.6430   24.1670 O   0  0  0  0  0  0
   -9.8900   17.0470   22.6850 N   0  0  3  0  0  0
  -11.0320   18.1240   23.1550 S   0  0  0  0  0  0
  -12.1470   17.9850   22.2550 O   0  0  0  0  0  0
  -10.3600   19.3800   23.2440 O   0  0  0  0  0  0
  -11.4890   17.6320   24.7080 C   0  0  0  0  0  0
  -11.1450   18.3610   25.9460 C   0  0  0  0  0  0
  -11.4790   17.8300   27.1830 C   0  0  0  0  0  0
  -12.1840   16.6580   27.3020 C   0  0  0  0  0  0
  -12.5320   15.9020   26.1960 C   0  0  0  0  0  0
  -12.2110   16.3680   24.9190 C   0  0  0  0  0  0
  -10.3880   19.6610   25.9560 C   0  0  0  0  0  0
  -12.5850   15.5280   23.7340 C   0  0  0  0  0  0
  -12.5620   16.1720   28.6720 C   0  0  0  0  0  0
   -4.9038   18.4562   24.8298 H   0  0  0  0  0  0
   -3.8773   18.5258   22.4656 H   0  0  0  0  0  0
   -5.9146   18.4332   21.0707 H   0  0  0  0  0  0
   -6.4519   15.7122   22.3389 H   0  0  0  0  0  0
   -7.8031   18.4917   22.6410 H   0  0  0  0  0  0
   -8.5765   15.7467   23.6503 H   0  0  0  0  0  0
   -9.0066   17.2319   24.5647 H   0  0  0  0  0  0
   -6.6875   21.4960   24.0949 H   0  0  0  0  0  0
   -5.8060   20.5820   25.3654 H   0  0  0  0  0  0
   -7.3926   19.9875   24.7687 H   0  0  0  0  0  0
   -3.3946   16.5656   24.0265 H   0  0  0  0  0  0
   -3.8766   17.2654   20.1453 H   0  0  0  0  0  0
   -7.1273   15.8046   20.0049 H   0  0  0  0  0  0
   -9.8811   16.6276   21.6681 H   0  0  0  0  0  0
  -11.1731   18.3581   28.0861 H   0  0  0  0  0  0
  -13.0517   14.9520   26.3204 H   0  0  0  0  0  0
  -10.1846   19.9748   24.9215 H   0  0  0  0  0  0
   -9.4370   19.5274   26.4924 H   0  0  0  0  0  0
  -10.9890   20.4313   26.4614 H   0  0  0  0  0  0
  -12.2643   16.0328   22.8108 H   0  0  0  0  0  0
  -13.6757   15.3864   23.7145 H   0  0  0  0  0  0
  -12.0893   14.5488   23.8076 H   0  0  0  0  0  0
  -12.2091   16.8907   29.4263 H   0  0  0  0  0  0
  -12.0978   15.1916   28.8543 H   0  0  0  0  0  0
  -13.6559   16.0778   28.7387 H   0  0  0  0  0  0
  1  2  1  0  0  0
  1  8  1  0  0  0
  1 12  1  0  0  0
  1 26  1  0  0  0
  2  3  1  0  0  0
  2  9  1  0  0  0
  2 27  1  0  0  0
  3  4  1  0  0  0
  3 10  1  0  0  0
  3 28  1  0  0  0
  4  5  1  0  0  0
  4 11  1  0  0  0
  4 29  1  0  0  0
  5  6  1  0  0  0
  5 12  1  0  0  0
  5 30  1  0  0  0
  6 13  1  0  0  0
  6 31  1  0  0  0
  6 32  1  0  0  0
  7  8  1  0  0  0
  7 33  1  0  0  0
  7 34  1  0  0  0
  7 35  1  0  0  0
  9 36  1  0  0  0
 10 37  1  0  0  0
 11 38  1  0  0  0
 13 14  1  0  0  0
 13 39  1  0  0  0
 14 15  2  0  0  0
 14 16  2  0  0  0
 14 17  1  0  0  0
 17 18  2  0  0  0
 17 22  1  0  0  0
 18 19  1  0  0  0
 18 23  1  0  0  0
 19 20  2  0  0  0
 19 40  1  0  0  0
 20 21  1  0  0  0
 20 25  1  0  0  0
 21 22  2  0  0  0
 21 41  1  0  0  0
 22 24  1  0  0  0
 23 42  1  0  0  0
 23 43  1  0  0  0
 23 44  1  0  0  0
 24 45  1  0  0  0
 24 46  1  0  0  0
 24 47  1  0  0  0
 25 48  1  0  0  0
 25 49  1  0  0  0
 25 50  1  0  0  0
M  END
> <s_m_source_file>
../3zdv_ligand.sdf

> <i_m_source_file_index>
1

> <s_epik_input>
W0NIM11PW0NAQEhdMVtDQEBIXShbT0hdKVtDQEBIXShbT0hdKVtDQEhdKFtPSF0pW0NASF0oTzEpW0NIMl1bTkhdUyg9TykoPU8pYzJjKFtDSDNdKVtjSF1jKFtDSDNdKVtjSF1jMltDSDNd

> <s_epik_cmdline>
J2VwaWtfYXBwJywgJy1pbWFlJywgJ2xpZ2FuZF9wcm8ubWFlJywgJy1vbWFlJywgJ2xpZ2FuZF9wcmVwLm1hZScsICctbXMnLCAnMScsICctcGgnLCAnNycsICctcGh0JywgJzAuNScsICctbnQn

> <r_lp_tautomer_probability>
1

> <r_epik_Ionization_Penalty>
  0.0000

> <r_epik_Ionization_Penalty_Charging>
  0.0000

> <r_epik_Ionization_Penalty_Neutral>
  0.0000

> <r_epik_State_Penalty>
 -0.0000

> <r_epik_Charging_Adjusted_Penalty>
0

> <i_epik_Tot_Q>
0

> <i_epik_Tot_abs_Q>
0

> <s_epik_Chemistry_Notes>
This compound contains an acetal/aminal-like group ( X-CH(R)-Y where X, Y are N, S, or O) that may be acid/base labile, releasing an aldehyde.

$$$$
