3zeb_ligand
                    3D
 Schrodinger Suite 2020-3.
 38 39  0  0  1  0            999 V2000
    8.7320   -4.6760   48.4330 O   0  0  0  0  0  0
    8.9570   -4.8690   49.6050 C   0  0  0  0  0  0
   10.1310   -5.6430   50.1450 C   0  0  0  0  0  0
   11.3880   -4.8110   50.1040 C   0  0  0  0  0  0
   11.2640   -3.4190   50.1750 C   0  0  0  0  0  0
   12.3320   -2.5730   49.9500 C   0  0  0  0  0  0
   13.5960   -3.0930   49.6770 C   0  0  0  0  0  0
   14.6710   -2.2640   49.4630 N   0  0  0  0  0  0
   13.7430   -4.4790   49.6490 C   0  0  0  0  0  0
   12.6720   -5.3530   49.8670 C   0  0  0  0  0  0
   12.9690   -6.8320   49.7720 C   0  0  0  0  0  0
   12.1540   -7.7050   49.9850 O   0  0  0  0  0  0
    8.2010   -4.3790   50.6020 O   0  0  0  0  0  0
    7.1130   -3.4720   50.2650 C   0  0  0  0  0  0
    7.6140   -2.0460   50.3380 C   0  0  0  0  0  0
    6.5510   -1.0090   50.0530 C   0  0  0  0  0  0
    6.1220   -0.7670   48.7550 C   0  0  0  0  0  0
    5.1500    0.1870   48.4940 C   0  0  0  0  0  0
    4.5980    0.9150   49.5250 C   0  0  0  0  0  0
    5.0130    0.6870   50.8170 C   0  0  0  0  0  0
    5.9830   -0.2690   51.0810 C   0  0  0  0  0  0
    9.9316   -5.9316   51.1876 H   0  0  0  0  0  0
   10.2850   -6.5469   49.5374 H   0  0  0  0  0  0
   10.2922   -2.9882   50.4159 H   0  0  0  0  0  0
   12.1858   -1.4935   49.9861 H   0  0  0  0  0  0
   14.5374   -1.1724   49.4886 H   0  0  0  0  0  0
   15.6650   -2.6920   49.2661 H   0  0  0  0  0  0
   14.7294   -4.8978   49.4498 H   0  0  0  0  0  0
   13.9984   -7.0976   49.4897 H   0  0  0  0  0  0
    6.7585   -3.6872   49.2462 H   0  0  0  0  0  0
    6.2865   -3.6100   50.9776 H   0  0  0  0  0  0
    8.0030   -1.8453   51.3472 H   0  0  0  0  0  0
    8.4168   -1.9012   49.6001 H   0  0  0  0  0  0
    6.5546   -1.3340   47.9307 H   0  0  0  0  0  0
    4.8216    0.3615   47.4694 H   0  0  0  0  0  0
    3.8368    1.6674   49.3185 H   0  0  0  0  0  0
    4.5780    1.2597   51.6361 H   0  0  0  0  0  0
    6.3032   -0.4413   52.1086 H   0  0  0  0  0  0
  1  2  2  0  0  0
  2  3  1  0  0  0
  2 13  1  0  0  0
  3  4  1  0  0  0
  3 22  1  0  0  0
  3 23  1  0  0  0
  4  5  2  0  0  0
  4 10  1  0  0  0
  5  6  1  0  0  0
  5 24  1  0  0  0
  6  7  2  0  0  0
  6 25  1  0  0  0
  7  8  1  0  0  0
  7  9  1  0  0  0
  8 26  1  0  0  0
  8 27  1  0  0  0
  9 10  2  0  0  0
  9 28  1  0  0  0
 10 11  1  0  0  0
 11 12  2  0  0  0
 11 29  1  0  0  0
 13 14  1  0  0  0
 14 15  1  0  0  0
 14 30  1  0  0  0
 14 31  1  0  0  0
 15 16  1  0  0  0
 15 32  1  0  0  0
 15 33  1  0  0  0
 16 17  2  0  0  0
 16 21  1  0  0  0
 17 18  1  0  0  0
 17 34  1  0  0  0
 18 19  2  0  0  0
 18 35  1  0  0  0
 19 20  1  0  0  0
 19 36  1  0  0  0
 20 21  2  0  0  0
 20 37  1  0  0  0
 21 38  1  0  0  0
M  END
> <s_m_source_file>
../3zeb_ligand.sdf

> <i_m_source_file_index>
1

> <s_epik_input>
W2NIXTFbY0hdW2NIXVtjSF1bY0hdYzFbQ0gyXVtDSDJdT0MoPU8pW0NIMl1jMltjSF1bY0hdYyhbTkgyXSlbY0hdYzJbQ0hdPU8=

> <s_epik_cmdline>
J2VwaWtfYXBwJywgJy1pbWFlJywgJ2xpZ2FuZF9wcm8ubWFlJywgJy1vbWFlJywgJ2xpZ2FuZF9wcmVwLm1hZScsICctbXMnLCAnMScsICctcGgnLCAnNycsICctcGh0JywgJzAuNScsICctbnQn

> <r_lp_tautomer_probability>
1

> <r_epik_Ionization_Penalty>
  0.0001

> <r_epik_Ionization_Penalty_Charging>
  0.0000

> <r_epik_Ionization_Penalty_Neutral>
  0.0001

> <r_epik_State_Penalty>
 -0.0000

> <r_epik_Charging_Adjusted_Penalty>
0

> <i_epik_Tot_Q>
0

> <i_epik_Tot_abs_Q>
0

> <s_epik_Chemistry_Notes>
This compound has an ester and may undergo hydrolysis at high or low pH.

$$$$
