3zep_ligand
                    3D
 Schrodinger Suite 2020-3.
 56 60  0  0  1  0            999 V2000
   -6.4650  -10.1050   10.2560 C   0  0  0  0  0  0
   -7.2150  -11.0820    9.3550 C   0  0  2  0  0  0
   -8.0450  -10.3250    8.4150 N   0  0  0  0  0  0
   -7.9810  -10.4510    7.0590 C   0  0  0  0  0  0
   -7.2070  -11.2160    6.5090 O   0  0  0  0  0  0
   -8.8870   -9.6430    6.2270 C   0  0  0  0  0  0
   -9.0630   -9.7010    4.8730 C   0  0  0  0  0  0
   -9.9980   -8.7960    4.4890 N   0  3  0  0  0  0
  -10.4760   -8.1070    5.5810 C   0  0  0  0  0  0
  -11.3760   -7.1410    5.7520 N   0  0  0  0  0  0
  -11.6300   -6.6680    6.9670 C   0  0  0  0  0  0
  -10.9700   -7.1610    8.0990 C   0  0  0  0  0  0
  -10.0650   -8.1210    7.9270 N   0  0  0  0  0  0
   -9.8060   -8.6060    6.7130 C   0  0  0  0  0  0
  -11.2900   -6.6230    9.3180 O   0  0  0  0  0  0
  -10.8910   -7.0480   10.5620 C   0  0  0  0  0  0
  -10.8070   -6.0870   11.5720 C   0  0  0  0  0  0
  -10.4180   -6.4330   12.8640 C   0  0  0  0  0  0
  -10.2460   -5.5870   14.1110 C   0  0  2  0  0  0
   -9.5740   -4.3170   13.7980 N   0  0  0  0  0  0
  -10.1200   -3.0980   14.0280 C   0  0  0  0  0  0
   -9.3240   -1.8720   13.6650 C   0  0  0  0  0  0
  -11.2250   -2.9560   14.5130 O   0  0  0  0  0  0
   -9.3590   -6.4370   15.0450 C   0  0  0  0  0  0
   -9.7240   -7.8740   14.6180 C   0  0  0  0  0  0
  -10.1170   -7.7550   13.1630 C   0  0  0  0  0  0
  -10.2040   -8.7220   12.1690 C   0  0  0  0  0  0
  -10.5930   -8.3800   10.8830 C   0  0  0  0  0  0
   -8.1620  -11.9430   10.1930 C   0  0  0  0  0  0
   -8.8780  -13.0890    9.4790 C   0  0  0  0  0  0
   -7.7640  -13.3900   10.4820 C   0  0  0  0  0  0
   -5.7868   -9.4903    9.6459 H   0  0  0  0  0  0
   -5.8812  -10.6667   11.0001 H   0  0  0  0  0  0
   -7.1864   -9.4538   10.7714 H   0  0  0  0  0  0
   -6.4940  -11.6949    8.7941 H   0  0  0  0  0  0
   -8.7794   -9.5980    8.7919 H   0  0  0  0  0  0
   -8.4800  -10.4149    4.2727 H   0  0  0  0  0  0
  -12.3703   -5.8768    7.0856 H   0  0  0  0  0  0
  -11.0499   -5.0488   11.3454 H   0  0  0  0  0  0
  -11.2115   -5.2905   14.5468 H   0  0  0  0  0  0
   -8.5691   -4.3221   13.3505 H   0  0  0  0  0  0
   -8.3553   -2.1759   13.2417 H   0  0  0  0  0  0
   -9.1558   -1.2640   14.5661 H   0  0  0  0  0  0
   -9.8796   -1.2808   12.9221 H   0  0  0  0  0  0
   -8.3012   -6.1916   14.8695 H   0  0  0  0  0  0
   -9.6167   -6.2208   16.0923 H   0  0  0  0  0  0
   -8.8509   -8.5294   14.7527 H   0  0  0  0  0  0
  -10.5563   -8.2402   15.2370 H   0  0  0  0  0  0
   -9.9641   -9.7593   12.4025 H   0  0  0  0  0  0
  -10.6677   -9.1515   10.1166 H   0  0  0  0  0  0
   -8.4717  -11.0902   10.8149 H   0  0  0  0  0  0
   -9.9514  -13.0557    9.7172 H   0  0  0  0  0  0
   -8.7402  -12.9871    8.3924 H   0  0  0  0  0  0
   -6.7046  -13.5371   10.2252 H   0  0  0  0  0  0
   -7.9158  -13.6058   11.5499 H   0  0  0  0  0  0
  -10.2683   -8.7014    3.4269 H   0  0  0  0  0  0
  1  2  1  0  0  0
  1 32  1  0  0  0
  1 33  1  0  0  0
  1 34  1  0  0  0
  2  3  1  0  0  0
  2 29  1  0  0  0
  2 35  1  0  0  0
  3  4  1  0  0  0
  3 36  1  0  0  0
  4  5  2  0  0  0
  4  6  1  0  0  0
  6  7  2  0  0  0
  6 14  1  0  0  0
  7  8  1  0  0  0
  7 37  1  0  0  0
  8  9  1  0  0  0
  8 56  1  0  0  0
  9 10  1  0  0  0
  9 14  2  0  0  0
 10 11  2  0  0  0
 11 12  1  0  0  0
 11 38  1  0  0  0
 12 13  2  0  0  0
 12 15  1  0  0  0
 13 14  1  0  0  0
 15 16  1  0  0  0
 16 17  2  0  0  0
 16 28  1  0  0  0
 17 18  1  0  0  0
 17 39  1  0  0  0
 18 19  1  0  0  0
 18 26  2  0  0  0
 19 20  1  0  0  0
 19 24  1  0  0  0
 19 40  1  0  0  0
 20 21  1  0  0  0
 20 41  1  0  0  0
 21 22  1  0  0  0
 21 23  2  0  0  0
 22 42  1  0  0  0
 22 43  1  0  0  0
 22 44  1  0  0  0
 24 25  1  0  0  0
 24 45  1  0  0  0
 24 46  1  0  0  0
 25 26  1  0  0  0
 25 47  1  0  0  0
 25 48  1  0  0  0
 26 27  1  0  0  0
 27 28  2  0  0  0
 27 49  1  0  0  0
 28 50  1  0  0  0
 29 30  1  0  0  0
 29 31  1  0  0  0
 29 51  1  0  0  0
 30 31  1  0  0  0
 30 52  1  0  0  0
 30 53  1  0  0  0
 31 54  1  0  0  0
 31 55  1  0  0  0
M  CHG  1   8   1
M  END
> <s_m_source_file>
../3zep_ligand.sdf

> <i_m_source_file_index>
1

> <s_epik_input>
W0NIMl0xW0NIMl1bQ0hdMVtDQEhdKFtDSDNdKVtOSF1DKD1PKWMoW2NIXVtuSF0yKWMoYzIzKW5jKFtjSF1uMylPYyhbY0hdNClbY0hdW2NIXWMoYzQ1KVtDSDJdW0NIMl1bQ0BIXTVbTkhdQyg9TylbQ0gzXQ==

> <s_epik_cmdline>
J2VwaWtfYXBwJywgJy1pbWFlJywgJ2xpZ2FuZF9wcm8ubWFlJywgJy1vbWFlJywgJ2xpZ2FuZF9wcmVwLm1hZScsICctbXMnLCAnMScsICctcGgnLCAnNycsICctcGh0JywgJzAuNScsICctbnQn

> <r_lp_tautomer_probability>
1

> <r_epik_Ionization_Penalty>
  0.0001

> <r_epik_Ionization_Penalty_Charging>
  0.0000

> <r_epik_Ionization_Penalty_Neutral>
  0.0001

> <r_epik_State_Penalty>
 -0.0000

> <r_epik_Charging_Adjusted_Penalty>
0

> <i_epik_Tot_Q>
1

> <i_epik_Tot_abs_Q>
1

$$$$
