3zev_ligand
                    3D
 Schrodinger Suite 2020-3.
138139  0  0  1  0            999 V2000
   -2.3280  -23.5610  -41.1100 N   0  3  0  0  0  0
   -3.4870  -23.1440  -41.8760 C   0  0  0  0  0  0
   -4.7320  -23.9240  -41.5050 C   0  0  0  0  0  0
   -4.6480  -25.0720  -41.0680 O   0  0  0  0  0  0
   -5.8930  -23.3010  -41.6780 N   0  0  0  0  0  0
   -7.1510  -23.9440  -41.3510 C   0  0  0  0  0  0
   -8.3290  -22.9910  -41.3070 C   0  0  0  0  0  0
   -8.3550  -21.9810  -42.0110 O   0  0  0  0  0  0
   -9.3070  -23.3150  -40.4680 N   0  0  0  0  0  0
  -10.5320  -22.5320  -40.3720 C   0  0  2  0  0  0
  -10.3460  -21.2650  -39.5450 C   0  0  0  0  0  0
   -9.5470  -21.2340  -38.6090 O   0  0  0  0  0  0
  -11.6350  -23.3810  -39.7340 C   0  0  0  0  0  0
  -11.8950  -24.7090  -40.4220 C   0  0  0  0  0  0
  -12.8140  -25.5920  -39.5850 C   0  0  0  0  0  0
  -14.0730  -24.9410  -39.2320 N   0  0  0  0  0  0
  -15.0220  -25.5090  -38.4940 C   0  0  0  0  0  0
  -14.8520  -26.7370  -38.0250 N   0  3  0  0  0  0
  -16.1390  -24.8490  -38.2200 N   0  0  0  0  0  0
  -11.0860  -20.2210  -39.9030 N   0  0  0  0  0  0
  -11.1380  -19.0040  -39.1020 C   0  0  2  0  0  0
  -12.5620  -18.7930  -38.6000 C   0  0  0  0  0  0
  -13.5170  -18.9850  -39.3540 O   0  0  0  0  0  0
  -10.6620  -17.7870  -39.9000 C   0  0  0  0  0  0
  -10.9460  -16.4620  -39.2020 C   0  0  0  0  0  0
  -10.3650  -15.2740  -39.9410 C   0  0  0  0  0  0
   -8.9590  -15.0740  -39.6060 N   0  0  0  0  0  0
   -8.2910  -13.9480  -39.8310 C   0  0  0  0  0  0
   -8.9000  -12.9140  -40.3940 N   0  0  0  0  0  0
   -7.0130  -13.8560  -39.4970 N   0  3  0  0  0  0
  -12.7130  -18.4130  -37.3220 N   0  0  0  0  0  0
  -14.0330  -18.0930  -36.7700 C   0  0  2  0  0  0
  -14.7060  -16.9730  -37.5580 C   0  0  0  0  0  0
  -14.0270  -16.0520  -38.0100 O   0  0  0  0  0  0
  -13.7090  -17.6160  -35.3510 C   0  0  0  0  0  0
  -12.4320  -18.3000  -35.0120 C   0  0  0  0  0  0
  -11.6570  -18.3550  -36.2960 C   0  0  0  0  0  0
  -16.0200  -17.0660  -37.7400 N   0  0  0  0  0  0
  -16.7700  -16.0090  -38.4080 C   0  0  2  0  0  0
  -17.5700  -15.2140  -37.3820 C   0  0  0  0  0  0
  -18.1240  -14.1590  -37.6880 O   0  0  0  0  0  0
  -17.6970  -16.5840  -39.4860 C   0  0  0  0  0  0
  -18.6350  -17.6670  -38.9960 C   0  0  0  0  0  0
  -19.8820  -17.3470  -38.4710 C   0  0  0  0  0  0
  -18.2800  -19.0080  -39.0660 C   0  0  0  0  0  0
  -20.7450  -18.3290  -38.0220 C   0  0  0  0  0  0
  -19.1370  -20.0000  -38.6190 C   0  0  0  0  0  0
  -20.3680  -19.6540  -38.0980 C   0  0  0  0  0  0
  -21.2250  -20.6360  -37.6520 O   0  0  0  0  0  0
  -17.6200  -15.7350  -36.1590 N   0  0  0  0  0  0
  -18.3700  -15.1090  -35.0770 C   0  0  2  0  0  0
  -17.4930  -14.1500  -34.2740 C   0  0  0  0  0  0
  -16.3360  -14.4490  -33.9800 O   0  0  0  0  0  0
  -18.9720  -16.1800  -34.1360 C   0  0  2  0  0  0
  -20.0330  -16.9960  -34.8750 C   0  0  0  0  0  0
  -19.5740  -15.5450  -32.8900 C   0  0  0  0  0  0
  -20.5060  -18.2190  -34.1200 C   0  0  0  0  0  0
  -18.0580  -12.9990  -33.9200 N   0  0  0  0  0  0
  -17.3380  -11.9810  -33.1680 C   0  0  2  0  0  0
  -18.0960  -11.6390  -31.8900 C   0  0  0  0  0  0
  -17.5040  -11.2780  -30.8720 O   0  0  0  0  0  0
  -17.1570  -10.7220  -34.0180 C   0  0  0  0  0  0
  -16.3280   -9.5910  -33.4040 C   0  0  0  0  0  0
  -14.9120  -10.0570  -33.1050 C   0  0  0  0  0  0
  -16.3150   -8.3730  -34.3110 C   0  0  0  0  0  0
  -19.3240  -11.7250  -31.8410 O   0  5  0  0  0  0
   -1.4538  -22.9673  -41.4153 H   0  0  0  0  0  0
   -2.1301  -24.6270  -41.2955 H   0  0  0  0  0  0
   -2.5212  -23.4049  -40.0384 H   0  0  0  0  0  0
   -3.6849  -22.0780  -41.6905 H   0  0  0  0  0  0
   -3.2938  -23.3000  -42.9476 H   0  0  0  0  0  0
   -5.8867  -22.2764  -42.0783 H   0  0  0  0  0  0
   -7.3781  -24.7107  -42.1064 H   0  0  0  0  0  0
   -7.0748  -24.4164  -40.3605 H   0  0  0  0  0  0
   -9.1713  -24.2039  -39.8343 H   0  0  0  0  0  0
  -10.7657  -22.2551  -41.4106 H   0  0  0  0  0  0
  -11.3646  -23.6111  -38.6929 H   0  0  0  0  0  0
  -12.5833  -22.8238  -39.7520 H   0  0  0  0  0  0
  -12.3723  -24.5297  -41.3967 H   0  0  0  0  0  0
  -10.9418  -25.2370  -40.5722 H   0  0  0  0  0  0
  -13.0585  -26.5046  -40.1484 H   0  0  0  0  0  0
  -12.3068  -25.8646  -38.6477 H   0  0  0  0  0  0
  -14.2806  -23.9189  -39.5816 H   0  0  0  0  0  0
  -13.9271  -27.2884  -38.2497 H   0  0  0  0  0  0
  -16.2846  -23.8297  -38.6070 H   0  0  0  0  0  0
  -16.9200  -25.3208  -37.6057 H   0  0  0  0  0  0
  -11.6698  -20.2930  -40.8325 H   0  0  0  0  0  0
  -10.4498  -19.1661  -38.2594 H   0  0  0  0  0  0
   -9.5752  -17.8535  -40.0566 H   0  0  0  0  0  0
  -11.1722  -17.7650  -40.8743 H   0  0  0  0  0  0
  -12.0332  -16.3127  -39.1272 H   0  0  0  0  0  0
  -10.5078  -16.4777  -38.1932 H   0  0  0  0  0  0
  -10.4449  -15.4418  -41.0252 H   0  0  0  0  0  0
  -10.9213  -14.3649  -39.6687 H   0  0  0  0  0  0
   -8.3847  -15.8860  -39.1361 H   0  0  0  0  0  0
   -9.9616  -12.9861  -40.6731 H   0  0  0  0  0  0
   -8.3438  -11.9838  -40.5822 H   0  0  0  0  0  0
   -6.5037  -14.7117  -39.0296 H   0  0  0  0  0  0
  -14.6980  -18.9676  -36.8241 H   0  0  0  0  0  0
  -13.6020  -16.5212  -35.3477 H   0  0  0  0  0  0
  -14.5236  -17.9068  -34.6714 H   0  0  0  0  0  0
  -11.8985  -17.7208  -34.2440 H   0  0  0  0  0  0
  -12.6468  -19.3081  -34.6277 H   0  0  0  0  0  0
  -11.0251  -19.2524  -36.3691 H   0  0  0  0  0  0
  -11.0401  -17.4583  -36.4550 H   0  0  0  0  0  0
  -16.5408  -17.9634  -37.3748 H   0  0  0  0  0  0
  -16.0166  -15.3635  -38.8830 H   0  0  0  0  0  0
  -18.3247  -15.7795  -39.8970 H   0  0  0  0  0  0
  -17.0925  -17.0255  -40.2920 H   0  0  0  0  0  0
  -20.1850  -16.3016  -38.4123 H   0  0  0  0  0  0
  -17.3103  -19.2844  -39.4798 H   0  0  0  0  0  0
  -21.7173  -18.0582  -37.6105 H   0  0  0  0  0  0
  -18.8415  -21.0475  -38.6781 H   0  0  0  0  0  0
  -22.2062  -20.3626  -37.2366 H   0  0  0  0  0  0
  -17.0702  -16.6703  -35.9778 H   0  0  0  0  0  0
  -19.1607  -14.5397  -35.5877 H   0  0  0  0  0  0
  -18.1678  -16.8546  -33.8070 H   0  0  0  0  0  0
  -20.9164  -16.3671  -35.0597 H   0  0  0  0  0  0
  -19.6244  -17.3452  -35.8347 H   0  0  0  0  0  0
  -18.8025  -14.9610  -32.3668 H   0  0  0  0  0  0
  -19.9523  -16.3336  -32.2229 H   0  0  0  0  0  0
  -20.4021  -14.8817  -33.1801 H   0  0  0  0  0  0
  -21.2640  -18.7477  -34.7165 H   0  0  0  0  0  0
  -20.9449  -17.9101  -33.1598 H   0  0  0  0  0  0
  -19.6529  -18.8882  -33.9348 H   0  0  0  0  0  0
  -19.1042  -12.8286  -34.2140 H   0  0  0  0  0  0
  -16.3598  -12.4207  -32.9236 H   0  0  0  0  0  0
  -16.6526  -10.9847  -34.9596 H   0  0  0  0  0  0
  -18.1416  -10.2843  -34.2393 H   0  0  0  0  0  0
  -16.7950   -9.2960  -32.4528 H   0  0  0  0  0  0
  -14.9472  -10.9384  -32.4478 H   0  0  0  0  0  0
  -14.3579   -9.2488  -32.6052 H   0  0  0  0  0  0
  -14.4066  -10.3209  -34.0457 H   0  0  0  0  0  0
  -17.3485   -8.0550  -34.5127 H   0  0  0  0  0  0
  -15.8179   -8.6270  -35.2588 H   0  0  0  0  0  0
  -15.7692   -7.5548  -33.8184 H   0  0  0  0  0  0
   -6.4606  -12.9239  -39.6870 H   0  0  0  0  0  0
  -15.6358  -27.2047  -37.4111 H   0  0  0  0  0  0
  1  2  1  0  0  0
  1 67  1  0  0  0
  1 68  1  0  0  0
  1 69  1  0  0  0
  2  3  1  0  0  0
  2 70  1  0  0  0
  2 71  1  0  0  0
  3  4  2  0  0  0
  3  5  1  0  0  0
  5  6  1  0  0  0
  5 72  1  0  0  0
  6  7  1  0  0  0
  6 73  1  0  0  0
  6 74  1  0  0  0
  7  8  2  0  0  0
  7  9  1  0  0  0
  9 10  1  0  0  0
  9 75  1  0  0  0
 10 11  1  0  0  0
 10 13  1  0  0  0
 10 76  1  0  0  0
 11 12  2  0  0  0
 11 20  1  0  0  0
 13 14  1  0  0  0
 13 77  1  0  0  0
 13 78  1  0  0  0
 14 15  1  0  0  0
 14 79  1  0  0  0
 14 80  1  0  0  0
 15 16  1  0  0  0
 15 81  1  0  0  0
 15 82  1  0  0  0
 16 17  1  0  0  0
 16 83  1  0  0  0
 17 18  2  0  0  0
 17 19  1  0  0  0
 18 84  1  0  0  0
 18138  1  0  0  0
 19 85  1  0  0  0
 19 86  1  0  0  0
 20 21  1  0  0  0
 20 87  1  0  0  0
 21 22  1  0  0  0
 21 24  1  0  0  0
 21 88  1  0  0  0
 22 23  2  0  0  0
 22 31  1  0  0  0
 24 25  1  0  0  0
 24 89  1  0  0  0
 24 90  1  0  0  0
 25 26  1  0  0  0
 25 91  1  0  0  0
 25 92  1  0  0  0
 26 27  1  0  0  0
 26 93  1  0  0  0
 26 94  1  0  0  0
 27 28  1  0  0  0
 27 95  1  0  0  0
 28 29  1  0  0  0
 28 30  2  0  0  0
 29 96  1  0  0  0
 29 97  1  0  0  0
 30 98  1  0  0  0
 30137  1  0  0  0
 31 32  1  0  0  0
 31 37  1  0  0  0
 32 33  1  0  0  0
 32 35  1  0  0  0
 32 99  1  0  0  0
 33 34  2  0  0  0
 33 38  1  0  0  0
 35 36  1  0  0  0
 35100  1  0  0  0
 35101  1  0  0  0
 36 37  1  0  0  0
 36102  1  0  0  0
 36103  1  0  0  0
 37104  1  0  0  0
 37105  1  0  0  0
 38 39  1  0  0  0
 38106  1  0  0  0
 39 40  1  0  0  0
 39 42  1  0  0  0
 39107  1  0  0  0
 40 41  2  0  0  0
 40 50  1  0  0  0
 42 43  1  0  0  0
 42108  1  0  0  0
 42109  1  0  0  0
 43 44  2  0  0  0
 43 45  1  0  0  0
 44 46  1  0  0  0
 44110  1  0  0  0
 45 47  2  0  0  0
 45111  1  0  0  0
 46 48  2  0  0  0
 46112  1  0  0  0
 47 48  1  0  0  0
 47113  1  0  0  0
 48 49  1  0  0  0
 49114  1  0  0  0
 50 51  1  0  0  0
 50115  1  0  0  0
 51 52  1  0  0  0
 51 54  1  0  0  0
 51116  1  0  0  0
 52 53  2  0  0  0
 52 58  1  0  0  0
 54 55  1  0  0  0
 54 56  1  0  0  0
 54117  1  0  0  0
 55 57  1  0  0  0
 55118  1  0  0  0
 55119  1  0  0  0
 56120  1  0  0  0
 56121  1  0  0  0
 56122  1  0  0  0
 57123  1  0  0  0
 57124  1  0  0  0
 57125  1  0  0  0
 58 59  1  0  0  0
 58126  1  0  0  0
 59 60  1  0  0  0
 59 62  1  0  0  0
 59127  1  0  0  0
 60 61  2  0  0  0
 60 66  1  0  0  0
 62 63  1  0  0  0
 62128  1  0  0  0
 62129  1  0  0  0
 63 64  1  0  0  0
 63 65  1  0  0  0
 63130  1  0  0  0
 64131  1  0  0  0
 64132  1  0  0  0
 64133  1  0  0  0
 65134  1  0  0  0
 65135  1  0  0  0
 65136  1  0  0  0
M  CHG  4   1   1  18   1  30   1  66  -1
M  END
> <s_m_source_file>
../3zev_ligand.sdf

> <i_m_source_file_index>
1

> <s_epik_input>
W05IMytdW0NIMl1DKD1PKVtOSF1bQ0gyXUMoPU8pW05IXVtDQEBIXShbQ0gyXVtDSDJdW0NIMl1bTkhdL0MoPU5cW0hdKVtOSDJdKUMoPU8pW05IXVtDQEBIXShbQ0gyXVtDSDJdW0NIMl1bTkhdL0MoW05IMl0pPU5cW0hdKUMoPU8pTjFbQ0BASF0oW0NIMl1bQ0gyXVtDSDJdMSlDKD1PKVtOSF1bQ0BASF0oW0NIMl1jMltjSF1bY0hdYyhbT0hdKVtjSF1bY0hdMilDKD1PKVtOSF1bQ0BASF0oW0NAQEhdKFtDSDNdKVtDSDJdW0NIM10pQyg9TylbTkhdW0NASF0oQyg9TylbT0hdKVtDSDJdW0NIXShbQ0gzXSlbQ0gzXQ==

> <s_epik_cmdline>
J2VwaWtfYXBwJywgJy1pbWFlJywgJ2xpZ2FuZF9wcm8ubWFlJywgJy1vbWFlJywgJ2xpZ2FuZF9wcmVwLm1hZScsICctbXMnLCAnMScsICctcGgnLCAnNycsICctcGh0JywgJzAuNScsICctbnQn

> <r_lp_tautomer_probability>
0.999999999997365

> <r_epik_Ionization_Penalty>
  0.1250

> <r_epik_Ionization_Penalty_Charging>
  0.1241

> <r_epik_Ionization_Penalty_Neutral>
  0.0009

> <r_epik_State_Penalty>
  0.1134

> <r_epik_Charging_Adjusted_Penalty>
0.237569360692381

> <i_epik_Tot_Q>
2

> <i_epik_Tot_abs_Q>
4

> <s_epik_Chemistry_Notes>
This compound has an imine and may undergo hydrolysis.

$$$$
