3zh8_ligand
                    3D
 Schrodinger Suite 2020-3.
 56 60  0  0  1  0            999 V2000
   16.2100   16.8050   15.2430 C   0  0  2  0  0  0
   15.0990   15.9500   14.7990 N   0  3  0  0  0  0
   16.7000   18.0790    8.5650 S   0  0  0  0  0  0
   17.5440   16.3000   14.5980 C   0  0  0  0  0  0
   17.4150   16.1500   13.1550 N   0  0  0  0  0  0
   17.3480   17.2150   12.3460 C   0  0  0  0  0  0
   17.4650   18.4400   12.8850 N   0  0  0  0  0  0
   17.3650   19.5220   12.1050 C   0  0  0  0  0  0
   17.1110   19.5200   10.7900 N   0  0  0  0  0  0
   17.0010   18.3010   10.2650 C   0  0  0  0  0  0
   18.2010   23.3140   13.9200 N   0  0  0  0  0  0
   17.1220   17.0870   10.9420 C   0  0  0  0  0  0
   16.9890   15.9540   10.0300 C   0  0  0  0  0  0
   16.7570   16.3500    8.7590 C   0  0  0  0  0  0
   16.5500   15.4510    7.5790 C   0  0  0  0  0  0
   16.9920   14.0390    7.9110 C   0  0  0  0  0  0
   16.5360   13.6280    9.2940 C   0  0  0  0  0  0
   17.1250   14.5050   10.3840 C   0  0  0  0  0  0
   17.6310   20.8380   12.7390 C   0  0  0  0  0  0
   17.5650   22.0190   12.0090 C   0  0  0  0  0  0
   17.8580   23.2140   12.6340 C   0  0  0  0  0  0
   18.2540   22.1770   14.6170 C   0  0  0  0  0  0
   17.9830   20.9350   14.0800 C   0  0  0  0  0  0
   16.3900   16.8010   16.7790 C   0  0  0  0  0  0
   17.4760   17.7560   17.2070 C   0  0  0  0  0  0
   18.8000   17.3540   17.2480 C   0  0  0  0  0  0
   19.7960   18.2320   17.6420 C   0  0  0  0  0  0
   19.4790   19.5220   17.9980 C   0  0  0  0  0  0
   18.1680   19.9360   17.9620 C   0  0  0  0  0  0
   17.1720   19.0590   17.5700 C   0  0  0  0  0  0
   15.9127   17.8114   14.9132 H   0  0  0  0  0  0
   15.0193   15.9923   13.7027 H   0  0  0  0  0  0
   14.1603   16.3055   15.2489 H   0  0  0  0  0  0
   15.2864   14.9127   15.1133 H   0  0  0  0  0  0
   18.3470   17.0233   14.8027 H   0  0  0  0  0  0
   17.8121   15.3233   15.0272 H   0  0  0  0  0  0
   17.3706   15.1458   12.7082 H   0  0  0  0  0  0
   15.4837   15.4399    7.3091 H   0  0  0  0  0  0
   17.1398   15.8216    6.7277 H   0  0  0  0  0  0
   16.5623   13.3388    7.1796 H   0  0  0  0  0  0
   18.0898   13.9801    7.8738 H   0  0  0  0  0  0
   15.4401   13.7010    9.3555 H   0  0  0  0  0  0
   16.8459   12.5908    9.4891 H   0  0  0  0  0  0
   18.1895   14.2553   10.5043 H   0  0  0  0  0  0
   16.5930   14.3062   11.3261 H   0  0  0  0  0  0
   17.2852   22.0015   10.9557 H   0  0  0  0  0  0
   17.8063   24.1287   12.0435 H   0  0  0  0  0  0
   18.5270   22.2326   15.6708 H   0  0  0  0  0  0
   18.0443   20.0407   14.7002 H   0  0  0  0  0  0
   15.4482   17.1048   17.2593 H   0  0  0  0  0  0
   16.6625   15.7892   17.1136 H   0  0  0  0  0  0
   19.0619   16.3340   16.9668 H   0  0  0  0  0  0
   20.8337   17.8997   17.6700 H   0  0  0  0  0  0
   20.2631   20.2131   18.3072 H   0  0  0  0  0  0
   17.9128   20.9578   18.2430 H   0  0  0  0  0  0
   16.1359   19.3967   17.5463 H   0  0  0  0  0  0
  1  2  1  0  0  0
  1  4  1  0  0  0
  1 24  1  0  0  0
  1 31  1  0  0  0
  2 32  1  0  0  0
  2 33  1  0  0  0
  2 34  1  0  0  0
  3 10  1  0  0  0
  3 14  1  0  0  0
  4  5  1  0  0  0
  4 35  1  0  0  0
  4 36  1  0  0  0
  5  6  1  0  0  0
  5 37  1  0  0  0
  6  7  1  0  0  0
  6 12  2  0  0  0
  7  8  2  0  0  0
  8  9  1  0  0  0
  8 19  1  0  0  0
  9 10  2  0  0  0
 10 12  1  0  0  0
 11 21  2  0  0  0
 11 22  1  0  0  0
 12 13  1  0  0  0
 13 14  2  0  0  0
 13 18  1  0  0  0
 14 15  1  0  0  0
 15 16  1  0  0  0
 15 38  1  0  0  0
 15 39  1  0  0  0
 16 17  1  0  0  0
 16 40  1  0  0  0
 16 41  1  0  0  0
 17 18  1  0  0  0
 17 42  1  0  0  0
 17 43  1  0  0  0
 18 44  1  0  0  0
 18 45  1  0  0  0
 19 20  2  0  0  0
 19 23  1  0  0  0
 20 21  1  0  0  0
 20 46  1  0  0  0
 21 47  1  0  0  0
 22 23  2  0  0  0
 22 48  1  0  0  0
 23 49  1  0  0  0
 24 25  1  0  0  0
 24 50  1  0  0  0
 24 51  1  0  0  0
 25 26  2  0  0  0
 25 30  1  0  0  0
 26 27  1  0  0  0
 26 52  1  0  0  0
 27 28  2  0  0  0
 27 53  1  0  0  0
 28 29  1  0  0  0
 28 54  1  0  0  0
 29 30  2  0  0  0
 29 55  1  0  0  0
 30 56  1  0  0  0
M  CHG  1   2   1
M  END
> <s_m_source_file>
../3zh8_ligand.sdf

> <i_m_source_file_index>
1

> <s_epik_input>
W2NIXTFbY0hdW2NIXVtjSF1bY0hdYzFbQ0gyXVtDQEhdKFtOSDMrXSlbQ0gyXVtOSF1jKGMoYzIzKWM0YyhzMilbQ0gyXVtDSDJdW0NIMl1bQ0gyXTQpbmMobjMpLWM1W2NIXVtjSF1uW2NIXVtjSF01

> <s_epik_cmdline>
J2VwaWtfYXBwJywgJy1pbWFlJywgJ2xpZ2FuZF9wcm8ubWFlJywgJy1vbWFlJywgJ2xpZ2FuZF9wcmVwLm1hZScsICctbXMnLCAnMScsICctcGgnLCAnNycsICctcGh0JywgJzAuNScsICctbnQn

> <r_lp_tautomer_probability>
1

> <r_epik_Ionization_Penalty>
  0.0018

> <r_epik_Ionization_Penalty_Charging>
  0.0011

> <r_epik_Ionization_Penalty_Neutral>
  0.0007

> <r_epik_State_Penalty>
 -0.0000

> <r_epik_Charging_Adjusted_Penalty>
0.00106177250960439

> <i_epik_Tot_Q>
1

> <i_epik_Tot_abs_Q>
1

$$$$
