3zha_ligand
                    3D
 Schrodinger Suite 2020-3.
220229  0  0  1  0            999 V2000
  -13.6910 -117.7660 -186.1860 C   0  0  0  0  0  0
  -13.2050 -116.9680 -185.3750 O   0  0  0  0  0  0
  -12.9550 -119.0310 -186.4910 C   0  0  0  0  0  0
  -14.8580 -117.5720 -186.8220 N   0  0  0  0  0  0
  -15.6730 -116.3610 -186.6120 C   0  0  2  0  0  0
  -16.2450 -116.2320 -185.2040 C   0  0  0  0  0  0
  -16.5180 -117.2430 -184.5570 O   0  0  0  0  0  0
  -16.7870 -116.4870 -187.6520 C   0  0  0  0  0  0
  -16.8890 -117.9370 -187.9270 C   0  0  0  0  0  0
  -15.4800 -118.4460 -187.8360 C   0  0  0  0  0  0
  -16.4520 -114.9980 -184.7050 N   0  0  0  0  0  0
  -16.9940 -114.8540 -183.3490 C   0  0  2  0  0  0
  -18.4230 -115.3470 -183.2490 C   0  0  0  0  0  0
  -19.1220 -115.4990 -184.2600 O   0  0  0  0  0  0
  -16.9020 -113.3400 -183.0830 C   0  0  0  0  0  0
  -15.9600 -112.7970 -184.1360 C   0  0  0  0  0  0
  -16.1980 -113.6780 -185.3180 C   0  0  0  0  0  0
  -18.8410 -115.5780 -182.0130 N   0  0  0  0  0  0
  -20.1900 -115.9870 -181.6820 C   0  0  0  0  0  0
  -21.2160 -114.9120 -181.9690 C   0  0  0  0  0  0
  -20.8610 -113.7620 -182.2500 O   0  0  0  0  0  0
  -22.5160 -115.2700 -181.9500 N   0  0  0  0  0  0
  -23.5420 -114.2720 -182.2710 C   0  0  2  0  0  0
  -23.6610 -113.2030 -181.1860 C   0  0  0  0  0  0
  -23.3010 -113.4900 -180.0390 O   0  0  0  0  0  0
  -24.8240 -115.1170 -182.3400 C   0  0  0  0  0  0
  -24.5700 -116.2590 -181.3990 C   0  0  0  0  0  0
  -23.1180 -116.5790 -181.6140 C   0  0  0  0  0  0
  -24.2300 -111.9970 -181.4780 N   0  0  0  0  0  0
  -24.5330 -111.0520 -180.3840 C   0  0  2  0  0  0
  -25.5200 -111.7150 -179.4330 C   0  0  0  0  0  0
  -26.3510 -112.5410 -179.8580 O   0  0  0  0  0  0
  -25.2180 -109.8890 -181.1000 C   0  0  0  0  0  0
  -24.8170 -110.0260 -182.5440 C   0  0  0  0  0  0
  -24.7430 -111.4880 -182.7660 C   0  0  0  0  0  0
  -25.3900 -111.3910 -178.1580 N   0  0  0  0  0  0
  -26.2200 -111.9590 -177.1190 C   0  0  0  0  0  0
  -27.6820 -111.5680 -177.2210 C   0  0  0  0  0  0
  -28.0900 -110.7780 -178.0980 O   0  0  0  0  0  0
  -28.4910 -112.1200 -176.2840 N   0  0  0  0  0  0
  -29.9020 -111.7810 -176.2310 C   0  0  2  0  0  0
  -30.1480 -110.3100 -175.9490 C   0  0  0  0  0  0
  -29.3200 -109.6560 -175.3100 O   0  0  0  0  0  0
  -30.3890 -112.6100 -175.0370 C   0  0  0  0  0  0
  -29.4360 -113.7140 -174.9160 C   0  0  0  0  0  0
  -28.1450 -113.0510 -175.1940 C   0  0  0  0  0  0
  -31.3150 -109.8010 -176.3970 N   0  0  0  0  0  0
  -31.7740 -108.4420 -176.0980 C   0  0  2  0  0  0
  -31.7730 -108.2820 -174.5540 C   0  0  0  0  0  0
  -32.0530 -109.2390 -173.8370 O   0  0  0  0  0  0
  -33.1980 -108.2390 -176.6490 C   0  0  2  0  0  0
  -33.1800 -108.4470 -178.0550 O   0  0  0  0  0  0
  -33.7740 -106.8520 -176.3240 C   0  0  0  0  0  0
  -31.4340 -107.0990 -174.0620 N   0  0  0  0  0  0
  -31.4710 -106.8530 -172.6350 C   0  0  0  0  0  0
  -32.8740 -106.9460 -172.0480 C   0  0  0  0  0  0
  -33.8720 -107.0020 -172.7890 O   0  0  0  0  0  0
  -33.0190 -106.9890 -170.7130 N   0  0  0  0  0  0
  -34.3890 -107.0100 -170.1560 C   0  0  2  0  0  0
  -35.0910 -105.6520 -170.3560 C   0  0  0  0  0  0
  -34.4130 -104.6230 -170.4740 O   0  0  0  0  0  0
  -34.1630 -107.2970 -168.6650 C   0  0  0  0  0  0
  -32.7790 -106.7780 -168.3870 C   0  0  0  0  0  0
  -31.9860 -106.9240 -169.6570 C   0  0  0  0  0  0
  -36.4380 -105.6540 -170.4230 N   0  0  0  0  0  0
  -37.2440 -104.4310 -170.5370 C   0  0  2  0  0  0
  -36.9440 -103.4970 -169.3330 C   0  0  0  0  0  0
  -36.7160 -103.9680 -168.2180 O   0  0  0  0  0  0
  -38.7390 -104.7790 -170.5920 C   0  0  0  0  0  0
  -39.6110 -103.5550 -170.8060 C   0  0  0  0  0  0
  -41.0590 -103.9060 -170.9700 C   0  0  0  0  0  0
  -41.3480 -104.5860 -172.2340 N   0  0  0  0  0  0
  -41.6140 -103.9590 -173.3720 C   0  0  0  0  0  0
  -41.5490 -102.6350 -173.4370 N   0  0  0  0  0  0
  -41.9510 -104.6500 -174.4560 N   0  0  0  0  0  0
  -36.9550 -102.2020 -169.5740 N   0  0  0  0  0  0
  -36.6520 -101.2370 -168.5310 C   0  0  0  0  0  0
  -37.6390 -101.2360 -167.3830 C   0  0  0  0  0  0
  -38.7150 -101.8440 -167.4780 O   0  0  0  0  0  0
  -37.3080 -100.5130 -166.2830 N   0  0  0  0  0  0
  -38.2650 -100.3910 -165.1740 C   0  0  2  0  0  0
  -39.4650  -99.4890 -165.5450 C   0  0  0  0  0  0
  -39.3730  -98.7020 -166.4960 O   0  0  0  0  0  0
  -37.4150  -99.7770 -164.0650 C   0  0  0  0  0  0
  -36.4200  -98.9720 -164.7820 C   0  0  0  0  0  0
  -36.0830  -99.7300 -166.0170 C   0  0  0  0  0  0
  -40.5950  -99.5730 -164.8150 N   0  0  0  0  0  0
  -41.7280  -98.7040 -165.1390 C   0  0  2  0  0  0
  -41.4520  -97.2370 -164.8570 C   0  0  0  0  0  0
  -40.5920  -96.8980 -164.0460 O   0  0  0  0  0  0
  -42.8650  -99.2280 -164.2450 C   0  0  0  0  0  0
  -42.3880 -100.4530 -163.6220 C   0  0  0  0  0  0
  -40.8990 -100.4200 -163.6470 C   0  0  0  0  0  0
  -42.2100  -96.3780 -165.5170 N   0  0  0  0  0  0
  -42.1050  -94.9460 -165.2990 C   0  0  0  0  0  0
  -42.7460  -94.5200 -163.9910 C   0  0  0  0  0  0
  -43.3980  -95.3230 -163.3060 O   0  0  0  0  0  0
  -42.5860  -93.2390 -163.6200 N   0  0  0  0  0  0
  -43.2080  -92.7530 -162.3710 C   0  0  2  0  0  0
  -44.7480  -92.6330 -162.4340 C   0  0  0  0  0  0
  -45.2970  -92.5440 -163.5390 O   0  0  0  0  0  0
  -42.5420  -91.3960 -162.1600 C   0  0  0  0  0  0
  -42.1660  -90.9420 -163.5200 C   0  0  0  0  0  0
  -41.8360  -92.1730 -164.3090 C   0  0  0  0  0  0
  -45.4750  -92.6380 -161.2790 N   0  0  0  0  0  0
  -46.9490  -92.5670 -161.3330 C   0  0  2  0  0  0
  -47.4870  -91.2530 -161.8660 C   0  0  0  0  0  0
  -48.2424  -91.2839 -162.8739 O   0  0  0  0  0  0
  -47.3800  -92.7910 -159.8800 C   0  0  0  0  0  0
  -46.1960  -93.3650 -159.1990 C   0  0  0  0  0  0
  -45.0120  -92.7670 -159.8830 C   0  0  0  0  0  0
  -47.1867  -90.1600 -161.3157 O   0  0  0  0  0  0
  -12.0232 -119.0629 -185.9072 H   0  0  0  0  0  0
  -12.7167 -119.0669 -187.5643 H   0  0  0  0  0  0
  -13.5836 -119.8939 -186.2259 H   0  0  0  0  0  0
  -15.0333 -115.4737 -186.7281 H   0  0  0  0  0  0
  -17.7231 -116.0849 -187.2372 H   0  0  0  0  0  0
  -16.5124 -115.9203 -188.5539 H   0  0  0  0  0  0
  -17.5412 -118.4075 -187.1765 H   0  0  0  0  0  0
  -17.3136 -118.0910 -188.9300 H   0  0  0  0  0  0
  -14.9381 -118.3463 -188.7881 H   0  0  0  0  0  0
  -15.4352 -119.4913 -187.4963 H   0  0  0  0  0  0
  -16.4273 -115.4792 -182.6433 H   0  0  0  0  0  0
  -17.9023 -112.8909 -183.1707 H   0  0  0  0  0  0
  -16.5108 -113.1689 -182.0692 H   0  0  0  0  0  0
  -16.2094 -111.7461 -184.3442 H   0  0  0  0  0  0
  -14.9245 -112.8627 -183.7706 H   0  0  0  0  0  0
  -15.3213 -113.7434 -185.9792 H   0  0  0  0  0  0
  -17.0769 -113.3705 -185.9037 H   0  0  0  0  0  0
  -18.0960 -115.4423 -181.2151 H   0  0  0  0  0  0
  -20.4594 -116.8748 -182.2730 H   0  0  0  0  0  0
  -20.2474 -116.2286 -180.6104 H   0  0  0  0  0  0
  -23.2825 -113.7364 -183.1961 H   0  0  0  0  0  0
  -25.6828 -114.5069 -182.0234 H   0  0  0  0  0  0
  -24.9804 -115.4624 -183.3726 H   0  0  0  0  0  0
  -24.7784 -115.9377 -180.3678 H   0  0  0  0  0  0
  -25.2264 -117.1022 -181.6601 H   0  0  0  0  0  0
  -22.9646 -117.2783 -182.4491 H   0  0  0  0  0  0
  -22.6410 -116.9801 -180.7076 H   0  0  0  0  0  0
  -23.6347 -110.7600 -179.8203 H   0  0  0  0  0  0
  -26.3076 -109.9708 -180.9728 H   0  0  0  0  0  0
  -24.8692 -108.9379 -180.6714 H   0  0  0  0  0  0
  -25.5764 -109.5504 -183.1821 H   0  0  0  0  0  0
  -23.8453 -109.5356 -182.7028 H   0  0  0  0  0  0
  -24.0439 -111.7575 -183.5714 H   0  0  0  0  0  0
  -25.7275 -111.9340 -182.9706 H   0  0  0  0  0  0
  -24.6119 -110.6572 -177.9008 H   0  0  0  0  0  0
  -26.1714 -113.0567 -177.1700 H   0  0  0  0  0  0
  -25.8596 -111.6213 -176.1361 H   0  0  0  0  0  0
  -30.3666 -111.9886 -177.2062 H   0  0  0  0  0  0
  -30.3954 -111.9828 -174.1334 H   0  0  0  0  0  0
  -31.4068 -112.9767 -175.2360 H   0  0  0  0  0  0
  -29.4904 -114.1358 -173.9015 H   0  0  0  0  0  0
  -29.6832 -114.4940 -175.6511 H   0  0  0  0  0  0
  -27.3719 -113.7518 -175.5420 H   0  0  0  0  0  0
  -27.7636 -112.4822 -174.3332 H   0  0  0  0  0  0
  -31.9332 -110.4662 -177.0177 H   0  0  0  0  0  0
  -31.0899 -107.7352 -176.5905 H   0  0  0  0  0  0
  -33.8744 -109.0013 -176.2350 H   0  0  0  0  0  0
  -32.7969 -109.3926 -178.4662 H   0  0  0  0  0  0
  -33.7820 -106.7046 -175.2340 H   0  0  0  0  0  0
  -34.8012 -106.7817 -176.7111 H   0  0  0  0  0  0
  -33.1510 -106.0769 -176.7943 H   0  0  0  0  0  0
  -31.1221 -106.2994 -174.7500 H   0  0  0  0  0  0
  -30.8442 -107.5950 -172.1187 H   0  0  0  0  0  0
  -31.0894 -105.8425 -172.4271 H   0  0  0  0  0  0
  -35.0072 -107.7651 -170.6636 H   0  0  0  0  0  0
  -34.9251 -106.7715 -168.0708 H   0  0  0  0  0  0
  -34.2392 -108.3794 -168.4843 H   0  0  0  0  0  0
  -32.8371 -105.7215 -168.0863 H   0  0  0  0  0  0
  -32.3231 -107.3654 -167.5764 H   0  0  0  0  0  0
  -31.3890 -107.8478 -169.6707 H   0  0  0  0  0  0
  -31.3294 -106.0604 -169.8390 H   0  0  0  0  0  0
  -36.9313 -106.6366 -170.3883 H   0  0  0  0  0  0
  -36.9523 -103.9534 -171.4840 H   0  0  0  0  0  0
  -38.9228 -105.4762 -171.4227 H   0  0  0  0  0  0
  -39.0410 -105.2496 -169.6447 H   0  0  0  0  0  0
  -39.5204 -102.8842 -169.9389 H   0  0  0  0  0  0
  -39.2849 -103.0266 -171.7140 H   0  0  0  0  0  0
  -41.3686 -104.5757 -170.1541 H   0  0  0  0  0  0
  -41.6644 -102.9881 -170.9406 H   0  0  0  0  0  0
  -41.3532 -105.6851 -172.2786 H   0  0  0  0  0  0
  -41.2710 -102.0536 -172.5456 H   0  0  0  0  0  0
  -42.0078 -105.7477 -174.4129 H   0  0  0  0  0  0
  -42.1731 -104.1243 -175.3964 H   0  0  0  0  0  0
  -37.1999 -101.8561 -170.5891 H   0  0  0  0  0  0
  -35.6615 -101.4558 -168.1056 H   0  0  0  0  0  0
  -36.6518 -100.2233 -168.9581 H   0  0  0  0  0  0
  -38.6916 -101.3708 -164.9132 H   0  0  0  0  0  0
  -38.0522  -99.1621 -163.4124 H   0  0  0  0  0  0
  -36.9497 -100.5789 -163.4730 H   0  0  0  0  0  0
  -36.8503  -97.9896 -165.0263 H   0  0  0  0  0  0
  -35.5321  -98.8358 -164.1471 H   0  0  0  0  0  0
  -35.2347 -100.4148 -165.8706 H   0  0  0  0  0  0
  -35.8774  -99.0691 -166.8719 H   0  0  0  0  0  0
  -41.9240  -98.7573 -166.2201 H   0  0  0  0  0  0
  -43.1087  -98.4740 -163.4821 H   0  0  0  0  0  0
  -43.7542  -99.4267 -164.8613 H   0  0  0  0  0  0
  -42.7533 -100.5036 -162.5857 H   0  0  0  0  0  0
  -42.7620 -101.3206 -164.1853 H   0  0  0  0  0  0
  -40.4599 -101.4179 -163.7935 H   0  0  0  0  0  0
  -40.4745  -99.9620 -162.7415 H   0  0  0  0  0  0
  -42.9335  -96.7718 -166.2460 H   0  0  0  0  0  0
  -41.0442  -94.6561 -165.2714 H   0  0  0  0  0  0
  -42.6097  -94.4124 -166.1179 H   0  0  0  0  0  0
  -43.0235  -93.4785 -161.5650 H   0  0  0  0  0  0
  -43.2554  -90.7076 -161.6835 H   0  0  0  0  0  0
  -41.6608  -91.5167 -161.5127 H   0  0  0  0  0  0
  -43.0105  -90.4017 -163.9727 H   0  0  0  0  0  0
  -41.2950  -90.2732 -163.4556 H   0  0  0  0  0  0
  -40.7615  -92.4075 -164.2868 H   0  0  0  0  0  0
  -42.1744  -92.1027 -165.3533 H   0  0  0  0  0  0
  -47.3200  -93.3156 -162.0485 H   0  0  0  0  0  0
  -47.6739  -91.8301 -159.4325 H   0  0  0  0  0  0
  -48.2337  -93.4842 -159.8535 H   0  0  0  0  0  0
  -46.2209  -93.0972 -158.1324 H   0  0  0  0  0  0
  -46.2085  -94.4600 -159.3025 H   0  0  0  0  0  0
  -44.1268  -93.4192 -159.8491 H   0  0  0  0  0  0
  -44.7506  -91.7734 -159.4901 H   0  0  0  0  0  0
  -47.5853  -89.2156 -161.7146 H   0  0  0  0  0  0
  1  2  2  0  0  0
  1  3  1  0  0  0
  1  4  1  0  0  0
  3113  1  0  0  0
  3114  1  0  0  0
  3115  1  0  0  0
  4  5  1  0  0  0
  4 10  1  0  0  0
  5  6  1  0  0  0
  5  8  1  0  0  0
  5116  1  0  0  0
  6  7  2  0  0  0
  6 11  1  0  0  0
  8  9  1  0  0  0
  8117  1  0  0  0
  8118  1  0  0  0
  9 10  1  0  0  0
  9119  1  0  0  0
  9120  1  0  0  0
 10121  1  0  0  0
 10122  1  0  0  0
 11 12  1  0  0  0
 11 17  1  0  0  0
 12 13  1  0  0  0
 12 15  1  0  0  0
 12123  1  0  0  0
 13 14  2  0  0  0
 13 18  1  0  0  0
 15 16  1  0  0  0
 15124  1  0  0  0
 15125  1  0  0  0
 16 17  1  0  0  0
 16126  1  0  0  0
 16127  1  0  0  0
 17128  1  0  0  0
 17129  1  0  0  0
 18 19  1  0  0  0
 18130  1  0  0  0
 19 20  1  0  0  0
 19131  1  0  0  0
 19132  1  0  0  0
 20 21  2  0  0  0
 20 22  1  0  0  0
 22 23  1  0  0  0
 22 28  1  0  0  0
 23 24  1  0  0  0
 23 26  1  0  0  0
 23133  1  0  0  0
 24 25  2  0  0  0
 24 29  1  0  0  0
 26 27  1  0  0  0
 26134  1  0  0  0
 26135  1  0  0  0
 27 28  1  0  0  0
 27136  1  0  0  0
 27137  1  0  0  0
 28138  1  0  0  0
 28139  1  0  0  0
 29 30  1  0  0  0
 29 35  1  0  0  0
 30 31  1  0  0  0
 30 33  1  0  0  0
 30140  1  0  0  0
 31 32  2  0  0  0
 31 36  1  0  0  0
 33 34  1  0  0  0
 33141  1  0  0  0
 33142  1  0  0  0
 34 35  1  0  0  0
 34143  1  0  0  0
 34144  1  0  0  0
 35145  1  0  0  0
 35146  1  0  0  0
 36 37  1  0  0  0
 36147  1  0  0  0
 37 38  1  0  0  0
 37148  1  0  0  0
 37149  1  0  0  0
 38 39  2  0  0  0
 38 40  1  0  0  0
 40 41  1  0  0  0
 40 46  1  0  0  0
 41 42  1  0  0  0
 41 44  1  0  0  0
 41150  1  0  0  0
 42 43  2  0  0  0
 42 47  1  0  0  0
 44 45  1  0  0  0
 44151  1  0  0  0
 44152  1  0  0  0
 45 46  1  0  0  0
 45153  1  0  0  0
 45154  1  0  0  0
 46155  1  0  0  0
 46156  1  0  0  0
 47 48  1  0  0  0
 47157  1  0  0  0
 48 49  1  0  0  0
 48 51  1  0  0  0
 48158  1  0  0  0
 49 50  2  0  0  0
 49 54  1  0  0  0
 51 52  1  0  0  0
 51 53  1  0  0  0
 51159  1  0  0  0
 52160  1  0  0  0
 53161  1  0  0  0
 53162  1  0  0  0
 53163  1  0  0  0
 54 55  1  0  0  0
 54164  1  0  0  0
 55 56  1  0  0  0
 55165  1  0  0  0
 55166  1  0  0  0
 56 57  2  0  0  0
 56 58  1  0  0  0
 58 59  1  0  0  0
 58 64  1  0  0  0
 59 60  1  0  0  0
 59 62  1  0  0  0
 59167  1  0  0  0
 60 61  2  0  0  0
 60 65  1  0  0  0
 62 63  1  0  0  0
 62168  1  0  0  0
 62169  1  0  0  0
 63 64  1  0  0  0
 63170  1  0  0  0
 63171  1  0  0  0
 64172  1  0  0  0
 64173  1  0  0  0
 65 66  1  0  0  0
 65174  1  0  0  0
 66 67  1  0  0  0
 66 69  1  0  0  0
 66175  1  0  0  0
 67 68  2  0  0  0
 67 76  1  0  0  0
 69 70  1  0  0  0
 69176  1  0  0  0
 69177  1  0  0  0
 70 71  1  0  0  0
 70178  1  0  0  0
 70179  1  0  0  0
 71 72  1  0  0  0
 71180  1  0  0  0
 71181  1  0  0  0
 72 73  1  0  0  0
 72182  1  0  0  0
 73 74  2  0  0  0
 73 75  1  0  0  0
 74183  1  0  0  0
 75184  1  0  0  0
 75185  1  0  0  0
 76 77  1  0  0  0
 76186  1  0  0  0
 77 78  1  0  0  0
 77187  1  0  0  0
 77188  1  0  0  0
 78 79  2  0  0  0
 78 80  1  0  0  0
 80 81  1  0  0  0
 80 86  1  0  0  0
 81 82  1  0  0  0
 81 84  1  0  0  0
 81189  1  0  0  0
 82 83  2  0  0  0
 82 87  1  0  0  0
 84 85  1  0  0  0
 84190  1  0  0  0
 84191  1  0  0  0
 85 86  1  0  0  0
 85192  1  0  0  0
 85193  1  0  0  0
 86194  1  0  0  0
 86195  1  0  0  0
 87 88  1  0  0  0
 87 93  1  0  0  0
 88 89  1  0  0  0
 88 91  1  0  0  0
 88196  1  0  0  0
 89 90  2  0  0  0
 89 94  1  0  0  0
 91 92  1  0  0  0
 91197  1  0  0  0
 91198  1  0  0  0
 92 93  1  0  0  0
 92199  1  0  0  0
 92200  1  0  0  0
 93201  1  0  0  0
 93202  1  0  0  0
 94 95  1  0  0  0
 94203  1  0  0  0
 95 96  1  0  0  0
 95204  1  0  0  0
 95205  1  0  0  0
 96 97  2  0  0  0
 96 98  1  0  0  0
 98 99  1  0  0  0
 98104  1  0  0  0
 99100  1  0  0  0
 99102  1  0  0  0
 99206  1  0  0  0
100101  2  0  0  0
100105  1  0  0  0
102103  1  0  0  0
102207  1  0  0  0
102208  1  0  0  0
103104  1  0  0  0
103209  1  0  0  0
103210  1  0  0  0
104211  1  0  0  0
104212  1  0  0  0
105106  1  0  0  0
105111  1  0  0  0
106107  1  0  0  0
106109  1  0  0  0
106213  1  0  0  0
107108  2  0  0  0
107112  1  0  0  0
109110  1  0  0  0
109214  1  0  0  0
109215  1  0  0  0
110111  1  0  0  0
110216  1  0  0  0
110217  1  0  0  0
111218  1  0  0  0
111219  1  0  0  0
112220  1  0  0  0
M  END
> <s_m_source_file>
../3zha_ligand.sdf

> <i_m_source_file_index>
1

> <s_epik_input>
Tz1DKFtDSDNdKU4xW0NAQEhdKFtDSDJdW0NIMl1bQ0gyXTEpQyg9TylOMltDQEBIXShbQ0gyXVtDSDJdW0NIMl0yKUMoPU8pW05IXVtDSDJdQyg9TylOM1tDQEBIXShbQ0gyXVtDSDJdW0NIMl0zKUMoPU8pTjRbQ0BASF0oW0NIMl1bQ0gyXVtDSDJdNClDKD1PKVtOSF1bQ0gyXUMoPU8pTjVbQ0BASF0oW0NIMl1bQ0gyXVtDSDJdNSlDKD1PKVtOSF1bQ0BASF0oW0NASF0oW09IXSlbQ0gzXSlDKD1PKVtOSF1bQ0gyXUMoPU8pTjZbQ0BASF0oW0NIMl1bQ0gyXVtDSDJdNilDKD1PKVtOSF1bQ0BASF0oW0NIMl1bQ0gyXVtDSDJdW05IXS9DKD1OXFtIXSlbTkgyXSlDKD1PKVtOSF1bQ0gyXUMoPU8pTjdbQ0BASF0oW0NIMl1bQ0gyXVtDSDJdNylDKD1PKU44W0NAQEhdKFtDSDJdW0NIMl1bQ0gyXTgpQyg9TylbTkhdW0NIMl1DKD1PKU45W0NAQEhdKFtDSDJdW0NIMl1bQ0gyXTkpQyg9TylOMVtDQEhdKEMoPU8pW09IXSlbQ0gyXVtDSDJdW0NIMl0x

> <s_epik_cmdline>
J2VwaWtfYXBwJywgJy1pbWFlJywgJ2xpZ2FuZF9wcm8ubWFlJywgJy1vbWFlJywgJ2xpZ2FuZF9wcmVwLm1hZScsICctbXMnLCAnMScsICctcGgnLCAnNycsICctcGh0JywgJzAuNScsICctbnQn

> <s_epik_pKa_notes>
Molecule size exceeds maximum supported for generating protonation states

> <s_epik_Chemistry_Notes>
This compound has an imine and may undergo hydrolysis.

$$$$
