3zhf_ligand
                    3D
 Schrodinger Suite 2020-3.
101104  0  0  1  0            999 V2000
   35.8040   46.5610   37.0700 N   0  3  0  0  0  0
   34.7910   47.6170   37.0420 C   0  0  2  0  0  0
   33.7440   47.4060   38.1340 C   0  0  0  0  0  0
   33.0960   46.3610   38.1530 O   0  0  0  0  0  0
   34.1670   47.4440   35.6560 C   0  0  0  0  0  0
   35.2630   46.8130   34.8050 C   0  0  0  0  0  0
   36.3570   46.3120   35.7290 C   0  0  0  0  0  0
   33.5890   48.3910   39.0190 N   0  0  0  0  0  0
   32.7230   48.2910   40.2020 C   0  0  2  0  0  0
   31.2990   47.7890   39.9070 C   0  0  0  0  0  0
   30.8290   47.8610   38.7750 O   0  0  0  0  0  0
   32.6720   49.6390   40.9270 C   0  0  0  0  0  0
   34.0520   50.2210   41.1730 C   0  0  0  0  0  0
   34.9190   49.5000   41.7160 O   0  5  0  0  0  0
   34.2720   51.3950   40.8050 O   0  0  0  0  0  0
   30.6260   47.2720   40.9340 N   0  0  0  0  0  0
   29.3230   46.6270   40.7710 C   0  0  2  0  0  0
   28.3250   47.2680   41.7350 C   0  0  0  0  0  0
   28.6750   48.2290   42.4230 O   0  0  0  0  0  0
   29.4040   45.1190   41.0710 C   0  0  0  0  0  0
   30.6780   44.3740   40.6510 C   0  0  0  0  0  0
   31.9630   44.8500   40.6510 C   0  0  0  0  0  0
   30.7690   43.0130   40.2010 C   0  0  0  0  0  0
   32.8320   43.8850   40.2190 N   0  3  0  0  0  0
   32.1250   42.7450   39.9390 C   0  0  0  0  0  0
   29.8320   41.9990   39.9860 C   0  0  0  0  0  0
   32.5670   41.5000   39.4810 C   0  0  0  0  0  0
   30.2770   40.7640   39.5280 C   0  0  0  0  0  0
   31.6230   40.5250   39.2900 C   0  0  0  0  0  0
   27.0980   46.7410   41.7870 N   0  0  0  0  0  0
   26.1150   47.1640   42.7960 C   0  0  2  0  0  0
   24.8830   46.2520   42.9290 C   0  0  0  0  0  0
   24.3100   45.7950   41.9340 O   0  0  0  0  0  0
   25.6860   48.6290   42.6040 C   0  0  0  0  0  0
   24.6870   48.8130   41.4760 C   0  0  0  0  0  0
   24.7700   48.0790   40.4670 O   0  0  0  0  0  0
   23.8190   49.7070   41.6010 O   0  5  0  0  0  0
   24.4970   45.9900   44.1770 N   0  0  0  0  0  0
   23.3020   45.2080   44.4990 C   0  0  2  0  0  0
   22.1400   46.1600   44.7630 C   0  0  0  0  0  0
   22.1900   46.9380   45.7160 O   0  0  0  0  0  0
   23.5470   44.3390   45.7440 C   0  0  0  0  0  0
   24.2150   43.0270   45.4490 C   0  0  0  0  0  0
   23.8430   42.2770   44.3510 C   0  0  0  0  0  0
   25.2190   42.5480   46.2700 C   0  0  0  0  0  0
   24.4550   41.0680   44.0830 C   0  0  0  0  0  0
   25.8430   41.3430   46.0030 C   0  0  0  0  0  0
   25.4580   40.6010   44.9080 C   0  0  0  0  0  0
   21.0980   46.1250   43.9380 N   0  0  0  0  0  0
   19.9990   47.0710   44.1330 C   0  0  2  0  0  0
   18.7480   46.5110   44.7850 C   0  0  0  0  0  0
   18.7920   45.4980   45.4710 O   0  0  0  0  0  0
   19.6540   47.7960   42.8210 C   0  0  0  0  0  0
   19.3670   46.8390   41.6640 C   0  0  0  0  0  0
   20.2160   46.0220   41.2950 O   0  0  0  0  0  0
   18.1660   46.9430   41.0840 N   0  0  0  0  0  0
   17.6370   47.2090   44.6040 N   0  0  0  0  0  0
   36.6263   46.8594   37.7369 H   0  0  0  0  0  0
   35.3519   45.6289   37.4398 H   0  0  0  0  0  0
   35.2419   48.6037   37.2243 H   0  0  0  0  0  0
   33.2845   46.7915   35.7301 H   0  0  0  0  0  0
   33.8646   48.4266   35.2648 H   0  0  0  0  0  0
   34.8433   45.9750   34.2292 H   0  0  0  0  0  0
   35.6695   47.5658   34.1136 H   0  0  0  0  0  0
   37.2971   46.8707   35.6105 H   0  0  0  0  0  0
   36.5519   45.2363   35.6067 H   0  0  0  0  0  0
   34.1525   49.3159   38.8265 H   0  0  0  0  0  0
   33.2178   47.5224   40.8138 H   0  0  0  0  0  0
   32.1042   50.3601   40.3207 H   0  0  0  0  0  0
   32.1798   49.5123   41.9025 H   0  0  0  0  0  0
   31.0836   47.3429   41.9318 H   0  0  0  0  0  0
   29.0390   46.7904   39.7209 H   0  0  0  0  0  0
   29.3192   44.9559   42.1555 H   0  0  0  0  0  0
   28.5830   44.5982   40.5566 H   0  0  0  0  0  0
   32.1672   45.8821   40.9721 H   0  0  0  0  0  0
   28.7725   42.1729   40.1738 H   0  0  0  0  0  0
   33.6223   41.3121   39.2834 H   0  0  0  0  0  0
   29.5540   39.9674   39.3523 H   0  0  0  0  0  0
   31.9364   39.5402   38.9435 H   0  0  0  0  0  0
   26.8312   45.9710   41.0482 H   0  0  0  0  0  0
   26.7015   47.0516   43.7198 H   0  0  0  0  0  0
   25.2172   48.9979   43.5282 H   0  0  0  0  0  0
   26.5690   49.2421   42.3708 H   0  0  0  0  0  0
   25.1250   46.3929   44.9853 H   0  0  0  0  0  0
   23.0974   44.5715   43.6255 H   0  0  0  0  0  0
   24.1938   44.8821   46.4487 H   0  0  0  0  0  0
   22.5856   44.1129   46.2283 H   0  0  0  0  0  0
   23.0583   42.6428   43.6888 H   0  0  0  0  0  0
   25.5233   43.1288   47.1407 H   0  0  0  0  0  0
   24.1451   40.4815   43.2181 H   0  0  0  0  0  0
   26.6368   40.9816   46.6568 H   0  0  0  0  0  0
   25.9436   39.6489   44.6940 H   0  0  0  0  0  0
   21.0563   45.3954   43.1159 H   0  0  0  0  0  0
   20.4328   47.7527   44.8793 H   0  0  0  0  0  0
   18.7581   48.4167   42.9697 H   0  0  0  0  0  0
   20.4978   48.4355   42.5226 H   0  0  0  0  0  0
   17.4420   47.6868   41.4480 H   0  0  0  0  0  0
   17.9025   46.2847   40.2431 H   0  0  0  0  0  0
   17.6513   48.1130   43.9774 H   0  0  0  0  0  0
   16.7000   46.8847   45.0803 H   0  0  0  0  0  0
   33.9074   44.1051   40.1483 H   0  0  0  0  0  0
  1  2  1  0  0  0
  1  7  1  0  0  0
  1 58  1  0  0  0
  1 59  1  0  0  0
  2  3  1  0  0  0
  2  5  1  0  0  0
  2 60  1  0  0  0
  3  4  2  0  0  0
  3  8  1  0  0  0
  5  6  1  0  0  0
  5 61  1  0  0  0
  5 62  1  0  0  0
  6  7  1  0  0  0
  6 63  1  0  0  0
  6 64  1  0  0  0
  7 65  1  0  0  0
  7 66  1  0  0  0
  8  9  1  0  0  0
  8 67  1  0  0  0
  9 10  1  0  0  0
  9 12  1  0  0  0
  9 68  1  0  0  0
 10 11  2  0  0  0
 10 16  1  0  0  0
 12 13  1  0  0  0
 12 69  1  0  0  0
 12 70  1  0  0  0
 13 14  1  0  0  0
 13 15  2  0  0  0
 16 17  1  0  0  0
 16 71  1  0  0  0
 17 18  1  0  0  0
 17 20  1  0  0  0
 17 72  1  0  0  0
 18 19  2  0  0  0
 18 30  1  0  0  0
 20 21  1  0  0  0
 20 73  1  0  0  0
 20 74  1  0  0  0
 21 22  2  0  0  0
 21 23  1  0  0  0
 22 24  1  0  0  0
 22 75  1  0  0  0
 23 25  2  0  0  0
 23 26  1  0  0  0
 24 25  1  0  0  0
 24101  1  0  0  0
 25 27  1  0  0  0
 26 28  2  0  0  0
 26 76  1  0  0  0
 27 29  2  0  0  0
 27 77  1  0  0  0
 28 29  1  0  0  0
 28 78  1  0  0  0
 29 79  1  0  0  0
 30 31  1  0  0  0
 30 80  1  0  0  0
 31 32  1  0  0  0
 31 34  1  0  0  0
 31 81  1  0  0  0
 32 33  2  0  0  0
 32 38  1  0  0  0
 34 35  1  0  0  0
 34 82  1  0  0  0
 34 83  1  0  0  0
 35 36  2  0  0  0
 35 37  1  0  0  0
 38 39  1  0  0  0
 38 84  1  0  0  0
 39 40  1  0  0  0
 39 42  1  0  0  0
 39 85  1  0  0  0
 40 41  2  0  0  0
 40 49  1  0  0  0
 42 43  1  0  0  0
 42 86  1  0  0  0
 42 87  1  0  0  0
 43 44  2  0  0  0
 43 45  1  0  0  0
 44 46  1  0  0  0
 44 88  1  0  0  0
 45 47  2  0  0  0
 45 89  1  0  0  0
 46 48  2  0  0  0
 46 90  1  0  0  0
 47 48  1  0  0  0
 47 91  1  0  0  0
 48 92  1  0  0  0
 49 50  1  0  0  0
 49 93  1  0  0  0
 50 51  1  0  0  0
 50 53  1  0  0  0
 50 94  1  0  0  0
 51 52  2  0  0  0
 51 57  1  0  0  0
 53 54  1  0  0  0
 53 95  1  0  0  0
 53 96  1  0  0  0
 54 55  2  0  0  0
 54 56  1  0  0  0
 56 97  1  0  0  0
 56 98  1  0  0  0
 57 99  1  0  0  0
 57100  1  0  0  0
M  CHG  4   1   1  14  -1  24   1  37  -1
M  END
> <s_m_source_file>
../3zhf_ligand.sdf

> <i_m_source_file_index>
1

> <s_epik_input>
W0NIMl0xW0NIMl1bQ0gyXVtOSDIrXVtDQEBIXTFDKD1PKVtOSF1bQ0BASF0oW0NIMl1DKD1PKVtPSF0pQyg9TylbTkhdW0NAQEhdKFtDSDJdYzJbY0hdW25IXWMoYzIzKVtjSF1bY0hdW2NIXVtjSF0zKUMoPU8pW05IXVtDQEBIXShbQ0gyXUMoPU8pW09IXSlDKD1PKVtOSF1bQ0BIXShDKD1PKVtOSF1bQ0BIXShDKD1PKVtOSDJdKVtDSDJdQyg9TylbTkgyXSlbQ0gyXWM0W2NIXVtjSF1bY0hdW2NIXVtjSF00

> <s_epik_cmdline>
J2VwaWtfYXBwJywgJy1pbWFlJywgJ2xpZ2FuZF9wcm8ubWFlJywgJy1vbWFlJywgJ2xpZ2FuZF9wcmVwLm1hZScsICctbXMnLCAnMScsICctcGgnLCAnNycsICctcGh0JywgJzAuNScsICctbnQn

> <r_epik_Ionization_Penalty>
  0.0425

> <r_epik_Ionization_Penalty_Charging>
  0.0425

> <r_epik_Ionization_Penalty_Neutral>
  0.0000

> <r_epik_State_Penalty>
  0.0339

> <r_epik_Charging_Adjusted_Penalty>
0.0764052675061104

> <i_epik_Tot_Q>
0

> <i_epik_Tot_abs_Q>
4

$$$$
