3zhx_ligand
                    3D
 Schrodinger Suite 2020-3.
 40 41  0  0  1  0            999 V2000
   22.2210   22.0200  -18.5350 C   0  0  0  0  0  0
   21.8680   22.7690  -19.6570 C   0  0  0  0  0  0
   23.0870   23.7950  -20.3410 Cl  0  0  0  0  0  0
   20.5620   22.6690  -20.1810 C   0  0  0  0  0  0
   20.0370   23.5660  -21.5660 Cl  0  0  0  0  0  0
   19.6240   21.8240  -19.5870 C   0  0  0  0  0  0
   19.9820   21.0820  -18.4660 C   0  0  0  0  0  0
   21.2790   21.1720  -17.9540 C   0  0  0  0  0  0
   21.6120   20.3670  -16.6960 C   0  0  1  0  0  0
   22.7770   18.9890  -17.0080 P   0  0  0  0  0  0
   23.0020   18.2500  -15.7050 O   0  5  0  0  0  0
   22.1500   18.0650  -18.0260 O   0  0  0  0  0  0
   24.1030   19.4950  -17.5150 O   0  0  0  0  0  0
   22.0840   21.3550  -15.6120 C   0  0  0  0  0  0
   20.9850   22.4240  -15.3110 C   0  0  0  0  0  0
   19.7230   21.7080  -15.0130 N   0  0  0  0  0  0
   19.8690   20.6270  -14.2200 O   0  0  0  0  0  0
   18.4790   21.9940  -15.4530 C   0  0  0  0  0  0
   17.5050   21.3130  -15.1470 O   0  0  0  0  0  0
   18.2190   23.2310  -16.3270 C   0  0  0  0  0  0
   18.6720   24.4930  -15.9150 C   0  0  0  0  0  0
   18.4120   25.6210  -16.6970 C   0  0  0  0  0  0
   17.6650   25.4880  -17.8710 C   0  0  0  0  0  0
   17.1910   24.2370  -18.2680 C   0  0  0  0  0  0
   17.4540   23.1090  -17.4900 C   0  0  0  0  0  0
   23.2243   22.0968  -18.1160 H   0  0  0  0  0  0
   18.6177   21.7458  -19.9984 H   0  0  0  0  0  0
   19.2509   20.4306  -17.9872 H   0  0  0  0  0  0
   20.6242   20.0526  -16.3279 H   0  0  0  0  0  0
   21.1739   17.6013  -17.8203 H   0  0  0  0  0  0
   22.3038   20.8049  -14.6852 H   0  0  0  0  0  0
   22.9925   21.8708  -15.9565 H   0  0  0  0  0  0
   21.2914   23.0315  -14.4466 H   0  0  0  0  0  0
   20.8558   23.0742  -16.1888 H   0  0  0  0  0  0
   20.8641   20.3556  -13.8379 H   0  0  0  0  0  0
   19.2280   24.5937  -14.9829 H   0  0  0  0  0  0
   18.7889   26.5978  -16.3939 H   0  0  0  0  0  0
   17.4515   26.3665  -18.4799 H   0  0  0  0  0  0
   16.6141   24.1408  -19.1878 H   0  0  0  0  0  0
   17.0640   22.1359  -17.7884 H   0  0  0  0  0  0
  1  2  2  0  0  0
  1  8  1  0  0  0
  1 26  1  0  0  0
  2  3  1  0  0  0
  2  4  1  0  0  0
  4  5  1  0  0  0
  4  6  2  0  0  0
  6  7  1  0  0  0
  6 27  1  0  0  0
  7  8  2  0  0  0
  7 28  1  0  0  0
  8  9  1  0  0  0
  9 10  1  0  0  0
  9 14  1  0  0  0
  9 29  1  0  0  0
 10 11  1  0  0  0
 10 12  1  0  0  0
 10 13  2  0  0  0
 12 30  1  0  0  0
 14 15  1  0  0  0
 14 31  1  0  0  0
 14 32  1  0  0  0
 15 16  1  0  0  0
 15 33  1  0  0  0
 15 34  1  0  0  0
 16 17  1  0  0  0
 16 18  1  0  0  0
 17 35  1  0  0  0
 18 19  2  0  0  0
 18 20  1  0  0  0
 20 21  2  0  0  0
 20 25  1  0  0  0
 21 22  1  0  0  0
 21 36  1  0  0  0
 22 23  2  0  0  0
 22 37  1  0  0  0
 23 24  1  0  0  0
 23 38  1  0  0  0
 24 25  2  0  0  0
 24 39  1  0  0  0
 25 40  1  0  0  0
M  CHG  1  11  -1
M  END
> <s_m_source_file>
../3zhx_ligand.sdf

> <i_m_source_file_index>
1

> <s_epik_input>
Q2xjMVtjSF1bY0hdYyhbY0hdYzFDbClbQ0BASF0oUCg9TykoW09IXSlbT0hdKVtDSDJdW0NIMl1OKFtPSF0pQyg9TyljMltjSF1bY0hdW2NIXVtjSF1bY0hdMg==

> <s_epik_cmdline>
J2VwaWtfYXBwJywgJy1pbWFlJywgJ2xpZ2FuZF9wcm8ubWFlJywgJy1vbWFlJywgJ2xpZ2FuZF9wcmVwLm1hZScsICctbXMnLCAnMScsICctcGgnLCAnNycsICctcGh0JywgJzAuNScsICctbnQn

> <r_lp_tautomer_probability>
1

> <r_epik_Ionization_Penalty>
  0.2231

> <r_epik_Ionization_Penalty_Charging>
  0.0000

> <r_epik_Ionization_Penalty_Neutral>
  0.2231

> <r_epik_State_Penalty>
 -0.0000

> <r_epik_Charging_Adjusted_Penalty>
1.04479406170608e-05

> <i_epik_Tot_Q>
-1

> <i_epik_Tot_abs_Q>
1

> <s_epik_Chemistry_Notes>
This compound has a N-S or N-O group and may undergo hydrolysis at high or low pH.

$$$$
