3zhz_ligand
                    3D
 Schrodinger Suite 2020-3.
 55 57  0  0  1  0            999 V2000
   20.2010   29.2330  -12.7640 F   0  0  0  0  0  0
   20.6640   20.3590  -15.6610 C   0  0  0  0  0  0
   19.3450   28.2330  -12.8570 C   0  0  0  0  0  0
   18.1380   28.6610  -13.2280 F   0  0  0  0  0  0
   19.2700   27.6650  -11.6610 F   0  0  0  0  0  0
   19.8040   27.2860  -13.9360 C   0  0  0  0  0  0
   21.0810   27.3390  -14.5050 C   0  0  0  0  0  0
   21.4240   26.4290  -15.5180 C   0  0  0  0  0  0
   20.5040   25.4730  -15.9680 C   0  0  0  0  0  0
   18.9010   26.3350  -14.3870 C   0  0  0  0  0  0
   19.2250   25.4460  -15.4010 C   0  0  0  0  0  0
   18.3070   24.5250  -15.7920 N   0  0  0  0  0  0
   18.3190   23.9740  -17.0390 C   0  0  0  0  0  0
   18.7290   24.7240  -18.1470 C   0  0  0  0  0  0
   18.7350   24.1480  -19.4200 C   0  0  0  0  0  0
   18.2950   22.8340  -19.6020 C   0  0  0  0  0  0
   17.8640   22.0980  -18.4960 C   0  0  0  0  0  0
   17.8670   22.6680  -17.2140 C   0  0  0  0  0  0
   17.4280   21.8090  -16.0380 C   0  0  0  0  0  0
   16.2750   21.5770  -15.7980 O   0  0  0  0  0  0
   18.3300   21.2360  -15.2450 N   0  0  0  0  0  0
   17.9140   20.4240  -14.1560 O   0  0  0  0  0  0
   19.7360   21.5550  -15.5300 C   0  0  0  0  0  0
   21.2800   20.2300  -17.0560 C   0  0  2  0  0  0
   22.5180   18.8790  -17.1690 P   0  0  0  0  0  0
   23.9160   19.2360  -17.6550 O   0  5  0  0  0  0
   21.9190   18.0100  -18.2410 O   0  0  0  0  0  0
   22.6350   18.1280  -15.8540 O   0  0  0  0  0  0
   21.8300   21.4110  -17.7960 C   0  0  0  0  0  0
   21.5800   21.5220  -19.1530 C   0  0  0  0  0  0
   22.0670   22.5650  -19.8920 C   0  0  0  0  0  0
   22.8370   23.5330  -19.2740 C   0  0  0  0  0  0
   23.4600   24.8630  -20.2280 Cl  0  0  0  0  0  0
   23.1140   23.4590  -17.9040 C   0  0  0  0  0  0
   24.1140   24.7420  -17.1830 Cl  0  0  0  0  0  0
   22.6040   22.3820  -17.1410 C   0  0  0  0  0  0
   21.4886   20.4540  -14.9392 H   0  0  0  0  0  0
   20.1027   19.4353  -15.4570 H   0  0  0  0  0  0
   21.8038   28.0806  -14.1648 H   0  0  0  0  0  0
   22.4195   26.4669  -15.9602 H   0  0  0  0  0  0
   20.7799   24.7621  -16.7468 H   0  0  0  0  0  0
   17.9113   26.2849  -13.9330 H   0  0  0  0  0  0
   17.5211   24.2010  -15.0938 H   0  0  0  0  0  0
   19.0442   25.7593  -18.0168 H   0  0  0  0  0  0
   19.0845   24.7263  -20.2753 H   0  0  0  0  0  0
   18.2883   22.3883  -20.5967 H   0  0  0  0  0  0
   17.5223   21.0717  -18.6300 H   0  0  0  0  0  0
   16.8443   20.2227  -13.9972 H   0  0  0  0  0  0
   20.0812   22.1985  -14.7074 H   0  0  0  0  0  0
   19.7402   22.1270  -16.4696 H   0  0  0  0  0  0
   20.2821   20.2649  -17.5175 H   0  0  0  0  0  0
   23.0558   18.6293  -14.9699 H   0  0  0  0  0  0
   20.9790   20.7578  -19.6458 H   0  0  0  0  0  0
   21.8501   22.6324  -20.9581 H   0  0  0  0  0  0
   22.8068   22.3082  -16.0726 H   0  0  0  0  0  0
  1  3  1  0  0  0
  2 23  1  0  0  0
  2 24  1  0  0  0
  2 37  1  0  0  0
  2 38  1  0  0  0
  3  4  1  0  0  0
  3  5  1  0  0  0
  3  6  1  0  0  0
  6  7  2  0  0  0
  6 10  1  0  0  0
  7  8  1  0  0  0
  7 39  1  0  0  0
  8  9  2  0  0  0
  8 40  1  0  0  0
  9 11  1  0  0  0
  9 41  1  0  0  0
 10 11  2  0  0  0
 10 42  1  0  0  0
 11 12  1  0  0  0
 12 13  1  0  0  0
 12 43  1  0  0  0
 13 14  2  0  0  0
 13 18  1  0  0  0
 14 15  1  0  0  0
 14 44  1  0  0  0
 15 16  2  0  0  0
 15 45  1  0  0  0
 16 17  1  0  0  0
 16 46  1  0  0  0
 17 18  2  0  0  0
 17 47  1  0  0  0
 18 19  1  0  0  0
 19 20  2  0  0  0
 19 21  1  0  0  0
 21 22  1  0  0  0
 21 23  1  0  0  0
 22 48  1  0  0  0
 23 49  1  0  0  0
 23 50  1  0  0  0
 24 25  1  0  0  0
 24 29  1  0  0  0
 24 51  1  0  0  0
 25 26  1  0  0  0
 25 27  2  0  0  0
 25 28  1  0  0  0
 28 52  1  0  0  0
 29 30  2  0  0  0
 29 36  1  0  0  0
 30 31  1  0  0  0
 30 53  1  0  0  0
 31 32  2  0  0  0
 31 54  1  0  0  0
 32 33  1  0  0  0
 32 34  1  0  0  0
 34 35  1  0  0  0
 34 36  2  0  0  0
 36 55  1  0  0  0
M  CHG  1  26  -1
M  END
> <s_m_source_file>
../3zhz_ligand.sdf

> <i_m_source_file_index>
1

> <s_epik_input>
RkMoRikoRiljMVtjSF1bY0hdW2NIXWMoW2NIXTEpW05IXWMyW2NIXVtjSF1bY0hdW2NIXWMyQyg9TylOKFtPSF0pW0NIMl1bQ0gyXVtDQEhdKFAoPU8pKFtPSF0pW09IXSljM1tjSF1bY0hdYyhDbCljKENsKVtjSF0z

> <s_epik_cmdline>
J2VwaWtfYXBwJywgJy1pbWFlJywgJ2xpZ2FuZF9wcm8ubWFlJywgJy1vbWFlJywgJ2xpZ2FuZF9wcmVwLm1hZScsICctbXMnLCAnMScsICctcGgnLCAnNycsICctcGh0JywgJzAuNScsICctbnQn

> <r_lp_tautomer_probability>
1

> <r_epik_Ionization_Penalty>
  0.2231

> <r_epik_Ionization_Penalty_Charging>
  0.0000

> <r_epik_Ionization_Penalty_Neutral>
  0.2231

> <r_epik_State_Penalty>
 -0.0000

> <r_epik_Charging_Adjusted_Penalty>
1.04479406170608e-05

> <i_epik_Tot_Q>
-1

> <i_epik_Tot_abs_Q>
1

> <s_epik_Chemistry_Notes>
This compound has a N-S or N-O group and may undergo hydrolysis at high or low pH.

$$$$
