3zi0_ligand
                    3D
 Schrodinger Suite 2020-3.
 49 51  0  0  1  0            999 V2000
   39.2970   21.9940   23.7130 C   0  0  0  0  0  0
   39.9430   21.5760   24.8150 N   0  0  0  0  0  0
   38.0950   21.7940   23.5360 O   0  0  0  0  0  0
   45.8090   24.4220   24.3370 Cl  0  0  0  0  0  0
   41.3770   21.8070   25.0930 C   0  0  0  0  0  0
   40.7400   25.1810   24.8160 N   0  0  0  0  0  0
   39.2020   20.9370   25.7630 O   0  0  0  0  0  0
   45.9070   24.3710   21.1930 Cl  0  0  0  0  0  0
   42.1650   20.5140   25.4150 C   0  0  0  0  0  0
   41.8860   25.5970   24.6300 N   0  0  0  0  0  0
   42.9440   20.0230   24.1780 C   0  0  1  0  0  0
   41.6890   25.1010   26.7190 N   0  0  0  0  0  0
   43.7270   21.1380   23.4560 C   0  0  0  0  0  0
   44.3620   22.1640   24.1550 C   0  0  0  0  0  0
   45.0300   23.1590   23.4530 C   0  0  0  0  0  0
   45.0710   23.1310   22.0580 C   0  0  0  0  0  0
   44.4420   22.1060   21.3510 C   0  0  0  0  0  0
   43.7670   21.1150   22.0640 C   0  0  0  0  0  0
   40.0830   22.7420   22.6150 C   0  0  0  0  0  0
   40.2430   24.1380   22.6520 C   0  0  0  0  0  0
   40.9500   24.7620   21.6170 C   0  0  0  0  0  0
   41.4790   24.0250   20.5530 C   0  0  0  0  0  0
   41.2980   22.6510   20.5170 C   0  0  0  0  0  0
   40.5980   22.0110   21.5420 C   0  0  0  0  0  0
   39.7150   25.0540   23.7650 C   0  0  0  0  0  0
   42.5290   25.5690   25.7970 C   0  0  0  0  0  0
   40.5420   24.8570   26.0910 C   0  0  0  0  0  0
   44.0080   18.5480   24.5010 P   0  0  0  0  0  0
   43.7730   17.9210   25.9560 O   0  5  0  0  0  0
   43.2510   17.5390   23.5040 O   0  0  0  0  0  0
   45.4380   18.6500   24.1070 O   0  0  0  0  0  0
   41.8510   22.2689   24.2144 H   0  0  0  0  0  0
   41.4793   22.4769   25.9594 H   0  0  0  0  0  0
   38.1322   20.7483   25.5900 H   0  0  0  0  0  0
   42.8796   20.7128   26.2273 H   0  0  0  0  0  0
   41.4643   19.7258   25.7278 H   0  0  0  0  0  0
   42.0826   19.9173   23.5021 H   0  0  0  0  0  0
   44.3343   22.1850   25.2444 H   0  0  0  0  0  0
   44.4773   22.0799   20.2619 H   0  0  0  0  0  0
   43.2643   20.3122   21.5247 H   0  0  0  0  0  0
   41.0907   25.8426   21.6412 H   0  0  0  0  0  0
   42.0297   24.5272   19.7576 H   0  0  0  0  0  0
   41.7023   22.0699   19.6882 H   0  0  0  0  0  0
   40.4522   20.9314   21.5043 H   0  0  0  0  0  0
   38.7999   24.6214   24.1957 H   0  0  0  0  0  0
   39.4906   26.0476   23.3497 H   0  0  0  0  0  0
   43.5611   25.8753   25.9672 H   0  0  0  0  0  0
   39.6239   24.4693   26.5326 H   0  0  0  0  0  0
   42.1785   17.3347   23.6381 H   0  0  0  0  0  0
  1  2  1  0  0  0
  1  3  2  0  0  0
  1 19  1  0  0  0
  2  5  1  0  0  0
  2  7  1  0  0  0
  4 15  1  0  0  0
  5  9  1  0  0  0
  5 32  1  0  0  0
  5 33  1  0  0  0
  6 10  1  0  0  0
  6 25  1  0  0  0
  6 27  1  0  0  0
  7 34  1  0  0  0
  8 16  1  0  0  0
  9 11  1  0  0  0
  9 35  1  0  0  0
  9 36  1  0  0  0
 10 26  2  0  0  0
 11 13  1  0  0  0
 11 28  1  0  0  0
 11 37  1  0  0  0
 12 26  1  0  0  0
 12 27  2  0  0  0
 13 14  2  0  0  0
 13 18  1  0  0  0
 14 15  1  0  0  0
 14 38  1  0  0  0
 15 16  2  0  0  0
 16 17  1  0  0  0
 17 18  2  0  0  0
 17 39  1  0  0  0
 18 40  1  0  0  0
 19 20  2  0  0  0
 19 24  1  0  0  0
 20 21  1  0  0  0
 20 25  1  0  0  0
 21 22  2  0  0  0
 21 41  1  0  0  0
 22 23  1  0  0  0
 22 42  1  0  0  0
 23 24  2  0  0  0
 23 43  1  0  0  0
 24 44  1  0  0  0
 25 45  1  0  0  0
 25 46  1  0  0  0
 26 47  1  0  0  0
 27 48  1  0  0  0
 28 29  1  0  0  0
 28 30  1  0  0  0
 28 31  2  0  0  0
 30 49  1  0  0  0
M  CHG  1  29  -1
M  END
> <s_m_source_file>
../3zi0_ligand.sdf

> <i_m_source_file_index>
1

> <s_epik_input>
W2NIXTFuW2NIXW5uMVtDSDJdYyhbY0hdW2NIXVtjSF1bY0hdMiljMkMoPU8pTihbT0hdKVtDSDJdW0NIMl1bQ0BIXShQKD1PKShbT0hdKVtPSF0pYzNbY0hdYyhDbCljKENsKVtjSF1bY0hdMw==

> <s_epik_cmdline>
J2VwaWtfYXBwJywgJy1pbWFlJywgJ2xpZ2FuZF9wcm8ubWFlJywgJy1vbWFlJywgJ2xpZ2FuZF9wcmVwLm1hZScsICctbXMnLCAnMScsICctcGgnLCAnNycsICctcGh0JywgJzAuNScsICctbnQn

> <r_lp_tautomer_probability>
1

> <r_epik_Ionization_Penalty>
  0.2231

> <r_epik_Ionization_Penalty_Charging>
  0.0000

> <r_epik_Ionization_Penalty_Neutral>
  0.2231

> <r_epik_State_Penalty>
 -0.0000

> <r_epik_Charging_Adjusted_Penalty>
1.04479406170608e-05

> <i_epik_Tot_Q>
-1

> <i_epik_Tot_abs_Q>
1

> <s_epik_Chemistry_Notes>
This compound has a N-S or N-O group and may undergo hydrolysis at high or low pH.

$$$$
