3zi8_ligand
                    3D
 Schrodinger Suite 2020-3.
 22 22  0  0  1  0            999 V2000
   20.1410   11.5470  -19.1720 C   0  0  0  0  0  0
   20.4790   11.3260  -17.6980 C   0  0  2  0  0  0
   21.8470   10.6500  -17.6120 C   0  0  1  0  0  0
   22.9450   11.4510  -18.3560 C   0  0  1  0  0  0
   22.4460   11.7930  -19.7690 C   0  0  2  0  0  0
   23.4440   12.6540  -20.4920 C   0  0  0  0  0  0
   19.4790   10.5190  -17.0700 O   0  0  0  0  0  0
   22.1230   10.3490  -16.2440 O   0  0  0  0  0  0
   23.3300   12.7020  -17.7870 O   0  0  0  0  0  0
   21.1460   12.3980  -19.7390 O   0  0  0  0  0  0
   20.1268   10.5789  -19.6940 H   0  0  0  0  0  0
   19.1525   12.0225  -19.2542 H   0  0  0  0  0  0
   20.4566   12.2681  -17.1306 H   0  0  0  0  0  0
   21.8419    9.6497  -18.0696 H   0  0  0  0  0  0
   23.8636   10.8507  -18.2802 H   0  0  0  0  0  0
   22.2854   10.8767  -20.3560 H   0  0  0  0  0  0
   24.4250   12.1563  -20.4929 H   0  0  0  0  0  0
   23.5263   13.6259  -19.9834 H   0  0  0  0  0  0
   23.1109   12.8098  -21.5287 H   0  0  0  0  0  0
   18.4337   10.8606  -17.0428 H   0  0  0  0  0  0
   21.3925    9.7832  -15.6471 H   0  0  0  0  0  0
   23.7296   12.7407  -16.7629 H   0  0  0  0  0  0
  1  2  1  0  0  0
  1 10  1  0  0  0
  1 11  1  0  0  0
  1 12  1  0  0  0
  2  3  1  0  0  0
  2  7  1  0  0  0
  2 13  1  0  0  0
  3  4  1  0  0  0
  3  8  1  0  0  0
  3 14  1  0  0  0
  4  5  1  0  0  0
  4  9  1  0  0  0
  4 15  1  0  0  0
  5  6  1  0  0  0
  5 10  1  0  0  0
  5 16  1  0  0  0
  6 17  1  0  0  0
  6 18  1  0  0  0
  6 19  1  0  0  0
  7 20  1  0  0  0
  8 21  1  0  0  0
  9 22  1  0  0  0
M  END
> <s_m_source_file>
../3zi8_ligand.sdf

> <i_m_source_file_index>
1

> <s_epik_input>
W09IXVtDQEBIXTFbQ0gyXU9bQ0BASF0oW0NIM10pW0NAQEhdKFtPSF0pW0NASF0xW09IXQ==

> <s_epik_cmdline>
J2VwaWtfYXBwJywgJy1pbWFlJywgJ2xpZ2FuZF9wcm8ubWFlJywgJy1vbWFlJywgJ2xpZ2FuZF9wcmVwLm1hZScsICctbXMnLCAnMScsICctcGgnLCAnNycsICctcGh0JywgJzAuNScsICctbnQn

> <r_lp_tautomer_probability>
1

> <r_epik_Ionization_Penalty>
  0.0000

> <r_epik_Ionization_Penalty_Charging>
  0.0000

> <r_epik_Ionization_Penalty_Neutral>
  0.0000

> <r_epik_State_Penalty>
 -0.0000

> <r_epik_Charging_Adjusted_Penalty>
0

> <i_epik_Tot_Q>
0

> <i_epik_Tot_abs_Q>
0

$$$$
