3zim_ligand
                    3D
 Schrodinger Suite 2020-3.
 78 83  0  0  1  0            999 V2000
  -32.9380   13.8670   29.8170 C   0  0  0  0  0  0
  -31.9860   14.1480   28.6810 C   0  0  0  0  0  0
  -32.2180   13.1580   27.5670 C   0  0  0  0  0  0
  -30.5310   14.1240   29.1460 C   0  0  0  0  0  0
  -30.1170   12.8240   29.6890 C   0  0  0  0  0  0
  -30.4370   12.4920   30.8120 O   0  0  0  0  0  0
  -29.2530   11.9050   28.8690 C   0  0  0  0  0  0
  -27.8030   12.1540   29.2930 C   0  0  0  0  0  0
  -26.7830   11.4290   28.4370 C   0  0  0  0  0  0
  -27.1790   10.6970   27.5490 O   0  0  0  0  0  0
  -25.4400   11.5830   28.6580 N   0  0  0  0  0  0
  -24.8800   12.4650   29.7100 C   0  0  0  0  0  0
  -23.9560   11.6460   30.6120 C   0  0  0  0  0  0
  -22.8530   11.1330   29.7860 N   0  3  0  0  0  0
  -23.3700   10.2110   28.7490 C   0  0  0  0  0  0
  -24.4080   10.8990   27.8370 C   0  0  0  0  0  0
  -21.8360   10.5040   30.6420 C   0  0  0  0  0  0
  -20.4810   10.4920   29.9850 C   0  0  0  0  0  0
  -20.0660    9.5450   29.1660 C   0  0  0  0  0  0
  -18.7800    9.6940   28.6790 C   0  0  0  0  0  0
  -18.1230    8.8400   27.8160 N   0  0  0  0  0  0
  -16.8650    9.1070   27.3780 C   0  0  0  0  0  0
  -16.2600   10.2110   27.8290 N   0  0  0  0  0  0
  -16.7870   11.0860   28.7100 C   0  0  0  0  0  0
  -18.1240   10.8300   29.1570 C   0  0  0  0  0  0
  -19.2580   11.6480   30.2310 S   0  0  0  0  0  0
  -16.0240   12.1750   29.1650 N   0  0  0  0  0  0
  -16.6200   13.3890   29.7940 C   0  0  0  0  0  0
  -15.7550   14.6630   29.8020 C   0  0  0  0  0  0
  -14.3760   14.3480   29.8520 O   0  0  0  0  0  0
  -13.9680   13.4730   28.8050 C   0  0  0  0  0  0
  -14.5440   12.1000   29.1570 C   0  0  0  0  0  0
  -16.2080    8.1790   26.4100 C   0  0  0  0  0  0
  -16.8330    6.9950   25.9660 C   0  0  0  0  0  0
  -16.2190    6.1240   25.0760 C   0  0  0  0  0  0
  -15.0010    6.3850   24.5330 C   0  0  0  0  0  0
  -14.3170    7.5500   24.8820 C   0  0  0  0  0  0
  -13.1470    8.0560   24.5160 N   0  0  0  0  0  0
  -12.9460    9.1720   25.1070 N   0  0  0  0  0  0
  -13.9410    9.4790   25.9110 C   0  0  0  0  0  0
  -14.8840    8.4600   25.8300 C   0  0  0  0  0  0
  -33.9723   13.8929   29.4435 H   0  0  0  0  0  0
  -32.8113   14.6303   30.5989 H   0  0  0  0  0  0
  -32.7245   12.8729   30.2369 H   0  0  0  0  0  0
  -32.1974   15.1584   28.3010 H   0  0  0  0  0  0
  -33.2718   13.1983   27.2542 H   0  0  0  0  0  0
  -31.9793   12.1445   27.9216 H   0  0  0  0  0  0
  -31.5721   13.4092   26.7128 H   0  0  0  0  0  0
  -29.8708   14.3540   28.2967 H   0  0  0  0  0  0
  -30.3863   14.8749   29.9367 H   0  0  0  0  0  0
  -29.5404   10.8611   29.0634 H   0  0  0  0  0  0
  -29.3890   12.1299   27.8009 H   0  0  0  0  0  0
  -27.5809   13.2292   29.2259 H   0  0  0  0  0  0
  -27.6605   11.8142   30.3294 H   0  0  0  0  0  0
  -24.3102   13.2801   29.2400 H   0  0  0  0  0  0
  -25.7002   12.8885   30.3083 H   0  0  0  0  0  0
  -23.5632   12.2881   31.4142 H   0  0  0  0  0  0
  -24.5201   10.8113   31.0536 H   0  0  0  0  0  0
  -22.3663   11.9709   29.2654 H   0  0  0  0  0  0
  -22.5371    9.8608   28.1216 H   0  0  0  0  0  0
  -23.8525    9.3488   29.2325 H   0  0  0  0  0  0
  -24.8884   10.1399   27.2022 H   0  0  0  0  0  0
  -23.8960   11.6371   27.2022 H   0  0  0  0  0  0
  -21.7564   11.0614   31.5870 H   0  0  0  0  0  0
  -22.1264    9.4642   30.8530 H   0  0  0  0  0  0
  -20.6961    8.6993   28.8906 H   0  0  0  0  0  0
  -17.5445   13.6606   29.2633 H   0  0  0  0  0  0
  -16.8508   13.1796   30.8489 H   0  0  0  0  0  0
  -15.9484   15.2433   28.8877 H   0  0  0  0  0  0
  -16.0070   15.2718   30.6828 H   0  0  0  0  0  0
  -14.3658   13.8377   27.8465 H   0  0  0  0  0  0
  -12.8694   13.4438   28.7587 H   0  0  0  0  0  0
  -14.1869   11.7957   30.1519 H   0  0  0  0  0  0
  -14.2183   11.3621   28.4091 H   0  0  0  0  0  0
  -17.8309    6.7560   26.3337 H   0  0  0  0  0  0
  -16.7307    5.2008   24.8040 H   0  0  0  0  0  0
  -14.5584    5.6844   23.8249 H   0  0  0  0  0  0
  -14.0134   10.3730   26.5304 H   0  0  0  0  0  0
  1  2  1  0  0  0
  1 42  1  0  0  0
  1 43  1  0  0  0
  1 44  1  0  0  0
  2  3  1  0  0  0
  2  4  1  0  0  0
  2 45  1  0  0  0
  3 46  1  0  0  0
  3 47  1  0  0  0
  3 48  1  0  0  0
  4  5  1  0  0  0
  4 49  1  0  0  0
  4 50  1  0  0  0
  5  6  2  0  0  0
  5  7  1  0  0  0
  7  8  1  0  0  0
  7 51  1  0  0  0
  7 52  1  0  0  0
  8  9  1  0  0  0
  8 53  1  0  0  0
  8 54  1  0  0  0
  9 10  2  0  0  0
  9 11  1  0  0  0
 11 12  1  0  0  0
 11 16  1  0  0  0
 12 13  1  0  0  0
 12 55  1  0  0  0
 12 56  1  0  0  0
 13 14  1  0  0  0
 13 57  1  0  0  0
 13 58  1  0  0  0
 14 15  1  0  0  0
 14 17  1  0  0  0
 14 59  1  0  0  0
 15 16  1  0  0  0
 15 60  1  0  0  0
 15 61  1  0  0  0
 16 62  1  0  0  0
 16 63  1  0  0  0
 17 18  1  0  0  0
 17 64  1  0  0  0
 17 65  1  0  0  0
 18 19  2  0  0  0
 18 26  1  0  0  0
 19 20  1  0  0  0
 19 66  1  0  0  0
 20 21  2  0  0  0
 20 25  1  0  0  0
 21 22  1  0  0  0
 22 23  2  0  0  0
 22 33  1  0  0  0
 23 24  1  0  0  0
 24 25  2  0  0  0
 24 27  1  0  0  0
 25 26  1  0  0  0
 27 28  1  0  0  0
 27 32  1  0  0  0
 28 29  1  0  0  0
 28 67  1  0  0  0
 28 68  1  0  0  0
 29 30  1  0  0  0
 29 69  1  0  0  0
 29 70  1  0  0  0
 30 31  1  0  0  0
 31 32  1  0  0  0
 31 71  1  0  0  0
 31 72  1  0  0  0
 32 73  1  0  0  0
 32 74  1  0  0  0
 33 34  2  0  0  0
 33 41  1  0  0  0
 34 35  1  0  0  0
 34 75  1  0  0  0
 35 36  2  0  0  0
 35 76  1  0  0  0
 36 37  1  0  0  0
 36 77  1  0  0  0
 37 38  1  0  0  0
 37 41  2  0  0  0
 38 39  2  0  0  0
 39 40  1  0  0  0
 40 41  1  0  0  0
 40 78  1  0  0  0
M  CHG  1  14   1
M  END
> <s_m_source_file>
../3zim_ligand.sdf

> <i_m_source_file_index>
1

> <s_epik_input>
W0NIM11bQ0hdKFtDSDNdKVtDSDJdQyg9TylbQ0gyXVtDSDJdQyg9TylOMVtDSDJdW0NIMl1bTkgrXShbQ0gyXVtDSDJdMSlbQ0gyXWMoW2NIXTIpc2MoYzIzKWMobmMobjMpLWMoW2NIXVtjSF1bY0hdNCljKGM0NSlbQ0gyXU49TjUpTjZbQ0gyXVtDSDJdT1tDSDJdW0NIMl02

> <s_epik_cmdline>
J2VwaWtfYXBwJywgJy1pbWFlJywgJ2xpZ2FuZF9wcm8ubWFlJywgJy1vbWFlJywgJ2xpZ2FuZF9wcmVwLm1hZScsICctbXMnLCAnMScsICctcGgnLCAnNycsICctcGh0JywgJzAuNScsICctbnQn

> <r_epik_Ionization_Penalty>
  0.0734

> <r_epik_Ionization_Penalty_Charging>
  0.0734

> <r_epik_Ionization_Penalty_Neutral>
  0.0000

> <r_epik_State_Penalty>
  0.0645

> <r_epik_Charging_Adjusted_Penalty>
0.137925917834039

> <i_epik_Tot_Q>
1

> <i_epik_Tot_abs_Q>
1

$$$$
