3zj6_ligand
                    3D
 Schrodinger Suite 2020-3.
 44 45  0  0  1  0            999 V2000
   19.3040   20.6390   37.7200 C   0  0  0  0  0  0
   18.2550   19.9370   38.6140 C   0  0  0  0  0  0
   17.8550   20.5750   39.9520 C   0  0  0  0  0  0
   18.6310   21.8480   40.3540 C   0  0  0  0  0  0
   18.6400   22.7640   39.1400 C   0  0  0  0  0  0
   19.4890   22.1560   37.9950 C   0  0  0  0  0  0
   18.2080   17.2850   34.0690 C   0  0  1  0  0  0
   17.3430   17.4280   32.8080 C   0  0  2  0  0  0
   16.8100   18.8380   32.9350 C   0  0  1  0  0  0
   18.1090   19.5830   33.2700 C   0  0  1  0  0  0
   17.8980   21.0840   33.6120 C   0  0  0  0  0  0
   19.2280   16.3150   33.8550 O   0  0  0  0  0  0
   16.2800   16.4700   32.7050 O   0  0  0  0  0  0
   16.0930   19.3330   31.7920 O   0  0  0  0  0  0
   16.8230   21.2260   34.5760 O   0  0  0  0  0  0
   18.7760   18.6840   34.3470 C   0  0  1  0  0  0
   18.5900   19.0920   35.7650 N   0  3  0  0  0  0
   18.9730   20.4460   36.2310 C   0  0  0  0  0  0
   20.2533   20.1449   37.9742 H   0  0  0  0  0  0
   17.3071   19.8445   38.0635 H   0  0  0  0  0  0
   18.6185   18.9359   38.8889 H   0  0  0  0  0  0
   16.7937   20.8623   39.9185 H   0  0  0  0  0  0
   18.0134   19.8514   40.7652 H   0  0  0  0  0  0
   18.1263   22.3323   41.2030 H   0  0  0  0  0  0
   19.6567   21.5760   40.6438 H   0  0  0  0  0  0
   17.6103   22.9056   38.7799 H   0  0  0  0  0  0
   19.0682   23.7381   39.4188 H   0  0  0  0  0  0
   20.5373   22.3550   38.2623 H   0  0  0  0  0  0
   19.2260   22.7270   37.0924 H   0  0  0  0  0  0
   17.6816   16.8686   34.9405 H   0  0  0  0  0  0
   17.8754   17.2029   31.8721 H   0  0  0  0  0  0
   15.9728   18.9656   33.6370 H   0  0  0  0  0  0
   18.7806   19.6969   32.4063 H   0  0  0  0  0  0
   18.8241   21.4965   34.0388 H   0  0  0  0  0  0
   17.6387   21.6358   32.6964 H   0  0  0  0  0  0
   18.9575   15.2697   33.6450 H   0  0  0  0  0  0
   16.5122   15.3993   32.6065 H   0  0  0  0  0  0
   15.1515   18.8548   31.4839 H   0  0  0  0  0  0
   16.5342   22.2250   34.9346 H   0  0  0  0  0  0
   19.8726   18.7550   34.2984 H   0  0  0  0  0  0
   17.5243   19.0249   36.0290 H   0  0  0  0  0  0
   19.1721   18.4250   36.4179 H   0  0  0  0  0  0
   18.1236   21.0893   35.9578 H   0  0  0  0  0  0
   19.8485   20.7168   35.6226 H   0  0  0  0  0  0
  1  2  1  0  0  0
  1  6  1  0  0  0
  1 18  1  0  0  0
  1 19  1  0  0  0
  2  3  1  0  0  0
  2 20  1  0  0  0
  2 21  1  0  0  0
  3  4  1  0  0  0
  3 22  1  0  0  0
  3 23  1  0  0  0
  4  5  1  0  0  0
  4 24  1  0  0  0
  4 25  1  0  0  0
  5  6  1  0  0  0
  5 26  1  0  0  0
  5 27  1  0  0  0
  6 28  1  0  0  0
  6 29  1  0  0  0
  7  8  1  0  0  0
  7 12  1  0  0  0
  7 16  1  0  0  0
  7 30  1  0  0  0
  8  9  1  0  0  0
  8 13  1  0  0  0
  8 31  1  0  0  0
  9 10  1  0  0  0
  9 14  1  0  0  0
  9 32  1  0  0  0
 10 11  1  0  0  0
 10 16  1  0  0  0
 10 33  1  0  0  0
 11 15  1  0  0  0
 11 34  1  0  0  0
 11 35  1  0  0  0
 12 36  1  0  0  0
 13 37  1  0  0  0
 14 38  1  0  0  0
 15 39  1  0  0  0
 16 17  1  0  0  0
 16 40  1  0  0  0
 17 18  1  0  0  0
 17 41  1  0  0  0
 17 42  1  0  0  0
 18 43  1  0  0  0
 18 44  1  0  0  0
M  CHG  1  17   1
M  END
> <s_m_source_file>
../3zj6_ligand.sdf

> <i_m_source_file_index>
1

> <s_epik_input>
W0NIMl0xW0NIMl1bQ0gyXVtDSDJdW0NIMl1bQ0hdMVtDSDJdW05IMitdW0NAQEhdMltDQEhdKFtDSDJdW09IXSlbQ0BASF0oW09IXSlbQ0BIXShbT0hdKVtDQEhdMltPSF0=

> <s_epik_cmdline>
J2VwaWtfYXBwJywgJy1pbWFlJywgJ2xpZ2FuZF9wcm8ubWFlJywgJy1vbWFlJywgJ2xpZ2FuZF9wcmVwLm1hZScsICctbXMnLCAnMScsICctcGgnLCAnNycsICctcGh0JywgJzAuNScsICctbnQn

> <r_lp_tautomer_probability>
1

> <r_epik_Ionization_Penalty>
  0.0046

> <r_epik_Ionization_Penalty_Charging>
  0.0046

> <r_epik_Ionization_Penalty_Neutral>
  0.0000

> <r_epik_State_Penalty>
 -0.0000

> <r_epik_Charging_Adjusted_Penalty>
0.00460378840295171

> <i_epik_Tot_Q>
1

> <i_epik_Tot_abs_Q>
1

$$$$
