3zj8_ligand
                    3D
 Schrodinger Suite 2020-3.
 38 39  0  0  1  0            999 V2000
  -36.3000    8.5430   -9.0560 C   0  0  0  0  0  0
  -34.9900    8.6040   -8.5650 C   0  0  0  0  0  0
  -34.2420    7.4240   -8.4850 C   0  0  0  0  0  0
  -32.4430    7.4350   -7.8200 Br  0  0  0  0  0  0
  -34.7980    6.1970   -8.8790 C   0  0  0  0  0  0
  -36.0950    6.1310   -9.3570 C   0  0  0  0  0  0
  -36.8410    7.3110   -9.4450 C   0  0  0  0  0  0
  -38.1400    7.2360   -9.9200 C   0  0  0  0  0  0
  -38.8900    6.1680   -9.2230 N   0  3  0  0  0  0
  -40.3410    6.3200   -9.4140 C   0  0  1  0  0  0
  -41.1250    5.0500   -8.9970 C   0  0  2  0  0  0
  -41.6400    4.3720  -10.1560 O   0  0  0  0  0  0
  -42.2790    5.5470   -8.1610 C   0  0  1  0  0  0
  -42.5110    4.5410   -7.2020 O   0  0  0  0  0  0
  -41.6940    6.7800   -7.4540 C   0  0  2  0  0  0
  -42.6930    7.7100   -6.9550 O   0  0  0  0  0  0
  -40.8900    7.4630   -8.5450 C   0  0  1  0  0  0
  -39.7460    8.2340   -7.9050 C   0  0  0  0  0  0
  -40.2490    9.4990   -7.5830 O   0  0  0  0  0  0
  -36.8969    9.4516   -9.1352 H   0  0  0  0  0  0
  -34.5600    9.5549   -8.2503 H   0  0  0  0  0  0
  -34.2023    5.2870   -8.8078 H   0  0  0  0  0  0
  -36.5273    5.1772   -9.6593 H   0  0  0  0  0  0
  -38.6484    8.1966   -9.7504 H   0  0  0  0  0  0
  -38.1243    7.0147  -10.9974 H   0  0  0  0  0  0
  -38.5861    5.1880   -9.6195 H   0  0  0  0  0  0
  -38.6730    6.2109   -8.1455 H   0  0  0  0  0  0
  -40.4271    6.5235  -10.4916 H   0  0  0  0  0  0
  -40.5114    4.2949   -8.4839 H   0  0  0  0  0  0
  -40.9475    3.9365  -10.8914 H   0  0  0  0  0  0
  -43.2309    5.7175   -8.6853 H   0  0  0  0  0  0
  -42.9312    3.5726   -7.5114 H   0  0  0  0  0  0
  -41.1447    6.5124   -6.5393 H   0  0  0  0  0  0
  -43.3808    7.4009   -6.1542 H   0  0  0  0  0  0
  -41.4911    8.1764   -9.1279 H   0  0  0  0  0  0
  -39.4070    7.7048   -7.0022 H   0  0  0  0  0  0
  -38.9125    8.3128   -8.6185 H   0  0  0  0  0  0
  -39.5974   10.2442   -7.1033 H   0  0  0  0  0  0
  1  2  2  0  0  0
  1  7  1  0  0  0
  1 20  1  0  0  0
  2  3  1  0  0  0
  2 21  1  0  0  0
  3  4  1  0  0  0
  3  5  2  0  0  0
  5  6  1  0  0  0
  5 22  1  0  0  0
  6  7  2  0  0  0
  6 23  1  0  0  0
  7  8  1  0  0  0
  8  9  1  0  0  0
  8 24  1  0  0  0
  8 25  1  0  0  0
  9 10  1  0  0  0
  9 26  1  0  0  0
  9 27  1  0  0  0
 10 11  1  0  0  0
 10 17  1  0  0  0
 10 28  1  0  0  0
 11 12  1  0  0  0
 11 13  1  0  0  0
 11 29  1  0  0  0
 12 30  1  0  0  0
 13 14  1  0  0  0
 13 15  1  0  0  0
 13 31  1  0  0  0
 14 32  1  0  0  0
 15 16  1  0  0  0
 15 17  1  0  0  0
 15 33  1  0  0  0
 16 34  1  0  0  0
 17 18  1  0  0  0
 17 35  1  0  0  0
 18 19  1  0  0  0
 18 36  1  0  0  0
 18 37  1  0  0  0
 19 38  1  0  0  0
M  CHG  1   9   1
M  END
> <s_m_source_file>
../3zj8_ligand.sdf

> <i_m_source_file_index>
1

> <s_epik_input>
QnJjMVtjSF1bY0hdYyhbY0hdW2NIXTEpW0NIMl1bTkgyK11bQ0BIXTJbQ0BIXShbT0hdKVtDQEBIXShbT0hdKVtDQEhdKFtPSF0pW0NASF0yW0NIMl1bT0hd

> <s_epik_cmdline>
J2VwaWtfYXBwJywgJy1pbWFlJywgJ2xpZ2FuZF9wcm8ubWFlJywgJy1vbWFlJywgJ2xpZ2FuZF9wcmVwLm1hZScsICctbXMnLCAnMScsICctcGgnLCAnNycsICctcGh0JywgJzAuNScsICctbnQn

> <r_epik_Ionization_Penalty>
  0.0220

> <r_epik_Ionization_Penalty_Charging>
  0.0220

> <r_epik_Ionization_Penalty_Neutral>
  0.0000

> <r_epik_State_Penalty>
  0.0177

> <r_epik_Charging_Adjusted_Penalty>
0.0396741876195301

> <i_epik_Tot_Q>
1

> <i_epik_Tot_abs_Q>
1

$$$$
