3zjc_ligand
                    3D
 Schrodinger Suite 2020-3.
 46 48  0  0  1  0            999 V2000
    4.4850   -9.5310    6.1510 P   0  0  0  0  0  0
    3.4450   -8.6390    5.5240 O   0  0  0  0  0  0
    5.7060   -8.7970    6.6450 O   0  5  0  0  0  0
    4.0170  -10.4080    7.2890 O   0  0  0  0  0  0
    4.9240  -10.5340    5.0150 N   0  0  1  0  0  0
    5.3450   -9.9360    3.6200 P   0  0  1  0  0  0
    4.1430   -9.6860    2.7990 O   0  0  0  0  0  0
    6.2210   -8.7870    3.9420 O   0  5  0  0  0  0
    6.1920  -10.9610    2.8880 O   0  0  0  0  0  0
    7.6860  -10.7410    2.7130 P   0  0  1  0  0  0
    7.8780   -9.5740    1.8170 O   0  5  0  0  0  0
    8.3420  -10.6860    4.0410 O   0  0  0  0  0  0
    8.2570  -12.0100    1.9580 O   0  0  0  0  0  0
    7.7630  -13.3220    2.2240 C   0  0  0  0  0  0
    8.6040  -14.3320    1.4700 C   0  0  1  0  0  0
    8.0390  -14.5080    0.1510 O   0  0  0  0  0  0
   10.0560  -13.9000    1.2920 C   0  0  1  0  0  0
   10.9190  -14.7200    2.0700 O   0  0  0  0  0  0
   10.3620  -14.0500   -0.1970 C   0  0  1  0  0  0
   11.4370  -14.9410   -0.4390 O   0  0  0  0  0  0
    9.0660  -14.5820   -0.8130 C   0  0  2  0  0  0
    8.6690  -13.8130   -1.9860 N   0  0  0  0  0  0
    8.0330  -12.5960   -2.0300 C   0  0  0  0  0  0
    7.8280  -12.1700   -3.2470 N   0  0  0  0  0  0
    8.3640  -13.1670   -4.0530 C   0  0  0  0  0  0
    8.4410  -13.2740   -5.4600 C   0  0  0  0  0  0
    8.0350  -12.4750   -6.3110 O   0  0  0  0  0  0
    9.0660  -14.4520   -5.8570 N   0  3  0  0  0  0
    9.5560  -15.4090   -4.9980 C   0  0  0  0  0  0
   10.1290  -16.4860   -5.5550 N   0  0  0  0  0  0
    9.4910  -15.3230   -3.6820 N   0  0  0  0  0  0
    8.8850  -14.1810   -3.2880 C   0  0  0  0  0  0
    3.6515   -9.9516    8.2207 H   0  0  0  0  0  0
    5.7974  -11.1111    5.3529 H   0  0  0  0  0  0
    7.8222  -13.5242    3.3036 H   0  0  0  0  0  0
    6.7159  -13.3934    1.8945 H   0  0  0  0  0  0
    8.5695  -15.2802    2.0265 H   0  0  0  0  0  0
   10.2599  -12.8896    1.6761 H   0  0  0  0  0  0
   10.8290  -14.7284    3.1663 H   0  0  0  0  0  0
   10.7445  -13.1259   -0.6550 H   0  0  0  0  0  0
   12.4427  -14.7050   -0.0609 H   0  0  0  0  0  0
    9.1638  -15.6326   -1.1240 H   0  0  0  0  0  0
    7.7307  -12.0431   -1.1406 H   0  0  0  0  0  0
   10.1906  -16.5718   -6.6499 H   0  0  0  0  0  0
   10.5374  -17.2836   -4.9170 H   0  0  0  0  0  0
    9.1974  -14.6714   -6.9269 H   0  0  0  0  0  0
  1  2  2  0  0  0
  1  3  1  0  0  0
  1  4  1  0  0  0
  1  5  1  0  0  0
  4 33  1  0  0  0
  5  6  1  0  0  0
  5 34  1  0  0  0
  6  7  2  0  0  0
  6  8  1  0  0  0
  6  9  1  0  0  0
  9 10  1  0  0  0
 10 11  1  0  0  0
 10 12  2  0  0  0
 10 13  1  0  0  0
 13 14  1  0  0  0
 14 15  1  0  0  0
 14 35  1  0  0  0
 14 36  1  0  0  0
 15 16  1  0  0  0
 15 17  1  0  0  0
 15 37  1  0  0  0
 16 21  1  0  0  0
 17 18  1  0  0  0
 17 19  1  0  0  0
 17 38  1  0  0  0
 18 39  1  0  0  0
 19 20  1  0  0  0
 19 21  1  0  0  0
 19 40  1  0  0  0
 20 41  1  0  0  0
 21 22  1  0  0  0
 21 42  1  0  0  0
 22 23  1  0  0  0
 22 32  1  0  0  0
 23 24  2  0  0  0
 23 43  1  0  0  0
 24 25  1  0  0  0
 25 26  1  0  0  0
 25 32  2  0  0  0
 26 27  2  0  0  0
 26 28  1  0  0  0
 28 29  1  0  0  0
 28 46  1  0  0  0
 29 30  1  0  0  0
 29 31  2  0  0  0
 30 44  1  0  0  0
 30 45  1  0  0  0
 31 32  1  0  0  0
M  CHG  4   3  -1   8  -1  11  -1  28   1
M  END
> <s_m_source_file>
../3zjc_ligand.sdf

> <i_m_source_file_index>
1

> <s_epik_input>
Tz1QKFtPSF0pKFtPSF0pW05IXVtQQEBdKD1PKShbT0hdKU9bUEBdKD1PKShbT0hdKU9bQ0gyXVtDQEhdMU9bQ0BIXShbQ0BIXShbT0hdKVtDQEBIXTFbT0hdKW4oW2NIXW4yKWMoYzIzKVtuSF1jKD1OXFtIXSlcW25IXWMzPU8=

> <s_epik_cmdline>
J2VwaWtfYXBwJywgJy1pbWFlJywgJ2xpZ2FuZF9wcm8ubWFlJywgJy1vbWFlJywgJ2xpZ2FuZF9wcmVwLm1hZScsICctbXMnLCAnMScsICctcGgnLCAnNycsICctcGh0JywgJzAuNScsICctbnQn

> <r_lp_tautomer_probability>
1

> <r_epik_Ionization_Penalty>
  2.8872

> <r_epik_Ionization_Penalty_Charging>
  2.3888

> <r_epik_Ionization_Penalty_Neutral>
  0.4985

> <r_epik_State_Penalty>
 -0.0000

> <r_epik_Charging_Adjusted_Penalty>
2.3887781483746

> <i_epik_Tot_Q>
-2

> <i_epik_Tot_abs_Q>
4

> <s_epik_Chemistry_Notes>
This compound has an imine and may undergo hydrolysis. This compound contains an acetal/aminal-like group ( X-CH(R)-Y where X, Y are N, S, or O) that may be acid/base labile, releasing an aldehyde.

$$$$
