3zjt_ligand
                    3D
 Schrodinger Suite 2020-3.
 54 59  0  0  1  0            999 V2000
   28.6000   27.3910   32.3800 B   0  5  0  0  0  0
   21.6260   27.0840   31.9140 P   0  0  0  0  0  0
   24.2470   33.7920   28.4730 N   0  0  0  0  0  0
   24.6620   32.6650   27.8650 C   0  0  0  0  0  0
   25.1260   31.6450   28.5960 N   0  0  0  0  0  0
   25.1790   31.7110   29.9450 C   0  0  0  0  0  0
   24.7510   32.8610   30.5920 C   0  0  0  0  0  0
   24.2620   33.9090   29.8300 C   0  0  0  0  0  0
   23.8260   35.0430   30.4340 N   0  0  0  0  0  0
   24.9340   32.6940   31.9100 N   0  0  0  0  0  0
   25.4370   31.4540   32.0750 C   0  0  0  0  0  0
   25.5670   30.8400   30.8770 N   0  0  0  0  0  0
   26.2620   29.5400   30.6460 C   0  0  1  0  0  0
   30.9550   26.7680   32.9290 C   0  0  1  0  0  0
   30.2940   25.7470   32.0750 C   0  0  0  0  0  0
   28.9960   26.0850   31.7640 C   0  0  0  0  0  0
   30.8630   24.5660   31.5850 C   0  0  0  0  0  0
   30.0880   23.7210   30.7910 C   0  0  0  0  0  0
   28.7710   24.0590   30.4800 C   0  0  0  0  0  0
   28.2120   25.2510   30.9750 C   0  0  0  0  0  0
   31.9550   27.5830   32.0860 C   0  0  0  0  0  0
   31.3000   28.2190   30.9480 N   0  3  0  0  0  0
   27.2420   29.3220   31.8120 C   0  0  2  0  0  0
   28.3830   28.5410   31.4480 O   0  0  0  0  0  0
   26.4800   28.4650   32.8020 C   0  0  2  0  0  0
   27.3730   27.4650   33.2660 O   0  0  0  0  0  0
   25.4370   27.7930   31.9390 C   0  0  2  0  0  0
   25.4140   28.4330   30.6680 O   0  0  0  0  0  0
   24.0450   27.9110   32.5160 C   0  0  0  0  0  0
   23.1950   27.2890   31.5730 O   0  0  0  0  0  0
   21.4100   27.5620   33.3260 O   0  0  0  0  0  0
   21.2120   25.7140   31.4680 O   0  5  0  0  0  0
   29.8890   27.6890   33.1990 O   0  0  0  0  0  0
   20.8439   27.6562   31.3935 H   0  0  0  0  0  0
   24.6203   32.5840   26.7848 H   0  0  0  0  0  0
   23.4378   35.8747   29.8277 H   0  0  0  0  0  0
   23.8607   35.1307   31.5300 H   0  0  0  0  0  0
   25.7005   31.0109   33.0342 H   0  0  0  0  0  0
   26.6676   29.5580   29.6237 H   0  0  0  0  0  0
   31.4110   26.3196   33.8240 H   0  0  0  0  0  0
   31.8905   24.3119   31.8190 H   0  0  0  0  0  0
   30.5112   22.7971   30.4137 H   0  0  0  0  0  0
   28.1770   23.4016   29.8555 H   0  0  0  0  0  0
   27.1862   25.5152   30.7449 H   0  0  0  0  0  0
   32.4074   28.3673   32.7107 H   0  0  0  0  0  0
   32.7434   26.9164   31.7064 H   0  0  0  0  0  0
   32.0416   28.7904   30.3705 H   0  0  0  0  0  0
   30.5143   28.8985   31.3099 H   0  0  0  0  0  0
   30.8503   27.4475   30.3057 H   0  0  0  0  0  0
   27.6466   30.2781   32.1756 H   0  0  0  0  0  0
   26.0892   28.9854   33.6889 H   0  0  0  0  0  0
   25.7121   26.7353   31.8140 H   0  0  0  0  0  0
   24.0075   27.4014   33.4901 H   0  0  0  0  0  0
   23.7916   28.9732   32.6479 H   0  0  0  0  0  0
  1 16  1  0  0  0
  1 24  1  0  0  0
  1 26  1  0  0  0
  1 33  1  0  0  0
  2 30  1  0  0  0
  2 31  2  0  0  0
  2 32  1  0  0  0
  2 34  1  0  0  0
  3  4  1  0  0  0
  3  8  2  0  0  0
  4  5  2  0  0  0
  4 35  1  0  0  0
  5  6  1  0  0  0
  6  7  2  0  0  0
  6 12  1  0  0  0
  7  8  1  0  0  0
  7 10  1  0  0  0
  8  9  1  0  0  0
  9 36  1  0  0  0
  9 37  1  0  0  0
 10 11  2  0  0  0
 11 12  1  0  0  0
 11 38  1  0  0  0
 12 13  1  0  0  0
 13 23  1  0  0  0
 13 28  1  0  0  0
 13 39  1  0  0  0
 14 15  1  0  0  0
 14 21  1  0  0  0
 14 33  1  0  0  0
 14 40  1  0  0  0
 15 16  1  0  0  0
 15 17  2  0  0  0
 16 20  2  0  0  0
 17 18  1  0  0  0
 17 41  1  0  0  0
 18 19  2  0  0  0
 18 42  1  0  0  0
 19 20  1  0  0  0
 19 43  1  0  0  0
 20 44  1  0  0  0
 21 22  1  0  0  0
 21 45  1  0  0  0
 21 46  1  0  0  0
 22 47  1  0  0  0
 22 48  1  0  0  0
 22 49  1  0  0  0
 23 24  1  0  0  0
 23 25  1  0  0  0
 23 50  1  0  0  0
 25 26  1  0  0  0
 25 27  1  0  0  0
 25 51  1  0  0  0
 27 28  1  0  0  0
 27 29  1  0  0  0
 27 52  1  0  0  0
 29 30  1  0  0  0
 29 53  1  0  0  0
 29 54  1  0  0  0
M  CHG  3   1  -1  22   1  32  -1
M  END
> <s_m_source_file>
../3zjt_ligand.sdf

> <i_m_source_file_index>
1

> <s_epik_input>
W2NIXTFbY0hdW2NIXVtjSF1jKFtDQEhdKE8yKVtDSDJdW05IMytdKWMxW0ItXTIzT1tDQEBIXTRbQ0BIXShPMylbQ0BASF0oW0NIMl1PW1BIXSg9TylbTy1dKU9bQ0BIXTRuNVtjSF1uYyhjNTYpYyhbTkgyXSluW2NIXW42

> <s_epik_cmdline>
J2VwaWtfYXBwJywgJy1pbWFlJywgJ2xpZ2FuZF9wcm8ubWFlJywgJy1vbWFlJywgJ2xpZ2FuZF9wcmVwLm1hZScsICctbXMnLCAnMScsICctcGgnLCAnNycsICctcGh0JywgJzAuNScsICctbnQn

> <r_lp_tautomer_probability>
0.999997216410988

> <r_epik_Ionization_Penalty>
  0.0197

> <r_epik_Ionization_Penalty_Charging>
  0.0191

> <r_epik_Ionization_Penalty_Neutral>
  0.0006

> <r_epik_State_Penalty>
  0.0152

> <r_epik_Charging_Adjusted_Penalty>
0.0342942050578714

> <i_epik_Tot_Q>
-1

> <i_epik_Tot_abs_Q>
3

> <s_epik_Chemistry_Notes>
This compound contains an acetal/aminal-like group ( X-CH(R)-Y where X, Y are N, S, or O) that may be acid/base labile, releasing an aldehyde.

$$$$
