3zju_ligand
                    3D
 Schrodinger Suite 2020-3.
 59 64  0  0  1  0            999 V2000
   28.6260   27.8430   33.2230 B   0  5  0  0  0  0
   22.0150   27.5550   32.4090 P   0  0  0  0  0  0
   24.2560   34.3610   29.2690 N   0  0  0  0  0  0
   29.5940   28.5610   34.1650 O   0  0  0  0  0  0
   24.8360   33.3630   28.5630 C   0  0  0  0  0  0
   25.3400   32.2810   29.1700 N   0  0  0  0  0  0
   25.2690   32.1450   30.5270 C   0  0  0  0  0  0
   24.6410   33.1360   31.2530 C   0  0  0  0  0  0
   24.1430   34.2720   30.6040 C   0  0  0  0  0  0
   23.5220   35.2810   31.2830 N   0  0  0  0  0  0
   24.6950   32.7620   32.5300 N   0  0  0  0  0  0
   25.3340   31.5630   32.6170 C   0  0  0  0  0  0
   25.6630   31.1740   31.3890 N   0  0  0  0  0  0
   26.4690   29.9690   31.0870 C   0  0  1  0  0  0
   30.8820   27.9160   34.2490 C   0  0  0  0  0  0
   30.6880   26.6960   33.3710 C   0  0  0  0  0  0
   29.4340   26.6450   32.7970 C   0  0  0  0  0  0
   31.6490   25.6950   33.1720 C   0  0  0  0  0  0
   31.3220   24.5960   32.3660 C   0  0  0  0  0  0
   30.0500   24.5230   31.7780 C   0  0  0  0  0  0
   29.0820   25.5370   32.0040 C   0  0  0  0  0  0
   27.8600   25.3830   31.3970 O   0  0  0  0  0  0
   27.7580   24.3310   30.4170 C   0  0  0  0  0  0
   26.3120   23.9850   30.1000 C   0  0  0  0  0  0
   27.1780   29.5810   32.3790 C   0  0  2  0  0  0
   28.3950   28.9120   32.1380 O   0  0  0  0  0  0
   25.6900   25.0520   29.2060 C   0  0  0  0  0  0
   24.2930   25.1170   29.5060 O   0  0  0  0  0  0
   26.3920   28.4430   32.9640 C   0  0  2  0  0  0
   27.3630   27.6260   33.6070 O   0  0  0  0  0  0
   25.8750   27.8030   31.6790 C   0  0  2  0  0  0
   25.7070   28.8490   30.7060 O   0  0  0  0  0  0
   24.5430   27.0990   31.8700 C   0  0  0  0  0  0
   23.5290   28.0490   32.1870 O   0  0  0  0  0  0
   21.7590   26.1730   31.8830 O   0  0  0  0  0  0
   21.6860   27.8760   33.8400 O   0  5  0  0  0  0
   21.2197   28.0404   31.8243 H   0  0  0  0  0  0
   24.8939   33.4410   27.4834 H   0  0  0  0  0  0
   23.1434   36.1587   30.7386 H   0  0  0  0  0  0
   23.4004   35.2161   32.3743 H   0  0  0  0  0  0
   25.5404   31.0159   33.5357 H   0  0  0  0  0  0
   27.0919   30.1887   30.2074 H   0  0  0  0  0  0
   31.6586   28.5974   33.8713 H   0  0  0  0  0  0
   31.0965   27.6606   35.2972 H   0  0  0  0  0  0
   32.6272   25.7696   33.6331 H   0  0  0  0  0  0
   32.0468   23.8077   32.1980 H   0  0  0  0  0  0
   29.8028   23.6805   31.1422 H   0  0  0  0  0  0
   28.2468   24.6499   29.4846 H   0  0  0  0  0  0
   28.2518   23.4252   30.7987 H   0  0  0  0  0  0
   26.2723   23.0164   29.5802 H   0  0  0  0  0  0
   25.7363   23.9231   31.0353 H   0  0  0  0  0  0
   27.3549   30.4838   32.9821 H   0  0  0  0  0  0
   26.1680   26.0223   29.4062 H   0  0  0  0  0  0
   25.8406   24.7798   28.1509 H   0  0  0  0  0  0
   23.6479   25.8286   28.9699 H   0  0  0  0  0  0
   25.6228   28.6409   33.7251 H   0  0  0  0  0  0
   26.6067   27.0720   31.3046 H   0  0  0  0  0  0
   24.2694   26.5743   30.9428 H   0  0  0  0  0  0
   24.6268   26.3723   32.6915 H   0  0  0  0  0  0
  1  4  1  0  0  0
  1 17  1  0  0  0
  1 26  1  0  0  0
  1 30  1  0  0  0
  2 34  1  0  0  0
  2 35  2  0  0  0
  2 36  1  0  0  0
  2 37  1  0  0  0
  3  5  1  0  0  0
  3  9  2  0  0  0
  4 15  1  0  0  0
  5  6  2  0  0  0
  5 38  1  0  0  0
  6  7  1  0  0  0
  7  8  2  0  0  0
  7 13  1  0  0  0
  8  9  1  0  0  0
  8 11  1  0  0  0
  9 10  1  0  0  0
 10 39  1  0  0  0
 10 40  1  0  0  0
 11 12  2  0  0  0
 12 13  1  0  0  0
 12 41  1  0  0  0
 13 14  1  0  0  0
 14 25  1  0  0  0
 14 32  1  0  0  0
 14 42  1  0  0  0
 15 16  1  0  0  0
 15 43  1  0  0  0
 15 44  1  0  0  0
 16 17  1  0  0  0
 16 18  2  0  0  0
 17 21  2  0  0  0
 18 19  1  0  0  0
 18 45  1  0  0  0
 19 20  2  0  0  0
 19 46  1  0  0  0
 20 21  1  0  0  0
 20 47  1  0  0  0
 21 22  1  0  0  0
 22 23  1  0  0  0
 23 24  1  0  0  0
 23 48  1  0  0  0
 23 49  1  0  0  0
 24 27  1  0  0  0
 24 50  1  0  0  0
 24 51  1  0  0  0
 25 26  1  0  0  0
 25 29  1  0  0  0
 25 52  1  0  0  0
 27 28  1  0  0  0
 27 53  1  0  0  0
 27 54  1  0  0  0
 28 55  1  0  0  0
 29 30  1  0  0  0
 29 31  1  0  0  0
 29 56  1  0  0  0
 31 32  1  0  0  0
 31 33  1  0  0  0
 31 57  1  0  0  0
 33 34  1  0  0  0
 33 58  1  0  0  0
 33 59  1  0  0  0
M  CHG  2   1  -1  36  -1
M  END
> <s_m_source_file>
../3zju_ligand.sdf

> <i_m_source_file_index>
1

> <s_epik_input>
W09IXVtDSDJdW0NIMl1bQ0gyXU9jMVtjSF1bY0hdW2NIXWMoW0NIMl1PMiljMVtCLV0yM09bQ0BASF00W0NASF0oTzMpW0NAQEhdKFtDSDJdT1tQSF0oPU8pW08tXSlPW0NASF00bjVbY0hdbmMoYzU2KWMoW05IMl0pbltjSF1uNg==

> <s_epik_cmdline>
J2VwaWtfYXBwJywgJy1pbWFlJywgJ2xpZ2FuZF9wcm8ubWFlJywgJy1vbWFlJywgJ2xpZ2FuZF9wcmVwLm1hZScsICctbXMnLCAnMScsICctcGgnLCAnNycsICctcGh0JywgJzAuNScsICctbnQn

> <r_lp_tautomer_probability>
1

> <r_epik_Ionization_Penalty>
  0.0006

> <r_epik_Ionization_Penalty_Charging>
  0.0000

> <r_epik_Ionization_Penalty_Neutral>
  0.0006

> <r_epik_State_Penalty>
 -0.0000

> <r_epik_Charging_Adjusted_Penalty>
4.72278145671342e-06

> <i_epik_Tot_Q>
-2

> <i_epik_Tot_abs_Q>
2

> <s_epik_Chemistry_Notes>
This compound contains an acetal/aminal-like group ( X-CH(R)-Y where X, Y are N, S, or O) that may be acid/base labile, releasing an aldehyde.

$$$$
