3zjv_ligand
                    3D
 Schrodinger Suite 2020-3.
 65 70  0  0  1  0            999 V2000
   52.5130  -19.4390   32.7400 O   0  5  0  0  0  0
   53.6970  -26.6350   32.8890 B   0  0  0  0  0  0
   51.6520  -20.0430   31.6710 P   0  0  0  0  0  0
   57.0390  -22.0300   26.3200 N   0  0  0  0  0  0
   54.5700  -27.5530   33.5350 O   0  0  0  0  0  0
   55.9640  -22.8450   26.2920 C   0  0  0  0  0  0
   55.4450  -23.4000   27.3980 N   0  0  0  0  0  0
   56.0370  -23.1260   28.5750 C   0  0  0  0  0  0
   57.1260  -22.2690   28.6390 C   0  0  0  0  0  0
   57.6370  -21.7220   27.4830 C   0  0  0  0  0  0
   58.7030  -20.8850   27.5340 N   0  0  0  0  0  0
   57.4970  -22.1590   29.9240 N   0  0  0  0  0  0
   56.6530  -22.9360   30.6300 C   0  0  0  0  0  0
   55.7630  -23.5270   29.8100 N   0  0  0  0  0  0
   54.6740  -24.4820   30.1380 C   0  0  1  0  0  0
   53.9910  -28.8400   33.7900 C   0  0  1  0  0  0
   52.5840  -28.6410   33.4160 C   0  0  0  0  0  0
   52.3980  -27.3360   32.8260 C   0  0  0  0  0  0
   51.5460  -29.5510   33.5280 C   0  0  0  0  0  0
   50.2840  -29.1690   33.0910 C   0  0  0  0  0  0
   51.1250  -26.9810   32.3970 C   0  0  0  0  0  0
   54.5870  -29.8830   32.8600 C   0  0  0  0  0  0
   54.6070  -29.4090   31.4690 N   0  3  0  0  0  0
   50.8680  -25.7550   31.8410 O   0  0  0  0  0  0
   50.1400  -19.8390   31.7360 O   0  5  0  0  0  0
   54.9430  -25.2440   31.4160 C   0  0  2  0  0  0
   54.1800  -26.4670   31.5610 O   0  0  0  0  0  0
   49.5120  -25.3010   31.7520 C   0  0  0  0  0  0
   49.4530  -24.0050   30.9730 C   0  0  0  0  0  0
   48.8370  -24.2660   29.6090 C   0  0  0  0  0  0
   48.0220  -23.1440   29.2670 O   0  0  0  0  0  0
   54.3510  -24.3650   32.4670 C   0  0  2  0  0  0
   53.8370  -25.3000   33.3860 O   0  0  0  0  0  0
   53.2540  -23.5950   31.7510 C   0  0  2  0  0  0
   53.4260  -23.8390   30.3420 O   0  0  0  0  0  0
   53.2530  -22.1030   31.9740 C   0  0  0  0  0  0
   52.0350  -21.5680   31.4250 O   0  0  0  0  0  0
   52.0576  -19.3255   30.4297 O   0  0  0  0  0  0
   50.0764  -27.8276   32.5267 C   0  0  0  0  0  0
   55.5003  -23.0604   25.3362 H   0  0  0  0  0  0
   59.1066  -20.4513   26.6072 H   0  0  0  0  0  0
   59.1640  -20.6399   28.5022 H   0  0  0  0  0  0
   56.6857  -23.0676   31.7105 H   0  0  0  0  0  0
   54.5893  -25.1254   29.2498 H   0  0  0  0  0  0
   54.1469  -29.1376   34.8374 H   0  0  0  0  0  0
   51.7142  -30.5368   33.9463 H   0  0  0  0  0  0
   49.4522  -29.8601   33.1661 H   0  0  0  0  0  0
   55.6193  -30.1031   33.1695 H   0  0  0  0  0  0
   53.9859  -30.8030   32.9076 H   0  0  0  0  0  0
   55.0432  -30.1854   30.8233 H   0  0  0  0  0  0
   55.2131  -28.4935   31.4023 H   0  0  0  0  0  0
   53.5796  -29.1933   31.1403 H   0  0  0  0  0  0
   56.0070  -25.5179   31.4697 H   0  0  0  0  0  0
   48.9039  -26.0607   31.2391 H   0  0  0  0  0  0
   49.1139  -25.1346   32.7638 H   0  0  0  0  0  0
   48.8384  -23.2755   31.5209 H   0  0  0  0  0  0
   50.4704  -23.6062   30.8471 H   0  0  0  0  0  0
   49.6363  -24.3944   28.8642 H   0  0  0  0  0  0
   48.2254  -25.1793   29.6516 H   0  0  0  0  0  0
   47.4798  -23.1294   28.3100 H   0  0  0  0  0  0
   55.0153  -23.6844   33.0198 H   0  0  0  0  0  0
   52.2815  -23.9616   32.1115 H   0  0  0  0  0  0
   53.3060  -21.8935   33.0526 H   0  0  0  0  0  0
   54.1231  -21.6564   31.4706 H   0  0  0  0  0  0
   49.0858  -27.5168   32.2151 H   0  0  0  0  0  0
  1  3  1  0  0  0
  2  5  1  0  0  0
  2 27  1  0  0  0
  2 33  1  0  0  0
  2 18  1  0  0  0
  3 25  1  0  0  0
  3 37  1  0  0  0
  3 38  2  0  0  0
  4  6  2  0  0  0
  4 10  1  0  0  0
  5 16  1  0  0  0
  6  7  1  0  0  0
  6 40  1  0  0  0
  7  8  2  0  0  0
  8  9  1  0  0  0
  8 14  1  0  0  0
  9 10  2  0  0  0
  9 12  1  0  0  0
 10 11  1  0  0  0
 11 41  1  0  0  0
 11 42  1  0  0  0
 12 13  2  0  0  0
 13 14  1  0  0  0
 13 43  1  0  0  0
 14 15  1  0  0  0
 15 26  1  0  0  0
 15 35  1  0  0  0
 15 44  1  0  0  0
 16 17  1  0  0  0
 16 22  1  0  0  0
 16 45  1  0  0  0
 17 18  2  0  0  0
 17 19  1  0  0  0
 18 21  1  0  0  0
 19 20  2  0  0  0
 19 46  1  0  0  0
 20 39  1  0  0  0
 20 47  1  0  0  0
 21 24  1  0  0  0
 21 39  2  0  0  0
 22 23  1  0  0  0
 22 48  1  0  0  0
 22 49  1  0  0  0
 23 50  1  0  0  0
 23 51  1  0  0  0
 23 52  1  0  0  0
 24 28  1  0  0  0
 26 27  1  0  0  0
 26 32  1  0  0  0
 26 53  1  0  0  0
 28 29  1  0  0  0
 28 54  1  0  0  0
 28 55  1  0  0  0
 29 30  1  0  0  0
 29 56  1  0  0  0
 29 57  1  0  0  0
 30 31  1  0  0  0
 30 58  1  0  0  0
 30 59  1  0  0  0
 31 60  1  0  0  0
 32 33  1  0  0  0
 32 34  1  0  0  0
 32 61  1  0  0  0
 34 35  1  0  0  0
 34 36  1  0  0  0
 34 62  1  0  0  0
 36 37  1  0  0  0
 36 63  1  0  0  0
 36 64  1  0  0  0
 39 65  1  0  0  0
M  CHG  3   1  -1  23   1  25  -1
M  END
> <s_m_source_file>
../3zjv_ligand.sdf

> <i_m_source_file_index>
1

> <s_epik_input>
bjFbY0hdbmMoW05IMl0pYyhjMTIpbltjSF1uMltDQEBIXTNPW0NASF0oW0NIMl1PUChbTy1dKShbTy1dKT1PKVtDQEBIXShPNClbQ0BIXTNPW0JdNDVjNmMoW0NASF0oTzUpW0NIMl1bTkgzK10pW2NIXVtjSF1bY0hdYzZPW0NIMl1bQ0gyXVtDSDJdW09IXQ==

> <s_epik_cmdline>
J2VwaWtfYXBwJywgJy1pbWFlJywgJ2xpZ2FuZF9wcm8ubWFlJywgJy1vbWFlJywgJ2xpZ2FuZF9wcmVwLm1hZScsICctbXMnLCAnMScsICctcGgnLCAnNycsICctcGh0JywgJzAuNScsICctbnQn

> <r_lp_tautomer_probability>
1

> <r_epik_Ionization_Penalty>
  0.1156

> <r_epik_Ionization_Penalty_Charging>
  0.1150

> <r_epik_Ionization_Penalty_Neutral>
  0.0006

> <r_epik_State_Penalty>
 -0.0000

> <r_epik_Charging_Adjusted_Penalty>
0.11497244912158

> <i_epik_Tot_Q>
-1

> <i_epik_Tot_abs_Q>
3

> <s_epik_Chemistry_Notes>
This compound contains an acetal/aminal-like group ( X-CH(R)-Y where X, Y are N, S, or O) that may be acid/base labile, releasing an aldehyde.

$$$$
