3zk6_ligand
                    3D
 Schrodinger Suite 2020-3.
 70 74  0  0  1  0            999 V2000
   30.7200   50.0570   -4.1500 C   0  0  0  0  0  0
   30.0050   48.8680   -4.2080 C   0  0  0  0  0  0
   28.9950   48.6220   -3.2860 C   0  0  0  0  0  0
   28.6870   49.5600   -2.3090 C   0  0  0  0  0  0
   29.3850   50.7590   -2.2610 C   0  0  0  0  0  0
   30.4020   51.0010   -3.1820 C   0  0  0  0  0  0
   28.9070   51.5040   -1.2270 N   0  0  0  0  0  0
   27.9280   50.8200   -0.6180 C   0  0  0  0  0  0
   27.4550   49.2490   -1.1810 S   0  0  0  0  0  0
   27.2740   51.3280    0.4260 N   0  0  0  0  0  0
   26.3240   50.5760    0.9220 N   0  0  0  0  0  0
   25.6950   50.9540    1.9340 C   0  0  0  0  0  0
   25.9260   52.2890    2.5610 C   0  0  0  0  0  0
   24.6210   50.1110    2.4470 C   0  0  0  0  0  0
   23.9950   49.9080    3.6590 C   0  0  0  0  0  0
   23.0240   48.9530    3.3670 C   0  0  0  0  0  0
   23.1170   48.6270    2.0090 C   0  0  0  0  0  0
   24.1180   49.3540    1.4410 O   0  0  0  0  0  0
   22.2780   47.6810    1.2350 C   0  0  0  0  0  0
   22.8400   46.9650    0.1930 C   0  0  0  0  0  0
   22.0330   46.1130   -0.5410 C   0  0  0  0  0  0
   20.6790   45.9720   -0.2580 C   0  0  0  0  0  0
   20.0910   46.7220    0.7640 C   0  0  0  0  0  0
   20.9130   47.5770    1.5100 C   0  0  0  0  0  0
   18.5260   46.5680    1.1110 S   0  0  0  0  0  0
   17.9090   45.6630    0.1930 O   0  0  0  0  0  0
   18.3960   46.0230    2.4330 O   0  0  0  0  0  0
   17.7830   47.8840    1.0070 N   0  0  0  0  0  0
   17.8840   48.8250    1.9390 C   0  0  0  0  0  0
   18.5840   48.7180    2.9350 O   0  5  0  0  0  0
   17.0880   50.0890    1.7020 C   0  0  0  0  0  0
   15.6610   49.9220    2.2120 C   0  0  0  0  0  0
   15.1820   51.2400    2.8010 C   0  0  0  0  0  0
   13.7870   51.1320    3.4030 C   0  0  0  0  0  0
   13.4400   52.4000    4.1850 C   0  0  0  0  0  0
   12.0250   52.3110    4.7190 C   0  0  0  0  0  0
   11.0490   51.6290    4.0040 C   0  0  0  0  0  0
    9.7460   51.5520    4.4870 C   0  0  0  0  0  0
    9.4190   52.1580    5.6980 C   0  0  0  0  0  0
   10.3960   52.8420    6.4130 C   0  0  0  0  0  0
   11.6940   52.9170    5.9230 C   0  0  0  0  0  0
   31.5253   50.2482   -4.8593 H   0  0  0  0  0  0
   30.2356   48.1291   -4.9754 H   0  0  0  0  0  0
   28.4397   47.6851   -3.3298 H   0  0  0  0  0  0
   30.9535   51.9403   -3.1425 H   0  0  0  0  0  0
   27.4871   52.3106    0.8722 H   0  0  0  0  0  0
   26.7664   52.7898    2.0581 H   0  0  0  0  0  0
   26.1625   52.1573    3.6272 H   0  0  0  0  0  0
   25.0193   52.9035    2.4597 H   0  0  0  0  0  0
   24.2091   50.3819    4.6170 H   0  0  0  0  0  0
   22.3120   48.5309    4.0762 H   0  0  0  0  0  0
   23.8984   47.0699   -0.0454 H   0  0  0  0  0  0
   22.4687   45.5397   -1.3593 H   0  0  0  0  0  0
   20.0737   45.2735   -0.8358 H   0  0  0  0  0  0
   20.4808   48.1694    2.3165 H   0  0  0  0  0  0
   17.5628   50.9265    2.2341 H   0  0  0  0  0  0
   17.0599   50.3080    0.6244 H   0  0  0  0  0  0
   15.0054   49.6307    1.3782 H   0  0  0  0  0  0
   15.6375   49.1415    2.9868 H   0  0  0  0  0  0
   15.8721   51.5586    3.5962 H   0  0  0  0  0  0
   15.1537   52.0056    2.0117 H   0  0  0  0  0  0
   13.0498   50.9963    2.5980 H   0  0  0  0  0  0
   13.7478   50.2700    4.0853 H   0  0  0  0  0  0
   14.1376   52.5134    5.0279 H   0  0  0  0  0  0
   13.5214   53.2737    3.5217 H   0  0  0  0  0  0
   11.3051   51.1510    3.0585 H   0  0  0  0  0  0
    8.9834   51.0189    3.9192 H   0  0  0  0  0  0
    8.4013   52.0962    6.0835 H   0  0  0  0  0  0
   10.1432   53.3201    7.3594 H   0  0  0  0  0  0
   12.4563   53.4545    6.4870 H   0  0  0  0  0  0
  1  2  1  0  0  0
  1  6  2  0  0  0
  1 42  1  0  0  0
  2  3  2  0  0  0
  2 43  1  0  0  0
  3  4  1  0  0  0
  3 44  1  0  0  0
  4  5  2  0  0  0
  4  9  1  0  0  0
  5  6  1  0  0  0
  5  7  1  0  0  0
  6 45  1  0  0  0
  7  8  2  0  0  0
  8  9  1  0  0  0
  8 10  1  0  0  0
 10 11  1  0  0  0
 10 46  1  0  0  0
 11 12  2  0  0  0
 12 13  1  0  0  0
 12 14  1  0  0  0
 13 47  1  0  0  0
 13 48  1  0  0  0
 13 49  1  0  0  0
 14 15  2  0  0  0
 14 18  1  0  0  0
 15 16  1  0  0  0
 15 50  1  0  0  0
 16 17  2  0  0  0
 16 51  1  0  0  0
 17 18  1  0  0  0
 17 19  1  0  0  0
 19 20  2  0  0  0
 19 24  1  0  0  0
 20 21  1  0  0  0
 20 52  1  0  0  0
 21 22  2  0  0  0
 21 53  1  0  0  0
 22 23  1  0  0  0
 22 54  1  0  0  0
 23 24  2  0  0  0
 23 25  1  0  0  0
 24 55  1  0  0  0
 25 26  2  0  0  0
 25 27  2  0  0  0
 25 28  1  0  0  0
 28 29  2  0  0  0
 29 30  1  0  0  0
 29 31  1  0  0  0
 31 32  1  0  0  0
 31 56  1  0  0  0
 31 57  1  0  0  0
 32 33  1  0  0  0
 32 58  1  0  0  0
 32 59  1  0  0  0
 33 34  1  0  0  0
 33 60  1  0  0  0
 33 61  1  0  0  0
 34 35  1  0  0  0
 34 62  1  0  0  0
 34 63  1  0  0  0
 35 36  1  0  0  0
 35 64  1  0  0  0
 35 65  1  0  0  0
 36 37  2  0  0  0
 36 41  1  0  0  0
 37 38  1  0  0  0
 37 66  1  0  0  0
 38 39  2  0  0  0
 38 67  1  0  0  0
 39 40  1  0  0  0
 39 68  1  0  0  0
 40 41  2  0  0  0
 40 69  1  0  0  0
 41 70  1  0  0  0
M  CHG  1  30  -1
M  END
> <s_m_source_file>
../3zk6_ligand.sdf

> <i_m_source_file_index>
1

> <s_epik_input>
W2NIXTFbY0hdW2NIXVtjSF1jKGMxMiluYyhzMilbTkhdL049QyhcW0NIM10pYzNbY0hdW2NIXWMobzMpLWM0W2NIXVtjSF1bY0hdYyhbY0hdNClTKD1PKSg9TylbTkhdQyg9TylbQ0gyXVtDSDJdW0NIMl1bQ0gyXVtDSDJdYzVbY0hdW2NIXVtjSF1bY0hdW2NIXTU=

> <s_epik_cmdline>
J2VwaWtfYXBwJywgJy1pbWFlJywgJ2xpZ2FuZF9wcm8ubWFlJywgJy1vbWFlJywgJ2xpZ2FuZF9wcmVwLm1hZScsICctbXMnLCAnMScsICctcGgnLCAnNycsICctcGh0JywgJzAuNScsICctbnQn

> <r_epik_Ionization_Penalty>
  0.0271

> <r_epik_Ionization_Penalty_Charging>
  0.0211

> <r_epik_Ionization_Penalty_Neutral>
  0.0060

> <r_epik_State_Penalty>
  0.0169

> <r_epik_Charging_Adjusted_Penalty>
0.0380456986473331

> <i_epik_Tot_Q>
-1

> <i_epik_Tot_abs_Q>
1

> <s_epik_Chemistry_Notes>
This compound has an imine and may undergo hydrolysis.

$$$$
