3zke_ligand
                    3D
 Schrodinger Suite 2020-3.
155155  0  0  1  0            999 V2000
  -15.4650   14.5220   12.3890 N   0  3  0  0  0  0
  -14.6080   13.3300   12.5910 C   0  0  2  0  0  0
  -14.4470   12.4800   11.3370 C   0  0  0  0  0  0
  -15.4120   12.0970   10.7240 O   0  0  0  0  0  0
  -15.1390   12.4270   13.7310 C   0  0  0  0  0  0
  -14.1150   12.3560   14.8530 C   0  0  0  0  0  0
  -16.5140   12.8860   14.2080 C   0  0  0  0  0  0
  -13.2150   12.1950   10.9780 N   0  0  0  0  0  0
  -12.9130   11.2110    9.9960 C   0  0  0  0  0  0
  -13.4600    9.8030   10.3050 C   0  0  0  0  0  0
  -13.3690    9.3070   11.4320 O   0  0  0  0  0  0
  -14.0220    9.1830    9.2700 N   0  0  0  0  0  0
  -14.6030    7.8490    9.3460 C   0  0  2  0  0  0
  -13.8610    6.9610    8.3810 C   0  0  0  0  0  0
  -13.5830    7.3720    7.2530 O   0  0  0  0  0  0
  -16.1100    7.8600    9.0300 C   0  0  0  0  0  0
  -16.9690    8.6100   10.0370 C   0  0  0  0  0  0
  -16.9700    7.8380   11.6580 S   0  0  0  0  0  0
  -18.3590    6.7190   11.5400 C   0  0  0  0  0  0
  -13.5230    5.7540    8.8190 N   0  0  0  0  0  0
  -12.7680    4.8130    7.9820 C   0  0  2  0  0  0
  -13.3220    3.4440    8.0840 C   0  0  0  0  0  0
  -13.6220    2.9640    9.1690 O   0  0  0  0  0  0
  -11.3000    4.7880    8.4330 C   0  0  0  0  0  0
  -10.7050    6.1710    8.5900 C   0  0  0  0  0  0
  -10.1270    6.8380    7.5850 N   0  0  0  0  0  0
  -10.7130    7.0210    9.6450 C   0  0  0  0  0  0
   -9.7310    8.0440    7.9900 C   0  0  0  0  0  0
  -10.0780    8.1650    9.2530 N   0  0  0  0  0  0
  -13.4040    2.7520    6.9630 N   0  0  0  0  0  0
  -13.9260    1.3750    7.0030 C   0  0  2  0  0  0
  -12.8080    0.3400    7.0570 C   0  0  0  0  0  0
  -11.7570    0.4900    6.4430 O   0  0  0  0  0  0
  -14.8390    1.1050    5.8160 C   0  0  0  0  0  0
  -15.9730    1.9190    5.8420 O   0  0  0  0  0  0
  -13.0450   -0.7280    7.7830 N   0  0  0  0  0  0
  -12.0830   -1.7920    7.8930 C   0  0  2  0  0  0
  -12.7050   -3.1760    7.9490 C   0  0  0  0  0  0
  -13.8670   -3.3320    8.3890 O   0  0  0  0  0  0
  -11.2380   -1.5350    9.1410 C   0  0  0  0  0  0
   -9.9100   -0.9790    8.7580 C   0  0  0  0  0  0
   -9.3840   -0.1010    9.8040 C   0  0  0  0  0  0
   -8.5890    0.9460    9.0600 C   0  0  0  0  0  0
   -8.4090    2.0060   10.0030 N   0  3  0  0  0  0
  -11.9510   -4.1850    7.4800 N   0  0  0  0  0  0
  -12.4450   -5.5200    7.4420 C   0  0  0  0  0  0
  -11.5030   -6.3320    8.2830 C   0  0  0  0  0  0
  -10.3270   -6.0320    8.3050 O   0  0  0  0  0  0
  -12.0250   -7.3240    9.0030 N   0  0  0  0  0  0
  -11.1680   -8.2300    9.7880 C   0  0  2  0  0  0
  -11.6460   -9.6310    9.5480 C   0  0  0  0  0  0
  -12.7750   -9.8310    9.1400 O   0  0  0  0  0  0
  -11.2360   -7.9500   11.3070 C   0  0  2  0  0  0
  -12.5640   -8.1930   11.7690 O   0  0  0  0  0  0
  -10.8570   -6.4650   11.6360 C   0  0  0  0  0  0
  -10.7720  -10.6050    9.7610 N   0  0  0  0  0  0
  -11.1360  -12.0010    9.5410 C   0  0  2  0  0  0
  -10.3330  -12.8890   10.5120 C   0  0  0  0  0  0
   -9.1230  -12.8560   10.5290 O   0  0  0  0  0  0
  -10.8270  -12.3910    8.0660 C   0  0  0  0  0  0
  -11.1160  -13.8650    7.7760 C   0  0  0  0  0  0
  -12.5830  -14.1660    8.0110 C   0  0  0  0  0  0
  -13.4590  -13.5980    7.3530 O   0  0  0  0  0  0
  -12.8790  -15.0830    8.9570 N   0  0  0  0  0  0
  -11.0060  -13.6940   11.3220 N   0  0  0  0  0  0
  -10.2500  -14.6500   12.1810 C   0  0  2  0  0  0
   -9.6810  -15.7360   11.2740 C   0  0  0  0  0  0
  -10.2640  -16.0460   10.2360 O   0  0  0  0  0  0
  -11.1830  -15.3580   13.2170 C   0  0  2  0  0  0
  -12.3690  -15.8010   12.5360 O   0  0  0  0  0  0
  -11.6650  -14.3460   14.3080 C   0  0  0  0  0  0
   -8.5720  -16.3230   11.6760 N   0  0  0  0  0  0
   -7.9440  -17.3930   10.8850 C   0  0  2  0  0  0
   -8.2440  -18.7810   11.4270 C   0  0  0  0  0  0
   -9.4329  -19.1379   11.6430 O   0  0  0  0  0  0
   -6.4620  -17.1970   10.8500 C   0  0  0  0  0  0
   -7.2981  -19.5795   11.6618 O   0  0  0  0  0  0
  -15.0542   15.1349   11.5731 H   0  0  0  0  0  0
  -15.4925   15.1150   13.3151 H   0  0  0  0  0  0
  -16.4844   14.2008   12.1289 H   0  0  0  0  0  0
  -13.6340   13.7753   12.8419 H   0  0  0  0  0  0
  -15.2823   11.3994   13.3656 H   0  0  0  0  0  0
  -13.1492   12.0206   14.4472 H   0  0  0  0  0  0
  -14.4583   11.6442   15.6182 H   0  0  0  0  0  0
  -13.9969   13.3518   15.3051 H   0  0  0  0  0  0
  -17.2069   12.9167   13.3542 H   0  0  0  0  0  0
  -16.4324   13.8899   14.6503 H   0  0  0  0  0  0
  -16.8938   12.1823   14.9633 H   0  0  0  0  0  0
  -12.4019   12.7505   11.4682 H   0  0  0  0  0  0
  -13.3423   11.5137    9.0295 H   0  0  0  0  0  0
  -11.8217   11.1136    9.8980 H   0  0  0  0  0  0
  -14.0330    9.7343    8.3182 H   0  0  0  0  0  0
  -14.4628    7.5008   10.3800 H   0  0  0  0  0  0
  -16.2764    8.3385    8.0536 H   0  0  0  0  0  0
  -16.4861    6.8267    9.0007 H   0  0  0  0  0  0
  -16.5878    9.6353   10.1524 H   0  0  0  0  0  0
  -18.0086    8.6435    9.6792 H   0  0  0  0  0  0
  -18.4714    6.1728   12.4882 H   0  0  0  0  0  0
  -18.1849    6.0033   10.7230 H   0  0  0  0  0  0
  -19.2754    7.2923   11.3362 H   0  0  0  0  0  0
  -13.8233    5.4657    9.8372 H   0  0  0  0  0  0
  -12.8869    5.1518    6.9423 H   0  0  0  0  0  0
  -11.2238    4.2795    9.4054 H   0  0  0  0  0  0
  -10.6968    4.2477    7.6885 H   0  0  0  0  0  0
  -11.1135    6.9365   10.6660 H   0  0  0  0  0  0
   -9.2154    8.7913    7.3869 H   0  0  0  0  0  0
  -13.0877    3.1927    6.0061 H   0  0  0  0  0  0
  -14.5047    1.3177    7.9367 H   0  0  0  0  0  0
  -14.2930    1.3012    4.8814 H   0  0  0  0  0  0
  -15.1658    0.0549    5.8362 H   0  0  0  0  0  0
  -16.7273    1.8370    5.0455 H   0  0  0  0  0  0
  -14.0056   -0.7980    8.3143 H   0  0  0  0  0  0
  -11.5047   -1.7427    6.9586 H   0  0  0  0  0  0
  -11.7554   -0.8151    9.7922 H   0  0  0  0  0  0
  -11.0895   -2.4799    9.6842 H   0  0  0  0  0  0
   -9.1989   -1.8034    8.6007 H   0  0  0  0  0  0
  -10.0096   -0.3984    7.8290 H   0  0  0  0  0  0
  -10.2198    0.3424   10.3651 H   0  0  0  0  0  0
   -8.7513   -0.6847   10.4889 H   0  0  0  0  0  0
   -7.6278    0.5175    8.7397 H   0  0  0  0  0  0
   -9.1551    1.2774    8.1770 H   0  0  0  0  0  0
   -7.8328    2.8183    9.5360 H   0  0  0  0  0  0
   -7.8642    1.6275   10.8805 H   0  0  0  0  0  0
   -9.3915    2.3874   10.3178 H   0  0  0  0  0  0
  -10.9348   -3.9642    7.1213 H   0  0  0  0  0  0
  -13.4659   -5.5450    7.8509 H   0  0  0  0  0  0
  -12.4579   -5.8767    6.4015 H   0  0  0  0  0  0
  -13.1165   -7.4605    9.0046 H   0  0  0  0  0  0
  -10.1411   -8.0726    9.4264 H   0  0  0  0  0  0
  -10.5873   -8.6584   11.8431 H   0  0  0  0  0  0
  -13.0211   -9.1842   11.6326 H   0  0  0  0  0  0
   -9.8344   -6.2613   11.2856 H   0  0  0  0  0  0
  -10.9109   -6.3051   12.7230 H   0  0  0  0  0  0
  -11.5598   -5.7866   11.1303 H   0  0  0  0  0  0
   -9.7603  -10.3486   10.1084 H   0  0  0  0  0  0
  -12.2129  -12.0871    9.7482 H   0  0  0  0  0  0
  -11.4471  -11.7851    7.3890 H   0  0  0  0  0  0
   -9.7637  -12.2065    7.8530 H   0  0  0  0  0  0
  -10.8656  -14.0885    6.7285 H   0  0  0  0  0  0
  -10.5077  -14.4957    8.4410 H   0  0  0  0  0  0
  -12.0712  -15.5689    9.5239 H   0  0  0  0  0  0
  -13.9280  -15.3441    9.1608 H   0  0  0  0  0  0
  -12.1047  -13.6647   11.3669 H   0  0  0  0  0  0
   -9.4692  -14.0658   12.6899 H   0  0  0  0  0  0
  -10.6780  -16.2355   13.6471 H   0  0  0  0  0  0
  -12.2921  -16.5275   11.7136 H   0  0  0  0  0  0
  -10.7963  -13.9687   14.8674 H   0  0  0  0  0  0
  -12.3544  -14.8529   14.9993 H   0  0  0  0  0  0
  -12.1833  -13.5048   13.8244 H   0  0  0  0  0  0
   -8.1156  -15.9988   12.6229 H   0  0  0  0  0  0
   -8.3742  -17.2983    9.8771 H   0  0  0  0  0  0
   -9.6425  -20.1440   12.0353 H   0  0  0  0  0  0
   -6.2339  -16.1945   10.4589 H   0  0  0  0  0  0
   -6.0069  -17.9572   10.1981 H   0  0  0  0  0  0
   -6.0551  -17.2951   11.8672 H   0  0  0  0  0  0
  1  2  1  0  0  0
  1 78  1  0  0  0
  1 79  1  0  0  0
  1 80  1  0  0  0
  2  3  1  0  0  0
  2  5  1  0  0  0
  2 81  1  0  0  0
  3  4  2  0  0  0
  3  8  1  0  0  0
  5  6  1  0  0  0
  5  7  1  0  0  0
  5 82  1  0  0  0
  6 83  1  0  0  0
  6 84  1  0  0  0
  6 85  1  0  0  0
  7 86  1  0  0  0
  7 87  1  0  0  0
  7 88  1  0  0  0
  8  9  1  0  0  0
  8 89  1  0  0  0
  9 10  1  0  0  0
  9 90  1  0  0  0
  9 91  1  0  0  0
 10 11  2  0  0  0
 10 12  1  0  0  0
 12 13  1  0  0  0
 12 92  1  0  0  0
 13 14  1  0  0  0
 13 16  1  0  0  0
 13 93  1  0  0  0
 14 15  2  0  0  0
 14 20  1  0  0  0
 16 17  1  0  0  0
 16 94  1  0  0  0
 16 95  1  0  0  0
 17 18  1  0  0  0
 17 96  1  0  0  0
 17 97  1  0  0  0
 18 19  1  0  0  0
 19 98  1  0  0  0
 19 99  1  0  0  0
 19100  1  0  0  0
 20 21  1  0  0  0
 20101  1  0  0  0
 21 22  1  0  0  0
 21 24  1  0  0  0
 21102  1  0  0  0
 22 23  2  0  0  0
 22 30  1  0  0  0
 24 25  1  0  0  0
 24103  1  0  0  0
 24104  1  0  0  0
 25 26  2  0  0  0
 25 27  1  0  0  0
 26 28  1  0  0  0
 27 29  2  0  0  0
 27105  1  0  0  0
 28 29  1  0  0  0
 28106  1  0  0  0
 30 31  1  0  0  0
 30107  1  0  0  0
 31 32  1  0  0  0
 31 34  1  0  0  0
 31108  1  0  0  0
 32 33  2  0  0  0
 32 36  1  0  0  0
 34 35  1  0  0  0
 34109  1  0  0  0
 34110  1  0  0  0
 35111  1  0  0  0
 36 37  1  0  0  0
 36112  1  0  0  0
 37 38  1  0  0  0
 37 40  1  0  0  0
 37113  1  0  0  0
 38 39  2  0  0  0
 38 45  1  0  0  0
 40 41  1  0  0  0
 40114  1  0  0  0
 40115  1  0  0  0
 41 42  1  0  0  0
 41116  1  0  0  0
 41117  1  0  0  0
 42 43  1  0  0  0
 42118  1  0  0  0
 42119  1  0  0  0
 43 44  1  0  0  0
 43120  1  0  0  0
 43121  1  0  0  0
 44122  1  0  0  0
 44123  1  0  0  0
 44124  1  0  0  0
 45 46  1  0  0  0
 45125  1  0  0  0
 46 47  1  0  0  0
 46126  1  0  0  0
 46127  1  0  0  0
 47 48  2  0  0  0
 47 49  1  0  0  0
 49 50  1  0  0  0
 49128  1  0  0  0
 50 51  1  0  0  0
 50 53  1  0  0  0
 50129  1  0  0  0
 51 52  2  0  0  0
 51 56  1  0  0  0
 53 54  1  0  0  0
 53 55  1  0  0  0
 53130  1  0  0  0
 54131  1  0  0  0
 55132  1  0  0  0
 55133  1  0  0  0
 55134  1  0  0  0
 56 57  1  0  0  0
 56135  1  0  0  0
 57 58  1  0  0  0
 57 60  1  0  0  0
 57136  1  0  0  0
 58 59  2  0  0  0
 58 65  1  0  0  0
 60 61  1  0  0  0
 60137  1  0  0  0
 60138  1  0  0  0
 61 62  1  0  0  0
 61139  1  0  0  0
 61140  1  0  0  0
 62 63  2  0  0  0
 62 64  1  0  0  0
 64141  1  0  0  0
 64142  1  0  0  0
 65 66  1  0  0  0
 65143  1  0  0  0
 66 67  1  0  0  0
 66 69  1  0  0  0
 66144  1  0  0  0
 67 68  2  0  0  0
 67 72  1  0  0  0
 69 70  1  0  0  0
 69 71  1  0  0  0
 69145  1  0  0  0
 70146  1  0  0  0
 71147  1  0  0  0
 71148  1  0  0  0
 71149  1  0  0  0
 72 73  1  0  0  0
 72150  1  0  0  0
 73 74  1  0  0  0
 73 76  1  0  0  0
 73151  1  0  0  0
 74 75  1  0  0  0
 74 77  2  0  0  0
 75152  1  0  0  0
 76153  1  0  0  0
 76154  1  0  0  0
 76155  1  0  0  0
M  CHG  2   1   1  44   1
M  END
> <s_m_source_file>
../3zke_ligand.sdf

> <i_m_source_file_index>
1

> <s_epik_input>
W0NIM11bQ0hdKFtDSDNdKVtDQEhdKFtOSDMrXSlDKD1PKVtOSF1bQ0gyXUMoPU8pW05IXVtDQEBIXShbQ0gyXVtDSDJdU1tDSDNdKUMoPU8pW05IXVtDQEBIXShbQ0gyXUMxPU5bQ0gyXU49W0NIXTEpQyg9TylbTkhdW0NAQEhdKFtDSDJdW09IXSlDKD1PKVtOSF1bQ0BASF0oW0NIMl1bQ0gyXVtDSDJdW0NIMl1bTkgzK10pQyg9TylbTkhdW0NIMl1DKD1PKVtOSF1bQ0BASF0oW0NASF0oW09IXSlbQ0gzXSlDKD1PKVtOSF1bQ0BASF0oW0NIMl1bQ0gyXUMoPU8pW05IMl0pQyg9TylbTkhdW0NAQEhdKFtDQEhdKFtPSF0pW0NIM10pQyg9TylbTkhdW0NAQEhdKFtDSDNdKUMoPU8pW09IXQ==

> <s_epik_cmdline>
J2VwaWtfYXBwJywgJy1pbWFlJywgJ2xpZ2FuZF9wcm8ubWFlJywgJy1vbWFlJywgJ2xpZ2FuZF9wcmVwLm1hZScsICctbXMnLCAnMScsICctcGgnLCAnNycsICctcGh0JywgJzAuNScsICctbnQn

> <s_epik_pKa_notes>
Molecule size exceeds maximum supported for generating protonation states

> <s_epik_Chemistry_Notes>
This compound has an imine and may undergo hydrolysis.

$$$$
