3zkf_ligand
                    3D
 Schrodinger Suite 2020-3.
147147  0  0  1  0            999 V2000
   48.6070  200.4110  -12.9770 N   0  3  0  0  0  0
   48.3200  199.3920  -13.9940 C   0  0  2  0  0  0
   48.1070  197.9830  -13.4380 C   0  0  0  0  0  0
   47.9630  197.7930  -12.2280 O   0  0  0  0  0  0
   49.3960  199.3390  -15.1100 C   0  0  0  0  0  0
   48.7980  199.8280  -16.4170 C   0  0  0  0  0  0
   50.6070  200.1720  -14.7440 C   0  0  0  0  0  0
   48.0500  197.0150  -14.3520 N   0  0  0  0  0  0
   47.9410  195.6120  -14.0090 C   0  0  0  0  0  0
   46.5270  195.0820  -13.9620 C   0  0  0  0  0  0
   46.1230  194.3190  -14.8370 O   0  0  0  0  0  0
   45.7840  195.4990  -12.9400 N   0  0  0  0  0  0
   44.5100  194.8870  -12.5710 C   0  0  2  0  0  0
   43.3190  195.8670  -12.6080 C   0  0  0  0  0  0
   43.3730  196.9520  -12.0400 O   0  0  0  0  0  0
   44.6350  194.2460  -11.1740 C   0  0  0  0  0  0
   45.6900  193.1580  -11.0810 C   0  0  0  0  0  0
   45.4630  191.8140  -12.2910 S   0  0  0  0  0  0
   44.8470  190.5050  -11.2330 C   0  0  0  0  0  0
   42.2440  195.4590  -13.2670 N   0  0  0  0  0  0
   41.0480  196.2710  -13.4080 C   0  0  2  0  0  0
   39.8460  195.3870  -13.1380 C   0  0  0  0  0  0
   39.7320  194.2990  -13.6930 O   0  0  0  0  0  0
   40.9520  196.8270  -14.8280 C   0  0  0  0  0  0
   42.2330  197.4060  -15.3260 C   0  0  0  0  0  0
   42.5210  198.7500  -15.2410 N   0  0  0  0  0  0
   43.3210  196.8200  -15.8830 C   0  0  0  0  0  0
   43.7250  198.9710  -15.7380 C   0  0  0  0  0  0
   44.2320  197.8140  -16.1330 N   0  0  0  0  0  0
   38.9560  195.8350  -12.2670 N   0  0  0  0  0  0
   37.7320  195.0960  -12.0390 C   0  0  1  0  0  0
   37.2000  195.3460  -10.6390 C   0  0  0  0  0  0
   37.1030  196.7440  -10.4190 O   0  0  0  0  0  0
   36.7500  195.5320  -13.1100 C   0  0  0  0  0  0
   36.8550  196.6360  -13.6470 O   0  0  0  0  0  0
   37.7000  197.1960   -8.9840 P   0  0  0  0  0  0
   36.5510  198.1160   -8.3340 O   0  0  0  0  0  0
   37.9870  195.9510   -7.9850 O   0  5  0  0  0  0
   39.0690  198.0120   -9.2550 O   0  5  0  0  0  0
   35.8330  194.6350  -13.4480 N   0  0  0  0  0  0
   34.8700  194.8390  -14.5220 C   0  0  2  0  0  0
   33.6520  193.9790  -14.2620 C   0  0  0  0  0  0
   33.7620  192.8890  -13.7010 O   0  0  0  0  0  0
   35.4830  194.5140  -15.8870 C   0  0  0  0  0  0
   36.2280  195.6900  -16.5060 C   0  0  0  0  0  0
   36.8360  195.3440  -17.8650 C   0  0  0  0  0  0
   37.8500  196.4110  -18.3090 C   0  0  0  0  0  0
   37.6740  196.7440  -19.7620 N   0  3  0  0  0  0
   32.4900  194.5040  -14.6430 N   0  0  0  0  0  0
   31.2120  193.8570  -14.4070 C   0  0  0  0  0  0
   30.4460  193.6320  -15.6970 C   0  0  0  0  0  0
   30.5350  194.4320  -16.6300 O   0  0  0  0  0  0
   29.7110  192.5300  -15.7640 N   0  0  0  0  0  0
   28.9330  192.2180  -16.9530 C   0  0  2  0  0  0
   27.5240  191.8200  -16.5680 C   0  0  0  0  0  0
   27.2880  191.3030  -15.4830 O   0  0  0  0  0  0
   29.5520  191.0500  -17.7890 C   0  0  2  0  0  0
   29.5520  189.8340  -17.0190 O   0  0  0  0  0  0
   30.9640  191.3820  -18.2500 C   0  0  0  0  0  0
   26.5930  192.0470  -17.4810 N   0  0  0  0  0  0
   25.2220  191.6340  -17.2700 C   0  0  2  0  0  0
   24.6550  191.2970  -18.6280 C   0  0  0  0  0  0
   24.6720  192.1340  -19.5310 O   0  0  0  0  0  0
   24.4330  192.7640  -16.6000 C   0  0  0  0  0  0
   23.0290  192.3940  -16.1450 C   0  0  0  0  0  0
   23.0180  191.1860  -15.2450 C   0  0  0  0  0  0
   23.3110  191.2750  -14.0480 O   0  0  0  0  0  0
   22.6820  190.0350  -15.8160 N   0  0  0  0  0  0
   24.1760  190.0650  -18.7770 N   0  0  0  0  0  0
   23.6270  189.5780  -20.0590 C   0  0  2  0  0  0
   22.6480  190.5440  -20.7370 C   0  0  0  0  0  0
   21.4041  190.4497  -20.5596 O   0  5  0  0  0  0
   22.9640  188.1800  -19.9180 C   0  0  2  0  0  0
   22.3750  188.0410  -18.6160 O   0  0  0  0  0  0
   24.0070  187.0960  -20.0950 C   0  0  0  0  0  0
   23.0969  191.4512  -21.4874 O   0  0  0  0  0  0
   47.8137  200.4022  -12.2151 H   0  0  0  0  0  0
   48.6479  201.4021  -13.4524 H   0  0  0  0  0  0
   49.5745  200.1922  -12.5015 H   0  0  0  0  0  0
   47.3576  199.7627  -14.3765 H   0  0  0  0  0  0
   49.7445  198.3040  -15.2417 H   0  0  0  0  0  0
   47.9205  199.2152  -16.6707 H   0  0  0  0  0  0
   49.5478  199.7439  -17.2174 H   0  0  0  0  0  0
   48.4925  200.8793  -16.3098 H   0  0  0  0  0  0
   51.0299  199.8074  -13.7962 H   0  0  0  0  0  0
   50.3076  201.2244  -14.6312 H   0  0  0  0  0  0
   51.3629  200.0890  -15.5388 H   0  0  0  0  0  0
   48.0893  197.3217  -15.4077 H   0  0  0  0  0  0
   48.4819  195.0094  -14.7535 H   0  0  0  0  0  0
   48.3773  195.4429  -13.0135 H   0  0  0  0  0  0
   46.1737  196.3495  -12.3614 H   0  0  0  0  0  0
   44.3453  194.1340  -13.3557 H   0  0  0  0  0  0
   44.9027  195.0190  -10.4386 H   0  0  0  0  0  0
   43.6746  193.7893  -10.8928 H   0  0  0  0  0  0
   46.6838  193.5948  -11.2587 H   0  0  0  0  0  0
   45.6624  192.7052  -10.0789 H   0  0  0  0  0  0
   44.6582  189.6045  -11.8359 H   0  0  0  0  0  0
   43.9107  190.8295  -10.7555 H   0  0  0  0  0  0
   45.5941  190.2776  -10.4583 H   0  0  0  0  0  0
   42.2846  194.4566  -13.7182 H   0  0  0  0  0  0
   41.1215  197.0929  -12.6806 H   0  0  0  0  0  0
   40.0598  196.8310  -15.4713 H   0  0  0  0  0  0
   43.5606  195.7773  -16.1388 H   0  0  0  0  0  0
   44.2170  199.9410  -15.8104 H   0  0  0  0  0  0
   39.1457  196.7682  -11.7164 H   0  0  0  0  0  0
   37.9508  194.0207  -12.1152 H   0  0  0  0  0  0
   36.2057  194.8866  -10.5371 H   0  0  0  0  0  0
   37.8857  194.9032   -9.9016 H   0  0  0  0  0  0
   35.8228  193.6988  -12.8706 H   0  0  0  0  0  0
   34.5955  195.9039  -14.4982 H   0  0  0  0  0  0
   36.1996  193.6864  -15.7794 H   0  0  0  0  0  0
   34.6862  194.2205  -16.5863 H   0  0  0  0  0  0
   35.5326  196.5303  -16.6489 H   0  0  0  0  0  0
   37.0447  195.9996  -15.8373 H   0  0  0  0  0  0
   37.3526  194.3750  -17.7996 H   0  0  0  0  0  0
   36.0376  195.2836  -18.6193 H   0  0  0  0  0  0
   37.7031  197.3257  -17.7159 H   0  0  0  0  0  0
   38.8714  196.0334  -18.1536 H   0  0  0  0  0  0
   38.4094  197.5079  -20.0548 H   0  0  0  0  0  0
   36.6577  197.1303  -19.9291 H   0  0  0  0  0  0
   37.8260  195.8379  -20.3668 H   0  0  0  0  0  0
   32.5281  195.4747  -15.1590 H   0  0  0  0  0  0
   31.3783  192.8799  -13.9299 H   0  0  0  0  0  0
   30.5981  194.4875  -13.7470 H   0  0  0  0  0  0
   29.6957  191.8471  -14.9018 H   0  0  0  0  0  0
   28.9421  193.1660  -17.5109 H   0  0  0  0  0  0
   28.9383  190.8302  -18.6751 H   0  0  0  0  0  0
   28.6099  189.4450  -16.6053 H   0  0  0  0  0  0
   30.9489  192.3125  -18.8365 H   0  0  0  0  0  0
   31.3485  190.5616  -18.8737 H   0  0  0  0  0  0
   31.6150  191.5119  -17.3729 H   0  0  0  0  0  0
   26.8760  192.5589  -18.4126 H   0  0  0  0  0  0
   25.2110  190.7521  -16.6126 H   0  0  0  0  0  0
   24.9719  193.1064  -15.7042 H   0  0  0  0  0  0
   24.3228  193.6019  -17.3042 H   0  0  0  0  0  0
   22.5898  193.2358  -15.5897 H   0  0  0  0  0  0
   22.4061  192.1694  -17.0234 H   0  0  0  0  0  0
   22.4289  190.0051  -16.8861 H   0  0  0  0  0  0
   22.6568  189.1115  -15.2189 H   0  0  0  0  0  0
   24.1990  189.4005  -17.9007 H   0  0  0  0  0  0
   24.5352  189.5323  -20.6780 H   0  0  0  0  0  0
   22.1442  188.0516  -20.6402 H   0  0  0  0  0  0
   21.5888  188.7382  -18.2907 H   0  0  0  0  0  0
   24.4679  187.1895  -21.0894 H   0  0  0  0  0  0
   23.5295  186.1093  -20.0035 H   0  0  0  0  0  0
   24.7810  187.2020  -19.3206 H   0  0  0  0  0  0
   41.7859  199.4436  -14.8067 H   0  0  0  0  0  0
  1  2  1  0  0  0
  1 77  1  0  0  0
  1 78  1  0  0  0
  1 79  1  0  0  0
  2  3  1  0  0  0
  2  5  1  0  0  0
  2 80  1  0  0  0
  3  4  2  0  0  0
  3  8  1  0  0  0
  5  6  1  0  0  0
  5  7  1  0  0  0
  5 81  1  0  0  0
  6 82  1  0  0  0
  6 83  1  0  0  0
  6 84  1  0  0  0
  7 85  1  0  0  0
  7 86  1  0  0  0
  7 87  1  0  0  0
  8  9  1  0  0  0
  8 88  1  0  0  0
  9 10  1  0  0  0
  9 89  1  0  0  0
  9 90  1  0  0  0
 10 11  2  0  0  0
 10 12  1  0  0  0
 12 13  1  0  0  0
 12 91  1  0  0  0
 13 14  1  0  0  0
 13 16  1  0  0  0
 13 92  1  0  0  0
 14 15  2  0  0  0
 14 20  1  0  0  0
 16 17  1  0  0  0
 16 93  1  0  0  0
 16 94  1  0  0  0
 17 18  1  0  0  0
 17 95  1  0  0  0
 17 96  1  0  0  0
 18 19  1  0  0  0
 19 97  1  0  0  0
 19 98  1  0  0  0
 19 99  1  0  0  0
 20 21  1  0  0  0
 20100  1  0  0  0
 21 22  1  0  0  0
 21 24  1  0  0  0
 21101  1  0  0  0
 22 23  2  0  0  0
 22 30  1  0  0  0
 24 25  2  0  0  0
 24102  1  0  0  0
 25 26  1  0  0  0
 25 27  1  0  0  0
 26 28  1  0  0  0
 26147  1  0  0  0
 27 29  2  0  0  0
 27103  1  0  0  0
 28 29  1  0  0  0
 28104  1  0  0  0
 30 31  1  0  0  0
 30105  1  0  0  0
 31 32  1  0  0  0
 31 34  1  0  0  0
 31106  1  0  0  0
 32 33  1  0  0  0
 32107  1  0  0  0
 32108  1  0  0  0
 33 36  1  0  0  0
 34 35  2  0  0  0
 34 40  1  0  0  0
 36 37  2  0  0  0
 36 38  1  0  0  0
 36 39  1  0  0  0
 40 41  1  0  0  0
 40109  1  0  0  0
 41 42  1  0  0  0
 41 44  1  0  0  0
 41110  1  0  0  0
 42 43  2  0  0  0
 42 49  1  0  0  0
 44 45  1  0  0  0
 44111  1  0  0  0
 44112  1  0  0  0
 45 46  1  0  0  0
 45113  1  0  0  0
 45114  1  0  0  0
 46 47  1  0  0  0
 46115  1  0  0  0
 46116  1  0  0  0
 47 48  1  0  0  0
 47117  1  0  0  0
 47118  1  0  0  0
 48119  1  0  0  0
 48120  1  0  0  0
 48121  1  0  0  0
 49 50  1  0  0  0
 49122  1  0  0  0
 50 51  1  0  0  0
 50123  1  0  0  0
 50124  1  0  0  0
 51 52  2  0  0  0
 51 53  1  0  0  0
 53 54  1  0  0  0
 53125  1  0  0  0
 54 55  1  0  0  0
 54 57  1  0  0  0
 54126  1  0  0  0
 55 56  2  0  0  0
 55 60  1  0  0  0
 57 58  1  0  0  0
 57 59  1  0  0  0
 57127  1  0  0  0
 58128  1  0  0  0
 59129  1  0  0  0
 59130  1  0  0  0
 59131  1  0  0  0
 60 61  1  0  0  0
 60132  1  0  0  0
 61 62  1  0  0  0
 61 64  1  0  0  0
 61133  1  0  0  0
 62 63  2  0  0  0
 62 69  1  0  0  0
 64 65  1  0  0  0
 64134  1  0  0  0
 64135  1  0  0  0
 65 66  1  0  0  0
 65136  1  0  0  0
 65137  1  0  0  0
 66 67  2  0  0  0
 66 68  1  0  0  0
 68138  1  0  0  0
 68139  1  0  0  0
 69 70  1  0  0  0
 69140  1  0  0  0
 70 71  1  0  0  0
 70 73  1  0  0  0
 70141  1  0  0  0
 71 72  1  0  0  0
 71 76  2  0  0  0
 73 74  1  0  0  0
 73 75  1  0  0  0
 73142  1  0  0  0
 74143  1  0  0  0
 75144  1  0  0  0
 75145  1  0  0  0
 75146  1  0  0  0
M  CHG  5   1   1  38  -1  39  -1  48   1  72  -1
M  END
> <s_m_source_file>
../3zkf_ligand.sdf

> <i_m_source_file_index>
1

> <s_epik_input>
W0NIM11bQ0hdKFtDSDNdKVtDQEhdKFtOSDMrXSlDKD1PKVtOSF1bQ0gyXUMoPU8pW05IXVtDQEBIXShbQ0gyXVtDSDJdU1tDSDNdKUMoPU8pW05IXVtDQEBIXShbQ0gyXUMxPU5bQ0gyXU49W0NIXTEpQyg9TylbTkhdW0NAQEhdKFtDSDJdT1AoPU8pKFtPSF0pW09IXSlDKD1PKVtOSF1bQ0BASF0oW0NIMl1bQ0gyXVtDSDJdW0NIMl1bTkgzK10pQyg9TylbTkhdW0NIMl1DKD1PKVtOSF1bQ0BASF0oW0NASF0oW09IXSlbQ0gzXSlDKD1PKVtOSF1bQ0BASF0oW0NIMl1bQ0gyXUMoPU8pW05IMl0pQyg9TylbTkhdW0NASF0oQyg9TylbT0hdKVtDQEhdKFtPSF0pW0NIM10=

> <s_epik_cmdline>
J2VwaWtfYXBwJywgJy1pbWFlJywgJ2xpZ2FuZF9wcm8ubWFlJywgJy1vbWFlJywgJ2xpZ2FuZF9wcmVwLm1hZScsICctbXMnLCAnMScsICctcGgnLCAnNycsICctcGh0JywgJzAuNScsICctbnQn

> <r_epik_Ionization_Penalty>
  0.1711

> <r_epik_Ionization_Penalty_Charging>
  0.1711

> <r_epik_Ionization_Penalty_Neutral>
  0.0000

> <r_epik_State_Penalty>
  0.1431

> <r_epik_Charging_Adjusted_Penalty>
0.314191412807285

> <i_epik_Tot_Q>
-1

> <i_epik_Tot_abs_Q>
5

> <s_epik_Chemistry_Notes>
This compound has an imine and may undergo hydrolysis.

$$$$
