3zlk_ligand
                    3D
 Schrodinger Suite 2020-3.
 42 44  0  0  1  0            999 V2000
   38.0140    6.9480   10.3730 C   0  0  0  0  0  0
   37.4770    8.0000   11.1280 C   0  0  0  0  0  0
   37.3160    7.8520   12.5110 C   0  0  0  0  0  0
   37.6970    6.6570   13.1160 C   0  0  0  0  0  0
   38.2340    5.6140   12.3650 C   0  0  0  0  0  0
   38.3750    5.7300   10.9780 C   0  0  0  0  0  0
   38.9190    4.6890   10.1980 C   0  0  0  0  0  0
   38.1350    3.3910   10.1880 N   0  3  0  0  0  0
   37.2260    3.1360    9.2150 C   0  0  0  0  0  0
   36.9720    4.0480    8.2600 N   0  0  0  0  0  0
   38.3700    2.4570   11.1350 C   0  0  0  0  0  0
   39.2230    2.6550   11.9930 O   0  5  0  0  0  0
   37.6830    1.2450   11.1580 N   0  0  0  0  0  0
   36.7260    0.9560   10.2050 C   0  0  0  0  0  0
   36.1460   -0.1290   10.2480 O   0  0  0  0  0  0
   36.4910    1.9280    9.2180 C   0  0  2  0  0  0
   35.6320    1.6450    8.2250 N   0  0  3  0  0  0
   34.0260    2.0060    8.2040 S   0  0  0  0  0  0
   33.7910    3.5160    8.2170 O   0  0  0  0  0  0
   33.4210    1.3680    6.9510 O   0  0  0  0  0  0
   33.2620    1.2790    9.6850 C   0  0  0  0  0  0
   33.4930    1.8520   10.9360 C   0  0  0  0  0  0
   32.8870    1.3030   12.0790 C   0  0  0  0  0  0
   32.0710    0.1830   11.9550 C   0  0  0  0  0  0
   31.8690   -0.3960   10.7090 C   0  0  0  0  0  0
   32.4490    0.1630    9.5720 C   0  0  0  0  0  0
   38.1542    7.0756    9.2996 H   0  0  0  0  0  0
   37.1857    8.9301   10.6400 H   0  0  0  0  0  0
   36.8973    8.6628   13.1072 H   0  0  0  0  0  0
   37.5733    6.5361   14.1922 H   0  0  0  0  0  0
   38.5479    4.6970   12.8637 H   0  0  0  0  0  0
   38.9876    5.0140    9.1493 H   0  0  0  0  0  0
   39.9231    4.4380   10.5705 H   0  0  0  0  0  0
   37.5327    4.9942    8.2400 H   0  0  0  0  0  0
   35.4809    2.3557    9.2999 H   0  0  0  0  0  0
   36.0094    1.2773    7.2594 H   0  0  0  0  0  0
   34.1418    2.7232   11.0266 H   0  0  0  0  0  0
   33.0554    1.7524   13.0577 H   0  0  0  0  0  0
   31.5898   -0.2404   12.8366 H   0  0  0  0  0  0
   31.2541   -1.2916   10.6200 H   0  0  0  0  0  0
   32.2629   -0.2782    8.5928 H   0  0  0  0  0  0
   36.2035    3.8479    7.4988 H   0  0  0  0  0  0
  1  2  2  0  0  0
  1  6  1  0  0  0
  1 27  1  0  0  0
  2  3  1  0  0  0
  2 28  1  0  0  0
  3  4  2  0  0  0
  3 29  1  0  0  0
  4  5  1  0  0  0
  4 30  1  0  0  0
  5  6  2  0  0  0
  5 31  1  0  0  0
  6  7  1  0  0  0
  7  8  1  0  0  0
  7 32  1  0  0  0
  7 33  1  0  0  0
  8  9  2  0  0  0
  8 11  1  0  0  0
  9 10  1  0  0  0
  9 16  1  0  0  0
 10 34  1  0  0  0
 10 42  1  0  0  0
 11 12  1  0  0  0
 11 13  2  0  0  0
 13 14  1  0  0  0
 14 15  2  0  0  0
 14 16  1  0  0  0
 16 17  1  0  0  0
 16 35  1  0  0  0
 17 18  1  0  0  0
 17 36  1  0  0  0
 18 19  2  0  0  0
 18 20  2  0  0  0
 18 21  1  0  0  0
 21 22  2  0  0  0
 21 26  1  0  0  0
 22 23  1  0  0  0
 22 37  1  0  0  0
 23 24  2  0  0  0
 23 38  1  0  0  0
 24 25  1  0  0  0
 24 39  1  0  0  0
 25 26  2  0  0  0
 25 40  1  0  0  0
 26 41  1  0  0  0
M  CHG  2   8   1  12  -1
M  END
> <s_m_source_file>
../3zlk_ligand.sdf

> <i_m_source_file_index>
1

> <s_epik_input>
W2NIXTFbY0hdW2NIXVtjSF1bY0hdYzFbQ0gyXU4yL0MoPU5cW0hdKVtDQEhdKEMoPU8pW05IXUMyPU8pW05IXVMoPU8pKD1PKWMzW2NIXVtjSF1bY0hdW2NIXVtjSF0z

> <s_epik_cmdline>
J2VwaWtfYXBwJywgJy1pbWFlJywgJ2xpZ2FuZF9wcm8ubWFlJywgJy1vbWFlJywgJ2xpZ2FuZF9wcmVwLm1hZScsICctbXMnLCAnMScsICctcGgnLCAnNycsICctcGh0JywgJzAuNScsICctbnQn

> <r_epik_Ionization_Penalty>
  0.2093

> <r_epik_Ionization_Penalty_Charging>
  0.1630

> <r_epik_Ionization_Penalty_Neutral>
  0.0463

> <r_epik_State_Penalty>
  0.6063

> <r_epik_Charging_Adjusted_Penalty>
0.769250973426343

> <i_epik_Tot_Q>
0

> <i_epik_Tot_abs_Q>
2

> <s_epik_Chemistry_Notes>
This compound has an imine and may undergo hydrolysis.

$$$$
