3zlq_ligand
                    3D
 Schrodinger Suite 2020-3.
 48 50  0  0  1  0            999 V2000
    3.9690  -24.1610   15.7570 C   0  0  0  0  0  0
    4.6600  -25.2650   16.6170 C   0  0  0  0  0  0
    2.5310  -24.1490   15.9220 O   0  0  0  0  0  0
    2.0350  -24.6660   17.0920 C   0  0  0  0  0  0
    2.7510  -25.1440   18.0750 N   0  0  0  0  0  0
    4.2230  -25.2100   18.0900 C   0  0  2  0  0  0
    4.8380  -23.9650   18.7130 C   0  0  0  0  0  0
    3.9890  -22.9280   18.9110 C   0  0  0  0  0  0
    4.4530  -21.7610   19.4530 C   0  0  0  0  0  0
    5.7910  -21.6230   19.7640 C   0  0  0  0  0  0
    6.6720  -22.6650   19.5320 C   0  0  0  0  0  0
    6.1830  -23.8380   19.0140 C   0  0  0  0  0  0
    7.0310  -24.8760   18.7830 F   0  0  0  0  0  0
    0.6890  -24.6870   17.1950 N   0  0  0  0  0  0
    4.7160  -26.4610   18.8330 C   0  0  0  0  0  0
    3.4960  -20.7780   19.6230 N   0  0  0  0  0  0
    3.9080  -19.6150   20.0650 C   0  0  0  0  0  0
    2.9280  -18.5500   20.1940 C   0  0  0  0  0  0
    5.0650  -19.4470   20.2630 O   0  0  0  0  0  0
    1.6490  -18.9340   20.2130 N   0  0  0  0  0  0
    0.6790  -18.0750   20.3080 C   0  0  0  0  0  0
    1.0250  -16.7270   20.3880 C   0  0  0  0  0  0
    2.3290  -16.2970   20.3510 C   0  0  0  0  0  0
    3.3430  -17.2300   20.2440 C   0  0  0  0  0  0
    0.0420  -15.8290   20.4320 O   0  0  0  0  0  0
    4.3070  -26.5660   16.2630 F   0  0  0  0  0  0
    6.0310  -24.9890   16.4810 F   0  0  0  0  0  0
   -1.1980  -16.2370   19.8920 C   0  0  0  0  0  0
   -2.2520  -16.4410   20.9700 C   0  0  0  0  0  0
    4.3520  -23.1730   16.0522 H   0  0  0  0  0  0
    4.1863  -24.3355   14.6929 H   0  0  0  0  0  0
    2.9379  -23.0235   18.6388 H   0  0  0  0  0  0
    6.1550  -20.6898   20.1939 H   0  0  0  0  0  0
    7.7331  -22.5561   19.7563 H   0  0  0  0  0  0
    0.0686  -24.2893   16.3783 H   0  0  0  0  0  0
    4.2686  -27.3574   18.3787 H   0  0  0  0  0  0
    4.4204  -26.3995   19.8908 H   0  0  0  0  0  0
    5.8120  -26.5218   18.7615 H   0  0  0  0  0  0
    2.4422  -20.9901   19.3897 H   0  0  0  0  0  0
   -0.3628  -18.3952   20.3245 H   0  0  0  0  0  0
    2.5611  -15.2334   20.4053 H   0  0  0  0  0  0
    4.3947  -16.9468   20.2020 H   0  0  0  0  0  0
   -1.5649  -15.4691   19.1950 H   0  0  0  0  0  0
   -1.0688  -17.1881   19.3547 H   0  0  0  0  0  0
   -3.1969  -16.7570   20.5038 H   0  0  0  0  0  0
   -2.4086  -15.4972   21.5129 H   0  0  0  0  0  0
   -1.9125  -17.2163   21.6726 H   0  0  0  0  0  0
    0.2127  -25.1018   18.0956 H   0  0  0  0  0  0
  1  2  1  0  0  0
  1  3  1  0  0  0
  1 30  1  0  0  0
  1 31  1  0  0  0
  2  6  1  0  0  0
  2 26  1  0  0  0
  2 27  1  0  0  0
  3  4  1  0  0  0
  4  5  2  0  0  0
  4 14  1  0  0  0
  5  6  1  0  0  0
  6  7  1  0  0  0
  6 15  1  0  0  0
  7  8  2  0  0  0
  7 12  1  0  0  0
  8  9  1  0  0  0
  8 32  1  0  0  0
  9 10  2  0  0  0
  9 16  1  0  0  0
 10 11  1  0  0  0
 10 33  1  0  0  0
 11 12  2  0  0  0
 11 34  1  0  0  0
 12 13  1  0  0  0
 14 35  1  0  0  0
 14 48  1  0  0  0
 15 36  1  0  0  0
 15 37  1  0  0  0
 15 38  1  0  0  0
 16 17  1  0  0  0
 16 39  1  0  0  0
 17 18  1  0  0  0
 17 19  2  0  0  0
 18 20  2  0  0  0
 18 24  1  0  0  0
 20 21  1  0  0  0
 21 22  2  0  0  0
 21 40  1  0  0  0
 22 23  1  0  0  0
 22 25  1  0  0  0
 23 24  2  0  0  0
 23 41  1  0  0  0
 24 42  1  0  0  0
 25 28  1  0  0  0
 28 29  1  0  0  0
 28 43  1  0  0  0
 28 44  1  0  0  0
 29 45  1  0  0  0
 29 46  1  0  0  0
 29 47  1  0  0  0
M  END
> <s_m_source_file>
../3zlq_ligand.sdf

> <i_m_source_file_index>
1

> <s_epik_input>
RkMxKEYpW0NIMl1PL0MoPU4vW0hdKVtOSF1bQ0BdMShbQ0gzXSljMltjSF1jKFtjSF1bY0hdYzJGKVtOSF1DKD1PKWMzbltjSF1jKFtjSF1bY0hdMylPW0NIMl1bQ0gzXQ==

> <s_epik_cmdline>
J2VwaWtfYXBwJywgJy1pbWFlJywgJ2xpZ2FuZF9wcm8ubWFlJywgJy1vbWFlJywgJ2xpZ2FuZF9wcmVwLm1hZScsICctbXMnLCAnMScsICctcGgnLCAnNycsICctcGh0JywgJzAuNScsICctbnQn

> <r_lp_tautomer_probability>
1

> <r_epik_Ionization_Penalty>
  0.1028

> <r_epik_Ionization_Penalty_Charging>
  0.0000

> <r_epik_Ionization_Penalty_Neutral>
  0.1028

> <r_epik_State_Penalty>
 -0.0000

> <r_epik_Charging_Adjusted_Penalty>
0

> <i_epik_Tot_Q>
0

> <i_epik_Tot_abs_Q>
0

> <s_epik_Chemistry_Notes>
This compound has an imine and may undergo hydrolysis.

$$$$
