3zls_ligand
                    3D
 Schrodinger Suite 2020-3.
 20 21  0  0  1  0            999 V2000
  -20.8130   26.5030   -3.0130 C   0  0  0  0  0  0
  -22.0960   27.0270   -2.9910 C   0  0  0  0  0  0
  -22.3640   28.3400   -2.8990 N   0  0  0  0  0  0
  -19.7350   27.3720   -2.9290 C   0  0  0  0  0  0
  -21.3460   30.5430   -2.7430 N   0  0  0  0  0  0
  -20.0550   30.9960   -2.7100 C   0  0  0  0  0  0
  -19.1760   29.9330   -2.7550 C   0  0  3  0  0  0
  -19.9890   28.7380   -2.8200 C   0  0  0  0  0  0
  -21.3130   29.1800   -2.8090 C   0  0  0  0  0  0
  -17.6920   29.9480   -2.7900 C   0  0  0  0  0  0
  -16.9990   28.9590   -2.8270 O   0  0  0  0  0  0
  -17.2110   31.1930   -2.8010 O   0  0  0  0  0  0
  -15.7750   31.3290   -2.6990 C   0  0  0  0  0  0
  -20.6540   25.4278   -3.0948 H   0  0  0  0  0  0
  -22.9353   26.3342   -3.0518 H   0  0  0  0  0  0
  -18.7124   26.9950   -2.9478 H   0  0  0  0  0  0
  -19.8522   32.0758   -2.6552 H   0  0  0  0  0  0
  -15.5054   32.3952   -2.7190 H   0  0  0  0  0  0
  -15.2969   30.8139   -3.5452 H   0  0  0  0  0  0
  -15.4304   30.8813   -1.7552 H   0  0  0  0  0  0
  1  2  2  0  0  0
  1  4  1  0  0  0
  1 14  1  0  0  0
  2  3  1  0  0  0
  2 15  1  0  0  0
  3  9  2  0  0  0
  4  8  2  0  0  0
  4 16  1  0  0  0
  5  6  2  0  0  0
  5  9  1  0  0  0
  6  7  1  0  0  0
  6 17  1  0  0  0
  7  8  1  0  0  0
  7 10  1  0  0  0
  8  9  1  0  0  0
 10 11  2  0  0  0
 10 12  1  0  0  0
 12 13  1  0  0  0
 13 18  1  0  0  0
 13 19  1  0  0  0
 13 20  1  0  0  0
M  END
> <s_m_source_file>
../3zls_ligand.sdf

> <i_m_source_file_index>
1

> <s_epik_input>
W2NIXTFbY0hdW2NIXW5jKGMxMilOPVtDSF1bQ0hdMkMoPU8pT1tDSDNd

> <s_epik_cmdline>
J2VwaWtfYXBwJywgJy1pbWFlJywgJ2xpZ2FuZF9wcm8ubWFlJywgJy1vbWFlJywgJ2xpZ2FuZF9wcmVwLm1hZScsICctbXMnLCAnMScsICctcGgnLCAnNycsICctcGh0JywgJzAuNScsICctbnQn

> <r_lp_tautomer_probability>
1

> <r_epik_Ionization_Penalty>
  0.0011

> <r_epik_Ionization_Penalty_Charging>
  0.0000

> <r_epik_Ionization_Penalty_Neutral>
  0.0011

> <r_epik_State_Penalty>
 -0.0000

> <r_epik_Charging_Adjusted_Penalty>
0

> <i_epik_Tot_Q>
0

> <i_epik_Tot_abs_Q>
0

> <s_epik_Chemistry_Notes>
This compound has an ester and may undergo hydrolysis at high or low pH. This compound has an imine and may undergo hydrolysis.

$$$$
