3zlv_ligand
                    3D
 Schrodinger Suite 2020-3.
 23 23  0  0  1  0            999 V2000
   38.0160   19.1120    9.8320 O   0  0  0  0  0  0
   38.0310   20.2490   10.2740 C   0  0  0  0  0  0
   39.0650   20.6880   10.9880 N   0  0  0  0  0  0
   36.8650   21.1730   10.0470 C   0  0  0  0  0  0
   36.7570   22.3330   10.7990 C   0  0  0  0  0  0
   35.6810   23.1910   10.5970 C   0  0  0  0  0  0
   34.7370   22.9020    9.6910 N   0  0  0  0  0  0
   34.8180   21.7830    8.9480 C   0  0  0  0  0  0
   35.8810   20.8920    9.1060 C   0  0  0  0  0  0
   33.6160   23.8350    9.5210 C   0  0  0  0  0  0
   32.3970   23.0990    9.6350 O   0  0  0  0  0  0
   31.2530   23.9200    9.8780 C   0  0  0  0  0  0
   39.9285   20.0305   11.1670 H   0  0  0  0  0  0
   39.0560   21.7083   11.3990 H   0  0  0  0  0  0
   37.5211   22.5728   11.5531 H   0  0  0  0  0  0
   35.6049   24.1078   11.1817 H   0  0  0  0  0  0
   34.0313   21.5749    8.2079 H   0  0  0  0  0  0
   35.9320   19.9819    8.4902 H   0  0  0  0  0  0
   33.6625   24.6099   10.3003 H   0  0  0  0  0  0
   33.6794   24.3077    8.5298 H   0  0  0  0  0  0
   30.3567   23.2868    9.9535 H   0  0  0  0  0  0
   31.1300   24.6322    9.0488 H   0  0  0  0  0  0
   31.3917   24.4729   10.8187 H   0  0  0  0  0  0
  1  2  2  0  0  0
  2  3  1  0  0  0
  2  4  1  0  0  0
  3 13  1  0  0  0
  3 14  1  0  0  0
  4  5  2  0  0  0
  4  9  1  0  0  0
  5  6  1  0  0  0
  5 15  1  0  0  0
  6  7  1  0  0  0
  6 16  1  0  0  0
  7  8  1  0  0  0
  7 10  1  0  0  0
  8  9  2  0  0  0
  8 17  1  0  0  0
  9 18  1  0  0  0
 10 11  1  0  0  0
 10 19  1  0  0  0
 10 20  1  0  0  0
 11 12  1  0  0  0
 12 21  1  0  0  0
 12 22  1  0  0  0
 12 23  1  0  0  0
M  END
> <s_m_source_file>
../3zlv_ligand.sdf

> <i_m_source_file_index>
1

> <s_epik_input>
Tz1DKFtOSDJdKUMxPVtDSF1bQ0gyXU4oW0NIXT1bQ0hdMSlbQ0gyXU9bQ0gzXQ==

> <s_epik_cmdline>
J2VwaWtfYXBwJywgJy1pbWFlJywgJ2xpZ2FuZF9wcm8ubWFlJywgJy1vbWFlJywgJ2xpZ2FuZF9wcmVwLm1hZScsICctbXMnLCAnMScsICctcGgnLCAnNycsICctcGh0JywgJzAuNScsICctbnQn

> <r_lp_tautomer_probability>
1

> <r_epik_Ionization_Penalty>
  0.0000

> <r_epik_Ionization_Penalty_Charging>
  0.0000

> <r_epik_Ionization_Penalty_Neutral>
  0.0000

> <r_epik_State_Penalty>
 -0.0000

> <r_epik_Charging_Adjusted_Penalty>
0

> <i_epik_Tot_Q>
0

> <i_epik_Tot_abs_Q>
0

> <s_epik_Chemistry_Notes>
This compound contains an acetal/aminal-like group ( X-CH(R)-Y where X, Y are N, S, or O) that may be acid/base labile, releasing an aldehyde.

$$$$
