3zlw_ligand
                    3D
 Schrodinger Suite 2020-3.
 31 33  0  0  1  0            999 V2000
  -17.2690   29.3540   -3.0350 C   0  0  1  0  0  0
  -16.8550   29.5960   -1.7480 O   0  0  0  0  0  0
  -18.4940   30.2360   -3.2510 C   0  0  0  0  0  0
  -19.6990   29.7600   -2.4490 C   0  0  0  0  0  0
  -16.1080   29.7550   -3.9590 C   0  0  0  0  0  0
  -20.1020   28.3910   -2.8250 N   0  0  0  0  0  0
  -21.4240   28.0340   -2.8800 C   0  0  0  0  0  0
  -22.3440   28.8000   -2.5950 O   0  0  0  0  0  0
  -21.7330   26.6230   -3.3000 C   0  0  0  0  0  0
  -20.6930   25.5980   -2.9400 C   0  0  0  0  0  0
  -19.2780   26.0680   -3.1640 C   0  0  0  0  0  0
  -18.2440   25.1560   -3.3830 C   0  0  0  0  0  0
  -16.9280   25.5800   -3.5040 C   0  0  0  0  0  0
  -16.6120   26.9280   -3.3950 C   0  0  0  0  0  0
  -18.9760   27.4450   -3.0600 C   0  0  0  0  0  0
  -17.6190   27.8650   -3.1680 C   0  0  0  0  0  0
  -16.5572   30.6115   -1.4478 H   0  0  0  0  0  0
  -18.2637   31.2658   -2.9403 H   0  0  0  0  0  0
  -18.7690   30.2271   -4.3160 H   0  0  0  0  0  0
  -19.4512   29.7648   -1.3773 H   0  0  0  0  0  0
  -20.5499   30.4327   -2.6316 H   0  0  0  0  0  0
  -15.8913   30.8259   -3.8318 H   0  0  0  0  0  0
  -16.3872   29.5590   -5.0048 H   0  0  0  0  0  0
  -15.2147   29.1670   -3.7016 H   0  0  0  0  0  0
  -22.6691   26.2955   -2.8242 H   0  0  0  0  0  0
  -21.8436   26.5818   -4.3936 H   0  0  0  0  0  0
  -20.7876   25.3380   -1.8754 H   0  0  0  0  0  0
  -20.8398   24.6960   -3.5522 H   0  0  0  0  0  0
  -18.4740   24.0933   -3.4602 H   0  0  0  0  0  0
  -16.1382   24.8511   -3.6856 H   0  0  0  0  0  0
  -15.5758   27.2536   -3.4870 H   0  0  0  0  0  0
  1  2  1  0  0  0
  1  3  1  0  0  0
  1  5  1  0  0  0
  1 16  1  0  0  0
  2 17  1  0  0  0
  3  4  1  0  0  0
  3 18  1  0  0  0
  3 19  1  0  0  0
  4  6  1  0  0  0
  4 20  1  0  0  0
  4 21  1  0  0  0
  5 22  1  0  0  0
  5 23  1  0  0  0
  5 24  1  0  0  0
  6  7  1  0  0  0
  6 15  1  0  0  0
  7  8  2  0  0  0
  7  9  1  0  0  0
  9 10  1  0  0  0
  9 25  1  0  0  0
  9 26  1  0  0  0
 10 11  1  0  0  0
 10 27  1  0  0  0
 10 28  1  0  0  0
 11 12  2  0  0  0
 11 15  1  0  0  0
 12 13  1  0  0  0
 12 29  1  0  0  0
 13 14  2  0  0  0
 13 30  1  0  0  0
 14 16  1  0  0  0
 14 31  1  0  0  0
 15 16  2  0  0  0
M  END
> <s_m_source_file>
../3zlw_ligand.sdf

> <i_m_source_file_index>
1

> <s_epik_input>
W0NIMl0xW0NIMl1bQ0BdKFtPSF0pKFtDSDNdKWMyW2NIXVtjSF1bY0hdYyhjMk4xMylbQ0gyXVtDSDJdQzM9Tw==

> <s_epik_cmdline>
J2VwaWtfYXBwJywgJy1pbWFlJywgJ2xpZ2FuZF9wcm8ubWFlJywgJy1vbWFlJywgJ2xpZ2FuZF9wcmVwLm1hZScsICctbXMnLCAnMScsICctcGgnLCAnNycsICctcGh0JywgJzAuNScsICctbnQn

> <r_lp_tautomer_probability>
1

> <r_epik_Ionization_Penalty>
  0.0000

> <r_epik_Ionization_Penalty_Charging>
  0.0000

> <r_epik_Ionization_Penalty_Neutral>
  0.0000

> <r_epik_State_Penalty>
 -0.0000

> <r_epik_Charging_Adjusted_Penalty>
0

> <i_epik_Tot_Q>
0

> <i_epik_Tot_abs_Q>
0

$$$$
