3zlx_ligand
                    3D
 Schrodinger Suite 2020-3.
 39 41  0  0  1  0            999 V2000
  -14.1690   23.0800   -4.4850 N   0  3  0  0  0  0
  -15.4140   23.9130   -4.5070 C   0  0  0  0  0  0
  -13.0530   24.0640   -4.3720 C   0  0  0  0  0  0
  -15.1250   25.0650   -3.5010 C   0  0  1  0  0  0
  -13.6420   25.3560   -3.7290 C   0  0  0  0  0  0
  -15.9810   26.2860   -3.7710 C   0  0  0  0  0  0
  -17.2070   25.9850   -3.0950 O   0  0  0  0  0  0
  -20.8020   26.9370   -2.8900 C   0  0  0  0  0  0
  -19.5430   26.1450   -2.7100 C   0  0  2  0  0  0
  -18.3750   26.7320   -3.4670 C   0  0  1  0  0  0
  -18.2270   28.1830   -3.1140 C   0  0  0  0  0  0
  -20.6990   28.2640   -2.9350 C   0  0  0  0  0  0
  -19.3650   28.9500   -2.9700 C   0  0  0  0  0  0
  -19.3280   30.3680   -2.7360 C   0  0  0  0  0  0
  -20.4720   31.0810   -2.6400 C   0  0  0  0  0  0
  -21.7660   30.5260   -2.7670 N   0  0  0  0  0  0
  -21.9410   29.1280   -3.0660 C   0  0  2  0  0  0
  -22.9780   28.5220   -2.4240 O   0  0  0  0  0  0
  -19.8050   24.4160   -3.2950 Cl  0  0  0  0  0  0
  -14.1995   22.3978   -3.6227 H   0  0  0  0  0  0
  -14.1032   22.4943   -5.4138 H   0  0  0  0  0  0
  -15.5850   24.2899   -5.5262 H   0  0  0  0  0  0
  -16.2715   23.2991   -4.1944 H   0  0  0  0  0  0
  -12.2571   23.6447   -3.7390 H   0  0  0  0  0  0
  -12.6505   24.2785   -5.3730 H   0  0  0  0  0  0
  -15.3599   24.8148   -2.4559 H   0  0  0  0  0  0
  -13.1243   25.5623   -2.7806 H   0  0  0  0  0  0
  -13.5016   26.2040   -4.4154 H   0  0  0  0  0  0
  -15.4847   27.1791   -3.3635 H   0  0  0  0  0  0
  -16.1177   26.4054   -4.8559 H   0  0  0  0  0  0
  -21.7880   26.4584   -2.9838 H   0  0  0  0  0  0
  -19.3005   26.3855   -1.6644 H   0  0  0  0  0  0
  -18.4840   26.6459   -4.5582 H   0  0  0  0  0  0
  -17.2356   28.6375   -2.9703 H   0  0  0  0  0  0
  -18.3556   30.8722   -2.6349 H   0  0  0  0  0  0
  -20.4309   32.1640   -2.4516 H   0  0  0  0  0  0
  -22.6447   31.1744   -2.6348 H   0  0  0  0  0  0
  -22.3078   29.1975   -4.1007 H   0  0  0  0  0  0
  -23.1827   27.4548   -2.5952 H   0  0  0  0  0  0
  1  2  1  0  0  0
  1  3  1  0  0  0
  1 20  1  0  0  0
  1 21  1  0  0  0
  2  4  1  0  0  0
  2 22  1  0  0  0
  2 23  1  0  0  0
  3  5  1  0  0  0
  3 24  1  0  0  0
  3 25  1  0  0  0
  4  5  1  0  0  0
  4  6  1  0  0  0
  4 26  1  0  0  0
  5 27  1  0  0  0
  5 28  1  0  0  0
  6  7  1  0  0  0
  6 29  1  0  0  0
  6 30  1  0  0  0
  7 10  1  0  0  0
  8  9  1  0  0  0
  8 12  2  0  0  0
  8 31  1  0  0  0
  9 10  1  0  0  0
  9 19  1  0  0  0
  9 32  1  0  0  0
 10 11  1  0  0  0
 10 33  1  0  0  0
 11 13  2  0  0  0
 11 34  1  0  0  0
 12 13  1  0  0  0
 12 17  1  0  0  0
 13 14  1  0  0  0
 14 15  2  0  0  0
 14 35  1  0  0  0
 15 16  1  0  0  0
 15 36  1  0  0  0
 16 17  1  0  0  0
 16 37  1  0  0  0
 17 18  1  0  0  0
 17 38  1  0  0  0
 18 39  1  0  0  0
M  CHG  1   1   1
M  END
> <s_m_source_file>
../3zlx_ligand.sdf

> <i_m_source_file_index>
1

> <s_epik_input>
W0NIMl0xW0NIMl1bTkgyK11bQ0gyXVtDQEBIXTFbQ0gyXU9bQ0BASF0oW0NASF0oQ2wpW0NIXT0yKVtDSF09QyhDMjMpW0NIXT1bQ0hdW05IXVtDQEBIXTNbT0hd

> <s_epik_cmdline>
J2VwaWtfYXBwJywgJy1pbWFlJywgJ2xpZ2FuZF9wcm8ubWFlJywgJy1vbWFlJywgJ2xpZ2FuZF9wcmVwLm1hZScsICctbXMnLCAnMScsICctcGgnLCAnNycsICctcGh0JywgJzAuNScsICctbnQn

> <r_epik_Ionization_Penalty>
  0.0116

> <r_epik_Ionization_Penalty_Charging>
  0.0001

> <r_epik_Ionization_Penalty_Neutral>
  0.0115

> <r_epik_State_Penalty>
  0.0089

> <r_epik_Charging_Adjusted_Penalty>
0.00895098106756808

> <i_epik_Tot_Q>
1

> <i_epik_Tot_abs_Q>
1

> <s_epik_Chemistry_Notes>
This compound contains an acetal/aminal-like group ( X-CH(R)-Y where X, Y are N, S, or O) that may be acid/base labile, releasing an aldehyde.

$$$$
