3zly_ligand
                    3D
 Schrodinger Suite 2020-3.
 18 19  0  0  1  0            999 V2000
  -18.5080   26.5200   -3.1050 C   0  0  0  0  0  0
  -18.2710   25.4210   -3.2890 N   0  0  0  0  0  0
  -18.7500   27.9220   -2.8960 C   0  0  0  0  0  0
  -17.6590   28.7860   -2.8010 C   0  0  0  0  0  0
  -17.8520   30.1490   -2.6800 C   0  0  0  0  0  0
  -19.1350   30.6740   -2.6270 C   0  0  0  0  0  0
  -20.2320   29.8190   -2.7170 C   0  0  0  0  0  0
  -21.5620   30.0650   -2.7450 N   0  0  0  0  0  0
  -22.2870   28.9180   -2.8650 N   0  3  0  0  0  0
  -21.4100   27.8870   -2.9340 C   0  0  3  0  0  0
  -20.0700   28.4240   -2.8480 C   0  0  0  0  0  0
  -21.8090   26.6140   -3.0700 N   0  0  0  0  0  0
  -16.6465   28.3830   -2.8224 H   0  0  0  0  0  0
  -16.9912   30.8154   -2.6259 H   0  0  0  0  0  0
  -19.2842   31.7480   -2.5157 H   0  0  0  0  0  0
  -22.8818   26.3762   -3.1198 H   0  0  0  0  0  0
  -21.0635   25.8076   -3.1318 H   0  0  0  0  0  0
  -23.3859   28.9619   -2.8891 H   0  0  0  0  0  0
  1  2  3  0  0  0
  1  3  1  0  0  0
  3  4  2  0  0  0
  3 11  1  0  0  0
  4  5  1  0  0  0
  4 13  1  0  0  0
  5  6  2  0  0  0
  5 14  1  0  0  0
  6  7  1  0  0  0
  6 15  1  0  0  0
  7  8  1  0  0  0
  7 11  2  0  0  0
  8  9  2  0  0  0
  9 10  1  0  0  0
  9 18  1  0  0  0
 10 11  1  0  0  0
 10 12  1  0  0  0
 12 16  1  0  0  0
 12 17  1  0  0  0
M  CHG  1   9   1
M  END
> <s_m_source_file>
../3zly_ligand.sdf

> <i_m_source_file_index>
1

> <s_epik_input>
W2NIXTFbY0hdW2NIXWMoQyNOKWMoYzEyKVtDSF0oTj1OMilbTkgyXQ==

> <s_epik_cmdline>
J2VwaWtfYXBwJywgJy1pbWFlJywgJ2xpZ2FuZF9wcm8ubWFlJywgJy1vbWFlJywgJ2xpZ2FuZF9wcmVwLm1hZScsICctbXMnLCAnMScsICctcGgnLCAnNycsICctcGh0JywgJzAuNScsICctbnQn

> <r_lp_tautomer_probability>
1

> <r_epik_Ionization_Penalty>
  0.0000

> <r_epik_Ionization_Penalty_Charging>
  0.0000

> <r_epik_Ionization_Penalty_Neutral>
  0.0000

> <r_epik_State_Penalty>
 -0.0000

> <r_epik_Charging_Adjusted_Penalty>
1.68821283756102e-05

> <i_epik_Tot_Q>
1

> <i_epik_Tot_abs_Q>
1

$$$$
