3zm4_ligand
                    3D
 Schrodinger Suite 2020-3.
 32 34  0  0  1  0            999 V2000
  -19.0190   25.2900   -3.2610 Cl  0  0  0  0  0  0
  -19.1530   27.0080   -3.0440 C   0  0  0  0  0  0
  -20.4100   27.5660   -2.9160 C   0  0  0  0  0  0
  -20.5510   28.9490   -2.8100 C   0  0  0  0  0  0
  -21.8970   29.5390   -2.7600 C   0  0  0  0  0  0
  -22.9180   28.8770   -2.6270 O   0  0  0  0  0  0
  -21.9360   30.9280   -2.7640 N   0  0  0  0  0  0
  -20.8210   31.7060   -2.7600 C   0  0  0  0  0  0
  -19.3930   29.7700   -2.8130 C   0  0  0  0  0  0
  -18.1330   29.1770   -2.9160 C   0  0  0  0  0  0
  -18.0050   27.8000   -3.0320 C   0  0  0  0  0  0
  -16.8080   27.1270   -3.1150 O   0  0  0  0  0  0
  -15.5420   27.8730   -3.1080 C   0  0  2  0  0  0
  -15.1170   28.1720   -4.5800 C   0  0  0  0  0  0
  -19.5480   31.2000   -2.7690 C   0  0  0  0  0  0
  -14.5230   26.8800   -2.5820 C   0  0  0  0  0  0
  -13.9880   26.1850   -3.8560 C   0  0  0  0  0  0
  -14.0970   27.1730   -4.9730 N   0  3  0  0  0  0
  -21.2916   26.9252   -2.8979 H   0  0  0  0  0  0
  -20.9151   32.8019   -2.7490 H   0  0  0  0  0  0
  -17.2403   29.8024   -2.9052 H   0  0  0  0  0  0
  -15.6548   28.7855   -2.5041 H   0  0  0  0  0  0
  -15.9956   28.0971   -5.2377 H   0  0  0  0  0  0
  -14.6982   29.1873   -4.6417 H   0  0  0  0  0  0
  -19.0109   31.5743   -3.6530 H   0  0  0  0  0  0
  -19.0205   31.5180   -1.8576 H   0  0  0  0  0  0
  -13.7319   27.4188   -2.0400 H   0  0  0  0  0  0
  -15.0182   26.1728   -1.9003 H   0  0  0  0  0  0
  -12.9400   25.8896   -3.6999 H   0  0  0  0  0  0
  -14.5932   25.2912   -4.0678 H   0  0  0  0  0  0
  -14.4118   26.6732   -5.9009 H   0  0  0  0  0  0
  -13.1335   27.6777   -5.1371 H   0  0  0  0  0  0
  1  2  1  0  0  0
  2  3  2  0  0  0
  2 11  1  0  0  0
  3  4  1  0  0  0
  3 19  1  0  0  0
  4  5  1  0  0  0
  4  9  2  0  0  0
  5  6  2  0  0  0
  5  7  1  0  0  0
  7  8  2  0  0  0
  8 15  1  0  0  0
  8 20  1  0  0  0
  9 10  1  0  0  0
  9 15  1  0  0  0
 10 11  2  0  0  0
 10 21  1  0  0  0
 11 12  1  0  0  0
 12 13  1  0  0  0
 13 14  1  0  0  0
 13 16  1  0  0  0
 13 22  1  0  0  0
 14 18  1  0  0  0
 14 23  1  0  0  0
 14 24  1  0  0  0
 15 25  1  0  0  0
 15 26  1  0  0  0
 16 17  1  0  0  0
 16 27  1  0  0  0
 16 28  1  0  0  0
 17 18  1  0  0  0
 17 29  1  0  0  0
 17 30  1  0  0  0
 18 31  1  0  0  0
 18 32  1  0  0  0
M  CHG  1  18   1
M  END
> <s_m_source_file>
../3zm4_ligand.sdf

> <i_m_source_file_index>
1

> <s_epik_input>
W0NIMl0xW0NIMl1bTkgyK11bQ0gyXVtDQEhdMU9jKGMoQ2wpW2NIXTIpW2NIXWMoYzIzKVtDSDJdW0NIXT1OQzM9Tw==

> <s_epik_cmdline>
J2VwaWtfYXBwJywgJy1pbWFlJywgJ2xpZ2FuZF9wcm8ubWFlJywgJy1vbWFlJywgJ2xpZ2FuZF9wcmVwLm1hZScsICctbXMnLCAnMScsICctcGgnLCAnNycsICctcGh0JywgJzAuNScsICctbnQn

> <r_lp_tautomer_probability>
1

> <r_epik_Ionization_Penalty>
  0.0010

> <r_epik_Ionization_Penalty_Charging>
  0.0010

> <r_epik_Ionization_Penalty_Neutral>
  0.0000

> <r_epik_State_Penalty>
 -0.0000

> <r_epik_Charging_Adjusted_Penalty>
0.00104309908305715

> <i_epik_Tot_Q>
1

> <i_epik_Tot_abs_Q>
1

> <s_epik_Chemistry_Notes>
This compound has an imine and may undergo hydrolysis.

$$$$
