3zm6_ligand
                    3D
 Schrodinger Suite 2020-3.
 69 74  0  0  1  0            999 V2000
   28.8350   40.2950    4.0350 O   0  0  0  0  0  0
   27.9670   40.6770    2.9610 S   0  0  0  0  0  0
   28.3410   41.9140    2.3580 O   0  0  0  0  0  0
   26.4060   40.8590    3.6050 N   0  0  0  0  0  0
   26.0320   42.2320    3.9300 C   0  0  0  0  0  0
   24.5210   42.1240    3.9000 C   0  0  0  0  0  0
   24.0830   41.1800    4.8800 O   0  0  0  0  0  0
   24.5450   39.8570    4.5840 C   0  0  0  0  0  0
   26.0760   39.8720    4.6000 C   0  0  0  0  0  0
   27.8870   39.4450    1.8990 C   0  0  0  0  0  0
   28.7780   38.4010    2.0730 C   0  0  0  0  0  0
   26.9330   39.3770    0.8740 C   0  0  0  0  0  0
   25.7360   40.6340    0.5320 Cl  0  0  0  0  0  0
   26.9020   38.2960    0.0120 C   0  0  0  0  0  0
   27.8130   37.2760    0.1490 C   0  0  0  0  0  0
   27.6890   35.9240   -0.9970 Cl  0  0  0  0  0  0
   28.7420   37.3140    1.1930 C   0  0  0  0  0  0
   29.7780   36.2750    1.3660 C   0  0  0  0  0  0
   30.0090   35.8050    2.4660 O   0  0  0  0  0  0
   30.5810   35.9880    0.1880 N   0  0  0  0  0  0
   31.5640   35.0640    0.2900 C   0  0  0  0  0  0
   32.4070   34.6700   -0.7470 C   0  0  0  0  0  0
   32.3050   35.2280   -2.0370 C   0  0  0  0  0  0
   32.2390   35.7320   -3.0890 N   0  0  0  0  0  0
   32.0000   34.2250    1.7130 S   0  0  0  0  0  0
   33.2690   33.2890    0.9140 C   0  0  0  0  0  0
   34.0460   32.3210    1.7150 C   0  0  0  0  0  0
   34.9070   31.5690    0.8200 N   0  3  3  0  0  0
   34.9850   31.7280   -0.6370 C   0  0  0  0  0  0
   34.4450   32.9960   -1.2970 C   0  0  0  0  0  0
   33.4220   33.6360   -0.4060 C   0  0  0  0  0  0
   35.7400   30.5780    1.4710 C   0  0  0  0  0  0
   36.2520   29.4820    0.5460 C   0  0  0  0  0  0
   35.4630   28.9210   -0.4630 C   0  0  0  0  0  0
   35.9800   27.9230   -1.2870 C   0  0  0  0  0  0
   37.2970   27.4900   -1.0770 C   0  0  0  0  0  0
   38.0880   28.0470   -0.0640 C   0  0  0  0  0  0
   37.5650   29.0460    0.7450 C   0  0  0  0  0  0
   37.9100   26.4310   -1.9350 C   0  0  0  0  0  0
   37.7560   26.3410   -3.2820 N   0  0  0  0  0  0
   38.7360   25.4450   -1.5060 N   0  3  0  0  0  0
   39.1220   24.6740   -2.6130 N   0  0  0  0  0  0
   38.4970   25.2370   -3.7380 N   0  3  0  0  0  0
   26.4368   42.4983    4.9175 H   0  0  0  0  0  0
   26.4418   42.9134    3.1699 H   0  0  0  0  0  0
   24.0787   43.1071    4.1190 H   0  0  0  0  0  0
   24.1970   41.7901    2.9033 H   0  0  0  0  0  0
   24.1652   39.1576    5.3433 H   0  0  0  0  0  0
   24.1797   39.5545    3.5915 H   0  0  0  0  0  0
   26.5095   38.9027    4.3128 H   0  0  0  0  0  0
   26.4838   40.1820    5.5734 H   0  0  0  0  0  0
   29.5013   38.4252    2.8881 H   0  0  0  0  0  0
   26.1528   38.2528   -0.7785 H   0  0  0  0  0  0
   30.3821   36.5173   -0.7555 H   0  0  0  0  0  0
   34.6543   32.8619    2.4549 H   0  0  0  0  0  0
   33.3573   31.6388    2.2349 H   0  0  0  0  0  0
   34.1174   30.8134    0.6953 H   0  0  0  0  0  0
   36.0377   31.6909   -0.9540 H   0  0  0  0  0  0
   34.4263   30.9157   -1.1249 H   0  0  0  0  0  0
   35.2717   33.7014   -1.4670 H   0  0  0  0  0  0
   33.9790   32.7384   -2.2595 H   0  0  0  0  0  0
   36.6228   31.0696    1.9058 H   0  0  0  0  0  0
   35.1660   30.0831    2.2683 H   0  0  0  0  0  0
   34.4389   29.2658   -0.6057 H   0  0  0  0  0  0
   35.3720   27.4872   -2.0798 H   0  0  0  0  0  0
   39.1092   27.6975    0.0881 H   0  0  0  0  0  0
   38.1754   29.4887    1.5321 H   0  0  0  0  0  0
   38.4961   25.0012   -4.7098 H   0  0  0  0  0  0
   39.1089   25.1919   -0.5026 H   0  0  0  0  0  0
  1  2  2  0  0  0
  2  3  2  0  0  0
  2  4  1  0  0  0
  2 10  1  0  0  0
  4  5  1  0  0  0
  4  9  1  0  0  0
  5  6  1  0  0  0
  5 44  1  0  0  0
  5 45  1  0  0  0
  6  7  1  0  0  0
  6 46  1  0  0  0
  6 47  1  0  0  0
  7  8  1  0  0  0
  8  9  1  0  0  0
  8 48  1  0  0  0
  8 49  1  0  0  0
  9 50  1  0  0  0
  9 51  1  0  0  0
 10 11  2  0  0  0
 10 12  1  0  0  0
 11 17  1  0  0  0
 11 52  1  0  0  0
 12 13  1  0  0  0
 12 14  2  0  0  0
 14 15  1  0  0  0
 14 53  1  0  0  0
 15 16  1  0  0  0
 15 17  2  0  0  0
 17 18  1  0  0  0
 18 19  2  0  0  0
 18 20  1  0  0  0
 20 21  1  0  0  0
 20 54  1  0  0  0
 21 22  2  0  0  0
 21 25  1  0  0  0
 22 23  1  0  0  0
 22 31  1  0  0  0
 23 24  3  0  0  0
 25 26  1  0  0  0
 26 27  1  0  0  0
 26 31  2  0  0  0
 27 28  1  0  0  0
 27 55  1  0  0  0
 27 56  1  0  0  0
 28 29  1  0  0  0
 28 32  1  0  0  0
 28 57  1  0  0  0
 29 30  1  0  0  0
 29 58  1  0  0  0
 29 59  1  0  0  0
 30 31  1  0  0  0
 30 60  1  0  0  0
 30 61  1  0  0  0
 32 33  1  0  0  0
 32 62  1  0  0  0
 32 63  1  0  0  0
 33 34  2  0  0  0
 33 38  1  0  0  0
 34 35  1  0  0  0
 34 64  1  0  0  0
 35 36  2  0  0  0
 35 65  1  0  0  0
 36 37  1  0  0  0
 36 39  1  0  0  0
 37 38  2  0  0  0
 37 66  1  0  0  0
 38 67  1  0  0  0
 39 40  2  0  0  0
 39 41  1  0  0  0
 40 43  1  0  0  0
 41 42  2  0  0  0
 41 69  1  0  0  0
 42 43  1  0  0  0
 43 68  1  0  0  0
M  CHG  3  28   1  41   1  43   1
M  END
> <s_m_source_file>
../3zm6_ligand.sdf

> <i_m_source_file_index>
1

> <s_epik_input>
W0NIMl0xW0NIMl1PW0NIMl1bQ0gyXU4xUyg9TykoPU8pYzJbY0hdYyhjKENsKVtjSF1jMkNsKUMoPU8pW05IXWMoczMpYyhDI04pYyhjMzQpW0NIMl1bQ0gyXVtOSCtdKFtDSDJdNClbQ0gyXWM1W2NIXVtjSF1jKFtjSF1bY0hdNSktYzZuW25IXW5uNg==

> <s_epik_cmdline>
J2VwaWtfYXBwJywgJy1pbWFlJywgJ2xpZ2FuZF9wcm8ubWFlJywgJy1vbWFlJywgJ2xpZ2FuZF9wcmVwLm1hZScsICctbXMnLCAnMScsICctcGgnLCAnNycsICctcGh0JywgJzAuNScsICctbnQn

> <r_epik_Ionization_Penalty>
 10.6922

> <r_epik_Ionization_Penalty_Charging>
 10.6920

> <r_epik_Ionization_Penalty_Neutral>
  0.0002

> <r_epik_State_Penalty>
  0.0112

> <r_epik_Charging_Adjusted_Penalty>
10.7032430182417

> <i_epik_Tot_Q>
3

> <i_epik_Tot_abs_Q>
3

> <s_epik_Chemistry_Notes>
This compound has an imine and may undergo hydrolysis.

$$$$
