3zm9_ligand
                    3D
 Schrodinger Suite 2020-3.
 72 76  0  0  1  0            999 V2000
   -9.4750   12.8270   -2.3820 C   0  0  0  0  0  0
   -9.0910   12.8470   -3.8110 N   0  0  0  0  0  0
   -8.1510   11.8420   -4.3640 C   0  0  0  0  0  0
   -9.6500   13.7720   -4.6430 C   0  0  0  0  0  0
   -9.4850   13.6890   -6.0430 C   0  0  0  0  0  0
  -10.0590   14.6280   -6.9160 C   0  0  0  0  0  0
  -10.4100   14.8340   -4.1270 C   0  0  0  0  0  0
  -10.9940   15.7780   -4.9860 C   0  0  0  0  0  0
  -10.8350   15.7040   -6.3870 N   0  0  0  0  0  0
  -11.4860   16.7320   -7.2850 C   0  0  0  0  0  0
  -12.5080   16.1580   -8.0850 C   0  0  0  0  0  0
  -12.7380   16.6060   -9.3950 C   0  0  0  0  0  0
  -13.7460   16.0210  -10.1740 C   0  0  0  0  0  0
  -13.3050   15.1160   -7.5840 C   0  0  0  0  0  0
  -14.3070   14.5260   -8.3570 C   0  0  0  0  0  0
  -14.5370   14.9800   -9.6620 C   0  0  0  0  0  0
  -15.5370   14.3720  -10.4480 C   0  0  0  0  0  0
  -15.0500   12.9510  -10.8560 C   0  0  0  0  0  0
  -15.6760   12.4430  -12.1720 C   0  0  0  0  0  0
  -15.2490   10.9720  -12.4240 C   0  0  0  0  0  0
  -16.2680   10.1870  -13.0230 C   0  0  0  0  0  0
  -16.6620   10.3750  -14.3620 C   0  0  0  0  0  0
  -17.6740    9.5830  -14.9390 C   0  0  0  0  0  0
  -16.8910    9.1810  -12.2760 C   0  0  0  0  0  0
  -17.9000    8.3910  -12.8570 C   0  0  0  0  0  0
  -18.2940    8.5750  -14.1870 C   0  0  0  0  0  0
  -19.3160    7.7750  -14.7490 C   0  0  0  0  0  0
  -18.8470    6.3630  -15.1670 N   0  0  0  0  0  0
  -17.6580    5.7950  -14.9480 C   0  0  0  0  0  0
  -17.6520    4.5670  -15.4550 N   0  0  0  0  0  0
  -18.8450    4.3610  -16.0070 C   0  0  0  0  0  0
  -19.5870    5.4690  -15.8190 C   0  0  0  0  0  0
  -20.8410    5.5480  -16.2860 N   0  0  0  0  0  0
  -21.3880    4.4570  -16.9650 C   0  0  0  0  0  0
  -20.5900    3.3230  -17.1320 N   0  0  0  0  0  0
  -19.3320    3.3020  -16.6540 C   0  0  0  0  0  0
  -18.5120    2.2330  -16.7950 N   0  0  0  0  0  0
   -8.9299   12.0221   -1.8671 H   0  0  0  0  0  0
  -10.5573   12.6505   -2.2956 H   0  0  0  0  0  0
   -9.2232   13.7935   -1.9211 H   0  0  0  0  0  0
   -7.8018   11.1828   -3.5556 H   0  0  0  0  0  0
   -7.2897   12.3554   -4.8163 H   0  0  0  0  0  0
   -8.6643   11.2424   -5.1302 H   0  0  0  0  0  0
   -8.8926   12.8713   -6.4795 H   0  0  0  0  0  0
   -9.2652   15.1267   -7.4915 H   0  0  0  0  0  0
  -10.7454   14.1154   -7.6060 H   0  0  0  0  0  0
  -10.5458   14.9223   -3.0390 H   0  0  0  0  0  0
  -11.5935   16.6020   -4.5716 H   0  0  0  0  0  0
  -11.9334   17.5261   -6.6691 H   0  0  0  0  0  0
  -10.7282   17.1685   -7.9522 H   0  0  0  0  0  0
  -12.1308   17.4115   -9.8081 H   0  0  0  0  0  0
  -13.9178   16.3785  -11.1893 H   0  0  0  0  0  0
  -13.1375   14.7594   -6.5677 H   0  0  0  0  0  0
  -14.9082   13.7148   -7.9463 H   0  0  0  0  0  0
  -16.4666   14.2968   -9.8647 H   0  0  0  0  0  0
  -15.7165   14.9795  -11.3473 H   0  0  0  0  0  0
  -13.9585   12.9626  -10.9923 H   0  0  0  0  0  0
  -15.3132   12.2323  -10.0660 H   0  0  0  0  0  0
  -16.7724   12.4964  -12.1010 H   0  0  0  0  0  0
  -15.3318   13.0699  -13.0078 H   0  0  0  0  0  0
  -14.3780   10.9530  -13.0956 H   0  0  0  0  0  0
  -14.9847   10.4979  -11.4673 H   0  0  0  0  0  0
  -16.1763   11.1453  -14.9611 H   0  0  0  0  0  0
  -17.9757    9.7541  -15.9723 H   0  0  0  0  0  0
  -16.5939    9.0090  -11.2415 H   0  0  0  0  0  0
  -18.3848    7.6196  -12.2586 H   0  0  0  0  0  0
  -20.1254    7.6454  -14.0154 H   0  0  0  0  0  0
  -19.7127    8.2663  -15.6497 H   0  0  0  0  0  0
  -16.8213    6.2665  -14.4326 H   0  0  0  0  0  0
  -22.4062    4.4895  -17.3526 H   0  0  0  0  0  0
  -17.4913    2.2650  -16.3861 H   0  0  0  0  0  0
  -18.8668    1.3329  -17.3184 H   0  0  0  0  0  0
  1  2  1  0  0  0
  1 38  1  0  0  0
  1 39  1  0  0  0
  1 40  1  0  0  0
  2  3  1  0  0  0
  2  4  1  0  0  0
  3 41  1  0  0  0
  3 42  1  0  0  0
  3 43  1  0  0  0
  4  5  2  0  0  0
  4  7  1  0  0  0
  5  6  1  0  0  0
  5 44  1  0  0  0
  6  9  1  0  0  0
  6 45  1  0  0  0
  6 46  1  0  0  0
  7  8  2  0  0  0
  7 47  1  0  0  0
  8  9  1  0  0  0
  8 48  1  0  0  0
  9 10  1  0  0  0
 10 11  1  0  0  0
 10 49  1  0  0  0
 10 50  1  0  0  0
 11 12  2  0  0  0
 11 14  1  0  0  0
 12 13  1  0  0  0
 12 51  1  0  0  0
 13 16  2  0  0  0
 13 52  1  0  0  0
 14 15  2  0  0  0
 14 53  1  0  0  0
 15 16  1  0  0  0
 15 54  1  0  0  0
 16 17  1  0  0  0
 17 18  1  0  0  0
 17 55  1  0  0  0
 17 56  1  0  0  0
 18 19  1  0  0  0
 18 57  1  0  0  0
 18 58  1  0  0  0
 19 20  1  0  0  0
 19 59  1  0  0  0
 19 60  1  0  0  0
 20 21  1  0  0  0
 20 61  1  0  0  0
 20 62  1  0  0  0
 21 22  2  0  0  0
 21 24  1  0  0  0
 22 23  1  0  0  0
 22 63  1  0  0  0
 23 26  2  0  0  0
 23 64  1  0  0  0
 24 25  2  0  0  0
 24 65  1  0  0  0
 25 26  1  0  0  0
 25 66  1  0  0  0
 26 27  1  0  0  0
 27 28  1  0  0  0
 27 67  1  0  0  0
 27 68  1  0  0  0
 28 29  1  0  0  0
 28 32  1  0  0  0
 29 30  2  0  0  0
 29 69  1  0  0  0
 30 31  1  0  0  0
 31 32  2  0  0  0
 31 36  1  0  0  0
 32 33  1  0  0  0
 33 34  2  0  0  0
 34 35  1  0  0  0
 34 70  1  0  0  0
 35 36  2  0  0  0
 36 37  1  0  0  0
 37 71  1  0  0  0
 37 72  1  0  0  0
M  END
> <s_m_source_file>
../3zm9_ligand.sdf

> <i_m_source_file_index>
1

> <s_epik_input>
W0NIM11OKFtDSDNdKUMxPVtDSF1bQ0gyXU4oW0NIXT1bQ0hdMSlbQ0gyXWMyW2NIXVtjSF1jKFtjSF1bY0hdMilbQ0gyXVtDSDJdW0NIMl1bQ0gyXWMzW2NIXVtjSF1jKFtjSF1bY0hdMylbQ0gyXW4oW2NIXW40KWMoYzQ1KW5bY0hdbmM1W05IMl0=

> <s_epik_cmdline>
J2VwaWtfYXBwJywgJy1pbWFlJywgJ2xpZ2FuZF9wcm8ubWFlJywgJy1vbWFlJywgJ2xpZ2FuZF9wcmVwLm1hZScsICctbXMnLCAnMScsICctcGgnLCAnNycsICctcGh0JywgJzAuNScsICctbnQn

> <r_lp_tautomer_probability>
1

> <r_epik_Ionization_Penalty>
  0.0008

> <r_epik_Ionization_Penalty_Charging>
  0.0000

> <r_epik_Ionization_Penalty_Neutral>
  0.0008

> <r_epik_State_Penalty>
 -0.0000

> <r_epik_Charging_Adjusted_Penalty>
7.77698517713282e-08

> <i_epik_Tot_Q>
0

> <i_epik_Tot_abs_Q>
0

> <s_epik_Chemistry_Notes>
This compound has an imine and may undergo hydrolysis.

$$$$
