3zmg_ligand
                    3D
 Schrodinger Suite 2020-3.
 42 44  0  0  1  0            999 V2000
  -21.5890   43.6970    2.4360 C   0  0  0  0  0  0
  -21.7590   43.0680    3.6480 C   0  0  0  0  0  0
  -20.8190   42.1320    4.0770 C   0  0  0  0  0  0
  -19.7380   41.8690    3.3570 N   0  0  0  0  0  0
  -19.5260   42.4900    2.2200 C   0  0  0  0  0  0
  -19.8300   40.8870    5.8690 N   0  0  0  0  0  0
  -19.0540   39.1320    9.5560 C   0  0  0  0  0  0
  -20.4280   43.4170    1.7080 C   0  0  0  0  0  0
  -20.9470   41.4840    5.3860 C   0  0  0  0  0  0
  -22.0160   41.5370    5.9750 O   0  0  0  0  0  0
  -20.2130   44.0230    0.4280 C   0  0  0  0  0  0
  -20.0060   44.4920   -0.5990 N   0  0  0  0  0  0
  -19.6310   40.2560    7.1000 C   0  0  0  0  0  0
  -20.6660   39.8530    7.9530 C   0  0  0  0  0  0
  -20.3610   39.2870    9.1700 C   0  0  0  0  0  0
  -18.0100   39.5260    8.7150 C   0  0  0  0  0  0
  -18.3180   40.0960    7.5270 C   0  0  0  0  0  0
  -18.7580   38.5860   10.7390 F   0  0  0  0  0  0
  -16.3260   37.9570    9.7040 C   0  0  0  0  0  0
  -15.0900   41.6650    8.2420 O   0  0  0  0  0  0
  -15.0710   40.5010    7.6170 C   0  0  0  0  0  0
  -15.7170   39.4190    7.9390 N   0  0  0  0  0  0
  -16.1120   40.4920   10.0690 C   0  0  0  0  0  0
  -16.0340   41.8090    9.3270 C   0  0  0  0  0  0
  -14.8480   40.2290   10.6070 F   0  0  0  0  0  0
  -17.0180   40.6140   11.1340 F   0  0  0  0  0  0
  -16.5790   39.3550    9.1250 C   0  0  1  0  0  0
  -14.2580   40.5230    6.5210 N   0  0  0  0  0  0
  -22.3366   44.3925    2.0547 H   0  0  0  0  0  0
  -22.6239   43.3003    4.2693 H   0  0  0  0  0  0
  -18.6161   42.2728    1.6605 H   0  0  0  0  0  0
  -18.9145   40.8582    5.2598 H   0  0  0  0  0  0
  -21.7060   39.9866    7.6552 H   0  0  0  0  0  0
  -21.1633   38.9598    9.8313 H   0  0  0  0  0  0
  -17.5091   40.4413    6.8832 H   0  0  0  0  0  0
  -16.6770   37.1960    8.9914 H   0  0  0  0  0  0
  -16.8709   37.8493   10.6535 H   0  0  0  0  0  0
  -15.2488   37.8234    9.8822 H   0  0  0  0  0  0
  -15.6934   42.6044   10.0062 H   0  0  0  0  0  0
  -17.0220   42.0717    8.9210 H   0  0  0  0  0  0
  -13.7158   41.4429    6.2568 H   0  0  0  0  0  0
  -14.1449   39.6208    5.9019 H   0  0  0  0  0  0
  1  2  2  0  0  0
  1  8  1  0  0  0
  1 29  1  0  0  0
  2  3  1  0  0  0
  2 30  1  0  0  0
  3  4  2  0  0  0
  3  9  1  0  0  0
  4  5  1  0  0  0
  5  8  2  0  0  0
  5 31  1  0  0  0
  6  9  1  0  0  0
  6 13  1  0  0  0
  6 32  1  0  0  0
  7 15  2  0  0  0
  7 16  1  0  0  0
  7 18  1  0  0  0
  8 11  1  0  0  0
  9 10  2  0  0  0
 11 12  3  0  0  0
 13 14  2  0  0  0
 13 17  1  0  0  0
 14 15  1  0  0  0
 14 33  1  0  0  0
 15 34  1  0  0  0
 16 17  2  0  0  0
 16 27  1  0  0  0
 17 35  1  0  0  0
 19 27  1  0  0  0
 19 36  1  0  0  0
 19 37  1  0  0  0
 19 38  1  0  0  0
 20 21  1  0  0  0
 20 24  1  0  0  0
 21 22  2  0  0  0
 21 28  1  0  0  0
 22 27  1  0  0  0
 23 24  1  0  0  0
 23 25  1  0  0  0
 23 26  1  0  0  0
 23 27  1  0  0  0
 24 39  1  0  0  0
 24 40  1  0  0  0
 28 41  1  0  0  0
 28 42  1  0  0  0
M  END
> <s_m_source_file>
../3zmg_ligand.sdf

> <i_m_source_file_index>
1

> <s_epik_input>
bjFbY0hdYyhDI04pW2NIXVtjSF1jMUMoPU8pW05IXWMoW2NIXVtjSF1jMkYpW2NIXWMyW0NAQF0zKFtDSDNdKVtOSF1DKD1OXFtIXSlcT1tDSDJdQzMoRilG

> <s_epik_cmdline>
J2VwaWtfYXBwJywgJy1pbWFlJywgJ2xpZ2FuZF9wcm8ubWFlJywgJy1vbWFlJywgJ2xpZ2FuZF9wcmVwLm1hZScsICctbXMnLCAnMScsICctcGgnLCAnNycsICctcGh0JywgJzAuNScsICctbnQn

> <r_lp_tautomer_probability>
1

> <r_epik_Ionization_Penalty>
  0.1032

> <r_epik_Ionization_Penalty_Charging>
  0.0000

> <r_epik_Ionization_Penalty_Neutral>
  0.1032

> <r_epik_State_Penalty>
 -0.0000

> <r_epik_Charging_Adjusted_Penalty>
0

> <i_epik_Tot_Q>
0

> <i_epik_Tot_abs_Q>
0

> <s_epik_Chemistry_Notes>
This compound has an imine and may undergo hydrolysis.

$$$$
