3zmh_ligand
                    3D
 Schrodinger Suite 2020-3.
 38 39  0  0  1  0            999 V2000
   -9.3550    9.4660  -49.0620 O   0  0  0  0  0  0
   -9.9230    8.6400  -48.3530 C   0  0  0  0  0  0
   -9.9900    8.8760  -46.9950 O   0  0  0  0  0  0
   -9.0750    9.7390  -46.4100 C   0  0  0  0  0  0
   -9.7280   11.0550  -46.2470 C   0  0  0  0  0  0
  -10.4230   10.8250  -44.9430 C   0  0  0  0  0  0
   -9.3600   10.1470  -44.1130 C   0  0  0  0  0  0
   -8.6690    9.2340  -45.0700 C   0  0  0  0  0  0
  -10.4520    7.4330  -48.9160 N   0  0  0  0  0  0
  -10.4180    7.4640  -50.3510 C   0  0  2  0  0  0
  -11.7960    7.2000  -50.8670 C   0  0  0  0  0  0
  -12.7330    8.1680  -50.2290 C   0  0  0  0  0  0
  -12.4980    9.3770  -50.2980 O   0  0  0  0  0  0
   -9.4640    6.4380  -50.8730 C   0  0  0  0  0  0
   -9.8120    5.6680  -51.9780 C   0  0  0  0  0  0
   -8.9360    4.7110  -52.4720 C   0  0  0  0  0  0
   -7.6970    4.5200  -51.8690 C   0  0  0  0  0  0
   -7.3360    5.2960  -50.7740 C   0  0  0  0  0  0
   -8.2180    6.2430  -50.2780 C   0  0  0  0  0  0
   -8.2124    9.7776  -47.0915 H   0  0  0  0  0  0
   -8.9615   11.8434  -46.2168 H   0  0  0  0  0  0
  -10.4062   11.2353  -47.0941 H   0  0  0  0  0  0
  -10.7397   11.7902  -44.5211 H   0  0  0  0  0  0
  -11.3054   10.1885  -45.1050 H   0  0  0  0  0  0
   -8.6771   10.9049  -43.7017 H   0  0  0  0  0  0
   -9.8350    9.5953  -43.2884 H   0  0  0  0  0  0
   -8.9975    8.1903  -44.9565 H   0  0  0  0  0  0
   -7.5744    9.2863  -44.9746 H   0  0  0  0  0  0
  -10.8517    6.5510  -48.3942 H   0  0  0  0  0  0
  -10.0714    8.4638  -50.6515 H   0  0  0  0  0  0
  -11.8094    7.3287  -51.9594 H   0  0  0  0  0  0
  -12.0908    6.1705  -50.6155 H   0  0  0  0  0  0
  -13.6287    7.8111  -49.6995 H   0  0  0  0  0  0
  -10.7787    5.8170  -52.4591 H   0  0  0  0  0  0
   -9.2197    4.1078  -53.3344 H   0  0  0  0  0  0
   -7.0119    3.7646  -52.2539 H   0  0  0  0  0  0
   -6.3609    5.1601  -50.3061 H   0  0  0  0  0  0
   -7.9345    6.8423  -49.4128 H   0  0  0  0  0  0
  1  2  2  0  0  0
  2  3  1  0  0  0
  2  9  1  0  0  0
  3  4  1  0  0  0
  4  5  1  0  0  0
  4  8  1  0  0  0
  4 20  1  0  0  0
  5  6  1  0  0  0
  5 21  1  0  0  0
  5 22  1  0  0  0
  6  7  1  0  0  0
  6 23  1  0  0  0
  6 24  1  0  0  0
  7  8  1  0  0  0
  7 25  1  0  0  0
  7 26  1  0  0  0
  8 27  1  0  0  0
  8 28  1  0  0  0
  9 10  1  0  0  0
  9 29  1  0  0  0
 10 11  1  0  0  0
 10 14  1  0  0  0
 10 30  1  0  0  0
 11 12  1  0  0  0
 11 31  1  0  0  0
 11 32  1  0  0  0
 12 13  2  0  0  0
 12 33  1  0  0  0
 14 15  2  0  0  0
 14 19  1  0  0  0
 15 16  1  0  0  0
 15 34  1  0  0  0
 16 17  2  0  0  0
 16 35  1  0  0  0
 17 18  1  0  0  0
 17 36  1  0  0  0
 18 19  2  0  0  0
 18 37  1  0  0  0
 19 38  1  0  0  0
M  END
> <s_m_source_file>
../3zmh_ligand.sdf

> <i_m_source_file_index>
1

> <s_epik_input>
W0NIMl0xW0NIMl1bQ0gyXVtDSDJdW0NIXTFPQyg9TylbTkhdW0NASF0oW0NIMl1bQ0hdPU8pYzJbY0hdW2NIXVtjSF1bY0hdW2NIXTI=

> <s_epik_cmdline>
J2VwaWtfYXBwJywgJy1pbWFlJywgJ2xpZ2FuZF9wcm8ubWFlJywgJy1vbWFlJywgJ2xpZ2FuZF9wcmVwLm1hZScsICctbXMnLCAnMScsICctcGgnLCAnNycsICctcGh0JywgJzAuNScsICctbnQn

> <r_lp_tautomer_probability>
1

> <r_epik_Ionization_Penalty>
  0.0000

> <r_epik_Ionization_Penalty_Charging>
  0.0000

> <r_epik_Ionization_Penalty_Neutral>
  0.0000

> <r_epik_State_Penalty>
 -0.0000

> <r_epik_Charging_Adjusted_Penalty>
0

> <i_epik_Tot_Q>
0

> <i_epik_Tot_abs_Q>
0

> <s_epik_Chemistry_Notes>
This compound has an ester and may undergo hydrolysis at high or low pH.

$$$$
