3zmi_ligand
                    3D
 Schrodinger Suite 2020-3.
 35 36  0  0  1  0            999 V2000
   14.1180   -6.3350   50.7370 O   0  0  0  0  0  0
   13.3630   -7.2840   50.8450 C   0  0  0  0  0  0
   12.0430   -7.0940   51.4890 C   0  0  0  0  0  0
   11.5970   -5.8070   50.9380 C   0  0  2  0  0  0
   10.3150   -5.3050   51.5050 C   0  0  0  0  0  0
   10.2990   -4.2800   52.4570 C   0  0  0  0  0  0
    9.1040   -3.7890   52.9890 C   0  0  0  0  0  0
    7.8880   -4.3110   52.5710 C   0  0  0  0  0  0
    7.8820   -5.3130   51.6180 C   0  0  0  0  0  0
    9.0800   -5.7970   51.0890 C   0  0  0  0  0  0
   11.3990   -6.0290   49.5320 N   0  0  0  0  0  0
   11.9590   -4.9270   48.8000 C   0  0  0  0  0  0
   12.6950   -4.1200   49.3790 O   0  0  0  0  0  0
   12.0480   -5.0720   47.4370 O   0  0  0  0  0  0
   12.9120   -4.2570   46.7520 C   0  0  0  0  0  0
   14.2970   -4.4440   46.8400 C   0  0  0  0  0  0
   15.1560   -3.6110   46.1430 C   0  0  0  0  0  0
   14.6660   -2.5830   45.3480 C   0  0  0  0  0  0
   13.2960   -2.4070   45.2430 C   0  0  0  0  0  0
   12.4220   -3.2250   45.9380 C   0  0  0  0  0  0
   13.6636   -8.2719   50.4658 H   0  0  0  0  0  0
   11.3784   -7.9268   51.2157 H   0  0  0  0  0  0
   12.1683   -7.0683   52.5815 H   0  0  0  0  0  0
   12.3698   -5.0544   51.1532 H   0  0  0  0  0  0
   11.2441   -3.8530   52.7927 H   0  0  0  0  0  0
    9.1269   -2.9939   53.7343 H   0  0  0  0  0  0
    6.9525   -3.9371   52.9872 H   0  0  0  0  0  0
    6.9338   -5.7285   51.2769 H   0  0  0  0  0  0
    9.0481   -6.5798   50.3312 H   0  0  0  0  0  0
   10.8851   -6.9378   49.1857 H   0  0  0  0  0  0
   14.6995   -5.2465   47.4581 H   0  0  0  0  0  0
   16.2324   -3.7644   46.2194 H   0  0  0  0  0  0
   15.3502   -1.9236   44.8139 H   0  0  0  0  0  0
   12.9017   -1.6154   44.6058 H   0  0  0  0  0  0
   11.3470   -3.0663   45.8523 H   0  0  0  0  0  0
  1  2  2  0  0  0
  2  3  1  0  0  0
  2 21  1  0  0  0
  3  4  1  0  0  0
  3 22  1  0  0  0
  3 23  1  0  0  0
  4  5  1  0  0  0
  4 11  1  0  0  0
  4 24  1  0  0  0
  5  6  2  0  0  0
  5 10  1  0  0  0
  6  7  1  0  0  0
  6 25  1  0  0  0
  7  8  2  0  0  0
  7 26  1  0  0  0
  8  9  1  0  0  0
  8 27  1  0  0  0
  9 10  2  0  0  0
  9 28  1  0  0  0
 10 29  1  0  0  0
 11 12  1  0  0  0
 11 30  1  0  0  0
 12 13  2  0  0  0
 12 14  1  0  0  0
 14 15  1  0  0  0
 15 16  2  0  0  0
 15 20  1  0  0  0
 16 17  1  0  0  0
 16 31  1  0  0  0
 17 18  2  0  0  0
 17 32  1  0  0  0
 18 19  1  0  0  0
 18 33  1  0  0  0
 19 20  2  0  0  0
 19 34  1  0  0  0
 20 35  1  0  0  0
M  END
> <s_m_source_file>
../3zmi_ligand.sdf

> <i_m_source_file_index>
1

> <s_epik_input>
W2NIXTFbY0hdW2NIXVtjSF1bY0hdYzFbQ0BASF0oW0NIMl1bQ0hdPU8pW05IXUMoPU8pT2MyW2NIXVtjSF1bY0hdW2NIXVtjSF0y

> <s_epik_cmdline>
J2VwaWtfYXBwJywgJy1pbWFlJywgJ2xpZ2FuZF9wcm8ubWFlJywgJy1vbWFlJywgJ2xpZ2FuZF9wcmVwLm1hZScsICctbXMnLCAnMScsICctcGgnLCAnNycsICctcGh0JywgJzAuNScsICctbnQn

> <r_lp_tautomer_probability>
1

> <r_epik_Ionization_Penalty>
  0.0000

> <r_epik_Ionization_Penalty_Charging>
  0.0000

> <r_epik_Ionization_Penalty_Neutral>
  0.0000

> <r_epik_State_Penalty>
 -0.0000

> <r_epik_Charging_Adjusted_Penalty>
0

> <i_epik_Tot_Q>
0

> <i_epik_Tot_abs_Q>
0

$$$$
