3zmj_ligand
                    3D
 Schrodinger Suite 2020-3.
 37 37  0  0  1  0            999 V2000
  -12.2380   -9.1800   49.8770 O   0  0  0  0  0  0
  -12.6550   -8.0420   50.1590 C   0  0  0  0  0  0
  -11.8200   -7.1110   50.9760 C   0  0  0  0  0  0
  -10.4030   -7.2390   50.5270 C   0  0  1  0  0  0
  -10.4020   -7.0590   49.0980 N   0  0  0  0  0  0
   -9.2250   -7.5900   48.4370 C   0  0  0  0  0  0
   -9.4450   -8.7210   47.6400 O   0  0  0  0  0  0
   -8.9950   -8.5590   46.3700 C   0  0  0  0  0  0
   -8.3710   -6.8310   48.0070 O   0  0  0  0  0  0
   -9.5950   -6.1990   51.2350 C   0  0  0  0  0  0
   -8.3950   -5.7120   50.7460 C   0  0  0  0  0  0
   -7.6630   -4.7450   51.4350 C   0  0  0  0  0  0
   -8.1530   -4.2550   52.6490 C   0  0  0  0  0  0
   -9.3460   -4.7270   53.1570 C   0  0  0  0  0  0
  -10.0630   -5.6940   52.4630 C   0  0  0  0  0  0
   -8.9090   -9.9470   45.7150 C   0  0  0  0  0  0
   -8.6810   -9.6470   44.3310 C   0  0  0  0  0  0
  -10.2080  -10.6250   45.9550 C   0  0  0  0  0  0
  -13.6445   -7.7157   49.8062 H   0  0  0  0  0  0
  -12.1711   -6.0789   50.8291 H   0  0  0  0  0  0
  -11.9051   -7.3794   52.0393 H   0  0  0  0  0  0
   -9.9582   -8.2252   50.7260 H   0  0  0  0  0  0
  -11.2475   -6.5555   48.6065 H   0  0  0  0  0  0
   -9.6941   -7.9187   45.8122 H   0  0  0  0  0  0
   -8.0018   -8.0867   46.3903 H   0  0  0  0  0  0
   -8.0127   -6.0936   49.7992 H   0  0  0  0  0  0
   -6.7201   -4.3758   51.0316 H   0  0  0  0  0  0
   -7.5911   -3.4979   53.1959 H   0  0  0  0  0  0
   -9.7260   -4.3412   54.1029 H   0  0  0  0  0  0
  -11.0008   -6.0667   52.8751 H   0  0  0  0  0  0
   -8.1194  -10.6363   46.0487 H   0  0  0  0  0  0
   -7.7071   -9.1479   44.2196 H   0  0  0  0  0  0
   -9.4774   -8.9830   43.9637 H   0  0  0  0  0  0
   -8.6837  -10.5800   43.7483 H   0  0  0  0  0  0
  -10.3229  -10.8271   47.0301 H   0  0  0  0  0  0
  -10.2348  -11.5735   45.3986 H   0  0  0  0  0  0
  -11.0285   -9.9766   45.6140 H   0  0  0  0  0  0
  1  2  2  0  0  0
  2  3  1  0  0  0
  2 19  1  0  0  0
  3  4  1  0  0  0
  3 20  1  0  0  0
  3 21  1  0  0  0
  4  5  1  0  0  0
  4 10  1  0  0  0
  4 22  1  0  0  0
  5  6  1  0  0  0
  5 23  1  0  0  0
  6  7  1  0  0  0
  6  9  2  0  0  0
  7  8  1  0  0  0
  8 16  1  0  0  0
  8 24  1  0  0  0
  8 25  1  0  0  0
 10 11  2  0  0  0
 10 15  1  0  0  0
 11 12  1  0  0  0
 11 26  1  0  0  0
 12 13  2  0  0  0
 12 27  1  0  0  0
 13 14  1  0  0  0
 13 28  1  0  0  0
 14 15  2  0  0  0
 14 29  1  0  0  0
 15 30  1  0  0  0
 16 17  1  0  0  0
 16 18  1  0  0  0
 16 31  1  0  0  0
 17 32  1  0  0  0
 17 33  1  0  0  0
 17 34  1  0  0  0
 18 35  1  0  0  0
 18 36  1  0  0  0
 18 37  1  0  0  0
M  END
> <s_m_source_file>
../3zmj_ligand.sdf

> <i_m_source_file_index>
1

> <s_epik_input>
W0NIM11bQ0hdKFtDSDNdKVtDSDJdT0MoPU8pW05IXVtDQEhdKFtDSDJdW0NIXT1PKWMxW2NIXVtjSF1bY0hdW2NIXVtjSF0x

> <s_epik_cmdline>
J2VwaWtfYXBwJywgJy1pbWFlJywgJ2xpZ2FuZF9wcm8ubWFlJywgJy1vbWFlJywgJ2xpZ2FuZF9wcmVwLm1hZScsICctbXMnLCAnMScsICctcGgnLCAnNycsICctcGh0JywgJzAuNScsICctbnQn

> <r_lp_tautomer_probability>
1

> <r_epik_Ionization_Penalty>
  0.0000

> <r_epik_Ionization_Penalty_Charging>
  0.0000

> <r_epik_Ionization_Penalty_Neutral>
  0.0000

> <r_epik_State_Penalty>
 -0.0000

> <r_epik_Charging_Adjusted_Penalty>
0

> <i_epik_Tot_Q>
0

> <i_epik_Tot_abs_Q>
0

> <s_epik_Chemistry_Notes>
This compound has an ester and may undergo hydrolysis at high or low pH.

$$$$
