3zmm_ligand
                    3D
 Schrodinger Suite 2020-3.
 50 53  0  0  1  0            999 V2000
    3.4120    1.3310   24.3740 C   0  0  0  0  0  0
    2.5890    1.5260   25.5870 C   0  0  0  0  0  0
    1.3260    2.0310   25.7770 C   0  0  0  0  0  0
    1.0960    1.9570   27.1720 C   0  0  3  0  0  0
    2.1650    1.4320   27.7870 N   0  3  0  0  0  0
    3.0500    1.1800   26.8210 N   0  0  0  0  0  0
   -0.0520    2.3490   27.8050 N   0  0  0  0  0  0
   -1.2130    2.9170   27.2730 C   0  0  0  0  0  0
   -2.2120    3.0590   28.1590 N   0  0  0  0  0  0
   -3.3710    3.6030   27.7660 C   0  0  0  0  0  0
   -3.4790    3.9930   26.4470 C   0  0  0  0  0  0
   -2.4240    3.8210   25.5770 C   0  0  0  0  0  0
   -1.2680    3.2810   25.9810 N   0  0  0  0  0  0
   -2.6270    4.2550   24.2520 O   0  0  0  0  0  0
   -1.5950    3.8520   23.3030 C   0  0  1  0  0  0
   -2.1870    3.8430   21.9110 C   0  0  0  0  0  0
   -0.4030    4.7670   23.3660 C   0  0  0  0  0  0
   -0.6040    6.0350   23.7610 N   0  0  0  0  0  0
    0.4790    6.8220   23.8410 C   0  0  0  0  0  0
    1.7270    6.3470   23.5230 C   0  0  0  0  0  0
    1.8440    5.0390   23.1180 C   0  0  0  0  0  0
    0.7760    4.2290   23.0380 N   0  0  0  0  0  0
    2.7910    7.1410   23.6010 F   0  0  0  0  0  0
   -4.6030    4.5390   25.9930 F   0  0  0  0  0  0
   -4.4310    3.7600   28.7200 N   0  0  0  0  0  0
   -4.3100    3.0700   30.0050 C   0  0  0  0  0  0
   -5.5890    2.3190   30.3550 C   0  0  0  0  0  0
   -6.7480    3.1320   30.0840 O   0  0  0  0  0  0
   -6.8000    3.5130   28.7060 C   0  0  0  0  0  0
   -5.6600    4.4820   28.4350 C   0  0  0  0  0  0
    2.8521    1.6749   23.4918 H   0  0  0  0  0  0
    3.6530    0.2636   24.2621 H   0  0  0  0  0  0
    4.3431    1.9095   24.4658 H   0  0  0  0  0  0
    0.7386    2.3817   24.9157 H   0  0  0  0  0  0
   -0.1476    2.2299   28.8944 H   0  0  0  0  0  0
   -1.2627    2.8450   23.5953 H   0  0  0  0  0  0
   -3.0560    3.1690   21.8865 H   0  0  0  0  0  0
   -1.4307    3.4926   21.1932 H   0  0  0  0  0  0
   -2.5048    4.8609   21.6411 H   0  0  0  0  0  0
    0.3662    7.8569   24.1642 H   0  0  0  0  0  0
    2.8276    4.6496   22.8553 H   0  0  0  0  0  0
   -3.4826    2.3468   29.9563 H   0  0  0  0  0  0
   -4.1084    3.8049   30.7983 H   0  0  0  0  0  0
   -5.6509    1.4002   29.7534 H   0  0  0  0  0  0
   -5.5801    2.0578   31.4235 H   0  0  0  0  0  0
   -6.6933    2.6189   28.0741 H   0  0  0  0  0  0
   -7.7649    3.9976   28.4957 H   0  0  0  0  0  0
   -5.7279    5.3631   29.0900 H   0  0  0  0  0  0
   -5.6597    4.8057   27.3837 H   0  0  0  0  0  0
    2.4116    1.1989   28.8333 H   0  0  0  0  0  0
  1  2  1  0  0  0
  1 31  1  0  0  0
  1 32  1  0  0  0
  1 33  1  0  0  0
  2  3  2  0  0  0
  2  6  1  0  0  0
  3  4  1  0  0  0
  3 34  1  0  0  0
  4  5  1  0  0  0
  4  7  1  0  0  0
  5  6  2  0  0  0
  5 50  1  0  0  0
  7  8  1  0  0  0
  7 35  1  0  0  0
  8  9  2  0  0  0
  8 13  1  0  0  0
  9 10  1  0  0  0
 10 11  2  0  0  0
 10 25  1  0  0  0
 11 12  1  0  0  0
 11 24  1  0  0  0
 12 13  2  0  0  0
 12 14  1  0  0  0
 14 15  1  0  0  0
 15 16  1  0  0  0
 15 17  1  0  0  0
 15 36  1  0  0  0
 16 37  1  0  0  0
 16 38  1  0  0  0
 16 39  1  0  0  0
 17 18  2  0  0  0
 17 22  1  0  0  0
 18 19  1  0  0  0
 19 20  2  0  0  0
 19 40  1  0  0  0
 20 21  1  0  0  0
 20 23  1  0  0  0
 21 22  2  0  0  0
 21 41  1  0  0  0
 25 26  1  0  0  0
 25 30  1  0  0  0
 26 27  1  0  0  0
 26 42  1  0  0  0
 26 43  1  0  0  0
 27 28  1  0  0  0
 27 44  1  0  0  0
 27 45  1  0  0  0
 28 29  1  0  0  0
 29 30  1  0  0  0
 29 46  1  0  0  0
 29 47  1  0  0  0
 30 48  1  0  0  0
 30 49  1  0  0  0
M  CHG  1   5   1
M  END
> <s_m_source_file>
../3zmm_ligand.sdf

> <i_m_source_file_index>
1

> <s_epik_input>
W0NIM11DMT1bQ0hdW0NIXShOPU4xKVtOSF1jMm5jKE4zW0NIMl1bQ0gyXU9bQ0gyXVtDSDJdMyljKEYpYyhuMilPW0NAQEhdKFtDSDNdKWM0bltjSF1jKEYpW2NIXW40

> <s_epik_cmdline>
J2VwaWtfYXBwJywgJy1pbWFlJywgJ2xpZ2FuZF9wcm8ubWFlJywgJy1vbWFlJywgJ2xpZ2FuZF9wcmVwLm1hZScsICctbXMnLCAnMScsICctcGgnLCAnNycsICctcGh0JywgJzAuNScsICctbnQn

> <r_lp_tautomer_probability>
1

> <r_epik_Ionization_Penalty>
  0.0466

> <r_epik_Ionization_Penalty_Charging>
  0.0275

> <r_epik_Ionization_Penalty_Neutral>
  0.0191

> <r_epik_State_Penalty>
 -0.0000

> <r_epik_Charging_Adjusted_Penalty>
0.0275283975909816

> <i_epik_Tot_Q>
1

> <i_epik_Tot_abs_Q>
1

> <s_epik_Chemistry_Notes>
This compound contains an electron-poor aromatic ring that is susceptible to covalent hydrolysis at low pH, typically resulting in measured values for nitrogen ring protonation that are around two units higher than predicted values.

$$$$
