3zmp_ligand
                    3D
 Schrodinger Suite 2020-3.
 49 49  0  0  1  0            999 V2000
  -17.8580  -15.0050  -35.3030 N   0  3  0  0  0  0
  -16.7250  -15.9200  -35.4110 C   0  0  2  0  0  0
  -15.6660  -15.4040  -36.3740 C   0  0  0  0  0  0
  -15.9900  -14.9310  -37.4580 O   0  0  0  0  0  0
  -17.2040  -17.3070  -35.8410 C   0  0  0  0  0  0
  -14.3990  -15.5560  -35.9860 N   0  0  0  0  0  0
  -13.2620  -15.1300  -36.7880 C   0  0  2  0  0  0
  -12.9940  -16.0470  -37.9520 C   0  0  0  0  0  0
  -13.1520  -15.6210  -39.1390 O   0  0  0  0  0  0
  -12.0650  -15.0950  -35.8850 C   0  0  0  0  0  0
  -10.8080  -14.4880  -36.4390 C   0  0  0  0  0  0
   -9.6960  -15.2830  -36.7070 C   0  0  0  0  0  0
  -10.7250  -13.1230  -36.6560 C   0  0  0  0  0  0
   -8.5250  -14.7170  -37.2010 C   0  0  0  0  0  0
   -9.5570  -12.5610  -37.1530 C   0  0  0  0  0  0
   -8.4530  -13.3510  -37.4220 C   0  0  0  0  0  0
   -7.2010  -12.7390  -37.9680 C   0  0  0  0  0  0
   -6.3850  -13.6750  -38.4340 F   0  0  0  0  0  0
   -7.4870  -11.9240  -38.9800 F   0  0  0  0  0  0
   -6.2720  -11.7650  -36.7410 P   0  0  0  0  0  0
   -5.0070  -11.3090  -37.5400 O   0  5  0  0  0  0
   -7.0820  -10.5950  -36.2750 O   0  0  0  0  0  0
   -5.8190  -12.5880  -35.5040 O   0  5  0  0  0  0
  -12.5750  -17.2820  -37.6430 N   0  0  0  0  0  0
  -12.2750  -18.3450  -38.6230 C   0  0  2  0  0  0
  -11.6830  -17.8480  -39.9470 C   0  0  0  0  0  0
  -11.1570  -18.6230  -40.7460 O   0  5  0  0  0  0
  -13.5110  -19.2240  -38.8770 C   0  0  0  0  0  0
  -11.7288  -16.7855  -40.1861 O   0  0  0  0  0  0
  -17.4994  -14.0123  -34.9933 H   0  0  0  0  0  0
  -18.5685  -15.3878  -34.5555 H   0  0  0  0  0  0
  -18.3596  -14.9257  -36.2788 H   0  0  0  0  0  0
  -16.2904  -15.9546  -34.4011 H   0  0  0  0  0  0
  -17.9682  -17.6659  -35.1359 H   0  0  0  0  0  0
  -16.3529  -18.0038  -35.8452 H   0  0  0  0  0  0
  -17.6354  -17.2490  -36.8512 H   0  0  0  0  0  0
  -14.2348  -16.0298  -35.0070 H   0  0  0  0  0  0
  -13.5103  -14.1398  -37.1976 H   0  0  0  0  0  0
  -12.3024  -14.5103  -34.9840 H   0  0  0  0  0  0
  -11.7940  -16.1210  -35.5954 H   0  0  0  0  0  0
   -9.7437  -16.3572  -36.5282 H   0  0  0  0  0  0
  -11.5816  -12.4861  -36.4353 H   0  0  0  0  0  0
   -7.6630  -15.3490  -37.4145 H   0  0  0  0  0  0
   -9.5089  -11.4871  -37.3331 H   0  0  0  0  0  0
  -12.4587  -17.4774  -36.5668 H   0  0  0  0  0  0
  -11.4815  -18.9174  -38.1203 H   0  0  0  0  0  0
  -13.9192  -19.5692  -37.9157 H   0  0  0  0  0  0
  -13.2237  -20.0933  -39.4868 H   0  0  0  0  0  0
  -14.2742  -18.6382  -39.4103 H   0  0  0  0  0  0
  1  2  1  0  0  0
  1 30  1  0  0  0
  1 31  1  0  0  0
  1 32  1  0  0  0
  2  3  1  0  0  0
  2  5  1  0  0  0
  2 33  1  0  0  0
  3  4  2  0  0  0
  3  6  1  0  0  0
  5 34  1  0  0  0
  5 35  1  0  0  0
  5 36  1  0  0  0
  6  7  1  0  0  0
  6 37  1  0  0  0
  7  8  1  0  0  0
  7 10  1  0  0  0
  7 38  1  0  0  0
  8  9  2  0  0  0
  8 24  1  0  0  0
 10 11  1  0  0  0
 10 39  1  0  0  0
 10 40  1  0  0  0
 11 12  2  0  0  0
 11 13  1  0  0  0
 12 14  1  0  0  0
 12 41  1  0  0  0
 13 15  2  0  0  0
 13 42  1  0  0  0
 14 16  2  0  0  0
 14 43  1  0  0  0
 15 16  1  0  0  0
 15 44  1  0  0  0
 16 17  1  0  0  0
 17 18  1  0  0  0
 17 19  1  0  0  0
 17 20  1  0  0  0
 20 21  1  0  0  0
 20 22  2  0  0  0
 20 23  1  0  0  0
 24 25  1  0  0  0
 24 45  1  0  0  0
 25 26  1  0  0  0
 25 28  1  0  0  0
 25 46  1  0  0  0
 26 27  1  0  0  0
 26 29  2  0  0  0
 28 47  1  0  0  0
 28 48  1  0  0  0
 28 49  1  0  0  0
M  CHG  4   1   1  21  -1  23  -1  27  -1
M  END
> <s_m_source_file>
../3zmp_ligand.sdf

> <i_m_source_file_index>
1

> <s_epik_input>
W09IXUMoPU8pW0NASF0oW0NIM10pW05IXUMoPU8pW0NAQEhdKFtOSF1DKD1PKVtDQEBIXShbTkgzK10pW0NIM10pW0NIMl1jMVtjSF1bY0hdYyhbY0hdW2NIXTEpQyhGKShGKVAoPU8pKFtPSF0pW09IXQ==

> <s_epik_cmdline>
J2VwaWtfYXBwJywgJy1pbWFlJywgJ2xpZ2FuZF9wcm8ubWFlJywgJy1vbWFlJywgJ2xpZ2FuZF9wcmVwLm1hZScsICctbXMnLCAnMScsICctcGgnLCAnNycsICctcGh0JywgJzAuNScsICctbnQn

> <r_lp_tautomer_probability>
1

> <r_epik_Ionization_Penalty>
  0.1423

> <r_epik_Ionization_Penalty_Charging>
  0.1423

> <r_epik_Ionization_Penalty_Neutral>
  0.0000

> <r_epik_State_Penalty>
 -0.0000

> <r_epik_Charging_Adjusted_Penalty>
0.142303788902738

> <i_epik_Tot_Q>
-2

> <i_epik_Tot_abs_Q>
4

$$$$
