3zmq_ligand
                    3D
 Schrodinger Suite 2020-3.
102103  0  0  1  0            999 V2000
    5.0660   -4.2640  -14.1280 N   0  3  0  0  0  0
    5.6250   -4.3570  -12.7930 C   0  0  2  0  0  0
    6.3040   -3.0610  -12.4010 C   0  0  0  0  0  0
    6.8490   -2.9360  -11.3160 O   0  0  0  0  0  0
    6.6130   -5.5060  -12.7090 C   0  0  0  0  0  0
    6.5120   -6.2910  -11.4220 C   0  0  0  0  0  0
    7.5100   -5.8240  -10.3970 C   0  0  0  0  0  0
    8.0750   -4.7340  -10.5790 O   0  0  0  0  0  0
    7.7240   -6.5480   -9.4110 O   0  5  0  0  0  0
    6.2510   -2.0870  -13.2900 N   0  0  0  0  0  0
    6.7660   -0.7690  -12.9990 C   0  0  2  0  0  0
    5.7520   -0.1150  -12.1070 C   0  0  0  0  0  0
    4.7090   -0.6880  -11.8520 O   0  0  0  0  0  0
    6.9450    0.0280  -14.2720 C   0  0  0  0  0  0
    6.0800    1.0480  -11.5720 N   0  0  0  0  0  0
    5.1250    1.7860  -10.7680 C   0  0  2  0  0  0
    4.6810    3.0590  -11.4720 C   0  0  0  0  0  0
    5.4920    3.8650  -11.8900 O   0  0  0  0  0  0
    5.7280    2.1190   -9.4080 C   0  0  0  0  0  0
    6.4860    0.9670   -8.7850 C   0  0  0  0  0  0
    7.7690    1.4160   -8.1480 C   0  0  0  0  0  0
    8.8320    0.8730   -8.4190 O   0  0  0  0  0  0
    7.6780    2.4200   -7.2980 N   0  0  0  0  0  0
    3.3800    3.2380  -11.5920 N   0  0  0  0  0  0
    2.8710    4.3890  -12.2390 C   0  0  2  0  0  0
    3.3220    5.5240  -11.4270 C   0  0  0  0  0  0
    3.7760    6.5610  -11.9460 O   0  0  0  0  0  0
    1.3990    4.2950  -12.1230 C   0  0  0  0  0  0
    0.6400    5.3870  -12.7910 C   0  0  0  0  0  0
    1.1190    6.6760  -12.9050 C   0  0  0  0  0  0
   -0.6040    5.0810  -13.2960 C   0  0  0  0  0  0
    0.3460    7.6420  -13.5340 C   0  0  0  0  0  0
   -1.3740    6.0410  -13.9210 C   0  0  0  0  0  0
   -0.8990    7.3210  -14.0390 C   0  0  0  0  0  0
   -1.7260    8.3410  -14.6990 C   0  0  0  0  0  0
   -0.9300    9.1930  -15.2700 F   0  0  0  0  0  0
   -2.5120    8.9390  -13.8410 F   0  0  0  0  0  0
   -2.7530    7.6430  -15.9810 P   0  0  0  0  0  0
   -4.2520    7.7690  -15.6640 O   0  5  0  0  0  0
   -2.4660    8.3870  -17.3090 O   0  5  0  0  0  0
   -2.4170    6.2130  -16.1020 O   0  0  0  0  0  0
    3.2490    5.3510  -10.1220 N   0  0  0  0  0  0
    3.4610    6.4480   -9.2030 C   0  0  2  0  0  0
    4.8720    6.9620   -9.3180 C   0  0  0  0  0  0
    5.7870    6.2100   -9.6200 O   0  0  0  0  0  0
    3.1800    6.0000   -7.7760 C   0  0  0  0  0  0
    1.7550    6.2570   -7.3300 C   0  0  0  0  0  0
    0.9810    4.9850   -7.1450 C   0  0  0  0  0  0
   -0.2070    5.0090   -6.8570 O   0  0  0  0  0  0
    1.6550    3.8620   -7.3100 N   0  0  0  0  0  0
    5.0370    8.2640   -9.0980 N   0  0  0  0  0  0
    6.3500    8.8840   -9.2320 C   0  0  2  0  0  0
    7.2610    8.0800  -10.1520 C   0  0  0  0  0  0
    8.3810    8.5130  -10.3990 O   0  0  0  0  0  0
    6.8700    8.8560   -7.7940 C   0  0  0  0  0  0
    5.6370    8.8510   -6.9350 C   0  0  0  0  0  0
    4.4320    8.6360   -7.8100 C   0  0  0  0  0  0
    6.8702    6.9904  -10.6496 O   0  5  0  0  0  0
    4.3534   -3.4271  -14.1696 H   0  0  0  0  0  0
    4.5454   -5.2014  -14.3736 H   0  0  0  0  0  0
    5.8752   -4.0930  -14.8532 H   0  0  0  0  0  0
    4.7681   -4.5426  -12.1287 H   0  0  0  0  0  0
    6.4325   -6.2061  -13.5380 H   0  0  0  0  0  0
    7.6384   -5.1136  -12.7771 H   0  0  0  0  0  0
    5.5037   -6.1726  -10.9985 H   0  0  0  0  0  0
    6.7014   -7.3552  -11.6258 H   0  0  0  0  0  0
    5.8015   -2.2975  -14.2717 H   0  0  0  0  0  0
    7.7469   -0.8656  -12.5107 H   0  0  0  0  0  0
    7.6908   -0.4661  -14.9121 H   0  0  0  0  0  0
    7.2894    1.0428  -14.0239 H   0  0  0  0  0  0
    5.9850    0.0868  -14.8058 H   0  0  0  0  0  0
    7.0877    1.4554  -11.7411 H   0  0  0  0  0  0
    4.2620    1.1136  -10.6533 H   0  0  0  0  0  0
    6.4324    2.9572   -9.5145 H   0  0  0  0  0  0
    4.9257    2.4008   -8.7102 H   0  0  0  0  0  0
    5.8644    0.4958   -8.0094 H   0  0  0  0  0  0
    6.7290    0.2258   -9.5606 H   0  0  0  0  0  0
    6.6990    2.8752   -7.0872 H   0  0  0  0  0  0
    8.5811    2.8024   -6.7997 H   0  0  0  0  0  0
    2.6891    2.4850  -11.1850 H   0  0  0  0  0  0
    3.2103    4.4619  -13.2828 H   0  0  0  0  0  0
    1.0550    3.3528  -12.5746 H   0  0  0  0  0  0
    1.1126    4.3186  -11.0612 H   0  0  0  0  0  0
    2.0989    6.9341  -12.5034 H   0  0  0  0  0  0
   -0.9866    4.0648  -13.2007 H   0  0  0  0  0  0
    0.7236    8.6600  -13.6301 H   0  0  0  0  0  0
   -2.3553    5.7822  -14.3188 H   0  0  0  0  0  0
    3.0214    4.3464   -9.7361 H   0  0  0  0  0  0
    2.7575    7.2381   -9.5042 H   0  0  0  0  0  0
    3.3619    4.9187   -7.6887 H   0  0  0  0  0  0
    3.8434    6.5404   -7.0847 H   0  0  0  0  0  0
    1.7625    6.7950   -6.3706 H   0  0  0  0  0  0
    1.2378    6.8647   -8.0871 H   0  0  0  0  0  0
    2.7236    3.8949   -7.5690 H   0  0  0  0  0  0
    1.1481    2.8934   -7.1885 H   0  0  0  0  0  0
    6.2687    9.8847   -9.6814 H   0  0  0  0  0  0
    7.4755    7.9505   -7.6406 H   0  0  0  0  0  0
    7.4892    9.7465   -7.6106 H   0  0  0  0  0  0
    5.7084    8.0396   -6.1958 H   0  0  0  0  0  0
    5.5496    9.8155   -6.4134 H   0  0  0  0  0  0
    3.8289    9.5470   -7.9377 H   0  0  0  0  0  0
    3.7885    7.8167   -7.4569 H   0  0  0  0  0  0
  1  2  1  0  0  0
  1 59  1  0  0  0
  1 60  1  0  0  0
  1 61  1  0  0  0
  2  3  1  0  0  0
  2  5  1  0  0  0
  2 62  1  0  0  0
  3  4  2  0  0  0
  3 10  1  0  0  0
  5  6  1  0  0  0
  5 63  1  0  0  0
  5 64  1  0  0  0
  6  7  1  0  0  0
  6 65  1  0  0  0
  6 66  1  0  0  0
  7  8  2  0  0  0
  7  9  1  0  0  0
 10 11  1  0  0  0
 10 67  1  0  0  0
 11 12  1  0  0  0
 11 14  1  0  0  0
 11 68  1  0  0  0
 12 13  2  0  0  0
 12 15  1  0  0  0
 14 69  1  0  0  0
 14 70  1  0  0  0
 14 71  1  0  0  0
 15 16  1  0  0  0
 15 72  1  0  0  0
 16 17  1  0  0  0
 16 19  1  0  0  0
 16 73  1  0  0  0
 17 18  2  0  0  0
 17 24  1  0  0  0
 19 20  1  0  0  0
 19 74  1  0  0  0
 19 75  1  0  0  0
 20 21  1  0  0  0
 20 76  1  0  0  0
 20 77  1  0  0  0
 21 22  2  0  0  0
 21 23  1  0  0  0
 23 78  1  0  0  0
 23 79  1  0  0  0
 24 25  1  0  0  0
 24 80  1  0  0  0
 25 26  1  0  0  0
 25 28  1  0  0  0
 25 81  1  0  0  0
 26 27  2  0  0  0
 26 42  1  0  0  0
 28 29  1  0  0  0
 28 82  1  0  0  0
 28 83  1  0  0  0
 29 30  2  0  0  0
 29 31  1  0  0  0
 30 32  1  0  0  0
 30 84  1  0  0  0
 31 33  2  0  0  0
 31 85  1  0  0  0
 32 34  2  0  0  0
 32 86  1  0  0  0
 33 34  1  0  0  0
 33 87  1  0  0  0
 34 35  1  0  0  0
 35 36  1  0  0  0
 35 37  1  0  0  0
 35 38  1  0  0  0
 38 39  1  0  0  0
 38 40  1  0  0  0
 38 41  2  0  0  0
 42 43  1  0  0  0
 42 88  1  0  0  0
 43 44  1  0  0  0
 43 46  1  0  0  0
 43 89  1  0  0  0
 44 45  2  0  0  0
 44 51  1  0  0  0
 46 47  1  0  0  0
 46 90  1  0  0  0
 46 91  1  0  0  0
 47 48  1  0  0  0
 47 92  1  0  0  0
 47 93  1  0  0  0
 48 49  2  0  0  0
 48 50  1  0  0  0
 50 94  1  0  0  0
 50 95  1  0  0  0
 51 52  1  0  0  0
 51 57  1  0  0  0
 52 53  1  0  0  0
 52 55  1  0  0  0
 52 96  1  0  0  0
 53 54  2  0  0  0
 53 58  1  0  0  0
 55 56  1  0  0  0
 55 97  1  0  0  0
 55 98  1  0  0  0
 56 57  1  0  0  0
 56 99  1  0  0  0
 56100  1  0  0  0
 57101  1  0  0  0
 57102  1  0  0  0
M  CHG  5   1   1   9  -1  39  -1  40  -1  58  -1
M  END
> <s_m_source_file>
../3zmq_ligand.sdf

> <i_m_source_file_index>
1

> <s_epik_input>
Tz1DKFtPSF0pW0NIMl1bQ0gyXVtDQEhdKFtOSDMrXSlDKD1PKVtOSF1bQ0BASF0oW0NIM10pQyg9TylbTkhdW0NAQEhdKFtDSDJdW0NIMl1DKD1PKVtOSDJdKUMoPU8pW05IXVtDQEBIXShbQ0gyXWMxW2NIXVtjSF1jKFtjSF1bY0hdMSlDKEYpKEYpUCg9TykoW09IXSlbT0hdKUMoPU8pW05IXVtDQEBIXShbQ0gyXVtDSDJdQyg9TylbTkgyXSlDKD1PKU4yW0NASF0oQyg9TylbT0hdKVtDSDJdW0NIMl1bQ0gyXTI=

> <s_epik_cmdline>
J2VwaWtfYXBwJywgJy1pbWFlJywgJ2xpZ2FuZF9wcm8ubWFlJywgJy1vbWFlJywgJ2xpZ2FuZF9wcmVwLm1hZScsICctbXMnLCAnMScsICctcGgnLCAnNycsICctcGh0JywgJzAuNScsICctbnQn

> <r_epik_Ionization_Penalty>
  0.0921

> <r_epik_Ionization_Penalty_Charging>
  0.0921

> <r_epik_Ionization_Penalty_Neutral>
  0.0000

> <r_epik_State_Penalty>
  0.0774

> <r_epik_Charging_Adjusted_Penalty>
0.169531636881465

> <i_epik_Tot_Q>
-3

> <i_epik_Tot_abs_Q>
5

$$$$
