3zmt_ligand
                    3D
 Schrodinger Suite 2020-3.
107108  0  0  1  0            999 V2000
   -0.4310   54.3350   84.3520 N   0  3  0  0  0  0
   -0.2120   53.0480   85.0020 C   0  0  2  0  0  0
   -0.6560   51.8740   84.1270 C   0  0  0  0  0  0
   -1.3290   52.0770   83.1120 O   0  0  0  0  0  0
   -1.1010   53.1410   86.2430 C   0  0  0  0  0  0
   -2.2270   54.0240   85.8190 C   0  0  0  0  0  0
   -1.6190   55.0280   84.8800 C   0  0  0  0  0  0
   -0.2820   50.6610   84.5340 N   0  0  0  0  0  0
   -0.7180   49.4320   83.8690 C   0  0  2  0  0  0
   -2.2470   49.3510   83.7420 C   0  0  0  0  0  0
   -2.7610   48.8570   82.7420 O   0  0  0  0  0  0
   -0.1510   48.2040   84.6000 C   0  0  0  0  0  0
   -0.8250   46.8780   84.2690 C   0  0  0  0  0  0
    0.0190   45.7030   84.7270 C   0  0  0  0  0  0
    0.9350   45.2440   83.6820 N   0  0  0  0  0  0
    2.0850   44.6120   83.9060 C   0  0  0  0  0  0
    2.4920   44.3680   85.1460 N   0  0  0  0  0  0
    2.8400   44.2320   82.8850 N   0  3  0  0  0  0
   -2.9550   49.8600   84.7490 N   0  0  0  0  0  0
   -4.4250   49.8260   84.8080 C   0  0  2  0  0  0
   -5.1450   50.2570   83.5250 C   0  0  0  0  0  0
   -6.1940   49.7030   83.1920 O   0  0  0  0  0  0
   -4.9290   50.6790   85.9790 C   0  0  0  0  0  0
   -4.2670   50.3410   87.1830 O   0  0  0  0  0  0
   -4.5910   51.2440   82.8170 N   0  0  0  0  0  0
   -5.2350   51.7860   81.6150 C   0  0  2  0  0  0
   -5.0550   50.9080   80.3770 C   0  0  0  0  0  0
   -5.7620   51.0890   79.3810 O   0  0  0  0  0  0
   -4.7450   53.2090   81.3130 C   0  0  0  0  0  0
   -5.1540   54.2310   82.3380 C   0  0  0  0  0  0
   -6.3670   54.1250   83.0150 C   0  0  0  0  0  0
   -4.3350   55.3220   82.6050 C   0  0  0  0  0  0
   -6.7390   55.0710   83.9570 C   0  0  0  0  0  0
   -4.7050   56.2740   83.5420 C   0  0  0  0  0  0
   -5.9080   56.1480   84.2180 C   0  0  0  0  0  0
   -4.1130   49.9650   80.4550 N   0  0  0  0  0  0
   -3.7580   49.0800   79.3410 C   0  0  2  0  0  0
   -4.9890   48.4020   78.7420 C   0  0  0  0  0  0
   -5.7350   47.7050   79.4380 O   0  0  0  0  0  0
   -2.7540   48.0200   79.8050 C   0  0  0  0  0  0
   -1.4650   47.7680   79.0210 C   0  0  0  0  0  0
   -0.6810   46.6490   79.6890 C   0  0  0  0  0  0
   -1.7220   47.4320   77.5620 C   0  0  0  0  0  0
   -5.1920   48.6250   77.4480 N   0  0  0  0  0  0
   -6.3380   48.0810   76.7260 C   0  0  2  0  0  0
   -6.1820   46.5780   76.4860 C   0  0  0  0  0  0
   -5.0699   46.0726   76.1770 O   0  5  0  0  0  0
   -6.5620   48.8510   75.4040 C   0  0  0  0  0  0
   -7.2140   47.9760   74.3440 C   0  0  0  0  0  0
   -7.3810   50.1060   75.6650 C   0  0  0  0  0  0
   -7.1885   45.8286   76.5999 O   0  0  0  0  0  0
    0.4436   54.9819   84.5155 H   0  0  0  0  0  0
   -0.5762   54.1807   83.2726 H   0  0  0  0  0  0
    0.8609   52.9056   85.1983 H   0  0  0  0  0  0
   -1.4472   52.1349   86.5223 H   0  0  0  0  0  0
   -0.5259   53.5748   87.0743 H   0  0  0  0  0  0
   -2.9975   53.4202   85.3173 H   0  0  0  0  0  0
   -2.6623   54.5131   86.7029 H   0  0  0  0  0  0
   -1.3075   55.9477   85.3968 H   0  0  0  0  0  0
   -2.2932   55.2845   84.0495 H   0  0  0  0  0  0
    0.3827   50.6069   85.4088 H   0  0  0  0  0  0
   -0.2975   49.4960   82.8546 H   0  0  0  0  0  0
    0.9125   48.0847   84.3458 H   0  0  0  0  0  0
   -0.2549   48.3435   85.6862 H   0  0  0  0  0  0
   -1.8009   46.8266   84.7740 H   0  0  0  0  0  0
   -0.9706   46.8021   83.1813 H   0  0  0  0  0  0
    0.6171   45.9998   85.6012 H   0  0  0  0  0  0
   -0.6379   44.8640   85.0000 H   0  0  0  0  0  0
    0.6912   45.4147   82.6230 H   0  0  0  0  0  0
    1.8722   44.6796   85.9997 H   0  0  0  0  0  0
    3.4490   43.8542   85.3197 H   0  0  0  0  0  0
    2.5111   44.4298   81.8541 H   0  0  0  0  0  0
   -2.3824   50.3240   85.5656 H   0  0  0  0  0  0
   -4.6252   48.7534   84.9472 H   0  0  0  0  0  0
   -4.7443   51.7420   85.7645 H   0  0  0  0  0  0
   -6.0081   50.5145   86.1147 H   0  0  0  0  0  0
   -4.5193   50.8668   88.1157 H   0  0  0  0  0  0
   -3.6269   51.6513   83.1556 H   0  0  0  0  0  0
   -6.3003   51.7836   81.8890 H   0  0  0  0  0  0
   -3.6459   53.2168   81.2695 H   0  0  0  0  0  0
   -5.1526   53.5397   80.3463 H   0  0  0  0  0  0
   -7.0315   53.2879   82.8012 H   0  0  0  0  0  0
   -3.3908   55.4301   82.0713 H   0  0  0  0  0  0
   -7.6834   54.9677   84.4913 H   0  0  0  0  0  0
   -4.0502   57.1210   83.7469 H   0  0  0  0  0  0
   -6.2003   56.8961   84.9549 H   0  0  0  0  0  0
   -3.5926   49.8709   81.4196 H   0  0  0  0  0  0
   -3.3081   49.7394   78.5842 H   0  0  0  0  0  0
   -2.3973   48.2701   80.8151 H   0  0  0  0  0  0
   -3.2427   47.0347   79.8222 H   0  0  0  0  0  0
   -0.8764   48.6973   79.0264 H   0  0  0  0  0  0
   -0.5023   46.9055   80.7437 H   0  0  0  0  0  0
    0.2827   46.5190   79.1749 H   0  0  0  0  0  0
   -1.2564   45.7133   79.6316 H   0  0  0  0  0  0
   -2.2891   48.2490   77.0920 H   0  0  0  0  0  0
   -2.3010   46.4990   77.4971 H   0  0  0  0  0  0
   -0.7619   47.3047   77.0404 H   0  0  0  0  0  0
   -4.4542   49.2471   76.9201 H   0  0  0  0  0  0
   -7.1975   48.2317   77.3957 H   0  0  0  0  0  0
   -5.5873   49.1558   74.9952 H   0  0  0  0  0  0
   -6.5985   47.0793   74.1793 H   0  0  0  0  0  0
   -7.2984   48.5406   73.4037 H   0  0  0  0  0  0
   -8.2165   47.6755   74.6825 H   0  0  0  0  0  0
   -6.8836   50.7151   76.4341 H   0  0  0  0  0  0
   -8.3849   49.8227   76.0142 H   0  0  0  0  0  0
   -7.4668   50.6878   74.7354 H   0  0  0  0  0  0
    3.7955   43.7188   83.0685 H   0  0  0  0  0  0
  1  2  1  0  0  0
  1  7  1  0  0  0
  1 52  1  0  0  0
  1 53  1  0  0  0
  2  3  1  0  0  0
  2  5  1  0  0  0
  2 54  1  0  0  0
  3  4  2  0  0  0
  3  8  1  0  0  0
  5  6  1  0  0  0
  5 55  1  0  0  0
  5 56  1  0  0  0
  6  7  1  0  0  0
  6 57  1  0  0  0
  6 58  1  0  0  0
  7 59  1  0  0  0
  7 60  1  0  0  0
  8  9  1  0  0  0
  8 61  1  0  0  0
  9 10  1  0  0  0
  9 12  1  0  0  0
  9 62  1  0  0  0
 10 11  2  0  0  0
 10 19  1  0  0  0
 12 13  1  0  0  0
 12 63  1  0  0  0
 12 64  1  0  0  0
 13 14  1  0  0  0
 13 65  1  0  0  0
 13 66  1  0  0  0
 14 15  1  0  0  0
 14 67  1  0  0  0
 14 68  1  0  0  0
 15 16  1  0  0  0
 15 69  1  0  0  0
 16 17  1  0  0  0
 16 18  2  0  0  0
 17 70  1  0  0  0
 17 71  1  0  0  0
 18 72  1  0  0  0
 18107  1  0  0  0
 19 20  1  0  0  0
 19 73  1  0  0  0
 20 21  1  0  0  0
 20 23  1  0  0  0
 20 74  1  0  0  0
 21 22  2  0  0  0
 21 25  1  0  0  0
 23 24  1  0  0  0
 23 75  1  0  0  0
 23 76  1  0  0  0
 24 77  1  0  0  0
 25 26  1  0  0  0
 25 78  1  0  0  0
 26 27  1  0  0  0
 26 29  1  0  0  0
 26 79  1  0  0  0
 27 28  2  0  0  0
 27 36  1  0  0  0
 29 30  1  0  0  0
 29 80  1  0  0  0
 29 81  1  0  0  0
 30 31  2  0  0  0
 30 32  1  0  0  0
 31 33  1  0  0  0
 31 82  1  0  0  0
 32 34  2  0  0  0
 32 83  1  0  0  0
 33 35  2  0  0  0
 33 84  1  0  0  0
 34 35  1  0  0  0
 34 85  1  0  0  0
 35 86  1  0  0  0
 36 37  1  0  0  0
 36 87  1  0  0  0
 37 38  1  0  0  0
 37 40  1  0  0  0
 37 88  1  0  0  0
 38 39  2  0  0  0
 38 44  1  0  0  0
 40 41  1  0  0  0
 40 89  1  0  0  0
 40 90  1  0  0  0
 41 42  1  0  0  0
 41 43  1  0  0  0
 41 91  1  0  0  0
 42 92  1  0  0  0
 42 93  1  0  0  0
 42 94  1  0  0  0
 43 95  1  0  0  0
 43 96  1  0  0  0
 43 97  1  0  0  0
 44 45  1  0  0  0
 44 98  1  0  0  0
 45 46  1  0  0  0
 45 48  1  0  0  0
 45 99  1  0  0  0
 46 47  1  0  0  0
 46 51  2  0  0  0
 48 49  1  0  0  0
 48 50  1  0  0  0
 48100  1  0  0  0
 49101  1  0  0  0
 49102  1  0  0  0
 49103  1  0  0  0
 50104  1  0  0  0
 50105  1  0  0  0
 50106  1  0  0  0
M  CHG  3   1   1  18   1  47  -1
M  END
> <s_m_source_file>
../3zmt_ligand.sdf

> <i_m_source_file_index>
1

> <s_epik_input>
W0NIMl0xW0NIMl1bQ0gyXVtOSDIrXVtDQEBIXTFDKD1PKVtOSF1bQ0BASF0oW0NIMl1bQ0gyXVtDSDJdW05IXS9DKFtOSDJdKT1OXFtIXSlDKD1PKVtOSF1bQ0BASF0oW0NIMl1bT0hdKUMoPU8pW05IXVtDQEBIXShbQ0gyXWMyW2NIXVtjSF1bY0hdW2NIXVtjSF0yKUMoPU8pW05IXVtDQEBIXShbQ0gyXVtDSF0oW0NIM10pW0NIM10pQyg9TylbTkhdW0NASF0oQyg9TylbT0hdKVtDSF0oW0NIM10pW0NIM10=

> <s_epik_cmdline>
J2VwaWtfYXBwJywgJy1pbWFlJywgJ2xpZ2FuZF9wcm8ubWFlJywgJy1vbWFlJywgJ2xpZ2FuZF9wcmVwLm1hZScsICctbXMnLCAnMScsICctcGgnLCAnNycsICctcGh0JywgJzAuNScsICctbnQn

> <r_epik_Ionization_Penalty>
  0.0413

> <r_epik_Ionization_Penalty_Charging>
  0.0413

> <r_epik_Ionization_Penalty_Neutral>
  0.0000

> <r_epik_State_Penalty>
  0.0347

> <r_epik_Charging_Adjusted_Penalty>
0.0759959541416403

> <i_epik_Tot_Q>
1

> <i_epik_Tot_abs_Q>
3

> <s_epik_Chemistry_Notes>
This compound has an imine and may undergo hydrolysis.

$$$$
