3zmu_ligand
                    3D
 Schrodinger Suite 2020-3.
105106  0  0  1  0            999 V2000
   -1.0320   54.4250   84.3050 N   0  3  0  0  0  0
   -0.2800   53.2840   84.8210 C   0  0  2  0  0  0
   -0.6510   51.9730   84.1180 C   0  0  0  0  0  0
   -1.3050   51.9980   83.0710 O   0  0  0  0  0  0
   -0.6930   53.2420   86.2940 C   0  0  0  0  0  0
   -2.0780   53.8000   86.3060 C   0  0  0  0  0  0
   -2.1490   54.8050   85.1890 C   0  0  0  0  0  0
   -0.2260   50.8480   84.6970 N   0  0  0  0  0  0
   -0.5470   49.5090   84.1890 C   0  0  2  0  0  0
   -2.0220   49.3010   83.8560 C   0  0  0  0  0  0
   -2.3530   48.6980   82.8320 O   0  0  0  0  0  0
   -0.1190   48.4400   85.1970 C   0  0  0  0  0  0
    0.9470   47.4940   84.6850 C   0  0  0  0  0  0
    1.1010   46.3060   85.6120 C   0  0  0  0  0  0
    2.0490   45.2760   85.0240 C   0  0  0  0  0  0
    2.4700   44.2750   86.0410 N   0  3  0  0  0  0
   -2.8930   49.8080   84.7270 N   0  0  0  0  0  0
   -4.3370   49.5640   84.6520 C   0  0  2  0  0  0
   -5.0510   50.1400   83.4160 C   0  0  0  0  0  0
   -6.1720   49.7260   83.1060 O   0  0  0  0  0  0
   -5.0250   50.0290   85.9450 C   0  0  0  0  0  0
   -4.5720   51.3100   86.3480 O   0  0  0  0  0  0
   -4.4110   51.0760   82.7130 N   0  0  0  0  0  0
   -5.0140   51.6670   81.5130 C   0  0  2  0  0  0
   -4.8470   50.8100   80.2540 C   0  0  0  0  0  0
   -5.4560   51.1060   79.2220 O   0  0  0  0  0  0
   -4.4960   53.0890   81.2570 C   0  0  0  0  0  0
   -5.0190   54.1230   82.2190 C   0  0  0  0  0  0
   -6.2040   53.9190   82.9270 C   0  0  0  0  0  0
   -4.3390   55.3230   82.3930 C   0  0  0  0  0  0
   -6.6780   54.8790   83.8080 C   0  0  0  0  0  0
   -4.8120   56.2890   83.2670 C   0  0  0  0  0  0
   -5.9820   56.0660   83.9760 C   0  0  0  0  0  0
   -4.0280   49.7590   80.3420 N   0  0  0  0  0  0
   -3.7970   48.8330   79.2230 C   0  0  2  0  0  0
   -5.0970   48.2730   78.6540 C   0  0  0  0  0  0
   -5.9840   47.8480   79.4000 O   0  0  0  0  0  0
   -2.8800   47.6780   79.6380 C   0  0  0  0  0  0
   -1.3790   47.7700   79.3570 C   0  0  0  0  0  0
   -0.6570   46.6190   80.0430 C   0  0  0  0  0  0
   -1.0920   47.7650   77.8620 C   0  0  0  0  0  0
   -5.1870   48.2700   77.3280 N   0  0  0  0  0  0
   -6.4010   47.8700   76.6230 C   0  0  2  0  0  0
   -6.5770   46.3520   76.5590 C   0  0  0  0  0  0
   -5.5850   45.5877   76.4195 O   0  5  0  0  0  0
   -6.4350   48.4930   75.2130 C   0  0  0  0  0  0
   -7.2480   47.6390   74.2520 C   0  0  0  0  0  0
   -6.9740   49.9140   75.2860 C   0  0  0  0  0  0
   -7.7326   45.8577   76.6472 O   0  0  0  0  0  0
   -0.3625   55.2926   84.2100 H   0  0  0  0  0  0
   -1.4487   54.1737   83.3185 H   0  0  0  0  0  0
    0.7953   53.4324   84.6432 H   0  0  0  0  0  0
   -0.6649   52.2027   86.6532 H   0  0  0  0  0  0
    0.0023   53.8539   86.8874 H   0  0  0  0  0  0
   -2.8021   52.9872   86.1477 H   0  0  0  0  0  0
   -2.2717   54.2797   87.2768 H   0  0  0  0  0  0
   -2.0006   55.8351   85.5452 H   0  0  0  0  0  0
   -3.0953   54.7425   84.6317 H   0  0  0  0  0  0
    0.3942   50.9601   85.5986 H   0  0  0  0  0  0
    0.0278   49.4599   83.2524 H   0  0  0  0  0  0
    0.2864   48.9259   86.0968 H   0  0  0  0  0  0
   -0.9893   47.8262   85.4723 H   0  0  0  0  0  0
    0.6652   47.1303   83.6859 H   0  0  0  0  0  0
    1.9091   48.0239   84.6244 H   0  0  0  0  0  0
    1.5034   46.6446   86.5782 H   0  0  0  0  0  0
    0.1201   45.8335   85.7686 H   0  0  0  0  0  0
    1.5487   44.7450   84.2008 H   0  0  0  0  0  0
    2.9481   45.7813   84.6415 H   0  0  0  0  0  0
    3.1540   43.5480   85.5787 H   0  0  0  0  0  0
    1.5839   43.7503   86.4277 H   0  0  0  0  0  0
    2.9833   44.7866   86.8685 H   0  0  0  0  0  0
   -2.4824   50.4363   85.5311 H   0  0  0  0  0  0
   -4.3727   48.4703   84.5397 H   0  0  0  0  0  0
   -6.1119   50.0810   85.7837 H   0  0  0  0  0  0
   -4.8080   49.3149   86.7531 H   0  0  0  0  0  0
   -4.9764   51.7748   87.2593 H   0  0  0  0  0  0
   -3.4152   51.4035   83.0464 H   0  0  0  0  0  0
   -6.0823   51.6886   81.7743 H   0  0  0  0  0  0
   -3.3991   53.0999   81.3387 H   0  0  0  0  0  0
   -4.7917   53.4108   80.2475 H   0  0  0  0  0  0
   -6.7635   52.9943   82.7858 H   0  0  0  0  0  0
   -3.4212   55.5066   81.8344 H   0  0  0  0  0  0
   -7.5963   54.7007   84.3675 H   0  0  0  0  0  0
   -4.2648   57.2227   83.3967 H   0  0  0  0  0  0
   -6.3546   56.8237   84.6653 H   0  0  0  0  0  0
   -3.5157   49.5999   81.3023 H   0  0  0  0  0  0
   -3.3109   49.4576   78.4591 H   0  0  0  0  0  0
   -2.9435   47.5324   80.7265 H   0  0  0  0  0  0
   -3.1956   46.7571   79.1259 H   0  0  0  0  0  0
   -1.0036   48.7222   79.7599 H   0  0  0  0  0  0
   -0.8761   46.6391   81.1208 H   0  0  0  0  0  0
    0.4271   46.7213   79.8872 H   0  0  0  0  0  0
   -1.0002   45.6648   79.6167 H   0  0  0  0  0  0
   -1.6214   48.6025   77.3842 H   0  0  0  0  0  0
   -1.4373   46.8162   77.4255 H   0  0  0  0  0  0
   -0.0099   47.8727   77.6960 H   0  0  0  0  0  0
   -4.2995   48.5851   76.7597 H   0  0  0  0  0  0
   -7.2142   48.2709   77.2459 H   0  0  0  0  0  0
   -5.4131   48.5364   74.8083 H   0  0  0  0  0  0
   -6.8318   46.6212   74.2240 H   0  0  0  0  0  0
   -7.2068   48.0798   73.2450 H   0  0  0  0  0  0
   -8.2933   47.5985   74.5920 H   0  0  0  0  0  0
   -6.3643   50.5018   75.9879 H   0  0  0  0  0  0
   -8.0170   49.8930   75.6349 H   0  0  0  0  0  0
   -6.9304   50.3744   74.2879 H   0  0  0  0  0  0
  1  2  1  0  0  0
  1  7  1  0  0  0
  1 50  1  0  0  0
  1 51  1  0  0  0
  2  3  1  0  0  0
  2  5  1  0  0  0
  2 52  1  0  0  0
  3  4  2  0  0  0
  3  8  1  0  0  0
  5  6  1  0  0  0
  5 53  1  0  0  0
  5 54  1  0  0  0
  6  7  1  0  0  0
  6 55  1  0  0  0
  6 56  1  0  0  0
  7 57  1  0  0  0
  7 58  1  0  0  0
  8  9  1  0  0  0
  8 59  1  0  0  0
  9 10  1  0  0  0
  9 12  1  0  0  0
  9 60  1  0  0  0
 10 11  2  0  0  0
 10 17  1  0  0  0
 12 13  1  0  0  0
 12 61  1  0  0  0
 12 62  1  0  0  0
 13 14  1  0  0  0
 13 63  1  0  0  0
 13 64  1  0  0  0
 14 15  1  0  0  0
 14 65  1  0  0  0
 14 66  1  0  0  0
 15 16  1  0  0  0
 15 67  1  0  0  0
 15 68  1  0  0  0
 16 69  1  0  0  0
 16 70  1  0  0  0
 16 71  1  0  0  0
 17 18  1  0  0  0
 17 72  1  0  0  0
 18 19  1  0  0  0
 18 21  1  0  0  0
 18 73  1  0  0  0
 19 20  2  0  0  0
 19 23  1  0  0  0
 21 22  1  0  0  0
 21 74  1  0  0  0
 21 75  1  0  0  0
 22 76  1  0  0  0
 23 24  1  0  0  0
 23 77  1  0  0  0
 24 25  1  0  0  0
 24 27  1  0  0  0
 24 78  1  0  0  0
 25 26  2  0  0  0
 25 34  1  0  0  0
 27 28  1  0  0  0
 27 79  1  0  0  0
 27 80  1  0  0  0
 28 29  2  0  0  0
 28 30  1  0  0  0
 29 31  1  0  0  0
 29 81  1  0  0  0
 30 32  2  0  0  0
 30 82  1  0  0  0
 31 33  2  0  0  0
 31 83  1  0  0  0
 32 33  1  0  0  0
 32 84  1  0  0  0
 33 85  1  0  0  0
 34 35  1  0  0  0
 34 86  1  0  0  0
 35 36  1  0  0  0
 35 38  1  0  0  0
 35 87  1  0  0  0
 36 37  2  0  0  0
 36 42  1  0  0  0
 38 39  1  0  0  0
 38 88  1  0  0  0
 38 89  1  0  0  0
 39 40  1  0  0  0
 39 41  1  0  0  0
 39 90  1  0  0  0
 40 91  1  0  0  0
 40 92  1  0  0  0
 40 93  1  0  0  0
 41 94  1  0  0  0
 41 95  1  0  0  0
 41 96  1  0  0  0
 42 43  1  0  0  0
 42 97  1  0  0  0
 43 44  1  0  0  0
 43 46  1  0  0  0
 43 98  1  0  0  0
 44 45  1  0  0  0
 44 49  2  0  0  0
 46 47  1  0  0  0
 46 48  1  0  0  0
 46 99  1  0  0  0
 47100  1  0  0  0
 47101  1  0  0  0
 47102  1  0  0  0
 48103  1  0  0  0
 48104  1  0  0  0
 48105  1  0  0  0
M  CHG  3   1   1  16   1  45  -1
M  END
> <s_m_source_file>
../3zmu_ligand.sdf

> <i_m_source_file_index>
1

> <s_epik_input>
W0NIMl0xW0NIMl1bQ0gyXVtOSDIrXVtDQEBIXTFDKD1PKVtOSF1bQ0BASF0oW0NIMl1bQ0gyXVtDSDJdW0NIMl1bTkgzK10pQyg9TylbTkhdW0NAQEhdKFtDSDJdW09IXSlDKD1PKVtOSF1bQ0BASF0oW0NIMl1jMltjSF1bY0hdW2NIXVtjSF1bY0hdMilDKD1PKVtOSF1bQ0BASF0oW0NIMl1bQ0hdKFtDSDNdKVtDSDNdKUMoPU8pW05IXVtDQEhdKEMoPU8pW09IXSlbQ0hdKFtDSDNdKVtDSDNd

> <s_epik_cmdline>
J2VwaWtfYXBwJywgJy1pbWFlJywgJ2xpZ2FuZF9wcm8ubWFlJywgJy1vbWFlJywgJ2xpZ2FuZF9wcmVwLm1hZScsICctbXMnLCAnMScsICctcGgnLCAnNycsICctcGh0JywgJzAuNScsICctbnQn

> <r_epik_Ionization_Penalty>
  0.0413

> <r_epik_Ionization_Penalty_Charging>
  0.0413

> <r_epik_Ionization_Penalty_Neutral>
  0.0000

> <r_epik_State_Penalty>
  0.0342

> <r_epik_Charging_Adjusted_Penalty>
0.075463338454513

> <i_epik_Tot_Q>
1

> <i_epik_Tot_abs_Q>
3

$$$$
