3zmv_ligand
                    3D
 Schrodinger Suite 2020-3.
102103  0  0  1  0            999 V2000
   -1.6580   51.8650  -32.6570 N   0  3  0  0  0  0
   -1.3190   50.6110  -31.9890 C   0  0  2  0  0  0
   -1.6650   49.3740  -32.8260 C   0  0  0  0  0  0
   -2.2640   49.4970  -33.8990 O   0  0  0  0  0  0
   -2.1560   50.6520  -30.6970 C   0  0  0  0  0  0
   -3.1560   51.7530  -30.8780 C   0  0  0  0  0  0
   -2.9620   52.3870  -32.2270 C   0  0  0  0  0  0
   -1.2710   48.2000  -32.3320 N   0  0  0  0  0  0
   -1.5170   46.9350  -33.0220 C   0  0  2  0  0  0
   -2.9900   46.6650  -33.2460 C   0  0  0  0  0  0
   -3.3850   46.2530  -34.3400 O   0  0  0  0  0  0
   -0.9060   45.7590  -32.2570 C   0  0  0  0  0  0
    0.2070   44.9720  -32.9500 C   0  0  0  0  0  0
    0.7220   43.8720  -32.0310 C   0  0  0  0  0  0
   -0.2720   44.3920  -34.2750 C   0  0  0  0  0  0
   -3.7930   46.8970  -32.2090 N   0  0  0  0  0  0
   -5.2280   46.6110  -32.2530 C   0  0  2  0  0  0
   -5.9330   47.2800  -33.4410 C   0  0  0  0  0  0
   -7.0550   46.9110  -33.7910 O   0  0  0  0  0  0
   -5.8970   46.9860  -30.9270 C   0  0  0  0  0  0
   -5.6030   48.3210  -30.5540 O   0  0  0  0  0  0
   -5.2580   48.2430  -34.0660 N   0  0  0  0  0  0
   -5.7950   48.9430  -35.2280 C   0  0  2  0  0  0
   -5.5880   48.1660  -36.5250 C   0  0  0  0  0  0
   -6.2110   48.4950  -37.5320 O   0  0  0  0  0  0
   -5.1680   50.3320  -35.3670 C   0  0  0  0  0  0
   -5.7490   51.3810  -34.4470 C   0  0  0  0  0  0
   -6.0310   51.1020  -33.1120 C   0  0  0  0  0  0
   -5.9730   52.6720  -34.9150 C   0  0  0  0  0  0
   -6.5450   52.0810  -32.2750 C   0  0  0  0  0  0
   -6.4840   53.6560  -34.0810 C   0  0  0  0  0  0
   -6.7650   53.3600  -32.7590 C   0  0  0  0  0  0
   -4.7140   47.1540  -36.5080 N   0  0  0  0  0  0
   -4.4610   46.3140  -37.6970 C   0  0  2  0  0  0
   -5.7410   45.7680  -38.3070 C   0  0  0  0  0  0
   -6.5810   45.1970  -37.6080 O   0  0  0  0  0  0
   -3.5260   45.1380  -37.3910 C   0  0  0  0  0  0
   -2.1220   45.0810  -38.0010 C   0  0  0  0  0  0
   -1.7220   43.6320  -38.2200 C   0  0  0  0  0  0
   -2.0240   45.8360  -39.3160 C   0  0  0  0  0  0
   -5.8800   45.9450  -39.6130 N   0  0  0  0  0  0
   -7.0620   45.4770  -40.3200 C   0  0  2  0  0  0
   -6.9750   43.9720  -40.5580 C   0  0  0  0  0  0
   -5.9048   43.4287  -40.9417 O   0  5  0  0  0  0
   -7.2770   46.2620  -41.6290 C   0  0  0  0  0  0
   -8.0860   45.4620  -42.6370 C   0  0  0  0  0  0
   -7.9580   47.5830  -41.3230 C   0  0  0  0  0  0
   -7.9951   43.2575  -40.3668 O   0  0  0  0  0  0
   -0.8938   52.6217  -32.4261 H   0  0  0  0  0  0
   -1.6964   51.7026  -33.7443 H   0  0  0  0  0  0
   -0.2304   50.5695  -31.8367 H   0  0  0  0  0  0
   -2.6571   49.6833  -30.5539 H   0  0  0  0  0  0
   -1.4972   50.8542  -29.8396 H   0  0  0  0  0  0
   -4.1730   51.3395  -30.8093 H   0  0  0  0  0  0
   -3.0142   52.5100  -30.0926 H   0  0  0  0  0  0
   -2.9182   53.4849  -32.1745 H   0  0  0  0  0  0
   -3.7343   52.0850  -32.9498 H   0  0  0  0  0  0
   -0.7425   48.2066  -31.3673 H   0  0  0  0  0  0
   -1.0289   47.0784  -33.9973 H   0  0  0  0  0  0
   -0.4650   46.1225  -31.3171 H   0  0  0  0  0  0
   -1.6898   45.0205  -32.0328 H   0  0  0  0  0  0
    1.0365   45.6598  -33.1710 H   0  0  0  0  0  0
    1.0613   44.3151  -31.0831 H   0  0  0  0  0  0
    1.5628   43.3535  -32.5151 H   0  0  0  0  0  0
   -0.0861   43.1529  -31.8312 H   0  0  0  0  0  0
   -0.6383   45.2044  -34.9198 H   0  0  0  0  0  0
   -1.0862   43.6761  -34.0889 H   0  0  0  0  0  0
    0.5627   43.8767  -34.7728 H   0  0  0  0  0  0
   -3.3438   47.3181  -31.2974 H   0  0  0  0  0  0
   -5.2779   45.5223  -32.4020 H   0  0  0  0  0  0
   -6.9879   46.8851  -31.0253 H   0  0  0  0  0  0
   -5.5370   46.3161  -30.1323 H   0  0  0  0  0  0
   -6.0145   48.7349  -29.6216 H   0  0  0  0  0  0
   -4.2629   48.5051  -33.6774 H   0  0  0  0  0  0
   -6.8715   49.0121  -35.0128 H   0  0  0  0  0  0
   -4.0926   50.2729  -35.1434 H   0  0  0  0  0  0
   -5.3092   50.6968  -36.3951 H   0  0  0  0  0  0
   -5.8454   50.1019  -32.7202 H   0  0  0  0  0  0
   -5.7435   52.9140  -35.9527 H   0  0  0  0  0  0
   -6.7758   51.8440  -31.2364 H   0  0  0  0  0  0
   -6.6636   54.6597  -34.4663 H   0  0  0  0  0  0
   -7.1592   54.1327  -32.0989 H   0  0  0  0  0  0
   -4.1754   46.9555  -35.5697 H   0  0  0  0  0  0
   -3.9861   47.0144  -38.3998 H   0  0  0  0  0  0
   -3.3415   45.0886  -36.3077 H   0  0  0  0  0  0
   -3.9939   44.2007  -37.7264 H   0  0  0  0  0  0
   -1.4310   45.5668  -37.2963 H   0  0  0  0  0  0
   -1.7926   43.0844  -37.2686 H   0  0  0  0  0  0
   -0.6876   43.5894  -38.5918 H   0  0  0  0  0  0
   -2.3962   43.1731  -38.9581 H   0  0  0  0  0  0
   -2.3134   46.8855  -39.1587 H   0  0  0  0  0  0
   -2.6981   45.3764  -40.0538 H   0  0  0  0  0  0
   -0.9895   45.7927  -39.6875 H   0  0  0  0  0  0
   -5.0774   46.4582  -40.1629 H   0  0  0  0  0  0
   -7.9076   45.6792  -39.6461 H   0  0  0  0  0  0
   -6.3007   46.4641  -42.0938 H   0  0  0  0  0  0
   -7.5754   44.5100  -42.8442 H   0  0  0  0  0  0
   -8.1817   46.0373  -43.5697 H   0  0  0  0  0  0
   -9.0863   45.2598  -42.2266 H   0  0  0  0  0  0
   -7.3570   48.1449  -40.5929 H   0  0  0  0  0  0
   -8.9577   47.3921  -40.9056 H   0  0  0  0  0  0
   -8.0530   48.1696  -42.2487 H   0  0  0  0  0  0
  1  2  1  0  0  0
  1  7  1  0  0  0
  1 49  1  0  0  0
  1 50  1  0  0  0
  2  3  1  0  0  0
  2  5  1  0  0  0
  2 51  1  0  0  0
  3  4  2  0  0  0
  3  8  1  0  0  0
  5  6  1  0  0  0
  5 52  1  0  0  0
  5 53  1  0  0  0
  6  7  1  0  0  0
  6 54  1  0  0  0
  6 55  1  0  0  0
  7 56  1  0  0  0
  7 57  1  0  0  0
  8  9  1  0  0  0
  8 58  1  0  0  0
  9 10  1  0  0  0
  9 12  1  0  0  0
  9 59  1  0  0  0
 10 11  2  0  0  0
 10 16  1  0  0  0
 12 13  1  0  0  0
 12 60  1  0  0  0
 12 61  1  0  0  0
 13 14  1  0  0  0
 13 15  1  0  0  0
 13 62  1  0  0  0
 14 63  1  0  0  0
 14 64  1  0  0  0
 14 65  1  0  0  0
 15 66  1  0  0  0
 15 67  1  0  0  0
 15 68  1  0  0  0
 16 17  1  0  0  0
 16 69  1  0  0  0
 17 18  1  0  0  0
 17 20  1  0  0  0
 17 70  1  0  0  0
 18 19  2  0  0  0
 18 22  1  0  0  0
 20 21  1  0  0  0
 20 71  1  0  0  0
 20 72  1  0  0  0
 21 73  1  0  0  0
 22 23  1  0  0  0
 22 74  1  0  0  0
 23 24  1  0  0  0
 23 26  1  0  0  0
 23 75  1  0  0  0
 24 25  2  0  0  0
 24 33  1  0  0  0
 26 27  1  0  0  0
 26 76  1  0  0  0
 26 77  1  0  0  0
 27 28  2  0  0  0
 27 29  1  0  0  0
 28 30  1  0  0  0
 28 78  1  0  0  0
 29 31  2  0  0  0
 29 79  1  0  0  0
 30 32  2  0  0  0
 30 80  1  0  0  0
 31 32  1  0  0  0
 31 81  1  0  0  0
 32 82  1  0  0  0
 33 34  1  0  0  0
 33 83  1  0  0  0
 34 35  1  0  0  0
 34 37  1  0  0  0
 34 84  1  0  0  0
 35 36  2  0  0  0
 35 41  1  0  0  0
 37 38  1  0  0  0
 37 85  1  0  0  0
 37 86  1  0  0  0
 38 39  1  0  0  0
 38 40  1  0  0  0
 38 87  1  0  0  0
 39 88  1  0  0  0
 39 89  1  0  0  0
 39 90  1  0  0  0
 40 91  1  0  0  0
 40 92  1  0  0  0
 40 93  1  0  0  0
 41 42  1  0  0  0
 41 94  1  0  0  0
 42 43  1  0  0  0
 42 45  1  0  0  0
 42 95  1  0  0  0
 43 44  1  0  0  0
 43 48  2  0  0  0
 45 46  1  0  0  0
 45 47  1  0  0  0
 45 96  1  0  0  0
 46 97  1  0  0  0
 46 98  1  0  0  0
 46 99  1  0  0  0
 47100  1  0  0  0
 47101  1  0  0  0
 47102  1  0  0  0
M  CHG  2   1   1  44  -1
M  END
> <s_m_source_file>
../3zmv_ligand.sdf

> <i_m_source_file_index>
1

> <s_epik_input>
W0NIMl0xW0NIMl1bQ0gyXVtOSDIrXVtDQEBIXTFDKD1PKVtOSF1bQ0BASF0oW0NIMl1bQ0hdKFtDSDNdKVtDSDNdKUMoPU8pW05IXVtDQEBIXShbQ0gyXVtPSF0pQyg9TylbTkhdW0NAQEhdKFtDSDJdYzJbY0hdW2NIXVtjSF1bY0hdW2NIXTIpQyg9TylbTkhdW0NAQEhdKFtDSDJdW0NIXShbQ0gzXSlbQ0gzXSlDKD1PKVtOSF1bQ0BIXShDKD1PKVtPSF0pW0NIXShbQ0gzXSlbQ0gzXQ==

> <s_epik_cmdline>
J2VwaWtfYXBwJywgJy1pbWFlJywgJ2xpZ2FuZF9wcm8ubWFlJywgJy1vbWFlJywgJ2xpZ2FuZF9wcmVwLm1hZScsICctbXMnLCAnMScsICctcGgnLCAnNycsICctcGh0JywgJzAuNScsICctbnQn

> <r_epik_Ionization_Penalty>
  0.0395

> <r_epik_Ionization_Penalty_Charging>
  0.0395

> <r_epik_Ionization_Penalty_Neutral>
  0.0000

> <r_epik_State_Penalty>
  0.0330

> <r_epik_Charging_Adjusted_Penalty>
0.0725451397188188

> <i_epik_Tot_Q>
0

> <i_epik_Tot_abs_Q>
2

$$$$
