3zmz_ligand
                    3D
 Schrodinger Suite 2020-3.
 98 99  0  0  1  0            999 V2000
   -1.6560   53.9980   84.8150 N   0  3  0  0  0  0
   -1.0610   52.7700   85.3310 C   0  0  2  0  0  0
   -1.4130   51.5520   84.4730 C   0  0  0  0  0  0
   -2.2100   51.6680   83.5350 O   0  0  0  0  0  0
   -1.7000   52.6410   86.7130 C   0  0  0  0  0  0
   -3.0440   53.2670   86.5550 C   0  0  0  0  0  0
   -2.8740   54.3750   85.5540 C   0  0  0  0  0  0
   -0.8330   50.3990   84.8120 N   0  0  0  0  0  0
   -1.0440   49.1560   84.0640 C   0  0  2  0  0  0
   -2.5210   48.8000   83.8780 C   0  0  0  0  0  0
   -2.9190   48.3250   82.8160 O   0  0  0  0  0  0
   -0.3150   47.9860   84.7290 C   0  0  0  0  0  0
   -0.1270   46.7950   83.8050 C   0  0  0  0  0  0
   -0.1410   45.4810   84.5630 C   0  0  0  0  0  0
    0.2230   44.3540   83.7010 N   0  0  0  0  0  0
    1.4000   43.7310   83.7210 C   0  0  0  0  0  0
    2.3550   44.1070   84.5660 N   0  0  0  0  0  0
    1.6230   42.7190   82.8950 N   0  3  0  0  0  0
   -3.3260   49.0390   84.9090 N   0  0  0  0  0  0
   -4.7450   48.6800   84.8850 C   0  0  2  0  0  0
   -5.5350   49.3240   83.7410 C   0  0  0  0  0  0
   -6.6320   48.8680   83.4120 O   0  0  0  0  0  0
   -5.4070   48.9750   86.2360 C   0  0  0  0  0  0
   -4.9130   50.1740   86.8070 O   0  0  0  0  0  0
   -4.9730   50.3680   83.1330 N   0  0  0  0  0  0
   -5.6230   51.0450   82.0090 C   0  0  2  0  0  0
   -5.5220   50.2490   80.7140 C   0  0  0  0  0  0
   -6.3790   50.3830   79.8370 O   0  0  0  0  0  0
   -5.0400   52.4460   81.7830 C   0  0  0  0  0  0
   -5.5180   53.4840   82.7640 C   0  0  0  0  0  0
   -6.5820   53.2320   83.6300 C   0  0  0  0  0  0
   -4.9190   54.7380   82.7950 C   0  0  0  0  0  0
   -7.0130   54.1990   84.5240 C   0  0  0  0  0  0
   -5.3520   55.7100   83.6830 C   0  0  0  0  0  0
   -6.3950   55.4370   84.5500 C   0  0  0  0  0  0
   -4.4710   49.4310   80.6040 N   0  0  0  0  0  0
   -4.1700   48.6780   79.3820 C   0  0  2  0  0  0
   -5.3100   47.7600   78.9720 C   0  0  0  0  0  0
   -5.8550   47.0140   79.7890 O   0  0  0  0  0  0
   -2.8760   47.8880   79.5350 C   0  0  0  0  0  0
   -5.6590   47.8370   77.6930 N   0  0  0  0  0  0
   -6.7330   47.0480   77.1040 C   0  0  2  0  0  0
   -6.4480   45.5530   77.1990 C   0  0  0  0  0  0
   -5.2872   45.0897   77.0395 O   0  0  0  0  0  0
   -6.9430   47.4470   75.6350 C   0  0  0  0  0  0
   -7.8980   46.4940   74.9390 C   0  0  0  0  0  0
   -7.4540   48.8730   75.5600 C   0  0  0  0  0  0
   -7.3972   44.7611   77.4431 O   0  5  0  0  0  0
   -0.9321   54.8215   84.9036 H   0  0  0  0  0  0
   -1.9254   53.8588   83.7576 H   0  0  0  0  0  0
    0.0359   52.8523   85.3255 H   0  0  0  0  0  0
   -1.7696   51.5779   86.9870 H   0  0  0  0  0  0
   -1.0826   53.1707   87.4534 H   0  0  0  0  0  0
   -3.7593   52.5134   86.1940 H   0  0  0  0  0  0
   -3.3825   53.6586   87.5256 H   0  0  0  0  0  0
   -2.7225   55.3518   86.0365 H   0  0  0  0  0  0
   -3.7216   54.4385   84.8558 H   0  0  0  0  0  0
   -0.1737   50.4059   85.6925 H   0  0  0  0  0  0
   -0.6125   49.3834   83.0781 H   0  0  0  0  0  0
    0.6829   48.3138   85.0556 H   0  0  0  0  0  0
   -0.8915   47.6425   85.6006 H   0  0  0  0  0  0
   -0.9402   46.7734   83.0646 H   0  0  0  0  0  0
    0.8390   46.8823   83.2862 H   0  0  0  0  0  0
    0.5795   45.5287   85.3928 H   0  0  0  0  0  0
   -1.1494   45.2991   84.9630 H   0  0  0  0  0  0
   -0.5010   43.9641   82.9704 H   0  0  0  0  0  0
    2.1801   44.9458   85.2558 H   0  0  0  0  0  0
    3.3201   43.5793   84.5754 H   0  0  0  0  0  0
    0.8395   42.4000   82.1919 H   0  0  0  0  0  0
   -2.8958   49.5218   85.7988 H   0  0  0  0  0  0
   -4.7175   47.5974   84.6923 H   0  0  0  0  0  0
   -6.4934   49.0779   86.0973 H   0  0  0  0  0  0
   -5.2030   48.1485   86.9326 H   0  0  0  0  0  0
   -5.2947   50.5181   87.7796 H   0  0  0  0  0  0
   -3.9956   50.7190   83.4957 H   0  0  0  0  0  0
   -6.6759   51.1018   82.3223 H   0  0  0  0  0  0
   -3.9440   52.4051   81.8676 H   0  0  0  0  0  0
   -5.3173   52.8011   80.7795 H   0  0  0  0  0  0
   -7.0803   52.2630   83.6032 H   0  0  0  0  0  0
   -4.0986   54.9596   82.1124 H   0  0  0  0  0  0
   -7.8367   53.9851   85.2051 H   0  0  0  0  0  0
   -4.8714   56.6882   83.6983 H   0  0  0  0  0  0
   -6.7305   56.1980   85.2545 H   0  0  0  0  0  0
   -3.8176   49.3356   81.4838 H   0  0  0  0  0  0
   -4.0516   49.4473   78.6047 H   0  0  0  0  0  0
   -2.0640   48.5682   79.8315 H   0  0  0  0  0  0
   -2.6227   47.4102   78.5771 H   0  0  0  0  0  0
   -3.0073   47.1153   80.3068 H   0  0  0  0  0  0
   -5.0893   48.5422   77.0700 H   0  0  0  0  0  0
   -7.6199   47.2850   77.7100 H   0  0  0  0  0  0
   -5.9828   47.3904   75.1014 H   0  0  0  0  0  0
   -7.5066   45.4682   75.0067 H   0  0  0  0  0  0
   -7.9956   46.7802   73.8814 H   0  0  0  0  0  0
   -8.8838   46.5431   75.4247 H   0  0  0  0  0  0
   -6.7465   49.5433   76.0701 H   0  0  0  0  0  0
   -8.4371   48.9364   76.0494 H   0  0  0  0  0  0
   -7.5490   49.1735   74.5061 H   0  0  0  0  0  0
    2.5916   42.1980   82.9124 H   0  0  0  0  0  0
  1  2  1  0  0  0
  1  7  1  0  0  0
  1 49  1  0  0  0
  1 50  1  0  0  0
  2  3  1  0  0  0
  2  5  1  0  0  0
  2 51  1  0  0  0
  3  4  2  0  0  0
  3  8  1  0  0  0
  5  6  1  0  0  0
  5 52  1  0  0  0
  5 53  1  0  0  0
  6  7  1  0  0  0
  6 54  1  0  0  0
  6 55  1  0  0  0
  7 56  1  0  0  0
  7 57  1  0  0  0
  8  9  1  0  0  0
  8 58  1  0  0  0
  9 10  1  0  0  0
  9 12  1  0  0  0
  9 59  1  0  0  0
 10 11  2  0  0  0
 10 19  1  0  0  0
 12 13  1  0  0  0
 12 60  1  0  0  0
 12 61  1  0  0  0
 13 14  1  0  0  0
 13 62  1  0  0  0
 13 63  1  0  0  0
 14 15  1  0  0  0
 14 64  1  0  0  0
 14 65  1  0  0  0
 15 16  1  0  0  0
 15 66  1  0  0  0
 16 17  1  0  0  0
 16 18  2  0  0  0
 17 67  1  0  0  0
 17 68  1  0  0  0
 18 69  1  0  0  0
 18 98  1  0  0  0
 19 20  1  0  0  0
 19 70  1  0  0  0
 20 21  1  0  0  0
 20 23  1  0  0  0
 20 71  1  0  0  0
 21 22  2  0  0  0
 21 25  1  0  0  0
 23 24  1  0  0  0
 23 72  1  0  0  0
 23 73  1  0  0  0
 24 74  1  0  0  0
 25 26  1  0  0  0
 25 75  1  0  0  0
 26 27  1  0  0  0
 26 29  1  0  0  0
 26 76  1  0  0  0
 27 28  2  0  0  0
 27 36  1  0  0  0
 29 30  1  0  0  0
 29 77  1  0  0  0
 29 78  1  0  0  0
 30 31  2  0  0  0
 30 32  1  0  0  0
 31 33  1  0  0  0
 31 79  1  0  0  0
 32 34  2  0  0  0
 32 80  1  0  0  0
 33 35  2  0  0  0
 33 81  1  0  0  0
 34 35  1  0  0  0
 34 82  1  0  0  0
 35 83  1  0  0  0
 36 37  1  0  0  0
 36 84  1  0  0  0
 37 38  1  0  0  0
 37 40  1  0  0  0
 37 85  1  0  0  0
 38 39  2  0  0  0
 38 41  1  0  0  0
 40 86  1  0  0  0
 40 87  1  0  0  0
 40 88  1  0  0  0
 41 42  1  0  0  0
 41 89  1  0  0  0
 42 43  1  0  0  0
 42 45  1  0  0  0
 42 90  1  0  0  0
 43 44  2  0  0  0
 43 48  1  0  0  0
 45 46  1  0  0  0
 45 47  1  0  0  0
 45 91  1  0  0  0
 46 92  1  0  0  0
 46 93  1  0  0  0
 46 94  1  0  0  0
 47 95  1  0  0  0
 47 96  1  0  0  0
 47 97  1  0  0  0
M  CHG  3   1   1  18   1  48  -1
M  END
> <s_m_source_file>
../3zmz_ligand.sdf

> <i_m_source_file_index>
1

> <s_epik_input>
W0NIMl0xW0NIMl1bQ0gyXVtOSDIrXVtDQEBIXTFDKD1PKVtOSF1bQ0BASF0oW0NIMl1bQ0gyXVtDSDJdW05IXS9DKFtOSDJdKT1OXFtIXSlDKD1PKVtOSF1bQ0BASF0oW0NIMl1bT0hdKUMoPU8pW05IXVtDQEBIXShbQ0gyXWMyW2NIXVtjSF1bY0hdW2NIXVtjSF0yKUMoPU8pW05IXVtDQEBIXShbQ0gzXSlDKD1PKVtOSF1bQ0BIXShDKD1PKVtPSF0pW0NIXShbQ0gzXSlbQ0gzXQ==

> <s_epik_cmdline>
J2VwaWtfYXBwJywgJy1pbWFlJywgJ2xpZ2FuZF9wcm8ubWFlJywgJy1vbWFlJywgJ2xpZ2FuZF9wcmVwLm1hZScsICctbXMnLCAnMScsICctcGgnLCAnNycsICctcGh0JywgJzAuNScsICctbnQn

> <r_epik_Ionization_Penalty>
  0.0413

> <r_epik_Ionization_Penalty_Charging>
  0.0413

> <r_epik_Ionization_Penalty_Neutral>
  0.0000

> <r_epik_State_Penalty>
  0.0347

> <r_epik_Charging_Adjusted_Penalty>
0.0759905714073973

> <i_epik_Tot_Q>
1

> <i_epik_Tot_abs_Q>
3

> <s_epik_Chemistry_Notes>
This compound has an imine and may undergo hydrolysis.

$$$$
