3zn0_ligand
                    3D
 Schrodinger Suite 2020-3.
 92 93  0  0  1  0            999 V2000
   -0.7970   54.1950   84.9750 N   0  3  0  0  0  0
   -0.9660   52.8370   85.4720 C   0  0  2  0  0  0
   -1.2000   51.8250   84.3490 C   0  0  0  0  0  0
   -1.7000   52.1920   83.2810 O   0  0  0  0  0  0
   -2.2160   52.9480   86.3500 C   0  0  0  0  0  0
   -2.9980   54.0870   85.7780 C   0  0  0  0  0  0
   -2.0660   54.9430   84.9620 C   0  0  0  0  0  0
   -0.8510   50.5640   84.6010 N   0  0  0  0  0  0
   -1.1030   49.4810   83.6460 C   0  0  2  0  0  0
   -2.6060   49.2280   83.4630 C   0  0  0  0  0  0
   -3.0240   48.6390   82.4660 O   0  0  0  0  0  0
   -0.3910   48.1900   84.0800 C   0  0  0  0  0  0
   -0.2780   47.1510   82.9680 C   0  0  0  0  0  0
   -0.1480   45.7300   83.5010 C   0  0  0  0  0  0
    1.2540   45.3520   83.7310 N   0  0  0  0  0  0
    1.7000   44.0970   83.7670 C   0  0  0  0  0  0
    0.8610   43.0750   83.5810 N   0  0  0  0  0  0
    2.9940   43.8610   83.9840 N   0  3  0  0  0  0
   -3.4040   49.6930   84.4230 N   0  0  0  0  0  0
   -4.8530   49.4680   84.4500 C   0  0  2  0  0  0
   -5.6030   49.9720   83.2120 C   0  0  0  0  0  0
   -6.6190   49.3920   82.8280 O   0  0  0  0  0  0
   -5.4650   50.0970   85.7070 C   0  0  0  0  0  0
   -4.7780   49.6850   86.8770 O   0  0  0  0  0  0
   -5.1050   51.0450   82.5970 N   0  0  0  0  0  0
   -5.7780   51.6660   81.4480 C   0  0  2  0  0  0
   -5.6590   50.8620   80.1530 C   0  0  0  0  0  0
   -6.4850   51.0190   79.2490 O   0  0  0  0  0  0
   -5.2730   53.0970   81.2060 C   0  0  0  0  0  0
   -5.6040   54.0670   82.3110 C   0  0  0  0  0  0
   -6.7370   53.8980   83.1050 C   0  0  0  0  0  0
   -4.7920   55.1720   82.5370 C   0  0  0  0  0  0
   -7.0320   54.7960   84.1180 C   0  0  0  0  0  0
   -5.0900   56.0770   83.5430 C   0  0  0  0  0  0
   -6.2090   55.8880   84.3350 C   0  0  0  0  0  0
   -4.6320   50.0130   80.0730 N   0  0  0  0  0  0
   -4.3140   49.2430   78.8640 C   0  0  2  0  0  0
   -5.5170   48.4860   78.2930 C   0  0  0  0  0  0
   -6.2890   47.8680   79.0340 O   0  0  0  0  0  0
   -3.1520   48.2920   79.1260 C   0  0  0  0  0  0
   -5.6610   48.5540   76.9700 N   0  0  0  0  0  0
   -6.7520   47.9030   76.2480 C   0  0  2  0  0  0
   -6.6890   46.3800   76.3630 C   0  0  0  0  0  0
   -5.5882   45.7760   76.4683 O   0  0  0  0  0  0
   -6.7360   48.3260   74.7890 C   0  0  0  0  0  0
   -7.7594   45.7153   76.3522 O   0  5  0  0  0  0
   -0.0877   54.7355   85.6190 H   0  0  0  0  0  0
   -0.4078   54.1633   83.9466 H   0  0  0  0  0  0
   -0.0491   52.5183   85.9894 H   0  0  0  0  0  0
   -2.7817   52.0058   86.3033 H   0  0  0  0  0  0
   -1.9172   53.1451   87.3901 H   0  0  0  0  0  0
   -3.8036   53.6948   85.1399 H   0  0  0  0  0  0
   -3.4337   54.6799   86.5957 H   0  0  0  0  0  0
   -1.9116   55.9348   85.4120 H   0  0  0  0  0  0
   -2.4115   55.0609   83.9244 H   0  0  0  0  0  0
   -0.3594   50.3475   85.5609 H   0  0  0  0  0  0
   -0.6792   49.8434   82.6978 H   0  0  0  0  0  0
    0.6304   48.4283   84.4117 H   0  0  0  0  0  0
   -0.9464   47.7255   84.9081 H   0  0  0  0  0  0
   -1.1767   47.1921   82.3351 H   0  0  0  0  0  0
    0.6112   47.3637   82.3564 H   0  0  0  0  0  0
   -0.6867   45.6461   84.4564 H   0  0  0  0  0  0
   -0.5782   45.0250   82.7744 H   0  0  0  0  0  0
    2.0149   46.1307   83.8881 H   0  0  0  0  0  0
   -0.2073   43.2661   83.4017 H   0  0  0  0  0  0
    1.2382   42.0420   83.6071 H   0  0  0  0  0  0
    3.6880   44.7005   84.1376 H   0  0  0  0  0  0
   -2.9224   50.2727   85.2243 H   0  0  0  0  0  0
   -4.9233   48.3703   84.4565 H   0  0  0  0  0  0
   -5.4058   51.1930   85.6345 H   0  0  0  0  0  0
   -6.5182   49.7917   85.7942 H   0  0  0  0  0  0
   -5.1002   50.0530   87.8623 H   0  0  0  0  0  0
   -4.1610   51.4650   82.9744 H   0  0  0  0  0  0
   -6.8318   51.6611   81.7633 H   0  0  0  0  0  0
   -4.1778   53.0870   81.1042 H   0  0  0  0  0  0
   -5.7233   53.4938   80.2842 H   0  0  0  0  0  0
   -7.3983   53.0500   82.9270 H   0  0  0  0  0  0
   -3.9103   55.3286   81.9155 H   0  0  0  0  0  0
   -7.9113   54.6429   84.7436 H   0  0  0  0  0  0
   -4.4429   56.9380   83.7106 H   0  0  0  0  0  0
   -6.4421   56.5979   85.1286 H   0  0  0  0  0  0
   -4.0096   49.9049   80.9735 H   0  0  0  0  0  0
   -4.0212   50.0081   78.1299 H   0  0  0  0  0  0
   -2.3011   48.8567   79.5349 H   0  0  0  0  0  0
   -2.8532   47.8098   78.1835 H   0  0  0  0  0  0
   -3.4632   47.5232   79.8486 H   0  0  0  0  0  0
   -4.9069   49.1355   76.4194 H   0  0  0  0  0  0
   -7.6719   48.2560   76.7370 H   0  0  0  0  0  0
   -6.7818   49.4232   74.7248 H   0  0  0  0  0  0
   -7.6044   47.8919   74.2718 H   0  0  0  0  0  0
   -5.8102   47.9692   74.3140 H   0  0  0  0  0  0
    3.3677   42.8267   84.0094 H   0  0  0  0  0  0
  1  2  1  0  0  0
  1  7  1  0  0  0
  1 47  1  0  0  0
  1 48  1  0  0  0
  2  3  1  0  0  0
  2  5  1  0  0  0
  2 49  1  0  0  0
  3  4  2  0  0  0
  3  8  1  0  0  0
  5  6  1  0  0  0
  5 50  1  0  0  0
  5 51  1  0  0  0
  6  7  1  0  0  0
  6 52  1  0  0  0
  6 53  1  0  0  0
  7 54  1  0  0  0
  7 55  1  0  0  0
  8  9  1  0  0  0
  8 56  1  0  0  0
  9 10  1  0  0  0
  9 12  1  0  0  0
  9 57  1  0  0  0
 10 11  2  0  0  0
 10 19  1  0  0  0
 12 13  1  0  0  0
 12 58  1  0  0  0
 12 59  1  0  0  0
 13 14  1  0  0  0
 13 60  1  0  0  0
 13 61  1  0  0  0
 14 15  1  0  0  0
 14 62  1  0  0  0
 14 63  1  0  0  0
 15 16  1  0  0  0
 15 64  1  0  0  0
 16 17  1  0  0  0
 16 18  2  0  0  0
 17 65  1  0  0  0
 17 66  1  0  0  0
 18 67  1  0  0  0
 18 92  1  0  0  0
 19 20  1  0  0  0
 19 68  1  0  0  0
 20 21  1  0  0  0
 20 23  1  0  0  0
 20 69  1  0  0  0
 21 22  2  0  0  0
 21 25  1  0  0  0
 23 24  1  0  0  0
 23 70  1  0  0  0
 23 71  1  0  0  0
 24 72  1  0  0  0
 25 26  1  0  0  0
 25 73  1  0  0  0
 26 27  1  0  0  0
 26 29  1  0  0  0
 26 74  1  0  0  0
 27 28  2  0  0  0
 27 36  1  0  0  0
 29 30  1  0  0  0
 29 75  1  0  0  0
 29 76  1  0  0  0
 30 31  2  0  0  0
 30 32  1  0  0  0
 31 33  1  0  0  0
 31 77  1  0  0  0
 32 34  2  0  0  0
 32 78  1  0  0  0
 33 35  2  0  0  0
 33 79  1  0  0  0
 34 35  1  0  0  0
 34 80  1  0  0  0
 35 81  1  0  0  0
 36 37  1  0  0  0
 36 82  1  0  0  0
 37 38  1  0  0  0
 37 40  1  0  0  0
 37 83  1  0  0  0
 38 39  2  0  0  0
 38 41  1  0  0  0
 40 84  1  0  0  0
 40 85  1  0  0  0
 40 86  1  0  0  0
 41 42  1  0  0  0
 41 87  1  0  0  0
 42 43  1  0  0  0
 42 45  1  0  0  0
 42 88  1  0  0  0
 43 44  2  0  0  0
 43 46  1  0  0  0
 45 89  1  0  0  0
 45 90  1  0  0  0
 45 91  1  0  0  0
M  CHG  3   1   1  18   1  46  -1
M  END
> <s_m_source_file>
../3zn0_ligand.sdf

> <i_m_source_file_index>
1

> <s_epik_input>
W0NIMl0xW0NIMl1bQ0gyXVtOSDIrXVtDQEBIXTFDKD1PKVtOSF1bQ0BASF0oW0NIMl1bQ0gyXVtDSDJdW05IXS9DKFtOSDJdKT1OXFtIXSlDKD1PKVtOSF1bQ0BASF0oW0NIMl1bT0hdKUMoPU8pW05IXVtDQEBIXShbQ0gyXWMyW2NIXVtjSF1bY0hdW2NIXVtjSF0yKUMoPU8pW05IXVtDQEBIXShbQ0gzXSlDKD1PKVtOSF1bQ0BASF0oW0NIM10pQyg9TylbT0hd

> <s_epik_cmdline>
J2VwaWtfYXBwJywgJy1pbWFlJywgJ2xpZ2FuZF9wcm8ubWFlJywgJy1vbWFlJywgJ2xpZ2FuZF9wcmVwLm1hZScsICctbXMnLCAnMScsICctcGgnLCAnNycsICctcGh0JywgJzAuNScsICctbnQn

> <r_epik_Ionization_Penalty>
  0.0413

> <r_epik_Ionization_Penalty_Charging>
  0.0413

> <r_epik_Ionization_Penalty_Neutral>
  0.0000

> <r_epik_State_Penalty>
  0.0347

> <r_epik_Charging_Adjusted_Penalty>
0.0759363612254043

> <i_epik_Tot_Q>
1

> <i_epik_Tot_abs_Q>
3

> <s_epik_Chemistry_Notes>
This compound has an imine and may undergo hydrolysis.

$$$$
