3zn1_ligand
                    3D
 Schrodinger Suite 2020-3.
116117  0  0  1  0            999 V2000
    0.2600   54.3780   84.0190 N   0  3  0  0  0  0
    0.3380   53.0870   84.6900 C   0  0  2  0  0  0
   -0.1720   51.9420   83.8100 C   0  0  0  0  0  0
   -0.7100   52.1820   82.7260 O   0  0  0  0  0  0
   -0.5810   53.2790   85.8950 C   0  0  0  0  0  0
   -1.6240   54.2270   85.4060 C   0  0  0  0  0  0
   -0.9340   55.1410   84.4280 C   0  0  0  0  0  0
   -0.0140   50.7110   84.2920 N   0  0  0  0  0  0
   -0.4310   49.5200   83.5550 C   0  0  2  0  0  0
   -1.9520   49.4110   83.3970 C   0  0  0  0  0  0
   -2.4330   48.7020   82.5140 O   0  0  0  0  0  0
    0.1100   48.2690   84.2470 C   0  0  0  0  0  0
    0.3050   47.0800   83.3250 C   0  0  0  0  0  0
    0.4820   45.7990   84.1170 C   0  0  0  0  0  0
    1.3320   44.8400   83.4110 N   0  0  0  0  0  0
    2.6190   44.6260   83.6830 C   0  0  0  0  0  0
    3.2210   45.2960   84.6600 N   0  0  0  0  0  0
    3.3070   43.7330   82.9800 N   0  3  0  0  0  0
   -2.6960   50.1220   84.2430 N   0  0  0  0  0  0
   -4.1610   50.0090   84.3080 C   0  0  2  0  0  0
   -4.8670   50.2780   82.9810 C   0  0  0  0  0  0
   -5.9090   49.6810   82.7010 O   0  0  0  0  0  0
   -4.7530   50.9480   85.3740 C   0  0  0  0  0  0
   -4.0280   51.3240   86.6740 C   0  0  0  0  0  0
   -4.9650   52.1360   87.5590 C   0  0  0  0  0  0
   -3.4700   50.1250   87.4380 C   0  0  0  0  0  0
   -4.3030   51.1770   82.1750 N   0  0  0  0  0  0
   -4.9750   51.6520   80.9630 C   0  0  2  0  0  0
   -4.7840   50.7650   79.7380 C   0  0  0  0  0  0
   -5.4900   50.9400   78.7400 O   0  0  0  0  0  0
   -4.5770   53.0970   80.6460 C   0  0  0  0  0  0
   -5.0380   54.0780   81.6930 C   0  0  0  0  0  0
   -6.3990   54.3320   81.8850 C   0  0  0  0  0  0
   -4.1180   54.7450   82.5000 C   0  0  0  0  0  0
   -6.8300   55.2210   82.8530 C   0  0  0  0  0  0
   -4.5410   55.6380   83.4690 C   0  0  0  0  0  0
   -5.8950   55.8710   83.6390 C   0  0  0  0  0  0
   -6.3160   56.7550   84.5990 O   0  0  0  0  0  0
   -3.8410   49.8220   79.8180 N   0  0  0  0  0  0
   -3.5710   48.8860   78.7220 C   0  0  2  0  0  0
   -4.8380   48.2850   78.1330 C   0  0  0  0  0  0
   -5.6400   47.6620   78.8360 O   0  0  0  0  0  0
   -2.6250   47.7670   79.1560 C   0  0  0  0  0  0
   -1.1670   47.9040   78.7280 C   0  0  0  0  0  0
   -0.3760   46.7010   79.2120 C   0  0  0  0  0  0
   -1.0490   48.0470   77.2210 C   0  0  0  0  0  0
   -5.0000   48.4940   76.8320 N   0  0  0  0  0  0
   -6.1490   48.0000   76.0910 C   0  0  2  0  0  0
   -6.0130   46.5000   75.8400 C   0  0  0  0  0  0
   -4.9154   45.9834   75.4994 O   0  5  0  0  0  0
   -6.3210   48.7880   74.7780 C   0  0  0  0  0  0
   -7.0690   47.9800   73.7320 C   0  0  0  0  0  0
   -7.0260   50.1060   75.0580 C   0  0  0  0  0  0
   -7.0237   45.7602   75.9770 O   0  0  0  0  0  0
    1.1505   54.9743   84.2667 H   0  0  0  0  0  0
    0.2132   54.2235   82.9309 H   0  0  0  0  0  0
    1.3854   52.8521   84.9305 H   0  0  0  0  0  0
   -1.0079   52.3087   86.1888 H   0  0  0  0  0  0
   -0.0036   53.6947   86.7339 H   0  0  0  0  0  0
   -2.4325   53.6628   84.9182 H   0  0  0  0  0  0
   -2.0329   54.7927   86.2562 H   0  0  0  0  0  0
   -0.6225   56.0887   84.8915 H   0  0  0  0  0  0
   -1.5549   55.3515   83.5448 H   0  0  0  0  0  0
    0.4501   50.6094   85.2841 H   0  0  0  0  0  0
    0.0112   49.6528   82.5566 H   0  0  0  0  0  0
    1.0894   48.4924   84.6952 H   0  0  0  0  0  0
   -0.5903   47.9538   85.0346 H   0  0  0  0  0  0
   -0.5752   46.9726   82.6740 H   0  0  0  0  0  0
    1.2010   47.2383   82.7069 H   0  0  0  0  0  0
    0.9495   46.0286   85.0859 H   0  0  0  0  0  0
   -0.5002   45.3331   84.2851 H   0  0  0  0  0  0
    0.9157   44.2346   82.5923 H   0  0  0  0  0  0
    2.6582   46.0370   85.2466 H   0  0  0  0  0  0
    4.2821   45.1096   84.8821 H   0  0  0  0  0  0
    2.8159   43.1743   82.1697 H   0  0  0  0  0  0
   -2.1678   50.8172   84.9120 H   0  0  0  0  0  0
   -4.2950   48.9490   84.5696 H   0  0  0  0  0  0
   -4.9466   51.9343   84.9270 H   0  0  0  0  0  0
   -5.6955   50.5254   85.7522 H   0  0  0  0  0  0
   -3.1522   51.9293   86.3971 H   0  0  0  0  0  0
   -5.3551   52.9932   86.9906 H   0  0  0  0  0  0
   -4.4146   52.4996   88.4393 H   0  0  0  0  0  0
   -5.8019   51.5015   87.8862 H   0  0  0  0  0  0
   -2.7971   49.5532   86.7821 H   0  0  0  0  0  0
   -4.2992   49.4801   87.7645 H   0  0  0  0  0  0
   -2.9119   50.4782   88.3176 H   0  0  0  0  0  0
   -3.3075   51.5632   82.4392 H   0  0  0  0  0  0
   -6.0370   51.5821   81.2409 H   0  0  0  0  0  0
   -3.4814   53.1694   80.5797 H   0  0  0  0  0  0
   -5.0230   53.3981   79.6866 H   0  0  0  0  0  0
   -7.1328   53.8211   81.2616 H   0  0  0  0  0  0
   -3.0520   54.5610   82.3663 H   0  0  0  0  0  0
   -7.8945   55.4075   82.9951 H   0  0  0  0  0  0
   -3.8128   56.1545   84.0943 H   0  0  0  0  0  0
   -7.3905   56.9444   84.7390 H   0  0  0  0  0  0
   -3.2572   49.7626   80.7484 H   0  0  0  0  0  0
   -3.0930   49.5201   77.9609 H   0  0  0  0  0  0
   -2.6112   47.7039   80.2541 H   0  0  0  0  0  0
   -2.9723   46.8106   78.7381 H   0  0  0  0  0  0
   -0.7491   48.8152   79.1809 H   0  0  0  0  0  0
   -0.4732   46.6136   80.3042 H   0  0  0  0  0  0
    0.6840   46.8285   78.9472 H   0  0  0  0  0  0
   -0.7660   45.7897   78.7351 H   0  0  0  0  0  0
   -1.6273   48.9220   76.8893 H   0  0  0  0  0  0
   -1.4421   47.1419   76.7349 H   0  0  0  0  0  0
    0.0079   48.1807   76.9470 H   0  0  0  0  0  0
   -4.2175   49.0684   76.3146 H   0  0  0  0  0  0
   -7.0227   48.1711   76.7370 H   0  0  0  0  0  0
   -5.3289   49.0033   74.3544 H   0  0  0  0  0  0
   -6.5375   47.0343   73.5501 H   0  0  0  0  0  0
   -7.1254   48.5549   72.7959 H   0  0  0  0  0  0
   -8.0859   47.7656   74.0925 H   0  0  0  0  0  0
   -6.4633   50.6687   75.8174 H   0  0  0  0  0  0
   -8.0426   49.9067   75.4278 H   0  0  0  0  0  0
   -7.0820   50.6959   74.1313 H   0  0  0  0  0  0
    4.3678   43.5523   83.2083 H   0  0  0  0  0  0
  1  2  1  0  0  0
  1  7  1  0  0  0
  1 55  1  0  0  0
  1 56  1  0  0  0
  2  3  1  0  0  0
  2  5  1  0  0  0
  2 57  1  0  0  0
  3  4  2  0  0  0
  3  8  1  0  0  0
  5  6  1  0  0  0
  5 58  1  0  0  0
  5 59  1  0  0  0
  6  7  1  0  0  0
  6 60  1  0  0  0
  6 61  1  0  0  0
  7 62  1  0  0  0
  7 63  1  0  0  0
  8  9  1  0  0  0
  8 64  1  0  0  0
  9 10  1  0  0  0
  9 12  1  0  0  0
  9 65  1  0  0  0
 10 11  2  0  0  0
 10 19  1  0  0  0
 12 13  1  0  0  0
 12 66  1  0  0  0
 12 67  1  0  0  0
 13 14  1  0  0  0
 13 68  1  0  0  0
 13 69  1  0  0  0
 14 15  1  0  0  0
 14 70  1  0  0  0
 14 71  1  0  0  0
 15 16  1  0  0  0
 15 72  1  0  0  0
 16 17  1  0  0  0
 16 18  2  0  0  0
 17 73  1  0  0  0
 17 74  1  0  0  0
 18 75  1  0  0  0
 18116  1  0  0  0
 19 20  1  0  0  0
 19 76  1  0  0  0
 20 21  1  0  0  0
 20 23  1  0  0  0
 20 77  1  0  0  0
 21 22  2  0  0  0
 21 27  1  0  0  0
 23 24  1  0  0  0
 23 78  1  0  0  0
 23 79  1  0  0  0
 24 25  1  0  0  0
 24 26  1  0  0  0
 24 80  1  0  0  0
 25 81  1  0  0  0
 25 82  1  0  0  0
 25 83  1  0  0  0
 26 84  1  0  0  0
 26 85  1  0  0  0
 26 86  1  0  0  0
 27 28  1  0  0  0
 27 87  1  0  0  0
 28 29  1  0  0  0
 28 31  1  0  0  0
 28 88  1  0  0  0
 29 30  2  0  0  0
 29 39  1  0  0  0
 31 32  1  0  0  0
 31 89  1  0  0  0
 31 90  1  0  0  0
 32 33  2  0  0  0
 32 34  1  0  0  0
 33 35  1  0  0  0
 33 91  1  0  0  0
 34 36  2  0  0  0
 34 92  1  0  0  0
 35 37  2  0  0  0
 35 93  1  0  0  0
 36 37  1  0  0  0
 36 94  1  0  0  0
 37 38  1  0  0  0
 38 95  1  0  0  0
 39 40  1  0  0  0
 39 96  1  0  0  0
 40 41  1  0  0  0
 40 43  1  0  0  0
 40 97  1  0  0  0
 41 42  2  0  0  0
 41 47  1  0  0  0
 43 44  1  0  0  0
 43 98  1  0  0  0
 43 99  1  0  0  0
 44 45  1  0  0  0
 44 46  1  0  0  0
 44100  1  0  0  0
 45101  1  0  0  0
 45102  1  0  0  0
 45103  1  0  0  0
 46104  1  0  0  0
 46105  1  0  0  0
 46106  1  0  0  0
 47 48  1  0  0  0
 47107  1  0  0  0
 48 49  1  0  0  0
 48 51  1  0  0  0
 48108  1  0  0  0
 49 50  1  0  0  0
 49 54  2  0  0  0
 51 52  1  0  0  0
 51 53  1  0  0  0
 51109  1  0  0  0
 52110  1  0  0  0
 52111  1  0  0  0
 52112  1  0  0  0
 53113  1  0  0  0
 53114  1  0  0  0
 53115  1  0  0  0
M  CHG  3   1   1  18   1  50  -1
M  END
> <s_m_source_file>
../3zn1_ligand.sdf

> <i_m_source_file_index>
1

> <s_epik_input>
W0NIMl0xW0NIMl1bQ0gyXVtOSDIrXVtDQEBIXTFDKD1PKVtOSF1bQ0BASF0oW0NIMl1bQ0gyXVtDSDJdW05IXS9DKFtOSDJdKT1OXFtIXSlDKD1PKVtOSF1bQ0BASF0oW0NIMl1bQ0hdKFtDSDNdKVtDSDNdKUMoPU8pW05IXVtDQEBIXShbQ0gyXWMyW2NIXVtjSF1jKFtPSF0pW2NIXVtjSF0yKUMoPU8pW05IXVtDQEBIXShbQ0gyXVtDSF0oW0NIM10pW0NIM10pQyg9TylbTkhdW0NASF0oQyg9TylbT0hdKVtDSF0oW0NIM10pW0NIM10=

> <s_epik_cmdline>
J2VwaWtfYXBwJywgJy1pbWFlJywgJ2xpZ2FuZF9wcm8ubWFlJywgJy1vbWFlJywgJ2xpZ2FuZF9wcmVwLm1hZScsICctbXMnLCAnMScsICctcGgnLCAnNycsICctcGh0JywgJzAuNScsICctbnQn

> <r_lp_tautomer_probability>
0.999999999997365

> <r_epik_Ionization_Penalty>
  0.0422

> <r_epik_Ionization_Penalty_Charging>
  0.0413

> <r_epik_Ionization_Penalty_Neutral>
  0.0009

> <r_epik_State_Penalty>
  0.0347

> <r_epik_Charging_Adjusted_Penalty>
0.0759958445008311

> <i_epik_Tot_Q>
1

> <i_epik_Tot_abs_Q>
3

> <s_epik_Chemistry_Notes>
This compound has an imine and may undergo hydrolysis.

$$$$
