3znc_ligand
                    3D
 Schrodinger Suite 2020-3.
 45 46  0  0  1  0            999 V2000
    0.6630   37.8550   22.0150 C   0  0  0  0  0  0
    3.8590   35.6170   18.6050 C   0  0  0  0  0  0
    4.7060   35.8980   19.8680 C   0  0  0  0  0  0
    2.3400   35.3690   18.6830 C   0  0  2  0  0  0
    1.9010   35.0770   20.1330 C   0  0  0  0  0  0
    7.3100   35.9950   16.7560 S   0  0  0  0  0  0
    1.0710   39.0800   22.8340 C   0  0  0  0  0  0
    3.2840   32.3460   17.4210 C   0  0  0  0  0  0
    2.1310   32.8140   18.3230 C   0  0  0  0  0  0
    6.4210   36.2290   19.4930 S   0  0  0  0  0  0
    7.1250   34.9090   15.5060 N   0  0  0  0  0  0
    7.5270   37.3600   15.9770 O   0  0  0  0  0  0
    8.5510   35.4710   17.5840 O   0  0  0  0  0  0
    5.9270   35.8850   17.8310 C   0  0  0  0  0  0
    4.6580   35.6100   17.5270 C   0  0  0  0  0  0
    3.9340   35.9460   21.4910 S   0  0  0  0  0  0
    4.4310   37.2230   22.2880 O   0  0  0  0  0  0
    4.2010   34.6370   22.3620 O   0  0  0  0  0  0
    2.2460   36.0870   21.1820 N   0  0  1  0  0  0
    1.7690   34.2050   17.9020 N   0  3  0  0  0  0
    1.7530   37.4810   21.0310 C   0  0  0  0  0  0
    1.3040   38.6950   24.2040 O   0  0  0  0  0  0
    0.2150   38.2580   25.0580 C   0  0  0  0  0  0
    0.4867   37.0047   22.6902 H   0  0  0  0  0  0
   -0.2585   38.0773   21.4570 H   0  0  0  0  0  0
    1.9506   36.2931   18.2309 H   0  0  0  0  0  0
    0.8058   34.9828   20.1726 H   0  0  0  0  0  0
    2.3622   34.1383   20.4738 H   0  0  0  0  0  0
    1.9924   39.5108   22.4152 H   0  0  0  0  0  0
    0.2666   39.8295   22.7982 H   0  0  0  0  0  0
    3.5778   31.3239   17.7022 H   0  0  0  0  0  0
    4.1433   33.0216   17.5442 H   0  0  0  0  0  0
    2.9561   32.3575   16.3711 H   0  0  0  0  0  0
    1.2717   32.1384   18.1998 H   0  0  0  0  0  0
    2.4589   32.8024   19.3729 H   0  0  0  0  0  0
    7.9908   34.9762   14.8308 H   0  0  0  0  0  0
    6.2063   35.1444   14.9487 H   0  0  0  0  0  0
    4.3087   35.4026   16.5155 H   0  0  0  0  0  0
    0.6704   34.2352   17.9496 H   0  0  0  0  0  0
    2.0926   34.2734   16.8529 H   0  0  0  0  0  0
    1.3708   37.5824   20.0045 H   0  0  0  0  0  0
    2.6161   38.1489   21.1686 H   0  0  0  0  0  0
    0.6073   38.0131   26.0560 H   0  0  0  0  0  0
   -0.2584   37.3664   24.6211 H   0  0  0  0  0  0
   -0.5293   39.0634   25.1441 H   0  0  0  0  0  0
  1  7  1  0  0  0
  1 21  1  0  0  0
  1 24  1  0  0  0
  1 25  1  0  0  0
  2  3  2  0  0  0
  2  4  1  0  0  0
  2 15  1  0  0  0
  3 10  1  0  0  0
  3 16  1  0  0  0
  4  5  1  0  0  0
  4 20  1  0  0  0
  4 26  1  0  0  0
  5 19  1  0  0  0
  5 27  1  0  0  0
  5 28  1  0  0  0
  6 11  1  0  0  0
  6 12  2  0  0  0
  6 13  2  0  0  0
  6 14  1  0  0  0
  7 22  1  0  0  0
  7 29  1  0  0  0
  7 30  1  0  0  0
  8  9  1  0  0  0
  8 31  1  0  0  0
  8 32  1  0  0  0
  8 33  1  0  0  0
  9 20  1  0  0  0
  9 34  1  0  0  0
  9 35  1  0  0  0
 10 14  1  0  0  0
 11 36  1  0  0  0
 11 37  1  0  0  0
 14 15  2  0  0  0
 15 38  1  0  0  0
 16 17  2  0  0  0
 16 18  2  0  0  0
 16 19  1  0  0  0
 19 21  1  0  0  0
 20 39  1  0  0  0
 20 40  1  0  0  0
 21 41  1  0  0  0
 21 42  1  0  0  0
 22 23  1  0  0  0
 23 43  1  0  0  0
 23 44  1  0  0  0
 23 45  1  0  0  0
M  CHG  1  20   1
M  END
> <s_m_source_file>
../3znc_ligand.sdf

> <i_m_source_file_index>
1

> <s_epik_input>
W0NIM11bQ0gyXVtOSDIrXVtDQEhdMVtDSDJdTihbQ0gyXVtDSDJdW0NIMl1PW0NIM10pUyg9TykoPU8pYyhjMTIpc2MoW2NIXTIpUyg9TykoPU8pW05IMl0=

> <s_epik_cmdline>
J2VwaWtfYXBwJywgJy1pbWFlJywgJ2xpZ2FuZF9wcm8ubWFlJywgJy1vbWFlJywgJ2xpZ2FuZF9wcmVwLm1hZScsICctbXMnLCAnMScsICctcGgnLCAnNycsICctcGh0JywgJzAuNScsICctbnQn

> <r_lp_tautomer_probability>
1

> <r_epik_Ionization_Penalty>
  0.0655

> <r_epik_Ionization_Penalty_Charging>
  0.0118

> <r_epik_Ionization_Penalty_Neutral>
  0.0537

> <r_epik_State_Penalty>
 -0.0000

> <r_epik_Charging_Adjusted_Penalty>
0.0117851752400128

> <i_epik_Tot_Q>
1

> <i_epik_Tot_abs_Q>
1

$$$$
