3znr_ligand
                    3D
 Schrodinger Suite 2020-3.
 58 62  0  0  1  0            999 V2000
   -2.3520   -1.2290  -12.7580 F   0  0  0  0  0  0
   -3.5380   -1.5770  -12.2760 C   0  0  0  0  0  0
   -3.8520   -2.7950  -12.7110 F   0  0  0  0  0  0
   -3.5080   -1.5610  -10.9480 F   0  0  0  0  0  0
   -4.5600   -0.6010  -12.7360 C   0  0  0  0  0  0
   -5.7140   -0.9060  -13.3770 N   0  0  0  0  0  0
   -6.4170    0.2810  -13.6040 C   0  0  0  0  0  0
   -5.6580    1.3040  -13.1290 N   0  0  0  0  0  0
   -4.5130    0.7690  -12.5620 O   0  0  0  0  0  0
   -7.6150    0.3910  -14.3000 C   0  0  0  0  0  0
   -8.2790   -0.7610  -14.7530 C   0  0  0  0  0  0
   -9.4830   -0.6460  -15.4630 C   0  0  0  0  0  0
  -10.0330    0.6130  -15.7250 C   0  0  0  0  0  0
   -9.3760    1.7610  -15.2680 C   0  0  0  0  0  0
   -8.1670    1.6530  -14.5690 C   0  0  0  0  0  0
   -9.9300    3.1120  -15.5560 C   0  0  0  0  0  0
  -11.0670    3.4290  -15.2390 O   0  0  0  0  0  0
   -9.0430    3.9960  -16.2380 N   0  0  0  0  0  0
   -9.3750    5.3410  -16.6240 C   0  0  0  0  0  0
   -8.6790    5.9040  -17.8860 C   0  0  0  0  0  0
   -9.3620    7.2260  -18.1040 C   0  0  0  0  0  0
   -9.1840    7.7470  -19.5350 C   0  0  0  0  0  0
   -8.4900    6.8350  -20.4010 O   0  0  0  0  0  0
   -8.9880    5.4860  -20.3600 C   0  0  0  0  0  0
   -9.0510    4.9000  -18.9430 C   0  0  0  0  0  0
   -7.2350    5.9110  -17.4560 C   0  0  1  0  0  0
   -6.4450    4.6980  -17.1390 N   0  5  0  0  0  0
   -4.9450    5.1260  -16.6630 C   0  0  0  0  0  0
   -4.8640    6.5640  -16.7600 C   0  0  0  0  0  0
   -6.2920    7.1180  -17.2710 S   0  0  0  0  0  0
   -3.9610    4.2280  -16.2570 C   0  0  0  0  0  0
   -4.3380    2.9560  -15.7960 C   0  0  0  0  0  0
   -3.3670    2.0370  -15.3820 C   0  0  0  0  0  0
   -2.0080    2.3810  -15.4260 C   0  0  0  0  0  0
   -1.6280    3.6470  -15.8850 C   0  0  0  0  0  0
   -2.6000    4.5650  -16.3000 C   0  0  0  0  0  0
   -7.8577   -1.7461  -14.5523 H   0  0  0  0  0  0
   -9.9933   -1.5434  -15.8128 H   0  0  0  0  0  0
  -10.9665    0.6994  -16.2811 H   0  0  0  0  0  0
   -7.6526    2.5531  -14.2325 H   0  0  0  0  0  0
   -8.0477    3.5877  -16.4675 H   0  0  0  0  0  0
  -10.4539    5.4083  -16.8277 H   0  0  0  0  0  0
   -9.1119    6.0318  -15.8094 H   0  0  0  0  0  0
  -10.4400    7.1175  -17.9137 H   0  0  0  0  0  0
   -8.9416    7.9739  -17.4156 H   0  0  0  0  0  0
  -10.1713    7.9351  -19.9822 H   0  0  0  0  0  0
   -8.6061    8.6828  -19.5153 H   0  0  0  0  0  0
  -10.0070    5.4586  -20.7734 H   0  0  0  0  0  0
   -8.3325    4.8348  -20.9569 H   0  0  0  0  0  0
   -8.3578    4.0470  -18.8987 H   0  0  0  0  0  0
  -10.0781    4.5472  -18.7683 H   0  0  0  0  0  0
   -7.5486    5.9817  -16.4040 H   0  0  0  0  0  0
   -3.9283    7.0809  -16.5006 H   0  0  0  0  0  0
   -5.3927    2.6830  -15.7605 H   0  0  0  0  0  0
   -3.6675    1.0520  -15.0247 H   0  0  0  0  0  0
   -1.2514    1.6654  -15.1041 H   0  0  0  0  0  0
   -0.5730    3.9190  -15.9195 H   0  0  0  0  0  0
   -2.2971    5.5486  -16.6591 H   0  0  0  0  0  0
  1  2  1  0  0  0
  2  3  1  0  0  0
  2  4  1  0  0  0
  2  5  1  0  0  0
  5  6  2  0  0  0
  5  9  1  0  0  0
  6  7  1  0  0  0
  7  8  2  0  0  0
  7 10  1  0  0  0
  8  9  1  0  0  0
 10 11  2  0  0  0
 10 15  1  0  0  0
 11 12  1  0  0  0
 11 37  1  0  0  0
 12 13  2  0  0  0
 12 38  1  0  0  0
 13 14  1  0  0  0
 13 39  1  0  0  0
 14 15  2  0  0  0
 14 16  1  0  0  0
 15 40  1  0  0  0
 16 17  2  0  0  0
 16 18  1  0  0  0
 18 19  1  0  0  0
 18 41  1  0  0  0
 19 20  1  0  0  0
 19 42  1  0  0  0
 19 43  1  0  0  0
 20 21  1  0  0  0
 20 25  1  0  0  0
 20 26  1  0  0  0
 21 22  1  0  0  0
 21 44  1  0  0  0
 21 45  1  0  0  0
 22 23  1  0  0  0
 22 46  1  0  0  0
 22 47  1  0  0  0
 23 24  1  0  0  0
 24 25  1  0  0  0
 24 48  1  0  0  0
 24 49  1  0  0  0
 25 50  1  0  0  0
 25 51  1  0  0  0
 26 27  1  0  0  0
 26 30  1  0  0  0
 26 52  1  0  0  0
 27 28  1  0  0  0
 28 29  2  0  0  0
 28 31  1  0  0  0
 29 30  1  0  0  0
 29 53  1  0  0  0
 31 32  2  0  0  0
 31 36  1  0  0  0
 32 33  1  0  0  0
 32 54  1  0  0  0
 33 34  2  0  0  0
 33 55  1  0  0  0
 34 35  1  0  0  0
 34 56  1  0  0  0
 35 36  2  0  0  0
 35 57  1  0  0  0
 36 58  1  0  0  0
M  CHG  1  27  -1
M  END
> <s_m_source_file>
../3znr_ligand.sdf

> <i_m_source_file_index>
1

> <s_epik_input>
RkMoRikoRiljMW5jKG5vMSktYzJbY0hdW2NIXVtjSF1jKFtjSF0yKUMoPU8pW05IXVtDSDJdQzMoW0NIMl1bQ0gyXU9bQ0gyXVtDSDJdMylbQ0hdNFtOSF1DKD1bQ0hdUzQpYzVbY0hdW2NIXVtjSF1bY0hdW2NIXTU=

> <s_epik_cmdline>
J2VwaWtfYXBwJywgJy1pbWFlJywgJ2xpZ2FuZF9wcm8ubWFlJywgJy1vbWFlJywgJ2xpZ2FuZF9wcmVwLm1hZScsICctbXMnLCAnMScsICctcGgnLCAnNycsICctcGh0JywgJzAuNScsICctbnQn

> <r_lp_tautomer_probability>
1

> <r_epik_Ionization_Penalty>
  0.1968

> <r_epik_Ionization_Penalty_Charging>
  0.0000

> <r_epik_Ionization_Penalty_Neutral>
  0.1968

> <r_epik_State_Penalty>
  0.1865

> <r_epik_Charging_Adjusted_Penalty>
0.186522186354665

> <i_epik_Tot_Q>
-1

> <i_epik_Tot_abs_Q>
1

> <s_epik_Chemistry_Notes>
This compound has an imine and may undergo hydrolysis. This compound contains an acetal/aminal-like group ( X-CH(R)-Y where X, Y are N, S, or O) that may be acid/base labile, releasing an aldehyde.

$$$$
