3zns_ligand
                    3D
 Schrodinger Suite 2020-3.
 62 66  0  0  1  0            999 V2000
   -8.6360    6.4160  -21.3400 C   0  0  0  0  0  0
   -9.8630    6.1430  -20.5640 N   0  3  2  0  0  0
   -2.6060   -1.0940  -12.6540 F   0  0  0  0  0  0
   -3.7900   -1.4100  -12.1410 C   0  0  0  0  0  0
   -4.0880   -2.6420  -12.5280 F   0  0  0  0  0  0
   -3.7880   -1.3210  -10.8150 F   0  0  0  0  0  0
   -4.8300   -0.4430  -12.6230 C   0  0  0  0  0  0
   -5.9250   -0.7340  -13.3010 N   0  0  0  0  0  0
   -6.6180    0.4560  -13.5390 C   0  0  0  0  0  0
   -5.9340    1.4530  -13.0120 N   0  0  0  0  0  0
   -4.7880    0.9260  -12.4080 O   0  0  0  0  0  0
   -7.8800    0.5880  -14.2860 C   0  0  0  0  0  0
   -8.5900   -0.5500  -14.6850 C   0  0  0  0  0  0
   -9.7810   -0.4010  -15.4110 C   0  0  0  0  0  0
  -10.2540    0.8770  -15.7410 C   0  0  0  0  0  0
   -9.5370    2.0150  -15.3410 C   0  0  0  0  0  0
   -8.3440    1.8660  -14.6210 C   0  0  0  0  0  0
  -10.0240    3.3650  -15.7100 C   0  0  0  0  0  0
  -11.2330    3.6150  -15.7010 O   0  0  0  0  0  0
   -9.1200    4.2620  -16.1150 N   0  0  0  0  0  0
   -9.4850    5.5720  -16.6920 C   0  0  0  0  0  0
   -8.5790    5.8860  -17.8960 C   0  0  2  0  0  0
   -8.9700    7.2590  -18.5040 C   0  0  0  0  0  0
  -10.1020    7.1830  -19.5490 C   0  0  0  0  0  0
   -9.7920    4.8220  -19.9250 C   0  0  0  0  0  0
   -8.6180    4.7330  -18.9310 C   0  0  0  0  0  0
   -7.1650    5.9680  -17.3580 C   0  0  0  0  0  0
   -6.3800    4.9630  -16.9980 N   0  0  0  0  0  0
   -5.0930    5.2700  -16.5300 C   0  0  0  0  0  0
   -4.7760    6.5760  -16.4990 C   0  0  0  0  0  0
   -6.2070    7.4290  -17.0950 S   0  0  0  0  0  0
   -4.1380    4.2110  -16.0930 C   0  0  0  0  0  0
   -2.7500    4.4460  -16.0500 C   0  0  0  0  0  0
   -1.8680    3.4410  -15.6350 C   0  0  0  0  0  0
   -2.3600    2.1880  -15.2530 C   0  0  0  0  0  0
   -3.7380    1.9460  -15.2900 C   0  0  0  0  0  0
   -4.6250    2.9520  -15.7060 C   0  0  0  0  0  0
   -8.7117    7.4084  -21.8085 H   0  0  0  0  0  0
   -8.5179    5.6501  -22.1206 H   0  0  0  0  0  0
   -7.7649    6.3928  -20.6687 H   0  0  0  0  0  0
  -10.7098    6.1494  -21.2661 H   0  0  0  0  0  0
   -8.2205   -1.5442  -14.4337 H   0  0  0  0  0  0
  -10.3416   -1.2832  -15.7201 H   0  0  0  0  0  0
  -11.1784    0.9865  -16.3081 H   0  0  0  0  0  0
   -7.7761    2.7467  -14.3211 H   0  0  0  0  0  0
   -8.0610    3.9866  -16.0021 H   0  0  0  0  0  0
  -10.5334    5.5471  -17.0241 H   0  0  0  0  0  0
   -9.3602    6.3558  -15.9303 H   0  0  0  0  0  0
   -9.3124    7.9306  -17.7029 H   0  0  0  0  0  0
   -8.0956    7.7009  -19.0042 H   0  0  0  0  0  0
  -10.1762    8.1645  -20.0401 H   0  0  0  0  0  0
  -11.0403    6.9674  -19.0170 H   0  0  0  0  0  0
  -10.7258    4.6294  -19.3764 H   0  0  0  0  0  0
   -9.6532    4.0491  -20.6953 H   0  0  0  0  0  0
   -7.6907    4.7399  -19.5227 H   0  0  0  0  0  0
   -8.7103    3.7712  -18.4052 H   0  0  0  0  0  0
   -3.8338    7.0175  -16.1744 H   0  0  0  0  0  0
   -2.3585    5.4202  -16.3428 H   0  0  0  0  0  0
   -0.7957    3.6350  -15.6094 H   0  0  0  0  0  0
   -1.6743    1.4053  -14.9286 H   0  0  0  0  0  0
   -4.1250    0.9709  -14.9942 H   0  0  0  0  0  0
   -5.6968    2.7547  -15.7286 H   0  0  0  0  0  0
  1  2  1  0  0  0
  1 38  1  0  0  0
  1 39  1  0  0  0
  1 40  1  0  0  0
  2 24  1  0  0  0
  2 25  1  0  0  0
  2 41  1  0  0  0
  3  4  1  0  0  0
  4  5  1  0  0  0
  4  6  1  0  0  0
  4  7  1  0  0  0
  7  8  2  0  0  0
  7 11  1  0  0  0
  8  9  1  0  0  0
  9 10  2  0  0  0
  9 12  1  0  0  0
 10 11  1  0  0  0
 12 13  2  0  0  0
 12 17  1  0  0  0
 13 14  1  0  0  0
 13 42  1  0  0  0
 14 15  2  0  0  0
 14 43  1  0  0  0
 15 16  1  0  0  0
 15 44  1  0  0  0
 16 17  2  0  0  0
 16 18  1  0  0  0
 17 45  1  0  0  0
 18 19  2  0  0  0
 18 20  1  0  0  0
 20 21  1  0  0  0
 20 46  1  0  0  0
 21 22  1  0  0  0
 21 47  1  0  0  0
 21 48  1  0  0  0
 22 23  1  0  0  0
 22 26  1  0  0  0
 22 27  1  0  0  0
 23 24  1  0  0  0
 23 49  1  0  0  0
 23 50  1  0  0  0
 24 51  1  0  0  0
 24 52  1  0  0  0
 25 26  1  0  0  0
 25 53  1  0  0  0
 25 54  1  0  0  0
 26 55  1  0  0  0
 26 56  1  0  0  0
 27 28  2  0  0  0
 27 31  1  0  0  0
 28 29  1  0  0  0
 29 30  2  0  0  0
 29 32  1  0  0  0
 30 31  1  0  0  0
 30 57  1  0  0  0
 32 33  2  0  0  0
 32 37  1  0  0  0
 33 34  1  0  0  0
 33 58  1  0  0  0
 34 35  2  0  0  0
 34 59  1  0  0  0
 35 36  1  0  0  0
 35 60  1  0  0  0
 36 37  2  0  0  0
 36 61  1  0  0  0
 37 62  1  0  0  0
M  CHG  1   2   1
M  END
> <s_m_source_file>
../3zns_ligand.sdf

> <i_m_source_file_index>
1

> <s_epik_input>
W2NIXTFbY0hdW2NIXVtjSF1bY0hdYzEtYyhbY0hdczIpbmMyW0NAXTMoW0NIMl1bQ0gyXVtOQEBIK10oW0NIM10pW0NIMl1bQ0gyXTMpW0NIMl1bTkhdQyg9TyljKFtjSF00KVtjSF1bY0hdW2NIXWM0LWMobm81KW5jNUMoRikoRilG

> <s_epik_cmdline>
J2VwaWtfYXBwJywgJy1pbWFlJywgJ2xpZ2FuZF9wcm8ubWFlJywgJy1vbWFlJywgJ2xpZ2FuZF9wcmVwLm1hZScsICctbXMnLCAnMScsICctcGgnLCAnNycsICctcGh0JywgJzAuNScsICctbnQn

> <r_lp_tautomer_probability>
1

> <r_epik_Ionization_Penalty>
  0.0075

> <r_epik_Ionization_Penalty_Charging>
  0.0075

> <r_epik_Ionization_Penalty_Neutral>
  0.0000

> <r_epik_State_Penalty>
 -0.0000

> <r_epik_Charging_Adjusted_Penalty>
0.00747635422141457

> <i_epik_Tot_Q>
1

> <i_epik_Tot_abs_Q>
1

$$$$
