3zo1_ligand
                    3D
 Schrodinger Suite 2020-3.
 41 44  0  0  1  0            999 V2000
  -32.3810  -10.2550   -0.9710 C   0  0  0  0  0  0
  -31.1970  -10.3640   -1.5410 N   0  3  0  0  0  0
  -33.4020  -10.1150   -1.8520 N   0  0  0  0  0  0
  -32.8440  -10.1360   -3.0970 C   0  0  0  0  0  0
  -33.4770  -10.0450   -4.2810 N   0  0  0  0  0  0
  -32.6710  -10.0780   -5.3450 C   0  0  0  0  0  0
  -31.4760  -10.2820   -2.8980 C   0  0  0  0  0  0
  -30.7730  -10.2910   -4.1550 C   0  0  0  0  0  0
  -31.3390  -10.1800   -5.3810 N   0  0  0  0  0  0
  -29.3670  -10.4550   -4.2170 N   0  0  0  0  0  0
  -28.4850  -10.4360   -3.0410 C   0  0  0  0  0  0
  -27.6170   -9.1900   -2.9510 C   0  0  0  0  0  0
  -26.7390   -9.0050   -4.2000 C   0  0  0  0  0  0
  -27.7000   -9.0460   -5.4020 C   0  0  0  0  0  0
  -28.6120  -10.2670   -5.4650 C   0  0  0  0  0  0
  -26.1230   -7.6110   -4.2100 N   0  3  0  0  0  0
  -25.0080   -7.3980   -3.2730 C   0  0  0  0  0  0
  -23.9120   -8.4190   -3.4770 C   0  0  0  0  0  0
  -24.4450   -9.8430   -3.3920 C   0  0  0  0  0  0
  -25.6220  -10.0610   -4.3490 C   0  0  0  0  0  0
  -32.5256  -10.2756    0.1092 H   0  0  0  0  0  0
  -33.1657  -10.0130   -6.3141 H   0  0  0  0  0  0
  -29.0934  -10.4793   -2.1256 H   0  0  0  0  0  0
  -27.8106  -11.3044   -3.0744 H   0  0  0  0  0  0
  -28.2589   -8.3026   -2.8491 H   0  0  0  0  0  0
  -26.9554   -9.2664   -2.0755 H   0  0  0  0  0  0
  -28.3584   -8.1652   -5.3752 H   0  0  0  0  0  0
  -27.1192   -9.0413   -6.3362 H   0  0  0  0  0  0
  -27.9877  -11.1530   -5.6528 H   0  0  0  0  0  0
  -29.3137  -10.1291   -6.3008 H   0  0  0  0  0  0
  -25.7283   -7.3918   -5.2131 H   0  0  0  0  0  0
  -26.8913   -6.8687   -3.9480 H   0  0  0  0  0  0
  -24.5839   -6.3952   -3.4297 H   0  0  0  0  0  0
  -25.3759   -7.4832   -2.2398 H   0  0  0  0  0  0
  -23.4594   -8.2777   -4.4696 H   0  0  0  0  0  0
  -23.1425   -8.2908   -2.7015 H   0  0  0  0  0  0
  -23.6454  -10.5502   -3.6573 H   0  0  0  0  0  0
  -24.7882  -10.0455   -2.3667 H   0  0  0  0  0  0
  -26.0328  -11.0606   -4.1442 H   0  0  0  0  0  0
  -25.2236  -10.0313   -5.3739 H   0  0  0  0  0  0
  -30.2970  -10.4866   -0.9205 H   0  0  0  0  0  0
  1  2  2  0  0  0
  1  3  1  0  0  0
  1 21  1  0  0  0
  2  7  1  0  0  0
  2 41  1  0  0  0
  3  4  2  0  0  0
  4  5  1  0  0  0
  4  7  1  0  0  0
  5  6  2  0  0  0
  6  9  1  0  0  0
  6 22  1  0  0  0
  7  8  2  0  0  0
  8  9  1  0  0  0
  8 10  1  0  0  0
 10 11  1  0  0  0
 10 15  1  0  0  0
 11 12  1  0  0  0
 11 23  1  0  0  0
 11 24  1  0  0  0
 12 13  1  0  0  0
 12 25  1  0  0  0
 12 26  1  0  0  0
 13 14  1  0  0  0
 13 16  1  0  0  0
 13 20  1  0  0  0
 14 15  1  0  0  0
 14 27  1  0  0  0
 14 28  1  0  0  0
 15 29  1  0  0  0
 15 30  1  0  0  0
 16 17  1  0  0  0
 16 31  1  0  0  0
 16 32  1  0  0  0
 17 18  1  0  0  0
 17 33  1  0  0  0
 17 34  1  0  0  0
 18 19  1  0  0  0
 18 35  1  0  0  0
 18 36  1  0  0  0
 19 20  1  0  0  0
 19 37  1  0  0  0
 19 38  1  0  0  0
 20 39  1  0  0  0
 20 40  1  0  0  0
M  CHG  2   2   1  16   1
M  END
> <s_m_source_file>
../3zo1_ligand.sdf

> <i_m_source_file_index>
1

> <s_epik_input>
bjFbY0hdbmMoYzEyKWMoW25IXVtjSF1uMilOKFtDSDJdW0NIMl0zKVtDSDJdW0NIMl1DMzRbTkgyK11bQ0gyXVtDSDJdW0NIMl1bQ0gyXTQ=

> <s_epik_cmdline>
J2VwaWtfYXBwJywgJy1pbWFlJywgJ2xpZ2FuZF9wcm8ubWFlJywgJy1vbWFlJywgJ2xpZ2FuZF9wcmVwLm1hZScsICctbXMnLCAnMScsICctcGgnLCAnNycsICctcGh0JywgJzAuNScsICctbnQn

> <r_epik_Ionization_Penalty>
  0.0140

> <r_epik_Ionization_Penalty_Charging>
  0.0001

> <r_epik_Ionization_Penalty_Neutral>
  0.0139

> <r_epik_State_Penalty>
  0.3859

> <r_epik_Charging_Adjusted_Penalty>
0.385989634194554

> <i_epik_Tot_Q>
2

> <i_epik_Tot_abs_Q>
2

$$$$
