3zo2_ligand
                    3D
 Schrodinger Suite 2020-3.
 41 44  0  0  1  0            999 V2000
  -32.4760   -9.9690   -0.8780 C   0  0  0  0  0  0
  -31.2570  -10.0290   -1.3780 N   0  3  0  0  0  0
  -33.4480   -9.8690   -1.8130 N   0  0  0  0  0  0
  -32.8200   -9.8900   -3.0260 C   0  0  0  0  0  0
  -33.3930   -9.8590   -4.2450 N   0  0  0  0  0  0
  -32.5330   -9.9900   -5.2580 C   0  0  0  0  0  0
  -31.4650  -10.0040   -2.7500 C   0  0  0  0  0  0
  -30.7050  -10.1290   -3.9540 C   0  0  0  0  0  0
  -31.2060  -10.1350   -5.2110 N   0  0  0  0  0  0
  -29.2990  -10.3130   -3.9500 N   0  0  0  0  0  0
  -28.4660  -10.3680   -2.7450 C   0  0  0  0  0  0
  -27.6480   -9.0870   -2.6500 C   0  0  0  0  0  0
  -26.7180   -8.8590   -3.8620 C   0  0  0  0  0  0
  -27.5390   -9.0240   -5.1580 C   0  0  0  0  0  0
  -28.4810  -10.2190   -5.1660 C   0  0  0  0  0  0
  -26.2030   -7.3710   -3.8200 C   0  0  0  0  0  0
  -25.2100   -7.1220   -2.7200 N   0  3  0  0  0  0
  -24.0180   -7.9840   -2.7520 C   0  0  0  0  0  0
  -24.4610   -9.4890   -2.7830 C   0  0  0  0  0  0
  -25.4950   -9.8020   -3.8690 C   0  0  0  0  0  0
  -32.6814   -9.9974    0.1921 H   0  0  0  0  0  0
  -32.9721   -9.9769   -6.2556 H   0  0  0  0  0  0
  -29.1098  -10.4640   -1.8583 H   0  0  0  0  0  0
  -27.7920  -11.2353   -2.8044 H   0  0  0  0  0  0
  -28.3258   -8.2229   -2.5878 H   0  0  0  0  0  0
  -27.0150   -9.1219   -1.7511 H   0  0  0  0  0  0
  -28.1591   -8.1292   -5.3156 H   0  0  0  0  0  0
  -26.8562   -9.1517   -6.0109 H   0  0  0  0  0  0
  -27.8681  -11.1269   -5.2667 H   0  0  0  0  0  0
  -29.1377  -10.1209   -6.0430 H   0  0  0  0  0  0
  -25.7125   -7.1257   -4.7736 H   0  0  0  0  0  0
  -27.0542   -6.6927   -3.6604 H   0  0  0  0  0  0
  -24.8501   -6.0842   -2.7789 H   0  0  0  0  0  0
  -25.6928   -7.2879   -1.7457 H   0  0  0  0  0  0
  -23.4259   -7.7576   -3.6510 H   0  0  0  0  0  0
  -23.4081   -7.7998   -1.8553 H   0  0  0  0  0  0
  -23.5839  -10.1256   -2.9716 H   0  0  0  0  0  0
  -24.9090   -9.7594   -1.8154 H   0  0  0  0  0  0
  -25.8297  -10.8377   -3.7098 H   0  0  0  0  0  0
  -24.9804   -9.7279   -4.8384 H   0  0  0  0  0  0
  -30.3885  -10.0822   -0.7050 H   0  0  0  0  0  0
  1  2  2  0  0  0
  1  3  1  0  0  0
  1 21  1  0  0  0
  2  7  1  0  0  0
  2 41  1  0  0  0
  3  4  2  0  0  0
  4  5  1  0  0  0
  4  7  1  0  0  0
  5  6  2  0  0  0
  6  9  1  0  0  0
  6 22  1  0  0  0
  7  8  2  0  0  0
  8  9  1  0  0  0
  8 10  1  0  0  0
 10 11  1  0  0  0
 10 15  1  0  0  0
 11 12  1  0  0  0
 11 23  1  0  0  0
 11 24  1  0  0  0
 12 13  1  0  0  0
 12 25  1  0  0  0
 12 26  1  0  0  0
 13 14  1  0  0  0
 13 16  1  0  0  0
 13 20  1  0  0  0
 14 15  1  0  0  0
 14 27  1  0  0  0
 14 28  1  0  0  0
 15 29  1  0  0  0
 15 30  1  0  0  0
 16 17  1  0  0  0
 16 31  1  0  0  0
 16 32  1  0  0  0
 17 18  1  0  0  0
 17 33  1  0  0  0
 17 34  1  0  0  0
 18 19  1  0  0  0
 18 35  1  0  0  0
 18 36  1  0  0  0
 19 20  1  0  0  0
 19 37  1  0  0  0
 19 38  1  0  0  0
 20 39  1  0  0  0
 20 40  1  0  0  0
M  CHG  2   2   1  17   1
M  END
> <s_m_source_file>
../3zo2_ligand.sdf

> <i_m_source_file_index>
1

> <s_epik_input>
bjFbY0hdbmMoYzEyKWMoW25IXVtjSF1uMilOKFtDSDJdW0NIMl0zKVtDSDJdW0NIMl1DMzRbQ0gyXVtOSDIrXVtDSDJdW0NIMl1bQ0gyXTQ=

> <s_epik_cmdline>
J2VwaWtfYXBwJywgJy1pbWFlJywgJ2xpZ2FuZF9wcm8ubWFlJywgJy1vbWFlJywgJ2xpZ2FuZF9wcmVwLm1hZScsICctbXMnLCAnMScsICctcGgnLCAnNycsICctcGh0JywgJzAuNScsICctbnQn

> <r_epik_Ionization_Penalty>
  0.0150

> <r_epik_Ionization_Penalty_Charging>
  0.0001

> <r_epik_Ionization_Penalty_Neutral>
  0.0149

> <r_epik_State_Penalty>
  0.3795

> <r_epik_Charging_Adjusted_Penalty>
0.379550457386801

> <i_epik_Tot_Q>
2

> <i_epik_Tot_abs_Q>
2

$$$$
