3zo4_ligand
                    3D
 Schrodinger Suite 2020-3.
 51 55  0  0  1  0            999 V2000
   23.0050  -12.7000   -0.2920 C   0  0  0  0  0  0
   23.0690  -11.3290   -0.4330 C   0  0  0  0  0  0
   23.5600  -10.5400    0.6020 C   0  0  0  0  0  0
   23.9930  -11.1160    1.7930 C   0  0  0  0  0  0
   23.9250  -12.4990    1.9190 C   0  0  0  0  0  0
   23.4330  -13.2860    0.8820 C   0  0  0  0  0  0
   24.5350  -10.2680    2.9320 C   0  0  2  0  0  0
   23.5430   -9.2330    3.4880 C   0  0  0  0  0  0
   24.1820   -8.4040    4.5880 C   0  0  0  0  0  0
   25.4240   -7.7480    4.1440 N   0  3  0  0  0  0
   25.8710   -9.6130    2.5590 C   0  0  0  0  0  0
   28.8150   -8.7070    2.6910 C   0  0  0  0  0  0
   27.5570   -7.8840    2.9210 C   0  0  0  0  0  0
   28.5800   -9.2410    5.0950 C   0  0  0  0  0  0
   27.1170   -9.5380    4.8000 C   0  0  0  0  0  0
   30.8310   -9.5810    3.9510 C   0  0  0  0  0  0
   31.3310   -9.6710    5.2050 N   0  0  0  0  0  0
   32.6660   -9.7890    5.2460 C   0  0  0  0  0  0
   33.5330   -9.8240    4.2270 N   0  0  0  0  0  0
   32.9530   -9.7680    3.0090 C   0  0  0  0  0  0
   26.4910   -8.7120    3.6620 C   0  0  0  0  0  0
   33.5670   -9.8380    1.7890 N   0  0  0  0  0  0
   32.5810   -9.7930    0.8610 C   0  0  0  0  0  0
   31.3690   -9.6900    1.3730 N   0  3  0  0  0  0
   31.5920   -9.6630    2.7410 C   0  0  0  0  0  0
   29.4380   -9.2700    3.8980 N   0  0  0  0  0  0
   22.6186  -13.3169   -1.1033 H   0  0  0  0  0  0
   22.7335  -10.8623   -1.3591 H   0  0  0  0  0  0
   23.6063   -9.4579    0.4790 H   0  0  0  0  0  0
   24.2612  -12.9727    2.8414 H   0  0  0  0  0  0
   23.3855  -14.3688    0.9974 H   0  0  0  0  0  0
   24.7039  -10.9864    3.7477 H   0  0  0  0  0  0
   23.2237   -8.5597    2.6789 H   0  0  0  0  0  0
   22.6653   -9.7515    3.9014 H   0  0  0  0  0  0
   23.4803   -7.6212    4.9117 H   0  0  0  0  0  0
   24.4262   -9.0533    5.4417 H   0  0  0  0  0  0
   25.2008   -7.0666    3.3098 H   0  0  0  0  0  0
   25.8555   -7.1764    4.9789 H   0  0  0  0  0  0
   26.6128  -10.3941    2.3365 H   0  0  0  0  0  0
   25.7324   -8.9760    1.6730 H   0  0  0  0  0  0
   28.5804   -9.5608    2.0383 H   0  0  0  0  0  0
   29.5814   -8.0795    2.2126 H   0  0  0  0  0  0
   27.8033   -6.9992    3.5264 H   0  0  0  0  0  0
   27.1468   -7.5628    1.9522 H   0  0  0  0  0  0
   28.6683   -8.2386    5.5394 H   0  0  0  0  0  0
   28.9715   -9.9900    5.7991 H   0  0  0  0  0  0
   27.0079  -10.5944    4.5136 H   0  0  0  0  0  0
   26.5138   -9.3373    5.6977 H   0  0  0  0  0  0
   33.1032   -9.8667    6.2414 H   0  0  0  0  0  0
   32.8303   -9.8420   -0.2092 H   0  0  0  0  0  0
   30.4931   -9.6481    0.7089 H   0  0  0  0  0  0
  1  2  2  0  0  0
  1  6  1  0  0  0
  1 27  1  0  0  0
  2  3  1  0  0  0
  2 28  1  0  0  0
  3  4  2  0  0  0
  3 29  1  0  0  0
  4  5  1  0  0  0
  4  7  1  0  0  0
  5  6  2  0  0  0
  5 30  1  0  0  0
  6 31  1  0  0  0
  7  8  1  0  0  0
  7 11  1  0  0  0
  7 32  1  0  0  0
  8  9  1  0  0  0
  8 33  1  0  0  0
  8 34  1  0  0  0
  9 10  1  0  0  0
  9 35  1  0  0  0
  9 36  1  0  0  0
 10 21  1  0  0  0
 10 37  1  0  0  0
 10 38  1  0  0  0
 11 21  1  0  0  0
 11 39  1  0  0  0
 11 40  1  0  0  0
 12 13  1  0  0  0
 12 26  1  0  0  0
 12 41  1  0  0  0
 12 42  1  0  0  0
 13 21  1  0  0  0
 13 43  1  0  0  0
 13 44  1  0  0  0
 14 15  1  0  0  0
 14 26  1  0  0  0
 14 45  1  0  0  0
 14 46  1  0  0  0
 15 21  1  0  0  0
 15 47  1  0  0  0
 15 48  1  0  0  0
 16 17  2  0  0  0
 16 25  1  0  0  0
 16 26  1  0  0  0
 17 18  1  0  0  0
 18 19  2  0  0  0
 18 49  1  0  0  0
 19 20  1  0  0  0
 20 22  1  0  0  0
 20 25  2  0  0  0
 22 23  2  0  0  0
 23 24  1  0  0  0
 23 50  1  0  0  0
 24 25  1  0  0  0
 24 51  1  0  0  0
M  CHG  2  10   1  24   1
M  END
> <s_m_source_file>
../3zo4_ligand.sdf

> <i_m_source_file_index>
1

> <s_epik_input>
W2NIXTFbY0hdW2NIXVtjSF1bY0hdYzFbQ0BASF0oW0NIMl0yKVtDSDJdW0NIMl1bTkgyK11DMjNbQ0gyXVtDSDJdTihbQ0gyXVtDSDJdMyljKG5bY0hdbjQpYyhjNDUpW25IXVtjSF1uNQ==

> <s_epik_cmdline>
J2VwaWtfYXBwJywgJy1pbWFlJywgJ2xpZ2FuZF9wcm8ubWFlJywgJy1vbWFlJywgJ2xpZ2FuZF9wcmVwLm1hZScsICctbXMnLCAnMScsICctcGgnLCAnNycsICctcGh0JywgJzAuNScsICctbnQn

> <r_epik_Ionization_Penalty>
  0.0031

> <r_epik_Ionization_Penalty_Charging>
  0.0011

> <r_epik_Ionization_Penalty_Neutral>
  0.0020

> <r_epik_State_Penalty>
  0.3851

> <r_epik_Charging_Adjusted_Penalty>
0.386223891667049

> <i_epik_Tot_Q>
2

> <i_epik_Tot_abs_Q>
2

> <s_epik_Chemistry_Notes>
This compound has an imine and may undergo hydrolysis.

$$$$
