3zos_ligand
                    3D
 Schrodinger Suite 2020-3.
 67 71  0  0  1  0            999 V2000
  -14.0080   -1.4160  -44.4390 N   0  0  0  0  0  0
   -1.4930    5.7440  -37.7560 N   0  3  2  0  0  0
  -12.5320    2.4740  -42.3900 C   0  0  0  0  0  0
  -11.7880    3.7030  -42.0800 C   0  0  0  0  0  0
  -12.2020    4.9460  -42.4370 C   0  0  0  0  0  0
  -11.3780    6.0180  -42.1010 C   0  0  0  0  0  0
  -10.1280    5.8080  -41.4670 C   0  0  0  0  0  0
  -10.5100    3.4460  -41.4600 C   0  0  0  0  0  0
   -6.0050    5.2320  -39.9050 C   0  0  0  0  0  0
   -3.9660    6.2020  -39.0510 C   0  0  0  0  0  0
   -3.8920    3.9900  -39.9930 C   0  0  0  0  0  0
   -1.7480    5.0670  -39.0290 C   0  0  0  0  0  0
   -0.0860    6.0510  -37.5810 C   0  0  0  0  0  0
    0.0650    6.8710  -36.3120 C   0  0  0  0  0  0
   -2.0760    5.1000  -36.5960 C   0  0  0  0  0  0
  -15.3490   -2.8380  -42.8280 C   0  0  0  0  0  0
  -15.8020   -2.8630  -41.5320 C   0  0  0  0  0  0
  -15.5200   -1.8240  -40.6850 C   0  0  0  0  0  0
  -14.8040   -0.7310  -41.0820 N   0  0  0  0  0  0
  -14.3470   -0.6960  -42.3520 N   0  0  0  0  0  0
  -14.5820   -1.7210  -43.2460 C   0  0  0  0  0  0
  -13.4190   -0.2390  -44.3330 C   0  0  0  0  0  0
  -13.6520    0.2250  -43.0390 C   0  0  0  0  0  0
  -13.0570    1.4850  -42.6500 C   0  0  0  0  0  0
   -9.6880    4.5210  -41.1280 C   0  0  0  0  0  0
  -13.5290    5.1100  -43.0950 C   0  0  0  0  0  0
   -8.3170    4.2040  -40.5510 C   0  0  0  0  0  0
   -7.9780    3.0220  -40.4710 O   0  0  0  0  0  0
   -7.4000    5.2880  -40.2970 N   0  0  0  0  0  0
   -5.3380    6.2790  -39.3330 C   0  0  0  0  0  0
   -3.2470    5.0450  -39.3740 C   0  0  0  0  0  0
   -5.2690    4.0830  -40.2550 C   0  0  0  0  0  0
   -3.1550    2.6990  -40.3230 C   0  0  0  0  0  0
   -2.0130    2.9820  -40.9800 F   0  0  0  0  0  0
   -3.9060    1.8400  -41.0290 F   0  0  0  0  0  0
   -2.8800    2.1140  -39.1650 F   0  0  0  0  0  0
   -1.9000    5.9040  -35.3310 C   0  0  0  0  0  0
   -0.2120    6.8790  -33.9020 C   0  0  0  0  0  0
   -0.4880    6.1850  -35.1700 N   0  0  2  0  0  0
   -2.0305    6.7019  -37.8146 H   0  0  0  0  0  0
  -11.6997    7.0341  -42.3293 H   0  0  0  0  0  0
   -9.4953    6.6655  -41.2381 H   0  0  0  0  0  0
  -10.1920    2.4239  -41.2542 H   0  0  0  0  0  0
   -3.4591    7.0441  -38.5798 H   0  0  0  0  0  0
   -1.2155    5.5913  -39.8362 H   0  0  0  0  0  0
   -1.3920    4.0279  -38.9695 H   0  0  0  0  0  0
    0.4858    5.1151  -37.4972 H   0  0  0  0  0  0
    0.2747    6.6247  -38.4475 H   0  0  0  0  0  0
    1.1320    7.0591  -36.1218 H   0  0  0  0  0  0
   -0.4610    7.8298  -36.4302 H   0  0  0  0  0  0
   -3.1550    4.9601  -36.7579 H   0  0  0  0  0  0
   -1.5985    4.1212  -36.4413 H   0  0  0  0  0  0
  -15.5726   -3.6535  -43.5158 H   0  0  0  0  0  0
  -16.3871   -3.7112  -41.1765 H   0  0  0  0  0  0
  -15.8800   -1.8714  -39.6573 H   0  0  0  0  0  0
  -12.8555    0.2743  -45.1121 H   0  0  0  0  0  0
  -13.9833    4.1212  -43.2556 H   0  0  0  0  0  0
  -13.3981    5.6151  -44.0634 H   0  0  0  0  0  0
  -14.1850    5.7148  -42.4517 H   0  0  0  0  0  0
   -7.8929    6.2612  -40.4386 H   0  0  0  0  0  0
   -5.8828    7.1916  -39.0913 H   0  0  0  0  0  0
   -5.7781    3.2494  -40.7388 H   0  0  0  0  0  0
   -2.4668    6.8433  -35.4117 H   0  0  0  0  0  0
   -2.2715    5.3241  -34.4733 H   0  0  0  0  0  0
    0.8674    7.0736  -33.8180 H   0  0  0  0  0  0
   -0.5376    6.2493  -33.0609 H   0  0  0  0  0  0
   -0.7595    7.8328  -33.8794 H   0  0  0  0  0  0
  1 21  2  0  0  0
  1 22  1  0  0  0
  2 12  1  0  0  0
  2 13  1  0  0  0
  2 15  1  0  0  0
  2 40  1  0  0  0
  3  4  1  0  0  0
  3 24  3  0  0  0
  4  5  2  0  0  0
  4  8  1  0  0  0
  5  6  1  0  0  0
  5 26  1  0  0  0
  6  7  2  0  0  0
  6 41  1  0  0  0
  7 25  1  0  0  0
  7 42  1  0  0  0
  8 25  2  0  0  0
  8 43  1  0  0  0
  9 29  1  0  0  0
  9 30  2  0  0  0
  9 32  1  0  0  0
 10 30  1  0  0  0
 10 31  2  0  0  0
 10 44  1  0  0  0
 11 31  1  0  0  0
 11 32  2  0  0  0
 11 33  1  0  0  0
 12 31  1  0  0  0
 12 45  1  0  0  0
 12 46  1  0  0  0
 13 14  1  0  0  0
 13 47  1  0  0  0
 13 48  1  0  0  0
 14 39  1  0  0  0
 14 49  1  0  0  0
 14 50  1  0  0  0
 15 37  1  0  0  0
 15 51  1  0  0  0
 15 52  1  0  0  0
 16 17  2  0  0  0
 16 21  1  0  0  0
 16 53  1  0  0  0
 17 18  1  0  0  0
 17 54  1  0  0  0
 18 19  2  0  0  0
 18 55  1  0  0  0
 19 20  1  0  0  0
 20 21  1  0  0  0
 20 23  1  0  0  0
 22 23  2  0  0  0
 22 56  1  0  0  0
 23 24  1  0  0  0
 25 27  1  0  0  0
 26 57  1  0  0  0
 26 58  1  0  0  0
 26 59  1  0  0  0
 27 28  2  0  0  0
 27 29  1  0  0  0
 29 60  1  0  0  0
 30 61  1  0  0  0
 32 62  1  0  0  0
 33 34  1  0  0  0
 33 35  1  0  0  0
 33 36  1  0  0  0
 37 39  1  0  0  0
 37 63  1  0  0  0
 37 64  1  0  0  0
 38 39  1  0  0  0
 38 65  1  0  0  0
 38 66  1  0  0  0
 38 67  1  0  0  0
M  CHG  1   2   1
M  END
> <s_m_source_file>
../3zos_ligand.sdf

> <i_m_source_file_index>
1

> <s_epik_input>
bjFbY0hdW2NIXVtjSF1jKG4xMiluW2NIXWMyQyNDYzNjKFtDSDNdKVtjSF1bY0hdYyhbY0hdMylDKD1PKVtOSF1jNFtjSF1bY0hdYyhjKFtjSF00KUMoRikoRilGKVtDSDJdW05AQEgrXTVbQ0gyXVtDSDJdW05AQEgrXShbQ0gzXSlbQ0gyXVtDSDJdNQ==

> <s_epik_cmdline>
J2VwaWtfYXBwJywgJy1pbWFlJywgJ2xpZ2FuZF9wcm8ubWFlJywgJy1vbWFlJywgJ2xpZ2FuZF9wcmVwLm1hZScsICctbXMnLCAnMScsICctcGgnLCAnNycsICctcGh0JywgJzAuNScsICctbnQn

> <r_lp_tautomer_probability>
1

> <r_epik_Ionization_Penalty>
  0.0174

> <r_epik_Ionization_Penalty_Charging>
  0.0155

> <r_epik_Ionization_Penalty_Neutral>
  0.0020

> <r_epik_State_Penalty>
 -0.0000

> <r_epik_Charging_Adjusted_Penalty>
0.0154526225118262

> <i_epik_Tot_Q>
1

> <i_epik_Tot_abs_Q>
1

$$$$
