3zov_ligand
                    3D
 Schrodinger Suite 2020-3.
 52 54  0  0  1  0            999 V2000
  -20.8670   44.4100   83.3080 F   0  0  0  0  0  0
  -21.3830   45.2430   84.1830 C   0  0  0  0  0  0
  -22.4600   45.8340   83.7230 F   0  0  0  0  0  0
  -20.5180   46.1780   84.5250 F   0  0  0  0  0  0
  -21.7540   44.3930   85.3680 C   0  0  0  0  0  0
  -20.5530   44.0520   86.0420 O   0  0  0  0  0  0
  -20.7170   43.4290   87.2460 C   0  0  0  0  0  0
  -19.7340   42.5670   87.7080 C   0  0  0  0  0  0
  -19.9160   41.9570   88.8870 N   0  0  0  0  0  0
  -21.8840   43.6570   88.0040 C   0  0  0  0  0  0
  -22.0430   43.0050   89.2230 C   0  0  0  0  0  0
  -21.0270   42.1470   89.6430 C   0  0  0  0  0  0
  -21.1580   41.4320   90.9410 C   0  0  0  0  0  0
  -22.2770   41.3770   91.4270 O   0  0  0  0  0  0
  -20.0340   40.9000   91.4470 N   0  0  0  0  0  0
  -19.8150   40.1860   92.6340 C   0  0  0  0  0  0
  -18.4930   39.8850   92.9890 C   0  0  0  0  0  0
  -20.8710   39.8140   93.4700 C   0  0  0  0  0  0
  -20.5970   39.1210   94.6420 C   0  0  0  0  0  0
  -19.2810   38.8080   94.9800 C   0  0  0  0  0  0
  -18.2080   39.1840   94.1630 C   0  0  0  0  0  0
  -16.7980   38.8270   94.5880 C   0  0  1  0  0  0
  -16.4440   39.6800   95.7780 C   0  0  0  0  0  0
  -16.0910   41.0580   95.2920 C   0  0  0  0  0  0
  -16.3440   41.9710   96.0360 O   0  0  0  0  0  0
  -16.7000   37.3780   95.0150 C   0  0  0  0  0  0
  -15.7920   39.0720   93.5570 N   0  3  0  0  0  0
  -15.3530   40.2160   93.2660 C   0  0  0  0  0  0
  -14.7060   40.3670   92.1000 N   0  0  0  0  0  0
  -15.5670   41.2710   94.0720 N   0  0  0  0  0  0
  -15.3050   42.6470   93.6350 C   0  0  0  0  0  0
  -22.4196   44.9623   86.0335 H   0  0  0  0  0  0
  -22.2706   43.4859   85.0212 H   0  0  0  0  0  0
  -18.8312   42.3892   87.1237 H   0  0  0  0  0  0
  -22.6536   44.3370   87.6388 H   0  0  0  0  0  0
  -22.9343   43.1601   89.8309 H   0  0  0  0  0  0
  -19.0847   40.9972   90.8998 H   0  0  0  0  0  0
  -17.6765   40.2022   92.3403 H   0  0  0  0  0  0
  -21.8982   40.0649   93.2053 H   0  0  0  0  0  0
  -21.4130   38.8210   95.2994 H   0  0  0  0  0  0
  -19.0833   38.2586   95.9004 H   0  0  0  0  0  0
  -17.3051   39.7327   96.4605 H   0  0  0  0  0  0
  -15.5856   39.2371   96.3043 H   0  0  0  0  0  0
  -17.4509   37.1733   95.7924 H   0  0  0  0  0  0
  -15.6946   37.1809   95.4154 H   0  0  0  0  0  0
  -16.8834   36.7269   94.1475 H   0  0  0  0  0  0
  -15.4168   38.1866   93.0228 H   0  0  0  0  0  0
  -14.5364   39.4971   91.4484 H   0  0  0  0  0  0
  -15.5493   43.3435   94.4506 H   0  0  0  0  0  0
  -15.9266   42.8776   92.7573 H   0  0  0  0  0  0
  -14.2426   42.7514   93.3696 H   0  0  0  0  0  0
  -14.3452   41.3607   91.7958 H   0  0  0  0  0  0
  1  2  1  0  0  0
  2  3  1  0  0  0
  2  4  1  0  0  0
  2  5  1  0  0  0
  5  6  1  0  0  0
  5 32  1  0  0  0
  5 33  1  0  0  0
  6  7  1  0  0  0
  7  8  2  0  0  0
  7 10  1  0  0  0
  8  9  1  0  0  0
  8 34  1  0  0  0
  9 12  2  0  0  0
 10 11  2  0  0  0
 10 35  1  0  0  0
 11 12  1  0  0  0
 11 36  1  0  0  0
 12 13  1  0  0  0
 13 14  2  0  0  0
 13 15  1  0  0  0
 15 16  1  0  0  0
 15 37  1  0  0  0
 16 17  2  0  0  0
 16 18  1  0  0  0
 17 21  1  0  0  0
 17 38  1  0  0  0
 18 19  2  0  0  0
 18 39  1  0  0  0
 19 20  1  0  0  0
 19 40  1  0  0  0
 20 21  2  0  0  0
 20 41  1  0  0  0
 21 22  1  0  0  0
 22 23  1  0  0  0
 22 26  1  0  0  0
 22 27  1  0  0  0
 23 24  1  0  0  0
 23 42  1  0  0  0
 23 43  1  0  0  0
 24 25  2  0  0  0
 24 30  1  0  0  0
 26 44  1  0  0  0
 26 45  1  0  0  0
 26 46  1  0  0  0
 27 28  2  0  0  0
 27 47  1  0  0  0
 28 29  1  0  0  0
 28 30  1  0  0  0
 29 48  1  0  0  0
 29 52  1  0  0  0
 30 31  1  0  0  0
 31 49  1  0  0  0
 31 50  1  0  0  0
 31 51  1  0  0  0
M  CHG  1  27   1
M  END
> <s_m_source_file>
../3zov_ligand.sdf

> <i_m_source_file_index>
1

> <s_epik_input>
RkMoRikoRilbQ0gyXU9jMVtjSF1uYyhbY0hdW2NIXTEpQyg9TylbTkhdYzJbY0hdYyhbY0hdW2NIXVtjSF0yKVtDQF0zKFtDSDNdKVtDSDJdQyg9TylOKFtDSDNdKUMoXFtOSF0zKT1OL1tIXQ==

> <s_epik_cmdline>
J2VwaWtfYXBwJywgJy1pbWFlJywgJ2xpZ2FuZF9wcm8ubWFlJywgJy1vbWFlJywgJ2xpZ2FuZF9wcmVwLm1hZScsICctbXMnLCAnMScsICctcGgnLCAnNycsICctcGh0JywgJzAuNScsICctbnQn

> <r_lp_tautomer_probability>
1

> <r_epik_Ionization_Penalty>
  0.0889

> <r_epik_Ionization_Penalty_Charging>
  0.0889

> <r_epik_Ionization_Penalty_Neutral>
  0.0000

> <r_epik_State_Penalty>
 -0.0000

> <r_epik_Charging_Adjusted_Penalty>
0.0888880597410272

> <i_epik_Tot_Q>
1

> <i_epik_Tot_abs_Q>
1

> <s_epik_Chemistry_Notes>
This compound has an imine and may undergo hydrolysis.

$$$$
