3zp9_ligand
                    3D
 Schrodinger Suite 2020-3.
 70 74  0  0  1  0            999 V2000
   20.9260    7.2640    9.8070 Cl  0  0  0  0  0  0
   16.8800    7.5950   11.8500 C   0  0  0  0  0  0
   17.7060    6.6270   12.6260 C   0  0  0  0  0  0
   17.1220    5.5590   13.3000 C   0  0  0  0  0  0
   19.0920    6.7440   12.7140 N   0  0  0  0  0  0
   19.8980    5.8480   13.3990 C   0  0  0  0  0  0
   19.3300    4.8000   14.0910 C   0  0  0  0  0  0
   17.9360    4.6740   14.0360 C   0  0  0  0  0  0
   17.2630    3.5700   14.7090 C   0  0  0  0  0  0
   18.0090    2.5460   15.3040 C   0  0  0  0  0  0
   17.4150    1.4440   15.9670 C   0  0  0  0  0  0
   15.8840    3.4970   14.8270 C   0  0  0  0  0  0
   15.2980    2.3820   15.5020 C   0  0  0  0  0  0
   16.0400    1.3250   16.0940 C   0  0  0  0  0  0
   15.4300    0.0230   16.9310 S   0  0  0  0  0  0
   15.9690    0.1210   18.2680 O   0  0  0  0  0  0
   13.9890    0.1900   16.8670 O   0  0  0  0  0  0
   15.8880   -1.3410   16.2680 N   0  0  0  0  0  0
   17.8890    8.4190   11.1590 N   0  0  2  0  0  0
   17.8090    8.2420    9.6260 S   0  0  0  0  0  0
   18.7560    9.2070    9.1100 O   0  0  0  0  0  0
   18.2740    6.9080    9.3270 O   0  0  0  0  0  0
   16.2660    8.4080    9.1230 C   0  0  0  0  0  0
   15.6580    9.6780    9.1190 C   0  0  0  0  0  0
   14.3250    9.8040    8.6900 C   0  0  0  0  0  0
   13.5990    8.6770    8.2740 C   0  0  0  0  0  0
   14.2110    7.4150    8.2740 C   0  0  0  0  0  0
   15.5410    7.2830    8.7010 C   0  0  0  0  0  0
   19.2770    9.8480   13.1150 C   0  0  0  0  0  0
   17.8970    9.9030   13.5240 C   0  0  0  0  0  0
   19.7620   10.6130   12.0040 C   0  0  0  0  0  0
   18.9580   11.5500   11.1310 C   0  0  0  0  0  0
   21.1650   10.3080   11.9160 C   0  0  0  0  0  0
   22.0790   10.8970   10.8880 C   0  0  0  0  0  0
   21.5290    9.3600   12.9700 C   0  0  0  0  0  0
   22.8870    8.7990   13.2070 C   0  0  0  0  0  0
   20.3230    9.0510   13.7570 C   0  0  0  0  0  0
   20.1880    8.1390   14.9360 C   0  0  0  0  0  0
   20.0460    8.4280   11.7340 Ir  0  0  0  0  0  0
   16.2329    7.0462   11.1500 H   0  0  0  0  0  0
   16.2576    8.1824   12.5410 H   0  0  0  0  0  0
   16.0330    5.4102   13.2561 H   0  0  0  0  0  0
   20.9809    5.9722   13.3904 H   0  0  0  0  0  0
   19.9250    4.0785   14.6702 H   0  0  0  0  0  0
   19.0966    2.5989   15.2550 H   0  0  0  0  0  0
   18.0560    0.6695   16.3882 H   0  0  0  0  0  0
   15.2531    4.2817   14.4094 H   0  0  0  0  0  0
   14.2108    2.3398   15.5669 H   0  0  0  0  0  0
   15.4722   -2.1841   16.8392 H   0  0  0  0  0  0
   16.9864   -1.4006   16.2734 H   0  0  0  0  0  0
   16.2158   10.5557    9.4456 H   0  0  0  0  0  0
   13.8511   10.7856    8.6804 H   0  0  0  0  0  0
   12.5630    8.7823    7.9520 H   0  0  0  0  0  0
   13.6544    6.5383    7.9429 H   0  0  0  0  0  0
   16.0139    6.3009    8.7050 H   0  0  0  0  0  0
   17.3443   10.5827   12.8588 H   0  0  0  0  0  0
   17.8356   10.2720   14.5585 H   0  0  0  0  0  0
   17.4573    8.8963   13.4670 H   0  0  0  0  0  0
   17.9104   11.5552   11.4663 H   0  0  0  0  0  0
   19.0068   11.2100   10.0860 H   0  0  0  0  0  0
   19.3719   12.5664   11.2056 H   0  0  0  0  0  0
   21.5088   11.5749   10.2358 H   0  0  0  0  0  0
   22.5190   10.0903   10.2834 H   0  0  0  0  0  0
   22.8810   11.4588   11.3892 H   0  0  0  0  0  0
   23.5878    9.2091   12.4648 H   0  0  0  0  0  0
   22.8527    7.7036   13.1129 H   0  0  0  0  0  0
   23.2242    9.0697   14.2184 H   0  0  0  0  0  0
   20.3797    8.7038   15.8603 H   0  0  0  0  0  0
   20.9156    7.3185   14.8501 H   0  0  0  0  0  0
   19.1695    7.7245   14.9641 H   0  0  0  0  0  0
  1 39  1  0  0  0
  2  3  1  0  0  0
  2 19  1  0  0  0
  2 40  1  0  0  0
  2 41  1  0  0  0
  3  4  2  0  0  0
  3  5  1  0  0  0
  4  8  1  0  0  0
  4 42  1  0  0  0
  5  6  1  0  0  0
  5 39  1  0  0  0
  6  7  1  0  0  0
  6 43  1  0  0  0
  7  8  2  0  0  0
  7 44  1  0  0  0
  8  9  1  0  0  0
  9 10  2  0  0  0
  9 12  1  0  0  0
 10 11  1  0  0  0
 10 45  1  0  0  0
 11 14  2  0  0  0
 11 46  1  0  0  0
 12 13  2  0  0  0
 12 47  1  0  0  0
 13 14  1  0  0  0
 13 48  1  0  0  0
 14 15  1  0  0  0
 15 16  2  0  0  0
 15 17  2  0  0  0
 15 18  1  0  0  0
 18 49  1  0  0  0
 18 50  1  0  0  0
 19 20  1  0  0  0
 19 39  1  0  0  0
 20 21  2  0  0  0
 20 22  2  0  0  0
 20 23  1  0  0  0
 23 24  2  0  0  0
 23 28  1  0  0  0
 24 25  1  0  0  0
 24 51  1  0  0  0
 25 26  2  0  0  0
 25 52  1  0  0  0
 26 27  1  0  0  0
 26 53  1  0  0  0
 27 28  2  0  0  0
 27 54  1  0  0  0
 28 55  1  0  0  0
 29 30  1  0  0  0
 29 31  2  0  0  0
 29 37  1  0  0  0
 30 56  1  0  0  0
 30 57  1  0  0  0
 30 58  1  0  0  0
 31 32  1  0  0  0
 31 33  1  0  0  0
 32 59  1  0  0  0
 32 60  1  0  0  0
 32 61  1  0  0  0
 33 34  1  0  0  0
 33 35  2  0  0  0
 34 62  1  0  0  0
 34 63  1  0  0  0
 34 64  1  0  0  0
 35 36  1  0  0  0
 35 37  1  0  0  0
 36 65  1  0  0  0
 36 66  1  0  0  0
 36 67  1  0  0  0
 37 38  1  0  0  0
 37 39  1  0  0  0
 38 68  1  0  0  0
 38 69  1  0  0  0
 38 70  1  0  0  0
M  END
> <s_m_source_file>
../3zp9_ligand.sdf

> <i_m_source_file_index>
1

> <s_epik_input>
W2NIXTFbY0hdW2NIXVtjSF1bY0hdYzFTKD1PKSg9TylOKFtDSDJdMilbSXJdKENsKShDMyhbQ0gzXSlDKFtDSDNdKT1DKFtDSDNdKUMoW0NIM10pPUMzW0NIM10pTihDMj00KVtDSDJdW0NIXT1DKFtDSF00KWM1W2NIXVtjSF1jKFtjSF1bY0hdNSlTKD1PKSg9TylbTkgyXQ==

> <s_epik_cmdline>
J2VwaWtfYXBwJywgJy1pbWFlJywgJ2xpZ2FuZF9wcm8ubWFlJywgJy1vbWFlJywgJ2xpZ2FuZF9wcmVwLm1hZScsICctbXMnLCAnMScsICctcGgnLCAnNycsICctcGh0JywgJzAuNScsICctbnQn

> <r_lp_tautomer_probability>
1

> <r_epik_Ionization_Penalty>
  0.0003

> <r_epik_Ionization_Penalty_Charging>
  0.0000

> <r_epik_Ionization_Penalty_Neutral>
  0.0003

> <r_epik_State_Penalty>
 -0.0000

> <r_epik_Charging_Adjusted_Penalty>
0

> <i_epik_Tot_Q>
0

> <i_epik_Tot_abs_Q>
0

$$$$
