3zpq_ligand
                    3D
 Schrodinger Suite 2020-3.
 30 32  0  0  1  0            999 V2000
  -23.2730  -13.1210   25.4160 C   0  0  0  0  0  0
  -24.5210  -13.4610   24.7220 C   0  0  0  0  0  0
  -25.4270  -12.3120   24.8520 N   0  3  0  0  0  0
  -24.9050  -11.1550   24.1290 C   0  0  0  0  0  0
  -23.5970  -10.6470   24.6480 C   0  0  0  0  0  0
  -22.7090  -11.7700   25.0810 N   0  0  0  0  0  0
  -21.3810  -11.5560   25.2700 C   0  0  0  0  0  0
  -20.7630  -11.9770   26.3940 C   0  0  0  0  0  0
  -21.1960  -12.6190   27.4870 C   0  0  0  0  0  0
  -20.1700  -12.8040   28.3160 C   0  0  0  0  0  0
  -19.0830  -12.2710   27.7530 N   0  0  0  0  0  0
  -19.4410  -11.7620   26.5690 C   0  0  0  0  0  0
  -18.6940  -11.1350   25.6520 C   0  0  0  0  0  0
  -19.2610  -10.6770   24.4790 C   0  0  0  0  0  0
  -20.6190  -10.8980   24.2850 C   0  0  0  0  0  0
  -23.4433  -13.1309   26.5027 H   0  0  0  0  0  0
  -22.4982  -13.8585   25.1596 H   0  0  0  0  0  0
  -24.3076  -13.6637   23.6621 H   0  0  0  0  0  0
  -24.9657  -14.3548   25.1839 H   0  0  0  0  0  0
  -26.4123  -12.5734   24.4385 H   0  0  0  0  0  0
  -25.5337  -12.0475   25.9144 H   0  0  0  0  0  0
  -24.7518  -11.4213   23.0728 H   0  0  0  0  0  0
  -25.6237  -10.3251   24.1973 H   0  0  0  0  0  0
  -23.0835  -10.0809   23.8568 H   0  0  0  0  0  0
  -23.7756   -9.9900   25.5120 H   0  0  0  0  0  0
  -22.1979  -12.9799   27.7627 H   0  0  0  0  0  0
  -20.3233  -13.3233   29.2735 H   0  0  0  0  0  0
  -17.6296  -10.9847   25.8326 H   0  0  0  0  0  0
  -18.6739  -10.1522   23.7109 H   0  0  0  0  0  0
  -21.1046  -10.5585   23.3582 H   0  0  0  0  0  0
  1  2  1  0  0  0
  1  6  1  0  0  0
  1 16  1  0  0  0
  1 17  1  0  0  0
  2  3  1  0  0  0
  2 18  1  0  0  0
  2 19  1  0  0  0
  3  4  1  0  0  0
  3 20  1  0  0  0
  3 21  1  0  0  0
  4  5  1  0  0  0
  4 22  1  0  0  0
  4 23  1  0  0  0
  5  6  1  0  0  0
  5 24  1  0  0  0
  5 25  1  0  0  0
  6  7  1  0  0  0
  7  8  2  0  0  0
  7 15  1  0  0  0
  8  9  1  0  0  0
  8 12  1  0  0  0
  9 10  2  0  0  0
  9 26  1  0  0  0
 10 11  1  0  0  0
 10 27  1  0  0  0
 11 12  2  0  0  0
 12 13  1  0  0  0
 13 14  1  0  0  0
 13 28  1  0  0  0
 14 15  2  0  0  0
 14 29  1  0  0  0
 15 30  1  0  0  0
M  CHG  1   3   1
M  END
> <s_m_source_file>
../3zpq_ligand.sdf

> <i_m_source_file_index>
1

> <s_epik_input>
W0NIMl0xW0NIMl1bTkgyK11bQ0gyXVtDSDJdTjFDPTJbQ0hdPVtDSF1bQ0gyXUMoQzIzKT1OW0NIXT1bQ0hdMw==

> <s_epik_cmdline>
J2VwaWtfYXBwJywgJy1pbWFlJywgJ2xpZ2FuZF9wcm8ubWFlJywgJy1vbWFlJywgJ2xpZ2FuZF9wcmVwLm1hZScsICctbXMnLCAnMScsICctcGgnLCAnNycsICctcGh0JywgJzAuNScsICctbnQn

> <r_epik_Ionization_Penalty>
  0.2036

> <r_epik_Ionization_Penalty_Charging>
  0.2036

> <r_epik_Ionization_Penalty_Neutral>
  0.0000

> <r_epik_State_Penalty>
  0.1935

> <r_epik_Charging_Adjusted_Penalty>
0.397062273414323

> <i_epik_Tot_Q>
1

> <i_epik_Tot_abs_Q>
1

> <s_epik_Chemistry_Notes>
This compound has an imine and may undergo hydrolysis.

$$$$
