3zpr_ligand
                    3D
 Schrodinger Suite 2020-3.
 35 37  0  0  1  0            999 V2000
  -20.8840  -11.6040   25.0980 C   0  0  0  0  0  0
  -19.7670  -11.5410   25.9180 C   0  0  0  0  0  0
  -18.6570  -10.7940   25.5110 C   0  0  0  0  0  0
  -23.9000  -13.6810   24.7880 C   0  0  0  0  0  0
  -25.3020  -13.2080   24.9700 C   0  0  0  0  0  0
  -25.6890  -12.3590   23.8230 N   0  3  0  0  0  0
  -24.9860  -11.0540   23.8680 C   0  0  0  0  0  0
  -23.4840  -11.3530   23.7870 C   0  0  0  0  0  0
  -21.9920  -12.3470   25.5080 C   0  0  0  0  0  0
  -18.7000  -12.2120   28.0030 C   0  0  0  0  0  0
  -20.9460  -12.9740   27.4960 C   0  0  0  0  0  0
  -23.0810  -12.4410   24.7280 N   0  0  0  0  0  0
  -21.0030  -13.6820   28.6990 C   0  0  0  0  0  0
  -19.9120  -13.6600   29.5730 C   0  0  0  0  0  0
  -22.0010  -13.0090   26.6890 N   0  0  0  0  0  0
  -19.7990  -12.2340   27.1350 C   0  0  0  0  0  0
  -18.7700  -12.9210   29.2190 C   0  0  0  0  0  0
  -20.8963  -11.0785   24.1431 H   0  0  0  0  0  0
  -18.8595  -10.3418   24.5289 H   0  0  0  0  0  0
  -17.7789  -11.4524   25.4375 H   0  0  0  0  0  0
  -18.4596  -10.0002   26.2465 H   0  0  0  0  0  0
  -23.6139  -14.3161   25.6394 H   0  0  0  0  0  0
  -23.8269  -14.2616   23.8566 H   0  0  0  0  0  0
  -25.9767  -14.0748   25.0285 H   0  0  0  0  0  0
  -25.3742  -12.6238   25.8992 H   0  0  0  0  0  0
  -25.4269  -12.8691   22.8843 H   0  0  0  0  0  0
  -26.7735  -12.1770   23.8509 H   0  0  0  0  0  0
  -25.3063  -10.4354   23.0167 H   0  0  0  0  0  0
  -25.2302  -10.5382   24.8084 H   0  0  0  0  0  0
  -23.2277  -11.6691   22.7650 H   0  0  0  0  0  0
  -22.9154  -10.4471   24.0441 H   0  0  0  0  0  0
  -17.8014  -11.6533   27.7412 H   0  0  0  0  0  0
  -21.8967  -14.2507   28.9558 H   0  0  0  0  0  0
  -19.9465  -14.2077   30.5148 H   0  0  0  0  0  0
  -17.9195  -12.8957   29.9002 H   0  0  0  0  0  0
  1  2  2  0  0  0
  1  9  1  0  0  0
  1 18  1  0  0  0
  2  3  1  0  0  0
  2 16  1  0  0  0
  3 19  1  0  0  0
  3 20  1  0  0  0
  3 21  1  0  0  0
  4  5  1  0  0  0
  4 12  1  0  0  0
  4 22  1  0  0  0
  4 23  1  0  0  0
  5  6  1  0  0  0
  5 24  1  0  0  0
  5 25  1  0  0  0
  6  7  1  0  0  0
  6 26  1  0  0  0
  6 27  1  0  0  0
  7  8  1  0  0  0
  7 28  1  0  0  0
  7 29  1  0  0  0
  8 12  1  0  0  0
  8 30  1  0  0  0
  8 31  1  0  0  0
  9 12  1  0  0  0
  9 15  2  0  0  0
 10 16  2  0  0  0
 10 17  1  0  0  0
 10 32  1  0  0  0
 11 13  2  0  0  0
 11 15  1  0  0  0
 11 16  1  0  0  0
 13 14  1  0  0  0
 13 33  1  0  0  0
 14 17  2  0  0  0
 14 34  1  0  0  0
 17 35  1  0  0  0
M  CHG  1   6   1
M  END
> <s_m_source_file>
../3zpr_ligand.sdf

> <i_m_source_file_index>
1

> <s_epik_input>
W2NIXTFbY0hdW2NIXVtjSF1jKGMxMiljKFtDSDNdKVtjSF1jKG4yKU4zW0NIMl1bQ0gyXVtOSDIrXVtDSDJdW0NIMl0z

> <s_epik_cmdline>
J2VwaWtfYXBwJywgJy1pbWFlJywgJ2xpZ2FuZF9wcm8ubWFlJywgJy1vbWFlJywgJ2xpZ2FuZF9wcmVwLm1hZScsICctbXMnLCAnMScsICctcGgnLCAnNycsICctcGh0JywgJzAuNScsICctbnQn

> <r_lp_tautomer_probability>
1

> <r_epik_Ionization_Penalty>
  0.0274

> <r_epik_Ionization_Penalty_Charging>
  0.0098

> <r_epik_Ionization_Penalty_Neutral>
  0.0176

> <r_epik_State_Penalty>
 -0.0000

> <r_epik_Charging_Adjusted_Penalty>
0.00980526447341532

> <i_epik_Tot_Q>
1

> <i_epik_Tot_abs_Q>
1

$$$$
