3zps_ligand
                    3D
 Schrodinger Suite 2020-3.
100101  0  0  1  0            999 V2000
   16.4790   16.5930   10.7750 Br  0  0  0  0  0  0
   11.9700   24.2580    4.6700 C   0  0  2  0  0  0
   10.2080   25.5340    5.7170 N   0  0  0  0  0  0
   12.3760   25.5980    4.3570 O   0  0  0  0  0  0
   10.8910   24.3180    5.5740 C   0  0  0  0  0  0
   15.2780   22.2820    7.1520 N   0  0  2  0  0  0
   10.4240   23.3070    6.1050 O   0  0  0  0  0  0
    8.8600   25.6370    6.3320 C   0  0  1  0  0  0
   15.8020   21.6890    6.1980 N   0  0  0  0  0  0
   14.0020   20.3110    5.9530 O   0  0  0  0  0  0
    8.9580   26.1350    7.7840 C   0  0  0  0  0  0
   16.7030   18.7560    5.5760 N   0  0  0  0  0  0
   18.7310   19.5330    5.0510 O   0  0  0  0  0  0
    9.7350   27.4530    7.8430 C   0  0  0  0  0  0
    6.7890   26.0010    5.1140 N   0  0  0  0  0  0
   18.6310   17.7800    6.4690 O   0  0  0  0  0  0
    7.5450   26.3670    8.3190 C   0  0  0  0  0  0
    8.3380   27.6260    5.2560 O   0  0  0  0  0  0
   13.1780   23.5000    5.2470 C   0  0  0  0  0  0
   13.6780   24.1270    6.5550 C   0  0  0  0  0  0
   15.1360   23.7120    6.8200 C   0  0  0  0  0  0
   16.1580   22.1640    8.3330 C   0  0  0  0  0  0
   16.2300   20.8560    8.8200 C   0  0  0  0  0  0
   15.1340   20.6690    5.6160 C   0  0  0  0  0  0
   16.0270   19.7640    4.7480 C   0  0  2  0  0  0
   15.2760   19.0820    3.6020 C   0  0  0  0  0  0
   16.2990   18.5090    2.6190 C   0  0  0  0  0  0
   14.4100   17.9390    4.1410 C   0  0  0  0  0  0
   14.3870   20.0940    2.8780 C   0  0  0  0  0  0
   18.0370   18.7810    5.7500 C   0  0  0  0  0  0
   19.9140   18.2040    6.9410 C   0  0  0  0  0  0
   15.0860   20.2350    9.3060 C   0  0  0  0  0  0
   15.1590   18.9460    9.8240 C   0  0  0  0  0  0
   16.3880   18.3110    9.9570 C   0  0  0  0  0  0
   17.5480   18.9750    9.5730 C   0  0  0  0  0  0
   17.4670   20.2430    8.9970 C   0  0  0  0  0  0
   11.5510   23.5480    3.3680 C   0  0  0  0  0  0
   10.2630   23.9100    2.9830 C   0  0  0  0  0  0
   10.0470   25.1020    2.3010 C   0  0  0  0  0  0
    8.7570   25.4620    1.9240 C   0  0  0  0  0  0
    7.6870   24.6230    2.2160 C   0  0  0  0  0  0
    7.9090   23.4200    2.8770 C   0  0  0  0  0  0
    9.2030   23.0410    3.2140 C   0  0  0  0  0  0
    5.8030   25.3490    2.3790 C   0  0  0  0  0  0
    8.0180   26.4780    5.5760 C   0  0  0  0  0  0
    9.6630   25.0910    8.6510 C   0  0  0  0  0  0
    5.1880   26.0930    3.3810 C   0  0  0  0  0  0
    5.9410   26.8690    4.2600 C   0  0  0  0  0  0
   10.7152   26.4381    5.3490 H   0  0  0  0  0  0
   12.7133   26.2718    5.1583 H   0  0  0  0  0  0
    8.3779   24.6504    6.2673 H   0  0  0  0  0  0
   16.7953   21.9957    5.8383 H   0  0  0  0  0  0
   16.1175   17.9640    6.0658 H   0  0  0  0  0  0
    9.2291   28.2051    7.2198 H   0  0  0  0  0  0
   10.7568   27.2934    7.4681 H   0  0  0  0  0  0
    9.7774   27.8074    8.8835 H   0  0  0  0  0  0
    6.4486   24.9892    5.3793 H   0  0  0  0  0  0
    7.0360   27.1178    7.6967 H   0  0  0  0  0  0
    7.6005   26.7275    9.3568 H   0  0  0  0  0  0
    6.9818   25.4226    8.2885 H   0  0  0  0  0  0
   12.8927   22.4577    5.4526 H   0  0  0  0  0  0
   14.0033   23.5176    4.5200 H   0  0  0  0  0  0
   13.6235   25.2231    6.4805 H   0  0  0  0  0  0
   13.0488   23.7846    7.3898 H   0  0  0  0  0  0
   15.5096   24.3214    7.6561 H   0  0  0  0  0  0
   15.7171   23.9375    5.9136 H   0  0  0  0  0  0
   17.1765   22.4813    8.0645 H   0  0  0  0  0  0
   15.7753   22.8049    9.1409 H   0  0  0  0  0  0
   16.8086   20.3979    4.3039 H   0  0  0  0  0  0
   16.9390   17.7809    3.1388 H   0  0  0  0  0  0
   16.9204   19.3242    2.2198 H   0  0  0  0  0  0
   15.7730   18.0100    1.7917 H   0  0  0  0  0  0
   15.0479   17.2100    4.6622 H   0  0  0  0  0  0
   13.8948   17.4436    3.3048 H   0  0  0  0  0  0
   13.6655   18.3427    4.8430 H   0  0  0  0  0  0
   15.0073   20.9155    2.4903 H   0  0  0  0  0  0
   13.6425   20.4967    3.5806 H   0  0  0  0  0  0
   13.8718   19.5977    2.0424 H   0  0  0  0  0  0
   20.3800   17.3907    7.5167 H   0  0  0  0  0  0
   19.7940   19.0874    7.5854 H   0  0  0  0  0  0
   20.5539   18.4597    6.0836 H   0  0  0  0  0  0
   14.1302   20.7584    9.2814 H   0  0  0  0  0  0
   14.2473   18.4312   10.1272 H   0  0  0  0  0  0
   18.5201   18.5049    9.7220 H   0  0  0  0  0  0
   18.3765   20.7559    8.6842 H   0  0  0  0  0  0
   12.2462   23.8221    2.5608 H   0  0  0  0  0  0
   11.5765   22.4588    3.5197 H   0  0  0  0  0  0
   10.8873   25.7538    2.0619 H   0  0  0  0  0  0
    8.5850   26.4020    1.3996 H   0  0  0  0  0  0
    6.6754   24.9081    1.9270 H   0  0  0  0  0  0
    7.0683   22.7743    3.1308 H   0  0  0  0  0  0
    9.3865   22.0631    3.6591 H   0  0  0  0  0  0
    6.8977   25.3684    2.2728 H   0  0  0  0  0  0
    5.1945   24.7414    1.6930 H   0  0  0  0  0  0
   10.6802   24.9225    8.2677 H   0  0  0  0  0  0
    9.0986   24.1473    8.6203 H   0  0  0  0  0  0
    9.7173   25.4523    9.6886 H   0  0  0  0  0  0
    4.0933   26.0736    3.4872 H   0  0  0  0  0  0
    5.2608   27.4558    4.8948 H   0  0  0  0  0  0
    6.5808   27.5506    3.6803 H   0  0  0  0  0  0
  1 34  1  0  0  0
  2  4  1  0  0  0
  2  5  1  0  0  0
  2 19  1  0  0  0
  2 37  1  0  0  0
  3  5  1  0  0  0
  3  8  1  0  0  0
  3 49  1  0  0  0
  4 50  1  0  0  0
  5  7  2  0  0  0
  6  9  1  0  0  0
  6 21  1  0  0  0
  6 22  1  0  0  0
  8 11  1  0  0  0
  8 45  1  0  0  0
  8 51  1  0  0  0
  9 24  1  0  0  0
  9 52  1  0  0  0
 10 24  2  0  0  0
 11 14  1  0  0  0
 11 17  1  0  0  0
 11 46  1  0  0  0
 12 25  1  0  0  0
 12 30  1  0  0  0
 12 53  1  0  0  0
 13 30  2  0  0  0
 14 54  1  0  0  0
 14 55  1  0  0  0
 14 56  1  0  0  0
 15 45  1  0  0  0
 15 48  1  0  0  0
 15 57  1  0  0  0
 16 30  1  0  0  0
 16 31  1  0  0  0
 17 58  1  0  0  0
 17 59  1  0  0  0
 17 60  1  0  0  0
 18 45  2  0  0  0
 19 20  1  0  0  0
 19 61  1  0  0  0
 19 62  1  0  0  0
 20 21  1  0  0  0
 20 63  1  0  0  0
 20 64  1  0  0  0
 21 65  1  0  0  0
 21 66  1  0  0  0
 22 23  1  0  0  0
 22 67  1  0  0  0
 22 68  1  0  0  0
 23 32  2  0  0  0
 23 36  1  0  0  0
 24 25  1  0  0  0
 25 26  1  0  0  0
 25 69  1  0  0  0
 26 27  1  0  0  0
 26 28  1  0  0  0
 26 29  1  0  0  0
 27 70  1  0  0  0
 27 71  1  0  0  0
 27 72  1  0  0  0
 28 73  1  0  0  0
 28 74  1  0  0  0
 28 75  1  0  0  0
 29 76  1  0  0  0
 29 77  1  0  0  0
 29 78  1  0  0  0
 31 79  1  0  0  0
 31 80  1  0  0  0
 31 81  1  0  0  0
 32 33  1  0  0  0
 32 82  1  0  0  0
 33 34  2  0  0  0
 33 83  1  0  0  0
 34 35  1  0  0  0
 35 36  2  0  0  0
 35 84  1  0  0  0
 36 85  1  0  0  0
 37 38  1  0  0  0
 37 86  1  0  0  0
 37 87  1  0  0  0
 38 39  2  0  0  0
 38 43  1  0  0  0
 39 40  1  0  0  0
 39 88  1  0  0  0
 40 41  2  0  0  0
 40 89  1  0  0  0
 41 42  1  0  0  0
 41 90  1  0  0  0
 42 43  2  0  0  0
 42 91  1  0  0  0
 43 92  1  0  0  0
 44 47  2  0  0  0
 44 93  1  0  0  0
 44 94  1  0  0  0
 46 95  1  0  0  0
 46 96  1  0  0  0
 46 97  1  0  0  0
 47 48  1  0  0  0
 47 98  1  0  0  0
 48 99  1  0  0  0
 48100  1  0  0  0
M  END
> <s_m_source_file>
../3zps_ligand.sdf

> <i_m_source_file_index>
1

> <s_epik_input>
W0NIM11PQyg9TylbTkhdW0NAQEhdKEMoW0NIM10pKFtDSDNdKVtDSDNdKUMoPU8pW05IXVtOQEBIK10oW0NIMl1jMVtjSF1bY0hdYyhCcilbY0hdW2NIXTEpW0NIMl1bQ0gyXVtDSDJdW0NAQF0oW09IXSkoW0NIMl1jMltjSF1bY0hdW2NIXVtjSF1bY0hdMilDKD1PKVtOSF1bQ0BASF0oQyhbQ0gzXSkoW0NIM10pW0NIM10pQyg9TylbTkhdW0NIMl1bQ0hdPVtDSDJd

> <s_epik_cmdline>
J2VwaWtfYXBwJywgJy1pbWFlJywgJ2xpZ2FuZF9wcm8ubWFlJywgJy1vbWFlJywgJ2xpZ2FuZF9wcmVwLm1hZScsICctbXMnLCAnMScsICctcGgnLCAnNycsICctcGh0JywgJzAuNScsICctbnQn

> <r_lp_tautomer_probability>
1

> <r_epik_Ionization_Penalty>
  0.0000

> <r_epik_Ionization_Penalty_Charging>
  0.0000

> <r_epik_Ionization_Penalty_Neutral>
  0.0000

> <r_epik_State_Penalty>
 -0.0000

> <r_epik_Charging_Adjusted_Penalty>
0

> <i_epik_Tot_Q>
0

> <i_epik_Tot_abs_Q>
0

> <s_epik_Chemistry_Notes>
This compound has an ester and may undergo hydrolysis at high or low pH.

$$$$
