3zpt_ligand
                    3D
 Schrodinger Suite 2020-3.
 98100  0  0  1  0            999 V2000
   12.1620   24.1620    4.6500 C   0  0  2  0  0  0
   10.4320   25.4730    5.7020 N   0  0  0  0  0  0
   12.5310   25.4960    4.2410 O   0  0  0  0  0  0
   16.4530   16.4560   10.8180 Br  0  0  0  0  0  0
   11.1050   24.2620    5.5940 C   0  0  0  0  0  0
   15.4430   22.2920    7.2620 N   0  0  2  0  0  0
   10.6260   23.2790    6.1820 O   0  0  0  0  0  0
    9.2080   25.7140    6.5040 C   0  0  1  0  0  0
   15.9400   21.6950    6.2630 N   0  0  0  0  0  0
   14.1540   20.2630    6.0720 O   0  0  0  0  0  0
    9.5600   26.5670    7.7330 C   0  0  0  0  0  0
   16.8640   18.7970    5.6090 N   0  0  0  0  0  0
   18.9000   19.5270    5.0670 O   0  0  0  0  0  0
    8.2890   26.7530    8.5780 C   0  0  0  0  0  0
    7.0640   25.8640    5.3800 N   0  0  0  0  0  0
   18.6960   17.8850    6.5940 O   0  0  0  0  0  0
    8.5130   27.5510    5.2640 O   0  0  0  0  0  0
   13.4410   23.4880    5.2140 C   0  0  0  0  0  0
   13.8540   24.1050    6.5700 C   0  0  0  0  0  0
   15.3000   23.7260    6.9760 C   0  0  0  0  0  0
   16.3350   22.1120    8.4290 C   0  0  0  0  0  0
   16.3350   20.7900    8.9200 C   0  0  0  0  0  0
   15.2710   20.6510    5.7090 C   0  0  0  0  0  0
   16.1590   19.7910    4.7980 C   0  0  2  0  0  0
   15.4200   19.1040    3.6530 C   0  0  0  0  0  0
   16.4550   18.5440    2.6780 C   0  0  0  0  0  0
   14.5530   17.9440    4.1720 C   0  0  0  0  0  0
   14.5510   20.1170    2.9050 C   0  0  0  0  0  0
   18.1750   18.8290    5.7920 C   0  0  0  0  0  0
   20.1050   18.0290    6.7580 C   0  0  0  0  0  0
   15.1650   20.1910    9.3770 C   0  0  0  0  0  0
   15.1970   18.8850    9.8690 C   0  0  0  0  0  0
   16.4030   18.2090   10.0230 C   0  0  0  0  0  0
   17.5800   18.8340    9.6290 C   0  0  0  0  0  0
   17.5320   20.0990    9.0480 C   0  0  0  0  0  0
   11.6700   23.3700    3.4000 C   0  0  0  0  0  0
   10.3960   23.7750    2.9460 C   0  0  0  0  0  0
   10.2140   24.9960    2.2920 C   0  0  0  0  0  0
    8.9380   25.3990    1.8860 C   0  0  0  0  0  0
    7.8190   24.6120    2.1490 C   0  0  0  0  0  0
    8.0010   23.4080    2.8250 C   0  0  0  0  0  0
    9.2840   22.9660    3.1650 C   0  0  0  0  0  0
    6.5440   25.0400    1.7110 C   0  0  0  0  0  0
    5.5150   24.7900    2.6260 C   0  0  0  0  0  0
    8.2750   26.4330    5.7210 C   0  0  0  0  0  0
   10.6450   25.8930    8.5850 C   0  0  0  0  0  0
    5.3520   25.4650    3.8390 C   0  0  0  0  0  0
    6.1980   26.4560    4.3390 C   0  0  0  0  0  0
   10.8826   26.2945    5.1257 H   0  0  0  0  0  0
   12.9061   26.2151    4.9841 H   0  0  0  0  0  0
    8.7428   24.7511    6.7616 H   0  0  0  0  0  0
   16.9057   22.0228    5.8508 H   0  0  0  0  0  0
    9.9497   27.5382    7.3940 H   0  0  0  0  0  0
   16.3029   17.9844    6.0936 H   0  0  0  0  0  0
    7.5109   27.2358    7.9685 H   0  0  0  0  0  0
    8.5171   27.3847    9.4491 H   0  0  0  0  0  0
    7.9298   25.7715    8.9208 H   0  0  0  0  0  0
    6.7485   24.9491    5.9030 H   0  0  0  0  0  0
   13.2547   22.4140    5.3620 H   0  0  0  0  0  0
   14.2698   23.6218    4.5033 H   0  0  0  0  0  0
   13.7956   25.2016    6.5068 H   0  0  0  0  0  0
   13.1753   23.7465    7.3579 H   0  0  0  0  0  0
   15.5648   24.3067    7.8719 H   0  0  0  0  0  0
   15.9692   24.0033    6.1482 H   0  0  0  0  0  0
   17.3671   22.3638    8.1439 H   0  0  0  0  0  0
   16.0086   22.7729    9.2455 H   0  0  0  0  0  0
   16.9032   20.4537    4.3322 H   0  0  0  0  0  0
   17.0906   17.8124    3.1983 H   0  0  0  0  0  0
   17.0790   19.3646    2.2944 H   0  0  0  0  0  0
   15.9403   18.0519    1.8396 H   0  0  0  0  0  0
   15.1879   17.2228    4.7075 H   0  0  0  0  0  0
   14.0646   17.4431    3.3232 H   0  0  0  0  0  0
   13.7866   18.3368    4.8564 H   0  0  0  0  0  0
   15.1811   20.9410    2.5389 H   0  0  0  0  0  0
   13.7846   20.5160    3.5858 H   0  0  0  0  0  0
   14.0625   19.6223    2.0526 H   0  0  0  0  0  0
   20.4801   17.2350    7.4204 H   0  0  0  0  0  0
   20.3239   19.0111    7.2024 H   0  0  0  0  0  0
   20.5980   17.9520    5.7777 H   0  0  0  0  0  0
   14.2244   20.7411    9.3508 H   0  0  0  0  0  0
   14.2643   18.3882   10.1361 H   0  0  0  0  0  0
   18.5384   18.3355    9.7743 H   0  0  0  0  0  0
   18.4533   20.5557    8.6864 H   0  0  0  0  0  0
   12.3782   23.5164    2.5711 H   0  0  0  0  0  0
   11.6086   22.2994    3.6450 H   0  0  0  0  0  0
   11.0724   25.6388    2.0969 H   0  0  0  0  0  0
    8.8171   26.3435    1.3555 H   0  0  0  0  0  0
    7.1342   22.8034    3.0921 H   0  0  0  0  0  0
    9.4146   21.9778    3.6060 H   0  0  0  0  0  0
    6.5630   26.1252    1.5320 H   0  0  0  0  0  0
    6.2828   24.5190    0.7781 H   0  0  0  0  0  0
    4.8053   24.0012    2.3358 H   0  0  0  0  0  0
   11.5548   25.7594    7.9814 H   0  0  0  0  0  0
   10.2851   24.9117    8.9278 H   0  0  0  0  0  0
   10.8724   26.5250    9.4561 H   0  0  0  0  0  0
    4.4973   25.2282    4.4897 H   0  0  0  0  0  0
    5.6007   27.2689    4.7777 H   0  0  0  0  0  0
    6.8224   26.8569    3.5270 H   0  0  0  0  0  0
  1  3  1  0  0  0
  1  5  1  0  0  0
  1 18  1  0  0  0
  1 36  1  0  0  0
  2  5  1  0  0  0
  2  8  1  0  0  0
  2 49  1  0  0  0
  3 50  1  0  0  0
  4 33  1  0  0  0
  5  7  2  0  0  0
  6  9  1  0  0  0
  6 20  1  0  0  0
  6 21  1  0  0  0
  8 11  1  0  0  0
  8 45  1  0  0  0
  8 51  1  0  0  0
  9 23  1  0  0  0
  9 52  1  0  0  0
 10 23  2  0  0  0
 11 14  1  0  0  0
 11 46  1  0  0  0
 11 53  1  0  0  0
 12 24  1  0  0  0
 12 29  1  0  0  0
 12 54  1  0  0  0
 13 29  2  0  0  0
 14 55  1  0  0  0
 14 56  1  0  0  0
 14 57  1  0  0  0
 15 45  1  0  0  0
 15 48  1  0  0  0
 15 58  1  0  0  0
 16 29  1  0  0  0
 16 30  1  0  0  0
 17 45  2  0  0  0
 18 19  1  0  0  0
 18 59  1  0  0  0
 18 60  1  0  0  0
 19 20  1  0  0  0
 19 61  1  0  0  0
 19 62  1  0  0  0
 20 63  1  0  0  0
 20 64  1  0  0  0
 21 22  1  0  0  0
 21 65  1  0  0  0
 21 66  1  0  0  0
 22 31  2  0  0  0
 22 35  1  0  0  0
 23 24  1  0  0  0
 24 25  1  0  0  0
 24 67  1  0  0  0
 25 26  1  0  0  0
 25 27  1  0  0  0
 25 28  1  0  0  0
 26 68  1  0  0  0
 26 69  1  0  0  0
 26 70  1  0  0  0
 27 71  1  0  0  0
 27 72  1  0  0  0
 27 73  1  0  0  0
 28 74  1  0  0  0
 28 75  1  0  0  0
 28 76  1  0  0  0
 30 77  1  0  0  0
 30 78  1  0  0  0
 30 79  1  0  0  0
 31 32  1  0  0  0
 31 80  1  0  0  0
 32 33  2  0  0  0
 32 81  1  0  0  0
 33 34  1  0  0  0
 34 35  2  0  0  0
 34 82  1  0  0  0
 35 83  1  0  0  0
 36 37  1  0  0  0
 36 84  1  0  0  0
 36 85  1  0  0  0
 37 38  2  0  0  0
 37 42  1  0  0  0
 38 39  1  0  0  0
 38 86  1  0  0  0
 39 40  2  0  0  0
 39 87  1  0  0  0
 40 41  1  0  0  0
 40 43  1  0  0  0
 41 42  2  0  0  0
 41 88  1  0  0  0
 42 89  1  0  0  0
 43 44  1  0  0  0
 43 90  1  0  0  0
 43 91  1  0  0  0
 44 47  2  0  0  0
 44 92  1  0  0  0
 46 93  1  0  0  0
 46 94  1  0  0  0
 46 95  1  0  0  0
 47 48  1  0  0  0
 47 96  1  0  0  0
 48 97  1  0  0  0
 48 98  1  0  0  0
M  END
> <s_m_source_file>
../3zpt_ligand.sdf

> <i_m_source_file_index>
1

> <s_epik_input>
W0NIM11PQyg9TylbTkhdW0NAQEhdKEMoW0NIM10pKFtDSDNdKVtDSDNdKUMoPU8pW05IXVtOQEBIK10oW0NIMl1jMVtjSF1bY0hdYyhCcilbY0hdW2NIXTEpW0NIMl1bQ0gyXVtDSDJdW0NAQF0oW09IXSkoW0NIMl0yKUMoPU8pW05IXVtDQEBIXShbQ0hdKFtDSDNdKVtDSDNdKUMoPU8pW05IXVtDSDJdL1tDSF09W0NIXVxbQ0gyXWMoW2NIXVtjSF1jMjMpW2NIXVtjSF0z

> <s_epik_cmdline>
J2VwaWtfYXBwJywgJy1pbWFlJywgJ2xpZ2FuZF9wcm8ubWFlJywgJy1vbWFlJywgJ2xpZ2FuZF9wcmVwLm1hZScsICctbXMnLCAnMScsICctcGgnLCAnNycsICctcGh0JywgJzAuNScsICctbnQn

> <r_lp_tautomer_probability>
1

> <r_epik_Ionization_Penalty>
  0.0000

> <r_epik_Ionization_Penalty_Charging>
  0.0000

> <r_epik_Ionization_Penalty_Neutral>
  0.0000

> <r_epik_State_Penalty>
 -0.0000

> <r_epik_Charging_Adjusted_Penalty>
0

> <i_epik_Tot_Q>
0

> <i_epik_Tot_abs_Q>
0

> <s_epik_Chemistry_Notes>
This compound has an ester and may undergo hydrolysis at high or low pH.

$$$$
