3zqe_ligand
                    3D
 Schrodinger Suite 2020-3.
 67 70  0  0  1  0            999 V2000
   -0.7890   22.7230   14.8810 C   0  0  1  0  0  0
   -1.0180   21.2760   14.4390 C   0  0  0  0  0  0
   -0.0460   20.3530   15.1770 C   0  0  2  0  0  0
    1.4140   20.7310   14.9120 C   0  0  2  0  0  0
    1.6310   22.1960   15.2960 C   0  0  0  0  0  0
    0.6540   23.1170   14.5620 C   0  0  0  0  0  0
   -0.3280   18.9080   14.7610 C   0  0  0  0  0  0
   -0.0040   18.7190   13.2770 C   0  0  0  0  0  0
    1.4590   19.0780   13.0140 C   0  0  2  0  0  0
    1.7600   20.5180   13.4350 C   0  0  2  0  0  0
    1.7850   18.9300   11.5270 C   0  0  1  0  0  0
    3.2760   19.1630   11.2940 C   0  0  2  0  0  0
    3.6100   20.6030   11.6970 C   0  0  2  0  0  0
    3.2320   20.8510   13.1610 C   0  0  0  0  0  0
    1.6300   17.5170   10.9680 C   0  0  0  0  0  0
    2.3980   17.6280    9.6470 C   0  0  0  0  0  0
    3.2780   18.8760    9.7910 C   0  0  2  0  0  0
    2.3220   19.8510   15.7750 C   0  0  0  0  0  0
    4.6510   18.6590    9.1450 C   0  0  1  0  0  0
    2.9060   21.5170   10.8550 O   0  0  0  0  0  0
   -1.6900   23.5770   14.1700 O   0  0  0  0  0  0
    4.1090   18.1500   12.0810 C   0  0  0  0  0  0
    4.4380   18.2250    7.6940 C   0  0  0  0  0  0
    5.7000   17.6830    7.0140 C   0  0  0  0  0  0
    6.6230   18.7850    6.4860 C   0  0  0  0  0  0
    7.7480   18.8860    7.0080 O   0  0  0  0  0  0
    6.1860   19.4800    5.5370 O   0  5  0  0  0  0
    5.4990   19.9320    9.2190 C   0  0  0  0  0  0
   -1.0158   22.8672   15.9477 H   0  0  0  0  0  0
   -2.0513   20.9803   14.6730 H   0  0  0  0  0  0
   -0.8493   21.1926   13.3552 H   0  0  0  0  0  0
   -0.2032   20.4629   16.2601 H   0  0  0  0  0  0
    1.4786   22.3177   16.3786 H   0  0  0  0  0  0
    2.6565   22.4957   15.0341 H   0  0  0  0  0  0
    0.8262   23.0328   13.4788 H   0  0  0  0  0  0
    0.8300   24.1547   14.8816 H   0  0  0  0  0  0
    0.2958   18.2263   15.3577 H   0  0  0  0  0  0
   -1.3899   18.6777   14.9322 H   0  0  0  0  0  0
   -0.1766   17.6699   12.9948 H   0  0  0  0  0  0
   -0.6519   19.3722   12.6741 H   0  0  0  0  0  0
    2.0770   18.3883   13.6076 H   0  0  0  0  0  0
    1.1325   21.1980   12.8402 H   0  0  0  0  0  0
    1.0917   19.6384   11.0499 H   0  0  0  0  0  0
    4.6772   20.8125   11.5320 H   0  0  0  0  0  0
    3.4169   21.9109   13.3900 H   0  0  0  0  0  0
    3.8744   20.2215   13.7943 H   0  0  0  0  0  0
    2.0721   16.7945   11.6698 H   0  0  0  0  0  0
    0.5619   17.2910   10.8335 H   0  0  0  0  0  0
    3.0047   16.7226    9.4984 H   0  0  0  0  0  0
    1.6849   17.7320    8.8159 H   0  0  0  0  0  0
    2.9085   19.7624    9.2545 H   0  0  0  0  0  0
    2.0766   20.0011   16.8367 H   0  0  0  0  0  0
    3.3727   20.1250   15.5992 H   0  0  0  0  0  0
    2.1691   18.7946   15.5091 H   0  0  0  0  0  0
    5.1990   17.8748    9.6878 H   0  0  0  0  0  0
    3.0533   21.4861    9.7653 H   0  0  0  0  0  0
   -2.7763   23.4413   14.2770 H   0  0  0  0  0  0
    4.0748   18.4001   13.1516 H   0  0  0  0  0  0
    5.1511   18.1809   11.7303 H   0  0  0  0  0  0
    3.7001   17.1405   11.9270 H   0  0  0  0  0  0
    3.6813   17.4274    7.6572 H   0  0  0  0  0  0
    4.0935   19.0849    7.1009 H   0  0  0  0  0  0
    6.2765   17.0845    7.7347 H   0  0  0  0  0  0
    5.4139   17.0522    6.1594 H   0  0  0  0  0  0
    5.6360   20.2206   10.2716 H   0  0  0  0  0  0
    4.9894   20.7439    8.6795 H   0  0  0  0  0  0
    6.4807   19.7458    8.7591 H   0  0  0  0  0  0
  1  2  1  0  0  0
  1  6  1  0  0  0
  1 21  1  0  0  0
  1 29  1  0  0  0
  2  3  1  0  0  0
  2 30  1  0  0  0
  2 31  1  0  0  0
  3  4  1  0  0  0
  3  7  1  0  0  0
  3 32  1  0  0  0
  4  5  1  0  0  0
  4 10  1  0  0  0
  4 18  1  0  0  0
  5  6  1  0  0  0
  5 33  1  0  0  0
  5 34  1  0  0  0
  6 35  1  0  0  0
  6 36  1  0  0  0
  7  8  1  0  0  0
  7 37  1  0  0  0
  7 38  1  0  0  0
  8  9  1  0  0  0
  8 39  1  0  0  0
  8 40  1  0  0  0
  9 10  1  0  0  0
  9 11  1  0  0  0
  9 41  1  0  0  0
 10 14  1  0  0  0
 10 42  1  0  0  0
 11 12  1  0  0  0
 11 15  1  0  0  0
 11 43  1  0  0  0
 12 13  1  0  0  0
 12 17  1  0  0  0
 12 22  1  0  0  0
 13 14  1  0  0  0
 13 20  1  0  0  0
 13 44  1  0  0  0
 14 45  1  0  0  0
 14 46  1  0  0  0
 15 16  1  0  0  0
 15 47  1  0  0  0
 15 48  1  0  0  0
 16 17  1  0  0  0
 16 49  1  0  0  0
 16 50  1  0  0  0
 17 19  1  0  0  0
 17 51  1  0  0  0
 18 52  1  0  0  0
 18 53  1  0  0  0
 18 54  1  0  0  0
 19 23  1  0  0  0
 19 28  1  0  0  0
 19 55  1  0  0  0
 20 56  1  0  0  0
 21 57  1  0  0  0
 22 58  1  0  0  0
 22 59  1  0  0  0
 22 60  1  0  0  0
 23 24  1  0  0  0
 23 61  1  0  0  0
 23 62  1  0  0  0
 24 25  1  0  0  0
 24 63  1  0  0  0
 24 64  1  0  0  0
 25 26  2  0  0  0
 25 27  1  0  0  0
 28 65  1  0  0  0
 28 66  1  0  0  0
 28 67  1  0  0  0
M  CHG  1  27  -1
M  END
> <s_m_source_file>
../3zqe_ligand.sdf

> <i_m_source_file_index>
1

> <s_epik_input>
W0NIMl0xW0NIMl1bQ0BASF0oW09IXSlbQ0gyXVtDQEhdKFtDQF0xMltDSDNdKVtDSDJdW0NIMl1bQ0BASF0zW0NAQEhdMltDSDJdW0NASF0oW09IXSlbQ0BAXTQoW0NIM10pW0NASF0zW0NIMl1bQ0gyXVtDQEBIXTRbQ0BIXShbQ0gzXSlbQ0gyXVtDSDJdQyg9TylbT0hd

> <s_epik_cmdline>
J2VwaWtfYXBwJywgJy1pbWFlJywgJ2xpZ2FuZF9wcm8ubWFlJywgJy1vbWFlJywgJ2xpZ2FuZF9wcmVwLm1hZScsICctbXMnLCAnMScsICctcGgnLCAnNycsICctcGh0JywgJzAuNScsICctbnQn

> <r_lp_tautomer_probability>
1

> <r_epik_Ionization_Penalty>
  0.0058

> <r_epik_Ionization_Penalty_Charging>
  0.0058

> <r_epik_Ionization_Penalty_Neutral>
  0.0000

> <r_epik_State_Penalty>
 -0.0000

> <r_epik_Charging_Adjusted_Penalty>
0.00577931387309457

> <i_epik_Tot_Q>
-1

> <i_epik_Tot_abs_Q>
1

$$$$
