3zqt_ligand
                    3D
 Schrodinger Suite 2020-3.
 44 45  0  0  1  0            999 V2000
   20.9530   14.4150   31.9130 O   0  0  0  0  0  0
   20.0930   15.4680   32.0660 C   0  0  0  0  0  0
   18.9210   15.5380   31.3190 C   0  0  0  0  0  0
   20.3960   16.5560   33.0310 C   0  0  0  0  0  0
   21.5330   16.5340   33.7780 O   0  0  0  0  0  0
   19.5050   17.6100   33.1650 C   0  0  0  0  0  0
   18.3470   17.6340   32.3960 C   0  0  0  0  0  0
   18.0580   16.6160   31.4880 C   0  0  0  0  0  0
   16.7850   16.6970   30.6800 C   0  0  0  0  0  0
   17.0480   16.1300   29.2930 C   0  0  2  0  0  0
   18.5240   15.7800   29.1430 C   0  0  0  0  0  0
   16.5950   17.0600   28.1700 C   0  0  1  0  0  0
   16.8980   16.3570   26.8610 C   0  0  0  0  0  0
   15.1110   17.4120   28.2390 C   0  0  0  0  0  0
   14.8180   18.9020   28.3000 C   0  0  0  0  0  0
   15.7100   19.7850   28.9090 C   0  0  0  0  0  0
   13.6290   19.3870   27.7530 C   0  0  0  0  0  0
   13.3150   20.7430   27.7960 C   0  0  0  0  0  0
   12.1530   21.2110   27.2590 O   0  0  0  0  0  0
   14.2720   21.6770   28.4400 C   0  0  0  0  0  0
   15.4440   21.1530   28.9760 C   0  0  0  0  0  0
   14.0070   23.0150   28.5100 O   0  0  0  0  0  0
   20.7198   13.6142   31.1958 H   0  0  0  0  0  0
   18.6801   14.7512   30.6042 H   0  0  0  0  0  0
   22.2427   15.6999   33.6750 H   0  0  0  0  0  0
   19.7114   18.4156   33.8696 H   0  0  0  0  0  0
   17.6508   18.4656   32.5051 H   0  0  0  0  0  0
   15.9968   16.1133   31.1781 H   0  0  0  0  0  0
   16.4680   17.7473   30.5995 H   0  0  0  0  0  0
   16.4425   15.2162   29.2022 H   0  0  0  0  0  0
   18.8271   15.1105   29.9615 H   0  0  0  0  0  0
   19.1248   16.7007   29.1808 H   0  0  0  0  0  0
   18.6852   15.2763   28.1785 H   0  0  0  0  0  0
   17.1368   18.0133   28.2571 H   0  0  0  0  0  0
   17.9683   16.1066   26.8185 H   0  0  0  0  0  0
   16.6428   17.0200   26.0211 H   0  0  0  0  0  0
   16.3027   15.4345   26.7939 H   0  0  0  0  0  0
   14.5998   17.0222   27.3464 H   0  0  0  0  0  0
   14.6690   16.9623   29.1404 H   0  0  0  0  0  0
   16.6331   19.3985   29.3411 H   0  0  0  0  0  0
   12.9334   18.6915   27.2835 H   0  0  0  0  0  0
   11.4473   20.5143   26.7829 H   0  0  0  0  0  0
   16.1627   21.8188   29.4538 H   0  0  0  0  0  0
   13.0759   23.4144   28.0815 H   0  0  0  0  0  0
  1  2  1  0  0  0
  1 23  1  0  0  0
  2  3  2  0  0  0
  2  4  1  0  0  0
  3  8  1  0  0  0
  3 24  1  0  0  0
  4  5  1  0  0  0
  4  6  2  0  0  0
  5 25  1  0  0  0
  6  7  1  0  0  0
  6 26  1  0  0  0
  7  8  2  0  0  0
  7 27  1  0  0  0
  8  9  1  0  0  0
  9 10  1  0  0  0
  9 28  1  0  0  0
  9 29  1  0  0  0
 10 11  1  0  0  0
 10 12  1  0  0  0
 10 30  1  0  0  0
 11 31  1  0  0  0
 11 32  1  0  0  0
 11 33  1  0  0  0
 12 13  1  0  0  0
 12 14  1  0  0  0
 12 34  1  0  0  0
 13 35  1  0  0  0
 13 36  1  0  0  0
 13 37  1  0  0  0
 14 15  1  0  0  0
 14 38  1  0  0  0
 14 39  1  0  0  0
 15 16  2  0  0  0
 15 17  1  0  0  0
 16 21  1  0  0  0
 16 40  1  0  0  0
 17 18  2  0  0  0
 17 41  1  0  0  0
 18 19  1  0  0  0
 18 20  1  0  0  0
 19 42  1  0  0  0
 20 21  2  0  0  0
 20 22  1  0  0  0
 21 43  1  0  0  0
 22 44  1  0  0  0
M  END
> <s_m_source_file>
../3zqt_ligand.sdf

> <i_m_source_file_index>
1

> <s_epik_input>
W09IXWMxW2NIXVtjSF1jKFtjSF1jMVtPSF0pW0NIMl1bQ0BIXShbQ0gzXSlbQ0BASF0oW0NIM10pW0NIMl1jMltjSF1bY0hdYyhbT0hdKWMoW2NIXTIpW09IXQ==

> <s_epik_cmdline>
J2VwaWtfYXBwJywgJy1pbWFlJywgJ2xpZ2FuZF9wcm8ubWFlJywgJy1vbWFlJywgJ2xpZ2FuZF9wcmVwLm1hZScsICctbXMnLCAnMScsICctcGgnLCAnNycsICctcGh0JywgJzAuNScsICctbnQn

> <r_lp_tautomer_probability>
1

> <r_epik_Ionization_Penalty>
  0.0019

> <r_epik_Ionization_Penalty_Charging>
  0.0000

> <r_epik_Ionization_Penalty_Neutral>
  0.0019

> <r_epik_State_Penalty>
 -0.0000

> <r_epik_Charging_Adjusted_Penalty>
0

> <i_epik_Tot_Q>
0

> <i_epik_Tot_abs_Q>
0

$$$$
