3zrc_ligand
                    3D
 Schrodinger Suite 2020-3.
 52 55  0  0  1  0            999 V2000
  -56.7070  -10.9350   -5.1580 C   0  0  0  0  0  0
  -56.0300  -11.9020   -4.2460 C   0  0  0  0  0  0
  -54.7890  -11.8300   -3.8700 C   0  0  0  0  0  0
  -56.6130  -12.9290   -3.7450 N   0  0  0  0  0  0
  -55.7000  -13.5180   -2.9960 O   0  0  0  0  0  0
  -54.5770  -12.8470   -3.0950 C   0  0  0  0  0  0
  -53.3310  -13.2620   -2.3620 C   0  0  0  0  0  0
  -53.5270  -12.8320   -0.9350 C   0  0  0  0  0  0
  -53.3230  -11.6660   -0.6970 O   0  0  0  0  0  0
  -54.0010  -13.6670    0.0010 N   0  0  0  0  0  0
  -54.3240  -15.0460   -0.2130 C   0  0  0  0  0  0
  -55.1030  -15.4130    0.9950 C   0  0  2  0  0  0
  -56.3080  -14.7800    0.9510 O   0  0  0  0  0  0
  -54.3150  -14.7250    2.0030 C   0  0  0  0  0  0
  -54.3040  -13.3800    1.3850 C   0  0  1  0  0  0
  -53.1660  -12.6510    1.9880 C   0  0  0  0  0  0
  -52.0770  -12.6510    1.4540 O   0  0  0  0  0  0
  -53.4500  -12.0180    3.0930 N   0  0  0  0  0  0
  -52.4580  -11.2210    3.7650 C   0  0  0  0  0  0
  -52.1310  -11.9890    4.9620 C   0  0  0  0  0  0
  -53.0710  -12.8010    5.4780 C   0  0  0  0  0  0
  -52.7880  -13.5360    6.5800 C   0  0  0  0  0  0
  -50.9060  -11.9040    5.5270 C   0  0  0  0  0  0
  -50.6160  -12.6450    6.6370 C   0  0  0  0  0  0
  -51.5730  -13.4530    7.1640 C   0  0  0  0  0  0
  -51.3250  -14.2130    8.2740 C   0  0  0  0  0  0
  -50.5320  -13.9990    9.2660 C   0  0  0  0  0  0
  -50.6420  -15.0340   10.0390 N   0  0  0  0  0  0
  -51.4930  -15.8850    9.5560 C   0  0  0  0  0  0
  -51.9140  -15.3670    8.4420 O   0  0  0  0  0  0
  -55.9972  -10.1465   -5.4485 H   0  0  0  0  0  0
  -57.5659  -10.4827   -4.6406 H   0  0  0  0  0  0
  -57.0571  -11.4628   -6.0574 H   0  0  0  0  0  0
  -54.0666  -11.0637   -4.1513 H   0  0  0  0  0  0
  -53.2087  -14.3527   -2.4351 H   0  0  0  0  0  0
  -52.4587  -12.7644   -2.8107 H   0  0  0  0  0  0
  -54.9133  -15.1455   -1.1365 H   0  0  0  0  0  0
  -53.3963  -15.6298   -0.3054 H   0  0  0  0  0  0
  -55.3314  -16.4780    1.1489 H   0  0  0  0  0  0
  -57.0853  -15.1249    0.2533 H   0  0  0  0  0  0
  -54.8307  -14.7814    2.9730 H   0  0  0  0  0  0
  -53.3271  -15.2019    2.0847 H   0  0  0  0  0  0
  -55.2298  -12.7954    1.4905 H   0  0  0  0  0  0
  -54.4645  -12.1000    3.5101 H   0  0  0  0  0  0
  -51.5857  -11.0905    3.1077 H   0  0  0  0  0  0
  -52.8830  -10.2365    4.0100 H   0  0  0  0  0  0
  -54.0543  -12.8671    5.0123 H   0  0  0  0  0  0
  -53.5457  -14.1987    6.9982 H   0  0  0  0  0  0
  -50.1511  -11.2454    5.0976 H   0  0  0  0  0  0
  -49.6284  -12.5889    7.0948 H   0  0  0  0  0  0
  -49.8981  -13.1263    9.4234 H   0  0  0  0  0  0
  -51.7926  -16.8371    9.9940 H   0  0  0  0  0  0
  1  2  1  0  0  0
  1 31  1  0  0  0
  1 32  1  0  0  0
  1 33  1  0  0  0
  2  3  1  0  0  0
  2  4  2  0  0  0
  3  6  2  0  0  0
  3 34  1  0  0  0
  4  5  1  0  0  0
  5  6  1  0  0  0
  6  7  1  0  0  0
  7  8  1  0  0  0
  7 35  1  0  0  0
  7 36  1  0  0  0
  8  9  2  0  0  0
  8 10  1  0  0  0
 10 11  1  0  0  0
 10 15  1  0  0  0
 11 12  1  0  0  0
 11 37  1  0  0  0
 11 38  1  0  0  0
 12 13  1  0  0  0
 12 14  1  0  0  0
 12 39  1  0  0  0
 13 40  1  0  0  0
 14 15  1  0  0  0
 14 41  1  0  0  0
 14 42  1  0  0  0
 15 16  1  0  0  0
 15 43  1  0  0  0
 16 17  2  0  0  0
 16 18  1  0  0  0
 18 19  1  0  0  0
 18 44  1  0  0  0
 19 20  1  0  0  0
 19 45  1  0  0  0
 19 46  1  0  0  0
 20 21  2  0  0  0
 20 23  1  0  0  0
 21 22  1  0  0  0
 21 47  1  0  0  0
 22 25  2  0  0  0
 22 48  1  0  0  0
 23 24  2  0  0  0
 23 49  1  0  0  0
 24 25  1  0  0  0
 24 50  1  0  0  0
 25 26  1  0  0  0
 26 27  2  0  0  0
 26 30  1  0  0  0
 27 28  1  0  0  0
 27 51  1  0  0  0
 28 29  2  0  0  0
 29 30  1  0  0  0
 29 52  1  0  0  0
M  END
> <s_m_source_file>
../3zrc_ligand.sdf

> <i_m_source_file_index>
1

> <s_epik_input>
W0NIM11jMVtjSF1jKG9uMSlbQ0gyXUMoPU8pTjJbQ0gyXVtDQEhdKFtPSF0pW0NIMl1bQ0BIXTJDKD1PKVtOSF1bQ0gyXWMzW2NIXVtjSF1jKFtjSF1bY0hdMyktYzRbY0hdbltjSF1vNA==

> <s_epik_cmdline>
J2VwaWtfYXBwJywgJy1pbWFlJywgJ2xpZ2FuZF9wcm8ubWFlJywgJy1vbWFlJywgJ2xpZ2FuZF9wcmVwLm1hZScsICctbXMnLCAnMScsICctcGgnLCAnNycsICctcGh0JywgJzAuNScsICctbnQn

> <r_lp_tautomer_probability>
1

> <r_epik_Ionization_Penalty>
  0.0000

> <r_epik_Ionization_Penalty_Charging>
  0.0000

> <r_epik_Ionization_Penalty_Neutral>
  0.0000

> <r_epik_State_Penalty>
 -0.0000

> <r_epik_Charging_Adjusted_Penalty>
0

> <i_epik_Tot_Q>
0

> <i_epik_Tot_abs_Q>
0

$$$$
