3zrl_ligand
                    3D
 Schrodinger Suite 2020-3.
 24 26  0  0  1  0            999 V2000
  106.2440   21.3150  -10.1960 C   0  0  0  0  0  0
  106.5040   22.3390  -11.0100 C   0  0  0  0  0  0
  105.4830   23.2770  -11.1140 C   0  0  0  0  0  0
  104.2780   23.2150  -10.4620 C   0  0  0  0  0  0
  104.0030   22.1200   -9.5910 C   0  0  0  0  0  0
  102.9370   22.0370   -9.0020 O   0  0  0  0  0  0
  104.0210   25.2110  -11.6410 C   0  0  0  0  0  0
  103.4890   26.4530  -12.1350 C   0  0  0  0  0  0
  102.1890   26.8110  -11.8400 C   0  0  0  0  0  0
  101.7160   28.0170  -12.3190 C   0  0  0  0  0  0
  103.4450   24.3190  -10.7620 C   0  0  0  0  0  0
  102.4330   28.8760  -13.0550 N   0  0  0  0  0  0
  103.6930   28.4970  -13.3160 C   0  0  0  0  0  0
  105.0470   21.2100   -9.5170 N   0  0  0  0  0  0
  104.2630   27.3180  -12.8850 C   0  0  0  0  0  0
  105.5870   24.6720  -12.1060 S   0  0  0  0  0  0
  108.0750   22.5920  -11.9870 Br  0  0  0  0  0  0
  106.9981   20.5392  -10.0632 H   0  0  0  0  0  0
  101.5515   26.1581  -11.2438 H   0  0  0  0  0  0
  100.6875   28.2886  -12.0815 H   0  0  0  0  0  0
  102.4485   24.4507  -10.3405 H   0  0  0  0  0  0
  104.3105   29.1694  -13.9116 H   0  0  0  0  0  0
  104.8645   20.3519   -8.8534 H   0  0  0  0  0  0
  105.2970   27.0745  -13.1294 H   0  0  0  0  0  0
  1  2  2  0  0  0
  1 14  1  0  0  0
  1 18  1  0  0  0
  2  3  1  0  0  0
  2 17  1  0  0  0
  3  4  2  0  0  0
  3 16  1  0  0  0
  4  5  1  0  0  0
  4 11  1  0  0  0
  5  6  2  0  0  0
  5 14  1  0  0  0
  7  8  1  0  0  0
  7 11  2  0  0  0
  7 16  1  0  0  0
  8  9  2  0  0  0
  8 15  1  0  0  0
  9 10  1  0  0  0
  9 19  1  0  0  0
 10 12  2  0  0  0
 10 20  1  0  0  0
 11 21  1  0  0  0
 12 13  1  0  0  0
 13 15  2  0  0  0
 13 22  1  0  0  0
 14 23  1  0  0  0
 15 24  1  0  0  0
M  END
> <s_m_source_file>
../3zrl_ligand.sdf

> <i_m_source_file_index>
1

> <s_epik_input>
QnJjMVtjSF1bbkhdYyg9TyljKGMxMilbY0hdYyhzMiktYzNbY0hdW2NIXW5bY0hdW2NIXTM=

> <s_epik_cmdline>
J2VwaWtfYXBwJywgJy1pbWFlJywgJ2xpZ2FuZF9wcm8ubWFlJywgJy1vbWFlJywgJ2xpZ2FuZF9wcmVwLm1hZScsICctbXMnLCAnMScsICctcGgnLCAnNycsICctcGh0JywgJzAuNScsICctbnQn

> <r_lp_tautomer_probability>
1

> <r_epik_Ionization_Penalty>
  0.0049

> <r_epik_Ionization_Penalty_Charging>
  0.0006

> <r_epik_Ionization_Penalty_Neutral>
  0.0042

> <r_epik_State_Penalty>
 -0.0000

> <r_epik_Charging_Adjusted_Penalty>
0.000627713180173545

> <i_epik_Tot_Q>
0

> <i_epik_Tot_abs_Q>
0

$$$$
