3zrm_ligand
                    3D
 Schrodinger Suite 2020-3.
 35 38  0  0  1  0            999 V2000
  108.4140   21.0740  -11.7200 C   0  0  0  0  0  0
  108.3530   23.4530  -11.7750 C   0  0  0  0  0  0
  109.6950   21.0790  -12.2320 C   0  0  0  0  0  0
  109.6310   23.4750  -12.2950 C   0  0  0  0  0  0
  104.0540   27.0970  -12.9880 C   0  0  0  0  0  0
  101.9920   26.5690  -11.9280 C   0  0  0  0  0  0
  103.2510   24.1130  -10.8430 C   0  0  0  0  0  0
  103.4690   28.2740  -13.4050 C   0  0  0  0  0  0
  101.5010   27.7690  -12.4050 C   0  0  0  0  0  0
  103.2930   26.2270  -12.2310 C   0  0  0  0  0  0
  107.7310   22.2530  -11.4860 C   0  0  0  0  0  0
  104.1050   23.0400  -10.4930 C   0  0  0  0  0  0
  110.2940   22.2840  -12.5150 C   0  0  0  0  0  0
  103.8430   25.0030  -11.7150 C   0  0  0  0  0  0
  105.3400   23.1230  -11.0930 C   0  0  0  0  0  0
  106.0750   21.2160  -10.0860 C   0  0  0  0  0  0
  106.3830   22.2160  -10.9190 C   0  0  0  0  0  0
  103.7990   21.9620   -9.6030 C   0  0  0  0  0  0
  102.2090   28.6420  -13.1320 N   0  0  0  0  0  0
  104.8520   21.0810   -9.4680 N   0  0  0  0  0  0
  102.7090   21.8670   -9.0520 O   0  0  0  0  0  0
  111.5720   22.2830  -13.0310 O   0  0  0  0  0  0
  105.4480   24.5050  -12.1080 S   0  0  0  0  0  0
  107.9314   20.1228  -11.4958 H   0  0  0  0  0  0
  107.8291   24.3908  -11.5904 H   0  0  0  0  0  0
  110.2240   20.1426  -12.4094 H   0  0  0  0  0  0
  110.1128   24.4241  -12.5300 H   0  0  0  0  0  0
  105.0857   26.8601  -13.2478 H   0  0  0  0  0  0
  101.3665   25.9089  -11.3270 H   0  0  0  0  0  0
  102.2350   24.2242  -10.4643 H   0  0  0  0  0  0
  104.0760   28.9558  -14.0007 H   0  0  0  0  0  0
  100.4664   28.0222  -12.1736 H   0  0  0  0  0  0
  106.8372   20.4634   -9.8844 H   0  0  0  0  0  0
  104.6603   20.2207   -8.8098 H   0  0  0  0  0  0
  112.0946   21.3306  -13.2039 H   0  0  0  0  0  0
  1  3  2  0  0  0
  1 11  1  0  0  0
  1 24  1  0  0  0
  2  4  1  0  0  0
  2 11  2  0  0  0
  2 25  1  0  0  0
  3 13  1  0  0  0
  3 26  1  0  0  0
  4 13  2  0  0  0
  4 27  1  0  0  0
  5  8  2  0  0  0
  5 10  1  0  0  0
  5 28  1  0  0  0
  6  9  1  0  0  0
  6 10  2  0  0  0
  6 29  1  0  0  0
  7 12  1  0  0  0
  7 14  2  0  0  0
  7 30  1  0  0  0
  8 19  1  0  0  0
  8 31  1  0  0  0
  9 19  2  0  0  0
  9 32  1  0  0  0
 10 14  1  0  0  0
 11 17  1  0  0  0
 12 15  2  0  0  0
 12 18  1  0  0  0
 13 22  1  0  0  0
 14 23  1  0  0  0
 15 17  1  0  0  0
 15 23  1  0  0  0
 16 17  2  0  0  0
 16 20  1  0  0  0
 16 33  1  0  0  0
 18 20  1  0  0  0
 18 21  2  0  0  0
 20 34  1  0  0  0
 22 35  1  0  0  0
M  END
> <s_m_source_file>
../3zrm_ligand.sdf

> <i_m_source_file_index>
1

> <s_epik_input>
W2NIXTFbY0hdYyhbT0hdKVtjSF1bY0hdYzEtYyhbY0hdW25IXWMyPU8pYyhjMjMpc2MoW2NIXTMpLWM0W2NIXVtjSF1uW2NIXVtjSF00

> <s_epik_cmdline>
J2VwaWtfYXBwJywgJy1pbWFlJywgJ2xpZ2FuZF9wcm8ubWFlJywgJy1vbWFlJywgJ2xpZ2FuZF9wcmVwLm1hZScsICctbXMnLCAnMScsICctcGgnLCAnNycsICctcGh0JywgJzAuNScsICctbnQn

> <r_lp_tautomer_probability>
1

> <r_epik_Ionization_Penalty>
  0.0062

> <r_epik_Ionization_Penalty_Charging>
  0.0000

> <r_epik_Ionization_Penalty_Neutral>
  0.0062

> <r_epik_State_Penalty>
 -0.0000

> <r_epik_Charging_Adjusted_Penalty>
2.45718513246213e-05

> <i_epik_Tot_Q>
0

> <i_epik_Tot_abs_Q>
0

$$$$
