3zs0_ligand
                    3D
 Schrodinger Suite 2020-3.
 27 29  0  0  1  0            999 V2000
   -3.4910   19.6170   17.2480 C   0  0  0  0  0  0
   -2.6610   18.9450   16.3450 C   0  0  0  0  0  0
   -1.4050   19.4570   16.5500 N   0  0  0  0  0  0
   -1.4810   20.3960   17.5450 C   0  0  0  0  0  0
   -2.7160   20.4840   17.9540 N   0  3  0  0  0  0
   -5.3630   18.3540   16.3530 N   0  0  0  0  0  0
   -4.5330   17.7160   15.4870 C   0  0  0  0  0  0
   -3.1990   17.9990   15.4780 N   0  0  0  0  0  0
   -4.9230   19.2850   17.2470 C   0  0  0  0  0  0
   -5.6940   19.8520   18.0180 O   0  5  0  0  0  0
   -5.2150   16.5350   14.3980 S   0  0  0  0  0  0
   -2.2760   17.2900   14.5760 C   0  0  0  0  0  0
   -2.2400   17.8010   13.1600 C   0  0  0  0  0  0
   -2.0430   19.1580   12.9170 C   0  0  0  0  0  0
   -1.9990   19.6050   11.6070 C   0  0  0  0  0  0
   -2.1530   18.6910   10.5590 C   0  0  0  0  0  0
   -2.3490   17.3320   10.8020 C   0  0  0  0  0  0
   -2.3970   16.8880   12.1170 C   0  0  0  0  0  0
   -2.1010   19.1410    9.2930 F   0  0  0  0  0  0
   -0.6435   20.9762   17.9324 H   0  0  0  0  0  0
   -1.2497   17.3718   14.9634 H   0  0  0  0  0  0
   -2.5625   16.2296   14.5178 H   0  0  0  0  0  0
   -1.9253   19.8573   13.7448 H   0  0  0  0  0  0
   -1.8453   20.6628   11.3936 H   0  0  0  0  0  0
   -2.4625   16.6310    9.9750 H   0  0  0  0  0  0
   -2.5565   15.8316   12.3330 H   0  0  0  0  0  0
   -3.1677   21.1177   18.7315 H   0  0  0  0  0  0
  1  2  2  0  0  0
  1  5  1  0  0  0
  1  9  1  0  0  0
  2  3  1  0  0  0
  2  8  1  0  0  0
  3  4  1  0  0  0
  4  5  2  0  0  0
  4 20  1  0  0  0
  5 27  1  0  0  0
  6  7  1  0  0  0
  6  9  2  0  0  0
  7  8  1  0  0  0
  7 11  2  0  0  0
  8 12  1  0  0  0
  9 10  1  0  0  0
 12 13  1  0  0  0
 12 21  1  0  0  0
 12 22  1  0  0  0
 13 14  2  0  0  0
 13 18  1  0  0  0
 14 15  1  0  0  0
 14 23  1  0  0  0
 15 16  2  0  0  0
 15 24  1  0  0  0
 16 17  1  0  0  0
 16 19  1  0  0  0
 17 18  2  0  0  0
 17 25  1  0  0  0
 18 26  1  0  0  0
M  CHG  2   5   1  10  -1
M  END
> <s_m_source_file>
../3zs0_ligand.sdf

> <i_m_source_file_index>
1

> <s_epik_input>
bjFbY0hdW25IXWMoYzEyKW4oYyg9UylbbkhdYzI9TylbQ0gyXWMzW2NIXVtjSF1jKEYpW2NIXVtjSF0z

> <s_epik_cmdline>
J2VwaWtfYXBwJywgJy1pbWFlJywgJ2xpZ2FuZF9wcm8ubWFlJywgJy1vbWFlJywgJ2xpZ2FuZF9wcmVwLm1hZScsICctbXMnLCAnMScsICctcGgnLCAnNycsICctcGh0JywgJzAuNScsICctbnQn

> <r_lp_tautomer_probability>
1

> <r_epik_Ionization_Penalty>
  0.0096

> <r_epik_Ionization_Penalty_Charging>
  0.0000

> <r_epik_Ionization_Penalty_Neutral>
  0.0096

> <r_epik_State_Penalty>
 -0.0000

> <r_epik_Charging_Adjusted_Penalty>
1.02114711134084e-08

> <i_epik_Tot_Q>
0

> <i_epik_Tot_abs_Q>
2

$$$$
