3zs1_ligand
                    3D
 Schrodinger Suite 2020-3.
104113  0  0  1  0            999 V2000
   33.3600   -5.5170   33.7510 C   0  0  0  0  0  0
   37.9300   -6.7600   34.8690 C   0  0  0  0  0  0
   36.5940  -11.3910   34.9720 C   0  0  0  0  0  0
   32.0110  -10.1400   33.9240 C   0  0  0  0  0  0
   34.7600   -5.3920   34.1630 C   0  0  0  0  0  0
   35.4370   -4.2010   34.3670 C   0  0  0  0  0  0
   36.7460   -4.5750   34.6760 C   0  0  0  0  0  0
   36.7550   -5.9490   34.6280 C   0  0  0  0  0  0
   37.9390   -3.7130   35.0030 C   0  0  0  0  0  0
   34.8450   -2.8140   34.2750 C   0  0  0  0  0  0
   34.7640   -2.2680   35.6970 C   0  0  0  0  0  0
   34.1560   -0.8930   35.6710 C   0  0  0  0  0  0
   34.9130    0.0750   35.4380 O   0  0  0  0  0  0
   32.9190   -0.7760   35.8930 O   0  5  0  0  0  0
   37.9900   -8.1980   34.6890 C   0  0  0  0  0  0
   39.2500   -8.8970   34.9440 C   0  0  0  0  0  0
   38.8710  -10.2230   34.8770 C   0  0  0  0  0  0
   37.4200  -10.2480   34.6100 C   0  0  0  0  0  0
   40.5910   -8.2080   35.0810 C   0  0  0  0  0  0
   39.6890  -11.4450   35.1020 C   0  0  0  0  0  0
   40.8880  -11.7670   34.2860 C   0  0  0  0  0  0
   35.1550  -11.5080   34.7680 C   0  0  0  0  0  0
   34.3870  -12.7710   34.9250 C   0  0  0  0  0  0
   33.0780  -12.3840   34.6670 C   0  0  0  0  0  0
   33.1350  -10.9480   34.3440 C   0  0  0  0  0  0
   34.9590  -14.1100   35.2980 C   0  0  0  0  0  0
   31.8360  -13.1910   34.5780 C   0  0  0  0  0  0
   31.7870  -14.6790   34.6820 C   0  0  0  0  0  0
   32.1460   -8.8280   33.2930 C   0  0  0  0  0  0
   30.9300   -8.1230   32.8550 C   0  0  0  0  0  0
   31.2670   -6.7920   32.9370 C   0  0  0  0  0  0
   32.6740   -6.7660   33.3780 C   0  0  0  0  0  0
   29.6500   -8.7940   32.4240 C   0  0  0  0  0  0
   30.5030   -5.5930   32.4570 C   0  0  0  0  0  0
   31.0820   -5.4830   31.0210 C   0  0  0  0  0  0
   30.5290   -4.4190   30.0800 C   0  0  0  0  0  0
   31.2790   -3.4690   29.6940 O   0  5  0  0  0  0
   29.3500   -4.5220   29.6720 O   0  0  0  0  0  0
   35.5460   -6.4370   34.4000 N   0  0  0  0  0  0
   36.9550   -9.0130   34.4270 N   0  0  0  0  0  0
   34.3600  -10.4700   34.5210 N   0  0  0  0  0  0
   33.1660   -7.9960   33.5030 N   0  0  0  0  0  0
   40.2300    1.9270   33.2990 C   0  0  0  0  0  0
   39.2720    0.8800   33.1490 O   0  0  0  0  0  0
   38.6100    1.0870   31.9040 C   0  0  0  0  0  0
   37.5020    0.0700   31.7450 C   0  0  0  0  0  0
   38.0090   -1.2210   31.3390 N   0  0  0  0  0  0
   38.2950   -1.5170   30.0290 C   0  0  0  0  0  0
   38.7770   -2.7470   29.6740 C   0  0  0  0  0  0
   39.0300   -3.8300   30.5600 C   0  0  0  0  0  0
   39.4560   -4.9320   30.2410 O   0  0  0  0  0  0
   38.7220   -3.4670   31.8510 N   0  0  0  0  0  0
   38.2380   -2.2310   32.2670 C   0  0  0  0  0  0
   37.9500   -2.0030   33.8900 S   0  0  0  0  0  0
   38.9370   -2.6670   28.3240 N   0  3  0  0  0  0
   38.5510   -1.4140   27.9330 C   0  0  0  0  0  0
   38.1520   -0.6820   28.9530 N   0  0  0  0  0  0
   34.9390   -8.4500   34.5020 Fe  0  0  0  0  0  0
   32.7063   -5.1599   34.5605 H   0  0  0  0  0  0
   33.1883   -4.9132   32.8477 H   0  0  0  0  0  0
   38.7480   -6.4237   34.2150 H   0  0  0  0  0  0
   38.2361   -6.6586   35.9207 H   0  0  0  0  0  0
   36.9490  -12.2841   34.4368 H   0  0  0  0  0  0
   36.6607  -11.5628   36.0564 H   0  0  0  0  0  0
   31.4209  -10.6923   33.1778 H   0  0  0  0  0  0
   31.3788   -9.9104   34.7944 H   0  0  0  0  0  0
   37.9108   -3.4364   36.0673 H   0  0  0  0  0  0
   38.8633   -4.2714   34.7937 H   0  0  0  0  0  0
   35.4923   -2.1797   33.6515 H   0  0  0  0  0  0
   33.8436   -2.8719   33.8234 H   0  0  0  0  0  0
   34.1394   -2.9340   36.3104 H   0  0  0  0  0  0
   35.7749   -2.2142   36.1273 H   0  0  0  0  0  0
   40.4434   -7.1180   35.0951 H   0  0  0  0  0  0
   41.2318   -8.4803   34.2294 H   0  0  0  0  0  0
   41.0721   -8.5250   36.0181 H   0  0  0  0  0  0
   40.0921  -11.4330   36.1254 H   0  0  0  0  0  0
   39.0603  -12.3373   34.9660 H   0  0  0  0  0  0
   41.3256  -12.7139   34.6351 H   0  0  0  0  0  0
   41.6290  -10.9606   34.3891 H   0  0  0  0  0  0
   40.5971  -11.8648   33.2297 H   0  0  0  0  0  0
   36.0485  -14.0218   35.4215 H   0  0  0  0  0  0
   34.7378  -14.8375   34.5031 H   0  0  0  0  0  0
   34.5093  -14.4506   36.2424 H   0  0  0  0  0  0
   31.1457  -12.8912   35.3803 H   0  0  0  0  0  0
   31.3585  -13.0226   33.6015 H   0  0  0  0  0  0
   30.7457  -15.0194   34.5826 H   0  0  0  0  0  0
   32.1832  -14.9915   35.6594 H   0  0  0  0  0  0
   32.3960  -15.1228   33.8806 H   0  0  0  0  0  0
   29.7664   -9.8855   32.4946 H   0  0  0  0  0  0
   29.4224   -8.5160   31.3843 H   0  0  0  0  0  0
   28.8276   -8.4698   33.0787 H   0  0  0  0  0  0
   29.4245   -5.8064   32.4944 H   0  0  0  0  0  0
   30.7290   -4.7316   33.1027 H   0  0  0  0  0  0
   32.1597   -5.2693   31.0756 H   0  0  0  0  0  0
   30.9229   -6.4319   30.4878 H   0  0  0  0  0  0
   40.7640    1.8015   34.2524 H   0  0  0  0  0  0
   39.7150    2.8989   33.2924 H   0  0  0  0  0  0
   40.9494    1.8876   32.4678 H   0  0  0  0  0  0
   38.1829    2.1004   31.8799 H   0  0  0  0  0  0
   39.3317    0.9736   31.0816 H   0  0  0  0  0  0
   36.9764   -0.0525   32.7035 H   0  0  0  0  0  0
   36.7925    0.4174   30.9796 H   0  0  0  0  0  0
   38.5439   -0.9921   26.9171 H   0  0  0  0  0  0
   39.3194   -3.5326   27.7632 H   0  0  0  0  0  0
  1  5  1  0  0  0
  1 32  1  0  0  0
  1 59  1  0  0  0
  1 60  1  0  0  0
  2  8  1  0  0  0
  2 15  1  0  0  0
  2 61  1  0  0  0
  2 62  1  0  0  0
  3 18  1  0  0  0
  3 22  1  0  0  0
  3 63  1  0  0  0
  3 64  1  0  0  0
  4 25  1  0  0  0
  4 29  1  0  0  0
  4 65  1  0  0  0
  4 66  1  0  0  0
  5  6  2  0  0  0
  5 39  1  0  0  0
  6  7  1  0  0  0
  6 10  1  0  0  0
  7  8  2  0  0  0
  7  9  1  0  0  0
  8 39  1  0  0  0
  9 54  1  0  0  0
  9 67  1  0  0  0
  9 68  1  0  0  0
 10 11  1  0  0  0
 10 69  1  0  0  0
 10 70  1  0  0  0
 11 12  1  0  0  0
 11 71  1  0  0  0
 11 72  1  0  0  0
 12 13  2  0  0  0
 12 14  1  0  0  0
 15 16  2  0  0  0
 15 40  1  0  0  0
 16 17  1  0  0  0
 16 19  1  0  0  0
 17 18  2  0  0  0
 17 20  1  0  0  0
 18 40  1  0  0  0
 19 73  1  0  0  0
 19 74  1  0  0  0
 19 75  1  0  0  0
 20 21  1  0  0  0
 20 76  1  0  0  0
 20 77  1  0  0  0
 21 78  1  0  0  0
 21 79  1  0  0  0
 21 80  1  0  0  0
 22 23  2  0  0  0
 22 41  1  0  0  0
 23 24  1  0  0  0
 23 26  1  0  0  0
 24 25  2  0  0  0
 24 27  1  0  0  0
 25 41  1  0  0  0
 26 81  1  0  0  0
 26 82  1  0  0  0
 26 83  1  0  0  0
 27 28  1  0  0  0
 27 84  1  0  0  0
 27 85  1  0  0  0
 28 86  1  0  0  0
 28 87  1  0  0  0
 28 88  1  0  0  0
 29 30  2  0  0  0
 29 42  1  0  0  0
 30 31  1  0  0  0
 30 33  1  0  0  0
 31 32  2  0  0  0
 31 34  1  0  0  0
 32 42  1  0  0  0
 33 89  1  0  0  0
 33 90  1  0  0  0
 33 91  1  0  0  0
 34 35  1  0  0  0
 34 92  1  0  0  0
 34 93  1  0  0  0
 35 36  1  0  0  0
 35 94  1  0  0  0
 35 95  1  0  0  0
 36 37  1  0  0  0
 36 38  2  0  0  0
 39 58  1  0  0  0
 40 58  1  0  0  0
 41 58  1  0  0  0
 42 58  1  0  0  0
 43 44  1  0  0  0
 43 96  1  0  0  0
 43 97  1  0  0  0
 43 98  1  0  0  0
 44 45  1  0  0  0
 45 46  1  0  0  0
 45 99  1  0  0  0
 45100  1  0  0  0
 46 47  1  0  0  0
 46101  1  0  0  0
 46102  1  0  0  0
 47 48  1  0  0  0
 47 53  1  0  0  0
 48 49  2  0  0  0
 48 57  1  0  0  0
 49 50  1  0  0  0
 49 55  1  0  0  0
 50 51  2  0  0  0
 50 52  1  0  0  0
 52 53  2  0  0  0
 53 54  1  0  0  0
 55 56  1  0  0  0
 55104  1  0  0  0
 56 57  2  0  0  0
 56103  1  0  0  0
M  CHG  3  14  -1  37  -1  55   1
M  END
> <s_m_source_file>
../3zs1_ligand.sdf

> <i_m_source_file_index>
1

> <s_epik_input>
W09IXUMoPU8pW0NIMl1bQ0gyXWMoYzFbQ0gzXSljKFtDSDJdMiluM2MxW0NIMl1jKGMoYzRbQ0gzXSlbQ0gyXVtDSDNdKW41YzRbQ0gyXWMoYyhjNltDSDNdKVtDSDJdW0NIM10pbjdjNltDSDJdYzhjKGMoYzJuOFtGZV0zNTcpW0NIMl1bQ0gyXUMoPU8pW09IXSlbQ0gyXVNjKG45W0NIMl1bQ0gyXU9bQ0gzXSluYyg9TyljKGMxOSlbbkhdW2NIXW4x

> <s_epik_cmdline>
J2VwaWtfYXBwJywgJy1pbWFlJywgJ2xpZ2FuZF9wcm8ubWFlJywgJy1vbWFlJywgJ2xpZ2FuZF9wcmVwLm1hZScsICctbXMnLCAnMScsICctcGgnLCAnNycsICctcGh0JywgJzAuNScsICctbnQn

> <r_lp_tautomer_probability>
1

> <r_epik_Ionization_Penalty>
  0.0525

> <r_epik_Ionization_Penalty_Charging>
  0.0046

> <r_epik_Ionization_Penalty_Neutral>
  0.0478

> <r_epik_State_Penalty>
  0.2642

> <r_epik_Charging_Adjusted_Penalty>
0.268843094052008

> <i_epik_Tot_Q>
-1

> <i_epik_Tot_abs_Q>
3

> <s_epik_Chemistry_Notes>
This compound has an imine and may undergo hydrolysis.

$$$$
