3zsq_ligand
                    3D
 Schrodinger Suite 2020-3.
 73 76  0  0  1  0            999 V2000
  -11.6750   35.2310    7.0140 C   0  0  0  0  0  0
  -12.7850   34.8420    6.2940 C   0  0  0  0  0  0
  -10.6210   35.9020    6.3410 C   0  0  0  0  0  0
  -12.8650   35.0840    4.9420 C   0  0  0  0  0  0
   -9.4130   33.3640   -0.4800 C   0  0  0  0  0  0
   -6.7700   36.5390    1.4710 C   0  0  0  0  0  0
   -6.6790   34.5590    2.8120 C   0  0  0  0  0  0
   -9.3250   32.3810   -1.4400 C   0  0  0  0  0  0
   -6.4370   35.7430    0.3690 C   0  0  0  0  0  0
   -6.3720   33.7720    1.7240 C   0  0  0  0  0  0
  -10.7270   36.1490    4.9800 C   0  0  0  0  0  0
  -10.6080   31.8330    0.9950 C   0  0  0  0  0  0
   -6.8820   35.9370    2.7030 C   0  0  0  0  0  0
  -11.8620   35.7320    4.2620 C   0  0  0  0  0  0
  -10.0740   33.1070    0.7410 C   0  0  0  0  0  0
   -9.8790   31.1520   -1.1970 C   0  0  0  0  0  0
  -10.4860   30.8660    0.0210 C   0  0  0  0  0  0
   -6.2510   34.3710    0.5040 C   0  0  0  0  0  0
  -12.4730   37.2430   -0.5130 C   0  0  0  0  0  0
  -11.8860   36.0500   -0.3560 C   0  0  0  0  0  0
   -9.6200   36.8400    4.3240 C   0  0  0  0  0  0
  -11.2720   31.4800    2.3300 C   0  0  0  0  0  0
  -10.4760   29.0410   -1.1770 C   0  0  0  0  0  0
   -5.0400   37.8170    6.8400 C   0  0  0  0  0  0
   -5.6750   32.3020   -0.5290 C   0  0  0  0  0  0
  -12.0270   35.9400    2.7360 C   0  0  0  0  0  0
  -10.1660   34.2720    1.7290 C   0  0  0  0  0  0
  -12.3920   34.9150    0.4800 C   0  0  0  0  0  0
   -6.3600   37.7950    6.0330 C   0  0  0  0  0  0
   -6.0880   36.8300    4.8890 C   0  0  0  0  0  0
   -7.2060   36.8340    3.8980 C   0  0  2  0  0  0
   -8.3840   36.3970    4.6270 N   0  0  0  0  0  0
  -11.6810   34.7400    1.8270 N   0  3  2  0  0  0
  -11.0620   30.2890    2.7380 O   0  5  0  0  0  0
   -9.8010   37.7530    3.5090 O   0  0  0  0  0  0
  -11.8040   32.4040    3.0000 O   0  0  0  0  0  0
   -9.9260   30.0620   -2.0030 O   0  0  0  0  0  0
  -11.0080   29.5570    0.0760 O   0  0  0  0  0  0
   -5.9890   33.7080   -0.6660 O   0  0  0  0  0  0
  -11.6083   35.0264    8.0826 H   0  0  0  0  0  0
  -13.6074   34.3376    6.8013 H   0  0  0  0  0  0
   -9.7347   36.2210    6.8894 H   0  0  0  0  0  0
  -13.7479   34.7527    4.3954 H   0  0  0  0  0  0
   -8.9711   34.3435   -0.6631 H   0  0  0  0  0  0
   -6.9366   37.6100    1.3559 H   0  0  0  0  0  0
   -6.7666   34.0903    3.7922 H   0  0  0  0  0  0
   -8.8190   32.5790   -2.3849 H   0  0  0  0  0  0
   -6.3215   36.2057   -0.6111 H   0  0  0  0  0  0
   -6.2292   32.6971    1.8349 H   0  0  0  0  0  0
  -13.4210   37.4614    0.0005 H   0  0  0  0  0  0
  -12.0073   38.0048   -1.1555 H   0  0  0  0  0  0
  -10.9380   35.8316   -0.8695 H   0  0  0  0  0  0
  -11.2973   28.5404   -1.7107 H   0  0  0  0  0  0
   -9.6949   28.3057   -0.9337 H   0  0  0  0  0  0
   -5.1459   38.4977    7.6976 H   0  0  0  0  0  0
   -4.2210   38.1659    6.1938 H   0  0  0  0  0  0
   -4.8148   36.8031    7.2022 H   0  0  0  0  0  0
   -5.4831   31.8707   -1.5225 H   0  0  0  0  0  0
   -6.5230   31.7809   -0.0606 H   0  0  0  0  0  0
   -4.7803   32.1858    0.1002 H   0  0  0  0  0  0
  -13.0742   36.1907    2.5113 H   0  0  0  0  0  0
  -11.3742   36.7612    2.4052 H   0  0  0  0  0  0
   -9.8123   33.9433    2.7174 H   0  0  0  0  0  0
   -9.5405   35.1043    1.3738 H   0  0  0  0  0  0
  -13.4580   35.0704    0.7026 H   0  0  0  0  0  0
  -12.2661   33.9704   -0.0694 H   0  0  0  0  0  0
   -7.1790   37.4461    6.6792 H   0  0  0  0  0  0
   -6.5853   38.8089    5.6708 H   0  0  0  0  0  0
   -5.1622   37.1245    4.3732 H   0  0  0  0  0  0
   -5.9773   35.8107    5.2875 H   0  0  0  0  0  0
   -7.4047   37.8411    3.5028 H   0  0  0  0  0  0
   -8.2835   35.6815    5.4565 H   0  0  0  0  0  0
  -12.1196   33.8715    2.3402 H   0  0  0  0  0  0
  1  2  2  0  0  0
  1  3  1  0  0  0
  1 40  1  0  0  0
  2  4  1  0  0  0
  2 41  1  0  0  0
  3 11  2  0  0  0
  3 42  1  0  0  0
  4 14  2  0  0  0
  4 43  1  0  0  0
  5  8  2  0  0  0
  5 15  1  0  0  0
  5 44  1  0  0  0
  6  9  2  0  0  0
  6 13  1  0  0  0
  6 45  1  0  0  0
  7 10  1  0  0  0
  7 13  2  0  0  0
  7 46  1  0  0  0
  8 16  1  0  0  0
  8 47  1  0  0  0
  9 18  1  0  0  0
  9 48  1  0  0  0
 10 18  2  0  0  0
 10 49  1  0  0  0
 11 14  1  0  0  0
 11 21  1  0  0  0
 12 15  2  0  0  0
 12 17  1  0  0  0
 12 22  1  0  0  0
 13 31  1  0  0  0
 14 26  1  0  0  0
 15 27  1  0  0  0
 16 17  2  0  0  0
 16 37  1  0  0  0
 17 38  1  0  0  0
 18 39  1  0  0  0
 19 20  2  0  0  0
 19 50  1  0  0  0
 19 51  1  0  0  0
 20 28  1  0  0  0
 20 52  1  0  0  0
 21 32  1  0  0  0
 21 35  2  0  0  0
 22 34  1  0  0  0
 22 36  2  0  0  0
 23 37  1  0  0  0
 23 38  1  0  0  0
 23 53  1  0  0  0
 23 54  1  0  0  0
 24 29  1  0  0  0
 24 55  1  0  0  0
 24 56  1  0  0  0
 24 57  1  0  0  0
 25 39  1  0  0  0
 25 58  1  0  0  0
 25 59  1  0  0  0
 25 60  1  0  0  0
 26 33  1  0  0  0
 26 61  1  0  0  0
 26 62  1  0  0  0
 27 33  1  0  0  0
 27 63  1  0  0  0
 27 64  1  0  0  0
 28 33  1  0  0  0
 28 65  1  0  0  0
 28 66  1  0  0  0
 29 30  1  0  0  0
 29 67  1  0  0  0
 29 68  1  0  0  0
 30 31  1  0  0  0
 30 69  1  0  0  0
 30 70  1  0  0  0
 31 32  1  0  0  0
 31 71  1  0  0  0
 32 72  1  0  0  0
 33 73  1  0  0  0
M  CHG  2  33   1  34  -1
M  END
> <s_m_source_file>
../3zsq_ligand.sdf

> <i_m_source_file_index>
1

> <s_epik_input>
W2NIXTFbY0hdYyhPW0NIM10pW2NIXVtjSF1jMVtDQEhdKFtDSDJdW0NIMl1bQ0gzXSlbTkhdQyg9TyljMltjSF1bY0hdW2NIXVtjSF1jMltDSDJdW05AQEgrXShbQ0gyXVtDSF09W0NIMl0pW0NIMl1jKFtjSF1bY0hdMyljKEMoPU8pW09IXSljKGMzNClPW0NIMl1PNA==

> <s_epik_cmdline>
J2VwaWtfYXBwJywgJy1pbWFlJywgJ2xpZ2FuZF9wcm8ubWFlJywgJy1vbWFlJywgJ2xpZ2FuZF9wcmVwLm1hZScsICctbXMnLCAnMScsICctcGgnLCAnNycsICctcGh0JywgJzAuNScsICctbnQn

> <r_lp_tautomer_probability>
1

> <r_epik_Ionization_Penalty>
  0.1592

> <r_epik_Ionization_Penalty_Charging>
  0.1592

> <r_epik_Ionization_Penalty_Neutral>
  0.0000

> <r_epik_State_Penalty>
  0.1485

> <r_epik_Charging_Adjusted_Penalty>
0.30763659008225

> <i_epik_Tot_Q>
0

> <i_epik_Tot_abs_Q>
2

> <s_epik_Chemistry_Notes>
This compound contains an acetal/aminal-like group ( X-CH(R)-Y where X, Y are N, S, or O) that may be acid/base labile, releasing an aldehyde.

$$$$
