3zst_ligand
                    3D
 Schrodinger Suite 2020-3.
126132  0  0  1  0            999 V2000
  -17.7650   93.2790   20.7000 C   0  0  1  0  0  0
  -17.5940   94.7440   20.3850 C   0  0  1  0  0  0
  -16.2670   95.1810   20.9640 C   0  0  2  0  0  0
  -16.1140   94.8530   22.4610 C   0  0  1  0  0  0
  -16.5340   93.4170   22.9270 C   0  0  1  0  0  0
  -16.7880   93.3790   24.4620 C   0  0  0  0  0  0
  -16.7050   92.7520   19.8390 O   0  0  0  0  0  0
  -17.5510   94.8560   18.9430 O   0  0  0  0  0  0
  -16.1030   96.5600   20.7380 O   0  0  0  0  0  0
  -17.6970   92.9320   22.1650 O   0  0  0  0  0  0
  -18.0380   92.7260   24.7350 O   0  0  0  0  0  0
  -16.2620   89.3930   17.2920 C   0  0  1  0  0  0
  -16.6630   90.6960   16.5710 C   0  0  1  0  0  0
  -16.5320   91.9090   17.5410 C   0  0  2  0  0  0
  -17.1110   91.6400   18.9540 C   0  0  1  0  0  0
  -16.7530   90.2580   19.5410 C   0  0  1  0  0  0
  -17.5490   89.9930   20.8530 C   0  0  0  0  0  0
  -14.8360   89.4250   17.6380 O   0  0  0  0  0  0
  -15.8580   90.8520   15.3750 O   0  0  0  0  0  0
  -17.2210   93.0650   17.0640 O   0  0  0  0  0  0
  -17.0980   89.3140   18.4950 O   0  0  0  0  0  0
  -16.9380   88.9550   21.5880 O   0  0  0  0  0  0
  -11.0720   87.8110   17.1300 C   0  0  1  0  0  0
  -11.7290   88.2580   15.8000 C   0  0  1  0  0  0
  -12.9920   89.1010   16.0550 C   0  0  2  0  0  0
  -13.9520   88.4050   17.0790 C   0  0  1  0  0  0
  -13.2290   87.6730   18.2990 C   0  0  1  0  0  0
  -14.1600   86.7520   19.1700 C   0  0  0  0  0  0
  -10.6930   88.9330   17.9920 O   0  0  0  0  0  0
  -10.8010   88.9500   14.9400 O   0  0  0  0  0  0
  -13.6580   89.3700   14.8000 O   0  0  0  0  0  0
  -11.9960   86.9660   17.8960 O   0  0  0  0  0  0
  -14.0230   87.0070   20.5810 O   0  0  0  0  0  0
   -7.4350   90.3200   20.1360 C   0  0  1  0  0  0
   -7.2730   90.2480   18.5850 C   0  0  1  0  0  0
   -8.5990   89.9420   17.8780 C   0  0  2  0  0  0
   -9.3770   88.8270   18.5870 C   0  0  1  0  0  0
   -9.3980   88.9900   20.1350 C   0  0  1  0  0  0
  -10.2960   87.9270   20.8430 C   0  0  0  0  0  0
   -8.2850   91.4500   20.5100 O   0  0  0  0  0  0
   -6.8060   91.4910   18.0530 O   0  0  0  0  0  0
   -8.3920   89.5890   16.4980 O   0  0  0  0  0  0
   -8.0190   89.0830   20.6480 O   0  0  0  0  0  0
   -9.5490   86.7480   21.1750 O   0  0  0  0  0  0
   -9.2600   93.9990   23.8110 C   0  0  1  0  0  0
   -7.9570   94.2550   23.0660 C   0  0  1  0  0  0
   -8.1070   93.6130   21.6750 C   0  0  2  0  0  0
   -8.0330   92.0710   21.8070 C   0  0  1  0  0  0
   -9.0560   91.6020   22.9030 C   0  0  1  0  0  0
   -8.6250   90.2300   23.4780 C   0  0  0  0  0  0
  -10.3570   94.6270   23.0330 O   0  0  0  0  0  0
   -7.7120   95.6620   22.9870 O   0  0  0  0  0  0
   -7.1500   94.1290   20.7270 O   0  0  0  0  0  0
   -9.3440   92.5290   24.0460 O   0  0  0  0  0  0
   -9.5450   89.8230   24.4990 O   0  0  0  0  0  0
  -14.3440   95.7800   23.8410 C   0  0  1  0  0  0
  -13.3880   96.9160   23.4030 C   0  0  1  0  0  0
  -12.0140   96.3880   22.9430 C   0  0  2  0  0  0
  -11.4450   95.2470   23.8240 C   0  0  1  0  0  0
  -12.5620   94.2400   24.2750 C   0  0  1  0  0  0
  -12.1580   93.2380   25.3640 C   0  0  0  0  0  0
  -14.6970   94.9780   22.6790 O   0  0  0  0  0  0
  -13.9740   97.6420   22.3100 O   0  0  0  0  0  0
  -11.0910   97.4860   22.8890 O   0  0  0  0  0  0
  -13.7770   94.8910   24.8160 O   0  0  0  0  0  0
  -13.1760   93.2740   26.3870 O   0  0  0  0  0  0
  -18.7463   92.8325   20.4817 H   0  0  0  0  0  0
  -18.4156   95.3717   20.7605 H   0  0  0  0  0  0
  -15.4558   94.6879   20.4082 H   0  0  0  0  0  0
  -16.7210   95.5599   23.0457 H   0  0  0  0  0  0
  -15.7429   92.6926   22.6834 H   0  0  0  0  0  0
  -15.9747   92.8259   24.9546 H   0  0  0  0  0  0
  -16.8224   94.4064   24.8535 H   0  0  0  0  0  0
  -18.4312   94.5806   18.3435 H   0  0  0  0  0  0
  -16.1820   96.9633   19.7177 H   0  0  0  0  0  0
  -18.3817   92.6081   25.7733 H   0  0  0  0  0  0
  -16.3991   88.4818   16.6913 H   0  0  0  0  0  0
  -17.6935   90.6451   16.1895 H   0  0  0  0  0  0
  -15.4610   92.1586   17.5670 H   0  0  0  0  0  0
  -18.2099   91.6408   18.9057 H   0  0  0  0  0  0
  -15.6842   90.1346   19.7699 H   0  0  0  0  0  0
  -17.5643   90.9078   21.4637 H   0  0  0  0  0  0
  -18.5799   89.7012   20.6038 H   0  0  0  0  0  0
  -15.8585   90.0662   14.6053 H   0  0  0  0  0  0
  -16.9913   93.4700   16.0674 H   0  0  0  0  0  0
  -17.3686   88.6335   22.5478 H   0  0  0  0  0  0
  -10.1503   87.2558   16.9015 H   0  0  0  0  0  0
  -11.9921   87.3692   15.2077 H   0  0  0  0  0  0
  -12.7083   90.0936   16.4348 H   0  0  0  0  0  0
  -14.5477   87.6713   16.5161 H   0  0  0  0  0  0
  -12.8565   88.4658   18.9644 H   0  0  0  0  0  0
  -15.2104   86.9271   18.8944 H   0  0  0  0  0  0
  -13.9046   85.6973   18.9899 H   0  0  0  0  0  0
   -9.8476   88.4754   14.6646 H   0  0  0  0  0  0
  -13.1102   89.8573   13.9800 H   0  0  0  0  0  0
  -14.6185   86.4308   21.3044 H   0  0  0  0  0  0
   -6.4677   90.4561   20.6417 H   0  0  0  0  0  0
   -6.5084   89.4924   18.3514 H   0  0  0  0  0  0
   -9.1981   90.8641   17.8494 H   0  0  0  0  0  0
   -8.9704   87.8204   18.4095 H   0  0  0  0  0  0
   -9.8289   89.9624   20.4157 H   0  0  0  0  0  0
  -10.7063   88.3529   21.7705 H   0  0  0  0  0  0
  -11.1213   87.6405   20.1746 H   0  0  0  0  0  0
   -5.8595   91.9218   18.4116 H   0  0  0  0  0  0
   -7.8485   90.2740   15.8306 H   0  0  0  0  0  0
  -10.0456   85.9063   21.6799 H   0  0  0  0  0  0
   -9.3545   94.4529   24.8085 H   0  0  0  0  0  0
   -7.0699   93.8812   23.5984 H   0  0  0  0  0  0
   -9.0563   93.9217   21.2128 H   0  0  0  0  0  0
   -7.0174   91.7307   22.0577 H   0  0  0  0  0  0
  -10.0264   91.5820   22.3854 H   0  0  0  0  0  0
   -8.6192   89.4805   22.6729 H   0  0  0  0  0  0
   -7.6162   90.3134   23.9086 H   0  0  0  0  0  0
   -7.5840   96.2505   23.9075 H   0  0  0  0  0  0
   -7.0942   95.2107   20.5352 H   0  0  0  0  0  0
   -9.3973   88.8673   25.0233 H   0  0  0  0  0  0
  -15.2391   96.2046   24.3191 H   0  0  0  0  0  0
  -13.2620   97.6195   24.2392 H   0  0  0  0  0  0
  -12.1080   96.0015   21.9174 H   0  0  0  0  0  0
  -10.9894   95.6173   24.7542 H   0  0  0  0  0  0
  -12.8053   93.7184   23.3376 H   0  0  0  0  0  0
  -12.0875   92.2308   24.9275 H   0  0  0  0  0  0
  -11.1822   93.5252   25.7828 H   0  0  0  0  0  0
  -14.9644   98.1063   22.4263 H   0  0  0  0  0  0
  -11.3382   98.3841   22.3039 H   0  0  0  0  0  0
  -13.0887   92.6277   27.2728 H   0  0  0  0  0  0
  1  2  1  0  0  0
  1  7  1  0  0  0
  1 10  1  0  0  0
  1 67  1  0  0  0
  2  3  1  0  0  0
  2  8  1  0  0  0
  2 68  1  0  0  0
  3  4  1  0  0  0
  3  9  1  0  0  0
  3 69  1  0  0  0
  4  5  1  0  0  0
  4 62  1  0  0  0
  4 70  1  0  0  0
  5  6  1  0  0  0
  5 10  1  0  0  0
  5 71  1  0  0  0
  6 11  1  0  0  0
  6 72  1  0  0  0
  6 73  1  0  0  0
  7 15  1  0  0  0
  8 74  1  0  0  0
  9 75  1  0  0  0
 11 76  1  0  0  0
 12 13  1  0  0  0
 12 18  1  0  0  0
 12 21  1  0  0  0
 12 77  1  0  0  0
 13 14  1  0  0  0
 13 19  1  0  0  0
 13 78  1  0  0  0
 14 15  1  0  0  0
 14 20  1  0  0  0
 14 79  1  0  0  0
 15 16  1  0  0  0
 15 80  1  0  0  0
 16 17  1  0  0  0
 16 21  1  0  0  0
 16 81  1  0  0  0
 17 22  1  0  0  0
 17 82  1  0  0  0
 17 83  1  0  0  0
 18 26  1  0  0  0
 19 84  1  0  0  0
 20 85  1  0  0  0
 22 86  1  0  0  0
 23 24  1  0  0  0
 23 29  1  0  0  0
 23 32  1  0  0  0
 23 87  1  0  0  0
 24 25  1  0  0  0
 24 30  1  0  0  0
 24 88  1  0  0  0
 25 26  1  0  0  0
 25 31  1  0  0  0
 25 89  1  0  0  0
 26 27  1  0  0  0
 26 90  1  0  0  0
 27 28  1  0  0  0
 27 32  1  0  0  0
 27 91  1  0  0  0
 28 33  1  0  0  0
 28 92  1  0  0  0
 28 93  1  0  0  0
 29 37  1  0  0  0
 30 94  1  0  0  0
 31 95  1  0  0  0
 33 96  1  0  0  0
 34 35  1  0  0  0
 34 40  1  0  0  0
 34 43  1  0  0  0
 34 97  1  0  0  0
 35 36  1  0  0  0
 35 41  1  0  0  0
 35 98  1  0  0  0
 36 37  1  0  0  0
 36 42  1  0  0  0
 36 99  1  0  0  0
 37 38  1  0  0  0
 37100  1  0  0  0
 38 39  1  0  0  0
 38 43  1  0  0  0
 38101  1  0  0  0
 39 44  1  0  0  0
 39102  1  0  0  0
 39103  1  0  0  0
 40 48  1  0  0  0
 41104  1  0  0  0
 42105  1  0  0  0
 44106  1  0  0  0
 45 46  1  0  0  0
 45 51  1  0  0  0
 45 54  1  0  0  0
 45107  1  0  0  0
 46 47  1  0  0  0
 46 52  1  0  0  0
 46108  1  0  0  0
 47 48  1  0  0  0
 47 53  1  0  0  0
 47109  1  0  0  0
 48 49  1  0  0  0
 48110  1  0  0  0
 49 50  1  0  0  0
 49 54  1  0  0  0
 49111  1  0  0  0
 50 55  1  0  0  0
 50112  1  0  0  0
 50113  1  0  0  0
 51 59  1  0  0  0
 52114  1  0  0  0
 53115  1  0  0  0
 55116  1  0  0  0
 56 57  1  0  0  0
 56 62  1  0  0  0
 56 65  1  0  0  0
 56117  1  0  0  0
 57 58  1  0  0  0
 57 63  1  0  0  0
 57118  1  0  0  0
 58 59  1  0  0  0
 58 64  1  0  0  0
 58119  1  0  0  0
 59 60  1  0  0  0
 59120  1  0  0  0
 60 61  1  0  0  0
 60 65  1  0  0  0
 60121  1  0  0  0
 61 66  1  0  0  0
 61122  1  0  0  0
 61123  1  0  0  0
 63124  1  0  0  0
 64125  1  0  0  0
 66126  1  0  0  0
M  END
> <s_m_source_file>
../3zst_ligand.sdf

> <i_m_source_file_index>
1

> <s_epik_input>
W0NASF0xMltDQEhdKFtPSF0pW0NAQEhdKFtPSF0pW0NAQEhdKFtDQEhdKE8yKVtDSDJdW09IXSlPW0NAQEhdM1tDQEhdKFtPSF0pW0NAQEhdKFtPSF0pW0NAQEhdKFtDQEhdKE8zKVtDSDJdW09IXSlPW0NAQEhdNFtDQEhdKFtPSF0pW0NAQEhdKFtPSF0pW0NAQEhdKFtDQEhdKE80KVtDSDJdW09IXSlPW0NAQEhdNVtDQEhdKFtPSF0pW0NAQEhdKFtPSF0pW0NAQEhdKFtDQEhdKE81KVtDSDJdW09IXSlPW0NAQEhdNltDQEhdKFtPSF0pW0NAQEhdKFtPSF0pW0NAQEhdKFtDQEhdKE82KVtDSDJdW09IXSlPW0NAQEhdN1tDQEhdKFtPSF0pW0NAQEhdKFtPSF0pW0NASF0oTzEpW0NASF0oTzcpW0NIMl1bT0hd

> <s_epik_cmdline>
J2VwaWtfYXBwJywgJy1pbWFlJywgJ2xpZ2FuZF9wcm8ubWFlJywgJy1vbWFlJywgJ2xpZ2FuZF9wcmVwLm1hZScsICctbXMnLCAnMScsICctcGgnLCAnNycsICctcGh0JywgJzAuNScsICctbnQn

> <r_lp_tautomer_probability>
1

> <r_epik_Ionization_Penalty>
  0.0000

> <r_epik_Ionization_Penalty_Charging>
  0.0000

> <r_epik_Ionization_Penalty_Neutral>
  0.0000

> <r_epik_State_Penalty>
 -0.0000

> <r_epik_Charging_Adjusted_Penalty>
0

> <i_epik_Tot_Q>
0

> <i_epik_Tot_abs_Q>
0

> <s_epik_Chemistry_Notes>
This compound contains an acetal/aminal-like group ( X-CH(R)-Y where X, Y are N, S, or O) that may be acid/base labile, releasing an aldehyde.

$$$$
