3zsw_ligand
                    3D
 Schrodinger Suite 2020-3.
 70 72  0  0  1  0            999 V2000
   -9.8260   47.5920    4.8750 C   0  0  0  0  0  0
  -10.6750   48.5200    4.3070 C   0  0  0  0  0  0
   -8.9890   46.8430    4.0750 C   0  0  0  0  0  0
  -10.6940   48.6950    2.9370 C   0  0  0  0  0  0
  -11.6330   44.9920   -2.2660 C   0  0  0  0  0  0
  -12.5450   44.5530   -3.2070 C   0  0  0  0  0  0
   -9.0170   47.0180    2.7100 C   0  0  0  0  0  0
  -13.3940   45.4970   -0.6970 C   0  0  0  0  0  0
   -9.8700   47.9430    2.1260 C   0  0  0  0  0  0
  -12.0410   45.4570   -1.0260 C   0  0  0  0  0  0
  -13.8830   44.6010   -2.8810 C   0  0  0  0  0  0
  -14.3130   45.0460   -1.6400 C   0  0  0  0  0  0
  -10.3760   49.9850   -2.4190 C   0  0  0  0  0  0
  -10.4640   48.6840   -2.1250 C   0  0  0  0  0  0
   -8.1180   46.1620    1.9080 C   0  0  0  0  0  0
  -13.8480   45.9580    0.6430 C   0  0  0  0  0  0
  -16.8830   45.5580   -6.4420 C   0  0  0  0  0  0
   -9.0980   42.4120    0.4650 C   0  0  0  0  0  0
   -7.7440   43.0790    0.5610 C   0  0  0  0  0  0
   -7.5000   43.6490    1.9370 C   0  0  1  0  0  0
   -6.0170   43.8260    2.1850 C   0  0  0  0  0  0
  -16.4880   44.3990   -2.2340 C   0  0  0  0  0  0
  -16.0540   44.6830   -3.6480 C   0  0  2  0  0  0
   -9.9400   48.1690    0.6530 C   0  0  0  0  0  0
  -10.9850   45.9470   -0.0810 C   0  0  0  0  0  0
  -11.5350   48.1780   -1.2430 C   0  0  0  0  0  0
  -16.5820   44.1220   -6.0450 C   0  0  0  0  0  0
  -17.0270   44.0090   -4.6020 C   0  0  0  0  0  0
   -8.2960   44.8310    2.2410 N   0  0  0  0  0  0
  -11.0820   47.4660   -0.0040 N   0  3  2  0  0  0
  -14.7060   45.2140    1.2190 O   0  5  0  0  0  0
  -17.9390   46.0780   -5.9920 O   0  5  0  0  0  0
   -7.3930   46.6350    1.0500 O   0  0  0  0  0  0
  -13.3090   46.9650    1.1780 O   0  0  0  0  0  0
  -16.0200   46.0890   -7.1910 O   0  0  0  0  0  0
  -15.6670   45.1100   -1.3110 O   0  0  0  0  0  0
  -14.7520   44.1530   -3.8440 O   0  0  0  0  0  0
   -9.8171   47.4511    5.9558 H   0  0  0  0  0  0
  -11.3318   49.1160    4.9407 H   0  0  0  0  0  0
   -8.3094   46.1168    4.5209 H   0  0  0  0  0  0
  -11.3642   49.4318    2.4942 H   0  0  0  0  0  0
  -10.5696   44.9720   -2.5044 H   0  0  0  0  0  0
  -12.2161   44.1803   -4.1771 H   0  0  0  0  0  0
  -11.1069   50.6937   -2.0024 H   0  0  0  0  0  0
   -9.5726   50.3469   -3.0775 H   0  0  0  0  0  0
   -9.7331   47.9753   -2.5416 H   0  0  0  0  0  0
   -9.2378   42.0105   -0.5495 H   0  0  0  0  0  0
   -9.8858   43.1491    0.6795 H   0  0  0  0  0  0
   -9.1550   41.5913    1.1952 H   0  0  0  0  0  0
   -6.9562   42.3419    0.3465 H   0  0  0  0  0  0
   -7.6869   43.8997   -0.1692 H   0  0  0  0  0  0
   -7.8982   42.9398    2.6776 H   0  0  0  0  0  0
   -5.4893   42.8944    1.9328 H   0  0  0  0  0  0
   -5.8487   44.0673    3.2449 H   0  0  0  0  0  0
   -5.6355   44.6449    1.5575 H   0  0  0  0  0  0
  -17.5333   44.7145   -2.1009 H   0  0  0  0  0  0
  -16.4021   43.3208   -2.0336 H   0  0  0  0  0  0
  -15.9778   45.7635   -3.8397 H   0  0  0  0  0  0
  -10.0559   49.2443    0.4521 H   0  0  0  0  0  0
   -9.0148   47.8056    0.1819 H   0  0  0  0  0  0
  -11.1502   45.5069    0.9135 H   0  0  0  0  0  0
   -9.9934   45.6501   -0.4533 H   0  0  0  0  0  0
  -12.1575   49.0187   -0.9026 H   0  0  0  0  0  0
  -12.1584   47.4611   -1.7974 H   0  0  0  0  0  0
  -17.1433   43.4361   -6.6966 H   0  0  0  0  0  0
  -15.5042   43.9301   -6.1524 H   0  0  0  0  0  0
  -17.1061   42.9410   -4.3510 H   0  0  0  0  0  0
  -18.0163   44.4813   -4.5110 H   0  0  0  0  0  0
   -9.2167   44.7361    2.8355 H   0  0  0  0  0  0
  -11.9206   47.5770    0.6991 H   0  0  0  0  0  0
  1  2  2  0  0  0
  1  3  1  0  0  0
  1 38  1  0  0  0
  2  4  1  0  0  0
  2 39  1  0  0  0
  3  7  2  0  0  0
  3 40  1  0  0  0
  4  9  2  0  0  0
  4 41  1  0  0  0
  5  6  2  0  0  0
  5 10  1  0  0  0
  5 42  1  0  0  0
  6 11  1  0  0  0
  6 43  1  0  0  0
  7  9  1  0  0  0
  7 15  1  0  0  0
  8 10  2  0  0  0
  8 12  1  0  0  0
  8 16  1  0  0  0
  9 24  1  0  0  0
 10 25  1  0  0  0
 11 12  2  0  0  0
 11 37  1  0  0  0
 12 36  1  0  0  0
 13 14  2  0  0  0
 13 44  1  0  0  0
 13 45  1  0  0  0
 14 26  1  0  0  0
 14 46  1  0  0  0
 15 29  1  0  0  0
 15 33  2  0  0  0
 16 31  1  0  0  0
 16 34  2  0  0  0
 17 27  1  0  0  0
 17 32  1  0  0  0
 17 35  2  0  0  0
 18 19  1  0  0  0
 18 47  1  0  0  0
 18 48  1  0  0  0
 18 49  1  0  0  0
 19 20  1  0  0  0
 19 50  1  0  0  0
 19 51  1  0  0  0
 20 21  1  0  0  0
 20 29  1  0  0  0
 20 52  1  0  0  0
 21 53  1  0  0  0
 21 54  1  0  0  0
 21 55  1  0  0  0
 22 23  1  0  0  0
 22 36  1  0  0  0
 22 56  1  0  0  0
 22 57  1  0  0  0
 23 28  1  0  0  0
 23 37  1  0  0  0
 23 58  1  0  0  0
 24 30  1  0  0  0
 24 59  1  0  0  0
 24 60  1  0  0  0
 25 30  1  0  0  0
 25 61  1  0  0  0
 25 62  1  0  0  0
 26 30  1  0  0  0
 26 63  1  0  0  0
 26 64  1  0  0  0
 27 28  1  0  0  0
 27 65  1  0  0  0
 27 66  1  0  0  0
 28 67  1  0  0  0
 28 68  1  0  0  0
 29 69  1  0  0  0
 30 70  1  0  0  0
M  CHG  3  30   1  31  -1  32  -1
M  END
> <s_m_source_file>
../3zsw_ligand.sdf

> <i_m_source_file_index>
1

> <s_epik_input>
W0NIM11bQ0gyXVtDQEBIXShbQ0gzXSlbTkhdQyg9TyljMVtjSF1bY0hdW2NIXVtjSF1jMVtDSDJdW05AQEgrXShbQ0gyXVtDSF09W0NIMl0pW0NIMl1jKFtjSF1bY0hdMiljKEMoPU8pW09IXSljKGMyMylPW0NIMl1bQ0BASF0oTzMpW0NIMl1bQ0gyXUMoPU8pW09IXQ==

> <s_epik_cmdline>
J2VwaWtfYXBwJywgJy1pbWFlJywgJ2xpZ2FuZF9wcm8ubWFlJywgJy1vbWFlJywgJ2xpZ2FuZF9wcmVwLm1hZScsICctbXMnLCAnMScsICctcGgnLCAnNycsICctcGh0JywgJzAuNScsICctbnQn

> <r_epik_Ionization_Penalty>
  0.1591

> <r_epik_Ionization_Penalty_Charging>
  0.1591

> <r_epik_Ionization_Penalty_Neutral>
  0.0000

> <r_epik_State_Penalty>
  0.1462

> <r_epik_Charging_Adjusted_Penalty>
0.305282870902932

> <i_epik_Tot_Q>
-1

> <i_epik_Tot_abs_Q>
3

$$$$
