3zsy_ligand
                    3D
 Schrodinger Suite 2020-3.
 62 65  0  0  1  0            999 V2000
  -10.7620   47.9740    5.9960 C   0  0  0  0  0  0
  -11.6040   48.8670    5.3900 C   0  0  0  0  0  0
   -9.8120   47.3360    5.2180 C   0  0  0  0  0  0
  -11.4940   49.0920    4.0320 C   0  0  0  0  0  0
  -11.5710   45.5560   -1.4770 C   0  0  0  0  0  0
  -12.3420   44.9120   -2.4300 C   0  0  0  0  0  0
   -9.6870   47.5650    3.8570 C   0  0  0  0  0  0
  -13.4090   45.6030    0.0840 C   0  0  0  0  0  0
  -10.5510   48.4650    3.2520 C   0  0  0  0  0  0
  -12.0790   45.8970   -0.2310 C   0  0  0  0  0  0
  -13.6500   44.6310   -2.1100 C   0  0  0  0  0  0
  -14.1690   44.9640   -0.8950 C   0  0  0  0  0  0
   -8.6240   46.8240    3.0990 C   0  0  0  0  0  0
  -14.0140   45.9130    1.4150 C   0  0  0  0  0  0
   -8.7120   41.7900   -0.2290 C   0  0  0  0  0  0
   -9.6870   42.7990    0.3090 C   0  0  0  0  0  0
   -7.9070   41.3130    0.9540 C   0  0  0  0  0  0
   -8.9180   43.9910    0.8430 C   0  0  0  0  0  0
   -7.1360   42.4740    1.5640 C   0  0  0  0  0  0
  -15.7000   43.9590   -2.0820 C   0  0  0  0  0  0
   -8.1020   43.5380    2.0300 C   0  0  0  0  0  0
  -11.6600   48.7800   -0.3750 C   0  0  0  0  0  0
  -10.5150   48.8040    1.7950 C   0  0  0  0  0  0
  -11.1300   46.5880    0.7200 C   0  0  0  0  0  0
   -7.4440   44.7240    2.7340 C   0  0  0  0  0  0
   -8.4910   45.4950    3.3790 N   0  0  0  0  0  0
  -11.4530   48.0530    0.9100 N   0  3  2  0  0  0
  -14.9650   45.1730    1.8120 O   0  5  0  0  0  0
   -7.9110   47.3540    2.2670 O   0  0  0  0  0  0
  -13.5220   46.8350    2.1100 O   0  0  0  0  0  0
  -14.5530   44.0200   -2.9320 O   0  0  0  0  0  0
  -15.4970   44.5850   -0.8100 O   0  0  0  0  0  0
  -10.8379   47.7706    7.0642 H   0  0  0  0  0  0
  -12.3558   49.3966    5.9751 H   0  0  0  0  0  0
   -9.1359   46.6259    5.6941 H   0  0  0  0  0  0
  -12.1814   49.7939    3.5600 H   0  0  0  0  0  0
  -10.5355   45.8022   -1.7120 H   0  0  0  0  0  0
  -11.9270   44.6373   -3.3998 H   0  0  0  0  0  0
   -9.2631   40.9594   -0.6941 H   0  0  0  0  0  0
   -8.0667   42.2682   -0.9806 H   0  0  0  0  0  0
  -10.3614   43.1232   -0.4972 H   0  0  0  0  0  0
  -10.2760   42.3441    1.1190 H   0  0  0  0  0  0
   -8.5836   40.8911    1.7118 H   0  0  0  0  0  0
   -7.1962   40.5402    0.6262 H   0  0  0  0  0  0
   -8.2548   44.3814    0.0571 H   0  0  0  0  0  0
   -9.6249   44.7760    1.1496 H   0  0  0  0  0  0
   -6.5487   42.1139    2.4216 H   0  0  0  0  0  0
   -6.4590   42.9013    0.8096 H   0  0  0  0  0  0
  -16.5452   44.4667   -2.5697 H   0  0  0  0  0  0
  -15.9625   42.9072   -1.8952 H   0  0  0  0  0  0
   -8.7495   43.0772    2.7905 H   0  0  0  0  0  0
  -11.8902   49.8352   -0.1663 H   0  0  0  0  0  0
  -12.4970   48.3236   -0.9237 H   0  0  0  0  0  0
  -10.7455   48.7175   -0.9830 H   0  0  0  0  0  0
  -10.7626   49.8672    1.6597 H   0  0  0  0  0  0
   -9.5080   48.6087    1.3978 H   0  0  0  0  0  0
  -11.1807   46.1025    1.7058 H   0  0  0  0  0  0
  -10.1041   46.5184    0.3293 H   0  0  0  0  0  0
   -6.7268   44.3546    3.4818 H   0  0  0  0  0  0
   -6.9158   45.3428    1.9937 H   0  0  0  0  0  0
   -9.1738   45.0078    4.0907 H   0  0  0  0  0  0
  -12.4128   48.0412    1.4473 H   0  0  0  0  0  0
  1  2  2  0  0  0
  1  3  1  0  0  0
  1 33  1  0  0  0
  2  4  1  0  0  0
  2 34  1  0  0  0
  3  7  2  0  0  0
  3 35  1  0  0  0
  4  9  2  0  0  0
  4 36  1  0  0  0
  5  6  2  0  0  0
  5 10  1  0  0  0
  5 37  1  0  0  0
  6 11  1  0  0  0
  6 38  1  0  0  0
  7  9  1  0  0  0
  7 13  1  0  0  0
  8 10  2  0  0  0
  8 12  1  0  0  0
  8 14  1  0  0  0
  9 23  1  0  0  0
 10 24  1  0  0  0
 11 12  2  0  0  0
 11 31  1  0  0  0
 12 32  1  0  0  0
 13 26  1  0  0  0
 13 29  2  0  0  0
 14 28  1  0  0  0
 14 30  2  0  0  0
 15 16  1  0  0  0
 15 17  1  0  0  0
 15 39  1  0  0  0
 15 40  1  0  0  0
 16 18  1  0  0  0
 16 41  1  0  0  0
 16 42  1  0  0  0
 17 19  1  0  0  0
 17 43  1  0  0  0
 17 44  1  0  0  0
 18 21  1  0  0  0
 18 45  1  0  0  0
 18 46  1  0  0  0
 19 21  1  0  0  0
 19 47  1  0  0  0
 19 48  1  0  0  0
 20 31  1  0  0  0
 20 32  1  0  0  0
 20 49  1  0  0  0
 20 50  1  0  0  0
 21 25  1  0  0  0
 21 51  1  0  0  0
 22 27  1  0  0  0
 22 52  1  0  0  0
 22 53  1  0  0  0
 22 54  1  0  0  0
 23 27  1  0  0  0
 23 55  1  0  0  0
 23 56  1  0  0  0
 24 27  1  0  0  0
 24 57  1  0  0  0
 24 58  1  0  0  0
 25 26  1  0  0  0
 25 59  1  0  0  0
 25 60  1  0  0  0
 26 61  1  0  0  0
 27 62  1  0  0  0
M  CHG  2  27   1  28  -1
M  END
> <s_m_source_file>
../3zsy_ligand.sdf

> <i_m_source_file_index>
1

> <s_epik_input>
W0NIMl0xW0NIMl1bQ0gyXVtDSDJdW0NIMl1bQ0hdMVtDSDJdW05IXUMoPU8pYzJbY0hdW2NIXVtjSF1bY0hdYzJbQ0gyXVtOQEBIK10oW0NIM10pW0NIMl1jKFtjSF1bY0hdMyljKEMoPU8pW09IXSljKGMzNClPW0NIMl1PNA==

> <s_epik_cmdline>
J2VwaWtfYXBwJywgJy1pbWFlJywgJ2xpZ2FuZF9wcm8ubWFlJywgJy1vbWFlJywgJ2xpZ2FuZF9wcmVwLm1hZScsICctbXMnLCAnMScsICctcGgnLCAnNycsICctcGh0JywgJzAuNScsICctbnQn

> <r_epik_Ionization_Penalty>
  0.1574

> <r_epik_Ionization_Penalty_Charging>
  0.1574

> <r_epik_Ionization_Penalty_Neutral>
  0.0000

> <r_epik_State_Penalty>
  0.1466

> <r_epik_Charging_Adjusted_Penalty>
0.303973168354937

> <i_epik_Tot_Q>
0

> <i_epik_Tot_abs_Q>
2

> <s_epik_Chemistry_Notes>
This compound contains an acetal/aminal-like group ( X-CH(R)-Y where X, Y are N, S, or O) that may be acid/base labile, releasing an aldehyde.

$$$$
