3zsz_ligand
                    3D
 Schrodinger Suite 2020-3.
 55 57  0  0  1  0            999 V2000
   10.2620  -48.0120    6.2140 C   0  0  0  0  0  0
   11.0820  -48.8570    5.4910 C   0  0  0  0  0  0
    9.2760  -47.2570    5.5920 C   0  0  0  0  0  0
   10.8970  -48.9370    4.1200 C   0  0  0  0  0  0
   11.3250  -44.9980   -0.9090 C   0  0  0  0  0  0
   12.1910  -44.5200   -1.8840 C   0  0  0  0  0  0
    9.0970  -47.3250    4.2200 C   0  0  0  0  0  0
   13.1900  -45.5680    0.5200 C   0  0  0  0  0  0
    9.9140  -48.1800    3.4960 C   0  0  0  0  0  0
   11.8080  -45.5270    0.2880 C   0  0  0  0  0  0
   13.5540  -44.5660   -1.6450 C   0  0  0  0  0  0
   14.0410  -45.0710   -0.4730 C   0  0  0  0  0  0
    8.0380  -46.5020    3.5090 C   0  0  0  0  0  0
   13.7490  -46.1020    1.8010 C   0  0  0  0  0  0
   15.7280  -44.2460   -1.6520 C   0  0  0  0  0  0
    7.9040  -42.1320    1.4780 C   0  0  0  0  0  0
    6.1730  -43.5540    3.4870 C   0  0  0  0  0  0
   10.9630  -48.2390   -0.0680 C   0  0  0  0  0  0
    9.7360  -48.2680    2.0130 C   0  0  0  0  0  0
   10.8210  -46.0610    1.3010 C   0  0  0  0  0  0
    8.4550  -43.1240    2.4500 C   0  0  0  0  0  0
    7.4270  -44.1730    2.8620 C   0  0  1  0  0  0
    8.0350  -45.1340    3.7710 N   0  0  0  0  0  0
   10.8180  -47.5770    1.2740 N   0  3  2  0  0  0
   14.7890  -45.5190    2.2480 O   0  5  0  0  0  0
    7.2350  -47.0020    2.7250 O   0  0  0  0  0  0
   13.1430  -47.0500    2.3700 O   0  0  0  0  0  0
   14.5680  -44.1390   -2.4920 O   0  0  0  0  0  0
   15.4380  -45.0110   -0.4540 O   0  0  0  0  0  0
   10.3915  -47.9364    7.2936 H   0  0  0  0  0  0
   11.8544  -49.4454    5.9862 H   0  0  0  0  0  0
    8.6375  -46.6054    6.1885 H   0  0  0  0  0  0
   11.5278  -49.5991    3.5268 H   0  0  0  0  0  0
   10.2495  -44.9591   -1.0821 H   0  0  0  0  0  0
   11.8048  -44.1162   -2.8199 H   0  0  0  0  0  0
   16.5351  -44.7500   -2.2039 H   0  0  0  0  0  0
   16.0596  -43.2401   -1.3549 H   0  0  0  0  0  0
    8.6846  -41.4024    1.2165 H   0  0  0  0  0  0
    7.0502  -41.6084    1.9328 H   0  0  0  0  0  0
    7.5716  -42.6549    0.5691 H   0  0  0  0  0  0
    5.7310  -42.8325    2.7841 H   0  0  0  0  0  0
    6.4447  -43.0380    4.4197 H   0  0  0  0  0  0
    5.4428  -44.3470    3.7060 H   0  0  0  0  0  0
   10.9448  -49.3316    0.0583 H   0  0  0  0  0  0
   11.9179  -47.9384   -0.5239 H   0  0  0  0  0  0
   10.1324  -47.9314   -0.7202 H   0  0  0  0  0  0
    9.7350  -49.3243    1.7059 H   0  0  0  0  0  0
    8.7801  -47.8030    1.7302 H   0  0  0  0  0  0
   11.1058  -45.7178    2.3065 H   0  0  0  0  0  0
    9.8128  -45.6931    1.0599 H   0  0  0  0  0  0
    9.3088  -43.6476    1.9952 H   0  0  0  0  0  0
    8.7874  -42.6011    3.3589 H   0  0  0  0  0  0
    7.1225  -44.7365    1.9677 H   0  0  0  0  0  0
    8.5121  -44.7871    4.6995 H   0  0  0  0  0  0
   11.7441  -47.7386    1.8451 H   0  0  0  0  0  0
  1  2  2  0  0  0
  1  3  1  0  0  0
  1 30  1  0  0  0
  2  4  1  0  0  0
  2 31  1  0  0  0
  3  7  2  0  0  0
  3 32  1  0  0  0
  4  9  2  0  0  0
  4 33  1  0  0  0
  5  6  2  0  0  0
  5 10  1  0  0  0
  5 34  1  0  0  0
  6 11  1  0  0  0
  6 35  1  0  0  0
  7  9  1  0  0  0
  7 13  1  0  0  0
  8 10  2  0  0  0
  8 12  1  0  0  0
  8 14  1  0  0  0
  9 19  1  0  0  0
 10 20  1  0  0  0
 11 12  2  0  0  0
 11 28  1  0  0  0
 12 29  1  0  0  0
 13 23  1  0  0  0
 13 26  2  0  0  0
 14 25  1  0  0  0
 14 27  2  0  0  0
 15 28  1  0  0  0
 15 29  1  0  0  0
 15 36  1  0  0  0
 15 37  1  0  0  0
 16 21  1  0  0  0
 16 38  1  0  0  0
 16 39  1  0  0  0
 16 40  1  0  0  0
 17 22  1  0  0  0
 17 41  1  0  0  0
 17 42  1  0  0  0
 17 43  1  0  0  0
 18 24  1  0  0  0
 18 44  1  0  0  0
 18 45  1  0  0  0
 18 46  1  0  0  0
 19 24  1  0  0  0
 19 47  1  0  0  0
 19 48  1  0  0  0
 20 24  1  0  0  0
 20 49  1  0  0  0
 20 50  1  0  0  0
 21 22  1  0  0  0
 21 51  1  0  0  0
 21 52  1  0  0  0
 22 23  1  0  0  0
 22 53  1  0  0  0
 23 54  1  0  0  0
 24 55  1  0  0  0
M  CHG  2  24   1  25  -1
M  END
> <s_m_source_file>
../3zsz_ligand.sdf

> <i_m_source_file_index>
1

> <s_epik_input>
W0NIM11bQ0gyXVtDQEhdKFtDSDNdKVtOSF1DKD1PKWMxW2NIXVtjSF1bY0hdW2NIXWMxW0NIMl1bTkBASCtdKFtDSDNdKVtDSDJdYyhbY0hdW2NIXTIpYyhDKD1PKVtPSF0pYyhjMjMpT1tDSDJdTzM=

> <s_epik_cmdline>
J2VwaWtfYXBwJywgJy1pbWFlJywgJ2xpZ2FuZF9wcm8ubWFlJywgJy1vbWFlJywgJ2xpZ2FuZF9wcmVwLm1hZScsICctbXMnLCAnMScsICctcGgnLCAnNycsICctcGh0JywgJzAuNScsICctbnQn

> <r_epik_Ionization_Penalty>
  0.1570

> <r_epik_Ionization_Penalty_Charging>
  0.1570

> <r_epik_Ionization_Penalty_Neutral>
  0.0000

> <r_epik_State_Penalty>
  0.1462

> <r_epik_Charging_Adjusted_Penalty>
0.303177529192173

> <i_epik_Tot_Q>
0

> <i_epik_Tot_abs_Q>
2

> <s_epik_Chemistry_Notes>
This compound contains an acetal/aminal-like group ( X-CH(R)-Y where X, Y are N, S, or O) that may be acid/base labile, releasing an aldehyde.

$$$$
