3zt4_ligand
                    3D
 Schrodinger Suite 2020-3.
 34 37  0  0  1  0            999 V2000
  -30.9510   28.6030    0.5720 C   0  0  0  0  0  0
  -31.2390   27.4250   -0.1160 C   0  0  0  0  0  0
  -31.7660   29.7180    0.4890 C   0  0  0  0  0  0
  -33.1480   32.1580    1.9860 C   0  0  0  0  0  0
  -32.3740   27.3410   -0.9090 C   0  0  0  0  0  0
  -32.4090   32.7920    2.9750 C   0  0  0  0  0  0
  -32.8820   29.6070   -0.3030 C   0  0  0  0  0  0
  -33.2760   32.6720    0.6930 C   0  0  0  0  0  0
  -32.6590   33.8890    0.3730 C   0  0  0  0  0  0
  -33.1830   28.4480   -0.9870 C   0  0  0  0  0  0
  -31.8190   33.9790    2.6350 C   0  0  0  0  0  0
  -31.9300   34.5220    1.3810 C   0  0  0  0  0  0
  -33.9200   30.5820   -0.5990 C   0  0  0  0  0  0
  -34.8980   29.9230   -1.4930 C   0  0  0  0  0  0
  -34.1080   31.8690   -0.2350 C   0  0  0  0  0  0
  -32.7330   34.5380   -0.9590 C   0  0  0  0  0  0
  -34.4520   28.5300   -1.8060 C   0  0  0  0  0  0
  -30.5480   35.7630    2.5580 C   0  0  0  0  0  0
  -31.7150   35.1340   -1.3570 O   0  0  0  0  0  0
  -35.9360   30.4300   -1.8880 O   0  0  0  0  0  0
  -33.8010   34.4940   -1.6110 O   0  5  0  0  0  0
  -31.0610   34.7410    3.4520 O   0  0  0  0  0  0
  -31.2260   35.7450    1.2880 O   0  0  0  0  0  0
  -30.0569   28.6468    1.1939 H   0  0  0  0  0  0
  -30.5708   26.5681   -0.0305 H   0  0  0  0  0  0
  -31.5338   30.6381    1.0253 H   0  0  0  0  0  0
  -33.6491   31.2207    2.2278 H   0  0  0  0  0  0
  -32.6156   26.4272   -1.4519 H   0  0  0  0  0  0
  -32.3038   32.3658    3.9727 H   0  0  0  0  0  0
  -34.9582   32.4368   -0.6409 H   0  0  0  0  0  0
  -34.2137   28.3718   -2.8682 H   0  0  0  0  0  0
  -35.1566   27.7555   -1.4690 H   0  0  0  0  0  0
  -30.6906   36.7540    3.0137 H   0  0  0  0  0  0
  -29.4759   35.5914    2.3817 H   0  0  0  0  0  0
  1  2  2  0  0  0
  1  3  1  0  0  0
  1 24  1  0  0  0
  2  5  1  0  0  0
  2 25  1  0  0  0
  3  7  2  0  0  0
  3 26  1  0  0  0
  4  6  2  0  0  0
  4  8  1  0  0  0
  4 27  1  0  0  0
  5 10  2  0  0  0
  5 28  1  0  0  0
  6 11  1  0  0  0
  6 29  1  0  0  0
  7 10  1  0  0  0
  7 13  1  0  0  0
  8  9  2  0  0  0
  8 15  1  0  0  0
  9 12  1  0  0  0
  9 16  1  0  0  0
 10 17  1  0  0  0
 11 12  2  0  0  0
 11 22  1  0  0  0
 12 23  1  0  0  0
 13 14  1  0  0  0
 13 15  2  0  0  0
 14 17  1  0  0  0
 14 20  2  0  0  0
 15 30  1  0  0  0
 16 19  2  0  0  0
 16 21  1  0  0  0
 17 31  1  0  0  0
 17 32  1  0  0  0
 18 22  1  0  0  0
 18 23  1  0  0  0
 18 33  1  0  0  0
 18 34  1  0  0  0
M  CHG  1  21  -1
M  END
> <s_m_source_file>
../3zt4_ligand.sdf

> <i_m_source_file_index>
1

> <s_epik_input>
W2NIXTFbY0hdW2NIXVtjSF1jKGMxMilbQ0gyXUMoPU8pQ1wyPVtDSF1cYyhbY0hdW2NIXTMpYyhDKD1PKVtPSF0pYyhjMzQpT1tDSDJdTzQ=

> <s_epik_cmdline>
J2VwaWtfYXBwJywgJy1pbWFlJywgJ2xpZ2FuZF9wcm8ubWFlJywgJy1vbWFlJywgJ2xpZ2FuZF9wcmVwLm1hZScsICctbXMnLCAnMScsICctcGgnLCAnNycsICctcGh0JywgJzAuNScsICctbnQn

> <r_lp_tautomer_probability>
1

> <r_epik_Ionization_Penalty>
  0.0003

> <r_epik_Ionization_Penalty_Charging>
  0.0003

> <r_epik_Ionization_Penalty_Neutral>
  0.0000

> <r_epik_State_Penalty>
 -0.0000

> <r_epik_Charging_Adjusted_Penalty>
0.000277842626884592

> <i_epik_Tot_Q>
-1

> <i_epik_Tot_abs_Q>
1

> <s_epik_Chemistry_Notes>
This compound contains an acetal/aminal-like group ( X-CH(R)-Y where X, Y are N, S, or O) that may be acid/base labile, releasing an aldehyde.

$$$$
