3ztd_ligand
                    3D
 Schrodinger Suite 2020-3.
 52 54  0  0  1  0            999 V2000
  -56.7560   10.6350    5.4820 C   0  0  0  0  0  0
  -56.3720   11.6950    4.4410 C   0  0  0  0  0  0
  -55.1100   11.9720    4.0890 C   0  0  0  0  0  0
  -57.2640   12.4560    3.7980 N   0  0  0  0  0  0
  -56.5070   13.2520    2.9820 O   0  0  0  0  0  0
  -55.1540   12.9460    3.1880 C   0  0  0  0  0  0
  -53.9740   13.6390    2.4240 C   0  0  0  0  0  0
  -54.1200   13.2700    0.8960 C   0  0  0  0  0  0
  -53.9750   12.0930    0.5890 O   0  0  0  0  0  0
  -54.4500   14.1080   -0.1210 N   0  0  0  0  0  0
  -54.8700   15.5030    0.0140 C   0  0  0  0  0  0
  -55.8260   15.6990   -1.1830 C   0  0  2  0  0  0
  -57.1530   15.1540   -0.9350 O   0  0  0  0  0  0
  -55.0980   14.9200   -2.2620 C   0  0  0  0  0  0
  -54.6930   13.6720   -1.5060 C   0  0  1  0  0  0
  -53.4320   13.0760   -2.0730 C   0  0  0  0  0  0
  -52.3560   13.6000   -1.7870 O   0  0  0  0  0  0
  -53.6010   11.9660   -2.8200 N   0  0  0  0  0  0
  -52.4890   11.1660   -3.3910 C   0  0  0  0  0  0
  -51.9520   11.7350   -4.6990 C   0  0  0  0  0  0
  -52.7700   12.5080   -5.5430 C   0  0  0  0  0  0
  -52.2280   13.0170   -6.7380 C   0  0  0  0  0  0
  -50.6170   11.4850   -5.0650 C   0  0  0  0  0  0
  -50.0810   12.0000   -6.2560 C   0  0  0  0  0  0
  -50.8950   12.7570   -7.1020 C   0  0  0  0  0  0
  -50.3340   13.3330   -8.4100 C   0  0  0  0  0  0
  -48.6400   12.7770  -10.2080 C   0  0  0  0  0  0
  -50.9670   14.2330   -8.9780 O   0  0  0  0  0  0
  -49.0730   12.9080   -8.8280 O   0  0  0  0  0  0
  -55.8459   10.1484    5.8627 H   0  0  0  0  0  0
  -57.4068    9.8812    5.0148 H   0  0  0  0  0  0
  -57.2906   11.1156    6.3146 H   0  0  0  0  0  0
  -54.2120   11.4870    4.4718 H   0  0  0  0  0  0
  -54.0355   14.7282    2.5649 H   0  0  0  0  0  0
  -53.0154   13.2717    2.8192 H   0  0  0  0  0  0
  -55.3727   15.6425    0.9824 H   0  0  0  0  0  0
  -53.9881   16.1583   -0.0390 H   0  0  0  0  0  0
  -56.0709   16.7416   -1.4340 H   0  0  0  0  0  0
  -57.8038   15.6143   -0.1770 H   0  0  0  0  0  0
  -55.7854   14.7205   -3.0972 H   0  0  0  0  0  0
  -54.2418   15.5079   -2.6243 H   0  0  0  0  0  0
  -55.4741   12.8987   -1.5501 H   0  0  0  0  0  0
  -54.6436   11.6635   -2.9972 H   0  0  0  0  0  0
  -51.6548   11.1340   -2.6747 H   0  0  0  0  0  0
  -52.8390   10.1427   -3.5921 H   0  0  0  0  0  0
  -53.8073   12.7096   -5.2757 H   0  0  0  0  0  0
  -52.8530   13.6238   -7.3932 H   0  0  0  0  0  0
  -49.9873   10.8805   -4.4121 H   0  0  0  0  0  0
  -49.0400   11.8110   -6.5180 H   0  0  0  0  0  0
  -47.5991   12.4223  -10.2336 H   0  0  0  0  0  0
  -48.7066   13.7548  -10.7076 H   0  0  0  0  0  0
  -49.2864   12.0547  -10.7281 H   0  0  0  0  0  0
  1  2  1  0  0  0
  1 30  1  0  0  0
  1 31  1  0  0  0
  1 32  1  0  0  0
  2  3  1  0  0  0
  2  4  2  0  0  0
  3  6  2  0  0  0
  3 33  1  0  0  0
  4  5  1  0  0  0
  5  6  1  0  0  0
  6  7  1  0  0  0
  7  8  1  0  0  0
  7 34  1  0  0  0
  7 35  1  0  0  0
  8  9  2  0  0  0
  8 10  1  0  0  0
 10 11  1  0  0  0
 10 15  1  0  0  0
 11 12  1  0  0  0
 11 36  1  0  0  0
 11 37  1  0  0  0
 12 13  1  0  0  0
 12 14  1  0  0  0
 12 38  1  0  0  0
 13 39  1  0  0  0
 14 15  1  0  0  0
 14 40  1  0  0  0
 14 41  1  0  0  0
 15 16  1  0  0  0
 15 42  1  0  0  0
 16 17  2  0  0  0
 16 18  1  0  0  0
 18 19  1  0  0  0
 18 43  1  0  0  0
 19 20  1  0  0  0
 19 44  1  0  0  0
 19 45  1  0  0  0
 20 21  2  0  0  0
 20 23  1  0  0  0
 21 22  1  0  0  0
 21 46  1  0  0  0
 22 25  2  0  0  0
 22 47  1  0  0  0
 23 24  2  0  0  0
 23 48  1  0  0  0
 24 25  1  0  0  0
 24 49  1  0  0  0
 25 26  1  0  0  0
 26 28  2  0  0  0
 26 29  1  0  0  0
 27 29  1  0  0  0
 27 50  1  0  0  0
 27 51  1  0  0  0
 27 52  1  0  0  0
M  END
> <s_m_source_file>
../3ztd_ligand.sdf

> <i_m_source_file_index>
1

> <s_epik_input>
W0NIM11jMVtjSF1jKG9uMSlbQ0gyXUMoPU8pTjJbQ0gyXVtDQEhdKFtPSF0pW0NIMl1bQ0BIXTJDKD1PKVtOSF1bQ0gyXWMzW2NIXVtjSF1jKFtjSF1bY0hdMylDKD1PKU9bQ0gzXQ==

> <s_epik_cmdline>
J2VwaWtfYXBwJywgJy1pbWFlJywgJ2xpZ2FuZF9wcm8ubWFlJywgJy1vbWFlJywgJ2xpZ2FuZF9wcmVwLm1hZScsICctbXMnLCAnMScsICctcGgnLCAnNycsICctcGh0JywgJzAuNScsICctbnQn

> <r_lp_tautomer_probability>
1

> <r_epik_Ionization_Penalty>
  0.0000

> <r_epik_Ionization_Penalty_Charging>
  0.0000

> <r_epik_Ionization_Penalty_Neutral>
  0.0000

> <r_epik_State_Penalty>
 -0.0000

> <r_epik_Charging_Adjusted_Penalty>
0

> <i_epik_Tot_Q>
0

> <i_epik_Tot_abs_Q>
0

> <s_epik_Chemistry_Notes>
This compound has an ester and may undergo hydrolysis at high or low pH.

$$$$
