3ztx_ligand
                    3D
 Schrodinger Suite 2020-3.
 58 62  0  0  1  0            999 V2000
   12.3520    3.0060    5.9460 N   0  0  0  0  0  0
   12.0970    1.8520    5.2710 C   0  0  0  0  0  0
   10.8650    1.5830    4.7750 N   0  0  0  0  0  0
    9.8630    2.4530    4.9120 C   0  0  0  0  0  0
   10.1040    3.6330    5.6180 C   0  0  0  0  0  0
   11.3780    3.8900    6.1410 C   0  0  0  0  0  0
    7.1050    5.3120    6.3280 O   0  0  0  0  0  0
    7.8560    4.3480    6.1110 C   0  0  0  0  0  0
    7.2290    2.9410    6.1050 C   0  0  0  0  0  0
    7.6370    1.8960    5.2620 C   0  0  0  0  0  0
    8.6930    1.9960    4.4040 N   0  0  0  0  0  0
    8.6050    1.4480    3.0320 C   0  0  0  0  0  0
    5.9370    0.4450    6.2400 C   0  0  0  0  0  0
    5.5210    1.4870    7.0770 C   0  0  0  0  0  0
    6.1550    2.7560    7.0080 C   0  0  0  0  0  0
    6.9930    0.6340    5.3360 C   0  0  0  0  0  0
   13.0720    0.9500    5.1330 N   0  0  0  0  0  0
   13.2090   -0.0990    4.3330 C   0  0  0  0  0  0
   12.2440   -0.7450    3.5370 C   0  0  0  0  0  0
   12.6230   -1.8420    2.7530 C   0  0  0  0  0  0
   13.9650   -2.2830    2.8040 C   0  0  0  0  0  0
   14.5120   -3.3540    2.0860 N   0  0  0  0  0  0
   14.9700   -4.5990    2.8000 C   0  0  0  0  0  0
   14.6620   -5.8490    1.9520 C   0  0  0  0  0  0
   14.9940   -5.6520    0.4480 C   0  0  0  0  0  0
   14.5210   -6.7770   -0.2940 O   0  0  0  0  0  0
   14.3210   -4.3890   -0.1240 C   0  0  0  0  0  0
   14.7910   -3.1540    0.6410 C   0  0  0  0  0  0
   14.8930   -1.6420    3.5980 C   0  0  0  0  0  0
   14.5050   -0.5600    4.3460 C   0  0  0  0  0  0
    9.1890    4.5860    5.8680 N   0  0  0  0  0  0
    9.6660    5.9870    5.9020 C   0  0  0  0  0  0
   11.5688    4.8050    6.7019 H   0  0  0  0  0  0
    9.5529    1.6282    2.5037 H   0  0  0  0  0  0
    7.7843    1.9424    2.4916 H   0  0  0  0  0  0
    8.4124    0.3661    3.0810 H   0  0  0  0  0  0
    5.4361   -0.5217    6.2911 H   0  0  0  0  0  0
    4.7077    1.3239    7.7841 H   0  0  0  0  0  0
    5.8189    3.5765    7.6420 H   0  0  0  0  0  0
    7.3171   -0.1847    4.6936 H   0  0  0  0  0  0
   13.9718    1.0120    5.7627 H   0  0  0  0  0  0
   11.2118   -0.3948    3.5309 H   0  0  0  0  0  0
   11.8967   -2.3462    2.1155 H   0  0  0  0  0  0
   16.0545   -4.5433    2.9751 H   0  0  0  0  0  0
   14.4468   -4.6823    3.7640 H   0  0  0  0  0  0
   15.2581   -6.6973    2.3195 H   0  0  0  0  0  0
   13.5919   -6.0912    2.0311 H   0  0  0  0  0  0
   16.0842   -5.6085    0.3079 H   0  0  0  0  0  0
   14.8783   -7.7878   -0.0478 H   0  0  0  0  0  0
   14.5879   -4.2801   -1.1856 H   0  0  0  0  0  0
   13.2290   -4.4800   -0.0280 H   0  0  0  0  0  0
   14.2512   -2.2649    0.2830 H   0  0  0  0  0  0
   15.8716   -3.0114    0.4925 H   0  0  0  0  0  0
   15.9248   -1.9920    3.6306 H   0  0  0  0  0  0
   15.2428   -0.0520    4.9670 H   0  0  0  0  0  0
   10.7451    6.0122    5.6899 H   0  0  0  0  0  0
    9.4780    6.4142    6.8981 H   0  0  0  0  0  0
    9.1293    6.5755    5.1433 H   0  0  0  0  0  0
  1  2  2  0  0  0
  1  6  1  0  0  0
  2  3  1  0  0  0
  2 17  1  0  0  0
  3  4  2  0  0  0
  4  5  1  0  0  0
  4 11  1  0  0  0
  5  6  2  0  0  0
  5 31  1  0  0  0
  6 33  1  0  0  0
  7  8  2  0  0  0
  8  9  1  0  0  0
  8 31  1  0  0  0
  9 10  2  0  0  0
  9 15  1  0  0  0
 10 11  1  0  0  0
 10 16  1  0  0  0
 11 12  1  0  0  0
 12 34  1  0  0  0
 12 35  1  0  0  0
 12 36  1  0  0  0
 13 14  1  0  0  0
 13 16  2  0  0  0
 13 37  1  0  0  0
 14 15  2  0  0  0
 14 38  1  0  0  0
 15 39  1  0  0  0
 16 40  1  0  0  0
 17 18  1  0  0  0
 17 41  1  0  0  0
 18 19  2  0  0  0
 18 30  1  0  0  0
 19 20  1  0  0  0
 19 42  1  0  0  0
 20 21  2  0  0  0
 20 43  1  0  0  0
 21 22  1  0  0  0
 21 29  1  0  0  0
 22 23  1  0  0  0
 22 28  1  0  0  0
 23 24  1  0  0  0
 23 44  1  0  0  0
 23 45  1  0  0  0
 24 25  1  0  0  0
 24 46  1  0  0  0
 24 47  1  0  0  0
 25 26  1  0  0  0
 25 27  1  0  0  0
 25 48  1  0  0  0
 26 49  1  0  0  0
 27 28  1  0  0  0
 27 50  1  0  0  0
 27 51  1  0  0  0
 28 52  1  0  0  0
 28 53  1  0  0  0
 29 30  2  0  0  0
 29 54  1  0  0  0
 30 55  1  0  0  0
 31 32  1  0  0  0
 32 56  1  0  0  0
 32 57  1  0  0  0
 32 58  1  0  0  0
M  END
> <s_m_source_file>
../3ztx_ligand.sdf

> <i_m_source_file_index>
1

> <s_epik_input>
W2NIXTFbY0hdW2NIXVtjSF1jKE4yW0NIM10pYzFDKD1PKU4oW0NIM10pYyhjMjMpW2NIXW5jKG4zKVtOSF1jNFtjSF1bY0hdYyhbY0hdW2NIXTQpTjVbQ0gyXVtDSDJdW0NIXShbT0hdKVtDSDJdW0NIMl01

> <s_epik_cmdline>
J2VwaWtfYXBwJywgJy1pbWFlJywgJ2xpZ2FuZF9wcm8ubWFlJywgJy1vbWFlJywgJ2xpZ2FuZF9wcmVwLm1hZScsICctbXMnLCAnMScsICctcGgnLCAnNycsICctcGh0JywgJzAuNScsICctbnQn

> <r_lp_tautomer_probability>
0.999999648617923

> <r_epik_Ionization_Penalty>
  0.1760

> <r_epik_Ionization_Penalty_Charging>
  0.0000

> <r_epik_Ionization_Penalty_Neutral>
  0.1760

> <r_epik_State_Penalty>
  0.1647

> <r_epik_Charging_Adjusted_Penalty>
0.164719006551665

> <i_epik_Tot_Q>
0

> <i_epik_Tot_abs_Q>
0

$$$$
