3zuk_ligand
                    3D
 Schrodinger Suite 2020-3.
 69 71  0  0  1  0            999 V2000
   59.3280   65.1530    8.0870 C   0  0  1  0  0  0
   59.7850   65.1010    6.7460 O   0  0  0  0  0  0
   58.0940   64.2980    8.2470 C   0  0  2  0  0  0
   57.6830   64.6100    9.5510 O   0  0  0  0  0  0
   58.4020   62.8570    8.0800 C   0  0  2  0  0  0
   57.2500   62.1080    8.5290 O   0  0  0  0  0  0
   59.5460   62.4450    8.8310 C   0  0  1  0  0  0
   59.9090   61.0650    8.6030 O   0  0  0  0  0  0
   60.7400   63.3090    8.5530 C   0  0  1  0  0  0
   60.3420   64.6880    8.9110 O   0  0  0  0  0  0
   61.9120   62.9270    9.3390 C   0  0  0  0  0  0
   60.1560   66.4140    5.9120 P   0  0  1  0  0  0
   61.4100   66.8320    6.7080 O   0  0  0  0  0  0
   60.3240   66.1120    4.3900 O   0  5  0  0  0  0
   59.0900   67.5600    6.4940 N   0  0  1  0  0  0
   59.5890   68.9310    6.4960 C   0  0  2  0  0  0
   60.0360   69.4310    7.8710 C   0  0  0  0  0  0
   61.0470   70.0930    8.0470 O   0  0  0  0  0  0
   58.5080   69.9210    5.9820 C   0  0  0  0  0  0
   58.9150   71.4510    6.0520 C   0  0  0  0  0  0
   57.7790   72.4930    5.9270 C   0  0  0  0  0  0
   60.2080   71.8250    5.3170 C   0  0  0  0  0  0
   59.1620   69.1200    8.9920 N   0  0  0  0  0  0
   59.4520   69.5790   10.3890 C   0  0  2  0  0  0
   59.0250   68.4100   11.2850 C   0  0  0  0  0  0
   58.3740   67.4380   10.7800 O   0  5  0  0  0  0
   58.7790   70.9040   10.7020 C   0  0  0  0  0  0
   57.4530   70.8770   11.4460 C   0  0  0  0  0  0
   56.2670   70.5080   10.8570 C   0  0  0  0  0  0
   57.2600   71.1880   12.7610 C   0  0  0  0  0  0
   55.2480   70.5880   11.8490 N   0  3  0  0  0  0
   55.9120   71.0200   13.0340 C   0  0  0  0  0  0
   58.1190   71.6240   13.8120 C   0  0  0  0  0  0
   55.4120   71.2970   14.3320 C   0  0  0  0  0  0
   57.6210   71.8890   15.0900 C   0  0  0  0  0  0
   56.2570   71.7240   15.3590 C   0  0  0  0  0  0
   59.2840   68.3780   12.4910 O   0  0  0  0  0  0
   59.1466   66.2030    8.3602 H   0  0  0  0  0  0
   57.2752   64.4964    7.5397 H   0  0  0  0  0  0
   57.4231   65.6463    9.8126 H   0  0  0  0  0  0
   58.6450   62.6417    7.0290 H   0  0  0  0  0  0
   56.2665   62.2833    8.0686 H   0  0  0  0  0  0
   59.2037   62.5312    9.8728 H   0  0  0  0  0  0
   59.1653   60.2686    8.7536 H   0  0  0  0  0  0
   61.0503   63.2107    7.5023 H   0  0  0  0  0  0
   62.2116   61.9018    9.0760 H   0  0  0  0  0  0
   61.6662   62.9738   10.4102 H   0  0  0  0  0  0
   62.7400   63.6180    9.1222 H   0  0  0  0  0  0
   58.1791   67.5601    5.8774 H   0  0  0  0  0  0
   60.4625   68.8393    5.8337 H   0  0  0  0  0  0
   58.2824   69.7026    4.9278 H   0  0  0  0  0  0
   57.5936   69.8100    6.5833 H   0  0  0  0  0  0
   59.1986   71.5803    7.1069 H   0  0  0  0  0  0
   56.8968   72.1420    6.4824 H   0  0  0  0  0  0
   57.5167   72.6240    4.8668 H   0  0  0  0  0  0
   58.1156   73.4541    6.3429 H   0  0  0  0  0  0
   60.9546   71.0302    5.4610 H   0  0  0  0  0  0
   60.5979   72.7716    5.7195 H   0  0  0  0  0  0
   59.9989   71.9415    4.2434 H   0  0  0  0  0  0
   58.2604   68.5249    8.7846 H   0  0  0  0  0  0
   60.5175   69.8113   10.5331 H   0  0  0  0  0  0
   59.4449   71.5141   11.3299 H   0  0  0  0  0  0
   58.5679   71.4386    9.7641 H   0  0  0  0  0  0
   56.2458   70.2227    9.7949 H   0  0  0  0  0  0
   59.1832   71.7529   13.6149 H   0  0  0  0  0  0
   54.3476   71.1743   14.5320 H   0  0  0  0  0  0
   58.2949   72.2245   15.8783 H   0  0  0  0  0  0
   55.8607   71.9256   16.3542 H   0  0  0  0  0  0
   54.2090   70.3342   11.5919 H   0  0  0  0  0  0
  1  2  1  0  0  0
  1  3  1  0  0  0
  1 10  1  0  0  0
  1 38  1  0  0  0
  2 12  1  0  0  0
  3  4  1  0  0  0
  3  5  1  0  0  0
  3 39  1  0  0  0
  4 40  1  0  0  0
  5  6  1  0  0  0
  5  7  1  0  0  0
  5 41  1  0  0  0
  6 42  1  0  0  0
  7  8  1  0  0  0
  7  9  1  0  0  0
  7 43  1  0  0  0
  8 44  1  0  0  0
  9 10  1  0  0  0
  9 11  1  0  0  0
  9 45  1  0  0  0
 11 46  1  0  0  0
 11 47  1  0  0  0
 11 48  1  0  0  0
 12 13  2  0  0  0
 12 14  1  0  0  0
 12 15  1  0  0  0
 15 16  1  0  0  0
 15 49  1  0  0  0
 16 17  1  0  0  0
 16 19  1  0  0  0
 16 50  1  0  0  0
 17 18  2  0  0  0
 17 23  1  0  0  0
 19 20  1  0  0  0
 19 51  1  0  0  0
 19 52  1  0  0  0
 20 21  1  0  0  0
 20 22  1  0  0  0
 20 53  1  0  0  0
 21 54  1  0  0  0
 21 55  1  0  0  0
 21 56  1  0  0  0
 22 57  1  0  0  0
 22 58  1  0  0  0
 22 59  1  0  0  0
 23 24  1  0  0  0
 23 60  1  0  0  0
 24 25  1  0  0  0
 24 27  1  0  0  0
 24 61  1  0  0  0
 25 26  1  0  0  0
 25 37  2  0  0  0
 27 28  1  0  0  0
 27 62  1  0  0  0
 27 63  1  0  0  0
 28 29  2  0  0  0
 28 30  1  0  0  0
 29 31  1  0  0  0
 29 64  1  0  0  0
 30 32  2  0  0  0
 30 33  1  0  0  0
 31 32  1  0  0  0
 31 69  1  0  0  0
 32 34  1  0  0  0
 33 35  2  0  0  0
 33 65  1  0  0  0
 34 36  2  0  0  0
 34 66  1  0  0  0
 35 36  1  0  0  0
 35 67  1  0  0  0
 36 68  1  0  0  0
M  CHG  3  14  -1  26  -1  31   1
M  END
> <s_m_source_file>
../3zuk_ligand.sdf

> <i_m_source_file_index>
1

> <s_epik_input>
TzFbQ0BASF0oW0NIM10pW0NASF0oW09IXSlbQ0BASF0oW09IXSlbQ0BASF0oW09IXSlbQ0BASF0xT1tQQEBdKD1PKShbT0hdKVtOSF1bQ0BASF0oW0NIMl1bQ0hdKFtDSDNdKVtDSDNdKUMoPU8pW05IXVtDQEhdKEMoPU8pW09IXSlbQ0gyXWMyW2NIXVtuSF1jKGMyMylbY0hdW2NIXVtjSF1bY0hdMw==

> <s_epik_cmdline>
J2VwaWtfYXBwJywgJy1pbWFlJywgJ2xpZ2FuZF9wcm8ubWFlJywgJy1vbWFlJywgJ2xpZ2FuZF9wcmVwLm1hZScsICctbXMnLCAnMScsICctcGgnLCAnNycsICctcGh0JywgJzAuNScsICctbnQn

> <r_lp_tautomer_probability>
1

> <r_epik_Ionization_Penalty>
  0.0002

> <r_epik_Ionization_Penalty_Charging>
  0.0002

> <r_epik_Ionization_Penalty_Neutral>
  0.0000

> <r_epik_State_Penalty>
 -0.0000

> <r_epik_Charging_Adjusted_Penalty>
0.000165774631056018

> <i_epik_Tot_Q>
-1

> <i_epik_Tot_abs_Q>
3

> <s_epik_Chemistry_Notes>
This compound contains an acetal/aminal-like group ( X-CH(R)-Y where X, Y are N, S, or O) that may be acid/base labile, releasing an aldehyde.

$$$$
