3zvt_ligand
                    3D
 Schrodinger Suite 2020-3.
 27 27  0  0  1  0            999 V2000
    0.2660   -4.6220   39.4510 B   0  0  0  0  0  0
   -1.1280   -3.8310   39.6060 C   0  0  0  0  0  0
   -1.1220   -2.5940   38.8230 N   0  0  0  0  0  0
   -3.0710   -2.9220   37.8310 O   0  0  0  0  0  0
   -2.0890   -2.2090   37.9960 C   0  0  0  0  0  0
   -1.9930   -0.9170   37.2210 C   0  0  0  0  0  0
   -1.4380   -0.9880   35.9610 C   0  0  0  0  0  0
   -0.9970   -2.2050   35.5220 O   0  0  0  0  0  0
   -0.3530   -2.3340   34.2530 C   0  0  0  0  0  0
   -1.3330    0.1480   35.1660 C   0  0  0  0  0  0
   -1.7880    1.3710   35.6400 C   0  0  0  0  0  0
   -2.3490    1.4500   36.9090 C   0  0  0  0  0  0
   -2.4620    0.3080   37.7000 C   0  0  0  0  0  0
   -3.0110    0.4270   38.9530 O   0  0  0  0  0  0
   -4.3580    0.8570   39.1450 C   0  0  0  0  0  0
   -1.9521   -4.4676   39.2517 H   0  0  0  0  0  0
   -1.2897   -3.5769   40.6640 H   0  0  0  0  0  0
   -0.2704   -1.9014   38.8953 H   0  0  0  0  0  0
   -0.0764   -3.3857   34.0875 H   0  0  0  0  0  0
    0.5525   -1.7097   34.2362 H   0  0  0  0  0  0
   -1.0394   -2.0059   33.4585 H   0  0  0  0  0  0
   -0.8936    0.0783   34.1709 H   0  0  0  0  0  0
   -1.7057    2.2640   35.0205 H   0  0  0  0  0  0
   -2.7022    2.4093   37.2874 H   0  0  0  0  0  0
   -4.5858    0.8797   40.2209 H   0  0  0  0  0  0
   -5.0414    0.1583   38.6402 H   0  0  0  0  0  0
   -4.4851    1.8644   38.7219 H   0  0  0  0  0  0
  1  2  1  0  0  0
  2  3  1  0  0  0
  2 16  1  0  0  0
  2 17  1  0  0  0
  3  5  1  0  0  0
  3 18  1  0  0  0
  4  5  2  0  0  0
  5  6  1  0  0  0
  6  7  2  0  0  0
  6 13  1  0  0  0
  7  8  1  0  0  0
  7 10  1  0  0  0
  8  9  1  0  0  0
  9 19  1  0  0  0
  9 20  1  0  0  0
  9 21  1  0  0  0
 10 11  2  0  0  0
 10 22  1  0  0  0
 11 12  1  0  0  0
 11 23  1  0  0  0
 12 13  2  0  0  0
 12 24  1  0  0  0
 13 14  1  0  0  0
 14 15  1  0  0  0
 15 25  1  0  0  0
 15 26  1  0  0  0
 15 27  1  0  0  0
M  END
> <s_m_source_file>
../3zvt_ligand.sdf

> <i_m_source_file_index>
1

> <s_epik_input>
W0JIMl1bQ0gyXVtOSF1DKD1PKWMxYyhPW0NIM10pW2NIXVtjSF1bY0hdYzFPW0NIM10=

> <s_epik_cmdline>
J2VwaWtfYXBwJywgJy1pbWFlJywgJ2xpZ2FuZF9wcm8ubWFlJywgJy1vbWFlJywgJ2xpZ2FuZF9wcmVwLm1hZScsICctbXMnLCAnMScsICctcGgnLCAnNycsICctcGh0JywgJzAuNScsICctbnQn

> <r_lp_tautomer_probability>
1

> <r_epik_Ionization_Penalty>
  0.0000

> <r_epik_Ionization_Penalty_Charging>
  0.0000

> <r_epik_Ionization_Penalty_Neutral>
  0.0000

> <r_epik_State_Penalty>
 -0.0000

> <r_epik_Charging_Adjusted_Penalty>
0

> <i_epik_Tot_Q>
0

> <i_epik_Tot_abs_Q>
0

$$$$
