3zvv_ligand
                    3D
 Schrodinger Suite 2020-3.
 22 23  0  0  1  0            999 V2000
   42.4250   13.0130   30.7000 C   0  0  0  0  0  0
   43.9350   13.0850   30.2970 C   0  0  0  0  0  0
   44.3810   12.2820   29.2160 C   0  0  0  0  0  0
   45.6930   12.3120   28.8160 C   0  0  0  0  0  0
   46.0450   11.4640   27.7510 C   0  0  0  0  0  0
   46.6530   13.0730   29.3720 N   0  0  0  0  0  0
   48.0400   13.2850   29.1460 N   0  0  0  0  0  0
   48.5210   14.1270   29.9870 C   0  0  0  0  0  0
   49.8950   14.4710   29.9450 N   0  0  0  0  0  0
   47.4700   14.5590   30.8690 C   0  0  0  0  0  0
   46.3010   13.9180   30.4850 C   0  0  0  0  0  0
   44.9250   13.8830   30.9040 N   0  0  0  0  0  0
   41.9036   12.3017   30.0426 H   0  0  0  0  0  0
   41.9700   14.0091   30.5966 H   0  0  0  0  0  0
   42.3398   12.6775   31.7441 H   0  0  0  0  0  0
   43.6739   11.6343   28.6977 H   0  0  0  0  0  0
   45.1552   10.9141   27.4107 H   0  0  0  0  0  0
   46.8105   10.7499   28.0886 H   0  0  0  0  0  0
   46.4446   12.0647   26.9207 H   0  0  0  0  0  0
   50.5501   14.0267   29.1812 H   0  0  0  0  0  0
   50.3065   15.1824   30.6762 H   0  0  0  0  0  0
   47.5736   15.2649   31.6931 H   0  0  0  0  0  0
  1  2  1  0  0  0
  1 13  1  0  0  0
  1 14  1  0  0  0
  1 15  1  0  0  0
  2  3  1  0  0  0
  2 12  2  0  0  0
  3  4  2  0  0  0
  3 16  1  0  0  0
  4  5  1  0  0  0
  4  6  1  0  0  0
  5 17  1  0  0  0
  5 18  1  0  0  0
  5 19  1  0  0  0
  6  7  1  0  0  0
  6 11  1  0  0  0
  7  8  2  0  0  0
  8  9  1  0  0  0
  8 10  1  0  0  0
  9 20  1  0  0  0
  9 21  1  0  0  0
 10 11  2  0  0  0
 10 22  1  0  0  0
 11 12  1  0  0  0
M  END
> <s_m_source_file>
../3zvv_ligand.sdf

> <i_m_source_file_index>
1

> <s_epik_input>
W0NIM11jMVtjSF1jKFtDSDNdKW5jKG4xMilbY0hdYyhuMilbTkgyXQ==

> <s_epik_cmdline>
J2VwaWtfYXBwJywgJy1pbWFlJywgJ2xpZ2FuZF9wcm8ubWFlJywgJy1vbWFlJywgJ2xpZ2FuZF9wcmVwLm1hZScsICctbXMnLCAnMScsICctcGgnLCAnNycsICctcGh0JywgJzAuNScsICctbnQn

> <r_lp_tautomer_probability>
1

> <r_epik_Ionization_Penalty>
  0.0003

> <r_epik_Ionization_Penalty_Charging>
  0.0000

> <r_epik_Ionization_Penalty_Neutral>
  0.0003

> <r_epik_State_Penalty>
 -0.0000

> <r_epik_Charging_Adjusted_Penalty>
0

> <i_epik_Tot_Q>
0

> <i_epik_Tot_abs_Q>
0

$$$$
