3zvw_ligand
                    3D
 Schrodinger Suite 2020-3.
 22 22  0  0  1  0            999 V2000
   64.3190   24.4070   31.4860 O   0  0  0  0  0  0
   64.2050   23.8150   32.5260 C   0  0  0  0  0  0
   63.9210   24.4480   33.6470 N   0  0  0  0  0  0
   63.6870   25.8690   33.8370 C   0  0  0  0  0  0
   62.3920   25.9640   34.7960 B   0  0  0  0  0  0
   64.3420   22.2970   32.5930 C   0  0  0  0  0  0
   62.9280   21.7330   32.6760 C   0  0  0  0  0  0
   62.2100   21.4360   31.5080 C   0  0  0  0  0  0
   60.9050   20.9230   31.5790 C   0  0  0  0  0  0
   60.3080   20.7290   32.8190 C   0  0  0  0  0  0
   61.0100   21.0240   33.9930 C   0  0  0  0  0  0
   62.3190   21.5260   33.9200 C   0  0  0  0  0  0
   63.8691   23.7624   34.5056 H   0  0  0  0  0  0
   64.5705   26.3266   34.3062 H   0  0  0  0  0  0
   63.5023   26.3438   32.8621 H   0  0  0  0  0  0
   64.8554   21.9350   31.6900 H   0  0  0  0  0  0
   64.9265   22.0205   33.4829 H   0  0  0  0  0  0
   62.6703   21.6054   30.5346 H   0  0  0  0  0  0
   60.3626   20.6780   30.6658 H   0  0  0  0  0  0
   59.2893   20.3457   32.8772 H   0  0  0  0  0  0
   60.5407   20.8641   34.9637 H   0  0  0  0  0  0
   62.8638   21.7557   34.8357 H   0  0  0  0  0  0
  1  2  2  0  0  0
  2  3  1  0  0  0
  2  6  1  0  0  0
  3  4  1  0  0  0
  3 13  1  0  0  0
  4  5  1  0  0  0
  4 14  1  0  0  0
  4 15  1  0  0  0
  6  7  1  0  0  0
  6 16  1  0  0  0
  6 17  1  0  0  0
  7  8  2  0  0  0
  7 12  1  0  0  0
  8  9  1  0  0  0
  8 18  1  0  0  0
  9 10  2  0  0  0
  9 19  1  0  0  0
 10 11  1  0  0  0
 10 20  1  0  0  0
 11 12  2  0  0  0
 11 21  1  0  0  0
 12 22  1  0  0  0
M  END
> <s_m_source_file>
../3zvw_ligand.sdf

> <i_m_source_file_index>
1

> <s_epik_input>
W0JIMl1bQ0gyXVtOSF1DKD1PKVtDSDJdYzFbY0hdW2NIXVtjSF1bY0hdW2NIXTE=

> <s_epik_cmdline>
J2VwaWtfYXBwJywgJy1pbWFlJywgJ2xpZ2FuZF9wcm8ubWFlJywgJy1vbWFlJywgJ2xpZ2FuZF9wcmVwLm1hZScsICctbXMnLCAnMScsICctcGgnLCAnNycsICctcGh0JywgJzAuNScsICctbnQn

> <r_lp_tautomer_probability>
1

> <r_epik_Ionization_Penalty>
  0.0000

> <r_epik_Ionization_Penalty_Charging>
  0.0000

> <r_epik_Ionization_Penalty_Neutral>
  0.0000

> <r_epik_State_Penalty>
 -0.0000

> <r_epik_Charging_Adjusted_Penalty>
0

> <i_epik_Tot_Q>
0

> <i_epik_Tot_abs_Q>
0

$$$$
