3zvy_ligand
                    3D
 Schrodinger Suite 2020-3.
 90 89  0  0  1  0            999 V2000
   12.8870   13.2930  141.5090 N   0  3  0  0  0  0
   13.0730   12.6950  142.8200 C   0  0  2  0  0  0
   13.0680   13.7680  143.9100 C   0  0  0  0  0  0
   13.4090   14.9230  143.6690 O   0  0  0  0  0  0
   14.3670   11.9130  142.8570 C   0  0  0  0  0  0
   12.6670   13.3750  145.1080 N   0  0  0  0  0  0
   12.6840   14.2630  146.2670 C   0  0  2  0  0  0
   14.1120   14.3770  146.8180 C   0  0  0  0  0  0
   14.8100   13.3690  146.9490 O   0  0  0  0  0  0
   11.7420   13.6910  147.3290 C   0  0  0  0  0  0
   11.3820   14.6140  148.4840 C   0  0  0  0  0  0
   10.1600   14.0650  149.2370 C   0  0  0  0  0  0
   10.5190   13.1000  150.2780 N   0  0  0  0  0  0
   10.7400   11.8040  150.0700 C   0  0  0  0  0  0
   10.6490   11.2940  148.8500 N   0  3  0  0  0  0
   11.0600   11.0120  151.0860 N   0  0  0  0  0  0
   14.5490   15.5990  147.1210 N   0  0  0  0  0  0
   15.8400   15.8160  147.7710 C   0  0  2  0  0  0
   15.6430   16.3740  149.1800 C   0  0  0  0  0  0
   14.5760   16.9010  149.5110 O   0  0  0  0  0  0
   16.7330   16.7970  146.9780 C   0  0  2  0  0  0
   16.0130   18.0120  146.7320 O   0  0  0  0  0  0
   17.1530   16.1950  145.6500 C   0  0  0  0  0  0
   16.6520   16.3290  150.0070 N   0  0  0  0  0  0
   16.5540   16.9530  151.3030 C   0  0  2  0  0  0
   16.4080   18.4610  151.1630 C   0  0  0  0  0  0
   15.7220   19.0390  151.9180 O   0  0  0  0  0  0
   17.7370   16.5610  152.1610 C   0  0  0  0  0  0
   17.5870   16.8760  153.5760 C   0  0  0  0  0  0
   18.7180   16.3800  154.3080 C   0  0  0  0  0  0
   18.4540   15.0120  154.8700 C   0  0  0  0  0  0
   19.7120   14.4990  155.4110 N   0  3  0  0  0  0
   17.1010   19.0320  150.1930 N   0  0  0  0  0  0
   16.9670   20.3360  149.4810 C   0  0  2  0  0  0
   17.5850   21.6200  149.9790 C   0  0  0  0  0  0
   17.7530   21.8110  151.1480 O   0  0  0  0  0  0
   15.5900   20.6210  148.8650 C   0  0  0  0  0  0
   15.3820   22.1090  148.4930 C   0  0  0  0  0  0
   15.2900   22.4290  147.0010 C   0  0  0  0  0  0
   16.2270   22.1990  146.2330 O   0  0  0  0  0  0
   14.1600   22.9950  146.5950 N   0  0  0  0  0  0
   17.9294   22.5046  149.1504 O   0  5  0  0  0  0
   11.9436   13.8585  141.4945 H   0  0  0  0  0  0
   12.8516   12.5010  140.7464 H   0  0  0  0  0  0
   13.7250   13.9722  141.2936 H   0  0  0  0  0  0
   12.2237   12.0105  142.9617 H   0  0  0  0  0  0
   14.3548   11.1465  142.0682 H   0  0  0  0  0  0
   14.4742   11.4277  143.8383 H   0  0  0  0  0  0
   15.2131   12.5961  142.6914 H   0  0  0  0  0  0
   12.3119   12.3393  145.2138 H   0  0  0  0  0  0
   12.3391   15.2528  145.9332 H   0  0  0  0  0  0
   10.7876   13.4102  146.8596 H   0  0  0  0  0  0
   12.2013   12.8021  147.7861 H   0  0  0  0  0  0
   12.2329   14.6823  149.1777 H   0  0  0  0  0  0
   11.1459   15.6149  148.0936 H   0  0  0  0  0  0
    9.6236   14.8951  149.7200 H   0  0  0  0  0  0
    9.4892   13.5585  148.5274 H   0  0  0  0  0  0
   10.6237   13.4306  151.3219 H   0  0  0  0  0  0
   10.3844   11.9419  148.0013 H   0  0  0  0  0  0
   11.1381   11.4255  152.1023 H   0  0  0  0  0  0
   11.2471    9.9421  150.9116 H   0  0  0  0  0  0
   13.9091   16.4574  146.8686 H   0  0  0  0  0  0
   16.2913   14.8132  147.7968 H   0  0  0  0  0  0
   17.6241   17.0719  147.5614 H   0  0  0  0  0  0
   15.6224   18.6003  147.5754 H   0  0  0  0  0  0
   17.7066   15.2615  145.8293 H   0  0  0  0  0  0
   17.7976   16.9061  145.1126 H   0  0  0  0  0  0
   16.2593   15.9810  145.0455 H   0  0  0  0  0  0
   17.5784   15.8136  149.7133 H   0  0  0  0  0  0
   15.6396   16.5566  151.7686 H   0  0  0  0  0  0
   17.8976   15.4751  152.0900 H   0  0  0  0  0  0
   18.6359   17.0884  151.8091 H   0  0  0  0  0  0
   17.5212   17.9666  153.7039 H   0  0  0  0  0  0
   16.6702   16.4057  153.9612 H   0  0  0  0  0  0
   19.5894   16.3192  153.6395 H   0  0  0  0  0  0
   18.9425   17.0613  155.1419 H   0  0  0  0  0  0
   17.6975   15.0821  155.6655 H   0  0  0  0  0  0
   18.0856   14.3521  154.0708 H   0  0  0  0  0  0
   19.5485   13.4954  155.8306 H   0  0  0  0  0  0
   20.0728   15.1729  156.2020 H   0  0  0  0  0  0
   20.4609   14.4428  154.6073 H   0  0  0  0  0  0
   17.9118   18.3391  149.9237 H   0  0  0  0  0  0
   17.7292   20.0128  148.7566 H   0  0  0  0  0  0
   15.4703   20.0297  147.9452 H   0  0  0  0  0  0
   14.8032   20.3458  149.5827 H   0  0  0  0  0  0
   14.4430   22.4703  148.9377 H   0  0  0  0  0  0
   16.2230   22.7043  148.8781 H   0  0  0  0  0  0
   13.3492   23.1822  147.3144 H   0  0  0  0  0  0
   14.0344   23.2769  145.5392 H   0  0  0  0  0  0
   10.8380   10.2228  148.6862 H   0  0  0  0  0  0
  1  2  1  0  0  0
  1 43  1  0  0  0
  1 44  1  0  0  0
  1 45  1  0  0  0
  2  3  1  0  0  0
  2  5  1  0  0  0
  2 46  1  0  0  0
  3  4  2  0  0  0
  3  6  1  0  0  0
  5 47  1  0  0  0
  5 48  1  0  0  0
  5 49  1  0  0  0
  6  7  1  0  0  0
  6 50  1  0  0  0
  7  8  1  0  0  0
  7 10  1  0  0  0
  7 51  1  0  0  0
  8  9  2  0  0  0
  8 17  1  0  0  0
 10 11  1  0  0  0
 10 52  1  0  0  0
 10 53  1  0  0  0
 11 12  1  0  0  0
 11 54  1  0  0  0
 11 55  1  0  0  0
 12 13  1  0  0  0
 12 56  1  0  0  0
 12 57  1  0  0  0
 13 14  1  0  0  0
 13 58  1  0  0  0
 14 15  2  0  0  0
 14 16  1  0  0  0
 15 59  1  0  0  0
 15 90  1  0  0  0
 16 60  1  0  0  0
 16 61  1  0  0  0
 17 18  1  0  0  0
 17 62  1  0  0  0
 18 19  1  0  0  0
 18 21  1  0  0  0
 18 63  1  0  0  0
 19 20  2  0  0  0
 19 24  1  0  0  0
 21 22  1  0  0  0
 21 23  1  0  0  0
 21 64  1  0  0  0
 22 65  1  0  0  0
 23 66  1  0  0  0
 23 67  1  0  0  0
 23 68  1  0  0  0
 24 25  1  0  0  0
 24 69  1  0  0  0
 25 26  1  0  0  0
 25 28  1  0  0  0
 25 70  1  0  0  0
 26 27  2  0  0  0
 26 33  1  0  0  0
 28 29  1  0  0  0
 28 71  1  0  0  0
 28 72  1  0  0  0
 29 30  1  0  0  0
 29 73  1  0  0  0
 29 74  1  0  0  0
 30 31  1  0  0  0
 30 75  1  0  0  0
 30 76  1  0  0  0
 31 32  1  0  0  0
 31 77  1  0  0  0
 31 78  1  0  0  0
 32 79  1  0  0  0
 32 80  1  0  0  0
 32 81  1  0  0  0
 33 34  1  0  0  0
 33 82  1  0  0  0
 34 35  1  0  0  0
 34 37  1  0  0  0
 34 83  1  0  0  0
 35 36  2  0  0  0
 35 42  1  0  0  0
 37 38  1  0  0  0
 37 84  1  0  0  0
 37 85  1  0  0  0
 38 39  1  0  0  0
 38 86  1  0  0  0
 38 87  1  0  0  0
 39 40  2  0  0  0
 39 41  1  0  0  0
 41 88  1  0  0  0
 41 89  1  0  0  0
M  CHG  4   1   1  15   1  32   1  42  -1
M  END
> <s_m_source_file>
../3zvy_ligand.sdf

> <i_m_source_file_index>
1

> <s_epik_input>
W0hdL049QyhbTkgyXSlcW05IXVtDSDJdW0NIMl1bQ0gyXVtDQEhdKFtOSF1DKD1PKVtDQEBIXShbTkgzK10pW0NIM10pQyg9TylbTkhdW0NAQEhdKFtDQEhdKFtPSF0pW0NIM10pQyg9TylbTkhdW0NAQEhdKFtDSDJdW0NIMl1bQ0gyXVtDSDJdW05IMytdKUMoPU8pW05IXVtDQEhdKEMoPU8pW09IXSlbQ0gyXVtDSDJdQyg9TylbTkgyXQ==

> <s_epik_cmdline>
J2VwaWtfYXBwJywgJy1pbWFlJywgJ2xpZ2FuZF9wcm8ubWFlJywgJy1vbWFlJywgJ2xpZ2FuZF9wcmVwLm1hZScsICctbXMnLCAnMScsICctcGgnLCAnNycsICctcGh0JywgJzAuNScsICctbnQn

> <r_epik_Ionization_Penalty>
  0.1256

> <r_epik_Ionization_Penalty_Charging>
  0.1256

> <r_epik_Ionization_Penalty_Neutral>
  0.0000

> <r_epik_State_Penalty>
  0.1145

> <r_epik_Charging_Adjusted_Penalty>
0.240170803420975

> <i_epik_Tot_Q>
2

> <i_epik_Tot_abs_Q>
4

> <s_epik_Chemistry_Notes>
This compound has an imine and may undergo hydrolysis.

$$$$
