3zxh_ligand
                    3D
 Schrodinger Suite 2020-3.
 55 56  0  0  1  0            999 V2000
   -2.5380   24.5660   54.7530 O   0  0  0  0  0  0
   -2.6630   25.3820   55.8810 N   0  0  0  0  0  0
   -3.0270   28.7710   56.7250 N   0  0  2  0  0  0
   -2.2750   27.5360   56.9150 C   0  0  1  0  0  0
   -2.2940   26.6300   55.6900 C   0  0  0  0  0  0
   -1.9050   27.0110   54.5560 O   0  0  0  0  0  0
   -0.8190   27.8130   57.3380 C   0  0  0  0  0  0
   -0.7500   28.4810   58.7200 C   0  0  0  0  0  0
    0.0630   26.5620   57.3490 C   0  0  0  0  0  0
   -4.6790   28.6660   57.0250 S   0  0  0  0  0  0
   -4.8620   27.8000   58.1900 O   0  0  0  0  0  0
   -5.1770   30.0400   57.0660 O   0  0  0  0  0  0
   -5.4510   27.8640   55.6480 C   0  0  0  0  0  0
   -5.6550   26.4900   55.7170 C   0  0  0  0  0  0
   -6.2110   25.8260   54.6260 C   0  0  0  0  0  0
   -5.8250   28.6290   54.5380 C   0  0  0  0  0  0
   -6.3970   27.9610   53.4420 C   0  0  0  0  0  0
   -6.5850   26.5460   53.4820 C   0  0  0  0  0  0
   -7.1840   25.9090   52.3790 C   0  0  0  0  0  0
   -7.5470   26.6330   51.2340 C   0  0  0  0  0  0
   -7.3590   28.0110   51.1940 C   0  0  0  0  0  0
   -6.7610   28.6910   52.2670 C   0  0  0  0  0  0
   -2.2080   31.1040   56.3350 C   0  0  0  0  0  0
   -1.8120   32.0820   55.2310 C   0  0  0  0  0  0
   -2.6110   29.7590   55.7110 C   0  0  0  0  0  0
   -1.8830   33.5310   55.7510 C   0  0  0  0  0  0
   -0.4220   31.6960   54.7080 C   0  0  0  0  0  0
   -2.8205   23.5043   54.8082 H   0  0  0  0  0  0
   -3.0439   24.9625   56.8238 H   0  0  0  0  0  0
   -2.8335   27.0420   57.7237 H   0  0  0  0  0  0
   -0.4197   28.4930   56.5711 H   0  0  0  0  0  0
   -1.3808   29.3821   58.7236 H   0  0  0  0  0  0
    0.2907   28.7611   58.9403 H   0  0  0  0  0  0
   -1.1104   27.7780   59.4854 H   0  0  0  0  0  0
    0.0211   26.0752   56.3635 H   0  0  0  0  0  0
   -0.2997   25.8644   58.1183 H   0  0  0  0  0  0
    1.1014   26.8475   57.5732 H   0  0  0  0  0  0
   -5.3823   25.9379   56.6164 H   0  0  0  0  0  0
   -6.3555   24.7462   54.6614 H   0  0  0  0  0  0
   -5.6774   29.7089   54.5238 H   0  0  0  0  0  0
   -7.3688   24.8354   52.4153 H   0  0  0  0  0  0
   -7.9763   26.1163   50.3756 H   0  0  0  0  0  0
   -7.6809   28.5713   50.3162 H   0  0  0  0  0  0
   -6.5762   29.7634   52.2053 H   0  0  0  0  0  0
   -1.3554   30.9517   57.0131 H   0  0  0  0  0  0
   -3.0577   31.5140   56.9006 H   0  0  0  0  0  0
   -2.5175   32.0170   54.3895 H   0  0  0  0  0  0
   -1.7460   29.3703   55.1536 H   0  0  0  0  0  0
   -3.4430   29.9429   55.0153 H   0  0  0  0  0  0
   -2.9012   33.7424   56.1095 H   0  0  0  0  0  0
   -1.6294   34.2256   54.9367 H   0  0  0  0  0  0
   -1.1691   33.6592   56.5780 H   0  0  0  0  0  0
   -0.4397   30.6548   54.3536 H   0  0  0  0  0  0
    0.3152   31.7950   55.5184 H   0  0  0  0  0  0
   -0.1451   32.3615   53.8771 H   0  0  0  0  0  0
  1  2  1  0  0  0
  1 28  1  0  0  0
  2  5  1  0  0  0
  2 29  1  0  0  0
  3  4  1  0  0  0
  3 10  1  0  0  0
  3 25  1  0  0  0
  4  5  1  0  0  0
  4  7  1  0  0  0
  4 30  1  0  0  0
  5  6  2  0  0  0
  7  8  1  0  0  0
  7  9  1  0  0  0
  7 31  1  0  0  0
  8 32  1  0  0  0
  8 33  1  0  0  0
  8 34  1  0  0  0
  9 35  1  0  0  0
  9 36  1  0  0  0
  9 37  1  0  0  0
 10 11  2  0  0  0
 10 12  2  0  0  0
 10 13  1  0  0  0
 13 14  2  0  0  0
 13 16  1  0  0  0
 14 15  1  0  0  0
 14 38  1  0  0  0
 15 18  2  0  0  0
 15 39  1  0  0  0
 16 17  2  0  0  0
 16 40  1  0  0  0
 17 18  1  0  0  0
 17 22  1  0  0  0
 18 19  1  0  0  0
 19 20  2  0  0  0
 19 41  1  0  0  0
 20 21  1  0  0  0
 20 42  1  0  0  0
 21 22  2  0  0  0
 21 43  1  0  0  0
 22 44  1  0  0  0
 23 24  1  0  0  0
 23 25  1  0  0  0
 23 45  1  0  0  0
 23 46  1  0  0  0
 24 26  1  0  0  0
 24 27  1  0  0  0
 24 47  1  0  0  0
 25 48  1  0  0  0
 25 49  1  0  0  0
 26 50  1  0  0  0
 26 51  1  0  0  0
 26 52  1  0  0  0
 27 53  1  0  0  0
 27 54  1  0  0  0
 27 55  1  0  0  0
M  END
> <s_m_source_file>
../3zxh_ligand.sdf

> <i_m_source_file_index>
1

> <s_epik_input>
W09IXVtOSF1DKD1PKVtDQEBIXShbQ0hdKFtDSDNdKVtDSDNdKU4oW0NIMl1bQ0gyXVtDSF0oW0NIM10pW0NIM10pUyg9TykoPU8pYyhbY0hdMSlbY0hdW2NIXWMoYzEyKVtjSF1bY0hdW2NIXVtjSF0y

> <s_epik_cmdline>
J2VwaWtfYXBwJywgJy1pbWFlJywgJ2xpZ2FuZF9wcm8ubWFlJywgJy1vbWFlJywgJ2xpZ2FuZF9wcmVwLm1hZScsICctbXMnLCAnMScsICctcGgnLCAnNycsICctcGh0JywgJzAuNScsICctbnQn

> <r_epik_Ionization_Penalty>
  0.0131

> <r_epik_Ionization_Penalty_Charging>
  0.0000

> <r_epik_Ionization_Penalty_Neutral>
  0.0131

> <r_epik_State_Penalty>
  0.0102

> <r_epik_Charging_Adjusted_Penalty>
0.0101774398105574

> <i_epik_Tot_Q>
0

> <i_epik_Tot_abs_Q>
0

> <s_epik_Chemistry_Notes>
This compound has a N-S or N-O group and may undergo hydrolysis at high or low pH.

$$$$
