3zxr_ligand
                    3D
 Schrodinger Suite 2020-3.
 45 48  0  0  1  0            999 V2000
  -25.1500   78.9470   12.0890 C   0  0  0  0  0  0
  -25.7470   80.2150   12.6800 C   0  0  0  0  0  0
  -24.6260   81.0790   13.2520 C   0  0  0  0  0  0
  -26.7140   79.8030   13.7790 C   0  0  0  0  0  0
  -26.4860   80.9790   11.6070 C   0  0  0  0  0  0
  -25.9240   81.6810   10.6310 N   0  3  0  0  0  0
  -27.7950   81.0680   11.4600 N   0  0  0  0  0  0
  -28.0940   81.8470   10.3550 C   0  0  0  0  0  0
  -29.4260   82.0170    9.8620 C   0  0  0  0  0  0
  -30.4420   81.1920   10.3490 C   0  0  0  0  0  0
  -31.7520   81.3570    9.8920 C   0  0  0  0  0  0
  -32.0340   82.3050    8.9780 N   0  0  0  0  0  0
  -31.0840   83.1150    8.4850 C   0  0  0  0  0  0
  -29.7670   82.9910    8.9200 C   0  0  0  0  0  0
  -26.8910   82.2490    9.8230 C   0  0  3  0  0  0
  -26.6020   83.1770    8.8000 C   0  0  0  0  0  0
  -25.6180   84.1630    8.9750 C   0  0  0  0  0  0
  -25.3300   85.0540    8.0050 N   0  0  0  0  0  0
  -25.9660   85.0290    6.8180 C   0  0  0  0  0  0
  -25.6420   85.9600    5.8230 C   0  0  0  0  0  0
  -27.2630   83.1400    7.5670 C   0  0  0  0  0  0
  -26.9540   84.0670    6.5730 C   0  0  0  0  0  0
  -27.6240   84.0350    5.3450 C   0  0  0  0  0  0
  -27.3010   84.9660    4.3540 C   0  0  0  0  0  0
  -26.3130   85.9290    4.5950 C   0  0  0  0  0  0
  -24.6130   78.3942   12.8739 H   0  0  0  0  0  0
  -24.4499   79.2124   11.2831 H   0  0  0  0  0  0
  -25.9553   78.3174   11.6826 H   0  0  0  0  0  0
  -24.0920   80.5172   14.0325 H   0  0  0  0  0  0
  -25.0540   81.9942   13.6869 H   0  0  0  0  0  0
  -23.9243   81.3481   12.4488 H   0  0  0  0  0  0
  -26.1698   79.2473   14.5569 H   0  0  0  0  0  0
  -27.5011   79.1629   13.3538 H   0  0  0  0  0  0
  -27.1705   80.7008   14.2212 H   0  0  0  0  0  0
  -30.2135   80.4206   11.0844 H   0  0  0  0  0  0
  -32.5469   80.7175   10.2758 H   0  0  0  0  0  0
  -31.3437   83.8705    7.7435 H   0  0  0  0  0  0
  -28.9994   83.6561    8.5243 H   0  0  0  0  0  0
  -25.0736   84.2093    9.9182 H   0  0  0  0  0  0
  -24.8692   86.7069    6.0045 H   0  0  0  0  0  0
  -28.0240   82.3817    7.3829 H   0  0  0  0  0  0
  -28.3951   83.2866    5.1620 H   0  0  0  0  0  0
  -27.8175   84.9427    3.3944 H   0  0  0  0  0  0
  -26.0655   86.6575    3.8229 H   0  0  0  0  0  0
  -24.8281   81.7428   10.5586 H   0  0  0  0  0  0
  1  2  1  0  0  0
  1 26  1  0  0  0
  1 27  1  0  0  0
  1 28  1  0  0  0
  2  3  1  0  0  0
  2  4  1  0  0  0
  2  5  1  0  0  0
  3 29  1  0  0  0
  3 30  1  0  0  0
  3 31  1  0  0  0
  4 32  1  0  0  0
  4 33  1  0  0  0
  4 34  1  0  0  0
  5  6  2  0  0  0
  5  7  1  0  0  0
  6 15  1  0  0  0
  6 45  1  0  0  0
  7  8  2  0  0  0
  8  9  1  0  0  0
  8 15  1  0  0  0
  9 10  2  0  0  0
  9 14  1  0  0  0
 10 11  1  0  0  0
 10 35  1  0  0  0
 11 12  2  0  0  0
 11 36  1  0  0  0
 12 13  1  0  0  0
 13 14  2  0  0  0
 13 37  1  0  0  0
 14 38  1  0  0  0
 15 16  1  0  0  0
 16 17  2  0  0  0
 16 21  1  0  0  0
 17 18  1  0  0  0
 17 39  1  0  0  0
 18 19  2  0  0  0
 19 20  1  0  0  0
 19 22  1  0  0  0
 20 25  2  0  0  0
 20 40  1  0  0  0
 21 22  2  0  0  0
 21 41  1  0  0  0
 22 23  1  0  0  0
 23 24  2  0  0  0
 23 42  1  0  0  0
 24 25  1  0  0  0
 24 43  1  0  0  0
 25 44  1  0  0  0
M  CHG  1   6   1
M  END
> <s_m_source_file>
../3zxr_ligand.sdf

> <i_m_source_file_index>
1

> <s_epik_input>
W2NIXTFbY0hdW2NIXVtjSF1jKGMxMilbY0hdYyhbY0hdbjIpW0NIXShOPUMzQyhbQ0gzXSkoW0NIM10pW0NIM10pQyg9TjMpYzRbY0hdW2NIXW5bY0hdW2NIXTQ=

> <s_epik_cmdline>
J2VwaWtfYXBwJywgJy1pbWFlJywgJ2xpZ2FuZF9wcm8ubWFlJywgJy1vbWFlJywgJ2xpZ2FuZF9wcmVwLm1hZScsICctbXMnLCAnMScsICctcGgnLCAnNycsICctcGh0JywgJzAuNScsICctbnQn

> <r_epik_Ionization_Penalty>
  0.0175

> <r_epik_Ionization_Penalty_Charging>
  0.0174

> <r_epik_Ionization_Penalty_Neutral>
  0.0001

> <r_epik_State_Penalty>
  0.4107

> <r_epik_Charging_Adjusted_Penalty>
0.428062073181629

> <i_epik_Tot_Q>
1

> <i_epik_Tot_abs_Q>
1

> <s_epik_Chemistry_Notes>
This compound has an imine and may undergo hydrolysis.

$$$$
