3zxv_ligand
                    3D
 Schrodinger Suite 2020-3.
 52 55  0  0  1  0            999 V2000
  -31.3980   83.9010    8.0080 N   0  0  0  0  0  0
  -31.1240   82.9050    8.8770 C   0  0  0  0  0  0
  -32.1060   82.0820    9.3010 N   0  0  0  0  0  0
  -31.8470   81.0860   10.1680 C   0  0  0  0  0  0
  -30.5650   80.8700   10.6610 C   0  0  0  0  0  0
  -29.8310   82.7270    9.3610 C   0  0  0  0  0  0
  -29.5290   81.7030   10.2570 C   0  0  0  0  0  0
  -28.2340   81.5080   10.7590 C   0  0  0  0  0  0
  -27.9590   80.7760   11.8760 N   0  0  0  0  0  0
  -26.6160   80.6950   11.9230 C   0  0  3  0  0  0
  -25.8110   79.9730   12.9750 C   0  0  0  0  0  0
  -26.7060   79.5580   14.1290 C   0  0  0  0  0  0
  -24.7030   80.9090   13.4460 C   0  0  0  0  0  0
  -25.2070   78.7120   12.3830 C   0  0  0  0  0  0
  -26.9940   81.8530   10.1620 C   0  0  0  0  0  0
  -26.0030   81.3250   10.9160 N   0  3  0  0  0  0
  -26.7010   82.7740    9.0120 C   0  0  0  0  0  0
  -27.4670   82.7250    7.9030 C   0  0  0  0  0  0
  -27.1940   83.6310    6.7720 C   0  0  0  0  0  0
  -26.1240   84.4980    6.8960 C   0  0  0  0  0  0
  -25.3810   84.4740    8.0730 C   0  0  0  0  0  0
  -25.7200   83.5790    9.0910 C   0  0  0  0  0  0
  -27.9790   83.6060    5.6170 C   0  0  0  0  0  0
  -27.6720   84.4740    4.5660 C   0  0  0  0  0  0
  -26.5940   85.3630    4.6810 C   0  0  0  0  0  0
  -25.8190   85.3700    5.8530 C   0  0  0  0  0  0
  -26.2810   86.3080    3.5250 O   0  0  0  0  0  0
  -25.1020   87.2250    3.8270 C   0  0  0  0  0  0
  -32.4224   84.0350    7.6302 H   0  0  0  0  0  0
  -30.5969   84.5786    7.6777 H   0  0  0  0  0  0
  -32.6594   80.4348   10.4906 H   0  0  0  0  0  0
  -30.3744   80.0543   11.3584 H   0  0  0  0  0  0
  -29.0398   83.4012    9.0331 H   0  0  0  0  0  0
  -27.1602   80.4523   14.5807 H   0  0  0  0  0  0
  -26.1075   79.0289   14.8852 H   0  0  0  0  0  0
  -27.4987   78.8922   13.7571 H   0  0  0  0  0  0
  -25.1489   81.8193   13.8732 H   0  0  0  0  0  0
  -24.0640   81.1795   12.5925 H   0  0  0  0  0  0
  -24.0969   80.4033   14.2121 H   0  0  0  0  0  0
  -26.0125   78.0429   12.0460 H   0  0  0  0  0  0
  -24.6019   78.2017   13.1469 H   0  0  0  0  0  0
  -24.5691   78.9779   11.5272 H   0  0  0  0  0  0
  -28.2905   82.0134    7.8425 H   0  0  0  0  0  0
  -24.5368   85.1518    8.2001 H   0  0  0  0  0  0
  -25.1140   83.5705    9.9970 H   0  0  0  0  0  0
  -28.8206   82.9180    5.5366 H   0  0  0  0  0  0
  -28.2713   84.4600    3.6556 H   0  0  0  0  0  0
  -24.9787   86.0580    5.9463 H   0  0  0  0  0  0
  -24.9191   87.8831    2.9648 H   0  0  0  0  0  0
  -24.2056   86.6178    4.0214 H   0  0  0  0  0  0
  -25.3302   87.8360    4.7128 H   0  0  0  0  0  0
  -24.9524   81.4729   10.6254 H   0  0  0  0  0  0
  1  2  1  0  0  0
  1 29  1  0  0  0
  1 30  1  0  0  0
  2  3  2  0  0  0
  2  6  1  0  0  0
  3  4  1  0  0  0
  4  5  2  0  0  0
  4 31  1  0  0  0
  5  7  1  0  0  0
  5 32  1  0  0  0
  6  7  2  0  0  0
  6 33  1  0  0  0
  7  8  1  0  0  0
  8  9  2  0  0  0
  8 15  1  0  0  0
  9 10  1  0  0  0
 10 11  1  0  0  0
 10 16  1  0  0  0
 11 12  1  0  0  0
 11 13  1  0  0  0
 11 14  1  0  0  0
 12 34  1  0  0  0
 12 35  1  0  0  0
 12 36  1  0  0  0
 13 37  1  0  0  0
 13 38  1  0  0  0
 13 39  1  0  0  0
 14 40  1  0  0  0
 14 41  1  0  0  0
 14 42  1  0  0  0
 15 16  2  0  0  0
 15 17  1  0  0  0
 16 52  1  0  0  0
 17 18  2  0  0  0
 17 22  1  0  0  0
 18 19  1  0  0  0
 18 43  1  0  0  0
 19 20  2  0  0  0
 19 23  1  0  0  0
 20 21  1  0  0  0
 20 26  1  0  0  0
 21 22  2  0  0  0
 21 44  1  0  0  0
 22 45  1  0  0  0
 23 24  2  0  0  0
 23 46  1  0  0  0
 24 25  1  0  0  0
 24 47  1  0  0  0
 25 26  2  0  0  0
 25 27  1  0  0  0
 26 48  1  0  0  0
 27 28  1  0  0  0
 28 49  1  0  0  0
 28 50  1  0  0  0
 28 51  1  0  0  0
M  CHG  1  16   1
M  END
> <s_m_source_file>
../3zxv_ligand.sdf

> <i_m_source_file_index>
1

> <s_epik_input>
W05IMl1jMW5bY0hdW2NIXWMoW2NIXTEpQzI9TltDSF0oQyhbQ0gzXSkoW0NIM10pW0NIM10pTj1DMmMoW2NIXTMpW2NIXVtjSF1jKGMzNClbY0hdYyhbY0hdW2NIXTQpT1tDSDNd

> <s_epik_cmdline>
J2VwaWtfYXBwJywgJy1pbWFlJywgJ2xpZ2FuZF9wcm8ubWFlJywgJy1vbWFlJywgJ2xpZ2FuZF9wcmVwLm1hZScsICctbXMnLCAnMScsICctcGgnLCAnNycsICctcGh0JywgJzAuNScsICctbnQn

> <r_epik_Ionization_Penalty>
  0.0097

> <r_epik_Ionization_Penalty_Charging>
  0.0097

> <r_epik_Ionization_Penalty_Neutral>
  0.0000

> <r_epik_State_Penalty>
  0.3904

> <r_epik_Charging_Adjusted_Penalty>
0.400018216719957

> <i_epik_Tot_Q>
1

> <i_epik_Tot_abs_Q>
1

> <s_epik_Chemistry_Notes>
This compound has an imine and may undergo hydrolysis.

$$$$
