3zy2_ligand
                    3D
 Schrodinger Suite 2020-3.
 40 42  0  0  1  0            999 V2000
    7.9590  -15.0370   19.2750 P   0  0  0  0  0  0
    8.5030  -14.8420   20.6420 O   0  0  0  0  0  0
    7.6150  -16.3670   18.5320 O   0  5  0  0  0  0
    7.5350  -13.6530   18.4880 O   0  5  0  0  0  0
    9.6090  -14.8690   18.8200 O   0  0  0  0  0  0
   10.1930  -14.1980   17.3510 P   0  0  1  0  0  0
   11.7970  -14.4320   17.9920 O   0  5  0  0  0  0
    9.8100  -14.6300   16.1540 O   0  0  0  0  0  0
    9.4460  -12.6330   17.8090 O   0  0  0  0  0  0
   10.2560  -12.4300   18.7940 C   0  0  0  0  0  0
   10.9370  -11.2980   19.0490 C   0  0  1  0  0  0
   10.8500  -10.2070   19.8740 O   0  0  0  0  0  0
   12.2440  -11.7660   19.0670 C   0  0  1  0  0  0
   13.3430  -11.9710   17.7380 O   0  0  0  0  0  0
   13.5990  -10.1450   19.6590 C   0  0  1  0  0  0
   13.6760   -9.4240   18.5110 O   0  0  0  0  0  0
   12.4300   -9.7870   20.5600 C   0  0  2  0  0  0
   12.5740  -10.4940   21.6230 N   0  0  0  0  0  0
   11.4550  -11.7910   22.2540 C   0  0  0  0  0  0
   12.3030  -11.9130   23.2250 N   0  0  0  0  0  0
   13.4010  -11.3290   23.5030 C   0  0  0  0  0  0
   14.7620  -11.1480   24.5690 C   0  0  0  0  0  0
   14.6190  -11.9020   25.4150 O   0  0  0  0  0  0
   15.3660  -10.3730   24.1290 N   0  0  0  0  0  0
   15.5280   -9.5520   23.2100 C   0  0  0  0  0  0
   16.2200   -8.8710   22.9820 N   0  0  0  0  0  0
   14.5400   -9.3480   21.9980 N   0  0  0  0  0  0
   13.5060  -10.3150   22.2800 C   0  0  0  0  0  0
    9.7165  -12.5562   19.7443 H   0  0  0  0  0  0
   11.0834  -13.1530   18.7433 H   0  0  0  0  0  0
   10.3104  -10.7063   18.3654 H   0  0  0  0  0  0
   11.7028  -12.6549   19.4232 H   0  0  0  0  0  0
   13.1588  -12.7540   16.9877 H   0  0  0  0  0  0
   14.6174   -9.9194   20.0082 H   0  0  0  0  0  0
   14.4902   -9.6135   17.7960 H   0  0  0  0  0  0
   12.6139   -8.7643   20.9209 H   0  0  0  0  0  0
   10.5126  -12.2491   21.9536 H   0  0  0  0  0  0
   16.3036  -10.0642   24.6143 H   0  0  0  0  0  0
   17.0929   -8.7332   23.6371 H   0  0  0  0  0  0
   16.1104   -8.2577   22.0755 H   0  0  0  0  0  0
  1  2  2  0  0  0
  1  3  1  0  0  0
  1  4  1  0  0  0
  1  5  1  0  0  0
  5  6  1  0  0  0
  6  7  1  0  0  0
  6  8  2  0  0  0
  6  9  1  0  0  0
  9 10  1  0  0  0
 10 11  1  0  0  0
 10 29  1  0  0  0
 10 30  1  0  0  0
 11 12  1  0  0  0
 11 13  1  0  0  0
 11 31  1  0  0  0
 12 17  1  0  0  0
 13 14  1  0  0  0
 13 15  1  0  0  0
 13 32  1  0  0  0
 14 33  1  0  0  0
 15 16  1  0  0  0
 15 17  1  0  0  0
 15 34  1  0  0  0
 16 35  1  0  0  0
 17 18  1  0  0  0
 17 36  1  0  0  0
 18 28  1  0  0  0
 18 19  1  0  0  0
 19 20  2  0  0  0
 19 37  1  0  0  0
 20 21  1  0  0  0
 21 22  1  0  0  0
 21 28  2  0  0  0
 22 23  2  0  0  0
 22 24  1  0  0  0
 24 25  1  0  0  0
 24 38  1  0  0  0
 25 26  1  0  0  0
 25 27  2  0  0  0
 26 39  1  0  0  0
 26 40  1  0  0  0
 27 28  1  0  0  0
M  CHG  3   3  -1   4  -1   7  -1
M  END
> <s_m_source_file>
../3zy2_ligand.sdf

> <i_m_source_file_index>
1

> <s_epik_input>
Tz1QKFtPSF0pKFtPSF0pT1tQQF0oPU8pKFtPSF0pT1tDSDJdW0NASF0xT1tDQEhdKFtDQEhdKFtPSF0pW0NAQEhdMVtPSF0pbihbY0hdbjIpYyhjMjMpbmMoW05IMl0pW25IXWMzPU8=

> <s_epik_cmdline>
J2VwaWtfYXBwJywgJy1pbWFlJywgJ2xpZ2FuZF9wcm8ubWFlJywgJy1vbWFlJywgJ2xpZ2FuZF9wcmVwLm1hZScsICctbXMnLCAnMScsICctcGgnLCAnNycsICctcGh0JywgJzAuNScsICctbnQn

> <r_lp_tautomer_probability>
0.999940409345307

> <r_epik_Ionization_Penalty>
  0.1052

> <r_epik_Ionization_Penalty_Charging>
  0.1051

> <r_epik_Ionization_Penalty_Neutral>
  0.0001

> <r_epik_State_Penalty>
  0.0922

> <r_epik_Charging_Adjusted_Penalty>
0.197315167096652

> <i_epik_Tot_Q>
-3

> <i_epik_Tot_abs_Q>
3

> <s_epik_Chemistry_Notes>
This compound contains an acetal/aminal-like group ( X-CH(R)-Y where X, Y are N, S, or O) that may be acid/base labile, releasing an aldehyde.

$$$$
