3zy5_ligand
                    3D
 Schrodinger Suite 2020-3.
 61 64  0  0  1  0            999 V2000
  -12.8840  -27.0170   16.5360 O   0  5  0  0  0  0
  -11.3820  -26.8570   16.4820 P   0  0  1  0  0  0
  -10.8290  -26.2130   15.2370 O   0  0  0  0  0  0
  -10.9670  -26.0100   17.8130 O   0  0  0  0  0  0
  -10.6930  -28.2680   16.7470 O   0  0  0  0  0  0
   -9.5570  -25.8240   18.5830 P   0  0  1  0  0  0
  -11.1800  -29.0320   17.8500 C   0  0  0  0  0  0
  -12.0310  -30.1440   17.2410 C   0  0  1  0  0  0
  -11.9420  -31.3090   18.0720 O   0  0  0  0  0  0
  -13.5070  -29.7880   17.1580 C   0  0  1  0  0  0
  -13.2460  -31.7990   18.3930 C   0  0  2  0  0  0
  -13.8750  -29.1670   15.9100 O   0  0  0  0  0  0
  -14.1770  -31.1320   17.3930 C   0  0  2  0  0  0
  -14.2360  -31.9100   16.1920 O   0  0  0  0  0  0
  -13.6950  -31.3030   19.7190 N   0  0  0  0  0  0
  -13.1130  -30.4130   20.5470 C   0  0  0  0  0  0
  -14.8600  -31.6670   20.2490 C   0  0  0  0  0  0
  -13.9190  -30.2250   21.6200 N   0  0  0  0  0  0
  -15.0050  -31.0100   21.4590 C   0  0  0  0  0  0
  -16.1530  -31.2560   22.1990 C   0  0  0  0  0  0
  -16.3030  -30.6720   23.2960 O   0  0  0  0  0  0
  -17.0860  -32.1070   21.7070 N   0  3  0  0  0  0
  -16.9070  -32.7240   20.5190 C   0  0  0  0  0  0
  -17.7980  -33.5920   19.9970 N   0  0  0  0  0  0
  -15.8090  -32.5100   19.7930 N   0  0  0  0  0  0
   -7.3460  -26.1080   17.1350 C   0  0  1  0  0  0
   -7.5940  -26.0920   15.6150 C   0  0  2  0  0  0
   -8.5010  -26.6730   17.7310 O   0  0  0  0  0  0
   -6.3070  -27.0130   17.4950 O   0  0  0  0  0  0
   -6.3260  -25.8400   14.8040 C   0  0  1  0  0  0
   -8.5360  -25.0690   15.3040 O   0  0  0  0  0  0
   -5.2090  -26.7670   15.2890 C   0  0  1  0  0  0
   -6.6000  -26.0380   13.3910 O   0  0  0  0  0  0
   -5.0560  -26.8000   16.8160 C   0  0  2  0  0  0
   -5.4950  -28.0970   14.8380 O   0  0  0  0  0  0
   -4.1130  -27.9230   17.2270 C   0  0  0  0  0  0
   -9.2630  -24.3390   18.5820 O   0  5  0  0  0  0
   -9.6500  -26.4880   19.9290 O   0  0  0  0  0  0
  -10.3303  -29.4431   18.4149 H   0  0  0  0  0  0
  -11.7791  -28.3853   18.5079 H   0  0  0  0  0  0
  -11.6353  -30.3677   16.2393 H   0  0  0  0  0  0
  -13.8303  -28.9916   17.8444 H   0  0  0  0  0  0
  -13.1955  -32.8978   18.3897 H   0  0  0  0  0  0
  -13.4499  -28.1903   15.6353 H   0  0  0  0  0  0
  -15.2334  -31.0628   17.6917 H   0  0  0  0  0  0
  -14.8645  -31.5785   15.3523 H   0  0  0  0  0  0
  -12.1526  -29.9250   20.3810 H   0  0  0  0  0  0
  -18.7278  -33.8185   20.5394 H   0  0  0  0  0  0
   -7.0960  -25.1093   17.5224 H   0  0  0  0  0  0
   -8.0325  -27.0539   15.3109 H   0  0  0  0  0  0
   -6.0027  -24.7924   14.8930 H   0  0  0  0  0  0
   -9.5247  -25.0666   15.7862 H   0  0  0  0  0  0
   -4.2606  -26.4362   14.8406 H   0  0  0  0  0  0
   -7.3799  -25.4430   12.8933 H   0  0  0  0  0  0
   -4.7062  -25.8112   17.1476 H   0  0  0  0  0  0
   -5.6421  -28.2945   13.7659 H   0  0  0  0  0  0
   -4.0126  -27.9351   18.3223 H   0  0  0  0  0  0
   -3.1260  -27.7586   16.7701 H   0  0  0  0  0  0
   -4.5193  -28.8864   16.8854 H   0  0  0  0  0  0
  -17.5947  -34.0733   19.0290 H   0  0  0  0  0  0
  -18.0059  -32.3040   22.2771 H   0  0  0  0  0  0
  1  2  1  0  0  0
  2  3  2  0  0  0
  2  4  1  0  0  0
  2  5  1  0  0  0
  4  6  1  0  0  0
  5  7  1  0  0  0
  6 28  1  0  0  0
  6 37  1  0  0  0
  6 38  2  0  0  0
  7  8  1  0  0  0
  7 39  1  0  0  0
  7 40  1  0  0  0
  8  9  1  0  0  0
  8 10  1  0  0  0
  8 41  1  0  0  0
  9 11  1  0  0  0
 10 12  1  0  0  0
 10 13  1  0  0  0
 10 42  1  0  0  0
 11 13  1  0  0  0
 11 15  1  0  0  0
 11 43  1  0  0  0
 12 44  1  0  0  0
 13 14  1  0  0  0
 13 45  1  0  0  0
 14 46  1  0  0  0
 15 16  1  0  0  0
 15 17  1  0  0  0
 16 18  2  0  0  0
 16 47  1  0  0  0
 17 19  2  0  0  0
 17 25  1  0  0  0
 18 19  1  0  0  0
 19 20  1  0  0  0
 20 21  2  0  0  0
 20 22  1  0  0  0
 22 23  1  0  0  0
 22 61  1  0  0  0
 23 24  1  0  0  0
 23 25  2  0  0  0
 24 48  1  0  0  0
 24 60  1  0  0  0
 26 27  1  0  0  0
 26 28  1  0  0  0
 26 29  1  0  0  0
 26 49  1  0  0  0
 27 30  1  0  0  0
 27 31  1  0  0  0
 27 50  1  0  0  0
 29 34  1  0  0  0
 30 32  1  0  0  0
 30 33  1  0  0  0
 30 51  1  0  0  0
 31 52  1  0  0  0
 32 34  1  0  0  0
 32 35  1  0  0  0
 32 53  1  0  0  0
 33 54  1  0  0  0
 34 36  1  0  0  0
 34 55  1  0  0  0
 35 56  1  0  0  0
 36 57  1  0  0  0
 36 58  1  0  0  0
 36 59  1  0  0  0
M  CHG  3   1  -1  22   1  37  -1
M  END
> <s_m_source_file>
../3zy5_ligand.sdf

> <i_m_source_file_index>
1

> <s_epik_input>
TzFbQ0BASF0oW0NIM10pW0NAQEhdKFtPSF0pW0NAQEhdKFtPSF0pW0NASF0oW09IXSlbQ0BIXTFPW1BAQF0oPU8pKFtPSF0pT1tQQF0oPU8pKFtPSF0pT1tDSDJdW0NASF0yT1tDQEhdKFtDQEhdKFtPSF0pW0NAQEhdMltPSF0pbjNbY0hdbmMoYzM0KWMoPU8pW25IXS9jKD1OXFtIXSlbbkhdNA==

> <s_epik_cmdline>
J2VwaWtfYXBwJywgJy1pbWFlJywgJ2xpZ2FuZF9wcm8ubWFlJywgJy1vbWFlJywgJ2xpZ2FuZF9wcmVwLm1hZScsICctbXMnLCAnMScsICctcGgnLCAnNycsICctcGh0JywgJzAuNScsICctbnQn

> <r_epik_Ionization_Penalty>
  2.3890

> <r_epik_Ionization_Penalty_Charging>
  2.3890

> <r_epik_Ionization_Penalty_Neutral>
  0.0000

> <r_epik_State_Penalty>
  0.2241

> <r_epik_Charging_Adjusted_Penalty>
2.61302283009459

> <i_epik_Tot_Q>
-1

> <i_epik_Tot_abs_Q>
3

> <s_epik_Chemistry_Notes>
This compound has an imine and may undergo hydrolysis. This compound contains an acetal/aminal-like group ( X-CH(R)-Y where X, Y are N, S, or O) that may be acid/base labile, releasing an aldehyde.

$$$$
