3zya_ligand
                    3D
 Schrodinger Suite 2020-3.
 45 48  0  0  1  0            999 V2000
   16.4530  -12.9390  -28.1130 N   0  3  0  0  0  0
   11.4660  -18.8150  -32.0190 O   0  0  0  0  0  0
    7.5710  -16.4900  -34.1620 C   0  0  0  0  0  0
    7.8530  -15.7380  -33.0190 C   0  0  0  0  0  0
    8.4050  -17.5290  -34.5630 C   0  0  0  0  0  0
   19.1320  -14.4810  -30.1040 C   0  0  0  0  0  0
   18.4370  -14.8400  -31.2450 C   0  0  0  0  0  0
   18.5070  -13.8500  -29.0470 C   0  0  0  0  0  0
    9.0000  -16.0660  -32.2860 C   0  0  0  0  0  0
    9.5530  -17.8390  -33.8130 C   0  0  0  0  0  0
   12.6600  -14.1360  -30.8920 C   0  0  0  0  0  0
   14.2820  -15.9210  -30.8940 C   0  0  0  0  0  0
   17.0760  -14.5710  -31.3590 C   0  0  0  0  0  0
   11.6720  -15.0630  -31.2730 C   0  0  0  0  0  0
   13.3120  -16.8490  -31.2720 C   0  0  0  0  0  0
    9.1680  -15.1760  -31.1150 C   0  0  0  0  0  0
   14.9910  -13.6140  -30.3180 N   0  0  0  0  0  0
   11.0720  -17.5220  -31.9000 C   0  0  2  0  0  0
   10.3660  -14.3390  -31.4020 C   0  0  0  0  0  0
   17.1440  -13.5850  -29.1640 C   0  0  0  0  0  0
   13.9750  -14.5760  -30.7050 C   0  0  0  0  0  0
    9.8350  -17.0880  -32.6550 C   0  0  0  0  0  0
   11.9950  -16.4050  -31.4530 C   0  0  0  0  0  0
   16.4130  -13.9390  -30.3030 C   0  0  0  0  0  0
   17.1526  -12.7241  -27.2918 H   0  0  0  0  0  0
   15.6478  -13.5931  -27.7471 H   0  0  0  0  0  0
   10.7482  -19.5806  -32.3486 H   0  0  0  0  0  0
    6.6825  -16.2589  -34.7497 H   0  0  0  0  0  0
    7.2009  -14.9219  -32.7077 H   0  0  0  0  0  0
    8.1682  -18.1028  -35.4590 H   0  0  0  0  0  0
   20.1974  -14.7014  -30.0380 H   0  0  0  0  0  0
   18.9596  -15.3378  -32.0618 H   0  0  0  0  0  0
   19.0609  -13.5687  -28.1514 H   0  0  0  0  0  0
   10.2146  -18.6479  -34.1227 H   0  0  0  0  0  0
   12.4037  -13.0869  -30.7442 H   0  0  0  0  0  0
   15.3076  -16.2575  -30.7425 H   0  0  0  0  0  0
   16.5331  -14.8502  -32.2620 H   0  0  0  0  0  0
   13.5724  -17.8966  -31.4233 H   0  0  0  0  0  0
    8.2687  -14.5539  -30.9953 H   0  0  0  0  0  0
    9.3162  -15.7842  -30.2105 H   0  0  0  0  0  0
   14.6996  -12.5957  -30.0212 H   0  0  0  0  0  0
   10.8978  -18.0837  -30.9704 H   0  0  0  0  0  0
   10.3438  -13.4945  -30.6974 H   0  0  0  0  0  0
   10.2556  -13.9622  -32.4295 H   0  0  0  0  0  0
   16.0210  -11.9973  -28.4826 H   0  0  0  0  0  0
  1 20  1  0  0  0
  1 25  1  0  0  0
  1 26  1  0  0  0
  1 45  1  0  0  0
  2 18  1  0  0  0
  2 27  1  0  0  0
  3  4  2  0  0  0
  3  5  1  0  0  0
  3 28  1  0  0  0
  4  9  1  0  0  0
  4 29  1  0  0  0
  5 10  2  0  0  0
  5 30  1  0  0  0
  6  7  2  0  0  0
  6  8  1  0  0  0
  6 31  1  0  0  0
  7 13  1  0  0  0
  7 32  1  0  0  0
  8 20  2  0  0  0
  8 33  1  0  0  0
  9 16  1  0  0  0
  9 22  2  0  0  0
 10 22  1  0  0  0
 10 34  1  0  0  0
 11 14  2  0  0  0
 11 21  1  0  0  0
 11 35  1  0  0  0
 12 15  1  0  0  0
 12 21  2  0  0  0
 12 36  1  0  0  0
 13 24  2  0  0  0
 13 37  1  0  0  0
 14 19  1  0  0  0
 14 23  1  0  0  0
 15 23  2  0  0  0
 15 38  1  0  0  0
 16 19  1  0  0  0
 16 39  1  0  0  0
 16 40  1  0  0  0
 17 21  1  0  0  0
 17 24  1  0  0  0
 17 41  1  0  0  0
 18 22  1  0  0  0
 18 23  1  0  0  0
 18 42  1  0  0  0
 19 43  1  0  0  0
 19 44  1  0  0  0
 20 24  1  0  0  0
M  CHG  1   1   1
M  END
> <s_m_source_file>
../3zya_ligand.sdf

> <i_m_source_file_index>
1

> <s_epik_input>
W05IMl1jMVtjSF1bY0hdW2NIXVtjSF1jMVtOSF1jKFtjSF1bY0hdMilbY0hdYyhbQ0gyXVtDSDJdMyljMltDQEhdKFtPSF0pYyhjMzQpW2NIXVtjSF1bY0hdW2NIXTQ=

> <s_epik_cmdline>
J2VwaWtfYXBwJywgJy1pbWFlJywgJ2xpZ2FuZF9wcm8ubWFlJywgJy1vbWFlJywgJ2xpZ2FuZF9wcmVwLm1hZScsICctbXMnLCAnMScsICctcGgnLCAnNycsICctcGh0JywgJzAuNScsICctbnQn

> <r_epik_Ionization_Penalty>
  0.3557

> <r_epik_Ionization_Penalty_Charging>
  0.3557

> <r_epik_Ionization_Penalty_Neutral>
  0.0000

> <r_epik_State_Penalty>
  0.3522

> <r_epik_Charging_Adjusted_Penalty>
0.707826297970096

> <i_epik_Tot_Q>
1

> <i_epik_Tot_abs_Q>
1

$$$$
