3zyb_ligand
                    3D
 Schrodinger Suite 2020-3.
 60 60  0  0  1  0            999 V2000
    5.3150  -18.9740   -6.9140 N   0  3  0  0  0  0
    3.9350  -18.9440   -6.4450 C   0  0  2  0  0  0
    3.0690  -18.0680   -7.3410 C   0  0  0  0  0  0
    3.5310  -17.0520   -7.8580 O   0  0  0  0  0  0
    3.8640  -18.4330   -5.0040 C   0  0  0  0  0  0
    4.6070  -19.2880   -3.9870 C   0  0  0  0  0  0
    6.0740  -18.9020   -3.8970 C   0  0  0  0  0  0
    6.7010  -19.4490   -2.6230 C   0  0  0  0  0  0
    5.9900  -18.9740   -1.3920 N   0  3  0  0  0  0
    1.7980  -18.4580   -7.5170 N   0  0  0  0  0  0
    0.8510  -17.7010   -8.3430 C   0  0  2  0  0  0
    0.5860  -16.3110   -7.7730 C   0  0  0  0  0  0
    0.6790  -16.1110   -6.5610 O   0  0  0  0  0  0
   -0.4230  -18.5510   -8.2790 C   0  0  0  0  0  0
   -0.2930  -19.3400   -7.0170 C   0  0  0  0  0  0
    1.1700  -19.6370   -6.8960 C   0  0  0  0  0  0
    0.2600  -15.3620   -8.6430 N   0  0  0  0  0  0
   -0.0110  -13.9970   -8.2100 C   0  0  2  0  0  0
   -1.4580  -13.8410   -7.7510 C   0  0  0  0  0  0
   -2.3870  -14.2840   -8.4290 O   0  0  0  0  0  0
    0.3020  -13.0050   -9.3320 C   0  0  0  0  0  0
    1.7320  -13.0520   -9.8730 C   0  0  0  0  0  0
    1.9310  -12.0060  -10.9590 C   0  0  0  0  0  0
    2.7410  -12.8640   -8.7480 C   0  0  0  0  0  0
   -1.6410  -13.2110   -6.5950 N   0  0  0  0  0  0
    5.3423  -19.3436   -7.9497 H   0  0  0  0  0  0
    5.9065  -19.6419   -6.2705 H   0  0  0  0  0  0
    5.7374  -17.9591   -6.8756 H   0  0  0  0  0  0
    3.5941  -19.9882   -6.5035 H   0  0  0  0  0  0
    4.3008  -17.4249   -4.9505 H   0  0  0  0  0  0
    2.8136  -18.3951   -4.6797 H   0  0  0  0  0  0
    4.1517  -19.1558   -2.9944 H   0  0  0  0  0  0
    4.5438  -20.3460   -4.2814 H   0  0  0  0  0  0
    6.6149  -19.3126   -4.7623 H   0  0  0  0  0  0
    6.1652  -17.8058   -3.8941 H   0  0  0  0  0  0
    6.6612  -20.5482   -2.6374 H   0  0  0  0  0  0
    7.7490  -19.1208   -2.5599 H   0  0  0  0  0  0
    6.4787  -19.3948   -0.5009 H   0  0  0  0  0  0
    4.9409  -19.3030   -1.4246 H   0  0  0  0  0  0
    6.0286  -17.8756   -1.3471 H   0  0  0  0  0  0
    1.2605  -17.5509   -9.3529 H   0  0  0  0  0  0
   -1.3031  -17.8915   -8.2584 H   0  0  0  0  0  0
   -0.4738  -19.2027   -9.1637 H   0  0  0  0  0  0
   -0.6573  -18.7398   -6.1702 H   0  0  0  0  0  0
   -0.8894  -20.2608   -7.0972 H   0  0  0  0  0  0
    1.4652  -20.5424   -7.4466 H   0  0  0  0  0  0
    1.5001  -19.7200   -5.8500 H   0  0  0  0  0  0
    0.1964  -15.6236   -9.7096 H   0  0  0  0  0  0
    0.6614  -13.8279   -7.3560 H   0  0  0  0  0  0
   -0.3601  -13.1994  -10.1886 H   0  0  0  0  0  0
    0.1411  -11.9789   -8.9697 H   0  0  0  0  0  0
    1.9035  -14.0418  -10.3212 H   0  0  0  0  0  0
    1.1920  -12.1625  -11.7586 H   0  0  0  0  0  0
    2.9455  -12.0971  -11.3743 H   0  0  0  0  0  0
    1.7994  -11.0019  -10.5295 H   0  0  0  0  0  0
    2.5770  -13.6307   -7.9765 H   0  0  0  0  0  0
    2.6144  -11.8651   -8.3050 H   0  0  0  0  0  0
    3.7604  -12.9603   -9.1499 H   0  0  0  0  0  0
   -0.7750  -12.8354   -6.0302 H   0  0  0  0  0  0
   -2.6584  -13.0652   -6.2031 H   0  0  0  0  0  0
  1  2  1  0  0  0
  1 26  1  0  0  0
  1 27  1  0  0  0
  1 28  1  0  0  0
  2  3  1  0  0  0
  2  5  1  0  0  0
  2 29  1  0  0  0
  3  4  2  0  0  0
  3 10  1  0  0  0
  5  6  1  0  0  0
  5 30  1  0  0  0
  5 31  1  0  0  0
  6  7  1  0  0  0
  6 32  1  0  0  0
  6 33  1  0  0  0
  7  8  1  0  0  0
  7 34  1  0  0  0
  7 35  1  0  0  0
  8  9  1  0  0  0
  8 36  1  0  0  0
  8 37  1  0  0  0
  9 38  1  0  0  0
  9 39  1  0  0  0
  9 40  1  0  0  0
 10 11  1  0  0  0
 10 16  1  0  0  0
 11 12  1  0  0  0
 11 14  1  0  0  0
 11 41  1  0  0  0
 12 13  2  0  0  0
 12 17  1  0  0  0
 14 15  1  0  0  0
 14 42  1  0  0  0
 14 43  1  0  0  0
 15 16  1  0  0  0
 15 44  1  0  0  0
 15 45  1  0  0  0
 16 46  1  0  0  0
 16 47  1  0  0  0
 17 18  1  0  0  0
 17 48  1  0  0  0
 18 19  1  0  0  0
 18 21  1  0  0  0
 18 49  1  0  0  0
 19 20  2  0  0  0
 19 25  1  0  0  0
 21 22  1  0  0  0
 21 50  1  0  0  0
 21 51  1  0  0  0
 22 23  1  0  0  0
 22 24  1  0  0  0
 22 52  1  0  0  0
 23 53  1  0  0  0
 23 54  1  0  0  0
 23 55  1  0  0  0
 24 56  1  0  0  0
 24 57  1  0  0  0
 24 58  1  0  0  0
 25 59  1  0  0  0
 25 60  1  0  0  0
M  CHG  2   1   1   9   1
M  END
> <s_m_source_file>
../3zyb_ligand.sdf

> <i_m_source_file_index>
1

> <s_epik_input>
W05IMytdW0NIMl1bQ0gyXVtDSDJdW0NIMl1bQ0BIXShbTkgzK10pQyg9TylOMVtDQEBIXShbQ0gyXVtDSDJdW0NIMl0xKUMoPU8pW05IXVtDQEhdKEMoPU8pW05IMl0pW0NIMl1bQ0hdKFtDSDNdKVtDSDNd

> <s_epik_cmdline>
J2VwaWtfYXBwJywgJy1pbWFlJywgJ2xpZ2FuZF9wcm8ubWFlJywgJy1vbWFlJywgJ2xpZ2FuZF9wcmVwLm1hZScsICctbXMnLCAnMScsICctcGgnLCAnNycsICctcGh0JywgJzAuNScsICctbnQn

> <r_epik_Ionization_Penalty>
  0.1139

> <r_epik_Ionization_Penalty_Charging>
  0.1139

> <r_epik_Ionization_Penalty_Neutral>
  0.0000

> <r_epik_State_Penalty>
  0.1031

> <r_epik_Charging_Adjusted_Penalty>
0.216980846177443

> <i_epik_Tot_Q>
2

> <i_epik_Tot_abs_Q>
2

$$$$
