3zyf_ligand
                    3D
 Schrodinger Suite 2020-3.
 36 37  0  0  1  0            999 V2000
    9.5260    8.6690    9.7630 C   0  0  1  0  0  0
   10.8550    8.0270   10.0330 C   0  0  2  0  0  0
   11.7640    8.9780   10.5390 O   0  0  0  0  0  0
   11.4020    7.4110    8.8320 C   0  0  1  0  0  0
   12.6350    6.7180    9.2240 O   0  0  0  0  0  0
   10.4900    6.5160    8.2380 C   0  0  1  0  0  0
   10.3340    5.3310    9.0700 O   0  0  0  0  0  0
    9.1420    7.1250    8.0180 C   0  0  1  0  0  0
    8.1760    6.0910    7.5210 C   0  0  0  0  0  0
    6.9930    6.5290    7.0080 O   0  0  0  0  0  0
    8.6210    7.7650    9.2320 O   0  0  0  0  0  0
    9.0210    9.1850   10.9590 O   0  0  0  0  0  0
    8.0930   10.2620   10.6320 C   0  0  0  0  0  0
    7.9120   10.6290    9.3240 C   0  0  0  0  0  0
    6.9980   11.6920    8.9950 C   0  0  0  0  0  0
    6.3270   12.3190    9.9830 C   0  0  0  0  0  0
    6.5120   11.9420   11.3040 C   0  0  0  0  0  0
    7.4140   10.8950   11.6250 C   0  0  0  0  0  0
    5.3960   13.3880    9.6690 N   0  3  0  0  0  0
    5.3250   13.8680    8.4230 O   0  0  0  0  0  0
    4.5910   13.8340   10.5930 O   0  5  0  0  0  0
    9.5899    9.4821    9.0249 H   0  0  0  0  0  0
   10.7537    7.2477   10.8027 H   0  0  0  0  0  0
   11.5168    9.5457   11.4482 H   0  0  0  0  0  0
   11.5781    8.1682    8.0538 H   0  0  0  0  0  0
   13.4517    7.2775    9.7036 H   0  0  0  0  0  0
   10.9616    6.2619    7.2773 H   0  0  0  0  0  0
   11.2154    4.7349    9.3490 H   0  0  0  0  0  0
    9.2528    7.9247    7.2709 H   0  0  0  0  0  0
    8.6448    5.5094    6.7135 H   0  0  0  0  0  0
    7.9026    5.4177    8.3468 H   0  0  0  0  0  0
    6.2549    5.8052    6.6320 H   0  0  0  0  0  0
    8.4596   10.1165    8.5331 H   0  0  0  0  0  0
    6.8496   11.9875    7.9564 H   0  0  0  0  0  0
    5.9638   12.4505   12.0971 H   0  0  0  0  0  0
    7.5619   10.5994   12.6637 H   0  0  0  0  0  0
  1  2  1  0  0  0
  1 11  1  0  0  0
  1 12  1  0  0  0
  1 22  1  0  0  0
  2  3  1  0  0  0
  2  4  1  0  0  0
  2 23  1  0  0  0
  3 24  1  0  0  0
  4  5  1  0  0  0
  4  6  1  0  0  0
  4 25  1  0  0  0
  5 26  1  0  0  0
  6  7  1  0  0  0
  6  8  1  0  0  0
  6 27  1  0  0  0
  7 28  1  0  0  0
  8  9  1  0  0  0
  8 11  1  0  0  0
  8 29  1  0  0  0
  9 10  1  0  0  0
  9 30  1  0  0  0
  9 31  1  0  0  0
 10 32  1  0  0  0
 12 13  1  0  0  0
 13 14  2  0  0  0
 13 18  1  0  0  0
 14 15  1  0  0  0
 14 33  1  0  0  0
 15 16  2  0  0  0
 15 34  1  0  0  0
 16 17  1  0  0  0
 16 19  1  0  0  0
 17 18  2  0  0  0
 17 35  1  0  0  0
 18 36  1  0  0  0
 19 20  2  0  0  0
 19 21  1  0  0  0
M  CHG  2  19   1  21  -1
M  END
> <s_m_source_file>
../3zyf_ligand.sdf

> <i_m_source_file_index>
1

> <s_epik_input>
W09IXVtDSDJdW0NAQEhdKE8xKVtDQEhdKFtPSF0pW0NASF0oW09IXSlbQ0BASF0oW09IXSlbQ0BASF0xT2MyW2NIXVtjSF1jKFtOK10oPU8pW08tXSlbY0hdW2NIXTI=

> <s_epik_cmdline>
J2VwaWtfYXBwJywgJy1pbWFlJywgJ2xpZ2FuZF9wcm8ubWFlJywgJy1vbWFlJywgJ2xpZ2FuZF9wcmVwLm1hZScsICctbXMnLCAnMScsICctcGgnLCAnNycsICctcGh0JywgJzAuNScsICctbnQn

> <r_lp_tautomer_probability>
1

> <r_epik_Ionization_Penalty>
  0.0000

> <r_epik_Ionization_Penalty_Charging>
  0.0000

> <r_epik_Ionization_Penalty_Neutral>
  0.0000

> <r_epik_State_Penalty>
 -0.0000

> <r_epik_Charging_Adjusted_Penalty>
0

> <i_epik_Tot_Q>
0

> <i_epik_Tot_abs_Q>
2

> <s_epik_Chemistry_Notes>
This compound contains an acetal/aminal-like group ( X-CH(R)-Y where X, Y are N, S, or O) that may be acid/base labile, releasing an aldehyde.

$$$$
