3zyr_ligand
                    3D
 Schrodinger Suite 2020-3.
189195  0  0  1  0            999 V2000
   50.5790   19.9520   41.0910 N   0  3  0  0  0  0
   49.6800   19.5690   39.9900 C   0  0  2  0  0  0
   48.6510   20.6600   39.6480 C   0  0  0  0  0  0
   48.5800   21.6660   40.3470 O   0  0  0  0  0  0
   48.9200   18.2950   40.3710 C   0  0  0  0  0  0
   47.9190   18.5270   41.5070 C   0  0  0  0  0  0
   48.1340   19.3730   42.3820 O   0  0  0  0  0  0
   46.8150   17.7770   41.4990 N   0  0  0  0  0  0
   47.8220   20.5310   38.7210 O   0  0  0  0  0  0
   45.8350   17.9820   42.5560 C   0  0  1  0  0  0
   44.4570   18.0020   41.9060 C   0  0  1  0  0  0
   43.3340   17.8660   42.9220 C   0  0  2  0  0  0
   43.5830   16.7170   43.8970 C   0  0  1  0  0  0
   44.9340   16.9680   44.5470 C   0  0  1  0  0  0
   45.2770   15.8580   45.5450 C   0  0  0  0  0  0
   44.2270   19.2890   39.8330 C   0  0  0  0  0  0
   43.9560   20.6470   39.2340 C   0  0  0  0  0  0
   44.2140   19.2530   41.1650 N   0  0  0  0  0  0
   42.1460   17.6510   42.2100 O   0  0  0  0  0  0
   42.5250   16.7470   44.8560 O   0  0  0  0  0  0
   45.9540   16.9670   43.5580 O   0  0  0  0  0  0
   45.3030   14.6360   44.8390 O   0  0  0  0  0  0
   44.4810   18.3110   39.1170 O   0  0  0  0  0  0
   41.9020   15.4670   45.0340 C   0  0  1  0  0  0
   40.9730   15.6630   46.2290 C   0  0  1  0  0  0
   40.1930   14.3620   46.4840 C   0  0  2  0  0  0
   39.5790   13.8390   45.1900 C   0  0  1  0  0  0
   40.6120   13.7700   44.0420 C   0  0  1  0  0  0
   39.9990   13.3470   42.7270 C   0  0  0  0  0  0
   41.5520   17.2330   48.0200 C   0  0  0  0  0  0
   42.3060   17.4650   49.2980 C   0  0  0  0  0  0
   41.6840   16.0420   47.4390 N   0  0  0  0  0  0
   39.2000   14.6360   47.4960 O   0  0  0  0  0  0
   39.0630   12.5080   45.3670 O   0  0  0  0  0  0
   41.2060   15.0480   43.8790 O   0  0  0  0  0  0
   38.9780   14.2470   42.3720 O   0  0  0  0  0  0
   40.8330   18.1370   47.5660 O   0  0  0  0  0  0
   37.6360   12.4520   45.3390 C   0  0  1  0  0  0
   37.1500   11.0140   45.2250 C   0  0  2  0  0  0
   35.6220   11.0600   45.2680 C   0  0  2  0  0  0
   35.1120   11.8670   46.4750 C   0  0  1  0  0  0
   35.7510   13.2730   46.5100 C   0  0  1  0  0  0
   35.3300   14.0480   47.7590 C   0  0  0  0  0  0
   37.7450   10.1700   46.2400 O   0  0  0  0  0  0
   35.1230    9.7390   45.2710 O   0  0  0  0  0  0
   33.7020   11.8940   46.4030 O   0  0  0  0  0  0
   37.1710   13.1090   46.4990 O   0  0  0  0  0  0
   35.7910   13.3610   48.9240 O   0  0  0  0  0  0
   34.4610    9.3470   44.0350 C   0  0  2  0  0  0
   33.6630    8.0640   44.2760 C   0  0  2  0  0  0
   34.6180    6.9050   44.5040 C   0  0  2  0  0  0
   35.5850    6.8290   43.3180 C   0  0  1  0  0  0
   36.2970    8.1590   43.1020 C   0  0  1  0  0  0
   37.1270    8.1190   41.8330 C   0  0  0  0  0  0
   32.8650    7.7610   43.1390 O   0  0  0  0  0  0
   33.8610    5.7000   44.6210 O   0  0  0  0  0  0
   36.5630    5.8280   43.5420 O   0  0  0  0  0  0
   35.3450    9.1870   42.9490 O   0  0  0  0  0  0
   37.9210    9.2950   41.7320 O   0  0  0  0  0  0
   31.5650    8.3600   43.1220 C   0  0  1  0  0  0
   31.2060    8.4370   41.6360 C   0  0  1  0  0  0
   29.8100    9.0040   41.5220 C   0  0  2  0  0  0
   28.8450    8.1500   42.3490 C   0  0  1  0  0  0
   29.3100    8.0830   43.8010 C   0  0  1  0  0  0
   28.3590    7.2430   44.6640 C   0  0  0  0  0  0
   33.2130    8.8800   40.2590 C   0  0  0  0  0  0
   34.1380    9.9510   39.7610 C   0  0  0  0  0  0
   32.2020    9.3070   41.0070 N   0  0  0  0  0  0
   29.4320    8.9380   40.1650 O   0  0  0  0  0  0
   27.5840    8.7660   42.3430 O   0  0  0  0  0  0
   30.6520    7.5880   43.8400 O   0  0  0  0  0  0
   28.2710    5.9160   44.1980 O   0  0  0  0  0  0
   33.4180    7.6920   39.9860 O   0  0  0  0  0  0
   34.9280   13.6710   50.0380 C   0  0  2  0  0  0
   35.8020   13.6870   51.3050 C   0  0  2  0  0  0
   36.1960   12.2800   51.7200 C   0  0  2  0  0  0
   34.9920   11.3760   51.7770 C   0  0  1  0  0  0
   34.3010   11.4130   50.4210 C   0  0  1  0  0  0
   33.0960   10.4910   50.4030 C   0  0  0  0  0  0
   34.9990   14.3060   52.2720 O   0  0  0  0  0  0
   36.8830   12.3530   52.9720 O   0  0  0  0  0  0
   35.4580   10.0690   52.0280 O   0  0  0  0  0  0
   33.8470   12.7470   50.1450 O   0  0  0  0  0  0
   32.0850   10.9120   51.3170 O   0  0  0  0  0  0
   35.5610   15.4680   52.9180 C   0  0  1  0  0  0
   34.4570   16.3520   53.4660 C   0  0  1  0  0  0
   35.1000   17.5250   54.2090 C   0  0  2  0  0  0
   36.1570   17.0860   55.2060 C   0  0  1  0  0  0
   37.1530   16.1100   54.5910 C   0  0  1  0  0  0
   38.1020   15.4410   55.5790 C   0  0  0  0  0  0
   32.2790   16.9780   52.5200 C   0  0  0  0  0  0
   31.5300   17.5050   51.3240 C   0  0  0  0  0  0
   33.5910   16.8510   52.3870 N   0  0  0  0  0  0
   34.1000   18.3240   54.8460 O   0  0  0  0  0  0
   36.8530   18.1950   55.8030 O   0  0  0  0  0  0
   36.4660   15.0730   53.8990 O   0  0  0  0  0  0
   39.1460   14.7920   54.8880 O   0  0  0  0  0  0
   31.6930   16.7110   53.5820 O   0  0  0  0  0  0
   51.1248   20.8670   40.8173 H   0  0  0  0  0  0
   51.2963   19.1393   41.2782 H   0  0  0  0  0  0
   49.9877   20.1359   42.0001 H   0  0  0  0  0  0
   50.3505   19.4183   39.1311 H   0  0  0  0  0  0
   48.3619   17.9260   39.4979 H   0  0  0  0  0  0
   49.6346   17.5265   40.7009 H   0  0  0  0  0  0
   46.6352   17.0198   40.7216 H   0  0  0  0  0  0
   47.1031   21.3364   38.5100 H   0  0  0  0  0  0
   46.0512   18.9119   43.1023 H   0  0  0  0  0  0
   44.4478   17.1617   41.1962 H   0  0  0  0  0  0
   43.1946   18.7962   43.4924 H   0  0  0  0  0  0
   43.5521   15.7118   43.4513 H   0  0  0  0  0  0
   44.9252   17.9633   45.0154 H   0  0  0  0  0  0
   46.2604   16.0601   45.9945 H   0  0  0  0  0  0
   44.5123   15.8261   46.3351 H   0  0  0  0  0  0
   43.7543   21.3691   40.0389 H   0  0  0  0  0  0
   43.0824   20.5864   38.5683 H   0  0  0  0  0  0
   44.8338   20.9755   38.6581 H   0  0  0  0  0  0
   44.0159   20.1866   41.7119 H   0  0  0  0  0  0
   41.8130   18.3848   41.4613 H   0  0  0  0  0  0
   45.5316   13.6995   45.3688 H   0  0  0  0  0  0
   42.6554   14.6723   45.1378 H   0  0  0  0  0  0
   40.3143   16.5193   46.0222 H   0  0  0  0  0  0
   40.8239   13.5594   46.8937 H   0  0  0  0  0  0
   38.7310   14.4965   44.9478 H   0  0  0  0  0  0
   41.4164   13.0634   44.2943 H   0  0  0  0  0  0
   40.7730   13.3451   41.9454 H   0  0  0  0  0  0
   39.5770   12.3362   42.8275 H   0  0  0  0  0  0
   42.8868   16.5653   49.5495 H   0  0  0  0  0  0
   41.5951   17.6812   50.1091 H   0  0  0  0  0  0
   42.9884   18.3184   49.1714 H   0  0  0  0  0  0
   42.3710   15.3296   47.9192 H   0  0  0  0  0  0
   39.5086   15.0191   48.4799 H   0  0  0  0  0  0
   38.4145   14.0993   41.4389 H   0  0  0  0  0  0
   37.2567   13.0297   44.4832 H   0  0  0  0  0  0
   37.4992   10.5141   44.3095 H   0  0  0  0  0  0
   35.2126   11.5017   44.3475 H   0  0  0  0  0  0
   35.3146   11.3810   47.4408 H   0  0  0  0  0  0
   35.4846   13.8614   45.6196 H   0  0  0  0  0  0
   35.7690   15.0562   47.7302 H   0  0  0  0  0  0
   34.2332   14.1264   47.7896 H   0  0  0  0  0  0
   38.8386   10.0665   46.2974 H   0  0  0  0  0  0
   33.1347   10.9521   46.3724 H   0  0  0  0  0  0
   33.8506   10.2047   43.7159 H   0  0  0  0  0  0
   32.9652    8.1948   45.1162 H   0  0  0  0  0  0
   35.1641    6.9944   45.4547 H   0  0  0  0  0  0
   35.0378    6.5225   42.4143 H   0  0  0  0  0  0
   36.9063    8.4089   43.9831 H   0  0  0  0  0  0
   37.7862    7.2386   41.8536 H   0  0  0  0  0  0
   36.4601    8.0573   40.9604 H   0  0  0  0  0  0
   33.1185    5.5929   45.4255 H   0  0  0  0  0  0
   36.2541    4.7876   43.7210 H   0  0  0  0  0  0
   38.5888    9.4354   40.8692 H   0  0  0  0  0  0
   31.5444    9.3112   43.6741 H   0  0  0  0  0  0
   31.2351    7.4720   41.1088 H   0  0  0  0  0  0
   29.7723   10.0627   41.8182 H   0  0  0  0  0  0
   28.7245    7.1497   41.9076 H   0  0  0  0  0  0
   29.3688    9.0907   44.2381 H   0  0  0  0  0  0
   28.7258    7.2232   45.7009 H   0  0  0  0  0  0
   27.3529    7.6870   44.6394 H   0  0  0  0  0  0
   33.7843   10.9324   40.1101 H   0  0  0  0  0  0
   34.1560    9.9377   38.6612 H   0  0  0  0  0  0
   35.1519    9.7682   40.1466 H   0  0  0  0  0  0
   32.1424   10.3973   41.1401 H   0  0  0  0  0  0
   30.0070    9.4893   39.4064 H   0  0  0  0  0  0
   27.0522    8.9211   41.3927 H   0  0  0  0  0  0
   27.6252    5.1925   44.7171 H   0  0  0  0  0  0
   34.4154   14.6228   49.8348 H   0  0  0  0  0  0
   36.7314   14.2694   51.2217 H   0  0  0  0  0  0
   36.9116   11.8275   51.0177 H   0  0  0  0  0  0
   34.3030   11.6336   52.5948 H   0  0  0  0  0  0
   35.0180   11.1352   49.6344 H   0  0  0  0  0  0
   32.6604   10.4766   49.3930 H   0  0  0  0  0  0
   33.4083    9.4739   50.6821 H   0  0  0  0  0  0
   37.7819   12.9793   53.0704 H   0  0  0  0  0  0
   35.9875    9.8445   52.9656 H   0  0  0  0  0  0
   31.1527   10.3356   51.4096 H   0  0  0  0  0  0
   36.1829   16.0180   52.1964 H   0  0  0  0  0  0
   33.8004   15.7647   54.1248 H   0  0  0  0  0  0
   35.5807   18.1919   53.4781 H   0  0  0  0  0  0
   35.6306   16.6118   56.0474 H   0  0  0  0  0  0
   37.7385   16.6923   53.8643 H   0  0  0  0  0  0
   38.5311   16.2017   56.2477 H   0  0  0  0  0  0
   37.5488   14.6997   56.1743 H   0  0  0  0  0  0
   32.2339   17.6736   50.4957 H   0  0  0  0  0  0
   31.0396   18.4538   51.5874 H   0  0  0  0  0  0
   30.7696   16.7724   51.0156 H   0  0  0  0  0  0
   34.0280   17.1374   51.4190 H   0  0  0  0  0  0
   33.2593   18.7234   54.2597 H   0  0  0  0  0  0
   36.2865   18.9991   56.2955 H   0  0  0  0  0  0
   39.9256   14.2547   55.4480 H   0  0  0  0  0  0
  1  2  1  0  0  0
  1 99  1  0  0  0
  1100  1  0  0  0
  1101  1  0  0  0
  2  3  1  0  0  0
  2  5  1  0  0  0
  2102  1  0  0  0
  3  4  2  0  0  0
  3  9  1  0  0  0
  5  6  1  0  0  0
  5103  1  0  0  0
  5104  1  0  0  0
  6  7  2  0  0  0
  6  8  1  0  0  0
  8 10  1  0  0  0
  8105  1  0  0  0
  9106  1  0  0  0
 10 11  1  0  0  0
 10 21  1  0  0  0
 10107  1  0  0  0
 11 12  1  0  0  0
 11 18  1  0  0  0
 11108  1  0  0  0
 12 13  1  0  0  0
 12 19  1  0  0  0
 12109  1  0  0  0
 13 14  1  0  0  0
 13 20  1  0  0  0
 13110  1  0  0  0
 14 15  1  0  0  0
 14 21  1  0  0  0
 14111  1  0  0  0
 15 22  1  0  0  0
 15112  1  0  0  0
 15113  1  0  0  0
 16 17  1  0  0  0
 16 18  1  0  0  0
 16 23  2  0  0  0
 17114  1  0  0  0
 17115  1  0  0  0
 17116  1  0  0  0
 18117  1  0  0  0
 19118  1  0  0  0
 20 24  1  0  0  0
 22119  1  0  0  0
 24 25  1  0  0  0
 24 35  1  0  0  0
 24120  1  0  0  0
 25 26  1  0  0  0
 25 32  1  0  0  0
 25121  1  0  0  0
 26 27  1  0  0  0
 26 33  1  0  0  0
 26122  1  0  0  0
 27 28  1  0  0  0
 27 34  1  0  0  0
 27123  1  0  0  0
 28 29  1  0  0  0
 28 35  1  0  0  0
 28124  1  0  0  0
 29 36  1  0  0  0
 29125  1  0  0  0
 29126  1  0  0  0
 30 31  1  0  0  0
 30 32  1  0  0  0
 30 37  2  0  0  0
 31127  1  0  0  0
 31128  1  0  0  0
 31129  1  0  0  0
 32130  1  0  0  0
 33131  1  0  0  0
 34 38  1  0  0  0
 36132  1  0  0  0
 38 39  1  0  0  0
 38 47  1  0  0  0
 38133  1  0  0  0
 39 40  1  0  0  0
 39 44  1  0  0  0
 39134  1  0  0  0
 40 41  1  0  0  0
 40 45  1  0  0  0
 40135  1  0  0  0
 41 42  1  0  0  0
 41 46  1  0  0  0
 41136  1  0  0  0
 42 43  1  0  0  0
 42 47  1  0  0  0
 42137  1  0  0  0
 43 48  1  0  0  0
 43138  1  0  0  0
 43139  1  0  0  0
 44140  1  0  0  0
 45 49  1  0  0  0
 46141  1  0  0  0
 48 74  1  0  0  0
 49 50  1  0  0  0
 49 58  1  0  0  0
 49142  1  0  0  0
 50 51  1  0  0  0
 50 55  1  0  0  0
 50143  1  0  0  0
 51 52  1  0  0  0
 51 56  1  0  0  0
 51144  1  0  0  0
 52 53  1  0  0  0
 52 57  1  0  0  0
 52145  1  0  0  0
 53 54  1  0  0  0
 53 58  1  0  0  0
 53146  1  0  0  0
 54 59  1  0  0  0
 54147  1  0  0  0
 54148  1  0  0  0
 55 60  1  0  0  0
 56149  1  0  0  0
 57150  1  0  0  0
 59151  1  0  0  0
 60 61  1  0  0  0
 60 71  1  0  0  0
 60152  1  0  0  0
 61 62  1  0  0  0
 61 68  1  0  0  0
 61153  1  0  0  0
 62 63  1  0  0  0
 62 69  1  0  0  0
 62154  1  0  0  0
 63 64  1  0  0  0
 63 70  1  0  0  0
 63155  1  0  0  0
 64 65  1  0  0  0
 64 71  1  0  0  0
 64156  1  0  0  0
 65 72  1  0  0  0
 65157  1  0  0  0
 65158  1  0  0  0
 66 67  1  0  0  0
 66 68  1  0  0  0
 66 73  2  0  0  0
 67159  1  0  0  0
 67160  1  0  0  0
 67161  1  0  0  0
 68162  1  0  0  0
 69163  1  0  0  0
 70164  1  0  0  0
 72165  1  0  0  0
 74 75  1  0  0  0
 74 83  1  0  0  0
 74166  1  0  0  0
 75 76  1  0  0  0
 75 80  1  0  0  0
 75167  1  0  0  0
 76 77  1  0  0  0
 76 81  1  0  0  0
 76168  1  0  0  0
 77 78  1  0  0  0
 77 82  1  0  0  0
 77169  1  0  0  0
 78 79  1  0  0  0
 78 83  1  0  0  0
 78170  1  0  0  0
 79 84  1  0  0  0
 79171  1  0  0  0
 79172  1  0  0  0
 80 85  1  0  0  0
 81173  1  0  0  0
 82174  1  0  0  0
 84175  1  0  0  0
 85 86  1  0  0  0
 85 96  1  0  0  0
 85176  1  0  0  0
 86 87  1  0  0  0
 86 93  1  0  0  0
 86177  1  0  0  0
 87 88  1  0  0  0
 87 94  1  0  0  0
 87178  1  0  0  0
 88 89  1  0  0  0
 88 95  1  0  0  0
 88179  1  0  0  0
 89 90  1  0  0  0
 89 96  1  0  0  0
 89180  1  0  0  0
 90 97  1  0  0  0
 90181  1  0  0  0
 90182  1  0  0  0
 91 92  1  0  0  0
 91 93  1  0  0  0
 91 98  2  0  0  0
 92183  1  0  0  0
 92184  1  0  0  0
 92185  1  0  0  0
 93186  1  0  0  0
 94187  1  0  0  0
 95188  1  0  0  0
 97189  1  0  0  0
M  CHG  1   1   1
M  END
> <s_m_source_file>
../3zyr_ligand.sdf

> <i_m_source_file_index>
1

> <s_epik_input>
Tz1DKFtPSF0pW0NAQEhdKFtOSDMrXSlbQ0gyXUMoPU8pW05IXVtDQEhdMVtDQEhdKFtOSF1DKD1PKVtDSDNdKVtDQEBIXShbT0hdKVtDQEBIXShbQ0BIXShPMSlbQ0gyXVtPSF0pT1tDQEhdMltDQEhdKFtOSF1DKD1PKVtDSDNdKVtDQEBIXShbT0hdKVtDQEBIXShbQ0BIXShPMilbQ0gyXVtPSF0pT1tDQEhdM1tDQEBIXShbT0hdKVtDQEBIXShPW0NAQEhdNFtDQEhdKFtDQEBIXShbT0hdKVtDQEhdKFtPSF0pW0NASF0oTzQpW0NIMl1bT0hdKU9bQ0BIXTVbQ0BIXShbTkhdQyg9TylbQ0gzXSlbQ0BASF0oW09IXSlbQ0BIXShbT0hdKVtDQEhdKE81KVtDSDJdW09IXSlbQ0BIXShbT0hdKVtDQEhdKE8zKVtDSDJdT1tDQEBIXTZbQ0BIXShbQ0BASF0oW09IXSlbQ0BIXShbT0hdKVtDQEhdKE82KVtDSDJdW09IXSlPW0NASF03W0NASF0oW05IXUMoPU8pW0NIM10pW0NAQEhdKFtPSF0pW0NASF0oW09IXSlbQ0BIXShPNylbQ0gyXVtPSF0=

> <s_epik_cmdline>
J2VwaWtfYXBwJywgJy1pbWFlJywgJ2xpZ2FuZF9wcm8ubWFlJywgJy1vbWFlJywgJ2xpZ2FuZF9wcmVwLm1hZScsICctbXMnLCAnMScsICctcGgnLCAnNycsICctcGh0JywgJzAuNScsICctbnQn

> <s_epik_pKa_notes>
Molecule size exceeds maximum supported for generating protonation states

> <s_epik_Chemistry_Notes>
This compound contains an acetal/aminal-like group ( X-CH(R)-Y where X, Y are N, S, or O) that may be acid/base labile, releasing an aldehyde.

$$$$
