3zyu_ligand
                    3D
 Schrodinger Suite 2020-3.
 52 56  0  0  1  0            999 V2000
    3.0300   -5.5000   26.5480 O   0  0  0  0  0  0
    2.6320   -5.5910   25.3960 C   0  0  0  0  0  0
    2.2270   -6.7570   24.7660 N   0  0  0  0  0  0
    2.2600   -8.0600   25.5120 C   0  0  1  0  0  0
    0.9120   -8.7100   25.6100 C   0  0  0  0  0  0
    0.8900  -10.0500   25.6340 N   0  0  0  0  0  0
   -0.3100  -10.6330   25.7260 C   0  0  0  0  0  0
   -1.4940   -9.9390   25.7970 C   0  0  0  0  0  0
   -1.4400   -8.5700   25.7750 C   0  0  0  0  0  0
   -0.2250   -7.9350   25.6800 C   0  0  0  0  0  0
    3.3030   -8.9940   24.9390 C   0  0  0  0  0  0
    2.4940   -4.6040   24.4940 N   0  0  0  0  0  0
    2.0100   -5.1120   23.3020 C   0  0  0  0  0  0
    1.8370   -6.4610   23.4520 C   0  0  0  0  0  0
    1.7100   -4.4880   22.0980 C   0  0  0  0  0  0
    1.2490   -5.1640   21.0590 N   0  0  0  0  0  0
    1.0630   -6.4990   21.1690 C   0  0  0  0  0  0
    1.3420   -7.2330   22.3590 C   0  0  0  0  0  0
    1.1270   -8.5970   22.3820 C   0  0  0  0  0  0
    0.5670   -7.1870   20.0370 C   0  0  0  0  0  0
    0.3610   -8.5440   20.0960 C   0  0  0  0  0  0
    0.6420   -9.2410   21.2770 C   0  0  0  0  0  0
    0.3820  -10.5830   21.1950 O   0  0  0  0  0  0
    0.7890  -11.4090   22.2810 C   0  0  0  0  0  0
   -0.1960   -9.2380   18.9130 C   0  0  0  0  0  0
    0.3550  -10.3020   18.2760 C   0  0  0  0  0  0
    1.5890  -11.0780   18.4810 C   0  0  0  0  0  0
   -0.4440  -10.6920   17.2430 O   0  0  0  0  0  0
   -1.5400   -9.8320   17.2370 N   0  0  0  0  0  0
   -1.4020   -8.9550   18.2310 C   0  0  0  0  0  0
   -2.2990   -7.9910   18.4840 C   0  0  0  0  0  0
    2.5465   -7.8218   26.5470 H   0  0  0  0  0  0
   -0.3514  -11.7220   25.7458 H   0  0  0  0  0  0
   -2.4477  -10.4620   25.8687 H   0  0  0  0  0  0
   -2.3586   -7.9860   25.8327 H   0  0  0  0  0  0
   -0.1625   -6.8470   25.6605 H   0  0  0  0  0  0
    4.2712   -8.4746   24.8868 H   0  0  0  0  0  0
    2.9998   -9.3068   23.9290 H   0  0  0  0  0  0
    3.3964   -9.8797   25.5846 H   0  0  0  0  0  0
    2.7567   -3.5707   24.7648 H   0  0  0  0  0  0
    1.8585   -3.4120   22.0070 H   0  0  0  0  0  0
    1.3453   -9.1642   23.2868 H   0  0  0  0  0  0
    0.3485   -6.6412   19.1191 H   0  0  0  0  0  0
    0.5137  -12.4530   22.0708 H   0  0  0  0  0  0
    0.2886  -11.0762   23.2023 H   0  0  0  0  0  0
    1.8791  -11.3359   22.4088 H   0  0  0  0  0  0
    2.1423  -10.6672   19.3384 H   0  0  0  0  0  0
    2.2143  -11.0177   17.5780 H   0  0  0  0  0  0
    1.3324  -12.1290   18.6798 H   0  0  0  0  0  0
   -1.9658   -7.3978   19.3484 H   0  0  0  0  0  0
   -3.2748   -8.4474   18.7067 H   0  0  0  0  0  0
   -2.3923   -7.3370   17.6045 H   0  0  0  0  0  0
  1  2  2  0  0  0
  2  3  1  0  0  0
  2 12  1  0  0  0
  3  4  1  0  0  0
  3 14  1  0  0  0
  4  5  1  0  0  0
  4 11  1  0  0  0
  4 32  1  0  0  0
  5  6  2  0  0  0
  5 10  1  0  0  0
  6  7  1  0  0  0
  7  8  2  0  0  0
  7 33  1  0  0  0
  8  9  1  0  0  0
  8 34  1  0  0  0
  9 10  2  0  0  0
  9 35  1  0  0  0
 10 36  1  0  0  0
 11 37  1  0  0  0
 11 38  1  0  0  0
 11 39  1  0  0  0
 12 13  1  0  0  0
 12 40  1  0  0  0
 13 14  2  0  0  0
 13 15  1  0  0  0
 14 18  1  0  0  0
 15 16  2  0  0  0
 15 41  1  0  0  0
 16 17  1  0  0  0
 17 18  2  0  0  0
 17 20  1  0  0  0
 18 19  1  0  0  0
 19 22  2  0  0  0
 19 42  1  0  0  0
 20 21  2  0  0  0
 20 43  1  0  0  0
 21 22  1  0  0  0
 21 25  1  0  0  0
 22 23  1  0  0  0
 23 24  1  0  0  0
 24 44  1  0  0  0
 24 45  1  0  0  0
 24 46  1  0  0  0
 25 26  2  0  0  0
 25 30  1  0  0  0
 26 27  1  0  0  0
 26 28  1  0  0  0
 27 47  1  0  0  0
 27 48  1  0  0  0
 27 49  1  0  0  0
 28 29  1  0  0  0
 29 30  2  0  0  0
 30 31  1  0  0  0
 31 50  1  0  0  0
 31 51  1  0  0  0
 31 52  1  0  0  0
M  END
> <s_m_source_file>
../3zyu_ligand.sdf

> <i_m_source_file_index>
1

> <s_epik_input>
W2NIXTFbY0hdW2NIXVtjSF1uYzFbQ0BASF0oW0NIM10pbihjKD1PKVtuSF0yKWMoYzIzKWM0YyhuW2NIXTMpW2NIXWMoYyhbY0hdNClPW0NIM10pLWM1YyhbQ0gzXSlvbmM1W0NIM10=

> <s_epik_cmdline>
J2VwaWtfYXBwJywgJy1pbWFlJywgJ2xpZ2FuZF9wcm8ubWFlJywgJy1vbWFlJywgJ2xpZ2FuZF9wcmVwLm1hZScsICctbXMnLCAnMScsICctcGgnLCAnNycsICctcGh0JywgJzAuNScsICctbnQn

> <r_lp_tautomer_probability>
1

> <r_epik_Ionization_Penalty>
  0.0009

> <r_epik_Ionization_Penalty_Charging>
  0.0003

> <r_epik_Ionization_Penalty_Neutral>
  0.0006

> <r_epik_State_Penalty>
 -0.0000

> <r_epik_Charging_Adjusted_Penalty>
0.000307053500081218

> <i_epik_Tot_Q>
0

> <i_epik_Tot_abs_Q>
0

$$$$
