3zze_ligand
                    3D
 Schrodinger Suite 2020-3.
 43 45  0  0  1  0            999 V2000
   19.7130    7.1210    8.2550 C   0  0  0  0  0  0
   16.9290    8.1040    7.8770 C   0  0  0  0  0  0
   17.5310    8.4050    5.4870 C   0  0  0  0  0  0
   15.5250    8.1100    7.5120 C   0  0  0  0  0  0
   16.1480    8.4120    5.1220 C   0  0  0  0  0  0
   19.9560    9.5880    7.8300 C   0  0  0  0  0  0
   21.1430   14.8090    1.3270 C   0  0  0  0  0  0
   19.4560    8.2530    7.2430 C   0  0  2  0  0  0
   20.9090   13.6360    4.1290 N   0  0  0  0  0  0
   20.1210   10.4080    5.5880 N   0  0  1  0  0  0
   20.3730   10.5830    6.9720 N   0  0  0  0  0  0
   20.8300   13.1160    6.3960 O   0  0  0  0  0  0
   19.9710    9.7730    9.0510 O   0  0  0  0  0  0
   13.8350    8.2710    5.7940 O   0  0  0  0  0  0
   19.6810    8.9150    2.5140 Cl  0  0  0  0  0  0
   17.9610    8.2510    6.8590 C   0  0  0  0  0  0
   15.1550    8.2650    6.1330 C   0  0  0  0  0  0
   20.5250   12.4290    0.6130 C   0  0  0  0  0  0
   20.1740   11.0110    0.9300 C   0  0  0  0  0  0
   20.3470   11.4960    3.3590 C   0  0  0  0  0  0
   20.7860   13.3760    1.6000 C   0  0  0  0  0  0
   20.3610   11.4340    4.7020 C   0  0  3  0  0  0
   20.0880   10.5640    2.2350 C   0  0  0  0  0  0
   20.7030   12.9230    3.0700 C   0  0  0  0  0  0
   20.7230   12.8080    5.2020 C   0  0  0  0  0  0
   20.7767    7.1141    8.5351 H   0  0  0  0  0  0
   19.4474    6.1553    7.8002 H   0  0  0  0  0  0
   19.0985    7.2850    9.1525 H   0  0  0  0  0  0
   17.2146    7.9884    8.9226 H   0  0  0  0  0  0
   18.2838    8.5192    4.7071 H   0  0  0  0  0  0
   14.7575    7.9978    8.2778 H   0  0  0  0  0  0
   15.8560    8.5289    4.0784 H   0  0  0  0  0  0
   21.1632   14.9813    0.2408 H   0  0  0  0  0  0
   22.1341   15.0272    1.7514 H   0  0  0  0  0  0
   20.3932   15.4681    1.7889 H   0  0  0  0  0  0
   20.0214    8.0990    6.3121 H   0  0  0  0  0  0
   21.1773   14.6985    4.0331 H   0  0  0  0  0  0
   20.7690    9.6731    5.3045 H   0  0  0  0  0  0
   20.8852   11.4893    7.3275 H   0  0  0  0  0  0
   13.0666    8.1577    6.5729 H   0  0  0  0  0  0
   20.5788   12.7338   -0.4321 H   0  0  0  0  0  0
   19.9817   10.3143    0.1141 H   0  0  0  0  0  0
   21.4272   11.1643    4.6784 H   0  0  0  0  0  0
  1  8  1  0  0  0
  1 26  1  0  0  0
  1 27  1  0  0  0
  1 28  1  0  0  0
  2  4  2  0  0  0
  2 16  1  0  0  0
  2 29  1  0  0  0
  3  5  1  0  0  0
  3 16  2  0  0  0
  3 30  1  0  0  0
  4 17  1  0  0  0
  4 31  1  0  0  0
  5 17  2  0  0  0
  5 32  1  0  0  0
  6  8  1  0  0  0
  6 11  1  0  0  0
  6 13  2  0  0  0
  7 21  1  0  0  0
  7 33  1  0  0  0
  7 34  1  0  0  0
  7 35  1  0  0  0
  8 16  1  0  0  0
  8 36  1  0  0  0
  9 24  1  0  0  0
  9 25  1  0  0  0
  9 37  1  0  0  0
 10 11  1  0  0  0
 10 22  1  0  0  0
 10 38  1  0  0  0
 11 39  1  0  0  0
 12 25  2  0  0  0
 14 17  1  0  0  0
 14 40  1  0  0  0
 15 23  1  0  0  0
 18 19  2  0  0  0
 18 21  1  0  0  0
 18 41  1  0  0  0
 19 23  1  0  0  0
 19 42  1  0  0  0
 20 22  1  0  0  0
 20 23  2  0  0  0
 20 24  1  0  0  0
 21 24  2  0  0  0
 22 25  1  0  0  0
 22 43  1  0  0  0
M  END
> <s_m_source_file>
../3zze_ligand.sdf

> <i_m_source_file_index>
1

> <s_epik_input>
W2NIXTFbY0hdYyhbT0hdKVtjSF1bY0hdYzFbQ0BIXShbQ0gzXSlDKD1PKVtOSF1bTkgyK11bQ0hdMkMoPU8pW05IXWMoYzIzKWMoW0NIM10pW2NIXVtjSF1jM0Ns

> <s_epik_cmdline>
J2VwaWtfYXBwJywgJy1pbWFlJywgJ2xpZ2FuZF9wcm8ubWFlJywgJy1vbWFlJywgJ2xpZ2FuZF9wcmVwLm1hZScsICctbXMnLCAnMScsICctcGgnLCAnNycsICctcGh0JywgJzAuNScsICctbnQn

> <r_lp_tautomer_probability>
1

> <r_epik_Ionization_Penalty>
  0.0009

> <r_epik_Ionization_Penalty_Charging>
  0.0000

> <r_epik_Ionization_Penalty_Neutral>
  0.0009

> <r_epik_State_Penalty>
 -0.0000

> <r_epik_Charging_Adjusted_Penalty>
0

> <i_epik_Tot_Q>
0

> <i_epik_Tot_abs_Q>
0

$$$$
