456c_ligand
                    3D
 Schrodinger Suite 2020-3.
 48 50  0  0  1  0            999 V2000
   -8.2050   26.4530   50.6170 C   0  0  0  0  0  0
   -9.5010   26.2820   50.1420 C   0  0  0  0  0  0
   -9.8810   26.8440   48.9250 C   0  0  0  0  0  0
   -8.9300   27.5900   48.2270 C   0  0  0  0  0  0
   -7.6420   27.7990   48.7010 C   0  0  0  0  0  0
   -7.2760   27.2160   49.9030 C   0  0  0  0  0  0
   -7.8700   25.7800   51.7780 O   0  0  0  0  0  0
   -7.2370   26.4150   52.8450 C   0  0  0  0  0  0
   -6.8490   25.5710   53.8770 C   0  0  0  0  0  0
   -6.3180   26.0780   55.0490 C   0  0  0  0  0  0
   -6.1830   27.4460   55.1960 C   0  0  0  0  0  0
   -6.5050   28.3000   54.1530 C   0  0  0  0  0  0
   -7.0270   27.7940   52.9740 C   0  0  0  0  0  0
   -5.6130   28.1620   56.7250 S   0  0  0  0  0  0
   -5.6520   27.1610   57.7450 O   0  0  0  0  0  0
   -6.4490   29.3070   56.9080 O   0  0  0  0  0  0
   -3.8810   28.7010   56.5780 C   0  0  0  0  0  0
   -3.6280   29.6000   57.8350 C   0  0  0  0  0  0
   -2.3980   30.5270   57.7130 C   0  0  0  0  0  0
   -2.4130   31.2060   56.4750 O   0  0  0  0  0  0
   -2.4250   30.3770   55.3210 C   0  0  0  0  0  0
   -3.7240   29.5820   55.3110 C   0  0  0  0  0  0
   -2.9130   27.4700   56.6050 C   0  0  0  0  0  0
   -2.8230   26.5310   55.3820 C   0  0  0  0  0  0
   -2.9440   25.2310   55.6160 N   0  0  0  0  0  0
   -2.5970   26.9030   54.2270 O   0  0  0  0  0  0
   -2.5660   24.3950   54.5570 O   0  0  0  0  0  0
   -9.3320   28.2410   46.6920 Cl  0  0  0  0  0  0
  -10.2214   25.7067   50.7235 H   0  0  0  0  0  0
  -10.8878   26.7056   48.5310 H   0  0  0  0  0  0
   -6.9341   28.4086   48.1395 H   0  0  0  0  0  0
   -6.2665   27.3517   50.2912 H   0  0  0  0  0  0
   -6.9646   24.4933   53.7618 H   0  0  0  0  0  0
   -6.0089   25.4055   55.8492 H   0  0  0  0  0  0
   -6.3470   29.3731   54.2608 H   0  0  0  0  0  0
   -7.2730   28.4651   52.1511 H   0  0  0  0  0  0
   -4.5025   30.2448   58.0066 H   0  0  0  0  0  0
   -3.4649   28.9614   58.7157 H   0  0  0  0  0  0
   -2.4142   31.2667   58.5270 H   0  0  0  0  0  0
   -1.4785   29.9271   57.7810 H   0  0  0  0  0  0
   -2.3611   31.0033   54.4190 H   0  0  0  0  0  0
   -1.5654   29.6914   55.3530 H   0  0  0  0  0  0
   -3.7260   28.9416   54.4166 H   0  0  0  0  0  0
   -4.5603   30.2943   55.2538 H   0  0  0  0  0  0
   -1.8798   27.8191   56.7484 H   0  0  0  0  0  0
   -3.1925   26.8018   57.4329 H   0  0  0  0  0  0
   -3.3098   24.7950   56.5573 H   0  0  0  0  0  0
   -2.6350   23.3027   54.6670 H   0  0  0  0  0  0
  1  7  1  0  0  0
  1  6  2  0  0  0
  1  2  1  0  0  0
  2  3  2  0  0  0
  2 29  1  0  0  0
  3  4  1  0  0  0
  3 30  1  0  0  0
  4  5  2  0  0  0
  4 28  1  0  0  0
  5  6  1  0  0  0
  5 31  1  0  0  0
  6 32  1  0  0  0
  7  8  1  0  0  0
  8 13  2  0  0  0
  8  9  1  0  0  0
  9 10  2  0  0  0
  9 33  1  0  0  0
 10 11  1  0  0  0
 10 34  1  0  0  0
 11 14  1  0  0  0
 11 12  2  0  0  0
 12 13  1  0  0  0
 12 35  1  0  0  0
 13 36  1  0  0  0
 14 17  1  0  0  0
 14 16  2  0  0  0
 14 15  2  0  0  0
 17 23  1  0  0  0
 17 22  1  0  0  0
 17 18  1  0  0  0
 18 19  1  0  0  0
 18 37  1  0  0  0
 18 38  1  0  0  0
 19 20  1  0  0  0
 19 39  1  0  0  0
 19 40  1  0  0  0
 20 21  1  0  0  0
 21 22  1  0  0  0
 21 41  1  0  0  0
 21 42  1  0  0  0
 22 43  1  0  0  0
 22 44  1  0  0  0
 23 24  1  0  0  0
 23 45  1  0  0  0
 23 46  1  0  0  0
 24 26  2  0  0  0
 24 25  1  0  0  0
 25 27  1  0  0  0
 25 47  1  0  0  0
 27 48  1  0  0  0
M  END
> <s_m_source_file>
../456c_ligand.sdf

> <i_m_source_file_index>
1

> <s_epik_input>
W2NIXTFbY0hdYyhDbClbY0hdW2NIXWMxT2MyW2NIXVtjSF1jKFtjSF1bY0hdMilTKD1PKSg9TylDMyhbQ0gyXUMoPU8pW05IXVtPSF0pW0NIMl1bQ0gyXU9bQ0gyXVtDSDJdMw==

> <s_epik_cmdline>
J2VwaWtfYXBwJywgJy1pbWFlJywgJ2xpZ2FuZF9wcm8ubWFlJywgJy1vbWFlJywgJ2xpZ2FuZF9wcmVwLm1hZScsICctbXMnLCAnMScsICctcGgnLCAnNycsICctcGh0JywgJzAuNScsICctbnQn

> <r_lp_tautomer_probability>
1

> <r_epik_Ionization_Penalty>
  0.0087

> <r_epik_Ionization_Penalty_Charging>
  0.0000

> <r_epik_Ionization_Penalty_Neutral>
  0.0087

> <r_epik_State_Penalty>
 -0.0000

> <r_epik_Charging_Adjusted_Penalty>
0

> <i_epik_Tot_Q>
0

> <i_epik_Tot_abs_Q>
0

> <s_epik_Chemistry_Notes>
This compound has a N-S or N-O group and may undergo hydrolysis at high or low pH.

$$$$
