4a0j_ligand
                    3D
 Schrodinger Suite 2020-3.
 96 95  0  0  1  0            999 V2000
   -3.5910  -44.7810   30.1140 N   0  3  0  0  0  0
   -2.7210  -44.6460   31.2800 C   0  0  2  0  0  0
   -3.2820  -43.6650   32.3130 C   0  0  0  0  0  0
   -4.3730  -43.1280   32.1360 O   0  0  0  0  0  0
   -1.3410  -44.2260   30.8480 C   0  0  0  0  0  0
   -2.5330  -43.4380   33.3890 N   0  0  0  0  0  0
   -2.9520  -42.5070   34.4370 C   0  0  2  0  0  0
   -2.2790  -41.1510   34.2820 C   0  0  0  0  0  0
   -1.2060  -41.0500   33.6920 O   0  0  0  0  0  0
   -2.5890  -43.0400   35.8270 C   0  0  0  0  0  0
   -3.2010  -44.3660   36.2070 C   0  0  0  0  0  0
   -2.8320  -44.7120   37.6410 C   0  0  0  0  0  0
   -1.4340  -44.3940   37.9340 N   0  0  0  0  0  0
   -0.4140  -45.2240   37.7280 C   0  0  0  0  0  0
   -0.6250  -46.4310   37.2220 N   0  0  0  0  0  0
    0.8210  -44.8490   38.0280 N   0  3  0  0  0  0
   -2.9050  -40.1170   34.8360 N   0  0  0  0  0  0
   -2.2300  -38.8410   35.0410 C   0  0  1  0  0  0
   -3.2430  -37.7390   35.3970 C   0  0  1  0  0  0
   -2.5270  -36.4910   35.9280 C   0  0  0  0  0  0
   -4.0310  -37.3860   34.2540 O   0  0  0  0  0  0
   -5.4840  -36.9470   34.7930 P   0  0  0  0  0  0
   -6.5420  -37.4520   33.8880 O   0  0  0  0  0  0
   -5.6740  -37.5460   36.2760 O   0  5  0  0  0  0
   -5.5970  -35.3420   34.8530 O   0  5  0  0  0  0
   -1.2170  -39.0320   36.1690 C   0  0  0  0  0  0
   -1.5330  -39.6260   37.2010 O   0  0  0  0  0  0
    0.0020  -38.5440   35.9670 N   0  0  0  0  0  0
    1.0700  -38.7110   36.9520 C   0  0  2  0  0  0
    0.6620  -38.2360   38.3480 C   0  0  0  0  0  0
   -0.1270  -37.2970   38.4940 O   0  0  0  0  0  0
    2.3440  -37.9840   36.5020 C   0  0  0  0  0  0
    3.4860  -38.0700   37.5060 C   0  0  0  0  0  0
    4.5650  -37.0150   37.2660 C   0  0  0  0  0  0
    5.5740  -37.0360   38.4120 C   0  0  0  0  0  0
    6.5380  -35.9060   38.3630 N   0  3  0  0  0  0
    1.2060  -38.8920   39.3680 N   0  0  0  0  0  0
    0.9370  -38.5170   40.7500 C   0  0  2  0  0  0
    2.2400  -38.1750   41.4760 C   0  0  0  0  0  0
    3.2660  -38.8230   41.2650 O   0  0  0  0  0  0
    0.1950  -39.6470   41.4660 C   0  0  0  0  0  0
    2.1930  -37.1470   42.3210 N   0  0  0  0  0  0
    3.3590  -36.7030   43.0910 C   0  0  2  0  0  0
    4.4630  -36.0980   42.2160 C   0  0  0  0  0  0
    5.0150  -35.0360   42.5310 O   0  0  0  0  0  0
    3.9470  -37.8430   43.9590 C   0  0  0  0  0  0
    4.8135  -36.6906   41.1608 O   0  5  0  0  0  0
   -4.5958  -45.0878   30.4398 H   0  0  0  0  0  0
   -3.1779  -45.5409   29.4344 H   0  0  0  0  0  0
   -3.6542  -43.8159   29.5900 H   0  0  0  0  0  0
   -2.6806  -45.6498   31.7280 H   0  0  0  0  0  0
   -0.9551  -44.9416   30.1071 H   0  0  0  0  0  0
   -0.6732  -44.2070   31.7219 H   0  0  0  0  0  0
   -1.3867  -43.2226   30.3995 H   0  0  0  0  0  0
   -1.5757  -43.9723   33.4786 H   0  0  0  0  0  0
   -4.0401  -42.4262   34.2972 H   0  0  0  0  0  0
   -1.4995  -43.1757   35.8946 H   0  0  0  0  0  0
   -2.9172  -42.3214   36.5925 H   0  0  0  0  0  0
   -4.2956  -44.3035   36.1183 H   0  0  0  0  0  0
   -2.8229  -45.1504   35.5349 H   0  0  0  0  0  0
   -3.4685  -44.1395   38.3317 H   0  0  0  0  0  0
   -2.9840  -45.7884   37.8092 H   0  0  0  0  0  0
   -1.1696  -43.4122   38.3537 H   0  0  0  0  0  0
   -1.6469  -46.7508   36.9700 H   0  0  0  0  0  0
    0.2218  -47.1127   37.0541 H   0  0  0  0  0  0
    1.0055  -43.8493   38.4483 H   0  0  0  0  0  0
   -3.9545  -40.2394   35.1420 H   0  0  0  0  0  0
   -1.7322  -38.5718   34.0977 H   0  0  0  0  0  0
   -3.9622  -38.1204   36.1368 H   0  0  0  0  0  0
   -1.9216  -36.7612   36.8058 H   0  0  0  0  0  0
   -3.2725  -35.7350   36.2154 H   0  0  0  0  0  0
   -1.8733  -36.0817   35.1437 H   0  0  0  0  0  0
    0.1980  -38.0026   35.0297 H   0  0  0  0  0  0
    1.2305  -39.7988   36.9830 H   0  0  0  0  0  0
    2.7032  -38.4231   35.5596 H   0  0  0  0  0  0
    2.1228  -36.9174   36.3487 H   0  0  0  0  0  0
    3.0923  -37.9231   38.5226 H   0  0  0  0  0  0
    3.9617  -39.0594   37.4364 H   0  0  0  0  0  0
    5.0844  -37.2302   36.3205 H   0  0  0  0  0  0
    4.0991  -36.0201   37.2102 H   0  0  0  0  0  0
    5.0400  -36.9761   39.3718 H   0  0  0  0  0  0
    6.1540  -37.9698   38.3728 H   0  0  0  0  0  0
    7.2333  -35.9802   39.2121 H   0  0  0  0  0  0
    5.9901  -34.9539   38.4198 H   0  0  0  0  0  0
    7.1041  -35.9476   37.4208 H   0  0  0  0  0  0
    1.8743  -39.7375   39.1476 H   0  0  0  0  0  0
    0.2986  -37.6224   40.7038 H   0  0  0  0  0  0
   -0.7362  -39.8740   40.9262 H   0  0  0  0  0  0
   -0.0435  -39.3356   42.4937 H   0  0  0  0  0  0
    0.8312  -40.5440   41.4930 H   0  0  0  0  0  0
    1.2309  -36.6250   42.4297 H   0  0  0  0  0  0
    2.9323  -35.9089   43.7213 H   0  0  0  0  0  0
    3.1521  -38.2744   44.5851 H   0  0  0  0  0  0
    4.7430  -37.4404   44.6027 H   0  0  0  0  0  0
    4.3635  -38.6238   43.3056 H   0  0  0  0  0  0
    1.6617  -45.5374   37.8568 H   0  0  0  0  0  0
  1  2  1  0  0  0
  1 48  1  0  0  0
  1 49  1  0  0  0
  1 50  1  0  0  0
  2  3  1  0  0  0
  2  5  1  0  0  0
  2 51  1  0  0  0
  3  4  2  0  0  0
  3  6  1  0  0  0
  5 52  1  0  0  0
  5 53  1  0  0  0
  5 54  1  0  0  0
  6  7  1  0  0  0
  6 55  1  0  0  0
  7  8  1  0  0  0
  7 10  1  0  0  0
  7 56  1  0  0  0
  8  9  2  0  0  0
  8 17  1  0  0  0
 10 11  1  0  0  0
 10 57  1  0  0  0
 10 58  1  0  0  0
 11 12  1  0  0  0
 11 59  1  0  0  0
 11 60  1  0  0  0
 12 13  1  0  0  0
 12 61  1  0  0  0
 12 62  1  0  0  0
 13 14  1  0  0  0
 13 63  1  0  0  0
 14 15  1  0  0  0
 14 16  2  0  0  0
 15 64  1  0  0  0
 15 65  1  0  0  0
 16 66  1  0  0  0
 16 96  1  0  0  0
 17 18  1  0  0  0
 17 67  1  0  0  0
 18 19  1  0  0  0
 18 26  1  0  0  0
 18 68  1  0  0  0
 19 20  1  0  0  0
 19 21  1  0  0  0
 19 69  1  0  0  0
 20 70  1  0  0  0
 20 71  1  0  0  0
 20 72  1  0  0  0
 21 22  1  0  0  0
 22 23  2  0  0  0
 22 24  1  0  0  0
 22 25  1  0  0  0
 26 27  2  0  0  0
 26 28  1  0  0  0
 28 29  1  0  0  0
 28 73  1  0  0  0
 29 30  1  0  0  0
 29 32  1  0  0  0
 29 74  1  0  0  0
 30 31  2  0  0  0
 30 37  1  0  0  0
 32 33  1  0  0  0
 32 75  1  0  0  0
 32 76  1  0  0  0
 33 34  1  0  0  0
 33 77  1  0  0  0
 33 78  1  0  0  0
 34 35  1  0  0  0
 34 79  1  0  0  0
 34 80  1  0  0  0
 35 36  1  0  0  0
 35 81  1  0  0  0
 35 82  1  0  0  0
 36 83  1  0  0  0
 36 84  1  0  0  0
 36 85  1  0  0  0
 37 38  1  0  0  0
 37 86  1  0  0  0
 38 39  1  0  0  0
 38 41  1  0  0  0
 38 87  1  0  0  0
 39 40  2  0  0  0
 39 42  1  0  0  0
 41 88  1  0  0  0
 41 89  1  0  0  0
 41 90  1  0  0  0
 42 43  1  0  0  0
 42 91  1  0  0  0
 43 44  1  0  0  0
 43 46  1  0  0  0
 43 92  1  0  0  0
 44 45  2  0  0  0
 44 47  1  0  0  0
 46 93  1  0  0  0
 46 94  1  0  0  0
 46 95  1  0  0  0
M  CHG  6   1   1  16   1  24  -1  25  -1  36   1  47  -1
M  END
> <s_m_source_file>
../4a0j_ligand.sdf

> <i_m_source_file_index>
1

> <s_epik_input>
W0hdL049QyhbTkgyXSlcW05IXVtDSDJdW0NIMl1bQ0gyXVtDQEhdKFtOSF1DKD1PKVtDQEBIXShbTkgzK10pW0NIM10pQyg9TylbTkhdW0NAQEhdKFtDQEBIXShbQ0gzXSlPUCg9TykoW09IXSlbT0hdKUMoPU8pW05IXVtDQEBIXShbQ0gyXVtDSDJdW0NIMl1bQ0gyXVtOSDMrXSlDKD1PKVtOSF1bQ0BASF0oW0NIM10pQyg9TylbTkhdW0NAQEhdKFtDSDNdKUMoPU8pW09IXQ==

> <s_epik_cmdline>
J2VwaWtfYXBwJywgJy1pbWFlJywgJ2xpZ2FuZF9wcm8ubWFlJywgJy1vbWFlJywgJ2xpZ2FuZF9wcmVwLm1hZScsICctbXMnLCAnMScsICctcGgnLCAnNycsICctcGh0JywgJzAuNScsICctbnQn

> <r_epik_Ionization_Penalty>
  0.2138

> <r_epik_Ionization_Penalty_Charging>
  0.2138

> <r_epik_Ionization_Penalty_Neutral>
  0.0000

> <r_epik_State_Penalty>
  0.1800

> <r_epik_Charging_Adjusted_Penalty>
0.393832296765018

> <i_epik_Tot_Q>
0

> <i_epik_Tot_abs_Q>
6

> <s_epik_Chemistry_Notes>
This compound has an imine and may undergo hydrolysis.

$$$$
