4a16_ligand
                    3D
 Schrodinger Suite 2020-3.
 57 61  0  0  1  0            999 V2000
    9.9540  -25.1650   92.7710 C   0  0  0  0  0  0
    8.9140  -25.7680   93.6680 C   0  0  2  0  0  0
    7.9590  -26.6780   92.7630 C   0  0  0  0  0  0
    8.2410  -24.6940   94.2720 C   0  0  0  0  0  0
    8.8500  -24.0130   95.3490 C   0  0  0  0  0  0
   10.0410  -24.4210   95.8160 N   0  0  0  0  0  0
    8.2060  -22.9470   95.9810 C   0  0  0  0  0  0
    8.7760  -22.2840   97.0860 C   0  0  0  0  0  0
    8.0960  -21.1870   97.6650 C   0  0  0  0  0  0
    6.8370  -20.8130   97.1280 C   0  0  0  0  0  0
    5.9460  -19.4960   97.7470 Cl  0  0  0  0  0  0
    6.2570  -21.4880   96.0300 C   0  0  0  0  0  0
    6.9380  -22.5680   95.4520 C   0  0  0  0  0  0
    6.3620  -23.2200   94.4230 N   0  3  0  0  0  0
    6.9550  -24.2780   93.8220 C   0  0  0  0  0  0
    6.2810  -24.9060   92.7070 C   0  0  0  0  0  0
    7.2470  -25.7510   91.8260 C   0  0  1  0  0  0
    8.1560  -24.9480   91.0650 C   0  0  0  0  0  0
    9.4440  -24.6320   91.5210 C   0  0  0  0  0  0
   10.3090  -23.7750   90.7170 C   0  0  0  0  0  0
   10.9170  -22.5510   91.5570 C   0  0  0  0  0  0
   11.7330  -21.5960   90.7100 C   0  0  0  0  0  0
   12.2980  -20.4650   91.6050 C   0  0  0  0  0  0
   13.2600  -19.6590   90.7980 N   0  0  0  0  0  0
   14.5910  -19.7580   90.8050 C   0  0  0  0  0  0
   12.9430  -18.7640   89.8960 N   0  0  0  0  0  0
   14.0410  -18.2780   89.3220 N   0  0  0  0  0  0
   15.0490  -18.9070   89.8940 C   0  0  0  0  0  0
   16.4920  -18.6410   89.5470 C   0  0  0  0  0  0
   16.5460  -17.2730   89.1730 O   0  0  0  0  0  0
   10.4496  -24.3326   93.2921 H   0  0  0  0  0  0
   10.7001  -25.9296   92.5089 H   0  0  0  0  0  0
    9.3342  -26.3161   94.5241 H   0  0  0  0  0  0
    8.5666  -27.4072   92.2070 H   0  0  0  0  0  0
    7.2435  -27.2114   93.4061 H   0  0  0  0  0  0
   10.5639  -25.2589   95.3318 H   0  0  0  0  0  0
   10.4938  -23.9173   96.6828 H   0  0  0  0  0  0
    9.7327  -22.6136   97.4912 H   0  0  0  0  0  0
    8.5289  -20.6419   98.5038 H   0  0  0  0  0  0
    5.2906  -21.1721   95.6370 H   0  0  0  0  0  0
    5.4938  -25.5753   93.0842 H   0  0  0  0  0  0
    5.8296  -24.1324   92.0685 H   0  0  0  0  0  0
    6.7457  -26.3028   91.0171 H   0  0  0  0  0  0
    7.8112  -24.5753   90.0892 H   0  0  0  0  0  0
   11.1496  -24.3666   90.3254 H   0  0  0  0  0  0
    9.7333  -23.3563   89.8784 H   0  0  0  0  0  0
   10.0973  -21.9756   92.0120 H   0  0  0  0  0  0
   11.5750  -22.9401   92.3480 H   0  0  0  0  0  0
   12.5646  -22.1416   90.2402 H   0  0  0  0  0  0
   11.0928  -21.1600   89.9289 H   0  0  0  0  0  0
   11.4729  -19.8265   91.9535 H   0  0  0  0  0  0
   12.8120  -20.9056   92.4720 H   0  0  0  0  0  0
   15.1889  -20.4132   91.4385 H   0  0  0  0  0  0
   17.1234  -18.8427   90.4249 H   0  0  0  0  0  0
   16.7966  -19.2965   88.7178 H   0  0  0  0  0  0
   17.5030  -16.8230   88.8701 H   0  0  0  0  0  0
    5.3802  -22.8961   94.0471 H   0  0  0  0  0  0
  1  2  1  0  0  0
  1 19  1  0  0  0
  1 31  1  0  0  0
  1 32  1  0  0  0
  2  3  1  0  0  0
  2  4  1  0  0  0
  2 33  1  0  0  0
  3 17  1  0  0  0
  3 34  1  0  0  0
  3 35  1  0  0  0
  4  5  2  0  0  0
  4 15  1  0  0  0
  5  6  1  0  0  0
  5  7  1  0  0  0
  6 36  1  0  0  0
  6 37  1  0  0  0
  7  8  2  0  0  0
  7 13  1  0  0  0
  8  9  1  0  0  0
  8 38  1  0  0  0
  9 10  2  0  0  0
  9 39  1  0  0  0
 10 11  1  0  0  0
 10 12  1  0  0  0
 12 13  2  0  0  0
 12 40  1  0  0  0
 13 14  1  0  0  0
 14 15  2  0  0  0
 14 57  1  0  0  0
 15 16  1  0  0  0
 16 17  1  0  0  0
 16 41  1  0  0  0
 16 42  1  0  0  0
 17 18  1  0  0  0
 17 43  1  0  0  0
 18 19  2  0  0  0
 18 44  1  0  0  0
 19 20  1  0  0  0
 20 21  1  0  0  0
 20 45  1  0  0  0
 20 46  1  0  0  0
 21 22  1  0  0  0
 21 47  1  0  0  0
 21 48  1  0  0  0
 22 23  1  0  0  0
 22 49  1  0  0  0
 22 50  1  0  0  0
 23 24  1  0  0  0
 23 51  1  0  0  0
 23 52  1  0  0  0
 24 25  1  0  0  0
 24 26  1  0  0  0
 25 28  2  0  0  0
 25 53  1  0  0  0
 26 27  2  0  0  0
 27 28  1  0  0  0
 28 29  1  0  0  0
 29 30  1  0  0  0
 29 54  1  0  0  0
 29 55  1  0  0  0
 30 56  1  0  0  0
M  CHG  1  14   1
M  END
> <s_m_source_file>
../4a16_ligand.sdf

> <i_m_source_file_index>
1

> <s_epik_input>
bjFuYyhbQ0gyXVtPSF0pW2NIXW4xW0NIMl1bQ0gyXVtDSDJdW0NIMl1DKFtDSDJdMik9W0NIXVtDQEBIXShbQ0gyXTMpW0NIMl1jKGM0W0NASF0yMyluYzVjKGM0W05IMl0pW2NIXVtjSF1jKENsKVtjSF01

> <s_epik_cmdline>
J2VwaWtfYXBwJywgJy1pbWFlJywgJ2xpZ2FuZF9wcm8ubWFlJywgJy1vbWFlJywgJ2xpZ2FuZF9wcmVwLm1hZScsICctbXMnLCAnMScsICctcGgnLCAnNycsICctcGh0JywgJzAuNScsICctbnQn

> <r_lp_tautomer_probability>
1

> <r_epik_Ionization_Penalty>
  0.0036

> <r_epik_Ionization_Penalty_Charging>
  0.0036

> <r_epik_Ionization_Penalty_Neutral>
  0.0000

> <r_epik_State_Penalty>
 -0.0000

> <r_epik_Charging_Adjusted_Penalty>
0.00356145055599779

> <i_epik_Tot_Q>
1

> <i_epik_Tot_abs_Q>
1

$$$$
