4a1w_ligand
                    3D
 Schrodinger Suite 2020-3.
330334  0  0  1  0            999 V2000
  -50.3880  -14.9430   35.7470 N   0  3  0  0  0  0
  -49.1430  -14.7360   36.4840 C   0  0  2  0  0  0
  -48.0440  -13.9600   35.7260 C   0  0  0  0  0  0
  -48.1170  -13.7420   34.5090 O   0  0  0  0  0  0
  -48.5590  -16.0820   37.0120 C   0  0  2  0  0  0
  -47.8280  -15.8820   38.3270 C   0  0  0  0  0  0
  -47.5710  -16.6880   36.0590 C   0  0  0  0  0  0
  -47.1700  -17.1200   38.8030 C   0  0  0  0  0  0
  -47.0420  -13.5360   36.4950 N   0  0  0  0  0  0
  -46.4430  -12.4550   35.7330 C   0  0  1  0  0  0
  -46.7450  -11.1020   36.4030 C   0  0  0  0  0  0
  -48.1120  -10.5400   36.1250 C   0  0  0  0  0  0
  -49.2960  -10.7000   36.9260 C   0  0  0  0  0  0
  -49.5790  -11.3670   38.1290 C   0  0  0  0  0  0
  -50.8640  -11.3250   38.6430 C   0  0  0  0  0  0
  -51.8820  -10.6290   37.9770 C   0  0  0  0  0  0
  -51.6490   -9.9620   36.7990 C   0  0  0  0  0  0
  -50.3390  -10.0030   36.2760 C   0  0  0  0  0  0
  -49.8180   -9.4470   35.1370 N   0  0  0  0  0  0
  -48.4810   -9.7680   35.0560 C   0  0  0  0  0  0
  -44.9340  -12.6460   35.6570 C   0  0  0  0  0  0
  -44.4510  -13.8050   34.8110 C   0  0  0  0  0  0
  -44.1160  -13.6360   33.6400 O   0  0  0  0  0  0
  -44.3830  -14.9910   35.4020 N   0  0  0  0  0  0
  -43.7780  -16.1360   34.7220 C   0  0  2  0  0  0
  -44.4690  -16.5050   33.4130 C   0  0  0  0  0  0
  -43.8050  -16.7000   32.3960 O   0  0  0  0  0  0
  -43.7020  -17.3530   35.6400 C   0  0  2  0  0  0
  -42.7210  -17.0740   36.7800 C   0  0  0  0  0  0
  -43.2720  -18.5850   34.8690 C   0  0  0  0  0  0
  -42.8990  -17.9970   37.9730 C   0  0  0  0  0  0
  -45.7970  -16.5630   33.4330 N   0  0  0  0  0  0
  -46.5590  -17.0480   32.2870 C   0  0  2  0  0  0
  -46.4890  -16.1140   31.0940 C   0  0  0  0  0  0
  -46.4060  -16.5680   29.9470 O   0  0  0  0  0  0
  -48.0070  -17.2910   32.6750 C   0  0  0  0  0  0
  -46.5410  -14.8120   31.3630 N   0  0  0  0  0  0
  -46.5270  -13.8040   30.3040 C   0  0  2  0  0  0
  -45.1080  -13.5420   29.8250 C   0  0  0  0  0  0
  -44.8940  -13.1560   28.6780 O   0  0  0  0  0  0
  -47.2190  -12.5350   30.7710 C   0  0  0  0  0  0
  -48.6020  -12.8250   31.3340 C   0  0  0  0  0  0
  -49.4440  -11.5830   31.4940 C   0  0  0  0  0  0
  -48.9290  -10.4910   31.7630 O   0  0  0  0  0  0
  -50.7470  -11.7360   31.3120 N   0  0  0  0  0  0
  -44.1530  -13.7670   30.7270 N   0  0  0  0  0  0
  -42.8760  -13.1980   30.2700 C   0  0  1  0  0  0
  -42.2600  -12.1710   31.2290 C   0  0  0  0  0  0
  -42.3430  -10.7150   30.8350 C   0  0  0  0  0  0
  -41.6370  -10.3410   29.5410 C   0  0  0  0  0  0
  -40.3760  -10.2800   29.4590 O   0  0  0  0  0  0
  -42.3800  -10.0700   28.5790 O   0  0  0  0  0  0
  -41.8320  -14.2930   30.1370 C   0  0  0  0  0  0
  -42.1830  -15.3770   29.1160 C   0  0  0  0  0  0
  -41.9340  -15.2000   27.9220 O   0  0  0  0  0  0
  -42.7560  -16.4800   29.5970 N   0  0  0  0  0  0
  -42.9720  -17.6790   28.7910 C   0  0  2  0  0  0
  -43.7590  -17.4140   27.5380 C   0  0  0  0  0  0
  -43.4680  -18.0100   26.5150 O   0  0  0  0  0  0
  -43.6830  -18.7710   29.5890 C   0  0  0  0  0  0
  -42.8630  -19.4260   30.6920 C   0  0  0  0  0  0
  -43.7590  -20.3170   31.5070 C   0  0  0  0  0  0
  -41.6990  -20.2060   30.1010 C   0  0  0  0  0  0
  -44.7440  -16.5230   27.5970 N   0  0  0  0  0  0
  -45.5980  -16.3380   26.4260 C   0  0  2  0  0  0
  -44.9960  -15.4220   25.3610 C   0  0  0  0  0  0
  -44.9340  -15.7600   24.1810 O   0  0  0  0  0  0
  -46.9890  -15.8510   26.8090 C   0  0  0  0  0  0
  -47.9490  -15.9030   25.6390 C   0  0  0  0  0  0
  -48.9140  -14.7330   25.6790 C   0  0  0  0  0  0
  -49.7330  -14.6780   26.8890 N   0  0  0  0  0  0
  -50.1190  -13.5460   27.4800 C   0  0  0  0  0  0
  -49.7560  -12.3680   26.9940 N   0  0  0  0  0  0
  -50.8640  -13.5880   28.5730 N   0  0  0  0  0  0
  -44.5390  -14.2630   25.7950 N   0  0  0  0  0  0
  -44.0840  -13.2370   24.8840 C   0  0  2  0  0  0
  -42.6680  -13.5370   24.4000 C   0  0  0  0  0  0
  -42.3020  -13.2480   23.2590 O   0  0  0  0  0  0
  -44.1230  -11.9080   25.6330 C   0  0  0  0  0  0
  -43.6360  -10.7060   24.8800 C   0  0  0  0  0  0
  -43.4090   -9.5260   25.8350 C   0  0  0  0  0  0
  -42.2740   -8.7360   25.3760 N   0  0  0  0  0  0
  -41.0600   -8.7600   25.9100 C   0  0  0  0  0  0
  -40.8020   -9.5020   26.9580 N   0  0  0  0  0  0
  -40.0970   -8.0210   25.4020 N   0  0  0  0  0  0
  -40.8520  -16.7000   24.0040 C   0  0  0  0  0  0
  -40.3520  -16.6710   22.8810 O   0  0  0  0  0  0
  -40.2010  -15.9530   25.1620 C   0  0  0  0  0  0
  -40.5060  -14.4600   25.0130 C   0  0  1  0  0  0
  -41.8890  -14.1490   25.2820 N   0  0  0  0  0  0
  -39.7740  -13.4640   25.9380 C   0  0  1  0  0  0
  -39.2270  -13.9060   27.3070 C   0  0  0  0  0  0
  -38.7080  -12.7280   25.1710 C   0  0  0  0  0  0
  -39.2360  -11.3380   24.9540 C   0  0  0  0  0  0
  -41.9640  -17.3800   24.2720 N   0  0  0  0  0  0
  -42.6540  -18.1450   23.2420 C   0  0  0  0  0  0
  -42.9480  -17.4470   21.9080 C   0  0  0  0  0  0
  -42.6750  -17.9990   20.8310 O   0  0  0  0  0  0
  -43.5140  -16.2450   21.9650 N   0  0  0  0  0  0
  -43.9590  -15.5720   20.7510 C   0  0  2  0  0  0
  -42.8080  -15.0740   19.9030 C   0  0  0  0  0  0
  -42.9540  -14.8900   18.7000 O   0  0  0  0  0  0
  -44.9050  -14.4160   21.0750 C   0  0  0  0  0  0
  -46.3070  -14.8880   21.4120 C   0  0  0  0  0  0
  -46.6260  -16.0680   21.1500 O   0  0  0  0  0  0
  -47.0880  -14.0730   21.9370 O   0  0  0  0  0  0
  -41.6640  -14.8660   20.5370 N   0  0  0  0  0  0
  -40.4850  -14.3500   19.8560 C   0  0  2  0  0  0
  -39.7940  -15.4880   19.1360 C   0  0  0  0  0  0
  -39.4470  -15.3750   17.9540 O   0  0  0  0  0  0
  -39.5200  -13.7220   20.8680 C   0  0  0  0  0  0
  -38.1260  -13.4210   20.3280 C   0  0  0  0  0  0
  -37.3600  -12.4320   21.1950 C   0  0  0  0  0  0
  -37.6630  -11.2220   21.1260 O   0  0  0  0  0  0
  -36.4480  -12.8580   21.9430 O   0  0  0  0  0  0
  -39.5950  -16.5810   19.8690 N   0  0  0  0  0  0
  -38.9390  -17.7720   19.3510 C   0  0  1  0  0  0
  -37.9900  -18.2990   20.4350 C   0  0  0  0  0  0
  -37.3300  -19.6250   20.1280 C   0  0  0  0  0  0
  -36.1730  -19.6690   19.3610 C   0  0  0  0  0  0
  -35.5660  -20.8920   19.0890 C   0  0  0  0  0  0
  -36.0930  -22.0740   19.5970 C   0  0  0  0  0  0
  -37.2460  -22.0310   20.3660 C   0  0  0  0  0  0
  -37.8520  -20.8130   20.6380 C   0  0  0  0  0  0
  -40.0160  -18.7960   19.0280 C   0  0  0  0  0  0
  -40.7310  -18.5110   17.7220 C   0  0  0  0  0  0
  -40.1300  -18.4670   16.6720 O   0  0  0  0  0  0
  -42.0400  -18.3140   17.8240 N   0  0  0  0  0  0
  -42.9240  -18.0830   16.6900 C   0  0  2  0  0  0
  -42.5900  -16.9540   15.7100 C   0  0  0  0  0  0
  -42.8250  -17.0870   14.5030 O   0  0  0  0  0  0
  -44.3600  -17.9430   17.1840 C   0  0  0  0  0  0
  -45.3760  -18.2970   16.1190 C   0  0  0  0  0  0
  -45.4980  -19.4540   15.7150 O   0  0  0  0  0  0
  -46.1240  -17.3060   15.6740 N   0  0  0  0  0  0
  -42.0460  -15.8540   16.2170 N   0  0  0  0  0  0
  -41.7520  -14.6980   15.3680 C   0  0  2  0  0  0
  -40.6690  -14.9540   14.3040 C   0  0  0  0  0  0
  -40.7510  -14.4360   13.1900 O   0  0  0  0  0  0
  -41.4060  -13.4740   16.2210 C   0  0  0  0  0  0
  -39.6800  -15.7740   14.6310 N   0  0  0  0  0  0
  -38.5440  -15.9920   13.7410 C   0  0  2  0  0  0
  -38.1620  -17.4590   13.5240 C   0  0  0  0  0  0
  -37.2960  -17.7510   12.7070 O   0  0  0  0  0  0
  -37.3210  -15.2230   14.2640 C   0  0  0  0  0  0
  -37.5400  -13.7200   14.3510 C   0  0  0  0  0  0
  -37.4150  -12.9040   13.2150 C   0  0  0  0  0  0
  -37.8760  -13.1120   15.5590 C   0  0  0  0  0  0
  -37.6270  -11.5130   13.2890 C   0  0  0  0  0  0
  -38.0870  -11.7300   15.6420 C   0  0  0  0  0  0
  -37.9580  -10.9370   14.5080 C   0  0  0  0  0  0
  -38.1630   -9.5780   14.5920 O   0  0  0  0  0  0
  -41.3350  -19.7760   12.4180 O   0  0  0  0  0  0
  -40.2620  -20.3310   12.6000 C   0  0  0  0  0  0
  -39.7550  -20.5830   13.9910 C   0  0  0  0  0  0
  -38.4690  -19.7890   14.1380 C   0  0  1  0  0  0
  -38.7860  -18.3740   14.2600 N   0  0  0  0  0  0
  -37.7420  -20.3020   15.3820 C   0  0  0  0  0  0
  -36.3580  -19.7090   15.4790 C   0  0  0  0  0  0
  -35.2520  -20.4230   15.0160 C   0  0  0  0  0  0
  -33.9750  -19.8720   15.1110 C   0  0  0  0  0  0
  -33.8170  -18.6030   15.6690 C   0  0  0  0  0  0
  -32.5800  -18.0390   15.7670 O   0  0  0  0  0  0
  -34.9210  -17.9030   16.1360 C   0  0  0  0  0  0
  -36.1930  -18.4540   16.0440 C   0  0  0  0  0  0
  -39.4720  -20.7430   11.6110 N   0  0  0  0  0  0
  -50.7688  -13.9743   35.3912 H   0  0  0  0  0  0
  -51.1328  -15.4091   36.4089 H   0  0  0  0  0  0
  -50.1994  -15.6014   34.8862 H   0  0  0  0  0  0
  -49.5092  -14.0863   37.2926 H   0  0  0  0  0  0
  -49.4009  -16.7792   37.1351 H   0  0  0  0  0  0
  -47.0521  -15.1124   38.2018 H   0  0  0  0  0  0
  -48.5428  -15.5599   39.0986 H   0  0  0  0  0  0
  -48.0550  -16.8535   35.0852 H   0  0  0  0  0  0
  -47.2164  -17.6489   36.4603 H   0  0  0  0  0  0
  -46.7173  -16.0058   35.9330 H   0  0  0  0  0  0
  -46.6572  -16.9198   39.7553 H   0  0  0  0  0  0
  -46.4366  -17.4562   38.0553 H   0  0  0  0  0  0
  -47.9273  -17.9037   38.9520 H   0  0  0  0  0  0
  -46.6291  -13.8115   37.4766 H   0  0  0  0  0  0
  -46.8924  -12.5149   34.7308 H   0  0  0  0  0  0
  -46.6665  -11.2080   37.4951 H   0  0  0  0  0  0
  -46.0211  -10.3506   36.0546 H   0  0  0  0  0  0
  -48.7911  -11.9192   38.6622 H   0  0  0  0  0  0
  -51.0965  -11.8421   39.5856 H   0  0  0  0  0  0
  -52.8845  -10.6167   38.4048 H   0  0  0  0  0  0
  -52.4371   -9.4103   36.2656 H   0  0  0  0  0  0
  -47.8787   -9.4056   34.2099 H   0  0  0  0  0  0
  -44.4713  -11.7440   35.2301 H   0  0  0  0  0  0
  -44.5350  -12.8196   36.6673 H   0  0  0  0  0  0
  -44.7896  -15.1064   36.4176 H   0  0  0  0  0  0
  -42.7683  -15.7710   34.4828 H   0  0  0  0  0  0
  -44.7027  -17.5509   36.0515 H   0  0  0  0  0  0
  -41.6906  -17.2013   36.4165 H   0  0  0  0  0  0
  -42.8587  -16.0431   37.1382 H   0  0  0  0  0  0
  -43.9850  -18.7743   34.0531 H   0  0  0  0  0  0
  -43.2504  -19.4520   35.5457 H   0  0  0  0  0  0
  -42.2685  -18.4228   34.4488 H   0  0  0  0  0  0
  -42.1635  -17.7389   38.7492 H   0  0  0  0  0  0
  -42.7471  -19.0393   37.6560 H   0  0  0  0  0  0
  -43.9152  -17.8812   38.3778 H   0  0  0  0  0  0
  -46.3210  -16.2340   34.3425 H   0  0  0  0  0  0
  -46.0646  -17.9918   32.0133 H   0  0  0  0  0  0
  -48.0459  -17.9690   33.5403 H   0  0  0  0  0  0
  -48.5420  -17.7460   31.8284 H   0  0  0  0  0  0
  -48.4818  -16.3341   32.9373 H   0  0  0  0  0  0
  -46.5958  -14.5018   32.4169 H   0  0  0  0  0  0
  -47.0993  -14.2238   29.4636 H   0  0  0  0  0  0
  -46.6171  -12.0577   31.5583 H   0  0  0  0  0  0
  -47.3279  -11.8433   29.9227 H   0  0  0  0  0  0
  -49.1375  -13.5075   30.6577 H   0  0  0  0  0  0
  -48.5039  -13.2928   32.3247 H   0  0  0  0  0  0
  -51.1563  -12.7290   31.0743 H   0  0  0  0  0  0
  -51.4198  -10.8701   31.3985 H   0  0  0  0  0  0
  -44.2084  -14.2874   31.6946 H   0  0  0  0  0  0
  -43.1601  -12.7254   29.3182 H   0  0  0  0  0  0
  -42.7589  -12.2374   32.2071 H   0  0  0  0  0  0
  -41.1868  -12.3798   31.3498 H   0  0  0  0  0  0
  -43.3974  -10.4300   30.7045 H   0  0  0  0  0  0
  -41.8906  -10.0954   31.6233 H   0  0  0  0  0  0
  -39.8994  -10.0060   28.5062 H   0  0  0  0  0  0
  -40.8754  -13.8512   29.8211 H   0  0  0  0  0  0
  -41.7014  -14.7949   31.1071 H   0  0  0  0  0  0
  -43.0714  -16.4614   30.6506 H   0  0  0  0  0  0
  -41.9503  -17.9755   28.5113 H   0  0  0  0  0  0
  -44.5728  -18.3475   30.0778 H   0  0  0  0  0  0
  -43.9881  -19.5813   28.9105 H   0  0  0  0  0  0
  -42.4449  -18.6565   31.3577 H   0  0  0  0  0  0
  -44.5887  -19.7241   31.9194 H   0  0  0  0  0  0
  -43.1819  -20.7627   32.3306 H   0  0  0  0  0  0
  -44.1618  -21.1160   30.8672 H   0  0  0  0  0  0
  -41.0643  -19.5275   29.5122 H   0  0  0  0  0  0
  -42.0853  -21.0040   29.4499 H   0  0  0  0  0  0
  -41.1055  -20.6507   30.9134 H   0  0  0  0  0  0
  -44.9216  -15.9302   28.5064 H   0  0  0  0  0  0
  -45.6524  -17.3576   26.0167 H   0  0  0  0  0  0
  -47.3913  -16.4855   27.6124 H   0  0  0  0  0  0
  -46.9295  -14.8099   27.1591 H   0  0  0  0  0  0
  -47.3819  -15.8619   24.6973 H   0  0  0  0  0  0
  -48.5257  -16.8388   25.6792 H   0  0  0  0  0  0
  -48.3496  -13.7903   25.6262 H   0  0  0  0  0  0
  -49.6028  -14.7964   24.8237 H   0  0  0  0  0  0
  -50.0695  -15.6092   27.3682 H   0  0  0  0  0  0
  -49.1368  -12.3146   26.0864 H   0  0  0  0  0  0
  -50.0738  -11.4434   27.4982 H   0  0  0  0  0  0
  -51.1744  -14.5574   28.9901 H   0  0  0  0  0  0
  -44.5094  -14.0872   26.8805 H   0  0  0  0  0  0
  -44.7627  -13.2392   24.0183 H   0  0  0  0  0  0
  -45.1591  -11.6822   25.9254 H   0  0  0  0  0  0
  -43.4945  -11.9758   26.5332 H   0  0  0  0  0  0
  -42.6867  -10.9469   24.3792 H   0  0  0  0  0  0
  -44.3844  -10.4167   24.1275 H   0  0  0  0  0  0
  -44.3089   -8.8938   25.8571 H   0  0  0  0  0  0
  -43.2037   -9.9070   26.8463 H   0  0  0  0  0  0
  -42.3891   -8.0525   24.5219 H   0  0  0  0  0  0
  -41.5933  -10.1269   27.3977 H   0  0  0  0  0  0
  -40.2932   -7.3908   24.5220 H   0  0  0  0  0  0
  -39.0957   -8.0334   25.8573 H   0  0  0  0  0  0
  -40.6082  -16.3253   26.1136 H   0  0  0  0  0  0
  -39.1136  -16.1172   25.1392 H   0  0  0  0  0  0
  -40.2340  -14.3138   23.9572 H   0  0  0  0  0  0
  -42.3357  -14.4209   26.2498 H   0  0  0  0  0  0
  -40.6010  -12.8051   26.2412 H   0  0  0  0  0  0
  -40.0123  -14.4425   27.8598 H   0  0  0  0  0  0
  -38.9147  -13.0207   27.8803 H   0  0  0  0  0  0
  -38.3631  -14.5708   27.1594 H   0  0  0  0  0  0
  -37.7784  -12.7120   25.7588 H   0  0  0  0  0  0
  -38.5274  -13.2378   24.2131 H   0  0  0  0  0  0
  -38.4955  -10.7477   24.3943 H   0  0  0  0  0  0
  -39.4250  -10.8615   25.9273 H   0  0  0  0  0  0
  -40.1740  -11.3873   24.3816 H   0  0  0  0  0  0
  -42.3607  -17.3559   25.2977 H   0  0  0  0  0  0
  -42.0544  -19.0287   22.9781 H   0  0  0  0  0  0
  -43.6353  -18.4674   23.6202 H   0  0  0  0  0  0
  -43.6448  -15.7587   22.9429 H   0  0  0  0  0  0
  -44.4831  -16.3630   20.1946 H   0  0  0  0  0  0
  -44.5189  -13.8579   21.9407 H   0  0  0  0  0  0
  -44.9739  -13.7442   20.2067 H   0  0  0  0  0  0
  -47.6376  -16.4297   21.3865 H   0  0  0  0  0  0
  -41.6217  -15.0960   21.6119 H   0  0  0  0  0  0
  -40.8366  -13.5937   19.1388 H   0  0  0  0  0  0
  -39.9329  -12.7667   21.2243 H   0  0  0  0  0  0
  -39.3871  -14.4046   21.7203 H   0  0  0  0  0  0
  -37.5415  -14.3518   20.2826 H   0  0  0  0  0  0
  -38.2086  -12.9904   19.3192 H   0  0  0  0  0  0
  -35.8840  -12.1575   22.5764 H   0  0  0  0  0  0
  -39.9514  -16.5579   20.9094 H   0  0  0  0  0  0
  -38.3800  -17.5153   18.4391 H   0  0  0  0  0  0
  -37.1770  -17.5753   20.5940 H   0  0  0  0  0  0
  -38.5464  -18.4374   21.3737 H   0  0  0  0  0  0
  -35.7407  -18.7470   18.9724 H   0  0  0  0  0  0
  -34.6684  -20.9232   18.4714 H   0  0  0  0  0  0
  -35.6039  -23.0264   19.3925 H   0  0  0  0  0  0
  -37.6759  -22.9534   20.7565 H   0  0  0  0  0  0
  -38.7478  -20.7844   21.2584 H   0  0  0  0  0  0
  -39.5609  -19.7943   18.9490 H   0  0  0  0  0  0
  -40.7706  -18.7994   19.8284 H   0  0  0  0  0  0
  -42.4487  -18.3330   18.8451 H   0  0  0  0  0  0
  -42.7311  -19.0016   16.1165 H   0  0  0  0  0  0
  -44.5199  -18.6137   18.0411 H   0  0  0  0  0  0
  -44.5417  -16.9031   17.4933 H   0  0  0  0  0  0
  -45.9782  -16.2883   16.0651 H   0  0  0  0  0  0
  -46.8937  -17.4972   14.9117 H   0  0  0  0  0  0
  -41.8160  -15.8195   17.2921 H   0  0  0  0  0  0
  -42.7010  -14.5408   14.8345 H   0  0  0  0  0  0
  -42.1948  -13.3149   16.9710 H   0  0  0  0  0  0
  -41.3297  -12.5868   15.5752 H   0  0  0  0  0  0
  -40.4450  -13.6412   16.7294 H   0  0  0  0  0  0
  -39.7290  -16.2958   15.5981 H   0  0  0  0  0  0
  -38.9202  -15.6070   12.7817 H   0  0  0  0  0  0
  -37.0693  -15.5778   15.2743 H   0  0  0  0  0  0
  -36.4665  -15.3926   13.5924 H   0  0  0  0  0  0
  -37.1492  -13.3548   12.2588 H   0  0  0  0  0  0
  -37.9765  -13.7233   16.4558 H   0  0  0  0  0  0
  -37.5319  -10.8944   12.3966 H   0  0  0  0  0  0
  -38.3526  -11.2760   16.5967 H   0  0  0  0  0  0
  -38.0610   -8.9499   13.6947 H   0  0  0  0  0  0
  -40.5066  -20.2488   14.7213 H   0  0  0  0  0  0
  -39.5677  -21.6588   14.1238 H   0  0  0  0  0  0
  -37.8287  -19.8679   13.2470 H   0  0  0  0  0  0
  -39.5558  -18.0422   14.9723 H   0  0  0  0  0  0
  -38.3108  -20.0216   16.2808 H   0  0  0  0  0  0
  -37.6547  -21.3973   15.3302 H   0  0  0  0  0  0
  -35.3868  -21.4127   14.5796 H   0  0  0  0  0  0
  -33.1082  -20.4273   14.7527 H   0  0  0  0  0  0
  -31.6969  -18.5830   15.4008 H   0  0  0  0  0  0
  -34.7891  -16.9152   16.5775 H   0  0  0  0  0  0
  -37.0570  -17.9022   16.4143 H   0  0  0  0  0  0
  -39.7767  -20.5928   10.5648 H   0  0  0  0  0  0
  -38.5145  -21.2336   11.8400 H   0  0  0  0  0  0
  1  2  1  0  0  0
  1167  1  0  0  0
  1168  1  0  0  0
  1169  1  0  0  0
  2  3  1  0  0  0
  2  5  1  0  0  0
  2170  1  0  0  0
  3  4  2  0  0  0
  3  9  1  0  0  0
  5  6  1  0  0  0
  5  7  1  0  0  0
  5171  1  0  0  0
  6  8  1  0  0  0
  6172  1  0  0  0
  6173  1  0  0  0
  7174  1  0  0  0
  7175  1  0  0  0
  7176  1  0  0  0
  8177  1  0  0  0
  8178  1  0  0  0
  8179  1  0  0  0
  9 10  1  0  0  0
  9180  1  0  0  0
 10 11  1  0  0  0
 10 21  1  0  0  0
 10181  1  0  0  0
 11 12  1  0  0  0
 11182  1  0  0  0
 11183  1  0  0  0
 12 13  2  0  0  0
 12 20  1  0  0  0
 13 14  1  0  0  0
 13 18  1  0  0  0
 14 15  2  0  0  0
 14184  1  0  0  0
 15 16  1  0  0  0
 15185  1  0  0  0
 16 17  1  0  0  0
 16186  1  0  0  0
 17 18  2  0  0  0
 17187  1  0  0  0
 18 19  1  0  0  0
 19 20  2  0  0  0
 20188  1  0  0  0
 21 22  1  0  0  0
 21189  1  0  0  0
 21190  1  0  0  0
 22 23  2  0  0  0
 22 24  1  0  0  0
 24 25  1  0  0  0
 24191  1  0  0  0
 25 26  1  0  0  0
 25 28  1  0  0  0
 25192  1  0  0  0
 26 27  2  0  0  0
 26 32  1  0  0  0
 28 29  1  0  0  0
 28 30  1  0  0  0
 28193  1  0  0  0
 29 31  1  0  0  0
 29194  1  0  0  0
 29195  1  0  0  0
 30196  1  0  0  0
 30197  1  0  0  0
 30198  1  0  0  0
 31199  1  0  0  0
 31200  1  0  0  0
 31201  1  0  0  0
 32 33  1  0  0  0
 32202  1  0  0  0
 33 34  1  0  0  0
 33 36  1  0  0  0
 33203  1  0  0  0
 34 35  2  0  0  0
 34 37  1  0  0  0
 36204  1  0  0  0
 36205  1  0  0  0
 36206  1  0  0  0
 37 38  1  0  0  0
 37207  1  0  0  0
 38 39  1  0  0  0
 38 41  1  0  0  0
 38208  1  0  0  0
 39 40  2  0  0  0
 39 46  1  0  0  0
 41 42  1  0  0  0
 41209  1  0  0  0
 41210  1  0  0  0
 42 43  1  0  0  0
 42211  1  0  0  0
 42212  1  0  0  0
 43 44  2  0  0  0
 43 45  1  0  0  0
 45213  1  0  0  0
 45214  1  0  0  0
 46 47  1  0  0  0
 46215  1  0  0  0
 47 48  1  0  0  0
 47 53  1  0  0  0
 47216  1  0  0  0
 48 49  1  0  0  0
 48217  1  0  0  0
 48218  1  0  0  0
 49 50  1  0  0  0
 49219  1  0  0  0
 49220  1  0  0  0
 50 51  1  0  0  0
 50 52  2  0  0  0
 51221  1  0  0  0
 53 54  1  0  0  0
 53222  1  0  0  0
 53223  1  0  0  0
 54 55  2  0  0  0
 54 56  1  0  0  0
 56 57  1  0  0  0
 56224  1  0  0  0
 57 58  1  0  0  0
 57 60  1  0  0  0
 57225  1  0  0  0
 58 59  2  0  0  0
 58 64  1  0  0  0
 60 61  1  0  0  0
 60226  1  0  0  0
 60227  1  0  0  0
 61 62  1  0  0  0
 61 63  1  0  0  0
 61228  1  0  0  0
 62229  1  0  0  0
 62230  1  0  0  0
 62231  1  0  0  0
 63232  1  0  0  0
 63233  1  0  0  0
 63234  1  0  0  0
 64 65  1  0  0  0
 64235  1  0  0  0
 65 66  1  0  0  0
 65 68  1  0  0  0
 65236  1  0  0  0
 66 67  2  0  0  0
 66 75  1  0  0  0
 68 69  1  0  0  0
 68237  1  0  0  0
 68238  1  0  0  0
 69 70  1  0  0  0
 69239  1  0  0  0
 69240  1  0  0  0
 70 71  1  0  0  0
 70241  1  0  0  0
 70242  1  0  0  0
 71 72  1  0  0  0
 71243  1  0  0  0
 72 73  1  0  0  0
 72 74  2  0  0  0
 73244  1  0  0  0
 73245  1  0  0  0
 74246  1  0  0  0
 75 76  1  0  0  0
 75247  1  0  0  0
 76 77  1  0  0  0
 76 79  1  0  0  0
 76248  1  0  0  0
 77 78  2  0  0  0
 77 90  1  0  0  0
 79 80  1  0  0  0
 79249  1  0  0  0
 79250  1  0  0  0
 80 81  1  0  0  0
 80251  1  0  0  0
 80252  1  0  0  0
 81 82  1  0  0  0
 81253  1  0  0  0
 81254  1  0  0  0
 82 83  1  0  0  0
 82255  1  0  0  0
 83 84  2  0  0  0
 83 85  1  0  0  0
 84256  1  0  0  0
 85257  1  0  0  0
 85258  1  0  0  0
 86 87  2  0  0  0
 86 88  1  0  0  0
 86 95  1  0  0  0
 88 89  1  0  0  0
 88259  1  0  0  0
 88260  1  0  0  0
 89 90  1  0  0  0
 89 91  1  0  0  0
 89261  1  0  0  0
 90262  1  0  0  0
 91 92  1  0  0  0
 91 93  1  0  0  0
 91263  1  0  0  0
 92264  1  0  0  0
 92265  1  0  0  0
 92266  1  0  0  0
 93 94  1  0  0  0
 93267  1  0  0  0
 93268  1  0  0  0
 94269  1  0  0  0
 94270  1  0  0  0
 94271  1  0  0  0
 95 96  1  0  0  0
 95272  1  0  0  0
 96 97  1  0  0  0
 96273  1  0  0  0
 96274  1  0  0  0
 97 98  2  0  0  0
 97 99  1  0  0  0
 99100  1  0  0  0
 99275  1  0  0  0
100101  1  0  0  0
100103  1  0  0  0
100276  1  0  0  0
101102  2  0  0  0
101107  1  0  0  0
103104  1  0  0  0
103277  1  0  0  0
103278  1  0  0  0
104105  1  0  0  0
104106  2  0  0  0
105279  1  0  0  0
107108  1  0  0  0
107280  1  0  0  0
108109  1  0  0  0
108111  1  0  0  0
108281  1  0  0  0
109110  2  0  0  0
109116  1  0  0  0
111112  1  0  0  0
111282  1  0  0  0
111283  1  0  0  0
112113  1  0  0  0
112284  1  0  0  0
112285  1  0  0  0
113114  2  0  0  0
113115  1  0  0  0
115286  1  0  0  0
116117  1  0  0  0
116287  1  0  0  0
117118  1  0  0  0
117125  1  0  0  0
117288  1  0  0  0
118119  1  0  0  0
118289  1  0  0  0
118290  1  0  0  0
119120  2  0  0  0
119124  1  0  0  0
120121  1  0  0  0
120291  1  0  0  0
121122  2  0  0  0
121292  1  0  0  0
122123  1  0  0  0
122293  1  0  0  0
123124  2  0  0  0
123294  1  0  0  0
124295  1  0  0  0
125126  1  0  0  0
125296  1  0  0  0
125297  1  0  0  0
126127  2  0  0  0
126128  1  0  0  0
128129  1  0  0  0
128298  1  0  0  0
129130  1  0  0  0
129132  1  0  0  0
129299  1  0  0  0
130131  2  0  0  0
130136  1  0  0  0
132133  1  0  0  0
132300  1  0  0  0
132301  1  0  0  0
133134  2  0  0  0
133135  1  0  0  0
135302  1  0  0  0
135303  1  0  0  0
136137  1  0  0  0
136304  1  0  0  0
137138  1  0  0  0
137140  1  0  0  0
137305  1  0  0  0
138139  2  0  0  0
138141  1  0  0  0
140306  1  0  0  0
140307  1  0  0  0
140308  1  0  0  0
141142  1  0  0  0
141309  1  0  0  0
142143  1  0  0  0
142145  1  0  0  0
142310  1  0  0  0
143144  2  0  0  0
143157  1  0  0  0
145146  1  0  0  0
145311  1  0  0  0
145312  1  0  0  0
146147  2  0  0  0
146148  1  0  0  0
147149  1  0  0  0
147313  1  0  0  0
148150  2  0  0  0
148314  1  0  0  0
149151  2  0  0  0
149315  1  0  0  0
150151  1  0  0  0
150316  1  0  0  0
151152  1  0  0  0
152317  1  0  0  0
153154  2  0  0  0
154155  1  0  0  0
154166  1  0  0  0
155156  1  0  0  0
155318  1  0  0  0
155319  1  0  0  0
156157  1  0  0  0
156158  1  0  0  0
156320  1  0  0  0
157321  1  0  0  0
158159  1  0  0  0
158322  1  0  0  0
158323  1  0  0  0
159160  2  0  0  0
159165  1  0  0  0
160161  1  0  0  0
160324  1  0  0  0
161162  2  0  0  0
161325  1  0  0  0
162163  1  0  0  0
162164  1  0  0  0
163326  1  0  0  0
164165  2  0  0  0
164327  1  0  0  0
165328  1  0  0  0
166329  1  0  0  0
166330  1  0  0  0
M  CHG  1   1   1
M  END
> <s_m_source_file>
../4a1w_ligand.sdf

> <i_m_source_file_index>
1

> <s_epik_input>
W0NIXTE9W0NIXVtDSDJdW0NIXT1DKEMxMilOPVtDSF1DPTJbQ0gyXVtDQEhdKFtOSF1DKD1PKVtDQEBIXShbTkgzK10pW0NAQEhdKFtDSDNdKVtDSDJdW0NIM10pW0NIMl1DKD1PKVtOSF1bQ0BASF0oW0NAQEhdKFtDSDNdKVtDSDJdW0NIM10pQyg9TylbTkhdW0NAQEhdKFtDSDNdKUMoPU8pW05IXVtDQEBIXShbQ0gyXVtDSDJdQyg9TylbTkgyXSlDKD1PKVtOSF1bQ0BASF0oW0NIMl1bQ0gyXUMoPU8pW09IXSlbQ0gyXUMoPU8pW05IXVtDQEBIXShbQ0gyXVtDSF0oW0NIM10pW0NIM10pQyg9TylbTkhdW0NAQEhdKFtDSDJdW0NIMl1bQ0gyXVtOSF0vQyhbTkgyXSk9TlxbSF0pQyg9TylbTkhdW0NAQEhdKFtDSDJdW0NIMl1bQ0gyXVtOSF0vQyg9TlxbSF0pW05IMl0pQyg9TylbTkhdW0NAQEhdKFtDQEBIXShbQ0gzXSlbQ0gyXVtDSDNdKVtDSDJdQyg9TylbTkhdW0NIMl1DKD1PKVtOSF1bQ0BASF0oW0NIMl1DKD1PKVtPSF0pQyg9TylbTkhdW0NAQEhdKFtDSDJdW0NIMl1DKD1PKVtPSF0pQyg9TylbTkhdW0NAQEhdKFtDSDJdYzNbY0hdW2NIXVtjSF1bY0hdW2NIXTMpW0NIMl1DKD1PKVtOSF1bQ0BASF0oW0NIMl1DKD1PKVtOSDJdKUMoPU8pW05IXVtDQEBIXShbQ0gzXSlDKD1PKVtOSF1bQ0BASF0oW0NIMl1jNFtjSF1bY0hdYyhbT0hdKVtjSF1bY0hdNClDKD1PKVtOSF1bQ0BIXShbQ0gyXUMoPU8pW05IMl0pW0NIMl1jNVtjSF1bY0hdYyhbT0hdKVtjSF1bY0hdNQ==

> <s_epik_cmdline>
J2VwaWtfYXBwJywgJy1pbWFlJywgJ2xpZ2FuZF9wcm8ubWFlJywgJy1vbWFlJywgJ2xpZ2FuZF9wcmVwLm1hZScsICctbXMnLCAnMScsICctcGgnLCAnNycsICctcGh0JywgJzAuNScsICctbnQn

> <s_epik_pKa_notes>
Molecule size exceeds maximum supported for generating protonation states

> <s_epik_Chemistry_Notes>
This compound has an imine and may undergo hydrolysis.

$$$$
