4a22_ligand
                    3D
 Schrodinger Suite 2020-3.
 30 29  0  0  1  0            999 V2000
  -11.3080  -63.9170  -32.1300 O   0  0  0  0  0  0
  -11.9600  -62.7060  -31.8610 N   0  0  0  0  0  0
  -13.2710  -62.4910  -32.4400 C   0  0  0  0  0  0
  -14.4290  -63.2990  -31.8600 C   0  0  0  0  0  0
  -15.3360  -64.0260  -32.8470 C   0  0  0  0  0  0
  -16.4950  -64.8280  -32.2680 C   0  0  0  0  0  0
  -17.3150  -65.4980  -33.1790 O   0  0  0  0  0  0
  -18.8030  -64.9030  -33.5440 P   0  0  0  0  0  0
  -19.9250  -66.1170  -33.6040 O   0  5  0  0  0  0
  -19.2330  -63.7570  -32.4360 O   0  5  0  0  0  0
  -18.7510  -64.2400  -34.8460 O   0  0  0  0  0  0
  -11.5270  -61.9290  -30.7130 C   0  0  0  0  0  0
  -10.5940  -62.2880  -30.0610 O   0  0  0  0  0  0
  -12.2290  -60.6180  -30.3790 C   0  0  0  0  0  0
  -12.4400  -60.3380  -29.0290 O   0  0  0  0  0  0
  -13.3300  -59.0090  -28.6070 P   0  0  0  0  0  0
  -13.2500  -58.8570  -26.9910 O   0  5  0  0  0  0
  -14.8860  -59.1960  -29.1010 O   0  5  0  0  0  0
  -12.7610  -57.7960  -29.1850 O   0  0  0  0  0  0
  -11.6144  -64.5268  -32.9927 H   0  0  0  0  0  0
  -13.5575  -61.4361  -32.3172 H   0  0  0  0  0  0
  -13.2445  -62.7415  -33.5108 H   0  0  0  0  0  0
  -14.0337  -64.0806  -31.1945 H   0  0  0  0  0  0
  -15.0918  -62.6321  -31.2891 H   0  0  0  0  0  0
  -15.7962  -63.2955  -33.5286 H   0  0  0  0  0  0
  -14.7422  -64.7466  -33.4285 H   0  0  0  0  0  0
  -16.1033  -65.6040  -31.5939 H   0  0  0  0  0  0
  -17.1611  -64.1566  -31.7063 H   0  0  0  0  0  0
  -11.6366  -59.7759  -30.7662 H   0  0  0  0  0  0
  -13.2267  -60.6080  -30.8421 H   0  0  0  0  0  0
  1  2  1  0  0  0
  1 20  1  0  0  0
  2  3  1  0  0  0
  2 12  1  0  0  0
  3  4  1  0  0  0
  3 21  1  0  0  0
  3 22  1  0  0  0
  4  5  1  0  0  0
  4 23  1  0  0  0
  4 24  1  0  0  0
  5  6  1  0  0  0
  5 25  1  0  0  0
  5 26  1  0  0  0
  6  7  1  0  0  0
  6 27  1  0  0  0
  6 28  1  0  0  0
  7  8  1  0  0  0
  8  9  1  0  0  0
  8 10  1  0  0  0
  8 11  2  0  0  0
 12 13  2  0  0  0
 12 14  1  0  0  0
 14 15  1  0  0  0
 14 29  1  0  0  0
 14 30  1  0  0  0
 15 16  1  0  0  0
 16 17  1  0  0  0
 16 18  1  0  0  0
 16 19  2  0  0  0
M  CHG  4   9  -1  10  -1  17  -1  18  -1
M  END
> <s_m_source_file>
../4a22_ligand.sdf

> <i_m_source_file_index>
1

> <s_epik_input>
W09IXVAoPU8pKFtPSF0pT1tDSDJdQyg9TylOKFtPSF0pW0NIMl1bQ0gyXVtDSDJdW0NIMl1PUCg9TykoW09IXSlbT0hd

> <s_epik_cmdline>
J2VwaWtfYXBwJywgJy1pbWFlJywgJ2xpZ2FuZF9wcm8ubWFlJywgJy1vbWFlJywgJ2xpZ2FuZF9wcmVwLm1hZScsICctbXMnLCAnMScsICctcGgnLCAnNycsICctcGh0JywgJzAuNScsICctbnQn

> <r_lp_tautomer_probability>
1

> <r_epik_Ionization_Penalty>
  0.2525

> <r_epik_Ionization_Penalty_Charging>
  0.2439

> <r_epik_Ionization_Penalty_Neutral>
  0.0085

> <r_epik_State_Penalty>
 -0.0000

> <r_epik_Charging_Adjusted_Penalty>
0.24394117524324

> <i_epik_Tot_Q>
-4

> <i_epik_Tot_abs_Q>
4

> <s_epik_Chemistry_Notes>
This compound has a N-S or N-O group and may undergo hydrolysis at high or low pH.

$$$$
