4a4c_ligand
                    3D
 Schrodinger Suite 2020-3.
124126  0  0  1  0            999 V2000
  -30.6440    8.8000   -5.0180 N   0  3  0  0  0  0
  -31.2330   10.1360   -4.9270 C   0  0  2  0  0  0
  -30.7430   10.9900   -6.0860 C   0  0  0  0  0  0
  -29.9240   11.8880   -5.9100 O   0  0  0  0  0  0
  -30.8940   10.8130   -3.5890 C   0  0  0  0  0  0
  -29.6420   11.4900   -3.6130 O   0  0  0  0  0  0
  -31.1960   10.6440   -7.2830 N   0  0  0  0  0  0
  -30.8270   11.3480   -8.4940 C   0  0  2  0  0  0
  -31.9020   12.3550   -8.9990 C   0  0  0  0  0  0
  -31.8060   12.9000  -10.1130 O   0  0  0  0  0  0
  -30.3690   10.3590   -9.5690 C   0  0  0  0  0  0
  -31.4970    9.4980  -10.0880 C   0  0  0  0  0  0
  -32.5860    9.5240   -9.4690 O   0  0  0  0  0  0
  -31.2920    8.8170  -11.1270 O   0  5  0  0  0  0
  -32.9510   12.5550   -8.2110 N   0  0  0  0  0  0
  -33.9940   13.4820   -8.6140 C   0  0  0  0  0  0
  -35.2180   12.8010   -9.1990 C   0  0  0  0  0  0
  -36.2830   13.4020   -9.3130 O   0  0  0  0  0  0
  -35.0690   11.5340   -9.5680 N   0  0  0  0  0  0
  -36.2020   10.7860  -10.0660 C   0  0  2  0  0  0
  -36.8840   10.0340   -8.9250 C   0  0  0  0  0  0
  -36.2720    9.7340   -7.9010 O   0  0  0  0  0  0
  -35.7560    9.9340  -11.2460 C   0  0  0  0  0  0
  -35.2370   10.7520  -12.4050 C   0  0  0  0  0  0
  -33.8850   10.8050  -12.6930 C   0  0  0  0  0  0
  -36.0960   11.4850  -13.2010 C   0  0  0  0  0  0
  -33.4030   11.5340  -13.7600 C   0  0  0  0  0  0
  -35.6220   12.2200  -14.2690 C   0  0  0  0  0  0
  -34.2710   12.2560  -14.5530 C   0  0  0  0  0  0
  -33.8760   12.9700  -15.5130 O   0  0  0  0  0  0
  -32.3720   13.0930  -16.1320 P   0  0  0  0  0  0
  -31.3810   13.6650  -15.1850 O   0  0  0  0  0  0
  -32.4890   13.9530  -17.3920 O   0  5  0  0  0  0
  -31.8790   11.7060  -16.5910 O   0  5  0  0  0  0
  -38.1710    9.7720   -9.0930 N   0  0  0  0  0  0
  -38.9420    9.0930   -8.0680 C   0  0  2  0  0  0
  -39.7880    7.9670   -8.6460 C   0  0  0  0  0  0
  -39.9640    7.8680   -9.8570 O   0  0  0  0  0  0
  -39.8130   10.0690   -7.2170 C   0  0  2  0  0  0
  -40.5990   10.9310   -8.0590 O   0  0  0  0  0  0
  -38.9300   10.8920   -6.2930 C   0  0  0  0  0  0
  -40.2770    7.0870   -7.7750 N   0  0  0  0  0  0
  -41.1090    5.9710   -8.2220 C   0  0  2  0  0  0
  -42.3910    6.4610   -8.8720 C   0  0  0  0  0  0
  -42.9660    7.4630   -8.4620 O   0  0  0  0  0  0
  -41.4120    5.2110   -6.9200 C   0  0  0  0  0  0
  -40.2530    5.5270   -6.0360 C   0  0  0  0  0  0
  -39.8930    6.9630   -6.3590 C   0  0  0  0  0  0
  -42.8310    5.7340   -9.8880 N   0  0  0  0  0  0
  -44.0060    6.1070  -10.6520 C   0  0  2  0  0  0
  -45.2380    6.2260   -9.7770 C   0  0  0  0  0  0
  -45.4040    5.4610   -8.8360 O   0  0  0  0  0  0
  -44.2800    5.0560  -11.7170 C   0  0  0  0  0  0
  -43.1690    4.8530  -12.7110 C   0  0  0  0  0  0
  -43.6350    4.0390  -13.9010 C   0  0  0  0  0  0
  -44.3910    4.6010  -14.7300 O   0  0  0  0  0  0
  -43.2640    2.8400  -13.9920 O   0  5  0  0  0  0
  -46.1230    7.1710  -10.1070 N   0  0  0  0  0  0
  -47.3960    7.2660   -9.3890 C   0  0  2  0  0  0
  -48.2670    6.0290   -9.6160 C   0  0  0  0  0  0
  -48.2640    5.4560  -10.7130 O   0  0  0  0  0  0
  -48.0480    8.5270   -9.9770 C   0  0  0  0  0  0
  -47.3550    8.7610  -11.2780 C   0  0  0  0  0  0
  -45.9740    8.2130  -11.1400 C   0  0  0  0  0  0
  -48.9960    5.6240   -8.5780 N   0  0  0  0  0  0
  -49.8460    4.4430   -8.6550 C   0  0  2  0  0  0
  -51.2250    4.6980   -8.0470 C   0  0  0  0  0  0
  -51.3951    4.6744   -6.7988 O   0  0  0  0  0  0
  -49.1680    3.2600   -7.9780 C   0  0  0  0  0  0
  -52.2042    4.9348   -8.8038 O   0  5  0  0  0  0
  -30.9073    8.3484   -5.9858 H   0  0  0  0  0  0
  -31.0321    8.1719   -4.2026 H   0  0  0  0  0  0
  -29.5498    8.8752   -4.9340 H   0  0  0  0  0  0
  -32.3207    9.9864   -4.9945 H   0  0  0  0  0  0
  -31.6706   11.5529   -3.3453 H   0  0  0  0  0  0
  -30.8492   10.0534   -2.7947 H   0  0  0  0  0  0
  -29.2837   12.0157   -2.7156 H   0  0  0  0  0  0
  -31.8792    9.7834   -7.3336 H   0  0  0  0  0  0
  -29.9639   11.9485   -8.1710 H   0  0  0  0  0  0
  -29.9483   10.9127  -10.4213 H   0  0  0  0  0  0
  -29.6012    9.6918   -9.1503 H   0  0  0  0  0  0
  -33.0310   12.0195   -7.2535 H   0  0  0  0  0  0
  -34.3265   14.0621   -7.7405 H   0  0  0  0  0  0
  -33.6006   14.1661   -9.3803 H   0  0  0  0  0  0
  -34.0822   11.0536   -9.4944 H   0  0  0  0  0  0
  -36.9483   11.4982  -10.4479 H   0  0  0  0  0  0
  -34.9483    9.2592  -10.9264 H   0  0  0  0  0  0
  -36.6066    9.3402  -11.6118 H   0  0  0  0  0  0
  -33.1844   10.2580  -12.0621 H   0  0  0  0  0  0
  -37.1639   11.4829  -12.9824 H   0  0  0  0  0  0
  -32.3348   11.5397  -13.9771 H   0  0  0  0  0  0
  -36.3203   12.7769  -14.8937 H   0  0  0  0  0  0
  -38.6547   10.0796  -10.0318 H   0  0  0  0  0  0
  -38.1532    8.6519   -7.4409 H   0  0  0  0  0  0
  -40.5601    9.5218   -6.6235 H   0  0  0  0  0  0
  -41.2963   10.4979   -8.7913 H   0  0  0  0  0  0
  -38.3366   10.2186   -5.6571 H   0  0  0  0  0  0
  -39.5599   11.5340   -5.6597 H   0  0  0  0  0  0
  -38.2546   11.5189   -6.8937 H   0  0  0  0  0  0
  -40.5841    5.3813   -8.9880 H   0  0  0  0  0  0
  -42.3629    5.5695   -6.4990 H   0  0  0  0  0  0
  -41.4881    4.1345   -7.1330 H   0  0  0  0  0  0
  -40.5519    5.4103   -4.9838 H   0  0  0  0  0  0
  -39.4232    4.8404   -6.2598 H   0  0  0  0  0  0
  -38.8169    7.1645   -6.2519 H   0  0  0  0  0  0
  -40.4632    7.6880   -5.7596 H   0  0  0  0  0  0
  -42.2742    4.8211  -10.1460 H   0  0  0  0  0  0
  -43.7572    7.0878  -11.0834 H   0  0  0  0  0  0
  -44.4534    4.0824  -11.2353 H   0  0  0  0  0  0
  -45.1709    5.3430  -12.2948 H   0  0  0  0  0  0
  -42.8173    5.8306  -13.0725 H   0  0  0  0  0  0
  -42.3371    4.3200  -12.2274 H   0  0  0  0  0  0
  -47.2191    7.3162   -8.3045 H   0  0  0  0  0  0
  -49.1243    8.3506  -10.1200 H   0  0  0  0  0  0
  -47.9034    9.3707   -9.2862 H   0  0  0  0  0  0
  -47.9001    8.2445  -12.0818 H   0  0  0  0  0  0
  -47.3261    9.8401  -11.4892 H   0  0  0  0  0  0
  -45.2542    8.9702  -10.7958 H   0  0  0  0  0  0
  -45.6084    7.7562  -12.0715 H   0  0  0  0  0  0
  -48.9453    6.2053   -7.6455 H   0  0  0  0  0  0
  -49.9636    4.2433   -9.7303 H   0  0  0  0  0  0
  -48.1792    3.0956   -8.4310 H   0  0  0  0  0  0
  -49.7856    2.3592   -8.1090 H   0  0  0  0  0  0
  -49.0493    3.4704   -6.9048 H   0  0  0  0  0  0
  1  2  1  0  0  0
  1 71  1  0  0  0
  1 72  1  0  0  0
  1 73  1  0  0  0
  2  3  1  0  0  0
  2  5  1  0  0  0
  2 74  1  0  0  0
  3  4  2  0  0  0
  3  7  1  0  0  0
  5  6  1  0  0  0
  5 75  1  0  0  0
  5 76  1  0  0  0
  6 77  1  0  0  0
  7  8  1  0  0  0
  7 78  1  0  0  0
  8  9  1  0  0  0
  8 11  1  0  0  0
  8 79  1  0  0  0
  9 10  2  0  0  0
  9 15  1  0  0  0
 11 12  1  0  0  0
 11 80  1  0  0  0
 11 81  1  0  0  0
 12 13  2  0  0  0
 12 14  1  0  0  0
 15 16  1  0  0  0
 15 82  1  0  0  0
 16 17  1  0  0  0
 16 83  1  0  0  0
 16 84  1  0  0  0
 17 18  2  0  0  0
 17 19  1  0  0  0
 19 20  1  0  0  0
 19 85  1  0  0  0
 20 21  1  0  0  0
 20 23  1  0  0  0
 20 86  1  0  0  0
 21 22  2  0  0  0
 21 35  1  0  0  0
 23 24  1  0  0  0
 23 87  1  0  0  0
 23 88  1  0  0  0
 24 25  2  0  0  0
 24 26  1  0  0  0
 25 27  1  0  0  0
 25 89  1  0  0  0
 26 28  2  0  0  0
 26 90  1  0  0  0
 27 29  2  0  0  0
 27 91  1  0  0  0
 28 29  1  0  0  0
 28 92  1  0  0  0
 29 30  1  0  0  0
 30 31  1  0  0  0
 31 32  2  0  0  0
 31 33  1  0  0  0
 31 34  1  0  0  0
 35 36  1  0  0  0
 35 93  1  0  0  0
 36 37  1  0  0  0
 36 39  1  0  0  0
 36 94  1  0  0  0
 37 38  2  0  0  0
 37 42  1  0  0  0
 39 40  1  0  0  0
 39 41  1  0  0  0
 39 95  1  0  0  0
 40 96  1  0  0  0
 41 97  1  0  0  0
 41 98  1  0  0  0
 41 99  1  0  0  0
 42 43  1  0  0  0
 42 48  1  0  0  0
 43 44  1  0  0  0
 43 46  1  0  0  0
 43100  1  0  0  0
 44 45  2  0  0  0
 44 49  1  0  0  0
 46 47  1  0  0  0
 46101  1  0  0  0
 46102  1  0  0  0
 47 48  1  0  0  0
 47103  1  0  0  0
 47104  1  0  0  0
 48105  1  0  0  0
 48106  1  0  0  0
 49 50  1  0  0  0
 49107  1  0  0  0
 50 51  1  0  0  0
 50 53  1  0  0  0
 50108  1  0  0  0
 51 52  2  0  0  0
 51 58  1  0  0  0
 53 54  1  0  0  0
 53109  1  0  0  0
 53110  1  0  0  0
 54 55  1  0  0  0
 54111  1  0  0  0
 54112  1  0  0  0
 55 56  2  0  0  0
 55 57  1  0  0  0
 58 59  1  0  0  0
 58 64  1  0  0  0
 59 60  1  0  0  0
 59 62  1  0  0  0
 59113  1  0  0  0
 60 61  2  0  0  0
 60 65  1  0  0  0
 62 63  1  0  0  0
 62114  1  0  0  0
 62115  1  0  0  0
 63 64  1  0  0  0
 63116  1  0  0  0
 63117  1  0  0  0
 64118  1  0  0  0
 64119  1  0  0  0
 65 66  1  0  0  0
 65120  1  0  0  0
 66 67  1  0  0  0
 66 69  1  0  0  0
 66121  1  0  0  0
 67 68  2  0  0  0
 67 70  1  0  0  0
 69122  1  0  0  0
 69123  1  0  0  0
 69124  1  0  0  0
M  CHG  6   1   1  14  -1  33  -1  34  -1  57  -1  70  -1
M  END
> <s_m_source_file>
../4a4c_ligand.sdf

> <i_m_source_file_index>
1

> <s_epik_input>
W09IXVtDSDJdW0NASF0oW05IMytdKUMoPU8pW05IXVtDQEBIXShbQ0gyXUMoPU8pW09IXSlDKD1PKVtOSF1bQ0gyXUMoPU8pW05IXVtDQEBIXShbQ0gyXWMxW2NIXVtjSF1jKFtjSF1bY0hdMSlPUCg9TykoW09IXSlbT0hdKUMoPU8pW05IXVtDQEBIXShbQ0BIXShbT0hdKVtDSDNdKUMoPU8pTjJbQ0BASF0oW0NIMl1bQ0gyXVtDSDJdMilDKD1PKVtOSF1bQ0BASF0oW0NIMl1bQ0gyXUMoPU8pW09IXSlDKD1PKU4zW0NAQEhdKFtDSDJdW0NIMl1bQ0gyXTMpQyg9TylbTkhdW0NAQEhdKFtDSDNdKUMoPU8pW09IXQ==

> <s_epik_cmdline>
J2VwaWtfYXBwJywgJy1pbWFlJywgJ2xpZ2FuZF9wcm8ubWFlJywgJy1vbWFlJywgJ2xpZ2FuZF9wcmVwLm1hZScsICctbXMnLCAnMScsICctcGgnLCAnNycsICctcGh0JywgJzAuNScsICctbnQn

> <r_epik_Ionization_Penalty>
  0.2357

> <r_epik_Ionization_Penalty_Charging>
  0.2357

> <r_epik_Ionization_Penalty_Neutral>
  0.0000

> <r_epik_State_Penalty>
  0.1981

> <r_epik_Charging_Adjusted_Penalty>
0.433752763163765

> <i_epik_Tot_Q>
-4

> <i_epik_Tot_abs_Q>
6

$$$$
