4a4e_ligand
                    3D
 Schrodinger Suite 2020-3.
 35 34  0  0  1  0            999 V2000
   16.2980    2.5720   -3.7600 N   0  3  0  0  0  0
   16.3830    3.0400   -2.3830 C   0  0  1  0  0  0
   16.0160    1.9050   -1.4240 C   0  0  0  0  0  0
   16.0080    2.2390    0.0670 C   0  0  0  0  0  0
   14.6910    2.8560    0.4800 C   0  0  0  0  0  0
   13.5720    1.9730    0.0960 N   0  0  2  0  0  0
   12.3000    2.1390    0.4210 C   0  0  1  0  0  0
   11.9620    3.2210    1.1880 N   0  3  2  0  0  0
   10.6670    3.6770    1.7100 C   0  0  0  0  0  0
   11.4220    1.2520   -0.0760 N   0  0  2  0  0  0
    9.9870    1.1520    0.0840 C   0  0  0  0  0  0
   17.7900    3.5070   -2.1460 C   0  0  0  0  0  0
   17.9850    4.6890   -1.8160 O   0  0  0  0  0  0
   18.7200    2.7080   -2.3750 O   0  5  0  0  0  0
   15.2757    2.2219   -3.9658 H   0  0  0  0  0  0
   17.0064    1.7440   -3.9102 H   0  0  0  0  0  0
   16.5477    3.3968   -4.4436 H   0  0  0  0  0  0
   15.6804    3.8758   -2.2498 H   0  0  0  0  0  0
   15.0026    1.5442   -1.6537 H   0  0  0  0  0  0
   16.7341    1.0799   -1.5404 H   0  0  0  0  0  0
   16.1633    1.3190    0.6497 H   0  0  0  0  0  0
   16.8152    2.9531    0.2871 H   0  0  0  0  0  0
   14.6791    2.9989    1.5706 H   0  0  0  0  0  0
   14.5695    3.8289   -0.0186 H   0  0  0  0  0  0
   13.4972    1.9318   -1.0007 H   0  0  0  0  0  0
   11.5638    1.7578    1.1440 H   0  0  0  0  0  0
   12.4967    3.1713    2.1480 H   0  0  0  0  0  0
   10.8102    4.6005    2.2902 H   0  0  0  0  0  0
   10.2388    2.8989    2.3590 H   0  0  0  0  0  0
    9.9823    3.8731    0.8717 H   0  0  0  0  0  0
   11.4522    1.2827   -1.1752 H   0  0  0  0  0  0
    9.6147    0.2845   -0.4807 H   0  0  0  0  0  0
    9.5110    2.0682   -0.2954 H   0  0  0  0  0  0
    9.7447    1.0272    1.1497 H   0  0  0  0  0  0
   12.2402    4.1455    0.6608 H   0  0  0  0  0  0
  1  2  1  0  0  0
  1 15  1  0  0  0
  1 16  1  0  0  0
  1 17  1  0  0  0
  2  3  1  0  0  0
  2 12  1  0  0  0
  2 18  1  0  0  0
  3  4  1  0  0  0
  3 19  1  0  0  0
  3 20  1  0  0  0
  4  5  1  0  0  0
  4 21  1  0  0  0
  4 22  1  0  0  0
  5  6  1  0  0  0
  5 23  1  0  0  0
  5 24  1  0  0  0
  6  7  1  0  0  0
  6 25  1  0  0  0
  7  8  1  0  0  0
  7 10  1  0  0  0
  7 26  1  0  0  0
  8  9  1  0  0  0
  8 27  1  0  0  0
  8 35  1  0  0  0
  9 28  1  0  0  0
  9 29  1  0  0  0
  9 30  1  0  0  0
 10 11  1  0  0  0
 10 31  1  0  0  0
 11 32  1  0  0  0
 11 33  1  0  0  0
 11 34  1  0  0  0
 12 13  2  0  0  0
 12 14  1  0  0  0
M  CHG  3   1   1   8   1  14  -1
M  END
> <s_m_source_file>
../4a4e_ligand.sdf

> <i_m_source_file_index>
1

> <s_epik_input>
Tz1DKFtPSF0pW0NAQEhdKFtOSDMrXSlbQ0gyXVtDSDJdW0NIMl1bTkhdW0NIXShbTkhdW0NIM10pW05IXVtDSDNd

> <s_epik_cmdline>
J2VwaWtfYXBwJywgJy1pbWFlJywgJ2xpZ2FuZF9wcm8ubWFlJywgJy1vbWFlJywgJ2xpZ2FuZF9wcmVwLm1hZScsICctbXMnLCAnMScsICctcGgnLCAnNycsICctcGh0JywgJzAuNScsICctbnQn

> <r_epik_Ionization_Penalty>
  0.0009

> <r_epik_Ionization_Penalty_Charging>
  0.0009

> <r_epik_Ionization_Penalty_Neutral>
  0.0000

> <r_epik_State_Penalty>
  0.1023

> <r_epik_Charging_Adjusted_Penalty>
0.10314498355303

> <i_epik_Tot_Q>
1

> <i_epik_Tot_abs_Q>
3

> <s_epik_Chemistry_Notes>
This compound contains an acetal/aminal-like group ( X-CH(R)-Y where X, Y are N, S, or O) that may be acid/base labile, releasing an aldehyde.

$$$$
