4a4f_ligand
                    3D
 Schrodinger Suite 2020-3.
 35 34  0  0  1  0            999 V2000
  -17.1230   -5.3870   -0.2440 N   0  3  0  0  0  0
  -17.1340   -4.3330    0.7550 C   0  0  1  0  0  0
  -15.7360   -4.1480    1.3420 C   0  0  0  0  0  0
  -15.6570   -3.0910    2.4030 C   0  0  0  0  0  0
  -14.2720   -2.9650    2.9600 C   0  0  0  0  0  0
  -13.3350   -2.5270    1.9390 N   0  0  2  0  0  0
  -12.0900   -2.2020    2.1590 C   0  0  1  0  0  0
  -11.6150   -2.2760    3.4440 N   0  3  2  0  0  0
  -10.2910   -1.9820    4.0090 C   0  0  0  0  0  0
  -11.3460   -1.8380    1.0880 N   0  0  2  0  0  0
   -9.9530   -1.4230    0.9840 C   0  0  0  0  0  0
  -17.5950   -3.0650    0.0980 C   0  0  0  0  0  0
  -18.6220   -2.5000    0.5200 O   0  5  0  0  0  0
  -16.9460   -2.6340   -0.8690 O   0  0  0  0  0  0
  -16.7872   -6.3269    0.2184 H   0  0  0  0  0  0
  -16.4362   -5.1131   -1.0584 H   0  0  0  0  0  0
  -18.1373   -5.5193   -0.6486 H   0  0  0  0  0  0
  -17.8369   -4.6289    1.5477 H   0  0  0  0  0  0
  -15.4017   -5.0918    1.7975 H   0  0  0  0  0  0
  -15.0379   -3.8593    0.5425 H   0  0  0  0  0  0
  -15.9471   -2.1199    1.9754 H   0  0  0  0  0  0
  -16.3389   -3.3471    3.2273 H   0  0  0  0  0  0
  -14.2711   -2.2288    3.7773 H   0  0  0  0  0  0
  -13.9415   -3.9409    3.3453 H   0  0  0  0  0  0
  -13.2214   -3.3173    1.1823 H   0  0  0  0  0  0
  -12.3928   -1.1586    2.3310 H   0  0  0  0  0  0
  -12.2020   -1.6075    4.0910 H   0  0  0  0  0  0
  -10.3060   -2.1662    5.0934 H   0  0  0  0  0  0
  -10.0372   -0.9286    3.8195 H   0  0  0  0  0  0
   -9.5386   -2.6311    3.5372 H   0  0  0  0  0  0
  -11.3079   -2.6692    0.3685 H   0  0  0  0  0  0
   -9.7124   -1.2065   -0.0673 H   0  0  0  0  0  0
   -9.3016   -2.2301    1.3505 H   0  0  0  0  0  0
   -9.7935   -0.5192    1.5903 H   0  0  0  0  0  0
  -11.7035   -3.3100    3.8087 H   0  0  0  0  0  0
  1  2  1  0  0  0
  1 15  1  0  0  0
  1 16  1  0  0  0
  1 17  1  0  0  0
  2  3  1  0  0  0
  2 12  1  0  0  0
  2 18  1  0  0  0
  3  4  1  0  0  0
  3 19  1  0  0  0
  3 20  1  0  0  0
  4  5  1  0  0  0
  4 21  1  0  0  0
  4 22  1  0  0  0
  5  6  1  0  0  0
  5 23  1  0  0  0
  5 24  1  0  0  0
  6  7  1  0  0  0
  6 25  1  0  0  0
  7  8  1  0  0  0
  7 10  1  0  0  0
  7 26  1  0  0  0
  8  9  1  0  0  0
  8 27  1  0  0  0
  8 35  1  0  0  0
  9 28  1  0  0  0
  9 29  1  0  0  0
  9 30  1  0  0  0
 10 11  1  0  0  0
 10 31  1  0  0  0
 11 32  1  0  0  0
 11 33  1  0  0  0
 11 34  1  0  0  0
 12 13  1  0  0  0
 12 14  2  0  0  0
M  CHG  3   1   1   8   1  13  -1
M  END
> <s_m_source_file>
../4a4f_ligand.sdf

> <i_m_source_file_index>
1

> <s_epik_input>
W09IXUMoPU8pW0NAQEhdKFtOSDMrXSlbQ0gyXVtDSDJdW0NIMl1bTkhdW0NIXShbTkhdW0NIM10pW05IXVtDSDNd

> <s_epik_cmdline>
J2VwaWtfYXBwJywgJy1pbWFlJywgJ2xpZ2FuZF9wcm8ubWFlJywgJy1vbWFlJywgJ2xpZ2FuZF9wcmVwLm1hZScsICctbXMnLCAnMScsICctcGgnLCAnNycsICctcGh0JywgJzAuNScsICctbnQn

> <r_epik_Ionization_Penalty>
  0.0009

> <r_epik_Ionization_Penalty_Charging>
  0.0009

> <r_epik_Ionization_Penalty_Neutral>
  0.0000

> <r_epik_State_Penalty>
  0.1023

> <r_epik_Charging_Adjusted_Penalty>
0.10314498355303

> <i_epik_Tot_Q>
1

> <i_epik_Tot_abs_Q>
3

> <s_epik_Chemistry_Notes>
This compound contains an acetal/aminal-like group ( X-CH(R)-Y where X, Y are N, S, or O) that may be acid/base labile, releasing an aldehyde.

$$$$
