4a4g_ligand
                    3D
 Schrodinger Suite 2020-3.
 33 32  0  0  1  0            999 V2000
    9.7290   -1.5210    1.8900 C   0  0  0  0  0  0
   10.0350   -3.6920    0.7170 C   0  0  0  0  0  0
   13.8110   -8.0090   -0.9830 N   0  3  0  0  0  0
   14.3100   -7.4700    0.2670 C   0  0  1  0  0  0
   13.9870   -5.9690    0.3680 C   0  0  0  0  0  0
   14.3010   -5.3420    1.7210 C   0  0  0  0  0  0
   13.9780   -3.8640    1.7320 C   0  0  0  0  0  0
   12.5680   -3.6490    1.4650 N   0  0  0  0  0  0
   11.8380   -2.6250    1.8470 C   0  0  0  0  0  0
   12.3350   -1.6400    2.5440 N   0  3  0  0  0  0
   10.5860   -2.6100    1.5060 N   0  0  0  0  0  0
   13.6600   -8.2320    1.3850 C   0  0  0  0  0  0
   14.3620   -8.8570    2.1840 O   0  5  0  0  0  0
   12.4300   -8.2790    1.4220 O   0  0  0  0  0  0
    8.7143   -1.6995    1.5045 H   0  0  0  0  0  0
   10.1201   -0.5817    1.4720 H   0  0  0  0  0  0
    9.6970   -1.4489    2.9872 H   0  0  0  0  0  0
    8.9677   -3.5027    0.5299 H   0  0  0  0  0  0
   10.1490   -4.6396    1.2639 H   0  0  0  0  0  0
   10.5698   -3.7556   -0.2421 H   0  0  0  0  0  0
   14.2704   -7.4694   -1.8243 H   0  0  0  0  0  0
   12.7183   -7.8895   -1.0236 H   0  0  0  0  0  0
   14.0658   -9.0770   -1.0495 H   0  0  0  0  0  0
   15.3997   -7.6181    0.2899 H   0  0  0  0  0  0
   14.5716   -5.4169   -0.3826 H   0  0  0  0  0  0
   12.9138   -5.8118    0.1851 H   0  0  0  0  0  0
   13.7036   -5.8359    2.5015 H   0  0  0  0  0  0
   15.3709   -5.4674    1.9438 H   0  0  0  0  0  0
   14.2229   -3.4425    2.7181 H   0  0  0  0  0  0
   14.5698   -3.3536    0.9579 H   0  0  0  0  0  0
   11.9987   -4.3904    0.8851 H   0  0  0  0  0  0
   13.3961   -1.6517    2.8336 H   0  0  0  0  0  0
   11.6928   -0.7981    2.8419 H   0  0  0  0  0  0
  1 11  1  0  0  0
  1 15  1  0  0  0
  1 16  1  0  0  0
  1 17  1  0  0  0
  2 11  1  0  0  0
  2 18  1  0  0  0
  2 19  1  0  0  0
  2 20  1  0  0  0
  3  4  1  0  0  0
  3 21  1  0  0  0
  3 22  1  0  0  0
  3 23  1  0  0  0
  4  5  1  0  0  0
  4 12  1  0  0  0
  4 24  1  0  0  0
  5  6  1  0  0  0
  5 25  1  0  0  0
  5 26  1  0  0  0
  6  7  1  0  0  0
  6 27  1  0  0  0
  6 28  1  0  0  0
  7  8  1  0  0  0
  7 29  1  0  0  0
  7 30  1  0  0  0
  8  9  1  0  0  0
  8 31  1  0  0  0
  9 10  2  0  0  0
  9 11  1  0  0  0
 10 32  1  0  0  0
 10 33  1  0  0  0
 12 13  1  0  0  0
 12 14  2  0  0  0
M  CHG  3   3   1  10   1  13  -1
M  END
> <s_m_source_file>
../4a4g_ligand.sdf

> <i_m_source_file_index>
1

> <s_epik_input>
W0NIM11OKFtDSDNdKUMoPU5cW0hdKVxbTkhdW0NIMl1bQ0gyXVtDSDJdW0NASF0oW05IMytdKUMoPU8pW09IXQ==

> <s_epik_cmdline>
J2VwaWtfYXBwJywgJy1pbWFlJywgJ2xpZ2FuZF9wcm8ubWFlJywgJy1vbWFlJywgJ2xpZ2FuZF9wcmVwLm1hZScsICctbXMnLCAnMScsICctcGgnLCAnNycsICctcGh0JywgJzAuNScsICctbnQn

> <r_lp_tautomer_probability>
1

> <r_epik_Ionization_Penalty>
  0.0016

> <r_epik_Ionization_Penalty_Charging>
  0.0016

> <r_epik_Ionization_Penalty_Neutral>
  0.0000

> <r_epik_State_Penalty>
 -0.0000

> <r_epik_Charging_Adjusted_Penalty>
0.00162379265382413

> <i_epik_Tot_Q>
1

> <i_epik_Tot_abs_Q>
3

> <s_epik_Chemistry_Notes>
This compound has an imine and may undergo hydrolysis.

$$$$
