4a4h_ligand
                    3D
 Schrodinger Suite 2020-3.
 33 32  0  0  1  0            999 V2000
   -9.8610   -2.0020   -0.7750 C   0  0  0  0  0  0
  -10.1980   -3.6530    1.0790 C   0  0  0  0  0  0
  -15.8920   -4.7610    3.9600 N   0  3  0  0  0  0
  -15.8380   -4.7810    2.5130 C   0  0  1  0  0  0
  -14.5900   -5.5200    2.0310 C   0  0  0  0  0  0
  -14.4820   -5.5880    0.5200 C   0  0  0  0  0  0
  -14.0990   -4.2550   -0.0840 C   0  0  0  0  0  0
  -12.7120   -3.9360    0.2170 N   0  0  0  0  0  0
  -11.9450   -3.0950   -0.4500 C   0  0  0  0  0  0
  -12.3920   -2.4410   -1.4880 N   0  3  0  0  0  0
  -10.7250   -2.9170   -0.0630 N   0  0  0  0  0  0
  -17.0590   -5.4960    2.0310 C   0  0  0  0  0  0
  -17.8600   -4.9050    1.2910 O   0  5  0  0  0  0
  -17.2470   -6.6420    2.4260 O   0  0  0  0  0  0
   -8.8699   -1.9874   -0.2981 H   0  0  0  0  0  0
  -10.2955   -0.9918   -0.7486 H   0  0  0  0  0  0
   -9.7604   -2.3307   -1.8199 H   0  0  0  0  0  0
   -9.1501   -3.3648    1.2491 H   0  0  0  0  0  0
  -10.2530   -4.7328    0.8764 H   0  0  0  0  0  0
  -10.7930   -3.4170    1.9736 H   0  0  0  0  0  0
  -15.0060   -4.2407    4.3528 H   0  0  0  0  0  0
  -15.9099   -5.7929    4.3405 H   0  0  0  0  0  0
  -16.8011   -4.2342    4.2857 H   0  0  0  0  0  0
  -15.8184   -3.7387    2.1619 H   0  0  0  0  0  0
  -13.6922   -5.0063    2.4053 H   0  0  0  0  0  0
  -14.6062   -6.5527    2.4096 H   0  0  0  0  0  0
  -13.7140   -6.3241    0.2401 H   0  0  0  0  0  0
  -15.4511   -5.8901    0.0963 H   0  0  0  0  0  0
  -14.2260   -4.2971   -1.1758 H   0  0  0  0  0  0
  -14.7440   -3.4660    0.3300 H   0  0  0  0  0  0
  -12.2104   -4.4147    1.0709 H   0  0  0  0  0  0
  -13.4291   -2.5861   -1.8247 H   0  0  0  0  0  0
  -11.7315   -1.7449   -2.0257 H   0  0  0  0  0  0
  1 11  1  0  0  0
  1 15  1  0  0  0
  1 16  1  0  0  0
  1 17  1  0  0  0
  2 11  1  0  0  0
  2 18  1  0  0  0
  2 19  1  0  0  0
  2 20  1  0  0  0
  3  4  1  0  0  0
  3 21  1  0  0  0
  3 22  1  0  0  0
  3 23  1  0  0  0
  4  5  1  0  0  0
  4 12  1  0  0  0
  4 24  1  0  0  0
  5  6  1  0  0  0
  5 25  1  0  0  0
  5 26  1  0  0  0
  6  7  1  0  0  0
  6 27  1  0  0  0
  6 28  1  0  0  0
  7  8  1  0  0  0
  7 29  1  0  0  0
  7 30  1  0  0  0
  8  9  1  0  0  0
  8 31  1  0  0  0
  9 10  2  0  0  0
  9 11  1  0  0  0
 10 32  1  0  0  0
 10 33  1  0  0  0
 12 13  1  0  0  0
 12 14  2  0  0  0
M  CHG  3   3   1  10   1  13  -1
M  END
> <s_m_source_file>
../4a4h_ligand.sdf

> <i_m_source_file_index>
1

> <s_epik_input>
W0NIM11OKFtDSDNdKUMoPU5cW0hdKVxbTkhdW0NIMl1bQ0gyXVtDSDJdW0NASF0oW05IMytdKUMoPU8pW09IXQ==

> <s_epik_cmdline>
J2VwaWtfYXBwJywgJy1pbWFlJywgJ2xpZ2FuZF9wcm8ubWFlJywgJy1vbWFlJywgJ2xpZ2FuZF9wcmVwLm1hZScsICctbXMnLCAnMScsICctcGgnLCAnNycsICctcGh0JywgJzAuNScsICctbnQn

> <r_lp_tautomer_probability>
1

> <r_epik_Ionization_Penalty>
  0.0016

> <r_epik_Ionization_Penalty_Charging>
  0.0016

> <r_epik_Ionization_Penalty_Neutral>
  0.0000

> <r_epik_State_Penalty>
 -0.0000

> <r_epik_Charging_Adjusted_Penalty>
0.00162379265382413

> <i_epik_Tot_Q>
1

> <i_epik_Tot_abs_Q>
3

> <s_epik_Chemistry_Notes>
This compound has an imine and may undergo hydrolysis.

$$$$
