4a4l_ligand
                    3D
 Schrodinger Suite 2020-3.
 59 62  0  0  1  0            999 V2000
   10.8510   42.6060    8.2990 N   0  0  0  0  0  0
   11.0680   43.8630    8.5380 C   0  0  0  0  0  0
   10.5730   44.4700    9.7170 N   0  0  0  0  0  0
    9.8970   43.8090   10.5830 C   0  0  0  0  0  0
    9.6380   42.3820   10.3300 C   0  0  0  0  0  0
   10.1180   41.8190    9.2090 C   0  0  0  0  0  0
   11.7960   44.6080    7.5960 N   0  0  0  0  0  0
    9.3730   44.4990   11.7950 C   0  0  0  0  0  0
    9.7750   45.7710   12.3000 N   0  0  0  0  0  0
    9.0270   46.0700   13.4310 C   0  0  0  0  0  0
    8.2040   45.0390   13.6120 C   0  0  0  0  0  0
    8.4110   44.0230   12.5790 C   0  0  0  0  0  0
    7.2160   44.9430   14.6920 C   0  0  0  0  0  0
    6.6430   46.0910   15.1990 N   0  0  0  0  0  0
    6.8630   43.8470   15.1310 O   0  0  0  0  0  0
   12.0480   46.0210    7.6180 C   0  0  0  0  0  0
   13.2420   46.4100    7.1480 C   0  0  0  0  0  0
   13.5890   47.8830    7.1240 C   0  0  0  0  0  0
   12.7110   48.8030    7.5670 C   0  0  0  0  0  0
   11.3810   48.3940    8.0920 C   0  0  0  0  0  0
   11.0650   47.0500    8.1140 C   0  0  0  0  0  0
   14.1150   45.3560    6.6810 O   0  0  0  0  0  0
   14.7760   45.5580    5.3940 C   0  0  0  0  0  0
   15.7880   46.4670    5.5190 F   0  0  0  0  0  0
   13.8890   45.9950    4.4190 F   0  0  0  0  0  0
   15.3100   44.3680    4.9800 F   0  0  0  0  0  0
   10.7810   46.6490   11.7570 C   0  0  0  0  0  0
   10.4600   49.4150    8.5480 N   0  0  0  0  0  0
    9.0080   49.2410    8.3050 C   0  0  0  0  0  0
    8.1160   50.0890    9.2430 C   0  0  0  0  0  0
    8.6480   51.4830    9.4130 N   0  3  0  0  0  0
    9.9730   51.4140   10.0520 C   0  0  0  0  0  0
   11.0010   50.6370    9.1780 C   0  0  0  0  0  0
    7.7460   52.2580   10.2880 C   0  0  0  0  0  0
    9.0642   41.7901   11.0431 H   0  0  0  0  0  0
    9.9420   40.7628    9.0052 H   0  0  0  0  0  0
   12.2446   44.1063    6.7259 H   0  0  0  0  0  0
    9.0990   46.9670   14.0461 H   0  0  0  0  0  0
    7.8857   43.0737   12.4744 H   0  0  0  0  0  0
    6.9502   47.0749   14.8149 H   0  0  0  0  0  0
    5.8790   46.0224   15.9874 H   0  0  0  0  0  0
   14.5595   48.2024    6.7443 H   0  0  0  0  0  0
   12.9782   49.8594    7.5405 H   0  0  0  0  0  0
   10.0948   46.7301    8.4940 H   0  0  0  0  0  0
   11.2280   46.1868   10.8645 H   0  0  0  0  0  0
   11.5629   46.8215   12.5112 H   0  0  0  0  0  0
   10.3197   47.6087   11.4809 H   0  0  0  0  0  0
    8.7712   49.5359    7.2720 H   0  0  0  0  0  0
    8.7345   48.1864    8.4571 H   0  0  0  0  0  0
    7.1018   50.1564    8.8225 H   0  0  0  0  0  0
    8.0711   49.6144   10.2343 H   0  0  0  0  0  0
    8.7272   51.9829    8.4364 H   0  0  0  0  0  0
   10.3570   52.4325   10.2108 H   0  0  0  0  0  0
    9.8867   50.8996   11.0205 H   0  0  0  0  0  0
   11.8438   50.3698    9.8324 H   0  0  0  0  0  0
   11.3485   51.3292    8.3969 H   0  0  0  0  0  0
    6.7500   52.3197    9.8253 H   0  0  0  0  0  0
    8.1500   53.2719   10.4251 H   0  0  0  0  0  0
    7.6660   51.7598   11.2655 H   0  0  0  0  0  0
  1  2  2  0  0  0
  1  6  1  0  0  0
  2  3  1  0  0  0
  2  7  1  0  0  0
  3  4  2  0  0  0
  4  5  1  0  0  0
  4  8  1  0  0  0
  5  6  2  0  0  0
  5 35  1  0  0  0
  6 36  1  0  0  0
  7 16  1  0  0  0
  7 37  1  0  0  0
  8  9  1  0  0  0
  8 12  2  0  0  0
  9 10  1  0  0  0
  9 27  1  0  0  0
 10 11  2  0  0  0
 10 38  1  0  0  0
 11 12  1  0  0  0
 11 13  1  0  0  0
 12 39  1  0  0  0
 13 14  1  0  0  0
 13 15  2  0  0  0
 14 40  1  0  0  0
 14 41  1  0  0  0
 16 17  2  0  0  0
 16 21  1  0  0  0
 17 18  1  0  0  0
 17 22  1  0  0  0
 18 19  2  0  0  0
 18 42  1  0  0  0
 19 20  1  0  0  0
 19 43  1  0  0  0
 20 21  2  0  0  0
 20 28  1  0  0  0
 21 44  1  0  0  0
 22 23  1  0  0  0
 23 24  1  0  0  0
 23 25  1  0  0  0
 23 26  1  0  0  0
 27 45  1  0  0  0
 27 46  1  0  0  0
 27 47  1  0  0  0
 28 29  1  0  0  0
 28 33  1  0  0  0
 29 30  1  0  0  0
 29 48  1  0  0  0
 29 49  1  0  0  0
 30 31  1  0  0  0
 30 50  1  0  0  0
 30 51  1  0  0  0
 31 32  1  0  0  0
 31 34  1  0  0  0
 31 52  1  0  0  0
 32 33  1  0  0  0
 32 53  1  0  0  0
 32 54  1  0  0  0
 33 55  1  0  0  0
 33 56  1  0  0  0
 34 57  1  0  0  0
 34 58  1  0  0  0
 34 59  1  0  0  0
M  CHG  1  31   1
M  END
> <s_m_source_file>
../4a4l_ligand.sdf

> <i_m_source_file_index>
1

> <s_epik_input>
W05IMl1DKD1PKWMoW2NIXTEpW2NIXW4oW0NIM10pYzEtYyhuMilbY0hdW2NIXW5jMltOSF1jM2MoT0MoRikoRilGKVtjSF1bY0hdYyhbY0hdMylONFtDSDJdW0NIMl1bTkgrXShbQ0gzXSlbQ0gyXVtDSDJdNA==

> <s_epik_cmdline>
J2VwaWtfYXBwJywgJy1pbWFlJywgJ2xpZ2FuZF9wcm8ubWFlJywgJy1vbWFlJywgJ2xpZ2FuZF9wcmVwLm1hZScsICctbXMnLCAnMScsICctcGgnLCAnNycsICctcGh0JywgJzAuNScsICctbnQn

> <r_lp_tautomer_probability>
0.999999987636

> <r_epik_Ionization_Penalty>
  0.0425

> <r_epik_Ionization_Penalty_Charging>
  0.0424

> <r_epik_Ionization_Penalty_Neutral>
  0.0001

> <r_epik_State_Penalty>
  0.0358

> <r_epik_Charging_Adjusted_Penalty>
0.0781544210575721

> <i_epik_Tot_Q>
1

> <i_epik_Tot_abs_Q>
1

$$$$
