4a4q_ligand
                    3D
 Schrodinger Suite 2020-3.
102107  0  0  1  0            999 V2000
   10.6130   23.5350    5.3730 C   0  0  0  0  0  0
   10.0230   22.4790    5.6440 O   0  0  0  0  0  0
   11.6470   23.6270    4.2650 C   0  0  1  0  0  0
   11.8940   25.1580    4.0750 C   0  0  1  0  0  0
   11.3360   25.7710    5.3690 C   0  0  0  0  0  0
   10.4660   24.7330    5.9620 N   0  0  0  0  0  0
    9.4650   24.9270    7.0840 C   0  0  1  0  0  0
    9.7440   25.8940    8.1950 C   0  0  0  0  0  0
    8.5630   26.5730    8.5690 C   0  0  0  0  0  0
    7.3600   26.1420    7.7870 C   0  0  0  0  0  0
    8.0410   25.4660    6.5870 C   0  0  1  0  0  0
    8.2090   26.4410    5.5250 O   0  0  0  0  0  0
    8.5920   27.6300    9.6860 C   0  0  0  0  0  0
    9.8210   27.8870   10.3050 C   0  0  0  0  0  0
   11.0810   27.1060    9.8480 C   0  0  0  0  0  0
   10.9910   26.1510    8.8210 C   0  0  0  0  0  0
   13.2670   25.5900    3.9230 O   0  0  0  0  0  0
   12.9650   22.8140    4.5720 C   0  0  0  0  0  0
   13.8700   23.2600    5.7870 C   0  0  0  0  0  0
   10.9420   23.0770    2.8870 C   0  0  0  0  0  0
    9.4790   23.6580    2.5600 C   0  0  0  0  0  0
    8.2530   22.9760    3.0370 C   0  0  0  0  0  0
    6.9260   23.5110    2.7490 C   0  0  0  0  0  0
    6.7910   24.7480    1.9740 C   0  0  0  0  0  0
    7.9830   25.4380    1.4920 C   0  0  0  0  0  0
    9.3050   24.9020    1.7810 C   0  0  0  0  0  0
   16.8980   17.9070   10.9100 C   0  0  0  0  0  0
   16.5120   19.1460   10.0870 C   0  0  0  0  0  0
   17.5480   19.9840    9.4320 C   0  0  0  0  0  0
   17.1670   21.1660    8.6600 C   0  0  0  0  0  0
   15.7500   21.5330    8.5280 C   0  0  0  0  0  0
   14.7240   20.7160    9.1630 C   0  0  0  0  0  0
   15.0960   19.5380    9.9330 C   0  0  0  0  0  0
   15.3170   22.7640    7.7220 C   0  0  0  0  0  0
   14.5870   22.2120    6.5130 N   0  0  2  0  0  0
   15.4550   21.5010    5.6730 N   0  0  0  0  0  0
   15.1450   20.1790    5.3290 C   0  0  0  0  0  0
   16.0940   19.3690    4.4250 C   0  0  1  0  0  0
   16.8530   18.5790    5.4470 N   0  0  0  0  0  0
   18.2220   18.6670    5.6770 C   0  0  0  0  0  0
   18.5780   17.8010    6.7020 O   0  0  0  0  0  0
   19.9790   17.7370    7.1100 C   0  0  0  0  0  0
   19.0170   19.4190    5.0520 O   0  0  0  0  0  0
   15.4270   18.3950    3.3110 C   0  0  0  0  0  0
   14.4980   17.2610    3.8660 C   0  0  0  0  0  0
   14.6110   19.2500    2.2810 C   0  0  0  0  0  0
   16.5550   17.6680    2.5090 C   0  0  0  0  0  0
   14.1080   19.6530    5.7660 O   0  0  0  0  0  0
   16.1720   16.6190   10.7590 C   0  0  0  0  0  0
   16.5870   15.4880   11.5770 C   0  0  0  0  0  0
   17.6570   15.6630   12.4750 N   0  0  0  0  0  0
   18.3610   16.8840   12.6330 C   0  0  0  0  0  0
   17.9910   18.0160   11.8560 C   0  0  0  0  0  0
   11.4849   25.5080    3.1157 H   0  0  0  0  0  0
   12.1678   26.0273    6.0417 H   0  0  0  0  0  0
   10.7659   26.6803    5.1279 H   0  0  0  0  0  0
    9.5770   23.9065    7.4791 H   0  0  0  0  0  0
    6.7520   25.4577    8.3970 H   0  0  0  0  0  0
    6.7610   27.0249    7.5193 H   0  0  0  0  0  0
    7.4033   24.6876    6.1425 H   0  0  0  0  0  0
    8.6813   26.1453    4.5766 H   0  0  0  0  0  0
    7.6877   28.1601    9.9850 H   0  0  0  0  0  0
    9.8919   28.6288   11.1005 H   0  0  0  0  0  0
   12.0414   27.2990   10.3261 H   0  0  0  0  0  0
   11.8809   25.6067    8.5048 H   0  0  0  0  0  0
   13.8544   25.2600    3.0535 H   0  0  0  0  0  0
   12.7078   21.7665    4.7878 H   0  0  0  0  0  0
   13.6330   22.8552    3.6990 H   0  0  0  0  0  0
   14.6474   23.9518    5.4306 H   0  0  0  0  0  0
   13.2484   23.7643    6.5415 H   0  0  0  0  0  0
   11.5724   23.3367    2.0238 H   0  0  0  0  0  0
   10.8297   21.9842    2.9435 H   0  0  0  0  0  0
    8.3441   22.0562    3.6147 H   0  0  0  0  0  0
    6.0377   22.9922    3.1092 H   0  0  0  0  0  0
    5.8018   25.1517    1.7581 H   0  0  0  0  0  0
    7.8832   26.3569    0.9142 H   0  0  0  0  0  0
   10.1859   25.4295    1.4150 H   0  0  0  0  0  0
   18.6003   19.7161    9.5273 H   0  0  0  0  0  0
   17.9343   21.7752    8.1822 H   0  0  0  0  0  0
   13.6735   20.9881    9.0610 H   0  0  0  0  0  0
   14.3182   18.9362   10.4030 H   0  0  0  0  0  0
   14.6586   23.3932    8.3390 H   0  0  0  0  0  0
   16.2061   23.3413    7.4283 H   0  0  0  0  0  0
   16.3679   21.9818    5.2916 H   0  0  0  0  0  0
   16.7151   20.0604    3.8365 H   0  0  0  0  0  0
   16.3245   17.8593    6.0895 H   0  0  0  0  0  0
   20.0901   17.0085    7.9267 H   0  0  0  0  0  0
   20.3057   18.7287    7.4562 H   0  0  0  0  0  0
   20.5962   17.4256    6.2544 H   0  0  0  0  0  0
   13.6772   17.7098    4.4447 H   0  0  0  0  0  0
   15.0826   16.5934    4.5160 H   0  0  0  0  0  0
   14.0823   16.6841    3.0268 H   0  0  0  0  0  0
   13.8026   19.7815    2.8045 H   0  0  0  0  0  0
   14.1793   18.5883    1.5157 H   0  0  0  0  0  0
   15.2786   19.9801    1.8001 H   0  0  0  0  0  0
   17.1554   17.0534    3.1959 H   0  0  0  0  0  0
   17.2013   18.4155    2.0257 H   0  0  0  0  0  0
   16.1019   17.0236    1.7412 H   0  0  0  0  0  0
   15.3478   16.5231   10.0522 H   0  0  0  0  0  0
   16.0800   14.5265   11.4958 H   0  0  0  0  0  0
   19.1818   16.9544   13.3467 H   0  0  0  0  0  0
   18.5254   18.9590   11.9709 H   0  0  0  0  0  0
  1  2  2  0  0  0
  1  3  1  0  0  0
  1  6  1  0  0  0
  3  4  1  0  0  0
  3 18  1  0  0  0
  3 20  1  0  0  0
  4  5  1  0  0  0
  4 17  1  0  0  0
  4 54  1  0  0  0
  5  6  1  0  0  0
  5 55  1  0  0  0
  5 56  1  0  0  0
  6  7  1  0  0  0
  7  8  1  0  0  0
  7 11  1  0  0  0
  7 57  1  0  0  0
  8  9  2  0  0  0
  8 16  1  0  0  0
  9 10  1  0  0  0
  9 13  1  0  0  0
 10 11  1  0  0  0
 10 58  1  0  0  0
 10 59  1  0  0  0
 11 12  1  0  0  0
 11 60  1  0  0  0
 12 61  1  0  0  0
 13 14  2  0  0  0
 13 62  1  0  0  0
 14 15  1  0  0  0
 14 63  1  0  0  0
 15 16  2  0  0  0
 15 64  1  0  0  0
 16 65  1  0  0  0
 17 66  1  0  0  0
 18 19  1  0  0  0
 18 67  1  0  0  0
 18 68  1  0  0  0
 19 35  1  0  0  0
 19 69  1  0  0  0
 19 70  1  0  0  0
 20 21  1  0  0  0
 20 71  1  0  0  0
 20 72  1  0  0  0
 21 22  2  0  0  0
 21 26  1  0  0  0
 22 23  1  0  0  0
 22 73  1  0  0  0
 23 24  2  0  0  0
 23 74  1  0  0  0
 24 25  1  0  0  0
 24 75  1  0  0  0
 25 26  2  0  0  0
 25 76  1  0  0  0
 26 77  1  0  0  0
 27 28  1  0  0  0
 27 49  2  0  0  0
 27 53  1  0  0  0
 28 29  2  0  0  0
 28 33  1  0  0  0
 29 30  1  0  0  0
 29 78  1  0  0  0
 30 31  2  0  0  0
 30 79  1  0  0  0
 31 32  1  0  0  0
 31 34  1  0  0  0
 32 33  2  0  0  0
 32 80  1  0  0  0
 33 81  1  0  0  0
 34 35  1  0  0  0
 34 82  1  0  0  0
 34 83  1  0  0  0
 35 36  1  0  0  0
 36 37  1  0  0  0
 36 84  1  0  0  0
 37 38  1  0  0  0
 37 48  2  0  0  0
 38 39  1  0  0  0
 38 44  1  0  0  0
 38 85  1  0  0  0
 39 40  1  0  0  0
 39 86  1  0  0  0
 40 41  1  0  0  0
 40 43  2  0  0  0
 41 42  1  0  0  0
 42 87  1  0  0  0
 42 88  1  0  0  0
 42 89  1  0  0  0
 44 45  1  0  0  0
 44 46  1  0  0  0
 44 47  1  0  0  0
 45 90  1  0  0  0
 45 91  1  0  0  0
 45 92  1  0  0  0
 46 93  1  0  0  0
 46 94  1  0  0  0
 46 95  1  0  0  0
 47 96  1  0  0  0
 47 97  1  0  0  0
 47 98  1  0  0  0
 49 50  1  0  0  0
 49 99  1  0  0  0
 50 51  2  0  0  0
 50100  1  0  0  0
 51 52  1  0  0  0
 52 53  2  0  0  0
 52101  1  0  0  0
 53102  1  0  0  0
M  END
> <s_m_source_file>
../4a4q_ligand.sdf

> <i_m_source_file_index>
1

> <s_epik_input>
W2NIXTFbY0hdW2NIXVtjSF1jKGMxMilbQ0gyXVtDQEBIXShbT0hdKVtDQEhdMk4oW0NIMl1bQ0BIXTNbT0hdKUMoPU8pW0NAXTMoW0NIMl1jNFtjSF1bY0hdW2NIXVtjSF1bY0hdNClbQ0gyXVtDSDJdW05AQEgrXShbTkhdQyg9TylbQ0BIXShDKFtDSDNdKShbQ0gzXSlbQ0gzXSlbTkhdQyg9TylPW0NIM10pW0NIMl1jKFtjSF1bY0hdNSlbY0hdW2NIXWM1LWM2W2NIXVtjSF1uW2NIXVtjSF02

> <s_epik_cmdline>
J2VwaWtfYXBwJywgJy1pbWFlJywgJ2xpZ2FuZF9wcm8ubWFlJywgJy1vbWFlJywgJ2xpZ2FuZF9wcmVwLm1hZScsICctbXMnLCAnMScsICctcGgnLCAnNycsICctcGh0JywgJzAuNScsICctbnQn

> <r_epik_Ionization_Penalty>
  0.0124

> <r_epik_Ionization_Penalty_Charging>
  0.0000

> <r_epik_Ionization_Penalty_Neutral>
  0.0124

> <r_epik_State_Penalty>
  0.0096

> <r_epik_Charging_Adjusted_Penalty>
0.00958956781581771

> <i_epik_Tot_Q>
0

> <i_epik_Tot_abs_Q>
0

> <s_epik_Chemistry_Notes>
This compound has an ester and may undergo hydrolysis at high or low pH.

$$$$
