4a4v_ligand
                    3D
 Schrodinger Suite 2020-3.
 47 47  0  0  1  0            999 V2000
  -14.1320   27.8250  -50.8340 C   0  0  0  0  0  0
  -15.0780   26.8200  -50.1640 C   0  0  0  0  0  0
  -14.9800   25.4570  -50.8580 C   0  0  0  0  0  0
  -15.9670   24.4090  -50.2920 C   0  0  0  0  0  0
  -15.6960   24.1030  -48.8150 C   0  0  0  0  0  0
  -16.1200   22.6970  -48.3480 C   0  0  0  0  0  0
  -17.4260   22.1850  -48.1920 C   0  0  0  0  0  0
  -18.6980   23.0130  -48.5230 C   0  0  0  0  0  0
  -19.8150   22.4370  -48.4500 O   0  5  0  0  0  0
  -18.5640   24.2240  -48.8240 O   0  0  0  0  0  0
  -17.6070   20.8700  -47.7330 C   0  0  0  0  0  0
  -18.8740   20.3930  -47.6050 O   0  0  0  0  0  0
  -15.0650   21.8640  -48.0050 C   0  0  0  0  0  0
  -15.2630   20.5620  -47.5480 C   0  0  0  0  0  0
  -14.1640   19.8250  -47.2530 O   0  0  0  0  0  0
  -13.4960   19.4510  -48.4540 C   0  0  0  0  0  0
  -16.5450   20.0250  -47.3910 C   0  0  0  0  0  0
  -16.8310   18.5900  -46.8740 C   0  0  0  0  0  0
  -16.2230   18.3330  -45.6270 C   0  0  0  0  0  0
  -16.7700   17.9860  -44.3750 C   0  0  0  0  0  0
  -15.8350   17.7030  -43.1710 C   0  0  0  0  0  0
  -18.3030   17.8630  -44.1520 C   0  0  0  0  0  0
  -14.2119   28.7979  -50.3270 H   0  0  0  0  0  0
  -14.4085   27.9393  -51.8925 H   0  0  0  0  0  0
  -13.0974   27.4583  -50.7628 H   0  0  0  0  0  0
  -14.8015   26.7057  -49.1055 H   0  0  0  0  0  0
  -16.1126   27.1867  -50.2352 H   0  0  0  0  0  0
  -15.2003   25.5744  -51.9293 H   0  0  0  0  0  0
  -13.9636   25.0549  -50.7346 H   0  0  0  0  0  0
  -16.9956   24.7886  -50.3807 H   0  0  0  0  0  0
  -15.8719   23.4716  -50.8597 H   0  0  0  0  0  0
  -14.6177   24.1875  -48.6149 H   0  0  0  0  0  0
  -16.2430   24.8203  -48.1855 H   0  0  0  0  0  0
  -19.7310   21.0316  -47.8653 H   0  0  0  0  0  0
  -14.0462   22.2405  -48.0960 H   0  0  0  0  0  0
  -12.6058   18.8536  -48.2076 H   0  0  0  0  0  0
  -13.1909   20.3554  -49.0007 H   0  0  0  0  0  0
  -14.1754   18.8551  -49.0811 H   0  0  0  0  0  0
  -17.9160   18.4522  -46.7562 H   0  0  0  0  0  0
  -16.4445   17.8561  -47.5965 H   0  0  0  0  0  0
  -15.1345   18.4442  -45.7399 H   0  0  0  0  0  0
  -14.7876   17.8295  -43.4825 H   0  0  0  0  0  0
  -15.9912   16.6723  -42.8198 H   0  0  0  0  0  0
  -16.0629   18.4064  -42.3565 H   0  0  0  0  0  0
  -18.8295   18.0919  -45.0903 H   0  0  0  0  0  0
  -18.6181   18.5720  -43.3723 H   0  0  0  0  0  0
  -18.5464   16.8380  -43.8356 H   0  0  0  0  0  0
  1  2  1  0  0  0
  1 23  1  0  0  0
  1 24  1  0  0  0
  1 25  1  0  0  0
  2  3  1  0  0  0
  2 26  1  0  0  0
  2 27  1  0  0  0
  3  4  1  0  0  0
  3 28  1  0  0  0
  3 29  1  0  0  0
  4  5  1  0  0  0
  4 30  1  0  0  0
  4 31  1  0  0  0
  5  6  1  0  0  0
  5 32  1  0  0  0
  5 33  1  0  0  0
  6  7  2  0  0  0
  6 13  1  0  0  0
  7  8  1  0  0  0
  7 11  1  0  0  0
  8  9  1  0  0  0
  8 10  2  0  0  0
 11 12  1  0  0  0
 11 17  2  0  0  0
 12 34  1  0  0  0
 13 14  2  0  0  0
 13 35  1  0  0  0
 14 15  1  0  0  0
 14 17  1  0  0  0
 15 16  1  0  0  0
 16 36  1  0  0  0
 16 37  1  0  0  0
 16 38  1  0  0  0
 17 18  1  0  0  0
 18 19  1  0  0  0
 18 39  1  0  0  0
 18 40  1  0  0  0
 19 20  2  0  0  0
 19 41  1  0  0  0
 20 21  1  0  0  0
 20 22  1  0  0  0
 21 42  1  0  0  0
 21 43  1  0  0  0
 21 44  1  0  0  0
 22 45  1  0  0  0
 22 46  1  0  0  0
 22 47  1  0  0  0
M  CHG  1   9  -1
M  END
> <s_m_source_file>
../4a4v_ligand.sdf

> <i_m_source_file_index>
1

> <s_epik_input>
W0NIM11bQ0gyXVtDSDJdW0NIMl1bQ0gyXWMxYyhDKD1PKVtPSF0pYyhbT0hdKWMoYyhbY0hdMSlPW0NIM10pW0NIMl1bQ0hdPUMoW0NIM10pW0NIM10=

> <s_epik_cmdline>
J2VwaWtfYXBwJywgJy1pbWFlJywgJ2xpZ2FuZF9wcm8ubWFlJywgJy1vbWFlJywgJ2xpZ2FuZF9wcmVwLm1hZScsICctbXMnLCAnMScsICctcGgnLCAnNycsICctcGh0JywgJzAuNScsICctbnQn

> <r_lp_tautomer_probability>
1

> <r_epik_Ionization_Penalty>
  0.0002

> <r_epik_Ionization_Penalty_Charging>
  0.0002

> <r_epik_Ionization_Penalty_Neutral>
  0.0000

> <r_epik_State_Penalty>
 -0.0000

> <r_epik_Charging_Adjusted_Penalty>
0.000203010902886669

> <i_epik_Tot_Q>
-1

> <i_epik_Tot_abs_Q>
1

$$$$
