4a4w_ligand
                    3D
 Schrodinger Suite 2020-3.
 61 62  0  0  1  0            999 V2000
  -10.5160   15.8320  -13.1880 C   0  0  0  0  0  0
  -11.9000   15.8090  -13.8430 C   0  0  0  0  0  0
  -12.1460   14.6730  -14.8480 C   0  0  0  0  0  0
  -12.8510   16.8110  -13.5600 C   0  0  0  0  0  0
  -14.1780   16.9410  -14.0050 C   0  0  0  0  0  0
  -14.8900   18.1340  -13.3510 C   0  0  0  0  0  0
  -16.4000   17.9090  -13.0740 C   0  0  0  0  0  0
  -17.3380   17.5290  -14.2490 C   0  0  0  0  0  0
  -16.9190   18.0270  -11.7750 C   0  0  0  0  0  0
  -16.2630   18.3270  -10.5670 C   0  0  0  0  0  0
  -16.5680   19.7680  -10.0800 C   0  0  0  0  0  0
  -17.8640   20.2670   -9.9570 C   0  0  0  0  0  0
  -18.1170   21.5650   -9.5230 C   0  0  0  0  0  0
  -18.9230   19.4830  -10.2640 O   0  0  0  0  0  0
  -19.8240   19.4470   -9.1470 C   0  0  0  0  0  0
  -15.5250   20.6440   -9.7260 C   0  0  0  0  0  0
  -14.2290   20.2090   -9.8120 O   0  0  0  0  0  0
  -15.7640   21.9550   -9.2890 C   0  0  0  0  0  0
  -14.5460   22.8550   -8.9380 C   0  0  0  0  0  0
  -13.4020   22.3230   -8.9460 O   0  5  0  0  0  0
  -14.7560   24.0710   -8.6850 O   0  0  0  0  0  0
  -17.0840   22.4240   -9.1810 C   0  0  0  0  0  0
  -17.5210   23.8180   -8.7310 C   0  0  0  0  0  0
  -17.7520   23.8660   -7.2280 C   0  0  0  0  0  0
  -17.9220   25.3110   -6.7480 C   0  0  0  0  0  0
  -18.9480   26.1100   -7.2610 C   0  0  0  0  0  0
  -19.1080   27.4270   -6.8260 C   0  0  0  0  0  0
  -18.2250   27.9350   -5.8680 C   0  0  0  0  0  0
  -17.2000   27.1370   -5.3480 C   0  0  0  0  0  0
  -17.0460   25.8210   -5.7900 C   0  0  0  0  0  0
   -9.9300   14.9697  -13.5388 H   0  0  0  0  0  0
  -10.6268   15.7798  -12.0948 H   0  0  0  0  0  0
   -9.9971   16.7630  -13.4599 H   0  0  0  0  0  0
  -11.2592   14.0236  -14.8916 H   0  0  0  0  0  0
  -12.3376   15.0994  -15.8437 H   0  0  0  0  0  0
  -13.0173   14.0827  -14.5281 H   0  0  0  0  0  0
  -12.5864   17.6494  -12.8989 H   0  0  0  0  0  0
  -14.1862   17.0915  -15.0946 H   0  0  0  0  0  0
  -14.7391   16.0280  -13.7567 H   0  0  0  0  0  0
  -14.4171   18.3577  -12.3833 H   0  0  0  0  0  0
  -14.8128   19.0125  -14.0085 H   0  0  0  0  0  0
  -16.7573   17.4846  -15.1821 H   0  0  0  0  0  0
  -18.1299   18.2863  -14.3456 H   0  0  0  0  0  0
  -17.7921   16.5466  -14.0526 H   0  0  0  0  0  0
  -17.9938   17.8756  -11.5963 H   0  0  0  0  0  0
  -16.5921   17.6248   -9.7869 H   0  0  0  0  0  0
  -15.1759   18.2357  -10.7076 H   0  0  0  0  0  0
  -19.1474   21.9129   -9.4506 H   0  0  0  0  0  0
  -20.6869   18.8104   -9.3923 H   0  0  0  0  0  0
  -20.1720   20.4663   -8.9237 H   0  0  0  0  0  0
  -19.3034   19.0367   -8.2691 H   0  0  0  0  0  0
  -14.0139   19.1852  -10.1519 H   0  0  0  0  0  0
  -16.7396   24.5482   -8.9886 H   0  0  0  0  0  0
  -18.4585   24.0899   -9.2381 H   0  0  0  0  0  0
  -18.6622   23.3008   -6.9787 H   0  0  0  0  0  0
  -16.8901   23.4200   -6.7101 H   0  0  0  0  0  0
  -19.6292   25.7011   -8.0073 H   0  0  0  0  0  0
  -19.9083   28.0492   -7.2267 H   0  0  0  0  0  0
  -18.3363   28.9629   -5.5229 H   0  0  0  0  0  0
  -16.5214   27.5425   -4.5976 H   0  0  0  0  0  0
  -16.2471   25.1972   -5.3892 H   0  0  0  0  0  0
  1  2  1  0  0  0
  1 31  1  0  0  0
  1 32  1  0  0  0
  1 33  1  0  0  0
  2  3  1  0  0  0
  2  4  2  0  0  0
  3 34  1  0  0  0
  3 35  1  0  0  0
  3 36  1  0  0  0
  4  5  1  0  0  0
  4 37  1  0  0  0
  5  6  1  0  0  0
  5 38  1  0  0  0
  5 39  1  0  0  0
  6  7  1  0  0  0
  6 40  1  0  0  0
  6 41  1  0  0  0
  7  8  1  0  0  0
  7  9  2  0  0  0
  8 42  1  0  0  0
  8 43  1  0  0  0
  8 44  1  0  0  0
  9 10  1  0  0  0
  9 45  1  0  0  0
 10 11  1  0  0  0
 10 46  1  0  0  0
 10 47  1  0  0  0
 11 12  2  0  0  0
 11 16  1  0  0  0
 12 13  1  0  0  0
 12 14  1  0  0  0
 13 22  2  0  0  0
 13 48  1  0  0  0
 14 15  1  0  0  0
 15 49  1  0  0  0
 15 50  1  0  0  0
 15 51  1  0  0  0
 16 17  1  0  0  0
 16 18  2  0  0  0
 17 52  1  0  0  0
 18 19  1  0  0  0
 18 22  1  0  0  0
 19 20  1  0  0  0
 19 21  2  0  0  0
 22 23  1  0  0  0
 23 24  1  0  0  0
 23 53  1  0  0  0
 23 54  1  0  0  0
 24 25  1  0  0  0
 24 55  1  0  0  0
 24 56  1  0  0  0
 25 26  2  0  0  0
 25 30  1  0  0  0
 26 27  1  0  0  0
 26 57  1  0  0  0
 27 28  2  0  0  0
 27 58  1  0  0  0
 28 29  1  0  0  0
 28 59  1  0  0  0
 29 30  2  0  0  0
 29 60  1  0  0  0
 30 61  1  0  0  0
M  CHG  1  20  -1
M  END
> <s_m_source_file>
../4a4w_ligand.sdf

> <i_m_source_file_index>
1

> <s_epik_input>
W0NIM11DKFtDSDNdKT1bQ0hdW0NIMl1bQ0gyXS9DKFtDSDNdKT1bQ0hdXFtDSDJdYzFjKE9bQ0gzXSlbY0hdYyhjKGMxW09IXSlDKD1PKVtPSF0pW0NIMl1bQ0gyXWMyW2NIXVtjSF1bY0hdW2NIXVtjSF0y

> <s_epik_cmdline>
J2VwaWtfYXBwJywgJy1pbWFlJywgJ2xpZ2FuZF9wcm8ubWFlJywgJy1vbWFlJywgJ2xpZ2FuZF9wcmVwLm1hZScsICctbXMnLCAnMScsICctcGgnLCAnNycsICctcGh0JywgJzAuNScsICctbnQn

> <r_lp_tautomer_probability>
1

> <r_epik_Ionization_Penalty>
  0.0002

> <r_epik_Ionization_Penalty_Charging>
  0.0002

> <r_epik_Ionization_Penalty_Neutral>
  0.0000

> <r_epik_State_Penalty>
 -0.0000

> <r_epik_Charging_Adjusted_Penalty>
0.000184266583672097

> <i_epik_Tot_Q>
-1

> <i_epik_Tot_abs_Q>
1

$$$$
