4a4x_ligand
                    3D
 Schrodinger Suite 2020-3.
 66 69  0  0  1  0            999 V2000
    1.2240  -11.2850   16.2510 C   0  0  0  0  0  0
    1.8890  -10.7920   14.9790 C   0  0  1  0  0  0
    2.9760   -9.9420   15.2640 O   0  0  0  0  0  0
    3.5980   -9.1700   14.2160 C   0  0  0  0  0  0
    2.8980   -8.8900   13.0130 C   0  0  0  0  0  0
    3.5500   -8.1440   11.9820 C   0  0  0  0  0  0
    2.8640   -7.8730   10.7770 C   0  0  0  0  0  0
    2.2650   -8.9380   10.0870 C   0  0  0  0  0  0
    1.5690   -8.6450    8.8940 C   0  0  0  0  0  0
    0.9680   -9.6480    8.1500 C   0  0  0  0  0  0
    0.4320   -9.6100    6.8680 C   0  0  0  0  0  0
   -0.1010  -10.7660    6.3910 C   0  0  0  0  0  0
   -0.7060  -10.9090    4.9660 C   0  0  0  0  0  0
   -2.1260  -10.4630    4.8300 N   0  3  0  0  0  0
   -2.1770   -9.4200    3.8330 C   0  0  0  0  0  0
   -2.9190  -11.6100    4.3570 C   0  0  0  0  0  0
   -0.0600  -11.8900    7.2330 C   0  0  0  0  0  0
    0.7490  -11.2700    8.6110 S   0  0  0  0  0  0
    1.5100   -7.2860    8.4460 C   0  0  0  0  0  0
    2.0900   -6.2920    9.1310 N   0  0  0  0  0  0
    2.7650   -6.5400   10.2860 C   0  0  0  0  0  0
    3.3890   -5.4350   10.9960 N   0  0  0  0  0  0
    4.8640   -7.6810   12.1690 C   0  0  0  0  0  0
    5.5420   -7.9430   13.3750 C   0  0  0  0  0  0
    4.9140   -8.6910   14.3890 C   0  0  0  0  0  0
    5.6360   -8.9640   15.6410 C   0  0  0  0  0  0
    5.0290   -9.8180   16.6440 N   0  0  0  0  0  0
    6.7150   -8.4760   15.8100 O   0  0  0  0  0  0
    2.1380  -11.9040   13.9750 C   0  0  0  0  0  0
    3.3500  -12.6220   14.0180 C   0  0  0  0  0  0
    3.6150  -13.6560   13.0940 C   0  0  0  0  0  0
    2.6380  -13.9780   12.1330 C   0  0  0  0  0  0
    1.3850  -13.2650   12.1100 C   0  0  0  0  0  0
    1.1370  -12.2410   13.0240 C   0  0  0  0  0  0
   -0.1850  -11.4830   12.9270 C   0  0  0  0  0  0
   -0.8750  -11.4330   14.0880 F   0  0  0  0  0  0
    0.0310  -10.1920   12.5510 F   0  0  0  0  0  0
   -0.9080  -12.1140   12.0240 F   0  0  0  0  0  0
    1.0702  -10.4383   16.9362 H   0  0  0  0  0  0
    1.8672  -12.0354   16.7339 H   0  0  0  0  0  0
    0.2526  -11.7386   16.0048 H   0  0  0  0  0  0
    1.2480  -10.0708   14.4508 H   0  0  0  0  0  0
    1.8747   -9.2399   12.8768 H   0  0  0  0  0  0
    2.3349   -9.9597   10.4604 H   0  0  0  0  0  0
    0.4388   -8.6965    6.2733 H   0  0  0  0  0  0
   -0.1194  -10.3070    4.2565 H   0  0  0  0  0  0
   -0.6789  -11.9654    4.6604 H   0  0  0  0  0  0
   -2.5338  -10.0736    5.7745 H   0  0  0  0  0  0
   -1.5876   -8.5566    4.1752 H   0  0  0  0  0  0
   -3.2216   -9.1124    3.6773 H   0  0  0  0  0  0
   -1.7607   -9.7964    2.8870 H   0  0  0  0  0  0
   -2.8879  -12.4123    5.1089 H   0  0  0  0  0  0
   -2.5003  -11.9793    3.4092 H   0  0  0  0  0  0
   -3.9612  -11.2952    4.1996 H   0  0  0  0  0  0
   -0.4431  -12.8950    7.0559 H   0  0  0  0  0  0
    0.9788   -7.0545    7.5228 H   0  0  0  0  0  0
    3.9377   -5.6218   11.9309 H   0  0  0  0  0  0
    3.3123   -4.4123   10.5982 H   0  0  0  0  0  0
    5.3594   -7.1176   11.3783 H   0  0  0  0  0  0
    6.5540   -7.5663   13.5236 H   0  0  0  0  0  0
    4.0355  -10.2554   16.4657 H   0  0  0  0  0  0
    5.5621  -10.0283   17.5829 H   0  0  0  0  0  0
    4.0937  -12.3754   14.7758 H   0  0  0  0  0  0
    4.5611  -14.1964   13.1242 H   0  0  0  0  0  0
    2.8289  -14.7670   11.4056 H   0  0  0  0  0  0
    0.6262  -13.5281   11.3731 H   0  0  0  0  0  0
  1  2  1  0  0  0
  1 39  1  0  0  0
  1 40  1  0  0  0
  1 41  1  0  0  0
  2  3  1  0  0  0
  2 29  1  0  0  0
  2 42  1  0  0  0
  3  4  1  0  0  0
  4  5  2  0  0  0
  4 25  1  0  0  0
  5  6  1  0  0  0
  5 43  1  0  0  0
  6  7  1  0  0  0
  6 23  2  0  0  0
  7  8  2  0  0  0
  7 21  1  0  0  0
  8  9  1  0  0  0
  8 44  1  0  0  0
  9 10  1  0  0  0
  9 19  2  0  0  0
 10 11  2  0  0  0
 10 18  1  0  0  0
 11 12  1  0  0  0
 11 45  1  0  0  0
 12 13  1  0  0  0
 12 17  2  0  0  0
 13 14  1  0  0  0
 13 46  1  0  0  0
 13 47  1  0  0  0
 14 15  1  0  0  0
 14 16  1  0  0  0
 14 48  1  0  0  0
 15 49  1  0  0  0
 15 50  1  0  0  0
 15 51  1  0  0  0
 16 52  1  0  0  0
 16 53  1  0  0  0
 16 54  1  0  0  0
 17 18  1  0  0  0
 17 55  1  0  0  0
 19 20  1  0  0  0
 19 56  1  0  0  0
 20 21  2  0  0  0
 21 22  1  0  0  0
 22 57  1  0  0  0
 22 58  1  0  0  0
 23 24  1  0  0  0
 23 59  1  0  0  0
 24 25  2  0  0  0
 24 60  1  0  0  0
 25 26  1  0  0  0
 26 27  1  0  0  0
 26 28  2  0  0  0
 27 61  1  0  0  0
 27 62  1  0  0  0
 29 30  2  0  0  0
 29 34  1  0  0  0
 30 31  1  0  0  0
 30 63  1  0  0  0
 31 32  2  0  0  0
 31 64  1  0  0  0
 32 33  1  0  0  0
 32 65  1  0  0  0
 33 34  2  0  0  0
 33 66  1  0  0  0
 34 35  1  0  0  0
 35 36  1  0  0  0
 35 37  1  0  0  0
 35 38  1  0  0  0
M  CHG  1  14   1
M  END
> <s_m_source_file>
../4a4x_ligand.sdf

> <i_m_source_file_index>
1

> <s_epik_input>
RkMoRikoRiljMVtjSF1bY0hdW2NIXVtjSF1jMVtDQEBIXShbQ0gzXSlPYzJbY0hdYyhbY0hdW2NIXWMyQyg9TylbTkgyXSktYzNbY0hdYyhbY0hdbmMzW05IMl0pLWM0W2NIXWMoW2NIXXM0KVtDSDJdW05IK10oW0NIM10pW0NIM10=

> <s_epik_cmdline>
J2VwaWtfYXBwJywgJy1pbWFlJywgJ2xpZ2FuZF9wcm8ubWFlJywgJy1vbWFlJywgJ2xpZ2FuZF9wcmVwLm1hZScsICctbXMnLCAnMScsICctcGgnLCAnNycsICctcGh0JywgJzAuNScsICctbnQn

> <r_lp_tautomer_probability>
1

> <r_epik_Ionization_Penalty>
  0.0335

> <r_epik_Ionization_Penalty_Charging>
  0.0119

> <r_epik_Ionization_Penalty_Neutral>
  0.0216

> <r_epik_State_Penalty>
 -0.0000

> <r_epik_Charging_Adjusted_Penalty>
0.0118664708722735

> <i_epik_Tot_Q>
1

> <i_epik_Tot_abs_Q>
1

$$$$
