4a50_ligand
                    3D
 Schrodinger Suite 2020-3.
 52 54  0  0  1  0            999 V2000
   17.0020    6.4490  -21.4200 C   0  0  0  0  0  0
   16.0530    7.3010  -22.2550 C   0  0  0  0  0  0
   14.8670    6.7420  -22.7280 C   0  0  0  0  0  0
   16.3840    8.6290  -22.5260 C   0  0  0  0  0  0
   15.5140    9.4030  -23.2900 C   0  0  0  0  0  0
   14.3190    8.8480  -23.7550 C   0  0  0  0  0  0
   13.9990    7.5070  -23.5030 C   0  0  0  0  0  0
   12.6600    6.9340  -24.0310 C   0  0  0  0  0  0
   12.6170    5.4500  -24.4310 C   0  0  0  0  0  0
   11.4160    4.7470  -24.3130 C   0  0  0  0  0  0
   11.3210    3.4100  -24.6990 C   0  0  0  0  0  0
   12.4380    2.7720  -25.2320 C   0  0  0  0  0  0
   13.6340    3.4760  -25.3700 C   0  0  0  0  0  0
   13.7200    4.8160  -24.9900 C   0  0  0  0  0  0
   11.6140    7.2090  -22.9450 C   0  0  0  0  0  0
   12.1320    6.7850  -21.5750 C   0  0  0  0  0  0
   11.0500    6.9250  -20.5150 C   0  0  1  0  0  0
   11.5590    6.2960  -19.1840 C   0  0  0  0  0  0
   11.6000    5.0320  -19.0960 O   0  5  0  0  0  0
   11.9420    7.0970  -18.2920 O   0  0  0  0  0  0
   10.7630    8.3670  -20.4110 N   0  3  0  0  0  0
   12.2230    7.6390  -25.3130 C   0  0  0  0  0  0
   13.0940    7.7000  -26.3980 C   0  0  0  0  0  0
   12.7160    8.3560  -27.5660 C   0  0  0  0  0  0
   11.4470    8.9160  -27.6500 C   0  0  0  0  0  0
   10.5640    8.8300  -26.5740 C   0  0  0  0  0  0
   10.9450    8.1840  -25.4010 C   0  0  0  0  0  0
   16.5843    5.4376  -21.3079 H   0  0  0  0  0  0
   17.1277    6.9059  -20.4273 H   0  0  0  0  0  0
   17.9788    6.3887  -21.9223 H   0  0  0  0  0  0
   14.6192    5.7072  -22.4915 H   0  0  0  0  0  0
   17.3118    9.0554  -22.1446 H   0  0  0  0  0  0
   15.7644   10.4377  -23.5243 H   0  0  0  0  0  0
   13.6248    9.4677  -24.3226 H   0  0  0  0  0  0
   10.5372    5.2521  -23.9121 H   0  0  0  0  0  0
   10.3813    2.8698  -24.5845 H   0  0  0  0  0  0
   12.3780    1.7281  -25.5397 H   0  0  0  0  0  0
   14.5109    2.9742  -25.7790 H   0  0  0  0  0  0
   14.6512    5.3647  -25.1315 H   0  0  0  0  0  0
   11.3852    8.2847  -22.9203 H   0  0  0  0  0  0
   10.6968    6.6441  -23.1678 H   0  0  0  0  0  0
   12.4534    5.7337  -21.6138 H   0  0  0  0  0  0
   12.9855    7.4192  -21.2933 H   0  0  0  0  0  0
   10.1029    6.4362  -20.7874 H   0  0  0  0  0  0
   10.4098    8.7416  -21.3831 H   0  0  0  0  0  0
   11.6790    8.9032  -20.1222 H   0  0  0  0  0  0
    9.9860    8.5322  -19.6501 H   0  0  0  0  0  0
   14.0762    7.2319  -26.3322 H   0  0  0  0  0  0
   13.4076    8.4296  -28.4053 H   0  0  0  0  0  0
   11.1397    9.4259  -28.5630 H   0  0  0  0  0  0
    9.5702    9.2709  -26.6518 H   0  0  0  0  0  0
   10.2522    8.1060  -24.5631 H   0  0  0  0  0  0
  1  2  1  0  0  0
  1 28  1  0  0  0
  1 29  1  0  0  0
  1 30  1  0  0  0
  2  3  2  0  0  0
  2  4  1  0  0  0
  3  7  1  0  0  0
  3 31  1  0  0  0
  4  5  2  0  0  0
  4 32  1  0  0  0
  5  6  1  0  0  0
  5 33  1  0  0  0
  6  7  2  0  0  0
  6 34  1  0  0  0
  7  8  1  0  0  0
  8  9  1  0  0  0
  8 15  1  0  0  0
  8 22  1  0  0  0
  9 10  2  0  0  0
  9 14  1  0  0  0
 10 11  1  0  0  0
 10 35  1  0  0  0
 11 12  2  0  0  0
 11 36  1  0  0  0
 12 13  1  0  0  0
 12 37  1  0  0  0
 13 14  2  0  0  0
 13 38  1  0  0  0
 14 39  1  0  0  0
 15 16  1  0  0  0
 15 40  1  0  0  0
 15 41  1  0  0  0
 16 17  1  0  0  0
 16 42  1  0  0  0
 16 43  1  0  0  0
 17 18  1  0  0  0
 17 21  1  0  0  0
 17 44  1  0  0  0
 18 19  1  0  0  0
 18 20  2  0  0  0
 21 45  1  0  0  0
 21 46  1  0  0  0
 21 47  1  0  0  0
 22 23  2  0  0  0
 22 27  1  0  0  0
 23 24  1  0  0  0
 23 48  1  0  0  0
 24 25  2  0  0  0
 24 49  1  0  0  0
 25 26  1  0  0  0
 25 50  1  0  0  0
 26 27  2  0  0  0
 26 51  1  0  0  0
 27 52  1  0  0  0
M  CHG  2  19  -1  21   1
M  END
> <s_m_source_file>
../4a50_ligand.sdf

> <i_m_source_file_index>
1

> <s_epik_input>
W2NIXTFbY0hdW2NIXVtjSF1bY0hdYzFDKGMoW2NIXWMyW0NIM10pW2NIXVtjSF1bY0hdMikoW0NIMl1bQ0gyXVtDQEhdKFtOSDMrXSlDKD1PKVtPSF0pYzNbY0hdW2NIXVtjSF1bY0hdW2NIXTM=

> <s_epik_cmdline>
J2VwaWtfYXBwJywgJy1pbWFlJywgJ2xpZ2FuZF9wcm8ubWFlJywgJy1vbWFlJywgJ2xpZ2FuZF9wcmVwLm1hZScsICctbXMnLCAnMScsICctcGgnLCAnNycsICctcGh0JywgJzAuNScsICctbnQn

> <r_lp_tautomer_probability>
1

> <r_epik_Ionization_Penalty>
  0.0016

> <r_epik_Ionization_Penalty_Charging>
  0.0016

> <r_epik_Ionization_Penalty_Neutral>
  0.0000

> <r_epik_State_Penalty>
 -0.0000

> <r_epik_Charging_Adjusted_Penalty>
0.00155323248631942

> <i_epik_Tot_Q>
0

> <i_epik_Tot_abs_Q>
2

$$$$
