4a6w_ligand
                    3D
 Schrodinger Suite 2020-3.
 23 24  0  0  1  0            999 V2000
   -1.9840   -0.4470    8.1340 C   0  0  0  0  0  0
    1.2690    0.3000    9.6770 O   0  0  0  0  0  0
   -3.8560   -1.2130    7.3880 C   0  0  0  0  0  0
   -4.1080   -0.7990    8.6510 C   0  0  0  0  0  0
   -0.5470   -0.1410    8.2650 C   0  0  0  0  0  0
   -5.3710   -0.8280    9.4480 C   0  0  0  0  0  0
   -5.6910    0.1970   10.3560 C   0  0  0  0  0  0
   -6.7860    0.1230   11.2020 C   0  0  0  0  0  0
   -7.4700   -1.0620   11.2050 C   0  0  0  0  0  0
   -2.6460   -0.9900    7.1670 N   0  0  0  0  0  0
   -7.1900   -2.1130   10.3470 C   0  0  0  0  0  0
   -6.1000   -2.0130    9.5260 C   0  0  0  0  0  0
   -0.0210    0.1010    9.5600 N   0  0  0  0  0  0
   -2.8260   -0.2970    9.1060 O   0  0  0  0  0  0
    0.2030   -0.2140    7.2920 O   0  0  0  0  0  0
   -4.7400    1.6060   10.4630 Cl  0  0  0  0  0  0
    1.7086    0.4904   10.6672 H   0  0  0  0  0  0
   -4.5714   -1.6563    6.6953 H   0  0  0  0  0  0
   -7.0857    0.9620   11.8300 H   0  0  0  0  0  0
   -8.2808   -1.1861   11.9228 H   0  0  0  0  0  0
   -7.8237   -2.9996   10.3264 H   0  0  0  0  0  0
   -5.7981   -2.8711    8.9254 H   0  0  0  0  0  0
   -0.6642    0.1243   10.4520 H   0  0  0  0  0  0
  1  5  1  0  0  0
  1 10  2  0  0  0
  1 14  1  0  0  0
  2 13  1  0  0  0
  2 17  1  0  0  0
  3  4  2  0  0  0
  3 10  1  0  0  0
  3 18  1  0  0  0
  4  6  1  0  0  0
  4 14  1  0  0  0
  5 13  1  0  0  0
  5 15  2  0  0  0
  6  7  2  0  0  0
  6 12  1  0  0  0
  7  8  1  0  0  0
  7 16  1  0  0  0
  8  9  2  0  0  0
  8 19  1  0  0  0
  9 11  1  0  0  0
  9 20  1  0  0  0
 11 12  2  0  0  0
 11 21  1  0  0  0
 12 22  1  0  0  0
 13 23  1  0  0  0
M  END
> <s_m_source_file>
../4a6w_ligand.sdf

> <i_m_source_file_index>
1

> <s_epik_input>
W09IXVtOSF1DKD1PKWMxbltjSF1jKG8xKS1jMmMoQ2wpW2NIXVtjSF1bY0hdW2NIXTI=

> <s_epik_cmdline>
J2VwaWtfYXBwJywgJy1pbWFlJywgJ2xpZ2FuZF9wcm8ubWFlJywgJy1vbWFlJywgJ2xpZ2FuZF9wcmVwLm1hZScsICctbXMnLCAnMScsICctcGgnLCAnNycsICctcGh0JywgJzAuNScsICctbnQn

> <r_epik_Ionization_Penalty>
  0.0147

> <r_epik_Ionization_Penalty_Charging>
  0.0000

> <r_epik_Ionization_Penalty_Neutral>
  0.0147

> <r_epik_State_Penalty>
  0.0110

> <r_epik_Charging_Adjusted_Penalty>
0.0110312881207525

> <i_epik_Tot_Q>
0

> <i_epik_Tot_abs_Q>
0

> <s_epik_Chemistry_Notes>
This compound has a N-S or N-O group and may undergo hydrolysis at high or low pH.

$$$$
