4a7c_ligand
                    3D
 Schrodinger Suite 2020-3.
 48 51  0  0  1  0            999 V2000
  -45.7690   -2.1330    2.1850 F   0  0  0  0  0  0
  -45.9770   -1.3950    1.1070 C   0  0  0  0  0  0
  -46.6310   -0.3020    1.4530 F   0  0  0  0  0  0
  -46.6500   -2.0170    0.1560 F   0  0  0  0  0  0
  -44.6990   -1.0480    0.6290 O   0  0  0  0  0  0
  -44.1440   -1.5640   -0.5060 C   0  0  0  0  0  0
  -42.8300   -1.9780   -0.4390 C   0  0  0  0  0  0
  -44.8400   -1.6370   -1.6970 C   0  0  0  0  0  0
  -44.1850   -2.1480   -2.8040 C   0  0  0  0  0  0
  -42.8610   -2.5620   -2.7090 C   0  0  0  0  0  0
  -42.1400   -2.4950   -1.5210 C   0  0  0  0  0  0
  -40.8720   -2.8880   -1.4370 N   0  0  0  0  0  0
  -40.2180   -3.4010   -2.5500 N   0  0  0  0  0  0
  -38.9420   -3.6920   -2.0310 N   0  0  0  0  0  0
  -38.9100   -3.3660   -0.7150 C   0  0  0  0  0  0
  -37.8960   -3.4630    0.2130 C   0  0  0  0  0  0
  -38.1230   -3.0500    1.5120 C   0  0  0  0  0  0
  -40.1400   -2.8490   -0.3240 C   0  0  0  0  0  0
  -40.3490   -2.4470    0.9570 N   0  0  0  0  0  0
  -39.3540   -2.5400    1.8830 C   0  0  0  0  0  0
  -39.4880   -2.1430    3.1760 N   0  0  0  0  0  0
  -40.7280   -1.6640    3.7530 C   0  0  0  0  0  0
  -41.6080   -2.8530    4.1150 C   0  0  0  0  0  0
  -42.5280   -2.4540    5.2740 C   0  0  0  0  0  0
  -40.7370   -4.0560    4.4920 C   0  0  0  0  0  0
  -41.5990   -5.2410    4.9270 C   0  0  0  0  0  0
  -42.9960   -4.8470    4.9880 N   0  3  0  0  0  0
  -43.3730   -3.6440    5.7230 C   0  0  0  0  0  0
  -42.3089   -1.8936    0.5146 H   0  0  0  0  0  0
  -45.8751   -1.3019   -1.7631 H   0  0  0  0  0  0
  -44.7102   -2.2264   -3.7559 H   0  0  0  0  0  0
  -42.3692   -2.9540   -3.5993 H   0  0  0  0  0  0
  -36.9234   -3.8620   -0.0750 H   0  0  0  0  0  0
  -37.3251   -3.1268    2.2506 H   0  0  0  0  0  0
  -38.5802   -2.2017    3.7944 H   0  0  0  0  0  0
  -40.5092   -1.0790    4.6585 H   0  0  0  0  0  0
  -41.2506   -1.0282    3.0231 H   0  0  0  0  0  0
  -42.2219   -3.1374    3.2477 H   0  0  0  0  0  0
  -41.9196   -2.1083    6.1227 H   0  0  0  0  0  0
  -43.1974   -1.6440    4.9487 H   0  0  0  0  0  0
  -40.1338   -4.3585    3.6233 H   0  0  0  0  0  0
  -40.0709   -3.7804    5.3228 H   0  0  0  0  0  0
  -41.4868   -6.0614    4.2029 H   0  0  0  0  0  0
  -41.2769   -5.5832    5.9216 H   0  0  0  0  0  0
  -43.3719   -4.6704    3.9694 H   0  0  0  0  0  0
  -43.5826   -5.6480    5.4616 H   0  0  0  0  0  0
  -43.2176   -3.8193    6.7978 H   0  0  0  0  0  0
  -44.4358   -3.4303    5.5363 H   0  0  0  0  0  0
  1  2  1  0  0  0
  2  3  1  0  0  0
  2  4  1  0  0  0
  2  5  1  0  0  0
  5  6  1  0  0  0
  6  7  2  0  0  0
  6  8  1  0  0  0
  7 11  1  0  0  0
  7 29  1  0  0  0
  8  9  2  0  0  0
  8 30  1  0  0  0
  9 10  1  0  0  0
  9 31  1  0  0  0
 10 11  2  0  0  0
 10 32  1  0  0  0
 11 12  1  0  0  0
 12 13  1  0  0  0
 12 18  1  0  0  0
 13 14  2  0  0  0
 14 15  1  0  0  0
 15 16  2  0  0  0
 15 18  1  0  0  0
 16 17  1  0  0  0
 16 33  1  0  0  0
 17 20  2  0  0  0
 17 34  1  0  0  0
 18 19  2  0  0  0
 19 20  1  0  0  0
 20 21  1  0  0  0
 21 22  1  0  0  0
 21 35  1  0  0  0
 22 23  1  0  0  0
 22 36  1  0  0  0
 22 37  1  0  0  0
 23 24  1  0  0  0
 23 25  1  0  0  0
 23 38  1  0  0  0
 24 28  1  0  0  0
 24 39  1  0  0  0
 24 40  1  0  0  0
 25 26  1  0  0  0
 25 41  1  0  0  0
 25 42  1  0  0  0
 26 27  1  0  0  0
 26 43  1  0  0  0
 26 44  1  0  0  0
 27 28  1  0  0  0
 27 45  1  0  0  0
 27 46  1  0  0  0
 28 47  1  0  0  0
 28 48  1  0  0  0
M  CHG  1  27   1
M  END
> <s_m_source_file>
../4a7c_ligand.sdf

> <i_m_source_file_index>
1

> <s_epik_input>
RkMoRikoRilPYzFbY0hdYyhbY0hdW2NIXVtjSF0xKS1uKG5uMiljKGMyMyluYyhbY0hdW2NIXTMpW05IXVtDSDJdW0NIXTRbQ0gyXVtDSDJdW05IMitdW0NIMl1bQ0gyXTQ=

> <s_epik_cmdline>
J2VwaWtfYXBwJywgJy1pbWFlJywgJ2xpZ2FuZF9wcm8ubWFlJywgJy1vbWFlJywgJ2xpZ2FuZF9wcmVwLm1hZScsICctbXMnLCAnMScsICctcGgnLCAnNycsICctcGh0JywgJzAuNScsICctbnQn

> <r_lp_tautomer_probability>
1

> <r_epik_Ionization_Penalty>
  0.0002

> <r_epik_Ionization_Penalty_Charging>
  0.0002

> <r_epik_Ionization_Penalty_Neutral>
  0.0001

> <r_epik_State_Penalty>
 -0.0000

> <r_epik_Charging_Adjusted_Penalty>
0.000193664150726695

> <i_epik_Tot_Q>
1

> <i_epik_Tot_abs_Q>
1

$$$$
