4a7i_ligand
                    3D
 Schrodinger Suite 2020-3.
 49 50  0  0  1  0            999 V2000
   48.8000    5.0580   57.9920 C   0  0  0  0  0  0
   47.9210    3.9930   58.6530 C   0  0  0  0  0  0
   48.6840    2.7400   58.7880 N   0  3  1  0  0  0
   47.9740    1.7030   59.5570 C   0  0  0  0  0  0
   46.5940    1.3730   58.9790 C   0  0  0  0  0  0
   47.8650    2.1050   61.0300 C   0  0  0  0  0  0
   49.0770    2.2100   57.4720 C   0  0  0  0  0  0
   50.0050    3.2140   56.7840 C   0  0  0  0  0  0
   49.3150    4.5720   56.6340 C   0  0  2  0  0  0
   50.2770    5.5330   56.0740 N   0  0  3  0  0  0
   49.5530    6.8010   55.3470 S   0  0  0  0  0  0
   48.1420    6.5140   54.9290 O   0  0  0  0  0  0
   49.6660    8.0690   56.1400 O   0  0  0  0  0  0
   50.5080    7.0700   53.8090 C   0  0  0  0  0  0
   50.0170    8.2340   52.9450 C   0  0  0  0  0  0
   48.7140    7.9160   52.3410 N   0  0  0  0  0  0
   47.5880    8.5030   52.7340 C   0  0  0  0  0  0
   47.5220    9.3430   53.6300 O   0  0  0  0  0  0
   46.3230    8.0600   51.9950 C   0  0  0  0  0  0
   46.2680    7.4030   50.8370 C   0  0  0  0  0  0
   45.0330    7.1270   50.4040 C   0  0  0  0  0  0
   44.0490    7.5540   51.1960 C   0  0  0  0  0  0
   42.3550    7.2980   50.9520 Cl  0  0  0  0  0  0
   44.7300    8.3470   52.5500 S   0  0  0  0  0  0
   48.2128    5.9758   57.8407 H   0  0  0  0  0  0
   49.6614    5.2765   58.6403 H   0  0  0  0  0  0
   47.6093    4.3413   59.6488 H   0  0  0  0  0  0
   47.0309    3.8149   58.0317 H   0  0  0  0  0  0
   49.5872    3.0026   59.3583 H   0  0  0  0  0  0
   48.6036    0.8067   59.4552 H   0  0  0  0  0  0
   46.6980    1.0876   57.9218 H   0  0  0  0  0  0
   45.9427    2.2559   59.0581 H   0  0  0  0  0  0
   46.1506    0.5386   59.5422 H   0  0  0  0  0  0
   48.8664    2.3367   61.4219 H   0  0  0  0  0  0
   47.4291    1.2749   61.6053 H   0  0  0  0  0  0
   47.2212    2.9922   61.1212 H   0  0  0  0  0  0
   49.6014    1.2521   57.6042 H   0  0  0  0  0  0
   48.1789    2.0544   56.8563 H   0  0  0  0  0  0
   50.9167    3.3426   57.3858 H   0  0  0  0  0  0
   50.2746    2.8395   55.7854 H   0  0  0  0  0  0
   48.4717    4.5060   55.9308 H   0  0  0  0  0  0
   51.3472    5.4416   56.3113 H   0  0  0  0  0  0
   51.5573    7.2827   54.0614 H   0  0  0  0  0  0
   50.4573    6.1668   53.1832 H   0  0  0  0  0  0
   49.9109    9.1341   53.5684 H   0  0  0  0  0  0
   50.7442    8.4274   52.1427 H   0  0  0  0  0  0
   48.6486    7.1698   51.5354 H   0  0  0  0  0  0
   47.1616    7.1126   50.2846 H   0  0  0  0  0  0
   44.8449    6.5927   49.4728 H   0  0  0  0  0  0
  1  2  1  0  0  0
  1  9  1  0  0  0
  1 25  1  0  0  0
  1 26  1  0  0  0
  2  3  1  0  0  0
  2 27  1  0  0  0
  2 28  1  0  0  0
  3  4  1  0  0  0
  3  7  1  0  0  0
  3 29  1  0  0  0
  4  5  1  0  0  0
  4  6  1  0  0  0
  4 30  1  0  0  0
  5 31  1  0  0  0
  5 32  1  0  0  0
  5 33  1  0  0  0
  6 34  1  0  0  0
  6 35  1  0  0  0
  6 36  1  0  0  0
  7  8  1  0  0  0
  7 37  1  0  0  0
  7 38  1  0  0  0
  8  9  1  0  0  0
  8 39  1  0  0  0
  8 40  1  0  0  0
  9 10  1  0  0  0
  9 41  1  0  0  0
 10 11  1  0  0  0
 10 42  1  0  0  0
 11 12  2  0  0  0
 11 13  2  0  0  0
 11 14  1  0  0  0
 14 15  1  0  0  0
 14 43  1  0  0  0
 14 44  1  0  0  0
 15 16  1  0  0  0
 15 45  1  0  0  0
 15 46  1  0  0  0
 16 17  1  0  0  0
 16 47  1  0  0  0
 17 18  2  0  0  0
 17 19  1  0  0  0
 19 20  2  0  0  0
 19 24  1  0  0  0
 20 21  1  0  0  0
 20 48  1  0  0  0
 21 22  2  0  0  0
 21 49  1  0  0  0
 22 23  1  0  0  0
 22 24  1  0  0  0
M  CHG  1   3   1
M  END
> <s_m_source_file>
../4a7i_ligand.sdf

> <i_m_source_file_index>
1

> <s_epik_input>
W0NIM11bQ0hdKFtDSDNdKVtOQEBIK10xW0NIMl1bQ0gyXVtDQEhdKFtDSDJdW0NIMl0xKVtOSF1TKD1PKSg9TylbQ0gyXVtDSDJdW05IXUMoPU8pYzJbY0hdW2NIXWMoQ2wpczI=

> <s_epik_cmdline>
J2VwaWtfYXBwJywgJy1pbWFlJywgJ2xpZ2FuZF9wcm8ubWFlJywgJy1vbWFlJywgJ2xpZ2FuZF9wcmVwLm1hZScsICctbXMnLCAnMScsICctcGgnLCAnNycsICctcGh0JywgJzAuNScsICctbnQn

> <r_lp_tautomer_probability>
1

> <r_epik_Ionization_Penalty>
  0.0039

> <r_epik_Ionization_Penalty_Charging>
  0.0038

> <r_epik_Ionization_Penalty_Neutral>
  0.0001

> <r_epik_State_Penalty>
 -0.0000

> <r_epik_Charging_Adjusted_Penalty>
0.00384790185633554

> <i_epik_Tot_Q>
1

> <i_epik_Tot_abs_Q>
1

$$$$
