4aj7_ligand
                    3D
 Schrodinger Suite 2020-3.
114113  0  0  1  0            999 V2000
   -7.2080   16.7500   27.7920 N   0  3  0  0  0  0
   -6.5850   16.2920   26.5250 C   0  0  2  0  0  0
   -5.0760   16.1840   26.6920 C   0  0  0  0  0  0
   -4.5400   16.3480   27.7840 O   0  0  0  0  0  0
   -6.9160   17.2740   25.3880 C   0  0  0  0  0  0
   -4.4000   15.8910   25.5820 N   0  0  0  0  0  0
   -2.9540   15.7750   25.5330 C   0  0  1  0  0  0
   -2.5520   15.5480   24.0820 C   0  0  0  0  0  0
   -1.0630   15.5080   23.8280 C   0  0  0  0  0  0
   -0.7780   15.4510   22.3160 C   0  0  0  0  0  0
   -1.3110   14.2630   21.6450 N   0  0  1  0  0  0
   -0.5150   13.1960   21.4340 C   0  0  2  0  0  0
    0.7490   13.2400   21.8500 N   0  3  0  0  0  0
    1.6430   12.0960   21.6170 C   0  0  0  0  0  0
   -0.9870   12.1530   20.7740 N   0  0  1  0  0  0
   -2.3440   12.1070   20.3150 C   0  0  0  0  0  0
   -2.2790   17.0710   26.0460 C   0  0  0  0  0  0
   -1.1310   17.0420   26.4980 O   0  0  0  0  0  0
   -3.0030   18.1870   25.9710 N   0  0  0  0  0  0
   -2.4790   19.4880   26.3950 C   0  0  2  0  0  0
   -2.3490   19.6790   27.9020 C   0  0  0  0  0  0
   -1.8180   20.6830   28.3680 O   0  0  0  0  0  0
   -3.3360   20.6260   25.8230 C   0  0  2  0  0  0
   -4.6940   20.4660   26.2520 O   0  0  0  0  0  0
   -3.2840   20.5970   24.2980 C   0  0  0  0  0  0
   -2.8450   18.7160   28.6700 N   0  0  0  0  0  0
   -2.7350   18.7720   30.1210 C   0  0  2  0  0  0
   -1.9390   17.5650   30.5880 C   0  0  0  0  0  0
   -1.9260   16.5180   29.9220 O   0  0  0  0  0  0
   -4.1180   18.7600   30.7790 C   0  0  0  0  0  0
   -4.9480   19.9980   30.5220 C   0  0  0  0  0  0
   -6.2970   19.8740   31.2270 C   0  0  0  0  0  0
   -7.0980   21.1630   31.1560 C   0  0  0  0  0  0
   -8.4530   21.0100   31.7460 N   0  3  0  0  0  0
   -1.2780   17.7110   31.7290 N   0  0  0  0  0  0
   -0.4630   16.6460   32.2790 C   0  0  2  0  0  0
   -1.3090   15.6160   33.0050 C   0  0  0  0  0  0
   -2.0930   15.9560   33.8840 O   0  0  0  0  0  0
    0.5710   17.2320   33.2320 C   0  0  0  0  0  0
    1.5240   16.2230   33.8360 C   0  0  0  0  0  0
    2.4040   16.8290   34.9230 C   0  0  0  0  0  0
    2.6440   18.0460   34.9520 O   0  0  0  0  0  0
    2.9030   15.9800   35.8170 N   0  0  0  0  0  0
   -1.1450   14.3560   32.6260 N   0  0  0  0  0  0
   -1.8740   13.2550   33.2350 C   0  0  2  0  0  0
   -0.9300   12.2330   33.8610 C   0  0  0  0  0  0
    0.2920   12.4740   33.8430 O   0  0  0  0  0  0
   -2.7650   12.5180   32.2070 C   0  0  2  0  0  0
   -2.3370   12.8540   30.8780 O   0  0  0  0  0  0
   -4.2230   12.9050   32.4010 C   0  0  0  0  0  0
   -1.4290   11.2100   34.3640 N   0  0  0  0  0  0
   -6.9650   16.0411   28.5973 H   0  0  0  0  0  0
   -8.2995   16.8018   27.6661 H   0  0  0  0  0  0
   -6.8211   17.7465   28.0516 H   0  0  0  0  0  0
   -6.9994   15.2975   26.3032 H   0  0  0  0  0  0
   -8.0075   17.3472   25.2729 H   0  0  0  0  0  0
   -6.4718   16.9113   24.4493 H   0  0  0  0  0  0
   -6.5054   18.2657   25.6288 H   0  0  0  0  0  0
   -4.9955   15.7342   24.6706 H   0  0  0  0  0  0
   -2.6881   14.9212   26.1735 H   0  0  0  0  0  0
   -2.9555   14.5849   23.7361 H   0  0  0  0  0  0
   -2.9552   16.3596   23.4585 H   0  0  0  0  0  0
   -0.5952   16.4111   24.2470 H   0  0  0  0  0  0
   -0.6330   14.6163   24.3075 H   0  0  0  0  0  0
   -1.2281   16.3263   21.8248 H   0  0  0  0  0  0
    0.3090   15.4545   22.1474 H   0  0  0  0  0  0
   -2.1506   13.8578   22.2289 H   0  0  0  0  0  0
   -0.4569   12.2078   21.9136 H   0  0  0  0  0  0
    1.2653   14.0820   21.3657 H   0  0  0  0  0  0
    0.7713   13.3751   22.9414 H   0  0  0  0  0  0
    2.6384   12.3187   22.0289 H   0  0  0  0  0  0
    1.7267   11.9103   20.5360 H   0  0  0  0  0  0
    1.2327   11.2033   22.1117 H   0  0  0  0  0  0
   -0.4060   12.0096   19.8510 H   0  0  0  0  0  0
   -2.5227   11.1550   19.7937 H   0  0  0  0  0  0
   -2.5258   12.9432   19.6239 H   0  0  0  0  0  0
   -3.0249   12.1875   21.1752 H   0  0  0  0  0  0
   -4.0262   18.1088   25.5748 H   0  0  0  0  0  0
   -1.4609   19.4652   25.9791 H   0  0  0  0  0  0
   -3.0058   21.6019   26.2084 H   0  0  0  0  0  0
   -4.9347   20.4609   27.3253 H   0  0  0  0  0  0
   -2.2430   20.7195   23.9642 H   0  0  0  0  0  0
   -3.8973   21.4162   23.8946 H   0  0  0  0  0  0
   -3.6742   19.6343   23.9361 H   0  0  0  0  0  0
   -3.3470   17.8636   28.1890 H   0  0  0  0  0  0
   -2.2202   19.7138   30.3618 H   0  0  0  0  0  0
   -4.6964   17.9041   30.4011 H   0  0  0  0  0  0
   -4.0044   18.6729   31.8696 H   0  0  0  0  0  0
   -4.4173   20.8815   30.9064 H   0  0  0  0  0  0
   -5.1127   20.1110   29.4403 H   0  0  0  0  0  0
   -6.8872   19.0767   30.7516 H   0  0  0  0  0  0
   -6.1356   19.6284   32.2870 H   0  0  0  0  0  0
   -6.5700   21.9537   31.7092 H   0  0  0  0  0  0
   -7.2135   21.4655   30.1047 H   0  0  0  0  0  0
   -8.9947   21.9646   31.6728 H   0  0  0  0  0  0
   -8.3620   20.7202   32.8032 H   0  0  0  0  0  0
   -9.0055   20.2320   31.1988 H   0  0  0  0  0  0
   -1.3603   18.6708   32.2600 H   0  0  0  0  0  0
    0.0183   16.1693   31.4123 H   0  0  0  0  0  0
    1.1879   17.9683   32.6960 H   0  0  0  0  0  0
    0.0584   17.7247   34.0713 H   0  0  0  0  0  0
    0.9496   15.3995   34.2854 H   0  0  0  0  0  0
    2.1826   15.8246   33.0502 H   0  0  0  0  0  0
    2.6628   14.9085   35.7518 H   0  0  0  0  0  0
    3.5559   16.3493   36.6216 H   0  0  0  0  0  0
   -0.4249   14.1588   31.8182 H   0  0  0  0  0  0
   -2.4724   13.7585   34.0086 H   0  0  0  0  0  0
   -2.6610   11.4259   32.2870 H   0  0  0  0  0  0
   -1.3045   12.6428   30.5628 H   0  0  0  0  0  0
   -4.5392   12.6431   33.4215 H   0  0  0  0  0  0
   -4.8459   12.3636   31.6738 H   0  0  0  0  0  0
   -4.3383   13.9882   32.2480 H   0  0  0  0  0  0
   -2.5189   11.0627   34.3438 H   0  0  0  0  0  0
   -0.7802   10.4530   34.8288 H   0  0  0  0  0  0
  1  2  1  0  0  0
  1 52  1  0  0  0
  1 53  1  0  0  0
  1 54  1  0  0  0
  2  3  1  0  0  0
  2  5  1  0  0  0
  2 55  1  0  0  0
  3  4  2  0  0  0
  3  6  1  0  0  0
  5 56  1  0  0  0
  5 57  1  0  0  0
  5 58  1  0  0  0
  6  7  1  0  0  0
  6 59  1  0  0  0
  7  8  1  0  0  0
  7 17  1  0  0  0
  7 60  1  0  0  0
  8  9  1  0  0  0
  8 61  1  0  0  0
  8 62  1  0  0  0
  9 10  1  0  0  0
  9 63  1  0  0  0
  9 64  1  0  0  0
 10 11  1  0  0  0
 10 65  1  0  0  0
 10 66  1  0  0  0
 11 12  1  0  0  0
 11 67  1  0  0  0
 12 13  1  0  0  0
 12 15  1  0  0  0
 12 68  1  0  0  0
 13 14  1  0  0  0
 13 69  1  0  0  0
 13 70  1  0  0  0
 14 71  1  0  0  0
 14 72  1  0  0  0
 14 73  1  0  0  0
 15 16  1  0  0  0
 15 74  1  0  0  0
 16 75  1  0  0  0
 16 76  1  0  0  0
 16 77  1  0  0  0
 17 18  2  0  0  0
 17 19  1  0  0  0
 19 20  1  0  0  0
 19 78  1  0  0  0
 20 21  1  0  0  0
 20 23  1  0  0  0
 20 79  1  0  0  0
 21 22  2  0  0  0
 21 26  1  0  0  0
 23 24  1  0  0  0
 23 25  1  0  0  0
 23 80  1  0  0  0
 24 81  1  0  0  0
 25 82  1  0  0  0
 25 83  1  0  0  0
 25 84  1  0  0  0
 26 27  1  0  0  0
 26 85  1  0  0  0
 27 28  1  0  0  0
 27 30  1  0  0  0
 27 86  1  0  0  0
 28 29  2  0  0  0
 28 35  1  0  0  0
 30 31  1  0  0  0
 30 87  1  0  0  0
 30 88  1  0  0  0
 31 32  1  0  0  0
 31 89  1  0  0  0
 31 90  1  0  0  0
 32 33  1  0  0  0
 32 91  1  0  0  0
 32 92  1  0  0  0
 33 34  1  0  0  0
 33 93  1  0  0  0
 33 94  1  0  0  0
 34 95  1  0  0  0
 34 96  1  0  0  0
 34 97  1  0  0  0
 35 36  1  0  0  0
 35 98  1  0  0  0
 36 37  1  0  0  0
 36 39  1  0  0  0
 36 99  1  0  0  0
 37 38  2  0  0  0
 37 44  1  0  0  0
 39 40  1  0  0  0
 39100  1  0  0  0
 39101  1  0  0  0
 40 41  1  0  0  0
 40102  1  0  0  0
 40103  1  0  0  0
 41 42  2  0  0  0
 41 43  1  0  0  0
 43104  1  0  0  0
 43105  1  0  0  0
 44 45  1  0  0  0
 44106  1  0  0  0
 45 46  1  0  0  0
 45 48  1  0  0  0
 45107  1  0  0  0
 46 47  2  0  0  0
 46 51  1  0  0  0
 48 49  1  0  0  0
 48 50  1  0  0  0
 48108  1  0  0  0
 49109  1  0  0  0
 50110  1  0  0  0
 50111  1  0  0  0
 50112  1  0  0  0
 51113  1  0  0  0
 51114  1  0  0  0
M  CHG  3   1   1  13   1  34   1
M  END
> <i_m_stars>
0

> <s_m_entry_id>
25

> <s_m_entry_name>
Structure25

> <s_pdb_PDB_TITLE>
4a7j_protein

> <s_pdb_PDB_format_version>
3.0

> <s_m_Source_Path>
/disk1/aquila/PDBbind2020/fail/4a7j

> <s_m_Source_File>
4a7j_protein.pdb

> <i_m_Source_File_Index>
1

> <s_ppw_entry_id_backup>
23

> <b_ppw_prepared>
1

> <s_ppw_prepared_with_version>
2020-2

> <b_ppw_assigned_bond_orders>
1

> <b_ppw_added_hydrogens>
1

> <b_ppw_treated_metals>
1

> <b_ppw_created_disulfur>
1

> <s_ppw_het_states>
eJztmEFv00AQhf/KKldS45ldrz3pjRNXxBH1EJWeCAmHcEBV/zvecZwvMUiAkFAkNqfXL67f83T2yerzSlab8GH8pDykdZCHdSiyW4f2JDOyRw5IO0trkYJUZEQmJG6Gm+FmuNnZrW9bpCAVGZEJ2SEzskcOSNwEN8FNcBPcBDfBTXCTfh51L7gJboqb4qa4KW6Km+KmuCnPprgpbhG3iFvELeIW3a3o08pM23KxONPOXIMBkB2MkfQKGFdYAWWXhLWaNuoS+N9/BuJXKEAdREB0wIqbRzeimye1vAREN09qPWBwcI7ukaZt1CugXKEOIiA6SEuQAclBx00ncGGbHfRLMADKTH2H57XzYCJLQLDy3bTgegW4qXhSIbp4MOkAnQOeRTzYYv2nzZ+BJ9V2CRihelJlyCfATdWHrDyLelIlqXpSZaYnQNJyu+m8zMCTqi1AZITqScth0iuAbfQRRl0CTzoSa3RIY6jnl3W4y+WHZHzGL1bvj9vjU/jytN/ujt82/gvh0+N29/rzYXcf3t69Oew/hsfD1/1xE/Q+vNuEV7ry03pDDT8fn9rwteFrw9eG/48avm2s6/LU8Nq0KaUfS328Jv+q1OPNlfrPX9vnc1RLvZZ6LfVa6rXUf7vU56Kub+q11Gup11Kvpf5PS12awcr6l1KXRtoy8mWpS2Ptn/375RZKvb6p11KvpV5LvZb635T6w8t3CyYmUQ==

> <i_pdb_PDB_Model>
1

> <s_m_source_file>
../4a7j_ligand.sdf

> <i_m_source_file_index>
1

> <s_epik_input>
W0NIM11bTkgyK11bQ0BIXShbTkhdW0NIM10pW05IXVtDSDJdW0NIMl1bQ0gyXVtDQEhdKFtOSF1DKD1PKVtDQEBIXShbTkgzK10pW0NIM10pQyg9TylbTkhdW0NAQEhdKFtDQEhdKFtPSF0pW0NIM10pQyg9TylbTkhdW0NAQEhdKFtDSDJdW0NIMl1bQ0gyXVtDSDJdW05IMytdKUMoPU8pW05IXVtDQEBIXShbQ0gyXVtDSDJdQyg9TylbTkgyXSlDKD1PKVtOSF1bQ0BIXShDKD1PKVtOSDJdKVtDQEhdKFtPSF0pW0NIM10=

> <s_epik_cmdline>
J2VwaWtfYXBwJywgJy1pbWFlJywgJ2xpZ2FuZF9wcm8ubWFlJywgJy1vbWFlJywgJ2xpZ2FuZF9wcmVwLm1hZScsICctbXMnLCAnMScsICctcGgnLCAnNycsICctcGh0JywgJzAuNScsICctbnQn

> <r_epik_Ionization_Penalty>
  0.1207

> <r_epik_Ionization_Penalty_Charging>
  0.1207

> <r_epik_Ionization_Penalty_Neutral>
  0.0000

> <r_epik_State_Penalty>
  0.1097

> <r_epik_Charging_Adjusted_Penalty>
0.230401097495094

> <i_epik_Tot_Q>
3

> <i_epik_Tot_abs_Q>
3

> <s_epik_Chemistry_Notes>
This compound contains an acetal/aminal-like group ( X-CH(R)-Y where X, Y are N, S, or O) that may be acid/base labile, releasing an aldehyde.

$$$$
