4a95_ligand
                    3D
 Schrodinger Suite 2020-3.
 44 45  0  0  1  0            999 V2000
   20.2020   43.9940   62.3900 N   0  0  0  0  0  0
   21.2520   44.4240   62.7060 C   0  0  0  0  0  0
   22.5770   44.8910   63.1320 C   0  0  0  0  0  0
   23.3900   45.2490   61.8820 C   0  0  0  0  0  0
   22.7660   46.6960   61.0630 S   0  0  0  0  0  0
   22.6820   47.9280   62.2940 C   0  0  0  0  0  0
   23.8070   48.3070   63.0210 C   0  0  0  0  0  0
   25.0760   47.7990   62.6560 C   0  0  0  0  0  0
   26.1620   48.2420   63.3960 C   0  0  0  0  0  0
   27.4280   47.7520   63.0860 O   0  0  0  0  0  0
   27.6070   47.0610   61.8120 C   0  0  0  0  0  0
   25.9690   49.0960   64.4850 C   0  0  0  0  0  0
   24.7430   49.6430   64.8330 C   0  0  0  0  0  0
   23.6490   49.1810   64.0880 C   0  0  0  0  0  0
   22.4390   49.6670   64.4570 N   0  0  0  0  0  0
   21.3210   49.3590   63.7740 C   0  0  0  0  0  0
   20.0350   50.0070   64.2950 C   0  0  0  0  0  0
   21.4430   48.4510   62.6850 C   0  0  0  0  0  0
   20.2980   47.9820   61.7960 C   0  0  0  0  0  0
   18.9150   47.8120   62.3180 C   0  0  0  0  0  0
   17.8540   48.0460   61.2530 C   0  0  0  0  0  0
   17.1470   49.3710   61.4630 C   0  0  0  0  0  0
   22.4645   45.7772   63.7739 H   0  0  0  0  0  0
   23.0838   44.0929   63.6943 H   0  0  0  0  0  0
   24.4345   45.4430   62.1671 H   0  0  0  0  0  0
   23.3540   44.4121   61.1690 H   0  0  0  0  0  0
   25.1943   47.0938   61.8333 H   0  0  0  0  0  0
   28.6535   46.7364   61.7148 H   0  0  0  0  0  0
   27.3566   47.7434   60.9864 H   0  0  0  0  0  0
   26.9457   46.1827   61.7752 H   0  0  0  0  0  0
   26.8344   49.3475   65.0981 H   0  0  0  0  0  0
   24.6375   50.3798   65.6293 H   0  0  0  0  0  0
   20.2729   50.6600   65.1477 H   0  0  0  0  0  0
   19.3341   49.2230   64.6178 H   0  0  0  0  0  0
   19.5743   50.6034   63.4937 H   0  0  0  0  0  0
   20.1626   48.6924   60.9672 H   0  0  0  0  0  0
   20.5323   46.9865   61.3910 H   0  0  0  0  0  0
   18.7903   46.7877   62.6992 H   0  0  0  0  0  0
   18.7396   48.5302   63.1325 H   0  0  0  0  0  0
   18.3270   48.0548   60.2599 H   0  0  0  0  0  0
   17.1070   47.2397   61.2962 H   0  0  0  0  0  0
   16.3881   49.5100   60.6789 H   0  0  0  0  0  0
   17.8800   50.1897   61.4131 H   0  0  0  0  0  0
   16.6600   49.3745   62.4493 H   0  0  0  0  0  0
  1  2  3  0  0  0
  2  3  1  0  0  0
  3  4  1  0  0  0
  3 23  1  0  0  0
  3 24  1  0  0  0
  4  5  1  0  0  0
  4 25  1  0  0  0
  4 26  1  0  0  0
  5  6  1  0  0  0
  6  7  2  0  0  0
  6 18  1  0  0  0
  7  8  1  0  0  0
  7 14  1  0  0  0
  8  9  2  0  0  0
  8 27  1  0  0  0
  9 10  1  0  0  0
  9 12  1  0  0  0
 10 11  1  0  0  0
 11 28  1  0  0  0
 11 29  1  0  0  0
 11 30  1  0  0  0
 12 13  2  0  0  0
 12 31  1  0  0  0
 13 14  1  0  0  0
 13 32  1  0  0  0
 14 15  2  0  0  0
 15 16  1  0  0  0
 16 17  1  0  0  0
 16 18  2  0  0  0
 17 33  1  0  0  0
 17 34  1  0  0  0
 17 35  1  0  0  0
 18 19  1  0  0  0
 19 20  1  0  0  0
 19 36  1  0  0  0
 19 37  1  0  0  0
 20 21  1  0  0  0
 20 38  1  0  0  0
 20 39  1  0  0  0
 21 22  1  0  0  0
 21 40  1  0  0  0
 21 41  1  0  0  0
 22 42  1  0  0  0
 22 43  1  0  0  0
 22 44  1  0  0  0
M  END
> <s_m_source_file>
../4a95_ligand.sdf

> <i_m_source_file_index>
1

> <s_epik_input>
TiNDW0NIMl1bQ0gyXVNjMWMoW0NIMl1bQ0gyXVtDSDJdW0NIM10pYyhbQ0gzXSluYyhjMTIpW2NIXVtjSF1jKFtjSF0yKU9bQ0gzXQ==

> <s_epik_cmdline>
J2VwaWtfYXBwJywgJy1pbWFlJywgJ2xpZ2FuZF9wcm8ubWFlJywgJy1vbWFlJywgJ2xpZ2FuZF9wcmVwLm1hZScsICctbXMnLCAnMScsICctcGgnLCAnNycsICctcGh0JywgJzAuNScsICctbnQn

> <r_epik_Ionization_Penalty>
  0.0402

> <r_epik_Ionization_Penalty_Charging>
  0.0000

> <r_epik_Ionization_Penalty_Neutral>
  0.0402

> <r_epik_State_Penalty>
  0.0338

> <r_epik_Charging_Adjusted_Penalty>
0.0338168579921995

> <i_epik_Tot_Q>
0

> <i_epik_Tot_abs_Q>
0

$$$$
