4a9i_ligand
                    3D
 Schrodinger Suite 2020-3.
 30 32  0  0  1  0            999 V2000
   21.1960    8.2980   -8.4330 O   0  0  0  0  0  0
   20.0390    8.6830   -8.3300 C   0  0  0  0  0  0
   19.2650    8.4230   -7.0690 C   0  0  0  0  0  0
   19.3460    9.4180   -9.3820 C   0  0  0  0  0  0
   20.0200    9.8410  -10.5540 N   0  0  0  0  0  0
   21.3380    9.6790  -10.9620 C   0  0  0  0  0  0
   21.7320   10.2070  -12.1810 C   0  0  0  0  0  0
   20.8060   10.8790  -12.9710 C   0  0  0  0  0  0
   19.5050   11.0430  -12.5840 C   0  0  0  0  0  0
   19.0860   10.5220  -11.3440 C   0  0  0  0  0  0
   17.8610   10.5490  -10.6860 C   0  0  0  0  0  0
   18.0310    9.8490   -9.4880 C   0  0  0  0  0  0
   16.5690   11.1380  -11.1800 C   0  0  0  0  0  0
   15.4400   10.6000  -10.6820 N   0  0  0  0  0  0
   14.2650   11.0920  -11.1220 C   0  0  0  0  0  0
   14.1660   12.0990  -12.0650 C   0  0  0  0  0  0
   15.3290   12.6350  -12.5780 C   0  0  0  0  0  0
   16.5530   12.1480  -12.1330 C   0  0  0  0  0  0
   19.8949    7.8649   -6.3606 H   0  0  0  0  0  0
   18.3672    7.8329   -7.3050 H   0  0  0  0  0  0
   18.9662    9.3808   -6.6181 H   0  0  0  0  0  0
   22.0507    9.1452  -10.3334 H   0  0  0  0  0  0
   22.7624   10.0961  -12.5188 H   0  0  0  0  0  0
   21.1274   11.2879  -13.9289 H   0  0  0  0  0  0
   18.8005   11.5705  -13.2271 H   0  0  0  0  0  0
   17.2497    9.6691   -8.7495 H   0  0  0  0  0  0
   13.3447   10.6746  -10.7134 H   0  0  0  0  0  0
   13.1921   12.4605  -12.3950 H   0  0  0  0  0  0
   15.2889   13.4300  -13.3226 H   0  0  0  0  0  0
   17.4856   12.5527  -12.5261 H   0  0  0  0  0  0
  1  2  2  0  0  0
  2  3  1  0  0  0
  2  4  1  0  0  0
  3 19  1  0  0  0
  3 20  1  0  0  0
  3 21  1  0  0  0
  4  5  1  0  0  0
  4 12  2  0  0  0
  5  6  1  0  0  0
  5 10  1  0  0  0
  6  7  2  0  0  0
  6 22  1  0  0  0
  7  8  1  0  0  0
  7 23  1  0  0  0
  8  9  2  0  0  0
  8 24  1  0  0  0
  9 10  1  0  0  0
  9 25  1  0  0  0
 10 11  2  0  0  0
 11 12  1  0  0  0
 11 13  1  0  0  0
 12 26  1  0  0  0
 13 14  2  0  0  0
 13 18  1  0  0  0
 14 15  1  0  0  0
 15 16  2  0  0  0
 15 27  1  0  0  0
 16 17  1  0  0  0
 16 28  1  0  0  0
 17 18  2  0  0  0
 17 29  1  0  0  0
 18 30  1  0  0  0
M  END
> <s_m_source_file>
../4a9i_ligand.sdf

> <i_m_source_file_index>
1

> <s_epik_input>
W2NIXTFbY0hdW2NIXVtjSF1jKG4xMiljKFtjSF1jMkMoPU8pW0NIM10pLWMzbltjSF1bY0hdW2NIXVtjSF0z

> <s_epik_cmdline>
J2VwaWtfYXBwJywgJy1pbWFlJywgJ2xpZ2FuZF9wcm8ubWFlJywgJy1vbWFlJywgJ2xpZ2FuZF9wcmVwLm1hZScsICctbXMnLCAnMScsICctcGgnLCAnNycsICctcGh0JywgJzAuNScsICctbnQn

> <r_lp_tautomer_probability>
1

> <r_epik_Ionization_Penalty>
  0.0022

> <r_epik_Ionization_Penalty_Charging>
  0.0000

> <r_epik_Ionization_Penalty_Neutral>
  0.0022

> <r_epik_State_Penalty>
 -0.0000

> <r_epik_Charging_Adjusted_Penalty>
0

> <i_epik_Tot_Q>
0

> <i_epik_Tot_abs_Q>
0

$$$$
