4a9m_ligand
                    3D
 Schrodinger Suite 2020-3.
 45 47  0  0  1  0            999 V2000
   21.1020   12.6740  -12.7700 O   0  0  0  0  0  0
   19.6900   12.8060  -12.9660 S   0  0  0  0  0  0
   19.1180   12.4780  -14.2450 O   0  0  0  0  0  0
   19.3260   14.3290  -12.6780 N   0  0  3  0  0  0
   19.7060   14.8620  -11.3620 C   0  0  0  0  0  0
   20.4260   16.1850  -11.5540 C   0  0  0  0  0  0
   20.2630   16.8790  -10.2280 C   0  0  0  0  0  0
   18.9040   16.4300   -9.7270 C   0  0  0  0  0  0
   18.4530   15.2740  -10.6000 C   0  0  0  0  0  0
   18.8950   11.7690  -11.7550 C   0  0  0  0  0  0
   17.5020   11.7520  -11.5850 C   0  0  0  0  0  0
   16.5300   12.5950  -12.3890 C   0  0  0  0  0  0
   16.9970   10.8860  -10.6040 C   0  0  0  0  0  0
   17.8240   10.0720   -9.8240 C   0  0  0  0  0  0
   19.7170   10.9690  -10.9760 C   0  0  0  0  0  0
   19.2050   10.1120  -10.0120 C   0  0  0  0  0  0
   20.1280    9.2710   -9.2000 C   0  0  0  0  0  0
   20.0480    8.9300   -7.8340 C   0  0  0  0  0  0
   19.0070    9.2850   -6.8150 C   0  0  0  0  0  0
   21.2640    8.6810   -9.6490 C   0  0  0  0  0  0
   21.9780    8.6200  -10.9720 C   0  0  0  0  0  0
   21.8620    8.0190   -8.6390 O   0  0  0  0  0  0
   21.0610    8.1840   -7.4760 N   0  0  0  0  0  0
   18.6751   14.9164  -13.3422 H   0  0  0  0  0  0
   20.3025   14.0767  -10.8746 H   0  0  0  0  0  0
   21.4819   15.9958  -11.7974 H   0  0  0  0  0  0
   19.9545   16.7431  -12.3763 H   0  0  0  0  0  0
   21.0722   16.5695   -9.5502 H   0  0  0  0  0  0
   20.3055   17.9681  -10.3765 H   0  0  0  0  0  0
   18.9876   16.1089   -8.6782 H   0  0  0  0  0  0
   18.1922   17.2656   -9.7990 H   0  0  0  0  0  0
   17.6732   15.5782  -11.3137 H   0  0  0  0  0  0
   18.0915   14.4244  -10.0021 H   0  0  0  0  0  0
   17.0881   13.2121  -13.1085 H   0  0  0  0  0  0
   15.9616   13.2473  -11.7097 H   0  0  0  0  0  0
   15.8356   11.9367  -12.9316 H   0  0  0  0  0  0
   15.9196   10.8461  -10.4437 H   0  0  0  0  0  0
   17.3917    9.4102   -9.0735 H   0  0  0  0  0  0
   20.7958   11.0145  -11.1250 H   0  0  0  0  0  0
   18.2342    9.9121   -7.2835 H   0  0  0  0  0  0
   19.4767    9.8382   -5.9884 H   0  0  0  0  0  0
   18.5464    8.3651   -6.4256 H   0  0  0  0  0  0
   21.4092    9.1890  -11.7222 H   0  0  0  0  0  0
   22.0638    7.5718  -11.2943 H   0  0  0  0  0  0
   22.9830    9.0547  -10.8666 H   0  0  0  0  0  0
  1  2  2  0  0  0
  2  3  2  0  0  0
  2  4  1  0  0  0
  2 10  1  0  0  0
  4  5  1  0  0  0
  4 24  1  0  0  0
  5  6  1  0  0  0
  5  9  1  0  0  0
  5 25  1  0  0  0
  6  7  1  0  0  0
  6 26  1  0  0  0
  6 27  1  0  0  0
  7  8  1  0  0  0
  7 28  1  0  0  0
  7 29  1  0  0  0
  8  9  1  0  0  0
  8 30  1  0  0  0
  8 31  1  0  0  0
  9 32  1  0  0  0
  9 33  1  0  0  0
 10 11  2  0  0  0
 10 15  1  0  0  0
 11 12  1  0  0  0
 11 13  1  0  0  0
 12 34  1  0  0  0
 12 35  1  0  0  0
 12 36  1  0  0  0
 13 14  2  0  0  0
 13 37  1  0  0  0
 14 16  1  0  0  0
 14 38  1  0  0  0
 15 16  2  0  0  0
 15 39  1  0  0  0
 16 17  1  0  0  0
 17 18  1  0  0  0
 17 20  2  0  0  0
 18 19  1  0  0  0
 18 23  2  0  0  0
 19 40  1  0  0  0
 19 41  1  0  0  0
 19 42  1  0  0  0
 20 21  1  0  0  0
 20 22  1  0  0  0
 21 43  1  0  0  0
 21 44  1  0  0  0
 21 45  1  0  0  0
 22 23  1  0  0  0
M  END
> <s_m_source_file>
../4a9m_ligand.sdf

> <i_m_source_file_index>
1

> <s_epik_input>
W0NIMl0xW0NIMl1bQ0gyXVtDSDJdW0NIXTFbTkhdUyg9TykoPU8pYzJjKFtDSDNdKVtjSF1bY0hdYyhbY0hdMiktYzNjKFtDSDNdKW5vYzNbQ0gzXQ==

> <s_epik_cmdline>
J2VwaWtfYXBwJywgJy1pbWFlJywgJ2xpZ2FuZF9wcm8ubWFlJywgJy1vbWFlJywgJ2xpZ2FuZF9wcmVwLm1hZScsICctbXMnLCAnMScsICctcGgnLCAnNycsICctcGh0JywgJzAuNScsICctbnQn

> <r_lp_tautomer_probability>
1

> <r_epik_Ionization_Penalty>
  0.0000

> <r_epik_Ionization_Penalty_Charging>
  0.0000

> <r_epik_Ionization_Penalty_Neutral>
  0.0000

> <r_epik_State_Penalty>
 -0.0000

> <r_epik_Charging_Adjusted_Penalty>
0

> <i_epik_Tot_Q>
0

> <i_epik_Tot_abs_Q>
0

$$$$
