4a9n_ligand
                    3D
 Schrodinger Suite 2020-3.
 37 39  0  0  1  0            999 V2000
   20.7720   13.3460  -11.6160 O   0  0  0  0  0  0
   19.4320   13.2300  -12.1150 S   0  0  0  0  0  0
   19.2070   12.9750  -13.5020 O   0  0  0  0  0  0
   18.6690   14.5960  -11.7380 N   0  0  3  0  0  0
   18.6580   15.1070  -10.3710 C   0  0  0  0  0  0
   19.7200   16.0250   -9.8860 C   0  0  0  0  0  0
   18.5520   16.5590  -10.0920 C   0  0  0  0  0  0
   18.7060   11.8940  -11.2040 C   0  0  0  0  0  0
   17.3240   11.6620  -11.2660 C   0  0  0  0  0  0
   16.3770   12.4820  -12.0690 C   0  0  0  0  0  0
   16.8380   10.5980  -10.5290 C   0  0  0  0  0  0
   17.6600    9.7950   -9.7610 C   0  0  0  0  0  0
   19.5340   11.0990  -10.4430 C   0  0  0  0  0  0
   19.0150   10.0460   -9.7160 C   0  0  0  0  0  0
   19.9240    9.2170   -8.9040 C   0  0  0  0  0  0
   19.8120    8.9360   -7.5260 C   0  0  0  0  0  0
   18.8610    9.3010   -6.6640 C   0  0  0  0  0  0
   21.0740    8.6200   -9.3460 C   0  0  0  0  0  0
   21.7450    8.5410  -10.6500 C   0  0  0  0  0  0
   21.6670    7.9810   -8.3070 O   0  0  0  0  0  0
   20.8700    8.1940   -7.1870 N   0  0  0  0  0  0
   18.0186   15.0500  -12.5001 H   0  0  0  0  0  0
   18.1702   14.1692  -10.0668 H   0  0  0  0  0  0
   20.5532   16.6466   -9.5264 H   0  0  0  0  0  0
   18.3975   17.6322   -9.9066 H   0  0  0  0  0  0
   16.9304   13.2789  -12.5873 H   0  0  0  0  0  0
   15.6252   12.9310  -11.4033 H   0  0  0  0  0  0
   15.8753   11.8423  -12.8100 H   0  0  0  0  0  0
   15.7693   10.3850  -10.5545 H   0  0  0  0  0  0
   17.2384    8.9659   -9.1927 H   0  0  0  0  0  0
   20.6045   11.3021  -10.4144 H   0  0  0  0  0  0
   18.1042    9.9043   -7.1868 H   0  0  0  0  0  0
   19.3088    9.8958   -5.8543 H   0  0  0  0  0  0
   18.3861    8.4038   -6.2404 H   0  0  0  0  0  0
   21.1611    9.0985  -11.3972 H   0  0  0  0  0  0
   21.8247    7.4881  -10.9581 H   0  0  0  0  0  0
   22.7517    8.9773  -10.5713 H   0  0  0  0  0  0
  1  2  2  0  0  0
  2  3  2  0  0  0
  2  4  1  0  0  0
  2  8  1  0  0  0
  4  5  1  0  0  0
  4 22  1  0  0  0
  5  6  1  0  0  0
  5  7  1  0  0  0
  5 23  1  0  0  0
  6  7  2  0  0  0
  6 24  1  0  0  0
  7 25  1  0  0  0
  8  9  2  0  0  0
  8 13  1  0  0  0
  9 10  1  0  0  0
  9 11  1  0  0  0
 10 26  1  0  0  0
 10 27  1  0  0  0
 10 28  1  0  0  0
 11 12  2  0  0  0
 11 29  1  0  0  0
 12 14  1  0  0  0
 12 30  1  0  0  0
 13 14  2  0  0  0
 13 31  1  0  0  0
 14 15  1  0  0  0
 15 16  1  0  0  0
 15 18  2  0  0  0
 16 17  1  0  0  0
 16 21  2  0  0  0
 17 32  1  0  0  0
 17 33  1  0  0  0
 17 34  1  0  0  0
 18 19  1  0  0  0
 18 20  1  0  0  0
 19 35  1  0  0  0
 19 36  1  0  0  0
 19 37  1  0  0  0
 20 21  1  0  0  0
M  END
> <s_m_source_file>
../4a9n_ligand.sdf

> <i_m_source_file_index>
1

> <s_epik_input>
W0NIXTE9W0NIXVtDSF0xW05IXVMoPU8pKD1PKWMyYyhbQ0gzXSlbY0hdW2NIXWMoW2NIXTIpLWMzYyhbQ0gzXSlub2MzW0NIM10=

> <s_epik_cmdline>
J2VwaWtfYXBwJywgJy1pbWFlJywgJ2xpZ2FuZF9wcm8ubWFlJywgJy1vbWFlJywgJ2xpZ2FuZF9wcmVwLm1hZScsICctbXMnLCAnMScsICctcGgnLCAnNycsICctcGh0JywgJzAuNScsICctbnQn

> <r_lp_tautomer_probability>
1

> <r_epik_Ionization_Penalty>
  0.0001

> <r_epik_Ionization_Penalty_Charging>
  0.0000

> <r_epik_Ionization_Penalty_Neutral>
  0.0001

> <r_epik_State_Penalty>
 -0.0000

> <r_epik_Charging_Adjusted_Penalty>
0

> <i_epik_Tot_Q>
0

> <i_epik_Tot_abs_Q>
0

$$$$
