4a9r_ligand
                    3D
 Schrodinger Suite 2020-3.
 40 43  0  0  1  0            999 V2000
  -11.8510   46.4550    2.8050 C   0  0  0  0  0  0
  -10.8140   45.5480    2.3540 N   0  0  0  0  0  0
   -6.4010   50.4710   12.4620 O   0  0  0  0  0  0
  -11.7380   47.1090    4.1770 C   0  0  0  0  0  0
  -10.5620   47.2190    4.7490 C   0  0  0  0  0  0
   -9.3400   48.1210    6.9480 N   0  0  0  0  0  0
  -10.4390   47.8740    6.1220 C   0  0  0  0  0  0
  -11.0710   48.9070    8.0410 N   0  3  0  0  0  0
   -9.7970   48.7670    8.1330 C   0  0  0  0  0  0
  -11.5030   48.3270    6.7310 C   0  0  0  0  0  0
  -12.8720   48.2000    6.0670 C   0  0  0  0  0  0
  -12.9800   47.6350    4.8850 C   0  0  0  0  0  0
   -8.9140   49.2120    9.2940 C   0  0  0  0  0  0
   -9.3920   53.9070   16.3940 Cl  0  0  0  0  0  0
   -9.5140   49.4920   10.6690 C   0  0  0  0  0  0
   -8.7360   49.8830   11.6560 C   0  0  0  0  0  0
   -7.2400   50.0690   11.4200 C   0  0  0  0  0  0
   -6.7260   49.8320   10.2350 C   0  0  0  0  0  0
   -7.6260   49.3770    9.0930 C   0  0  0  0  0  0
   -7.1000   51.2660   13.3730 C   0  0  0  0  0  0
   -7.7890   50.6260   14.5740 C   0  0  0  0  0  0
   -8.4430   51.3760   15.4340 C   0  0  0  0  0  0
   -8.5080   52.8860   15.2300 C   0  0  0  0  0  0
   -7.9130   53.4390   14.1960 C   0  0  0  0  0  0
   -7.1550   52.5680   13.1990 C   0  0  0  0  0  0
  -12.7770   46.6870    2.1060 O   0  0  0  0  0  0
   -9.9525   45.3313    3.0028 H   0  0  0  0  0  0
  -10.8886   45.0764    1.3630 H   0  0  0  0  0  0
   -9.6728   46.8425    4.2433 H   0  0  0  0  0  0
  -13.7602   48.5780    6.5733 H   0  0  0  0  0  0
  -13.9576   47.5429    4.4118 H   0  0  0  0  0  0
  -10.5844   49.3685   10.8333 H   0  0  0  0  0  0
   -9.1603   50.0739   12.6417 H   0  0  0  0  0  0
   -5.6565   49.9607   10.0686 H   0  0  0  0  0  0
   -7.2007   49.1880    8.1074 H   0  0  0  0  0  0
   -7.7393   49.5469   14.7195 H   0  0  0  0  0  0
   -8.9377   50.9191   16.2911 H   0  0  0  0  0  0
   -7.9613   54.5183   14.0514 H   0  0  0  0  0  0
   -6.6591   53.0250   12.3426 H   0  0  0  0  0  0
  -11.6317   49.3883    8.8558 H   0  0  0  0  0  0
  1  2  1  0  0  0
  1  4  1  0  0  0
  1 26  2  0  0  0
  2 27  1  0  0  0
  2 28  1  0  0  0
  3 17  1  0  0  0
  3 20  1  0  0  0
  4  5  2  0  0  0
  4 12  1  0  0  0
  5  7  1  0  0  0
  5 29  1  0  0  0
  6  7  1  0  0  0
  6  9  1  0  0  0
  7 10  2  0  0  0
  8  9  2  0  0  0
  8 10  1  0  0  0
  8 40  1  0  0  0
  9 13  1  0  0  0
 10 11  1  0  0  0
 11 12  2  0  0  0
 11 30  1  0  0  0
 12 31  1  0  0  0
 13 15  2  0  0  0
 13 19  1  0  0  0
 14 23  1  0  0  0
 15 16  1  0  0  0
 15 32  1  0  0  0
 16 17  2  0  0  0
 16 33  1  0  0  0
 17 18  1  0  0  0
 18 19  2  0  0  0
 18 34  1  0  0  0
 19 35  1  0  0  0
 20 21  2  0  0  0
 20 25  1  0  0  0
 21 22  1  0  0  0
 21 36  1  0  0  0
 22 23  2  0  0  0
 22 37  1  0  0  0
 23 24  1  0  0  0
 24 25  2  0  0  0
 24 38  1  0  0  0
 25 39  1  0  0  0
M  CHG  1   8   1
M  END
> <s_m_source_file>
../4a9r_ligand.sdf

> <i_m_source_file_index>
1

> <s_epik_input>
W05IMl1DKD1PKWMoW2NIXTEpW2NIXVtjSF1jKGMxMiluYyhbbkhdMiktYzNbY0hdW2NIXWMoW2NIXVtjSF0zKU9jNFtjSF1bY0hdYyhDbClbY0hdW2NIXTQ=

> <s_epik_cmdline>
J2VwaWtfYXBwJywgJy1pbWFlJywgJ2xpZ2FuZF9wcm8ubWFlJywgJy1vbWFlJywgJ2xpZ2FuZF9wcmVwLm1hZScsICctbXMnLCAnMScsICctcGgnLCAnNycsICctcGh0JywgJzAuNScsICctbnQn

> <r_epik_Ionization_Penalty>
  0.0039

> <r_epik_Ionization_Penalty_Charging>
  0.0000

> <r_epik_Ionization_Penalty_Neutral>
  0.0039

> <r_epik_State_Penalty>
  0.3260

> <r_epik_Charging_Adjusted_Penalty>
0.325960891467088

> <i_epik_Tot_Q>
1

> <i_epik_Tot_abs_Q>
1

$$$$
