4a9s_ligand
                    3D
 Schrodinger Suite 2020-3.
 41 44  0  0  1  0            999 V2000
   34.2940  -33.4430   12.5970 C   0  0  0  0  0  0
   34.8150  -32.4800   13.5500 N   0  0  0  0  0  0
   40.6020  -30.7750    2.8740 O   0  0  0  0  0  0
   34.9550  -33.5930   11.2290 C   0  0  0  0  0  0
   35.6430  -32.6000   10.7030 C   0  0  0  0  0  0
   37.0970  -31.9200    8.5460 N   0  0  0  0  0  0
   36.3190  -32.7730    9.3420 C   0  0  0  0  0  0
   36.9610  -33.7980    7.4190 N   0  3  0  0  0  0
   37.4750  -32.6220    7.3600 C   0  0  0  0  0  0
   36.2080  -33.9140    8.7060 C   0  0  0  0  0  0
   35.4100  -35.0650    9.3190 C   0  0  0  0  0  0
   34.8300  -34.9160   10.4870 C   0  0  0  0  0  0
   38.3140  -32.1010    6.1960 C   0  0  0  0  0  0
   38.1690  -32.7810    4.8390 C   0  0  0  0  0  0
   38.8810  -32.3670    3.8170 C   0  0  0  0  0  0
   39.8600  -31.2070    3.9820 C   0  0  0  0  0  0
   39.9890  -30.6190    5.1560 C   0  0  0  0  0  0
   39.1600  -31.1010    6.3480 C   0  0  0  0  0  0
   41.2190  -31.8710    2.2550 C   0  0  0  0  0  0
   42.5890  -32.3500    2.7330 C   0  0  0  0  0  0
   43.1690  -33.3810    2.1560 C   0  0  0  0  0  0
   42.4710  -34.1010    1.0040 C   0  0  0  0  0  0
   41.2910  -33.6890    0.5910 C   0  0  0  0  0  0
   40.6190  -32.4920    1.2600 C   0  0  0  0  0  0
   33.4430  -34.2030   12.9250 O   0  0  0  0  0  0
   40.6500  -34.3550   -0.4590 O   0  0  0  0  0  0
   35.6035  -31.7761   13.2454 H   0  0  0  0  0  0
   34.4213  -32.4541   14.5768 H   0  0  0  0  0  0
   35.7305  -31.6545   11.2382 H   0  0  0  0  0  0
   35.3225  -36.0112    8.7850 H   0  0  0  0  0  0
   34.2610  -35.7366   10.9239 H   0  0  0  0  0  0
   37.4736  -33.6115    4.7175 H   0  0  0  0  0  0
   38.7730  -32.8529    2.8473 H   0  0  0  0  0  0
   40.6862  -29.7899    5.2766 H   0  0  0  0  0  0
   39.2683  -30.6194    7.3198 H   0  0  0  0  0  0
   43.0877  -31.8360    3.5547 H   0  0  0  0  0  0
   44.1461  -33.7205    2.4998 H   0  0  0  0  0  0
   42.9494  -34.9550    0.5244 H   0  0  0  0  0  0
   39.6430  -32.1514    0.9143 H   0  0  0  0  0  0
   41.1344  -35.2172   -0.9406 H   0  0  0  0  0  0
   37.1206  -34.5100    6.5958 H   0  0  0  0  0  0
  1  2  1  0  0  0
  1  4  1  0  0  0
  1 25  2  0  0  0
  2 27  1  0  0  0
  2 28  1  0  0  0
  3 16  1  0  0  0
  3 19  1  0  0  0
  4  5  2  0  0  0
  4 12  1  0  0  0
  5  7  1  0  0  0
  5 29  1  0  0  0
  6  7  1  0  0  0
  6  9  1  0  0  0
  7 10  2  0  0  0
  8  9  2  0  0  0
  8 10  1  0  0  0
  8 41  1  0  0  0
  9 13  1  0  0  0
 10 11  1  0  0  0
 11 12  2  0  0  0
 11 30  1  0  0  0
 12 31  1  0  0  0
 13 14  2  0  0  0
 13 18  1  0  0  0
 14 15  1  0  0  0
 14 32  1  0  0  0
 15 16  2  0  0  0
 15 33  1  0  0  0
 16 17  1  0  0  0
 17 18  2  0  0  0
 17 34  1  0  0  0
 18 35  1  0  0  0
 19 20  2  0  0  0
 19 24  1  0  0  0
 20 21  1  0  0  0
 20 36  1  0  0  0
 21 22  2  0  0  0
 21 37  1  0  0  0
 22 23  1  0  0  0
 22 38  1  0  0  0
 23 24  2  0  0  0
 23 26  1  0  0  0
 24 39  1  0  0  0
 26 40  1  0  0  0
M  CHG  1   8   1
M  END
> <s_m_source_file>
../4a9s_ligand.sdf

> <i_m_source_file_index>
1

> <s_epik_input>
W05IMl1DKD1PKWMoW2NIXTEpW2NIXVtjSF1jKGMxMiluYyhbbkhdMiktYzNbY0hdW2NIXWMoW2NIXVtjSF0zKU9jNFtjSF1bY0hdW2NIXWMoW2NIXTQpW09IXQ==

> <s_epik_cmdline>
J2VwaWtfYXBwJywgJy1pbWFlJywgJ2xpZ2FuZF9wcm8ubWFlJywgJy1vbWFlJywgJ2xpZ2FuZF9wcmVwLm1hZScsICctbXMnLCAnMScsICctcGgnLCAnNycsICctcGh0JywgJzAuNScsICctbnQn

> <r_epik_Ionization_Penalty>
  0.0067

> <r_epik_Ionization_Penalty_Charging>
  0.0000

> <r_epik_Ionization_Penalty_Neutral>
  0.0067

> <r_epik_State_Penalty>
  0.3260

> <r_epik_Charging_Adjusted_Penalty>
0.325960891467088

> <i_epik_Tot_Q>
1

> <i_epik_Tot_abs_Q>
1

$$$$
