4a9t_ligand
                    3D
 Schrodinger Suite 2020-3.
 49 52  0  0  1  0            999 V2000
   11.4690  -46.5400    2.8530 C   0  0  0  0  0  0
   10.3200  -46.1600    2.3060 N   0  0  0  0  0  0
    6.1750  -50.4400   12.2230 O   0  0  0  0  0  0
   11.3450  -47.1850    4.2410 C   0  0  0  0  0  0
   10.0920  -47.3170    4.8370 C   0  0  0  0  0  0
    8.9250  -48.1660    6.8740 N   0  3  0  0  0  0
    9.9710  -47.9020    6.0950 C   0  0  0  0  0  0
   10.6930  -48.8550    7.9230 N   0  0  0  0  0  0
    9.3650  -48.7250    8.0050 C   0  0  0  0  0  0
   11.1010  -48.3510    6.7600 C   0  0  0  0  0  0
   12.3560  -48.2210    6.1680 C   0  0  0  0  0  0
   12.4790  -47.6350    4.9120 C   0  0  0  0  0  0
    8.5610  -49.1470    9.0690 C   0  0  0  0  0  0
    9.1350  -49.6490   10.2350 C   0  0  0  0  0  0
    8.3240  -50.0600   11.2890 C   0  0  0  0  0  0
    6.9370  -49.9870   11.1840 C   0  0  0  0  0  0
    6.3620  -49.5380    9.9990 C   0  0  0  0  0  0
    7.1730  -49.1040    8.9530 C   0  0  0  0  0  0
    4.2610  -52.8700   14.8740 C   0  0  0  0  0  0
    4.6650  -52.2130   13.5550 C   0  0  0  0  0  0
    4.3820  -50.7270   13.5850 C   0  0  0  0  0  0
    5.0060  -50.0910   14.8250 C   0  0  0  0  0  0
    4.5800  -50.8440   16.0890 C   0  0  0  0  0  0
    5.0390  -52.2520   15.9760 N   0  3  0  0  0  0
    4.7740  -50.0280   12.2760 C   0  0  0  0  0  0
   12.5630  -46.3810    2.3140 O   0  0  0  0  0  0
    9.3736  -46.3308    2.8400 H   0  0  0  0  0  0
   10.3147  -45.6745    1.3190 H   0  0  0  0  0  0
    9.2031  -46.9609    4.3163 H   0  0  0  0  0  0
   13.2432  -48.5792    6.6901 H   0  0  0  0  0  0
   13.4622  -47.5283    4.4538 H   0  0  0  0  0  0
   10.2192  -49.7199   10.3219 H   0  0  0  0  0  0
    8.7778  -50.4419   12.2035 H   0  0  0  0  0  0
    5.2776  -49.5259    9.8894 H   0  0  0  0  0  0
    6.7184  -48.7278    8.0365 H   0  0  0  0  0  0
    3.1855  -52.7161   15.0460 H   0  0  0  0  0  0
    4.4742  -53.9481   14.8271 H   0  0  0  0  0  0
    5.7409  -52.3653   13.3840 H   0  0  0  0  0  0
    4.0950  -52.6655   12.7302 H   0  0  0  0  0  0
    3.2925  -50.6003   13.6680 H   0  0  0  0  0  0
    6.1024  -50.1251   14.7422 H   0  0  0  0  0  0
    4.6767  -49.0445   14.9055 H   0  0  0  0  0  0
    5.0371  -50.3697   16.9699 H   0  0  0  0  0  0
    3.4845  -50.8127   16.1828 H   0  0  0  0  0  0
    4.8499  -52.8004   16.9107 H   0  0  0  0  0  0
    6.1117  -52.2948   15.7364 H   0  0  0  0  0  0
    4.7156  -48.9300   12.3069 H   0  0  0  0  0  0
    4.2489  -50.3981   11.3831 H   0  0  0  0  0  0
    7.9089  -47.9183    6.5331 H   0  0  0  0  0  0
  1  2  1  0  0  0
  1  4  1  0  0  0
  1 26  2  0  0  0
  2 27  1  0  0  0
  2 28  1  0  0  0
  3 16  1  0  0  0
  3 25  1  0  0  0
  4  5  2  0  0  0
  4 12  1  0  0  0
  5  7  1  0  0  0
  5 29  1  0  0  0
  6  7  1  0  0  0
  6  9  1  0  0  0
  6 49  1  0  0  0
  7 10  2  0  0  0
  8  9  2  0  0  0
  8 10  1  0  0  0
  9 13  1  0  0  0
 10 11  1  0  0  0
 11 12  2  0  0  0
 11 30  1  0  0  0
 12 31  1  0  0  0
 13 14  2  0  0  0
 13 18  1  0  0  0
 14 15  1  0  0  0
 14 32  1  0  0  0
 15 16  2  0  0  0
 15 33  1  0  0  0
 16 17  1  0  0  0
 17 18  2  0  0  0
 17 34  1  0  0  0
 18 35  1  0  0  0
 19 20  1  0  0  0
 19 24  1  0  0  0
 19 36  1  0  0  0
 19 37  1  0  0  0
 20 21  1  0  0  0
 20 38  1  0  0  0
 20 39  1  0  0  0
 21 22  1  0  0  0
 21 25  1  0  0  0
 21 40  1  0  0  0
 22 23  1  0  0  0
 22 41  1  0  0  0
 22 42  1  0  0  0
 23 24  1  0  0  0
 23 43  1  0  0  0
 23 44  1  0  0  0
 24 45  1  0  0  0
 24 46  1  0  0  0
 25 47  1  0  0  0
 25 48  1  0  0  0
M  CHG  2   6   1  24   1
M  END
> <s_m_source_file>
../4a9t_ligand.sdf

> <i_m_source_file_index>
1

> <s_epik_input>
W05IMl1DKD1PKWMoW2NIXTEpW2NIXVtjSF1jKGMxMiluYyhbbkhdMiktYzNbY0hdW2NIXWMoW2NIXVtjSF0zKU9bQ0gyXVtDSF00W0NIMl1bQ0gyXVtOSDIrXVtDSDJdW0NIMl00

> <s_epik_cmdline>
J2VwaWtfYXBwJywgJy1pbWFlJywgJ2xpZ2FuZF9wcm8ubWFlJywgJy1vbWFlJywgJ2xpZ2FuZF9wcmVwLm1hZScsICctbXMnLCAnMScsICctcGgnLCAnNycsICctcGh0JywgJzAuNScsICctbnQn

> <r_epik_Ionization_Penalty>
  0.0005

> <r_epik_Ionization_Penalty_Charging>
  0.0005

> <r_epik_Ionization_Penalty_Neutral>
  0.0000

> <r_epik_State_Penalty>
  0.0000

> <r_epik_Charging_Adjusted_Penalty>
0.000483193429997977

> <i_epik_Tot_Q>
2

> <i_epik_Tot_abs_Q>
2

> <s_epik_Chemistry_Notes>
This compound has an imine and may undergo hydrolysis.

$$$$
