4a9u_ligand
                    3D
 Schrodinger Suite 2020-3.
 49 52  0  0  1  0            999 V2000
   34.5160  -33.4250   12.6700 C   0  0  0  0  0  0
   34.9870  -32.4320   13.6130 N   0  0  0  0  0  0
   40.8970  -30.5630    3.0780 O   0  0  0  0  0  0
   35.2110  -33.5870   11.3200 C   0  0  0  0  0  0
   35.8410  -32.5690   10.7730 C   0  0  0  0  0  0
   37.2650  -31.8550    8.6100 N   0  3  0  0  0  0
   36.5330  -32.7380    9.4180 C   0  0  0  0  0  0
   37.2390  -33.7650    7.5240 N   0  0  0  0  0  0
   37.6640  -32.5580    7.4260 C   0  0  0  0  0  0
   36.4910  -33.8960    8.8070 C   0  0  0  0  0  0
   35.7600  -35.0770    9.4440 C   0  0  0  0  0  0
   35.1660  -34.9330   10.6100 C   0  0  0  0  0  0
   38.5030  -32.0110    6.2730 C   0  0  0  0  0  0
   38.5970  -32.7990    4.9670 C   0  0  0  0  0  0
   39.3320  -32.3440    3.9720 C   0  0  0  0  0  0
   40.0940  -31.0290    4.1250 C   0  0  0  0  0  0
   40.0180  -30.3530    5.2540 C   0  0  0  0  0  0
   39.1660  -30.8800    6.4090 C   0  0  0  0  0  0
   43.8310  -29.7100    0.6420 C   0  0  0  0  0  0
   42.7390  -29.9040    1.6970 C   0  0  0  0  0  0
   41.6020  -29.0800    1.4560 C   0  0  0  0  0  0
   41.1530  -29.2070    0.1140 C   0  0  0  0  0  0
   42.2900  -29.0090   -0.8850 C   0  0  0  0  0  0
   43.3020  -29.9110   -0.6210 N   0  3  0  0  0  0
   40.5480  -29.4090    2.3680 C   0  0  0  0  0  0
   33.5880  -34.1090   12.9460 O   0  0  0  0  0  0
   35.8480  -31.7965   13.3584 H   0  0  0  0  0  0
   34.4838  -32.3132   14.5839 H   0  0  0  0  0  0
   35.8700  -31.6068   11.2842 H   0  0  0  0  0  0
   35.7303  -36.0392    8.9327 H   0  0  0  0  0  0
   34.6438  -35.7744   11.0654 H   0  0  0  0  0  0
   38.0554  -33.7387    4.8582 H   0  0  0  0  0  0
   39.3961  -32.9059    3.0402 H   0  0  0  0  0  0
   40.5639  -29.4160    5.3645 H   0  0  0  0  0  0
   39.1070  -30.3214    7.3431 H   0  0  0  0  0  0
   44.2301  -28.6873    0.7111 H   0  0  0  0  0  0
   44.6419  -30.4325    0.8164 H   0  0  0  0  0  0
   42.4069  -30.9526    1.6924 H   0  0  0  0  0  0
   43.1391  -29.6505    2.6898 H   0  0  0  0  0  0
   41.9014  -28.0329    1.6106 H   0  0  0  0  0  0
   40.7307  -30.2113   -0.0379 H   0  0  0  0  0  0
   40.3805  -28.4502   -0.0874 H   0  0  0  0  0  0
   41.9135  -29.1710   -1.9058 H   0  0  0  0  0  0
   42.6814  -27.9848   -0.7968 H   0  0  0  0  0  0
   44.0931  -29.7829   -1.3745 H   0  0  0  0  0  0
   42.8923  -30.9296   -0.6891 H   0  0  0  0  0  0
   39.6186  -29.5900    1.8081 H   0  0  0  0  0  0
   40.3960  -28.5774    3.0718 H   0  0  0  0  0  0
   37.4362  -30.8201    8.9411 H   0  0  0  0  0  0
  1  2  1  0  0  0
  1  4  1  0  0  0
  1 26  2  0  0  0
  2 27  1  0  0  0
  2 28  1  0  0  0
  3 16  1  0  0  0
  3 25  1  0  0  0
  4  5  2  0  0  0
  4 12  1  0  0  0
  5  7  1  0  0  0
  5 29  1  0  0  0
  6  7  1  0  0  0
  6  9  1  0  0  0
  6 49  1  0  0  0
  7 10  2  0  0  0
  8  9  2  0  0  0
  8 10  1  0  0  0
  9 13  1  0  0  0
 10 11  1  0  0  0
 11 12  2  0  0  0
 11 30  1  0  0  0
 12 31  1  0  0  0
 13 14  2  0  0  0
 13 18  1  0  0  0
 14 15  1  0  0  0
 14 32  1  0  0  0
 15 16  2  0  0  0
 15 33  1  0  0  0
 16 17  1  0  0  0
 17 18  2  0  0  0
 17 34  1  0  0  0
 18 35  1  0  0  0
 19 20  1  0  0  0
 19 24  1  0  0  0
 19 36  1  0  0  0
 19 37  1  0  0  0
 20 21  1  0  0  0
 20 38  1  0  0  0
 20 39  1  0  0  0
 21 22  1  0  0  0
 21 25  1  0  0  0
 21 40  1  0  0  0
 22 23  1  0  0  0
 22 41  1  0  0  0
 22 42  1  0  0  0
 23 24  1  0  0  0
 23 43  1  0  0  0
 23 44  1  0  0  0
 24 45  1  0  0  0
 24 46  1  0  0  0
 25 47  1  0  0  0
 25 48  1  0  0  0
M  CHG  2   6   1  24   1
M  END
> <s_m_source_file>
../4a9u_ligand.sdf

> <i_m_source_file_index>
1

> <s_epik_input>
W05IMl1DKD1PKWMoW2NIXTEpW2NIXVtjSF1jKGMxMiluYyhbbkhdMiktYzNbY0hdW2NIXWMoW2NIXVtjSF0zKU9bQ0gyXVtDSF00W0NIMl1bQ0gyXVtOSDIrXVtDSDJdW0NIMl00

> <s_epik_cmdline>
J2VwaWtfYXBwJywgJy1pbWFlJywgJ2xpZ2FuZF9wcm8ubWFlJywgJy1vbWFlJywgJ2xpZ2FuZF9wcmVwLm1hZScsICctbXMnLCAnMScsICctcGgnLCAnNycsICctcGh0JywgJzAuNScsICctbnQn

> <r_epik_Ionization_Penalty>
  0.0005

> <r_epik_Ionization_Penalty_Charging>
  0.0005

> <r_epik_Ionization_Penalty_Neutral>
  0.0000

> <r_epik_State_Penalty>
  0.0000

> <r_epik_Charging_Adjusted_Penalty>
0.000483193429997977

> <i_epik_Tot_Q>
2

> <i_epik_Tot_abs_Q>
2

> <s_epik_Chemistry_Notes>
This compound has an imine and may undergo hydrolysis.

$$$$
