4aa0_ligand
                    3D
 Schrodinger Suite 2020-3.
 74 79  0  0  1  0            999 V2000
   -4.0470    0.0810   24.7150 C   0  0  0  0  0  0
   -4.0520   -0.7470   23.6010 C   0  0  0  0  0  0
   -4.0860   -0.1840   22.3320 C   0  0  0  0  0  0
   -4.0880   -1.0350   21.1970 N   0  0  0  0  0  0
   -4.1350    1.7980   20.8860 C   0  0  0  0  0  0
   -4.1360    0.9010   19.8270 N   0  0  0  0  0  0
   -4.3230    1.4180   18.5090 C   0  0  0  0  0  0
   -3.2660    2.0260   17.8420 C   0  0  0  0  0  0
   -3.4990    2.5460   16.5630 C   0  0  0  0  0  0
   -2.5080    3.2070   15.7910 N   0  0  0  0  0  0
   -1.1510    2.9030   15.8110 C   0  0  0  0  0  0
   -0.6360    2.0640   16.5550 O   0  0  0  0  0  0
   -0.2900    3.6170   14.8150 C   0  0  0  0  0  0
   -0.6110    4.8860   14.3690 C   0  0  0  0  0  0
    0.2550    5.4680   13.4620 C   0  0  0  0  0  0
    1.3800    4.8820   13.0000 N   0  0  0  0  0  0
    1.6940    3.6320   13.4140 C   0  0  0  0  0  0
    0.8610    2.9950   14.3380 C   0  0  0  0  0  0
    2.8650    2.9920   12.8790 N   0  0  0  0  0  0
    3.3520    1.7780   13.5340 C   0  0  0  0  0  0
    4.4100    1.0460   12.7050 C   0  0  0  0  0  0
    5.5030    1.9080   12.3560 O   0  0  0  0  0  0
    4.9830    3.0510   11.6340 C   0  0  0  0  0  0
    3.9560    3.8630   12.4350 C   0  0  0  0  0  0
   -4.7610    2.4720   16.0070 C   0  0  0  0  0  0
   -5.8220    1.8800   16.6590 C   0  0  0  0  0  0
   -5.5880    1.3500   17.9240 C   0  0  0  0  0  0
   -4.1140   -0.4600   20.0290 C   0  0  0  0  0  0
   -6.7400    0.7070   18.6280 C   0  0  0  0  0  0
   -4.1080    1.1950   22.2360 C   0  0  0  0  0  0
   -4.1000    2.0200   23.3500 C   0  0  0  0  0  0
   -4.0690    1.4570   24.6210 C   0  0  0  0  0  0
   -3.4460    1.6010   26.9710 C   0  0  0  0  0  0
   -2.0690    2.1540   27.2670 C   0  0  0  0  0  0
   -4.0760    2.2300   25.8030 N   0  0  0  0  0  0
   -2.0730    3.6410   27.1310 N   0  3  0  0  0  0
   -2.5430    4.1080   25.7970 C   0  0  0  0  0  0
   -4.1440    3.0160   20.7820 O   0  0  0  0  0  0
   -3.9830    3.6670   25.6130 C   0  0  0  0  0  0
   -0.7200    4.1760   27.3700 C   0  0  0  0  0  0
   -4.0248   -0.3749   25.7048 H   0  0  0  0  0  0
   -4.0294   -1.8301   23.7212 H   0  0  0  0  0  0
   -2.2807    2.0962   18.3029 H   0  0  0  0  0  0
   -2.7935    4.0259   15.1143 H   0  0  0  0  0  0
   -1.5053    5.4034   14.7164 H   0  0  0  0  0  0
    0.0135    6.4658   13.0958 H   0  0  0  0  0  0
    1.1163    1.9958   14.6908 H   0  0  0  0  0  0
    3.8034    2.0397   14.5024 H   0  0  0  0  0  0
    2.5120    1.0865   13.6959 H   0  0  0  0  0  0
    4.8085    0.1998   13.2839 H   0  0  0  0  0  0
    3.9542    0.6725   11.7761 H   0  0  0  0  0  0
    5.8101    3.7285   11.3753 H   0  0  0  0  0  0
    4.4877    2.7088   10.7134 H   0  0  0  0  0  0
    3.5505    4.6628   11.7978 H   0  0  0  0  0  0
    4.4502    4.3075   13.3115 H   0  0  0  0  0  0
   -4.9243    2.8971   15.0167 H   0  0  0  0  0  0
   -6.8092    1.8290   16.1996 H   0  0  0  0  0  0
   -4.1187   -1.1025   19.1485 H   0  0  0  0  0  0
   -6.4093    0.3363   19.6094 H   0  0  0  0  0  0
   -7.1147   -0.1337   18.0257 H   0  0  0  0  0  0
   -7.5434    1.4455   18.7667 H   0  0  0  0  0  0
   -4.1179    3.1033   23.2303 H   0  0  0  0  0  0
   -3.3725    0.5218   26.7712 H   0  0  0  0  0  0
   -4.1028    1.7696   27.8371 H   0  0  0  0  0  0
   -1.7793    1.8862   28.2938 H   0  0  0  0  0  0
   -1.3430    1.7287   26.5585 H   0  0  0  0  0  0
   -2.7732    4.0239   27.8880 H   0  0  0  0  0  0
   -2.4770    5.2049   25.7484 H   0  0  0  0  0  0
   -1.9119    3.6675   25.0110 H   0  0  0  0  0  0
   -4.3192    3.9251   24.5979 H   0  0  0  0  0  0
   -4.6201    4.1764   26.3509 H   0  0  0  0  0  0
   -0.3605    3.8382   28.3532 H   0  0  0  0  0  0
   -0.7514    5.2754   27.3490 H   0  0  0  0  0  0
   -0.0387    3.8136   26.5861 H   0  0  0  0  0  0
  1  2  2  0  0  0
  1 32  1  0  0  0
  1 41  1  0  0  0
  2  3  1  0  0  0
  2 42  1  0  0  0
  3  4  1  0  0  0
  3 30  2  0  0  0
  4 28  2  0  0  0
  5  6  1  0  0  0
  5 30  1  0  0  0
  5 38  2  0  0  0
  6  7  1  0  0  0
  6 28  1  0  0  0
  7  8  2  0  0  0
  7 27  1  0  0  0
  8  9  1  0  0  0
  8 43  1  0  0  0
  9 10  1  0  0  0
  9 25  2  0  0  0
 10 11  1  0  0  0
 10 44  1  0  0  0
 11 12  2  0  0  0
 11 13  1  0  0  0
 13 14  2  0  0  0
 13 18  1  0  0  0
 14 15  1  0  0  0
 14 45  1  0  0  0
 15 16  2  0  0  0
 15 46  1  0  0  0
 16 17  1  0  0  0
 17 18  2  0  0  0
 17 19  1  0  0  0
 18 47  1  0  0  0
 19 20  1  0  0  0
 19 24  1  0  0  0
 20 21  1  0  0  0
 20 48  1  0  0  0
 20 49  1  0  0  0
 21 22  1  0  0  0
 21 50  1  0  0  0
 21 51  1  0  0  0
 22 23  1  0  0  0
 23 24  1  0  0  0
 23 52  1  0  0  0
 23 53  1  0  0  0
 24 54  1  0  0  0
 24 55  1  0  0  0
 25 26  1  0  0  0
 25 56  1  0  0  0
 26 27  2  0  0  0
 26 57  1  0  0  0
 27 29  1  0  0  0
 28 58  1  0  0  0
 29 59  1  0  0  0
 29 60  1  0  0  0
 29 61  1  0  0  0
 30 31  1  0  0  0
 31 32  2  0  0  0
 31 62  1  0  0  0
 32 35  1  0  0  0
 33 34  1  0  0  0
 33 35  1  0  0  0
 33 63  1  0  0  0
 33 64  1  0  0  0
 34 36  1  0  0  0
 34 65  1  0  0  0
 34 66  1  0  0  0
 35 39  1  0  0  0
 36 37  1  0  0  0
 36 40  1  0  0  0
 36 67  1  0  0  0
 37 39  1  0  0  0
 37 68  1  0  0  0
 37 69  1  0  0  0
 39 70  1  0  0  0
 39 71  1  0  0  0
 40 72  1  0  0  0
 40 73  1  0  0  0
 40 74  1  0  0  0
M  CHG  1  36   1
M  END
> <s_m_source_file>
../4aa0_ligand.sdf

> <i_m_source_file_index>
1

> <s_epik_input>
W0NIMl0xW0NIMl1bTkgrXShbQ0gzXSlbQ0gyXVtDSDJdTjFjKFtjSF1bY0hdMilbY0hdYyhjMjMpYyg9TyluKFtjSF1uMyktYzRbY0hdYyhbY0hdW2NIXWM0W0NIM10pW05IXUMoPU8pYzVbY0hdW2NIXW5jKFtjSF01KU42W0NIMl1bQ0gyXU9bQ0gyXVtDSDJdNg==

> <s_epik_cmdline>
J2VwaWtfYXBwJywgJy1pbWFlJywgJ2xpZ2FuZF9wcm8ubWFlJywgJy1vbWFlJywgJ2xpZ2FuZF9wcmVwLm1hZScsICctbXMnLCAnMScsICctcGgnLCAnNycsICctcGh0JywgJzAuNScsICctbnQn

> <r_lp_tautomer_probability>
1

> <r_epik_Ionization_Penalty>
  0.0648

> <r_epik_Ionization_Penalty_Charging>
  0.0647

> <r_epik_Ionization_Penalty_Neutral>
  0.0000

> <r_epik_State_Penalty>
  0.0564

> <r_epik_Charging_Adjusted_Penalty>
0.12117058341756

> <i_epik_Tot_Q>
1

> <i_epik_Tot_abs_Q>
1

$$$$
