4aa1_ligand
                    3D
 Schrodinger Suite 2020-3.
 75 77  0  0  1  0            999 V2000
   -9.0950   23.2670   21.3540 N   0  3  0  0  0  0
  -10.4390   23.1330   20.7090 C   0  0  2  0  0  0
  -11.5130   22.6190   21.6800 C   0  0  0  0  0  0
  -11.5660   21.4330   22.0120 O   0  0  0  0  0  0
  -10.3450   22.2750   19.4430 C   0  0  0  0  0  0
   -9.7940   23.0400   18.2590 C   0  0  0  0  0  0
   -8.4220   23.1050   18.0200 C   0  0  0  0  0  0
  -10.6450   23.7190   17.3880 C   0  0  0  0  0  0
   -7.9150   23.8190   16.9310 C   0  0  0  0  0  0
  -10.1460   24.4360   16.3010 C   0  0  0  0  0  0
   -8.7820   24.4790   16.0750 C   0  0  0  0  0  0
   -8.2910   25.1830   14.9950 O   0  0  0  0  0  0
  -12.3830   23.5340   22.1010 N   0  0  0  0  0  0
  -13.2750   23.3190   23.2460 C   0  0  2  0  0  0
  -14.7490   23.0380   22.8980 C   0  0  0  0  0  0
  -15.2170   23.3500   21.7970 O   0  0  0  0  0  0
  -13.1790   24.5010   24.2680 C   0  0  2  0  0  0
  -12.8550   25.8360   23.5710 C   0  0  0  0  0  0
  -12.1450   24.2050   25.3390 C   0  0  0  0  0  0
  -11.3490   26.0990   23.2810 C   0  0  0  0  0  0
  -15.4520   22.4220   23.8540 N   0  0  0  0  0  0
  -16.8950   22.1630   23.7960 C   0  0  2  0  0  0
  -17.6620   23.4880   23.9480 C   0  0  0  0  0  0
  -17.1560   24.4040   24.5910 O   0  0  0  0  0  0
  -17.2560   21.1920   24.9300 C   0  0  0  0  0  0
  -18.6980   20.7940   24.9690 C   0  0  0  0  0  0
  -19.2320   19.8390   24.1290 N   0  0  0  0  0  0
  -19.7160   21.2090   25.7610 C   0  0  0  0  0  0
  -20.5180   19.6930   24.3930 C   0  0  0  0  0  0
  -20.8380   20.5140   25.3780 N   0  0  0  0  0  0
  -18.8690   23.6080   23.3430 N   0  0  0  0  0  0
  -19.6740   24.8300   23.5320 C   0  0  2  0  0  0
  -20.0240   25.1220   24.9940 C   0  0  0  0  0  0
  -20.3300   26.2540   25.3600 O   0  0  0  0  0  0
  -20.9580   24.5530   22.7310 C   0  0  0  0  0  0
  -20.9000   23.1180   22.3320 C   0  0  0  0  0  0
  -19.4540   22.7360   22.3100 C   0  0  0  0  0  0
  -20.0100   24.2380   25.8450 N   0  0  0  0  0  0
   -9.1829   23.8852   22.2596 H   0  0  0  0  0  0
   -8.3967   23.7441   20.6506 H   0  0  0  0  0  0
   -8.7177   22.2701   21.6258 H   0  0  0  0  0  0
  -10.7385   24.1515   20.4210 H   0  0  0  0  0  0
   -9.6808   21.4181   19.6293 H   0  0  0  0  0  0
  -11.3468   21.9103   19.1720 H   0  0  0  0  0  0
   -7.7348   22.5914   18.6924 H   0  0  0  0  0  0
  -11.7209   23.6888   17.5600 H   0  0  0  0  0  0
   -6.8399   23.8567   16.7553 H   0  0  0  0  0  0
  -10.8282   24.9606   15.6320 H   0  0  0  0  0  0
   -7.2074   25.2210   14.8099 H   0  0  0  0  0  0
  -12.4155   24.4852   21.5495 H   0  0  0  0  0  0
  -12.8654   22.3784   23.6430 H   0  0  0  0  0  0
  -14.1526   24.6113   24.7679 H   0  0  0  0  0  0
  -13.3673   25.8756   22.5984 H   0  0  0  0  0  0
  -13.1977   26.6707   24.2001 H   0  0  0  0  0  0
  -12.3873   23.2503   25.8287 H   0  0  0  0  0  0
  -12.1499   25.0121   26.0864 H   0  0  0  0  0  0
  -11.1485   24.1381   24.8780 H   0  0  0  0  0  0
  -11.2360   27.0743   22.7849 H   0  0  0  0  0  0
  -10.9580   25.3068   22.6257 H   0  0  0  0  0  0
  -10.7884   26.1019   24.2274 H   0  0  0  0  0  0
  -14.8705   22.1015   24.7310 H   0  0  0  0  0  0
  -17.1244   21.7166   22.8172 H   0  0  0  0  0  0
  -16.5546   20.7919   25.6770 H   0  0  0  0  0  0
  -19.7755   21.9417   26.5793 H   0  0  0  0  0  0
  -21.1997   19.0111   23.8847 H   0  0  0  0  0  0
  -19.0813   25.6930   23.1945 H   0  0  0  0  0  0
  -21.8352   24.7518   23.3642 H   0  0  0  0  0  0
  -20.9875   25.2078   21.8476 H   0  0  0  0  0  0
  -21.4539   22.5114   23.0636 H   0  0  0  0  0  0
  -21.3522   22.9956   21.3368 H   0  0  0  0  0  0
  -18.9754   22.9430   21.3414 H   0  0  0  0  0  0
  -19.2894   21.6831   22.5827 H   0  0  0  0  0  0
  -19.7421   23.2087   25.5644 H   0  0  0  0  0  0
  -20.2654   24.4749   26.8884 H   0  0  0  0  0  0
  -18.5915   19.3379   23.3883 H   0  0  0  0  0  0
  1  2  1  0  0  0
  1 39  1  0  0  0
  1 40  1  0  0  0
  1 41  1  0  0  0
  2  3  1  0  0  0
  2  5  1  0  0  0
  2 42  1  0  0  0
  3  4  2  0  0  0
  3 13  1  0  0  0
  5  6  1  0  0  0
  5 43  1  0  0  0
  5 44  1  0  0  0
  6  7  2  0  0  0
  6  8  1  0  0  0
  7  9  1  0  0  0
  7 45  1  0  0  0
  8 10  2  0  0  0
  8 46  1  0  0  0
  9 11  2  0  0  0
  9 47  1  0  0  0
 10 11  1  0  0  0
 10 48  1  0  0  0
 11 12  1  0  0  0
 12 49  1  0  0  0
 13 14  1  0  0  0
 13 50  1  0  0  0
 14 15  1  0  0  0
 14 17  1  0  0  0
 14 51  1  0  0  0
 15 16  2  0  0  0
 15 21  1  0  0  0
 17 18  1  0  0  0
 17 19  1  0  0  0
 17 52  1  0  0  0
 18 20  1  0  0  0
 18 53  1  0  0  0
 18 54  1  0  0  0
 19 55  1  0  0  0
 19 56  1  0  0  0
 19 57  1  0  0  0
 20 58  1  0  0  0
 20 59  1  0  0  0
 20 60  1  0  0  0
 21 22  1  0  0  0
 21 61  1  0  0  0
 22 23  1  0  0  0
 22 25  1  0  0  0
 22 62  1  0  0  0
 23 24  2  0  0  0
 23 31  1  0  0  0
 25 26  2  0  0  0
 25 63  1  0  0  0
 26 27  1  0  0  0
 26 28  1  0  0  0
 27 29  1  0  0  0
 27 75  1  0  0  0
 28 30  2  0  0  0
 28 64  1  0  0  0
 29 30  1  0  0  0
 29 65  1  0  0  0
 31 32  1  0  0  0
 31 37  1  0  0  0
 32 33  1  0  0  0
 32 35  1  0  0  0
 32 66  1  0  0  0
 33 34  2  0  0  0
 33 38  1  0  0  0
 35 36  1  0  0  0
 35 67  1  0  0  0
 35 68  1  0  0  0
 36 37  1  0  0  0
 36 69  1  0  0  0
 36 70  1  0  0  0
 37 71  1  0  0  0
 37 72  1  0  0  0
 38 73  1  0  0  0
 38 74  1  0  0  0
M  CHG  1   1   1
M  END
> <s_m_source_file>
../4aa1_ligand.sdf

> <i_m_source_file_index>
1

> <s_epik_input>
W2NIXTFbY0hdYyhbT0hdKVtjSF1bY0hdYzFbQ0gyXVtDQEhdKFtOSDMrXSlDKD1PKVtOSF1bQ0BASF0oW0NAQEhdKFtDSDNdKVtDSDJdW0NIM10pQyg9TylbTkhdW0NASF0oQyg9TylOMltDQEhdKEMoPU8pW05IMl0pW0NIMl1bQ0gyXVtDSDJdMilbQ0gyXUMzPU5bQ0gyXU49W0NIXTM=

> <s_epik_cmdline>
J2VwaWtfYXBwJywgJy1pbWFlJywgJ2xpZ2FuZF9wcm8ubWFlJywgJy1vbWFlJywgJ2xpZ2FuZF9wcmVwLm1hZScsICctbXMnLCAnMScsICctcGgnLCAnNycsICctcGh0JywgJzAuNScsICctbnQn

> <r_epik_Ionization_Penalty>
  0.2024

> <r_epik_Ionization_Penalty_Charging>
  0.1997

> <r_epik_Ionization_Penalty_Neutral>
  0.0027

> <r_epik_State_Penalty>
  0.1896

> <r_epik_Charging_Adjusted_Penalty>
0.389274761672291

> <i_epik_Tot_Q>
1

> <i_epik_Tot_abs_Q>
1

> <s_epik_Chemistry_Notes>
This compound has an imine and may undergo hydrolysis.

$$$$
