4aa2_ligand
                    3D
 Schrodinger Suite 2020-3.
110112  0  0  1  0            999 V2000
   25.5220    9.3440   14.3110 N   0  3  0  0  0  0
   25.5600    8.7300   12.9450 C   0  0  2  0  0  0
   24.9820    7.3020   12.9490 C   0  0  0  0  0  0
   24.9070    6.6750   14.0160 O   0  0  0  0  0  0
   26.9970    8.7220   12.4140 C   0  0  0  0  0  0
   27.1070    9.0270   10.9190 C   0  0  0  0  0  0
   28.1380    8.1350   10.2310 C   0  0  0  0  0  0
   29.4500    8.2470   10.8640 N   0  0  0  0  0  0
   30.3670    9.1580   10.5470 C   0  0  0  0  0  0
   30.1300   10.0490    9.5880 N   0  0  0  0  0  0
   31.5250    9.1790   11.1940 N   0  3  0  0  0  0
   24.5620    6.7850   11.7650 N   0  0  0  0  0  0
   24.0340    5.4210   11.6680 C   0  0  2  0  0  0
   25.0070    4.3470   12.1460 C   0  0  0  0  0  0
   26.2310    4.5170   12.0580 O   0  0  0  0  0  0
   23.7700    5.2440   10.1600 C   0  0  0  0  0  0
   24.5390    6.3380    9.4930 C   0  0  0  0  0  0
   24.4410    7.4720   10.4680 C   0  0  0  0  0  0
   24.4430    3.2490   12.6430 N   0  0  0  0  0  0
   25.2120    2.1170   13.1330 C   0  0  2  0  0  0
   25.2470    1.0480   12.0490 C   0  0  0  0  0  0
   24.1980    0.6370   11.5520 O   0  0  0  0  0  0
   24.5620    1.5540   14.3920 C   0  0  0  0  0  0
   24.2060    2.5750   15.4670 C   0  0  0  0  0  0
   25.2700    2.6340   16.5480 C   0  0  0  0  0  0
   26.2060    3.7960   16.3580 C   0  0  0  0  0  0
   25.6340    5.0430   16.9210 N   0  3  0  0  0  0
   26.4470    0.5920   11.7000 N   0  0  0  0  0  0
   26.6460   -0.2640   10.5250 C   0  0  2  0  0  0
   27.3650   -1.5950   10.8480 C   0  0  0  0  0  0
   28.0680   -1.6860   11.8580 O   0  0  0  0  0  0
   27.3870    0.5170    9.3990 C   0  0  2  0  0  0
   28.8170    0.8710    9.8180 C   0  0  0  0  0  0
   26.6170    1.7880    9.0240 C   0  0  0  0  0  0
   29.6410    1.4980    8.7160 C   0  0  0  0  0  0
   27.1940   -2.6320    9.9970 N   0  0  0  0  0  0
   27.8960   -3.8910   10.2480 C   0  0  2  0  0  0
   29.3980   -3.7390   10.0110 C   0  0  0  0  0  0
   29.8140   -2.7780    9.3500 O   0  0  0  0  0  0
   27.3100   -4.8520    9.1940 C   0  0  0  0  0  0
   26.1910   -4.1320    8.5490 C   0  0  0  0  0  0
   26.4520   -2.6810    8.7270 C   0  0  0  0  0  0
   30.2110   -4.6700   10.5510 N   0  0  0  0  0  0
   31.6500   -4.6520   10.3020 C   0  0  2  0  0  0
   31.9760   -4.8190    8.8200 C   0  0  0  0  0  0
   33.0810   -4.5050    8.3970 O   0  0  0  0  0  0
   32.1640   -5.8630   11.0870 C   0  0  0  0  0  0
   30.9730   -6.6830   11.3910 C   0  0  0  0  0  0
   29.8440   -5.7270   11.5090 C   0  0  0  0  0  0
   31.1490   -5.2650    8.0230 O   0  5  0  0  0  0
   24.4871    9.3454   14.6837 H   0  0  0  0  0  0
   25.8943   10.3778   14.2588 H   0  0  0  0  0  0
   26.1567    8.7597   14.9934 H   0  0  0  0  0  0
   24.9298    9.3610   12.3010 H   0  0  0  0  0  0
   27.5886    9.4819   12.9457 H   0  0  0  0  0  0
   27.4428    7.7298   12.5775 H   0  0  0  0  0  0
   26.1317    8.8608   10.4382 H   0  0  0  0  0  0
   27.4104   10.0751   10.7799 H   0  0  0  0  0  0
   27.8120    7.0860   10.2887 H   0  0  0  0  0  0
   28.2339    8.4317    9.1761 H   0  0  0  0  0  0
   29.7368    7.5473   11.6628 H   0  0  0  0  0  0
   29.1712   10.0351    9.0491 H   0  0  0  0  0  0
   30.8929   10.7997    9.3340 H   0  0  0  0  0  0
   31.7250    8.4441   11.9876 H   0  0  0  0  0  0
   23.1581    5.3410   12.3286 H   0  0  0  0  0  0
   24.1210    4.2517    9.8403 H   0  0  0  0  0  0
   22.6912    5.3320    9.9638 H   0  0  0  0  0  0
   25.5768    6.0109    9.3316 H   0  0  0  0  0  0
   24.0744    6.5750    8.5245 H   0  0  0  0  0  0
   23.4749    7.9958   10.4193 H   0  0  0  0  0  0
   25.2586    8.2000   10.3610 H   0  0  0  0  0  0
   23.3438    3.2216   12.6734 H   0  0  0  0  0  0
   26.2236    2.4825   13.3633 H   0  0  0  0  0  0
   23.6225    1.0482   14.1248 H   0  0  0  0  0  0
   25.2444    0.8332   14.8661 H   0  0  0  0  0  0
   24.1162    3.5718   15.0106 H   0  0  0  0  0  0
   23.2492    2.2978   15.9335 H   0  0  0  0  0  0
   24.7883    2.7395   17.5313 H   0  0  0  0  0  0
   25.8644    1.7086   16.5283 H   0  0  0  0  0  0
   27.1587    3.5863   16.8663 H   0  0  0  0  0  0
   26.3890    3.9476   15.2840 H   0  0  0  0  0  0
   26.3400    5.8724   16.7670 H   0  0  0  0  0  0
   25.4538    4.9101   17.9980 H   0  0  0  0  0  0
   24.6840    5.2714   16.4157 H   0  0  0  0  0  0
   27.3063    0.8766   12.3250 H   0  0  0  0  0  0
   25.6184   -0.5134   10.2219 H   0  0  0  0  0  0
   27.4487   -0.1255    8.5083 H   0  0  0  0  0  0
   28.7879    1.5886   10.6512 H   0  0  0  0  0  0
   29.3418   -0.0412   10.1380 H   0  0  0  0  0  0
   25.5925    1.5213    8.7252 H   0  0  0  0  0  0
   27.1241    2.2904    8.1870 H   0  0  0  0  0  0
   26.5818    2.4645    9.8907 H   0  0  0  0  0  0
   30.6495    1.7216    9.0942 H   0  0  0  0  0  0
   29.1595    2.4292    8.3827 H   0  0  0  0  0  0
   29.7134    0.7993    7.8695 H   0  0  0  0  0  0
   27.7507   -4.1965   11.2947 H   0  0  0  0  0  0
   28.0878   -5.1097    8.4601 H   0  0  0  0  0  0
   26.9556   -5.7679    9.6896 H   0  0  0  0  0  0
   26.1540   -4.3932    7.4811 H   0  0  0  0  0  0
   25.2443   -4.4195    9.0298 H   0  0  0  0  0  0
   25.5269   -2.0931    8.8199 H   0  0  0  0  0  0
   27.0739   -2.2613    7.9226 H   0  0  0  0  0  0
   32.0660   -3.6824   10.6132 H   0  0  0  0  0  0
   32.8847   -6.4204   10.4707 H   0  0  0  0  0  0
   32.6574   -5.5202   12.0084 H   0  0  0  0  0  0
   30.8044   -7.4012   10.5751 H   0  0  0  0  0  0
   31.1341   -7.2287   12.3324 H   0  0  0  0  0  0
   29.7573   -5.2945   12.5167 H   0  0  0  0  0  0
   28.8805   -6.1693   11.2157 H   0  0  0  0  0  0
   32.2851    9.9314   10.9368 H   0  0  0  0  0  0
  1  2  1  0  0  0
  1 51  1  0  0  0
  1 52  1  0  0  0
  1 53  1  0  0  0
  2  3  1  0  0  0
  2  5  1  0  0  0
  2 54  1  0  0  0
  3  4  2  0  0  0
  3 12  1  0  0  0
  5  6  1  0  0  0
  5 55  1  0  0  0
  5 56  1  0  0  0
  6  7  1  0  0  0
  6 57  1  0  0  0
  6 58  1  0  0  0
  7  8  1  0  0  0
  7 59  1  0  0  0
  7 60  1  0  0  0
  8  9  1  0  0  0
  8 61  1  0  0  0
  9 10  1  0  0  0
  9 11  2  0  0  0
 10 62  1  0  0  0
 10 63  1  0  0  0
 11 64  1  0  0  0
 11110  1  0  0  0
 12 13  1  0  0  0
 12 18  1  0  0  0
 13 14  1  0  0  0
 13 16  1  0  0  0
 13 65  1  0  0  0
 14 15  2  0  0  0
 14 19  1  0  0  0
 16 17  1  0  0  0
 16 66  1  0  0  0
 16 67  1  0  0  0
 17 18  1  0  0  0
 17 68  1  0  0  0
 17 69  1  0  0  0
 18 70  1  0  0  0
 18 71  1  0  0  0
 19 20  1  0  0  0
 19 72  1  0  0  0
 20 21  1  0  0  0
 20 23  1  0  0  0
 20 73  1  0  0  0
 21 22  2  0  0  0
 21 28  1  0  0  0
 23 24  1  0  0  0
 23 74  1  0  0  0
 23 75  1  0  0  0
 24 25  1  0  0  0
 24 76  1  0  0  0
 24 77  1  0  0  0
 25 26  1  0  0  0
 25 78  1  0  0  0
 25 79  1  0  0  0
 26 27  1  0  0  0
 26 80  1  0  0  0
 26 81  1  0  0  0
 27 82  1  0  0  0
 27 83  1  0  0  0
 27 84  1  0  0  0
 28 29  1  0  0  0
 28 85  1  0  0  0
 29 30  1  0  0  0
 29 32  1  0  0  0
 29 86  1  0  0  0
 30 31  2  0  0  0
 30 36  1  0  0  0
 32 33  1  0  0  0
 32 34  1  0  0  0
 32 87  1  0  0  0
 33 35  1  0  0  0
 33 88  1  0  0  0
 33 89  1  0  0  0
 34 90  1  0  0  0
 34 91  1  0  0  0
 34 92  1  0  0  0
 35 93  1  0  0  0
 35 94  1  0  0  0
 35 95  1  0  0  0
 36 37  1  0  0  0
 36 42  1  0  0  0
 37 38  1  0  0  0
 37 40  1  0  0  0
 37 96  1  0  0  0
 38 39  2  0  0  0
 38 43  1  0  0  0
 40 41  1  0  0  0
 40 97  1  0  0  0
 40 98  1  0  0  0
 41 42  1  0  0  0
 41 99  1  0  0  0
 41100  1  0  0  0
 42101  1  0  0  0
 42102  1  0  0  0
 43 44  1  0  0  0
 43 49  1  0  0  0
 44 45  1  0  0  0
 44 47  1  0  0  0
 44103  1  0  0  0
 45 46  2  0  0  0
 45 50  1  0  0  0
 47 48  1  0  0  0
 47104  1  0  0  0
 47105  1  0  0  0
 48 49  1  0  0  0
 48106  1  0  0  0
 48107  1  0  0  0
 49108  1  0  0  0
 49109  1  0  0  0
M  CHG  4   1   1  11   1  27   1  50  -1
M  END
> <s_m_source_file>
../4aa2_ligand.sdf

> <i_m_source_file_index>
1

> <s_epik_input>
W0hdL049QyhbTkgyXSlcW05IXVtDSDJdW0NIMl1bQ0gyXVtDQEhdKFtOSDMrXSlDKD1PKU4xW0NAQEhdKFtDSDJdW0NIMl1bQ0gyXTEpQyg9TylbTkhdW0NAQEhdKFtDSDJdW0NIMl1bQ0gyXVtDSDJdW05IMytdKUMoPU8pW05IXVtDQEBIXShbQ0BASF0oW0NIM10pW0NIMl1bQ0gzXSlDKD1PKU4yW0NAQEhdKFtDSDJdW0NIMl1bQ0gyXTIpQyg9TylOM1tDQEhdKEMoPU8pW09IXSlbQ0gyXVtDSDJdW0NIMl0z

> <s_epik_cmdline>
J2VwaWtfYXBwJywgJy1pbWFlJywgJ2xpZ2FuZF9wcm8ubWFlJywgJy1vbWFlJywgJ2xpZ2FuZF9wcmVwLm1hZScsICctbXMnLCAnMScsICctcGgnLCAnNycsICctcGh0JywgJzAuNScsICctbnQn

> <r_epik_Ionization_Penalty>
  0.1281

> <r_epik_Ionization_Penalty_Charging>
  0.1281

> <r_epik_Ionization_Penalty_Neutral>
  0.0000

> <r_epik_State_Penalty>
  0.1167

> <r_epik_Charging_Adjusted_Penalty>
0.244776003726198

> <i_epik_Tot_Q>
2

> <i_epik_Tot_abs_Q>
4

> <s_epik_Chemistry_Notes>
This compound has an imine and may undergo hydrolysis.

$$$$
