4aa4_ligand
                    3D
 Schrodinger Suite 2020-3.
 59 63  0  0  1  0            999 V2000
   -1.6050    4.7270   28.7740 C   0  0  0  0  0  0
   -1.5040    3.9930   27.4690 N   0  3  0  0  0  0
   -1.8150    2.5480   27.6680 C   0  0  0  0  0  0
   -1.7780    1.7820   26.3350 C   0  0  0  0  0  0
   -2.6960    2.4250   25.3660 N   0  0  0  0  0  0
   -2.3770    3.8580   25.1680 C   0  0  0  0  0  0
   -2.4840    4.5830   26.5210 C   0  0  0  0  0  0
   -2.8100    1.6540   24.1920 C   0  0  0  0  0  0
   -2.7520    0.2420   24.3080 C   0  0  0  0  0  0
   -2.8940   -0.5770   23.2110 C   0  0  0  0  0  0
   -3.0980    0.0220   21.9450 C   0  0  0  0  0  0
   -3.2000   -0.7290   20.8050 N   0  0  0  0  0  0
   -3.4150   -0.2360   19.6040 C   0  0  0  0  0  0
   -3.5370    1.1240   19.4100 N   0  0  0  0  0  0
   -3.8550    1.6790   18.1540 C   0  0  0  0  0  0
   -2.9580    2.2330   17.2470 C   0  0  0  0  0  0
   -3.4820    2.7730   16.0520 C   0  0  0  0  0  0
   -2.6520    3.3420   15.0770 N   0  0  0  0  0  0
   -1.3630    2.9840   14.9120 C   0  0  0  0  0  0
   -0.7530    2.1590   15.5780 O   0  0  0  0  0  0
   -0.7200    3.6590   13.7990 C   0  0  0  0  0  0
    0.3680    3.1150   12.9600 C   0  0  0  0  0  0
    0.5310    4.1100   12.0580 C   0  0  0  0  0  0
   -0.3270    5.1510   12.3070 O   0  0  0  0  0  0
   -1.0880    4.8940   13.3380 C   0  0  0  0  0  0
   -4.8520    2.7340   15.7450 C   0  0  0  0  0  0
   -5.7200    2.1350   16.6440 C   0  0  0  0  0  0
   -5.2220    1.6300   17.8510 C   0  0  0  0  0  0
   -6.2750    1.0140   18.7780 C   0  0  0  0  0  0
   -3.4080    2.0020   20.4630 C   0  0  0  0  0  0
   -3.1820    1.4450   21.8280 C   0  0  0  0  0  0
   -3.0370    2.2510   22.9430 C   0  0  0  0  0  0
   -3.4780    3.2070   20.2630 O   0  0  0  0  0  0
   -0.8853    4.3031   29.4898 H   0  0  0  0  0  0
   -2.6243    4.6242   29.1745 H   0  0  0  0  0  0
   -1.3794    5.7917   28.6142 H   0  0  0  0  0  0
   -0.4858    4.0815   27.0623 H   0  0  0  0  0  0
   -1.0737    2.1037   28.3485 H   0  0  0  0  0  0
   -2.8200    2.4458   28.1034 H   0  0  0  0  0  0
   -0.7543    1.7955   25.9327 H   0  0  0  0  0  0
   -2.0929    0.7412   26.5013 H   0  0  0  0  0  0
   -1.3547    3.9550   24.7736 H   0  0  0  0  0  0
   -3.0888    4.2968   24.4533 H   0  0  0  0  0  0
   -3.5007    4.4651   26.9240 H   0  0  0  0  0  0
   -2.2650    5.6524   26.3855 H   0  0  0  0  0  0
   -2.5912   -0.2053   25.2889 H   0  0  0  0  0  0
   -2.8504   -1.6612   23.3148 H   0  0  0  0  0  0
   -3.4977   -0.9108   18.7520 H   0  0  0  0  0  0
   -1.8875    2.2498   17.4515 H   0  0  0  0  0  0
   -3.0461    4.1175   14.4037 H   0  0  0  0  0  0
    0.8975    2.1661   13.0451 H   0  0  0  0  0  0
    1.2506    4.0875   11.2396 H   0  0  0  0  0  0
   -1.8647    5.5380   13.7505 H   0  0  0  0  0  0
   -5.2255    3.1668   14.8170 H   0  0  0  0  0  0
   -6.7824    2.0576   16.4131 H   0  0  0  0  0  0
   -5.7881    0.6481   19.6940 H   0  0  0  0  0  0
   -6.7692    0.1755   18.2654 H   0  0  0  0  0  0
   -7.0236    1.7761   19.0401 H   0  0  0  0  0  0
   -3.0983    3.3355   22.8522 H   0  0  0  0  0  0
  1  2  1  0  0  0
  1 34  1  0  0  0
  1 35  1  0  0  0
  1 36  1  0  0  0
  2  3  1  0  0  0
  2  7  1  0  0  0
  2 37  1  0  0  0
  3  4  1  0  0  0
  3 38  1  0  0  0
  3 39  1  0  0  0
  4  5  1  0  0  0
  4 40  1  0  0  0
  4 41  1  0  0  0
  5  6  1  0  0  0
  5  8  1  0  0  0
  6  7  1  0  0  0
  6 42  1  0  0  0
  6 43  1  0  0  0
  7 44  1  0  0  0
  7 45  1  0  0  0
  8  9  2  0  0  0
  8 32  1  0  0  0
  9 10  1  0  0  0
  9 46  1  0  0  0
 10 11  2  0  0  0
 10 47  1  0  0  0
 11 12  1  0  0  0
 11 31  1  0  0  0
 12 13  2  0  0  0
 13 14  1  0  0  0
 13 48  1  0  0  0
 14 15  1  0  0  0
 14 30  1  0  0  0
 15 16  2  0  0  0
 15 28  1  0  0  0
 16 17  1  0  0  0
 16 49  1  0  0  0
 17 18  1  0  0  0
 17 26  2  0  0  0
 18 19  1  0  0  0
 18 50  1  0  0  0
 19 20  2  0  0  0
 19 21  1  0  0  0
 21 22  1  0  0  0
 21 25  2  0  0  0
 22 23  2  0  0  0
 22 51  1  0  0  0
 23 24  1  0  0  0
 23 52  1  0  0  0
 24 25  1  0  0  0
 25 53  1  0  0  0
 26 27  1  0  0  0
 26 54  1  0  0  0
 27 28  2  0  0  0
 27 55  1  0  0  0
 28 29  1  0  0  0
 29 56  1  0  0  0
 29 57  1  0  0  0
 29 58  1  0  0  0
 30 31  1  0  0  0
 30 33  2  0  0  0
 31 32  2  0  0  0
 32 59  1  0  0  0
M  CHG  1   2   1
M  END
> <s_m_source_file>
../4aa4_ligand.sdf

> <i_m_source_file_index>
1

> <s_epik_input>
W0NIM11bTkgrXTFbQ0gyXVtDSDJdTihbQ0gyXVtDSDJdMSljKFtjSF1bY0hdMilbY0hdYyhjMjMpYyg9TyluKFtjSF1uMyktYzRbY0hdYyhbY0hdW2NIXWM0W0NIM10pW05IXUMoPU8pYzVbY0hdW2NIXW9bY0hdNQ==

> <s_epik_cmdline>
J2VwaWtfYXBwJywgJy1pbWFlJywgJ2xpZ2FuZF9wcm8ubWFlJywgJy1vbWFlJywgJ2xpZ2FuZF9wcmVwLm1hZScsICctbXMnLCAnMScsICctcGgnLCAnNycsICctcGh0JywgJzAuNScsICctbnQn

> <r_lp_tautomer_probability>
1

> <r_epik_Ionization_Penalty>
  0.0648

> <r_epik_Ionization_Penalty_Charging>
  0.0647

> <r_epik_Ionization_Penalty_Neutral>
  0.0000

> <r_epik_State_Penalty>
  0.0564

> <r_epik_Charging_Adjusted_Penalty>
0.121170583458326

> <i_epik_Tot_Q>
1

> <i_epik_Tot_abs_Q>
1

$$$$
