4aa5_ligand
                    3D
 Schrodinger Suite 2020-3.
 59 63  0  0  1  0            999 V2000
   -1.8880    0.9780   26.3390 C   0  0  0  0  0  0
   -1.0510    1.8380   27.3070 C   0  0  0  0  0  0
   -1.0950    3.8890   28.7120 C   0  0  0  0  0  0
   -2.9130    1.5970   22.7000 C   0  0  0  0  0  0
   -2.7100    0.9730   23.9540 C   0  0  0  0  0  0
   -2.7410   -0.4370   23.9670 C   0  0  0  0  0  0
   -2.9340   -1.2150   22.8170 C   0  0  0  0  0  0
   -2.4940    1.3950   17.0060 C   0  0  0  0  0  0
   -2.7190    1.9480   15.7260 C   0  0  0  0  0  0
   -4.0530    2.0670   15.2410 C   0  0  0  0  0  0
   -1.4930    2.2910   14.9380 C   0  0  0  0  0  0
   -0.4810    3.5000   12.9720 C   0  0  0  0  0  0
   -0.6000    3.2540   11.4870 C   0  0  0  0  0  0
    0.3790    2.4760   12.3290 C   0  0  0  0  0  0
   -3.3920    0.5290   19.1270 N   0  0  0  0  0  0
   -3.2740    1.4280   20.1820 C   0  0  0  0  0  0
   -1.7190    3.1280   27.6270 N   0  3  0  0  0  0
   -1.8140    3.9390   26.4010 C   0  0  0  0  0  0
   -2.4380    3.2220   25.1550 C   0  0  0  0  0  0
   -5.1120    1.6920   16.0560 C   0  0  0  0  0  0
   -4.9010    1.1660   17.3500 C   0  0  0  0  0  0
   -6.0520    0.7470   18.2100 C   0  0  0  0  0  0
   -0.4790    1.7730   15.3020 O   0  0  0  0  0  0
   -3.5770    1.0110   17.8070 C   0  0  0  0  0  0
   -3.0980    0.8210   21.5290 C   0  0  0  0  0  0
   -3.1110   -0.5930   21.5900 C   0  0  0  0  0  0
   -3.2850   -1.4150   20.4920 N   0  0  0  0  0  0
   -3.4000   -0.8370   19.3480 C   0  0  0  0  0  0
   -2.4970    1.7220   25.1670 N   0  0  0  0  0  0
   -3.2420    2.6220   20.0660 O   0  0  0  0  0  0
   -1.5610    3.1110   13.8350 N   0  0  0  0  0  0
   -1.2549    0.1874   25.9100 H   0  0  0  0  0  0
   -2.7257    0.5205   26.8857 H   0  0  0  0  0  0
   -0.8981    1.2881   28.2474 H   0  0  0  0  0  0
   -0.0756    2.0607   26.8498 H   0  0  0  0  0  0
   -1.0365    3.2614   29.6135 H   0  0  0  0  0  0
   -1.6981    4.7836   28.9264 H   0  0  0  0  0  0
   -0.0818    4.1934   28.4108 H   0  0  0  0  0  0
   -2.9272    2.6849   22.6344 H   0  0  0  0  0  0
   -2.6080   -0.9481   24.9205 H   0  0  0  0  0  0
   -2.9449   -2.3027   22.8867 H   0  0  0  0  0  0
   -1.4751    1.2667   17.3714 H   0  0  0  0  0  0
   -4.2407    2.4495   14.2377 H   0  0  0  0  0  0
   -0.3046    4.3634   13.6303 H   0  0  0  0  0  0
   -1.6253    2.9340   11.2494 H   0  0  0  0  0  0
   -0.3698    4.1814   10.9421 H   0  0  0  0  0  0
    1.4365    2.7410   12.4753 H   0  0  0  0  0  0
    0.1810    1.4936   12.7826 H   0  0  0  0  0  0
   -2.7216    2.8918   28.0131 H   0  0  0  0  0  0
   -2.4411    4.8220   26.5932 H   0  0  0  0  0  0
   -0.8078    4.2631   26.0968 H   0  0  0  0  0  0
   -3.4802    3.5499   25.0271 H   0  0  0  0  0  0
   -1.8595    3.4799   24.2557 H   0  0  0  0  0  0
   -6.1318    1.8062   15.6885 H   0  0  0  0  0  0
   -6.9960    0.9466   17.6818 H   0  0  0  0  0  0
   -6.0316    1.3148   19.1519 H   0  0  0  0  0  0
   -5.9742   -0.3283   18.4283 H   0  0  0  0  0  0
   -3.5138   -1.4805   18.4757 H   0  0  0  0  0  0
   -2.5794    3.4791   13.6417 H   0  0  0  0  0  0
  1  2  1  0  0  0
  1 29  1  0  0  0
  1 32  1  0  0  0
  1 33  1  0  0  0
  2 17  1  0  0  0
  2 34  1  0  0  0
  2 35  1  0  0  0
  3 17  1  0  0  0
  3 36  1  0  0  0
  3 37  1  0  0  0
  3 38  1  0  0  0
  4  5  2  0  0  0
  4 25  1  0  0  0
  4 39  1  0  0  0
  5  6  1  0  0  0
  5 29  1  0  0  0
  6  7  2  0  0  0
  6 40  1  0  0  0
  7 26  1  0  0  0
  7 41  1  0  0  0
  8  9  2  0  0  0
  8 24  1  0  0  0
  8 42  1  0  0  0
  9 10  1  0  0  0
  9 11  1  0  0  0
 10 20  2  0  0  0
 10 43  1  0  0  0
 11 23  2  0  0  0
 11 31  1  0  0  0
 12 13  1  0  0  0
 12 14  1  0  0  0
 12 31  1  0  0  0
 12 44  1  0  0  0
 13 14  1  0  0  0
 13 45  1  0  0  0
 13 46  1  0  0  0
 14 47  1  0  0  0
 14 48  1  0  0  0
 15 16  1  0  0  0
 15 24  1  0  0  0
 15 28  1  0  0  0
 16 25  1  0  0  0
 16 30  2  0  0  0
 17 18  1  0  0  0
 17 49  1  0  0  0
 18 19  1  0  0  0
 18 50  1  0  0  0
 18 51  1  0  0  0
 19 29  1  0  0  0
 19 52  1  0  0  0
 19 53  1  0  0  0
 20 21  1  0  0  0
 20 54  1  0  0  0
 21 22  1  0  0  0
 21 24  2  0  0  0
 22 55  1  0  0  0
 22 56  1  0  0  0
 22 57  1  0  0  0
 25 26  2  0  0  0
 26 27  1  0  0  0
 27 28  2  0  0  0
 28 58  1  0  0  0
 31 59  1  0  0  0
M  CHG  1  17   1
M  END
> <s_m_source_file>
../4aa5_ligand.sdf

> <i_m_source_file_index>
1

> <s_epik_input>
W0NIM11bTkgrXTFbQ0gyXVtDSDJdTihbQ0gyXVtDSDJdMSljKFtjSF0yKVtjSF1bY0hdYyhjMjMpbltjSF1uKGMzPU8pLWMoYyhbQ0gzXSlbY0hdW2NIXTQpW2NIXWM0Qyg9TylbTkhdW0NIXTVbQ0gyXVtDSDJdNQ==

> <s_epik_cmdline>
J2VwaWtfYXBwJywgJy1pbWFlJywgJ2xpZ2FuZF9wcm8ubWFlJywgJy1vbWFlJywgJ2xpZ2FuZF9wcmVwLm1hZScsICctbXMnLCAnMScsICctcGgnLCAnNycsICctcGh0JywgJzAuNScsICctbnQn

> <r_lp_tautomer_probability>
1

> <r_epik_Ionization_Penalty>
  0.0648

> <r_epik_Ionization_Penalty_Charging>
  0.0647

> <r_epik_Ionization_Penalty_Neutral>
  0.0000

> <r_epik_State_Penalty>
  0.0564

> <r_epik_Charging_Adjusted_Penalty>
0.121170583454823

> <i_epik_Tot_Q>
1

> <i_epik_Tot_abs_Q>
1

$$$$
