4aa7_ligand
                    3D
 Schrodinger Suite 2020-3.
 49 51  0  0  1  0            999 V2000
   45.1510    7.4410   15.7540 C   0  0  0  0  0  0
   45.9100    8.6050   15.3170 O   0  0  0  0  0  0
   46.2320    9.4270   16.3590 C   0  0  0  0  0  0
   46.1030    8.9770   17.6800 C   0  0  0  0  0  0
   46.4520    9.8220   18.7770 C   0  0  0  0  0  0
   46.3360    9.3870   20.1220 O   0  0  0  0  0  0
   45.8610    8.0690   20.4100 C   0  0  0  0  0  0
   46.9010   11.1510   18.5230 C   0  0  0  0  0  0
   47.0230   11.5750   17.1690 C   0  0  0  0  0  0
   46.6480   10.7440   16.0850 C   0  0  0  0  0  0
   46.7730   11.1960   14.7050 N   0  0  0  0  0  0
   46.7670   12.4960   14.2750 C   0  0  0  0  0  0
   46.5770   13.5000   14.9860 O   0  0  0  0  0  0
   47.0020   12.7060   12.8030 C   0  0  0  0  0  0
   47.4190   12.2620   19.8660 S   0  0  0  0  0  0
   46.3790   12.4180   20.8600 O   0  0  0  0  0  0
   48.0180   13.3480   19.1800 O   0  0  0  0  0  0
   48.6620   11.3850   20.5190 N   0  0  0  0  0  0
   48.6600   10.8020   21.8950 C   0  0  2  0  0  0
   49.3000   11.6310   23.0080 C   0  0  0  0  0  0
   49.2850    9.3960   21.6870 C   0  0  0  0  0  0
   49.9910    9.4990   20.3560 C   0  0  0  0  0  0
   50.8690    8.6010   19.7530 C   0  0  0  0  0  0
   51.3950    8.9680   18.5310 C   0  0  0  0  0  0
   51.0730   10.1750   17.9130 C   0  0  0  0  0  0
   50.1860   11.0740   18.4910 C   0  0  0  0  0  0
   49.6450   10.7500   19.7540 C   0  0  0  0  0  0
   44.9147    6.8098   14.8846 H   0  0  0  0  0  0
   44.2170    7.7708   16.2324 H   0  0  0  0  0  0
   45.7482    6.8634   16.4750 H   0  0  0  0  0  0
   45.7320    7.9703   17.8723 H   0  0  0  0  0  0
   45.8405    7.9165   21.4992 H   0  0  0  0  0  0
   46.5312    7.3288   19.9487 H   0  0  0  0  0  0
   44.8460    7.9481   20.0036 H   0  0  0  0  0  0
   47.4171   12.5696   16.9604 H   0  0  0  0  0  0
   46.8853   10.4616   13.8938 H   0  0  0  0  0  0
   47.1524   11.7326   12.3132 H   0  0  0  0  0  0
   47.8961   13.3305   12.6599 H   0  0  0  0  0  0
   46.1292   13.2083   12.3604 H   0  0  0  0  0  0
   47.6289   10.7971   22.2783 H   0  0  0  0  0  0
   48.7924   12.6043   23.0784 H   0  0  0  0  0  0
   50.3649   11.7884   22.7819 H   0  0  0  0  0  0
   49.2033   11.0970   23.9648 H   0  0  0  0  0  0
   49.9829    9.1797   22.5093 H   0  0  0  0  0  0
   48.4875    8.6385   21.6742 H   0  0  0  0  0  0
   51.1284    7.6530   20.2243 H   0  0  0  0  0  0
   52.0868    8.2898   18.0315 H   0  0  0  0  0  0
   51.5281   10.4193   16.9532 H   0  0  0  0  0  0
   49.9160   12.0010   17.9851 H   0  0  0  0  0  0
  1  2  1  0  0  0
  1 28  1  0  0  0
  1 29  1  0  0  0
  1 30  1  0  0  0
  2  3  1  0  0  0
  3  4  2  0  0  0
  3 10  1  0  0  0
  4  5  1  0  0  0
  4 31  1  0  0  0
  5  6  1  0  0  0
  5  8  2  0  0  0
  6  7  1  0  0  0
  7 32  1  0  0  0
  7 33  1  0  0  0
  7 34  1  0  0  0
  8  9  1  0  0  0
  8 15  1  0  0  0
  9 10  2  0  0  0
  9 35  1  0  0  0
 10 11  1  0  0  0
 11 12  1  0  0  0
 11 36  1  0  0  0
 12 13  2  0  0  0
 12 14  1  0  0  0
 14 37  1  0  0  0
 14 38  1  0  0  0
 14 39  1  0  0  0
 15 16  2  0  0  0
 15 17  2  0  0  0
 15 18  1  0  0  0
 18 19  1  0  0  0
 18 27  1  0  0  0
 19 20  1  0  0  0
 19 21  1  0  0  0
 19 40  1  0  0  0
 20 41  1  0  0  0
 20 42  1  0  0  0
 20 43  1  0  0  0
 21 22  1  0  0  0
 21 44  1  0  0  0
 21 45  1  0  0  0
 22 23  2  0  0  0
 22 27  1  0  0  0
 23 24  1  0  0  0
 23 46  1  0  0  0
 24 25  2  0  0  0
 24 47  1  0  0  0
 25 26  1  0  0  0
 25 48  1  0  0  0
 26 27  2  0  0  0
 26 49  1  0  0  0
M  END
> <s_m_source_file>
../4aa7_ligand.sdf

> <i_m_source_file_index>
1

> <s_epik_input>
W0NIM11PYzFbY0hdYyhPW0NIM10pYyhbY0hdYzFbTkhdQyg9TylbQ0gzXSlTKD1PKSg9TylOKFtDQEhdKFtDSDNdKVtDSDJdMiljKGMyMylbY0hdW2NIXVtjSF1bY0hdMw==

> <s_epik_cmdline>
J2VwaWtfYXBwJywgJy1pbWFlJywgJ2xpZ2FuZF9wcm8ubWFlJywgJy1vbWFlJywgJ2xpZ2FuZF9wcmVwLm1hZScsICctbXMnLCAnMScsICctcGgnLCAnNycsICctcGh0JywgJzAuNScsICctbnQn

> <r_lp_tautomer_probability>
1

> <r_epik_Ionization_Penalty>
  0.0000

> <r_epik_Ionization_Penalty_Charging>
  0.0000

> <r_epik_Ionization_Penalty_Neutral>
  0.0000

> <r_epik_State_Penalty>
 -0.0000

> <r_epik_Charging_Adjusted_Penalty>
0

> <i_epik_Tot_Q>
0

> <i_epik_Tot_abs_Q>
0

$$$$
