4aac_ligand
                    3D
 Schrodinger Suite 2020-3.
 58 62  0  0  1  0            999 V2000
   -1.3550    4.3410   28.7110 C   0  0  0  0  0  0
   -1.3390    3.6250   27.4340 N   0  3  0  0  0  0
   -1.5470    2.1630   27.7190 C   0  0  0  0  0  0
   -1.6820    1.3900   26.3920 C   0  0  0  0  0  0
   -2.6900    2.0010   25.4850 N   0  0  0  0  0  0
   -2.3690    3.4190   25.1930 C   0  0  0  0  0  0
   -2.3940    4.1700   26.5420 C   0  0  0  0  0  0
   -2.8050    1.2250   24.3120 C   0  0  0  0  0  0
   -2.8240   -0.1850   24.4250 C   0  0  0  0  0  0
   -2.9610   -1.0100   23.3360 C   0  0  0  0  0  0
   -3.0640   -0.4160   22.0710 C   0  0  0  0  0  0
   -3.2070   -1.1900   20.9550 N   0  0  0  0  0  0
   -3.3930   -0.6730   19.7690 C   0  0  0  0  0  0
   -3.3990    0.6830   19.5600 N   0  0  0  0  0  0
   -3.6030    1.1900   18.2760 C   0  0  0  0  0  0
   -2.5290    1.5860   17.4710 C   0  0  0  0  0  0
   -2.7860    2.1000   16.1950 C   0  0  0  0  0  0
   -2.1810    3.2720   14.1690 N   0  0  0  0  0  0
   -1.7600    2.5280   15.1910 C   0  0  0  0  0  0
   -0.5740    2.2130   15.1870 O   0  0  0  0  0  0
   -1.3220    4.8510   12.3900 C   0  0  0  0  0  0
   -0.2530    4.7390   11.5590 C   0  0  0  0  0  0
    0.3530    3.5680   11.8350 O   0  0  0  0  0  0
   -1.2710    3.6680   13.1700 C   0  0  0  0  0  0
   -4.1280    2.2000   15.8030 C   0  0  0  0  0  0
   -5.1860    1.8530   16.6170 C   0  0  0  0  0  0
   -4.9340    1.3230   17.8570 C   0  0  0  0  0  0
   -6.1270    0.9280   18.7100 C   0  0  0  0  0  0
   -0.2220    2.9800   12.7370 N   0  0  0  0  0  0
   -3.2030    1.5650   20.5840 C   0  0  0  0  0  0
   -2.9280    1.8280   23.0550 C   0  0  0  0  0  0
   -3.2060    2.7730   20.3910 O   0  0  0  0  0  0
   -3.0430    1.0060   21.9400 C   0  0  0  0  0  0
   -0.5726    3.9348   29.3689 H   0  0  0  0  0  0
   -2.3377    4.2158   29.1892 H   0  0  0  0  0  0
   -1.1668    5.4103   28.5342 H   0  0  0  0  0  0
   -0.3739    3.7767   26.9284 H   0  0  0  0  0  0
   -0.6864    1.7732   28.2825 H   0  0  0  0  0  0
   -2.4637    2.0319   28.3126 H   0  0  0  0  0  0
   -0.7132    1.3840   25.8710 H   0  0  0  0  0  0
   -1.9928    0.3556   26.6002 H   0  0  0  0  0  0
   -1.3732    3.4816   24.7299 H   0  0  0  0  0  0
   -3.1206    3.8306   24.5033 H   0  0  0  0  0  0
   -3.3782    4.0390   27.0155 H   0  0  0  0  0  0
   -2.2103    5.2405   26.3683 H   0  0  0  0  0  0
   -2.7262   -0.6333   25.4137 H   0  0  0  0  0  0
   -2.9888   -2.0935   23.4519 H   0  0  0  0  0  0
   -3.5480   -1.3393   18.9204 H   0  0  0  0  0  0
   -1.5050    1.4952   17.8333 H   0  0  0  0  0  0
   -3.2366    3.5751   14.1074 H   0  0  0  0  0  0
   -2.0491    5.6612   12.4444 H   0  0  0  0  0  0
    0.0575    5.4640   10.8066 H   0  0  0  0  0  0
   -4.3471    2.5716   14.8020 H   0  0  0  0  0  0
   -6.2119    1.9984   16.2785 H   0  0  0  0  0  0
   -5.7735    0.5216   19.6691 H   0  0  0  0  0  0
   -6.7174    0.1638   18.1833 H   0  0  0  0  0  0
   -6.7541    1.8125   18.8954 H   0  0  0  0  0  0
   -2.9335    2.9132   22.9531 H   0  0  0  0  0  0
  1  2  1  0  0  0
  1 34  1  0  0  0
  1 35  1  0  0  0
  1 36  1  0  0  0
  2  3  1  0  0  0
  2  7  1  0  0  0
  2 37  1  0  0  0
  3  4  1  0  0  0
  3 38  1  0  0  0
  3 39  1  0  0  0
  4  5  1  0  0  0
  4 40  1  0  0  0
  4 41  1  0  0  0
  5  6  1  0  0  0
  5  8  1  0  0  0
  6  7  1  0  0  0
  6 42  1  0  0  0
  6 43  1  0  0  0
  7 44  1  0  0  0
  7 45  1  0  0  0
  8  9  2  0  0  0
  8 31  1  0  0  0
  9 10  1  0  0  0
  9 46  1  0  0  0
 10 11  2  0  0  0
 10 47  1  0  0  0
 11 12  1  0  0  0
 11 33  1  0  0  0
 12 13  2  0  0  0
 13 14  1  0  0  0
 13 48  1  0  0  0
 14 15  1  0  0  0
 14 30  1  0  0  0
 15 16  2  0  0  0
 15 27  1  0  0  0
 16 17  1  0  0  0
 16 49  1  0  0  0
 17 19  1  0  0  0
 17 25  2  0  0  0
 18 19  1  0  0  0
 18 24  1  0  0  0
 18 50  1  0  0  0
 19 20  2  0  0  0
 21 22  2  0  0  0
 21 24  1  0  0  0
 21 51  1  0  0  0
 22 23  1  0  0  0
 22 52  1  0  0  0
 23 29  1  0  0  0
 24 29  2  0  0  0
 25 26  1  0  0  0
 25 53  1  0  0  0
 26 27  2  0  0  0
 26 54  1  0  0  0
 27 28  1  0  0  0
 28 55  1  0  0  0
 28 56  1  0  0  0
 28 57  1  0  0  0
 30 32  2  0  0  0
 30 33  1  0  0  0
 31 33  2  0  0  0
 31 58  1  0  0  0
M  CHG  1   2   1
M  END
> <s_m_source_file>
../4aac_ligand.sdf

> <i_m_source_file_index>
1

> <s_epik_input>
W0NIM11bTkgrXTFbQ0gyXVtDSDJdTihbQ0gyXVtDSDJdMSljKFtjSF1bY0hdMilbY0hdYyhjMjMpYyg9TyluKFtjSF1uMyktYzRbY0hdYyhbY0hdW2NIXWM0W0NIM10pQyg9TylbTkhdYzVbY0hdW2NIXW9uNQ==

> <s_epik_cmdline>
J2VwaWtfYXBwJywgJy1pbWFlJywgJ2xpZ2FuZF9wcm8ubWFlJywgJy1vbWFlJywgJ2xpZ2FuZF9wcmVwLm1hZScsICctbXMnLCAnMScsICctcGgnLCAnNycsICctcGh0JywgJzAuNScsICctbnQn

> <r_lp_tautomer_probability>
1

> <r_epik_Ionization_Penalty>
  0.0649

> <r_epik_Ionization_Penalty_Charging>
  0.0647

> <r_epik_Ionization_Penalty_Neutral>
  0.0002

> <r_epik_State_Penalty>
  0.0564

> <r_epik_Charging_Adjusted_Penalty>
0.121170583417688

> <i_epik_Tot_Q>
1

> <i_epik_Tot_abs_Q>
1

$$$$
