4aaw_ligand
                    3D
 Schrodinger Suite 2020-3.
 79 81  0  0  1  0            999 V2000
   57.1290   17.3790  -22.2320 C   0  0  0  0  0  0
   56.0480   18.1420  -21.7730 O   0  0  0  0  0  0
   55.5530   18.9290  -22.8040 C   0  0  0  0  0  0
   55.9300   18.6970  -24.1350 C   0  0  0  0  0  0
   55.4010   19.5410  -25.1180 C   0  0  0  0  0  0
   55.7120   19.3700  -26.4520 O   0  0  0  0  0  0
   56.3610   18.0590  -26.6780 C   0  0  0  0  0  0
   54.5360   20.6000  -24.7940 C   0  0  0  0  0  0
   54.1550   20.7830  -23.4740 C   0  0  0  0  0  0
   54.6850   19.9870  -22.4780 C   0  0  0  0  0  0
   54.2960   20.1990  -21.1410 N   0  0  0  0  0  0
   53.8940   21.4100  -20.5220 C   0  0  0  0  0  0
   53.8920   22.4660  -21.1020 O   0  0  0  0  0  0
   53.4050   21.4540  -19.1170 C   0  0  0  0  0  0
   54.5910   21.2760  -18.1570 C   0  0  0  0  0  0
   54.0480   21.3560  -16.7420 C   0  0  0  0  0  0
   54.8250   21.7930  -15.8630 O   0  0  0  0  0  0
   52.7270   21.0000  -16.5270 O   0  5  0  0  0  0
   53.8680   21.6210  -26.0930 S   0  0  0  0  0  0
   52.9840   22.3650  -25.2530 O   0  0  0  0  0  0
   54.9720   22.0780  -26.8870 O   0  0  0  0  0  0
   52.9680   20.5530  -27.1010 N   0  0  3  0  0  0
   51.8650   19.5500  -26.7360 C   0  0  0  0  0  0
   52.2760   18.0640  -26.8680 C   0  0  0  0  0  0
   52.0850   17.1330  -25.8370 C   0  0  0  0  0  0
   52.4810   15.7960  -25.9550 C   0  0  0  0  0  0
   53.1010   15.2860  -27.1060 C   0  0  0  0  0  0
   53.2490   16.2010  -28.1420 C   0  0  0  0  0  0
   52.8580   17.5650  -28.0080 C   0  0  0  0  0  0
   53.0380   18.4500  -29.0340 N   0  0  0  0  0  0
   53.7960   17.8090  -30.0870 C   0  0  0  0  0  0
   54.3390   18.9820  -30.9110 C   0  0  0  0  0  0
   53.2240   19.9200  -31.3880 C   0  0  0  0  0  0
   53.0160   19.7640  -32.8820 C   0  0  0  0  0  0
   52.6010   21.0650  -33.4090 O   0  0  0  0  0  0
   51.6900   21.1790  -34.4100 C   0  0  0  0  0  0
   50.7210   20.4240  -34.4780 O   0  0  0  0  0  0
   51.9060   22.2590  -35.4540 C   0  0  0  0  0  0
   50.8190   22.1850  -36.5450 C   0  0  0  0  0  0
   50.9890   21.0810  -37.5880 C   0  0  0  0  0  0
   50.0710   20.8070  -38.3390 O   0  0  0  0  0  0
   52.1360   20.3850  -37.7150 O   0  5  0  0  0  0
   51.9180   19.9140  -30.5910 C   0  0  0  0  0  0
   51.7240   18.7630  -29.6250 C   0  0  0  0  0  0
   57.5153   16.7587  -21.4098 H   0  0  0  0  0  0
   57.9244   18.0488  -22.5909 H   0  0  0  0  0  0
   56.7964   16.7303  -23.0558 H   0  0  0  0  0  0
   56.6116   17.8871  -24.3948 H   0  0  0  0  0  0
   56.5985   17.9468  -27.7462 H   0  0  0  0  0  0
   55.6789   17.2538  -26.3675 H   0  0  0  0  0  0
   57.2878   18.0022  -26.0883 H   0  0  0  0  0  0
   53.4331   21.5595  -23.2208 H   0  0  0  0  0  0
   54.2801   19.3575  -20.4328 H   0  0  0  0  0  0
   52.9216   22.4237  -18.9272 H   0  0  0  0  0  0
   52.6780   20.6443  -18.9562 H   0  0  0  0  0  0
   55.0619   20.2977  -18.3334 H   0  0  0  0  0  0
   55.3274   22.0742  -18.3320 H   0  0  0  0  0  0
   53.4023   20.5493  -28.1116 H   0  0  0  0  0  0
   51.5600   19.7048  -25.6905 H   0  0  0  0  0  0
   50.9987   19.7011  -27.3968 H   0  0  0  0  0  0
   51.6118   17.4620  -24.9118 H   0  0  0  0  0  0
   52.3002   15.1222  -25.1175 H   0  0  0  0  0  0
   53.4401   14.2529  -27.1818 H   0  0  0  0  0  0
   53.6774   15.8648  -29.0862 H   0  0  0  0  0  0
   54.6004   17.2039  -29.6435 H   0  0  0  0  0  0
   53.1304   17.1598  -30.6749 H   0  0  0  0  0  0
   55.0392   19.5680  -30.2975 H   0  0  0  0  0  0
   54.8631   18.5957  -31.7976 H   0  0  0  0  0  0
   53.5926   20.9363  -31.1847 H   0  0  0  0  0  0
   53.9573   19.4425  -33.3516 H   0  0  0  0  0  0
   52.2375   19.0092  -33.0670 H   0  0  0  0  0  0
   51.8616   23.2475  -34.9735 H   0  0  0  0  0  0
   52.8915   22.1234  -35.9234 H   0  0  0  0  0  0
   49.8393   22.0125  -36.0754 H   0  0  0  0  0  0
   50.7958   23.1319  -37.1044 H   0  0  0  0  0  0
   51.8538   20.8301  -29.9854 H   0  0  0  0  0  0
   51.0653   19.8725  -31.2847 H   0  0  0  0  0  0
   51.3402   17.8786  -30.1547 H   0  0  0  0  0  0
   51.0213   19.0463  -28.8275 H   0  0  0  0  0  0
  1  2  1  0  0  0
  1 45  1  0  0  0
  1 46  1  0  0  0
  1 47  1  0  0  0
  2  3  1  0  0  0
  3  4  2  0  0  0
  3 10  1  0  0  0
  4  5  1  0  0  0
  4 48  1  0  0  0
  5  6  1  0  0  0
  5  8  2  0  0  0
  6  7  1  0  0  0
  7 49  1  0  0  0
  7 50  1  0  0  0
  7 51  1  0  0  0
  8  9  1  0  0  0
  8 19  1  0  0  0
  9 10  2  0  0  0
  9 52  1  0  0  0
 10 11  1  0  0  0
 11 12  1  0  0  0
 11 53  1  0  0  0
 12 13  2  0  0  0
 12 14  1  0  0  0
 14 15  1  0  0  0
 14 54  1  0  0  0
 14 55  1  0  0  0
 15 16  1  0  0  0
 15 56  1  0  0  0
 15 57  1  0  0  0
 16 17  2  0  0  0
 16 18  1  0  0  0
 19 20  2  0  0  0
 19 21  2  0  0  0
 19 22  1  0  0  0
 22 23  1  0  0  0
 22 58  1  0  0  0
 23 24  1  0  0  0
 23 59  1  0  0  0
 23 60  1  0  0  0
 24 25  2  0  0  0
 24 29  1  0  0  0
 25 26  1  0  0  0
 25 61  1  0  0  0
 26 27  2  0  0  0
 26 62  1  0  0  0
 27 28  1  0  0  0
 27 63  1  0  0  0
 28 29  2  0  0  0
 28 64  1  0  0  0
 29 30  1  0  0  0
 30 31  1  0  0  0
 30 44  1  0  0  0
 31 32  1  0  0  0
 31 65  1  0  0  0
 31 66  1  0  0  0
 32 33  1  0  0  0
 32 67  1  0  0  0
 32 68  1  0  0  0
 33 34  1  0  0  0
 33 43  1  0  0  0
 33 69  1  0  0  0
 34 35  1  0  0  0
 34 70  1  0  0  0
 34 71  1  0  0  0
 35 36  1  0  0  0
 36 37  2  0  0  0
 36 38  1  0  0  0
 38 39  1  0  0  0
 38 72  1  0  0  0
 38 73  1  0  0  0
 39 40  1  0  0  0
 39 74  1  0  0  0
 39 75  1  0  0  0
 40 41  2  0  0  0
 40 42  1  0  0  0
 43 44  1  0  0  0
 43 76  1  0  0  0
 43 77  1  0  0  0
 44 78  1  0  0  0
 44 79  1  0  0  0
M  CHG  2  18  -1  42  -1
M  END
> <s_m_source_file>
../4aaw_ligand.sdf

> <i_m_source_file_index>
1

> <s_epik_input>
Tz1DKFtPSF0pW0NIMl1bQ0gyXUMoPU8pW05IXWMxW2NIXWMoYyhPW0NIM10pW2NIXWMxT1tDSDNdKVMoPU8pKD1PKVtOSF1bQ0gyXWMyW2NIXVtjSF1bY0hdW2NIXWMyTjNbQ0gyXVtDSDJdW0NIXShbQ0gyXVtDSDJdMylbQ0gyXU9DKD1PKVtDSDJdW0NIMl1DKD1PKVtPSF0=

> <s_epik_cmdline>
J2VwaWtfYXBwJywgJy1pbWFlJywgJ2xpZ2FuZF9wcm8ubWFlJywgJy1vbWFlJywgJ2xpZ2FuZF9wcmVwLm1hZScsICctbXMnLCAnMScsICctcGgnLCAnNycsICctcGh0JywgJzAuNScsICctbnQn

> <r_lp_tautomer_probability>
1

> <r_epik_Ionization_Penalty>
  0.0308

> <r_epik_Ionization_Penalty_Charging>
  0.0072

> <r_epik_Ionization_Penalty_Neutral>
  0.0235

> <r_epik_State_Penalty>
  0.0189

> <r_epik_Charging_Adjusted_Penalty>
0.0260845227621247

> <i_epik_Tot_Q>
-2

> <i_epik_Tot_abs_Q>
2

> <s_epik_Chemistry_Notes>
This compound has an ester and may undergo hydrolysis at high or low pH.

$$$$
