4ab8_ligand
                    3D
 Schrodinger Suite 2020-3.
 27 28  0  0  1  0            999 V2000
  -21.6540    1.8780   14.0220 C   0  0  0  0  0  0
  -20.9480    1.4880   15.1370 C   0  0  0  0  0  0
  -22.5570    2.8990   14.1430 C   0  0  0  0  0  0
  -21.1600    2.1080   16.3400 C   0  0  0  0  0  0
  -22.7530    3.5430   15.3460 C   0  0  0  0  0  0
  -22.0560    3.1340   16.4580 C   0  0  0  0  0  0
  -23.3750    5.6390   17.4910 C   0  0  0  0  0  0
  -22.9970    5.6560   16.0290 C   0  0  0  0  0  0
  -23.4710    4.1890   17.9130 C   0  0  0  0  0  0
  -20.4300    1.7050   17.5590 C   0  0  0  0  0  0
  -19.1290    1.1590   17.2010 N   0  3  0  0  0  0
  -23.6730    4.5690   15.3870 O   0  0  0  0  0  0
  -22.1690    3.6650   17.7410 O   0  0  0  0  0  0
  -21.4973    1.3842   13.0630 H   0  0  0  0  0  0
  -20.2173    0.6826   15.0627 H   0  0  0  0  0  0
  -23.1327    3.2092   13.2710 H   0  0  0  0  0  0
  -22.6031    6.1613   18.0754 H   0  0  0  0  0  0
  -24.3421    6.1455   17.6256 H   0  0  0  0  0  0
  -23.3044    6.6129   15.5819 H   0  0  0  0  0  0
  -21.9077    5.5384   15.9305 H   0  0  0  0  0  0
  -23.7934    4.1334   18.9632 H   0  0  0  0  0  0
  -24.2028    3.6696   17.2768 H   0  0  0  0  0  0
  -20.2889    2.5815   18.2085 H   0  0  0  0  0  0
  -21.0087    0.9396   18.0968 H   0  0  0  0  0  0
  -18.5924    0.8616   18.1140 H   0  0  0  0  0  0
  -18.5459    1.9224   16.6651 H   0  0  0  0  0  0
  -19.2657    0.2804   16.5534 H   0  0  0  0  0  0
  1  2  2  0  0  0
  1  3  1  0  0  0
  1 14  1  0  0  0
  2  4  1  0  0  0
  2 15  1  0  0  0
  3  5  2  0  0  0
  3 16  1  0  0  0
  4  6  2  0  0  0
  4 10  1  0  0  0
  5  6  1  0  0  0
  5 12  1  0  0  0
  6 13  1  0  0  0
  7  8  1  0  0  0
  7  9  1  0  0  0
  7 17  1  0  0  0
  7 18  1  0  0  0
  8 12  1  0  0  0
  8 19  1  0  0  0
  8 20  1  0  0  0
  9 13  1  0  0  0
  9 21  1  0  0  0
  9 22  1  0  0  0
 10 11  1  0  0  0
 10 23  1  0  0  0
 10 24  1  0  0  0
 11 25  1  0  0  0
 11 26  1  0  0  0
 11 27  1  0  0  0
M  CHG  1  11   1
M  END
> <s_m_source_file>
../4ab8_ligand.sdf

> <i_m_source_file_index>
1

> <s_epik_input>
W2NIXTFbY0hdW2NIXWMoW0NIMl1bTkgzK10pYyhjMTIpT1tDSDJdW0NIMl1bQ0gyXU8y

> <s_epik_cmdline>
J2VwaWtfYXBwJywgJy1pbWFlJywgJ2xpZ2FuZF9wcm8ubWFlJywgJy1vbWFlJywgJ2xpZ2FuZF9wcmVwLm1hZScsICctbXMnLCAnMScsICctcGgnLCAnNycsICctcGh0JywgJzAuNScsICctbnQn

> <r_lp_tautomer_probability>
1

> <r_epik_Ionization_Penalty>
  0.0274

> <r_epik_Ionization_Penalty_Charging>
  0.0274

> <r_epik_Ionization_Penalty_Neutral>
  0.0000

> <r_epik_State_Penalty>
  0.0225

> <r_epik_Charging_Adjusted_Penalty>
0.049917876729666

> <i_epik_Tot_Q>
1

> <i_epik_Tot_abs_Q>
1

$$$$
