4abd_ligand
                    3D
 Schrodinger Suite 2020-3.
 26 27  0  0  1  0            999 V2000
    1.8020  -15.9750   18.3730 C   0  0  0  0  0  0
    3.0920  -15.7910   19.0890 N   0  3  0  0  0  0
    1.7080  -15.0870   17.1570 C   0  0  0  0  0  0
    3.0760  -11.9760   15.5910 N   0  0  0  0  0  0
    1.0770  -15.5940   16.0440 C   0  0  0  0  0  0
    1.1010  -14.9570   14.8260 C   0  0  0  0  0  0
    1.7340  -13.7140   14.6810 C   0  0  0  0  0  0
    2.3580  -13.2090   15.7950 C   0  0  0  0  0  0
    2.8670  -11.0380   14.6150 C   0  0  0  0  0  0
    3.7200   -9.9510   14.7630 C   0  0  0  0  0  0
    4.4440  -10.3570   15.9070 C   0  0  0  0  0  0
    4.1250  -11.5900   16.3960 C   0  0  0  0  0  0
    2.3900  -13.8880   16.9880 C   0  0  0  0  0  0
    1.7102  -17.0212   18.0459 H   0  0  0  0  0  0
    0.9694  -15.7275   19.0480 H   0  0  0  0  0  0
    3.1220  -16.4535   19.9666 H   0  0  0  0  0  0
    3.1838  -14.7448   19.4161 H   0  0  0  0  0  0
    3.9245  -16.0386   18.4140 H   0  0  0  0  0  0
    0.5374  -16.5370   16.1316 H   0  0  0  0  0  0
    0.6232  -15.4228   13.9641 H   0  0  0  0  0  0
    1.7308  -13.1764   13.7328 H   0  0  0  0  0  0
    2.1250  -11.1323   13.8221 H   0  0  0  0  0  0
    3.8063   -9.0430   14.1662 H   0  0  0  0  0  0
    5.2056   -9.7276   16.3673 H   0  0  0  0  0  0
    4.5861  -12.1348   17.2198 H   0  0  0  0  0  0
    2.9624  -13.4779   17.8201 H   0  0  0  0  0  0
  1  2  1  0  0  0
  1  3  1  0  0  0
  1 14  1  0  0  0
  1 15  1  0  0  0
  2 16  1  0  0  0
  2 17  1  0  0  0
  2 18  1  0  0  0
  3  5  2  0  0  0
  3 13  1  0  0  0
  4  8  1  0  0  0
  4  9  1  0  0  0
  4 12  1  0  0  0
  5  6  1  0  0  0
  5 19  1  0  0  0
  6  7  2  0  0  0
  6 20  1  0  0  0
  7  8  1  0  0  0
  7 21  1  0  0  0
  8 13  2  0  0  0
  9 10  2  0  0  0
  9 22  1  0  0  0
 10 11  1  0  0  0
 10 23  1  0  0  0
 11 12  2  0  0  0
 11 24  1  0  0  0
 12 25  1  0  0  0
 13 26  1  0  0  0
M  CHG  1   2   1
M  END
> <s_m_source_file>
../4abd_ligand.sdf

> <i_m_source_file_index>
1

> <s_epik_input>
W05IMytdW0NIMl1jMVtjSF1bY0hdW2NIXWMoW2NIXTEpLW4yW2NIXVtjSF1bY0hdW2NIXTI=

> <s_epik_cmdline>
J2VwaWtfYXBwJywgJy1pbWFlJywgJ2xpZ2FuZF9wcm8ubWFlJywgJy1vbWFlJywgJ2xpZ2FuZF9wcmVwLm1hZScsICctbXMnLCAnMScsICctcGgnLCAnNycsICctcGh0JywgJzAuNScsICctbnQn

> <r_epik_Ionization_Penalty>
  0.0340

> <r_epik_Ionization_Penalty_Charging>
  0.0340

> <r_epik_Ionization_Penalty_Neutral>
  0.0000

> <r_epik_State_Penalty>
  0.0282

> <r_epik_Charging_Adjusted_Penalty>
0.0622317272713034

> <i_epik_Tot_Q>
1

> <i_epik_Tot_abs_Q>
1

$$$$
