4abe_ligand
                    3D
 Schrodinger Suite 2020-3.
 25 26  0  0  1  0            999 V2000
   -1.8170   16.0610   18.2590 C   0  0  0  0  0  0
   -3.0940   15.9260   19.0130 N   0  3  0  0  0  0
   -1.7230   15.1360   17.0450 C   0  0  0  0  0  0
   -3.0610   11.9550   15.3360 N   0  0  0  0  0  0
   -0.9570   15.5620   15.9930 C   0  0  0  0  0  0
   -0.8960   14.8470   14.8230 C   0  0  0  0  0  0
   -1.5620   13.6560   14.6280 C   0  0  0  0  0  0
   -2.3440   13.2010   15.6380 C   0  0  0  0  0  0
   -2.6060   10.9080   14.5570 C   0  0  0  0  0  0
   -3.5600    9.9270   14.6450 C   0  0  0  0  0  0
   -4.5490   10.5020   15.4970 C   0  0  0  0  0  0
   -2.4120   13.9490   16.7980 C   0  0  0  0  0  0
   -4.2930   11.7620   15.8630 N   0  0  0  0  0  0
   -1.7140   17.0936   17.8942 H   0  0  0  0  0  0
   -0.9727   15.8204   18.9217 H   0  0  0  0  0  0
   -3.0900   16.6182   19.8679 H   0  0  0  0  0  0
   -3.1970   14.8934   19.3778 H   0  0  0  0  0  0
   -3.9383   16.1667   18.3503 H   0  0  0  0  0  0
   -0.3855   16.4854   16.0864 H   0  0  0  0  0  0
   -0.2903   15.2409   14.0068 H   0  0  0  0  0  0
   -1.4636   13.1001   13.6956 H   0  0  0  0  0  0
   -1.6771   10.8698   13.9880 H   0  0  0  0  0  0
   -3.5621    8.9431   14.1760 H   0  0  0  0  0  0
   -5.4374    9.9604   15.8218 H   0  0  0  0  0  0
   -3.0621   13.5782   17.5905 H   0  0  0  0  0  0
  1  2  1  0  0  0
  1  3  1  0  0  0
  1 14  1  0  0  0
  1 15  1  0  0  0
  2 16  1  0  0  0
  2 17  1  0  0  0
  2 18  1  0  0  0
  3  5  2  0  0  0
  3 12  1  0  0  0
  4  8  1  0  0  0
  4  9  1  0  0  0
  4 13  1  0  0  0
  5  6  1  0  0  0
  5 19  1  0  0  0
  6  7  2  0  0  0
  6 20  1  0  0  0
  7  8  1  0  0  0
  7 21  1  0  0  0
  8 12  2  0  0  0
  9 10  2  0  0  0
  9 22  1  0  0  0
 10 11  1  0  0  0
 10 23  1  0  0  0
 11 13  2  0  0  0
 11 24  1  0  0  0
 12 25  1  0  0  0
M  CHG  1   2   1
M  END
> <s_m_source_file>
../4abe_ligand.sdf

> <i_m_source_file_index>
1

> <s_epik_input>
W05IMytdW0NIMl1jMVtjSF1bY0hdW2NIXWMoW2NIXTEpLW4yW2NIXVtjSF1bY0hdbjI=

> <s_epik_cmdline>
J2VwaWtfYXBwJywgJy1pbWFlJywgJ2xpZ2FuZF9wcm8ubWFlJywgJy1vbWFlJywgJ2xpZ2FuZF9wcmVwLm1hZScsICctbXMnLCAnMScsICctcGgnLCAnNycsICctcGh0JywgJzAuNScsICctbnQn

> <r_lp_tautomer_probability>
1

> <r_epik_Ionization_Penalty>
  0.0325

> <r_epik_Ionization_Penalty_Charging>
  0.0325

> <r_epik_Ionization_Penalty_Neutral>
  0.0000

> <r_epik_State_Penalty>
  0.0269

> <r_epik_Charging_Adjusted_Penalty>
0.0594191103875452

> <i_epik_Tot_Q>
1

> <i_epik_Tot_abs_Q>
1

$$$$
