4abi_ligand
                    3D
 Schrodinger Suite 2020-3.
185188  0  0  1  0            999 V2000
  -26.2040  -11.0820  -10.9260 N   0  3  0  0  0  0
  -24.9670  -11.9150  -11.0180 C   0  0  0  0  0  0
  -23.6990  -11.1210  -10.7510 C   0  0  0  0  0  0
  -23.7000   -9.8840  -10.8320 O   0  0  0  0  0  0
  -22.6250  -11.8380  -10.4240 N   0  0  0  0  0  0
  -21.3360  -11.2240  -10.1350 C   0  0  2  0  0  0
  -20.6990  -10.7180  -11.4180 C   0  0  0  0  0  0
  -20.6520  -11.4290  -12.4230 O   0  0  0  0  0  0
  -20.3860  -12.2190   -9.4710 C   0  0  0  0  0  0
  -19.5460  -13.0170  -10.4570 C   0  0  0  0  0  0
  -18.2250  -13.4590   -9.8450 C   0  0  0  0  0  0
  -17.6570  -14.6060  -10.5520 N   0  0  0  0  0  0
  -17.8780  -15.8710  -10.2100 C   0  0  0  0  0  0
  -18.6510  -16.1510   -9.1680 N   0  0  0  0  0  0
  -17.3270  -16.8570  -10.9060 N   0  0  0  0  0  0
  -20.2130   -9.4830  -11.3740 N   0  0  0  0  0  0
  -19.5620   -8.8760  -12.5210 C   0  0  2  0  0  0
  -18.3620   -8.0690  -12.0670 C   0  0  0  0  0  0
  -18.3710   -7.5020  -10.9680 O   0  0  0  0  0  0
  -20.5340   -7.9360  -13.2300 C   0  0  0  0  0  0
  -22.0730   -8.7180  -13.7800 S   0  0  0  0  0  0
  -17.3480   -8.0040  -12.9260 N   0  0  0  0  0  0
  -16.2210   -7.0880  -12.7140 C   0  0  2  0  0  0
  -16.7370   -5.6730  -12.9010 C   0  0  0  0  0  0
  -17.8040   -5.4610  -13.5020 O   0  0  0  0  0  0
  -15.0910   -7.3210  -13.7330 C   0  0  2  0  0  0
  -15.5640   -7.0130  -15.0510 O   0  0  0  0  0  0
  -14.5940   -8.7560  -13.6800 C   0  0  0  0  0  0
  -15.9840   -4.6910  -12.4170 N   0  0  0  0  0  0
  -16.4420   -3.3020  -12.4640 C   0  0  2  0  0  0
  -15.6710   -2.4880  -13.5020 C   0  0  0  0  0  0
  -15.3310   -1.3230  -13.2720 O   0  0  0  0  0  0
  -16.3790   -2.6610  -11.0650 C   0  0  0  0  0  0
  -17.5320   -3.1090  -10.1970 C   0  0  0  0  0  0
  -17.3510   -2.7860   -8.7260 C   0  0  0  0  0  0
  -18.4910   -3.4110   -7.9290 C   0  0  0  0  0  0
  -18.4390   -2.9820   -6.5030 N   0  3  0  0  0  0
  -15.4030   -3.1190  -14.6410 N   0  0  0  0  0  0
  -14.7000   -2.4620  -15.7390 C   0  0  2  0  0  0
  -15.7090   -1.9220  -16.7480 C   0  0  0  0  0  0
  -16.9100   -2.2170  -16.6560 O   0  0  0  0  0  0
  -13.7610   -3.4620  -16.4130 C   0  0  0  0  0  0
  -14.4730   -4.6320  -16.8070 O   0  0  0  0  0  0
  -15.2230   -1.1060  -17.6860 N   0  0  0  0  0  0
  -16.0100   -0.7020  -18.8530 C   0  0  2  0  0  0
  -15.4730   -1.4820  -20.0540 C   0  0  0  0  0  0
  -14.2680   -1.5120  -20.2620 O   0  0  0  0  0  0
  -15.9260    0.8200  -19.0900 C   0  0  2  0  0  0
  -16.7690    1.5600  -18.0470 C   0  0  0  0  0  0
  -16.3790    1.1880  -20.5010 C   0  0  0  0  0  0
  -16.3470    2.9930  -17.8240 C   0  0  0  0  0  0
  -18.9070   -7.2010  -18.7280 O   0  0  0  0  0  0
  -18.2570   -6.9280  -17.7230 C   0  0  0  0  0  0
  -18.3970   -5.5840  -17.0500 C   0  0  2  0  0  0
  -19.6170   -5.6140  -16.1270 C   0  0  0  0  0  0
  -18.5330   -4.5050  -18.0500 N   0  0  0  0  0  0
  -17.6600   -3.9830  -18.9670 C   0  0  0  0  0  0
  -19.7190   -3.7720  -18.1970 N   0  0  0  0  0  0
  -19.5800   -2.8880  -19.1270 N   0  0  0  0  0  0
  -18.3300   -2.9700  -19.6360 C   0  0  0  0  0  0
  -17.7930   -2.0740  -20.7360 C   0  0  2  0  0  0
  -18.3220   -2.5310  -22.0900 C   0  0  0  0  0  0
  -17.2370   -3.4360  -22.6450 C   0  0  0  0  0  0
  -15.9320   -3.0430  -21.9540 C   0  0  0  0  0  0
  -16.3310   -2.1570  -20.8600 N   0  0  0  0  0  0
  -17.4010   -7.7660  -17.1500 N   0  0  0  0  0  0
  -17.4090   -9.1920  -17.3910 C   0  0  2  0  0  0
  -18.2000   -9.8870  -16.2800 C   0  0  0  0  0  0
  -17.8420   -9.7950  -15.1010 O   0  0  0  0  0  0
  -15.9700   -9.7410  -17.4540 C   0  0  2  0  0  0
  -15.1240   -8.9110  -18.4370 C   0  0  0  0  0  0
  -15.9730  -11.2170  -17.8300 C   0  0  0  0  0  0
  -13.7880   -8.4590  -17.8770 C   0  0  0  0  0  0
  -19.2640  -10.5900  -16.6700 N   0  0  0  0  0  0
  -20.2060  -11.1910  -15.7160 C   0  0  2  0  0  0
  -20.1920  -12.7200  -15.7000 C   0  0  0  0  0  0
  -19.8980  -13.3570  -16.7150 O   0  0  0  0  0  0
  -21.6210  -10.6880  -15.9990 C   0  0  0  0  0  0
  -21.8330   -8.9080  -15.7850 S   0  0  0  0  0  0
  -20.5190  -13.2980  -14.5410 N   0  0  0  0  0  0
  -20.5590  -14.7570  -14.3610 C   0  0  2  0  0  0
  -21.8480  -15.2540  -13.7090 C   0  0  0  0  0  0
  -22.6960  -14.4620  -13.2950 O   0  0  0  0  0  0
  -19.3470  -15.2340  -13.5560 C   0  0  0  0  0  0
  -18.0340  -14.9820  -14.2410 C   0  0  0  0  0  0
  -17.5820  -15.8390  -15.2450 C   0  0  0  0  0  0
  -17.2510  -13.8850  -13.8900 C   0  0  0  0  0  0
  -16.3720  -15.6060  -15.8840 C   0  0  0  0  0  0
  -16.0420  -13.6470  -14.5250 C   0  0  0  0  0  0
  -15.6050  -14.5070  -15.5250 C   0  0  0  0  0  0
  -22.0710  -16.4590  -13.5810 O   0  0  0  0  0  0
  -27.0845  -11.7096  -11.1281 H   0  0  0  0  0  0
  -26.1549  -10.2697  -11.6662 H   0  0  0  0  0  0
  -26.2832  -10.6535   -9.9160 H   0  0  0  0  0  0
  -25.0161  -12.7273  -10.2778 H   0  0  0  0  0  0
  -24.8878  -12.3436  -12.0280 H   0  0  0  0  0  0
  -22.7366  -12.9313  -10.3760 H   0  0  0  0  0  0
  -21.5606  -10.3926   -9.4506 H   0  0  0  0  0  0
  -19.6906  -11.6783   -8.8122 H   0  0  0  0  0  0
  -20.9668  -12.9406   -8.8778 H   0  0  0  0  0  0
  -20.1002  -13.9148  -10.7682 H   0  0  0  0  0  0
  -19.3278  -12.3968  -11.3389 H   0  0  0  0  0  0
  -17.5029  -12.6306   -9.8938 H   0  0  0  0  0  0
  -18.3848  -13.7447   -8.7948 H   0  0  0  0  0  0
  -17.0039  -14.4470  -11.4227 H   0  0  0  0  0  0
  -19.1095  -15.3361   -8.5886 H   0  0  0  0  0  0
  -18.8331  -17.1979   -8.8838 H   0  0  0  0  0  0
  -16.6858  -16.6288  -11.7702 H   0  0  0  0  0  0
  -20.3142   -8.9175  -10.4360 H   0  0  0  0  0  0
  -19.2535   -9.7075  -13.1716 H   0  0  0  0  0  0
  -20.8166   -7.1194  -12.5494 H   0  0  0  0  0  0
  -20.0515   -7.5168  -14.1252 H   0  0  0  0  0  0
  -17.3671   -8.6570  -13.8110 H   0  0  0  0  0  0
  -15.8525   -7.2791  -11.6953 H   0  0  0  0  0  0
  -14.2480   -6.6396  -13.5455 H   0  0  0  0  0  0
  -15.9624   -6.0119  -15.2724 H   0  0  0  0  0  0
  -14.2337   -8.9820  -12.6656 H   0  0  0  0  0  0
  -13.7715   -8.8859  -14.3987 H   0  0  0  0  0  0
  -15.4171   -9.4388  -13.9374 H   0  0  0  0  0  0
  -15.0053   -4.9328  -11.9770 H   0  0  0  0  0  0
  -17.4897   -3.3555  -12.7949 H   0  0  0  0  0  0
  -15.4394   -2.9499  -10.5713 H   0  0  0  0  0  0
  -16.4211   -1.5660  -11.1611 H   0  0  0  0  0  0
  -18.4556   -2.6127  -10.5294 H   0  0  0  0  0  0
  -17.6514   -4.1993  -10.2800 H   0  0  0  0  0  0
  -16.3908   -3.1933   -8.3766 H   0  0  0  0  0  0
  -17.3590   -1.6949   -8.5865 H   0  0  0  0  0  0
  -19.4538   -3.0968   -8.3583 H   0  0  0  0  0  0
  -18.4106   -4.5072   -7.9720 H   0  0  0  0  0  0
  -19.2697   -3.4451   -5.9503 H   0  0  0  0  0  0
  -18.5261   -1.8869   -6.4462 H   0  0  0  0  0  0
  -17.4828   -3.2973   -6.0599 H   0  0  0  0  0  0
  -15.7268   -4.1653  -14.7431 H   0  0  0  0  0  0
  -14.1251   -1.6312  -15.3039 H   0  0  0  0  0  0
  -13.3129   -3.0003  -17.3052 H   0  0  0  0  0  0
  -12.9652   -3.7491  -15.7099 H   0  0  0  0  0  0
  -13.9434   -5.4552  -17.3088 H   0  0  0  0  0  0
  -14.1951   -0.7350  -17.5606 H   0  0  0  0  0  0
  -17.0614   -0.9544  -18.6506 H   0  0  0  0  0  0
  -14.8767    1.1348  -18.9904 H   0  0  0  0  0  0
  -17.8203    1.5768  -18.3702 H   0  0  0  0  0  0
  -16.6912    1.0433  -17.0790 H   0  0  0  0  0  0
  -15.7638    0.6483  -21.2360 H   0  0  0  0  0  0
  -16.2645    2.2716  -20.6519 H   0  0  0  0  0  0
  -17.4351    0.9092  -20.6314 H   0  0  0  0  0  0
  -16.9973    3.4529  -17.0653 H   0  0  0  0  0  0
  -16.4328    3.5516  -18.7677 H   0  0  0  0  0  0
  -15.3036    3.0181  -17.4766 H   0  0  0  0  0  0
  -17.4801   -5.3616  -16.4845 H   0  0  0  0  0  0
  -19.4993   -6.4219  -15.3898 H   0  0  0  0  0  0
  -20.5239   -5.7913  -16.7237 H   0  0  0  0  0  0
  -19.7048   -4.6503  -15.6039 H   0  0  0  0  0  0
  -16.6324   -4.3034  -19.1386 H   0  0  0  0  0  0
  -18.0764   -1.0462  -20.4654 H   0  0  0  0  0  0
  -19.2705   -3.0702  -21.9501 H   0  0  0  0  0  0
  -18.4900   -1.6544  -22.7329 H   0  0  0  0  0  0
  -17.4897   -4.4850  -22.4313 H   0  0  0  0  0  0
  -17.1600   -3.2917  -23.7328 H   0  0  0  0  0  0
  -15.4285   -3.9467  -21.5801 H   0  0  0  0  0  0
  -15.2768   -2.5291  -22.6728 H   0  0  0  0  0  0
  -16.6611   -7.3283  -16.4637 H   0  0  0  0  0  0
  -17.9040   -9.3293  -18.3637 H   0  0  0  0  0  0
  -15.5115   -9.6664  -16.4569 H   0  0  0  0  0  0
  -14.9123   -9.5101  -19.3349 H   0  0  0  0  0  0
  -15.6780   -8.0048  -18.7231 H   0  0  0  0  0  0
  -16.5852  -11.7779  -17.1085 H   0  0  0  0  0  0
  -14.9426  -11.6016  -17.8137 H   0  0  0  0  0  0
  -16.3934  -11.3374  -18.8393 H   0  0  0  0  0  0
  -13.2497   -7.8756  -18.6385 H   0  0  0  0  0  0
  -13.1901   -9.3395  -17.5993 H   0  0  0  0  0  0
  -13.9558   -7.8343  -16.9873 H   0  0  0  0  0  0
  -19.4235  -10.7122  -17.7515 H   0  0  0  0  0  0
  -19.8380  -10.8502  -14.7370 H   0  0  0  0  0  0
  -21.8920  -10.9216  -17.0392 H   0  0  0  0  0  0
  -22.3288  -11.1808  -15.3162 H   0  0  0  0  0  0
  -20.7649  -12.6331  -13.6999 H   0  0  0  0  0  0
  -20.5292  -15.1474  -15.3890 H   0  0  0  0  0  0
  -19.3194  -14.7096  -12.5894 H   0  0  0  0  0  0
  -19.4250  -16.3175  -13.3832 H   0  0  0  0  0  0
  -18.1855  -16.7006  -15.5306 H   0  0  0  0  0  0
  -17.5923  -13.2067  -13.1080 H   0  0  0  0  0  0
  -16.0259  -16.2836  -16.6645 H   0  0  0  0  0  0
  -15.4355  -12.7871  -14.2405 H   0  0  0  0  0  0
  -14.6571  -14.3178  -16.0288 H   0  0  0  0  0  0
  -23.0048  -16.7984  -13.1090 H   0  0  0  0  0  0
  1  2  1  0  0  0
  1 92  1  0  0  0
  1 93  1  0  0  0
  1 94  1  0  0  0
  2  3  1  0  0  0
  2 95  1  0  0  0
  2 96  1  0  0  0
  3  4  2  0  0  0
  3  5  1  0  0  0
  5  6  1  0  0  0
  5 97  1  0  0  0
  6  7  1  0  0  0
  6  9  1  0  0  0
  6 98  1  0  0  0
  7  8  2  0  0  0
  7 16  1  0  0  0
  9 10  1  0  0  0
  9 99  1  0  0  0
  9100  1  0  0  0
 10 11  1  0  0  0
 10101  1  0  0  0
 10102  1  0  0  0
 11 12  1  0  0  0
 11103  1  0  0  0
 11104  1  0  0  0
 12 13  1  0  0  0
 12105  1  0  0  0
 13 14  1  0  0  0
 13 15  2  0  0  0
 14106  1  0  0  0
 14107  1  0  0  0
 15108  1  0  0  0
 16 17  1  0  0  0
 16109  1  0  0  0
 17 18  1  0  0  0
 17 20  1  0  0  0
 17110  1  0  0  0
 18 19  2  0  0  0
 18 22  1  0  0  0
 20 21  1  0  0  0
 20111  1  0  0  0
 20112  1  0  0  0
 21 79  1  0  0  0
 22 23  1  0  0  0
 22113  1  0  0  0
 23 24  1  0  0  0
 23 26  1  0  0  0
 23114  1  0  0  0
 24 25  2  0  0  0
 24 29  1  0  0  0
 26 27  1  0  0  0
 26 28  1  0  0  0
 26115  1  0  0  0
 27116  1  0  0  0
 28117  1  0  0  0
 28118  1  0  0  0
 28119  1  0  0  0
 29 30  1  0  0  0
 29120  1  0  0  0
 30 31  1  0  0  0
 30 33  1  0  0  0
 30121  1  0  0  0
 31 32  2  0  0  0
 31 38  1  0  0  0
 33 34  1  0  0  0
 33122  1  0  0  0
 33123  1  0  0  0
 34 35  1  0  0  0
 34124  1  0  0  0
 34125  1  0  0  0
 35 36  1  0  0  0
 35126  1  0  0  0
 35127  1  0  0  0
 36 37  1  0  0  0
 36128  1  0  0  0
 36129  1  0  0  0
 37130  1  0  0  0
 37131  1  0  0  0
 37132  1  0  0  0
 38 39  1  0  0  0
 38133  1  0  0  0
 39 40  1  0  0  0
 39 42  1  0  0  0
 39134  1  0  0  0
 40 41  2  0  0  0
 40 44  1  0  0  0
 42 43  1  0  0  0
 42135  1  0  0  0
 42136  1  0  0  0
 43137  1  0  0  0
 44 45  1  0  0  0
 44138  1  0  0  0
 45 46  1  0  0  0
 45 48  1  0  0  0
 45139  1  0  0  0
 46 47  2  0  0  0
 46 65  1  0  0  0
 48 49  1  0  0  0
 48 50  1  0  0  0
 48140  1  0  0  0
 49 51  1  0  0  0
 49141  1  0  0  0
 49142  1  0  0  0
 50143  1  0  0  0
 50144  1  0  0  0
 50145  1  0  0  0
 51146  1  0  0  0
 51147  1  0  0  0
 51148  1  0  0  0
 52 53  2  0  0  0
 53 54  1  0  0  0
 53 66  1  0  0  0
 54 55  1  0  0  0
 54 56  1  0  0  0
 54149  1  0  0  0
 55150  1  0  0  0
 55151  1  0  0  0
 55152  1  0  0  0
 56 57  1  0  0  0
 56 58  1  0  0  0
 57 60  2  0  0  0
 57153  1  0  0  0
 58 59  2  0  0  0
 59 60  1  0  0  0
 60 61  1  0  0  0
 61 62  1  0  0  0
 61 65  1  0  0  0
 61154  1  0  0  0
 62 63  1  0  0  0
 62155  1  0  0  0
 62156  1  0  0  0
 63 64  1  0  0  0
 63157  1  0  0  0
 63158  1  0  0  0
 64 65  1  0  0  0
 64159  1  0  0  0
 64160  1  0  0  0
 66 67  1  0  0  0
 66161  1  0  0  0
 67 68  1  0  0  0
 67 70  1  0  0  0
 67162  1  0  0  0
 68 69  2  0  0  0
 68 74  1  0  0  0
 70 71  1  0  0  0
 70 72  1  0  0  0
 70163  1  0  0  0
 71 73  1  0  0  0
 71164  1  0  0  0
 71165  1  0  0  0
 72166  1  0  0  0
 72167  1  0  0  0
 72168  1  0  0  0
 73169  1  0  0  0
 73170  1  0  0  0
 73171  1  0  0  0
 74 75  1  0  0  0
 74172  1  0  0  0
 75 76  1  0  0  0
 75 78  1  0  0  0
 75173  1  0  0  0
 76 77  2  0  0  0
 76 80  1  0  0  0
 78 79  1  0  0  0
 78174  1  0  0  0
 78175  1  0  0  0
 80 81  1  0  0  0
 80176  1  0  0  0
 81 82  1  0  0  0
 81 84  1  0  0  0
 81177  1  0  0  0
 82 83  2  0  0  0
 82 91  1  0  0  0
 84 85  1  0  0  0
 84178  1  0  0  0
 84179  1  0  0  0
 85 86  2  0  0  0
 85 87  1  0  0  0
 86 88  1  0  0  0
 86180  1  0  0  0
 87 89  2  0  0  0
 87181  1  0  0  0
 88 90  2  0  0  0
 88182  1  0  0  0
 89 90  1  0  0  0
 89183  1  0  0  0
 90184  1  0  0  0
 91185  1  0  0  0
M  CHG  2   1   1  37   1
M  END
> <s_m_source_file>
../4abi_ligand.sdf

> <i_m_source_file_index>
1

> <s_epik_input>
W2NIXTFbY0hdW2NIXVtjSF1bY0hdYzFbQ0gyXVtDQEBIXShDKD1PKVtPSF0pW05IXUMoPU8pW0NAQEhdKFtOSF1DKD1PKVtDQEhdKFtDQEBIXShbQ0gzXSlbQ0gyXVtDSDNdKVtOSF1DKD1PKVtDQEBIXTJbQ0gzXSlbQ0gyXVNTW0NIMl1bQ0BIXShbTkhdQyg9TylbQ0BASF0oW05IXUMoPU8pW0NIMl1bTkgzK10pW0NIMl1bQ0gyXVtDSDJdW05IXS9DKFtOSDJdKT1OXFtIXSlDKD1PKVtOSF1bQ0BASF0oW0NASF0oW09IXSlbQ0gzXSlDKD1PKVtOSF1bQ0BASF0oW0NIMl1bQ0gyXVtDSDJdW0NIMl1bTkgzK10pQyg9TylbTkhdW0NAQEhdKFtDSDJdW09IXSlDKD1PKVtOSF1bQ0BASF0oW0NAQEhdKFtDSDNdKVtDSDJdW0NIM10pQyg9TylOKFtDQEBIXTNjKFtjSF1uMjQpbm40KVtDSDJdW0NIMl1bQ0gyXTM=

> <s_epik_cmdline>
J2VwaWtfYXBwJywgJy1pbWFlJywgJ2xpZ2FuZF9wcm8ubWFlJywgJy1vbWFlJywgJ2xpZ2FuZF9wcmVwLm1hZScsICctbXMnLCAnMScsICctcGgnLCAnNycsICctcGh0JywgJzAuNScsICctbnQn

> <s_epik_pKa_notes>
Molecule size exceeds maximum supported for generating protonation states

> <s_epik_Chemistry_Notes>
This compound has an imine and may undergo hydrolysis.

$$$$
