4abj_ligand
                    3D
 Schrodinger Suite 2020-3.
178181  0  0  1  0            999 V2000
   23.2300  -11.5390   10.9790 N   0  3  0  0  0  0
   21.9780  -10.9550   10.5030 C   0  0  2  0  0  0
   21.0940  -10.5590   11.6940 C   0  0  0  0  0  0
   20.8210  -11.3700   12.5860 O   0  0  0  0  0  0
   21.2470  -11.8940    9.5260 C   0  0  0  0  0  0
   20.7600  -13.2170   10.1060 C   0  0  0  0  0  0
   19.5810  -13.7720    9.3140 C   0  0  0  0  0  0
   18.6950  -14.5860   10.1480 N   0  0  0  0  0  0
   17.3950  -14.7670    9.9220 C   0  0  0  0  0  0
   16.7990  -14.1930    8.8820 N   0  0  0  0  0  0
   16.6810  -15.5210   10.7450 N   0  0  0  0  0  0
   20.6860   -9.2950   11.7140 N   0  0  0  0  0  0
   19.8640   -8.7490   12.7880 C   0  0  2  0  0  0
   18.6450   -8.0350   12.2030 C   0  0  0  0  0  0
   18.6920   -7.5140   11.0800 O   0  0  0  0  0  0
   20.6630   -7.7430   13.6190 C   0  0  0  0  0  0
   22.2110   -8.3590   14.3350 S   0  0  0  0  0  0
   17.5530   -8.0140   12.9690 N   0  0  0  0  0  0
   16.4360   -7.1110   12.6770 C   0  0  2  0  0  0
   16.9270   -5.6810   12.8790 C   0  0  0  0  0  0
   17.9310   -5.4420   13.5710 O   0  0  0  0  0  0
   15.2260   -7.3400   13.6080 C   0  0  2  0  0  0
   15.6230   -7.0950   14.9620 O   0  0  0  0  0  0
   14.6630   -8.7510   13.4700 C   0  0  0  0  0  0
   16.2180   -4.7140   12.3030 N   0  0  0  0  0  0
   16.6420   -3.3130   12.4050 C   0  0  2  0  0  0
   15.8700   -2.5120   13.4540 C   0  0  0  0  0  0
   15.5010   -1.3540   13.2400 O   0  0  0  0  0  0
   16.6330   -2.6460   11.0260 C   0  0  0  0  0  0
   17.7660   -3.1770   10.1740 C   0  0  0  0  0  0
   17.6180   -2.8020    8.7190 C   0  0  0  0  0  0
   18.8030   -3.3530    7.9390 C   0  0  0  0  0  0
   18.7170   -2.9850    6.5010 N   0  3  0  0  0  0
   15.6440   -3.1520   14.6030 N   0  0  0  0  0  0
   14.9170   -2.5510   15.7260 C   0  0  2  0  0  0
   15.8590   -1.9500   16.7660 C   0  0  0  0  0  0
   17.0290   -2.3200   16.8170 O   0  0  0  0  0  0
   13.9960   -3.5890   16.3780 C   0  0  0  0  0  0
   14.6770   -4.8080   16.6240 O   0  0  0  0  0  0
   16.2190   -4.8260   18.9750 O   0  0  0  0  0  0
   17.2700   -4.2330   19.1910 C   0  0  0  0  0  0
   17.3380   -3.2330   20.3270 C   0  0  2  0  0  0
   17.7170   -3.9190   21.6350 C   0  0  0  0  0  0
   15.9950   -2.6250   20.4540 N   0  0  0  0  0  0
   15.4120   -1.5960   19.8610 C   0  0  0  0  0  0
   14.1110   -1.4580   20.3280 C   0  0  0  0  0  0
   13.9180   -2.4550   21.2320 N   0  0  0  0  0  0
   15.0970   -3.2240   21.3420 N   0  0  0  0  0  0
   15.8910   -0.6330   18.8460 C   0  0  1  0  0  0
   15.3230   -1.0060   17.5550 N   0  0  0  0  0  0
   15.5320    0.7900   19.2690 C   0  0  1  0  0  0
   16.1250    1.0910   20.6400 C   0  0  0  0  0  0
   16.0170    1.8190   18.2570 C   0  0  0  0  0  0
   17.4180    1.4760   17.8020 C   0  0  0  0  0  0
   18.3560   -4.4380   18.4160 N   0  0  0  0  0  0
   18.3970   -5.4760   17.3760 C   0  0  2  0  0  0
   18.2240   -6.9120   17.8770 C   0  0  0  0  0  0
   18.7240   -7.2620   18.9530 O   0  0  0  0  0  0
   19.7480   -5.3190   16.6690 C   0  0  0  0  0  0
   20.5740   -4.4970   17.6040 C   0  0  0  0  0  0
   19.6150   -3.6940   18.4390 C   0  0  0  0  0  0
   17.4970   -7.7140   17.1040 N   0  0  0  0  0  0
   17.3460   -9.1410   17.3550 C   0  0  2  0  0  0
   18.1850   -9.8880   16.3300 C   0  0  0  0  0  0
   17.8610   -9.9080   15.1320 O   0  0  0  0  0  0
   15.8780   -9.6040   17.2680 C   0  0  2  0  0  0
   14.9930   -8.7580   18.1910 C   0  0  0  0  0  0
   15.7760  -11.0860   17.6060 C   0  0  0  0  0  0
   13.5350   -8.7350   17.7880 C   0  0  0  0  0  0
   19.2600  -10.5060   16.8150 N   0  0  0  0  0  0
   20.2930  -11.0730   15.9480 C   0  0  2  0  0  0
   20.3070  -12.5990   15.9570 C   0  0  0  0  0  0
   19.8170  -13.2330   16.8980 O   0  0  0  0  0  0
   21.6640  -10.5160   16.3380 C   0  0  0  0  0  0
   21.7620   -8.7120   16.2920 S   0  0  0  0  0  0
   20.8730  -13.1740   14.8970 N   0  0  0  0  0  0
   20.8780  -14.6220   14.6840 C   0  0  2  0  0  0
   22.2650  -15.1320   14.2950 C   0  0  0  0  0  0
   22.9850  -14.4850   13.5320 O   0  0  0  0  0  0
   19.8570  -15.0000   13.6050 C   0  0  0  0  0  0
   18.4660  -14.4970   13.8830 C   0  0  0  0  0  0
   17.6040  -15.2110   14.7110 C   0  0  0  0  0  0
   18.0170  -13.3050   13.3160 C   0  0  0  0  0  0
   16.3210  -14.7470   14.9670 C   0  0  0  0  0  0
   16.7360  -12.8350   13.5710 C   0  0  0  0  0  0
   15.8880  -13.5580   14.3970 C   0  0  0  0  0  0
   22.6920  -16.2010   14.7360 O   0  0  0  0  0  0
   23.7205  -10.8398   11.6723 H   0  0  0  0  0  0
   23.8932  -11.7323   10.1230 H   0  0  0  0  0  0
   23.0188  -12.4844   11.5001 H   0  0  0  0  0  0
   22.2694  -10.0504    9.9491 H   0  0  0  0  0  0
   20.3542  -11.3880    9.1299 H   0  0  0  0  0  0
   21.9195  -12.1547    8.6955 H   0  0  0  0  0  0
   21.5770  -13.9529   10.0770 H   0  0  0  0  0  0
   20.4401  -13.0652   11.1474 H   0  0  0  0  0  0
   18.9935  -12.9396    8.8993 H   0  0  0  0  0  0
   19.9546  -14.4018    8.4932 H   0  0  0  0  0  0
   19.0939  -15.1014   11.0341 H   0  0  0  0  0  0
   17.3815  -13.5649    8.1920 H   0  0  0  0  0  0
   15.7232  -14.3460    8.7112 H   0  0  0  0  0  0
   17.1634  -16.0012   11.6091 H   0  0  0  0  0  0
   20.9930   -8.6526   10.8755 H   0  0  0  0  0  0
   19.5676   -9.6147   13.3985 H   0  0  0  0  0  0
   20.9373   -6.8835   12.9898 H   0  0  0  0  0  0
   20.0505   -7.3975   14.4649 H   0  0  0  0  0  0
   17.5007   -8.6918   13.8338 H   0  0  0  0  0  0
   16.1459   -7.3282   11.6384 H   0  0  0  0  0  0
   14.4238   -6.6200   13.3890 H   0  0  0  0  0  0
   16.0528   -6.1218   15.2416 H   0  0  0  0  0  0
   14.3624   -8.9254   12.4263 H   0  0  0  0  0  0
   13.7879   -8.8625   14.1271 H   0  0  0  0  0  0
   15.4327   -9.4826   13.7571 H   0  0  0  0  0  0
   15.3056   -4.9733   11.7460 H   0  0  0  0  0  0
   17.6761   -3.3705   12.7757 H   0  0  0  0  0  0
   15.6778   -2.8570   10.5229 H   0  0  0  0  0  0
   16.7531   -1.5589   11.1437 H   0  0  0  0  0  0
   18.7202   -2.7656   10.5350 H   0  0  0  0  0  0
   17.7915   -4.2747   10.2405 H   0  0  0  0  0  0
   16.6844   -3.2286    8.3235 H   0  0  0  0  0  0
   17.5897   -1.7065    8.6237 H   0  0  0  0  0  0
   19.7364   -2.9422    8.3514 H   0  0  0  0  0  0
   18.8176   -4.4499    8.0206 H   0  0  0  0  0  0
   19.5849   -3.3963    5.9648 H   0  0  0  0  0  0
   18.7106   -1.8894    6.4027 H   0  0  0  0  0  0
   17.7918   -3.3971    6.0718 H   0  0  0  0  0  0
   16.0323   -4.1779   14.6851 H   0  0  0  0  0  0
   14.3294   -1.7356   15.2790 H   0  0  0  0  0  0
   13.6246   -3.1986   17.3370 H   0  0  0  0  0  0
   13.1453   -3.7944   15.7116 H   0  0  0  0  0  0
   14.1452   -5.6508   17.0897 H   0  0  0  0  0  0
   18.0839   -2.4539   20.1109 H   0  0  0  0  0  0
   18.7156   -4.3696   21.5367 H   0  0  0  0  0  0
   16.9813   -4.7041   21.8638 H   0  0  0  0  0  0
   17.7274   -3.1781   22.4480 H   0  0  0  0  0  0
   13.3874   -0.6998   20.0286 H   0  0  0  0  0  0
   16.9830   -0.7006   18.7318 H   0  0  0  0  0  0
   14.4144   -0.5058   17.1887 H   0  0  0  0  0  0
   14.4354    0.8610   19.3178 H   0  0  0  0  0  0
   15.7701    0.3438   21.3650 H   0  0  0  0  0  0
   15.8102    2.0941   20.9634 H   0  0  0  0  0  0
   17.2227    1.0524   20.5812 H   0  0  0  0  0  0
   15.3444    1.8225   17.3866 H   0  0  0  0  0  0
   16.0211    2.8162   18.7213 H   0  0  0  0  0  0
   17.7598    2.2242   17.0717 H   0  0  0  0  0  0
   17.4182    0.4803   17.3344 H   0  0  0  0  0  0
   18.0949    1.4740   18.6691 H   0  0  0  0  0  0
   17.5227   -5.2907   16.7347 H   0  0  0  0  0  0
   20.1904   -6.3117   16.4990 H   0  0  0  0  0  0
   19.6000   -4.8133   15.7034 H   0  0  0  0  0  0
   21.1816   -5.1608   18.2366 H   0  0  0  0  0  0
   21.2355   -3.8361   17.0246 H   0  0  0  0  0  0
   19.4563   -2.6915   18.0149 H   0  0  0  0  0  0
   19.9673   -3.6014   19.4769 H   0  0  0  0  0  0
   16.9965   -7.2515   16.2405 H   0  0  0  0  0  0
   17.7060   -9.3044   18.3815 H   0  0  0  0  0  0
   15.5110   -9.4720   16.2395 H   0  0  0  0  0  0
   15.0421   -9.1585   19.2143 H   0  0  0  0  0  0
   15.3488   -7.7171   18.1872 H   0  0  0  0  0  0
   16.4215  -11.6622   16.9268 H   0  0  0  0  0  0
   14.7335  -11.4175   17.4904 H   0  0  0  0  0  0
   16.0993  -11.2482   18.6448 H   0  0  0  0  0  0
   12.9690   -8.1107   18.4951 H   0  0  0  0  0  0
   13.1347   -9.7595   17.8015 H   0  0  0  0  0  0
   13.4413   -8.3181   16.7744 H   0  0  0  0  0  0
   19.3565  -10.5826   17.9081 H   0  0  0  0  0  0
   20.0112  -10.7512   14.9346 H   0  0  0  0  0  0
   21.9087  -10.8291   17.3637 H   0  0  0  0  0  0
   22.4268  -10.9011   15.6453 H   0  0  0  0  0  0
   21.3515  -12.5085   14.1634 H   0  0  0  0  0  0
   20.5985  -15.0555   15.6556 H   0  0  0  0  0  0
   20.1705  -14.5769   12.6393 H   0  0  0  0  0  0
   19.7981  -16.0954   13.5235 H   0  0  0  0  0  0
   17.9401  -16.1442   15.1630 H   0  0  0  0  0  0
   18.6798  -12.7353   12.6647 H   0  0  0  0  0  0
   15.6543  -15.3159   15.6150 H   0  0  0  0  0  0
   16.3975  -11.9005   13.1235 H   0  0  0  0  0  0
   14.8812  -13.1922   14.5985 H   0  0  0  0  0  0
   23.6926  -16.5549   14.4468 H   0  0  0  0  0  0
  1  2  1  0  0  0
  1 88  1  0  0  0
  1 89  1  0  0  0
  1 90  1  0  0  0
  2  3  1  0  0  0
  2  5  1  0  0  0
  2 91  1  0  0  0
  3  4  2  0  0  0
  3 12  1  0  0  0
  5  6  1  0  0  0
  5 92  1  0  0  0
  5 93  1  0  0  0
  6  7  1  0  0  0
  6 94  1  0  0  0
  6 95  1  0  0  0
  7  8  1  0  0  0
  7 96  1  0  0  0
  7 97  1  0  0  0
  8  9  1  0  0  0
  8 98  1  0  0  0
  9 10  1  0  0  0
  9 11  2  0  0  0
 10 99  1  0  0  0
 10100  1  0  0  0
 11101  1  0  0  0
 12 13  1  0  0  0
 12102  1  0  0  0
 13 14  1  0  0  0
 13 16  1  0  0  0
 13103  1  0  0  0
 14 15  2  0  0  0
 14 18  1  0  0  0
 16 17  1  0  0  0
 16104  1  0  0  0
 16105  1  0  0  0
 17 75  1  0  0  0
 18 19  1  0  0  0
 18106  1  0  0  0
 19 20  1  0  0  0
 19 22  1  0  0  0
 19107  1  0  0  0
 20 21  2  0  0  0
 20 25  1  0  0  0
 22 23  1  0  0  0
 22 24  1  0  0  0
 22108  1  0  0  0
 23109  1  0  0  0
 24110  1  0  0  0
 24111  1  0  0  0
 24112  1  0  0  0
 25 26  1  0  0  0
 25113  1  0  0  0
 26 27  1  0  0  0
 26 29  1  0  0  0
 26114  1  0  0  0
 27 28  2  0  0  0
 27 34  1  0  0  0
 29 30  1  0  0  0
 29115  1  0  0  0
 29116  1  0  0  0
 30 31  1  0  0  0
 30117  1  0  0  0
 30118  1  0  0  0
 31 32  1  0  0  0
 31119  1  0  0  0
 31120  1  0  0  0
 32 33  1  0  0  0
 32121  1  0  0  0
 32122  1  0  0  0
 33123  1  0  0  0
 33124  1  0  0  0
 33125  1  0  0  0
 34 35  1  0  0  0
 34126  1  0  0  0
 35 36  1  0  0  0
 35 38  1  0  0  0
 35127  1  0  0  0
 36 37  2  0  0  0
 36 50  1  0  0  0
 38 39  1  0  0  0
 38128  1  0  0  0
 38129  1  0  0  0
 39130  1  0  0  0
 40 41  2  0  0  0
 41 42  1  0  0  0
 41 55  1  0  0  0
 42 43  1  0  0  0
 42 44  1  0  0  0
 42131  1  0  0  0
 43132  1  0  0  0
 43133  1  0  0  0
 43134  1  0  0  0
 44 45  1  0  0  0
 44 48  1  0  0  0
 45 46  2  0  0  0
 45 49  1  0  0  0
 46 47  1  0  0  0
 46135  1  0  0  0
 47 48  2  0  0  0
 49 50  1  0  0  0
 49 51  1  0  0  0
 49136  1  0  0  0
 50137  1  0  0  0
 51 52  1  0  0  0
 51 53  1  0  0  0
 51138  1  0  0  0
 52139  1  0  0  0
 52140  1  0  0  0
 52141  1  0  0  0
 53 54  1  0  0  0
 53142  1  0  0  0
 53143  1  0  0  0
 54144  1  0  0  0
 54145  1  0  0  0
 54146  1  0  0  0
 55 56  1  0  0  0
 55 61  1  0  0  0
 56 57  1  0  0  0
 56 59  1  0  0  0
 56147  1  0  0  0
 57 58  2  0  0  0
 57 62  1  0  0  0
 59 60  1  0  0  0
 59148  1  0  0  0
 59149  1  0  0  0
 60 61  1  0  0  0
 60150  1  0  0  0
 60151  1  0  0  0
 61152  1  0  0  0
 61153  1  0  0  0
 62 63  1  0  0  0
 62154  1  0  0  0
 63 64  1  0  0  0
 63 66  1  0  0  0
 63155  1  0  0  0
 64 65  2  0  0  0
 64 70  1  0  0  0
 66 67  1  0  0  0
 66 68  1  0  0  0
 66156  1  0  0  0
 67 69  1  0  0  0
 67157  1  0  0  0
 67158  1  0  0  0
 68159  1  0  0  0
 68160  1  0  0  0
 68161  1  0  0  0
 69162  1  0  0  0
 69163  1  0  0  0
 69164  1  0  0  0
 70 71  1  0  0  0
 70165  1  0  0  0
 71 72  1  0  0  0
 71 74  1  0  0  0
 71166  1  0  0  0
 72 73  2  0  0  0
 72 76  1  0  0  0
 74 75  1  0  0  0
 74167  1  0  0  0
 74168  1  0  0  0
 76 77  1  0  0  0
 76169  1  0  0  0
 77 78  1  0  0  0
 77 80  1  0  0  0
 77170  1  0  0  0
 78 79  2  0  0  0
 78 87  1  0  0  0
 80 81  1  0  0  0
 80171  1  0  0  0
 80172  1  0  0  0
 81 82  2  0  0  0
 81 83  1  0  0  0
 82 84  1  0  0  0
 82173  1  0  0  0
 83 85  2  0  0  0
 83174  1  0  0  0
 84 86  2  0  0  0
 84175  1  0  0  0
 85 86  1  0  0  0
 85176  1  0  0  0
 86177  1  0  0  0
 87178  1  0  0  0
M  CHG  2   1   1  33   1
M  END
> <s_m_source_file>
../4abj_ligand.sdf

> <i_m_source_file_index>
1

> <s_epik_input>
W0NIM11bQ0BIXTFDKD1PKU4oW0NIMl1bQ0gyXVtDSDJdMilbQ0BASF0yQyg9TylbTkhdW0NAQEhdKFtDQEBIXShbQ0gzXSlbQ0gyXVtDSDNdKUMoPU8pW05IXVtDQEhdKEMoPU8pW05IXVtDQEhdKEMoPU8pW09IXSlbQ0gyXWMzW2NIXVtjSF1bY0hdW2NIXVtjSF0zKVtDSDJdU1NbQ0gyXVtDQEhdKFtOSF1DKD1PKVtDQEBIXShbTkgzK10pW0NIMl1bQ0gyXVtDSDJdW05IXS9DKFtOSDJdKT1OXFtIXSlDKD1PKVtOSF1bQ0BASF0oW0NASF0oW09IXSlbQ0gzXSlDKD1PKVtOSF1bQ0BASF0oW0NIMl1bQ0gyXVtDSDJdW0NIMl1bTkgzK10pQyg9TylbTkhdW0NAQEhdKFtDSDJdW09IXSlDKD1PKVtOSF1bQ0BIXShjKG4xNClbY0hdbm40KVtDQEBIXShbQ0gzXSlbQ0gyXVtDSDNd

> <s_epik_cmdline>
J2VwaWtfYXBwJywgJy1pbWFlJywgJ2xpZ2FuZF9wcm8ubWFlJywgJy1vbWFlJywgJ2xpZ2FuZF9wcmVwLm1hZScsICctbXMnLCAnMScsICctcGgnLCAnNycsICctcGh0JywgJzAuNScsICctbnQn

> <s_epik_pKa_notes>
Molecule size exceeds maximum supported for generating protonation states

> <s_epik_Chemistry_Notes>
This compound has an imine and may undergo hydrolysis.

$$$$
