4abk_ligand
                    3D
 Schrodinger Suite 2020-3.
 57 60  0  0  1  0            999 V2000
   -0.1100   14.7680  -19.0830 N   0  0  0  0  0  0
    0.8970   14.0010  -19.4660 C   0  0  0  0  0  0
    1.7570   14.3680  -20.3980 N   0  0  0  0  0  0
    1.5970   15.5850  -20.9510 C   0  0  0  0  0  0
    0.5570   16.4220  -20.5870 C   0  0  0  0  0  0
   -0.3300   15.9950  -19.5910 C   0  0  0  0  0  0
   -1.3570   16.7750  -19.1610 N   0  0  0  0  0  0
    0.6660   17.5520  -21.3260 N   0  0  0  0  0  0
    1.7400   17.3780  -22.1180 C   0  0  0  0  0  0
    2.2980   16.1760  -21.9190 N   0  0  0  0  0  0
    6.8290   19.2920  -22.1500 P   0  0  1  0  0  0
    9.6930   18.8510  -21.6690 P   0  0  1  0  0  0
    3.4940   15.5660  -22.5440 C   0  0  1  0  0  0
    5.7350   19.6180  -21.2010 O   0  0  0  0  0  0
   10.2230   18.0350  -20.5660 O   0  0  0  0  0  0
   13.5520   22.0050  -21.2780 C   0  0  2  0  0  0
   14.1510   23.1610  -20.7470 O   0  0  0  0  0  0
    3.9730   16.1280  -23.8600 C   0  0  2  0  0  0
    3.1570   15.6150  -24.9100 O   0  0  0  0  0  0
    6.9920   20.1930  -23.3730 O   0  5  0  0  0  0
    9.8470   18.3680  -23.0680 O   0  5  0  0  0  0
   12.5650   22.5140  -22.3430 C   0  0  2  0  0  0
   13.1240   23.6080  -23.1240 O   0  0  0  0  0  0
    5.3720   15.5740  -23.9310 C   0  0  2  0  0  0
    5.3020   14.2430  -24.4400 O   0  0  0  0  0  0
    8.1410   19.1700  -21.2950 O   0  0  0  0  0  0
   11.3870   22.9410  -21.4940 C   0  0  2  0  0  0
   11.4140   24.3260  -21.1770 O   0  0  0  0  0  0
    5.8370   15.5520  -22.4460 C   0  0  2  0  0  0
    4.6470   15.8550  -21.6870 O   0  0  0  0  0  0
   11.5080   22.0750  -20.2110 C   0  0  2  0  0  0
   12.6900   21.2990  -20.3170 O   0  0  0  0  0  0
    6.8060   16.5930  -21.9780 C   0  0  0  0  0  0
    6.5740   17.8670  -22.7330 O   0  0  0  0  0  0
   10.3680   21.0050  -20.2690 C   0  0  0  0  0  0
   10.3170   20.2820  -21.5650 O   0  0  0  0  0  0
    1.0219   13.0268  -18.9932 H   0  0  0  0  0  0
   -2.0352   16.4081  -18.3765 H   0  0  0  0  0  0
   -1.5098   17.7730  -19.5975 H   0  0  0  0  0  0
    2.1080   18.1181  -22.8286 H   0  0  0  0  0  0
    3.1813   14.5181  -22.6631 H   0  0  0  0  0  0
   14.3944   21.3587  -21.5657 H   0  0  0  0  0  0
   14.8177   23.7721  -21.3731 H   0  0  0  0  0  0
    3.9034   17.2180  -23.9905 H   0  0  0  0  0  0
    2.1055   15.9275  -24.9922 H   0  0  0  0  0  0
   12.3060   21.8018  -23.1403 H   0  0  0  0  0  0
   13.9857   23.4286  -23.7838 H   0  0  0  0  0  0
    6.0389   16.1047  -24.6264 H   0  0  0  0  0  0
    4.9891   14.0676  -25.4799 H   0  0  0  0  0  0
   10.4316   22.8747  -22.0351 H   0  0  0  0  0  0
   11.3380   25.0753  -21.9787 H   0  0  0  0  0  0
    6.3238   14.5827  -22.2629 H   0  0  0  0  0  0
   11.5577   22.6912  -19.3012 H   0  0  0  0  0  0
    6.6604   16.7724  -20.9025 H   0  0  0  0  0  0
    7.8338   16.2435  -22.1555 H   0  0  0  0  0  0
   10.5247   20.2590  -19.4760 H   0  0  0  0  0  0
    9.3953   21.4972  -20.1223 H   0  0  0  0  0  0
  1  2  1  0  0  0
  1  6  2  0  0  0
  2  3  2  0  0  0
  2 37  1  0  0  0
  3  4  1  0  0  0
  4  5  2  0  0  0
  4 10  1  0  0  0
  5  6  1  0  0  0
  5  8  1  0  0  0
  6  7  1  0  0  0
  7 38  1  0  0  0
  7 39  1  0  0  0
  8  9  2  0  0  0
  9 10  1  0  0  0
  9 40  1  0  0  0
 10 13  1  0  0  0
 11 14  2  0  0  0
 11 20  1  0  0  0
 11 26  1  0  0  0
 11 34  1  0  0  0
 12 15  2  0  0  0
 12 21  1  0  0  0
 12 26  1  0  0  0
 12 36  1  0  0  0
 13 18  1  0  0  0
 13 30  1  0  0  0
 13 41  1  0  0  0
 16 17  1  0  0  0
 16 22  1  0  0  0
 16 32  1  0  0  0
 16 42  1  0  0  0
 17 43  1  0  0  0
 18 19  1  0  0  0
 18 24  1  0  0  0
 18 44  1  0  0  0
 19 45  1  0  0  0
 22 23  1  0  0  0
 22 27  1  0  0  0
 22 46  1  0  0  0
 23 47  1  0  0  0
 24 25  1  0  0  0
 24 29  1  0  0  0
 24 48  1  0  0  0
 25 49  1  0  0  0
 27 28  1  0  0  0
 27 31  1  0  0  0
 27 50  1  0  0  0
 28 51  1  0  0  0
 29 30  1  0  0  0
 29 33  1  0  0  0
 29 52  1  0  0  0
 31 32  1  0  0  0
 31 35  1  0  0  0
 31 53  1  0  0  0
 33 34  1  0  0  0
 33 54  1  0  0  0
 33 55  1  0  0  0
 35 36  1  0  0  0
 35 56  1  0  0  0
 35 57  1  0  0  0
M  CHG  2  20  -1  21  -1
M  END
> <s_m_source_file>
../4abk_ligand.sdf

> <i_m_source_file_index>
1

> <s_epik_input>
bjFbY0hdbmMoW05IMl0pYyhjMTIpbltjSF1uMltDQEhdM1tDQEhdKFtPSF0pW0NASF0oW09IXSlbQ0BIXShPMylbQ0gyXU9bUEBdKD1PKShbT0hdKU9bUEBAXSg9TykoW09IXSlPW0NIMl1bQ0BASF0oTzQpW0NAQEhdKFtPSF0pW0NAQEhdKFtPSF0pW0NASF00W09IXQ==

> <s_epik_cmdline>
J2VwaWtfYXBwJywgJy1pbWFlJywgJ2xpZ2FuZF9wcm8ubWFlJywgJy1vbWFlJywgJ2xpZ2FuZF9wcmVwLm1hZScsICctbXMnLCAnMScsICctcGgnLCAnNycsICctcGh0JywgJzAuNScsICctbnQn

> <r_lp_tautomer_probability>
1

> <r_epik_Ionization_Penalty>
  0.0012

> <r_epik_Ionization_Penalty_Charging>
  0.0006

> <r_epik_Ionization_Penalty_Neutral>
  0.0006

> <r_epik_State_Penalty>
 -0.0000

> <r_epik_Charging_Adjusted_Penalty>
0.000554568258717467

> <i_epik_Tot_Q>
-2

> <i_epik_Tot_abs_Q>
2

> <s_epik_Chemistry_Notes>
This compound contains an acetal/aminal-like group ( X-CH(R)-Y where X, Y are N, S, or O) that may be acid/base labile, releasing an aldehyde.

$$$$
