4abu_ligand
                    3D
 Schrodinger Suite 2020-3.
 25 26  0  0  1  0            999 V2000
   -0.2970    0.3710   -7.1870 C   0  0  0  0  0  0
    0.4800    0.0110   -8.2820 C   0  0  0  0  0  0
   -0.1240   -0.2640   -9.5030 C   0  0  0  0  0  0
   -1.5060   -0.1790   -9.6290 C   0  0  0  0  0  0
   -2.2830    0.1810   -8.5340 C   0  0  0  0  0  0
   -1.6780    0.4560   -7.3130 C   0  0  0  0  0  0
    0.2950    0.6400   -5.9920 O   0  0  0  0  0  0
   -0.2540   -0.1430   -5.0260 C   0  0  0  0  0  0
    0.4660   -0.4310   -3.8720 C   0  0  0  0  0  0
   -0.0950   -1.2310   -2.8840 C   0  0  0  0  0  0
   -1.3760   -1.7440   -3.0490 C   0  0  0  0  0  0
   -2.0960   -1.4570   -4.2030 C   0  0  0  0  0  0
   -1.5350   -0.6560   -5.1910 C   0  0  0  0  0  0
   -2.1710   -0.4820  -10.9730 C   0  0  0  0  0  0
   -3.3960   -0.5260  -11.0780 O   0  0  0  0  0  0
   -2.0740   -2.7410   -1.8190 Cl  0  0  0  0  0  0
    2.0610    0.2080   -3.6660 Cl  0  0  0  0  0  0
    1.8320   -0.0720   -8.1580 O   0  5  0  0  0  0
    0.4854   -0.5462  -10.3615 H   0  0  0  0  0  0
   -3.3665    0.2476   -8.6327 H   0  0  0  0  0  0
   -2.2872    0.7384   -6.4543 H   0  0  0  0  0  0
    0.4698   -1.4562   -1.9794 H   0  0  0  0  0  0
   -3.1004   -1.8600   -4.3331 H   0  0  0  0  0  0
   -2.1000   -0.4302   -6.0954 H   0  0  0  0  0  0
   -1.5367   -0.6620  -11.8535 H   0  0  0  0  0  0
  1  2  2  0  0  0
  1  6  1  0  0  0
  1  7  1  0  0  0
  2  3  1  0  0  0
  2 18  1  0  0  0
  3  4  2  0  0  0
  3 19  1  0  0  0
  4  5  1  0  0  0
  4 14  1  0  0  0
  5  6  2  0  0  0
  5 20  1  0  0  0
  6 21  1  0  0  0
  7  8  1  0  0  0
  8  9  2  0  0  0
  8 13  1  0  0  0
  9 10  1  0  0  0
  9 17  1  0  0  0
 10 11  2  0  0  0
 10 22  1  0  0  0
 11 12  1  0  0  0
 11 16  1  0  0  0
 12 13  2  0  0  0
 12 23  1  0  0  0
 13 24  1  0  0  0
 14 15  2  0  0  0
 14 25  1  0  0  0
M  CHG  1  18  -1
M  END
> <s_m_source_file>
../4abu_ligand.sdf

> <i_m_source_file_index>
1

> <s_epik_input>
W2NIXTFbY0hdYyhbQ0hdPU8pW2NIXWMoW09IXSljMU9jMmMoQ2wpW2NIXWMoQ2wpW2NIXVtjSF0y

> <s_epik_cmdline>
J2VwaWtfYXBwJywgJy1pbWFlJywgJ2xpZ2FuZF9wcm8ubWFlJywgJy1vbWFlJywgJ2xpZ2FuZF9wcmVwLm1hZScsICctbXMnLCAnMScsICctcGgnLCAnNycsICctcGh0JywgJzAuNScsICctbnQn

> <r_lp_tautomer_probability>
1

> <r_epik_Ionization_Penalty>
  0.3100

> <r_epik_Ionization_Penalty_Charging>
  0.3100

> <r_epik_Ionization_Penalty_Neutral>
  0.0000

> <r_epik_State_Penalty>
  0.3040

> <r_epik_Charging_Adjusted_Penalty>
0.61399122334787

> <i_epik_Tot_Q>
-1

> <i_epik_Tot_abs_Q>
1

$$$$
