4ac3_ligand
                    3D
 Schrodinger Suite 2020-3.
 60 62  0  0  1  0            999 V2000
   43.9180   41.1500   80.2640 C   0  0  0  0  0  0
   44.0470   39.7090   79.9980 O   0  0  0  0  0  0
   44.4520   38.9560   81.1050 C   0  0  0  0  0  0
   44.3370   39.4320   82.4230 C   0  0  0  0  0  0
   44.7370   38.6260   83.4500 C   0  0  0  0  0  0
   44.7420   39.0660   84.7580 O   0  0  0  0  0  0
   44.0770   40.3840   84.9730 C   0  0  0  0  0  0
   45.2730   37.3500   83.1650 C   0  0  0  0  0  0
   45.3130   36.8540   81.8660 C   0  0  0  0  0  0
   44.8750   37.6420   80.8440 C   0  0  0  0  0  0
   44.9120   37.2800   79.4850 N   0  0  0  0  0  0
   45.8380   36.4750   78.8610 C   0  0  0  0  0  0
   46.6530   35.8460   79.5690 O   0  0  0  0  0  0
   45.6810   36.2960   77.3440 C   0  0  0  0  0  0
   45.7660   36.3010   84.4620 S   0  0  0  0  0  0
   46.6890   36.9190   85.2940 O   0  0  0  0  0  0
   46.0100   35.0430   83.8310 O   0  0  0  0  0  0
   44.4240   36.0370   85.4810 N   0  0  3  0  0  0
   43.1130   35.5830   84.9690 C   0  0  0  0  0  0
   42.0940   36.6920   85.1560 C   0  0  0  0  0  0
   41.1720   36.8930   84.1150 C   0  0  0  0  0  0
   40.2340   37.9200   84.2570 C   0  0  0  0  0  0
   40.1890   38.7120   85.4080 C   0  0  0  0  0  0
   41.0730   38.4870   86.4810 C   0  0  0  0  0  0
   42.0250   37.4700   86.3550 C   0  0  0  0  0  0
   42.9120   37.2140   87.4090 N   0  0  0  0  0  0
   43.0920   38.2780   88.4100 C   0  0  0  0  0  0
   44.2410   37.8860   89.3970 C   0  0  0  0  0  0
   44.1110   36.4470   89.9350 C   0  0  0  0  0  0
   43.5810   35.4320   88.8850 C   0  0  0  0  0  0
   42.3910   36.0540   88.1340 C   0  0  0  0  0  0
   43.5975   41.6650   79.3464 H   0  0  0  0  0  0
   44.8892   41.5511   80.5895 H   0  0  0  0  0  0
   43.1709   41.3114   81.0550 H   0  0  0  0  0  0
   43.9360   40.4260   82.6212 H   0  0  0  0  0  0
   44.1296   40.6517   86.0386 H   0  0  0  0  0  0
   43.0236   40.3181   84.6630 H   0  0  0  0  0  0
   44.5875   41.1540   84.3759 H   0  0  0  0  0  0
   45.6890   35.8502   81.6685 H   0  0  0  0  0  0
   44.1399   37.6521   78.7955 H   0  0  0  0  0  0
   44.8948   36.9709   76.9746 H   0  0  0  0  0  0
   45.4031   35.2546   77.1245 H   0  0  0  0  0  0
   46.6326   36.5343   76.8463 H   0  0  0  0  0  0
   44.5203   36.3749   86.5234 H   0  0  0  0  0  0
   43.2014   35.3389   83.9001 H   0  0  0  0  0  0
   42.7922   34.6891   85.5239 H   0  0  0  0  0  0
   41.1876   36.2667   83.2230 H   0  0  0  0  0  0
   39.5224   38.1072   83.4528 H   0  0  0  0  0  0
   39.4575   39.5172   85.4762 H   0  0  0  0  0  0
   41.0167   39.0903   87.3870 H   0  0  0  0  0  0
   43.3527   39.2185   87.9026 H   0  0  0  0  0  0
   42.1573   38.4127   88.9741 H   0  0  0  0  0  0
   45.2095   37.9628   88.8812 H   0  0  0  0  0  0
   44.2306   38.5670   90.2608 H   0  0  0  0  0  0
   45.0968   36.0893   90.2671 H   0  0  0  0  0  0
   43.4115   36.4347   90.7838 H   0  0  0  0  0  0
   44.3823   35.1910   88.1710 H   0  0  0  0  0  0
   43.2557   34.5132   89.3948 H   0  0  0  0  0  0
   41.6116   36.3813   88.8379 H   0  0  0  0  0  0
   41.9615   35.3372   87.4187 H   0  0  0  0  0  0
  1  2  1  0  0  0
  1 32  1  0  0  0
  1 33  1  0  0  0
  1 34  1  0  0  0
  2  3  1  0  0  0
  3  4  2  0  0  0
  3 10  1  0  0  0
  4  5  1  0  0  0
  4 35  1  0  0  0
  5  6  1  0  0  0
  5  8  2  0  0  0
  6  7  1  0  0  0
  7 36  1  0  0  0
  7 37  1  0  0  0
  7 38  1  0  0  0
  8  9  1  0  0  0
  8 15  1  0  0  0
  9 10  2  0  0  0
  9 39  1  0  0  0
 10 11  1  0  0  0
 11 12  1  0  0  0
 11 40  1  0  0  0
 12 13  2  0  0  0
 12 14  1  0  0  0
 14 41  1  0  0  0
 14 42  1  0  0  0
 14 43  1  0  0  0
 15 16  2  0  0  0
 15 17  2  0  0  0
 15 18  1  0  0  0
 18 19  1  0  0  0
 18 44  1  0  0  0
 19 20  1  0  0  0
 19 45  1  0  0  0
 19 46  1  0  0  0
 20 21  2  0  0  0
 20 25  1  0  0  0
 21 22  1  0  0  0
 21 47  1  0  0  0
 22 23  2  0  0  0
 22 48  1  0  0  0
 23 24  1  0  0  0
 23 49  1  0  0  0
 24 25  2  0  0  0
 24 50  1  0  0  0
 25 26  1  0  0  0
 26 27  1  0  0  0
 26 31  1  0  0  0
 27 28  1  0  0  0
 27 51  1  0  0  0
 27 52  1  0  0  0
 28 29  1  0  0  0
 28 53  1  0  0  0
 28 54  1  0  0  0
 29 30  1  0  0  0
 29 55  1  0  0  0
 29 56  1  0  0  0
 30 31  1  0  0  0
 30 57  1  0  0  0
 30 58  1  0  0  0
 31 59  1  0  0  0
 31 60  1  0  0  0
M  END
> <s_m_source_file>
../4ac3_ligand.sdf

> <i_m_source_file_index>
1

> <s_epik_input>
W0NIM11PYzFbY0hdYyhPW0NIM10pYyhbY0hdYzFbTkhdQyg9TylbQ0gzXSlTKD1PKSg9TylbTkhdW0NIMl1jMltjSF1bY0hdW2NIXVtjSF1jMk4zW0NIMl1bQ0gyXVtDSDJdW0NIMl1bQ0gyXTM=

> <s_epik_cmdline>
J2VwaWtfYXBwJywgJy1pbWFlJywgJ2xpZ2FuZF9wcm8ubWFlJywgJy1vbWFlJywgJ2xpZ2FuZF9wcmVwLm1hZScsICctbXMnLCAnMScsICctcGgnLCAnNycsICctcGh0JywgJzAuNScsICctbnQn

> <r_lp_tautomer_probability>
1

> <r_epik_Ionization_Penalty>
  0.0123

> <r_epik_Ionization_Penalty_Charging>
  0.0000

> <r_epik_Ionization_Penalty_Neutral>
  0.0123

> <r_epik_State_Penalty>
  0.0095

> <r_epik_Charging_Adjusted_Penalty>
0.00950592201672347

> <i_epik_Tot_Q>
0

> <i_epik_Tot_abs_Q>
0

$$$$
