4acc_ligand
                    3D
 Schrodinger Suite 2020-3.
 55 57  0  0  1  0            999 V2000
   11.2090   21.8830   13.3280 C   0  0  0  0  0  0
   12.5290   21.9890   14.0130 N   0  3  0  0  0  0
   12.6720   21.1030   15.2010 C   0  0  0  0  0  0
   13.7700   22.1940   13.1830 C   0  0  0  0  0  0
   13.8000   21.3760   11.8970 C   0  0  0  0  0  0
   13.9710   19.9690   12.2990 N   0  0  3  0  0  0
   13.6810   18.7440   11.1430 S   0  0  0  0  0  0
   13.6900   17.5000   11.8930 O   0  0  0  0  0  0
   12.6320   19.0720   10.2030 O   0  0  0  0  0  0
   15.2170   18.8030   10.1890 C   0  0  0  0  0  0
   15.2120   19.1540    8.8470 C   0  0  0  0  0  0
   16.4060   19.1920    8.1530 C   0  0  0  0  0  0
   17.6130   18.8760    8.7670 C   0  0  0  0  0  0
   17.5880   18.5300   10.1070 C   0  0  0  0  0  0
   16.4080   18.5000   10.8260 C   0  0  0  0  0  0
   18.8730   18.8560    8.0330 C   0  0  0  0  0  0
   19.0530   19.5450    6.8510 C   0  0  0  0  0  0
   20.1710   19.4780    6.1170 N   0  0  0  0  0  0
   21.1550   18.7070    6.6130 C   0  0  0  0  0  0
   20.9980   18.0460    7.8200 C   0  0  0  0  0  0
   19.8600   18.0900    8.5320 N   0  0  0  0  0  0
   22.0660   17.1780    8.3690 C   0  0  0  0  0  0
   23.1560   17.0920    7.8240 O   0  0  0  0  0  0
   21.6590   16.4800    9.4900 N   0  0  0  0  0  0
   22.4590   15.6880   10.3250 C   0  0  0  0  0  0
   21.8450   15.0640   11.3910 C   0  0  0  0  0  0
   22.6020   14.2980   12.2610 C   0  0  0  0  0  0
   23.9590   14.1880   12.0090 C   0  0  0  0  0  0
   24.5750   14.7750   10.9710 N   0  0  0  0  0  0
   23.8240   15.5200   10.1540 C   0  0  0  0  0  0
   22.3320   18.5790    5.8790 N   0  0  0  0  0  0
   10.4176   21.7365   14.0778 H   0  0  0  0  0  0
   11.2223   21.0274   12.6368 H   0  0  0  0  0  0
   11.0134   22.8069   12.7640 H   0  0  0  0  0  0
   12.4466   23.0020   14.4339 H   0  0  0  0  0  0
   11.7065   21.0311   15.7231 H   0  0  0  0  0  0
   13.4270   21.5223   15.8823 H   0  0  0  0  0  0
   12.9882   20.1011   14.8752 H   0  0  0  0  0  0
   13.8479   23.2528   12.8953 H   0  0  0  0  0  0
   14.6551   21.9075   13.7699 H   0  0  0  0  0  0
   12.8555   21.5165   11.3510 H   0  0  0  0  0  0
   14.6394   21.7100   11.2695 H   0  0  0  0  0  0
   14.4347   19.7259   13.2664 H   0  0  0  0  0  0
   14.2755   19.3974    8.3451 H   0  0  0  0  0  0
   16.4018   19.4760    7.1007 H   0  0  0  0  0  0
   18.5220   18.2749   10.6076 H   0  0  0  0  0  0
   16.4152   18.2402   11.8846 H   0  0  0  0  0  0
   18.2405   20.1786    6.4953 H   0  0  0  0  0  0
   20.6062   16.5140    9.8069 H   0  0  0  0  0  0
   20.7718   15.1732   11.5472 H   0  0  0  0  0  0
   22.1452   13.7985   13.1154 H   0  0  0  0  0  0
   24.5617   13.5903   12.6929 H   0  0  0  0  0  0
   24.3077   16.0187    9.3141 H   0  0  0  0  0  0
   22.4437   19.1094    4.9218 H   0  0  0  0  0  0
   23.1497   17.9475    6.2565 H   0  0  0  0  0  0
  1  2  1  0  0  0
  1 32  1  0  0  0
  1 33  1  0  0  0
  1 34  1  0  0  0
  2  3  1  0  0  0
  2  4  1  0  0  0
  2 35  1  0  0  0
  3 36  1  0  0  0
  3 37  1  0  0  0
  3 38  1  0  0  0
  4  5  1  0  0  0
  4 39  1  0  0  0
  4 40  1  0  0  0
  5  6  1  0  0  0
  5 41  1  0  0  0
  5 42  1  0  0  0
  6  7  1  0  0  0
  6 43  1  0  0  0
  7  8  2  0  0  0
  7  9  2  0  0  0
  7 10  1  0  0  0
 10 11  2  0  0  0
 10 15  1  0  0  0
 11 12  1  0  0  0
 11 44  1  0  0  0
 12 13  2  0  0  0
 12 45  1  0  0  0
 13 14  1  0  0  0
 13 16  1  0  0  0
 14 15  2  0  0  0
 14 46  1  0  0  0
 15 47  1  0  0  0
 16 17  2  0  0  0
 16 21  1  0  0  0
 17 18  1  0  0  0
 17 48  1  0  0  0
 18 19  2  0  0  0
 19 20  1  0  0  0
 19 31  1  0  0  0
 20 21  2  0  0  0
 20 22  1  0  0  0
 22 23  2  0  0  0
 22 24  1  0  0  0
 24 25  1  0  0  0
 24 49  1  0  0  0
 25 26  2  0  0  0
 25 30  1  0  0  0
 26 27  1  0  0  0
 26 50  1  0  0  0
 27 28  2  0  0  0
 27 51  1  0  0  0
 28 29  1  0  0  0
 28 52  1  0  0  0
 29 30  2  0  0  0
 30 53  1  0  0  0
 31 54  1  0  0  0
 31 55  1  0  0  0
M  CHG  1   2   1
M  END
> <s_m_source_file>
../4acc_ligand.sdf

> <i_m_source_file_index>
1

> <s_epik_input>
W0NIM11bTkgrXShbQ0gzXSlbQ0gyXVtDSDJdW05IXVMoPU8pKD1PKWMxW2NIXVtjSF1jKFtjSF1bY0hdMSktYzJbY0hdbmMoW05IMl0pYyhuMilDKD1PKVtOSF1jM1tjSF1bY0hdW2NIXW5bY0hdMw==

> <s_epik_cmdline>
J2VwaWtfYXBwJywgJy1pbWFlJywgJ2xpZ2FuZF9wcm8ubWFlJywgJy1vbWFlJywgJ2xpZ2FuZF9wcmVwLm1hZScsICctbXMnLCAnMScsICctcGgnLCAnNycsICctcGh0JywgJzAuNScsICctbnQn

> <r_lp_tautomer_probability>
0.999999901280008

> <r_epik_Ionization_Penalty>
  0.0228

> <r_epik_Ionization_Penalty_Charging>
  0.0207

> <r_epik_Ionization_Penalty_Neutral>
  0.0021

> <r_epik_State_Penalty>
  0.0166

> <r_epik_Charging_Adjusted_Penalty>
0.0373627347166059

> <i_epik_Tot_Q>
1

> <i_epik_Tot_abs_Q>
1

$$$$
