4acf_ligand
                    3D
 Schrodinger Suite 2020-3.
 45 47  0  0  1  0            999 V2000
  -25.6740   88.6820    0.2860 O   0  0  0  0  0  0
  -26.2870   87.7260    0.7980 C   0  0  0  0  0  0
  -27.5160   87.5580    0.6600 O   0  5  0  0  0  0
  -25.4890   86.7500    1.6240 C   0  0  0  0  0  0
  -25.5200   87.1620    3.0040 O   0  0  0  0  0  0
  -26.1450   86.3890    3.9480 C   0  0  0  0  0  0
  -27.3070   85.6820    3.6450 C   0  0  0  0  0  0
  -27.9240   84.8970    4.6090 C   0  0  0  0  0  0
  -25.6080   86.3060    5.2290 C   0  0  0  0  0  0
  -26.2390   85.5200    6.1940 C   0  0  0  0  0  0
  -27.3880   84.7890    5.8840 C   0  0  0  0  0  0
  -28.0480   83.9730    6.9560 C   0  0  0  0  0  0
  -27.4350   83.5110    8.0510 N   0  0  0  0  0  0
  -28.3500   82.8640    8.7930 C   0  0  0  0  0  0
  -28.2450   82.2240    9.9640 C   0  0  0  0  0  0
  -29.3640   81.6210   10.5340 C   0  0  0  0  0  0
  -29.3390   83.6050    7.0210 C   0  0  0  0  0  0
  -29.5220   82.9280    8.1530 N   0  0  0  0  0  0
  -30.6360   82.3740    8.6560 C   0  0  0  0  0  0
  -30.5860   81.6940    9.8730 C   0  0  0  0  0  0
  -32.1620   80.9150   10.5830 Br  0  0  0  0  0  0
  -30.3180   83.8740    6.1270 N   0  0  0  0  0  0
  -31.0590   82.8350    5.4190 C   0  0  0  0  0  0
  -30.7070   82.7360    3.9260 C   0  0  0  0  0  0
  -31.5920   81.7260    3.1860 C   0  0  0  0  0  0
  -31.2170   81.5780    1.7220 C   0  0  0  0  0  0
  -25.9265   85.7453    1.5286 H   0  0  0  0  0  0
  -24.4487   86.7323    1.2671 H   0  0  0  0  0  0
  -27.7342   85.7459    2.6442 H   0  0  0  0  0  0
  -28.8395   84.3596    4.3617 H   0  0  0  0  0  0
  -24.6983   86.8526    5.4776 H   0  0  0  0  0  0
  -25.8297   85.4759    7.2033 H   0  0  0  0  0  0
  -27.2821   82.1746   10.4725 H   0  0  0  0  0  0
  -29.2831   81.0980   11.4869 H   0  0  0  0  0  0
  -31.5785   82.4552    8.1145 H   0  0  0  0  0  0
  -30.5463   84.9343    5.9437 H   0  0  0  0  0  0
  -30.8427   81.8566    5.8727 H   0  0  0  0  0  0
  -32.1372   83.0413    5.4889 H   0  0  0  0  0  0
  -30.8418   83.7192    3.4515 H   0  0  0  0  0  0
  -29.6601   82.4165    3.8165 H   0  0  0  0  0  0
  -31.4953   80.7378    3.6594 H   0  0  0  0  0  0
  -32.6409   82.0540    3.2330 H   0  0  0  0  0  0
  -31.8831   80.8438    1.2453 H   0  0  0  0  0  0
  -30.1753   81.2334    1.6434 H   0  0  0  0  0  0
  -31.3209   82.5496    1.2169 H   0  0  0  0  0  0
  1  2  2  0  0  0
  2  3  1  0  0  0
  2  4  1  0  0  0
  4  5  1  0  0  0
  4 27  1  0  0  0
  4 28  1  0  0  0
  5  6  1  0  0  0
  6  7  2  0  0  0
  6  9  1  0  0  0
  7  8  1  0  0  0
  7 29  1  0  0  0
  8 11  2  0  0  0
  8 30  1  0  0  0
  9 10  2  0  0  0
  9 31  1  0  0  0
 10 11  1  0  0  0
 10 32  1  0  0  0
 11 12  1  0  0  0
 12 13  1  0  0  0
 12 17  2  0  0  0
 13 14  2  0  0  0
 14 15  1  0  0  0
 14 18  1  0  0  0
 15 16  2  0  0  0
 15 33  1  0  0  0
 16 20  1  0  0  0
 16 34  1  0  0  0
 17 18  1  0  0  0
 17 22  1  0  0  0
 18 19  1  0  0  0
 19 20  2  0  0  0
 19 35  1  0  0  0
 20 21  1  0  0  0
 22 23  1  0  0  0
 22 36  1  0  0  0
 23 24  1  0  0  0
 23 37  1  0  0  0
 23 38  1  0  0  0
 24 25  1  0  0  0
 24 39  1  0  0  0
 24 40  1  0  0  0
 25 26  1  0  0  0
 25 41  1  0  0  0
 25 42  1  0  0  0
 26 43  1  0  0  0
 26 44  1  0  0  0
 26 45  1  0  0  0
M  CHG  1   3  -1
M  END
> <s_m_source_file>
../4acf_ligand.sdf

> <i_m_source_file_index>
1

> <s_epik_input>
Tz1DKFtPSF0pW0NIMl1PYzFbY0hdW2NIXWMoW2NIXVtjSF0xKS1jKG4yKWMobihjMjMpW2NIXWMoQnIpW2NIXVtjSF0zKVtOSF1bQ0gyXVtDSDJdW0NIMl1bQ0gzXQ==

> <s_epik_cmdline>
J2VwaWtfYXBwJywgJy1pbWFlJywgJ2xpZ2FuZF9wcm8ubWFlJywgJy1vbWFlJywgJ2xpZ2FuZF9wcmVwLm1hZScsICctbXMnLCAnMScsICctcGgnLCAnNycsICctcGh0JywgJzAuNScsICctbnQn

> <r_lp_tautomer_probability>
1

> <r_epik_Ionization_Penalty>
  0.0046

> <r_epik_Ionization_Penalty_Charging>
  0.0046

> <r_epik_Ionization_Penalty_Neutral>
  0.0000

> <r_epik_State_Penalty>
 -0.0000

> <r_epik_Charging_Adjusted_Penalty>
0.00460344349886042

> <i_epik_Tot_Q>
-1

> <i_epik_Tot_abs_Q>
1

$$$$
