4acg_ligand
                    3D
 Schrodinger Suite 2020-3.
 72 76  0  0  1  0            999 V2000
   18.0170   26.3730    9.6230 C   0  0  0  0  0  0
   18.0370   24.9360    9.9380 N   0  0  0  0  0  0
   18.2580   24.1300    8.7230 C   0  0  0  0  0  0
   17.9700   22.6500    9.0380 C   0  0  0  0  0  0
   18.5340   22.2130   10.3470 N   0  0  0  0  0  0
   18.8580   23.1510   11.4500 C   0  0  0  0  0  0
   19.0350   24.6060   10.9760 C   0  0  0  0  0  0
   18.8000   20.5950   10.5720 S   0  0  0  0  0  0
   18.8070   20.3240   11.9610 O   0  0  0  0  0  0
   18.0070   19.8580    9.6480 O   0  0  0  0  0  0
   20.4370   20.3170    9.9770 C   0  0  0  0  0  0
   20.6420   20.0930    8.6170 C   0  0  0  0  0  0
   21.9250   19.8850    8.1600 C   0  0  0  0  0  0
   23.0130   19.9570    9.0500 C   0  0  0  0  0  0
   22.7940   20.1860   10.4140 C   0  0  0  0  0  0
   21.5080   20.3660   10.8700 C   0  0  0  0  0  0
   24.3810   19.6790    8.5350 C   0  0  0  0  0  0
   25.2990   18.9070    9.2750 C   0  0  0  0  0  0
   26.5570   18.6360    8.7010 C   0  0  0  0  0  0
   26.8170   19.1460    7.3940 C   0  0  0  0  0  0
   25.9340   19.8850    6.7580 N   0  0  0  0  0  0
   24.7470   20.1490    7.2660 C   0  0  0  0  0  0
   27.9750   18.9120    6.7080 N   0  0  0  0  0  0
   27.4870   17.7400    9.4220 C   0  0  0  0  0  0
   28.5950   17.4930    8.9630 O   0  0  0  0  0  0
   27.0240   17.1380   10.5450 N   0  0  0  0  0  0
   27.6770   16.2560   11.4130 C   0  0  0  0  0  0
   29.0370   16.3810   11.7130 C   0  0  0  0  0  0
   29.6380   15.5260   12.5330 N   0  0  0  0  0  0
   28.9570   14.5820   13.1800 C   0  0  0  0  0  0
   27.6010   14.3920   12.9370 C   0  0  0  0  0  0
   26.9450   15.2390   12.0450 C   0  0  0  0  0  0
   25.4640   15.0320   11.8270 C   0  0  0  0  0  0
   24.6890   16.2880   11.8030 N   0  3  0  0  0  0
   24.8990   17.2200   12.9580 C   0  0  0  0  0  0
   23.4910   17.7960   13.2030 C   0  0  0  0  0  0
   22.6040   16.5380   12.9120 C   0  0  0  0  0  0
   23.2540   16.0050   11.6270 C   0  0  0  0  0  0
   17.2611   26.5680    8.8481 H   0  0  0  0  0  0
   19.0068   26.6816    9.2556 H   0  0  0  0  0  0
   17.7682   26.9437   10.5298 H   0  0  0  0  0  0
   17.5835   24.4759    7.9259 H   0  0  0  0  0  0
   19.3018   24.2412    8.3940 H   0  0  0  0  0  0
   16.8826   22.4871    9.0715 H   0  0  0  0  0  0
   18.4118   22.0158    8.2553 H   0  0  0  0  0  0
   18.0457   23.1394   12.1916 H   0  0  0  0  0  0
   19.7977   22.8413   11.9306 H   0  0  0  0  0  0
   20.0473   24.7270   10.5630 H   0  0  0  0  0  0
   18.9067   25.2803   11.8356 H   0  0  0  0  0  0
   19.7999   20.0825    7.9251 H   0  0  0  0  0  0
   22.0979   19.6642    7.1067 H   0  0  0  0  0  0
   23.6339   20.2214   11.1079 H   0  0  0  0  0  0
   21.3260   20.5469   11.9294 H   0  0  0  0  0  0
   25.0427   18.5296   10.2649 H   0  0  0  0  0  0
   24.0377   20.7429    6.6896 H   0  0  0  0  0  0
   28.7704   18.3034    7.1629 H   0  0  0  0  0  0
   28.1120   19.3322    5.7007 H   0  0  0  0  0  0
   25.9940   17.3234   10.8837 H   0  0  0  0  0  0
   29.6127   17.1922   11.2673 H   0  0  0  0  0  0
   29.4679   13.9516   13.9078 H   0  0  0  0  0  0
   27.0577   13.5907   13.4378 H   0  0  0  0  0  0
   25.3023   14.5279   10.8628 H   0  0  0  0  0  0
   25.0572   14.4106   12.6384 H   0  0  0  0  0  0
   25.0832   16.8197   10.9244 H   0  0  0  0  0  0
   25.2794   16.6542   13.8212 H   0  0  0  0  0  0
   25.6283   17.9940   12.6767 H   0  0  0  0  0  0
   23.4176   18.1565   14.2397 H   0  0  0  0  0  0
   23.3111   18.6316   12.5106 H   0  0  0  0  0  0
   22.6707   15.8386   13.7584 H   0  0  0  0  0  0
   21.5581   16.8503   12.7760 H   0  0  0  0  0  0
   22.8848   16.5258   10.7312 H   0  0  0  0  0  0
   23.1058   14.9215   11.5084 H   0  0  0  0  0  0
  1  2  1  0  0  0
  1 39  1  0  0  0
  1 40  1  0  0  0
  1 41  1  0  0  0
  2  3  1  0  0  0
  2  7  1  0  0  0
  3  4  1  0  0  0
  3 42  1  0  0  0
  3 43  1  0  0  0
  4  5  1  0  0  0
  4 44  1  0  0  0
  4 45  1  0  0  0
  5  6  1  0  0  0
  5  8  1  0  0  0
  6  7  1  0  0  0
  6 46  1  0  0  0
  6 47  1  0  0  0
  7 48  1  0  0  0
  7 49  1  0  0  0
  8  9  2  0  0  0
  8 10  2  0  0  0
  8 11  1  0  0  0
 11 12  2  0  0  0
 11 16  1  0  0  0
 12 13  1  0  0  0
 12 50  1  0  0  0
 13 14  2  0  0  0
 13 51  1  0  0  0
 14 15  1  0  0  0
 14 17  1  0  0  0
 15 16  2  0  0  0
 15 52  1  0  0  0
 16 53  1  0  0  0
 17 18  2  0  0  0
 17 22  1  0  0  0
 18 19  1  0  0  0
 18 54  1  0  0  0
 19 20  2  0  0  0
 19 24  1  0  0  0
 20 21  1  0  0  0
 20 23  1  0  0  0
 21 22  2  0  0  0
 22 55  1  0  0  0
 23 56  1  0  0  0
 23 57  1  0  0  0
 24 25  2  0  0  0
 24 26  1  0  0  0
 26 27  1  0  0  0
 26 58  1  0  0  0
 27 28  2  0  0  0
 27 32  1  0  0  0
 28 29  1  0  0  0
 28 59  1  0  0  0
 29 30  2  0  0  0
 30 31  1  0  0  0
 30 60  1  0  0  0
 31 32  2  0  0  0
 31 61  1  0  0  0
 32 33  1  0  0  0
 33 34  1  0  0  0
 33 62  1  0  0  0
 33 63  1  0  0  0
 34 35  1  0  0  0
 34 38  1  0  0  0
 34 64  1  0  0  0
 35 36  1  0  0  0
 35 65  1  0  0  0
 35 66  1  0  0  0
 36 37  1  0  0  0
 36 67  1  0  0  0
 36 68  1  0  0  0
 37 38  1  0  0  0
 37 69  1  0  0  0
 37 70  1  0  0  0
 38 71  1  0  0  0
 38 72  1  0  0  0
M  CHG  1  34   1
M  END
> <s_m_source_file>
../4acg_ligand.sdf

> <i_m_source_file_index>
1

> <s_epik_input>
W0NIM11bTkgrXTFbQ0gyXVtDSDJdTihbQ0gyXVtDSDJdMSlTKD1PKSg9TyljMltjSF1bY0hdYyhbY0hdW2NIXTIpLWMzW2NIXWMoYyhbTkgyXSluW2NIXTMpQyg9TylbTkhdYzRbY0hdbltjSF1bY0hdYzRbQ0gyXVtOSCtdNVtDSDJdW0NIMl1bQ0gyXVtDSDJdNQ==

> <s_epik_cmdline>
J2VwaWtfYXBwJywgJy1pbWFlJywgJ2xpZ2FuZF9wcm8ubWFlJywgJy1vbWFlJywgJ2xpZ2FuZF9wcmVwLm1hZScsICctbXMnLCAnMScsICctcGgnLCAnNycsICctcGh0JywgJzAuNScsICctbnQn

> <r_lp_tautomer_probability>
1

> <r_epik_Ionization_Penalty>
  0.2158

> <r_epik_Ionization_Penalty_Charging>
  0.0300

> <r_epik_Ionization_Penalty_Neutral>
  0.1859

> <r_epik_State_Penalty>
 -0.0000

> <r_epik_Charging_Adjusted_Penalty>
0.0299566181801522

> <i_epik_Tot_Q>
1

> <i_epik_Tot_abs_Q>
1

$$$$
