4ach_ligand
                    3D
 Schrodinger Suite 2020-3.
 59 61  0  0  1  0            999 V2000
   47.6880   42.3470   54.6820 C   0  0  0  0  0  0
   46.2310   42.4230   54.8910 N   0  0  0  0  0  0
   45.4830   42.2220   53.6340 C   0  0  0  0  0  0
   45.7800   41.4950   55.9400 C   0  0  0  0  0  0
   44.3050   41.7580   56.3010 C   0  0  0  0  0  0
   43.4420   42.1440   55.1380 N   0  0  0  0  0  0
   41.7740   41.9980   55.2570 S   0  0  0  0  0  0
   41.4090   42.0340   56.6360 O   0  0  0  0  0  0
   41.1980   42.8630   54.2750 O   0  0  0  0  0  0
   41.4500   40.3600   54.6890 C   0  0  0  0  0  0
   41.2580   40.1670   53.3170 C   0  0  0  0  0  0
   41.0050   38.8950   52.8560 C   0  0  0  0  0  0
   41.0010   37.8020   53.7550 C   0  0  0  0  0  0
   41.2420   37.9970   55.1350 C   0  0  0  0  0  0
   41.4670   39.2840   55.5960 C   0  0  0  0  0  0
   40.6800   36.4450   53.2260 C   0  0  0  0  0  0
   41.1710   36.0420   51.9670 C   0  0  0  0  0  0
   40.8570   34.8470   51.4860 N   0  0  0  0  0  0
   40.0270   34.0330   52.1520 C   0  0  0  0  0  0
   39.5000   34.4140   53.4150 C   0  0  0  0  0  0
   39.8300   35.6380   53.8830 N   0  0  0  0  0  0
   38.5670   33.5360   54.1970 C   0  0  0  0  0  0
   38.0850   32.5140   53.7200 O   0  0  0  0  0  0
   38.2670   33.9190   55.4630 N   0  0  0  0  0  0
   37.3620   33.2400   56.3990 C   0  0  0  0  0  0
   37.8360   37.3890   56.1110 C   0  0  0  0  0  0
   36.1690   34.1670   56.6710 C   0  0  0  0  0  0
   39.7330   32.7950   51.5980 N   0  0  0  0  0  0
   44.0210   42.6580   53.8570 C   0  0  0  0  0  0
   36.5920   35.5830   57.1040 C   0  0  0  0  0  0
   36.7260   36.4940   56.0000 O   0  0  0  0  0  0
   47.9825   43.0540   53.8925 H   0  0  0  0  0  0
   47.9623   41.3254   54.3803 H   0  0  0  0  0  0
   48.2065   42.6049   55.6172 H   0  0  0  0  0  0
   45.9371   42.8280   52.8362 H   0  0  0  0  0  0
   45.5182   41.1593   53.3523 H   0  0  0  0  0  0
   45.8795   40.4599   55.5813 H   0  0  0  0  0  0
   46.3967   41.6319   56.8406 H   0  0  0  0  0  0
   43.8666   40.8485   56.7377 H   0  0  0  0  0  0
   44.2468   42.5796   57.0301 H   0  0  0  0  0  0
   41.3078   41.0083   52.6257 H   0  0  0  0  0  0
   40.8074   38.7293   51.7969 H   0  0  0  0  0  0
   41.2505   37.1512   55.8225 H   0  0  0  0  0  0
   41.6560   39.4621   56.6546 H   0  0  0  0  0  0
   41.8080   36.7122   51.3898 H   0  0  0  0  0  0
   38.7836   34.8409   55.7684 H   0  0  0  0  0  0
   37.0136   32.2967   55.9531 H   0  0  0  0  0  0
   37.8965   33.0270   57.3365 H   0  0  0  0  0  0
   37.8654   38.0476   55.2304 H   0  0  0  0  0  0
   38.7696   36.8100   56.1672 H   0  0  0  0  0  0
   37.7266   37.9977   57.0207 H   0  0  0  0  0  0
   35.5645   34.2643   55.7572 H   0  0  0  0  0  0
   35.5510   33.7427   57.4760 H   0  0  0  0  0  0
   40.1504   32.5175   50.6188 H   0  0  0  0  0  0
   39.0826   32.0912   52.1381 H   0  0  0  0  0  0
   43.9660   43.7563   53.8844 H   0  0  0  0  0  0
   43.3961   42.2800   53.0344 H   0  0  0  0  0  0
   35.8374   35.9978   57.7885 H   0  0  0  0  0  0
   37.5644   35.5347   57.6160 H   0  0  0  0  0  0
  1  2  1  0  0  0
  1 32  1  0  0  0
  1 33  1  0  0  0
  1 34  1  0  0  0
  2  3  1  0  0  0
  2  4  1  0  0  0
  3 29  1  0  0  0
  3 35  1  0  0  0
  3 36  1  0  0  0
  4  5  1  0  0  0
  4 37  1  0  0  0
  4 38  1  0  0  0
  5  6  1  0  0  0
  5 39  1  0  0  0
  5 40  1  0  0  0
  6  7  1  0  0  0
  6 29  1  0  0  0
  7  8  2  0  0  0
  7  9  2  0  0  0
  7 10  1  0  0  0
 10 11  2  0  0  0
 10 15  1  0  0  0
 11 12  1  0  0  0
 11 41  1  0  0  0
 12 13  2  0  0  0
 12 42  1  0  0  0
 13 14  1  0  0  0
 13 16  1  0  0  0
 14 15  2  0  0  0
 14 43  1  0  0  0
 15 44  1  0  0  0
 16 17  2  0  0  0
 16 21  1  0  0  0
 17 18  1  0  0  0
 17 45  1  0  0  0
 18 19  2  0  0  0
 19 20  1  0  0  0
 19 28  1  0  0  0
 20 21  2  0  0  0
 20 22  1  0  0  0
 22 23  2  0  0  0
 22 24  1  0  0  0
 24 25  1  0  0  0
 24 46  1  0  0  0
 25 27  1  0  0  0
 25 47  1  0  0  0
 25 48  1  0  0  0
 26 31  1  0  0  0
 26 49  1  0  0  0
 26 50  1  0  0  0
 26 51  1  0  0  0
 27 30  1  0  0  0
 27 52  1  0  0  0
 27 53  1  0  0  0
 28 54  1  0  0  0
 28 55  1  0  0  0
 29 56  1  0  0  0
 29 57  1  0  0  0
 30 31  1  0  0  0
 30 58  1  0  0  0
 30 59  1  0  0  0
M  END
> <s_m_source_file>
../4ach_ligand.sdf

> <i_m_source_file_index>
1

> <s_epik_input>
W0NIM11bTkgrXTFbQ0gyXVtDSDJdTihbQ0gyXVtDSDJdMSlTKD1PKSg9TyljMltjSF1bY0hdYyhbY0hdW2NIXTIpLWMzW2NIXW5jKFtOSDJdKWMobjMpQyg9TylbTkhdW0NIMl1bQ0gyXVtDSDJdT1tDSDNd

> <s_epik_cmdline>
J2VwaWtfYXBwJywgJy1pbWFlJywgJ2xpZ2FuZF9wcm8ubWFlJywgJy1vbWFlJywgJ2xpZ2FuZF9wcmVwLm1hZScsICctbXMnLCAnMScsICctcGgnLCAnNycsICctcGh0JywgJzAuNScsICctbnQn

> <r_lp_tautomer_probability>
0.999999901280008

> <r_epik_Ionization_Penalty>
  0.1844

> <r_epik_Ionization_Penalty_Charging>
  0.0000

> <r_epik_Ionization_Penalty_Neutral>
  0.1844

> <r_epik_State_Penalty>
  0.1740

> <r_epik_Charging_Adjusted_Penalty>
0.173982679590382

> <i_epik_Tot_Q>
0

> <i_epik_Tot_abs_Q>
0

$$$$
