4aci_ligand
                    3D
 Schrodinger Suite 2020-3.
 18 17  0  0  1  0            999 V2000
  -11.1130    9.4630   37.0710 C   0  0  0  0  0  0
  -12.2910    9.1490   36.7650 O   0  0  0  0  0  0
  -10.2990    9.9130   36.1850 O   0  5  0  0  0  0
  -10.6430    9.3330   38.4790 C   0  0  0  0  0  0
  -11.7320    9.6290   39.4940 C   0  0  0  0  0  0
  -12.8620    8.8030   39.1690 O   0  0  0  0  0  0
  -11.2430    9.3090   40.8940 C   0  0  0  0  0  0
  -12.3000    9.5370   41.9790 C   0  0  0  0  0  0
  -13.5550    9.6900   41.7660 O   0  5  0  0  0  0
  -11.8820    9.6490   43.1710 O   0  0  0  0  0  0
  -12.2180   11.0740   39.3350 C   0  0  0  0  0  0
  -13.4170   11.3830   39.4610 O   0  5  0  0  0  0
  -11.4100   11.9580   39.1020 O   0  0  0  0  0  0
  -10.2911    8.3057   38.6547 H   0  0  0  0  0  0
   -9.8181   10.0386   38.6568 H   0  0  0  0  0  0
  -12.7716    7.7074   39.2074 H   0  0  0  0  0  0
  -10.9425    8.2521   40.9448 H   0  0  0  0  0  0
  -10.3805    9.9474   41.1360 H   0  0  0  0  0  0
  1  2  2  0  0  0
  1  3  1  0  0  0
  1  4  1  0  0  0
  4  5  1  0  0  0
  4 14  1  0  0  0
  4 15  1  0  0  0
  5  6  1  0  0  0
  5  7  1  0  0  0
  5 11  1  0  0  0
  6 16  1  0  0  0
  7  8  1  0  0  0
  7 17  1  0  0  0
  7 18  1  0  0  0
  8  9  1  0  0  0
  8 10  2  0  0  0
 11 12  1  0  0  0
 11 13  2  0  0  0
M  CHG  3   3  -1   9  -1  12  -1
M  END
> <s_m_source_file>
../4aci_ligand.sdf

> <i_m_source_file_index>
1

> <s_epik_input>
Tz1DKFtPSF0pW0NIMl1DKFtPSF0pKEMoPU8pW09IXSlbQ0gyXUMoPU8pW09IXQ==

> <s_epik_cmdline>
J2VwaWtfYXBwJywgJy1pbWFlJywgJ2xpZ2FuZF9wcm8ubWFlJywgJy1vbWFlJywgJ2xpZ2FuZF9wcmVwLm1hZScsICctbXMnLCAnMScsICctcGgnLCAnNycsICctcGh0JywgJzAuNScsICctbnQn

> <r_lp_tautomer_probability>
1

> <r_epik_Ionization_Penalty>
  0.0046

> <r_epik_Ionization_Penalty_Charging>
  0.0046

> <r_epik_Ionization_Penalty_Neutral>
  0.0000

> <r_epik_State_Penalty>
 -0.0000

> <r_epik_Charging_Adjusted_Penalty>
0.0045906918398983

> <i_epik_Tot_Q>
-3

> <i_epik_Tot_abs_Q>
3

$$$$
