4acm_ligand
                    3D
 Schrodinger Suite 2020-3.
 55 57  0  0  1  0            999 V2000
    5.3390   20.3560    6.9990 C   0  0  0  0  0  0
    4.7030   21.6270    7.3360 N   0  3  0  0  0  0
    3.3190   21.4020    7.7540 C   0  0  0  0  0  0
    4.7730   22.5750    6.2180 C   0  0  0  0  0  0
    4.7010   24.0610    6.5590 C   0  0  0  0  0  0
    5.7890   24.4290    7.4760 N   0  0  3  0  0  0
    6.5320   25.8560    7.3410 S   0  0  0  0  0  0
    7.1710   25.8760    6.0610 O   0  0  0  0  0  0
    7.3250   26.0170    8.5230 O   0  0  0  0  0  0
    5.2920   27.1050    7.3690 C   0  0  0  0  0  0
    4.4170   27.1680    8.4390 C   0  0  0  0  0  0
    3.4570   28.1620    8.4780 C   0  0  0  0  0  0
    3.3650   29.1270    7.4750 C   0  0  0  0  0  0
    4.2670   29.0400    6.4080 C   0  0  0  0  0  0
    5.2350   28.0520    6.3560 C   0  0  0  0  0  0
    2.3320   30.1930    7.5330 C   0  0  0  0  0  0
    2.4550   31.4010    6.8410 C   0  0  0  0  0  0
    1.6350   32.4370    7.0490 N   0  0  0  0  0  0
    0.6320   32.2920    7.9420 C   0  0  0  0  0  0
    0.4920   31.0440    8.6590 C   0  0  0  0  0  0
    1.3380   30.0240    8.4230 N   0  0  0  0  0  0
   -0.5780   30.8060    9.6850 C   0  0  0  0  0  0
   -1.4700   31.6310    9.8490 O   0  0  0  0  0  0
   -0.4680   29.6420   10.3590 N   0  0  0  0  0  0
   -1.3440   29.1150   11.3360 C   0  0  0  0  0  0
   -0.8480   28.1230   12.1650 C   0  0  0  0  0  0
   -1.6720   27.5580   13.1190 C   0  0  0  0  0  0
   -2.9820   27.9790   13.1910 C   0  0  0  0  0  0
   -3.4950   28.9330   12.4080 N   0  0  0  0  0  0
   -2.6820   29.4790   11.4940 C   0  0  0  0  0  0
   -0.1680   33.3350    8.1730 N   0  0  0  0  0  0
    5.2681   19.6716    7.8573 H   0  0  0  0  0  0
    6.3974   20.5291    6.7545 H   0  0  0  0  0  0
    4.8304   19.9102    6.1315 H   0  0  0  0  0  0
    5.2535   22.0720    8.1780 H   0  0  0  0  0  0
    3.3002   20.6888    8.5913 H   0  0  0  0  0  0
    2.7432   20.9928    6.9108 H   0  0  0  0  0  0
    2.8731   22.3552    8.0742 H   0  0  0  0  0  0
    5.7251   22.4418    5.6834 H   0  0  0  0  0  0
    3.9363   22.3908    5.5281 H   0  0  0  0  0  0
    4.7935   24.6537    5.6369 H   0  0  0  0  0  0
    3.7367   24.2804    7.0407 H   0  0  0  0  0  0
    5.9958   23.8092    8.3609 H   0  0  0  0  0  0
    4.4842   26.4385    9.2461 H   0  0  0  0  0  0
    2.7557   28.1924    9.3119 H   0  0  0  0  0  0
    4.2056   29.7677    5.5988 H   0  0  0  0  0  0
    5.9443   28.0181    5.5291 H   0  0  0  0  0  0
    3.2505   31.5029    6.1028 H   0  0  0  0  0  0
    0.3867   28.9758   10.1702 H   0  0  0  0  0  0
    0.1852   27.7903   12.0655 H   0  0  0  0  0  0
   -1.2940   26.7956   13.8001 H   0  0  0  0  0  0
   -3.6351   27.5087   13.9261 H   0  0  0  0  0  0
   -3.0875   30.2494   10.8381 H   0  0  0  0  0  0
   -0.0314   34.2687    7.6077 H   0  0  0  0  0  0
   -0.9639   33.2609    8.9286 H   0  0  0  0  0  0
  1  2  1  0  0  0
  1 32  1  0  0  0
  1 33  1  0  0  0
  1 34  1  0  0  0
  2  3  1  0  0  0
  2  4  1  0  0  0
  2 35  1  0  0  0
  3 36  1  0  0  0
  3 37  1  0  0  0
  3 38  1  0  0  0
  4  5  1  0  0  0
  4 39  1  0  0  0
  4 40  1  0  0  0
  5  6  1  0  0  0
  5 41  1  0  0  0
  5 42  1  0  0  0
  6  7  1  0  0  0
  6 43  1  0  0  0
  7  8  2  0  0  0
  7  9  2  0  0  0
  7 10  1  0  0  0
 10 11  2  0  0  0
 10 15  1  0  0  0
 11 12  1  0  0  0
 11 44  1  0  0  0
 12 13  2  0  0  0
 12 45  1  0  0  0
 13 14  1  0  0  0
 13 16  1  0  0  0
 14 15  2  0  0  0
 14 46  1  0  0  0
 15 47  1  0  0  0
 16 17  2  0  0  0
 16 21  1  0  0  0
 17 18  1  0  0  0
 17 48  1  0  0  0
 18 19  2  0  0  0
 19 20  1  0  0  0
 19 31  1  0  0  0
 20 21  2  0  0  0
 20 22  1  0  0  0
 22 23  2  0  0  0
 22 24  1  0  0  0
 24 25  1  0  0  0
 24 49  1  0  0  0
 25 26  2  0  0  0
 25 30  1  0  0  0
 26 27  1  0  0  0
 26 50  1  0  0  0
 27 28  2  0  0  0
 27 51  1  0  0  0
 28 29  1  0  0  0
 28 52  1  0  0  0
 29 30  2  0  0  0
 30 53  1  0  0  0
 31 54  1  0  0  0
 31 55  1  0  0  0
M  CHG  1   2   1
M  END
> <s_m_source_file>
../4acm_ligand.sdf

> <i_m_source_file_index>
1

> <s_epik_input>
W0NIM11bTkgrXShbQ0gzXSlbQ0gyXVtDSDJdW05IXVMoPU8pKD1PKWMxW2NIXVtjSF1jKFtjSF1bY0hdMSktYzJbY0hdbmMoW05IMl0pYyhuMilDKD1PKVtOSF1jM1tjSF1bY0hdW2NIXW5bY0hdMw==

> <s_epik_cmdline>
J2VwaWtfYXBwJywgJy1pbWFlJywgJ2xpZ2FuZF9wcm8ubWFlJywgJy1vbWFlJywgJ2xpZ2FuZF9wcmVwLm1hZScsICctbXMnLCAnMScsICctcGgnLCAnNycsICctcGh0JywgJzAuNScsICctbnQn

> <r_lp_tautomer_probability>
0.999999901280008

> <r_epik_Ionization_Penalty>
  0.0228

> <r_epik_Ionization_Penalty_Charging>
  0.0207

> <r_epik_Ionization_Penalty_Neutral>
  0.0021

> <r_epik_State_Penalty>
  0.0166

> <r_epik_Charging_Adjusted_Penalty>
0.0373627347166059

> <i_epik_Tot_Q>
1

> <i_epik_Tot_abs_Q>
1

$$$$
