4acu_ligand
                    3D
 Schrodinger Suite 2020-3.
 53 57  0  0  1  0            999 V2000
    1.3900   -3.1140  -16.4730 C   0  0  0  0  0  0
    1.6530   -2.7230  -17.8260 O   0  0  0  0  0  0
    2.9620   -2.9570  -18.2380 C   0  0  0  0  0  0
    3.7430   -3.9810  -17.7380 C   0  0  0  0  0  0
    5.0040   -4.1700  -18.2690 C   0  0  0  0  0  0
    5.4960   -3.3120  -19.2340 C   0  0  0  0  0  0
    4.7280   -2.2900  -19.7650 C   0  0  0  0  0  0
    3.4420   -2.1660  -19.2720 C   0  0  0  0  0  0
    2.6550   -1.1930  -19.7680 F   0  0  0  0  0  0
    5.3110   -1.3190  -20.6850 C   0  0  0  0  0  0
    6.0820   -1.6970  -21.7680 C   0  0  0  0  0  0
    6.6810   -0.7380  -22.5690 C   0  0  0  0  0  0
    6.5150    0.6080  -22.2870 C   0  0  0  0  0  0
    5.7280    1.0250  -21.2230 C   0  0  0  0  0  0
    5.1590    0.0380  -20.4370 C   0  0  0  0  0  0
    5.5290    2.4890  -20.8780 C   0  0  2  0  0  0
    6.2590    2.7650  -19.5760 C   0  0  0  0  0  0
    7.5300    2.5270  -19.4350 N   0  0  0  0  0  0
    8.0510    2.8720  -18.1000 C   0  0  0  0  0  0
    7.2630    3.9560  -17.3700 C   0  0  0  0  0  0
    5.7790    3.6180  -17.3000 C   0  0  0  0  0  0
    5.3950    3.2900  -18.6670 N   0  0  0  0  0  0
    4.1560    3.2420  -19.2890 C   0  0  0  0  0  0
    4.1320    2.7990  -20.5020 N   0  0  0  0  0  0
    3.0400    3.6510  -18.5950 N   0  0  0  0  0  0
    3.1381    4.0174  -17.5625 H   0  0  0  0  0  0
    2.0500    3.6115  -19.0729 H   0  0  0  0  0  0
    7.7900    4.0560  -16.1150 F   0  0  0  0  0  0
    7.3890    5.1630  -18.0240 F   0  0  0  0  0  0
    5.9520    3.4350  -21.9940 C   0  0  0  0  0  0
    5.0470    3.8410  -22.9610 C   0  0  0  0  0  0
    5.4710    4.6870  -23.9730 C   0  0  0  0  0  0
    6.7200    5.1540  -24.1030 N   0  0  0  0  0  0
    7.5850    4.7300  -23.1710 C   0  0  0  0  0  0
    7.2540    3.8910  -22.1270 C   0  0  0  0  0  0
    0.3401   -2.8975  -16.2263 H   0  0  0  0  0  0
    2.0494   -2.5530  -15.7944 H   0  0  0  0  0  0
    1.5786   -4.1918  -16.3596 H   0  0  0  0  0  0
    3.3741   -4.6225  -16.9459 H   0  0  0  0  0  0
    5.6129   -4.9985  -17.9258 H   0  0  0  0  0  0
    6.5130   -3.4431  -19.5855 H   0  0  0  0  0  0
    6.2188   -2.7488  -21.9919 H   0  0  0  0  0  0
    7.2813   -1.0420  -23.4189 H   0  0  0  0  0  0
    7.0079    1.3476  -22.9076 H   0  0  0  0  0  0
    4.5636    0.3407  -19.5832 H   0  0  0  0  0  0
    8.0342    1.9790  -17.4579 H   0  0  0  0  0  0
    9.0844    3.2374  -18.1928 H   0  0  0  0  0  0
    5.6290    2.7643  -16.6227 H   0  0  0  0  0  0
    5.2222    4.4881  -16.9221 H   0  0  0  0  0  0
    4.0184    3.5006  -22.9263 H   0  0  0  0  0  0
    4.7398    4.9929  -24.7125 H   0  0  0  0  0  0
    8.6123    5.0686  -23.2422 H   0  0  0  0  0  0
    8.0108    3.5890  -21.4121 H   0  0  0  0  0  0
  1  2  1  0  0  0
  1 36  1  0  0  0
  1 37  1  0  0  0
  1 38  1  0  0  0
  2  3  1  0  0  0
  3  4  1  0  0  0
  3  8  2  0  0  0
  4  5  2  0  0  0
  4 39  1  0  0  0
  5  6  1  0  0  0
  5 40  1  0  0  0
  6  7  2  0  0  0
  6 41  1  0  0  0
  7  8  1  0  0  0
  7 10  1  0  0  0
  8  9  1  0  0  0
 10 11  1  0  0  0
 10 15  2  0  0  0
 11 12  2  0  0  0
 11 42  1  0  0  0
 12 13  1  0  0  0
 12 43  1  0  0  0
 13 14  2  0  0  0
 13 44  1  0  0  0
 14 15  1  0  0  0
 14 16  1  0  0  0
 15 45  1  0  0  0
 16 17  1  0  0  0
 16 24  1  0  0  0
 16 30  1  0  0  0
 17 18  2  0  0  0
 17 22  1  0  0  0
 18 19  1  0  0  0
 19 20  1  0  0  0
 19 46  1  0  0  0
 19 47  1  0  0  0
 20 21  1  0  0  0
 20 28  1  0  0  0
 20 29  1  0  0  0
 21 22  1  0  0  0
 21 48  1  0  0  0
 21 49  1  0  0  0
 22 23  1  0  0  0
 23 24  2  0  0  0
 23 25  1  0  0  0
 25 26  1  0  0  0
 25 27  1  0  0  0
 30 31  1  0  0  0
 30 35  2  0  0  0
 31 32  2  0  0  0
 31 50  1  0  0  0
 32 33  1  0  0  0
 32 51  1  0  0  0
 33 34  2  0  0  0
 34 35  1  0  0  0
 34 52  1  0  0  0
 35 53  1  0  0  0
M  END
> <s_m_source_file>
../4acu_ligand.sdf

> <i_m_source_file_index>
1

> <s_epik_input>
W0NIM11PYzFbY0hdW2NIXVtjSF1jKGMxRiktYzJbY0hdW2NIXVtjSF1jKFtjSF0yKVtDQF0zKE49QyhbTkgyXSlOKEMzPTQpW0NIMl1DKEYpKEYpW0NIMl1ONCljNVtjSF1bY0hdbltjSF1bY0hdNQ==

> <s_epik_cmdline>
J2VwaWtfYXBwJywgJy1pbWFlJywgJ2xpZ2FuZF9wcm8ubWFlJywgJy1vbWFlJywgJ2xpZ2FuZF9wcmVwLm1hZScsICctbXMnLCAnMScsICctcGgnLCAnNycsICctcGh0JywgJzAuNScsICctbnQn

> <r_lp_tautomer_probability>
1

> <r_epik_Ionization_Penalty>
  0.0048

> <r_epik_Ionization_Penalty_Charging>
  0.0000

> <r_epik_Ionization_Penalty_Neutral>
  0.0048

> <r_epik_State_Penalty>
 -0.0000

> <r_epik_Charging_Adjusted_Penalty>
0

> <i_epik_Tot_Q>
0

> <i_epik_Tot_abs_Q>
0

> <s_epik_Chemistry_Notes>
This compound has an imine and may undergo hydrolysis.

$$$$
