4acx_ligand
                    3D
 Schrodinger Suite 2020-3.
 53 56  0  0  1  0            999 V2000
    2.0910   -3.0830  -17.2670 C   0  0  0  0  0  0
    3.3560   -3.5730  -17.6880 O   0  0  0  0  0  0
    3.2650   -3.8510  -19.0790 C   0  0  0  0  0  0
    3.9720   -2.8360  -19.8530 C   0  0  0  0  0  0
    4.5550   -2.0000  -20.4840 C   0  0  0  0  0  0
    5.2490   -1.0030  -21.2210 C   0  0  0  0  0  0
    6.1190   -1.3360  -22.2390 C   0  0  0  0  0  0
    6.7960   -0.3300  -22.9000 C   0  0  0  0  0  0
    6.5970    0.9880  -22.5400 C   0  0  0  0  0  0
    5.7050    1.3310  -21.5390 C   0  0  0  0  0  0
    5.0440    0.3150  -20.8770 C   0  0  0  0  0  0
    5.4780    2.7600  -21.1240 C   0  0  2  0  0  0
    6.3040    3.0030  -19.8920 C   0  0  0  0  0  0
    7.5520    2.7400  -19.6670 N   0  0  0  0  0  0
    8.1670    3.0600  -18.3720 C   0  0  0  0  0  0
    7.3630    4.0970  -17.6060 C   0  0  0  0  0  0
    5.8770    3.7870  -17.6080 C   0  0  0  0  0  0
    5.4370    3.5580  -18.9780 N   0  0  0  0  0  0
    4.1570    3.4310  -19.4440 C   0  0  0  0  0  0
    4.1130    2.9720  -20.6450 N   0  0  0  0  0  0
    3.0320    3.7510  -18.7270 N   0  0  0  0  0  0
    7.5650    5.3300  -18.1420 F   0  0  0  0  0  0
    7.8190    4.1630  -16.3270 F   0  0  0  0  0  0
    5.7530    3.7370  -22.2430 C   0  0  0  0  0  0
    4.8400    3.8630  -23.2770 C   0  0  0  0  0  0
    5.0710    4.7400  -24.3180 C   0  0  0  0  0  0
    6.2210    5.5080  -24.3260 C   0  0  0  0  0  0
    7.1430    5.3930  -23.3090 C   0  0  0  0  0  0
    6.9020    4.5100  -22.2770 C   0  0  0  0  0  0
    6.5150    6.3990  -25.3470 O   0  0  0  0  0  0
    5.5030    7.0820  -26.0880 C   0  0  0  0  0  0
    6.0270    8.2040  -26.6500 F   0  0  0  0  0  0
    5.0260    6.2700  -27.0690 F   0  0  0  0  0  0
    2.1251   -2.8566  -16.1911 H   0  0  0  0  0  0
    1.3209   -3.8451  -17.4571 H   0  0  0  0  0  0
    1.8475   -2.1679  -17.8268 H   0  0  0  0  0  0
    3.7134   -4.8338  -19.2866 H   0  0  0  0  0  0
    2.2079   -3.8587  -19.3830 H   0  0  0  0  0  0
    6.2699   -2.3789  -22.5177 H   0  0  0  0  0  0
    7.4874   -0.5765  -23.7058 H   0  0  0  0  0  0
    7.1526    1.7727  -23.0536 H   0  0  0  0  0  0
    4.3511    0.5593  -20.0718 H   0  0  0  0  0  0
    8.2271    2.1484  -17.7594 H   0  0  0  0  0  0
    9.1788    3.4594  -18.5353 H   0  0  0  0  0  0
    5.6895    2.8865  -17.0047 H   0  0  0  0  0  0
    5.3246    4.6366  -17.1801 H   0  0  0  0  0  0
    3.1250    4.1404  -17.7024 H   0  0  0  0  0  0
    3.9297    3.2635  -23.2687 H   0  0  0  0  0  0
    4.3496    4.8267  -25.1305 H   0  0  0  0  0  0
    8.0529    5.9931  -23.3196 H   0  0  0  0  0  0
    7.6308    4.4186  -21.4716 H   0  0  0  0  0  0
    4.6587    7.3794  -25.4486 H   0  0  0  0  0  0
    2.0369    3.6182  -19.1767 H   0  0  0  0  0  0
  1  2  1  0  0  0
  1 34  1  0  0  0
  1 35  1  0  0  0
  1 36  1  0  0  0
  2  3  1  0  0  0
  3  4  1  0  0  0
  3 37  1  0  0  0
  3 38  1  0  0  0
  4  5  3  0  0  0
  5  6  1  0  0  0
  6  7  2  0  0  0
  6 11  1  0  0  0
  7  8  1  0  0  0
  7 39  1  0  0  0
  8  9  2  0  0  0
  8 40  1  0  0  0
  9 10  1  0  0  0
  9 41  1  0  0  0
 10 11  2  0  0  0
 10 12  1  0  0  0
 11 42  1  0  0  0
 12 13  1  0  0  0
 12 20  1  0  0  0
 12 24  1  0  0  0
 13 14  2  0  0  0
 13 18  1  0  0  0
 14 15  1  0  0  0
 15 16  1  0  0  0
 15 43  1  0  0  0
 15 44  1  0  0  0
 16 17  1  0  0  0
 16 22  1  0  0  0
 16 23  1  0  0  0
 17 18  1  0  0  0
 17 45  1  0  0  0
 17 46  1  0  0  0
 18 19  1  0  0  0
 19 20  2  0  0  0
 19 21  1  0  0  0
 21 47  1  0  0  0
 21 53  1  0  0  0
 24 25  2  0  0  0
 24 29  1  0  0  0
 25 26  1  0  0  0
 25 48  1  0  0  0
 26 27  2  0  0  0
 26 49  1  0  0  0
 27 28  1  0  0  0
 27 30  1  0  0  0
 28 29  2  0  0  0
 28 50  1  0  0  0
 29 51  1  0  0  0
 30 31  1  0  0  0
 31 32  1  0  0  0
 31 33  1  0  0  0
 31 52  1  0  0  0
M  END
> <s_m_source_file>
../4acx_ligand.sdf

> <i_m_source_file_index>
1

> <s_epik_input>
W0NIM11PW0NIMl1DI0NjMVtjSF1bY0hdW2NIXWMoW2NIXTEpW0NAXTIoW05IXUMoPU5cW0hdKVxOKEMyPTMpW0NIMl1DKEYpKEYpW0NIMl1OMyljNFtjSF1bY0hdYyhbY0hdW2NIXTQpT1tDSF0oRilG

> <s_epik_cmdline>
J2VwaWtfYXBwJywgJy1pbWFlJywgJ2xpZ2FuZF9wcm8ubWFlJywgJy1vbWFlJywgJ2xpZ2FuZF9wcmVwLm1hZScsICctbXMnLCAnMScsICctcGgnLCAnNycsICctcGh0JywgJzAuNScsICctbnQn

> <r_lp_tautomer_probability>
1

> <r_epik_Ionization_Penalty>
  0.0024

> <r_epik_Ionization_Penalty_Charging>
  0.0000

> <r_epik_Ionization_Penalty_Neutral>
  0.0024

> <r_epik_State_Penalty>
 -0.0000

> <r_epik_Charging_Adjusted_Penalty>
0

> <i_epik_Tot_Q>
0

> <i_epik_Tot_abs_Q>
0

> <s_epik_Chemistry_Notes>
This compound has an imine and may undergo hydrolysis.

$$$$
