4ad2_ligand
                    3D
 Schrodinger Suite 2020-3.
 45 46  0  0  1  0            999 V2000
  -46.7640   72.7020  -16.6000 C   0  0  2  0  0  0
  -46.2720   72.6240  -18.0430 C   0  0  1  0  0  0
  -44.8980   71.9770  -18.0530 C   0  0  2  0  0  0
  -43.9510   72.8050  -17.1810 C   0  0  1  0  0  0
  -44.4800   72.8870  -15.7490 C   0  0  1  0  0  0
  -43.6260   73.7910  -14.8370 C   0  0  0  0  0  0
  -47.1820   71.8870  -18.8240 O   0  0  0  0  0  0
  -44.4620   71.9090  -19.3940 O   0  0  0  0  0  0
  -42.7220   72.1450  -17.1270 O   0  0  0  0  0  0
  -45.8140   73.3880  -15.7760 O   0  0  0  0  0  0
  -44.1430   73.7550  -13.5090 O   0  0  0  0  0  0
  -49.2800   69.6450  -15.8480 O   0  0  0  0  0  0
  -48.4590   70.0040  -14.7040 C   0  0  1  0  0  0
  -47.8890   71.4220  -14.9190 C   0  0  2  0  0  0
  -47.0470   71.4020  -16.0600 O   0  0  0  0  0  0
  -47.0430   71.8920  -13.7250 C   0  0  0  0  0  0
  -47.8090   71.7990  -12.4950 N   0  3  0  0  0  0
  -48.4040   70.4970  -12.2070 C   0  0  0  0  0  0
  -49.2430   69.9740  -13.3900 C   0  0  2  0  0  0
  -49.8010   68.5950  -13.0350 C   0  0  0  0  0  0
  -48.7630   67.6200  -12.7980 O   0  0  0  0  0  0
  -47.7068   73.2649  -16.5357 H   0  0  0  0  0  0
  -46.2509   73.6080  -18.5342 H   0  0  0  0  0  0
  -44.9047   70.9313  -17.7119 H   0  0  0  0  0  0
  -43.7762   73.8003  -17.6156 H   0  0  0  0  0  0
  -44.5176   71.8711  -15.3290 H   0  0  0  0  0  0
  -42.5863   73.4317  -14.8345 H   0  0  0  0  0  0
  -43.6559   74.8243  -15.2131 H   0  0  0  0  0  0
  -48.2244   72.2250  -18.9197 H   0  0  0  0  0  0
  -45.0477   71.3450  -20.1348 H   0  0  0  0  0  0
  -42.1507   71.9699  -18.0506 H   0  0  0  0  0  0
  -43.6596   74.3424  -12.7145 H   0  0  0  0  0  0
  -48.8405   69.6265  -16.8562 H   0  0  0  0  0  0
  -47.6793   69.2288  -14.6701 H   0  0  0  0  0  0
  -48.7073   72.1305  -15.1152 H   0  0  0  0  0  0
  -46.1475   71.2591  -13.6384 H   0  0  0  0  0  0
  -46.7392   72.9378  -13.8799 H   0  0  0  0  0  0
  -47.1585   72.0329  -11.6394 H   0  0  0  0  0  0
  -48.6434   72.5150  -12.5276 H   0  0  0  0  0  0
  -47.6072   69.7673  -12.0007 H   0  0  0  0  0  0
  -49.0612   70.5803  -11.3289 H   0  0  0  0  0  0
  -50.1004   70.6390  -13.5703 H   0  0  0  0  0  0
  -50.4090   68.6696  -12.1214 H   0  0  0  0  0  0
  -50.4261   68.2282  -13.8625 H   0  0  0  0  0  0
  -49.0296   66.5861  -12.5333 H   0  0  0  0  0  0
  1  2  1  0  0  0
  1 10  1  0  0  0
  1 15  1  0  0  0
  1 22  1  0  0  0
  2  3  1  0  0  0
  2  7  1  0  0  0
  2 23  1  0  0  0
  3  4  1  0  0  0
  3  8  1  0  0  0
  3 24  1  0  0  0
  4  5  1  0  0  0
  4  9  1  0  0  0
  4 25  1  0  0  0
  5  6  1  0  0  0
  5 10  1  0  0  0
  5 26  1  0  0  0
  6 11  1  0  0  0
  6 27  1  0  0  0
  6 28  1  0  0  0
  7 29  1  0  0  0
  8 30  1  0  0  0
  9 31  1  0  0  0
 11 32  1  0  0  0
 12 13  1  0  0  0
 12 33  1  0  0  0
 13 14  1  0  0  0
 13 19  1  0  0  0
 13 34  1  0  0  0
 14 15  1  0  0  0
 14 16  1  0  0  0
 14 35  1  0  0  0
 16 17  1  0  0  0
 16 36  1  0  0  0
 16 37  1  0  0  0
 17 18  1  0  0  0
 17 38  1  0  0  0
 17 39  1  0  0  0
 18 19  1  0  0  0
 18 40  1  0  0  0
 18 41  1  0  0  0
 19 20  1  0  0  0
 19 42  1  0  0  0
 20 21  1  0  0  0
 20 43  1  0  0  0
 20 44  1  0  0  0
 21 45  1  0  0  0
M  CHG  1  17   1
M  END
> <s_m_source_file>
../4ad2_ligand.sdf

> <i_m_source_file_index>
1

> <s_epik_input>
W09IXVtDSDJdW0NAQEhdKE8xKVtDQEBIXShbT0hdKVtDQEhdKFtPSF0pW0NAQEhdKFtPSF0pW0NASF0xT1tDQEBIXShbQ0BASF0yW09IXSlbQ0gyXVtOSDIrXVtDSDJdW0NAQEhdMltDSDJdW09IXQ==

> <s_epik_cmdline>
J2VwaWtfYXBwJywgJy1pbWFlJywgJ2xpZ2FuZF9wcm8ubWFlJywgJy1vbWFlJywgJ2xpZ2FuZF9wcmVwLm1hZScsICctbXMnLCAnMScsICctcGgnLCAnNycsICctcGh0JywgJzAuNScsICctbnQn

> <r_lp_tautomer_probability>
1

> <r_epik_Ionization_Penalty>
  0.0059

> <r_epik_Ionization_Penalty_Charging>
  0.0059

> <r_epik_Ionization_Penalty_Neutral>
  0.0000

> <r_epik_State_Penalty>
 -0.0000

> <r_epik_Charging_Adjusted_Penalty>
0.00591552963679895

> <i_epik_Tot_Q>
1

> <i_epik_Tot_abs_Q>
1

> <s_epik_Chemistry_Notes>
This compound contains an acetal/aminal-like group ( X-CH(R)-Y where X, Y are N, S, or O) that may be acid/base labile, releasing an aldehyde.

$$$$
