4ad3_ligand
                    3D
 Schrodinger Suite 2020-3.
 46 47  0  0  1  0            999 V2000
  -46.3170   72.0340  -16.4710 C   0  0  2  0  0  0
  -45.8050   71.8810  -17.9130 C   0  0  1  0  0  0
  -44.3820   71.3380  -17.8940 C   0  0  2  0  0  0
  -43.4710   72.2220  -17.0500 C   0  0  1  0  0  0
  -44.0630   72.3520  -15.6500 C   0  0  1  0  0  0
  -43.1980   73.2550  -14.7710 C   0  0  0  0  0  0
  -46.6080   70.9580  -18.6040 O   0  0  0  0  0  0
  -43.8770   71.2700  -19.2020 O   0  0  0  0  0  0
  -42.2080   71.5990  -16.9940 O   0  0  0  0  0  0
  -45.3980   72.8520  -15.7540 O   0  0  0  0  0  0
  -43.7040   73.3350  -13.4540 O   0  0  0  0  0  0
  -48.0150   69.3750  -14.6350 C   0  0  1  0  0  0
  -48.8360   69.1190  -15.7970 O   0  0  0  0  0  0
  -47.3110   70.7340  -14.7770 C   0  0  2  0  0  0
  -46.4760   70.7000  -15.9460 O   0  0  0  0  0  0
  -46.4880   71.0730  -13.5210 C   0  0  2  0  0  0
  -45.5100   70.0390  -13.3110 O   0  0  0  0  0  0
  -47.3770   71.0690  -12.2870 C   0  0  0  0  0  0
  -47.9720   69.7500  -12.2200 N   0  3  0  0  0  0
  -48.8340   69.3510  -13.3400 C   0  0  2  0  0  0
  -49.5000   68.0190  -13.0330 C   0  0  0  0  0  0
  -48.5090   66.9930  -12.8550 O   0  0  0  0  0  0
  -47.2813   72.5412  -16.3194 H   0  0  0  0  0  0
  -45.8829   72.8275  -18.4681 H   0  0  0  0  0  0
  -44.3767   70.3015  -17.5256 H   0  0  0  0  0  0
  -43.2980   73.2147  -17.4912 H   0  0  0  0  0  0
  -44.1573   71.3682  -15.1670 H   0  0  0  0  0  0
  -42.1751   72.8528  -14.7269 H   0  0  0  0  0  0
  -43.1753   74.2688  -15.1972 H   0  0  0  0  0  0
  -47.6822   71.1544  -18.7365 H   0  0  0  0  0  0
  -44.4014   70.6744  -19.9638 H   0  0  0  0  0  0
  -41.6385   71.4261  -17.9191 H   0  0  0  0  0  0
  -43.1870   73.9498  -12.7026 H   0  0  0  0  0  0
  -47.2942   68.5441  -14.6281 H   0  0  0  0  0  0
  -48.3822   69.1055  -16.7989 H   0  0  0  0  0  0
  -48.0398   71.5392  -14.9519 H   0  0  0  0  0  0
  -45.9743   72.0367  -13.6526 H   0  0  0  0  0  0
  -44.7433   69.8437  -14.0752 H   0  0  0  0  0  0
  -46.7668   71.2730  -11.3948 H   0  0  0  0  0  0
  -48.1490   71.8460  -12.3887 H   0  0  0  0  0  0
  -47.1771   68.9911  -12.1733 H   0  0  0  0  0  0
  -48.6018   69.6771  -11.3211 H   0  0  0  0  0  0
  -49.6496   70.0814  -13.4461 H   0  0  0  0  0  0
  -50.0922   68.1092  -12.1104 H   0  0  0  0  0  0
  -50.1605   67.7385  -13.8667 H   0  0  0  0  0  0
  -48.8190   65.9628  -12.6255 H   0  0  0  0  0  0
  1  2  1  0  0  0
  1 10  1  0  0  0
  1 15  1  0  0  0
  1 23  1  0  0  0
  2  3  1  0  0  0
  2  7  1  0  0  0
  2 24  1  0  0  0
  3  4  1  0  0  0
  3  8  1  0  0  0
  3 25  1  0  0  0
  4  5  1  0  0  0
  4  9  1  0  0  0
  4 26  1  0  0  0
  5  6  1  0  0  0
  5 10  1  0  0  0
  5 27  1  0  0  0
  6 11  1  0  0  0
  6 28  1  0  0  0
  6 29  1  0  0  0
  7 30  1  0  0  0
  8 31  1  0  0  0
  9 32  1  0  0  0
 11 33  1  0  0  0
 12 13  1  0  0  0
 12 14  1  0  0  0
 12 20  1  0  0  0
 12 34  1  0  0  0
 13 35  1  0  0  0
 14 15  1  0  0  0
 14 16  1  0  0  0
 14 36  1  0  0  0
 16 17  1  0  0  0
 16 18  1  0  0  0
 16 37  1  0  0  0
 17 38  1  0  0  0
 18 19  1  0  0  0
 18 39  1  0  0  0
 18 40  1  0  0  0
 19 20  1  0  0  0
 19 41  1  0  0  0
 19 42  1  0  0  0
 20 21  1  0  0  0
 20 43  1  0  0  0
 21 22  1  0  0  0
 21 44  1  0  0  0
 21 45  1  0  0  0
 22 46  1  0  0  0
M  CHG  1  19   1
M  END
> <s_m_source_file>
../4ad3_ligand.sdf

> <i_m_source_file_index>
1

> <s_epik_input>
W09IXVtDSDJdW0NAQEhdKE8xKVtDQEBIXShbT0hdKVtDQEhdKFtPSF0pW0NAQEhdKFtPSF0pW0NASF0xT1tDQEBIXShbQ0BASF0yW09IXSlbQ0BIXShbT0hdKVtDSDJdW05IMitdW0NAQEhdMltDSDJdW09IXQ==

> <s_epik_cmdline>
J2VwaWtfYXBwJywgJy1pbWFlJywgJ2xpZ2FuZF9wcm8ubWFlJywgJy1vbWFlJywgJ2xpZ2FuZF9wcmVwLm1hZScsICctbXMnLCAnMScsICctcGgnLCAnNycsICctcGh0JywgJzAuNScsICctbnQn

> <r_lp_tautomer_probability>
1

> <r_epik_Ionization_Penalty>
  0.0047

> <r_epik_Ionization_Penalty_Charging>
  0.0047

> <r_epik_Ionization_Penalty_Neutral>
  0.0000

> <r_epik_State_Penalty>
 -0.0000

> <r_epik_Charging_Adjusted_Penalty>
0.00473229409005591

> <i_epik_Tot_Q>
1

> <i_epik_Tot_abs_Q>
1

> <s_epik_Chemistry_Notes>
This compound contains an acetal/aminal-like group ( X-CH(R)-Y where X, Y are N, S, or O) that may be acid/base labile, releasing an aldehyde.

$$$$
