4ael_ligand
                    3D
 Schrodinger Suite 2020-3.
 44 47  0  0  1  0            999 V2000
   22.7220   15.3450   40.6380 C   0  0  0  0  0  0
   21.9600   14.6330   32.4610 C   0  0  0  0  0  0
   21.2150   13.4900   32.2500 C   0  0  0  0  0  0
   21.9070   15.2760   33.6850 C   0  0  0  0  0  0
   20.0180   15.9820   36.6550 C   0  0  0  0  0  0
   22.3560   15.6490   36.6550 C   0  0  0  0  0  0
   20.0930   16.5930   37.8900 C   0  0  0  0  0  0
   22.4300   16.2610   37.8800 C   0  0  0  0  0  0
   20.4220   13.0050   33.2720 C   0  0  0  0  0  0
   20.3500   20.2640   41.6060 C   0  0  0  0  0  0
   20.4770   20.8010   42.8720 C   0  0  0  0  0  0
   21.7090   19.0520   43.6010 C   0  0  0  0  0  0
   22.1170   16.6280   40.8820 C   0  0  0  0  0  0
   21.6090   18.4360   42.3650 C   0  0  0  0  0  0
   21.1440   15.4870   36.0220 C   0  0  0  0  0  0
   21.3100   16.7350   38.5370 C   0  0  0  0  0  0
   21.1210   14.8010   34.7290 C   0  0  0  0  0  0
   20.9250   19.0410   41.3220 C   0  0  0  0  0  0
   20.3910   13.6420   34.5050 C   0  0  0  0  0  0
   22.1880   17.2100   42.1330 C   0  0  0  0  0  0
   21.4340   17.2990   39.8830 C   0  0  0  0  0  0
   20.1110   12.0570   37.5630 C   0  0  0  0  0  0
   20.1120   11.9400   36.0520 C   0  0  0  0  0  0
   23.2020   14.3090   40.4230 N   0  0  0  0  0  0
   21.1500   20.2340   43.8830 N   0  0  0  0  0  0
   20.8330   18.4780   40.1020 N   0  0  0  0  0  0
   22.8500   16.5950   43.1800 O   0  5  0  0  0  0
   19.5650   13.1340   35.5040 O   0  0  0  0  0  0
   22.5895   15.0286   31.6639 H   0  0  0  0  0  0
   21.2520   12.9767   31.2891 H   0  0  0  0  0  0
   22.4976   16.1797   33.8350 H   0  0  0  0  0  0
   19.0482   15.8871   36.1665 H   0  0  0  0  0  0
   23.2664   15.2869   36.1773 H   0  0  0  0  0  0
   19.1848   16.9681   38.3618 H   0  0  0  0  0  0
   23.4056   16.3777   38.3519 H   0  0  0  0  0  0
   19.8153   12.1143   33.1087 H   0  0  0  0  0  0
   19.7989   20.8026   40.8351 H   0  0  0  0  0  0
   19.9932   21.7587   43.0636 H   0  0  0  0  0  0
   22.2729   18.5472   44.3854 H   0  0  0  0  0  0
   20.5316   11.1403   38.0020 H   0  0  0  0  0  0
   19.0795   12.1944   37.9194 H   0  0  0  0  0  0
   20.7212   12.9212   37.8642 H   0  0  0  0  0  0
   21.1435   11.8026   35.6956 H   0  0  0  0  0  0
   19.5018   11.0758   35.7507 H   0  0  0  0  0  0
  1 13  1  0  0  0
  1 24  3  0  0  0
  2  3  2  0  0  0
  2  4  1  0  0  0
  2 29  1  0  0  0
  3  9  1  0  0  0
  3 30  1  0  0  0
  4 17  2  0  0  0
  4 31  1  0  0  0
  5  7  2  0  0  0
  5 15  1  0  0  0
  5 32  1  0  0  0
  6  8  1  0  0  0
  6 15  2  0  0  0
  6 33  1  0  0  0
  7 16  1  0  0  0
  7 34  1  0  0  0
  8 16  2  0  0  0
  8 35  1  0  0  0
  9 19  2  0  0  0
  9 36  1  0  0  0
 10 11  2  0  0  0
 10 18  1  0  0  0
 10 37  1  0  0  0
 11 25  1  0  0  0
 11 38  1  0  0  0
 12 14  1  0  0  0
 12 25  2  0  0  0
 12 39  1  0  0  0
 13 20  2  0  0  0
 13 21  1  0  0  0
 14 18  2  0  0  0
 14 20  1  0  0  0
 15 17  1  0  0  0
 16 21  1  0  0  0
 17 19  1  0  0  0
 18 26  1  0  0  0
 19 28  1  0  0  0
 20 27  1  0  0  0
 21 26  2  0  0  0
 22 23  1  0  0  0
 22 40  1  0  0  0
 22 41  1  0  0  0
 22 42  1  0  0  0
 23 28  1  0  0  0
 23 43  1  0  0  0
 23 44  1  0  0  0
M  CHG  1  27  -1
M  END
> <s_m_source_file>
../4ael_ligand.sdf

> <i_m_source_file_index>
1

> <s_epik_input>
W2NIXTFuW2NIXVtjSF1jKGMxMiluYyhjKEMjTiljMltPSF0pLWMoW2NIXVtjSF0zKVtjSF1bY0hdYzMtYzRbY0hdW2NIXVtjSF1bY0hdYzRPW0NIMl1bQ0gzXQ==

> <s_epik_cmdline>
J2VwaWtfYXBwJywgJy1pbWFlJywgJ2xpZ2FuZF9wcm8ubWFlJywgJy1vbWFlJywgJ2xpZ2FuZF9wcmVwLm1hZScsICctbXMnLCAnMScsICctcGgnLCAnNycsICctcGh0JywgJzAuNScsICctbnQn

> <r_lp_tautomer_probability>
1

> <r_epik_Ionization_Penalty>
  0.0094

> <r_epik_Ionization_Penalty_Charging>
  0.0000

> <r_epik_Ionization_Penalty_Neutral>
  0.0093

> <r_epik_State_Penalty>
 -0.0000

> <r_epik_Charging_Adjusted_Penalty>
2.57894406738616e-05

> <i_epik_Tot_Q>
-1

> <i_epik_Tot_abs_Q>
1

$$$$
