4af3_ligand
                    3D
 Schrodinger Suite 2020-3.
 61 65  0  0  1  0            999 V2000
   26.8280  -20.5750  -15.1820 N   0  3  0  0  0  0
   25.4860  -20.5210  -15.8370 C   0  0  0  0  0  0
   24.4510  -20.1530  -14.8120 C   0  0  0  0  0  0
   24.3950  -21.2370  -13.8010 N   0  0  0  0  0  0
   25.5770  -22.1270  -13.6900 C   0  0  0  0  0  0
   26.8130  -21.3150  -13.8930 C   0  0  0  0  0  0
   27.4520  -19.2360  -14.9940 C   0  0  0  0  0  0
   23.3460  -21.4550  -12.9810 C   0  0  0  0  0  0
   22.0410  -21.0120  -13.2100 C   0  0  0  0  0  0
   21.0530  -21.3320  -12.2770 C   0  0  0  0  0  0
   21.3890  -22.0610  -11.1880 N   0  0  0  0  0  0
   22.6500  -22.4860  -10.9950 C   0  0  0  0  0  0
   23.5980  -22.1820  -11.8830 N   0  0  0  0  0  0
   19.8000  -20.8790  -12.5020 N   0  0  0  0  0  0
   18.7090  -21.2910  -11.8100 C   0  0  0  0  0  0
   18.5290  -22.2470  -10.8890 C   0  0  0  0  0  0
   17.2410  -22.1620  -10.5690 C   0  0  3  0  0  0
   16.6830  -21.1950  -11.2730 N   0  0  0  0  0  0
   17.5380  -20.6930  -11.9950 N   0  0  0  0  0  0
   16.4520  -23.0090   -9.5610 C   0  0  0  0  0  0
   23.1370  -23.4460   -9.5850 S   0  0  0  0  0  0
   21.7750  -23.2610   -8.5580 C   0  0  0  0  0  0
   21.6380  -22.1030   -7.8120 C   0  0  0  0  0  0
   20.5450  -21.9470   -6.9750 C   0  0  0  0  0  0
   19.5730  -22.9410   -6.8680 C   0  0  0  0  0  0
   19.7240  -24.1110   -7.6340 C   0  0  0  0  0  0
   20.8230  -24.2630   -8.4670 C   0  0  0  0  0  0
   18.5490  -22.6830   -6.0290 N   0  0  0  0  0  0
   17.5190  -23.5400   -5.9130 C   0  0  0  0  0  0
   17.4040  -24.6060   -6.5110 O   0  0  0  0  0  0
   16.4240  -23.0950   -4.9500 C   0  0  0  0  0  0
   14.9990  -22.9710   -5.5090 C   0  0  0  0  0  0
   15.3580  -24.1280   -4.6040 C   0  0  0  0  0  0
   27.4577  -21.1360  -15.8882 H   0  0  0  0  0  0
   25.4985  -19.7659  -16.6368 H   0  0  0  0  0  0
   25.2474  -21.5055  -16.2659 H   0  0  0  0  0  0
   24.7308  -19.2031  -14.3330 H   0  0  0  0  0  0
   23.4726  -20.0421  -15.3023 H   0  0  0  0  0  0
   25.5952  -22.5896  -12.6922 H   0  0  0  0  0  0
   25.5177  -22.9128  -14.4574 H   0  0  0  0  0  0
   27.6703  -22.0033  -13.8554 H   0  0  0  0  0  0
   26.8795  -20.6006  -13.0592 H   0  0  0  0  0  0
   27.4584  -18.6966  -15.9527 H   0  0  0  0  0  0
   28.4847  -19.3598  -14.6360 H   0  0  0  0  0  0
   26.8738  -18.6626  -14.2545 H   0  0  0  0  0  0
   21.7993  -20.4287  -14.0985 H   0  0  0  0  0  0
   19.6186  -20.1301  -13.2870 H   0  0  0  0  0  0
   19.3749  -22.8779  -10.5785 H   0  0  0  0  0  0
   17.1230  -23.7477   -9.0982 H   0  0  0  0  0  0
   15.6349  -23.5308  -10.0807 H   0  0  0  0  0  0
   16.0327  -22.3555   -8.7818 H   0  0  0  0  0  0
   22.3884  -21.3156   -7.8829 H   0  0  0  0  0  0
   20.4433  -21.0325   -6.3907 H   0  0  0  0  0  0
   18.9752  -24.9007   -7.5730 H   0  0  0  0  0  0
   20.9378  -25.1752   -9.0526 H   0  0  0  0  0  0
   18.5490  -21.7615   -5.4282 H   0  0  0  0  0  0
   17.0997  -22.4397   -4.3808 H   0  0  0  0  0  0
   14.5557  -22.0212   -5.1755 H   0  0  0  0  0  0
   15.0331  -22.9937   -6.6082 H   0  0  0  0  0  0
   15.6843  -25.1208   -4.9474 H   0  0  0  0  0  0
   15.2069  -24.1482   -3.5146 H   0  0  0  0  0  0
  1  2  1  0  0  0
  1  6  1  0  0  0
  1  7  1  0  0  0
  1 34  1  0  0  0
  2  3  1  0  0  0
  2 35  1  0  0  0
  2 36  1  0  0  0
  3  4  1  0  0  0
  3 37  1  0  0  0
  3 38  1  0  0  0
  4  5  1  0  0  0
  4  8  1  0  0  0
  5  6  1  0  0  0
  5 39  1  0  0  0
  5 40  1  0  0  0
  6 41  1  0  0  0
  6 42  1  0  0  0
  7 43  1  0  0  0
  7 44  1  0  0  0
  7 45  1  0  0  0
  8  9  2  0  0  0
  8 13  1  0  0  0
  9 10  1  0  0  0
  9 46  1  0  0  0
 10 11  2  0  0  0
 10 14  1  0  0  0
 11 12  1  0  0  0
 12 13  2  0  0  0
 12 21  1  0  0  0
 14 15  1  0  0  0
 14 47  1  0  0  0
 15 16  2  0  0  0
 15 19  1  0  0  0
 16 17  1  0  0  0
 16 48  1  0  0  0
 17 18  1  0  0  0
 17 20  1  0  0  0
 18 19  2  0  0  0
 20 49  1  0  0  0
 20 50  1  0  0  0
 20 51  1  0  0  0
 21 22  1  0  0  0
 22 23  2  0  0  0
 22 27  1  0  0  0
 23 24  1  0  0  0
 23 52  1  0  0  0
 24 25  2  0  0  0
 24 53  1  0  0  0
 25 26  1  0  0  0
 25 28  1  0  0  0
 26 27  2  0  0  0
 26 54  1  0  0  0
 27 55  1  0  0  0
 28 29  1  0  0  0
 28 56  1  0  0  0
 29 30  2  0  0  0
 29 31  1  0  0  0
 31 32  1  0  0  0
 31 33  1  0  0  0
 31 57  1  0  0  0
 32 33  1  0  0  0
 32 58  1  0  0  0
 32 59  1  0  0  0
 33 60  1  0  0  0
 33 61  1  0  0  0
M  CHG  1   1   1
M  END
> <s_m_source_file>
../4af3_ligand.sdf

> <i_m_source_file_index>
1

> <s_epik_input>
W0NIM11bTkgrXTFbQ0gyXVtDSDJdTihbQ0gyXVtDSDJdMSljMltjSF1jKFtOSF1DMz1bQ0hdW0NIXShOPU4zKVtDSDNdKW5jKG4yKVNjNFtjSF1bY0hdYyhbY0hdW2NIXTQpW05IXUMoPU8pW0NIXTVbQ0gyXVtDSDJdNQ==

> <s_epik_cmdline>
J2VwaWtfYXBwJywgJy1pbWFlJywgJ2xpZ2FuZF9wcm8ubWFlJywgJy1vbWFlJywgJ2xpZ2FuZF9wcmVwLm1hZScsICctbXMnLCAnMScsICctcGgnLCAnNycsICctcGh0JywgJzAuNScsICctbnQn

> <r_lp_tautomer_probability>
1

> <r_epik_Ionization_Penalty>
  0.1916

> <r_epik_Ionization_Penalty_Charging>
  0.1866

> <r_epik_Ionization_Penalty_Neutral>
  0.0050

> <r_epik_State_Penalty>
 -0.0000

> <r_epik_Charging_Adjusted_Penalty>
0.186630809027351

> <i_epik_Tot_Q>
1

> <i_epik_Tot_abs_Q>
1

$$$$
