4afg_ligand
                    3D
 Schrodinger Suite 2020-3.
 30 33  0  0  1  0            999 V2000
   46.4010   -4.1070   13.8550 C   0  0  0  0  0  0
   44.9110   -4.2010   13.9650 N   0  3  0  0  0  0
   44.1410   -3.2140   13.0450 C   0  0  0  0  0  0
   44.8150   -1.9330   12.9480 C   0  0  2  0  0  0
   46.2280   -2.1000   12.5880 C   0  0  0  0  0  0
   46.8960   -2.7320   13.7010 C   0  0  1  0  0  0
   46.2420   -1.9610   14.6730 C   0  0  0  0  0  0
   46.6940   -1.6410   15.9850 C   0  0  0  0  0  0
   45.8900   -0.8330   16.8420 C   0  0  0  0  0  0
   46.3530   -0.5080   18.1260 N   0  0  0  0  0  0
   45.5860    0.2470   18.9370 C   0  0  0  0  0  0
   44.3510    0.7350   18.5270 C   0  0  0  0  0  0
   43.9070    0.4430   17.2880 N   0  0  0  0  0  0
   44.6970   -0.3640   16.4370 C   0  0  0  0  0  0
   44.2240   -0.6500   15.1330 C   0  0  0  0  0  0
   45.0140   -1.4680   14.2640 C   0  0  0  0  0  0
   46.8626   -4.5215   14.7634 H   0  0  0  0  0  0
   46.7407   -4.6776   12.9780 H   0  0  0  0  0  0
   44.5865   -5.2161   13.6924 H   0  0  0  0  0  0
   44.6052   -3.9836   14.9990 H   0  0  0  0  0  0
   44.0620   -3.6407   12.0342 H   0  0  0  0  0  0
   43.1329   -3.0446   13.4513 H   0  0  0  0  0  0
   44.2148   -1.3040   12.2742 H   0  0  0  0  0  0
   46.3055   -2.7296   11.6893 H   0  0  0  0  0  0
   46.6736   -1.1150   12.3851 H   0  0  0  0  0  0
   47.9958   -2.7489   13.6931 H   0  0  0  0  0  0
   47.6564   -2.0144   16.3349 H   0  0  0  0  0  0
   45.9433    0.4808   19.9399 H   0  0  0  0  0  0
   43.7487    1.3464   19.1990 H   0  0  0  0  0  0
   43.2677   -0.2511   14.7946 H   0  0  0  0  0  0
  1  2  1  0  0  0
  1  6  1  0  0  0
  1 17  1  0  0  0
  1 18  1  0  0  0
  2  3  1  0  0  0
  2 19  1  0  0  0
  2 20  1  0  0  0
  3  4  1  0  0  0
  3 21  1  0  0  0
  3 22  1  0  0  0
  4  5  1  0  0  0
  4 16  1  0  0  0
  4 23  1  0  0  0
  5  6  1  0  0  0
  5 24  1  0  0  0
  5 25  1  0  0  0
  6  7  1  0  0  0
  6 26  1  0  0  0
  7  8  2  0  0  0
  7 16  1  0  0  0
  8  9  1  0  0  0
  8 27  1  0  0  0
  9 10  2  0  0  0
  9 14  1  0  0  0
 10 11  1  0  0  0
 11 12  2  0  0  0
 11 28  1  0  0  0
 12 13  1  0  0  0
 12 29  1  0  0  0
 13 14  2  0  0  0
 14 15  1  0  0  0
 15 16  2  0  0  0
 15 30  1  0  0  0
M  CHG  1   2   1
M  END
> <s_m_source_file>
../4afg_ligand.sdf

> <i_m_source_file_index>
1

> <s_epik_input>
W0NIMl0xW05IMitdW0NIMl1bQ0BASF0oW0NIMl0yKWMoYzNbQ0BIXTEyKVtjSF1jNGMoW2NIXTMpbltjSF1bY0hdbjQ=

> <s_epik_cmdline>
J2VwaWtfYXBwJywgJy1pbWFlJywgJ2xpZ2FuZF9wcm8ubWFlJywgJy1vbWFlJywgJ2xpZ2FuZF9wcmVwLm1hZScsICctbXMnLCAnMScsICctcGgnLCAnNycsICctcGh0JywgJzAuNScsICctbnQn

> <r_lp_tautomer_probability>
1

> <r_epik_Ionization_Penalty>
  0.0004

> <r_epik_Ionization_Penalty_Charging>
  0.0004

> <r_epik_Ionization_Penalty_Neutral>
  0.0000

> <r_epik_State_Penalty>
 -0.0000

> <r_epik_Charging_Adjusted_Penalty>
0.000367572658094066

> <i_epik_Tot_Q>
1

> <i_epik_Tot_abs_Q>
1

$$$$
