4afh_ligand
                    3D
 Schrodinger Suite 2020-3.
 53 55  0  0  1  0            999 V2000
  -44.1380  110.1400   16.2770 O   0  0  0  0  0  0
  -45.3000  110.4800   16.4450 C   0  0  0  0  0  0
  -45.1260  119.1780   10.1170 C   0  0  0  0  0  0
  -46.1550  118.6720   10.9040 C   0  0  0  0  0  0
  -45.9520  117.5170   11.6690 C   0  0  0  0  0  0
  -44.7160  116.8720   11.6440 C   0  0  0  0  0  0
  -43.6920  117.3810   10.8510 C   0  0  0  0  0  0
  -43.8850  118.5410   10.0870 C   0  0  0  0  0  0
  -44.9980  114.4550   11.6130 C   0  0  0  0  0  0
  -44.7910  113.0680   12.2620 C   0  0  2  0  0  0
  -45.1510  111.9430   11.2770 C   0  0  0  0  0  0
  -44.8360  110.5940   11.9160 C   0  0  0  0  0  0
  -45.6040  110.4630   13.2300 C   0  0  0  0  0  0
  -45.2250  111.6060   14.1740 C   0  0  1  0  0  0
  -45.5070  112.9310   13.5560 N   0  3  2  0  0  0
  -46.9630  113.1440   13.4240 C   0  0  0  0  0  0
  -45.9880  111.4600   15.5030 C   0  0  0  0  0  0
  -44.4980  115.6340   12.4440 C   0  0  2  0  0  0
  -45.2500  115.6990   13.6510 O   0  0  0  0  0  0
  -47.2920  110.4570   17.9870 C   0  0  0  0  0  0
  -46.0810  109.8910   17.5930 C   0  0  0  0  0  0
  -45.5810  108.7730   18.2650 C   0  0  0  0  0  0
  -46.2980  108.2150   19.3180 C   0  0  0  0  0  0
  -47.5030  108.7860   19.7130 C   0  0  0  0  0  0
  -48.0060  109.9000   19.0470 C   0  0  0  0  0  0
  -45.2897  120.0759    9.5212 H   0  0  0  0  0  0
  -47.1215  119.1756   10.9253 H   0  0  0  0  0  0
  -46.7604  117.1219   12.2843 H   0  0  0  0  0  0
  -42.7285  116.8720   10.8234 H   0  0  0  0  0  0
  -43.0749  118.9404    9.4768 H   0  0  0  0  0  0
  -44.4617  114.4945   10.6534 H   0  0  0  0  0  0
  -46.0714  114.6225   11.4403 H   0  0  0  0  0  0
  -43.7324  112.9649   12.5425 H   0  0  0  0  0  0
  -46.2231  111.9954   11.0366 H   0  0  0  0  0  0
  -44.5624  112.0604   10.3552 H   0  0  0  0  0  0
  -45.1363  109.7857   11.2330 H   0  0  0  0  0  0
  -43.7561  110.5250   12.1134 H   0  0  0  0  0  0
  -46.6847  110.5033   13.0286 H   0  0  0  0  0  0
  -45.3552  109.5030   13.7060 H   0  0  0  0  0  0
  -44.1398  111.5786   14.3516 H   0  0  0  0  0  0
  -45.1329  113.7275   14.2160 H   0  0  0  0  0  0
  -47.1498  114.1266   12.9662 H   0  0  0  0  0  0
  -47.4305  113.1082   14.4191 H   0  0  0  0  0  0
  -47.3927  112.3557   12.7884 H   0  0  0  0  0  0
  -47.0043  111.1027   15.2805 H   0  0  0  0  0  0
  -46.0435  112.4496   15.9801 H   0  0  0  0  0  0
  -43.4445  115.5451   12.7479 H   0  0  0  0  0  0
  -45.0386  116.4868   14.3890 H   0  0  0  0  0  0
  -47.6801  111.3332   17.4676 H   0  0  0  0  0  0
  -44.6282  108.3376   17.9638 H   0  0  0  0  0  0
  -45.9166  107.3328   19.8321 H   0  0  0  0  0  0
  -48.0568  108.3587   20.5490 H   0  0  0  0  0  0
  -48.9567  110.3362   19.3538 H   0  0  0  0  0  0
  1  2  2  0  0  0
  2 17  1  0  0  0
  2 21  1  0  0  0
  3  4  2  0  0  0
  3  8  1  0  0  0
  3 26  1  0  0  0
  4  5  1  0  0  0
  4 27  1  0  0  0
  5  6  2  0  0  0
  5 28  1  0  0  0
  6  7  1  0  0  0
  6 18  1  0  0  0
  7  8  2  0  0  0
  7 29  1  0  0  0
  8 30  1  0  0  0
  9 10  1  0  0  0
  9 18  1  0  0  0
  9 31  1  0  0  0
  9 32  1  0  0  0
 10 11  1  0  0  0
 10 15  1  0  0  0
 10 33  1  0  0  0
 11 12  1  0  0  0
 11 34  1  0  0  0
 11 35  1  0  0  0
 12 13  1  0  0  0
 12 36  1  0  0  0
 12 37  1  0  0  0
 13 14  1  0  0  0
 13 38  1  0  0  0
 13 39  1  0  0  0
 14 15  1  0  0  0
 14 17  1  0  0  0
 14 40  1  0  0  0
 15 16  1  0  0  0
 15 41  1  0  0  0
 16 42  1  0  0  0
 16 43  1  0  0  0
 16 44  1  0  0  0
 17 45  1  0  0  0
 17 46  1  0  0  0
 18 19  1  0  0  0
 18 47  1  0  0  0
 19 48  1  0  0  0
 20 21  2  0  0  0
 20 25  1  0  0  0
 20 49  1  0  0  0
 21 22  1  0  0  0
 22 23  2  0  0  0
 22 50  1  0  0  0
 23 24  1  0  0  0
 23 51  1  0  0  0
 24 25  2  0  0  0
 24 52  1  0  0  0
 25 53  1  0  0  0
M  CHG  1  15   1
M  END
> <s_m_source_file>
../4afh_ligand.sdf

> <i_m_source_file_index>
1

> <s_epik_input>
W2NIXTFbY0hdW2NIXVtjSF1bY0hdYzFDKD1PKVtDSDJdW0NASF0oW05AQEgrXTJbQ0gzXSlbQ0gyXVtDSDJdW0NIMl1bQ0BIXTJbQ0gyXVtDQEhdKFtPSF0pYzNbY0hdW2NIXVtjSF1bY0hdW2NIXTM=

> <s_epik_cmdline>
J2VwaWtfYXBwJywgJy1pbWFlJywgJ2xpZ2FuZF9wcm8ubWFlJywgJy1vbWFlJywgJ2xpZ2FuZF9wcmVwLm1hZScsICctbXMnLCAnMScsICctcGgnLCAnNycsICctcGh0JywgJzAuNScsICctbnQn

> <r_lp_tautomer_probability>
0.99990000499975

> <r_epik_Ionization_Penalty>
  0.0223

> <r_epik_Ionization_Penalty_Charging>
  0.0223

> <r_epik_Ionization_Penalty_Neutral>
  0.0000

> <r_epik_State_Penalty>
  0.0180

> <r_epik_Charging_Adjusted_Penalty>
0.0402682532338628

> <i_epik_Tot_Q>
1

> <i_epik_Tot_abs_Q>
1

$$$$
