4afj_ligand
                    3D
 Schrodinger Suite 2020-3.
 38 40  0  0  1  0            999 V2000
  101.3010   24.7550  -10.5850 C   0  0  0  0  0  0
  103.5570   24.8720  -11.3080 C   0  0  0  0  0  0
  101.5420   23.5290   -9.9970 C   0  0  0  0  0  0
  103.8190   23.6480  -10.7190 C   0  0  0  0  0  0
  106.2320   30.1010  -15.2860 C   0  0  0  0  0  0
  107.7230   28.7750  -13.9870 C   0  0  0  0  0  0
  107.0300   29.8400  -16.3820 C   0  0  0  0  0  0
  108.4470   28.5700  -15.1440 C   0  0  0  0  0  0
  100.5140   28.1870  -12.4960 C   0  0  0  0  0  0
  102.2960   25.4340  -11.2560 C   0  0  0  0  0  0
  106.5920   29.5580  -14.0690 C   0  0  0  0  0  0
  102.7970   22.9690  -10.0760 C   0  0  0  0  0  0
  101.9570   26.6920  -11.9020 C   0  0  0  0  0  0
  102.5900   27.7600  -12.4980 C   0  0  0  0  0  0
  104.0260   28.0820  -12.6840 C   0  0  0  0  0  0
  104.2920   21.2820   -9.5980 C   0  0  0  0  0  0
  105.7780   29.8150  -12.8560 C   0  0  0  0  0  0
  108.1340   29.0840  -16.3410 N   0  0  0  0  0  0
  101.6580   28.6970  -12.8650 N   0  0  0  0  0  0
  104.3900   29.3370  -13.0880 N   0  0  0  0  0  0
  104.8680   27.2400  -12.4010 O   0  0  0  0  0  0
  100.6240   26.9710  -11.9080 O   0  0  0  0  0  0
  102.9420   21.7240   -9.4640 O   0  0  0  0  0  0
  100.3057   25.1942  -10.5174 H   0  0  0  0  0  0
  104.3590   25.4020  -11.8218 H   0  0  0  0  0  0
  100.7418   23.0069   -9.4725 H   0  0  0  0  0  0
  104.8212   23.2214  -10.7605 H   0  0  0  0  0  0
  105.3400   30.7204  -15.3794 H   0  0  0  0  0  0
  108.0351   28.3328  -13.0409 H   0  0  0  0  0  0
  106.7436   30.2761  -17.3390 H   0  0  0  0  0  0
  109.3376   27.9449  -15.0792 H   0  0  0  0  0  0
   99.5599   28.6920  -12.6468 H   0  0  0  0  0  0
  104.4060   20.3002   -9.1153 H   0  0  0  0  0  0
  104.9647   22.0074   -9.1171 H   0  0  0  0  0  0
  104.5460   21.1977  -10.6649 H   0  0  0  0  0  0
  106.2149   29.2785  -12.0008 H   0  0  0  0  0  0
  105.7660   30.8944  -12.6444 H   0  0  0  0  0  0
  103.6583   29.9920  -13.5835 H   0  0  0  0  0  0
  1  3  2  0  0  0
  1 10  1  0  0  0
  1 24  1  0  0  0
  2  4  1  0  0  0
  2 10  2  0  0  0
  2 25  1  0  0  0
  3 12  1  0  0  0
  3 26  1  0  0  0
  4 12  2  0  0  0
  4 27  1  0  0  0
  5  7  2  0  0  0
  5 11  1  0  0  0
  5 28  1  0  0  0
  6  8  1  0  0  0
  6 11  2  0  0  0
  6 29  1  0  0  0
  7 18  1  0  0  0
  7 30  1  0  0  0
  8 18  2  0  0  0
  8 31  1  0  0  0
  9 19  2  0  0  0
  9 22  1  0  0  0
  9 32  1  0  0  0
 10 13  1  0  0  0
 11 17  1  0  0  0
 12 23  1  0  0  0
 13 14  2  0  0  0
 13 22  1  0  0  0
 14 15  1  0  0  0
 14 19  1  0  0  0
 15 20  1  0  0  0
 15 21  2  0  0  0
 16 23  1  0  0  0
 16 33  1  0  0  0
 16 34  1  0  0  0
 16 35  1  0  0  0
 17 20  1  0  0  0
 17 36  1  0  0  0
 17 37  1  0  0  0
 20 38  1  0  0  0
M  END
> <s_m_source_file>
../4afj_ligand.sdf

> <i_m_source_file_index>
1

> <s_epik_input>
W2NIXTFbY0hdYyhPW0NIM10pW2NIXVtjSF1jMS1jMmMobltjSF1vMilDKD1PKVtOSF1bQ0gyXWMzW2NIXVtjSF1uW2NIXVtjSF0z

> <s_epik_cmdline>
J2VwaWtfYXBwJywgJy1pbWFlJywgJ2xpZ2FuZF9wcm8ubWFlJywgJy1vbWFlJywgJ2xpZ2FuZF9wcmVwLm1hZScsICctbXMnLCAnMScsICctcGgnLCAnNycsICctcGh0JywgJzAuNScsICctbnQn

> <r_lp_tautomer_probability>
1

> <r_epik_Ionization_Penalty>
  0.0082

> <r_epik_Ionization_Penalty_Charging>
  0.0000

> <r_epik_Ionization_Penalty_Neutral>
  0.0082

> <r_epik_State_Penalty>
 -0.0000

> <r_epik_Charging_Adjusted_Penalty>
0

> <i_epik_Tot_Q>
0

> <i_epik_Tot_abs_Q>
0

$$$$
