4aft_ligand
                    3D
 Schrodinger Suite 2020-3.
 30 33  0  0  1  0            999 V2000
  -29.4400  -88.9840   28.8380 C   0  0  0  0  0  0
  -28.2800  -88.2420   29.3830 N   0  3  0  0  0  0
  -28.7240  -87.2680   30.4060 C   0  0  0  0  0  0
  -29.7800  -86.3440   29.8250 C   0  0  2  0  0  0
  -30.9860  -87.2240   29.5150 C   0  0  0  0  0  0
  -30.4940  -88.0170   28.3130 C   0  0  1  0  0  0
  -29.8090  -86.9730   27.5410 C   0  0  0  0  0  0
  -29.5360  -86.8860   26.1890 C   0  0  0  0  0  0
  -28.8310  -85.7630   25.7580 C   0  0  0  0  0  0
  -28.5350  -85.5920   24.4560 N   0  0  0  0  0  0
  -27.8540  -84.5040   24.0580 C   0  0  0  0  0  0
  -27.4350  -83.5240   24.9620 C   0  0  0  0  0  0
  -27.7010  -83.6370   26.2690 N   0  0  0  0  0  0
  -28.3800  -84.7110   26.7240 C   0  0  0  0  0  0
  -28.6570  -84.8350   28.0770 C   0  0  0  0  0  0
  -29.3640  -85.9470   28.4800 C   0  0  0  0  0  0
  -29.1067  -89.6311   28.0133 H   0  0  0  0  0  0
  -29.8858  -89.6017   29.6315 H   0  0  0  0  0  0
  -27.5759  -88.9500   29.8445 H   0  0  0  0  0  0
  -27.7753  -87.7011   28.5689 H   0  0  0  0  0  0
  -29.1498  -87.8071   31.2651 H   0  0  0  0  0  0
  -27.8640  -86.6684   30.7391 H   0  0  0  0  0  0
  -29.9435  -85.4793   30.4850 H   0  0  0  0  0  0
  -31.2123  -87.8561   30.3864 H   0  0  0  0  0  0
  -31.8547  -86.5887   29.2873 H   0  0  0  0  0  0
  -31.2580  -88.5500   27.7279 H   0  0  0  0  0  0
  -29.8571  -87.6598   25.4917 H   0  0  0  0  0  0
  -27.6218  -84.3824   23.0000 H   0  0  0  0  0  0
  -26.8845  -82.6565   24.5981 H   0  0  0  0  0  0
  -28.3284  -84.0824   28.7937 H   0  0  0  0  0  0
  1  2  1  0  0  0
  1  6  1  0  0  0
  1 17  1  0  0  0
  1 18  1  0  0  0
  2  3  1  0  0  0
  2 19  1  0  0  0
  2 20  1  0  0  0
  3  4  1  0  0  0
  3 21  1  0  0  0
  3 22  1  0  0  0
  4  5  1  0  0  0
  4 16  1  0  0  0
  4 23  1  0  0  0
  5  6  1  0  0  0
  5 24  1  0  0  0
  5 25  1  0  0  0
  6  7  1  0  0  0
  6 26  1  0  0  0
  7  8  2  0  0  0
  7 16  1  0  0  0
  8  9  1  0  0  0
  8 27  1  0  0  0
  9 10  2  0  0  0
  9 14  1  0  0  0
 10 11  1  0  0  0
 11 12  2  0  0  0
 11 28  1  0  0  0
 12 13  1  0  0  0
 12 29  1  0  0  0
 13 14  2  0  0  0
 14 15  1  0  0  0
 15 16  2  0  0  0
 15 30  1  0  0  0
M  CHG  1   2   1
M  END
> <s_m_source_file>
../4aft_ligand.sdf

> <i_m_source_file_index>
1

> <s_epik_input>
W0NIMl0xW05IMitdW0NIMl1bQ0BASF0oW0NIMl0yKWMoYzNbQ0BIXTEyKVtjSF1jNGMoW2NIXTMpbltjSF1bY0hdbjQ=

> <s_epik_cmdline>
J2VwaWtfYXBwJywgJy1pbWFlJywgJ2xpZ2FuZF9wcm8ubWFlJywgJy1vbWFlJywgJ2xpZ2FuZF9wcmVwLm1hZScsICctbXMnLCAnMScsICctcGgnLCAnNycsICctcGh0JywgJzAuNScsICctbnQn

> <r_lp_tautomer_probability>
1

> <r_epik_Ionization_Penalty>
  0.0004

> <r_epik_Ionization_Penalty_Charging>
  0.0004

> <r_epik_Ionization_Penalty_Neutral>
  0.0000

> <r_epik_State_Penalty>
 -0.0000

> <r_epik_Charging_Adjusted_Penalty>
0.000367572658094066

> <i_epik_Tot_Q>
1

> <i_epik_Tot_abs_Q>
1

$$$$
