4agd_ligand
                    3D
 Schrodinger Suite 2020-3.
 57 59  0  0  1  0            999 V2000
   50.6820    0.3670  -16.1610 C   0  0  0  0  0  0
   42.9760   -4.0970  -12.0930 C   0  0  0  0  0  0
   43.1080   -2.8170  -12.6960 C   0  0  0  0  0  0
   45.2970   -4.6700  -12.5600 C   0  0  0  0  0  0
   50.4040   -3.1660  -14.7440 C   0  0  0  0  0  0
   44.0560   -5.0260  -12.0210 C   0  0  0  0  0  0
   45.4340   -3.3660  -13.1770 C   0  0  0  0  0  0
   46.6220   -2.6830  -13.8380 C   0  0  0  0  0  0
   46.0000   -1.3910  -14.2210 C   0  0  0  0  0  0
   52.7490   -2.2040  -15.7730 C   0  0  0  0  0  0
   50.6720   -4.6410  -14.2650 C   0  0  0  0  0  0
   47.9450   -3.1720  -14.0210 C   0  0  0  0  0  0
   50.4360   -1.0270  -15.5620 C   0  0  0  0  0  0
   44.3520   -2.4790  -13.2330 C   0  0  0  0  0  0
   49.1440   -2.5460  -14.6150 C   0  0  0  0  0  0
   51.2780   -2.1530  -15.3750 C   0  0  0  0  0  0
   49.2210   -1.3050  -15.1090 N   0  3  0  0  0  0
   44.6980   -1.3280  -13.8490 N   0  0  0  0  0  0
   53.3480   -1.1340  -16.3410 N   0  0  0  0  0  0
   46.5690   -0.5000  -14.7920 O   0  0  0  0  0  0
   53.4890   -3.1810  -15.6130 O   0  0  0  0  0  0
   43.8400   -6.2100  -11.4410 F   0  0  0  0  0  0
   54.7670   -1.1510  -16.7250 C   0  0  0  0  0  0
   55.7440   -0.0290  -16.2620 C   0  0  0  0  0  0
   57.0620   -0.2560  -16.9650 N   0  3  0  0  0  0
   58.1790   -0.1130  -15.9310 C   0  0  0  0  0  0
   57.2000    0.6510  -18.2320 C   0  0  0  0  0  0
   57.1470    0.0830  -19.6840 C   0  0  0  0  0  0
   59.6930   -0.4920  -16.2000 C   0  0  0  0  0  0
   51.7287    0.4452  -16.4901 H   0  0  0  0  0  0
   50.4787    1.1343  -15.3995 H   0  0  0  0  0  0
   50.0146    0.5191  -17.0221 H   0  0  0  0  0  0
   42.0124   -4.3798  -11.6692 H   0  0  0  0  0  0
   42.2680   -2.1236  -12.7379 H   0  0  0  0  0  0
   46.1415   -5.3578  -12.5168 H   0  0  0  0  0  0
   49.7482   -5.0628  -13.8424 H   0  0  0  0  0  0
   51.4594   -4.6397  -13.4969 H   0  0  0  0  0  0
   50.9958   -5.2513  -15.1210 H   0  0  0  0  0  0
   48.2068   -4.1876  -13.6893 H   0  0  0  0  0  0
   44.1068   -0.4263  -14.0667 H   0  0  0  0  0  0
   52.7421   -0.2323  -16.5141 H   0  0  0  0  0  0
   55.2386   -2.0694  -16.3453 H   0  0  0  0  0  0
   54.8505   -1.1223  -17.8214 H   0  0  0  0  0  0
   55.3286    0.9532  -16.5318 H   0  0  0  0  0  0
   55.8756   -0.0844  -15.1713 H   0  0  0  0  0  0
   57.1129   -1.2872  -17.3445 H   0  0  0  0  0  0
   58.2632    0.9404  -15.6256 H   0  0  0  0  0  0
   57.9465   -0.7321  -15.0520 H   0  0  0  0  0  0
   56.3922    1.3976  -18.2382 H   0  0  0  0  0  0
   58.1730    1.1637  -18.2117 H   0  0  0  0  0  0
   57.2658    0.9059  -20.4042 H   0  0  0  0  0  0
   56.1785   -0.4117  -19.8490 H   0  0  0  0  0  0
   57.9593   -0.6457  -19.8225 H   0  0  0  0  0  0
   60.2868   -0.2943  -15.2954 H   0  0  0  0  0  0
   60.0803    0.1138  -17.0325 H   0  0  0  0  0  0
   59.7635   -1.5588  -16.4590 H   0  0  0  0  0  0
   48.4250   -0.5482  -15.1693 H   0  0  0  0  0  0
  1 13  1  0  0  0
  1 30  1  0  0  0
  1 31  1  0  0  0
  1 32  1  0  0  0
  2  3  2  0  0  0
  2  6  1  0  0  0
  2 33  1  0  0  0
  3 14  1  0  0  0
  3 34  1  0  0  0
  4  6  2  0  0  0
  4  7  1  0  0  0
  4 35  1  0  0  0
  5 11  1  0  0  0
  5 15  2  0  0  0
  5 16  1  0  0  0
  6 22  1  0  0  0
  7  8  1  0  0  0
  7 14  2  0  0  0
  8  9  1  0  0  0
  8 12  2  0  0  0
  9 18  1  0  0  0
  9 20  2  0  0  0
 10 16  1  0  0  0
 10 19  1  0  0  0
 10 21  2  0  0  0
 11 36  1  0  0  0
 11 37  1  0  0  0
 11 38  1  0  0  0
 12 15  1  0  0  0
 12 39  1  0  0  0
 13 16  2  0  0  0
 13 17  1  0  0  0
 14 18  1  0  0  0
 15 17  1  0  0  0
 17 57  1  0  0  0
 18 40  1  0  0  0
 19 23  1  0  0  0
 19 41  1  0  0  0
 23 24  1  0  0  0
 23 42  1  0  0  0
 23 43  1  0  0  0
 24 25  1  0  0  0
 24 44  1  0  0  0
 24 45  1  0  0  0
 25 26  1  0  0  0
 25 27  1  0  0  0
 25 46  1  0  0  0
 26 29  1  0  0  0
 26 47  1  0  0  0
 26 48  1  0  0  0
 27 28  1  0  0  0
 27 49  1  0  0  0
 27 50  1  0  0  0
 28 51  1  0  0  0
 28 52  1  0  0  0
 28 53  1  0  0  0
 29 54  1  0  0  0
 29 55  1  0  0  0
 29 56  1  0  0  0
M  CHG  2  17   1  25   1
M  END
> <s_m_source_file>
../4agd_ligand.sdf

> <i_m_source_file_index>
1

> <s_epik_input>
W0NIM11bQ0gyXVtOSCtdKFtDSDJdW0NIM10pW0NIMl1bQ0gyXVtOSF1DKD1PKWMxYyhbQ0gzXSlbbkhdYyhjMVtDSDNdKVxbQ0hdPUNcMkMoPU8pW05IXWMoYzIzKVtjSF1bY0hdYyhGKVtjSF0z

> <s_epik_cmdline>
J2VwaWtfYXBwJywgJy1pbWFlJywgJ2xpZ2FuZF9wcm8ubWFlJywgJy1vbWFlJywgJ2xpZ2FuZF9wcmVwLm1hZScsICctbXMnLCAnMScsICctcGgnLCAnNycsICctcGh0JywgJzAuNScsICctbnQn

> <r_lp_tautomer_probability>
1

> <r_epik_Ionization_Penalty>
  0.0090

> <r_epik_Ionization_Penalty_Charging>
  0.0088

> <r_epik_Ionization_Penalty_Neutral>
  0.0001

> <r_epik_State_Penalty>
 -0.0000

> <r_epik_Charging_Adjusted_Penalty>
0.00884676482543356

> <i_epik_Tot_Q>
2

> <i_epik_Tot_abs_Q>
2

$$$$
