4agl_ligand
                    3D
 Schrodinger Suite 2020-3.
 24 24  0  0  1  0            999 V2000
   91.1500   95.7340  -44.9530 C   0  0  0  0  0  0
   91.5110   95.5430  -43.6140 C   0  0  0  0  0  0
   91.8830   94.2830  -43.1520 C   0  0  0  0  0  0
   90.7150   97.0950  -45.4760 C   0  0  0  0  0  0
   91.3970   98.2310  -44.8270 N   0  3  0  0  0  0
   91.8960   93.1760  -44.0130 C   0  0  0  0  0  0
   91.1670   94.6180  -45.8160 C   0  0  0  0  0  0
   92.7910   98.4320  -45.2710 C   0  0  0  0  0  0
   91.5360   93.3480  -45.3510 C   0  0  0  0  0  0
   92.3850   94.0740  -41.1170 I   0  0  0  0  0  0
   91.5240   96.6270  -42.7800 O   0  5  0  0  0  0
   91.5360   91.7340  -46.6820 I   0  0  0  0  0  0
   90.6140   99.4730  -44.9250 C   0  0  0  0  0  0
   90.9288   97.1593  -46.5531 H   0  0  0  0  0  0
   89.6356   97.2245  -45.3081 H   0  0  0  0  0  0
   91.4604   97.9569  -43.7636 H   0  0  0  0  0  0
   92.1839   92.1924  -43.6418 H   0  0  0  0  0  0
   90.8885   94.7454  -46.8621 H   0  0  0  0  0  0
   93.3437   97.4850  -45.1838 H   0  0  0  0  0  0
   93.2701   99.1956  -44.6406 H   0  0  0  0  0  0
   92.7975   98.7652  -46.3193 H   0  0  0  0  0  0
   89.5843   99.2849  -44.5869 H   0  0  0  0  0  0
   90.5999   99.8160  -45.9700 H   0  0  0  0  0  0
   91.0725  100.2465  -44.2913 H   0  0  0  0  0  0
  1  2  2  0  0  0
  1  4  1  0  0  0
  1  7  1  0  0  0
  2  3  1  0  0  0
  2 11  1  0  0  0
  3  6  2  0  0  0
  3 10  1  0  0  0
  4  5  1  0  0  0
  4 14  1  0  0  0
  4 15  1  0  0  0
  5  8  1  0  0  0
  5 13  1  0  0  0
  5 16  1  0  0  0
  6  9  1  0  0  0
  6 17  1  0  0  0
  7  9  2  0  0  0
  7 18  1  0  0  0
  8 19  1  0  0  0
  8 20  1  0  0  0
  8 21  1  0  0  0
  9 12  1  0  0  0
 13 22  1  0  0  0
 13 23  1  0  0  0
 13 24  1  0  0  0
M  CHG  2   5   1  11  -1
M  END
> <s_m_source_file>
../4agl_ligand.sdf

> <i_m_source_file_index>
1

> <s_epik_input>
W0NIM11bTkgrXShbQ0gzXSlbQ0gyXWMxYyhbT0hdKWMoSSlbY0hdYyhJKVtjSF0x

> <s_epik_cmdline>
J2VwaWtfYXBwJywgJy1pbWFlJywgJ2xpZ2FuZF9wcm8ubWFlJywgJy1vbWFlJywgJ2xpZ2FuZF9wcmVwLm1hZScsICctbXMnLCAnMScsICctcGgnLCAnNycsICctcGh0JywgJzAuNScsICctbnQn

> <r_lp_tautomer_probability>
1

> <r_epik_Ionization_Penalty>
  0.1584

> <r_epik_Ionization_Penalty_Charging>
  0.1584

> <r_epik_Ionization_Penalty_Neutral>
  0.0000

> <r_epik_State_Penalty>
 -0.0000

> <r_epik_Charging_Adjusted_Penalty>
0.158384422275649

> <i_epik_Tot_Q>
0

> <i_epik_Tot_abs_Q>
2

$$$$
