4ago_ligand
                    3D
 Schrodinger Suite 2020-3.
 68 69  0  0  1  0            999 V2000
   91.3920   93.3530  -45.3400 C   0  0  0  0  0  0
   91.5040   92.3070  -46.3020 C   0  0  0  0  0  0
   91.6520   91.4460  -47.1170 C   0  0  0  0  0  0
   91.8410   90.3840  -48.1100 C   0  0  0  0  0  0
   91.6040   90.9580  -49.4160 N   0  0  0  0  0  0
   90.7290   95.6540  -44.9800 C   0  0  0  0  0  0
   90.6220   98.1370  -44.7970 N   0  0  2  0  0  0
   90.9480   96.6360  -42.8080 O   0  0  0  0  0  0
   91.7760   93.2220  -44.0020 C   0  0  0  0  0  0
   90.1570   96.9320  -45.5280 C   0  0  0  0  0  0
   91.8380  102.1460  -43.8410 N   0  3  0  0  0  0
   89.6020   99.2340  -44.8940 C   0  0  0  0  0  0
   90.8820   94.5670  -45.8350 C   0  0  0  0  0  0
   91.6110   94.3260  -43.1650 C   0  0  0  0  0  0
   91.0980   95.5530  -43.6160 C   0  0  0  0  0  0
   90.0730  100.3930  -44.0350 C   0  0  0  0  0  0
   91.3910  100.8890  -44.6110 C   0  0  2  0  0  0
   93.2610  102.0780  -43.2710 C   0  0  0  0  0  0
   93.9640  103.3960  -43.5390 C   0  0  0  0  0  0
   91.5150  103.5180  -44.4200 C   0  0  0  0  0  0
   90.0580  103.7120  -44.8220 C   0  0  0  0  0  0
   92.4480   99.7750  -44.4930 C   0  0  0  0  0  0
   91.9640   98.5780  -45.2900 C   0  0  0  0  0  0
   92.1580   94.1710  -41.1100 I   0  0  0  0  0  0
   90.3370   91.1370  -49.8940 C   0  0  0  0  0  0
   90.3970   91.9600  -50.9680 O   0  0  0  0  0  0
   89.1960   92.5360  -51.5480 C   0  0  0  0  0  0
   89.7220   93.4330  -52.6750 C   0  0  0  0  0  0
   88.4400   93.4270  -50.5530 C   0  0  0  0  0  0
   88.2930   91.4460  -52.1380 C   0  0  0  0  0  0
   89.3380   90.6620  -49.3760 O   0  0  0  0  0  0
   92.8686   89.9973  -48.0422 H   0  0  0  0  0  0
   91.1288   89.5686  -47.9149 H   0  0  0  0  0  0
   92.4533   91.2604  -50.0462 H   0  0  0  0  0  0
   90.5405   97.5733  -43.2146 H   0  0  0  0  0  0
   92.1910   92.2873  -43.6249 H   0  0  0  0  0  0
   90.4545   97.0450  -46.5810 H   0  0  0  0  0  0
   89.0596   96.9022  -45.4582 H   0  0  0  0  0  0
   91.1321  102.0952  -42.9989 H   0  0  0  0  0  0
   89.5059   99.5537  -45.9421 H   0  0  0  0  0  0
   88.6308   98.8647  -44.5328 H   0  0  0  0  0  0
   90.6073   94.6559  -46.8861 H   0  0  0  0  0  0
   89.3201  101.1947  -44.0562 H   0  0  0  0  0  0
   90.2131  100.0489  -42.9997 H   0  0  0  0  0  0
   91.2562  101.1449  -45.6723 H   0  0  0  0  0  0
   93.2135  101.8966  -42.1871 H   0  0  0  0  0  0
   93.8116  101.2585  -43.7561 H   0  0  0  0  0  0
   94.9856  103.3558  -43.1333 H   0  0  0  0  0  0
   93.4089  104.2128  -43.0545 H   0  0  0  0  0  0
   94.0070  103.5747  -44.6235 H   0  0  0  0  0  0
   91.7455  104.2938  -43.6750 H   0  0  0  0  0  0
   92.1194  103.6862  -45.3236 H   0  0  0  0  0  0
   89.9212  104.7257  -45.2267 H   0  0  0  0  0  0
   89.4136  103.5790  -43.9405 H   0  0  0  0  0  0
   89.7875  102.9714  -45.5890 H   0  0  0  0  0  0
   93.4065  100.1350  -44.8950 H   0  0  0  0  0  0
   92.5742   99.4997  -43.4355 H   0  0  0  0  0  0
   92.6849   97.7549  -45.1767 H   0  0  0  0  0  0
   91.8909   98.8579  -46.3513 H   0  0  0  0  0  0
   90.3694   94.2141  -52.2500 H   0  0  0  0  0  0
   88.8744   93.9025  -53.1958 H   0  0  0  0  0  0
   90.2994   92.8258  -53.3876 H   0  0  0  0  0  0
   89.1221   94.1927  -50.1549 H   0  0  0  0  0  0
   88.0578   92.8107  -49.7259 H   0  0  0  0  0  0
   87.5983   93.9162  -51.0651 H   0  0  0  0  0  0
   88.8722   90.8322  -52.8435 H   0  0  0  0  0  0
   87.4498   91.9148  -52.6664 H   0  0  0  0  0  0
   87.9093   90.8092  -51.3273 H   0  0  0  0  0  0
  1  2  1  0  0  0
  1  9  2  0  0  0
  1 13  1  0  0  0
  2  3  3  0  0  0
  3  4  1  0  0  0
  4  5  1  0  0  0
  4 32  1  0  0  0
  4 33  1  0  0  0
  5 25  1  0  0  0
  5 34  1  0  0  0
  6 10  1  0  0  0
  6 13  2  0  0  0
  6 15  1  0  0  0
  7 10  1  0  0  0
  7 12  1  0  0  0
  7 23  1  0  0  0
  8 15  1  0  0  0
  8 35  1  0  0  0
  9 14  1  0  0  0
  9 36  1  0  0  0
 10 37  1  0  0  0
 10 38  1  0  0  0
 11 17  1  0  0  0
 11 18  1  0  0  0
 11 20  1  0  0  0
 11 39  1  0  0  0
 12 16  1  0  0  0
 12 40  1  0  0  0
 12 41  1  0  0  0
 13 42  1  0  0  0
 14 15  2  0  0  0
 14 24  1  0  0  0
 16 17  1  0  0  0
 16 43  1  0  0  0
 16 44  1  0  0  0
 17 22  1  0  0  0
 17 45  1  0  0  0
 18 19  1  0  0  0
 18 46  1  0  0  0
 18 47  1  0  0  0
 19 48  1  0  0  0
 19 49  1  0  0  0
 19 50  1  0  0  0
 20 21  1  0  0  0
 20 51  1  0  0  0
 20 52  1  0  0  0
 21 53  1  0  0  0
 21 54  1  0  0  0
 21 55  1  0  0  0
 22 23  1  0  0  0
 22 56  1  0  0  0
 22 57  1  0  0  0
 23 58  1  0  0  0
 23 59  1  0  0  0
 25 26  1  0  0  0
 25 31  2  0  0  0
 26 27  1  0  0  0
 27 28  1  0  0  0
 27 29  1  0  0  0
 27 30  1  0  0  0
 28 60  1  0  0  0
 28 61  1  0  0  0
 28 62  1  0  0  0
 29 63  1  0  0  0
 29 64  1  0  0  0
 29 65  1  0  0  0
 30 66  1  0  0  0
 30 67  1  0  0  0
 30 68  1  0  0  0
M  CHG  1  11   1
M  END
> <s_m_source_file>
../4ago_ligand.sdf

> <i_m_source_file_index>
1

> <s_epik_input>
W0NIM11DKFtDSDNdKShbQ0gzXSlPQyg9TylbTkhdW0NIMl1DI0NjMVtjSF1jKEkpYyhbT0hdKWMoW2NIXTEpW0NIMl1bTkBASCtdMltDSDJdW0NIMl1bQ0BIXShbQ0gyXVtDSDJdMilbTkgrXShbQ0gyXVtDSDNdKVtDSDJdW0NIM10=

> <s_epik_cmdline>
J2VwaWtfYXBwJywgJy1pbWFlJywgJ2xpZ2FuZF9wcm8ubWFlJywgJy1vbWFlJywgJ2xpZ2FuZF9wcmVwLm1hZScsICctbXMnLCAnMScsICctcGgnLCAnNycsICctcGh0JywgJzAuNScsICctbnQn

> <r_epik_Ionization_Penalty>
  0.0260

> <r_epik_Ionization_Penalty_Charging>
  0.0005

> <r_epik_Ionization_Penalty_Neutral>
  0.0255

> <r_epik_State_Penalty>
  0.0183

> <r_epik_Charging_Adjusted_Penalty>
0.0188048711760316

> <i_epik_Tot_Q>
1

> <i_epik_Tot_abs_Q>
1

> <s_epik_Chemistry_Notes>
This compound has an ester and may undergo hydrolysis at high or low pH.

$$$$
