4ah9_ligand
                    3D
 Schrodinger Suite 2020-3.
 35 37  0  0  1  0            999 V2000
   15.5730  -24.7060   10.7680 N   0  0  0  0  0  0
   17.2750  -25.0490   12.3140 N   0  0  0  0  0  0
   19.0360  -29.8150   12.1710 N   0  3  0  0  0  0
   17.6570  -27.4380   12.4100 N   0  0  0  0  0  0
   16.8350  -19.9770   12.0320 C   0  0  0  0  0  0
   15.9070  -20.5640   11.1530 C   0  0  0  0  0  0
   17.6550  -20.8240   12.7990 C   0  0  0  0  0  0
   15.7350  -21.9380   10.9910 C   0  0  0  0  0  0
   17.4770  -22.1990   12.6260 C   0  0  0  0  0  0
   20.0770  -28.9170   12.7720 C   0  0  0  0  0  0
   17.7030  -29.8970   12.8380 C   0  0  0  0  0  0
   16.9050  -28.7090   12.3330 C   0  0  0  0  0  0
   15.7620  -26.4010   10.7660 S   0  0  0  0  0  0
   16.5390  -22.7450   11.7780 C   0  0  0  0  0  0
   16.4440  -24.1740   11.6180 C   0  0  0  0  0  0
   19.5380  -28.1180   13.9470 C   0  0  0  0  0  0
   17.0270  -26.3140   11.9320 C   0  0  0  0  0  0
   18.4400  -27.1270   13.6100 C   0  0  0  0  0  0
   18.8188  -29.4881   11.1434 H   0  0  0  0  0  0
   19.4090  -30.8497   12.1555 H   0  0  0  0  0  0
   16.9166  -18.8934   12.1166 H   0  0  0  0  0  0
   15.2799  -19.8998   10.5583 H   0  0  0  0  0  0
   18.3939  -20.4268   13.4950 H   0  0  0  0  0  0
   15.0120  -22.3515   10.2879 H   0  0  0  0  0  0
   18.1153  -22.8766   13.1931 H   0  0  0  0  0  0
   20.9217  -29.5236   13.1305 H   0  0  0  0  0  0
   20.4325  -28.2069   12.0108 H   0  0  0  0  0  0
   17.2156  -30.8454   12.5679 H   0  0  0  0  0  0
   17.8354  -29.8505   13.9290 H   0  0  0  0  0  0
   15.9932  -28.6331   12.9437 H   0  0  0  0  0  0
   16.6301  -28.9096   11.2870 H   0  0  0  0  0  0
   19.1180  -28.8054   14.6960 H   0  0  0  0  0  0
   20.3543  -27.5363   14.4002 H   0  0  0  0  0  0
   18.9306  -26.1505   13.4848 H   0  0  0  0  0  0
   17.7733  -27.0929   14.4842 H   0  0  0  0  0  0
  1 13  1  0  0  0
  1 15  2  0  0  0
  2 15  1  0  0  0
  2 17  2  0  0  0
  3 10  1  0  0  0
  3 11  1  0  0  0
  3 19  1  0  0  0
  3 20  1  0  0  0
  4 12  1  0  0  0
  4 17  1  0  0  0
  4 18  1  0  0  0
  5  6  2  0  0  0
  5  7  1  0  0  0
  5 21  1  0  0  0
  6  8  1  0  0  0
  6 22  1  0  0  0
  7  9  2  0  0  0
  7 23  1  0  0  0
  8 14  2  0  0  0
  8 24  1  0  0  0
  9 14  1  0  0  0
  9 25  1  0  0  0
 10 16  1  0  0  0
 10 26  1  0  0  0
 10 27  1  0  0  0
 11 12  1  0  0  0
 11 28  1  0  0  0
 11 29  1  0  0  0
 12 30  1  0  0  0
 12 31  1  0  0  0
 13 17  1  0  0  0
 14 15  1  0  0  0
 16 18  1  0  0  0
 16 32  1  0  0  0
 16 33  1  0  0  0
 18 34  1  0  0  0
 18 35  1  0  0  0
M  CHG  1   3   1
M  END
> <s_m_source_file>
../4ah9_ligand.sdf

> <i_m_source_file_index>
1

> <s_epik_input>
W2NIXTFbY0hdW2NIXVtjSF1bY0hdYzEtYzJuc2MobjIpTjNbQ0gyXVtDSDJdW05IMitdW0NIMl1bQ0gyXVtDSDJdMw==

> <s_epik_cmdline>
J2VwaWtfYXBwJywgJy1pbWFlJywgJ2xpZ2FuZF9wcm8ubWFlJywgJy1vbWFlJywgJ2xpZ2FuZF9wcmVwLm1hZScsICctbXMnLCAnMScsICctcGgnLCAnNycsICctcGh0JywgJzAuNScsICctbnQn

> <r_lp_tautomer_probability>
1

> <r_epik_Ionization_Penalty>
  0.0119

> <r_epik_Ionization_Penalty_Charging>
  0.0119

> <r_epik_Ionization_Penalty_Neutral>
  0.0000

> <r_epik_State_Penalty>
  0.0092

> <r_epik_Charging_Adjusted_Penalty>
0.021072750156452

> <i_epik_Tot_Q>
1

> <i_epik_Tot_abs_Q>
1

$$$$
