4ahu_ligand
                    3D
 Schrodinger Suite 2020-3.
 18 19  0  0  1  0            999 V2000
  -16.7460   18.1670    1.2830 C   0  0  0  0  0  0
  -17.7150   18.5320    0.3550 C   0  0  0  0  0  0
  -18.0010   19.8650    0.1180 C   0  0  0  0  0  0
  -17.3330   20.8640    0.7900 C   0  0  0  0  0  0
  -16.3540   20.5380    1.7160 C   0  0  0  0  0  0
  -16.0780   19.1950    1.9530 C   0  0  0  0  0  0
  -15.1340   18.6220    2.7950 N   0  3  0  0  0  0
  -15.1930   17.2650    2.6960 C   0  0  0  0  0  0
  -16.1790   16.9370    1.7720 C   0  0  0  0  0  0
  -16.5350   15.4530    1.4080 C   0  0  0  0  0  0
  -17.4080   15.2070    0.5020 O   0  5  0  0  0  0
  -15.9570   14.5480    2.0920 O   0  0  0  0  0  0
  -18.2554   17.7594   -0.1920 H   0  0  0  0  0  0
  -18.7667   20.1281   -0.6117 H   0  0  0  0  0  0
  -17.5734   21.9090    0.5944 H   0  0  0  0  0  0
  -15.8109   21.3189    2.2482 H   0  0  0  0  0  0
  -14.6230   16.4693    3.1979 H   0  0  0  0  0  0
  -14.4840   19.2625    3.4092 H   0  0  0  0  0  0
  1  2  2  0  0  0
  1  6  1  0  0  0
  1  9  1  0  0  0
  2  3  1  0  0  0
  2 13  1  0  0  0
  3  4  2  0  0  0
  3 14  1  0  0  0
  4  5  1  0  0  0
  4 15  1  0  0  0
  5  6  2  0  0  0
  5 16  1  0  0  0
  6  7  1  0  0  0
  7  8  1  0  0  0
  7 18  1  0  0  0
  8  9  2  0  0  0
  8 17  1  0  0  0
  9 10  1  0  0  0
 10 11  1  0  0  0
 10 12  2  0  0  0
M  CHG  2   7   1  11  -1
M  END
> <s_m_source_file>
../4ahu_ligand.sdf

> <i_m_source_file_index>
1

> <s_epik_input>
W2NIXTFbY0hdW2NIXVtjSF1jKGMxMilbbkhdW2NIXWMyQyg9TylbT0hd

> <s_epik_cmdline>
J2VwaWtfYXBwJywgJy1pbWFlJywgJ2xpZ2FuZF9wcm8ubWFlJywgJy1vbWFlJywgJ2xpZ2FuZF9wcmVwLm1hZScsICctbXMnLCAnMScsICctcGgnLCAnNycsICctcGh0JywgJzAuNScsICctbnQn

> <r_lp_tautomer_probability>
1

> <r_epik_Ionization_Penalty>
  0.0004

> <r_epik_Ionization_Penalty_Charging>
  0.0004

> <r_epik_Ionization_Penalty_Neutral>
  0.0000

> <r_epik_State_Penalty>
 -0.0000

> <r_epik_Charging_Adjusted_Penalty>
0.000368672543980809

> <i_epik_Tot_Q>
0

> <i_epik_Tot_abs_Q>
2

$$$$
