4ahv_ligand
                    3D
 Schrodinger Suite 2020-3.
 25 26  0  0  1  0            999 V2000
  -14.5700   18.3040    3.0210 N   0  3  0  0  0  0
  -16.6770   20.8270    1.6790 C   0  0  0  0  0  0
  -16.4880   17.0620    1.5340 N   0  0  0  0  0  0
  -17.5700   21.0430    0.6750 C   0  0  0  0  0  0
  -18.0950   19.9550    0.0310 C   0  0  0  0  0  0
  -17.7150   18.6980    0.4050 C   0  0  0  0  0  0
  -16.7950   18.4630    1.3980 C   0  0  0  0  0  0
  -15.5870   16.3970    2.3160 C   0  0  0  0  0  0
  -15.2340   19.6070    3.1190 C   0  0  0  0  0  0
  -15.8310   15.0400    2.1980 C   0  0  0  0  0  0
  -16.9110   14.9370    1.2760 C   0  0  0  0  0  0
  -16.2730   19.5800    2.0520 C   0  0  0  0  0  0
  -17.2900   16.1640    0.8760 N   0  0  0  0  0  0
  -13.7787   18.2376    3.7822 H   0  0  0  0  0  0
  -14.1266   18.1928    2.0205 H   0  0  0  0  0  0
  -15.3064   17.5038    3.1868 H   0  0  0  0  0  0
  -16.2675   21.6880    2.2073 H   0  0  0  0  0  0
  -17.8594   22.0549    0.3913 H   0  0  0  0  0  0
  -18.8135   20.0916   -0.7772 H   0  0  0  0  0  0
  -18.1606   17.8445   -0.1061 H   0  0  0  0  0  0
  -14.8100   16.8559    2.9274 H   0  0  0  0  0  0
  -15.6774   19.7182    4.1195 H   0  0  0  0  0  0
  -14.4976   20.4072    2.9533 H   0  0  0  0  0  0
  -15.3094   14.2262    2.7018 H   0  0  0  0  0  0
  -17.3634   14.0027    0.9437 H   0  0  0  0  0  0
  1  9  1  0  0  0
  1 14  1  0  0  0
  1 15  1  0  0  0
  1 16  1  0  0  0
  2  4  2  0  0  0
  2 12  1  0  0  0
  2 17  1  0  0  0
  3  7  1  0  0  0
  3  8  1  0  0  0
  3 13  1  0  0  0
  4  5  1  0  0  0
  4 18  1  0  0  0
  5  6  2  0  0  0
  5 19  1  0  0  0
  6  7  1  0  0  0
  6 20  1  0  0  0
  7 12  2  0  0  0
  8 10  2  0  0  0
  8 21  1  0  0  0
  9 12  1  0  0  0
  9 22  1  0  0  0
  9 23  1  0  0  0
 10 11  1  0  0  0
 10 24  1  0  0  0
 11 13  2  0  0  0
 11 25  1  0  0  0
M  CHG  1   1   1
M  END
> <s_m_source_file>
../4ahv_ligand.sdf

> <i_m_source_file_index>
1

> <s_epik_input>
W05IMytdW0NIMl1jMVtjSF1bY0hdW2NIXVtjSF1jMS1uMltjSF1bY0hdW2NIXW4y

> <s_epik_cmdline>
J2VwaWtfYXBwJywgJy1pbWFlJywgJ2xpZ2FuZF9wcm8ubWFlJywgJy1vbWFlJywgJ2xpZ2FuZF9wcmVwLm1hZScsICctbXMnLCAnMScsICctcGgnLCAnNycsICctcGh0JywgJzAuNScsICctbnQn

> <r_lp_tautomer_probability>
1

> <r_epik_Ionization_Penalty>
  0.0374

> <r_epik_Ionization_Penalty_Charging>
  0.0373

> <r_epik_Ionization_Penalty_Neutral>
  0.0000

> <r_epik_State_Penalty>
  0.0312

> <r_epik_Charging_Adjusted_Penalty>
0.0685900944227359

> <i_epik_Tot_Q>
1

> <i_epik_Tot_abs_Q>
1

$$$$
