4ai5_ligand
                    3D
 Schrodinger Suite 2020-3.
 19 20  0  0  1  0            999 V2000
   26.2000  -21.4960    1.6340 N   0  0  0  0  0  0
   27.4690  -21.4560    1.9430 C   0  0  0  0  0  0
   28.3330  -22.4180    1.9370 N   0  0  0  0  0  0
   29.6470  -22.1400    2.2810 C   0  0  0  0  0  0
   29.9970  -20.9240    2.6590 N   0  0  0  0  0  0
   29.0750  -19.8940    2.7010 C   0  0  0  0  0  0
   29.4370  -18.6270    3.0510 N   0  3  0  0  0  0
   27.8070  -20.1980    2.3350 C   0  0  0  0  0  0
   26.7120  -19.4900    2.2340 N   0  0  0  0  0  0
   25.6950  -20.2680    1.8410 C   0  0  0  0  0  0
   27.9200  -23.8350    1.5190 C   0  0  0  0  0  0
   30.3963  -22.9305    2.2392 H   0  0  0  0  0  0
   30.4755  -18.4127    3.3435 H   0  0  0  0  0  0
   24.6563  -19.9633    1.7135 H   0  0  0  0  0  0
   26.8448  -23.8501    1.2870 H   0  0  0  0  0  0
   28.1275  -24.5351    2.3417 H   0  0  0  0  0  0
   28.4915  -24.1358    0.6286 H   0  0  0  0  0  0
   28.6906  -17.8191    3.0408 H   0  0  0  0  0  0
   25.7497  -22.4347    1.2791 H   0  0  0  0  0  0
  1  2  1  0  0  0
  1 10  1  0  0  0
  1 19  1  0  0  0
  2  3  1  0  0  0
  2  8  2  0  0  0
  3  4  1  0  0  0
  3 11  1  0  0  0
  4  5  2  0  0  0
  4 12  1  0  0  0
  5  6  1  0  0  0
  6  7  2  0  0  0
  6  8  1  0  0  0
  7 13  1  0  0  0
  7 18  1  0  0  0
  8  9  1  0  0  0
  9 10  2  0  0  0
 10 14  1  0  0  0
 11 15  1  0  0  0
 11 16  1  0  0  0
 11 17  1  0  0  0
M  CHG  1   7   1
M  END
> <s_m_source_file>
../4ai5_ligand.sdf

> <i_m_source_file_index>
1

> <s_epik_input>
bjFbY0hdbmMoYzEyKWMoW05IMl0pbltjSF1uMltDSDNd

> <s_epik_cmdline>
J2VwaWtfYXBwJywgJy1pbWFlJywgJ2xpZ2FuZF9wcm8ubWFlJywgJy1vbWFlJywgJ2xpZ2FuZF9wcmVwLm1hZScsICctbXMnLCAnMScsICctcGgnLCAnNycsICctcGh0JywgJzAuNScsICctbnQn

> <r_epik_Ionization_Penalty>
  0.1222

> <r_epik_Ionization_Penalty_Charging>
  0.0008

> <r_epik_Ionization_Penalty_Neutral>
  0.1215

> <r_epik_State_Penalty>
  0.2084

> <r_epik_Charging_Adjusted_Penalty>
0.209187764334755

> <i_epik_Tot_Q>
1

> <i_epik_Tot_abs_Q>
1

> <s_epik_Chemistry_Notes>
This compound has an imine and may undergo hydrolysis.

$$$$
