4ai8_ligand
                    3D
 Schrodinger Suite 2020-3.
 22 21  0  0  1  0            999 V2000
   17.9010   24.4170   27.7210 O   0  5  0  0  0  0
   18.0340   24.9420   28.8430 C   0  0  0  0  0  0
   17.1220   25.3240   29.5850 O   0  0  0  0  0  0
   19.3640   25.6400   29.1560 C   0  0  0  0  0  0
   20.4010   24.7400   28.5030 C   0  0  0  0  0  0
   21.7030   25.5500   28.5180 C   0  0  0  0  0  0
   21.7870   26.6790   28.9400 O   0  0  0  0  0  0
   22.7330   24.8630   28.0050 N   0  0  0  0  0  0
   23.7060   25.4240   27.9990 N   0  0  0  0  0  0
   24.5390   24.5780   28.8650 C   0  0  0  0  0  0
   24.0980   25.5210   26.5790 C   0  0  0  0  0  0
   19.3574   26.6519   28.7247 H   0  0  0  0  0  0
   19.4953   25.7069   30.2461 H   0  0  0  0  0  0
   20.4967   23.8101   29.0828 H   0  0  0  0  0  0
   20.0852   24.5013   27.4767 H   0  0  0  0  0  0
   22.6870   23.8374   27.6101 H   0  0  0  0  0  0
   24.1381   24.5948   29.8892 H   0  0  0  0  0  0
   25.5704   24.9604   28.8686 H   0  0  0  0  0  0
   24.5320   23.5456   28.4853 H   0  0  0  0  0  0
   23.3951   26.1805   26.0488 H   0  0  0  0  0  0
   24.0763   24.5200   26.1234 H   0  0  0  0  0  0
   25.1146   25.9348   26.5067 H   0  0  0  0  0  0
  1  2  1  0  0  0
  2  3  2  0  0  0
  2  4  1  0  0  0
  4  5  1  0  0  0
  4 12  1  0  0  0
  4 13  1  0  0  0
  5  6  1  0  0  0
  5 14  1  0  0  0
  5 15  1  0  0  0
  6  7  2  0  0  0
  6  8  1  0  0  0
  8  9  1  0  0  0
  8 16  1  0  0  0
  9 10  1  0  0  0
  9 11  1  0  0  0
 10 17  1  0  0  0
 10 18  1  0  0  0
 10 19  1  0  0  0
 11 20  1  0  0  0
 11 21  1  0  0  0
 11 22  1  0  0  0
M  CHG  1   1  -1
M  END
> <s_m_source_file>
../4ai8_ligand.sdf

> <i_m_source_file_index>
1

> <s_epik_input>
W09IXUMoPU8pW0NIMl1bQ0gyXUMoPU8pW05IXVtOSCtdKFtDSDNdKVtDSDNd

> <s_epik_cmdline>
J2VwaWtfYXBwJywgJy1pbWFlJywgJ2xpZ2FuZF9wcm8ubWFlJywgJy1vbWFlJywgJ2xpZ2FuZF9wcmVwLm1hZScsICctbXMnLCAnMScsICctcGgnLCAnNycsICctcGh0JywgJzAuNScsICctbnQn

> <r_lp_tautomer_probability>
1

> <r_epik_Ionization_Penalty>
  0.0075

> <r_epik_Ionization_Penalty_Charging>
  0.0074

> <r_epik_Ionization_Penalty_Neutral>
  0.0002

> <r_epik_State_Penalty>
 -0.0000

> <r_epik_Charging_Adjusted_Penalty>
0.00736168205814692

> <i_epik_Tot_Q>
-1

> <i_epik_Tot_abs_Q>
1

$$$$
