4aif_ligand
                    3D
 Schrodinger Suite 2020-3.
100 99  0  0  1  0            999 V2000
   30.4770  -18.4720   22.9070 N   0  3  0  0  0  0
   29.8900  -19.2300   24.0090 C   0  0  2  0  0  0
   28.7570  -18.4560   24.6890 C   0  0  0  0  0  0
   27.6820  -18.2880   24.1090 O   0  0  0  0  0  0
   30.9650  -19.6420   25.0220 C   0  0  0  0  0  0
   31.8100  -18.5520   25.3520 O   0  0  0  0  0  0
   28.9900  -17.9900   25.9130 N   0  0  0  0  0  0
   27.9610  -17.2410   26.6230 C   0  0  2  0  0  0
   27.7340  -15.8740   25.9870 C   0  0  0  0  0  0
   28.6570  -15.2470   25.4650 O   0  0  0  0  0  0
   28.2830  -17.1010   28.1140 C   0  0  0  0  0  0
   27.4300  -17.9900   29.0110 C   0  0  0  0  0  0
   27.8680  -17.9050   30.4680 C   0  0  0  0  0  0
   26.4840  -15.4320   26.0330 N   0  0  0  0  0  0
   26.0820  -14.1740   25.4320 C   0  0  2  0  0  0
   26.7190  -12.9640   26.1240 C   0  0  0  0  0  0
   26.9310  -11.9350   25.4940 O   0  0  0  0  0  0
   24.5510  -14.0540   25.4250 C   0  0  0  0  0  0
   23.8320  -15.0760   24.5320 C   0  0  0  0  0  0
   24.2700  -15.0180   22.7700 S   0  0  0  0  0  0
   25.5420  -16.2840   22.7020 C   0  0  0  0  0  0
   27.0250  -13.0850   27.4120 N   0  0  0  0  0  0
   27.6230  -11.9650   28.1440 C   0  0  2  0  0  0
   29.1470  -11.9260   28.0150 C   0  0  0  0  0  0
   29.7850  -10.9620   28.4320 O   0  0  0  0  0  0
   27.2140  -11.9750   29.6260 C   0  0  0  0  0  0
   29.7340  -12.9650   27.4310 N   0  0  0  0  0  0
   31.1880  -13.0140   27.3010 C   0  0  2  0  0  0
   31.7190  -12.2860   26.0640 C   0  0  0  0  0  0
   31.0920  -12.2880   25.0010 O   0  0  0  0  0  0
   31.6790  -14.4570   27.3120 C   0  0  0  0  0  0
   31.4240  -15.1630   28.6290 C   0  0  0  0  0  0
   31.7670  -16.6350   28.5660 C   0  0  0  0  0  0
   31.9910  -17.1380   27.4420 O   0  5  0  0  0  0
   31.8120  -17.2840   29.6350 O   0  0  0  0  0  0
   32.8820  -11.6610   26.2040 N   0  0  0  0  0  0
   33.4770  -10.9700   25.0730 C   0  0  2  0  0  0
   34.2460  -11.9500   24.1860 C   0  0  0  0  0  0
   34.8570  -12.8960   24.6820 O   0  0  0  0  0  0
   34.3300   -9.7610   25.5230 C   0  0  0  0  0  0
   33.4030   -8.6630   26.0710 C   0  0  0  0  0  0
   35.3640  -10.1860   26.5730 C   0  0  0  0  0  0
   34.1790  -11.7040   22.8770 N   0  0  0  0  0  0
   34.6200  -12.6270   21.8220 C   0  0  2  0  0  0
   33.6020  -13.7440   21.5560 C   0  0  0  0  0  0
   32.4700  -13.4780   21.1450 O   0  0  0  0  0  0
   35.9990  -13.2020   22.1230 C   0  0  0  0  0  0
   37.1080  -12.2630   21.7260 C   0  0  0  0  0  0
   36.9120  -11.0390   21.8620 O   0  0  0  0  0  0
   38.1680  -12.7470   21.2700 O   0  5  0  0  0  0
   33.8750  -14.9340   21.7410 O   0  5  0  0  0  0
   29.6875  -18.1886   22.1954 H   0  0  0  0  0  0
   31.2274  -19.0918   22.3944 H   0  0  0  0  0  0
   30.9581  -17.5648   23.3013 H   0  0  0  0  0  0
   29.4660  -20.1277   23.5353 H   0  0  0  0  0  0
   30.4825  -20.0009   25.9431 H   0  0  0  0  0  0
   31.5828  -20.4456   24.5947 H   0  0  0  0  0  0
   32.6325  -18.6912   26.0690 H   0  0  0  0  0  0
   29.9647  -18.1723   26.3891 H   0  0  0  0  0  0
   27.0542  -17.8525   26.5060 H   0  0  0  0  0  0
   29.3346  -17.3721   28.2890 H   0  0  0  0  0  0
   28.1152  -16.0606   28.4293 H   0  0  0  0  0  0
   26.3782  -17.6745   28.9464 H   0  0  0  0  0  0
   27.5198  -19.0360   28.6827 H   0  0  0  0  0  0
   27.2302  -18.5586   31.0813 H   0  0  0  0  0  0
   27.7741  -16.8668   30.8191 H   0  0  0  0  0  0
   28.9158  -18.2283   30.5553 H   0  0  0  0  0  0
   25.7409  -16.0568   26.5501 H   0  0  0  0  0  0
   26.4745  -14.2314   24.4060 H   0  0  0  0  0  0
   24.1673  -14.1978   26.4458 H   0  0  0  0  0  0
   24.2630  -13.0563   25.0622 H   0  0  0  0  0  0
   24.0668  -16.0937   24.8771 H   0  0  0  0  0  0
   22.7458  -14.9115   24.5876 H   0  0  0  0  0  0
   25.9179  -16.3711   21.6719 H   0  0  0  0  0  0
   25.1176  -17.2476   23.0202 H   0  0  0  0  0  0
   26.3696  -16.0086   23.3722 H   0  0  0  0  0  0
   26.8258  -14.0357   27.9282 H   0  0  0  0  0  0
   27.2041  -11.0810   27.6409 H   0  0  0  0  0  0
   26.1171  -12.0031   29.7034 H   0  0  0  0  0  0
   27.5931  -11.0667   30.1171 H   0  0  0  0  0  0
   27.6392  -12.8624   30.1177 H   0  0  0  0  0  0
   29.1191  -13.7911   27.0444 H   0  0  0  0  0  0
   31.5391  -12.4727   28.1919 H   0  0  0  0  0  0
   31.1633  -15.0258   26.5242 H   0  0  0  0  0  0
   32.7634  -14.4768   27.1284 H   0  0  0  0  0  0
   32.0388  -14.7030   29.4166 H   0  0  0  0  0  0
   30.3603  -15.0718   28.8940 H   0  0  0  0  0  0
   33.3951  -11.6666   27.1770 H   0  0  0  0  0  0
   32.6230  -10.5858   24.4959 H   0  0  0  0  0  0
   34.8881   -9.3600   24.6641 H   0  0  0  0  0  0
   32.6739   -8.3791   25.2978 H   0  0  0  0  0  0
   34.0017   -7.7837   26.3510 H   0  0  0  0  0  0
   32.8704   -9.0409   26.9562 H   0  0  0  0  0  0
   36.0113  -10.9703   26.1537 H   0  0  0  0  0  0
   34.8455  -10.5748   27.4618 H   0  0  0  0  0  0
   35.9768   -9.3176   26.8566 H   0  0  0  0  0  0
   33.7552  -10.7248   22.6093 H   0  0  0  0  0  0
   34.6859  -11.9940   20.9248 H   0  0  0  0  0  0
   36.0873  -13.3972   23.2019 H   0  0  0  0  0  0
   36.1333  -14.1422   21.5681 H   0  0  0  0  0  0
  1  2  1  0  0  0
  1 52  1  0  0  0
  1 53  1  0  0  0
  1 54  1  0  0  0
  2  3  1  0  0  0
  2  5  1  0  0  0
  2 55  1  0  0  0
  3  4  2  0  0  0
  3  7  1  0  0  0
  5  6  1  0  0  0
  5 56  1  0  0  0
  5 57  1  0  0  0
  6 58  1  0  0  0
  7  8  1  0  0  0
  7 59  1  0  0  0
  8  9  1  0  0  0
  8 11  1  0  0  0
  8 60  1  0  0  0
  9 10  2  0  0  0
  9 14  1  0  0  0
 11 12  1  0  0  0
 11 61  1  0  0  0
 11 62  1  0  0  0
 12 13  1  0  0  0
 12 63  1  0  0  0
 12 64  1  0  0  0
 13 65  1  0  0  0
 13 66  1  0  0  0
 13 67  1  0  0  0
 14 15  1  0  0  0
 14 68  1  0  0  0
 15 16  1  0  0  0
 15 18  1  0  0  0
 15 69  1  0  0  0
 16 17  2  0  0  0
 16 22  1  0  0  0
 18 19  1  0  0  0
 18 70  1  0  0  0
 18 71  1  0  0  0
 19 20  1  0  0  0
 19 72  1  0  0  0
 19 73  1  0  0  0
 20 21  1  0  0  0
 21 74  1  0  0  0
 21 75  1  0  0  0
 21 76  1  0  0  0
 22 23  1  0  0  0
 22 77  1  0  0  0
 23 24  1  0  0  0
 23 26  1  0  0  0
 23 78  1  0  0  0
 24 25  2  0  0  0
 24 27  1  0  0  0
 26 79  1  0  0  0
 26 80  1  0  0  0
 26 81  1  0  0  0
 27 28  1  0  0  0
 27 82  1  0  0  0
 28 29  1  0  0  0
 28 31  1  0  0  0
 28 83  1  0  0  0
 29 30  2  0  0  0
 29 36  1  0  0  0
 31 32  1  0  0  0
 31 84  1  0  0  0
 31 85  1  0  0  0
 32 33  1  0  0  0
 32 86  1  0  0  0
 32 87  1  0  0  0
 33 34  1  0  0  0
 33 35  2  0  0  0
 36 37  1  0  0  0
 36 88  1  0  0  0
 37 38  1  0  0  0
 37 40  1  0  0  0
 37 89  1  0  0  0
 38 39  2  0  0  0
 38 43  1  0  0  0
 40 41  1  0  0  0
 40 42  1  0  0  0
 40 90  1  0  0  0
 41 91  1  0  0  0
 41 92  1  0  0  0
 41 93  1  0  0  0
 42 94  1  0  0  0
 42 95  1  0  0  0
 42 96  1  0  0  0
 43 44  1  0  0  0
 43 97  1  0  0  0
 44 45  1  0  0  0
 44 47  1  0  0  0
 44 98  1  0  0  0
 45 46  2  0  0  0
 45 51  1  0  0  0
 47 48  1  0  0  0
 47 99  1  0  0  0
 47100  1  0  0  0
 48 49  2  0  0  0
 48 50  1  0  0  0
M  CHG  4   1   1  34  -1  50  -1  51  -1
M  END
> <s_m_source_file>
../4aif_ligand.sdf

> <i_m_source_file_index>
1

> <s_epik_input>
W09IXVtDSDJdW0NASF0oW05IMytdKUMoPU8pW05IXVtDQEBIXShbQ0gyXVtDSDJdW0NIM10pQyg9TylbTkhdW0NAQEhdKFtDSDJdW0NIMl1TW0NIM10pQyg9TylbTkhdW0NAQEhdKFtDSDNdKUMoPU8pW05IXVtDQEBIXShbQ0gyXVtDSDJdQyg9TylbT0hdKUMoPU8pW05IXVtDQEBIXShbQ0hdKFtDSDNdKVtDSDNdKUMoPU8pW05IXVtDQEhdKEMoPU8pW09IXSlbQ0gyXUMoPU8pW09IXQ==

> <s_epik_cmdline>
J2VwaWtfYXBwJywgJy1pbWFlJywgJ2xpZ2FuZF9wcm8ubWFlJywgJy1vbWFlJywgJ2xpZ2FuZF9wcmVwLm1hZScsICctbXMnLCAnMScsICctcGgnLCAnNycsICctcGh0JywgJzAuNScsICctbnQn

> <r_epik_Ionization_Penalty>
  0.1504

> <r_epik_Ionization_Penalty_Charging>
  0.1504

> <r_epik_Ionization_Penalty_Neutral>
  0.0000

> <r_epik_State_Penalty>
  0.1365

> <r_epik_Charging_Adjusted_Penalty>
0.286878219187723

> <i_epik_Tot_Q>
-2

> <i_epik_Tot_abs_Q>
4

$$$$
