4aj4_ligand
                    3D
 Schrodinger Suite 2020-3.
 34 35  0  0  1  0            999 V2000
   21.7770   -5.4960    1.0500 C   0  0  0  0  0  0
   20.4890   -5.5500    1.5650 C   0  0  0  0  0  0
   19.7700   -6.8820   -0.3270 C   0  0  0  0  0  0
   22.0780   -6.1340   -0.1540 C   0  0  0  0  0  0
   19.4800   -6.2330    0.8880 C   0  0  0  0  0  0
   21.0620   -6.8230   -0.8200 C   0  0  0  0  0  0
   23.2510   -6.8320   -1.8730 C   0  0  0  0  0  0
   24.0660   -6.9220   -6.8160 C   0  0  0  0  0  0
   23.9170   -6.6530   -5.5830 C   0  0  0  0  0  0
   17.2360   -7.2470    1.3080 C   0  0  0  0  0  0
   13.7820   -7.9960    2.5650 C   0  0  0  0  0  0
   23.9500   -7.6870   -4.4920 C   0  0  0  0  0  0
   15.8260   -6.8180    1.5640 C   0  0  0  0  0  0
   15.2080   -7.5710    2.7440 C   0  0  0  0  0  0
   23.3210   -6.1620   -0.7800 N   0  0  0  0  0  0
   18.1690   -6.2600    1.4560 N   0  0  0  0  0  0
   17.5250   -8.4130    0.9830 O   0  0  0  0  0  0
   13.0470   -7.5680    1.6790 O   0  0  0  0  0  0
   13.3880   -8.8580    3.4650 O   0  5  0  0  0  0
   21.6920   -7.5170   -2.2810 S   0  0  0  0  0  0
   24.6380   -7.0820   -2.9020 S   0  0  0  0  0  0
   22.5551   -4.9539    1.5874 H   0  0  0  0  0  0
   20.2643   -5.0531    2.5088 H   0  0  0  0  0  0
   18.9924   -7.4204   -0.8689 H   0  0  0  0  0  0
   24.2303   -7.9614   -7.1362 H   0  0  0  0  0  0
   24.0306   -6.1154   -7.5631 H   0  0  0  0  0  0
   23.7527   -5.6136   -5.2628 H   0  0  0  0  0  0
   22.9275   -8.0378   -4.2883 H   0  0  0  0  0  0
   24.5724   -8.5363   -4.8104 H   0  0  0  0  0  0
   15.8058   -5.7421    1.7923 H   0  0  0  0  0  0
   15.2149   -7.0148    0.6708 H   0  0  0  0  0  0
   15.2845   -6.9009    3.6130 H   0  0  0  0  0  0
   15.8371   -8.4582    2.9086 H   0  0  0  0  0  0
   17.8249   -5.4259    2.0851 H   0  0  0  0  0  0
  1  2  1  0  0  0
  1  4  2  0  0  0
  1 22  1  0  0  0
  2  5  2  0  0  0
  2 23  1  0  0  0
  3  5  1  0  0  0
  3  6  2  0  0  0
  3 24  1  0  0  0
  4  6  1  0  0  0
  4 15  1  0  0  0
  5 16  1  0  0  0
  6 20  1  0  0  0
  7 15  2  0  0  0
  7 20  1  0  0  0
  7 21  1  0  0  0
  8  9  2  0  0  0
  8 25  1  0  0  0
  8 26  1  0  0  0
  9 12  1  0  0  0
  9 27  1  0  0  0
 10 13  1  0  0  0
 10 16  1  0  0  0
 10 17  2  0  0  0
 11 14  1  0  0  0
 11 18  2  0  0  0
 11 19  1  0  0  0
 12 21  1  0  0  0
 12 28  1  0  0  0
 12 29  1  0  0  0
 13 14  1  0  0  0
 13 30  1  0  0  0
 13 31  1  0  0  0
 14 32  1  0  0  0
 14 33  1  0  0  0
 16 34  1  0  0  0
M  CHG  1  19  -1
M  END
> <s_m_source_file>
../4aj4_ligand.sdf

> <i_m_source_file_index>
1

> <s_epik_input>
Tz1DKFtPSF0pW0NIMl1bQ0gyXUMoPU8pW05IXWMoW2NIXVtjSF0xKVtjSF1jKGMxMilzYyhuMilTW0NIMl1bQ0hdPVtDSDJd

> <s_epik_cmdline>
J2VwaWtfYXBwJywgJy1pbWFlJywgJ2xpZ2FuZF9wcm8ubWFlJywgJy1vbWFlJywgJ2xpZ2FuZF9wcmVwLm1hZScsICctbXMnLCAnMScsICctcGgnLCAnNycsICctcGh0JywgJzAuNScsICctbnQn

> <r_lp_tautomer_probability>
1

> <r_epik_Ionization_Penalty>
  0.0044

> <r_epik_Ionization_Penalty_Charging>
  0.0043

> <r_epik_Ionization_Penalty_Neutral>
  0.0000

> <r_epik_State_Penalty>
 -0.0000

> <r_epik_Charging_Adjusted_Penalty>
0.00433598534199872

> <i_epik_Tot_Q>
-1

> <i_epik_Tot_abs_Q>
1

$$$$
