4aje_ligand
                    3D
 Schrodinger Suite 2020-3.
 20 20  0  0  1  0            999 V2000
   14.9060  -15.3250    9.9550 C   0  0  0  0  0  0
   12.9110  -14.3790    8.9990 C   0  0  0  0  0  0
   15.6810  -14.5750    9.0850 C   0  0  0  0  0  0
   13.6820  -13.6340    8.1280 C   0  0  0  0  0  0
   13.5280  -15.2260    9.9090 C   0  0  0  0  0  0
   15.0650  -13.7460    8.1910 C   0  0  0  0  0  0
   12.9480  -18.0520    9.7010 C   0  0  0  0  0  0
   11.8740  -17.8390   11.9670 C   0  0  0  0  0  0
   12.9700  -17.3300   11.0390 C   0  0  0  0  0  0
   12.1170  -17.7870    8.8100 O   0  0  0  0  0  0
   11.9350  -18.9170   12.5440 O   0  0  0  0  0  0
   13.9000  -18.9200    9.6030 O   0  5  0  0  0  0
   10.8800  -17.0160   12.0710 O   0  5  0  0  0  0
   12.7120  -15.9270   10.7650 O   0  0  0  0  0  0
   16.1290  -12.7180    7.0080 Br  0  0  0  0  0  0
   15.3820  -15.9916   10.6741 H   0  0  0  0  0  0
   11.8241  -14.3021    8.9718 H   0  0  0  0  0  0
   16.7683  -14.6456    9.1136 H   0  0  0  0  0  0
   13.2127  -12.9690    7.4030 H   0  0  0  0  0  0
   13.9489  -17.4524   11.5256 H   0  0  0  0  0  0
  1  3  2  0  0  0
  1  5  1  0  0  0
  1 16  1  0  0  0
  2  4  1  0  0  0
  2  5  2  0  0  0
  2 17  1  0  0  0
  3  6  1  0  0  0
  3 18  1  0  0  0
  4  6  2  0  0  0
  4 19  1  0  0  0
  5 14  1  0  0  0
  6 15  1  0  0  0
  7  9  1  0  0  0
  7 10  2  0  0  0
  7 12  1  0  0  0
  8  9  1  0  0  0
  8 11  2  0  0  0
  8 13  1  0  0  0
  9 14  1  0  0  0
  9 20  1  0  0  0
M  CHG  2  12  -1  13  -1
M  END
> <s_m_source_file>
../4aje_ligand.sdf

> <i_m_source_file_index>
1

> <s_epik_input>
W2NIXTFbY0hdYyhCcilbY0hdW2NIXWMxT1tDSF0oQyg9TylbT0hdKUMoPU8pW09IXQ==

> <s_epik_cmdline>
J2VwaWtfYXBwJywgJy1pbWFlJywgJ2xpZ2FuZF9wcm8ubWFlJywgJy1vbWFlJywgJ2xpZ2FuZF9wcmVwLm1hZScsICctbXMnLCAnMScsICctcGgnLCAnNycsICctcGh0JywgJzAuNScsICctbnQn

> <r_lp_tautomer_probability>
1

> <r_epik_Ionization_Penalty>
  0.0003

> <r_epik_Ionization_Penalty_Charging>
  0.0003

> <r_epik_Ionization_Penalty_Neutral>
  0.0000

> <r_epik_State_Penalty>
 -0.0000

> <r_epik_Charging_Adjusted_Penalty>
0.000314313272565103

> <i_epik_Tot_Q>
-2

> <i_epik_Tot_abs_Q>
2

$$$$
