4aji_ligand
                    3D
 Schrodinger Suite 2020-3.
 30 30  0  0  1  0            999 V2000
   16.3310  -12.2350    6.6250 C   0  0  0  0  0  0
   15.3780  -13.2870    6.5400 O   0  0  0  0  0  0
   14.8900  -13.8030    7.7110 C   0  0  0  0  0  0
   15.6690  -14.3640    8.7120 C   0  0  0  0  0  0
   15.0680  -14.8800    9.8700 C   0  0  0  0  0  0
   13.6880  -14.8220   10.0300 C   0  0  0  0  0  0
   12.9170  -14.2750    9.0140 C   0  0  0  0  0  0
   13.4940  -13.7570    7.8720 C   0  0  0  0  0  0
   12.7930  -13.1900    6.8520 O   0  0  0  0  0  0
   11.4660  -12.6830    7.1470 C   0  0  0  0  0  0
   13.0080  -15.4020   11.2260 C   0  0  0  0  0  0
   12.3200  -16.7450   10.9320 C   0  0  0  0  0  0
   13.3410  -17.8070   10.6100 C   0  0  0  0  0  0
   14.3990  -17.8520   11.1690 O   0  0  0  0  0  0
   12.9610  -18.6800    9.6960 O   0  5  0  0  0  0
   11.4810  -17.2020   12.0950 C   0  0  0  0  0  0
   11.8120  -18.1680   12.7680 O   0  0  0  0  0  0
   10.3970  -16.4440   12.3270 O   0  5  0  0  0  0
   16.6280  -11.9266    5.6118 H   0  0  0  0  0  0
   17.2162  -12.5858    7.1758 H   0  0  0  0  0  0
   15.8859  -11.3789    7.1532 H   0  0  0  0  0  0
   16.7523  -14.4042    8.5986 H   0  0  0  0  0  0
   15.6858  -15.3285   10.6480 H   0  0  0  0  0  0
   11.8324  -14.2539    9.1201 H   0  0  0  0  0  0
   11.0248  -12.2571    6.2338 H   0  0  0  0  0  0
   11.5349  -11.9027    7.9193 H   0  0  0  0  0  0
   10.8322  -13.5048    7.5116 H   0  0  0  0  0  0
   13.7480  -15.5724   12.0218 H   0  0  0  0  0  0
   12.2380  -14.7032   11.5849 H   0  0  0  0  0  0
   11.6558  -16.6106   10.0655 H   0  0  0  0  0  0
  1  2  1  0  0  0
  1 19  1  0  0  0
  1 20  1  0  0  0
  1 21  1  0  0  0
  2  3  1  0  0  0
  3  4  2  0  0  0
  3  8  1  0  0  0
  4  5  1  0  0  0
  4 22  1  0  0  0
  5  6  2  0  0  0
  5 23  1  0  0  0
  6  7  1  0  0  0
  6 11  1  0  0  0
  7  8  2  0  0  0
  7 24  1  0  0  0
  8  9  1  0  0  0
  9 10  1  0  0  0
 10 25  1  0  0  0
 10 26  1  0  0  0
 10 27  1  0  0  0
 11 12  1  0  0  0
 11 28  1  0  0  0
 11 29  1  0  0  0
 12 13  1  0  0  0
 12 16  1  0  0  0
 12 30  1  0  0  0
 13 14  2  0  0  0
 13 15  1  0  0  0
 16 17  2  0  0  0
 16 18  1  0  0  0
M  CHG  2  15  -1  18  -1
M  END
> <s_m_source_file>
../4aji_ligand.sdf

> <i_m_source_file_index>
1

> <s_epik_input>
W0NIM11PYzFbY0hdW2NIXWMoW2NIXWMxT1tDSDNdKVtDSDJdW0NIXShDKD1PKVtPSF0pQyg9TylbT0hd

> <s_epik_cmdline>
J2VwaWtfYXBwJywgJy1pbWFlJywgJ2xpZ2FuZF9wcm8ubWFlJywgJy1vbWFlJywgJ2xpZ2FuZF9wcmVwLm1hZScsICctbXMnLCAnMScsICctcGgnLCAnNycsICctcGh0JywgJzAuNScsICctbnQn

> <r_lp_tautomer_probability>
1

> <r_epik_Ionization_Penalty>
  0.0144

> <r_epik_Ionization_Penalty_Charging>
  0.0144

> <r_epik_Ionization_Penalty_Neutral>
  0.0000

> <r_epik_State_Penalty>
  0.0113

> <r_epik_Charging_Adjusted_Penalty>
0.0256447426155157

> <i_epik_Tot_Q>
-2

> <i_epik_Tot_abs_Q>
2

$$$$
