4ajk_ligand
                    3D
 Schrodinger Suite 2020-3.
 33 34  0  0  1  0            999 V2000
   21.9800   -5.3940    0.9900 C   0  0  0  0  0  0
   20.7020   -5.3430    1.5300 C   0  0  0  0  0  0
   19.8480   -6.7140   -0.2870 C   0  0  0  0  0  0
   22.2060   -6.1070   -0.1950 C   0  0  0  0  0  0
   19.6340   -6.0060    0.9050 C   0  0  0  0  0  0
   21.1290   -6.7460   -0.8180 C   0  0  0  0  0  0
   23.2760   -6.9210   -1.9670 C   0  0  0  0  0  0
   17.4330   -6.9550    1.5790 C   0  0  0  0  0  0
   14.9630   -9.5250    3.7530 C   0  0  0  0  0  0
   24.4100   -7.2100   -2.8850 C   0  0  0  0  0  0
   16.2480   -6.6180    2.4630 C   0  0  0  0  0  0
   15.0840   -7.5580    2.2680 C   0  0  0  0  0  0
   23.4200   -6.2250   -0.8640 N   0  0  0  0  0  0
   15.1390  -10.8540    3.8190 N   0  0  0  0  0  0
   18.3380   -5.9540    1.4820 N   0  0  0  0  0  0
   15.4410   -8.9210    2.6590 N   0  0  0  0  0  0
   17.5550   -8.0590    1.0050 O   0  0  0  0  0  0
   14.3910   -8.8850    4.6580 O   0  0  0  0  0  0
   21.6700   -7.5160   -2.2740 S   0  0  0  0  0  0
   22.8043   -4.8815    1.4858 H   0  0  0  0  0  0
   20.5261   -4.7827    2.4483 H   0  0  0  0  0  0
   19.0257   -7.2277   -0.7850 H   0  0  0  0  0  0
   25.3249   -6.7381   -2.4974 H   0  0  0  0  0  0
   24.1848   -6.8078   -3.8838 H   0  0  0  0  0  0
   24.5589   -8.2978   -2.9527 H   0  0  0  0  0  0
   16.5507   -6.6741    3.5190 H   0  0  0  0  0  0
   15.8984   -5.6002    2.2354 H   0  0  0  0  0  0
   14.2362   -7.2245    2.8844 H   0  0  0  0  0  0
   14.7883   -7.5607    1.2085 H   0  0  0  0  0  0
   15.6487  -11.3827    3.0000 H   0  0  0  0  0  0
   14.7736  -11.4145    4.6921 H   0  0  0  0  0  0
   17.9679   -5.0150    1.9193 H   0  0  0  0  0  0
   16.1376   -9.5060    2.0405 H   0  0  0  0  0  0
  1  2  1  0  0  0
  1  4  2  0  0  0
  1 20  1  0  0  0
  2  5  2  0  0  0
  2 21  1  0  0  0
  3  5  1  0  0  0
  3  6  2  0  0  0
  3 22  1  0  0  0
  4  6  1  0  0  0
  4 13  1  0  0  0
  5 15  1  0  0  0
  6 19  1  0  0  0
  7 10  1  0  0  0
  7 13  2  0  0  0
  7 19  1  0  0  0
  8 11  1  0  0  0
  8 15  1  0  0  0
  8 17  2  0  0  0
  9 14  1  0  0  0
  9 16  1  0  0  0
  9 18  2  0  0  0
 10 23  1  0  0  0
 10 24  1  0  0  0
 10 25  1  0  0  0
 11 12  1  0  0  0
 11 26  1  0  0  0
 11 27  1  0  0  0
 12 16  1  0  0  0
 12 28  1  0  0  0
 12 29  1  0  0  0
 14 30  1  0  0  0
 14 31  1  0  0  0
 15 32  1  0  0  0
 16 33  1  0  0  0
M  END
> <s_m_source_file>
../4ajk_ligand.sdf

> <i_m_source_file_index>
1

> <s_epik_input>
W0NIM11jKG4xKXNjKGMxMilbY0hdYyhbY0hdW2NIXTIpW05IXUMoPU8pW0NIMl1bQ0gyXVtOSF1DKD1PKVtOSDJd

> <s_epik_cmdline>
J2VwaWtfYXBwJywgJy1pbWFlJywgJ2xpZ2FuZF9wcm8ubWFlJywgJy1vbWFlJywgJ2xpZ2FuZF9wcmVwLm1hZScsICctbXMnLCAnMScsICctcGgnLCAnNycsICctcGh0JywgJzAuNScsICctbnQn

> <r_lp_tautomer_probability>
1

> <r_epik_Ionization_Penalty>
  0.0001

> <r_epik_Ionization_Penalty_Charging>
  0.0000

> <r_epik_Ionization_Penalty_Neutral>
  0.0001

> <r_epik_State_Penalty>
 -0.0000

> <r_epik_Charging_Adjusted_Penalty>
0

> <i_epik_Tot_Q>
0

> <i_epik_Tot_abs_Q>
0

$$$$
