4ajl_ligand
                    3D
 Schrodinger Suite 2020-3.
 39 40  0  0  1  0            999 V2000
   16.2370  -11.8330    6.4570 C   0  0  0  0  0  0
   21.9710   -5.4350    1.0480 C   0  0  0  0  0  0
   20.6940   -5.3690    1.5830 C   0  0  0  0  0  0
   15.1130  -11.5940    5.4940 C   0  0  0  0  0  0
   19.8240   -6.7590   -0.2020 C   0  0  0  0  0  0
   22.1870   -6.1640   -0.1250 C   0  0  0  0  0  0
   19.6270   -6.0440    0.9790 C   0  0  0  0  0  0
   21.1030   -6.8040   -0.7380 C   0  0  0  0  0  0
   23.2580   -6.9810   -1.9050 C   0  0  0  0  0  0
   17.4640   -7.0730    1.6740 C   0  0  0  0  0  0
   15.0770   -9.6280    4.0110 C   0  0  0  0  0  0
   24.3400   -7.2370   -2.9020 C   0  0  0  0  0  0
   16.2750   -6.7850    2.5720 C   0  0  0  0  0  0
   15.1410   -7.7760    2.3850 C   0  0  0  0  0  0
   23.4010   -6.2910   -0.7980 N   0  0  0  0  0  0
   15.5460  -10.8590    4.3030 N   0  0  0  0  0  0
   18.3620   -6.0610    1.6190 N   0  0  0  0  0  0
   15.5120   -9.1100    2.8430 N   0  0  0  0  0  0
   17.5890   -8.1430    1.0620 O   0  0  0  0  0  0
   14.3000   -9.0200    4.7580 O   0  0  0  0  0  0
   21.6290   -7.5680   -2.2090 S   0  0  0  0  0  0
   15.8604  -12.3861    7.3301 H   0  0  0  0  0  0
   16.6505  -10.8678    6.7848 H   0  0  0  0  0  0
   17.0247  -12.4205    5.9626 H   0  0  0  0  0  0
   22.7994   -4.9230    1.5376 H   0  0  0  0  0  0
   20.5185   -4.7839    2.4857 H   0  0  0  0  0  0
   14.6995  -12.5592    5.1662 H   0  0  0  0  0  0
   14.3253  -11.0066    5.9883 H   0  0  0  0  0  0
   18.9945   -7.2694   -0.6914 H   0  0  0  0  0  0
   25.2820   -6.7981   -2.5416 H   0  0  0  0  0  0
   24.0672   -6.7799   -3.8646 H   0  0  0  0  0  0
   24.4677   -8.3215   -3.0341 H   0  0  0  0  0  0
   16.5908   -6.8315    3.6247 H   0  0  0  0  0  0
   15.8830   -5.7813    2.3508 H   0  0  0  0  0  0
   14.2645   -7.4430    2.9602 H   0  0  0  0  0  0
   14.8785   -7.8359    1.3185 H   0  0  0  0  0  0
   16.2757  -11.3092    3.6139 H   0  0  0  0  0  0
   18.0058   -5.1701    2.1569 H   0  0  0  0  0  0
   16.1727   -9.7387    2.2280 H   0  0  0  0  0  0
  1  4  1  0  0  0
  1 22  1  0  0  0
  1 23  1  0  0  0
  1 24  1  0  0  0
  2  3  1  0  0  0
  2  6  2  0  0  0
  2 25  1  0  0  0
  3  7  2  0  0  0
  3 26  1  0  0  0
  4 16  1  0  0  0
  4 27  1  0  0  0
  4 28  1  0  0  0
  5  7  1  0  0  0
  5  8  2  0  0  0
  5 29  1  0  0  0
  6  8  1  0  0  0
  6 15  1  0  0  0
  7 17  1  0  0  0
  8 21  1  0  0  0
  9 12  1  0  0  0
  9 15  2  0  0  0
  9 21  1  0  0  0
 10 13  1  0  0  0
 10 17  1  0  0  0
 10 19  2  0  0  0
 11 16  1  0  0  0
 11 18  1  0  0  0
 11 20  2  0  0  0
 12 30  1  0  0  0
 12 31  1  0  0  0
 12 32  1  0  0  0
 13 14  1  0  0  0
 13 33  1  0  0  0
 13 34  1  0  0  0
 14 18  1  0  0  0
 14 35  1  0  0  0
 14 36  1  0  0  0
 16 37  1  0  0  0
 17 38  1  0  0  0
 18 39  1  0  0  0
M  END
> <s_m_source_file>
../4ajl_ligand.sdf

> <i_m_source_file_index>
1

> <s_epik_input>
W0NIM11bQ0gyXVtOSF1DKD1PKVtOSF1bQ0gyXVtDSDJdQyg9TylbTkhdYyhbY0hdW2NIXTEpW2NIXWMoYzEyKXNjKG4yKVtDSDNd

> <s_epik_cmdline>
J2VwaWtfYXBwJywgJy1pbWFlJywgJ2xpZ2FuZF9wcm8ubWFlJywgJy1vbWFlJywgJ2xpZ2FuZF9wcmVwLm1hZScsICctbXMnLCAnMScsICctcGgnLCAnNycsICctcGh0JywgJzAuNScsICctbnQn

> <r_lp_tautomer_probability>
1

> <r_epik_Ionization_Penalty>
  0.0001

> <r_epik_Ionization_Penalty_Charging>
  0.0000

> <r_epik_Ionization_Penalty_Neutral>
  0.0001

> <r_epik_State_Penalty>
 -0.0000

> <r_epik_Charging_Adjusted_Penalty>
0

> <i_epik_Tot_Q>
0

> <i_epik_Tot_abs_Q>
0

$$$$
