4ajn_ligand
                    3D
 Schrodinger Suite 2020-3.
 59 61  0  0  1  0            999 V2000
   15.3590  -14.1690    8.4600 C   0  0  0  0  0  0
   13.1920  -13.8880    7.5330 C   0  0  0  0  0  0
   14.8040  -14.7640    9.5770 C   0  0  0  0  0  0
   12.6360  -14.4760    8.6550 C   0  0  0  0  0  0
   21.6850   -5.7460    1.1870 C   0  0  0  0  0  0
   20.4150   -5.7470    1.7350 C   0  0  0  0  0  0
   19.6120   -7.1540   -0.0470 C   0  0  0  0  0  0
   14.5620  -13.7190    7.4220 C   0  0  0  0  0  0
   13.4340  -14.9270    9.6920 C   0  0  0  0  0  0
   21.9360   -6.4560    0.0130 C   0  0  0  0  0  0
   19.3790   -6.4410    1.1240 C   0  0  0  0  0  0
   20.8890   -7.1550   -0.5850 C   0  0  0  0  0  0
   23.0460   -7.2960   -1.7200 C   0  0  0  0  0  0
   17.2990   -7.5250    1.9040 C   0  0  0  0  0  0
   11.2270  -17.3010   11.8450 C   0  0  0  0  0  0
   12.5010  -17.8210    9.7680 C   0  0  0  0  0  0
   14.8860   -9.9040    4.3100 C   0  0  0  0  0  0
   24.2130   -7.5670   -2.6070 C   0  0  0  0  0  0
   15.1840  -13.0990    6.1900 C   0  0  0  0  0  0
   12.8380  -15.5820   10.9180 C   0  0  0  0  0  0
   16.0770   -7.2790    2.7630 C   0  0  0  0  0  0
   14.8340  -11.6450    6.0080 C   0  0  0  0  0  0
   14.9550   -8.2560    2.4840 C   0  0  0  0  0  0
   11.8470  -16.7170   10.5850 C   0  0  0  0  0  0
   23.1580   -6.5480   -0.6490 N   0  0  0  0  0  0
   18.0850   -6.4400    1.6990 N   0  0  0  0  0  0
   15.0140  -11.2000    4.6320 N   0  0  0  0  0  0
   15.2060   -9.5780    3.0480 N   0  0  0  0  0  0
   17.5310   -8.6290    1.4160 O   0  0  0  0  0  0
   11.6780  -18.2910   12.3960 O   0  0  0  0  0  0
   13.5150  -18.3700   10.1620 O   0  0  0  0  0  0
   14.4540   -9.0810    5.1110 O   0  0  0  0  0  0
   10.1610  -16.6690   12.2470 O   0  5  0  0  0  0
   11.9060  -18.1110    8.6410 O   0  5  0  0  0  0
   21.4670   -7.9410   -2.0260 S   0  0  0  0  0  0
   16.4408  -14.0524    8.3956 H   0  0  0  0  0  0
   12.5423  -13.5528    6.7245 H   0  0  0  0  0  0
   15.4549  -15.1103   10.3798 H   0  0  0  0  0  0
   11.5537  -14.5857    8.7234 H   0  0  0  0  0  0
   22.4883   -5.1913    1.6718 H   0  0  0  0  0  0
   20.2253   -5.1969    2.6567 H   0  0  0  0  0  0
   18.8048   -7.7021   -0.5328 H   0  0  0  0  0  0
   25.1016   -7.0536   -2.2109 H   0  0  0  0  0  0
   23.9971   -7.1972   -3.6202 H   0  0  0  0  0  0
   24.4014   -8.6501   -2.6443 H   0  0  0  0  0  0
   16.2797  -13.1682    6.2581 H   0  0  0  0  0  0
   14.8376  -13.6359    5.2946 H   0  0  0  0  0  0
   13.6428  -16.0149   11.5302 H   0  0  0  0  0  0
   12.2932  -14.8298   11.5074 H   0  0  0  0  0  0
   16.3494   -7.3757    3.8243 H   0  0  0  0  0  0
   15.6937   -6.2655    2.5737 H   0  0  0  0  0  0
   13.7811  -11.4842    6.2827 H   0  0  0  0  0  0
   15.4791  -11.0292    6.6519 H   0  0  0  0  0  0
   14.0201   -7.8753    2.9211 H   0  0  0  0  0  0
   14.8311   -8.3715    1.3971 H   0  0  0  0  0  0
   11.0414  -16.2823    9.9751 H   0  0  0  0  0  0
   17.6296   -5.4939    2.0270 H   0  0  0  0  0  0
   15.2573  -11.9294    3.8454 H   0  0  0  0  0  0
   15.6768  -10.3584    2.4321 H   0  0  0  0  0  0
  1  3  2  0  0  0
  1  8  1  0  0  0
  1 36  1  0  0  0
  2  4  1  0  0  0
  2  8  2  0  0  0
  2 37  1  0  0  0
  3  9  1  0  0  0
  3 38  1  0  0  0
  4  9  2  0  0  0
  4 39  1  0  0  0
  5  6  1  0  0  0
  5 10  2  0  0  0
  5 40  1  0  0  0
  6 11  2  0  0  0
  6 41  1  0  0  0
  7 11  1  0  0  0
  7 12  2  0  0  0
  7 42  1  0  0  0
  8 19  1  0  0  0
  9 20  1  0  0  0
 10 12  1  0  0  0
 10 25  1  0  0  0
 11 26  1  0  0  0
 12 35  1  0  0  0
 13 18  1  0  0  0
 13 25  2  0  0  0
 13 35  1  0  0  0
 14 21  1  0  0  0
 14 26  1  0  0  0
 14 29  2  0  0  0
 15 24  1  0  0  0
 15 30  2  0  0  0
 15 33  1  0  0  0
 16 24  1  0  0  0
 16 31  2  0  0  0
 16 34  1  0  0  0
 17 27  1  0  0  0
 17 28  1  0  0  0
 17 32  2  0  0  0
 18 43  1  0  0  0
 18 44  1  0  0  0
 18 45  1  0  0  0
 19 22  1  0  0  0
 19 46  1  0  0  0
 19 47  1  0  0  0
 20 24  1  0  0  0
 20 48  1  0  0  0
 20 49  1  0  0  0
 21 23  1  0  0  0
 21 50  1  0  0  0
 21 51  1  0  0  0
 22 27  1  0  0  0
 22 52  1  0  0  0
 22 53  1  0  0  0
 23 28  1  0  0  0
 23 54  1  0  0  0
 23 55  1  0  0  0
 24 56  1  0  0  0
 26 57  1  0  0  0
 27 58  1  0  0  0
 28 59  1  0  0  0
M  CHG  2  33  -1  34  -1
M  END
> <s_m_source_file>
../4ajn_ligand.sdf

> <i_m_source_file_index>
1

> <s_epik_input>
Tz1DKFtPSF0pW0NIXShDKD1PKVtPSF0pW0NIMl1jKFtjSF1bY0hdMSlbY0hdW2NIXWMxW0NIMl1bQ0gyXVtOSF1DKD1PKVtOSF1bQ0gyXVtDSDJdQyg9TylbTkhdYyhbY0hdW2NIXTIpW2NIXWMoYzIzKXNjKG4zKVtDSDNd

> <s_epik_cmdline>
J2VwaWtfYXBwJywgJy1pbWFlJywgJ2xpZ2FuZF9wcm8ubWFlJywgJy1vbWFlJywgJ2xpZ2FuZF9wcmVwLm1hZScsICctbXMnLCAnMScsICctcGgnLCAnNycsICctcGh0JywgJzAuNScsICctbnQn

> <r_epik_Ionization_Penalty>
  0.0145

> <r_epik_Ionization_Penalty_Charging>
  0.0144

> <r_epik_Ionization_Penalty_Neutral>
  0.0001

> <r_epik_State_Penalty>
  0.0113

> <r_epik_Charging_Adjusted_Penalty>
0.0256447426155157

> <i_epik_Tot_Q>
-2

> <i_epik_Tot_abs_Q>
2

$$$$
