4ajo_ligand
                    3D
 Schrodinger Suite 2020-3.
 60 62  0  0  1  0            999 V2000
   15.3580  -14.2740    8.4560 C   0  0  0  0  0  0
   13.2060  -13.9100    7.5280 C   0  0  0  0  0  0
   14.7790  -14.8430    9.5740 C   0  0  0  0  0  0
   12.6260  -14.4780    8.6470 C   0  0  0  0  0  0
   21.7010   -5.7230    1.1620 C   0  0  0  0  0  0
   20.4310   -5.7000    1.7080 C   0  0  0  0  0  0
   19.6040   -7.0820   -0.0800 C   0  0  0  0  0  0
   14.5800  -13.8050    7.4140 C   0  0  0  0  0  0
   13.4050  -14.9540    9.6860 C   0  0  0  0  0  0
   21.9390   -6.4250   -0.0200 C   0  0  0  0  0  0
   19.3810   -6.3650    1.0900 C   0  0  0  0  0  0
   20.8770   -7.0970   -0.6250 C   0  0  0  0  0  0
   23.0280   -7.2700   -1.7670 C   0  0  0  0  0  0
   17.2660   -7.4210    1.8220 C   0  0  0  0  0  0
   14.9260   -9.8850    4.2060 C   0  0  0  0  0  0
   12.4210  -17.7980    9.6530 C   0  0  0  0  0  0
   11.1010  -17.2890   11.7480 C   0  0  0  0  0  0
   24.1820   -7.5520   -2.6740 C   0  0  0  0  0  0
   15.2250  -13.1910    6.1940 C   0  0  0  0  0  0
   12.7810  -15.6040   10.8930 C   0  0  0  0  0  0
   16.0660   -7.1840    2.7080 C   0  0  0  0  0  0
   15.1300  -11.3500    4.4860 C   0  0  0  0  0  0
   14.7670  -11.7820    5.8920 C   0  0  0  0  0  0
   14.9640   -8.1790    2.4470 C   0  0  0  0  0  0
   11.7870  -16.7230   10.5220 C   0  0  0  0  0  0
   23.1580   -6.5350   -0.6870 N   0  0  0  0  0  0
   18.0790   -6.3490    1.6570 N   0  0  0  0  0  0
   15.2960   -9.4880    2.9920 N   0  0  0  0  0  0
   17.4630   -8.5130    1.2930 O   0  0  0  0  0  0
   14.4220   -9.1320    5.0380 O   0  0  0  0  0  0
   11.9530  -18.0930    8.5640 O   0  0  0  0  0  0
   10.1770  -16.6750   12.2530 O   0  0  0  0  0  0
   13.4880  -18.3420   10.1480 O   0  5  0  0  0  0
   11.5570  -18.4210   12.2040 O   0  5  0  0  0  0
   21.4350   -7.8790   -2.0760 S   0  0  0  0  0  0
   16.4433  -14.1938    8.3947 H   0  0  0  0  0  0
   12.5707  -13.5394    6.7236 H   0  0  0  0  0  0
   15.4147  -15.2099   10.3799 H   0  0  0  0  0  0
   11.5404  -14.5517    8.7113 H   0  0  0  0  0  0
   22.5160   -5.1929    1.6548 H   0  0  0  0  0  0
   20.2523   -5.1536    2.6341 H   0  0  0  0  0  0
   18.7896   -7.6239   -0.5609 H   0  0  0  0  0  0
   25.0862   -7.0658   -2.2789 H   0  0  0  0  0  0
   23.9636   -7.1595   -3.6781 H   0  0  0  0  0  0
   24.3455   -8.6382   -2.7325 H   0  0  0  0  0  0
   16.3151  -13.1519    6.3360 H   0  0  0  0  0  0
   14.9922  -13.8020    5.3094 H   0  0  0  0  0  0
   13.5691  -16.0484   11.5186 H   0  0  0  0  0  0
   12.2337  -14.8478   11.4749 H   0  0  0  0  0  0
   16.3656   -7.2731    3.7627 H   0  0  0  0  0  0
   15.6678   -6.1753    2.5239 H   0  0  0  0  0  0
   14.5084  -11.9444    3.8002 H   0  0  0  0  0  0
   16.1890  -11.6077    4.3376 H   0  0  0  0  0  0
   13.6736  -11.7217    5.9959 H   0  0  0  0  0  0
   15.2413  -11.0832    6.5968 H   0  0  0  0  0  0
   14.0341   -7.8283    2.9185 H   0  0  0  0  0  0
   14.8099   -8.2794    1.3625 H   0  0  0  0  0  0
   10.9899  -16.2813    9.9060 H   0  0  0  0  0  0
   17.6447   -5.4022    2.0106 H   0  0  0  0  0  0
   15.8797  -10.2017    2.3920 H   0  0  0  0  0  0
  1  3  2  0  0  0
  1  8  1  0  0  0
  1 36  1  0  0  0
  2  4  1  0  0  0
  2  8  2  0  0  0
  2 37  1  0  0  0
  3  9  1  0  0  0
  3 38  1  0  0  0
  4  9  2  0  0  0
  4 39  1  0  0  0
  5  6  1  0  0  0
  5 10  2  0  0  0
  5 40  1  0  0  0
  6 11  2  0  0  0
  6 41  1  0  0  0
  7 11  1  0  0  0
  7 12  2  0  0  0
  7 42  1  0  0  0
  8 19  1  0  0  0
  9 20  1  0  0  0
 10 12  1  0  0  0
 10 26  1  0  0  0
 11 27  1  0  0  0
 12 35  1  0  0  0
 13 18  1  0  0  0
 13 26  2  0  0  0
 13 35  1  0  0  0
 14 21  1  0  0  0
 14 27  1  0  0  0
 14 29  2  0  0  0
 15 22  1  0  0  0
 15 28  1  0  0  0
 15 30  2  0  0  0
 16 25  1  0  0  0
 16 31  2  0  0  0
 16 33  1  0  0  0
 17 25  1  0  0  0
 17 32  2  0  0  0
 17 34  1  0  0  0
 18 43  1  0  0  0
 18 44  1  0  0  0
 18 45  1  0  0  0
 19 23  1  0  0  0
 19 46  1  0  0  0
 19 47  1  0  0  0
 20 25  1  0  0  0
 20 48  1  0  0  0
 20 49  1  0  0  0
 21 24  1  0  0  0
 21 50  1  0  0  0
 21 51  1  0  0  0
 22 23  1  0  0  0
 22 52  1  0  0  0
 22 53  1  0  0  0
 23 54  1  0  0  0
 23 55  1  0  0  0
 24 28  1  0  0  0
 24 56  1  0  0  0
 24 57  1  0  0  0
 25 58  1  0  0  0
 27 59  1  0  0  0
 28 60  1  0  0  0
M  CHG  2  33  -1  34  -1
M  END
> <s_m_source_file>
../4ajo_ligand.sdf

> <i_m_source_file_index>
1

> <s_epik_input>
Tz1DKFtPSF0pW0NIXShDKD1PKVtPSF0pW0NIMl1jKFtjSF1bY0hdMSlbY0hdW2NIXWMxW0NIMl1bQ0gyXVtDSDJdQyg9TylbTkhdW0NIMl1bQ0gyXUMoPU8pW05IXWMoW2NIXVtjSF0yKVtjSF1jKGMyMylzYyhuMylbQ0gzXQ==

> <s_epik_cmdline>
J2VwaWtfYXBwJywgJy1pbWFlJywgJ2xpZ2FuZF9wcm8ubWFlJywgJy1vbWFlJywgJ2xpZ2FuZF9wcmVwLm1hZScsICctbXMnLCAnMScsICctcGgnLCAnNycsICctcGh0JywgJzAuNScsICctbnQn

> <r_epik_Ionization_Penalty>
  0.0144

> <r_epik_Ionization_Penalty_Charging>
  0.0144

> <r_epik_Ionization_Penalty_Neutral>
  0.0000

> <r_epik_State_Penalty>
  0.0113

> <r_epik_Charging_Adjusted_Penalty>
0.0256447426155157

> <i_epik_Tot_Q>
-2

> <i_epik_Tot_abs_Q>
2

$$$$
