4ajw_ligand
                    3D
 Schrodinger Suite 2020-3.
 43 46  0  0  1  0            999 V2000
   10.0720   -4.2050    8.7630 C   0  0  0  0  0  0
    9.5460   -3.3900    7.7280 N   0  0  0  0  0  0
    8.6860   -2.2470    8.0620 C   0  0  0  0  0  0
    7.8220   -1.8920    6.8790 C   0  0  0  0  0  0
    8.6020   -1.6330    5.7170 O   0  0  0  0  0  0
    9.3590   -2.7900    5.3750 C   0  0  0  0  0  0
   10.3000   -3.1830    6.4840 C   0  0  0  0  0  0
   11.1580   -4.9550    8.4310 N   0  0  0  0  0  0
   11.6940   -5.7390    9.3690 C   0  0  0  0  0  0
   11.1950   -5.8280   10.6730 N   0  0  0  0  0  0
   10.0940   -5.0920   11.0700 C   0  0  0  0  0  0
    9.5290   -4.2560   10.0560 C   0  0  0  0  0  0
    9.6800   -5.1950   12.2330 O   0  0  0  0  0  0
   12.5470   -7.6900    8.0860 C   0  0  0  0  0  0
   12.9060   -6.5740    9.0080 C   0  0  0  0  0  0
   13.2910   -8.0030    6.9430 N   0  0  0  0  0  0
   11.5160   -8.4820    8.2700 N   0  0  0  0  0  0
   11.5640   -9.3780    7.2030 C   0  0  0  0  0  0
   12.6490   -9.1000    6.3760 C   0  0  0  0  0  0
   12.9270   -9.8550    5.2450 C   0  0  0  0  0  0
   12.0810  -10.9190    4.9510 C   0  0  0  0  0  0
   10.9910  -11.2100    5.7670 C   0  0  0  0  0  0
   10.7210  -10.4450    6.8970 C   0  0  0  0  0  0
   14.4910   -7.3780    6.3890 C   0  0  0  0  0  0
    8.0430   -2.5089    8.9152 H   0  0  0  0  0  0
    9.3120   -1.3821    8.3266 H   0  0  0  0  0  0
    7.1400   -2.7267    6.6594 H   0  0  0  0  0  0
    7.2356   -0.9906    7.1106 H   0  0  0  0  0  0
    8.6766   -3.6312    5.1835 H   0  0  0  0  0  0
    9.9523   -2.5861    4.4714 H   0  0  0  0  0  0
   11.0404   -2.3832    6.6328 H   0  0  0  0  0  0
   10.8167   -4.1144    6.2091 H   0  0  0  0  0  0
   11.6799   -6.4924   11.4033 H   0  0  0  0  0  0
    8.6578   -3.6453   10.2928 H   0  0  0  0  0  0
   13.6538   -5.9389    8.5106 H   0  0  0  0  0  0
   13.3403   -7.0044    9.9224 H   0  0  0  0  0  0
   13.7803   -9.6217    4.6082 H   0  0  0  0  0  0
   12.2736  -11.5326    4.0710 H   0  0  0  0  0  0
   10.3407  -12.0483    5.5171 H   0  0  0  0  0  0
    9.8655  -10.6758    7.5318 H   0  0  0  0  0  0
   14.7928   -6.5342    7.0270 H   0  0  0  0  0  0
   14.2784   -7.0123    5.3736 H   0  0  0  0  0  0
   15.3046   -8.1173    6.3496 H   0  0  0  0  0  0
  1  2  1  0  0  0
  1  8  1  0  0  0
  1 12  2  0  0  0
  2  3  1  0  0  0
  2  7  1  0  0  0
  3  4  1  0  0  0
  3 25  1  0  0  0
  3 26  1  0  0  0
  4  5  1  0  0  0
  4 27  1  0  0  0
  4 28  1  0  0  0
  5  6  1  0  0  0
  6  7  1  0  0  0
  6 29  1  0  0  0
  6 30  1  0  0  0
  7 31  1  0  0  0
  7 32  1  0  0  0
  8  9  2  0  0  0
  9 10  1  0  0  0
  9 15  1  0  0  0
 10 11  1  0  0  0
 10 33  1  0  0  0
 11 12  1  0  0  0
 11 13  2  0  0  0
 12 34  1  0  0  0
 14 15  1  0  0  0
 14 16  1  0  0  0
 14 17  2  0  0  0
 15 35  1  0  0  0
 15 36  1  0  0  0
 16 19  1  0  0  0
 16 24  1  0  0  0
 17 18  1  0  0  0
 18 19  2  0  0  0
 18 23  1  0  0  0
 19 20  1  0  0  0
 20 21  2  0  0  0
 20 37  1  0  0  0
 21 22  1  0  0  0
 21 38  1  0  0  0
 22 23  2  0  0  0
 22 39  1  0  0  0
 23 40  1  0  0  0
 24 41  1  0  0  0
 24 42  1  0  0  0
 24 43  1  0  0  0
M  END
> <s_m_source_file>
../4ajw_ligand.sdf

> <i_m_source_file_index>
1

> <s_epik_input>
W0NIMl0xW0NIMl1PW0NIMl1bQ0gyXU4xYzJuYyhbbkhdYyg9TylbY0hdMilbQ0gyXWMobjMpbihbQ0gzXSljKGMzNClbY0hdW2NIXVtjSF1bY0hdNA==

> <s_epik_cmdline>
J2VwaWtfYXBwJywgJy1pbWFlJywgJ2xpZ2FuZF9wcm8ubWFlJywgJy1vbWFlJywgJ2xpZ2FuZF9wcmVwLm1hZScsICctbXMnLCAnMScsICctcGgnLCAnNycsICctcGh0JywgJzAuNScsICctbnQn

> <r_lp_tautomer_probability>
0.994036381586735

> <r_epik_Ionization_Penalty>
  0.2070

> <r_epik_Ionization_Penalty_Charging>
  0.0793

> <r_epik_Ionization_Penalty_Neutral>
  0.1278

> <r_epik_State_Penalty>
  0.0001

> <r_epik_Charging_Adjusted_Penalty>
0.0793295163510252

> <i_epik_Tot_Q>
0

> <i_epik_Tot_abs_Q>
0

$$$$
