4akn_ligand
                    3D
 Schrodinger Suite 2020-3.
 56 59  0  0  1  0            999 V2000
   18.8960    9.4190   -6.5500 C   0  0  0  0  0  0
   19.8440    8.9080   -7.5830 C   0  0  0  0  0  0
   20.8020    8.0960   -7.2310 N   0  0  0  0  0  0
   21.5210    7.7910   -8.4190 O   0  0  0  0  0  0
   20.9470    8.4460   -9.4300 C   0  0  0  0  0  0
   21.5550    8.2550  -10.7680 C   0  0  0  0  0  0
   19.8920    9.1590   -8.9690 C   0  0  0  0  0  0
   19.0120   10.0240   -9.7890 C   0  0  0  0  0  0
   19.5580   11.0850  -10.5020 C   0  0  0  0  0  0
   18.7770   11.8840  -11.2770 C   0  0  0  0  0  0
   17.3810   11.6650  -11.3830 C   0  0  0  0  0  0
   16.4990   12.4770  -12.1780 C   0  0  0  0  0  0
   16.9790   13.5580  -12.8890 N   0  0  0  0  0  0
   17.8750   14.5090  -12.2780 C   0  0  0  0  0  0
   17.7640   14.8130  -10.9200 C   0  0  0  0  0  0
   18.6440   15.7040  -10.3310 C   0  0  0  0  0  0
   19.6380   16.2940  -11.0770 C   0  0  0  0  0  0
   19.7700   16.0050  -12.4240 C   0  0  0  0  0  0
   18.9080   15.1100  -13.0530 C   0  0  0  0  0  0
   19.1110   14.8270  -14.5600 C   0  0  0  0  0  0
   19.1730   13.3220  -14.8290 C   0  0  0  0  0  0
   17.9580   15.4140  -15.3740 C   0  0  0  0  0  0
   20.4140   15.4410  -15.0840 C   0  0  0  0  0  0
   15.1240   12.1300  -12.1880 C   0  0  0  0  0  0
   14.7160   11.0310  -11.4310 C   0  0  0  0  0  0
   15.4830   10.2770  -10.6840 N   0  3  0  0  0  0
   16.8180   10.5810  -10.6560 C   0  0  0  0  0  0
   17.6620    9.7700   -9.8630 C   0  0  0  0  0  0
   14.0850   12.8400  -12.9910 C   0  0  0  0  0  0
   14.5200   13.8350  -13.7050 O   0  5  0  0  0  0
   12.9260   12.4520  -13.0260 O   0  0  0  0  0  0
   19.1678    9.0069   -5.5670 H   0  0  0  0  0  0
   17.8721    9.1096   -6.8069 H   0  0  0  0  0  0
   18.9493   10.5171   -6.5147 H   0  0  0  0  0  0
   22.4178    7.5777  -10.6854 H   0  0  0  0  0  0
   21.8881    9.2267  -11.1615 H   0  0  0  0  0  0
   20.8104    7.8189  -11.4502 H   0  0  0  0  0  0
   20.6286   11.2795  -10.4389 H   0  0  0  0  0  0
   19.2329   12.7076  -11.8265 H   0  0  0  0  0  0
   16.6790   13.7039  -13.9372 H   0  0  0  0  0  0
   16.9814   14.3469  -10.3214 H   0  0  0  0  0  0
   18.5491   15.9394   -9.2710 H   0  0  0  0  0  0
   20.3265   16.9941  -10.6038 H   0  0  0  0  0  0
   20.5603   16.4850  -13.0012 H   0  0  0  0  0  0
   18.2506   12.8461  -14.4646 H   0  0  0  0  0  0
   20.0393   12.8914  -14.3055 H   0  0  0  0  0  0
   19.2736   13.1466  -15.9103 H   0  0  0  0  0  0
   17.0064   14.9908  -15.0198 H   0  0  0  0  0  0
   18.0963   15.1666  -16.4369 H   0  0  0  0  0  0
   17.9416   16.5070  -15.2511 H   0  0  0  0  0  0
   21.2645   15.0364  -14.5157 H   0  0  0  0  0  0
   20.3789   16.5338  -14.9633 H   0  0  0  0  0  0
   20.5337   15.1934  -16.1491 H   0  0  0  0  0  0
   13.6569   10.7756  -11.4647 H   0  0  0  0  0  0
   17.2387    8.9350   -9.3046 H   0  0  0  0  0  0
   15.0473    9.4427  -10.1146 H   0  0  0  0  0  0
  1  2  1  0  0  0
  1 32  1  0  0  0
  1 33  1  0  0  0
  1 34  1  0  0  0
  2  3  2  0  0  0
  2  7  1  0  0  0
  3  4  1  0  0  0
  4  5  1  0  0  0
  5  6  1  0  0  0
  5  7  2  0  0  0
  6 35  1  0  0  0
  6 36  1  0  0  0
  6 37  1  0  0  0
  7  8  1  0  0  0
  8  9  2  0  0  0
  8 28  1  0  0  0
  9 10  1  0  0  0
  9 38  1  0  0  0
 10 11  2  0  0  0
 10 39  1  0  0  0
 11 12  1  0  0  0
 11 27  1  0  0  0
 12 13  1  0  0  0
 12 24  2  0  0  0
 13 14  1  0  0  0
 13 40  1  0  0  0
 14 15  2  0  0  0
 14 19  1  0  0  0
 15 16  1  0  0  0
 15 41  1  0  0  0
 16 17  2  0  0  0
 16 42  1  0  0  0
 17 18  1  0  0  0
 17 43  1  0  0  0
 18 19  2  0  0  0
 18 44  1  0  0  0
 19 20  1  0  0  0
 20 21  1  0  0  0
 20 22  1  0  0  0
 20 23  1  0  0  0
 21 45  1  0  0  0
 21 46  1  0  0  0
 21 47  1  0  0  0
 22 48  1  0  0  0
 22 49  1  0  0  0
 22 50  1  0  0  0
 23 51  1  0  0  0
 23 52  1  0  0  0
 23 53  1  0  0  0
 24 25  1  0  0  0
 24 29  1  0  0  0
 25 26  2  0  0  0
 25 54  1  0  0  0
 26 27  1  0  0  0
 26 56  1  0  0  0
 27 28  2  0  0  0
 28 55  1  0  0  0
 29 30  1  0  0  0
 29 31  2  0  0  0
M  CHG  2  26   1  30  -1
M  END
> <s_m_source_file>
../4akn_ligand.sdf

> <i_m_source_file_index>
1

> <s_epik_input>
W0NIM11jMW5vYyhbQ0gzXSljMS1jKFtjSF1bY0hdMilbY0hdYyhjMjMpbltjSF1jKEMoPU8pW09IXSljM1tOSF1jNFtjSF1bY0hdW2NIXVtjSF1jNEMoW0NIM10pKFtDSDNdKVtDSDNd

> <s_epik_cmdline>
J2VwaWtfYXBwJywgJy1pbWFlJywgJ2xpZ2FuZF9wcm8ubWFlJywgJy1vbWFlJywgJ2xpZ2FuZF9wcmVwLm1hZScsICctbXMnLCAnMScsICctcGgnLCAnNycsICctcGh0JywgJzAuNScsICctbnQn

> <r_epik_Ionization_Penalty>
  0.0816

> <r_epik_Ionization_Penalty_Charging>
  0.0815

> <r_epik_Ionization_Penalty_Neutral>
  0.0000

> <r_epik_State_Penalty>
  0.0722

> <r_epik_Charging_Adjusted_Penalty>
0.153755978498732

> <i_epik_Tot_Q>
0

> <i_epik_Tot_abs_Q>
2

$$$$
