4al4_ligand
                    3D
 Schrodinger Suite 2020-3.
 60 62  0  0  1  0            999 V2000
   13.2890  -13.9930    8.0910 C   0  0  0  0  0  0
   15.3080  -14.6270    9.2130 C   0  0  0  0  0  0
   12.5500  -14.5410    9.1230 C   0  0  0  0  0  0
   14.5550  -15.2040   10.2190 C   0  0  0  0  0  0
   21.5940   -5.8440    1.2450 C   0  0  0  0  0  0
   20.3280   -5.8080    1.8020 C   0  0  0  0  0  0
   19.4780   -7.2060    0.0350 C   0  0  0  0  0  0
   13.1740  -15.1450   10.2030 C   0  0  0  0  0  0
   21.8220   -6.5650    0.0720 C   0  0  0  0  0  0
   14.6700  -14.0120    8.1550 C   0  0  0  0  0  0
   19.2730   -6.4960    1.2130 C   0  0  0  0  0  0
   20.7490   -7.2360   -0.5160 C   0  0  0  0  0  0
   22.8890   -7.4550   -1.6700 C   0  0  0  0  0  0
   17.1260   -7.4910    1.9730 C   0  0  0  0  0  0
   12.0150  -17.8170    9.7670 C   0  0  0  0  0  0
   10.6980  -17.6120   11.8710 C   0  0  0  0  0  0
   14.8770   -9.9600    4.0980 C   0  0  0  0  0  0
   24.0140   -7.8010   -2.5850 C   0  0  0  0  0  0
   14.7510  -12.8410    6.0490 C   0  0  0  0  0  0
   12.3710  -15.8170   11.2870 C   0  0  0  0  0  0
   15.9420   -7.1680    2.8490 C   0  0  0  0  0  0
   15.6850  -11.8200    5.4780 C   0  0  0  0  0  0
   14.7550   -8.0540    2.5580 C   0  0  0  0  0  0
   11.3670  -16.8560   10.7470 C   0  0  0  0  0  0
   23.0330   -6.6950   -0.6090 N   0  0  0  0  0  0
   17.9810   -6.4600    1.7880 N   0  0  0  0  0  0
   15.1920  -11.2600    4.2260 N   0  0  0  0  0  0
   15.0320   -9.4510    2.8650 N   0  0  0  0  0  0
   17.2760   -8.6020    1.4720 O   0  0  0  0  0  0
   11.4980  -18.0690    8.6900 O   0  0  0  0  0  0
   11.1170  -18.6760   12.2980 O   0  0  0  0  0  0
   14.4290   -9.2970    5.0330 O   0  0  0  0  0  0
   13.1370  -18.3330   10.1620 O   0  5  0  0  0  0
    9.6620  -16.9890   12.3430 O   0  5  0  0  0  0
   15.4260  -13.4670    7.1460 O   0  0  0  0  0  0
   21.2820   -8.0300   -1.9680 S   0  0  0  0  0  0
   12.7860  -13.5487    7.2321 H   0  0  0  0  0  0
   16.3967  -14.6576    9.2553 H   0  0  0  0  0  0
   11.4615  -14.4974    9.0867 H   0  0  0  0  0  0
   15.0594  -15.7145   11.0394 H   0  0  0  0  0  0
   22.4144   -5.3086    1.7229 H   0  0  0  0  0  0
   20.1558   -5.2340    2.7125 H   0  0  0  0  0  0
   18.6527   -7.7301   -0.4468 H   0  0  0  0  0  0
   24.9416   -7.3384   -2.2168 H   0  0  0  0  0  0
   23.7933   -7.4263   -3.5954 H   0  0  0  0  0  0
   24.1371   -8.8936   -2.6179 H   0  0  0  0  0  0
   13.8315  -12.3449    6.3931 H   0  0  0  0  0  0
   14.5004  -13.5820    5.2756 H   0  0  0  0  0  0
   13.0506  -16.3399   11.9760 H   0  0  0  0  0  0
   11.7978  -15.0596   11.8418 H   0  0  0  0  0  0
   16.2187   -7.3054    3.9047 H   0  0  0  0  0  0
   15.6367   -6.1244    2.6828 H   0  0  0  0  0  0
   15.8093  -10.9951    6.1951 H   0  0  0  0  0  0
   16.6620  -12.2858    5.2820 H   0  0  0  0  0  0
   13.8981   -7.7307    3.1672 H   0  0  0  0  0  0
   14.4953   -7.9805    1.4916 H   0  0  0  0  0  0
   10.5813  -16.3141   10.2003 H   0  0  0  0  0  0
   17.5653   -5.5071    2.1475 H   0  0  0  0  0  0
   15.0669  -11.9073    3.3455 H   0  0  0  0  0  0
   15.3814  -10.1294    2.0727 H   0  0  0  0  0  0
  1  3  2  0  0  0
  1 10  1  0  0  0
  1 37  1  0  0  0
  2  4  1  0  0  0
  2 10  2  0  0  0
  2 38  1  0  0  0
  3  8  1  0  0  0
  3 39  1  0  0  0
  4  8  2  0  0  0
  4 40  1  0  0  0
  5  6  1  0  0  0
  5  9  2  0  0  0
  5 41  1  0  0  0
  6 11  2  0  0  0
  6 42  1  0  0  0
  7 11  1  0  0  0
  7 12  2  0  0  0
  7 43  1  0  0  0
  8 20  1  0  0  0
  9 12  1  0  0  0
  9 25  1  0  0  0
 10 35  1  0  0  0
 11 26  1  0  0  0
 12 36  1  0  0  0
 13 18  1  0  0  0
 13 25  2  0  0  0
 13 36  1  0  0  0
 14 21  1  0  0  0
 14 26  1  0  0  0
 14 29  2  0  0  0
 15 24  1  0  0  0
 15 30  2  0  0  0
 15 33  1  0  0  0
 16 24  1  0  0  0
 16 31  2  0  0  0
 16 34  1  0  0  0
 17 27  1  0  0  0
 17 28  1  0  0  0
 17 32  2  0  0  0
 18 44  1  0  0  0
 18 45  1  0  0  0
 18 46  1  0  0  0
 19 22  1  0  0  0
 19 35  1  0  0  0
 19 47  1  0  0  0
 19 48  1  0  0  0
 20 24  1  0  0  0
 20 49  1  0  0  0
 20 50  1  0  0  0
 21 23  1  0  0  0
 21 51  1  0  0  0
 21 52  1  0  0  0
 22 27  1  0  0  0
 22 53  1  0  0  0
 22 54  1  0  0  0
 23 28  1  0  0  0
 23 55  1  0  0  0
 23 56  1  0  0  0
 24 57  1  0  0  0
 26 58  1  0  0  0
 27 59  1  0  0  0
 28 60  1  0  0  0
M  CHG  2  33  -1  34  -1
M  END
> <s_m_source_file>
../4al4_ligand.sdf

> <i_m_source_file_index>
1

> <s_epik_input>
Tz1DKFtPSF0pW0NIXShDKD1PKVtPSF0pW0NIMl1jMVtjSF1bY0hdYyhbY0hdW2NIXTEpT1tDSDJdW0NIMl1bTkhdQyg9TylbTkhdW0NIMl1bQ0gyXUMoPU8pW05IXWMoW2NIXVtjSF0yKVtjSF1jKGMyMylzYyhuMylbQ0gzXQ==

> <s_epik_cmdline>
J2VwaWtfYXBwJywgJy1pbWFlJywgJ2xpZ2FuZF9wcm8ubWFlJywgJy1vbWFlJywgJ2xpZ2FuZF9wcmVwLm1hZScsICctbXMnLCAnMScsICctcGgnLCAnNycsICctcGh0JywgJzAuNScsICctbnQn

> <r_lp_tautomer_probability>
1

> <r_epik_Ionization_Penalty>
  0.0145

> <r_epik_Ionization_Penalty_Charging>
  0.0144

> <r_epik_Ionization_Penalty_Neutral>
  0.0001

> <r_epik_State_Penalty>
  0.0113

> <r_epik_Charging_Adjusted_Penalty>
0.0256447426155157

> <i_epik_Tot_Q>
-2

> <i_epik_Tot_abs_Q>
2

$$$$
