4alg_ligand
                    3D
 Schrodinger Suite 2020-3.
 52 56  0  0  1  0            999 V2000
    7.8980   -7.8790   17.0070 O   0  0  0  0  0  0
    8.7570   -7.0500   17.2640 C   0  0  0  0  0  0
    9.5310   -7.0130   18.4160 N   0  0  0  0  0  0
    9.4610   -8.0180   19.5040 C   0  0  1  0  0  0
   10.7960   -8.7350   19.6440 C   0  0  0  0  0  0
   11.1040   -9.2440   20.8470 N   0  0  0  0  0  0
   12.2880   -9.8800   20.9690 C   0  0  0  0  0  0
   13.1900  -10.0160   19.9410 C   0  0  0  0  0  0
   12.8600   -9.4860   18.7160 C   0  0  0  0  0  0
   11.6500   -8.8370   18.5550 C   0  0  0  0  0  0
    8.9190   -7.4290   20.8030 C   0  0  0  0  0  0
    9.1380   -5.9870   16.5010 N   0  0  0  0  0  0
   10.1510   -5.2830   17.1310 C   0  0  0  0  0  0
   10.4290   -5.9030   18.3540 C   0  0  0  0  0  0
   10.8330   -4.1410   16.7250 C   0  0  0  0  0  0
   11.7840   -3.5730   17.4270 N   0  0  0  0  0  0
   12.0940   -4.1360   18.6410 C   0  0  0  0  0  0
   11.4530   -5.2920   19.1450 C   0  0  0  0  0  0
   11.8600   -5.7950   20.4050 C   0  0  0  0  0  0
   13.1080   -3.5250   19.4080 C   0  0  0  0  0  0
   13.4730   -4.0170   20.6360 C   0  0  0  0  0  0
   12.8450   -5.1770   21.1220 C   0  0  0  0  0  0
   13.2900   -5.6010   22.3490 O   0  0  0  0  0  0
   12.4260   -6.4350   23.1120 C   0  0  0  0  0  0
   14.5580   -3.3570   21.3910 C   0  0  0  0  0  0
   14.5280   -2.9050   22.6620 C   0  0  0  0  0  0
   13.4810   -2.8460   23.7090 C   0  0  0  0  0  0
   15.7230   -2.3890   22.9840 O   0  0  0  0  0  0
   16.5820   -2.5330   21.8600 N   0  0  0  0  0  0
   15.8700   -3.1100   20.9340 C   0  0  0  0  0  0
   16.4930   -3.4040   19.6110 C   0  0  0  0  0  0
    8.7191   -8.7720   19.2022 H   0  0  0  0  0  0
   12.5433  -10.3101   21.9375 H   0  0  0  0  0  0
   14.1396  -10.5292   20.0925 H   0  0  0  0  0  0
   13.5488   -9.5771   17.8762 H   0  0  0  0  0  0
   11.3718   -8.4131   17.5901 H   0  0  0  0  0  0
    7.9568   -6.9331   20.6073 H   0  0  0  0  0  0
    9.6358   -6.6951   21.2000 H   0  0  0  0  0  0
    8.7737   -8.2343   21.5381 H   0  0  0  0  0  0
    8.6474   -5.7999   15.5344 H   0  0  0  0  0  0
   10.5617   -3.6927   15.7692 H   0  0  0  0  0  0
   11.3808   -6.6872   20.8080 H   0  0  0  0  0  0
   13.6131   -2.6420   19.0164 H   0  0  0  0  0  0
   12.9125   -6.6934   24.0641 H   0  0  0  0  0  0
   12.2121   -7.3549   22.5480 H   0  0  0  0  0  0
   11.4854   -5.9015   23.3138 H   0  0  0  0  0  0
   12.5538   -3.2975   23.3262 H   0  0  0  0  0  0
   13.2929   -1.7968   23.9808 H   0  0  0  0  0  0
   13.8191   -3.3999   24.5972 H   0  0  0  0  0  0
   15.7531   -3.8883   18.9568 H   0  0  0  0  0  0
   17.3530   -4.0753   19.7518 H   0  0  0  0  0  0
   16.8324   -2.4653   19.1488 H   0  0  0  0  0  0
  1  2  2  0  0  0
  2  3  1  0  0  0
  2 12  1  0  0  0
  3  4  1  0  0  0
  3 14  1  0  0  0
  4  5  1  0  0  0
  4 11  1  0  0  0
  4 32  1  0  0  0
  5  6  2  0  0  0
  5 10  1  0  0  0
  6  7  1  0  0  0
  7  8  2  0  0  0
  7 33  1  0  0  0
  8  9  1  0  0  0
  8 34  1  0  0  0
  9 10  2  0  0  0
  9 35  1  0  0  0
 10 36  1  0  0  0
 11 37  1  0  0  0
 11 38  1  0  0  0
 11 39  1  0  0  0
 12 13  1  0  0  0
 12 40  1  0  0  0
 13 14  2  0  0  0
 13 15  1  0  0  0
 14 18  1  0  0  0
 15 16  2  0  0  0
 15 41  1  0  0  0
 16 17  1  0  0  0
 17 18  2  0  0  0
 17 20  1  0  0  0
 18 19  1  0  0  0
 19 22  2  0  0  0
 19 42  1  0  0  0
 20 21  2  0  0  0
 20 43  1  0  0  0
 21 22  1  0  0  0
 21 25  1  0  0  0
 22 23  1  0  0  0
 23 24  1  0  0  0
 24 44  1  0  0  0
 24 45  1  0  0  0
 24 46  1  0  0  0
 25 26  2  0  0  0
 25 30  1  0  0  0
 26 27  1  0  0  0
 26 28  1  0  0  0
 27 47  1  0  0  0
 27 48  1  0  0  0
 27 49  1  0  0  0
 28 29  1  0  0  0
 29 30  2  0  0  0
 30 31  1  0  0  0
 31 50  1  0  0  0
 31 51  1  0  0  0
 31 52  1  0  0  0
M  END
> <s_m_source_file>
../4alg_ligand.sdf

> <i_m_source_file_index>
1

> <s_epik_input>
W2NIXTFbY0hdW2NIXVtjSF1uYzFbQ0BASF0oW0NIM10pbihjKD1PKVtuSF0yKWMoYzIzKWM0YyhuW2NIXTMpW2NIXWMoYyhbY0hdNClPW0NIM10pLWM1YyhbQ0gzXSlvbmM1W0NIM10=

> <s_epik_cmdline>
J2VwaWtfYXBwJywgJy1pbWFlJywgJ2xpZ2FuZF9wcm8ubWFlJywgJy1vbWFlJywgJ2xpZ2FuZF9wcmVwLm1hZScsICctbXMnLCAnMScsICctcGgnLCAnNycsICctcGh0JywgJzAuNScsICctbnQn

> <r_lp_tautomer_probability>
1

> <r_epik_Ionization_Penalty>
  0.0009

> <r_epik_Ionization_Penalty_Charging>
  0.0003

> <r_epik_Ionization_Penalty_Neutral>
  0.0006

> <r_epik_State_Penalty>
 -0.0000

> <r_epik_Charging_Adjusted_Penalty>
0.000307053500081218

> <i_epik_Tot_Q>
0

> <i_epik_Tot_abs_Q>
0

$$$$
