4alv_ligand
                    3D
 Schrodinger Suite 2020-3.
 50 54  0  0  1  0            999 V2000
  -22.6560   32.9190    7.8150 C   0  0  0  0  0  0
  -23.5230   34.1250    8.2010 C   0  0  0  0  0  0
  -24.6380   33.7640    9.1220 N   0  3  0  0  0  0
  -24.1900   32.9490   10.2940 C   0  0  0  0  0  0
  -23.3770   31.7100    9.8510 C   0  0  0  0  0  0
  -23.3690   31.6700    8.3250 C   0  0  0  0  0  0
  -22.8380   30.3360    7.7870 C   0  0  0  0  0  0
  -21.8250   30.4560    6.7380 N   0  0  0  0  0  0
  -21.9180   30.8070    5.4430 C   0  0  0  0  0  0
  -21.1080   31.8570    5.0520 C   0  0  0  0  0  0
  -21.0420   32.3250    3.7580 C   0  0  0  0  0  0
  -19.9860   33.6170    3.4440 Cl  0  0  0  0  0  0
  -22.6500   30.1740    4.4490 C   0  0  0  0  0  0
  -22.5710   30.6560    3.1330 C   0  0  0  0  0  0
  -21.7490   31.7320    2.7620 C   0  0  0  0  0  0
  -21.7410   32.1500    1.4360 C   0  0  0  0  0  0
  -22.0430   33.4070    1.1070 N   0  0  0  0  0  0
  -22.0840   33.7350   -0.1850 C   0  0  0  0  0  0
  -22.3710   34.8900   -0.8350 C   0  0  0  0  0  0
  -22.6980   36.0970   -0.3640 C   0  0  0  0  0  0
  -22.9380   37.1520   -1.2480 C   0  0  0  0  0  0
  -23.3850   38.8560   -0.4400 Br  0  0  0  0  0  0
  -22.8550   36.9890   -2.6270 C   0  0  0  0  0  0
  -22.5200   35.7360   -3.0800 C   0  0  0  0  0  0
  -22.2840   34.7120   -2.1900 C   0  0  0  0  0  0
  -21.9550   33.4360   -2.3980 O   0  0  0  0  0  0
  -21.8400   32.8340   -1.2020 C   0  0  0  0  0  0
  -21.5280   31.5540   -0.9200 C   0  0  0  0  0  0
  -21.3120   30.8070   -1.8700 O   0  5  0  0  0  0
  -21.4740   31.2010    0.4290 N   0  0  0  0  0  0
  -22.5452   32.8822    6.7212 H   0  0  0  0  0  0
  -21.6643   33.0162    8.2809 H   0  0  0  0  0  0
  -22.9001   34.8776    8.7066 H   0  0  0  0  0  0
  -23.9650   34.5640    7.2944 H   0  0  0  0  0  0
  -25.1029   34.6814    9.5121 H   0  0  0  0  0  0
  -25.3897   33.1761    8.5750 H   0  0  0  0  0  0
  -23.5545   33.5648   10.9474 H   0  0  0  0  0  0
  -25.0690   32.6032   10.8576 H   0  0  0  0  0  0
  -22.3488   31.7901   10.2337 H   0  0  0  0  0  0
  -23.8476   30.8001   10.2518 H   0  0  0  0  0  0
  -24.3944   31.7073    7.9285 H   0  0  0  0  0  0
  -22.3777   29.7667    8.6080 H   0  0  0  0  0  0
  -23.6692   29.7560    7.3596 H   0  0  0  0  0  0
  -20.7708   30.2380    6.9640 H   0  0  0  0  0  0
  -20.4887   32.3402    5.8077 H   0  0  0  0  0  0
  -23.2774   29.3149    4.6864 H   0  0  0  0  0  0
  -23.1749   30.1732    2.3647 H   0  0  0  0  0  0
  -22.7776   36.2587    0.7110 H   0  0  0  0  0  0
  -23.0461   37.8138   -3.3135 H   0  0  0  0  0  0
  -22.4405   35.5511   -4.1513 H   0  0  0  0  0  0
  1  2  1  0  0  0
  1  6  1  0  0  0
  1 31  1  0  0  0
  1 32  1  0  0  0
  2  3  1  0  0  0
  2 33  1  0  0  0
  2 34  1  0  0  0
  3  4  1  0  0  0
  3 35  1  0  0  0
  3 36  1  0  0  0
  4  5  1  0  0  0
  4 37  1  0  0  0
  4 38  1  0  0  0
  5  6  1  0  0  0
  5 39  1  0  0  0
  5 40  1  0  0  0
  6  7  1  0  0  0
  6 41  1  0  0  0
  7  8  1  0  0  0
  7 42  1  0  0  0
  7 43  1  0  0  0
  8  9  1  0  0  0
  8 44  1  0  0  0
  9 10  2  0  0  0
  9 13  1  0  0  0
 10 11  1  0  0  0
 10 45  1  0  0  0
 11 12  1  0  0  0
 11 15  2  0  0  0
 13 14  2  0  0  0
 13 46  1  0  0  0
 14 15  1  0  0  0
 14 47  1  0  0  0
 15 16  1  0  0  0
 16 17  2  0  0  0
 16 30  1  0  0  0
 17 18  1  0  0  0
 18 19  1  0  0  0
 18 27  2  0  0  0
 19 20  2  0  0  0
 19 25  1  0  0  0
 20 21  1  0  0  0
 20 48  1  0  0  0
 21 22  1  0  0  0
 21 23  2  0  0  0
 23 24  1  0  0  0
 23 49  1  0  0  0
 24 25  2  0  0  0
 24 50  1  0  0  0
 25 26  1  0  0  0
 26 27  1  0  0  0
 27 28  1  0  0  0
 28 29  1  0  0  0
 28 30  2  0  0  0
M  CHG  2   3   1  29  -1
M  END
> <s_m_source_file>
../4alv_ligand.sdf

> <i_m_source_file_index>
1

> <s_epik_input>
W0NIMl0xW0NIMl1bTkgyK11bQ0gyXVtDSDJdW0NIXTFbQ0gyXVtOSF1jMltjSF1jKENsKWMoW2NIXVtjSF0yKS1jKG4zKVtuSF1jKD1PKWM0b2MoYzVjMzQpW2NIXVtjSF1jKEJyKVtjSF01

> <s_epik_cmdline>
J2VwaWtfYXBwJywgJy1pbWFlJywgJ2xpZ2FuZF9wcm8ubWFlJywgJy1vbWFlJywgJ2xpZ2FuZF9wcmVwLm1hZScsICctbXMnLCAnMScsICctcGgnLCAnNycsICctcGh0JywgJzAuNScsICctbnQn

> <r_epik_Ionization_Penalty>
  0.3198

> <r_epik_Ionization_Penalty_Charging>
  0.0002

> <r_epik_Ionization_Penalty_Neutral>
  0.3196

> <r_epik_State_Penalty>
  0.2802

> <r_epik_Charging_Adjusted_Penalty>
0.280401299492333

> <i_epik_Tot_Q>
0

> <i_epik_Tot_abs_Q>
2

$$$$
