4alw_ligand
                    3D
 Schrodinger Suite 2020-3.
 40 43  0  0  1  0            999 V2000
   21.0110  -29.2470    2.3750 C   0  0  0  0  0  0
   21.5020  -27.9320    3.0820 C   0  0  0  0  0  0
   22.9420  -28.1280    3.4290 N   0  0  1  0  0  0
   23.4870  -26.9970    4.2520 C   0  0  0  0  0  0
   23.2480  -29.3180    4.2800 C   0  0  0  0  0  0
   22.8760  -30.5710    3.4580 C   0  0  0  0  0  0
   21.4060  -30.4220    3.1590 N   0  3  2  0  0  0
   20.8310  -31.6580    2.6000 C   0  0  0  0  0  0
   21.4500  -32.2870    1.3920 C   0  0  0  0  0  0
   21.8170  -33.5270    1.4230 N   0  0  0  0  0  0
   22.3040  -34.1560    0.3070 C   0  0  0  0  0  0
   22.7940  -35.4320    0.0410 C   0  0  0  0  0  0
   22.8930  -36.5780    0.8170 C   0  0  0  0  0  0
   23.4350  -37.6350    0.1230 C   0  0  0  0  0  0
   23.7320  -39.2550    1.0850 Br  0  0  0  0  0  0
   23.8410  -37.6730   -1.2440 C   0  0  0  0  0  0
   23.7130  -36.5100   -2.0020 C   0  0  0  0  0  0
   23.1720  -35.4570   -1.3010 C   0  0  0  0  0  0
   22.9490  -34.2080   -1.7630 O   0  0  0  0  0  0
   22.3730  -33.4340   -0.8660 C   0  0  0  0  0  0
   22.0120  -32.0730   -0.9000 C   0  0  0  0  0  0
   22.1090  -31.3530   -1.9060 O   0  5  0  0  0  0
   21.4560  -31.5810    0.2370 N   0  0  0  0  0  0
   19.9150  -29.2270    2.2840 H   0  0  0  0  0  0
   21.4609  -29.3148    1.3735 H   0  0  0  0  0  0
   21.3817  -27.0803    2.3964 H   0  0  0  0  0  0
   20.9054  -27.7590    3.9898 H   0  0  0  0  0  0
   23.3205  -26.0462    3.7244 H   0  0  0  0  0  0
   24.5655  -27.1449    4.4098 H   0  0  0  0  0  0
   22.9742  -26.9712    5.2248 H   0  0  0  0  0  0
   24.3188  -29.3230    4.5319 H   0  0  0  0  0  0
   22.6540  -29.2701    5.2046 H   0  0  0  0  0  0
   23.4764  -30.5966    2.5366 H   0  0  0  0  0  0
   23.0790  -31.4736    4.0531 H   0  0  0  0  0  0
   20.9385  -30.2256    4.1352 H   0  0  0  0  0  0
   20.8607  -32.4526    3.3601 H   0  0  0  0  0  0
   19.7882  -31.4750    2.3015 H   0  0  0  0  0  0
   22.5771  -36.6344    1.8587 H   0  0  0  0  0  0
   24.2405  -38.5867   -1.6840 H   0  0  0  0  0  0
   24.0123  -36.4416   -3.0479 H   0  0  0  0  0  0
  1  2  1  0  0  0
  1  7  1  0  0  0
  1 24  1  0  0  0
  1 25  1  0  0  0
  2  3  1  0  0  0
  2 26  1  0  0  0
  2 27  1  0  0  0
  3  4  1  0  0  0
  3  5  1  0  0  0
  4 28  1  0  0  0
  4 29  1  0  0  0
  4 30  1  0  0  0
  5  6  1  0  0  0
  5 31  1  0  0  0
  5 32  1  0  0  0
  6  7  1  0  0  0
  6 33  1  0  0  0
  6 34  1  0  0  0
  7  8  1  0  0  0
  7 35  1  0  0  0
  8  9  1  0  0  0
  8 36  1  0  0  0
  8 37  1  0  0  0
  9 10  2  0  0  0
  9 23  1  0  0  0
 10 11  1  0  0  0
 11 12  1  0  0  0
 11 20  2  0  0  0
 12 13  2  0  0  0
 12 18  1  0  0  0
 13 14  1  0  0  0
 13 38  1  0  0  0
 14 15  1  0  0  0
 14 16  2  0  0  0
 16 17  1  0  0  0
 16 39  1  0  0  0
 17 18  2  0  0  0
 17 40  1  0  0  0
 18 19  1  0  0  0
 19 20  1  0  0  0
 20 21  1  0  0  0
 21 22  1  0  0  0
 21 23  2  0  0  0
M  CHG  2   7   1  22  -1
M  END
> <s_m_source_file>
../4alw_ligand.sdf

> <i_m_source_file_index>
1

> <s_epik_input>
W0NIM11bTkBASCtdMVtDSDJdW0NIMl1bTkBIK10oW0NIMl1bQ0gyXTEpW0NIMl1jKG4yKVtuSF1jKD1PKWMzb2MoYzRjMjMpW2NIXVtjSF1jKEJyKVtjSF00

> <s_epik_cmdline>
J2VwaWtfYXBwJywgJy1pbWFlJywgJ2xpZ2FuZF9wcm8ubWFlJywgJy1vbWFlJywgJ2xpZ2FuZF9wcmVwLm1hZScsICctbXMnLCAnMScsICctcGgnLCAnNycsICctcGh0JywgJzAuNScsICctbnQn

> <r_epik_Ionization_Penalty>
  0.0737

> <r_epik_Ionization_Penalty_Charging>
  0.0005

> <r_epik_Ionization_Penalty_Neutral>
  0.0732

> <r_epik_State_Penalty>
  0.3739

> <r_epik_Charging_Adjusted_Penalty>
0.374454413641987

> <i_epik_Tot_Q>
0

> <i_epik_Tot_abs_Q>
2

$$$$
