4aml_ligand
                    3D
 Schrodinger Suite 2020-3.
 43 43  0  0  1  0            999 V2000
   -6.1140   42.9680    5.0490 C   0  0  0  0  0  0
   -6.5730   44.0800    5.2990 O   0  0  0  0  0  0
   -7.1390   41.8820    5.0090 O   0  0  0  0  0  0
   -3.8200   43.4560    4.6210 C   0  0  0  0  0  0
   -3.2050   43.6130    5.9940 C   0  0  0  0  0  0
   -2.5210   42.3370    6.4600 C   0  0  0  0  0  0
   -8.4400   40.5440    6.3690 C   0  0  2  0  0  0
   -7.2390   40.0190    6.8640 N   0  0  0  0  0  0
   -7.0020   39.6840    8.2060 C   0  0  0  0  0  0
   -7.9550   39.8300    8.9500 O   0  0  0  0  0  0
   -5.6330   39.2050    8.6190 C   0  0  0  0  0  0
   -8.7870   39.7270    5.1160 C   0  0  1  0  0  0
   -9.0600   38.3270    5.6070 O   0  0  0  0  0  0
  -10.0070   40.2310    4.5270 C   0  0  2  0  0  0
  -10.2710   39.4510    3.3160 O   0  0  0  0  0  0
   -8.3010   42.0310    5.8530 C   0  0  2  0  0  0
   -9.4310   42.4380    5.2200 O   0  0  0  0  0  0
   -4.9430   42.5030    4.8310 N   0  0  0  0  0  0
   -9.8020   41.7010    4.0420 C   0  0  2  0  0  0
  -11.1220   42.3050    3.6830 C   0  0  0  0  0  0
  -11.0580   43.7250    3.2410 O   0  0  0  0  0  0
   -4.1709   44.4349    4.2623 H   0  0  0  0  0  0
   -3.0664   43.0591    3.9249 H   0  0  0  0  0  0
   -2.4541   44.4165    5.9697 H   0  0  0  0  0  0
   -3.9906   43.8672    6.7208 H   0  0  0  0  0  0
   -2.0895   42.4962    7.4592 H   0  0  0  0  0  0
   -1.7212   42.0707    5.7534 H   0  0  0  0  0  0
   -3.2577   41.5213    6.5044 H   0  0  0  0  0  0
   -9.1135   40.4457    7.2331 H   0  0  0  0  0  0
   -6.3942   39.8412    6.1824 H   0  0  0  0  0  0
   -4.9752   39.1710    7.7380 H   0  0  0  0  0  0
   -5.7130   38.1987    9.0559 H   0  0  0  0  0  0
   -5.2122   39.8959    9.3643 H   0  0  0  0  0  0
   -8.0131   39.7803    4.3361 H   0  0  0  0  0  0
   -8.2608   37.7496    6.0947 H   0  0  0  0  0  0
  -10.7978   40.1043    5.2810 H   0  0  0  0  0  0
  -10.4522   38.3684    3.3877 H   0  0  0  0  0  0
   -8.2257   42.8955    6.5290 H   0  0  0  0  0  0
   -4.7582   41.4192    4.7973 H   0  0  0  0  0  0
   -9.0750   41.7823    3.2205 H   0  0  0  0  0  0
  -11.5733   41.7355    2.8572 H   0  0  0  0  0  0
  -11.7891   42.2744    4.5571 H   0  0  0  0  0  0
  -11.9792   44.2544    2.9562 H   0  0  0  0  0  0
  1  2  2  0  0  0
  1  3  1  0  0  0
  1 18  1  0  0  0
  3 16  1  0  0  0
  4  5  1  0  0  0
  4 18  1  0  0  0
  4 22  1  0  0  0
  4 23  1  0  0  0
  5  6  1  0  0  0
  5 24  1  0  0  0
  5 25  1  0  0  0
  6 26  1  0  0  0
  6 27  1  0  0  0
  6 28  1  0  0  0
  7  8  1  0  0  0
  7 12  1  0  0  0
  7 16  1  0  0  0
  7 29  1  0  0  0
  8  9  1  0  0  0
  8 30  1  0  0  0
  9 10  2  0  0  0
  9 11  1  0  0  0
 11 31  1  0  0  0
 11 32  1  0  0  0
 11 33  1  0  0  0
 12 13  1  0  0  0
 12 14  1  0  0  0
 12 34  1  0  0  0
 13 35  1  0  0  0
 14 15  1  0  0  0
 14 19  1  0  0  0
 14 36  1  0  0  0
 15 37  1  0  0  0
 16 17  1  0  0  0
 16 38  1  0  0  0
 17 19  1  0  0  0
 18 39  1  0  0  0
 19 20  1  0  0  0
 19 40  1  0  0  0
 20 21  1  0  0  0
 20 41  1  0  0  0
 20 42  1  0  0  0
 21 43  1  0  0  0
M  END
> <s_m_source_file>
../4aml_ligand.sdf

> <i_m_source_file_index>
1

> <s_epik_input>
W0NIM11bQ0gyXVtDSDJdW05IXUMoPU8pT1tDQEhdMU9bQ0BIXShbQ0gyXVtPSF0pW0NAQEhdKFtPSF0pW0NASF0oW09IXSlbQ0BIXTFbTkhdQyg9TylbQ0gzXQ==

> <s_epik_cmdline>
J2VwaWtfYXBwJywgJy1pbWFlJywgJ2xpZ2FuZF9wcm8ubWFlJywgJy1vbWFlJywgJ2xpZ2FuZF9wcmVwLm1hZScsICctbXMnLCAnMScsICctcGgnLCAnNycsICctcGh0JywgJzAuNScsICctbnQn

> <r_lp_tautomer_probability>
1

> <r_epik_Ionization_Penalty>
  0.0001

> <r_epik_Ionization_Penalty_Charging>
  0.0000

> <r_epik_Ionization_Penalty_Neutral>
  0.0001

> <r_epik_State_Penalty>
 -0.0000

> <r_epik_Charging_Adjusted_Penalty>
0

> <i_epik_Tot_Q>
0

> <i_epik_Tot_abs_Q>
0

> <s_epik_Chemistry_Notes>
This compound has an ester and may undergo hydrolysis at high or low pH. This compound contains an acetal/aminal-like group ( X-CH(R)-Y where X, Y are N, S, or O) that may be acid/base labile, releasing an aldehyde.

$$$$
