4amy_ligand
                    3D
 Schrodinger Suite 2020-3.
 69 71  0  0  1  0            999 V2000
   42.9140   37.7210   86.5560 C   0  0  0  0  0  0
   44.3120   37.9110   85.9890 C   0  0  0  0  0  0
   45.4370   37.8610   87.0280 C   0  0  0  0  0  0
   45.4360   36.5620   87.7900 C   0  0  0  0  0  0
   45.8150   35.3850   87.1580 C   0  0  0  0  0  0
   45.0450   36.5570   89.1310 C   0  0  0  0  0  0
   45.7970   34.1940   87.8840 C   0  0  0  0  0  0
   45.0270   35.3640   89.8600 C   0  0  0  0  0  0
   45.4020   34.1830   89.2250 C   0  0  0  0  0  0
   41.8950   37.4990   85.4450 C   0  0  0  0  0  0
   42.2130   37.7030   84.2860 O   0  0  0  0  0  0
   39.3280   38.0190   83.8010 C   0  0  0  0  0  0
   39.5160   39.2010   84.1410 O   0  0  0  0  0  0
   39.7340   36.8600   84.6510 C   0  0  2  0  0  0
   38.5480   36.1740   85.3480 C   0  0  0  0  0  0
   39.0750   35.7480   86.7250 C   0  0  0  0  0  0
   40.1590   36.7950   87.0860 C   0  0  2  0  0  0
   39.6670   37.9700   87.9940 C   0  0  0  0  0  0
   39.4340   37.3620   89.3840 C   0  0  0  0  0  0
   38.3980   38.7200   87.5170 C   0  0  0  0  0  0
   40.7390   39.0270   88.2190 C   0  0  0  0  0  0
   40.6530   37.1170   85.7470 N   0  0  0  0  0  0
   36.8170   39.0660   82.0680 C   0  0  1  0  0  0
   35.8990   37.9780   81.9630 O   0  0  0  0  0  0
   36.5730   39.5570   83.5050 C   0  0  0  0  0  0
   37.1850   40.8160   83.7490 O   0  0  0  0  0  0
   38.2520   38.6210   81.6880 C   0  0  2  0  0  0
   38.2550   37.8250   80.3770 C   0  0  0  0  0  0
   38.2950   36.3520   80.7040 C   0  0  0  0  0  0
   38.5630   36.2480   82.2090 C   0  0  0  0  0  0
   38.7540   37.6370   82.6550 N   0  0  0  0  0  0
   42.9042   36.8453   87.2216 H   0  0  0  0  0  0
   42.6240   38.6169   87.1246 H   0  0  0  0  0  0
   44.5212   37.1181   85.2558 H   0  0  0  0  0  0
   44.3777   38.8924   85.4965 H   0  0  0  0  0  0
   46.4083   37.9642   86.5220 H   0  0  0  0  0  0
   45.3089   38.6836   87.7470 H   0  0  0  0  0  0
   46.1215   35.3917   86.1120 H   0  0  0  0  0  0
   44.7518   37.4898   89.6126 H   0  0  0  0  0  0
   46.0938   33.2630   87.4011 H   0  0  0  0  0  0
   44.7247   35.3586   90.9072 H   0  0  0  0  0  0
   45.3875   33.2434   89.7773 H   0  0  0  0  0  0
   40.2746   36.2736   83.8935 H   0  0  0  0  0  0
   37.7143   36.8859   85.4387 H   0  0  0  0  0  0
   38.2259   35.3059   84.7542 H   0  0  0  0  0  0
   38.2491   35.7538   87.4515 H   0  0  0  0  0  0
   39.4976   34.7346   86.6584 H   0  0  0  0  0  0
   41.0005   36.4450   87.7020 H   0  0  0  0  0  0
   38.6647   36.5786   89.3173 H   0  0  0  0  0  0
   39.0979   38.1479   90.0763 H   0  0  0  0  0  0
   40.3725   36.9238   89.7545 H   0  0  0  0  0  0
   37.5892   37.9959   87.3395 H   0  0  0  0  0  0
   38.6194   39.2585   86.5837 H   0  0  0  0  0  0
   38.0845   39.4380   88.2891 H   0  0  0  0  0  0
   41.6656   38.5425   88.5606 H   0  0  0  0  0  0
   40.3955   39.7409   88.9822 H   0  0  0  0  0  0
   40.9305   39.5614   87.2768 H   0  0  0  0  0  0
   36.6081   39.8633   81.3395 H   0  0  0  0  0  0
   34.8357   38.1308   82.1997 H   0  0  0  0  0  0
   35.4918   39.6617   83.6781 H   0  0  0  0  0  0
   36.9895   38.8292   84.2169 H   0  0  0  0  0  0
   37.0929   41.2900   84.7374 H   0  0  0  0  0  0
   38.8806   39.5234   81.6637 H   0  0  0  0  0  0
   37.3437   38.0559   79.8058 H   0  0  0  0  0  0
   39.1393   38.0997   79.7833 H   0  0  0  0  0  0
   37.3302   35.8923   80.4437 H   0  0  0  0  0  0
   39.0982   35.8700   80.1273 H   0  0  0  0  0  0
   37.7008   35.7765   82.7032 H   0  0  0  0  0  0
   39.4623   35.6381   82.3800 H   0  0  0  0  0  0
  1  2  1  0  0  0
  1 10  1  0  0  0
  1 32  1  0  0  0
  1 33  1  0  0  0
  2  3  1  0  0  0
  2 34  1  0  0  0
  2 35  1  0  0  0
  3  4  1  0  0  0
  3 36  1  0  0  0
  3 37  1  0  0  0
  4  5  2  0  0  0
  4  6  1  0  0  0
  5  7  1  0  0  0
  5 38  1  0  0  0
  6  8  2  0  0  0
  6 39  1  0  0  0
  7  9  2  0  0  0
  7 40  1  0  0  0
  8  9  1  0  0  0
  8 41  1  0  0  0
  9 42  1  0  0  0
 10 11  2  0  0  0
 10 22  1  0  0  0
 12 13  2  0  0  0
 12 14  1  0  0  0
 12 31  1  0  0  0
 14 15  1  0  0  0
 14 22  1  0  0  0
 14 43  1  0  0  0
 15 16  1  0  0  0
 15 44  1  0  0  0
 15 45  1  0  0  0
 16 17  1  0  0  0
 16 46  1  0  0  0
 16 47  1  0  0  0
 17 18  1  0  0  0
 17 22  1  0  0  0
 17 48  1  0  0  0
 18 19  1  0  0  0
 18 20  1  0  0  0
 18 21  1  0  0  0
 19 49  1  0  0  0
 19 50  1  0  0  0
 19 51  1  0  0  0
 20 52  1  0  0  0
 20 53  1  0  0  0
 20 54  1  0  0  0
 21 55  1  0  0  0
 21 56  1  0  0  0
 21 57  1  0  0  0
 23 24  1  0  0  0
 23 25  1  0  0  0
 23 27  1  0  0  0
 23 58  1  0  0  0
 24 59  1  0  0  0
 25 26  1  0  0  0
 25 60  1  0  0  0
 25 61  1  0  0  0
 26 62  1  0  0  0
 27 28  1  0  0  0
 27 31  1  0  0  0
 27 63  1  0  0  0
 28 29  1  0  0  0
 28 64  1  0  0  0
 28 65  1  0  0  0
 29 30  1  0  0  0
 29 66  1  0  0  0
 29 67  1  0  0  0
 30 31  1  0  0  0
 30 68  1  0  0  0
 30 69  1  0  0  0
M  END
> <s_m_source_file>
../4amy_ligand.sdf

> <i_m_source_file_index>
1

> <s_epik_input>
W2NIXTFbY0hdW2NIXVtjSF1bY0hdYzFbQ0gyXVtDSDJdW0NIMl1DKD1PKU4yW0NAQEhdKEMoW0NIM10pKFtDSDNdKVtDSDNdKVtDSDJdW0NIMl1bQ0BIXTJDKD1PKU4zW0NIMl1bQ0gyXVtDSDJdW0NASF0zW0NAQEhdKFtPSF0pW0NIMl1bT0hd

> <s_epik_cmdline>
J2VwaWtfYXBwJywgJy1pbWFlJywgJ2xpZ2FuZF9wcm8ubWFlJywgJy1vbWFlJywgJ2xpZ2FuZF9wcmVwLm1hZScsICctbXMnLCAnMScsICctcGgnLCAnNycsICctcGh0JywgJzAuNScsICctbnQn

> <r_lp_tautomer_probability>
1

> <r_epik_Ionization_Penalty>
  0.0000

> <r_epik_Ionization_Penalty_Charging>
  0.0000

> <r_epik_Ionization_Penalty_Neutral>
  0.0000

> <r_epik_State_Penalty>
 -0.0000

> <r_epik_Charging_Adjusted_Penalty>
0

> <i_epik_Tot_Q>
0

> <i_epik_Tot_abs_Q>
0

$$$$
