4amz_ligand
                    3D
 Schrodinger Suite 2020-3.
 52 54  0  0  1  0            999 V2000
   39.4020   37.9120   83.7150 C   0  0  0  0  0  0
   39.6990   39.0820   84.0270 O   0  0  0  0  0  0
   39.7440   36.7740   84.6320 C   0  0  2  0  0  0
   38.4720   36.4110   85.4040 C   0  0  0  0  0  0
   38.8220   36.4050   86.8960 C   0  0  0  0  0  0
   40.2190   37.0000   86.9390 C   0  0  0  0  0  0
   40.7110   37.1480   85.7090 C   0  0  0  0  0  0
   36.8590   39.0330   81.9650 C   0  0  1  0  0  0
   35.9260   37.9610   81.8940 O   0  0  0  0  0  0
   36.6560   39.6750   83.3670 C   0  0  0  0  0  0
   37.5900   40.7300   83.5660 O   0  0  0  0  0  0
   38.2810   38.5220   81.6210 C   0  0  2  0  0  0
   38.3060   37.7290   80.3110 C   0  0  0  0  0  0
   38.2490   36.2540   80.6900 C   0  0  0  0  0  0
   38.3870   36.1640   82.2060 C   0  0  0  0  0  0
   38.7310   37.5370   82.6030 N   0  0  0  0  0  0
   42.0870   37.5750   85.4200 C   0  0  0  0  0  0
   42.5200   37.4280   84.2940 O   0  0  0  0  0  0
   42.8160   38.1070   86.4180 N   0  0  0  0  0  0
   44.2150   38.5190   86.3620 C   0  0  0  0  0  0
   44.9110   37.4070   87.1130 C   0  0  0  0  0  0
   44.9680   36.1120   86.5920 C   0  0  0  0  0  0
   45.5920   35.0920   87.3260 C   0  0  0  0  0  0
   46.1460   35.3380   88.5890 C   0  0  0  0  0  0
   46.0710   36.6240   89.1190 C   0  0  0  0  0  0
   45.4600   37.6500   88.3840 C   0  0  0  0  0  0
   40.1847   35.9913   83.9971 H   0  0  0  0  0  0
   37.6913   37.1575   85.1961 H   0  0  0  0  0  0
   38.1223   35.4171   85.0880 H   0  0  0  0  0  0
   38.0912   37.0156   87.4465 H   0  0  0  0  0  0
   38.7963   35.3725   87.2745 H   0  0  0  0  0  0
   40.8195   37.2980   87.8111 H   0  0  0  0  0  0
   36.6332   39.7759   81.1858 H   0  0  0  0  0  0
   34.8625   38.1423   82.1089 H   0  0  0  0  0  0
   35.6357   40.0795   83.4408 H   0  0  0  0  0  0
   36.8049   38.9116   84.1449 H   0  0  0  0  0  0
   37.5875   41.2961   84.5091 H   0  0  0  0  0  0
   38.9395   39.4030   81.6099 H   0  0  0  0  0  0
   37.4376   38.0087   79.6965 H   0  0  0  0  0  0
   39.2319   37.9563   79.7624 H   0  0  0  0  0  0
   37.2876   35.8291   80.3659 H   0  0  0  0  0  0
   39.0723   35.7166   80.1967 H   0  0  0  0  0  0
   37.4341   35.8291   82.6417 H   0  0  0  0  0  0
   39.1792   35.4444   82.4600 H   0  0  0  0  0  0
   42.2461   38.2207   87.3520 H   0  0  0  0  0  0
   44.5342   38.5911   85.3118 H   0  0  0  0  0  0
   44.3283   39.4994   86.8477 H   0  0  0  0  0  0
   44.5290   35.8947   85.6182 H   0  0  0  0  0  0
   45.6468   34.0880   86.9051 H   0  0  0  0  0  0
   46.6280   34.5359   89.1480 H   0  0  0  0  0  0
   46.4871   36.8327   90.1046 H   0  0  0  0  0  0
   45.4099   38.6539   88.8057 H   0  0  0  0  0  0
  1  2  2  0  0  0
  1  3  1  0  0  0
  1 16  1  0  0  0
  3  4  1  0  0  0
  3  7  1  0  0  0
  3 27  1  0  0  0
  4  5  1  0  0  0
  4 28  1  0  0  0
  4 29  1  0  0  0
  5  6  1  0  0  0
  5 30  1  0  0  0
  5 31  1  0  0  0
  6  7  2  0  0  0
  6 32  1  0  0  0
  7 17  1  0  0  0
  8  9  1  0  0  0
  8 10  1  0  0  0
  8 12  1  0  0  0
  8 33  1  0  0  0
  9 34  1  0  0  0
 10 11  1  0  0  0
 10 35  1  0  0  0
 10 36  1  0  0  0
 11 37  1  0  0  0
 12 13  1  0  0  0
 12 16  1  0  0  0
 12 38  1  0  0  0
 13 14  1  0  0  0
 13 39  1  0  0  0
 13 40  1  0  0  0
 14 15  1  0  0  0
 14 41  1  0  0  0
 14 42  1  0  0  0
 15 16  1  0  0  0
 15 43  1  0  0  0
 15 44  1  0  0  0
 17 18  2  0  0  0
 17 19  1  0  0  0
 19 20  1  0  0  0
 19 45  1  0  0  0
 20 21  1  0  0  0
 20 46  1  0  0  0
 20 47  1  0  0  0
 21 22  2  0  0  0
 21 26  1  0  0  0
 22 23  1  0  0  0
 22 48  1  0  0  0
 23 24  2  0  0  0
 23 49  1  0  0  0
 24 25  1  0  0  0
 24 50  1  0  0  0
 25 26  2  0  0  0
 25 51  1  0  0  0
 26 52  1  0  0  0
M  END
> <s_m_source_file>
../4amz_ligand.sdf

> <i_m_source_file_index>
1

> <s_epik_input>
W09IXVtDSDJdW0NASF0oW09IXSlbQ0BASF0xW0NIMl1bQ0gyXVtDSDJdTjFDKD1PKVtDQEBIXTJbQ0gyXVtDSDJdW0NIXT1DMkMoPU8pW05IXVtDSDJdYzNbY0hdW2NIXVtjSF1bY0hdW2NIXTM=

> <s_epik_cmdline>
J2VwaWtfYXBwJywgJy1pbWFlJywgJ2xpZ2FuZF9wcm8ubWFlJywgJy1vbWFlJywgJ2xpZ2FuZF9wcmVwLm1hZScsICctbXMnLCAnMScsICctcGgnLCAnNycsICctcGh0JywgJzAuNScsICctbnQn

> <r_lp_tautomer_probability>
1

> <r_epik_Ionization_Penalty>
  0.0000

> <r_epik_Ionization_Penalty_Charging>
  0.0000

> <r_epik_Ionization_Penalty_Neutral>
  0.0000

> <r_epik_State_Penalty>
 -0.0000

> <r_epik_Charging_Adjusted_Penalty>
0

> <i_epik_Tot_Q>
0

> <i_epik_Tot_abs_Q>
0

$$$$
