4an0_ligand
                    3D
 Schrodinger Suite 2020-3.
 50 52  0  0  1  0            999 V2000
   42.9310   38.1090   86.8570 C   0  0  0  0  0  0
   44.3610   38.3830   86.3900 C   0  0  0  0  0  0
   45.3990   38.2620   87.4900 C   0  0  0  0  0  0
   45.4920   36.8800   88.1150 C   0  0  0  0  0  0
   45.7350   35.7390   87.3410 C   0  0  0  0  0  0
   45.3720   36.7460   89.5040 C   0  0  0  0  0  0
   45.8610   34.4840   87.9490 C   0  0  0  0  0  0
   45.4750   35.4900   90.1060 C   0  0  0  0  0  0
   45.7220   34.3580   89.3290 C   0  0  0  0  0  0
   42.0190   37.7570   85.6860 C   0  0  0  0  0  0
   42.4480   37.7940   84.5460 O   0  0  0  0  0  0
   40.7490   37.4070   85.9830 N   0  0  0  0  0  0
   39.8150   37.0390   84.9270 C   0  0  2  0  0  0
   39.5100   38.1620   83.9550 C   0  0  0  0  0  0
   39.6000   39.3320   84.2960 O   0  0  0  0  0  0
   38.5330   36.6200   85.6330 C   0  0  0  0  0  0
   38.8860   36.5000   87.0910 C   0  0  0  0  0  0
   40.1550   37.3130   87.3230 C   0  0  0  0  0  0
   37.3420   38.8350   81.9800 C   0  0  0  0  0  0
   36.2260   38.6500   82.3030 N   0  0  0  0  0  0
   38.7780   38.7510   81.6930 C   0  0  2  0  0  0
   38.9580   37.9000   80.4410 C   0  0  0  0  0  0
   38.5730   36.4940   80.8440 C   0  0  0  0  0  0
   38.9910   36.3850   82.2940 C   0  0  0  0  0  0
   39.1380   37.7810   82.7290 N   0  0  0  0  0  0
   42.9313   37.2662   87.5639 H   0  0  0  0  0  0
   42.5297   39.0044   87.3542 H   0  0  0  0  0  0
   44.6339   37.6641   85.6035 H   0  0  0  0  0  0
   44.4267   39.4058   85.9906 H   0  0  0  0  0  0
   46.3934   38.4981   87.0833 H   0  0  0  0  0  0
   45.1580   38.9654   88.3006 H   0  0  0  0  0  0
   45.8267   35.8282   86.2585 H   0  0  0  0  0  0
   45.1970   37.6283   90.1196 H   0  0  0  0  0  0
   46.0684   33.6036   87.3408 H   0  0  0  0  0  0
   45.3621   35.3940   91.1859 H   0  0  0  0  0  0
   45.8059   33.3787   89.8002 H   0  0  0  0  0  0
   40.2993   36.2439   84.3411 H   0  0  0  0  0  0
   37.7590   37.3849   85.4721 H   0  0  0  0  0  0
   38.1879   35.6580   85.2262 H   0  0  0  0  0  0
   38.0601   36.8935   87.7018 H   0  0  0  0  0  0
   39.0556   35.4424   87.3414 H   0  0  0  0  0  0
   40.8585   36.8080   88.0013 H   0  0  0  0  0  0
   39.9423   38.3237   87.7015 H   0  0  0  0  0  0
   39.2819   39.7280   81.6531 H   0  0  0  0  0  0
   38.3047   38.2805   79.6420 H   0  0  0  0  0  0
   40.0064   37.9491   80.1118 H   0  0  0  0  0  0
   37.4882   36.3610   80.7195 H   0  0  0  0  0  0
   39.1063   35.7714   80.2088 H   0  0  0  0  0  0
   38.2120   35.8545   82.8612 H   0  0  0  0  0  0
   39.9373   35.8284   82.3620 H   0  0  0  0  0  0
  1  2  1  0  0  0
  1 10  1  0  0  0
  1 26  1  0  0  0
  1 27  1  0  0  0
  2  3  1  0  0  0
  2 28  1  0  0  0
  2 29  1  0  0  0
  3  4  1  0  0  0
  3 30  1  0  0  0
  3 31  1  0  0  0
  4  5  2  0  0  0
  4  6  1  0  0  0
  5  7  1  0  0  0
  5 32  1  0  0  0
  6  8  2  0  0  0
  6 33  1  0  0  0
  7  9  2  0  0  0
  7 34  1  0  0  0
  8  9  1  0  0  0
  8 35  1  0  0  0
  9 36  1  0  0  0
 10 11  2  0  0  0
 10 12  1  0  0  0
 12 13  1  0  0  0
 12 18  1  0  0  0
 13 14  1  0  0  0
 13 16  1  0  0  0
 13 37  1  0  0  0
 14 15  2  0  0  0
 14 25  1  0  0  0
 16 17  1  0  0  0
 16 38  1  0  0  0
 16 39  1  0  0  0
 17 18  1  0  0  0
 17 40  1  0  0  0
 17 41  1  0  0  0
 18 42  1  0  0  0
 18 43  1  0  0  0
 19 20  3  0  0  0
 19 21  1  0  0  0
 21 22  1  0  0  0
 21 25  1  0  0  0
 21 44  1  0  0  0
 22 23  1  0  0  0
 22 45  1  0  0  0
 22 46  1  0  0  0
 23 24  1  0  0  0
 23 47  1  0  0  0
 23 48  1  0  0  0
 24 25  1  0  0  0
 24 49  1  0  0  0
 24 50  1  0  0  0
M  END
> <s_m_source_file>
../4an0_ligand.sdf

> <i_m_source_file_index>
1

> <s_epik_input>
W2NIXTFbY0hdW2NIXVtjSF1bY0hdYzFbQ0gyXVtDSDJdW0NIMl1DKD1PKU4yW0NAQEhdKFtDSDJdW0NIMl1bQ0gyXTIpQyg9TylOM1tDSDJdW0NIMl1bQ0gyXVtDQEhdM0MjTg==

> <s_epik_cmdline>
J2VwaWtfYXBwJywgJy1pbWFlJywgJ2xpZ2FuZF9wcm8ubWFlJywgJy1vbWFlJywgJ2xpZ2FuZF9wcmVwLm1hZScsICctbXMnLCAnMScsICctcGgnLCAnNycsICctcGh0JywgJzAuNScsICctbnQn

> <r_lp_tautomer_probability>
1

> <r_epik_Ionization_Penalty>
  0.0000

> <r_epik_Ionization_Penalty_Charging>
  0.0000

> <r_epik_Ionization_Penalty_Neutral>
  0.0000

> <r_epik_State_Penalty>
 -0.0000

> <r_epik_Charging_Adjusted_Penalty>
0

> <i_epik_Tot_Q>
0

> <i_epik_Tot_abs_Q>
0

$$$$
