4an1_ligand
                    3D
 Schrodinger Suite 2020-3.
 53 55  0  0  1  0            999 V2000
   41.5700   37.3330   84.0260 C   0  0  0  0  0  0
   42.0590   37.2190   82.9040 O   0  0  0  0  0  0
   42.3300   37.7920   85.0220 N   0  0  0  0  0  0
   43.7400   38.1700   84.8820 C   0  0  0  0  0  0
   44.4990   37.0790   85.6130 C   0  0  0  0  0  0
   44.5420   35.7940   85.0980 C   0  0  0  0  0  0
   45.2020   34.7700   85.7710 C   0  0  0  0  0  0
   45.8590   35.0330   86.9740 C   0  0  0  0  0  0
   45.8250   36.3340   87.4910 C   0  0  0  0  0  0
   45.1340   37.3520   86.8130 C   0  0  0  0  0  0
   40.2940   37.0370   84.3010 N   0  0  0  0  0  0
   39.3660   36.5370   83.3020 C   0  0  2  0  0  0
   38.9330   37.6280   82.3770 C   0  0  0  0  0  0
   39.1650   38.8120   82.6170 O   0  0  0  0  0  0
   38.1470   36.0420   84.0860 C   0  0  0  0  0  0
   38.1860   36.9390   85.3080 C   0  0  0  0  0  0
   39.6530   37.1960   85.6030 C   0  0  0  0  0  0
   36.3810   38.7230   80.6760 C   0  0  1  0  0  0
   35.4990   37.6270   80.7380 O   0  0  0  0  0  0
   36.2080   39.2360   82.1050 C   0  0  0  0  0  0
   37.0250   40.3630   82.3300 O   0  0  0  0  0  0
   37.8040   38.2200   80.3200 C   0  0  2  0  0  0
   37.7730   37.3800   79.0330 C   0  0  0  0  0  0
   37.6430   35.9200   79.4250 C   0  0  0  0  0  0
   37.9840   35.8450   80.9140 C   0  0  0  0  0  0
   38.2630   37.2320   81.3020 N   0  0  0  0  0  0
   41.8315   37.8793   85.9987 H   0  0  0  0  0  0
   44.0047   38.2101   83.8151 H   0  0  0  0  0  0
   43.9016   39.1583   85.3372 H   0  0  0  0  0  0
   44.0503   35.5809   84.1489 H   0  0  0  0  0  0
   45.2058   33.7613   85.3580 H   0  0  0  0  0  0
   46.3890   34.2400   87.5016 H   0  0  0  0  0  0
   46.3383   36.5584   88.4260 H   0  0  0  0  0  0
   45.0976   38.3577   87.2318 H   0  0  0  0  0  0
   39.8736   35.7686   82.7004 H   0  0  0  0  0  0
   37.2405   36.1762   83.4775 H   0  0  0  0  0  0
   38.2733   34.9759   84.3256 H   0  0  0  0  0  0
   37.6571   37.8786   85.0902 H   0  0  0  0  0  0
   37.6973   36.4303   86.1520 H   0  0  0  0  0  0
   40.0726   36.4651   86.3099 H   0  0  0  0  0  0
   39.8329   38.2142   85.9784 H   0  0  0  0  0  0
   36.1301   39.4634   79.9022 H   0  0  0  0  0  0
   34.4379   37.7879   80.9793 H   0  0  0  0  0  0
   35.1576   39.5190   82.2683 H   0  0  0  0  0  0
   36.4892   38.4445   82.8153 H   0  0  0  0  0  0
   37.0209   40.8580   83.3123 H   0  0  0  0  0  0
   38.4642   39.0992   80.2862 H   0  0  0  0  0  0
   36.9141   37.6846   78.4170 H   0  0  0  0  0  0
   38.7037   37.5392   78.4687 H   0  0  0  0  0  0
   36.6137   35.5803   79.2375 H   0  0  0  0  0  0
   38.3427   35.3164   78.8283 H   0  0  0  0  0  0
   37.1274   35.4307   81.4659 H   0  0  0  0  0  0
   38.8608   35.1964   81.0572 H   0  0  0  0  0  0
  1  2  2  0  0  0
  1  3  1  0  0  0
  1 11  1  0  0  0
  3  4  1  0  0  0
  3 27  1  0  0  0
  4  5  1  0  0  0
  4 28  1  0  0  0
  4 29  1  0  0  0
  5  6  2  0  0  0
  5 10  1  0  0  0
  6  7  1  0  0  0
  6 30  1  0  0  0
  7  8  2  0  0  0
  7 31  1  0  0  0
  8  9  1  0  0  0
  8 32  1  0  0  0
  9 10  2  0  0  0
  9 33  1  0  0  0
 10 34  1  0  0  0
 11 12  1  0  0  0
 11 17  1  0  0  0
 12 13  1  0  0  0
 12 15  1  0  0  0
 12 35  1  0  0  0
 13 14  2  0  0  0
 13 26  1  0  0  0
 15 16  1  0  0  0
 15 36  1  0  0  0
 15 37  1  0  0  0
 16 17  1  0  0  0
 16 38  1  0  0  0
 16 39  1  0  0  0
 17 40  1  0  0  0
 17 41  1  0  0  0
 18 19  1  0  0  0
 18 20  1  0  0  0
 18 22  1  0  0  0
 18 42  1  0  0  0
 19 43  1  0  0  0
 20 21  1  0  0  0
 20 44  1  0  0  0
 20 45  1  0  0  0
 21 46  1  0  0  0
 22 23  1  0  0  0
 22 26  1  0  0  0
 22 47  1  0  0  0
 23 24  1  0  0  0
 23 48  1  0  0  0
 23 49  1  0  0  0
 24 25  1  0  0  0
 24 50  1  0  0  0
 24 51  1  0  0  0
 25 26  1  0  0  0
 25 52  1  0  0  0
 25 53  1  0  0  0
M  END
> <s_m_source_file>
../4an1_ligand.sdf

> <i_m_source_file_index>
1

> <s_epik_input>
W2NIXTFbY0hdW2NIXVtjSF1bY0hdYzFbQ0gyXVtOSF1DKD1PKU4yW0NAQEhdKFtDSDJdW0NIMl1bQ0gyXTIpQyg9TylOM1tDSDJdW0NIMl1bQ0gyXVtDQEhdM1tDQEBIXShbT0hdKVtDSDJdW09IXQ==

> <s_epik_cmdline>
J2VwaWtfYXBwJywgJy1pbWFlJywgJ2xpZ2FuZF9wcm8ubWFlJywgJy1vbWFlJywgJ2xpZ2FuZF9wcmVwLm1hZScsICctbXMnLCAnMScsICctcGgnLCAnNycsICctcGh0JywgJzAuNScsICctbnQn

> <r_lp_tautomer_probability>
1

> <r_epik_Ionization_Penalty>
  0.0000

> <r_epik_Ionization_Penalty_Charging>
  0.0000

> <r_epik_Ionization_Penalty_Neutral>
  0.0000

> <r_epik_State_Penalty>
 -0.0000

> <r_epik_Charging_Adjusted_Penalty>
0

> <i_epik_Tot_Q>
0

> <i_epik_Tot_abs_Q>
0

$$$$
