4an3_ligand
                    3D
 Schrodinger Suite 2020-3.
 40 41  0  0  1  0            999 V2000
    6.2150   36.5940    4.7370 C   0  0  0  0  0  0
    6.4510   37.0640    3.4270 C   0  0  0  0  0  0
    6.5590   38.4070    3.2160 C   0  0  0  0  0  0
    6.4600   39.3620    4.2380 C   0  0  0  0  0  0
    6.1990   38.8580    5.5300 C   0  0  0  0  0  0
    6.0880   37.5050    5.7620 C   0  0  0  0  0  0
    6.0590   35.2600    5.0130 N   0  0  0  0  0  0
    5.8600   34.2170    4.1450 C   0  0  0  0  0  0
    4.8150   33.2800    4.2300 C   0  0  0  0  0  0
    4.7280   32.2340    3.2850 C   0  0  0  0  0  0
    5.7040   32.1040    2.2720 C   0  0  0  0  0  0
    6.7610   33.0200    2.2270 C   0  0  0  0  0  0
    6.8030   34.0550    3.1290 C   0  0  0  0  0  0
    3.7900   33.3490    5.2940 C   0  0  0  0  0  0
    2.6720   32.6270    5.2340 N   0  0  0  0  0  0
    4.1460   33.8080    6.3810 O   0  0  0  0  0  0
    1.9310   32.4310    6.4200 O   0  0  0  0  0  0
    0.7310   31.6420    6.5050 C   0  0  0  0  0  0
    1.8890   31.0650    8.6560 C   0  0  0  0  0  0
    0.0600   29.6710    7.8380 O   0  0  0  0  0  0
    1.8540   32.4070    9.1130 O   0  0  0  0  0  0
    0.5740   31.0130    7.9020 C   0  0  2  0  0  0
    6.6610   41.4760    3.9960 I   0  0  0  0  0  0
    5.8470   37.0860    7.0340 F   0  0  0  0  0  0
    7.8250   34.9090    3.0170 F   0  0  0  0  0  0
    7.7560   32.9830    1.3060 F   0  0  0  0  0  0
    6.5455   36.3641    2.5967 H   0  0  0  0  0  0
    6.7316   38.7569    2.1982 H   0  0  0  0  0  0
    6.0829   39.5536    6.3611 H   0  0  0  0  0  0
    6.0865   34.9069    6.0544 H   0  0  0  0  0  0
    3.9033   31.5232    3.3376 H   0  0  0  0  0  0
    5.6348   31.3024    1.5366 H   0  0  0  0  0  0
    2.3224   32.1876    4.2881 H   0  0  0  0  0  0
   -0.1426   32.2809    6.3083 H   0  0  0  0  0  0
    0.7697   30.8341    5.7594 H   0  0  0  0  0  0
    2.7754   30.9167    8.0217 H   0  0  0  0  0  0
    1.9378   30.3849    9.5191 H   0  0  0  0  0  0
   -0.8903   29.4700    7.3217 H   0  0  0  0  0  0
    2.6828   32.8039    9.7176 H   0  0  0  0  0  0
   -0.1998   31.5469    8.4731 H   0  0  0  0  0  0
  1  2  2  0  0  0
  1  6  1  0  0  0
  1  7  1  0  0  0
  2  3  1  0  0  0
  2 27  1  0  0  0
  3  4  2  0  0  0
  3 28  1  0  0  0
  4  5  1  0  0  0
  4 23  1  0  0  0
  5  6  2  0  0  0
  5 29  1  0  0  0
  6 24  1  0  0  0
  7  8  1  0  0  0
  7 30  1  0  0  0
  8  9  2  0  0  0
  8 13  1  0  0  0
  9 10  1  0  0  0
  9 14  1  0  0  0
 10 11  2  0  0  0
 10 31  1  0  0  0
 11 12  1  0  0  0
 11 32  1  0  0  0
 12 13  2  0  0  0
 12 26  1  0  0  0
 13 25  1  0  0  0
 14 15  1  0  0  0
 14 16  2  0  0  0
 15 17  1  0  0  0
 15 33  1  0  0  0
 17 18  1  0  0  0
 18 22  1  0  0  0
 18 34  1  0  0  0
 18 35  1  0  0  0
 19 21  1  0  0  0
 19 22  1  0  0  0
 19 36  1  0  0  0
 19 37  1  0  0  0
 20 22  1  0  0  0
 20 38  1  0  0  0
 21 39  1  0  0  0
 22 40  1  0  0  0
M  END
> <s_m_source_file>
../4an3_ligand.sdf

> <i_m_source_file_index>
1

> <s_epik_input>
RmMxW2NIXWMoSSlbY0hdW2NIXWMxW05IXWMyYyhbY0hdW2NIXWMoRiljMkYpQyg9TylbTkhdT1tDSDJdW0NAQEhdKFtPSF0pW0NIMl1bT0hd

> <s_epik_cmdline>
J2VwaWtfYXBwJywgJy1pbWFlJywgJ2xpZ2FuZF9wcm8ubWFlJywgJy1vbWFlJywgJ2xpZ2FuZF9wcmVwLm1hZScsICctbXMnLCAnMScsICctcGgnLCAnNycsICctcGh0JywgJzAuNScsICctbnQn

> <r_lp_tautomer_probability>
1

> <r_epik_Ionization_Penalty>
  0.0000

> <r_epik_Ionization_Penalty_Charging>
  0.0000

> <r_epik_Ionization_Penalty_Neutral>
  0.0000

> <r_epik_State_Penalty>
 -0.0000

> <r_epik_Charging_Adjusted_Penalty>
0

> <i_epik_Tot_Q>
0

> <i_epik_Tot_abs_Q>
0

> <s_epik_Chemistry_Notes>
This compound has a N-S or N-O group and may undergo hydrolysis at high or low pH.

$$$$
