4an9_ligand
                    3D
 Schrodinger Suite 2020-3.
 36 38  0  0  1  0            999 V2000
  -28.5530  -23.6340   -4.7120 C   0  0  0  0  0  0
  -28.8730  -24.1170   -3.4410 C   0  0  0  0  0  0
  -30.0030  -24.9200   -3.2360 C   0  0  0  0  0  0
  -30.8630  -25.2500   -4.2830 C   0  0  0  0  0  0
  -30.5400  -24.7650   -5.5340 C   0  0  0  0  0  0
  -29.4220  -23.9850   -5.7520 C   0  0  0  0  0  0
  -27.4480  -22.8360   -4.9540 N   0  0  0  0  0  0
  -26.5130  -22.3670   -4.0490 C   0  0  0  0  0  0
  -26.0710  -21.0150   -3.9730 C   0  0  0  0  0  0
  -25.1240  -20.6250   -3.0460 C   0  0  0  0  0  0
  -24.5690  -21.5800   -2.1970 C   0  0  0  0  0  0
  -24.9640  -22.9190   -2.2700 C   0  0  0  0  0  0
  -25.9400  -23.2880   -3.2080 C   0  0  0  0  0  0
  -26.6580  -19.9610   -4.8690 C   0  0  0  0  0  0
  -26.8150  -18.6340   -4.4610 N   0  0  0  0  0  0
  -26.9960  -20.4310   -5.9670 O   0  0  0  0  0  0
  -27.0930  -16.7210   -3.8000 C   0  0  0  0  0  0
  -26.4820  -17.9860   -3.1910 C   0  0  0  0  0  0
  -28.2460  -16.3310   -3.0240 O   0  0  0  0  0  0
  -32.5840  -26.4950   -4.0050 I   0  0  0  0  0  0
  -27.3770  -17.4280   -5.1240 C   0  0  0  0  0  0
  -29.2080  -23.5650   -7.0140 F   0  0  0  0  0  0
  -26.3620  -24.5510   -3.3450 F   0  0  0  0  0  0
  -24.3930  -23.8240   -1.4250 F   0  0  0  0  0  0
  -28.2335  -23.8652   -2.5950 H   0  0  0  0  0  0
  -30.2147  -25.2954   -2.2348 H   0  0  0  0  0  0
  -31.1882  -25.0054   -6.3767 H   0  0  0  0  0  0
  -27.2284  -22.4962   -5.9769 H   0  0  0  0  0  0
  -24.8145  -19.5820   -2.9796 H   0  0  0  0  0  0
  -23.8176  -21.2795   -1.4669 H   0  0  0  0  0  0
  -26.5842  -15.7465   -3.8376 H   0  0  0  0  0  0
  -27.0032  -18.4995   -2.3696 H   0  0  0  0  0  0
  -25.3957  -18.0391   -3.0260 H   0  0  0  0  0  0
  -28.1124  -15.8177   -2.0603 H   0  0  0  0  0  0
  -26.7767  -17.1851   -6.0132 H   0  0  0  0  0  0
  -28.4160  -17.6262   -5.4260 H   0  0  0  0  0  0
  1  2  2  0  0  0
  1  6  1  0  0  0
  1  7  1  0  0  0
  2  3  1  0  0  0
  2 25  1  0  0  0
  3  4  2  0  0  0
  3 26  1  0  0  0
  4  5  1  0  0  0
  4 20  1  0  0  0
  5  6  2  0  0  0
  5 27  1  0  0  0
  6 22  1  0  0  0
  7  8  1  0  0  0
  7 28  1  0  0  0
  8  9  2  0  0  0
  8 13  1  0  0  0
  9 10  1  0  0  0
  9 14  1  0  0  0
 10 11  2  0  0  0
 10 29  1  0  0  0
 11 12  1  0  0  0
 11 30  1  0  0  0
 12 13  2  0  0  0
 12 24  1  0  0  0
 13 23  1  0  0  0
 14 15  1  0  0  0
 14 16  2  0  0  0
 15 18  1  0  0  0
 15 21  1  0  0  0
 17 18  1  0  0  0
 17 19  1  0  0  0
 17 21  1  0  0  0
 17 31  1  0  0  0
 18 32  1  0  0  0
 18 33  1  0  0  0
 19 34  1  0  0  0
 21 35  1  0  0  0
 21 36  1  0  0  0
M  END
> <s_m_source_file>
../4an9_ligand.sdf

> <i_m_source_file_index>
1

> <s_epik_input>
RmMxW2NIXWMoSSlbY0hdW2NIXWMxW05IXWMyYyhbY0hdW2NIXWMoRiljMkYpQyg9TylOM1tDSDJdW0NIXShbT0hdKVtDSDJdMw==

> <s_epik_cmdline>
J2VwaWtfYXBwJywgJy1pbWFlJywgJ2xpZ2FuZF9wcm8ubWFlJywgJy1vbWFlJywgJ2xpZ2FuZF9wcmVwLm1hZScsICctbXMnLCAnMScsICctcGgnLCAnNycsICctcGh0JywgJzAuNScsICctbnQn

> <r_lp_tautomer_probability>
1

> <r_epik_Ionization_Penalty>
  0.0000

> <r_epik_Ionization_Penalty_Charging>
  0.0000

> <r_epik_Ionization_Penalty_Neutral>
  0.0000

> <r_epik_State_Penalty>
 -0.0000

> <r_epik_Charging_Adjusted_Penalty>
0

> <i_epik_Tot_Q>
0

> <i_epik_Tot_abs_Q>
0

$$$$
