4anb_ligand
                    3D
 Schrodinger Suite 2020-3.
 42 44  0  0  1  0            999 V2000
   25.9240  -24.9120    3.0570 F   0  0  0  0  0  0
   25.5670  -23.6580    3.1750 C   0  0  0  0  0  0
   24.6010  -23.2550    2.3170 C   0  0  0  0  0  0
   24.1440  -24.2270    1.5340 F   0  0  0  0  0  0
   24.1430  -21.9590    2.2960 C   0  0  0  0  0  0
   24.7190  -21.0650    3.1800 C   0  0  0  0  0  0
   25.7590  -21.4670    4.0170 C   0  0  0  0  0  0
   26.3770  -20.4660    4.9290 C   0  0  0  0  0  0
   26.8510  -20.8090    6.0120 O   0  0  0  0  0  0
   26.4560  -19.1860    4.5930 N   0  0  0  0  0  0
   26.1120  -18.4460    3.3860 C   0  0  0  0  0  0
   26.7530  -17.2700    4.1280 C   0  0  0  0  0  0
   28.0590  -16.8460    3.7450 O   0  0  0  0  0  0
   25.7760  -16.1110    4.1930 C   0  0  0  0  0  0
   26.3380  -15.1750    5.1040 N   0  3  0  0  0  0
   27.0040  -18.0820    5.3670 C   0  0  0  0  0  0
   26.2210  -22.7860    3.9940 C   0  0  0  0  0  0
   27.2400  -23.2140    4.7880 N   0  0  0  0  0  0
   28.3340  -23.9950    4.3740 C   0  0  0  0  0  0
   29.2540  -24.3680    5.3510 C   0  0  0  0  0  0
   29.0240  -23.9200    6.5640 F   0  0  0  0  0  0
   30.3990  -25.1570    5.1460 C   0  0  0  0  0  0
   28.5960  -24.4890    3.0870 C   0  0  0  0  0  0
   29.7490  -25.3080    2.8980 C   0  0  0  0  0  0
   30.6630  -25.6250    3.9020 C   0  0  0  0  0  0
   32.3900  -26.9130    3.6630 I   0  0  0  0  0  0
   23.3560  -21.6480    1.6089 H   0  0  0  0  0  0
   24.3570  -20.0378    3.2227 H   0  0  0  0  0  0
   26.6180  -18.8997    2.5211 H   0  0  0  0  0  0
   25.0232  -18.4797    3.2330 H   0  0  0  0  0  0
   28.1938  -16.2202    2.8504 H   0  0  0  0  0  0
   25.6618  -15.6711    3.1913 H   0  0  0  0  0  0
   24.7999  -16.4737    4.5476 H   0  0  0  0  0  0
   25.6705  -14.3053    5.1945 H   0  0  0  0  0  0
   27.3200  -14.8465    4.7329 H   0  0  0  0  0  0
   26.4581  -15.6491    6.0893 H   0  0  0  0  0  0
   26.3877  -17.9215    6.2639 H   0  0  0  0  0  0
   28.0345  -18.3213    5.6683 H   0  0  0  0  0  0
   27.2529  -22.9508    5.8560 H   0  0  0  0  0  0
   31.0656  -25.3893    5.9765 H   0  0  0  0  0  0
   27.9354  -24.2530    2.2527 H   0  0  0  0  0  0
   29.9272  -25.7130    1.9019 H   0  0  0  0  0  0
  1  2  1  0  0  0
  2  3  2  0  0  0
  2 17  1  0  0  0
  3  4  1  0  0  0
  3  5  1  0  0  0
  5  6  2  0  0  0
  5 27  1  0  0  0
  6  7  1  0  0  0
  6 28  1  0  0  0
  7  8  1  0  0  0
  7 17  2  0  0  0
  8  9  2  0  0  0
  8 10  1  0  0  0
 10 11  1  0  0  0
 10 16  1  0  0  0
 11 12  1  0  0  0
 11 29  1  0  0  0
 11 30  1  0  0  0
 12 13  1  0  0  0
 12 14  1  0  0  0
 12 16  1  0  0  0
 13 31  1  0  0  0
 14 15  1  0  0  0
 14 32  1  0  0  0
 14 33  1  0  0  0
 15 34  1  0  0  0
 15 35  1  0  0  0
 15 36  1  0  0  0
 16 37  1  0  0  0
 16 38  1  0  0  0
 17 18  1  0  0  0
 18 19  1  0  0  0
 18 39  1  0  0  0
 19 20  2  0  0  0
 19 23  1  0  0  0
 20 21  1  0  0  0
 20 22  1  0  0  0
 22 25  2  0  0  0
 22 40  1  0  0  0
 23 24  2  0  0  0
 23 41  1  0  0  0
 24 25  1  0  0  0
 24 42  1  0  0  0
 25 26  1  0  0  0
M  CHG  1  15   1
M  END
> <s_m_source_file>
../4anb_ligand.sdf

> <i_m_source_file_index>
1

> <s_epik_input>
W05IMytdW0NIMl1DMShbT0hdKVtDSDJdTihbQ0gyXTEpQyg9TyljKFtjSF1bY0hdYyhGKWMyRiljMltOSF1jM2MoRilbY0hdYyhJKVtjSF1bY0hdMw==

> <s_epik_cmdline>
J2VwaWtfYXBwJywgJy1pbWFlJywgJ2xpZ2FuZF9wcm8ubWFlJywgJy1vbWFlJywgJ2xpZ2FuZF9wcmVwLm1hZScsICctbXMnLCAnMScsICctcGgnLCAnNycsICctcGh0JywgJzAuNScsICctbnQn

> <r_epik_Ionization_Penalty>
  0.0157

> <r_epik_Ionization_Penalty_Charging>
  0.0157

> <r_epik_Ionization_Penalty_Neutral>
  0.0000

> <r_epik_State_Penalty>
  0.0124

> <r_epik_Charging_Adjusted_Penalty>
0.0281106161062577

> <i_epik_Tot_Q>
1

> <i_epik_Tot_abs_Q>
1

$$$$
