4anm_ligand
                    3D
 Schrodinger Suite 2020-3.
 36 39  0  0  1  0            999 V2000
   23.8270    2.1590   18.1400 C   0  0  1  0  0  0
   25.4080    3.6900   17.3710 N   0  3  2  0  0  0
   23.7550    1.0880   17.1040 O   0  0  0  0  0  0
   25.2050    2.0350   18.7930 C   0  0  0  0  0  0
   24.3600    6.9000   18.0990 N   0  0  0  0  0  0
   25.1430    7.8340   14.2830 O   0  5  0  0  0  0
   26.1770    2.5200   17.6740 C   0  0  0  0  0  0
   25.4760    6.4350   16.0690 N   0  0  0  0  0  0
   25.8770    5.0060   17.9320 C   0  0  0  0  0  0
   25.2120    6.1570   17.3720 C   0  0  0  0  0  0
   23.8170    8.0200   17.5800 C   0  0  0  0  0  0
   22.9430    8.9530   18.0930 C   0  0  0  0  0  0
   20.3350   10.4990   20.9780 Br  0  0  0  0  0  0
   22.2490    9.1280   19.3100 C   0  0  0  0  0  0
   21.3610   10.2100   19.3180 C   0  0  0  0  0  0
   21.1560   11.1410   18.3700 C   0  0  0  0  0  0
   21.8680   10.9090   17.1740 C   0  0  0  0  0  0
   23.4500    9.4480   15.9870 O   0  0  0  0  0  0
   22.6920    9.8500   17.0780 C   0  0  0  0  0  0
   24.1020    8.3590   16.2650 C   0  0  0  0  0  0
   24.9570    7.5630   15.5010 C   0  0  0  0  0  0
   23.9520    3.4820   17.4500 C   0  0  0  0  0  0
   22.9492    2.0805   18.7982 H   0  0  0  0  0  0
   25.6553    3.7603   16.3015 H   0  0  0  0  0  0
   23.6600    0.0349   17.4073 H   0  0  0  0  0  0
   25.2447    2.6716   19.6892 H   0  0  0  0  0  0
   25.3823    0.9877   19.0790 H   0  0  0  0  0  0
   26.2492    1.8865   16.7777 H   0  0  0  0  0  0
   27.1862    2.8175   17.9950 H   0  0  0  0  0  0
   25.6989    5.0262   19.0173 H   0  0  0  0  0  0
   26.9524    5.1264   17.7346 H   0  0  0  0  0  0
   22.3926    8.4753   20.1711 H   0  0  0  0  0  0
   20.4984   11.9986   18.5125 H   0  0  0  0  0  0
   21.7504   11.5872   16.3288 H   0  0  0  0  0  0
   23.4823    3.4235   16.4571 H   0  0  0  0  0  0
   23.4496    4.2565   18.0482 H   0  0  0  0  0  0
  1  3  1  0  0  0
  1  4  1  0  0  0
  1 22  1  0  0  0
  1 23  1  0  0  0
  2  7  1  0  0  0
  2  9  1  0  0  0
  2 22  1  0  0  0
  2 24  1  0  0  0
  3 25  1  0  0  0
  4  7  1  0  0  0
  4 26  1  0  0  0
  4 27  1  0  0  0
  5 10  2  0  0  0
  5 11  1  0  0  0
  6 21  1  0  0  0
  7 28  1  0  0  0
  7 29  1  0  0  0
  8 10  1  0  0  0
  8 21  2  0  0  0
  9 10  1  0  0  0
  9 30  1  0  0  0
  9 31  1  0  0  0
 11 12  1  0  0  0
 11 20  2  0  0  0
 12 14  2  0  0  0
 12 19  1  0  0  0
 13 15  1  0  0  0
 14 15  1  0  0  0
 14 32  1  0  0  0
 15 16  2  0  0  0
 16 17  1  0  0  0
 16 33  1  0  0  0
 17 19  2  0  0  0
 17 34  1  0  0  0
 18 19  1  0  0  0
 18 20  1  0  0  0
 20 21  1  0  0  0
 22 35  1  0  0  0
 22 36  1  0  0  0
M  CHG  2   2   1   6  -1
M  END
> <s_m_source_file>
../4anm_ligand.sdf

> <i_m_source_file_index>
1

> <s_epik_input>
W09IXVtDQEhdMVtDSDJdW0NIMl1bTkBASCtdKFtDSDJdMSlbQ0gyXWMobjIpW25IXWMoPU8pYzNvYyhjNGMyMylbY0hdW2NIXWMoQnIpW2NIXTQ=

> <s_epik_cmdline>
J2VwaWtfYXBwJywgJy1pbWFlJywgJ2xpZ2FuZF9wcm8ubWFlJywgJy1vbWFlJywgJ2xpZ2FuZF9wcmVwLm1hZScsICctbXMnLCAnMScsICctcGgnLCAnNycsICctcGh0JywgJzAuNScsICctbnQn

> <r_lp_tautomer_probability>
1

> <r_epik_Ionization_Penalty>
  0.0796

> <r_epik_Ionization_Penalty_Charging>
  0.0039

> <r_epik_Ionization_Penalty_Neutral>
  0.0757

> <r_epik_State_Penalty>
 -0.0000

> <r_epik_Charging_Adjusted_Penalty>
0.00385873271082336

> <i_epik_Tot_Q>
0

> <i_epik_Tot_abs_Q>
2

$$$$
