4anq_ligand
                    3D
 Schrodinger Suite 2020-3.
 53 56  0  0  1  0            999 V2000
   32.8060   46.6850    6.3050 Cl  0  0  0  0  0  0
   33.3360   46.3750    7.9310 C   0  0  0  0  0  0
   34.1910   47.3580    8.5080 C   0  0  0  0  0  0
   34.6890   47.2140    9.8270 C   0  0  0  0  0  0
   34.3460   46.0790   10.6060 C   0  0  0  0  0  0
   34.8430   45.9840   11.8460 F   0  0  0  0  0  0
   32.9550   45.1900    8.6970 C   0  0  0  0  0  0
   33.4820   45.0580   10.0660 C   0  0  0  0  0  0
   33.1130   43.6910   11.1070 Cl  0  0  0  0  0  0
   32.0120   44.1040    8.0520 C   0  0  1  0  0  0
   32.6930   42.7270    8.0510 C   0  0  0  0  0  0
   30.7290   43.9080    8.7500 O   0  0  0  0  0  0
   29.7160   44.8670    8.9150 C   0  0  0  0  0  0
   29.6140   46.1010    8.1850 C   0  0  0  0  0  0
   28.6680   44.6140    9.8630 C   0  0  0  0  0  0
   28.7010   43.4220   10.6120 N   0  0  0  0  0  0
   27.6250   45.4550   10.0940 N   0  0  0  0  0  0
   27.5560   46.6220    9.3830 C   0  0  0  0  0  0
   28.5290   47.0060    8.4080 C   0  0  0  0  0  0
   28.4480   48.3040    7.6260 C   0  0  0  0  0  0
   29.5150   48.9180    6.8340 C   0  0  0  0  0  0
   27.3650   49.1720    7.4960 C   0  0  0  0  0  0
   27.8630   50.2020    6.6630 N   0  0  0  0  0  0
   29.0840   50.0060    6.3190 N   0  0  0  0  0  0
   27.1190   51.3970    6.2000 C   0  0  0  0  0  0
   26.7240   52.2900    7.3970 C   0  0  0  0  0  0
   25.9550   53.5300    6.8830 C   0  0  0  0  0  0
   24.7760   53.1610    6.0450 N   0  3  0  0  0  0
   25.1290   52.2570    4.9120 C   0  0  0  0  0  0
   25.8750   50.9870    5.3810 C   0  0  0  0  0  0
   34.4670   48.2364    7.9245 H   0  0  0  0  0  0
   35.3404   47.9810   10.2460 H   0  0  0  0  0  0
   31.7564   44.4690    7.0463 H   0  0  0  0  0  0
   33.6651   42.7991    7.5412 H   0  0  0  0  0  0
   32.0550   42.0028    7.5233 H   0  0  0  0  0  0
   32.8465   42.3931    9.0878 H   0  0  0  0  0  0
   30.3772   46.3516    7.4482 H   0  0  0  0  0  0
   29.5215   42.7038   10.4670 H   0  0  0  0  0  0
   27.9063   43.2090   11.3421 H   0  0  0  0  0  0
   26.7172   47.2927    9.5692 H   0  0  0  0  0  0
   30.5181   48.5119    6.7039 H   0  0  0  0  0  0
   26.3705   49.0794    7.9324 H   0  0  0  0  0  0
   27.8125   51.9487    5.5483 H   0  0  0  0  0  0
   26.0822   51.7192    8.0842 H   0  0  0  0  0  0
   27.6313   52.6148    7.9273 H   0  0  0  0  0  0
   25.5926   54.1176    7.7394 H   0  0  0  0  0  0
   26.6263   54.1500    6.2707 H   0  0  0  0  0  0
   24.0315   52.6430    6.6674 H   0  0  0  0  0  0
   24.3287   54.0717    5.6200 H   0  0  0  0  0  0
   24.2107   51.9401    4.3960 H   0  0  0  0  0  0
   25.7806   52.7919    4.2054 H   0  0  0  0  0  0
   26.1896   50.4008    4.5050 H   0  0  0  0  0  0
   25.2070   50.3788    6.0085 H   0  0  0  0  0  0
  1  2  1  0  0  0
  2  3  2  0  0  0
  2  7  1  0  0  0
  3  4  1  0  0  0
  3 31  1  0  0  0
  4  5  2  0  0  0
  4 32  1  0  0  0
  5  6  1  0  0  0
  5  8  1  0  0  0
  7  8  2  0  0  0
  7 10  1  0  0  0
  8  9  1  0  0  0
 10 11  1  0  0  0
 10 12  1  0  0  0
 10 33  1  0  0  0
 11 34  1  0  0  0
 11 35  1  0  0  0
 11 36  1  0  0  0
 12 13  1  0  0  0
 13 14  2  0  0  0
 13 15  1  0  0  0
 14 19  1  0  0  0
 14 37  1  0  0  0
 15 16  1  0  0  0
 15 17  2  0  0  0
 16 38  1  0  0  0
 16 39  1  0  0  0
 17 18  1  0  0  0
 18 19  2  0  0  0
 18 40  1  0  0  0
 19 20  1  0  0  0
 20 21  1  0  0  0
 20 22  2  0  0  0
 21 24  2  0  0  0
 21 41  1  0  0  0
 22 23  1  0  0  0
 22 42  1  0  0  0
 23 24  1  0  0  0
 23 25  1  0  0  0
 25 26  1  0  0  0
 25 30  1  0  0  0
 25 43  1  0  0  0
 26 27  1  0  0  0
 26 44  1  0  0  0
 26 45  1  0  0  0
 27 28  1  0  0  0
 27 46  1  0  0  0
 27 47  1  0  0  0
 28 29  1  0  0  0
 28 48  1  0  0  0
 28 49  1  0  0  0
 29 30  1  0  0  0
 29 50  1  0  0  0
 29 51  1  0  0  0
 30 52  1  0  0  0
 30 53  1  0  0  0
M  CHG  1  28   1
M  END
> <s_m_source_file>
../4anq_ligand.sdf

> <i_m_source_file_index>
1

> <s_epik_input>
Q2xjMVtjSF1bY0hdYyhGKWMoQ2wpYzFbQ0BASF0oW0NIM10pT2MyW2NIXWMoW2NIXW5jMltOSDJdKS1jM1tjSF1ubihbY0hdMylbQ0hdNFtDSDJdW0NIMl1bTkgyK11bQ0gyXVtDSDJdNA==

> <s_epik_cmdline>
J2VwaWtfYXBwJywgJy1pbWFlJywgJ2xpZ2FuZF9wcm8ubWFlJywgJy1vbWFlJywgJ2xpZ2FuZF9wcmVwLm1hZScsICctbXMnLCAnMScsICctcGgnLCAnNycsICctcGh0JywgJzAuNScsICctbnQn

> <r_lp_tautomer_probability>
0.999999404453161

> <r_epik_Ionization_Penalty>
  0.3436

> <r_epik_Ionization_Penalty_Charging>
  0.0019

> <r_epik_Ionization_Penalty_Neutral>
  0.3417

> <r_epik_State_Penalty>
  0.3362

> <r_epik_Charging_Adjusted_Penalty>
0.338089038862592

> <i_epik_Tot_Q>
1

> <i_epik_Tot_abs_Q>
1

$$$$
