4anx_ligand
                    3D
 Schrodinger Suite 2020-3.
 66 70  0  0  1  0            999 V2000
   48.4340   15.5520   32.9290 C   0  0  0  0  0  0
   48.3990   17.0730   32.9090 C   0  0  0  0  0  0
   49.0240   17.5860   31.6060 C   0  0  0  0  0  0
   46.9310   17.5450   33.0540 C   0  0  0  0  0  0
   46.4980   18.2080   34.2010 C   0  0  0  0  0  0
   45.1750   18.6380   34.3320 C   0  0  0  0  0  0
   45.9890   17.3160   32.0450 C   0  0  0  0  0  0
   44.6560   17.7360   32.1800 C   0  0  0  0  0  0
   44.2470   18.3990   33.3280 C   0  0  0  0  0  0
   42.9560   18.8530   33.4950 C   0  0  0  0  0  0
   42.7740   20.1700   33.3890 N   0  0  0  0  0  0
   41.5910   20.7320   33.5400 C   0  0  0  0  0  0
   40.4860   19.9460   33.7970 C   0  0  0  0  0  0
   40.6580   18.6370   33.9090 N   0  0  0  0  0  0
   41.8660   18.0390   33.7800 C   0  0  0  0  0  0
   41.9550   16.6200   33.8840 N   0  0  0  0  0  0
   43.0790   15.9580   34.6130 C   0  0  0  0  0  0
   42.7980   14.4990   34.9940 C   0  0  0  0  0  0
   40.8780   15.8350   33.1970 C   0  0  0  0  0  0
   40.6800   14.4770   33.8220 C   0  0  0  0  0  0
   42.0080   13.8620   33.9230 N   0  0  0  0  0  0
   41.9230   12.2070   34.0420 S   0  0  0  0  0  0
   42.8230   11.6730   35.1170 O   0  0  0  0  0  0
   40.5000   11.7570   34.2630 O   0  0  0  0  0  0
   42.5290   11.7630   32.4680 C   0  0  0  0  0  0
   43.9060   11.9050   32.1880 C   0  0  0  0  0  0
   41.6340   11.3280   31.4850 C   0  0  0  0  0  0
   42.1400   10.9980   30.2290 C   0  0  0  0  0  0
   43.5170   11.1200   29.9410 C   0  0  0  0  0  0
   44.4080   11.5800   30.9220 C   0  0  0  0  0  0
   45.7700   11.6980   30.6360 C   0  0  0  0  0  0
   46.4470   12.9010   30.8050 C   0  0  0  0  0  0
   47.7380   13.0000   30.5190 N   0  0  0  0  0  0
   48.4150   11.9280   30.0670 C   0  0  0  0  0  0
   49.7110   12.0330   29.7850 N   0  0  0  0  0  0
   47.7880   10.7500   29.8860 N   0  0  0  0  0  0
   46.5010   10.6150   30.1600 C   0  0  0  0  0  0
   49.4737   15.2078   32.8265 H   0  0  0  0  0  0
   47.8341   15.1604   32.0943 H   0  0  0  0  0  0
   48.0195   15.1882   33.8807 H   0  0  0  0  0  0
   48.9935   17.4674   33.7463 H   0  0  0  0  0  0
   50.0636   17.2338   31.5345 H   0  0  0  0  0  0
   49.0082   18.6859   31.6000 H   0  0  0  0  0  0
   48.4484   17.2063   30.7489 H   0  0  0  0  0  0
   47.2040   18.3944   35.0102 H   0  0  0  0  0  0
   44.8680   19.1677   35.2338 H   0  0  0  0  0  0
   46.2965   16.8007   31.1350 H   0  0  0  0  0  0
   43.9408   17.5407   31.3809 H   0  0  0  0  0  0
   41.4859   21.8141   33.4621 H   0  0  0  0  0  0
   39.4968   20.3909   33.9051 H   0  0  0  0  0  0
   43.9790   15.9620   33.9806 H   0  0  0  0  0  0
   43.2837   16.5046   35.5454 H   0  0  0  0  0  0
   43.7503   13.9628   35.1193 H   0  0  0  0  0  0
   42.2333   14.4686   35.9375 H   0  0  0  0  0  0
   39.9268   16.3837   33.2610 H   0  0  0  0  0  0
   41.1472   15.6900   32.1404 H   0  0  0  0  0  0
   40.2262   14.5940   34.8172 H   0  0  0  0  0  0
   40.0166   13.8734   33.1852 H   0  0  0  0  0  0
   44.5816   12.2696   32.9617 H   0  0  0  0  0  0
   40.5675   11.2491   31.6960 H   0  0  0  0  0  0
   41.4609   10.6395   29.4555 H   0  0  0  0  0  0
   43.8895   10.8554   28.9514 H   0  0  0  0  0  0
   45.9097   13.7733   31.1772 H   0  0  0  0  0  0
   50.2296   12.9921   29.9304 H   0  0  0  0  0  0
   50.2639   11.1607   29.4064 H   0  0  0  0  0  0
   46.0120    9.6521   30.0123 H   0  0  0  0  0  0
  1  2  1  0  0  0
  1 38  1  0  0  0
  1 39  1  0  0  0
  1 40  1  0  0  0
  2  3  1  0  0  0
  2  4  1  0  0  0
  2 41  1  0  0  0
  3 42  1  0  0  0
  3 43  1  0  0  0
  3 44  1  0  0  0
  4  5  2  0  0  0
  4  7  1  0  0  0
  5  6  1  0  0  0
  5 45  1  0  0  0
  6  9  2  0  0  0
  6 46  1  0  0  0
  7  8  2  0  0  0
  7 47  1  0  0  0
  8  9  1  0  0  0
  8 48  1  0  0  0
  9 10  1  0  0  0
 10 11  2  0  0  0
 10 15  1  0  0  0
 11 12  1  0  0  0
 12 13  2  0  0  0
 12 49  1  0  0  0
 13 14  1  0  0  0
 13 50  1  0  0  0
 14 15  2  0  0  0
 15 16  1  0  0  0
 16 17  1  0  0  0
 16 19  1  0  0  0
 17 18  1  0  0  0
 17 51  1  0  0  0
 17 52  1  0  0  0
 18 21  1  0  0  0
 18 53  1  0  0  0
 18 54  1  0  0  0
 19 20  1  0  0  0
 19 55  1  0  0  0
 19 56  1  0  0  0
 20 21  1  0  0  0
 20 57  1  0  0  0
 20 58  1  0  0  0
 21 22  1  0  0  0
 22 23  2  0  0  0
 22 24  2  0  0  0
 22 25  1  0  0  0
 25 26  2  0  0  0
 25 27  1  0  0  0
 26 30  1  0  0  0
 26 59  1  0  0  0
 27 28  2  0  0  0
 27 60  1  0  0  0
 28 29  1  0  0  0
 28 61  1  0  0  0
 29 30  2  0  0  0
 29 62  1  0  0  0
 30 31  1  0  0  0
 31 32  2  0  0  0
 31 37  1  0  0  0
 32 33  1  0  0  0
 32 63  1  0  0  0
 33 34  2  0  0  0
 34 35  1  0  0  0
 34 36  1  0  0  0
 35 64  1  0  0  0
 35 65  1  0  0  0
 36 37  2  0  0  0
 37 66  1  0  0  0
M  END
> <s_m_source_file>
../4anx_ligand.sdf

> <i_m_source_file_index>
1

> <s_epik_input>
W0NIM11bQ0hdKFtDSDNdKWMxW2NIXVtjSF1jKFtjSF1bY0hdMSktYzJuW2NIXVtjSF1uYzJOM1tDSDJdW0NIMl1OKFtDSDJdW0NIMl0zKVMoPU8pKD1PKWM0W2NIXWMoW2NIXVtjSF1bY0hdNCktYzVbY0hdbmMoW05IMl0pbltjSF01

> <s_epik_cmdline>
J2VwaWtfYXBwJywgJy1pbWFlJywgJ2xpZ2FuZF9wcm8ubWFlJywgJy1vbWFlJywgJ2xpZ2FuZF9wcmVwLm1hZScsICctbXMnLCAnMScsICctcGgnLCAnNycsICctcGh0JywgJzAuNScsICctbnQn

> <r_lp_tautomer_probability>
1

> <r_epik_Ionization_Penalty>
  0.0002

> <r_epik_Ionization_Penalty_Charging>
  0.0000

> <r_epik_Ionization_Penalty_Neutral>
  0.0002

> <r_epik_State_Penalty>
 -0.0000

> <r_epik_Charging_Adjusted_Penalty>
0

> <i_epik_Tot_Q>
0

> <i_epik_Tot_abs_Q>
0

$$$$
