4aom_ligand
                    3D
 Schrodinger Suite 2020-3.
323324  0  0  1  0            999 V2000
  -13.8810  -11.2850   27.2110 N   0  3  0  0  0  0
  -13.1640  -10.1350   27.7780 C   0  0  2  0  0  0
  -12.4940   -9.2820   26.6820 C   0  0  0  0  0  0
  -12.2530   -9.7830   25.5770 O   0  0  0  0  0  0
  -12.1310  -10.6260   28.7950 C   0  0  0  0  0  0
  -11.6550   -9.5550   29.7440 C   0  0  0  0  0  0
  -10.6570  -10.0890   30.7580 C   0  0  0  0  0  0
   -9.9410   -8.9140   31.4020 C   0  0  0  0  0  0
   -9.5810   -9.1830   32.8090 N   0  3  0  0  0  0
  -12.2030   -8.0090   26.9850 N   0  0  0  0  0  0
  -11.5700   -7.0900   26.0250 C   0  0  2  0  0  0
  -12.3270   -7.0300   24.7010 C   0  0  0  0  0  0
  -11.7140   -6.9810   23.6230 O   0  0  0  0  0  0
  -10.1110   -7.4730   25.7560 C   0  0  0  0  0  0
   -9.2570   -7.4400   27.0090 C   0  0  0  0  0  0
   -9.4550   -6.6000   27.8910 O   0  0  0  0  0  0
   -8.3070   -8.3610   27.0990 N   0  0  0  0  0  0
  -13.6530   -7.0460   24.7900 N   0  0  0  0  0  0
  -14.5070   -7.1270   23.6050 C   0  0  2  0  0  0
  -14.3780   -5.9330   22.6430 C   0  0  0  0  0  0
  -14.3060   -6.1440   21.4270 O   0  0  0  0  0  0
  -15.9820   -7.4080   23.9850 C   0  0  2  0  0  0
  -16.0870   -8.7550   24.7050 C   0  0  0  0  0  0
  -16.8940   -7.3760   22.7460 C   0  0  0  0  0  0
  -15.6750   -9.9660   23.8390 C   0  0  0  0  0  0
  -14.3420   -4.6850   23.1660 N   0  0  0  0  0  0
  -14.2400   -3.5910   22.1900 C   0  0  2  0  0  0
  -12.9720   -3.6610   21.3360 C   0  0  0  0  0  0
  -13.0680   -3.4220   20.1340 O   0  0  0  0  0  0
  -14.2510   -2.3370   23.0640 C   0  0  0  0  0  0
  -15.0660   -2.7410   24.2680 C   0  0  0  0  0  0
  -14.6520   -4.1770   24.5200 C   0  0  0  0  0  0
  -11.8250   -4.0110   21.9230 N   0  0  0  0  0  0
  -10.5990   -4.1440   21.1440 C   0  0  2  0  0  0
  -10.6610   -5.3520   20.1950 C   0  0  0  0  0  0
  -10.0930   -5.3220   19.0910 O   0  0  0  0  0  0
   -9.3780   -4.2170   22.0600 C   0  0  0  0  0  0
   -9.3780   -5.4180   22.8240 O   0  0  0  0  0  0
  -11.3550   -6.4120   20.6060 N   0  0  0  0  0  0
  -11.5780   -7.5390   19.7010 C   0  0  2  0  0  0
  -12.3490   -7.0790   18.4720 C   0  0  0  0  0  0
  -12.0180   -7.4760   17.3500 O   0  0  0  0  0  0
  -12.3440   -8.6710   20.3910 C   0  0  0  0  0  0
  -12.7040   -9.8530   19.4810 C   0  0  0  0  0  0
  -11.4580  -10.4680   18.8140 C   0  0  0  0  0  0
  -13.4680  -10.9250   20.2560 C   0  0  0  0  0  0
  -13.3760   -6.2480   18.6790 N   0  0  0  0  0  0
  -14.1610   -5.7470   17.5560 C   0  0  2  0  0  0
  -13.2770   -4.9920   16.5650 C   0  0  0  0  0  0
  -13.4690   -5.1160   15.3590 O   0  0  0  0  0  0
  -15.3180   -4.8630   18.0320 C   0  0  0  0  0  0
  -16.6760   -5.5510   18.2050 C   0  0  0  0  0  0
  -16.5490   -6.9240   18.8260 C   0  0  0  0  0  0
  -17.6200   -4.6870   19.0350 C   0  0  0  0  0  0
  -12.3020   -4.2360   17.0720 N   0  0  0  0  0  0
  -11.4120   -3.4690   16.1980 C   0  0  2  0  0  0
  -10.5000   -4.3810   15.3710 C   0  0  0  0  0  0
  -10.2820   -4.1350   14.1800 O   0  0  0  0  0  0
  -10.5820   -2.4490   16.9980 C   0  0  0  0  0  0
  -11.4090   -1.4260   17.8240 C   0  0  0  0  0  0
  -12.5200   -0.7630   17.0110 C   0  0  0  0  0  0
  -12.0110   -0.2140   15.7540 N   0  0  0  0  0  0
  -12.6830   -0.2240   14.6060 C   0  0  0  0  0  0
  -13.9190   -0.7320   14.5500 N   0  0  0  0  0  0
  -12.1240    0.2770   13.5080 N   0  0  0  0  0  0
   -9.9770   -5.4290   16.0020 N   0  0  0  0  0  0
   -9.1590   -6.4170   15.3030 C   0  0  2  0  0  0
   -9.9490   -7.0390   14.1570 C   0  0  0  0  0  0
   -9.4870   -7.0790   13.0090 O   0  0  0  0  0  0
   -8.6930   -7.5300   16.2640 C   0  0  0  0  0  0
   -8.1360   -8.7260   15.4970 C   0  0  0  0  0  0
   -7.6470   -6.9850   17.2520 C   0  0  0  0  0  0
  -11.1420   -7.5250   14.4720 N   0  0  0  0  0  0
  -11.9840   -8.1650   13.4700 C   0  0  2  0  0  0
  -12.3790   -7.1630   12.3910 C   0  0  0  0  0  0
  -12.4890   -7.5130   11.2210 O   0  0  0  0  0  0
  -13.2250   -8.7600   14.1390 C   0  0  0  0  0  0
  -12.9140   -9.8900   15.1460 C   0  0  0  0  0  0
  -14.0920  -10.1760   16.0670 C   0  0  0  0  0  0
  -14.8010   -9.2550   16.4740 O   0  0  0  0  0  0
  -14.2920  -11.4590   16.4200 N   0  0  0  0  0  0
  -12.5850   -5.9140   12.8010 N   0  0  0  0  0  0
  -12.9510   -4.8580   11.8690 C   0  0  2  0  0  0
  -11.8230   -4.6480   10.8720 C   0  0  0  0  0  0
  -12.0540   -4.5950    9.6680 O   0  0  0  0  0  0
  -13.2610   -3.5670   12.6240 C   0  0  0  0  0  0
  -10.5950   -4.5490   11.3620 N   0  0  0  0  0  0
   -9.4660   -4.3050   10.4670 C   0  0  2  0  0  0
   -9.1300   -5.5150    9.5950 C   0  0  0  0  0  0
   -8.6530   -5.3530    8.4680 O   0  0  0  0  0  0
   -8.2430   -3.8230   11.2460 C   0  0  0  0  0  0
   -8.3280   -2.3820   11.6400 C   0  0  0  0  0  0
   -8.0690   -1.3570   10.7590 N   0  0  0  0  0  0
   -8.6750   -1.7920   12.8110 C   0  0  0  0  0  0
   -8.2400   -0.1960   11.3680 C   0  0  0  0  0  0
   -8.6140   -0.4340   12.6110 N   0  0  0  0  0  0
   -9.3890   -6.7190   10.1100 N   0  0  0  0  0  0
   -9.2370   -7.9440    9.3090 C   0  0  2  0  0  0
  -10.2070   -7.9440    8.1200 C   0  0  0  0  0  0
   -9.8040   -8.2110    6.9820 O   0  0  0  0  0  0
   -9.4150   -9.2150   10.1600 C   0  0  2  0  0  0
   -8.1980   -9.4090   11.0680 C   0  0  0  0  0  0
   -9.5960  -10.4450    9.2630 C   0  0  0  0  0  0
   -8.3130  -10.5720   12.0370 C   0  0  0  0  0  0
  -11.4720   -7.6230    8.3720 N   0  0  0  0  0  0
  -12.4600   -7.5060    7.2980 C   0  0  2  0  0  0
  -12.1060   -6.3970    6.3110 C   0  0  0  0  0  0
  -12.3310   -6.5460    5.1060 O   0  0  0  0  0  0
  -13.8720   -7.3170    7.8730 C   0  0  0  0  0  0
  -14.5060   -8.6250    8.3710 C   0  0  0  0  0  0
  -15.9780   -8.4330    8.7490 C   0  0  0  0  0  0
  -16.5670   -9.6540    9.2920 N   0  0  0  0  0  0
  -16.6280   -9.9490   10.5900 C   0  0  0  0  0  0
  -16.1400   -9.1020   11.4990 N   0  0  0  0  0  0
  -17.1800  -11.0990   10.9780 N   0  0  0  0  0  0
  -11.5490   -5.2960    6.8180 N   0  0  0  0  0  0
  -11.0800   -4.2060    5.9630 C   0  0  2  0  0  0
   -9.9700   -4.7240    5.0540 C   0  0  0  0  0  0
  -10.0300   -4.5530    3.8370 O   0  0  0  0  0  0
  -10.5580   -3.0370    6.8130 C   0  0  0  0  0  0
   -9.8890   -1.9090    6.0090 C   0  0  0  0  0  0
   -8.9320   -1.0880    6.8930 C   0  0  0  0  0  0
   -7.6400   -1.8630    7.1740 C   0  0  0  0  0  0
   -6.7550   -1.1950    8.1900 N   0  3  0  0  0  0
   -8.9640   -5.3620    5.6500 N   0  0  0  0  0  0
   -7.8340   -5.9130    4.8960 C   0  0  2  0  0  0
   -8.2580   -6.9120    3.8150 C   0  0  0  0  0  0
   -7.6860   -6.9210    2.7250 O   0  0  0  0  0  0
   -6.8210   -6.5870    5.8360 C   0  0  0  0  0  0
   -5.7660   -5.6460    6.4280 C   0  0  0  0  0  0
   -5.1830   -4.7380    5.3420 C   0  0  0  0  0  0
   -3.7890   -4.2250    5.6760 C   0  0  0  0  0  0
   -2.7570   -5.2570    5.4020 N   0  3  0  0  0  0
   -9.2540   -7.7470    4.1120 N   0  0  0  0  0  0
   -9.6250   -8.8280    3.2030 C   0  0  2  0  0  0
  -10.7070   -8.4220    2.2030 C   0  0  0  0  0  0
  -11.2250   -9.2720    1.4750 O   0  0  0  0  0  0
  -10.1060  -10.0640    3.9790 C   0  0  0  0  0  0
   -9.2090  -10.5070    5.1290 C   0  0  0  0  0  0
   -7.4740  -10.0930    4.9270 S   0  0  0  0  0  0
   -6.9350  -11.3820    3.8230 C   0  0  0  0  0  0
  -11.0330   -7.1330    2.1480 N   0  0  0  0  0  0
  -12.2040   -6.6840    1.3910 C   0  0  2  0  0  0
  -12.1250   -6.9780   -0.1140 C   0  0  0  0  0  0
  -11.0160   -7.0657   -0.7057 O   0  0  0  0  0  0
  -12.4930   -5.1900    1.6180 C   0  0  0  0  0  0
  -11.4790   -4.3350    0.8920 C   0  0  0  0  0  0
  -13.8770   -4.8500    1.1350 C   0  0  0  0  0  0
  -13.1894   -7.1345   -0.7698 O   0  0  0  0  0  0
  -14.6230  -10.9305   26.4804 H   0  0  0  0  0  0
  -14.3923  -11.8319   28.0169 H   0  0  0  0  0  0
  -13.1646  -11.9536   26.7112 H   0  0  0  0  0  0
  -13.9289   -9.5237   28.2792 H   0  0  0  0  0  0
  -12.5695  -11.4304   29.4038 H   0  0  0  0  0  0
  -11.2468  -11.0084   28.2641 H   0  0  0  0  0  0
  -11.1662   -8.7511   29.1742 H   0  0  0  0  0  0
  -12.5144   -9.1442   30.2941 H   0  0  0  0  0  0
  -11.1895  -10.6687   31.5263 H   0  0  0  0  0  0
   -9.9284  -10.7372   30.2491 H   0  0  0  0  0  0
   -9.0154   -8.7001   30.8475 H   0  0  0  0  0  0
  -10.5945   -8.0295   31.3797 H   0  0  0  0  0  0
   -9.0669   -8.3064   33.2299 H   0  0  0  0  0  0
   -8.9144  -10.0568   32.8563 H   0  0  0  0  0  0
  -10.4936   -9.3862   33.3885 H   0  0  0  0  0  0
  -12.4560   -7.6589   27.9966 H   0  0  0  0  0  0
  -11.6244   -6.1111   26.5239 H   0  0  0  0  0  0
  -10.0692   -8.4931   25.3464 H   0  0  0  0  0  0
   -9.6746   -6.7691   25.0321 H   0  0  0  0  0  0
   -8.1684   -9.0894   26.2865 H   0  0  0  0  0  0
   -7.6577   -8.3965   27.9862 H   0  0  0  0  0  0
  -14.1052   -6.9962   25.7915 H   0  0  0  0  0  0
  -14.0783   -7.9931   23.0796 H   0  0  0  0  0  0
  -16.3307   -6.6207   24.6695 H   0  0  0  0  0  0
  -15.4316   -8.7506   25.5885 H   0  0  0  0  0  0
  -17.1273   -8.9217   25.0211 H   0  0  0  0  0  0
  -16.8008   -6.4000   22.2472 H   0  0  0  0  0  0
  -17.9381   -7.5315   23.0552 H   0  0  0  0  0  0
  -16.5950   -8.1736   22.0499 H   0  0  0  0  0  0
  -15.7787  -10.8897   24.4273 H   0  0  0  0  0  0
  -14.6286   -9.8498   23.5202 H   0  0  0  0  0  0
  -16.3243  -10.0209   22.9528 H   0  0  0  0  0  0
  -15.0716   -3.6558   21.4729 H   0  0  0  0  0  0
  -13.2187   -2.0682   23.3326 H   0  0  0  0  0  0
  -14.7133   -1.5073   22.5091 H   0  0  0  0  0  0
  -14.8207   -2.0827   25.1144 H   0  0  0  0  0  0
  -16.1368   -2.6520   24.0326 H   0  0  0  0  0  0
  -15.4624   -4.7768   24.9600 H   0  0  0  0  0  0
  -13.7557   -4.2508   25.1534 H   0  0  0  0  0  0
  -11.8113   -4.1997   23.0066 H   0  0  0  0  0  0
  -10.5452   -3.2227   20.5453 H   0  0  0  0  0  0
   -8.4615   -4.1880   21.4523 H   0  0  0  0  0  0
   -9.3867   -3.3616   22.7515 H   0  0  0  0  0  0
   -8.5615   -5.6187   23.5332 H   0  0  0  0  0  0
  -11.7607   -6.4388   21.6281 H   0  0  0  0  0  0
  -10.5728   -7.8871   19.4210 H   0  0  0  0  0  0
  -11.7360   -9.0774   21.2127 H   0  0  0  0  0  0
  -13.2906   -8.2811   20.7934 H   0  0  0  0  0  0
  -13.3589   -9.4602   18.6892 H   0  0  0  0  0  0
  -10.9162   -9.6877   18.2594 H   0  0  0  0  0  0
  -11.7684  -11.2629   18.1198 H   0  0  0  0  0  0
  -10.8002  -10.8923   19.5868 H   0  0  0  0  0  0
  -14.3543  -10.4751   20.7273 H   0  0  0  0  0  0
  -12.8158  -11.3506   21.0329 H   0  0  0  0  0  0
  -13.7840  -11.7212   19.5659 H   0  0  0  0  0  0
  -13.6273   -5.9425   19.7054 H   0  0  0  0  0  0
  -14.5667   -6.6488   17.0742 H   0  0  0  0  0  0
  -15.0711   -4.4332   19.0140 H   0  0  0  0  0  0
  -15.4818   -4.0517   17.3074 H   0  0  0  0  0  0
  -17.1013   -5.6917   17.2003 H   0  0  0  0  0  0
  -15.8667   -7.5386   18.2204 H   0  0  0  0  0  0
  -17.5387   -7.4027   18.8629 H   0  0  0  0  0  0
  -16.1492   -6.8293   19.8464 H   0  0  0  0  0  0
  -17.7054   -3.6914   18.5752 H   0  0  0  0  0  0
  -17.2229   -4.5866   20.0559 H   0  0  0  0  0  0
  -18.6124   -5.1600   19.0724 H   0  0  0  0  0  0
  -12.1715   -4.1937   18.1634 H   0  0  0  0  0  0
  -12.0960   -2.9400   15.5181 H   0  0  0  0  0  0
   -9.9376   -2.9811   17.7133 H   0  0  0  0  0  0
   -9.9576   -1.8625   16.3080 H   0  0  0  0  0  0
  -11.8785   -1.9377   18.6771 H   0  0  0  0  0  0
  -10.7449   -0.6308   18.1937 H   0  0  0  0  0  0
  -13.2964   -1.5062   16.7768 H   0  0  0  0  0  0
  -12.9621    0.0575   17.5952 H   0  0  0  0  0  0
  -11.0117    0.2445   15.7187 H   0  0  0  0  0  0
  -14.3846   -1.1472   15.4560 H   0  0  0  0  0  0
  -14.4700   -0.7346   13.5979 H   0  0  0  0  0  0
  -11.1077    0.6956   13.5502 H   0  0  0  0  0  0
  -10.1746   -5.5409   17.0783 H   0  0  0  0  0  0
   -8.2975   -5.8535   14.9153 H   0  0  0  0  0  0
   -9.5657   -7.8846   16.8320 H   0  0  0  0  0  0
   -8.8980   -9.1000   14.7973 H   0  0  0  0  0  0
   -7.8664   -9.5228   16.2058 H   0  0  0  0  0  0
   -7.2422   -8.4172   14.9351 H   0  0  0  0  0  0
   -8.0675   -6.1250   17.7937 H   0  0  0  0  0  0
   -6.7508   -6.6674   16.6989 H   0  0  0  0  0  0
   -7.3750   -7.7730   17.9696 H   0  0  0  0  0  0
  -11.4927   -7.4383   15.5110 H   0  0  0  0  0  0
  -11.3780   -8.9641   13.0182 H   0  0  0  0  0  0
  -13.7582   -7.9713   14.6900 H   0  0  0  0  0  0
  -13.8886   -9.1831   13.3705 H   0  0  0  0  0  0
  -12.6750  -10.8136   14.5984 H   0  0  0  0  0  0
  -12.0547   -9.6001   15.7686 H   0  0  0  0  0  0
  -13.6307  -12.2464   16.0293 H   0  0  0  0  0  0
  -15.1168  -11.7204   17.0992 H   0  0  0  0  0  0
  -12.4728   -5.6881   13.8717 H   0  0  0  0  0  0
  -13.8549   -5.1977   11.3422 H   0  0  0  0  0  0
  -14.0790   -3.7467   13.3372 H   0  0  0  0  0  0
  -13.5626   -2.7875   11.9089 H   0  0  0  0  0  0
  -12.3646   -3.2371   13.1696 H   0  0  0  0  0  0
  -10.4269   -4.6509   12.4443 H   0  0  0  0  0  0
   -9.8212   -3.5020    9.8044 H   0  0  0  0  0  0
   -8.1387   -4.4146   12.1675 H   0  0  0  0  0  0
   -7.3420   -3.9464   10.6271 H   0  0  0  0  0  0
   -8.9673   -2.1906   13.7937 H   0  0  0  0  0  0
   -8.0968    0.7876   10.9207 H   0  0  0  0  0  0
   -9.7224   -6.7838   11.1563 H   0  0  0  0  0  0
   -8.2013   -7.9074    8.9401 H   0  0  0  0  0  0
  -10.3148   -9.1016   10.7826 H   0  0  0  0  0  0
   -7.3062   -9.5942   10.4512 H   0  0  0  0  0  0
   -8.0438   -8.5033   11.6730 H   0  0  0  0  0  0
  -10.4716  -10.2994    8.6134 H   0  0  0  0  0  0
   -9.7483  -11.3363    9.8893 H   0  0  0  0  0  0
   -8.6979  -10.5818    8.6427 H   0  0  0  0  0  0
   -7.3984  -10.6345   12.6450 H   0  0  0  0  0  0
   -8.4431  -11.5075   11.4732 H   0  0  0  0  0  0
   -9.1808  -10.4166   12.6949 H   0  0  0  0  0  0
  -11.7702   -7.4438    9.4155 H   0  0  0  0  0  0
  -12.4032   -8.4643    6.7609 H   0  0  0  0  0  0
  -13.8308   -6.6234    8.7258 H   0  0  0  0  0  0
  -14.5321   -6.9040    7.0960 H   0  0  0  0  0  0
  -14.4485   -9.3854    7.5782 H   0  0  0  0  0  0
  -13.9638   -8.9802    9.2598 H   0  0  0  0  0  0
  -16.0610   -7.6435    9.5104 H   0  0  0  0  0  0
  -16.5511   -8.1429    7.8560 H   0  0  0  0  0  0
  -16.9996  -10.4046    8.6141 H   0  0  0  0  0  0
  -15.6847   -8.1534   11.1783 H   0  0  0  0  0  0
  -16.1932   -9.3526   12.5687 H   0  0  0  0  0  0
  -17.5820  -11.7966   10.2285 H   0  0  0  0  0  0
  -11.4467   -5.2209    7.9107 H   0  0  0  0  0  0
  -11.9467   -3.8789    5.3698 H   0  0  0  0  0  0
  -11.3943   -2.5826    7.3645 H   0  0  0  0  0  0
   -9.8074   -3.4086    7.5261 H   0  0  0  0  0  0
   -9.3140   -2.3427    5.1776 H   0  0  0  0  0  0
  -10.6616   -1.2360    5.6087 H   0  0  0  0  0  0
   -8.6749   -0.1489    6.3812 H   0  0  0  0  0  0
   -9.4219   -0.8611    7.8514 H   0  0  0  0  0  0
   -7.8887   -2.8634    7.5579 H   0  0  0  0  0  0
   -7.0613   -1.9607    6.2437 H   0  0  0  0  0  0
   -5.8501   -1.8014    8.3432 H   0  0  0  0  0  0
   -7.2975   -1.0989    9.1421 H   0  0  0  0  0  0
   -6.4701   -0.1961    7.8279 H   0  0  0  0  0  0
   -8.9997   -5.4692    6.7442 H   0  0  0  0  0  0
   -7.4053   -5.0240    4.4103 H   0  0  0  0  0  0
   -7.3537   -7.0393    6.6855 H   0  0  0  0  0  0
   -6.2753   -7.3687    5.2872 H   0  0  0  0  0  0
   -6.2281   -5.0199    7.2055 H   0  0  0  0  0  0
   -4.9524   -6.2394    6.8707 H   0  0  0  0  0  0
   -5.1148   -5.2951    4.3960 H   0  0  0  0  0  0
   -5.8358   -3.8632    5.2061 H   0  0  0  0  0  0
   -3.5687   -3.3375    5.0646 H   0  0  0  0  0  0
   -3.7426   -3.9567    6.7418 H   0  0  0  0  0  0
   -1.7633   -4.8574    5.6526 H   0  0  0  0  0  0
   -2.7847   -5.5294    4.3366 H   0  0  0  0  0  0
   -2.9586   -6.1486    6.0138 H   0  0  0  0  0  0
   -9.7991   -7.6124    5.0579 H   0  0  0  0  0  0
   -8.6868   -9.0256    2.6638 H   0  0  0  0  0  0
  -11.0942   -9.8602    4.4172 H   0  0  0  0  0  0
  -10.1785  -10.9217    3.2941 H   0  0  0  0  0  0
   -9.5443  -10.0283    6.0609 H   0  0  0  0  0  0
   -9.2650  -11.6002    5.2376 H   0  0  0  0  0  0
   -5.8645  -11.2540    3.6048 H   0  0  0  0  0  0
   -7.5093  -11.3265    2.8865 H   0  0  0  0  0  0
   -7.0982  -12.3617    4.2958 H   0  0  0  0  0  0
  -10.4090   -6.4008    2.6814 H   0  0  0  0  0  0
  -13.0011   -7.3069    1.8231 H   0  0  0  0  0  0
  -10.9835   -7.2771   -1.7847 H   0  0  0  0  0  0
  -12.4323   -4.9661    2.6933 H   0  0  0  0  0  0
  -10.4680   -4.5848    1.2462 H   0  0  0  0  0  0
  -11.6853   -3.2730    1.0910 H   0  0  0  0  0  0
  -11.5461   -4.5252   -0.1893 H   0  0  0  0  0  0
  -14.6133   -5.4728    1.6641 H   0  0  0  0  0  0
  -13.9451   -5.0404    0.0538 H   0  0  0  0  0  0
  -14.0843   -3.7882    1.3341 H   0  0  0  0  0  0
  1  2  1  0  0  0
  1150  1  0  0  0
  1151  1  0  0  0
  1152  1  0  0  0
  2  3  1  0  0  0
  2  5  1  0  0  0
  2153  1  0  0  0
  3  4  2  0  0  0
  3 10  1  0  0  0
  5  6  1  0  0  0
  5154  1  0  0  0
  5155  1  0  0  0
  6  7  1  0  0  0
  6156  1  0  0  0
  6157  1  0  0  0
  7  8  1  0  0  0
  7158  1  0  0  0
  7159  1  0  0  0
  8  9  1  0  0  0
  8160  1  0  0  0
  8161  1  0  0  0
  9162  1  0  0  0
  9163  1  0  0  0
  9164  1  0  0  0
 10 11  1  0  0  0
 10165  1  0  0  0
 11 12  1  0  0  0
 11 14  1  0  0  0
 11166  1  0  0  0
 12 13  2  0  0  0
 12 18  1  0  0  0
 14 15  1  0  0  0
 14167  1  0  0  0
 14168  1  0  0  0
 15 16  2  0  0  0
 15 17  1  0  0  0
 17169  1  0  0  0
 17170  1  0  0  0
 18 19  1  0  0  0
 18171  1  0  0  0
 19 20  1  0  0  0
 19 22  1  0  0  0
 19172  1  0  0  0
 20 21  2  0  0  0
 20 26  1  0  0  0
 22 23  1  0  0  0
 22 24  1  0  0  0
 22173  1  0  0  0
 23 25  1  0  0  0
 23174  1  0  0  0
 23175  1  0  0  0
 24176  1  0  0  0
 24177  1  0  0  0
 24178  1  0  0  0
 25179  1  0  0  0
 25180  1  0  0  0
 25181  1  0  0  0
 26 27  1  0  0  0
 26 32  1  0  0  0
 27 28  1  0  0  0
 27 30  1  0  0  0
 27182  1  0  0  0
 28 29  2  0  0  0
 28 33  1  0  0  0
 30 31  1  0  0  0
 30183  1  0  0  0
 30184  1  0  0  0
 31 32  1  0  0  0
 31185  1  0  0  0
 31186  1  0  0  0
 32187  1  0  0  0
 32188  1  0  0  0
 33 34  1  0  0  0
 33189  1  0  0  0
 34 35  1  0  0  0
 34 37  1  0  0  0
 34190  1  0  0  0
 35 36  2  0  0  0
 35 39  1  0  0  0
 37 38  1  0  0  0
 37191  1  0  0  0
 37192  1  0  0  0
 38193  1  0  0  0
 39 40  1  0  0  0
 39194  1  0  0  0
 40 41  1  0  0  0
 40 43  1  0  0  0
 40195  1  0  0  0
 41 42  2  0  0  0
 41 47  1  0  0  0
 43 44  1  0  0  0
 43196  1  0  0  0
 43197  1  0  0  0
 44 45  1  0  0  0
 44 46  1  0  0  0
 44198  1  0  0  0
 45199  1  0  0  0
 45200  1  0  0  0
 45201  1  0  0  0
 46202  1  0  0  0
 46203  1  0  0  0
 46204  1  0  0  0
 47 48  1  0  0  0
 47205  1  0  0  0
 48 49  1  0  0  0
 48 51  1  0  0  0
 48206  1  0  0  0
 49 50  2  0  0  0
 49 55  1  0  0  0
 51 52  1  0  0  0
 51207  1  0  0  0
 51208  1  0  0  0
 52 53  1  0  0  0
 52 54  1  0  0  0
 52209  1  0  0  0
 53210  1  0  0  0
 53211  1  0  0  0
 53212  1  0  0  0
 54213  1  0  0  0
 54214  1  0  0  0
 54215  1  0  0  0
 55 56  1  0  0  0
 55216  1  0  0  0
 56 57  1  0  0  0
 56 59  1  0  0  0
 56217  1  0  0  0
 57 58  2  0  0  0
 57 66  1  0  0  0
 59 60  1  0  0  0
 59218  1  0  0  0
 59219  1  0  0  0
 60 61  1  0  0  0
 60220  1  0  0  0
 60221  1  0  0  0
 61 62  1  0  0  0
 61222  1  0  0  0
 61223  1  0  0  0
 62 63  1  0  0  0
 62224  1  0  0  0
 63 64  1  0  0  0
 63 65  2  0  0  0
 64225  1  0  0  0
 64226  1  0  0  0
 65227  1  0  0  0
 66 67  1  0  0  0
 66228  1  0  0  0
 67 68  1  0  0  0
 67 70  1  0  0  0
 67229  1  0  0  0
 68 69  2  0  0  0
 68 73  1  0  0  0
 70 71  1  0  0  0
 70 72  1  0  0  0
 70230  1  0  0  0
 71231  1  0  0  0
 71232  1  0  0  0
 71233  1  0  0  0
 72234  1  0  0  0
 72235  1  0  0  0
 72236  1  0  0  0
 73 74  1  0  0  0
 73237  1  0  0  0
 74 75  1  0  0  0
 74 77  1  0  0  0
 74238  1  0  0  0
 75 76  2  0  0  0
 75 82  1  0  0  0
 77 78  1  0  0  0
 77239  1  0  0  0
 77240  1  0  0  0
 78 79  1  0  0  0
 78241  1  0  0  0
 78242  1  0  0  0
 79 80  2  0  0  0
 79 81  1  0  0  0
 81243  1  0  0  0
 81244  1  0  0  0
 82 83  1  0  0  0
 82245  1  0  0  0
 83 84  1  0  0  0
 83 86  1  0  0  0
 83246  1  0  0  0
 84 85  2  0  0  0
 84 87  1  0  0  0
 86247  1  0  0  0
 86248  1  0  0  0
 86249  1  0  0  0
 87 88  1  0  0  0
 87250  1  0  0  0
 88 89  1  0  0  0
 88 91  1  0  0  0
 88251  1  0  0  0
 89 90  2  0  0  0
 89 97  1  0  0  0
 91 92  1  0  0  0
 91252  1  0  0  0
 91253  1  0  0  0
 92 93  2  0  0  0
 92 94  1  0  0  0
 93 95  1  0  0  0
 94 96  2  0  0  0
 94254  1  0  0  0
 95 96  1  0  0  0
 95255  1  0  0  0
 97 98  1  0  0  0
 97256  1  0  0  0
 98 99  1  0  0  0
 98101  1  0  0  0
 98257  1  0  0  0
 99100  2  0  0  0
 99105  1  0  0  0
101102  1  0  0  0
101103  1  0  0  0
101258  1  0  0  0
102104  1  0  0  0
102259  1  0  0  0
102260  1  0  0  0
103261  1  0  0  0
103262  1  0  0  0
103263  1  0  0  0
104264  1  0  0  0
104265  1  0  0  0
104266  1  0  0  0
105106  1  0  0  0
105267  1  0  0  0
106107  1  0  0  0
106109  1  0  0  0
106268  1  0  0  0
107108  2  0  0  0
107116  1  0  0  0
109110  1  0  0  0
109269  1  0  0  0
109270  1  0  0  0
110111  1  0  0  0
110271  1  0  0  0
110272  1  0  0  0
111112  1  0  0  0
111273  1  0  0  0
111274  1  0  0  0
112113  1  0  0  0
112275  1  0  0  0
113114  1  0  0  0
113115  2  0  0  0
114276  1  0  0  0
114277  1  0  0  0
115278  1  0  0  0
116117  1  0  0  0
116279  1  0  0  0
117118  1  0  0  0
117120  1  0  0  0
117280  1  0  0  0
118119  2  0  0  0
118125  1  0  0  0
120121  1  0  0  0
120281  1  0  0  0
120282  1  0  0  0
121122  1  0  0  0
121283  1  0  0  0
121284  1  0  0  0
122123  1  0  0  0
122285  1  0  0  0
122286  1  0  0  0
123124  1  0  0  0
123287  1  0  0  0
123288  1  0  0  0
124289  1  0  0  0
124290  1  0  0  0
124291  1  0  0  0
125126  1  0  0  0
125292  1  0  0  0
126127  1  0  0  0
126129  1  0  0  0
126293  1  0  0  0
127128  2  0  0  0
127134  1  0  0  0
129130  1  0  0  0
129294  1  0  0  0
129295  1  0  0  0
130131  1  0  0  0
130296  1  0  0  0
130297  1  0  0  0
131132  1  0  0  0
131298  1  0  0  0
131299  1  0  0  0
132133  1  0  0  0
132300  1  0  0  0
132301  1  0  0  0
133302  1  0  0  0
133303  1  0  0  0
133304  1  0  0  0
134135  1  0  0  0
134305  1  0  0  0
135136  1  0  0  0
135138  1  0  0  0
135306  1  0  0  0
136137  2  0  0  0
136142  1  0  0  0
138139  1  0  0  0
138307  1  0  0  0
138308  1  0  0  0
139140  1  0  0  0
139309  1  0  0  0
139310  1  0  0  0
140141  1  0  0  0
141311  1  0  0  0
141312  1  0  0  0
141313  1  0  0  0
142143  1  0  0  0
142314  1  0  0  0
143144  1  0  0  0
143146  1  0  0  0
143315  1  0  0  0
144145  1  0  0  0
144149  2  0  0  0
145316  1  0  0  0
146147  1  0  0  0
146148  1  0  0  0
146317  1  0  0  0
147318  1  0  0  0
147319  1  0  0  0
147320  1  0  0  0
148321  1  0  0  0
148322  1  0  0  0
148323  1  0  0  0
M  CHG  4   1   1   9   1 124   1 133   1
M  END
> <s_m_source_file>
../4aom_ligand.sdf

> <i_m_source_file_index>
1

> <s_epik_input>
W05IMytdW0NIMl1bQ0gyXVtDSDJdW0NIMl1bQ0BIXShbTkgzK10pQyg9TylbTkhdW0NAQEhdKFtDSDJdQyg9TylbTkgyXSlDKD1PKVtOSF1bQ0BASF0oW0NAQEhdKFtDSDNdKVtDSDJdW0NIM10pQyg9TylOMVtDQEBIXShbQ0gyXVtDSDJdW0NIMl0xKUMoPU8pW05IXVtDQEBIXShbQ0gyXVtPSF0pQyg9TylbTkhdW0NAQEhdKFtDSDJdW0NIXShbQ0gzXSlbQ0gzXSlDKD1PKVtOSF1bQ0BASF0oW0NIMl1bQ0hdKFtDSDNdKVtDSDNdKUMoPU8pW05IXVtDQEBIXShbQ0gyXVtDSDJdW0NIMl1bTkhdL0MoW05IMl0pPU5cW0hdKUMoPU8pW05IXVtDQEBIXShbQ0hdKFtDSDNdKVtDSDNdKUMoPU8pW05IXVtDQEBIXShbQ0gyXVtDSDJdQyg9TylbTkgyXSlDKD1PKVtOSF1bQ0BASF0oW0NIM10pQyg9TylbTkhdW0NAQEhdKFtDSDJdQzI9TltDSDJdTj1bQ0hdMilDKD1PKVtOSF1bQ0BASF0oW0NAQEhdKFtDSDNdKVtDSDJdW0NIM10pQyg9TylbTkhdW0NAQEhdKFtDSDJdW0NIMl1bQ0gyXVtOSF0vQyhbTkgyXSk9TlxbSF0pQyg9TylbTkhdW0NAQEhdKFtDSDJdW0NIMl1bQ0gyXVtDSDJdW05IMytdKUMoPU8pW05IXVtDQEBIXShbQ0gyXVtDSDJdW0NIMl1bQ0gyXVtOSDMrXSlDKD1PKVtOSF1bQ0BASF0oW0NIMl1bQ0gyXVNbQ0gzXSlDKD1PKVtOSF1bQ0BIXShDKD1PKVtPSF0pW0NIXShbQ0gzXSlbQ0gzXQ==

> <s_epik_cmdline>
J2VwaWtfYXBwJywgJy1pbWFlJywgJ2xpZ2FuZF9wcm8ubWFlJywgJy1vbWFlJywgJ2xpZ2FuZF9wcmVwLm1hZScsICctbXMnLCAnMScsICctcGgnLCAnNycsICctcGh0JywgJzAuNScsICctbnQn

> <s_epik_pKa_notes>
Molecule size exceeds maximum supported for generating protonation states

> <s_epik_Chemistry_Notes>
This compound has an imine and may undergo hydrolysis.

$$$$
