4ap0_ligand
                    3D
 Schrodinger Suite 2020-3.
 62 65  0  0  1  0            999 V2000
   11.1670    2.5500   31.3440 C   0  0  0  0  0  0
   12.1990    3.2930   30.7550 C   0  0  0  0  0  0
   12.0670    4.6730   30.5990 C   0  0  0  0  0  0
   13.1960    5.5240   29.9680 C   0  0  0  0  0  0
   10.8970    5.3010   31.0220 C   0  0  0  0  0  0
    9.8700    4.5640   31.6040 C   0  0  0  0  0  0
    9.9940    3.1850   31.7530 C   0  0  0  0  0  0
    8.8530    2.4070   32.4250 C   0  0  0  0  0  0
    8.7690    2.3920   33.6520 O   0  0  0  0  0  0
    7.9890    1.7490   31.6630 N   0  0  0  0  0  0
    6.8710    1.0090   32.2910 C   0  0  0  0  0  0
    8.0360    1.7540   30.1920 C   0  0  2  0  0  0
    6.7340    2.3460   29.6480 C   0  0  0  0  0  0
    6.5130    3.7940   30.1200 C   0  0  0  0  0  0
    6.7400    2.2740   28.1300 C   0  0  0  0  0  0
    8.1480    0.3240   29.6630 C   0  0  0  0  0  0
    7.0810   -0.4940   29.8640 N   0  0  0  0  0  0
    7.0880   -1.7800   29.4280 C   0  0  0  0  0  0
    5.9930   -2.6050   29.6570 C   0  0  0  0  0  0
    5.9940   -3.9240   29.2110 C   0  0  0  0  0  0
    4.6160   -4.9300   29.4970 Cl  0  0  0  0  0  0
    7.0930   -4.4370   28.5290 C   0  0  0  0  0  0
    8.1930   -3.6200   28.2970 C   0  0  0  0  0  0
    8.1900   -2.3030   28.7450 C   0  0  0  0  0  0
    9.2970   -1.4960   28.5160 C   0  0  0  0  0  0
   10.2690   -1.9250   27.9080 O   0  0  0  0  0  0
    9.2890   -0.1800   28.9720 N   0  0  0  0  0  0
   10.4590    0.6520   28.6950 C   0  0  0  0  0  0
   10.1760    1.5640   27.4870 C   0  0  0  0  0  0
   10.4710    2.9280   27.5720 C   0  0  0  0  0  0
   10.2300    3.7610   26.4720 C   0  0  0  0  0  0
    9.6940    3.2260   25.3020 C   0  0  0  0  0  0
    9.4060    1.8660   25.2020 C   0  0  0  0  0  0
    9.6620    1.0340   26.3020 C   0  0  0  0  0  0
   11.2809    1.4749   31.4827 H   0  0  0  0  0  0
   13.1064    2.7918   30.4182 H   0  0  0  0  0  0
   14.0379    4.8711   29.6943 H   0  0  0  0  0  0
   13.5368    6.2771   30.6938 H   0  0  0  0  0  0
   12.8154    6.0284   29.0676 H   0  0  0  0  0  0
   10.7854    6.3779   30.8960 H   0  0  0  0  0  0
    8.9654    5.0679   31.9444 H   0  0  0  0  0  0
    6.9514    1.0828   33.3856 H   0  0  0  0  0  0
    6.9164   -0.0482   31.9905 H   0  0  0  0  0  0
    5.9146    1.4426   31.9635 H   0  0  0  0  0  0
    8.9145    2.3527   29.9094 H   0  0  0  0  0  0
    5.8985    1.7434   30.0338 H   0  0  0  0  0  0
    6.5119    3.8251   31.2196 H   0  0  0  0  0  0
    5.5469    4.1595   29.7419 H   0  0  0  0  0  0
    7.3223    4.4324   29.7359 H   0  0  0  0  0  0
    6.8990    1.2327   27.8130 H   0  0  0  0  0  0
    7.5504    2.9050   27.7362 H   0  0  0  0  0  0
    5.7750    2.6321   27.7421 H   0  0  0  0  0  0
    5.1258   -2.2159   30.1905 H   0  0  0  0  0  0
    7.0912   -5.4696   28.1801 H   0  0  0  0  0  0
    9.0591   -4.0116   27.7634 H   0  0  0  0  0  0
   10.6840    1.2729   29.5747 H   0  0  0  0  0  0
   11.3220    0.0080   28.4703 H   0  0  0  0  0  0
   10.8869    3.3416   28.4907 H   0  0  0  0  0  0
   10.4610    4.8246   26.5309 H   0  0  0  0  0  0
    9.4972    3.8806   24.4530 H   0  0  0  0  0  0
    8.9882    1.4551   24.2829 H   0  0  0  0  0  0
    9.4581   -0.0344   26.2311 H   0  0  0  0  0  0
  1  2  2  0  0  0
  1  7  1  0  0  0
  1 35  1  0  0  0
  2  3  1  0  0  0
  2 36  1  0  0  0
  3  4  1  0  0  0
  3  5  2  0  0  0
  4 37  1  0  0  0
  4 38  1  0  0  0
  4 39  1  0  0  0
  5  6  1  0  0  0
  5 40  1  0  0  0
  6  7  2  0  0  0
  6 41  1  0  0  0
  7  8  1  0  0  0
  8  9  2  0  0  0
  8 10  1  0  0  0
 10 11  1  0  0  0
 10 12  1  0  0  0
 11 42  1  0  0  0
 11 43  1  0  0  0
 11 44  1  0  0  0
 12 13  1  0  0  0
 12 16  1  0  0  0
 12 45  1  0  0  0
 13 14  1  0  0  0
 13 15  1  0  0  0
 13 46  1  0  0  0
 14 47  1  0  0  0
 14 48  1  0  0  0
 14 49  1  0  0  0
 15 50  1  0  0  0
 15 51  1  0  0  0
 15 52  1  0  0  0
 16 17  2  0  0  0
 16 27  1  0  0  0
 17 18  1  0  0  0
 18 19  2  0  0  0
 18 24  1  0  0  0
 19 20  1  0  0  0
 19 53  1  0  0  0
 20 21  1  0  0  0
 20 22  2  0  0  0
 22 23  1  0  0  0
 22 54  1  0  0  0
 23 24  2  0  0  0
 23 55  1  0  0  0
 24 25  1  0  0  0
 25 26  2  0  0  0
 25 27  1  0  0  0
 27 28  1  0  0  0
 28 29  1  0  0  0
 28 56  1  0  0  0
 28 57  1  0  0  0
 29 30  2  0  0  0
 29 34  1  0  0  0
 30 31  1  0  0  0
 30 58  1  0  0  0
 31 32  2  0  0  0
 31 59  1  0  0  0
 32 33  1  0  0  0
 32 60  1  0  0  0
 33 34  2  0  0  0
 33 61  1  0  0  0
 34 62  1  0  0  0
M  END
> <s_m_source_file>
../4ap0_ligand.sdf

> <i_m_source_file_index>
1

> <s_epik_input>
W0NIM11jMVtjSF1bY0hdYyhbY0hdW2NIXTEpQyg9TylOKFtDSDNdKVtDQEhdKFtDSF0oW0NIM10pW0NIM10pYyhuMiluKGMoPU8pYyhjMjMpW2NIXVtjSF1jKENsKVtjSF0zKVtDSDJdYzRbY0hdW2NIXVtjSF1bY0hdW2NIXTQ=

> <s_epik_cmdline>
J2VwaWtfYXBwJywgJy1pbWFlJywgJ2xpZ2FuZF9wcm8ubWFlJywgJy1vbWFlJywgJ2xpZ2FuZF9wcmVwLm1hZScsICctbXMnLCAnMScsICctcGgnLCAnNycsICctcGh0JywgJzAuNScsICctbnQn

> <r_lp_tautomer_probability>
1

> <r_epik_Ionization_Penalty>
  0.0000

> <r_epik_Ionization_Penalty_Charging>
  0.0000

> <r_epik_Ionization_Penalty_Neutral>
  0.0000

> <r_epik_State_Penalty>
 -0.0000

> <r_epik_Charging_Adjusted_Penalty>
7.29393637546307e-10

> <i_epik_Tot_Q>
0

> <i_epik_Tot_abs_Q>
0

$$$$
