4aph_ligand
                    3D
 Schrodinger Suite 2020-3.
111112  0  0  1  0            999 V2000
   13.7480    0.0630   -9.7190 N   0  3  0  0  0  0
   12.9120   -1.1130   -9.3370 C   0  0  2  0  0  0
   13.3730   -2.3650  -10.0700 C   0  0  0  0  0  0
   14.4780   -2.8590   -9.8420 O   0  0  0  0  0  0
   11.4340   -0.8400   -9.6360 C   0  0  0  0  0  0
   12.5160   -2.8730  -10.9500 N   0  0  0  0  0  0
   12.8290   -4.0550  -11.7390 C   0  0  2  0  0  0
   12.7390   -3.7140  -13.2160 C   0  0  0  0  0  0
   11.7750   -3.0870  -13.6560 O   0  0  0  0  0  0
   11.8410   -5.1730  -11.4300 C   0  0  0  0  0  0
   11.1970   -5.0580  -10.0710 C   0  0  0  0  0  0
    9.9050   -5.8470  -10.0310 C   0  0  0  0  0  0
    9.0180   -5.5270  -11.1440 N   0  0  0  0  0  0
    7.7370   -5.8790  -11.1970 C   0  0  0  0  0  0
    7.1950   -6.5490  -10.1910 N   0  3  0  0  0  0
    6.9990   -5.5540  -12.2510 N   0  0  0  0  0  0
   13.7380   -4.1370  -13.9830 N   0  0  0  0  0  0
   13.7590   -3.8630  -15.4100 C   0  0  2  0  0  0
   14.0840   -5.1470  -16.1740 C   0  0  0  0  0  0
   15.0010   -5.8790  -15.8040 O   0  0  0  0  0  0
   14.7680   -2.7540  -15.7440 C   0  0  0  0  0  0
   14.2140   -1.8590  -16.8300 C   0  0  0  0  0  0
   15.0550   -1.9210  -14.5050 C   0  0  0  0  0  0
   13.3320   -5.4090  -17.2400 N   0  0  0  0  0  0
   13.3550   -6.7140  -17.9080 C   0  0  2  0  0  0
   14.1540   -6.7750  -19.2060 C   0  0  0  0  0  0
   15.2450   -6.2200  -19.3030 O   0  0  0  0  0  0
   11.9220   -7.1720  -18.1810 C   0  0  0  0  0  0
   11.1500   -7.4840  -16.9270 C   0  0  0  0  0  0
   11.1900   -8.7520  -16.3690 C   0  0  0  0  0  0
   10.3910   -6.5100  -16.2920 C   0  0  0  0  0  0
   10.4950   -9.0470  -15.2210 C   0  0  0  0  0  0
    9.6870   -6.7980  -15.1350 C   0  0  0  0  0  0
    9.7460   -8.0700  -14.6060 C   0  0  0  0  0  0
    9.0540   -8.3760  -13.4620 O   0  0  0  0  0  0
   13.5970   -7.4910  -20.1840 N   0  0  0  0  0  0
   14.1530   -7.6010  -21.5310 C   0  0  2  0  0  0
   12.9950   -7.7900  -22.4910 C   0  0  0  0  0  0
   11.8450   -7.9050  -22.0660 O   0  0  0  0  0  0
   15.0380   -8.8470  -21.7020 C   0  0  2  0  0  0
   14.2530   -9.9690  -22.3960 C   0  0  0  0  0  0
   15.5420   -9.3240  -20.3780 C   0  0  0  0  0  0
   14.9870  -11.3000  -22.4380 C   0  0  0  0  0  0
   13.3000   -7.8410  -23.7830 N   0  0  0  0  0  0
   12.2640   -7.9880  -24.7940 C   0  0  2  0  0  0
   11.6260   -9.3790  -24.7950 C   0  0  0  0  0  0
   10.5480   -9.5790  -25.3540 O   0  0  0  0  0  0
   12.7960   -7.6090  -26.1820 C   0  0  0  0  0  0
   13.9130   -8.4760  -26.6810 C   0  0  0  0  0  0
   13.8580   -9.1360  -27.8910 N   0  0  0  0  0  0
   15.1190   -8.7790  -26.1430 C   0  0  0  0  0  0
   14.9790   -9.8090  -28.0750 C   0  0  0  0  0  0
   15.7610   -9.6120  -27.0290 N   0  0  0  0  0  0
   12.1600  -10.3290  -24.2190 N   0  0  0  0  0  0
   14.8041   -0.1506   -9.4977 H   0  0  0  0  0  0
   13.4243    0.9445   -9.1462 H   0  0  0  0  0  0
   13.6316    0.2617  -10.7946 H   0  0  0  0  0  0
   13.0504   -1.2636   -8.2562 H   0  0  0  0  0  0
   11.1130    0.0661   -9.1013 H   0  0  0  0  0  0
   10.8284   -1.6960   -9.3033 H   0  0  0  0  0  0
   11.2997   -0.6942  -10.7180 H   0  0  0  0  0  0
   11.5448   -2.3713  -11.0725 H   0  0  0  0  0  0
   13.8508   -4.3525  -11.4606 H   0  0  0  0  0  0
   11.0327   -5.1646  -12.1760 H   0  0  0  0  0  0
   12.3611   -6.1417  -11.4639 H   0  0  0  0  0  0
   11.8819   -5.4529   -9.3061 H   0  0  0  0  0  0
   10.9784   -4.0014   -9.8570 H   0  0  0  0  0  0
   10.1307   -6.9226  -10.0773 H   0  0  0  0  0  0
    9.3685   -5.6249   -9.0968 H   0  0  0  0  0  0
    9.4001   -4.9618  -12.0069 H   0  0  0  0  0  0
    7.8062   -6.8187   -9.3171 H   0  0  0  0  0  0
    7.4485   -4.9976  -13.0867 H   0  0  0  0  0  0
    5.9378   -5.8410  -12.2889 H   0  0  0  0  0  0
   14.5589   -4.7039  -13.5197 H   0  0  0  0  0  0
   12.7462   -3.5167  -15.6638 H   0  0  0  0  0  0
   15.7040   -3.2081  -16.1013 H   0  0  0  0  0  0
   14.0051   -2.4586  -17.7282 H   0  0  0  0  0  0
   14.9502   -1.0787  -17.0731 H   0  0  0  0  0  0
   13.2837   -1.3888  -16.4785 H   0  0  0  0  0  0
   15.4582   -2.5690  -13.7128 H   0  0  0  0  0  0
   14.1240   -1.4507  -14.1556 H   0  0  0  0  0  0
   15.7904   -1.1406  -14.7501 H   0  0  0  0  0  0
   12.6785   -4.6090  -17.6181 H   0  0  0  0  0  0
   13.8842   -7.3471  -17.1806 H   0  0  0  0  0  0
   11.3794   -6.3790  -18.7165 H   0  0  0  0  0  0
   11.9394   -8.0839  -18.7959 H   0  0  0  0  0  0
   11.7837   -9.5295  -16.8497 H   0  0  0  0  0  0
   10.3488   -5.5043  -16.7103 H   0  0  0  0  0  0
   10.5368  -10.0511  -14.7990 H   0  0  0  0  0  0
    9.0917   -6.0264  -14.6469 H   0  0  0  0  0  0
    9.1043   -9.3922  -13.0440 H   0  0  0  0  0  0
   12.6654   -8.0173  -19.9289 H   0  0  0  0  0  0
   14.7309   -6.6773  -21.6816 H   0  0  0  0  0  0
   15.9177   -8.5807  -22.3063 H   0  0  0  0  0  0
   13.3051  -10.1368  -21.8636 H   0  0  0  0  0  0
   14.0430   -9.6802  -23.4364 H   0  0  0  0  0  0
   16.1032   -8.5156  -19.8864 H   0  0  0  0  0  0
   16.2027  -10.1906  -20.5278 H   0  0  0  0  0  0
   14.6909   -9.6167  -19.7455 H   0  0  0  0  0  0
   14.3618  -12.0475  -22.9483 H   0  0  0  0  0  0
   15.1961  -11.6359  -21.4116 H   0  0  0  0  0  0
   15.9340  -11.1794  -22.9844 H   0  0  0  0  0  0
   14.3557   -7.7701  -24.0836 H   0  0  0  0  0  0
   11.4920   -7.2700  -24.4802 H   0  0  0  0  0  0
   12.4245   -6.7797  -26.8018 H   0  0  0  0  0  0
   15.6123   -8.4905  -25.2031 H   0  0  0  0  0  0
   15.2185  -10.4231  -28.9431 H   0  0  0  0  0  0
   13.1240  -10.1907  -23.7076 H   0  0  0  0  0  0
   11.6725  -11.3151  -24.2164 H   0  0  0  0  0  0
   12.9652   -9.0449  -28.5271 H   0  0  0  0  0  0
    6.1337   -6.8357  -10.2295 H   0  0  0  0  0  0
  1  2  1  0  0  0
  1 55  1  0  0  0
  1 56  1  0  0  0
  1 57  1  0  0  0
  2  3  1  0  0  0
  2  5  1  0  0  0
  2 58  1  0  0  0
  3  4  2  0  0  0
  3  6  1  0  0  0
  5 59  1  0  0  0
  5 60  1  0  0  0
  5 61  1  0  0  0
  6  7  1  0  0  0
  6 62  1  0  0  0
  7  8  1  0  0  0
  7 10  1  0  0  0
  7 63  1  0  0  0
  8  9  2  0  0  0
  8 17  1  0  0  0
 10 11  1  0  0  0
 10 64  1  0  0  0
 10 65  1  0  0  0
 11 12  1  0  0  0
 11 66  1  0  0  0
 11 67  1  0  0  0
 12 13  1  0  0  0
 12 68  1  0  0  0
 12 69  1  0  0  0
 13 14  1  0  0  0
 13 70  1  0  0  0
 14 15  2  0  0  0
 14 16  1  0  0  0
 15 71  1  0  0  0
 15111  1  0  0  0
 16 72  1  0  0  0
 16 73  1  0  0  0
 17 18  1  0  0  0
 17 74  1  0  0  0
 18 19  1  0  0  0
 18 21  1  0  0  0
 18 75  1  0  0  0
 19 20  2  0  0  0
 19 24  1  0  0  0
 21 22  1  0  0  0
 21 23  1  0  0  0
 21 76  1  0  0  0
 22 77  1  0  0  0
 22 78  1  0  0  0
 22 79  1  0  0  0
 23 80  1  0  0  0
 23 81  1  0  0  0
 23 82  1  0  0  0
 24 25  1  0  0  0
 24 83  1  0  0  0
 25 26  1  0  0  0
 25 28  1  0  0  0
 25 84  1  0  0  0
 26 27  2  0  0  0
 26 36  1  0  0  0
 28 29  1  0  0  0
 28 85  1  0  0  0
 28 86  1  0  0  0
 29 30  2  0  0  0
 29 31  1  0  0  0
 30 32  1  0  0  0
 30 87  1  0  0  0
 31 33  2  0  0  0
 31 88  1  0  0  0
 32 34  2  0  0  0
 32 89  1  0  0  0
 33 34  1  0  0  0
 33 90  1  0  0  0
 34 35  1  0  0  0
 35 91  1  0  0  0
 36 37  1  0  0  0
 36 92  1  0  0  0
 37 38  1  0  0  0
 37 40  1  0  0  0
 37 93  1  0  0  0
 38 39  2  0  0  0
 38 44  1  0  0  0
 40 41  1  0  0  0
 40 42  1  0  0  0
 40 94  1  0  0  0
 41 43  1  0  0  0
 41 95  1  0  0  0
 41 96  1  0  0  0
 42 97  1  0  0  0
 42 98  1  0  0  0
 42 99  1  0  0  0
 43100  1  0  0  0
 43101  1  0  0  0
 43102  1  0  0  0
 44 45  1  0  0  0
 44103  1  0  0  0
 45 46  1  0  0  0
 45 48  1  0  0  0
 45104  1  0  0  0
 46 47  2  0  0  0
 46 54  1  0  0  0
 48 49  2  0  0  0
 48105  1  0  0  0
 49 50  1  0  0  0
 49 51  1  0  0  0
 50 52  1  0  0  0
 50110  1  0  0  0
 51 53  2  0  0  0
 51106  1  0  0  0
 52 53  1  0  0  0
 52107  1  0  0  0
 54108  1  0  0  0
 54109  1  0  0  0
M  CHG  2   1   1  15   1
M  END
> <s_m_source_file>
../4aph_ligand.sdf

> <i_m_source_file_index>
1

> <s_epik_input>
W0hdL049QyhbTkgyXSlcW05IXVtDSDJdW0NIMl1bQ0gyXVtDQEhdKFtOSF1DKD1PKVtDQEBIXShbTkgzK10pW0NIM10pQyg9TylbTkhdW0NAQEhdKFtDSF0oW0NIM10pW0NIM10pQyg9TylbTkhdW0NAQEhdKFtDSDJdYzFbY0hdW2NIXWMoW09IXSlbY0hdW2NIXTEpQyg9TylbTkhdW0NAQEhdKFtDQEBIXShbQ0gzXSlbQ0gyXVtDSDNdKUMoPU8pW05IXVtDQEhdKEMoPU8pW05IMl0pW0NIMl1DMj1OW0NIMl1OPVtDSF0y

> <s_epik_cmdline>
J2VwaWtfYXBwJywgJy1pbWFlJywgJ2xpZ2FuZF9wcm8ubWFlJywgJy1vbWFlJywgJ2xpZ2FuZF9wcmVwLm1hZScsICctbXMnLCAnMScsICctcGgnLCAnNycsICctcGh0JywgJzAuNScsICctbnQn

> <r_epik_Ionization_Penalty>
  0.1259

> <r_epik_Ionization_Penalty_Charging>
  0.1251

> <r_epik_Ionization_Penalty_Neutral>
  0.0009

> <r_epik_State_Penalty>
  0.1145

> <r_epik_Charging_Adjusted_Penalty>
0.239613621035911

> <i_epik_Tot_Q>
2

> <i_epik_Tot_abs_Q>
2

> <s_epik_Chemistry_Notes>
This compound has an imine and may undergo hydrolysis.

$$$$
