4apo_ligand
                    3D
 Schrodinger Suite 2020-3.
 83 82  0  0  1  0            999 V2000
   22.8960   29.6570   26.3990 N   0  3  0  0  0  0
   24.0010   29.0910   27.1690 C   0  0  2  0  0  0
   24.6680   27.9380   26.4270 C   0  0  0  0  0  0
   24.0200   27.2180   25.6590 O   0  0  0  0  0  0
   23.5200   28.6290   28.5360 C   0  0  0  0  0  0
   25.9630   27.7610   26.6710 N   0  0  0  0  0  0
   26.7240   26.6990   26.0200 C   0  0  2  0  0  0
   26.3270   25.2940   26.4870 C   0  0  0  0  0  0
   26.6120   24.3110   25.8060 O   0  0  0  0  0  0
   28.2330   26.9180   26.1830 C   0  0  0  0  0  0
   28.7950   27.9920   25.2620 C   0  0  0  0  0  0
   28.4110   27.7780   23.7980 C   0  0  0  0  0  0
   28.9650   26.8550   23.1620 O   0  0  0  0  0  0
   27.5560   28.5350   23.2780 O   0  5  0  0  0  0
   25.6660   25.1880   27.6350 N   0  0  0  0  0  0
   25.1900   23.8760   28.0750 C   0  0  2  0  0  0
   23.6820   23.7200   27.8640 C   0  0  0  0  0  0
   23.0560   22.8000   28.3940 O   0  0  0  0  0  0
   25.6050   23.5760   29.5190 C   0  0  0  0  0  0
   24.8430   24.4040   30.5380 C   0  0  0  0  0  0
   24.2810   25.4570   30.1670 O   0  5  0  0  0  0
   24.8110   23.9970   31.7190 O   0  0  0  0  0  0
   23.1070   24.6230   27.0760 N   0  0  0  0  0  0
   21.7180   24.4790   26.6520 C   0  0  2  0  0  0
   21.6870   23.7440   25.3080 C   0  0  0  0  0  0
   22.7260   23.2980   24.7910 O   0  0  0  0  0  0
   21.0490   25.8550   26.5200 C   0  0  0  0  0  0
   19.5560   25.8280   26.8660 C   0  0  0  0  0  0
   18.8270   24.9110   26.4250 O   0  5  0  0  0  0
   19.1080   26.7390   27.5970 O   0  0  0  0  0  0
   20.4950   23.6160   24.7450 N   0  0  0  0  0  0
   20.3440   23.0220   23.4270 C   0  0  2  0  0  0
   19.7800   24.0500   22.4380 C   0  0  0  0  0  0
   19.0670   24.9730   22.8340 O   0  0  0  0  0  0
   19.4650   21.7540   23.4940 C   0  0  0  0  0  0
   20.2320   20.6300   24.1690 C   0  0  0  0  0  0
   18.1540   22.0450   24.2460 C   0  0  0  0  0  0
   20.1250   23.8990   21.1630 N   0  0  0  0  0  0
   19.6490   24.8070   20.1210 C   0  0  2  0  0  0
   18.3150   24.3170   19.5890 C   0  0  0  0  0  0
   18.0190   23.1160   19.6210 O   0  5  0  0  0  0
   20.6390   24.8780   18.9610 C   0  0  0  0  0  0
   22.0340   25.3370   19.3260 C   0  0  0  0  0  0
   22.9740   25.3140   18.1250 C   0  0  0  0  0  0
   23.5410   24.2390   17.8260 O   0  5  0  0  0  0
   23.1430   26.3690   17.4770 O   0  0  0  0  0  0
   17.5140   25.1150   19.1000 O   0  0  0  0  0  0
   23.2643   29.9844   25.4156 H   0  0  0  0  0  0
   22.4764   30.5187   26.9389 H   0  0  0  0  0  0
   22.1154   28.8941   26.2628 H   0  0  0  0  0  0
   24.7220   29.9140   27.2828 H   0  0  0  0  0  0
   23.0415   29.4697   29.0597 H   0  0  0  0  0  0
   24.3774   28.2707   29.1245 H   0  0  0  0  0  0
   22.7933   27.8126   28.4123 H   0  0  0  0  0  0
   26.4601   28.4374   27.3819 H   0  0  0  0  0  0
   26.4346   26.8012   24.9637 H   0  0  0  0  0  0
   28.4493   27.2253   27.2168 H   0  0  0  0  0  0
   28.7656   25.9818   25.9597 H   0  0  0  0  0  0
   28.4113   28.9760   25.5693 H   0  0  0  0  0  0
   29.8932   27.9908   25.3246 H   0  0  0  0  0  0
   25.4759   26.0778   28.2532 H   0  0  0  0  0  0
   25.7042   23.1626   27.4141 H   0  0  0  0  0  0
   25.4169   22.5153   29.7417 H   0  0  0  0  0  0
   26.6760   23.7928   29.6453 H   0  0  0  0  0  0
   23.6966   25.4900   26.7432 H   0  0  0  0  0  0
   21.2068   23.8965   27.4326 H   0  0  0  0  0  0
   21.5379   26.5672   27.2010 H   0  0  0  0  0  0
   21.1464   26.2123   25.4842 H   0  0  0  0  0  0
   19.6095   23.9691   25.2939 H   0  0  0  0  0  0
   21.3614   22.7432   23.1152 H   0  0  0  0  0  0
   19.2137   21.4277   22.4740 H   0  0  0  0  0  0
   21.1638   20.4386   23.6166 H   0  0  0  0  0  0
   19.6161   19.7186   24.1762 H   0  0  0  0  0  0
   20.4715   20.9189   25.2030 H   0  0  0  0  0  0
   17.6152   22.8606   23.7415 H   0  0  0  0  0  0
   18.3827   22.3414   25.2804 H   0  0  0  0  0  0
   17.5273   21.1410   24.2536 H   0  0  0  0  0  0
   20.7885   23.0614   20.9016 H   0  0  0  0  0  0
   19.5511   25.7909   20.6030 H   0  0  0  0  0  0
   20.7475   23.8806   18.5100 H   0  0  0  0  0  0
   20.2670   25.5842   18.2041 H   0  0  0  0  0  0
   21.9923   26.3668   19.7105 H   0  0  0  0  0  0
   22.4478   24.6733   20.0995 H   0  0  0  0  0  0
  1  2  1  0  0  0
  1 48  1  0  0  0
  1 49  1  0  0  0
  1 50  1  0  0  0
  2  3  1  0  0  0
  2  5  1  0  0  0
  2 51  1  0  0  0
  3  4  2  0  0  0
  3  6  1  0  0  0
  5 52  1  0  0  0
  5 53  1  0  0  0
  5 54  1  0  0  0
  6  7  1  0  0  0
  6 55  1  0  0  0
  7  8  1  0  0  0
  7 10  1  0  0  0
  7 56  1  0  0  0
  8  9  2  0  0  0
  8 15  1  0  0  0
 10 11  1  0  0  0
 10 57  1  0  0  0
 10 58  1  0  0  0
 11 12  1  0  0  0
 11 59  1  0  0  0
 11 60  1  0  0  0
 12 13  2  0  0  0
 12 14  1  0  0  0
 15 16  1  0  0  0
 15 61  1  0  0  0
 16 17  1  0  0  0
 16 19  1  0  0  0
 16 62  1  0  0  0
 17 18  2  0  0  0
 17 23  1  0  0  0
 19 20  1  0  0  0
 19 63  1  0  0  0
 19 64  1  0  0  0
 20 21  1  0  0  0
 20 22  2  0  0  0
 23 24  1  0  0  0
 23 65  1  0  0  0
 24 25  1  0  0  0
 24 27  1  0  0  0
 24 66  1  0  0  0
 25 26  2  0  0  0
 25 31  1  0  0  0
 27 28  1  0  0  0
 27 67  1  0  0  0
 27 68  1  0  0  0
 28 29  1  0  0  0
 28 30  2  0  0  0
 31 32  1  0  0  0
 31 69  1  0  0  0
 32 33  1  0  0  0
 32 35  1  0  0  0
 32 70  1  0  0  0
 33 34  2  0  0  0
 33 38  1  0  0  0
 35 36  1  0  0  0
 35 37  1  0  0  0
 35 71  1  0  0  0
 36 72  1  0  0  0
 36 73  1  0  0  0
 36 74  1  0  0  0
 37 75  1  0  0  0
 37 76  1  0  0  0
 37 77  1  0  0  0
 38 39  1  0  0  0
 38 78  1  0  0  0
 39 40  1  0  0  0
 39 42  1  0  0  0
 39 79  1  0  0  0
 40 41  1  0  0  0
 40 47  2  0  0  0
 42 43  1  0  0  0
 42 80  1  0  0  0
 42 81  1  0  0  0
 43 44  1  0  0  0
 43 82  1  0  0  0
 43 83  1  0  0  0
 44 45  1  0  0  0
 44 46  2  0  0  0
M  CHG  6   1   1  14  -1  21  -1  29  -1  41  -1  45  -1
M  END
> <s_m_source_file>
../4apo_ligand.sdf

> <i_m_source_file_index>
1

> <s_epik_input>
W05IMytdW0NAQEhdKFtDSDNdKUMoPU8pW05IXVtDQEBIXShbQ0gyXVtDSDJdQyg9TylbT0hdKUMoPU8pW05IXVtDQEBIXShbQ0gyXUMoPU8pW09IXSlDKD1PKVtOSF1bQ0BASF0oW0NIMl1DKD1PKVtPSF0pQyg9TylbTkhdW0NAQEhdKFtDSF0oW0NIM10pW0NIM10pQyg9TylbTkhdW0NASF0oQyg9TylbT0hdKVtDSDJdW0NIMl1DKD1PKVtPSF0=

> <s_epik_cmdline>
J2VwaWtfYXBwJywgJy1pbWFlJywgJ2xpZ2FuZF9wcm8ubWFlJywgJy1vbWFlJywgJ2xpZ2FuZF9wcmVwLm1hZScsICctbXMnLCAnMScsICctcGgnLCAnNycsICctcGh0JywgJzAuNScsICctbnQn

> <r_epik_Ionization_Penalty>
  0.1261

> <r_epik_Ionization_Penalty_Charging>
  0.1261

> <r_epik_Ionization_Penalty_Neutral>
  0.0000

> <r_epik_State_Penalty>
  0.1077

> <r_epik_Charging_Adjusted_Penalty>
0.233756224216777

> <i_epik_Tot_Q>
-4

> <i_epik_Tot_abs_Q>
6

$$$$
