4app_ligand
                    3D
 Schrodinger Suite 2020-3.
 78 83  0  0  1  0            999 V2000
   43.2970   13.0820   16.4660 C   0  0  0  0  0  0
   42.4090   12.6690   15.4230 C   0  0  0  0  0  0
   42.6410   11.4420   14.7340 C   0  0  0  0  0  0
   43.7540   10.6280   15.1120 C   0  0  0  0  0  0
   44.6330   11.0130   16.1680 C   0  0  0  0  0  0
   44.4010   12.2400   16.8500 C   0  0  0  0  0  0
   43.6170   16.7380   19.8680 C   0  0  0  0  0  0
   43.5660   16.1780   18.5600 C   0  0  0  0  0  0
   43.1560   14.8210   18.3800 C   0  0  0  0  0  0
   42.8140   14.0180   19.5230 C   0  0  0  0  0  0
   42.8880   14.5680   20.8330 C   0  0  0  0  0  0
   43.2960   15.9270   21.0040 C   0  0  0  0  0  0
   47.8650   24.8880   15.2130 C   0  0  0  0  0  0
   47.3020   25.9770   14.4670 C   0  0  0  0  0  0
   48.1540   26.8490   13.7240 C   0  0  0  0  0  0
   49.5650   26.6190   13.7190 C   0  0  0  0  0  0
   50.1350   25.5210   14.4440 C   0  0  0  0  0  0
   49.2770   24.6490   15.1860 C   0  0  0  0  0  0
   44.8420   23.1800   16.8690 N   0  0  0  0  0  0
   45.5400   23.8910   15.7840 C   0  0  2  0  0  0
   45.1970   23.1900   14.4210 C   0  0  0  0  0  0
   43.7370   23.2920   14.2110 N   0  0  2  0  0  0
   43.0240   22.5940   15.3160 C   0  0  0  0  0  0
   43.3730   23.2540   16.6460 C   0  0  0  0  0  0
   44.6610   22.1890   21.4250 C   0  0  0  0  0  0
   44.6420   21.4570   19.2190 C   0  0  0  0  0  0
   44.9480   22.9280   19.2950 N   0  0  0  0  0  0
   45.0810   23.4450   20.6920 C   0  0  0  0  0  0
   44.4170   21.9670   22.7200 N   0  3  0  0  0  0
   44.0530   20.6190   22.8170 N   0  0  0  0  0  0
   44.0800   20.0820   21.5780 C   0  0  0  0  0  0
   46.5210   23.8950   21.0310 C   0  0  0  0  0  0
   44.0830   24.5670   21.0540 C   0  0  0  0  0  0
   45.0730   23.7350   18.2230 C   0  0  0  0  0  0
   45.3930   24.9220   18.3540 O   0  0  0  0  0  0
   43.3480   22.8160   12.8740 C   0  0  0  0  0  0
   47.0550   24.0340   16.1100 C   0  0  0  0  0  0
   43.7260   18.6760   21.2410 N   0  0  0  0  0  0
   44.0210   18.1340   20.0520 C   0  0  0  0  0  0
   44.6070   18.7770   19.1880 O   0  0  0  0  0  0
   43.0400   14.4090   16.9850 O   0  0  0  0  0  0
   44.4610   21.0830   20.6400 C   0  0  0  0  0  0
   41.5555   13.2918   15.1551 H   0  0  0  0  0  0
   41.9773   11.1283   13.9283 H   0  0  0  0  0  0
   43.9350    9.6929   14.5819 H   0  0  0  0  0  0
   45.4713   10.3754   16.4486 H   0  0  0  0  0  0
   45.0594   12.5432   17.6640 H   0  0  0  0  0  0
   43.8396   16.7841   17.6963 H   0  0  0  0  0  0
   42.4970   12.9843   19.3852 H   0  0  0  0  0  0
   42.6354   13.9574   21.6999 H   0  0  0  0  0  0
   43.3634   16.3494   22.0065 H   0  0  0  0  0  0
   46.2240   26.1384   14.4676 H   0  0  0  0  0  0
   47.7318   27.6839   13.1647 H   0  0  0  0  0  0
   50.2165   27.2875   13.1563 H   0  0  0  0  0  0
   51.2118   25.3523   14.4300 H   0  0  0  0  0  0
   49.6976   23.8035   15.7303 H   0  0  0  0  0  0
   45.1553   24.9208   15.7450 H   0  0  0  0  0  0
   45.7349   23.6935   13.6042 H   0  0  0  0  0  0
   45.5021   22.1341   14.4647 H   0  0  0  0  0  0
   41.9385   22.6575   15.1497 H   0  0  0  0  0  0
   43.3300   21.5377   15.3403 H   0  0  0  0  0  0
   42.8516   22.7314   17.4615 H   0  0  0  0  0  0
   43.0579   24.3077   16.6252 H   0  0  0  0  0  0
   43.7318   21.3023   18.6211 H   0  0  0  0  0  0
   45.4848   20.9311   18.7466 H   0  0  0  0  0  0
   47.2267   23.0923   20.7711 H   0  0  0  0  0  0
   46.5934   24.1128   22.1068 H   0  0  0  0  0  0
   46.7672   24.8000   20.4562 H   0  0  0  0  0  0
   43.0609   24.2411   20.8107 H   0  0  0  0  0  0
   44.3256   25.4730   20.4793 H   0  0  0  0  0  0
   44.1518   24.7858   22.1298 H   0  0  0  0  0  0
   43.9102   23.3716   12.1091 H   0  0  0  0  0  0
   42.2700   22.9778   12.7265 H   0  0  0  0  0  0
   43.5730   21.7428   12.7871 H   0  0  0  0  0  0
   47.4544   23.0091   16.0998 H   0  0  0  0  0  0
   47.0974   24.4338   17.1339 H   0  0  0  0  0  0
   43.2058   18.0478   21.9791 H   0  0  0  0  0  0
   44.5246   22.7846   23.4480 H   0  0  0  0  0  0
  1  2  2  0  0  0
  1  6  1  0  0  0
  1 41  1  0  0  0
  2  3  1  0  0  0
  2 43  1  0  0  0
  3  4  2  0  0  0
  3 44  1  0  0  0
  4  5  1  0  0  0
  4 45  1  0  0  0
  5  6  2  0  0  0
  5 46  1  0  0  0
  6 47  1  0  0  0
  7  8  2  0  0  0
  7 12  1  0  0  0
  7 39  1  0  0  0
  8  9  1  0  0  0
  8 48  1  0  0  0
  9 10  2  0  0  0
  9 41  1  0  0  0
 10 11  1  0  0  0
 10 49  1  0  0  0
 11 12  2  0  0  0
 11 50  1  0  0  0
 12 51  1  0  0  0
 13 14  2  0  0  0
 13 18  1  0  0  0
 13 37  1  0  0  0
 14 15  1  0  0  0
 14 52  1  0  0  0
 15 16  2  0  0  0
 15 53  1  0  0  0
 16 17  1  0  0  0
 16 54  1  0  0  0
 17 18  2  0  0  0
 17 55  1  0  0  0
 18 56  1  0  0  0
 19 20  1  0  0  0
 19 24  1  0  0  0
 19 34  1  0  0  0
 20 21  1  0  0  0
 20 37  1  0  0  0
 20 57  1  0  0  0
 21 22  1  0  0  0
 21 58  1  0  0  0
 21 59  1  0  0  0
 22 23  1  0  0  0
 22 36  1  0  0  0
 23 24  1  0  0  0
 23 60  1  0  0  0
 23 61  1  0  0  0
 24 62  1  0  0  0
 24 63  1  0  0  0
 25 28  1  0  0  0
 25 29  2  0  0  0
 25 42  1  0  0  0
 26 27  1  0  0  0
 26 42  1  0  0  0
 26 64  1  0  0  0
 26 65  1  0  0  0
 27 28  1  0  0  0
 27 34  1  0  0  0
 28 32  1  0  0  0
 28 33  1  0  0  0
 29 30  1  0  0  0
 29 78  1  0  0  0
 30 31  1  0  0  0
 31 38  1  0  0  0
 31 42  2  0  0  0
 32 66  1  0  0  0
 32 67  1  0  0  0
 32 68  1  0  0  0
 33 69  1  0  0  0
 33 70  1  0  0  0
 33 71  1  0  0  0
 34 35  2  0  0  0
 36 72  1  0  0  0
 36 73  1  0  0  0
 36 74  1  0  0  0
 37 75  1  0  0  0
 37 76  1  0  0  0
 38 39  1  0  0  0
 38 77  1  0  0  0
 39 40  2  0  0  0
M  CHG  1  29   1
M  END
> <s_m_source_file>
../4app_ligand.sdf

> <i_m_source_file_index>
1

> <s_epik_input>
W2NIXTFbY0hdW2NIXVtjSF1bY0hdYzFPYyhbY0hdW2NIXVtjSF0yKVtjSF1jMkMoPU8pW05IXWMoW25IXW4zKWMoYzM0KVtDSDJdTihDNChbQ0gzXSlbQ0gzXSlDKD1PKU41W0NASF0oW0NIMl1bTkBASCtdKFtDSDNdKVtDSDJdW0NIMl01KVtDSDJdYzZbY0hdW2NIXVtjSF1bY0hdW2NIXTY=

> <s_epik_cmdline>
J2VwaWtfYXBwJywgJy1pbWFlJywgJ2xpZ2FuZF9wcm8ubWFlJywgJy1vbWFlJywgJ2xpZ2FuZF9wcmVwLm1hZScsICctbXMnLCAnMScsICctcGgnLCAnNycsICctcGh0JywgJzAuNScsICctbnQn

> <r_epik_Ionization_Penalty>
  0.2769

> <r_epik_Ionization_Penalty_Charging>
  0.0000

> <r_epik_Ionization_Penalty_Neutral>
  0.2769

> <r_epik_State_Penalty>
  0.2692

> <r_epik_Charging_Adjusted_Penalty>
0.269162436397043

> <i_epik_Tot_Q>
1

> <i_epik_Tot_abs_Q>
1

$$$$
