4apr_ligand
                    3D
 Schrodinger Suite 2020-3.
 99101  0  0  1  0            999 V2000
   36.9510   72.2800  101.7050 N   0  3  0  0  0  0
   37.3920   71.0320  101.0490 C   0  0  2  0  0  0
   38.5910   70.4070  101.7510 C   0  0  0  0  0  0
   39.5280   71.1150  102.2000 O   0  0  0  0  0  0
   37.6970   71.4280   99.6020 C   0  0  0  0  0  0
   38.0230   72.8840   99.6630 C   0  0  0  0  0  0
   37.2270   73.4320  100.8490 C   0  0  0  0  0  0
   38.6040   69.0850  101.8220 N   0  0  0  0  0  0
   39.7190   68.3490  102.4750 C   0  0  2  0  0  0
   40.6060   67.7520  101.3930 C   0  0  0  0  0  0
   40.1490   67.6740  100.2360 O   0  0  0  0  0  0
   39.0810   67.3360  103.4210 C   0  0  0  0  0  0
   38.4240   67.8660  104.6520 C   0  0  0  0  0  0
   38.6590   67.2000  105.8600 C   0  0  0  0  0  0
   37.6110   68.9850  104.7100 C   0  0  0  0  0  0
   38.1150   67.6310  107.0620 C   0  0  0  0  0  0
   37.0350   69.4410  105.8940 C   0  0  0  0  0  0
   37.2790   68.7510  107.0900 C   0  0  0  0  0  0
   41.8070   67.3510  101.7190 N   0  0  0  0  0  0
   42.7740   66.7050  100.7910 C   0  0  2  0  0  0
   43.6640   65.9140  101.7730 C   0  0  0  0  0  0
   44.7060   66.3910  102.2220 O   0  0  0  0  0  0
   43.5410   67.5610   99.7990 C   0  0  0  0  0  0
   44.5530   66.8700   98.9400 C   0  0  0  0  0  0
   44.5080   65.5460   98.5790 N   0  3  0  0  0  0
   45.6800   67.3470   98.3450 C   0  0  0  0  0  0
   45.5470   65.2180   97.8190 C   0  0  0  0  0  0
   46.2630   66.3070   97.6560 N   0  0  0  0  0  0
   43.1470   64.7610  102.0880 N   0  0  0  0  0  0
   43.5790   63.7370  103.0370 C   0  0  1  0  0  0
   42.4700   63.7080  104.0560 C   0  0  0  0  0  0
   42.5510   64.3940  105.4170 C   0  0  0  0  0  0
   43.3140   65.7350  105.4240 C   0  0  0  0  0  0
   41.0970   64.7170  105.8950 C   0  0  0  0  0  0
   44.0000   62.4350  102.3550 C   0  0  1  0  0  0
   42.8490   61.7000  101.9220 O   0  0  0  0  0  0
   44.9070   62.6430  101.1580 C   0  0  0  0  0  0
   46.2820   63.1000  101.6630 C   0  0  0  0  0  0
   46.3700   64.0540  102.3940 O   0  0  0  0  0  0
   47.1800   62.1510  101.5030 N   0  0  0  0  0  0
   48.6240   62.2560  101.4150 C   0  0  2  0  0  0
   49.1180   63.0180  100.1640 C   0  0  0  0  0  0
   50.3280   63.3630  100.2430 O   0  0  0  0  0  0
   49.2340   60.8460  101.4980 C   0  0  0  0  0  0
   49.3060   60.0850  102.8000 C   0  0  0  0  0  0
   50.4320   59.0470  102.6870 C   0  0  0  0  0  0
   49.6190   61.0120  103.9770 C   0  0  0  0  0  0
   35.8695   72.2297  101.8993 H   0  0  0  0  0  0
   37.4891   72.4041  102.6563 H   0  0  0  0  0  0
   36.5994   70.2722  101.1154 H   0  0  0  0  0  0
   38.5467   70.8360   99.2312 H   0  0  0  0  0  0
   36.8141   71.2347   98.9750 H   0  0  0  0  0  0
   39.1053   73.0114   99.8124 H   0  0  0  0  0  0
   37.7236   73.3666   98.7209 H   0  0  0  0  0  0
   36.2778   73.8808  100.5210 H   0  0  0  0  0  0
   37.8091   74.1762  101.4122 H   0  0  0  0  0  0
   37.7619   68.5304  101.3824 H   0  0  0  0  0  0
   40.3707   69.0068  103.0688 H   0  0  0  0  0  0
   38.2961   66.7798  102.8875 H   0  0  0  0  0  0
   39.8488   66.6343  103.7789 H   0  0  0  0  0  0
   39.2911   66.3120  105.8569 H   0  0  0  0  0  0
   37.4128   69.5334  103.7891 H   0  0  0  0  0  0
   38.3398   67.0959  107.9846 H   0  0  0  0  0  0
   36.3999   70.3269  105.8905 H   0  0  0  0  0  0
   36.8252   69.0818  108.0242 H   0  0  0  0  0  0
   42.0840   67.5232  102.7695 H   0  0  0  0  0  0
   42.2121   66.1260  100.0434 H   0  0  0  0  0  0
   42.8353   68.0335   99.0999 H   0  0  0  0  0  0
   44.0977   68.3401  100.3405 H   0  0  0  0  0  0
   46.0542   68.3691   98.4033 H   0  0  0  0  0  0
   45.7642   64.2319   97.4084 H   0  0  0  0  0  0
   42.2335   64.6101  101.4940 H   0  0  0  0  0  0
   44.5175   63.9943  103.5498 H   0  0  0  0  0  0
   41.5650   64.1619  103.6260 H   0  0  0  0  0  0
   42.2588   62.6661  104.3386 H   0  0  0  0  0  0
   43.1085   63.6877  106.0497 H   0  0  0  0  0  0
   44.3502   65.5690  105.0943 H   0  0  0  0  0  0
   43.3154   66.1507  106.4424 H   0  0  0  0  0  0
   42.8204   66.4413  104.7403 H   0  0  0  0  0  0
   40.5020   63.7919  105.9101 H   0  0  0  0  0  0
   40.6358   65.4384  105.2044 H   0  0  0  0  0  0
   41.1308   65.1478  106.9066 H   0  0  0  0  0  0
   44.5250   61.8232  103.1034 H   0  0  0  0  0  0
   42.0589   61.4410  102.6422 H   0  0  0  0  0  0
   45.0055   61.6978  100.6040 H   0  0  0  0  0  0
   44.4747   63.4107  100.4994 H   0  0  0  0  0  0
   46.6949   61.1661  101.4340 H   0  0  0  0  0  0
   48.8990   62.8651  102.2887 H   0  0  0  0  0  0
   48.5326   63.2669   99.2666 H   0  0  0  0  0  0
   48.6712   60.1639  100.8438 H   0  0  0  0  0  0
   50.2846   60.8813  101.1739 H   0  0  0  0  0  0
   48.3246   59.6184  102.9709 H   0  0  0  0  0  0
   50.2240   58.3706  101.8448 H   0  0  0  0  0  0
   50.4894   58.4654  103.6189 H   0  0  0  0  0  0
   51.3892   59.5615  102.5163 H   0  0  0  0  0  0
   48.8218   61.7637  104.0737 H   0  0  0  0  0  0
   50.5800   61.5173  103.8003 H   0  0  0  0  0  0
   49.6802   60.4212  104.9028 H   0  0  0  0  0  0
   43.6782   64.9104   98.9217 H   0  0  0  0  0  0
  1  2  1  0  0  0
  1  7  1  0  0  0
  1 48  1  0  0  0
  1 49  1  0  0  0
  2  5  1  0  0  0
  2  3  1  0  0  0
  2 50  1  0  0  0
  3  4  2  0  0  0
  3  8  1  0  0  0
  5  6  1  0  0  0
  5 51  1  0  0  0
  5 52  1  0  0  0
  6  7  1  0  0  0
  6 53  1  0  0  0
  6 54  1  0  0  0
  7 55  1  0  0  0
  7 56  1  0  0  0
  8  9  1  0  0  0
  8 57  1  0  0  0
  9 10  1  0  0  0
  9 12  1  0  0  0
  9 58  1  0  0  0
 10 11  2  0  0  0
 10 19  1  0  0  0
 12 13  1  0  0  0
 12 59  1  0  0  0
 12 60  1  0  0  0
 13 15  2  0  0  0
 13 14  1  0  0  0
 14 16  2  0  0  0
 14 61  1  0  0  0
 15 17  1  0  0  0
 15 62  1  0  0  0
 16 18  1  0  0  0
 16 63  1  0  0  0
 17 18  2  0  0  0
 17 64  1  0  0  0
 18 65  1  0  0  0
 19 20  1  0  0  0
 19 66  1  0  0  0
 20 21  1  0  0  0
 20 23  1  0  0  0
 20 67  1  0  0  0
 21 22  2  0  0  0
 21 29  1  0  0  0
 23 24  1  0  0  0
 23 68  1  0  0  0
 23 69  1  0  0  0
 24 26  2  0  0  0
 24 25  1  0  0  0
 25 27  2  0  0  0
 25 99  1  0  0  0
 26 28  1  0  0  0
 26 70  1  0  0  0
 27 28  1  0  0  0
 27 71  1  0  0  0
 29 30  1  0  0  0
 29 72  1  0  0  0
 30 35  1  0  0  0
 30 31  1  0  0  0
 30 73  1  0  0  0
 31 32  1  0  0  0
 31 74  1  0  0  0
 31 75  1  0  0  0
 32 34  1  0  0  0
 32 33  1  0  0  0
 32 76  1  0  0  0
 33 77  1  0  0  0
 33 78  1  0  0  0
 33 79  1  0  0  0
 34 80  1  0  0  0
 34 81  1  0  0  0
 34 82  1  0  0  0
 35 37  1  0  0  0
 35 36  1  0  0  0
 35 83  1  0  0  0
 36 84  1  0  0  0
 37 38  1  0  0  0
 37 85  1  0  0  0
 37 86  1  0  0  0
 38 39  2  0  0  0
 38 40  1  0  0  0
 40 41  1  0  0  0
 40 87  1  0  0  0
 41 42  1  0  0  0
 41 44  1  0  0  0
 41 88  1  0  0  0
 42 43  2  0  0  0
 42 89  1  0  0  0
 44 45  1  0  0  0
 44 90  1  0  0  0
 44 91  1  0  0  0
 45 47  1  0  0  0
 45 46  1  0  0  0
 45 92  1  0  0  0
 46 93  1  0  0  0
 46 94  1  0  0  0
 46 95  1  0  0  0
 47 96  1  0  0  0
 47 97  1  0  0  0
 47 98  1  0  0  0
M  CHG  2   1   1  25   1
M  END
> <s_m_source_file>
../4apr_ligand.sdf

> <i_m_source_file_index>
1

> <s_epik_input>
W0NIMl0xW0NIMl1bQ0gyXVtOSDIrXVtDQEBIXTFDKD1PKVtOSF1bQ0BASF0oW0NIMl1jMltjSF1bY0hdW2NIXVtjSF1bY0hdMilDKD1PKVtOSF1bQ0BASF0oW0NIMl1jM25bY0hdW25IXVtjSF0zKUMoPU8pW05IXVtDQEBIXShbQ0gyXVtDSF0oW0NIM10pW0NIM10pW0NAQEhdKFtPSF0pW0NIMl1DKD1PKVtOSF1bQ0BIXShbQ0hdPU8pW0NIMl1bQ0hdKFtDSDNdKVtDSDNd

> <s_epik_cmdline>
J2VwaWtfYXBwJywgJy1pbWFlJywgJ2xpZ2FuZF9wcm8ubWFlJywgJy1vbWFlJywgJ2xpZ2FuZF9wcmVwLm1hZScsICctbXMnLCAnMScsICctcGgnLCAnNycsICctcGh0JywgJzAuNScsICctbnQn

> <r_epik_Ionization_Penalty>
  0.6051

> <r_epik_Ionization_Penalty_Charging>
  0.0428

> <r_epik_Ionization_Penalty_Neutral>
  0.5623

> <r_epik_State_Penalty>
  0.0002

> <r_epik_Charging_Adjusted_Penalty>
0.0429915721176903

> <i_epik_Tot_Q>
2

> <i_epik_Tot_abs_Q>
2

$$$$
