4aq6_ligand
                    3D
 Schrodinger Suite 2020-3.
 19 19  0  0  1  0            999 V2000
   17.5990   42.2440    0.3040 C   0  0  0  0  0  0
   16.6750   42.3480   -0.8720 C   0  0  0  0  0  0
   17.3800   42.6010   -2.1560 C   0  0  0  0  0  0
   17.6300   41.5670   -3.0450 C   0  0  0  0  0  0
   18.2920   41.8390   -4.2390 C   0  0  0  0  0  0
   18.5860   40.8510   -5.1460 O   0  0  0  0  0  0
   18.6890   43.1340   -4.5390 C   0  0  0  0  0  0
   18.4250   44.1590   -3.6480 C   0  0  0  0  0  0
   17.7780   43.8960   -2.4500 C   0  0  0  0  0  0
   17.5210   44.9320   -1.5620 O   0  0  0  0  0  0
   17.3150   42.8800    1.3550 O   0  0  0  0  0  0
   18.6300   41.5150    0.2630 O   0  5  0  0  0  0
   16.1148   41.4078   -0.9824 H   0  0  0  0  0  0
   15.9707   43.1779   -0.7127 H   0  0  0  0  0  0
   17.3114   40.5511   -2.8114 H   0  0  0  0  0  0
   18.2875   39.8118   -4.9434 H   0  0  0  0  0  0
   19.2077   43.3435   -5.4745 H   0  0  0  0  0  0
   18.7271   45.1782   -3.8889 H   0  0  0  0  0  0
   17.0080   44.7266   -0.6109 H   0  0  0  0  0  0
  1  2  1  0  0  0
  1 11  2  0  0  0
  1 12  1  0  0  0
  2  3  1  0  0  0
  2 13  1  0  0  0
  2 14  1  0  0  0
  3  4  2  0  0  0
  3  9  1  0  0  0
  4  5  1  0  0  0
  4 15  1  0  0  0
  5  6  1  0  0  0
  5  7  2  0  0  0
  6 16  1  0  0  0
  7  8  1  0  0  0
  7 17  1  0  0  0
  8  9  2  0  0  0
  8 18  1  0  0  0
  9 10  1  0  0  0
 10 19  1  0  0  0
M  CHG  1  12  -1
M  END
> <s_m_source_file>
../4aq6_ligand.sdf

> <i_m_source_file_index>
1

> <s_epik_input>
Tz1DKFtPSF0pW0NIMl1jMVtjSF1jKFtPSF0pW2NIXVtjSF1jMVtPSF0=

> <s_epik_cmdline>
J2VwaWtfYXBwJywgJy1pbWFlJywgJ2xpZ2FuZF9wcm8ubWFlJywgJy1vbWFlJywgJ2xpZ2FuZF9wcmVwLm1hZScsICctbXMnLCAnMScsICctcGgnLCAnNycsICctcGh0JywgJzAuNScsICctbnQn

> <r_lp_tautomer_probability>
1

> <r_epik_Ionization_Penalty>
  0.0018

> <r_epik_Ionization_Penalty_Charging>
  0.0015

> <r_epik_Ionization_Penalty_Neutral>
  0.0003

> <r_epik_State_Penalty>
 -0.0000

> <r_epik_Charging_Adjusted_Penalty>
0.00154670061536679

> <i_epik_Tot_Q>
-1

> <i_epik_Tot_abs_Q>
1

$$$$
