4aqc_ligand
                    3D
 Schrodinger Suite 2020-3.
 55 59  0  0  1  0            999 V2000
  110.3650   62.6770    8.3940 O   0  0  0  0  0  0
  111.1590   62.7640    7.1560 S   0  0  0  0  0  0
  111.4280   61.6220    6.2860 O   0  0  0  0  0  0
  110.2570   63.9630    6.1310 C   0  0  0  0  0  0
  112.6780   63.5930    7.4960 C   0  0  0  0  0  0
  113.0510   63.8360    8.8120 C   0  0  0  0  0  0
  114.2650   64.4980    9.0330 C   0  0  0  0  0  0
  113.4510   63.9860    6.4020 C   0  0  0  0  0  0
  114.6390   64.6630    6.6400 C   0  0  0  0  0  0
  115.0720   64.8990    7.9580 C   0  0  0  0  0  0
  116.3580   65.6140    8.1700 C   0  0  0  0  0  0
  116.5600   66.3780    9.3460 C   0  0  0  0  0  0
  115.8510   66.6090   10.4290 N   0  0  0  0  0  0
  116.6160   67.4320   11.1610 C   0  0  0  0  0  0
  117.7950   67.7300   10.6780 N   0  0  0  0  0  0
  117.7650   67.0780    9.4870 N   0  0  0  0  0  0
  118.7230   67.0660    8.5370 C   0  0  0  0  0  0
  118.5420   66.3330    7.4020 C   0  0  0  0  0  0
  117.3600   65.5880    7.2090 C   0  0  0  0  0  0
  116.1790   67.8910   12.3870 N   0  0  0  0  0  0
  115.1190   67.6440   13.1390 C   0  0  0  0  0  0
  114.0090   66.9130   12.6520 C   0  0  0  0  0  0
  112.9250   66.6520   13.4840 C   0  0  0  0  0  0
  112.8940   67.1210   14.8050 C   0  0  0  0  0  0
  113.9930   67.8720   15.2790 C   0  0  0  0  0  0
  115.0950   68.1100   14.4530 C   0  0  0  0  0  0
  111.8360   66.8500   15.5890 N   0  0  0  0  0  0
  111.0580   65.5960   15.4290 C   0  0  0  0  0  0
  110.2900   65.0560   16.6590 C   0  0  0  0  0  0
  109.9730   66.0590   17.6290 O   0  0  0  0  0  0
  111.0760   66.9190   17.9140 C   0  0  0  0  0  0
  111.3740   67.7450   16.6620 C   0  0  0  0  0  0
  109.2775   63.5456    5.8547 H   0  0  0  0  0  0
  110.8355   64.1749    5.2197 H   0  0  0  0  0  0
  110.1120   64.8943    6.6981 H   0  0  0  0  0  0
  112.4204   63.5222    9.6438 H   0  0  0  0  0  0
  114.5871   64.7044   10.0537 H   0  0  0  0  0  0
  113.1289   63.7662    5.3841 H   0  0  0  0  0  0
  115.2401   65.0139    5.8012 H   0  0  0  0  0  0
  119.6387   67.6405    8.6766 H   0  0  0  0  0  0
  119.3179   66.3225    6.6365 H   0  0  0  0  0  0
  117.2331   64.9918    6.3054 H   0  0  0  0  0  0
  116.7759   68.6294   12.9424 H   0  0  0  0  0  0
  114.0036   66.5538   11.6229 H   0  0  0  0  0  0
  112.0846   66.0724   13.1020 H   0  0  0  0  0  0
  113.9813   68.2679   16.2945 H   0  0  0  0  0  0
  115.9474   68.6675   14.8413 H   0  0  0  0  0  0
  110.2916   65.7366   14.6526 H   0  0  0  0  0  0
  111.7341   64.7802   15.1334 H   0  0  0  0  0  0
  109.3404   64.6081   16.3307 H   0  0  0  0  0  0
  110.8993   64.2932   17.1658 H   0  0  0  0  0  0
  110.8164   67.5828   18.7518 H   0  0  0  0  0  0
  111.9532   66.3129   18.1846 H   0  0  0  0  0  0
  112.1574   68.4841   16.8857 H   0  0  0  0  0  0
  110.4608   68.2654   16.3376 H   0  0  0  0  0  0
  1  2  2  0  0  0
  2  3  2  0  0  0
  2  4  1  0  0  0
  2  5  1  0  0  0
  4 33  1  0  0  0
  4 34  1  0  0  0
  4 35  1  0  0  0
  5  6  2  0  0  0
  5  8  1  0  0  0
  6  7  1  0  0  0
  6 36  1  0  0  0
  7 10  2  0  0  0
  7 37  1  0  0  0
  8  9  2  0  0  0
  8 38  1  0  0  0
  9 10  1  0  0  0
  9 39  1  0  0  0
 10 11  1  0  0  0
 11 12  1  0  0  0
 11 19  2  0  0  0
 12 13  2  0  0  0
 12 16  1  0  0  0
 13 14  1  0  0  0
 14 15  2  0  0  0
 14 20  1  0  0  0
 15 16  1  0  0  0
 16 17  1  0  0  0
 17 18  2  0  0  0
 17 40  1  0  0  0
 18 19  1  0  0  0
 18 41  1  0  0  0
 19 42  1  0  0  0
 20 21  1  0  0  0
 20 43  1  0  0  0
 21 22  2  0  0  0
 21 26  1  0  0  0
 22 23  1  0  0  0
 22 44  1  0  0  0
 23 24  2  0  0  0
 23 45  1  0  0  0
 24 25  1  0  0  0
 24 27  1  0  0  0
 25 26  2  0  0  0
 25 46  1  0  0  0
 26 47  1  0  0  0
 27 28  1  0  0  0
 27 32  1  0  0  0
 28 29  1  0  0  0
 28 48  1  0  0  0
 28 49  1  0  0  0
 29 30  1  0  0  0
 29 50  1  0  0  0
 29 51  1  0  0  0
 30 31  1  0  0  0
 31 32  1  0  0  0
 31 52  1  0  0  0
 31 53  1  0  0  0
 32 54  1  0  0  0
 32 55  1  0  0  0
M  END
> <s_m_source_file>
../4aqc_ligand.sdf

> <i_m_source_file_index>
1

> <s_epik_input>
Tz1TKD1PKShbQ0gzXSljMVtjSF1bY0hdYyhbY0hdW2NIXTEpLWMyW2NIXVtjSF1bY0hdbihjMjMpbmMobjMpW05IXWM0W2NIXVtjSF1jKFtjSF1bY0hdNClONVtDSDJdW0NIMl1PW0NIMl1bQ0gyXTU=

> <s_epik_cmdline>
J2VwaWtfYXBwJywgJy1pbWFlJywgJ2xpZ2FuZF9wcm8ubWFlJywgJy1vbWFlJywgJ2xpZ2FuZF9wcmVwLm1hZScsICctbXMnLCAnMScsICctcGgnLCAnNycsICctcGh0JywgJzAuNScsICctbnQn

> <r_lp_tautomer_probability>
1

> <r_epik_Ionization_Penalty>
  0.0025

> <r_epik_Ionization_Penalty_Charging>
  0.0000

> <r_epik_Ionization_Penalty_Neutral>
  0.0025

> <r_epik_State_Penalty>
 -0.0000

> <r_epik_Charging_Adjusted_Penalty>
0

> <i_epik_Tot_Q>
0

> <i_epik_Tot_abs_Q>
0

$$$$
