4aqh_ligand
                    3D
 Schrodinger Suite 2020-3.
 42 44  0  0  1  0            999 V2000
  -22.2440    3.8840   -0.6640 C   0  0  0  0  0  0
  -23.2800    4.6880    0.0890 C   0  0  0  0  0  0
  -23.2910    6.0440   -0.5640 C   0  0  0  0  0  0
  -22.9250    4.8290    1.5800 C   0  0  0  0  0  0
  -24.6270    4.2200   -0.1180 O   0  0  0  0  0  0
  -24.8710    2.8680   -0.0510 C   0  0  0  0  0  0
  -24.0780    2.0570    0.3970 O   0  0  0  0  0  0
  -26.1380    2.5400   -0.5080 N   0  0  0  0  0  0
  -26.9650    1.4830    0.1120 C   0  0  0  0  0  0
  -28.2020    2.2660   -0.3410 C   0  0  0  0  0  0
  -27.2950    3.4680   -0.6070 C   0  0  0  0  0  0
  -29.1470    2.5150    0.6910 N   0  0  0  0  0  0
  -30.2460    1.6760    0.7910 C   0  0  0  0  0  0
  -31.0860    2.0530    1.8020 N   0  0  0  0  0  0
  -32.2570    1.4190    2.1630 C   0  0  0  0  0  0
  -32.9960    1.7630    3.0890 O   0  0  0  0  0  0
  -32.5650    0.2460    1.3290 C   0  0  0  0  0  0
  -33.7030   -0.4920    1.5670 C   0  0  0  0  0  0
  -33.9590   -1.5860    0.7540 C   0  0  0  0  0  0
  -33.0480   -1.8640   -0.2510 C   0  0  0  0  0  0
  -31.9310   -1.1450   -0.4890 N   0  0  0  0  0  0
  -31.7050   -0.0950    0.3120 C   0  0  0  0  0  0
  -30.5350    0.6490    0.0500 N   0  0  0  0  0  0
  -21.2435    4.2939   -0.4614 H   0  0  0  0  0  0
  -22.4510    3.9383   -1.7430 H   0  0  0  0  0  0
  -22.2840    2.8350   -0.3353 H   0  0  0  0  0  0
  -22.2973    6.5057   -0.4671 H   0  0  0  0  0  0
  -24.0410    6.6814   -0.0728 H   0  0  0  0  0  0
  -23.5428    5.9359   -1.6293 H   0  0  0  0  0  0
  -21.8898    5.1879    1.6781 H   0  0  0  0  0  0
  -23.0224    3.8511    2.0742 H   0  0  0  0  0  0
  -23.6091    5.5488    2.0533 H   0  0  0  0  0  0
  -26.7429    0.5168   -0.3647 H   0  0  0  0  0  0
  -26.7377    1.4226    1.1866 H   0  0  0  0  0  0
  -28.9205    1.8657   -1.0715 H   0  0  0  0  0  0
  -27.2056    4.2489    0.1625 H   0  0  0  0  0  0
  -27.3067    3.9345   -1.6031 H   0  0  0  0  0  0
  -28.9957    3.3556    1.3841 H   0  0  0  0  0  0
  -34.3850   -0.2232    2.3736 H   0  0  0  0  0  0
  -34.8447   -2.2042    0.9007 H   0  0  0  0  0  0
  -33.2465   -2.7218   -0.8935 H   0  0  0  0  0  0
  -30.8497    2.9369    2.4126 H   0  0  0  0  0  0
  1  2  1  0  0  0
  1 24  1  0  0  0
  1 25  1  0  0  0
  1 26  1  0  0  0
  2  3  1  0  0  0
  2  4  1  0  0  0
  2  5  1  0  0  0
  3 27  1  0  0  0
  3 28  1  0  0  0
  3 29  1  0  0  0
  4 30  1  0  0  0
  4 31  1  0  0  0
  4 32  1  0  0  0
  5  6  1  0  0  0
  6  7  2  0  0  0
  6  8  1  0  0  0
  8  9  1  0  0  0
  8 11  1  0  0  0
  9 10  1  0  0  0
  9 33  1  0  0  0
  9 34  1  0  0  0
 10 11  1  0  0  0
 10 12  1  0  0  0
 10 35  1  0  0  0
 11 36  1  0  0  0
 11 37  1  0  0  0
 12 13  1  0  0  0
 12 38  1  0  0  0
 13 14  1  0  0  0
 13 23  2  0  0  0
 14 15  1  0  0  0
 14 42  1  0  0  0
 15 16  2  0  0  0
 15 17  1  0  0  0
 17 18  2  0  0  0
 17 22  1  0  0  0
 18 19  1  0  0  0
 18 39  1  0  0  0
 19 20  2  0  0  0
 19 40  1  0  0  0
 20 21  1  0  0  0
 20 41  1  0  0  0
 21 22  2  0  0  0
 22 23  1  0  0  0
M  END
> <s_m_source_file>
../4aqh_ligand.sdf

> <i_m_source_file_index>
1

> <s_epik_input>
W0NIM11DKFtDSDNdKShbQ0gzXSlPQyg9TylOMVtDSDJdW0NIXShbQ0gyXTEpW05IXWMobmMyPU8pW25IXWMoYzIzKW5bY0hdW2NIXVtjSF0z

> <s_epik_cmdline>
J2VwaWtfYXBwJywgJy1pbWFlJywgJ2xpZ2FuZF9wcm8ubWFlJywgJy1vbWFlJywgJ2xpZ2FuZF9wcmVwLm1hZScsICctbXMnLCAnMScsICctcGgnLCAnNycsICctcGh0JywgJzAuNScsICctbnQn

> <r_lp_tautomer_probability>
1

> <r_epik_Ionization_Penalty>
  0.0039

> <r_epik_Ionization_Penalty_Charging>
  0.0038

> <r_epik_Ionization_Penalty_Neutral>
  0.0000

> <r_epik_State_Penalty>
 -0.0000

> <r_epik_Charging_Adjusted_Penalty>
0.00382917492226333

> <i_epik_Tot_Q>
0

> <i_epik_Tot_abs_Q>
0

> <s_epik_Chemistry_Notes>
This compound has an ester and may undergo hydrolysis at high or low pH.

$$$$
