4ara_ligand
                    3D
 Schrodinger Suite 2020-3.
 52 53  0  0  1  0            999 V2000
   29.8760   21.6360   10.1220 O   0  0  0  0  0  0
   30.6870   22.5270   10.3670 C   0  0  0  0  0  0
   31.9140   22.6630    9.4820 C   0  0  0  0  0  0
   33.0160   23.5610    9.7150 C   0  0  0  0  0  0
   32.9010   24.3180   10.8320 O   0  0  0  0  0  0
   33.9140   25.2190   11.2320 C   0  0  0  0  0  0
   34.1080   23.6420    8.8460 C   0  0  0  0  0  0
   34.2550   22.8580    7.6570 C   0  0  0  0  0  0
   35.4040   23.1030    6.8940 N   0  0  0  0  0  0
   36.3660   24.1690    7.2730 C   0  0  0  0  0  0
   35.8290   22.5700    5.5750 C   0  0  0  0  0  0
   33.1490   21.9700    7.4410 C   0  0  0  0  0  0
   32.9420   21.0030    6.3370 N   0  3  0  0  0  0
   33.8560   20.3320    5.9120 O   0  0  0  0  0  0
   31.7990   20.7170    6.0450 O   0  5  0  0  0  0
   32.0520   21.9090    8.3410 C   0  0  0  0  0  0
   30.4170   23.3790   11.4710 N   0  0  0  0  0  0
   29.1870   23.2480   12.3060 C   0  0  0  0  0  0
   29.2510   22.1710   13.4720 C   0  0  1  0  0  0
   27.9610   22.2320   14.3610 C   0  0  0  0  0  0
   27.4530   20.8030   14.5250 C   0  0  0  0  0  0
   28.1630   20.0070   13.4280 C   0  0  0  0  0  0
   29.2830   20.8110   12.8330 N   0  3  2  0  0  0
   30.5340   19.9950   12.8690 C   0  0  0  0  0  0
   30.6140   18.8700   11.8460 C   0  0  0  0  0  0
   33.6098   25.7238   12.1608 H   0  0  0  0  0  0
   34.0712   25.9681   10.4420 H   0  0  0  0  0  0
   34.8492   24.6662   11.4045 H   0  0  0  0  0  0
   34.9006   24.3494    9.0899 H   0  0  0  0  0  0
   36.0819   24.5891    8.2491 H   0  0  0  0  0  0
   36.3503   24.9641    6.5130 H   0  0  0  0  0  0
   37.3782   23.7433    7.3375 H   0  0  0  0  0  0
   35.1369   21.7749    5.2606 H   0  0  0  0  0  0
   36.8464   22.1597    5.6559 H   0  0  0  0  0  0
   35.8185   23.3805    4.8314 H   0  0  0  0  0  0
   31.2528   21.2056    8.1074 H   0  0  0  0  0  0
   31.1576   24.1591   11.7013 H   0  0  0  0  0  0
   28.9684   24.2111   12.7904 H   0  0  0  0  0  0
   28.3395   22.9580   11.6675 H   0  0  0  0  0  0
   30.1467   22.3214   14.0926 H   0  0  0  0  0  0
   28.2106   22.6671   15.3400 H   0  0  0  0  0  0
   27.2030   22.8560   13.8650 H   0  0  0  0  0  0
   27.7123   20.4346   15.5285 H   0  0  0  0  0  0
   26.3604   20.7855   14.3990 H   0  0  0  0  0  0
   28.5764   19.0817   13.8556 H   0  0  0  0  0  0
   27.4443   19.7549   12.6343 H   0  0  0  0  0  0
   29.1992   21.0310   11.7585 H   0  0  0  0  0  0
   31.4014   20.6453   12.6827 H   0  0  0  0  0  0
   30.6354   19.5227   13.8573 H   0  0  0  0  0  0
   31.5697   18.3376   11.9605 H   0  0  0  0  0  0
   30.5480   19.2912   10.8320 H   0  0  0  0  0  0
   29.7820   18.1686   12.0066 H   0  0  0  0  0  0
  1  2  2  0  0  0
  2  3  1  0  0  0
  2 17  1  0  0  0
  3  4  2  0  0  0
  3 16  1  0  0  0
  4  5  1  0  0  0
  4  7  1  0  0  0
  5  6  1  0  0  0
  6 26  1  0  0  0
  6 27  1  0  0  0
  6 28  1  0  0  0
  7  8  2  0  0  0
  7 29  1  0  0  0
  8  9  1  0  0  0
  8 12  1  0  0  0
  9 10  1  0  0  0
  9 11  1  0  0  0
 10 30  1  0  0  0
 10 31  1  0  0  0
 10 32  1  0  0  0
 11 33  1  0  0  0
 11 34  1  0  0  0
 11 35  1  0  0  0
 12 13  1  0  0  0
 12 16  2  0  0  0
 13 14  2  0  0  0
 13 15  1  0  0  0
 16 36  1  0  0  0
 17 18  1  0  0  0
 17 37  1  0  0  0
 18 19  1  0  0  0
 18 38  1  0  0  0
 18 39  1  0  0  0
 19 20  1  0  0  0
 19 23  1  0  0  0
 19 40  1  0  0  0
 20 21  1  0  0  0
 20 41  1  0  0  0
 20 42  1  0  0  0
 21 22  1  0  0  0
 21 43  1  0  0  0
 21 44  1  0  0  0
 22 23  1  0  0  0
 22 45  1  0  0  0
 22 46  1  0  0  0
 23 24  1  0  0  0
 23 47  1  0  0  0
 24 25  1  0  0  0
 24 48  1  0  0  0
 24 49  1  0  0  0
 25 50  1  0  0  0
 25 51  1  0  0  0
 25 52  1  0  0  0
M  CHG  3  13   1  15  -1  23   1
M  END
> <s_m_source_file>
../4ara_ligand.sdf

> <i_m_source_file_index>
1

> <s_epik_input>
Tz1bTitdKFtPLV0pYyhbY0hdMSljKE4oW0NIM10pW0NIM10pW2NIXWMoT1tDSDNdKWMxQyg9TylbTkhdW0NIMl1bQ0BIXTJbQ0gyXVtDSDJdW0NIMl1bTkBASCtdMltDSDJdW0NIM10=

> <s_epik_cmdline>
J2VwaWtfYXBwJywgJy1pbWFlJywgJ2xpZ2FuZF9wcm8ubWFlJywgJy1vbWFlJywgJ2xpZ2FuZF9wcmVwLm1hZScsICctbXMnLCAnMScsICctcGgnLCAnNycsICctcGh0JywgJzAuNScsICctbnQn

> <r_lp_tautomer_probability>
1

> <r_epik_Ionization_Penalty>
  0.0021

> <r_epik_Ionization_Penalty_Charging>
  0.0021

> <r_epik_Ionization_Penalty_Neutral>
  0.0000

> <r_epik_State_Penalty>
 -0.0000

> <r_epik_Charging_Adjusted_Penalty>
0.00210522884963562

> <i_epik_Tot_Q>
1

> <i_epik_Tot_abs_Q>
3

$$$$
