4arb_ligand
                    3D
 Schrodinger Suite 2020-3.
 52 53  0  0  1  0            999 V2000
   30.5770   21.0240   11.1770 O   0  0  0  0  0  0
   30.9890   22.1370   10.9710 C   0  0  0  0  0  0
   31.9960   22.3470    9.8600 C   0  0  0  0  0  0
   33.0620   23.2840    9.9760 C   0  0  0  0  0  0
   33.2060   24.0650   11.1010 O   0  0  0  0  0  0
   34.2160   25.0170   11.1320 C   0  0  0  0  0  0
   34.0100   23.4510    8.9120 C   0  0  0  0  0  0
   33.9260   22.6920    7.7600 C   0  0  0  0  0  0
   34.9890   22.9920    6.7270 N   0  0  0  0  0  0
   36.0950   23.8850    7.0850 C   0  0  0  0  0  0
   34.9400   22.4440    5.3500 C   0  0  0  0  0  0
   32.8290   21.7270    7.6360 C   0  0  0  0  0  0
   32.6130   20.8680    6.5040 N   0  3  0  0  0  0
   31.5700   21.0300    5.7330 O   0  0  0  0  0  0
   33.4130   19.9520    6.2590 O   0  5  0  0  0  0
   31.9020   21.5700    8.6930 C   0  0  0  0  0  0
   30.5460   23.2250   11.8110 N   0  0  0  0  0  0
   29.5990   23.0420   12.9140 C   0  0  0  0  0  0
   27.7360   20.9420   14.2460 C   0  0  0  0  0  0
   27.4820   22.3800   13.9920 C   0  0  0  0  0  0
   28.1470   22.6350   12.6880 C   0  0  2  0  0  0
   27.9420   21.4060   11.9370 N   0  3  2  0  0  0
   27.1640   21.2270   10.7240 C   0  0  0  0  0  0
   27.8420   20.3280   12.8940 C   0  0  0  0  0  0
   27.6230   21.9940    9.4770 C   0  0  0  0  0  0
   34.1902   25.5477   12.0952 H   0  0  0  0  0  0
   34.0673   25.7361   10.3130 H   0  0  0  0  0  0
   35.1907   24.5214   11.0124 H   0  0  0  0  0  0
   34.8077   24.1868    9.0137 H   0  0  0  0  0  0
   35.9861   24.2016    8.1328 H   0  0  0  0  0  0
   36.0786   24.7694    6.4311 H   0  0  0  0  0  0
   37.0502   23.3540    6.9598 H   0  0  0  0  0  0
   34.0563   21.7977    5.2438 H   0  0  0  0  0  0
   35.8495   21.8563    5.1567 H   0  0  0  0  0  0
   34.8779   23.2716    4.6280 H   0  0  0  0  0  0
   31.1025   20.8349    8.6007 H   0  0  0  0  0  0
   30.9509   24.2245   11.5938 H   0  0  0  0  0  0
   29.9677   22.2537   13.5868 H   0  0  0  0  0  0
   29.5003   23.9844   13.4727 H   0  0  0  0  0  0
   28.6687   20.8299   14.8182 H   0  0  0  0  0  0
   26.8998   20.5179   14.8212 H   0  0  0  0  0  0
   26.3975   22.5584   13.9470 H   0  0  0  0  0  0
   27.9187   22.9787   14.8050 H   0  0  0  0  0  0
   27.7058   23.4515   12.0975 H   0  0  0  0  0  0
   28.8276   21.4428   11.2856 H   0  0  0  0  0  0
   27.1732   20.1655   10.4358 H   0  0  0  0  0  0
   26.1276   21.5495   10.9022 H   0  0  0  0  0  0
   28.7368   19.6897   12.8503 H   0  0  0  0  0  0
   26.9474   19.7192   12.6966 H   0  0  0  0  0  0
   26.9486   21.7672    8.6381 H   0  0  0  0  0  0
   28.6476   21.6903    9.2162 H   0  0  0  0  0  0
   27.6019   23.0744    9.6827 H   0  0  0  0  0  0
  1  2  2  0  0  0
  2  3  1  0  0  0
  2 17  1  0  0  0
  3  4  2  0  0  0
  3 16  1  0  0  0
  4  5  1  0  0  0
  4  7  1  0  0  0
  5  6  1  0  0  0
  6 26  1  0  0  0
  6 27  1  0  0  0
  6 28  1  0  0  0
  7  8  2  0  0  0
  7 29  1  0  0  0
  8  9  1  0  0  0
  8 12  1  0  0  0
  9 10  1  0  0  0
  9 11  1  0  0  0
 10 30  1  0  0  0
 10 31  1  0  0  0
 10 32  1  0  0  0
 11 33  1  0  0  0
 11 34  1  0  0  0
 11 35  1  0  0  0
 12 13  1  0  0  0
 12 16  2  0  0  0
 13 14  2  0  0  0
 13 15  1  0  0  0
 16 36  1  0  0  0
 17 18  1  0  0  0
 17 37  1  0  0  0
 18 21  1  0  0  0
 18 38  1  0  0  0
 18 39  1  0  0  0
 19 20  1  0  0  0
 19 24  1  0  0  0
 19 40  1  0  0  0
 19 41  1  0  0  0
 20 21  1  0  0  0
 20 42  1  0  0  0
 20 43  1  0  0  0
 21 22  1  0  0  0
 21 44  1  0  0  0
 22 23  1  0  0  0
 22 24  1  0  0  0
 22 45  1  0  0  0
 23 25  1  0  0  0
 23 46  1  0  0  0
 23 47  1  0  0  0
 24 48  1  0  0  0
 24 49  1  0  0  0
 25 50  1  0  0  0
 25 51  1  0  0  0
 25 52  1  0  0  0
M  CHG  3  13   1  15  -1  22   1
M  END
> <s_m_source_file>
../4arb_ligand.sdf

> <i_m_source_file_index>
1

> <s_epik_input>
Tz1bTitdKFtPLV0pYyhbY0hdMSljKE4oW0NIM10pW0NIM10pW2NIXWMoT1tDSDNdKWMxQyg9TylbTkhdW0NIMl1bQ0BASF0yW0NIMl1bQ0gyXVtDSDJdW05ASCtdMltDSDJdW0NIM10=

> <s_epik_cmdline>
J2VwaWtfYXBwJywgJy1pbWFlJywgJ2xpZ2FuZF9wcm8ubWFlJywgJy1vbWFlJywgJ2xpZ2FuZF9wcmVwLm1hZScsICctbXMnLCAnMScsICctcGgnLCAnNycsICctcGh0JywgJzAuNScsICctbnQn

> <r_lp_tautomer_probability>
1

> <r_epik_Ionization_Penalty>
  0.0021

> <r_epik_Ionization_Penalty_Charging>
  0.0021

> <r_epik_Ionization_Penalty_Neutral>
  0.0000

> <r_epik_State_Penalty>
 -0.0000

> <r_epik_Charging_Adjusted_Penalty>
0.00210522884963562

> <i_epik_Tot_Q>
1

> <i_epik_Tot_abs_Q>
3

$$$$
