4ark_ligand
                    3D
 Schrodinger Suite 2020-3.
 43 44  0  0  1  0            999 V2000
   34.2470   27.2390   42.4370 C   0  0  0  0  0  0
   35.2130   26.4380   41.8890 C   0  0  0  0  0  0
   36.5180   26.5040   42.3200 C   0  0  0  0  0  0
   36.9050   27.3750   43.3090 C   0  0  0  0  0  0
   35.9320   28.1770   43.8510 C   0  0  0  0  0  0
   34.6270   28.1040   43.4200 C   0  0  0  0  0  0
   32.8850   27.2240   42.0410 N   0  0  0  0  0  0
   32.2050   26.4880   41.0410 C   0  0  0  0  0  0
   31.2730   27.1030   40.2430 C   0  0  0  0  0  0
   30.6100   26.4140   39.2760 C   0  0  0  0  0  0
   30.8500   25.0860   39.0840 C   0  0  0  0  0  0
   31.7640   24.4570   39.8710 C   0  0  0  0  0  0
   32.4350   25.1510   40.8420 C   0  0  0  0  0  0
   30.9430   28.5120   40.3680 C   0  0  0  0  0  0
   30.2560   29.1460   39.3820 N   0  0  0  0  0  0
   31.2810   29.1190   41.3220 O   0  0  0  0  0  0
   28.3960   27.5670   36.5940 C   0  0  0  0  0  0
   29.3830   28.1670   35.6070 C   0  0  2  0  0  0
   28.6780   29.1740   34.7170 C   0  0  0  0  0  0
   29.9010   27.1470   34.7840 O   0  0  0  0  0  0
   28.0870   30.1510   35.5470 O   0  0  0  0  0  0
   38.8510   27.4480   43.9280 I   0  0  0  0  0  0
   29.1050   26.4970   37.4050 C   0  0  0  0  0  0
   33.7260   28.8830   43.9510 F   0  0  0  0  0  0
   32.0010   23.1840   39.6830 F   0  0  0  0  0  0
   29.7130   27.0790   38.5310 O   0  0  0  0  0  0
   34.9439   25.7370   41.0989 H   0  0  0  0  0  0
   37.2622   25.8497   41.8659 H   0  0  0  0  0  0
   36.1975   28.8843   44.6367 H   0  0  0  0  0  0
   32.1567   27.8715   42.5512 H   0  0  0  0  0  0
   30.3163   24.5350   38.3096 H   0  0  0  0  0  0
   33.1630   24.6328   41.4662 H   0  0  0  0  0  0
   29.9364   28.5892   38.4888 H   0  0  0  0  0  0
   30.0194   30.2160   39.4770 H   0  0  0  0  0  0
   28.0217   28.3555   37.2634 H   0  0  0  0  0  0
   27.5533   27.1216   36.0450 H   0  0  0  0  0  0
   30.2380   28.6135   36.1358 H   0  0  0  0  0  0
   29.4094   29.6415   34.0414 H   0  0  0  0  0  0
   27.9060   28.6619   34.1239 H   0  0  0  0  0  0
   30.4548   26.3080   35.2306 H   0  0  0  0  0  0
   27.5210   30.9821   35.1011 H   0  0  0  0  0  0
   28.3752   25.7428   37.7344 H   0  0  0  0  0  0
   29.8746   26.0157   36.7837 H   0  0  0  0  0  0
  1  2  2  0  0  0
  1  6  1  0  0  0
  1  7  1  0  0  0
  2  3  1  0  0  0
  2 27  1  0  0  0
  3  4  2  0  0  0
  3 28  1  0  0  0
  4  5  1  0  0  0
  4 22  1  0  0  0
  5  6  2  0  0  0
  5 29  1  0  0  0
  6 24  1  0  0  0
  7  8  1  0  0  0
  7 30  1  0  0  0
  8  9  2  0  0  0
  8 13  1  0  0  0
  9 10  1  0  0  0
  9 14  1  0  0  0
 10 11  2  0  0  0
 10 26  1  0  0  0
 11 12  1  0  0  0
 11 31  1  0  0  0
 12 13  2  0  0  0
 12 25  1  0  0  0
 13 32  1  0  0  0
 14 15  1  0  0  0
 14 16  2  0  0  0
 15 33  1  0  0  0
 15 34  1  0  0  0
 17 18  1  0  0  0
 17 23  1  0  0  0
 17 35  1  0  0  0
 17 36  1  0  0  0
 18 19  1  0  0  0
 18 20  1  0  0  0
 18 37  1  0  0  0
 19 21  1  0  0  0
 19 38  1  0  0  0
 19 39  1  0  0  0
 20 40  1  0  0  0
 21 41  1  0  0  0
 23 26  1  0  0  0
 23 42  1  0  0  0
 23 43  1  0  0  0
M  END
> <s_m_source_file>
../4ark_ligand.sdf

> <i_m_source_file_index>
1

> <s_epik_input>
RmMxW2NIXWMoSSlbY0hdW2NIXWMxW05IXWMyYyhDKD1PKVtOSDJdKWMoW2NIXWMoRilbY0hdMilPW0NIMl1bQ0gyXVtDQEBIXShbT0hdKVtDSDJdW09IXQ==

> <s_epik_cmdline>
J2VwaWtfYXBwJywgJy1pbWFlJywgJ2xpZ2FuZF9wcm8ubWFlJywgJy1vbWFlJywgJ2xpZ2FuZF9wcmVwLm1hZScsICctbXMnLCAnMScsICctcGgnLCAnNycsICctcGh0JywgJzAuNScsICctbnQn

> <r_lp_tautomer_probability>
1

> <r_epik_Ionization_Penalty>
  0.0000

> <r_epik_Ionization_Penalty_Charging>
  0.0000

> <r_epik_Ionization_Penalty_Neutral>
  0.0000

> <r_epik_State_Penalty>
 -0.0000

> <r_epik_Charging_Adjusted_Penalty>
0

> <i_epik_Tot_Q>
0

> <i_epik_Tot_abs_Q>
0

$$$$
