4aro_ligand
                    3D
 Schrodinger Suite 2020-3.
 42 42  0  0  1  0            999 V2000
  -18.3890    2.8910   -5.8810 C   0  0  2  0  0  0
  -18.4960    4.1440   -5.2040 O   0  0  0  0  0  0
  -19.0550    4.1830   -3.7340 S   0  0  0  0  0  0
  -16.9440    2.4080   -5.7860 C   0  0  1  0  0  0
  -20.4390    3.8090   -3.7690 O   0  0  0  0  0  0
  -14.9260    4.0640   -5.6670 S   0  0  0  0  0  0
  -16.7520    1.0770   -6.4870 C   0  0  1  0  0  0
  -18.1730    3.0910   -2.9700 O   0  5  0  0  0  0
  -15.0440   -0.4080   -5.3250 S   0  0  0  0  0  0
  -17.2510    1.1520   -7.9500 C   0  0  2  0  0  0
  -18.8360    5.5430   -3.2740 O   0  0  0  0  0  0
  -16.1540   -0.5280   -9.6750 S   0  0  0  0  0  0
  -18.6890    1.6990   -8.0400 C   0  0  1  0  0  0
  -20.1100    0.9290  -10.1360 S   0  0  0  0  0  0
  -18.8940    3.0130   -7.3440 C   0  0  1  0  0  0
  -20.8120    4.8120   -8.0130 S   0  0  0  0  0  0
  -16.1500    3.3790   -6.4330 O   0  0  0  0  0  0
  -15.3750    0.6850   -6.4450 O   0  0  0  0  0  0
  -17.2660   -0.1520   -8.5650 O   0  0  0  0  0  0
  -19.0990    1.8710   -9.3790 O   0  0  0  0  0  0
  -20.3290    3.4520   -7.3620 O   0  0  0  0  0  0
  -14.8880    5.4690   -6.0480 O   0  0  0  0  0  0
  -13.4680   -0.5980   -5.6500 O   0  5  0  0  0  0
  -14.9130   -0.9210   -8.7800 O   0  5  0  0  0  0
  -21.1850    1.7800  -10.7490 O   0  0  0  0  0  0
  -20.1510    5.8780   -7.2790 O   0  0  0  0  0  0
  -15.1080    3.8980   -4.2380 O   0  0  0  0  0  0
  -15.9260   -1.5060   -5.5350 O   0  0  0  0  0  0
  -15.9430    0.6190  -10.5160 O   0  0  0  0  0  0
  -19.2610    0.2520  -11.2520 O   0  5  0  0  0  0
  -22.2010    4.9210   -7.8560 O   0  0  0  0  0  0
  -13.6800    3.2440   -6.2200 O   0  5  0  0  0  0
  -15.2840    0.2620   -4.0690 O   0  0  0  0  0  0
  -16.8480   -1.6530  -10.2540 O   0  0  0  0  0  0
  -20.4970   -0.0860   -9.2100 O   0  0  0  0  0  0
  -20.3260    4.7650   -9.4880 O   0  5  0  0  0  0
  -19.0423    2.1914   -5.3390 H   0  0  0  0  0  0
  -16.6117    2.3189   -4.7412 H   0  0  0  0  0  0
  -17.2833    0.2917   -5.9294 H   0  0  0  0  0  0
  -16.5398    1.7723   -8.5151 H   0  0  0  0  0  0
  -19.3519    0.9426   -7.5946 H   0  0  0  0  0  0
  -18.3411    3.7733   -7.9152 H   0  0  0  0  0  0
  1  2  1  0  0  0
  1  4  1  0  0  0
  1 15  1  0  0  0
  1 37  1  0  0  0
  2  3  1  0  0  0
  3  5  2  0  0  0
  3  8  1  0  0  0
  3 11  2  0  0  0
  4  7  1  0  0  0
  4 17  1  0  0  0
  4 38  1  0  0  0
  6 17  1  0  0  0
  6 22  2  0  0  0
  6 27  2  0  0  0
  6 32  1  0  0  0
  7 10  1  0  0  0
  7 18  1  0  0  0
  7 39  1  0  0  0
  9 18  1  0  0  0
  9 23  1  0  0  0
  9 28  2  0  0  0
  9 33  2  0  0  0
 10 13  1  0  0  0
 10 19  1  0  0  0
 10 40  1  0  0  0
 12 19  1  0  0  0
 12 24  1  0  0  0
 12 29  2  0  0  0
 12 34  2  0  0  0
 13 15  1  0  0  0
 13 20  1  0  0  0
 13 41  1  0  0  0
 14 20  1  0  0  0
 14 25  2  0  0  0
 14 30  1  0  0  0
 14 35  2  0  0  0
 15 21  1  0  0  0
 15 42  1  0  0  0
 16 21  1  0  0  0
 16 26  2  0  0  0
 16 31  2  0  0  0
 16 36  1  0  0  0
M  CHG  6   8  -1  23  -1  24  -1  30  -1  32  -1  36  -1
M  END
> <s_m_source_file>
../4aro_ligand.sdf

> <i_m_source_file_index>
1

> <s_epik_input>
Tz1TKD1PKShbT0hdKU9bQ0BASF0xW0NASF0oT1MoPU8pKD1PKVtPSF0pW0NASF0oT1MoPU8pKD1PKVtPSF0pW0NAQEhdKE9TKD1PKSg9TylbT0hdKVtDQEhdKE9TKD1PKSg9TylbT0hdKVtDQEhdMU9TKD1PKSg9TylbT0hd

> <s_epik_cmdline>
J2VwaWtfYXBwJywgJy1pbWFlJywgJ2xpZ2FuZF9wcm8ubWFlJywgJy1vbWFlJywgJ2xpZ2FuZF9wcmVwLm1hZScsICctbXMnLCAnMScsICctcGgnLCAnNycsICctcGh0JywgJzAuNScsICctbnQn

> <r_lp_tautomer_probability>
1

> <r_epik_Ionization_Penalty>
  0.0000

> <r_epik_Ionization_Penalty_Charging>
  0.0000

> <r_epik_Ionization_Penalty_Neutral>
  0.0000

> <r_epik_State_Penalty>
 -0.0000

> <r_epik_Charging_Adjusted_Penalty>
5.91707911737939e-10

> <i_epik_Tot_Q>
-6

> <i_epik_Tot_abs_Q>
6

$$$$
