4arw_ligand
                    3D
 Schrodinger Suite 2020-3.
 44 45  0  0  1  0            999 V2000
   37.7780    7.8440   12.3900 C   0  0  0  0  0  0
   38.6000    6.6560   11.8400 C   0  0  0  0  0  0
   37.9530    6.0190   10.6220 C   0  0  0  0  0  0
   38.8280    4.9440    9.9880 C   0  0  0  0  0  0
   38.0670    3.6980   10.0090 N   0  3  0  0  0  0
   37.0950    3.4440    9.0190 C   0  0  0  0  0  0
   36.8890    4.3580    8.0690 N   0  0  0  0  0  0
   38.3210    2.7720   11.0270 C   0  0  0  0  0  0
   39.1730    2.9960   11.8850 O   0  5  0  0  0  0
   37.6040    1.6060   11.0740 N   0  0  0  0  0  0
   36.6290    1.3410   10.1230 C   0  0  0  0  0  0
   36.0240    0.2750   10.2440 O   0  0  0  0  0  0
   36.3550    2.2530    9.0800 C   0  0  2  0  0  0
   35.4230    1.9550    8.1690 N   0  0  3  0  0  0
   35.7470    0.9150    7.1670 C   0  0  0  0  0  0
   33.8990    2.5790    8.2590 S   0  0  0  0  0  0
   33.9420    4.0020    8.4390 O   0  0  0  0  0  0
   33.0650    2.2200    7.0750 O   0  0  0  0  0  0
   33.1570    1.8500    9.6770 C   0  0  0  0  0  0
   33.4520    2.3140   10.9400 C   0  0  0  0  0  0
   32.8430    1.7320   12.0490 C   0  0  0  0  0  0
   31.9490    0.6780   11.9070 C   0  0  0  0  0  0
   31.6800    0.2120   10.6400 C   0  0  0  0  0  0
   32.2680    0.7990    9.5340 C   0  0  0  0  0  0
   38.2880    8.2676   13.2677 H   0  0  0  0  0  0
   36.7769    7.4935   12.6814 H   0  0  0  0  0  0
   37.6842    8.6162   11.6123 H   0  0  0  0  0  0
   39.6011    7.0065   11.5486 H   0  0  0  0  0  0
   38.6939    5.8838   12.6177 H   0  0  0  0  0  0
   37.0018    5.5506   10.9149 H   0  0  0  0  0  0
   37.7628    6.7911    9.8619 H   0  0  0  0  0  0
   39.0706    5.2313    8.9543 H   0  0  0  0  0  0
   39.7573    4.8390   10.5671 H   0  0  0  0  0  0
   37.1046    1.7549    8.4475 H   0  0  0  0  0  0
   36.8048    0.6292    7.2641 H   0  0  0  0  0  0
   35.5652    1.3100    6.1566 H   0  0  0  0  0  0
   35.1119    0.0329    7.3356 H   0  0  0  0  0  0
   34.1591    3.1332   11.0709 H   0  0  0  0  0  0
   33.0717    2.1099   13.0455 H   0  0  0  0  0  0
   31.4717    0.2304   12.7787 H   0  0  0  0  0  0
   30.9974   -0.6273   10.5070 H   0  0  0  0  0  0
   32.0281    0.4291    8.5372 H   0  0  0  0  0  0
   37.4889    5.2799    8.0534 H   0  0  0  0  0  0
   36.1193    4.1896    7.3014 H   0  0  0  0  0  0
  1  2  1  0  0  0
  1 25  1  0  0  0
  1 26  1  0  0  0
  1 27  1  0  0  0
  2  3  1  0  0  0
  2 28  1  0  0  0
  2 29  1  0  0  0
  3  4  1  0  0  0
  3 30  1  0  0  0
  3 31  1  0  0  0
  4  5  1  0  0  0
  4 32  1  0  0  0
  4 33  1  0  0  0
  5  6  2  0  0  0
  5  8  1  0  0  0
  6  7  1  0  0  0
  6 13  1  0  0  0
  7 43  1  0  0  0
  7 44  1  0  0  0
  8  9  1  0  0  0
  8 10  2  0  0  0
 10 11  1  0  0  0
 11 12  2  0  0  0
 11 13  1  0  0  0
 13 14  1  0  0  0
 13 34  1  0  0  0
 14 15  1  0  0  0
 14 16  1  0  0  0
 15 35  1  0  0  0
 15 36  1  0  0  0
 15 37  1  0  0  0
 16 17  2  0  0  0
 16 18  2  0  0  0
 16 19  1  0  0  0
 19 20  2  0  0  0
 19 24  1  0  0  0
 20 21  1  0  0  0
 20 38  1  0  0  0
 21 22  2  0  0  0
 21 39  1  0  0  0
 22 23  1  0  0  0
 22 40  1  0  0  0
 23 24  2  0  0  0
 23 41  1  0  0  0
 24 42  1  0  0  0
M  CHG  2   5   1   9  -1
M  END
> <s_m_source_file>
../4arw_ligand.sdf

> <i_m_source_file_index>
1

> <s_epik_input>
W0NIM11bQ0gyXVtDSDJdW0NIMl1OMS9DKD1OL1tIXSlbQ0BIXShDKD1PKVtOSF1DMT1PKU4oW0NIM10pUyg9TykoPU8pYzJbY0hdW2NIXVtjSF1bY0hdW2NIXTI=

> <s_epik_cmdline>
J2VwaWtfYXBwJywgJy1pbWFlJywgJ2xpZ2FuZF9wcm8ubWFlJywgJy1vbWFlJywgJ2xpZ2FuZF9wcmVwLm1hZScsICctbXMnLCAnMScsICctcGgnLCAnNycsICctcGh0JywgJzAuNScsICctbnQn

> <r_epik_Ionization_Penalty>
  0.1948

> <r_epik_Ionization_Penalty_Charging>
  0.1948

> <r_epik_Ionization_Penalty_Neutral>
  0.0000

> <r_epik_State_Penalty>
  0.0143

> <r_epik_Charging_Adjusted_Penalty>
0.209132801449974

> <i_epik_Tot_Q>
0

> <i_epik_Tot_abs_Q>
2

> <s_epik_Chemistry_Notes>
This compound has an imine and may undergo hydrolysis.

$$$$
