4as9_ligand
                    3D
 Schrodinger Suite 2020-3.
 83 84  0  0  1  0            999 V2000
  -18.7540   34.1500   -1.6530 C   0  0  0  0  0  0
  -19.8890   34.7320   -2.3450 O   0  0  0  0  0  0
  -20.7300   33.8530   -3.1350 C   0  0  1  0  0  0
  -21.9580   34.5110   -3.1650 C   0  0  0  0  0  0
  -22.6140   34.8910   -2.0050 C   0  0  0  0  0  0
  -23.9290   35.3310   -2.1110 C   0  0  0  0  0  0
  -24.9710   34.8140   -1.3430 C   0  0  0  0  0  0
  -25.4450   35.5630   -0.2750 C   0  0  0  0  0  0
  -25.3680   33.4840   -1.4590 C   0  0  0  0  0  0
  -25.6000   32.8360   -0.4370 O   0  0  0  0  0  0
  -26.1630   33.0910   -2.5160 N   0  0  0  0  0  0
  -25.9540   33.2960   -3.8760 C   0  0  0  0  0  0
  -26.3030   34.5590   -4.3810 C   0  0  0  0  0  0
  -26.7260   35.4240   -3.6030 O   0  0  0  0  0  0
  -25.4680   32.2710   -4.7220 C   0  0  0  0  0  0
  -25.1190   31.0050   -4.2450 C   0  0  0  0  0  0
  -25.3170   32.5450   -6.0890 C   0  0  0  0  0  0
  -24.8860   31.6850   -6.8550 O   0  0  0  0  0  0
  -25.6540   33.8110   -6.5820 C   0  0  0  0  0  0
  -25.4940   34.0370   -7.9180 O   0  0  0  0  0  0
  -26.7180   33.7820   -8.6270 C   0  0  0  0  0  0
  -26.1330   34.8400   -5.7550 C   0  0  0  0  0  0
  -26.4340   36.1230   -6.2660 C   0  0  0  0  0  0
  -25.1690   37.0800   -6.2400 C   0  0  1  0  0  0
  -24.6360   37.2800   -4.8160 C   0  0  0  0  0  0
  -24.0500   36.5870   -7.2180 C   0  0  0  0  0  0
  -22.6490   37.2540   -7.0610 C   0  0  2  0  0  0
  -22.7280   38.6990   -7.2570 O   0  0  0  0  0  0
  -21.4650   39.4310   -7.2750 C   0  0  0  0  0  0
  -21.6300   36.7100   -8.0770 C   0  0  2  0  0  0
  -22.2910   36.4380   -9.3830 O   0  0  0  0  0  0
  -20.6720   35.5520   -7.5460 C   0  0  1  0  0  0
  -21.5300   32.6630   -6.3100 C   0  0  0  0  0  0
  -20.9620   35.0180   -6.2460 C   0  0  0  0  0  0
  -20.8500   33.7120   -5.7150 C   0  0  0  0  0  0
  -20.5350   34.4740   -8.6230 C   0  0  0  0  0  0
  -20.1260   33.3880   -4.5510 C   0  0  1  0  0  0
  -18.7770   33.8110   -4.7640 O   0  0  0  0  0  0
  -17.7350   32.9170   -4.8730 C   0  0  0  0  0  0
  -16.7810   33.2140   -5.6040 O   0  0  0  0  0  0
  -17.7050   31.7740   -4.1770 N   0  0  0  0  0  0
  -18.2180   34.9366   -1.1016 H   0  0  0  0  0  0
  -18.0755   33.6883   -2.3854 H   0  0  0  0  0  0
  -19.1082   33.3840   -0.9475 H   0  0  0  0  0  0
  -20.9172   32.9284   -2.5692 H   0  0  0  0  0  0
  -22.4058   34.7274   -4.1462 H   0  0  0  0  0  0
  -22.0940   34.8396   -1.0370 H   0  0  0  0  0  0
  -23.9765   36.4045   -1.8759 H   0  0  0  0  0  0
  -24.2900   35.1639   -3.1365 H   0  0  0  0  0  0
  -25.1439   36.6152   -0.1646 H   0  0  0  0  0  0
  -26.1218   35.1044    0.4610 H   0  0  0  0  0  0
  -27.0966   32.5407   -2.3272 H   0  0  0  0  0  0
  -25.2978   30.9597   -3.1606 H   0  0  0  0  0  0
  -24.0547   30.8168   -4.4493 H   0  0  0  0  0  0
  -25.7298   30.2419   -4.7496 H   0  0  0  0  0  0
  -26.5662   33.9702   -9.7001 H   0  0  0  0  0  0
  -27.5075   34.4466   -8.2463 H   0  0  0  0  0  0
  -27.0170   32.7341   -8.4772 H   0  0  0  0  0  0
  -26.7763   36.0318   -7.3074 H   0  0  0  0  0  0
  -27.2272   36.5829   -5.6583 H   0  0  0  0  0  0
  -25.4788   38.0805   -6.5762 H   0  0  0  0  0  0
  -25.4520   37.6254   -4.1642 H   0  0  0  0  0  0
  -23.8327   38.0314   -4.8273 H   0  0  0  0  0  0
  -24.2410   36.3267   -4.4351 H   0  0  0  0  0  0
  -23.8881   35.5083   -7.0760 H   0  0  0  0  0  0
  -24.3601   36.7776   -8.2560 H   0  0  0  0  0  0
  -22.3025   37.0781   -6.0319 H   0  0  0  0  0  0
  -21.6640   40.5018   -7.4290 H   0  0  0  0  0  0
  -20.8343   39.0538   -8.0935 H   0  0  0  0  0  0
  -20.9451   39.2889   -6.3161 H   0  0  0  0  0  0
  -20.9501   37.5444   -8.3040 H   0  0  0  0  0  0
  -22.9688   37.1846   -9.8224 H   0  0  0  0  0  0
  -19.6857   35.9550   -7.2726 H   0  0  0  0  0  0
  -22.1185   32.8364   -7.2230 H   0  0  0  0  0  0
  -21.4818   31.6561   -5.8697 H   0  0  0  0  0  0
  -20.3445   35.5299   -5.4933 H   0  0  0  0  0  0
  -22.0261   35.1736   -6.0147 H   0  0  0  0  0  0
  -20.3139   34.9484   -9.5905 H   0  0  0  0  0  0
  -21.4759   33.9091   -8.6981 H   0  0  0  0  0  0
  -19.7167   33.7896   -8.3547 H   0  0  0  0  0  0
  -20.1450   32.2887   -4.5864 H   0  0  0  0  0  0
  -18.5494   31.5043   -3.5257 H   0  0  0  0  0  0
  -16.8359   31.1044   -4.2563 H   0  0  0  0  0  0
  1  2  1  0  0  0
  1 42  1  0  0  0
  1 43  1  0  0  0
  1 44  1  0  0  0
  2  3  1  0  0  0
  3  4  1  0  0  0
  3 37  1  0  0  0
  3 45  1  0  0  0
  4  5  2  0  0  0
  4 46  1  0  0  0
  5  6  1  0  0  0
  5 47  1  0  0  0
  6  7  1  0  0  0
  6 48  1  0  0  0
  6 49  1  0  0  0
  7  8  2  0  0  0
  7  9  1  0  0  0
  8 50  1  0  0  0
  8 51  1  0  0  0
  9 10  2  0  0  0
  9 11  1  0  0  0
 11 12  1  0  0  0
 11 52  1  0  0  0
 12 13  1  0  0  0
 12 15  2  0  0  0
 13 14  2  0  0  0
 13 22  1  0  0  0
 15 16  1  0  0  0
 15 17  1  0  0  0
 16 53  1  0  0  0
 16 54  1  0  0  0
 16 55  1  0  0  0
 17 18  2  0  0  0
 17 19  1  0  0  0
 19 20  1  0  0  0
 19 22  2  0  0  0
 20 21  1  0  0  0
 21 56  1  0  0  0
 21 57  1  0  0  0
 21 58  1  0  0  0
 22 23  1  0  0  0
 23 24  1  0  0  0
 23 59  1  0  0  0
 23 60  1  0  0  0
 24 25  1  0  0  0
 24 26  1  0  0  0
 24 61  1  0  0  0
 25 62  1  0  0  0
 25 63  1  0  0  0
 25 64  1  0  0  0
 26 27  1  0  0  0
 26 65  1  0  0  0
 26 66  1  0  0  0
 27 28  1  0  0  0
 27 30  1  0  0  0
 27 67  1  0  0  0
 28 29  1  0  0  0
 29 68  1  0  0  0
 29 69  1  0  0  0
 29 70  1  0  0  0
 30 31  1  0  0  0
 30 32  1  0  0  0
 30 71  1  0  0  0
 31 72  1  0  0  0
 32 34  1  0  0  0
 32 36  1  0  0  0
 32 73  1  0  0  0
 33 35  2  0  0  0
 33 74  1  0  0  0
 33 75  1  0  0  0
 34 35  1  0  0  0
 34 76  1  0  0  0
 34 77  1  0  0  0
 35 37  1  0  0  0
 36 78  1  0  0  0
 36 79  1  0  0  0
 36 80  1  0  0  0
 37 38  1  0  0  0
 37 81  1  0  0  0
 38 39  1  0  0  0
 39 40  2  0  0  0
 39 41  1  0  0  0
 41 82  1  0  0  0
 41 83  1  0  0  0
M  END
> <s_m_source_file>
../4as9_ligand.sdf

> <i_m_source_file_index>
1

> <s_epik_input>
Tz1DKFtOSF0xKUMoPVtDSDJdKVtDSDJdXFtDSF09W0NIXVxbQ0BIXShPW0NIM10pW0NASF0oT0MoPU8pW05IMl0pQyg9W0NIMl0pW0NIMl1bQ0BASF0oW0NIM10pW0NAQEhdKFtPSF0pW0NAQEhdKE9bQ0gzXSlbQ0gyXVtDQEhdKFtDSDNdKVtDSDJdQyhDMj1PKT1DKE9bQ0gzXSlDKD1PKUMoPUMxMilbQ0gzXQ==

> <s_epik_cmdline>
J2VwaWtfYXBwJywgJy1pbWFlJywgJ2xpZ2FuZF9wcm8ubWFlJywgJy1vbWFlJywgJ2xpZ2FuZF9wcmVwLm1hZScsICctbXMnLCAnMScsICctcGgnLCAnNycsICctcGh0JywgJzAuNScsICctbnQn

> <r_lp_tautomer_probability>
1

> <r_epik_Ionization_Penalty>
  0.0540

> <r_epik_Ionization_Penalty_Charging>
  0.0000

> <r_epik_Ionization_Penalty_Neutral>
  0.0540

> <r_epik_State_Penalty>
 -0.0000

> <r_epik_Charging_Adjusted_Penalty>
0

> <i_epik_Tot_Q>
0

> <i_epik_Tot_abs_Q>
0

> <s_epik_Chemistry_Notes>
This compound has an ester and may undergo hydrolysis at high or low pH.

$$$$
