4asd_ligand
                    3D
 Schrodinger Suite 2020-3.
 48 50  0  0  1  0            999 V2000
  -28.0550   -1.7890   -7.5940 C   0  0  0  0  0  0
  -28.2850   -2.8510   -8.4880 C   0  0  0  0  0  0
  -28.9910   -3.9770   -8.0560 C   0  0  0  0  0  0
  -29.4670   -4.0490   -6.7420 C   0  0  0  0  0  0
  -26.7470   -2.0750  -10.2510 C   0  0  0  0  0  0
  -25.3410   -1.7590  -12.2560 C   0  0  0  0  0  0
  -25.4650   -1.3400  -13.5760 C   0  0  0  0  0  0
  -24.3430   -0.8720  -14.2610 C   0  0  0  0  0  0
  -23.1120   -0.8220  -13.6040 C   0  0  0  0  0  0
  -22.9590   -1.2340  -12.2870 C   0  0  0  0  0  0
  -24.0840   -1.7010  -11.6170 C   0  0  0  0  0  0
  -22.0130   -0.3720  -14.2990 O   0  0  0  0  0  0
  -22.5430    2.0480  -13.9900 C   0  0  0  0  0  0
  -21.9920    3.3280  -14.1160 C   0  0  0  0  0  0
  -19.9370    2.4950  -14.8610 C   0  0  0  0  0  0
  -20.3980    1.1840  -14.7780 C   0  0  0  0  0  0
  -18.0330    3.9880  -15.4040 N   0  0  0  0  0  0
  -16.6770    4.2420  -15.8730 C   0  0  0  0  0  0
  -29.2370   -2.9750   -5.8670 C   0  0  0  0  0  0
  -28.5180   -1.8380   -6.2740 C   0  0  0  0  0  0
  -28.2400   -0.6760   -5.3510 C   0  0  0  0  0  0
  -27.4630   -1.0490   -4.3100 F   0  0  0  0  0  0
  -29.3580   -0.1020   -4.8300 F   0  0  0  0  0  0
  -27.5590    0.3410   -5.9330 F   0  0  0  0  0  0
  -29.8410   -3.1030   -4.2550 Cl  0  0  0  0  0  0
  -27.8280   -2.8300   -9.8150 N   0  0  0  0  0  0
  -26.5060   -2.2230  -11.6110 N   0  0  0  0  0  0
  -26.0690   -1.3750   -9.5210 O   0  0  0  0  0  0
  -21.7060    0.9720  -14.3350 C   0  0  0  0  0  0
  -20.7260    3.5610  -14.5500 N   0  0  0  0  0  0
  -18.5340    2.7020  -15.3410 C   0  0  0  0  0  0
  -17.8770    1.7200  -15.6900 O   0  0  0  0  0  0
  -27.5059   -0.9116   -7.9359 H   0  0  0  0  0  0
  -29.1716   -4.8021   -8.7450 H   0  0  0  0  0  0
  -30.0109   -4.9300   -6.4011 H   0  0  0  0  0  0
  -26.4342   -1.3769  -14.0734 H   0  0  0  0  0  0
  -24.4267   -0.5487  -15.2986 H   0  0  0  0  0  0
  -21.9877   -1.1926  -11.7941 H   0  0  0  0  0  0
  -23.9938   -2.0278  -10.5811 H   0  0  0  0  0  0
  -23.5648    1.8934  -13.6435 H   0  0  0  0  0  0
  -22.6122    4.1845  -13.8516 H   0  0  0  0  0  0
  -19.7563    0.3462  -15.0510 H   0  0  0  0  0  0
  -18.6738    4.8265  -15.0937 H   0  0  0  0  0  0
  -16.4762    5.3232  -15.8459 H   0  0  0  0  0  0
  -16.5711    3.8751  -16.9046 H   0  0  0  0  0  0
  -15.9602    3.7195  -15.2225 H   0  0  0  0  0  0
  -28.3340   -3.4365  -10.5806 H   0  0  0  0  0  0
  -27.2469   -2.7267  -12.2493 H   0  0  0  0  0  0
  1  2  2  0  0  0
  1 20  1  0  0  0
  1 33  1  0  0  0
  2  3  1  0  0  0
  2 26  1  0  0  0
  3  4  2  0  0  0
  3 34  1  0  0  0
  4 19  1  0  0  0
  4 35  1  0  0  0
  5 26  1  0  0  0
  5 27  1  0  0  0
  5 28  2  0  0  0
  6  7  2  0  0  0
  6 11  1  0  0  0
  6 27  1  0  0  0
  7  8  1  0  0  0
  7 36  1  0  0  0
  8  9  2  0  0  0
  8 37  1  0  0  0
  9 10  1  0  0  0
  9 12  1  0  0  0
 10 11  2  0  0  0
 10 38  1  0  0  0
 11 39  1  0  0  0
 12 29  1  0  0  0
 13 14  2  0  0  0
 13 29  1  0  0  0
 13 40  1  0  0  0
 14 30  1  0  0  0
 14 41  1  0  0  0
 15 16  1  0  0  0
 15 30  2  0  0  0
 15 31  1  0  0  0
 16 29  2  0  0  0
 16 42  1  0  0  0
 17 18  1  0  0  0
 17 31  1  0  0  0
 17 43  1  0  0  0
 18 44  1  0  0  0
 18 45  1  0  0  0
 18 46  1  0  0  0
 19 20  2  0  0  0
 19 25  1  0  0  0
 20 21  1  0  0  0
 21 22  1  0  0  0
 21 23  1  0  0  0
 21 24  1  0  0  0
 26 47  1  0  0  0
 27 48  1  0  0  0
 31 32  2  0  0  0
M  END
> <s_m_source_file>
../4asd_ligand.sdf

> <i_m_source_file_index>
1

> <s_epik_input>
W2NIXTFbY0hdYyhDbCljKEMoRikoRilGKVtjSF1jMVtOSF1DKD1PKVtOSF1jMltjSF1bY0hdYyhbY0hdW2NIXTIpT2MoW2NIXVtjSF1uMylbY0hdYzNDKD1PKVtOSF1bQ0gzXQ==

> <s_epik_cmdline>
J2VwaWtfYXBwJywgJy1pbWFlJywgJ2xpZ2FuZF9wcm8ubWFlJywgJy1vbWFlJywgJ2xpZ2FuZF9wcmVwLm1hZScsICctbXMnLCAnMScsICctcGgnLCAnNycsICctcGh0JywgJzAuNScsICctbnQn

> <r_lp_tautomer_probability>
1

> <r_epik_Ionization_Penalty>
  0.0154

> <r_epik_Ionization_Penalty_Charging>
  0.0000

> <r_epik_Ionization_Penalty_Neutral>
  0.0154

> <r_epik_State_Penalty>
 -0.0000

> <r_epik_Charging_Adjusted_Penalty>
0

> <i_epik_Tot_Q>
0

> <i_epik_Tot_abs_Q>
0

$$$$
