4ase_ligand
                    3D
 Schrodinger Suite 2020-3.
 51 54  0  0  1  0            999 V2000
  -17.6300    2.7790  -15.3340 C   0  0  0  0  0  0
  -18.7140    3.6850  -15.0630 C   0  0  0  0  0  0
  -19.9790    3.2350  -14.6380 C   0  0  0  0  0  0
  -20.1900    1.8090  -14.4750 C   0  0  0  0  0  0
  -19.1140    0.9040  -14.7440 C   0  0  0  0  0  0
  -17.8320    1.3680  -15.1690 C   0  0  0  0  0  0
  -20.9640    4.1450  -14.3900 N   0  0  0  0  0  0
  -22.1890    3.7070  -13.9770 C   0  0  0  0  0  0
  -22.5090    2.3630  -13.7890 C   0  0  0  0  0  0
  -21.4930    1.3840  -14.0430 C   0  0  0  0  0  0
  -21.6430   -0.0170  -13.9100 O   0  0  0  0  0  0
  -22.7290   -0.5670  -13.2810 C   0  0  0  0  0  0
  -24.0170   -0.6440  -13.9300 C   0  0  0  0  0  0
  -24.9190   -1.7030  -11.8990 C   0  0  0  0  0  0
  -23.6200   -1.6130  -11.2920 C   0  0  0  0  0  0
  -22.5350   -1.0490  -11.9750 C   0  0  0  0  0  0
  -29.2290   -2.9650   -6.3980 O   0  0  0  0  0  0
  -25.1120   -1.2140  -13.2280 C   0  0  0  0  0  0
  -26.0060   -2.2720  -11.1880 N   0  0  0  0  0  0
  -16.7350    0.5530  -15.4410 O   0  0  0  0  0  0
  -16.3620    3.1560  -15.7510 O   0  0  0  0  0  0
  -26.2770   -1.9530   -9.8480 C   0  0  0  0  0  0
  -25.6070   -1.1620   -9.1850 O   0  0  0  0  0  0
  -27.3930   -2.6630   -9.3840 N   0  0  0  0  0  0
  -27.9190   -2.5710   -8.0880 C   0  0  0  0  0  0
  -28.4190   -1.5800   -4.5830 C   0  0  0  0  0  0
  -28.3170   -2.0510   -5.9750 C   0  0  0  0  0  0
  -27.4700   -1.7670   -6.9950 C   0  0  0  0  0  0
  -28.9850   -3.2950   -7.7250 N   0  0  0  0  0  0
  -26.6600   -1.2990  -14.0030 Cl  0  0  0  0  0  0
  -16.8610   -0.8680  -15.2910 C   0  0  0  0  0  0
  -16.0740    4.5530  -15.9390 C   0  0  0  0  0  0
  -18.5509    4.7551  -15.1908 H   0  0  0  0  0  0
  -19.2774   -0.1667  -14.6213 H   0  0  0  0  0  0
  -22.9617    4.4509  -13.7829 H   0  0  0  0  0  0
  -23.5039    2.0650  -13.4581 H   0  0  0  0  0  0
  -24.1469   -0.2695  -14.9454 H   0  0  0  0  0  0
  -23.4759   -1.9911  -10.2799 H   0  0  0  0  0  0
  -21.5555   -0.9849  -11.5011 H   0  0  0  0  0  0
  -26.6728   -2.9913  -11.6861 H   0  0  0  0  0  0
  -27.9235   -3.3539  -10.0557 H   0  0  0  0  0  0
  -29.2682   -2.0754   -4.0896 H   0  0  0  0  0  0
  -28.5745   -0.4911   -4.5748 H   0  0  0  0  0  0
  -27.4904   -1.8218   -4.0451 H   0  0  0  0  0  0
  -26.6281   -1.0747   -6.9838 H   0  0  0  0  0  0
  -15.9055   -1.3497  -15.5458 H   0  0  0  0  0  0
  -17.6493   -1.2391  -15.9625 H   0  0  0  0  0  0
  -17.1248   -1.1048  -14.2497 H   0  0  0  0  0  0
  -15.0311    4.6713  -16.2683 H   0  0  0  0  0  0
  -16.2218    5.0888  -14.9898 H   0  0  0  0  0  0
  -16.7489    4.9670  -16.7027 H   0  0  0  0  0  0
  1  2  2  0  0  0
  1  6  1  0  0  0
  1 21  1  0  0  0
  2  3  1  0  0  0
  2 33  1  0  0  0
  3  4  2  0  0  0
  3  7  1  0  0  0
  4  5  1  0  0  0
  4 10  1  0  0  0
  5  6  2  0  0  0
  5 34  1  0  0  0
  6 20  1  0  0  0
  7  8  2  0  0  0
  8  9  1  0  0  0
  8 35  1  0  0  0
  9 10  2  0  0  0
  9 36  1  0  0  0
 10 11  1  0  0  0
 11 12  1  0  0  0
 12 13  2  0  0  0
 12 16  1  0  0  0
 13 18  1  0  0  0
 13 37  1  0  0  0
 14 15  1  0  0  0
 14 18  2  0  0  0
 14 19  1  0  0  0
 15 16  2  0  0  0
 15 38  1  0  0  0
 16 39  1  0  0  0
 17 27  1  0  0  0
 17 29  1  0  0  0
 18 30  1  0  0  0
 19 22  1  0  0  0
 19 40  1  0  0  0
 20 31  1  0  0  0
 21 32  1  0  0  0
 22 23  2  0  0  0
 22 24  1  0  0  0
 24 25  1  0  0  0
 24 41  1  0  0  0
 25 28  1  0  0  0
 25 29  2  0  0  0
 26 27  1  0  0  0
 26 42  1  0  0  0
 26 43  1  0  0  0
 26 44  1  0  0  0
 27 28  2  0  0  0
 28 45  1  0  0  0
 31 46  1  0  0  0
 31 47  1  0  0  0
 31 48  1  0  0  0
 32 49  1  0  0  0
 32 50  1  0  0  0
 32 51  1  0  0  0
M  END
> <s_m_source_file>
../4ase_ligand.sdf

> <i_m_source_file_index>
1

> <s_epik_input>
W0NIM11PYyhbY0hdMSljKE9bQ0gzXSlbY0hdYyhjMTIpYyhbY0hdW2NIXW4yKU9jM1tjSF1jKENsKWMoW2NIXVtjSF0zKVtOSF1DKD1PKVtOSF1jNFtjSF1jKG9uNClbQ0gzXQ==

> <s_epik_cmdline>
J2VwaWtfYXBwJywgJy1pbWFlJywgJ2xpZ2FuZF9wcm8ubWFlJywgJy1vbWFlJywgJ2xpZ2FuZF9wcmVwLm1hZScsICctbXMnLCAnMScsICctcGgnLCAnNycsICctcGh0JywgJzAuNScsICctbnQn

> <r_lp_tautomer_probability>
1

> <r_epik_Ionization_Penalty>
  0.0001

> <r_epik_Ionization_Penalty_Charging>
  0.0000

> <r_epik_Ionization_Penalty_Neutral>
  0.0001

> <r_epik_State_Penalty>
 -0.0000

> <r_epik_Charging_Adjusted_Penalty>
0

> <i_epik_Tot_Q>
0

> <i_epik_Tot_abs_Q>
0

$$$$
