4asj_ligand
                    3D
 Schrodinger Suite 2020-3.
 45 47  0  0  1  0            999 V2000
   34.5530  -23.6370   56.9570 C   0  0  0  0  0  0
   33.8250  -24.6250   56.2810 C   0  0  0  0  0  0
   33.6630  -24.5540   54.9000 C   0  0  0  0  0  0
   34.2400  -23.4940   54.2250 C   0  0  0  0  0  0
   34.9500  -22.5200   54.9070 C   0  0  0  0  0  0
   35.1150  -22.5760   56.2930 C   0  0  0  0  0  0
   35.8110  -21.5990   56.9980 C   0  0  0  0  0  0
   35.0940  -20.2560   56.9440 N   0  3  0  0  0  0
   34.1500  -19.8810   57.8890 C   0  0  0  0  0  0
   33.7720  -20.6210   58.9100 N   0  0  0  0  0  0
   35.3850  -19.4210   55.9440 C   0  0  0  0  0  0
   36.2070  -19.7450   55.0850 O   0  5  0  0  0  0
   34.7470  -18.1590   55.8610 N   0  0  0  0  0  0
   33.7750  -17.7750   56.8190 C   0  0  0  0  0  0
   33.1960  -16.6850   56.7260 O   0  0  0  0  0  0
   33.4860  -18.6840   57.8350 C   0  0  2  0  0  0
   32.6250  -18.3240   58.8330 N   0  0  3  0  0  0
   33.1420  -17.3340   59.7980 C   0  0  0  0  0  0
   31.0260  -18.7520   58.8950 S   0  0  0  0  0  0
   30.7660  -20.2760   58.9310 O   0  0  0  0  0  0
   30.4360  -18.1490   60.1260 O   0  0  0  0  0  0
   30.2820  -18.0680   57.5670 C   0  0  0  0  0  0
   30.4430  -18.6510   56.3300 C   0  0  0  0  0  0
   29.8210  -18.0870   55.2180 C   0  0  0  0  0  0
   29.0570  -16.9360   55.3890 C   0  0  0  0  0  0
   28.9050  -16.3430   56.6370 C   0  0  0  0  0  0
   29.5070  -16.9130   57.7260 C   0  0  0  0  0  0
   34.6759  -23.7132   58.0374 H   0  0  0  0  0  0
   33.3841  -25.4517   56.8380 H   0  0  0  0  0  0
   33.0955  -25.3150   54.3643 H   0  0  0  0  0  0
   34.1347  -23.4242   53.1424 H   0  0  0  0  0  0
   35.3894  -21.6921   54.3505 H   0  0  0  0  0  0
   35.9035  -21.9027   58.0512 H   0  0  0  0  0  0
   36.8136  -21.4766   56.5623 H   0  0  0  0  0  0
   34.2271  -21.6094   59.0713 H   0  0  0  0  0  0
   32.6582  -19.3319   57.5111 H   0  0  0  0  0  0
   34.2141  -17.1691   59.6152 H   0  0  0  0  0  0
   32.9981  -17.7100   60.8217 H   0  0  0  0  0  0
   32.5991  -16.3851   59.6762 H   0  0  0  0  0  0
   31.0530  -19.5478   56.2214 H   0  0  0  0  0  0
   29.9307  -18.5389   54.2321 H   0  0  0  0  0  0
   28.5665  -16.4893   54.5241 H   0  0  0  0  0  0
   28.3131  -15.4344   56.7471 H   0  0  0  0  0  0
   29.3834  -16.4691   58.7138 H   0  0  0  0  0  0
   33.0010  -20.2510   59.6019 H   0  0  0  0  0  0
  1  2  2  0  0  0
  1  6  1  0  0  0
  1 28  1  0  0  0
  2  3  1  0  0  0
  2 29  1  0  0  0
  3  4  2  0  0  0
  3 30  1  0  0  0
  4  5  1  0  0  0
  4 31  1  0  0  0
  5  6  2  0  0  0
  5 32  1  0  0  0
  6  7  1  0  0  0
  7  8  1  0  0  0
  7 33  1  0  0  0
  7 34  1  0  0  0
  8  9  2  0  0  0
  8 11  1  0  0  0
  9 10  1  0  0  0
  9 16  1  0  0  0
 10 35  1  0  0  0
 10 45  1  0  0  0
 11 12  1  0  0  0
 11 13  2  0  0  0
 13 14  1  0  0  0
 14 15  2  0  0  0
 14 16  1  0  0  0
 16 17  1  0  0  0
 16 36  1  0  0  0
 17 18  1  0  0  0
 17 19  1  0  0  0
 18 37  1  0  0  0
 18 38  1  0  0  0
 18 39  1  0  0  0
 19 20  2  0  0  0
 19 21  2  0  0  0
 19 22  1  0  0  0
 22 23  2  0  0  0
 22 27  1  0  0  0
 23 24  1  0  0  0
 23 40  1  0  0  0
 24 25  2  0  0  0
 24 41  1  0  0  0
 25 26  1  0  0  0
 25 42  1  0  0  0
 26 27  2  0  0  0
 26 43  1  0  0  0
 27 44  1  0  0  0
M  CHG  2   8   1  12  -1
M  END
> <s_m_source_file>
../4asj_ligand.sdf

> <i_m_source_file_index>
1

> <s_epik_input>
W2NIXTFbY0hdW2NIXVtjSF1bY0hdYzFbQ0gyXU4yL0MoPU5cW0hdKVtDQEhdKEMoPU8pW05IXUMyPU8pTihbQ0gzXSlTKD1PKSg9TyljM1tjSF1bY0hdW2NIXVtjSF1bY0hdMw==

> <s_epik_cmdline>
J2VwaWtfYXBwJywgJy1pbWFlJywgJ2xpZ2FuZF9wcm8ubWFlJywgJy1vbWFlJywgJ2xpZ2FuZF9wcmVwLm1hZScsICctbXMnLCAnMScsICctcGgnLCAnNycsICctcGh0JywgJzAuNScsICctbnQn

> <r_epik_Ionization_Penalty>
  0.1630

> <r_epik_Ionization_Penalty_Charging>
  0.1630

> <r_epik_Ionization_Penalty_Neutral>
  0.0000

> <r_epik_State_Penalty>
  0.6063

> <r_epik_Charging_Adjusted_Penalty>
0.769250973426344

> <i_epik_Tot_Q>
0

> <i_epik_Tot_abs_Q>
2

> <s_epik_Chemistry_Notes>
This compound has an imine and may undergo hydrolysis.

$$$$
