4ask_ligand
                    3D
 Schrodinger Suite 2020-3.
 51 54  0  0  1  0            999 V2000
   47.7830   19.3300  -21.8310 O   0  0  0  0  0  0
   48.9660   19.6350  -21.8470 C   0  0  0  0  0  0
   49.5290   20.3580  -22.8130 O   0  5  0  0  0  0
   49.9300   19.2240  -20.7590 C   0  0  0  0  0  0
   49.7830   17.7690  -20.3450 C   0  0  0  0  0  0
   50.4600   17.4790  -19.0920 N   0  0  0  0  0  0
   50.4570   16.2390  -18.5450 C   0  0  0  0  0  0
   51.2090   16.0710  -17.4480 N   0  0  0  0  0  0
   51.2000   14.8370  -16.8940 C   0  0  0  0  0  0
   52.0400   14.6320  -15.6830 C   0  0  0  0  0  0
   52.7060   15.7050  -15.2170 N   0  0  0  0  0  0
   53.4840   15.5340  -14.1440 C   0  0  0  0  0  0
   53.6230   14.3250  -13.4760 C   0  0  0  0  0  0
   52.9260   13.2320  -13.9630 C   0  0  0  0  0  0
   52.1220   13.3710  -15.0790 C   0  0  0  0  0  0
   50.5060   13.7770  -17.3420 N   0  0  0  0  0  0
   49.7810   13.9730  -18.4460 C   0  0  0  0  0  0
   49.7150   15.2090  -19.0770 C   0  0  0  0  0  0
   49.0270   12.8880  -18.8750 N   0  0  0  0  0  0
   48.1710   12.9280  -20.0620 C   0  0  0  0  0  0
   46.8740   13.5550  -19.5460 C   0  0  0  0  0  0
   45.9530   12.5770  -18.8320 C   0  0  0  0  0  0
   46.3640   11.8330  -17.7160 C   0  0  0  0  0  0
   47.7490   11.9360  -17.1090 C   0  0  0  0  0  0
   48.9310   11.6860  -18.0540 C   0  0  0  0  0  0
   44.6450   12.4490  -19.3190 C   0  0  0  0  0  0
   43.7460   11.5870  -18.7060 C   0  0  0  0  0  0
   44.1420   10.8450  -17.6000 C   0  0  0  0  0  0
   45.4410   10.9720  -17.1070 C   0  0  0  0  0  0
   50.9624   19.3659  -21.1111 H   0  0  0  0  0  0
   49.7593   19.8420  -19.8652 H   0  0  0  0  0  0
   48.7168   17.5297  -20.2186 H   0  0  0  0  0  0
   50.2145   17.1212  -21.1223 H   0  0  0  0  0  0
   50.9956   18.2780  -18.5585 H   0  0  0  0  0  0
   54.0416   16.3934  -13.7718 H   0  0  0  0  0  0
   54.2605   14.2388  -12.5961 H   0  0  0  0  0  0
   53.0111   12.2647  -13.4678 H   0  0  0  0  0  0
   51.5669   12.5221  -15.4781 H   0  0  0  0  0  0
   49.0971   15.3579  -19.9625 H   0  0  0  0  0  0
   48.6512   13.5398  -20.8399 H   0  0  0  0  0  0
   48.0205   11.9061  -20.4402 H   0  0  0  0  0  0
   47.1131   14.3558  -18.8308 H   0  0  0  0  0  0
   46.3082   13.9748  -20.3908 H   0  0  0  0  0  0
   47.8973   12.9478  -16.7036 H   0  0  0  0  0  0
   47.8504   11.1982  -16.2995 H   0  0  0  0  0  0
   48.7538   10.8137  -18.7003 H   0  0  0  0  0  0
   49.8698   11.5457  -17.4981 H   0  0  0  0  0  0
   44.3313   13.0308  -20.1857 H   0  0  0  0  0  0
   42.7309   11.4924  -19.0917 H   0  0  0  0  0  0
   43.4392   10.1651  -17.1185 H   0  0  0  0  0  0
   45.7427   10.3925  -16.2345 H   0  0  0  0  0  0
  1  2  2  0  0  0
  2  3  1  0  0  0
  2  4  1  0  0  0
  4  5  1  0  0  0
  4 30  1  0  0  0
  4 31  1  0  0  0
  5  6  1  0  0  0
  5 32  1  0  0  0
  5 33  1  0  0  0
  6  7  1  0  0  0
  6 34  1  0  0  0
  7  8  2  0  0  0
  7 18  1  0  0  0
  8  9  1  0  0  0
  9 10  1  0  0  0
  9 16  2  0  0  0
 10 11  2  0  0  0
 10 15  1  0  0  0
 11 12  1  0  0  0
 12 13  2  0  0  0
 12 35  1  0  0  0
 13 14  1  0  0  0
 13 36  1  0  0  0
 14 15  2  0  0  0
 14 37  1  0  0  0
 15 38  1  0  0  0
 16 17  1  0  0  0
 17 18  2  0  0  0
 17 19  1  0  0  0
 18 39  1  0  0  0
 19 20  1  0  0  0
 19 25  1  0  0  0
 20 21  1  0  0  0
 20 40  1  0  0  0
 20 41  1  0  0  0
 21 22  1  0  0  0
 21 42  1  0  0  0
 21 43  1  0  0  0
 22 23  2  0  0  0
 22 26  1  0  0  0
 23 24  1  0  0  0
 23 29  1  0  0  0
 24 25  1  0  0  0
 24 44  1  0  0  0
 24 45  1  0  0  0
 25 46  1  0  0  0
 25 47  1  0  0  0
 26 27  2  0  0  0
 26 48  1  0  0  0
 27 28  1  0  0  0
 27 49  1  0  0  0
 28 29  2  0  0  0
 28 50  1  0  0  0
 29 51  1  0  0  0
M  CHG  1   3  -1
M  END
> <s_m_source_file>
../4ask_ligand.sdf

> <i_m_source_file_index>
1

> <s_epik_input>
Tz1DKFtPSF0pW0NIMl1bQ0gyXVtOSF1jMW5jKC1jMm5bY0hdW2NIXVtjSF1bY0hdMiluYyhbY0hdMSlOKFtDSDJdW0NIMl0zKVtDSDJdW0NIMl1jKGMzNClbY0hdW2NIXVtjSF1bY0hdNA==

> <s_epik_cmdline>
J2VwaWtfYXBwJywgJy1pbWFlJywgJ2xpZ2FuZF9wcm8ubWFlJywgJy1vbWFlJywgJ2xpZ2FuZF9wcmVwLm1hZScsICctbXMnLCAnMScsICctcGgnLCAnNycsICctcGh0JywgJzAuNScsICctbnQn

> <r_lp_tautomer_probability>
1

> <r_epik_Ionization_Penalty>
  0.0123

> <r_epik_Ionization_Penalty_Charging>
  0.0042

> <r_epik_Ionization_Penalty_Neutral>
  0.0082

> <r_epik_State_Penalty>
 -0.0000

> <r_epik_Charging_Adjusted_Penalty>
0.00415787387767391

> <i_epik_Tot_Q>
-1

> <i_epik_Tot_abs_Q>
1

$$$$
