4asy_ligand
                    3D
 Schrodinger Suite 2020-3.
 44 46  0  0  1  0            999 V2000
   13.4760   -0.1410    3.1730 C   0  0  0  0  0  0
   14.4790    0.8030    2.9490 C   0  0  0  0  0  0
   15.6340    0.7780    3.7270 C   0  0  0  0  0  0
   15.7760   -0.2020    4.7010 C   0  0  0  0  0  0
   14.7810   -1.1470    4.9300 C   0  0  0  0  0  0
   13.6130   -1.1150    4.1740 C   0  0  0  0  0  0
   12.5490   -2.0280    4.3110 C   0  0  0  0  0  0
   12.3810   -2.8770    5.5620 N   0  3  0  0  0  0
   11.4100   -2.5800    6.4510 C   0  0  0  0  0  0
   10.6350   -1.4870    6.3140 N   0  0  0  0  0  0
   13.1230   -4.0010    5.7270 C   0  0  0  0  0  0
   13.9910   -4.2800    4.8940 O   0  5  0  0  0  0
   12.9440   -4.8520    6.8430 N   0  0  0  0  0  0
   11.9570   -4.5400    7.8060 C   0  0  0  0  0  0
   11.8020   -5.2620    8.7960 O   0  0  0  0  0  0
   11.2050   -3.3680    7.5970 C   0  0  2  0  0  0
   10.2030   -3.0410    8.4400 N   0  0  0  0  0  0
    9.2810   -2.5090   10.4160 O   0  0  0  0  0  0
   10.2980   -2.7160    9.7520 C   0  0  0  0  0  0
   11.5410   -2.5870   10.3840 C   0  0  0  0  0  0
   12.6490   -1.9760    9.7780 C   0  0  0  0  0  0
   13.8470   -1.8470   10.4830 C   0  0  0  0  0  0
   13.9350   -2.3200   11.7890 C   0  0  0  0  0  0
   12.8410   -2.9050   12.4000 C   0  0  0  0  0  0
    8.8290   -3.1820    7.9170 C   0  0  0  0  0  0
   11.6460   -3.0410   11.7040 C   0  0  0  0  0  0
   12.5736   -0.1216    2.5620 H   0  0  0  0  0  0
   14.3592    1.5556    2.1697 H   0  0  0  0  0  0
   16.4180    1.5195    3.5732 H   0  0  0  0  0  0
   16.6869   -0.2313    5.2990 H   0  0  0  0  0  0
   14.9156   -1.9088    5.6979 H   0  0  0  0  0  0
   11.5925   -1.4887    4.2460 H   0  0  0  0  0  0
   12.6029   -2.7771    3.5073 H   0  0  0  0  0  0
   10.7536   -0.8352    5.4359 H   0  0  0  0  0  0
   11.6217   -2.8402    8.4675 H   0  0  0  0  0  0
   12.5745   -1.6021    8.7569 H   0  0  0  0  0  0
   14.7107   -1.3774   10.0122 H   0  0  0  0  0  0
   14.8741   -2.2286   12.3348 H   0  0  0  0  0  0
   12.9161   -3.2596   13.4280 H   0  0  0  0  0  0
    8.8682   -3.4454    6.8497 H   0  0  0  0  0  0
    8.2903   -2.2309    8.0404 H   0  0  0  0  0  0
    8.3052   -3.9747    8.4713 H   0  0  0  0  0  0
   10.7860   -3.5035   12.1883 H   0  0  0  0  0  0
    9.8834   -1.2461    7.0802 H   0  0  0  0  0  0
  1  2  2  0  0  0
  1  6  1  0  0  0
  1 27  1  0  0  0
  2  3  1  0  0  0
  2 28  1  0  0  0
  3  4  2  0  0  0
  3 29  1  0  0  0
  4  5  1  0  0  0
  4 30  1  0  0  0
  5  6  2  0  0  0
  5 31  1  0  0  0
  6  7  1  0  0  0
  7  8  1  0  0  0
  7 32  1  0  0  0
  7 33  1  0  0  0
  8  9  2  0  0  0
  8 11  1  0  0  0
  9 10  1  0  0  0
  9 16  1  0  0  0
 10 34  1  0  0  0
 10 44  1  0  0  0
 11 12  1  0  0  0
 11 13  2  0  0  0
 13 14  1  0  0  0
 14 15  2  0  0  0
 14 16  1  0  0  0
 16 17  1  0  0  0
 16 35  1  0  0  0
 17 19  1  0  0  0
 17 25  1  0  0  0
 18 19  2  0  0  0
 19 20  1  0  0  0
 20 21  2  0  0  0
 20 26  1  0  0  0
 21 22  1  0  0  0
 21 36  1  0  0  0
 22 23  2  0  0  0
 22 37  1  0  0  0
 23 24  1  0  0  0
 23 38  1  0  0  0
 24 26  2  0  0  0
 24 39  1  0  0  0
 25 40  1  0  0  0
 25 41  1  0  0  0
 25 42  1  0  0  0
 26 43  1  0  0  0
M  CHG  2   8   1  12  -1
M  END
> <s_m_source_file>
../4asy_ligand.sdf

> <i_m_source_file_index>
1

> <s_epik_input>
W2NIXTFbY0hdW2NIXVtjSF1bY0hdYzFbQ0gyXU4yL0MoPU5cW0hdKVtDQEhdKEMoPU8pW05IXUMyPU8pTihbQ0gzXSlDKD1PKWMzW2NIXVtjSF1bY0hdW2NIXVtjSF0z

> <s_epik_cmdline>
J2VwaWtfYXBwJywgJy1pbWFlJywgJ2xpZ2FuZF9wcm8ubWFlJywgJy1vbWFlJywgJ2xpZ2FuZF9wcmVwLm1hZScsICctbXMnLCAnMScsICctcGgnLCAnNycsICctcGh0JywgJzAuNScsICctbnQn

> <r_epik_Ionization_Penalty>
  0.2985

> <r_epik_Ionization_Penalty_Charging>
  0.2985

> <r_epik_Ionization_Penalty_Neutral>
  0.0000

> <r_epik_State_Penalty>
  0.6334

> <r_epik_Charging_Adjusted_Penalty>
0.931951115751954

> <i_epik_Tot_Q>
0

> <i_epik_Tot_abs_Q>
2

> <s_epik_Chemistry_Notes>
This compound has an imine and may undergo hydrolysis.

$$$$
