4at3_ligand
                    3D
 Schrodinger Suite 2020-3.
 42 44  0  0  1  0            999 V2000
   13.3220  -25.5450  -17.7510 C   0  0  0  0  0  0
   12.0560  -24.9430  -17.8780 C   0  0  0  0  0  0
   13.4100  -26.9620  -17.7420 C   0  0  0  0  0  0
   10.8950  -25.7770  -17.9850 C   0  0  0  0  0  0
    8.2370  -27.5110  -14.1870 C   0  0  0  0  0  0
   12.2720  -27.7940  -17.8540 C   0  0  0  0  0  0
   10.9900  -27.1960  -17.9800 C   0  0  0  0  0  0
    8.2630  -27.6670  -15.6210 C   0  0  0  0  0  0
    7.3380  -26.4760  -13.8760 C   0  0  0  0  0  0
    8.9480  -28.2450  -13.1180 C   0  0  0  0  0  0
    6.1130  -25.0490  -12.2380 C   0  0  0  0  0  0
   12.4860  -29.2770  -17.8230 C   0  0  0  0  0  0
   12.0320  -29.9220  -19.1090 C   0  0  0  0  0  0
   10.5490  -30.2020  -19.0960 C   0  0  0  0  0  0
    9.7540  -28.9280  -19.3110 C   0  0  0  0  0  0
    9.7150  -27.9930  -18.0920 C   0  0  1  0  0  0
    7.4910  -26.8530  -16.3430 N   0  0  0  0  0  0
    9.9860  -29.0250  -13.5250 N   0  0  0  0  0  0
    6.0130  -24.8860  -10.8790 N   0  0  0  0  0  0
    7.0030  -26.0360  -12.5910 N   0  0  0  0  0  0
    8.6470  -28.1510  -11.9300 O   0  0  0  0  0  0
    5.4600  -24.3810  -13.0240 O   0  0  0  0  0  0
    6.6570  -25.8130  -15.3220 S   0  0  0  0  0  0
    9.2060  -28.8400  -16.5220 S   0  0  0  0  0  0
   14.2198  -24.9335  -17.6611 H   0  0  0  0  0  0
   11.9597  -23.8574  -17.8948 H   0  0  0  0  0  0
   14.3915  -27.4260  -17.6451 H   0  0  0  0  0  0
    9.9134  -25.3113  -18.0725 H   0  0  0  0  0  0
   13.5560  -29.4902  -17.6828 H   0  0  0  0  0  0
   11.9132  -29.7128  -16.9912 H   0  0  0  0  0  0
   12.2516  -29.2515  -19.9529 H   0  0  0  0  0  0
   12.5642  -30.8744  -19.2493 H   0  0  0  0  0  0
   10.3028  -30.9116  -19.8997 H   0  0  0  0  0  0
   10.2661  -30.6350  -18.1252 H   0  0  0  0  0  0
   10.1950  -28.3562  -20.1408 H   0  0  0  0  0  0
    8.7119  -29.1827  -19.5543 H   0  0  0  0  0  0
    9.0609  -27.1926  -18.4682 H   0  0  0  0  0  0
   10.2365  -29.0933  -14.5939 H   0  0  0  0  0  0
   10.5746  -29.5872  -12.7851 H   0  0  0  0  0  0
    6.6192  -25.5084  -10.2043 H   0  0  0  0  0  0
    5.3267  -24.1330  -10.4644 H   0  0  0  0  0  0
    7.4758  -26.4969  -11.7112 H   0  0  0  0  0  0
  1  2  2  0  0  0
  1  3  1  0  0  0
  1 25  1  0  0  0
  2  4  1  0  0  0
  2 26  1  0  0  0
  3  6  2  0  0  0
  3 27  1  0  0  0
  4  7  2  0  0  0
  4 28  1  0  0  0
  5  8  1  0  0  0
  5  9  2  0  0  0
  5 10  1  0  0  0
  6  7  1  0  0  0
  6 12  1  0  0  0
  7 16  1  0  0  0
  8 17  2  0  0  0
  8 24  1  0  0  0
  9 20  1  0  0  0
  9 23  1  0  0  0
 10 18  1  0  0  0
 10 21  2  0  0  0
 11 19  1  0  0  0
 11 20  1  0  0  0
 11 22  2  0  0  0
 12 13  1  0  0  0
 12 29  1  0  0  0
 12 30  1  0  0  0
 13 14  1  0  0  0
 13 31  1  0  0  0
 13 32  1  0  0  0
 14 15  1  0  0  0
 14 33  1  0  0  0
 14 34  1  0  0  0
 15 16  1  0  0  0
 15 35  1  0  0  0
 15 36  1  0  0  0
 16 24  1  0  0  0
 16 37  1  0  0  0
 17 23  1  0  0  0
 18 38  1  0  0  0
 18 39  1  0  0  0
 19 40  1  0  0  0
 19 41  1  0  0  0
 20 42  1  0  0  0
M  END
> <s_m_source_file>
../4at3_ligand.sdf

> <i_m_source_file_index>
1

> <s_epik_input>
W2NIXTFbY0hdW2NIXVtjSF1jKGMxMilbQ0BASF0oW0NIMl1bQ0gyXVtDSDJdW0NIMl0yKVNjKGMzQyg9TylbTkgyXSluc2MzW05IXUMoPU8pW05IMl0=

> <s_epik_cmdline>
J2VwaWtfYXBwJywgJy1pbWFlJywgJ2xpZ2FuZF9wcm8ubWFlJywgJy1vbWFlJywgJ2xpZ2FuZF9wcmVwLm1hZScsICctbXMnLCAnMScsICctcGgnLCAnNycsICctcGh0JywgJzAuNScsICctbnQn

> <r_lp_tautomer_probability>
1

> <r_epik_Ionization_Penalty>
  0.0000

> <r_epik_Ionization_Penalty_Charging>
  0.0000

> <r_epik_Ionization_Penalty_Neutral>
  0.0000

> <r_epik_State_Penalty>
 -0.0000

> <r_epik_Charging_Adjusted_Penalty>
0

> <i_epik_Tot_Q>
0

> <i_epik_Tot_abs_Q>
0

$$$$
