4at5_ligand
                    3D
 Schrodinger Suite 2020-3.
 50 52  0  0  1  0            999 V2000
   -9.2660   27.1160  -13.5870 N   0  0  0  0  0  0
   -8.7370   27.1420  -15.9480 C   0  0  0  0  0  0
   -9.4160   27.6670  -14.8070 C   0  0  0  0  0  0
   -7.9340   26.0530  -15.7100 C   0  0  0  0  0  0
   -8.4470   26.0470  -13.4930 C   0  0  0  0  0  0
   -7.7640   25.4820  -14.5130 N   0  3  0  0  0  0
   -8.8860   27.7420  -17.3330 C   0  0  0  0  0  0
  -10.3170   27.9800  -17.7750 C   0  0  0  0  0  0
  -12.0360   29.4680  -18.5870 C   0  0  0  0  0  0
  -10.7350   29.2380  -18.1820 C   0  0  0  0  0  0
  -12.9450   28.4260  -18.5890 C   0  0  0  0  0  0
  -11.2350   26.9370  -17.7780 C   0  0  0  0  0  0
  -12.5380   27.1480  -18.1800 C   0  0  0  0  0  0
  -13.5060   26.1830  -18.2150 O   0  0  0  0  0  0
  -13.1420   24.8680  -17.8090 C   0  0  0  0  0  0
  -14.2540   28.5460  -18.9700 O   0  0  0  0  0  0
  -14.7340   29.8590  -19.2850 C   0  0  0  0  0  0
  -16.2290   29.8190  -19.3970 C   0  0  0  0  0  0
  -18.2210   29.3830  -20.6830 C   0  0  0  0  0  0
  -16.8440   29.4230  -20.5740 C   0  0  0  0  0  0
  -19.0050   29.7420  -19.6030 C   0  0  0  0  0  0
  -17.0320   30.1760  -18.3250 C   0  0  0  0  0  0
  -18.4100   30.1400  -18.4210 C   0  0  0  0  0  0
  -20.3690   29.7050  -19.7040 O   0  0  0  0  0  0
  -20.9270   29.2870  -20.9460 C   0  0  0  0  0  0
  -10.2270   28.7230  -14.8930 N   0  0  0  0  0  0
   -8.3010   25.5040  -12.2830 N   0  0  0  0  0  0
   -7.3977   25.6243  -16.5566 H   0  0  0  0  0  0
   -8.3785   28.7173  -17.3666 H   0  0  0  0  0  0
   -8.4339   27.0677  -18.0753 H   0  0  0  0  0  0
  -12.3438   30.4648  -18.9030 H   0  0  0  0  0  0
  -10.0224   30.0628  -18.1825 H   0  0  0  0  0  0
  -10.9228   25.9424  -17.4597 H   0  0  0  0  0  0
  -14.0157   24.2045  -17.8892 H   0  0  0  0  0  0
  -12.7925   24.8898  -16.7662 H   0  0  0  0  0  0
  -12.3365   24.4937  -18.4579 H   0  0  0  0  0  0
  -14.4405   30.5577  -18.4877 H   0  0  0  0  0  0
  -14.2993   30.1890  -20.2401 H   0  0  0  0  0  0
  -18.6870   29.0695  -21.6172 H   0  0  0  0  0  0
  -16.2308   29.1380  -21.4289 H   0  0  0  0  0  0
  -16.5684   30.4906  -17.3900 H   0  0  0  0  0  0
  -19.0254   30.4245  -17.5675 H   0  0  0  0  0  0
  -22.0248   29.3067  -20.8799 H   0  0  0  0  0  0
  -20.5916   28.2643  -21.1729 H   0  0  0  0  0  0
  -20.5955   29.9673  -21.7443 H   0  0  0  0  0  0
  -10.7344   29.1015  -13.9934 H   0  0  0  0  0  0
  -10.3882   29.2151  -15.8635 H   0  0  0  0  0  0
   -8.8366   25.9288  -11.4212 H   0  0  0  0  0  0
   -7.6450   24.6315  -12.1472 H   0  0  0  0  0  0
   -7.1018   24.6099  -14.4087 H   0  0  0  0  0  0
  1  3  2  0  0  0
  1  5  1  0  0  0
  2  3  1  0  0  0
  2  4  2  0  0  0
  2  7  1  0  0  0
  3 26  1  0  0  0
  4  6  1  0  0  0
  4 28  1  0  0  0
  5  6  2  0  0  0
  5 27  1  0  0  0
  6 50  1  0  0  0
  7  8  1  0  0  0
  7 29  1  0  0  0
  7 30  1  0  0  0
  8 10  2  0  0  0
  8 12  1  0  0  0
  9 10  1  0  0  0
  9 11  2  0  0  0
  9 31  1  0  0  0
 10 32  1  0  0  0
 11 13  1  0  0  0
 11 16  1  0  0  0
 12 13  2  0  0  0
 12 33  1  0  0  0
 13 14  1  0  0  0
 14 15  1  0  0  0
 15 34  1  0  0  0
 15 35  1  0  0  0
 15 36  1  0  0  0
 16 17  1  0  0  0
 17 18  1  0  0  0
 17 37  1  0  0  0
 17 38  1  0  0  0
 18 20  2  0  0  0
 18 22  1  0  0  0
 19 20  1  0  0  0
 19 21  2  0  0  0
 19 39  1  0  0  0
 20 40  1  0  0  0
 21 23  1  0  0  0
 21 24  1  0  0  0
 22 23  2  0  0  0
 22 41  1  0  0  0
 23 42  1  0  0  0
 24 25  1  0  0  0
 25 43  1  0  0  0
 25 44  1  0  0  0
 25 45  1  0  0  0
 26 46  1  0  0  0
 26 47  1  0  0  0
 27 48  1  0  0  0
 27 49  1  0  0  0
M  CHG  1   6   1
M  END
> <s_m_source_file>
../4at5_ligand.sdf

> <i_m_source_file_index>
1

> <s_epik_input>
W2NIXTFuYyhbTkgyXSluYyhbTkgyXSljMVtDSDJdYzJbY0hdW2NIXWMoYyhbY0hdMilPW0NIM10pT1tDSDJdYzNbY0hdW2NIXWMoW2NIXVtjSF0zKU9bQ0gzXQ==

> <s_epik_cmdline>
J2VwaWtfYXBwJywgJy1pbWFlJywgJ2xpZ2FuZF9wcm8ubWFlJywgJy1vbWFlJywgJ2xpZ2FuZF9wcmVwLm1hZScsICctbXMnLCAnMScsICctcGgnLCAnNycsICctcGh0JywgJzAuNScsICctbnQn

> <r_lp_tautomer_probability>
0.575010577011949

> <r_epik_Ionization_Penalty>
  0.2380

> <r_epik_Ionization_Penalty_Charging>
  0.2380

> <r_epik_Ionization_Penalty_Neutral>
  0.0000

> <r_epik_State_Penalty>
  0.4697

> <r_epik_Charging_Adjusted_Penalty>
0.707697881122565

> <i_epik_Tot_Q>
1

> <i_epik_Tot_abs_Q>
1

$$$$
