4att_ligand
                    3D
 Schrodinger Suite 2020-3.
 43 44  0  0  1  0            999 V2000
  -13.8700    3.3380   -9.3870 O   0  0  0  0  0  0
  -14.4870    3.2420  -10.6210 C   0  0  0  0  0  0
  -14.3710    1.9080  -11.2600 C   0  0  1  0  0  0
  -12.9970    1.6300  -11.3740 O   0  0  0  0  0  0
  -15.0520    0.7970  -10.4520 C   0  0  1  0  0  0
  -16.4590    1.0590  -10.3500 O   0  0  0  0  0  0
  -14.7760   -0.4770  -11.0260 C   0  0  2  0  0  0
  -15.3580   -1.5630  -10.1910 O   0  0  0  0  0  0
  -13.3930   -0.7460  -11.2460 C   0  0  2  0  0  0
  -12.6580   -0.8730  -10.0280 O   0  0  0  0  0  0
  -12.7300    0.4000  -11.9930 C   0  0  1  0  0  0
  -13.1160    0.4050  -13.3020 O   0  0  0  0  0  0
  -12.4850    1.3360  -14.0790 C   0  0  0  0  0  0
  -13.0820    1.5560  -15.4130 C   0  0  0  0  0  0
  -13.5460    1.7270  -16.5120 C   0  0  0  0  0  0
  -14.0920    1.9210  -17.8710 C   0  0  0  0  0  0
  -15.3740    1.5010  -18.1870 C   0  0  0  0  0  0
  -15.8660    1.7080  -19.4690 C   0  0  0  0  0  0
  -15.0570    2.3360  -20.4110 C   0  0  0  0  0  0
  -15.5080    2.5540  -21.6940 O   0  0  0  0  0  0
  -16.8310    2.2940  -21.9940 C   0  0  0  0  0  0
  -13.7810    2.7500  -20.0820 C   0  0  0  0  0  0
  -13.2880    2.5540  -18.8070 C   0  0  0  0  0  0
  -13.8984    4.2862   -8.8301 H   0  0  0  0  0  0
  -15.5608    3.4538  -10.5115 H   0  0  0  0  0  0
  -14.0384    3.9701  -11.3129 H   0  0  0  0  0  0
  -14.8077    1.9496  -12.2688 H   0  0  0  0  0  0
  -14.6881    0.7169   -9.4170 H   0  0  0  0  0  0
  -16.8120    2.0095   -9.9235 H   0  0  0  0  0  0
  -15.2195   -0.4086  -12.0303 H   0  0  0  0  0  0
  -16.4217   -1.5326   -9.9125 H   0  0  0  0  0  0
  -13.4043   -1.7153  -11.7660 H   0  0  0  0  0  0
  -12.9383   -1.6430   -9.2942 H   0  0  0  0  0  0
  -11.6335    0.3258  -12.0405 H   0  0  0  0  0  0
  -12.4975    2.3097  -13.5674 H   0  0  0  0  0  0
  -11.4438    1.0254  -14.2508 H   0  0  0  0  0  0
  -15.9921    1.0114  -17.4344 H   0  0  0  0  0  0
  -16.8722    1.3830  -19.7337 H   0  0  0  0  0  0
  -17.0182    2.5214  -23.0538 H   0  0  0  0  0  0
  -17.4797    2.9207  -21.3644 H   0  0  0  0  0  0
  -17.0486    1.2329  -21.8027 H   0  0  0  0  0  0
  -13.1587    3.2349  -20.8341 H   0  0  0  0  0  0
  -12.2858    2.8905  -18.5413 H   0  0  0  0  0  0
  1  2  1  0  0  0
  1 24  1  0  0  0
  2  3  1  0  0  0
  2 25  1  0  0  0
  2 26  1  0  0  0
  3  4  1  0  0  0
  3  5  1  0  0  0
  3 27  1  0  0  0
  4 11  1  0  0  0
  5  6  1  0  0  0
  5  7  1  0  0  0
  5 28  1  0  0  0
  6 29  1  0  0  0
  7  8  1  0  0  0
  7  9  1  0  0  0
  7 30  1  0  0  0
  8 31  1  0  0  0
  9 10  1  0  0  0
  9 11  1  0  0  0
  9 32  1  0  0  0
 10 33  1  0  0  0
 11 12  1  0  0  0
 11 34  1  0  0  0
 12 13  1  0  0  0
 13 14  1  0  0  0
 13 35  1  0  0  0
 13 36  1  0  0  0
 14 15  3  0  0  0
 15 16  1  0  0  0
 16 17  2  0  0  0
 16 23  1  0  0  0
 17 18  1  0  0  0
 17 37  1  0  0  0
 18 19  2  0  0  0
 18 38  1  0  0  0
 19 20  1  0  0  0
 19 22  1  0  0  0
 20 21  1  0  0  0
 21 39  1  0  0  0
 21 40  1  0  0  0
 21 41  1  0  0  0
 22 23  2  0  0  0
 22 42  1  0  0  0
 23 43  1  0  0  0
M  END
> <s_m_source_file>
../4att_ligand.sdf

> <i_m_source_file_index>
1

> <s_epik_input>
W09IXVtDSDJdW0NASF0xT1tDQEBIXShbQ0BASF0oW09IXSlbQ0BASF0oW09IXSlbQ0BASF0xW09IXSlPW0NIMl1DI0NjMltjSF1bY0hdYyhPW0NIM10pW2NIXVtjSF0y

> <s_epik_cmdline>
J2VwaWtfYXBwJywgJy1pbWFlJywgJ2xpZ2FuZF9wcm8ubWFlJywgJy1vbWFlJywgJ2xpZ2FuZF9wcmVwLm1hZScsICctbXMnLCAnMScsICctcGgnLCAnNycsICctcGh0JywgJzAuNScsICctbnQn

> <r_lp_tautomer_probability>
1

> <r_epik_Ionization_Penalty>
  0.0000

> <r_epik_Ionization_Penalty_Charging>
  0.0000

> <r_epik_Ionization_Penalty_Neutral>
  0.0000

> <r_epik_State_Penalty>
 -0.0000

> <r_epik_Charging_Adjusted_Penalty>
0

> <i_epik_Tot_Q>
0

> <i_epik_Tot_abs_Q>
0

> <s_epik_Chemistry_Notes>
This compound contains an acetal/aminal-like group ( X-CH(R)-Y where X, Y are N, S, or O) that may be acid/base labile, releasing an aldehyde.

$$$$
