4aua_ligand
                    3D
 Schrodinger Suite 2020-3.
 24 26  0  0  1  0            999 V2000
   19.7440   36.7150  -11.4760 C   0  0  0  0  0  0
   20.4400   36.6030  -10.2840 C   0  0  0  0  0  0
   21.4400   35.6510  -10.1810 C   0  0  0  0  0  0
   21.7230   34.8270  -11.2590 C   0  0  0  0  0  0
   21.0180   34.9280  -12.4450 C   0  0  0  0  0  0
   20.0240   35.8810  -12.5420 C   0  0  0  0  0  0
   23.0510   34.3110   -9.5830 C   0  0  0  0  0  0
   22.2870   35.3350   -9.1040 N   0  0  0  0  0  0
   24.1190   33.6000   -8.8790 C   0  0  0  0  0  0
   24.4020   33.9030   -7.4640 C   0  0  0  0  0  0
   23.7880   34.7400   -6.5310 C   0  0  0  0  0  0
   24.4830   34.6160   -5.3330 C   0  0  0  0  0  0
   25.5190   33.7020   -5.5510 C   0  0  0  0  0  0
   25.4550   33.2800   -6.8380 N   0  0  0  0  0  0
   22.7300   33.9910  -10.8730 N   0  3  0  0  0  0
   24.7450   32.7690   -9.4960 O   0  0  0  0  0  0
   18.9650   37.4710  -11.5748 H   0  0  0  0  0  0
   20.2046   37.2531   -9.4414 H   0  0  0  0  0  0
   21.2424   34.2697  -13.2843 H   0  0  0  0  0  0
   19.4553   35.9766  -13.4669 H   0  0  0  0  0  0
   22.9135   35.3403   -6.8223 H   0  0  0  0  0  0
   24.2620   35.1337   -4.3996 H   0  0  0  0  0  0
   26.3038   33.3158   -4.8839 H   0  0  0  0  0  0
   23.1202   33.2392  -11.5748 H   0  0  0  0  0  0
  1  2  2  0  0  0
  1  6  1  0  0  0
  1 17  1  0  0  0
  2  3  1  0  0  0
  2 18  1  0  0  0
  3  4  2  0  0  0
  3  8  1  0  0  0
  4  5  1  0  0  0
  4 15  1  0  0  0
  5  6  2  0  0  0
  5 19  1  0  0  0
  6 20  1  0  0  0
  7  8  2  0  0  0
  7  9  1  0  0  0
  7 15  1  0  0  0
  9 10  1  0  0  0
  9 16  2  0  0  0
 10 11  2  0  0  0
 10 14  1  0  0  0
 11 12  1  0  0  0
 11 21  1  0  0  0
 12 13  1  0  0  0
 12 22  1  0  0  0
 13 14  2  0  0  0
 13 23  1  0  0  0
 15 24  1  0  0  0
M  CHG  1  15   1
M  END
> <s_m_source_file>
../4aua_ligand.sdf

> <i_m_source_file_index>
1

> <s_epik_input>
W2NIXTFbY0hdW2NIXVtjSF1jKGMxMilbbkhdYyhuMilDKD1PKUMzPVtDSF1bQ0gyXVtDSF09TjM=

> <s_epik_cmdline>
J2VwaWtfYXBwJywgJy1pbWFlJywgJ2xpZ2FuZF9wcm8ubWFlJywgJy1vbWFlJywgJ2xpZ2FuZF9wcmVwLm1hZScsICctbXMnLCAnMScsICctcGgnLCAnNycsICctcGh0JywgJzAuNScsICctbnQn

> <r_epik_Ionization_Penalty>
  0.0001

> <r_epik_Ionization_Penalty_Charging>
  0.0000

> <r_epik_Ionization_Penalty_Neutral>
  0.0001

> <r_epik_State_Penalty>
  0.0000

> <r_epik_Charging_Adjusted_Penalty>
1.94601003006462e-06

> <i_epik_Tot_Q>
1

> <i_epik_Tot_abs_Q>
1

> <s_epik_Chemistry_Notes>
This compound has an imine and may undergo hydrolysis.

$$$$
