4auy_ligand
                    3D
 Schrodinger Suite 2020-3.
 40 41  0  0  1  0            999 V2000
   15.5870  -59.6380   20.9280 O   0  0  0  0  0  0
   15.8800  -60.8920   20.3850 C   0  0  0  0  0  0
   14.9540  -61.9230   20.7340 C   0  0  1  0  0  0
   14.7350  -61.9160   22.1970 O   0  0  0  0  0  0
   13.6110  -61.7360   20.0180 C   0  0  1  0  0  0
   13.8340  -61.7690   18.6030 O   0  0  0  0  0  0
   12.6930  -62.7240   20.4240 C   0  0  2  0  0  0
   11.4590  -62.4720   19.7490 O   0  0  0  0  0  0
   12.4700  -62.6890   21.8880 C   0  0  2  0  0  0
   11.8970  -61.5230   22.3250 O   0  0  0  0  0  0
   21.9120  -68.9520   24.1170 O   0  0  0  0  0  0
   21.5270  -67.6050   24.1590 C   0  0  0  0  0  0
   20.1350  -67.1490   23.6690 C   0  0  0  0  0  0
   19.0270  -66.8250   23.2630 C   0  0  0  0  0  0
   17.7180  -66.2390   22.9050 C   0  0  0  0  0  0
   17.4180  -65.0690   23.4970 C   0  0  0  0  0  0
   16.2200  -64.3470   23.3000 C   0  0  0  0  0  0
   15.2890  -64.8680   22.4500 C   0  0  0  0  0  0
   14.0740  -64.2070   22.2090 O   0  0  0  0  0  0
   13.8190  -62.9070   22.5900 C   0  0  1  0  0  0
   15.5660  -66.0640   21.8640 C   0  0  0  0  0  0
   16.7850  -66.7840   22.0560 C   0  0  0  0  0  0
   16.2422  -58.7802   20.7162 H   0  0  0  0  0  0
   15.8829  -60.8245   19.2871 H   0  0  0  0  0  0
   16.8697  -61.2209   20.7347 H   0  0  0  0  0  0
   15.4410  -62.8610   20.4292 H   0  0  0  0  0  0
   13.1025  -60.7881   20.2479 H   0  0  0  0  0  0
   14.5289  -61.0536   18.1389 H   0  0  0  0  0  0
   13.1058  -63.7005   20.1307 H   0  0  0  0  0  0
   11.4263  -62.4581   18.6496 H   0  0  0  0  0  0
   11.6805  -63.4106   22.1449 H   0  0  0  0  0  0
   10.9218  -61.2063   21.9265 H   0  0  0  0  0  0
   22.9094  -69.2503   24.4722 H   0  0  0  0  0  0
   21.5567  -67.2474   25.1988 H   0  0  0  0  0  0
   22.2173  -67.0070   23.5458 H   0  0  0  0  0  0
   18.1547  -64.6463   24.1801 H   0  0  0  0  0  0
   16.0446  -63.4010   23.8123 H   0  0  0  0  0  0
   13.9505  -62.8398   23.6800 H   0  0  0  0  0  0
   14.8121  -66.4995   21.2081 H   0  0  0  0  0  0
   16.9682  -67.7307   21.5478 H   0  0  0  0  0  0
  1  2  1  0  0  0
  1 23  1  0  0  0
  2  3  1  0  0  0
  2 24  1  0  0  0
  2 25  1  0  0  0
  3  4  1  0  0  0
  3  5  1  0  0  0
  3 26  1  0  0  0
  4 20  1  0  0  0
  5  6  1  0  0  0
  5  7  1  0  0  0
  5 27  1  0  0  0
  6 28  1  0  0  0
  7  8  1  0  0  0
  7  9  1  0  0  0
  7 29  1  0  0  0
  8 30  1  0  0  0
  9 10  1  0  0  0
  9 20  1  0  0  0
  9 31  1  0  0  0
 10 32  1  0  0  0
 11 12  1  0  0  0
 11 33  1  0  0  0
 12 13  1  0  0  0
 12 34  1  0  0  0
 12 35  1  0  0  0
 13 14  3  0  0  0
 14 15  1  0  0  0
 15 16  2  0  0  0
 15 22  1  0  0  0
 16 17  1  0  0  0
 16 36  1  0  0  0
 17 18  2  0  0  0
 17 37  1  0  0  0
 18 19  1  0  0  0
 18 21  1  0  0  0
 19 20  1  0  0  0
 20 38  1  0  0  0
 21 22  2  0  0  0
 21 39  1  0  0  0
 22 40  1  0  0  0
M  END
> <s_m_source_file>
../4auy_ligand.sdf

> <i_m_source_file_index>
1

> <s_epik_input>
W09IXVtDSDJdW0NASF0xT1tDQEBIXShbQ0BASF0oW09IXSlbQ0BASF0oW09IXSlbQ0BASF0xW09IXSlPYyhbY0hdW2NIXTIpW2NIXVtjSF1jMkMjQ1tDSDJdW09IXQ==

> <s_epik_cmdline>
J2VwaWtfYXBwJywgJy1pbWFlJywgJ2xpZ2FuZF9wcm8ubWFlJywgJy1vbWFlJywgJ2xpZ2FuZF9wcmVwLm1hZScsICctbXMnLCAnMScsICctcGgnLCAnNycsICctcGh0JywgJzAuNScsICctbnQn

> <r_lp_tautomer_probability>
1

> <r_epik_Ionization_Penalty>
  0.0000

> <r_epik_Ionization_Penalty_Charging>
  0.0000

> <r_epik_Ionization_Penalty_Neutral>
  0.0000

> <r_epik_State_Penalty>
 -0.0000

> <r_epik_Charging_Adjusted_Penalty>
0

> <i_epik_Tot_Q>
0

> <i_epik_Tot_abs_Q>
0

> <s_epik_Chemistry_Notes>
This compound contains an acetal/aminal-like group ( X-CH(R)-Y where X, Y are N, S, or O) that may be acid/base labile, releasing an aldehyde.

$$$$
