4av0_ligand
                    3D
 Schrodinger Suite 2020-3.
 43 44  0  0  1  0            999 V2000
  -15.4270   59.5540   20.6540 O   0  0  0  0  0  0
  -15.7650   60.8230   20.1990 C   0  0  0  0  0  0
  -14.8270   61.9190   20.5480 C   0  0  1  0  0  0
  -14.6460   61.9540   21.9370 O   0  0  0  0  0  0
  -13.4800   61.6850   19.8420 C   0  0  1  0  0  0
  -13.6980   61.5880   18.4320 O   0  0  0  0  0  0
  -12.5280   62.6600   20.1980 C   0  0  2  0  0  0
  -11.2350   62.3750   19.5480 O   0  0  0  0  0  0
  -12.3250   62.7320   21.6090 C   0  0  2  0  0  0
  -11.7080   61.5580   22.1340 O   0  0  0  0  0  0
  -13.6310   62.8340   22.3810 C   0  0  1  0  0  0
  -14.0360   64.1340   22.3570 O   0  0  0  0  0  0
  -15.1760   64.4350   23.0710 C   0  0  0  0  0  0
  -16.1150   65.4820   22.5770 C   0  0  0  0  0  0
  -16.9560   66.2860   22.2330 C   0  0  0  0  0  0
  -18.0450   67.2120   21.8300 C   0  0  0  0  0  0
  -17.7680   68.5490   21.5740 C   0  0  0  0  0  0
  -18.8170   69.3780   21.1810 C   0  0  0  0  0  0
  -20.1150   68.8900   21.0290 C   0  0  0  0  0  0
  -21.1220   69.7520   20.6320 O   0  0  0  0  0  0
  -21.2240   70.1820   19.3150 C   0  0  0  0  0  0
  -20.3830   67.5430   21.2820 C   0  0  0  0  0  0
  -19.3390   66.7100   21.6800 C   0  0  0  0  0  0
  -16.0797   58.6974   20.4298 H   0  0  0  0  0  0
  -15.8248   60.8148   19.1007 H   0  0  0  0  0  0
  -16.7397   61.1149   20.6171 H   0  0  0  0  0  0
  -15.2710   62.8935   20.2967 H   0  0  0  0  0  0
  -12.9678   60.7559   20.1328 H   0  0  0  0  0  0
  -14.4209   60.8596   18.0361 H   0  0  0  0  0  0
  -12.9654   63.6153   19.8723 H   0  0  0  0  0  0
  -11.1787   62.2803   18.4535 H   0  0  0  0  0  0
  -11.6507   63.5968   21.6952 H   0  0  0  0  0  0
  -10.7291   61.2332   21.7516 H   0  0  0  0  0  0
  -13.5334   62.5618   23.4423 H   0  0  0  0  0  0
  -15.8040   63.5358   23.1553 H   0  0  0  0  0  0
  -14.8976   64.7833   24.0766 H   0  0  0  0  0  0
  -16.7558   68.9398   21.6779 H   0  0  0  0  0  0
  -18.6187   70.4323   20.9879 H   0  0  0  0  0  0
  -22.0873   70.8564   19.2153 H   0  0  0  0  0  0
  -21.3597   69.3126   18.6549 H   0  0  0  0  0  0
  -20.3058   70.7175   19.0320 H   0  0  0  0  0  0
  -21.3932   67.1492   21.1699 H   0  0  0  0  0  0
  -19.5348   65.6558   21.8762 H   0  0  0  0  0  0
  1  2  1  0  0  0
  1 24  1  0  0  0
  2  3  1  0  0  0
  2 25  1  0  0  0
  2 26  1  0  0  0
  3  4  1  0  0  0
  3  5  1  0  0  0
  3 27  1  0  0  0
  4 11  1  0  0  0
  5  6  1  0  0  0
  5  7  1  0  0  0
  5 28  1  0  0  0
  6 29  1  0  0  0
  7  8  1  0  0  0
  7  9  1  0  0  0
  7 30  1  0  0  0
  8 31  1  0  0  0
  9 10  1  0  0  0
  9 11  1  0  0  0
  9 32  1  0  0  0
 10 33  1  0  0  0
 11 12  1  0  0  0
 11 34  1  0  0  0
 12 13  1  0  0  0
 13 14  1  0  0  0
 13 35  1  0  0  0
 13 36  1  0  0  0
 14 15  3  0  0  0
 15 16  1  0  0  0
 16 17  2  0  0  0
 16 23  1  0  0  0
 17 18  1  0  0  0
 17 37  1  0  0  0
 18 19  2  0  0  0
 18 38  1  0  0  0
 19 20  1  0  0  0
 19 22  1  0  0  0
 20 21  1  0  0  0
 21 39  1  0  0  0
 21 40  1  0  0  0
 21 41  1  0  0  0
 22 23  2  0  0  0
 22 42  1  0  0  0
 23 43  1  0  0  0
M  END
> <s_m_source_file>
../4av0_ligand.sdf

> <i_m_source_file_index>
1

> <s_epik_input>
W09IXVtDSDJdW0NASF0xT1tDQEBIXShbQ0BASF0oW09IXSlbQ0BASF0oW09IXSlbQ0BASF0xW09IXSlPW0NIMl1DI0NjMltjSF1bY0hdYyhPW0NIM10pW2NIXVtjSF0y

> <s_epik_cmdline>
J2VwaWtfYXBwJywgJy1pbWFlJywgJ2xpZ2FuZF9wcm8ubWFlJywgJy1vbWFlJywgJ2xpZ2FuZF9wcmVwLm1hZScsICctbXMnLCAnMScsICctcGgnLCAnNycsICctcGh0JywgJzAuNScsICctbnQn

> <r_lp_tautomer_probability>
1

> <r_epik_Ionization_Penalty>
  0.0000

> <r_epik_Ionization_Penalty_Charging>
  0.0000

> <r_epik_Ionization_Penalty_Neutral>
  0.0000

> <r_epik_State_Penalty>
 -0.0000

> <r_epik_Charging_Adjusted_Penalty>
0

> <i_epik_Tot_Q>
0

> <i_epik_Tot_abs_Q>
0

> <s_epik_Chemistry_Notes>
This compound contains an acetal/aminal-like group ( X-CH(R)-Y where X, Y are N, S, or O) that may be acid/base labile, releasing an aldehyde.

$$$$
