4av4_ligand
                    3D
 Schrodinger Suite 2020-3.
 38 39  0  0  1  0            999 V2000
  -14.6670    3.9780   -9.5890 O   0  0  0  0  0  0
  -15.3850    3.7320  -10.8030 C   0  0  0  0  0  0
  -15.2040    2.4900  -11.5060 C   0  0  1  0  0  0
  -13.7290    2.2320  -11.5090 O   0  0  0  0  0  0
  -15.9880    1.3950  -10.8580 C   0  0  1  0  0  0
  -17.4140    1.7570  -10.8450 O   0  0  0  0  0  0
  -15.6700    0.0890  -11.4380 C   0  0  2  0  0  0
  -16.2120   -0.9440  -10.6730 O   0  0  0  0  0  0
  -14.1870   -0.1410  -11.5470 C   0  0  2  0  0  0
  -13.6570   -0.3710  -10.2860 O   0  0  0  0  0  0
  -13.4460    1.0100  -12.1480 C   0  0  1  0  0  0
  -13.8170    1.0900  -13.4730 O   0  0  0  0  0  0
  -13.0690    2.0180  -14.2870 C   0  0  0  0  0  0
  -13.6360    2.1130  -15.6370 C   0  0  0  0  0  0
  -14.1170    2.2930  -16.7220 C   0  0  0  0  0  0
  -14.6980    2.5790  -18.0730 C   0  0  0  0  0  0
  -13.8360    3.1590  -19.0530 C   0  0  0  0  0  0
  -14.3750    3.4500  -20.3120 C   0  0  0  0  0  0
  -15.7250    3.1380  -20.5460 C   0  0  0  0  0  0
  -16.5170    2.5880  -19.5800 N   0  0  0  0  0  0
  -16.0190    2.3040  -18.3440 C   0  0  0  0  0  0
  -14.8051    4.9275   -9.0511 H   0  0  0  0  0  0
  -16.4661    3.7697  -10.6036 H   0  0  0  0  0  0
  -15.1223    4.4991  -11.5463 H   0  0  0  0  0  0
  -15.5921    2.5745  -12.5318 H   0  0  0  0  0  0
  -15.7066    1.2638   -9.8027 H   0  0  0  0  0  0
  -17.7325    2.7226  -10.4254 H   0  0  0  0  0  0
  -16.1649    0.0548  -12.4198 H   0  0  0  0  0  0
  -17.2926   -0.9686  -10.4688 H   0  0  0  0  0  0
  -14.0205   -1.0451  -12.1510 H   0  0  0  0  0  0
  -14.0585   -1.1816   -9.6601 H   0  0  0  0  0  0
  -12.3544    0.8918  -12.0815 H   0  0  0  0  0  0
  -13.0948    3.0154  -13.8238 H   0  0  0  0  0  0
  -12.0260    1.6777  -14.3668 H   0  0  0  0  0  0
  -12.7904    3.3687  -18.8276 H   0  0  0  0  0  0
  -13.7635    3.9066  -21.0902 H   0  0  0  0  0  0
  -16.1523    3.3412  -21.5279 H   0  0  0  0  0  0
  -16.6591    1.8643  -17.5791 H   0  0  0  0  0  0
  1  2  1  0  0  0
  1 22  1  0  0  0
  2  3  1  0  0  0
  2 23  1  0  0  0
  2 24  1  0  0  0
  3  4  1  0  0  0
  3  5  1  0  0  0
  3 25  1  0  0  0
  4 11  1  0  0  0
  5  6  1  0  0  0
  5  7  1  0  0  0
  5 26  1  0  0  0
  6 27  1  0  0  0
  7  8  1  0  0  0
  7  9  1  0  0  0
  7 28  1  0  0  0
  8 29  1  0  0  0
  9 10  1  0  0  0
  9 11  1  0  0  0
  9 30  1  0  0  0
 10 31  1  0  0  0
 11 12  1  0  0  0
 11 32  1  0  0  0
 12 13  1  0  0  0
 13 14  1  0  0  0
 13 33  1  0  0  0
 13 34  1  0  0  0
 14 15  3  0  0  0
 15 16  1  0  0  0
 16 17  2  0  0  0
 16 21  1  0  0  0
 17 18  1  0  0  0
 17 35  1  0  0  0
 18 19  2  0  0  0
 18 36  1  0  0  0
 19 20  1  0  0  0
 19 37  1  0  0  0
 20 21  2  0  0  0
 21 38  1  0  0  0
M  END
> <s_m_source_file>
../4av4_ligand.sdf

> <i_m_source_file_index>
1

> <s_epik_input>
W09IXVtDSDJdW0NASF0xT1tDQEBIXShbQ0BASF0oW09IXSlbQ0BASF0oW09IXSlbQ0BASF0xW09IXSlPW0NIMl1DI0NjMltjSF1bY0hdW2NIXW5bY0hdMg==

> <s_epik_cmdline>
J2VwaWtfYXBwJywgJy1pbWFlJywgJ2xpZ2FuZF9wcm8ubWFlJywgJy1vbWFlJywgJ2xpZ2FuZF9wcmVwLm1hZScsICctbXMnLCAnMScsICctcGgnLCAnNycsICctcGh0JywgJzAuNScsICctbnQn

> <r_lp_tautomer_probability>
1

> <r_epik_Ionization_Penalty>
  0.0023

> <r_epik_Ionization_Penalty_Charging>
  0.0000

> <r_epik_Ionization_Penalty_Neutral>
  0.0023

> <r_epik_State_Penalty>
 -0.0000

> <r_epik_Charging_Adjusted_Penalty>
0

> <i_epik_Tot_Q>
0

> <i_epik_Tot_abs_Q>
0

> <s_epik_Chemistry_Notes>
This compound contains an acetal/aminal-like group ( X-CH(R)-Y where X, Y are N, S, or O) that may be acid/base labile, releasing an aldehyde.

$$$$
