4av5_ligand
                    3D
 Schrodinger Suite 2020-3.
 49 51  0  0  1  0            999 V2000
    3.3660  -13.8320  -10.5240 O   0  0  0  0  0  0
    3.9250  -14.3500  -11.7510 C   0  0  1  0  0  0
    3.2120  -15.6360  -12.1450 C   0  0  1  0  0  0
    3.2890  -16.6240  -11.0940 O   0  0  0  0  0  0
    1.7540  -15.3410  -12.4910 C   0  0  2  0  0  0
    1.1090  -16.5210  -12.9400 O   0  0  0  0  0  0
    1.6740  -14.2080  -13.5370 C   0  0  2  0  0  0
    2.3790  -13.0560  -13.0980 O   0  0  0  0  0  0
    0.2340  -13.8040  -13.8070 C   0  0  0  0  0  0
   -0.4060  -13.2860  -12.6440 O   0  0  0  0  0  0
    3.7660  -13.2680  -12.8000 C   0  0  2  0  0  0
    4.4520  -13.7410  -13.9640 O   0  0  0  0  0  0
    4.6670  -12.6380  -14.8760 C   0  0  0  0  0  0
    4.5920  -13.0440  -16.2930 C   0  0  0  0  0  0
    4.5400  -13.3690  -17.4270 C   0  0  0  0  0  0
    4.5120  -13.7810  -18.6590 C   0  0  0  0  0  0
    5.4390  -14.7570  -19.0460 C   0  0  0  0  0  0
    5.4350  -15.2490  -20.3560 C   0  0  0  0  0  0
    4.4990  -14.7830  -21.2720 C   0  0  0  0  0  0
    3.5940  -13.7820  -20.8920 C   0  0  0  0  0  0
    3.5830  -13.2850  -19.5790 C   0  0  0  0  0  0
    4.5590  -15.3080  -22.6740 C   0  0  0  0  0  0
    5.6650  -16.0670  -23.0520 C   0  0  0  0  0  0
    5.7560  -16.5600  -24.3620 C   0  0  0  0  0  0
    4.7380  -16.2600  -25.2650 C   0  0  0  0  0  0
    3.6410  -15.4900  -24.9000 C   0  0  0  0  0  0
    3.5580  -15.0010  -23.5890 C   0  0  0  0  0  0
    3.3699  -14.4498   -9.6139 H   0  0  0  0  0  0
    4.9879  -14.5832  -11.5906 H   0  0  0  0  0  0
    3.7308  -16.0966  -12.9986 H   0  0  0  0  0  0
    4.2695  -16.9547  -10.7208 H   0  0  0  0  0  0
    1.1802  -15.0733  -11.5915 H   0  0  0  0  0  0
    1.0860  -17.4137  -12.2976 H   0  0  0  0  0  0
    2.1731  -14.5303  -14.4628 H   0  0  0  0  0  0
    0.2110  -13.0266  -14.5849 H   0  0  0  0  0  0
   -0.3351  -14.6812  -14.1484 H   0  0  0  0  0  0
   -1.4534  -12.9537  -12.6945 H   0  0  0  0  0  0
    4.1619  -12.2870  -12.4983 H   0  0  0  0  0  0
    3.9006  -11.8674  -14.7065 H   0  0  0  0  0  0
    5.6643  -12.2077  -14.7023 H   0  0  0  0  0  0
    6.1648  -15.1340  -18.3255 H   0  0  0  0  0  0
    6.1665  -15.9983  -20.6584 H   0  0  0  0  0  0
    2.8909  -13.3851  -21.6243 H   0  0  0  0  0  0
    2.8614  -12.5242  -19.2813 H   0  0  0  0  0  0
    6.4563  -16.2767  -22.3324 H   0  0  0  0  0  0
    6.6080  -17.1670  -24.6682 H   0  0  0  0  0  0
    4.8043  -16.6395  -26.2846 H   0  0  0  0  0  0
    2.8557  -15.2691  -25.6229 H   0  0  0  0  0  0
    2.7123  -14.3827  -23.2880 H   0  0  0  0  0  0
  1  2  1  0  0  0
  1 28  1  0  0  0
  2  3  1  0  0  0
  2 11  1  0  0  0
  2 29  1  0  0  0
  3  4  1  0  0  0
  3  5  1  0  0  0
  3 30  1  0  0  0
  4 31  1  0  0  0
  5  6  1  0  0  0
  5  7  1  0  0  0
  5 32  1  0  0  0
  6 33  1  0  0  0
  7  8  1  0  0  0
  7  9  1  0  0  0
  7 34  1  0  0  0
  8 11  1  0  0  0
  9 10  1  0  0  0
  9 35  1  0  0  0
  9 36  1  0  0  0
 10 37  1  0  0  0
 11 12  1  0  0  0
 11 38  1  0  0  0
 12 13  1  0  0  0
 13 14  1  0  0  0
 13 39  1  0  0  0
 13 40  1  0  0  0
 14 15  3  0  0  0
 15 16  1  0  0  0
 16 17  2  0  0  0
 16 21  1  0  0  0
 17 18  1  0  0  0
 17 41  1  0  0  0
 18 19  2  0  0  0
 18 42  1  0  0  0
 19 20  1  0  0  0
 19 22  1  0  0  0
 20 21  2  0  0  0
 20 43  1  0  0  0
 21 44  1  0  0  0
 22 23  2  0  0  0
 22 27  1  0  0  0
 23 24  1  0  0  0
 23 45  1  0  0  0
 24 25  2  0  0  0
 24 46  1  0  0  0
 25 26  1  0  0  0
 25 47  1  0  0  0
 26 27  2  0  0  0
 26 48  1  0  0  0
 27 49  1  0  0  0
M  END
> <s_m_source_file>
../4av5_ligand.sdf

> <i_m_source_file_index>
1

> <s_epik_input>
W09IXVtDQEhdMVtDQEBIXShbT0hdKVtDQEhdKFtPSF0pW0NAQEhdKFtDSDJdW09IXSlPW0NAQEhdMU9bQ0gyXUMjQ2MyW2NIXVtjSF1jKFtjSF1bY0hdMiktYzNbY0hdW2NIXVtjSF1bY0hdW2NIXTM=

> <s_epik_cmdline>
J2VwaWtfYXBwJywgJy1pbWFlJywgJ2xpZ2FuZF9wcm8ubWFlJywgJy1vbWFlJywgJ2xpZ2FuZF9wcmVwLm1hZScsICctbXMnLCAnMScsICctcGgnLCAnNycsICctcGh0JywgJzAuNScsICctbnQn

> <r_lp_tautomer_probability>
1

> <r_epik_Ionization_Penalty>
  0.0000

> <r_epik_Ionization_Penalty_Charging>
  0.0000

> <r_epik_Ionization_Penalty_Neutral>
  0.0000

> <r_epik_State_Penalty>
 -0.0000

> <r_epik_Charging_Adjusted_Penalty>
0

> <i_epik_Tot_Q>
0

> <i_epik_Tot_abs_Q>
0

> <s_epik_Chemistry_Notes>
This compound contains an acetal/aminal-like group ( X-CH(R)-Y where X, Y are N, S, or O) that may be acid/base labile, releasing an aldehyde.

$$$$
