4avg_ligand
                    3D
 Schrodinger Suite 2020-3.
 59 61  0  0  1  0            999 V2000
   12.5420  -22.1150  -18.1640 Cl  0  0  0  0  0  0
   13.3810  -22.6860  -16.6730 C   0  0  0  0  0  0
   13.8600  -24.0020  -16.5790 C   0  0  0  0  0  0
   14.4910  -24.4170  -15.4160 C   0  0  0  0  0  0
   13.5330  -21.7910  -15.6160 C   0  0  0  0  0  0
   14.1580  -22.2180  -14.4560 C   0  0  0  0  0  0
   14.6570  -23.5050  -14.3790 C   0  0  0  0  0  0
   15.2680  -23.9530  -13.1060 C   0  0  0  0  0  0
   16.6960  -23.5760  -12.7520 C   0  0  1  0  0  0
   17.6920  -24.3610  -13.6410 C   0  0  0  0  0  0
   18.8400  -24.9990  -12.8520 C   0  0  0  0  0  0
   16.9050  -22.0720  -12.8110 C   0  0  0  0  0  0
   16.6440  -21.4250  -11.8100 O   0  0  0  0  0  0
   17.4760  -21.5140  -14.0700 C   0  0  0  0  0  0
   17.8470  -20.2530  -14.3690 C   0  0  0  0  0  0
   17.6910  -19.2850  -13.5020 O   0  0  0  0  0  0
   18.4300  -19.9560  -15.7190 C   0  0  0  0  0  0
   18.7500  -18.7820  -16.0150 O   0  0  0  0  0  0
   18.5680  -20.9010  -16.5630 O   0  5  0  0  0  0
   16.8050  -24.0950  -11.3030 C   0  0  0  0  0  0
   18.1860  -23.9930  -10.6980 C   0  0  0  0  0  0
   19.2830  -24.2610  -11.6430 N   0  3  1  0  0  0
   20.3140  -24.9830  -10.8380 C   0  0  0  0  0  0
   21.5850  -25.3220  -11.6180 C   0  0  0  0  0  0
   22.8180  -24.9030  -10.8030 C   0  0  0  0  0  0
   24.1150  -25.4830  -11.3980 C   0  0  0  0  0  0
   24.0560  -26.9870  -11.5970 C   0  0  0  0  0  0
   22.9030  -27.3450  -12.5350 C   0  0  0  0  0  0
   21.5790  -26.8360  -11.9570 C   0  0  0  0  0  0
   13.7370  -24.6923  -17.4135 H   0  0  0  0  0  0
   14.8510  -25.4410  -15.3161 H   0  0  0  0  0  0
   13.1650  -20.7685  -15.7008 H   0  0  0  0  0  0
   14.2561  -21.5417  -13.6068 H   0  0  0  0  0  0
   14.6821  -23.5627  -12.2608 H   0  0  0  0  0  0
   15.2760  -25.0524  -13.0700 H   0  0  0  0  0  0
   17.1594  -25.1704  -14.1617 H   0  0  0  0  0  0
   18.1382  -23.6803  -14.3810 H   0  0  0  0  0  0
   18.5369  -25.9986  -12.5073 H   0  0  0  0  0  0
   19.7252  -25.0871  -13.4991 H   0  0  0  0  0  0
   18.4258  -22.0201  -14.2977 H   0  0  0  0  0  0
   16.7679  -21.6742  -14.8964 H   0  0  0  0  0  0
   16.1304  -23.5166  -10.6547 H   0  0  0  0  0  0
   16.5219  -25.1575  -11.2718 H   0  0  0  0  0  0
   18.3403  -22.9770  -10.3058 H   0  0  0  0  0  0
   18.2821  -24.7208   -9.8788 H   0  0  0  0  0  0
   19.6816  -23.3274  -12.0667 H   0  0  0  0  0  0
   20.6139  -24.3598   -9.9827 H   0  0  0  0  0  0
   19.8948  -25.9316  -10.4713 H   0  0  0  0  0  0
   21.6180  -24.7550  -12.5600 H   0  0  0  0  0  0
   22.8987  -23.8060  -10.7979 H   0  0  0  0  0  0
   22.7163  -25.2680   -9.7703 H   0  0  0  0  0  0
   24.3058  -25.0236  -12.3791 H   0  0  0  0  0  0
   24.9563  -25.2682  -10.7227 H   0  0  0  0  0  0
   25.0020  -27.3361  -12.0365 H   0  0  0  0  0  0
   23.8991  -27.4795  -10.6260 H   0  0  0  0  0  0
   23.0714  -26.8795  -13.5173 H   0  0  0  0  0  0
   22.8505  -28.4376  -12.6512 H   0  0  0  0  0  0
   21.3770  -27.4154  -11.0440 H   0  0  0  0  0  0
   20.7967  -27.0418  -12.7024 H   0  0  0  0  0  0
  1  2  1  0  0  0
  2  3  2  0  0  0
  2  5  1  0  0  0
  3  4  1  0  0  0
  3 30  1  0  0  0
  4  7  2  0  0  0
  4 31  1  0  0  0
  5  6  2  0  0  0
  5 32  1  0  0  0
  6  7  1  0  0  0
  6 33  1  0  0  0
  7  8  1  0  0  0
  8  9  1  0  0  0
  8 34  1  0  0  0
  8 35  1  0  0  0
  9 10  1  0  0  0
  9 12  1  0  0  0
  9 20  1  0  0  0
 10 11  1  0  0  0
 10 36  1  0  0  0
 10 37  1  0  0  0
 11 22  1  0  0  0
 11 38  1  0  0  0
 11 39  1  0  0  0
 12 13  2  0  0  0
 12 14  1  0  0  0
 14 15  1  0  0  0
 14 40  1  0  0  0
 14 41  1  0  0  0
 15 16  2  0  0  0
 15 17  1  0  0  0
 17 18  2  0  0  0
 17 19  1  0  0  0
 20 21  1  0  0  0
 20 42  1  0  0  0
 20 43  1  0  0  0
 21 22  1  0  0  0
 21 44  1  0  0  0
 21 45  1  0  0  0
 22 23  1  0  0  0
 22 46  1  0  0  0
 23 24  1  0  0  0
 23 47  1  0  0  0
 23 48  1  0  0  0
 24 25  1  0  0  0
 24 29  1  0  0  0
 24 49  1  0  0  0
 25 26  1  0  0  0
 25 50  1  0  0  0
 25 51  1  0  0  0
 26 27  1  0  0  0
 26 52  1  0  0  0
 26 53  1  0  0  0
 27 28  1  0  0  0
 27 54  1  0  0  0
 27 55  1  0  0  0
 28 29  1  0  0  0
 28 56  1  0  0  0
 28 57  1  0  0  0
 29 58  1  0  0  0
 29 59  1  0  0  0
M  CHG  2  19  -1  22   1
M  END
> <s_m_source_file>
../4avg_ligand.sdf

> <i_m_source_file_index>
1

> <s_epik_input>
Q2xjMVtjSF1bY0hdYyhbY0hdW2NIXTEpW0NIMl1bQ0BdMihDKD1PKVtDSDJdQyg9TylDKD1PKVtPSF0pW0NIMl1bQ0gyXVtOQEBIK10oW0NIMl1bQ0gyXTIpW0NIMl1bQ0hdM1tDSDJdW0NIMl1bQ0gyXVtDSDJdW0NIMl0z

> <s_epik_cmdline>
J2VwaWtfYXBwJywgJy1pbWFlJywgJ2xpZ2FuZF9wcm8ubWFlJywgJy1vbWFlJywgJ2xpZ2FuZF9wcmVwLm1hZScsICctbXMnLCAnMScsICctcGgnLCAnNycsICctcGh0JywgJzAuNScsICctbnQn

> <r_lp_tautomer_probability>
1

> <r_epik_Ionization_Penalty>
  0.0038

> <r_epik_Ionization_Penalty_Charging>
  0.0032

> <r_epik_Ionization_Penalty_Neutral>
  0.0006

> <r_epik_State_Penalty>
 -0.0000

> <r_epik_Charging_Adjusted_Penalty>
0.00318200635892911

> <i_epik_Tot_Q>
0

> <i_epik_Tot_abs_Q>
2

$$$$
