4avh_ligand
                    3D
 Schrodinger Suite 2020-3.
 43 43  0  0  1  0            999 V2000
  -59.5600  -16.5790  -20.9070 O   0  0  0  0  0  0
  -60.8670  -16.8520  -20.3710 C   0  0  0  0  0  0
  -61.2620  -18.2800  -20.7120 C   0  0  1  0  0  0
  -61.1550  -18.5120  -22.1380 O   0  0  0  0  0  0
  -60.3820  -19.2610  -19.9420 C   0  0  1  0  0  0
  -60.5720  -19.1100  -18.5280 O   0  0  0  0  0  0
  -60.7150  -20.6980  -20.3180 C   0  0  2  0  0  0
  -59.8220  -21.5720  -19.6170 O   0  0  0  0  0  0
  -60.6050  -20.8770  -21.8330 C   0  0  2  0  0  0
  -59.2570  -20.6500  -22.2880 O   0  0  0  0  0  0
  -61.5050  -19.8570  -22.5240 C   0  0  1  0  0  0
  -62.8570  -20.1380  -22.1570 O   0  0  0  0  0  0
  -63.7680  -19.5240  -23.0640 C   0  0  0  0  0  0
  -65.2000  -19.7770  -22.6230 C   0  0  0  0  0  0
  -66.0290  -18.5270  -22.8650 C   0  0  0  0  0  0
  -68.4490  -17.1740  -22.1860 C   0  0  0  0  0  0
  -67.8730  -15.8240  -21.7750 C   0  0  0  0  0  0
  -68.8090  -14.6870  -22.1430 C   0  0  0  0  0  0
  -67.3570  -18.4800  -21.7200 S   0  0  0  0  0  0
  -59.1013  -15.5899  -20.7611 H   0  0  0  0  0  0
  -60.8489  -16.7260  -19.2784 H   0  0  0  0  0  0
  -61.5959  -16.1539  -20.8085 H   0  0  0  0  0  0
  -62.3224  -18.4450  -20.4703 H   0  0  0  0  0  0
  -59.3254  -19.0313  -20.1438 H   0  0  0  0  0  0
  -60.3837  -18.1381  -18.0484 H   0  0  0  0  0  0
  -61.7233  -20.9878  -19.9874 H   0  0  0  0  0  0
  -59.7882  -21.5573  -18.5176 H   0  0  0  0  0  0
  -60.8510  -21.9149  -22.1016 H   0  0  0  0  0  0
  -58.4366  -21.2796  -21.9130 H   0  0  0  0  0  0
  -61.4275  -19.8904  -23.6208 H   0  0  0  0  0  0
  -63.5857  -18.4395  -23.0889 H   0  0  0  0  0  0
  -63.6222  -19.9435  -24.0704 H   0  0  0  0  0  0
  -65.6191  -20.6140  -23.2007 H   0  0  0  0  0  0
  -65.2151  -20.0269  -21.5519 H   0  0  0  0  0  0
  -65.3970  -17.6365  -22.7321 H   0  0  0  0  0  0
  -66.4276  -18.5441  -23.8901 H   0  0  0  0  0  0
  -69.4190  -17.3252  -21.6897 H   0  0  0  0  0  0
  -68.5879  -17.1966  -23.2770 H   0  0  0  0  0  0
  -67.7162  -15.8084  -20.6864 H   0  0  0  0  0  0
  -66.9122  -15.6643  -22.2862 H   0  0  0  0  0  0
  -68.3634  -13.7303  -21.8329 H   0  0  0  0  0  0
  -69.7729  -14.8254  -21.6314 H   0  0  0  0  0  0
  -68.9689  -14.6814  -23.2313 H   0  0  0  0  0  0
  1  2  1  0  0  0
  1 20  1  0  0  0
  2  3  1  0  0  0
  2 21  1  0  0  0
  2 22  1  0  0  0
  3  4  1  0  0  0
  3  5  1  0  0  0
  3 23  1  0  0  0
  4 11  1  0  0  0
  5  6  1  0  0  0
  5  7  1  0  0  0
  5 24  1  0  0  0
  6 25  1  0  0  0
  7  8  1  0  0  0
  7  9  1  0  0  0
  7 26  1  0  0  0
  8 27  1  0  0  0
  9 10  1  0  0  0
  9 11  1  0  0  0
  9 28  1  0  0  0
 10 29  1  0  0  0
 11 12  1  0  0  0
 11 30  1  0  0  0
 12 13  1  0  0  0
 13 14  1  0  0  0
 13 31  1  0  0  0
 13 32  1  0  0  0
 14 15  1  0  0  0
 14 33  1  0  0  0
 14 34  1  0  0  0
 15 19  1  0  0  0
 15 35  1  0  0  0
 15 36  1  0  0  0
 16 17  1  0  0  0
 16 19  1  0  0  0
 16 37  1  0  0  0
 16 38  1  0  0  0
 17 18  1  0  0  0
 17 39  1  0  0  0
 17 40  1  0  0  0
 18 41  1  0  0  0
 18 42  1  0  0  0
 18 43  1  0  0  0
M  END
> <s_m_source_file>
../4avh_ligand.sdf

> <i_m_source_file_index>
1

> <s_epik_input>
W09IXVtDSDJdW0NASF0xT1tDQEBIXShbQ0BASF0oW09IXSlbQ0BASF0oW09IXSlbQ0BASF0xW09IXSlPW0NIMl1bQ0gyXVtDSDJdU1tDSDJdW0NIMl1bQ0gzXQ==

> <s_epik_cmdline>
J2VwaWtfYXBwJywgJy1pbWFlJywgJ2xpZ2FuZF9wcm8ubWFlJywgJy1vbWFlJywgJ2xpZ2FuZF9wcmVwLm1hZScsICctbXMnLCAnMScsICctcGgnLCAnNycsICctcGh0JywgJzAuNScsICctbnQn

> <r_lp_tautomer_probability>
1

> <r_epik_Ionization_Penalty>
  0.0000

> <r_epik_Ionization_Penalty_Charging>
  0.0000

> <r_epik_Ionization_Penalty_Neutral>
  0.0000

> <r_epik_State_Penalty>
 -0.0000

> <r_epik_Charging_Adjusted_Penalty>
0

> <i_epik_Tot_Q>
0

> <i_epik_Tot_abs_Q>
0

> <s_epik_Chemistry_Notes>
This compound contains an acetal/aminal-like group ( X-CH(R)-Y where X, Y are N, S, or O) that may be acid/base labile, releasing an aldehyde.

$$$$
