4avi_ligand
                    3D
 Schrodinger Suite 2020-3.
 54 54  0  0  1  0            999 V2000
   20.7770  -68.2680   20.7670 C   0  0  0  0  0  0
   20.9030  -68.1540   18.3350 O   0  0  0  0  0  0
   21.1560  -68.7920   19.3580 C   0  0  0  0  0  0
   21.8150  -69.9930   19.3540 O   0  0  0  0  0  0
   22.1470  -70.3980   18.0200 C   0  0  0  0  0  0
   20.7560  -66.7280   20.8820 C   0  0  0  0  0  0
   20.4520  -66.3860   22.3530 C   0  0  0  0  0  0
   19.0810  -66.8750   22.8370 C   0  0  0  0  0  0
   17.9060  -66.1570   22.1360 C   0  0  0  0  0  0
   16.6020  -66.7540   22.6960 C   0  0  0  0  0  0
   15.3200  -66.0500   22.2220 C   0  0  0  0  0  0
   15.2810  -64.5750   22.7270 C   0  0  0  0  0  0
   14.0620  -63.9800   22.2660 O   0  0  0  0  0  0
   13.6980  -62.5980   22.5930 C   0  0  2  0  0  0
   12.3790  -62.3170   21.9050 C   0  0  1  0  0  0
   11.9260  -60.9990   22.1630 O   0  0  0  0  0  0
   12.5790  -62.3810   20.3950 C   0  0  1  0  0  0
   11.3510  -62.0510   19.7200 O   0  0  0  0  0  0
   13.6060  -61.3150   20.0550 C   0  0  2  0  0  0
   13.8670  -61.4120   18.6490 O   0  0  0  0  0  0
   14.8920  -61.5750   20.7660 C   0  0  2  0  0  0
   14.6700  -61.5640   22.1900 O   0  0  0  0  0  0
   15.9290  -60.5270   20.3690 C   0  0  0  0  0  0
   15.4860  -59.2320   20.7580 O   0  0  0  0  0  0
   19.7717  -68.6263   21.0333 H   0  0  0  0  0  0
   21.5052  -68.6378   21.5039 H   0  0  0  0  0  0
   22.6738  -71.3632   18.0503 H   0  0  0  0  0  0
   22.7964  -69.6401   17.5576 H   0  0  0  0  0  0
   21.2255  -70.5016   17.4282 H   0  0  0  0  0  0
   21.7354  -66.3248   20.5851 H   0  0  0  0  0  0
   19.9765  -66.3215   20.2209 H   0  0  0  0  0  0
   21.2096  -66.8503   23.0015 H   0  0  0  0  0  0
   20.4733  -65.2945   22.4876 H   0  0  0  0  0  0
   18.9839  -67.9521   22.6359 H   0  0  0  0  0  0
   18.9878  -66.6940   23.9180 H   0  0  0  0  0  0
   17.9574  -65.0785   22.3463 H   0  0  0  0  0  0
   17.9704  -66.3224   21.0504 H   0  0  0  0  0  0
   16.5194  -67.8071   22.3891 H   0  0  0  0  0  0
   16.6123  -66.6919   23.7942 H   0  0  0  0  0  0
   15.2869  -66.0499   21.1225 H   0  0  0  0  0  0
   14.4420  -66.5833   22.6152 H   0  0  0  0  0  0
   15.3171  -64.5628   23.8263 H   0  0  0  0  0  0
   16.1462  -64.0270   22.3256 H   0  0  0  0  0  0
   13.6848  -62.5461   23.6917 H   0  0  0  0  0  0
   11.6223  -63.0077   22.3054 H   0  0  0  0  0  0
   11.7032  -60.6859   23.1937 H   0  0  0  0  0  0
   12.8559  -63.3892   20.0532 H   0  0  0  0  0  0
   10.4699  -62.6999   19.8326 H   0  0  0  0  0  0
   13.2384  -60.3091   20.3060 H   0  0  0  0  0  0
   13.0527  -61.2551   17.9263 H   0  0  0  0  0  0
   15.2529  -62.5855   20.5239 H   0  0  0  0  0  0
   16.8836  -60.7481   20.8688 H   0  0  0  0  0  0
   16.0726  -60.5479   19.2786 H   0  0  0  0  0  0
   16.1113  -58.3513   20.5499 H   0  0  0  0  0  0
  1  3  1  0  0  0
  1  6  1  0  0  0
  1 25  1  0  0  0
  1 26  1  0  0  0
  2  3  2  0  0  0
  3  4  1  0  0  0
  4  5  1  0  0  0
  5 27  1  0  0  0
  5 28  1  0  0  0
  5 29  1  0  0  0
  6  7  1  0  0  0
  6 30  1  0  0  0
  6 31  1  0  0  0
  7  8  1  0  0  0
  7 32  1  0  0  0
  7 33  1  0  0  0
  8  9  1  0  0  0
  8 34  1  0  0  0
  8 35  1  0  0  0
  9 10  1  0  0  0
  9 36  1  0  0  0
  9 37  1  0  0  0
 10 11  1  0  0  0
 10 38  1  0  0  0
 10 39  1  0  0  0
 11 12  1  0  0  0
 11 40  1  0  0  0
 11 41  1  0  0  0
 12 13  1  0  0  0
 12 42  1  0  0  0
 12 43  1  0  0  0
 13 14  1  0  0  0
 14 15  1  0  0  0
 14 22  1  0  0  0
 14 44  1  0  0  0
 15 16  1  0  0  0
 15 17  1  0  0  0
 15 45  1  0  0  0
 16 46  1  0  0  0
 17 18  1  0  0  0
 17 19  1  0  0  0
 17 47  1  0  0  0
 18 48  1  0  0  0
 19 20  1  0  0  0
 19 21  1  0  0  0
 19 49  1  0  0  0
 20 50  1  0  0  0
 21 22  1  0  0  0
 21 23  1  0  0  0
 21 51  1  0  0  0
 23 24  1  0  0  0
 23 52  1  0  0  0
 23 53  1  0  0  0
 24 54  1  0  0  0
M  END
> <s_m_source_file>
../4avi_ligand.sdf

> <i_m_source_file_index>
1

> <s_epik_input>
W0NIM11PQyg9TylbQ0gyXVtDSDJdW0NIMl1bQ0gyXVtDSDJdW0NIMl1bQ0gyXVtDSDJdT1tDQEBIXTFbQ0BASF0oW09IXSlbQ0BASF0oW09IXSlbQ0BIXShbT0hdKVtDQEhdKE8xKVtDSDJdW09IXQ==

> <s_epik_cmdline>
J2VwaWtfYXBwJywgJy1pbWFlJywgJ2xpZ2FuZF9wcm8ubWFlJywgJy1vbWFlJywgJ2xpZ2FuZF9wcmVwLm1hZScsICctbXMnLCAnMScsICctcGgnLCAnNycsICctcGh0JywgJzAuNScsICctbnQn

> <r_lp_tautomer_probability>
1

> <r_epik_Ionization_Penalty>
  0.0000

> <r_epik_Ionization_Penalty_Charging>
  0.0000

> <r_epik_Ionization_Penalty_Neutral>
  0.0000

> <r_epik_State_Penalty>
 -0.0000

> <r_epik_Charging_Adjusted_Penalty>
0

> <i_epik_Tot_Q>
0

> <i_epik_Tot_abs_Q>
0

> <s_epik_Chemistry_Notes>
This compound has an ester and may undergo hydrolysis at high or low pH. This compound contains an acetal/aminal-like group ( X-CH(R)-Y where X, Y are N, S, or O) that may be acid/base labile, releasing an aldehyde.

$$$$
