4avt_ligand
                    3D
 Schrodinger Suite 2020-3.
 46 47  0  0  1  0            999 V2000
   56.5780  193.0840   81.4710 N   0  0  0  0  0  0
   55.9580  191.8060   81.5230 C   0  0  2  0  0  0
   56.7440  190.9890   82.4420 C   0  0  0  0  0  0
   57.5970  191.9530   83.1870 C   0  0  0  0  0  0
   57.6990  193.1610   82.3320 C   0  0  0  0  0  0
   55.9450  191.1830   80.1650 C   0  0  0  0  0  0
   55.0640  190.3240   79.8820 O   0  0  0  0  0  0
   56.7810  191.4880   79.2670 O   0  5  0  0  0  0
   56.1120  194.1640   80.6130 C   0  0  0  0  0  0
   55.1510  193.9630   79.9100 O   0  0  0  0  0  0
   56.7970  195.5170   80.5500 C   0  0  0  0  0  0
   56.8060  196.1200   79.1480 C   0  0  0  0  0  0
   56.8340  195.1610   77.9690 C   0  0  0  0  0  0
   56.8710  195.7140   76.5420 C   0  0  0  0  0  0
   56.8780  197.2190   76.4600 C   0  0  0  0  0  0
   57.4430  197.8570   77.3150 O   0  0  0  0  0  0
   56.2300  197.9550   75.4410 N   0  0  0  0  0  0
   55.5150  197.4200   74.3550 C   0  0  2  0  0  0
   55.3760  198.5530   73.4110 C   0  0  0  0  0  0
   55.5900  199.8110   74.1820 C   0  0  0  0  0  0
   56.2620  199.3770   75.4270 C   0  0  0  0  0  0
   54.1840  196.9170   74.7310 C   0  0  0  0  0  0
   53.5380  196.2190   73.9270 O   0  0  0  0  0  0
   53.6490  197.1660   75.8380 O   0  5  0  0  0  0
   54.9267  191.9259   81.8865 H   0  0  0  0  0  0
   56.0682  190.4419   83.1158 H   0  0  0  0  0  0
   57.3497  190.2718   81.8687 H   0  0  0  0  0  0
   57.1256  192.1898   84.1523 H   0  0  0  0  0  0
   58.5872  191.5072   83.3621 H   0  0  0  0  0  0
   58.6218  193.1622   81.7333 H   0  0  0  0  0  0
   57.6443  194.0870   82.9232 H   0  0  0  0  0  0
   56.2754  196.2233   81.2126 H   0  0  0  0  0  0
   57.8429  195.4139   80.8746 H   0  0  0  0  0  0
   55.9010  196.7286   79.0048 H   0  0  0  0  0  0
   57.6970  196.7537   79.0271 H   0  0  0  0  0  0
   57.7296  194.5257   78.0343 H   0  0  0  0  0  0
   55.9339  194.5290   77.9890 H   0  0  0  0  0  0
   57.7808  195.3599   76.0351 H   0  0  0  0  0  0
   55.9850  195.3659   75.9908 H   0  0  0  0  0  0
   56.0755  196.5551   73.9705 H   0  0  0  0  0  0
   56.1275  198.4598   72.6131 H   0  0  0  0  0  0
   54.3687  198.5407   72.9692 H   0  0  0  0  0  0
   56.2185  200.4978   73.5960 H   0  0  0  0  0  0
   54.6190  200.2860   74.3855 H   0  0  0  0  0  0
   55.7330  199.7644   76.3103 H   0  0  0  0  0  0
   57.3068  199.7205   75.4455 H   0  0  0  0  0  0
  1  2  1  0  0  0
  1  5  1  0  0  0
  1  9  1  0  0  0
  2  3  1  0  0  0
  2  6  1  0  0  0
  2 25  1  0  0  0
  3  4  1  0  0  0
  3 26  1  0  0  0
  3 27  1  0  0  0
  4  5  1  0  0  0
  4 28  1  0  0  0
  4 29  1  0  0  0
  5 30  1  0  0  0
  5 31  1  0  0  0
  6  7  2  0  0  0
  6  8  1  0  0  0
  9 10  2  0  0  0
  9 11  1  0  0  0
 11 12  1  0  0  0
 11 32  1  0  0  0
 11 33  1  0  0  0
 12 13  1  0  0  0
 12 34  1  0  0  0
 12 35  1  0  0  0
 13 14  1  0  0  0
 13 36  1  0  0  0
 13 37  1  0  0  0
 14 15  1  0  0  0
 14 38  1  0  0  0
 14 39  1  0  0  0
 15 16  2  0  0  0
 15 17  1  0  0  0
 17 18  1  0  0  0
 17 21  1  0  0  0
 18 19  1  0  0  0
 18 22  1  0  0  0
 18 40  1  0  0  0
 19 20  1  0  0  0
 19 41  1  0  0  0
 19 42  1  0  0  0
 20 21  1  0  0  0
 20 43  1  0  0  0
 20 44  1  0  0  0
 21 45  1  0  0  0
 21 46  1  0  0  0
 22 23  2  0  0  0
 22 24  1  0  0  0
M  CHG  2   8  -1  24  -1
M  END
> <s_m_source_file>
../4avt_ligand.sdf

> <i_m_source_file_index>
1

> <s_epik_input>
W0NIMl0xW0NIMl1bQ0gyXVtDQEhdKEMoPU8pW09IXSlOMUMoPU8pW0NIMl1bQ0gyXVtDSDJdW0NIMl1DKD1PKU4yW0NAQEhdKEMoPU8pW09IXSlbQ0gyXVtDSDJdW0NIMl0y

> <s_epik_cmdline>
J2VwaWtfYXBwJywgJy1pbWFlJywgJ2xpZ2FuZF9wcm8ubWFlJywgJy1vbWFlJywgJ2xpZ2FuZF9wcmVwLm1hZScsICctbXMnLCAnMScsICctcGgnLCAnNycsICctcGh0JywgJzAuNScsICctbnQn

> <r_lp_tautomer_probability>
1

> <r_epik_Ionization_Penalty>
  0.0010

> <r_epik_Ionization_Penalty_Charging>
  0.0010

> <r_epik_Ionization_Penalty_Neutral>
  0.0000

> <r_epik_State_Penalty>
 -0.0000

> <r_epik_Charging_Adjusted_Penalty>
0.00095596772215954

> <i_epik_Tot_Q>
-2

> <i_epik_Tot_abs_Q>
2

$$$$
