4avw_ligand
                    3D
 Schrodinger Suite 2020-3.
 21 23  0  0  1  0            999 V2000
  -39.9220  -12.7980   13.3380 C   0  0  0  0  0  0
  -39.1160  -12.2410   14.4460 C   0  0  0  0  0  0
  -39.2910  -12.7010   15.7440 C   0  0  0  0  0  0
  -40.2380  -13.6960   16.0000 C   0  0  0  0  0  0
  -41.0090  -14.2430   14.9490 C   0  0  0  0  0  0
  -40.8600  -13.7850   13.6270 C   0  0  0  0  0  0
  -39.8750  -11.9170    9.7320 C   0  0  0  0  0  0
  -40.3570  -12.6320   10.8260 C   0  0  0  0  0  0
  -39.7010  -12.2690   12.0610 C   0  0  0  0  0  0
  -38.6860  -11.2400   11.8440 C   0  0  0  0  0  0
  -37.9600  -10.7620   12.8610 N   0  0  0  0  0  0
  -38.6350  -10.7760   10.1980 S   0  0  0  0  0  0
  -38.1120  -11.1870   14.1210 C   0  0  0  0  0  0
  -37.3920  -10.7150   15.0270 O   0  0  0  0  0  0
  -38.6940  -12.2890   16.5576 H   0  0  0  0  0  0
  -40.3836  -14.0536   17.0193 H   0  0  0  0  0  0
  -41.7297  -15.0314   15.1660 H   0  0  0  0  0  0
  -41.4774  -14.2019   12.8313 H   0  0  0  0  0  0
  -40.2280  -12.0524    8.7097 H   0  0  0  0  0  0
  -41.1435  -13.3836   10.7577 H   0  0  0  0  0  0
  -37.2008   -9.9872   12.6784 H   0  0  0  0  0  0
  1  2  2  0  0  0
  1  6  1  0  0  0
  1  9  1  0  0  0
  2  3  1  0  0  0
  2 13  1  0  0  0
  3  4  2  0  0  0
  3 15  1  0  0  0
  4  5  1  0  0  0
  4 16  1  0  0  0
  5  6  2  0  0  0
  5 17  1  0  0  0
  6 18  1  0  0  0
  7  8  2  0  0  0
  7 12  1  0  0  0
  7 19  1  0  0  0
  8  9  1  0  0  0
  8 20  1  0  0  0
  9 10  2  0  0  0
 10 11  1  0  0  0
 10 12  1  0  0  0
 11 13  1  0  0  0
 11 21  1  0  0  0
 13 14  2  0  0  0
M  END
> <s_m_source_file>
../4avw_ligand.sdf

> <i_m_source_file_index>
1

> <s_epik_input>
W2NIXTFbY0hdW2NIXVtjSF1jKGMxMiljKD1PKVtuSF1jM2MyW2NIXVtjSF1zMw==

> <s_epik_cmdline>
J2VwaWtfYXBwJywgJy1pbWFlJywgJ2xpZ2FuZF9wcm8ubWFlJywgJy1vbWFlJywgJ2xpZ2FuZF9wcmVwLm1hZScsICctbXMnLCAnMScsICctcGgnLCAnNycsICctcGh0JywgJzAuNScsICctbnQn

> <r_lp_tautomer_probability>
1

> <r_epik_Ionization_Penalty>
  0.0000

> <r_epik_Ionization_Penalty_Charging>
  0.0000

> <r_epik_Ionization_Penalty_Neutral>
  0.0000

> <r_epik_State_Penalty>
 -0.0000

> <r_epik_Charging_Adjusted_Penalty>
1.77789389456905e-05

> <i_epik_Tot_Q>
0

> <i_epik_Tot_abs_Q>
0

$$$$
