4aw5_ligand
                    3D
 Schrodinger Suite 2020-3.
 68 73  0  0  1  0            999 V2000
    9.2440   -6.8380   12.5310 O   0  0  0  0  0  0
   10.3060   -6.1610   12.2720 C   0  0  0  0  0  0
   10.4140   -4.8640   12.6420 N   0  0  0  0  0  0
   11.6720   -4.4220   12.2650 C   0  0  0  0  0  0
   12.2820   -3.1690   12.3890 C   0  0  0  0  0  0
   12.4320   -5.4940   11.5910 C   0  0  0  0  0  0
   13.6950   -5.2900   11.0950 C   0  0  0  0  0  0
   14.2570   -4.0310   11.2570 C   0  0  0  0  0  0
   15.4580   -3.7740   10.7370 N   0  0  0  0  0  0
   16.0290   -4.5710    9.6750 C   0  0  1  0  0  0
   15.3760   -4.1780    8.3320 C   0  0  0  0  0  0
   16.1050   -4.7260    7.0960 C   0  0  0  0  0  0
   17.5640   -4.6030    7.1520 N   0  3  2  0  0  0
   18.1690   -5.3920    6.0780 C   0  0  0  0  0  0
   19.6780   -5.3060    5.9600 C   0  0  0  0  0  0
   18.0770   -5.0900    8.4300 C   0  0  0  0  0  0
   17.5220   -4.3400    9.6340 C   0  0  0  0  0  0
   13.5690   -2.9720   11.8880 C   0  0  0  0  0  0
   11.5400   -6.6830   11.5660 C   0  0  0  0  0  0
   11.9180   -8.0070   11.0050 C   0  0  0  0  0  0
   13.2520   -8.2490   10.3440 C   0  0  0  0  0  0
   13.3590   -8.2070    8.9410 C   0  0  0  0  0  0
   14.5830   -8.4000    8.3050 C   0  0  0  0  0  0
   15.7040   -8.6450    9.0790 C   0  0  0  0  0  0
   15.6060   -8.6920   10.4830 C   0  0  0  0  0  0
   14.3790   -8.5090   11.1160 C   0  0  0  0  0  0
   10.9730   -9.1360   10.9720 C   0  0  0  0  0  0
   11.3700  -10.3240   10.4060 N   0  0  0  0  0  0
   10.3250  -11.1610   10.4760 C   0  0  0  0  0  0
   10.0270  -12.5120   10.0940 C   0  0  0  0  0  0
    9.2610  -10.3870   11.1130 C   0  0  0  0  0  0
    9.6760   -9.1610   11.3960 N   0  0  0  0  0  0
    7.9560  -10.9530   11.3610 C   0  0  0  0  0  0
    7.7350  -12.2810   10.9760 C   0  0  0  0  0  0
    8.7630  -13.0370   10.3700 C   0  0  0  0  0  0
    8.5070  -14.3270    9.9620 O   0  0  0  0  0  0
    8.2220  -14.4610    8.5660 C   0  0  0  0  0  0
    9.5744   -4.3645   13.1475 H   0  0  0  0  0  0
   11.7533   -2.3493   12.8755 H   0  0  0  0  0  0
   14.2385   -6.0892   10.5910 H   0  0  0  0  0  0
   16.0179   -2.9198   11.1455 H   0  0  0  0  0  0
   15.8293   -5.6260    9.9141 H   0  0  0  0  0  0
   14.3465   -4.5639    8.2981 H   0  0  0  0  0  0
   15.3600   -3.0821    8.2389 H   0  0  0  0  0  0
   15.8767   -5.7958    6.9800 H   0  0  0  0  0  0
   15.7705   -4.1806    6.2012 H   0  0  0  0  0  0
   17.8231   -3.5399    7.0395 H   0  0  0  0  0  0
   17.9344   -6.4562    6.2280 H   0  0  0  0  0  0
   17.7674   -5.0610    5.1089 H   0  0  0  0  0  0
   20.0169   -5.9358    5.1242 H   0  0  0  0  0  0
   20.1395   -5.6575    6.8946 H   0  0  0  0  0  0
   19.9725   -4.2623    5.7756 H   0  0  0  0  0  0
   17.8110   -6.1504    8.5518 H   0  0  0  0  0  0
   19.1715   -4.9818    8.4510 H   0  0  0  0  0  0
   17.7239   -3.2629    9.5386 H   0  0  0  0  0  0
   17.9771   -4.7176   10.5615 H   0  0  0  0  0  0
   14.0454   -1.9963   11.9842 H   0  0  0  0  0  0
   12.4680   -8.0201    8.3416 H   0  0  0  0  0  0
   14.6567   -8.3589    7.2183 H   0  0  0  0  0  0
   16.6695   -8.8027    8.5984 H   0  0  0  0  0  0
   16.4995   -8.8734   11.0804 H   0  0  0  0  0  0
   14.3031   -8.5688   12.2017 H   0  0  0  0  0  0
   10.7907  -13.1221    9.5894 H   0  0  0  0  0  0
    7.1683  -10.3655   11.8327 H   0  0  0  0  0  0
    6.7481  -12.7347   11.1500 H   0  0  0  0  0  0
    8.0311  -15.5184    8.3306 H   0  0  0  0  0  0
    9.0822  -14.1045    7.9803 H   0  0  0  0  0  0
    7.3337  -13.8631    8.3141 H   0  0  0  0  0  0
  1  2  2  0  0  0
  2  3  1  0  0  0
  2 19  1  0  0  0
  3  4  1  0  0  0
  3 38  1  0  0  0
  4  5  2  0  0  0
  4  6  1  0  0  0
  5 18  1  0  0  0
  5 39  1  0  0  0
  6  7  2  0  0  0
  6 19  1  0  0  0
  7  8  1  0  0  0
  7 40  1  0  0  0
  8  9  1  0  0  0
  8 18  2  0  0  0
  9 10  1  0  0  0
  9 41  1  0  0  0
 10 11  1  0  0  0
 10 17  1  0  0  0
 10 42  1  0  0  0
 11 12  1  0  0  0
 11 43  1  0  0  0
 11 44  1  0  0  0
 12 13  1  0  0  0
 12 45  1  0  0  0
 12 46  1  0  0  0
 13 14  1  0  0  0
 13 16  1  0  0  0
 13 47  1  0  0  0
 14 15  1  0  0  0
 14 48  1  0  0  0
 14 49  1  0  0  0
 15 50  1  0  0  0
 15 51  1  0  0  0
 15 52  1  0  0  0
 16 17  1  0  0  0
 16 53  1  0  0  0
 16 54  1  0  0  0
 17 55  1  0  0  0
 17 56  1  0  0  0
 18 57  1  0  0  0
 19 20  2  0  0  0
 20 21  1  0  0  0
 20 27  1  0  0  0
 21 22  2  0  0  0
 21 26  1  0  0  0
 22 23  1  0  0  0
 22 58  1  0  0  0
 23 24  2  0  0  0
 23 59  1  0  0  0
 24 25  1  0  0  0
 24 60  1  0  0  0
 25 26  2  0  0  0
 25 61  1  0  0  0
 26 62  1  0  0  0
 27 28  2  0  0  0
 27 32  1  0  0  0
 28 29  1  0  0  0
 29 30  2  0  0  0
 29 31  1  0  0  0
 30 35  1  0  0  0
 30 63  1  0  0  0
 31 32  2  0  0  0
 31 33  1  0  0  0
 33 34  1  0  0  0
 33 64  1  0  0  0
 34 35  2  0  0  0
 34 65  1  0  0  0
 35 36  1  0  0  0
 36 37  1  0  0  0
 37 66  1  0  0  0
 37 67  1  0  0  0
 37 68  1  0  0  0
M  CHG  1  13   1
M  END
> <s_m_source_file>
../4aw5_ligand.sdf

> <i_m_source_file_index>
1

> <s_epik_input>
W0NIM11PQyhbQ0hdMSk9W0NIXVtDSDJdQyhDPTEyKT1OQyg9TjIpQygvYzNbY0hdW2NIXVtjSF1bY0hdW2NIXTMpPUMoXEMoPU8pW05IXTQpYyhjNDUpW2NIXWMoW2NIXVtjSF01KVtOSF1bQ0BIXTZbQ0gyXVtDSDJdW05ASCtdKFtDSDJdW0NIM10pW0NIMl1bQ0gyXTY=

> <s_epik_cmdline>
J2VwaWtfYXBwJywgJy1pbWFlJywgJ2xpZ2FuZF9wcm8ubWFlJywgJy1vbWFlJywgJ2xpZ2FuZF9wcmVwLm1hZScsICctbXMnLCAnMScsICctcGgnLCAnNycsICctcGh0JywgJzAuNScsICctbnQn

> <r_lp_tautomer_probability>
1

> <r_epik_Ionization_Penalty>
  0.0005

> <r_epik_Ionization_Penalty_Charging>
  0.0005

> <r_epik_Ionization_Penalty_Neutral>
  0.0000

> <r_epik_State_Penalty>
 -0.0000

> <r_epik_Charging_Adjusted_Penalty>
0.000506260872356625

> <i_epik_Tot_Q>
1

> <i_epik_Tot_abs_Q>
1

> <s_epik_Chemistry_Notes>
This compound has an imine and may undergo hydrolysis.

$$$$
