4aw8_ligand
                    3D
 Schrodinger Suite 2020-3.
 42 42  0  0  1  0            999 V2000
   18.7160   22.6150   -8.3090 C   0  0  0  0  0  0
   19.1680   21.8640   -9.4330 O   0  0  0  0  0  0
   18.1360   21.0470   -9.9750 C   0  0  0  0  0  0
   17.8530   21.5210  -11.3900 C   0  0  0  0  0  0
   16.6870   20.8550  -11.8610 O   0  0  0  0  0  0
   16.7520   19.4390  -11.6220 C   0  0  2  0  0  0
   16.5740   18.7090  -12.9510 C   0  0  0  0  0  0
   16.0220   17.4070  -12.7530 O   0  0  0  0  0  0
   15.0750   17.0940  -13.7700 C   0  0  0  0  0  0
   13.7650   17.7320  -13.3410 C   0  0  0  0  0  0
   13.9210   17.9910  -11.9460 O   0  0  0  0  0  0
   15.2450   18.5010  -11.7590 C   0  0  0  0  0  0
   15.1870   20.0070  -11.5690 C   0  0  1  0  0  0
   14.8080   20.2810  -10.2220 O   0  0  0  0  0  0
   15.0840   21.6490   -9.8670 C   0  0  0  0  0  0
   14.0540   22.5410  -10.5430 C   0  0  0  0  0  0
   13.5170   23.4730   -9.6030 O   0  0  0  0  0  0
   14.2060   23.4000   -8.3940 C   0  0  0  0  0  0
   19.5421   23.2301   -7.9228 H   0  0  0  0  0  0
   18.3724   21.9270   -7.5225 H   0  0  0  0  0  0
   17.8846   23.2674   -8.6143 H   0  0  0  0  0  0
   18.4665   19.9979   -9.9857 H   0  0  0  0  0  0
   17.2314   21.1401   -9.3561 H   0  0  0  0  0  0
   17.6899   22.6088  -11.3865 H   0  0  0  0  0  0
   18.7106   21.2809  -12.0356 H   0  0  0  0  0  0
   17.4965   18.9227  -10.9982 H   0  0  0  0  0  0
   15.8947   19.2843  -13.5972 H   0  0  0  0  0  0
   17.5508   18.6052  -13.4461 H   0  0  0  0  0  0
   15.4192   17.5051  -14.7305 H   0  0  0  0  0  0
   14.9742   16.0018  -13.8536 H   0  0  0  0  0  0
   13.6047   18.6590  -13.9110 H   0  0  0  0  0  0
   12.9367   17.0346  -13.5347 H   0  0  0  0  0  0
   15.6944   18.0367  -10.8688 H   0  0  0  0  0  0
   15.8564   18.2668  -12.6429 H   0  0  0  0  0  0
   14.6286   20.8149  -12.0645 H   0  0  0  0  0  0
   15.0210   21.7642   -8.7749 H   0  0  0  0  0  0
   16.0948   21.9192  -10.2065 H   0  0  0  0  0  0
   14.5311   23.0935  -11.3659 H   0  0  0  0  0  0
   13.2377   21.9211  -10.9423 H   0  0  0  0  0  0
   13.7788   24.1237   -7.6843 H   0  0  0  0  0  0
   15.2675   23.6342   -8.5622 H   0  0  0  0  0  0
   14.1155   22.3844   -7.9812 H   0  0  0  0  0  0
  1  2  1  0  0  0
  1 19  1  0  0  0
  1 20  1  0  0  0
  1 21  1  0  0  0
  2  3  1  0  0  0
  3  4  1  0  0  0
  3 22  1  0  0  0
  3 23  1  0  0  0
  4  5  1  0  0  0
  4 24  1  0  0  0
  4 25  1  0  0  0
  5  6  1  0  0  0
  6  7  1  0  0  0
  6 13  1  0  0  0
  6 26  1  0  0  0
  7  8  1  0  0  0
  7 27  1  0  0  0
  7 28  1  0  0  0
  8  9  1  0  0  0
  9 10  1  0  0  0
  9 29  1  0  0  0
  9 30  1  0  0  0
 10 11  1  0  0  0
 10 31  1  0  0  0
 10 32  1  0  0  0
 11 12  1  0  0  0
 12 13  1  0  0  0
 12 33  1  0  0  0
 12 34  1  0  0  0
 13 14  1  0  0  0
 13 35  1  0  0  0
 14 15  1  0  0  0
 15 16  1  0  0  0
 15 36  1  0  0  0
 15 37  1  0  0  0
 16 17  1  0  0  0
 16 38  1  0  0  0
 16 39  1  0  0  0
 17 18  1  0  0  0
 18 40  1  0  0  0
 18 41  1  0  0  0
 18 42  1  0  0  0
M  END
> <s_m_source_file>
../4aw8_ligand.sdf

> <i_m_source_file_index>
1

> <s_epik_input>
W0NIM11PW0NIMl1bQ0gyXU9bQ0BASF0xW0NIMl1PW0NIMl1bQ0gyXU9bQ0gyXVtDQEhdMU9bQ0gyXVtDSDJdT1tDSDNd

> <s_epik_cmdline>
J2VwaWtfYXBwJywgJy1pbWFlJywgJ2xpZ2FuZF9wcm8ubWFlJywgJy1vbWFlJywgJ2xpZ2FuZF9wcmVwLm1hZScsICctbXMnLCAnMScsICctcGgnLCAnNycsICctcGh0JywgJzAuNScsICctbnQn

> <r_lp_tautomer_probability>
1

> <r_epik_Ionization_Penalty>
  0.0000

> <r_epik_Ionization_Penalty_Charging>
  0.0000

> <r_epik_Ionization_Penalty_Neutral>
  0.0000

> <r_epik_State_Penalty>
 -0.0000

> <r_epik_Charging_Adjusted_Penalty>
0

> <i_epik_Tot_Q>
0

> <i_epik_Tot_abs_Q>
0

$$$$
