4awf_ligand
                    3D
 Schrodinger Suite 2020-3.
 21 21  0  0  1  0            999 V2000
   -9.3610    8.9600    3.4800 O   0  0  0  0  0  0
   -9.0570    8.2600    2.5790 C   0  0  0  0  0  0
   -9.6090    6.9270    2.6380 C   0  0  0  0  0  0
   -9.3820    6.1600    1.6710 O   0  5  0  0  0  0
  -10.3000    6.6470    3.6370 O   0  0  0  0  0  0
   -8.1920    8.5970    1.3790 C   0  0  0  0  0  0
   -7.5330    9.9500    1.2700 C   0  0  0  0  0  0
   -6.4340   10.0590    0.2560 C   0  0  0  0  0  0
   -6.4370    9.2470   -0.8680 C   0  0  0  0  0  0
   -5.4180    9.3400   -1.8000 C   0  0  0  0  0  0
   -4.3640   10.2310   -1.5920 C   0  0  0  0  0  0
   -4.3380   11.0280   -0.4440 C   0  0  0  0  0  0
   -5.3810   10.9360    0.4810 C   0  0  0  0  0  0
   -7.8120   10.9020    1.9700 O   0  0  0  0  0  0
   -7.3508    7.8904    1.3234 H   0  0  0  0  0  0
   -8.7937    8.5237    0.4611 H   0  0  0  0  0  0
   -7.2458    8.5319   -1.0183 H   0  0  0  0  0  0
   -5.4386    8.7183   -2.6951 H   0  0  0  0  0  0
   -3.5608   10.3054   -2.3251 H   0  0  0  0  0  0
   -3.5103   11.7160   -0.2718 H   0  0  0  0  0  0
   -5.3682   11.5528    1.3796 H   0  0  0  0  0  0
  1  2  2  0  0  0
  2  3  1  0  0  0
  2  6  1  0  0  0
  3  4  1  0  0  0
  3  5  2  0  0  0
  6  7  1  0  0  0
  6 15  1  0  0  0
  6 16  1  0  0  0
  7  8  1  0  0  0
  7 14  2  0  0  0
  8  9  2  0  0  0
  8 13  1  0  0  0
  9 10  1  0  0  0
  9 17  1  0  0  0
 10 11  2  0  0  0
 10 18  1  0  0  0
 11 12  1  0  0  0
 11 19  1  0  0  0
 12 13  2  0  0  0
 12 20  1  0  0  0
 13 21  1  0  0  0
M  CHG  1   4  -1
M  END
> <s_m_source_file>
../4awf_ligand.sdf

> <i_m_source_file_index>
1

> <s_epik_input>
W09IXUMoPU8pQyg9TylbQ0gyXUMoPU8pYzFbY0hdW2NIXVtjSF1bY0hdW2NIXTE=

> <s_epik_cmdline>
J2VwaWtfYXBwJywgJy1pbWFlJywgJ2xpZ2FuZF9wcm8ubWFlJywgJy1vbWFlJywgJ2xpZ2FuZF9wcmVwLm1hZScsICctbXMnLCAnMScsICctcGgnLCAnNycsICctcGh0JywgJzAuNScsICctbnQn

> <r_lp_tautomer_probability>
1

> <r_epik_Ionization_Penalty>
  0.0012

> <r_epik_Ionization_Penalty_Charging>
  0.0000

> <r_epik_Ionization_Penalty_Neutral>
  0.0012

> <r_epik_State_Penalty>
 -0.0000

> <r_epik_Charging_Adjusted_Penalty>
2.94508292767046e-05

> <i_epik_Tot_Q>
-1

> <i_epik_Tot_abs_Q>
1

$$$$
