4awg_ligand
                    3D
 Schrodinger Suite 2020-3.
 53 55  0  0  1  0            999 V2000
  -25.1320  -19.9040   21.3950 Cl  0  0  0  0  0  0
  -23.7910  -19.8130   22.5690 C   0  0  0  0  0  0
  -24.0750  -19.7480   23.9380 C   0  0  0  0  0  0
  -23.0090  -19.6660   24.8330 C   0  0  0  0  0  0
  -22.4850  -19.8010   22.0780 C   0  0  0  0  0  0
  -21.4470  -19.7120   22.9820 C   0  0  0  0  0  0
  -21.7070  -19.6540   24.3480 C   0  0  0  0  0  0
  -20.5460  -19.5290   25.2870 C   0  0  0  0  0  0
  -20.2050  -18.0480   25.5680 C   0  0  1  0  0  0
  -18.8640  -17.9840   26.3360 C   0  0  0  0  0  0
  -19.9920  -17.2900   24.2630 C   0  0  0  0  0  0
  -18.8780  -17.3100   23.7680 O   0  0  0  0  0  0
  -21.0550  -16.6050   23.4920 C   0  0  0  0  0  0
  -20.7930  -16.2000   22.2160 C   0  0  0  0  0  0
  -19.5820  -16.3260   21.6290 O   0  0  0  0  0  0
  -21.8650  -15.5690   21.4560 C   0  0  0  0  0  0
  -21.3820  -17.4380   26.3700 C   0  0  0  0  0  0
  -21.6600  -15.2360   20.2610 O   0  5  0  0  0  0
  -22.9730  -15.3830   22.0190 O   0  0  0  0  0  0
  -21.0500  -16.1910   27.1990 C   0  0  0  0  0  0
  -19.6090  -16.1250   27.6820 C   0  0  0  0  0  0
  -19.0410  -17.4920   27.7110 N   0  3  2  0  0  0
  -17.7440  -17.5280   28.4740 C   0  0  0  0  0  0
  -17.6450  -18.8670   29.1560 C   0  0  0  0  0  0
  -16.9210  -19.8970   28.5530 C   0  0  0  0  0  0
  -16.8820  -21.1390   29.1580 C   0  0  0  0  0  0
  -17.5690  -21.3400   30.3540 C   0  0  0  0  0  0
  -18.2960  -20.3090   30.9590 C   0  0  0  0  0  0
  -18.3330  -19.0600   30.3480 C   0  0  0  0  0  0
  -25.1045  -19.7612   24.2958 H   0  0  0  0  0  0
  -23.1957  -19.6117   25.9055 H   0  0  0  0  0  0
  -22.2900  -19.8604   21.0072 H   0  0  0  0  0  0
  -20.4176  -19.6870   22.6246 H   0  0  0  0  0  0
  -20.7920  -20.0177   26.2413 H   0  0  0  0  0  0
  -19.6627  -20.0126   24.8444 H   0  0  0  0  0  0
  -18.4211  -18.9897   26.3848 H   0  0  0  0  0  0
  -18.1743  -17.3046   25.8137 H   0  0  0  0  0  0
  -21.9251  -17.2710   23.3957 H   0  0  0  0  0  0
  -22.1833  -17.1418   25.6771 H   0  0  0  0  0  0
  -21.7682  -18.1846   27.0795 H   0  0  0  0  0  0
  -21.2276  -15.2901   26.5933 H   0  0  0  0  0  0
  -21.6903  -16.1639   28.0930 H   0  0  0  0  0  0
  -19.0213  -15.4959   26.9973 H   0  0  0  0  0  0
  -19.5806  -15.6923   28.6929 H   0  0  0  0  0  0
  -19.7573  -18.1553   28.2178 H   0  0  0  0  0  0
  -16.9043  -17.3931   27.7763 H   0  0  0  0  0  0
  -17.7347  -16.7194   29.2197 H   0  0  0  0  0  0
  -16.3924  -19.7237   27.6156 H   0  0  0  0  0  0
  -16.3189  -21.9543   28.7038 H   0  0  0  0  0  0
  -17.5392  -22.3211   30.8280 H   0  0  0  0  0  0
  -18.8258  -20.4821   31.8957 H   0  0  0  0  0  0
  -18.8951  -18.2421   30.7988 H   0  0  0  0  0  0
  -21.3535  -15.6852   24.0163 H   0  0  0  0  0  0
  1  2  1  0  0  0
  2  3  2  0  0  0
  2  5  1  0  0  0
  3  4  1  0  0  0
  3 30  1  0  0  0
  4  7  2  0  0  0
  4 31  1  0  0  0
  5  6  2  0  0  0
  5 32  1  0  0  0
  6  7  1  0  0  0
  6 33  1  0  0  0
  7  8  1  0  0  0
  8  9  1  0  0  0
  8 34  1  0  0  0
  8 35  1  0  0  0
  9 10  1  0  0  0
  9 11  1  0  0  0
  9 17  1  0  0  0
 10 22  1  0  0  0
 10 36  1  0  0  0
 10 37  1  0  0  0
 11 12  2  0  0  0
 11 13  1  0  0  0
 13 14  1  0  0  0
 13 38  1  0  0  0
 13 53  1  0  0  0
 14 15  2  0  0  0
 14 16  1  0  0  0
 16 18  1  0  0  0
 16 19  2  0  0  0
 17 20  1  0  0  0
 17 39  1  0  0  0
 17 40  1  0  0  0
 20 21  1  0  0  0
 20 41  1  0  0  0
 20 42  1  0  0  0
 21 22  1  0  0  0
 21 43  1  0  0  0
 21 44  1  0  0  0
 22 23  1  0  0  0
 22 45  1  0  0  0
 23 24  1  0  0  0
 23 46  1  0  0  0
 23 47  1  0  0  0
 24 25  2  0  0  0
 24 29  1  0  0  0
 25 26  1  0  0  0
 25 48  1  0  0  0
 26 27  2  0  0  0
 26 49  1  0  0  0
 27 28  1  0  0  0
 27 50  1  0  0  0
 28 29  2  0  0  0
 28 51  1  0  0  0
 29 52  1  0  0  0
M  CHG  2  18  -1  22   1
M  END
> <s_m_source_file>
../4awg_ligand.sdf

> <i_m_source_file_index>
1

> <s_epik_input>
Q2xjMVtjSF1bY0hdYyhbY0hdW2NIXTEpW0NIMl1bQ0BdMihDKD1PKS9bQ0hdPUMoXFtPSF0pQyg9TylbT0hdKVtDSDJdW05ASCtdKFtDSDJdW0NIMl1bQ0gyXTIpW0NIMl1jM1tjSF1bY0hdW2NIXVtjSF1bY0hdMw==

> <s_epik_cmdline>
J2VwaWtfYXBwJywgJy1pbWFlJywgJ2xpZ2FuZF9wcm8ubWFlJywgJy1vbWFlJywgJ2xpZ2FuZF9wcmVwLm1hZScsICctbXMnLCAnMScsICctcGgnLCAnNycsICctcGh0JywgJzAuNScsICctbnQn

> <r_lp_tautomer_probability>
1

> <r_epik_Ionization_Penalty>
  0.0185

> <r_epik_Ionization_Penalty_Charging>
  0.0175

> <r_epik_Ionization_Penalty_Neutral>
  0.0010

> <r_epik_State_Penalty>
 -0.0000

> <r_epik_Charging_Adjusted_Penalty>
0.0175148787309316

> <i_epik_Tot_Q>
0

> <i_epik_Tot_abs_Q>
2

$$$$
