4awi_ligand
                    3D
 Schrodinger Suite 2020-3.
 55 58  0  0  1  0            999 V2000
   24.5540    7.4680   29.9190 C   0  0  0  0  0  0
   23.6040    6.4800   30.5670 C   0  0  0  0  0  0
   24.3420    5.4220   31.3590 C   0  0  0  0  0  0
   22.5710    7.1730   31.4350 C   0  0  0  0  0  0
   22.4840    8.4790   31.7360 C   0  0  0  0  0  0
   21.3360    8.6340   32.5910 C   0  0  0  0  0  0
   20.6710    9.6740   33.2670 C   0  0  0  0  0  0
   19.5360    9.3920   34.0290 C   0  0  0  0  0  0
   19.1030    8.0850   34.0990 C   0  0  0  0  0  0
   19.7060    7.0610   33.4780 N   0  0  0  0  0  0
   20.7960    7.3540   32.7470 C   0  0  0  0  0  0
   21.5620    6.4670   32.0380 N   0  3  0  0  0  0
   21.1230   11.1000   33.2080 C   0  0  0  0  0  0
   22.4750   11.4340   33.1340 C   0  0  0  0  0  0
   22.8900   12.7550   33.0920 C   0  0  0  0  0  0
   21.9450   13.7690   33.1400 C   0  0  0  0  0  0
   20.5990   13.4670   33.2380 C   0  0  0  0  0  0
   20.1990   12.1420   33.2740 C   0  0  0  0  0  0
   22.4590   15.4570   33.1110 S   0  0  0  0  0  0
   23.8790   15.4870   33.2930 O   0  0  0  0  0  0
   21.6180   16.1930   34.0050 O   0  0  0  0  0  0
   22.1540   16.0440   31.6400 N   0  0  3  0  0  0
   23.1410   16.0280   30.5520 C   0  0  0  0  0  0
   22.8200   14.8950   29.5940 C   0  0  0  0  0  0
   23.9010   14.7550   28.5320 C   0  0  0  0  0  0
   23.9210   16.2210   27.5520 S   0  0  0  0  0  0
   25.0470   16.1710   26.6600 O   0  0  0  0  0  0
   22.6150   16.4240   26.9860 O   0  0  0  0  0  0
   24.2120   17.4570   28.7750 C   0  0  0  0  0  0
   23.1240   17.3680   29.8390 C   0  0  0  0  0  0
   25.2834    6.9239   29.3010 H   0  0  0  0  0  0
   25.0841    8.0331   30.6998 H   0  0  0  0  0  0
   23.9837    8.1638   29.2860 H   0  0  0  0  0  0
   23.0730    5.9750   29.7466 H   0  0  0  0  0  0
   25.0852    4.9321   30.7128 H   0  0  0  0  0  0
   23.6254    4.6729   31.7269 H   0  0  0  0  0  0
   24.8517    5.8922   32.2129 H   0  0  0  0  0  0
   23.1538    9.2697   31.3979 H   0  0  0  0  0  0
   19.0053   10.1853   34.5555 H   0  0  0  0  0  0
   18.2163    7.8710   34.6956 H   0  0  0  0  0  0
   23.2205   10.6392   33.1087 H   0  0  0  0  0  0
   23.9508   12.9956   33.0218 H   0  0  0  0  0  0
   19.8589   14.2658   33.2865 H   0  0  0  0  0  0
   19.1375   11.9082   33.3558 H   0  0  0  0  0  0
   21.2190   16.6121   31.5261 H   0  0  0  0  0  0
   24.1361   15.8605   30.9898 H   0  0  0  0  0  0
   22.7510   13.9503   30.1533 H   0  0  0  0  0  0
   21.8604   15.0969   29.0956 H   0  0  0  0  0  0
   24.8776   14.6169   29.0189 H   0  0  0  0  0  0
   23.6811   13.8837   27.8976 H   0  0  0  0  0  0
   25.1967   17.2915   29.2365 H   0  0  0  0  0  0
   24.1901   18.4510   28.3043 H   0  0  0  0  0  0
   22.1495   17.5103   29.3491 H   0  0  0  0  0  0
   23.2884   18.1740   30.5693 H   0  0  0  0  0  0
   21.4917    5.3784   31.8965 H   0  0  0  0  0  0
  1  2  1  0  0  0
  1 31  1  0  0  0
  1 32  1  0  0  0
  1 33  1  0  0  0
  2  3  1  0  0  0
  2  4  1  0  0  0
  2 34  1  0  0  0
  3 35  1  0  0  0
  3 36  1  0  0  0
  3 37  1  0  0  0
  4  5  2  0  0  0
  4 12  1  0  0  0
  5  6  1  0  0  0
  5 38  1  0  0  0
  6  7  2  0  0  0
  6 11  1  0  0  0
  7  8  1  0  0  0
  7 13  1  0  0  0
  8  9  2  0  0  0
  8 39  1  0  0  0
  9 10  1  0  0  0
  9 40  1  0  0  0
 10 11  1  0  0  0
 11 12  2  0  0  0
 12 55  1  0  0  0
 13 14  2  0  0  0
 13 18  1  0  0  0
 14 15  1  0  0  0
 14 41  1  0  0  0
 15 16  2  0  0  0
 15 42  1  0  0  0
 16 17  1  0  0  0
 16 19  1  0  0  0
 17 18  2  0  0  0
 17 43  1  0  0  0
 18 44  1  0  0  0
 19 20  2  0  0  0
 19 21  2  0  0  0
 19 22  1  0  0  0
 22 23  1  0  0  0
 22 45  1  0  0  0
 23 24  1  0  0  0
 23 30  1  0  0  0
 23 46  1  0  0  0
 24 25  1  0  0  0
 24 47  1  0  0  0
 24 48  1  0  0  0
 25 26  1  0  0  0
 25 49  1  0  0  0
 25 50  1  0  0  0
 26 27  2  0  0  0
 26 28  2  0  0  0
 26 29  1  0  0  0
 29 30  1  0  0  0
 29 51  1  0  0  0
 29 52  1  0  0  0
 30 53  1  0  0  0
 30 54  1  0  0  0
M  CHG  1  12   1
M  END
> <s_m_source_file>
../4awi_ligand.sdf

> <i_m_source_file_index>
1

> <s_epik_input>
W0NIM11bQ0hdKFtDSDNdKWMoW2NIXTEpbmMoYzEyKVtuSF1bY0hdW2NIXWMyLWMzW2NIXVtjSF1jKFtjSF1bY0hdMylTKD1PKSg9TylbTkhdW0NIXShbQ0gyXVtDSDJdNClbQ0gyXVtDSDJdUzQoPU8pPU8=

> <s_epik_cmdline>
J2VwaWtfYXBwJywgJy1pbWFlJywgJ2xpZ2FuZF9wcm8ubWFlJywgJy1vbWFlJywgJ2xpZ2FuZF9wcmVwLm1hZScsICctbXMnLCAnMScsICctcGgnLCAnNycsICctcGh0JywgJzAuNScsICctbnQn

> <r_lp_tautomer_probability>
1

> <r_epik_Ionization_Penalty>
  0.0002

> <r_epik_Ionization_Penalty_Charging>
  0.0000

> <r_epik_Ionization_Penalty_Neutral>
  0.0002

> <r_epik_State_Penalty>
 -0.0000

> <r_epik_Charging_Adjusted_Penalty>
9.74507272261273e-09

> <i_epik_Tot_Q>
1

> <i_epik_Tot_abs_Q>
1

$$$$
