4awj_ligand
                    3D
 Schrodinger Suite 2020-3.
 27 27  0  0  1  0            999 V2000
   -9.9740   31.7170    0.9150 O   0  0  0  0  0  0
   -8.6380   31.4420    1.2880 C   0  0  2  0  0  0
   -8.2020   32.5390    2.2520 C   0  0  0  0  0  0
   -7.6640   33.6770    1.3810 C   0  0  1  0  0  0
   -6.3270   34.1510    1.9590 C   0  0  0  0  0  0
   -6.4410   35.1790    2.9160 N   0  0  0  0  0  0
   -5.2150   35.6780    3.5060 C   0  0  0  0  0  0
   -5.2520   33.7000    1.6380 O   0  0  0  0  0  0
   -7.4510   33.0820    0.0410 N   0  0  0  0  0  0
   -7.0030   33.8680   -1.0410 C   0  0  0  0  0  0
   -6.8150   33.1780   -2.3750 C   0  0  0  0  0  0
   -6.7820   35.0570   -0.8780 O   0  0  0  0  0  0
   -7.7710   31.6520    0.0360 C   0  0  0  0  0  0
  -10.7811   31.6315    1.6575 H   0  0  0  0  0  0
   -8.6168   30.4272    1.7120 H   0  0  0  0  0  0
   -9.0662   32.8687    2.8473 H   0  0  0  0  0  0
   -7.4221   32.1491    2.9227 H   0  0  0  0  0  0
   -8.3516   34.5324    1.3069 H   0  0  0  0  0  0
   -7.4097   35.6024    3.2199 H   0  0  0  0  0  0
   -5.4529   36.4714    4.2299 H   0  0  0  0  0  0
   -4.5669   36.0849    2.7158 H   0  0  0  0  0  0
   -4.6947   34.8565    4.0201 H   0  0  0  0  0  0
   -7.0750   32.1137   -2.2771 H   0  0  0  0  0  0
   -5.7657   33.2715   -2.6915 H   0  0  0  0  0  0
   -7.4677   33.6474   -3.1258 H   0  0  0  0  0  0
   -6.8662   31.0306    0.1081 H   0  0  0  0  0  0
   -8.3429   31.3644   -0.8585 H   0  0  0  0  0  0
  1  2  1  0  0  0
  1 14  1  0  0  0
  2  3  1  0  0  0
  2 13  1  0  0  0
  2 15  1  0  0  0
  3  4  1  0  0  0
  3 16  1  0  0  0
  3 17  1  0  0  0
  4  5  1  0  0  0
  4  9  1  0  0  0
  4 18  1  0  0  0
  5  6  1  0  0  0
  5  8  2  0  0  0
  6  7  1  0  0  0
  6 19  1  0  0  0
  7 20  1  0  0  0
  7 21  1  0  0  0
  7 22  1  0  0  0
  9 10  1  0  0  0
  9 13  1  0  0  0
 10 11  1  0  0  0
 10 12  2  0  0  0
 11 23  1  0  0  0
 11 24  1  0  0  0
 11 25  1  0  0  0
 13 26  1  0  0  0
 13 27  1  0  0  0
M  END
> <s_m_source_file>
../4awj_ligand.sdf

> <i_m_source_file_index>
1

> <s_epik_input>
W09IXVtDQEBIXTFbQ0gyXVtDQEBIXShDKD1PKVtOSF1bQ0gzXSlOKFtDSDJdMSlDKD1PKVtDSDNd

> <s_epik_cmdline>
J2VwaWtfYXBwJywgJy1pbWFlJywgJ2xpZ2FuZF9wcm8ubWFlJywgJy1vbWFlJywgJ2xpZ2FuZF9wcmVwLm1hZScsICctbXMnLCAnMScsICctcGgnLCAnNycsICctcGh0JywgJzAuNScsICctbnQn

> <r_lp_tautomer_probability>
1

> <r_epik_Ionization_Penalty>
  0.0000

> <r_epik_Ionization_Penalty_Charging>
  0.0000

> <r_epik_Ionization_Penalty_Neutral>
  0.0000

> <r_epik_State_Penalty>
 -0.0000

> <r_epik_Charging_Adjusted_Penalty>
0

> <i_epik_Tot_Q>
0

> <i_epik_Tot_abs_Q>
0

$$$$
