4awk_ligand
                    3D
 Schrodinger Suite 2020-3.
 55 57  0  0  1  0            999 V2000
   61.0650   17.1710   17.2850 O   0  0  0  0  0  0
   60.2050   16.0440   17.4920 S   0  0  0  0  0  0
   60.3910   15.1540   16.3810 O   0  0  0  0  0  0
   60.6740   15.2690   18.9030 C   0  0  0  0  0  0
   59.9570   13.9490   19.1040 C   0  0  0  0  0  0
   58.8870   13.8770   19.9910 C   0  0  0  0  0  0
   58.2110   12.6730   20.1810 C   0  0  0  0  0  0
   58.6150   11.5290   19.4900 C   0  0  0  0  0  0
   59.6930   11.5920   18.6100 C   0  0  0  0  0  0
   60.3600   12.8020   18.4170 C   0  0  0  0  0  0
   58.7460   16.5170   17.5690 N   0  0  3  0  0  0
   58.4820   17.9200   17.9420 C   0  0  0  0  0  0
   57.2740   18.4540   17.1880 C   0  0  0  0  0  0
   56.1260   17.4700   17.3620 C   0  0  0  0  0  0
   57.6660   15.5480   17.3230 C   0  0  0  0  0  0
   56.4360   16.1530   16.6440 C   0  0  2  0  0  0
   56.6730   16.3700   15.1580 C   0  0  0  0  0  0
   57.5930   15.8030   14.5690 O   0  0  0  0  0  0
   55.7060   17.2520   14.4610 C   0  0  0  0  0  0
   55.5160   17.3310   13.1320 C   0  0  0  0  0  0
   56.2610   16.6570   12.2760 O   0  0  0  0  0  0
   54.4650   18.2390   12.6590 C   0  0  0  0  0  0
   54.0060   19.0690   13.4710 O   0  5  0  0  0  0
   54.0830   18.2390   11.4770 O   0  0  0  0  0  0
   55.2800   15.1420   16.6860 C   0  0  0  0  0  0
   54.6030   15.0480   18.0320 C   0  0  0  0  0  0
   53.6410   15.9910   18.4040 C   0  0  0  0  0  0
   53.0230   15.9020   19.6470 C   0  0  0  0  0  0
   54.9390   14.0070   18.8960 C   0  0  0  0  0  0
   54.3120   13.9190   20.1360 C   0  0  0  0  0  0
   53.3590   14.8640   20.5090 C   0  0  0  0  0  0
   52.5650   14.7260   22.1060 Cl  0  0  0  0  0  0
   61.7546   15.0663   18.8682 H   0  0  0  0  0  0
   60.4493   15.9121   19.7667 H   0  0  0  0  0  0
   58.5762   14.7662   20.5396 H   0  0  0  0  0  0
   57.3670   12.6245   20.8690 H   0  0  0  0  0  0
   58.0871   10.5871   19.6391 H   0  0  0  0  0  0
   60.0143   10.6989   18.0740 H   0  0  0  0  0  0
   61.2011   12.8524   17.7255 H   0  0  0  0  0  0
   58.2842   17.9812   19.0223 H   0  0  0  0  0  0
   59.3587   18.5365   17.6943 H   0  0  0  0  0  0
   56.9927   19.4364   17.5950 H   0  0  0  0  0  0
   57.5234   18.5567   16.1216 H   0  0  0  0  0  0
   55.9762   17.2670   18.4327 H   0  0  0  0  0  0
   55.2067   17.9005   16.9383 H   0  0  0  0  0  0
   58.0366   14.7438   16.6703 H   0  0  0  0  0  0
   57.3329   15.1195   18.2798 H   0  0  0  0  0  0
   54.6856   17.0147   14.7963 H   0  0  0  0  0  0
   55.9336   18.3026   14.6945 H   0  0  0  0  0  0
   54.5124   15.4321   15.9535 H   0  0  0  0  0  0
   55.6605   14.1395   16.4407 H   0  0  0  0  0  0
   53.3748   16.7966   17.7198 H   0  0  0  0  0  0
   52.2795   16.6418   19.9436 H   0  0  0  0  0  0
   55.6857   13.2687   18.6035 H   0  0  0  0  0  0
   54.5678   13.1076   20.8174 H   0  0  0  0  0  0
  1  2  2  0  0  0
  2  3  2  0  0  0
  2  4  1  0  0  0
  2 11  1  0  0  0
  4  5  1  0  0  0
  4 33  1  0  0  0
  4 34  1  0  0  0
  5  6  2  0  0  0
  5 10  1  0  0  0
  6  7  1  0  0  0
  6 35  1  0  0  0
  7  8  2  0  0  0
  7 36  1  0  0  0
  8  9  1  0  0  0
  8 37  1  0  0  0
  9 10  2  0  0  0
  9 38  1  0  0  0
 10 39  1  0  0  0
 11 12  1  0  0  0
 11 15  1  0  0  0
 12 13  1  0  0  0
 12 40  1  0  0  0
 12 41  1  0  0  0
 13 14  1  0  0  0
 13 42  1  0  0  0
 13 43  1  0  0  0
 14 16  1  0  0  0
 14 44  1  0  0  0
 14 45  1  0  0  0
 15 16  1  0  0  0
 15 46  1  0  0  0
 15 47  1  0  0  0
 16 17  1  0  0  0
 16 25  1  0  0  0
 17 18  2  0  0  0
 17 19  1  0  0  0
 19 20  1  0  0  0
 19 48  1  0  0  0
 19 49  1  0  0  0
 20 21  2  0  0  0
 20 22  1  0  0  0
 22 23  1  0  0  0
 22 24  2  0  0  0
 25 26  1  0  0  0
 25 50  1  0  0  0
 25 51  1  0  0  0
 26 27  2  0  0  0
 26 29  1  0  0  0
 27 28  1  0  0  0
 27 52  1  0  0  0
 28 31  2  0  0  0
 28 53  1  0  0  0
 29 30  2  0  0  0
 29 54  1  0  0  0
 30 31  1  0  0  0
 30 55  1  0  0  0
 31 32  1  0  0  0
M  CHG  1  23  -1
M  END
> <s_m_source_file>
../4awk_ligand.sdf

> <i_m_source_file_index>
1

> <s_epik_input>
W2NIXTFbY0hdW2NIXVtjSF1bY0hdYzFbQ0gyXVMoPU8pKD1PKU4oW0NIMl0yKVtDSDJdW0NIMl1bQ0gyXVtDQF0yKEMoPU8pW0NIMl1DKD1PKUMoPU8pW09IXSlbQ0gyXWMzW2NIXVtjSF1jKENsKVtjSF1bY0hdMw==

> <s_epik_cmdline>
J2VwaWtfYXBwJywgJy1pbWFlJywgJ2xpZ2FuZF9wcm8ubWFlJywgJy1vbWFlJywgJ2xpZ2FuZF9wcmVwLm1hZScsICctbXMnLCAnMScsICctcGgnLCAnNycsICctcGh0JywgJzAuNScsICctbnQn

> <r_lp_tautomer_probability>
1

> <r_epik_Ionization_Penalty>
  0.0005

> <r_epik_Ionization_Penalty_Charging>
  0.0001

> <r_epik_Ionization_Penalty_Neutral>
  0.0004

> <r_epik_State_Penalty>
 -0.0000

> <r_epik_Charging_Adjusted_Penalty>
5.12147990373397e-05

> <i_epik_Tot_Q>
-1

> <i_epik_Tot_abs_Q>
1

$$$$
