4awo_ligand
                    3D
 Schrodinger Suite 2020-3.
 74 78  0  0  1  0            999 V2000
  -12.4130  -18.4330  -13.4730 C   0  0  1  0  0  0
  -11.8470  -19.8200  -13.4220 N   0  0  0  0  0  0
   -9.2640  -18.9960  -18.0480 O   0  0  0  0  0  0
  -13.8250  -18.3280  -14.0950 C   0  0  0  0  0  0
  -10.9820  -20.1240  -19.0090 N   0  0  0  0  0  0
   -9.5380  -16.1540  -27.7600 O   0  0  0  0  0  0
  -14.7960  -19.3820  -13.6050 C   0  0  0  0  0  0
  -10.6780  -20.1420  -23.0280 N   0  0  0  0  0  0
  -13.1150  -22.2690  -12.8600 O   0  0  0  0  0  0
  -12.5220  -17.8390  -12.0620 C   0  0  0  0  0  0
   -9.6050  -18.6750  -24.5420 N   0  0  0  0  0  0
  -11.4180  -20.5080  -14.5390 C   0  0  0  0  0  0
  -11.4510  -23.7850  -12.8800 N   0  0  0  0  0  0
  -10.9510  -19.8110  -15.6440 C   0  0  0  0  0  0
  -10.5460  -20.5750  -16.7440 C   0  0  0  0  0  0
  -10.1240  -19.8460  -17.9970 C   0  0  0  0  0  0
  -10.8570  -19.6320  -20.4000 C   0  0  2  0  0  0
   -9.5150  -19.2600  -21.0810 C   0  0  0  0  0  0
   -9.4940  -20.4210  -22.1590 C   0  0  1  0  0  0
  -11.8660  -20.5680  -22.3070 C   0  0  2  0  0  0
  -12.1250  -19.4110  -21.2160 C   0  0  0  0  0  0
  -11.4730  -21.9460  -21.6780 C   0  0  0  0  0  0
   -9.8800  -21.8430  -21.5870 C   0  0  0  0  0  0
  -10.7270  -19.3150  -24.1740 C   0  0  0  0  0  0
   -9.5460  -17.8530  -25.5800 C   0  0  0  0  0  0
  -10.7370  -17.6000  -26.2570 C   0  0  0  0  0  0
  -10.6490  -16.6160  -27.4190 C   0  0  0  0  0  0
  -12.0090  -16.1600  -28.0020 C   0  0  0  0  0  0
  -12.1400  -14.6500  -28.0650 C   0  0  0  0  0  0
  -12.0110  -15.4470  -29.3820 C   0  0  0  0  0  0
  -11.9970  -19.0850  -24.7850 C   0  0  0  0  0  0
  -11.9580  -18.1910  -25.8750 C   0  0  0  0  0  0
  -11.4420  -21.9060  -14.5090 C   0  0  0  0  0  0
  -12.0220  -22.6580  -13.3060 C   0  0  0  0  0  0
  -11.0590  -22.6670  -15.6160 C   0  0  0  0  0  0
  -10.6380  -21.9860  -16.7350 C   0  0  0  0  0  0
  -10.2260  -22.8490  -17.9450 C   0  0  0  0  0  0
  -11.6865  -17.9096  -14.1120 H   0  0  0  0  0  0
  -11.7566  -20.3420  -12.4580 H   0  0  0  0  0  0
  -14.2609  -17.3479  -13.8515 H   0  0  0  0  0  0
  -13.7535  -18.4363  -15.1873 H   0  0  0  0  0  0
  -11.8256  -20.7717  -18.7284 H   0  0  0  0  0  0
  -15.7711  -19.2375  -14.0932 H   0  0  0  0  0  0
  -14.9148  -19.2927  -12.5151 H   0  0  0  0  0  0
  -14.4073  -20.3812  -13.8509 H   0  0  0  0  0  0
  -11.5407  -17.8869  -11.5672 H   0  0  0  0  0  0
  -13.2556  -18.4139  -11.4778 H   0  0  0  0  0  0
  -12.8478  -16.7905  -12.1297 H   0  0  0  0  0  0
  -11.8704  -24.3217  -12.0162 H   0  0  0  0  0  0
  -10.5605  -24.1781  -13.3923 H   0  0  0  0  0  0
  -10.9020  -18.7222  -15.6547 H   0  0  0  0  0  0
  -10.4952  -20.3486  -19.6479 H   0  0  0  0  0  0
   -9.5833  -18.2431  -21.4948 H   0  0  0  0  0  0
   -8.7038  -19.3002  -20.3391 H   0  0  0  0  0  0
   -8.5066  -20.4322  -22.6437 H   0  0  0  0  0  0
  -12.7370  -20.7031  -22.9652 H   0  0  0  0  0  0
  -13.0052  -19.5610  -20.5736 H   0  0  0  0  0  0
  -12.1314  -18.3852  -21.6131 H   0  0  0  0  0  0
  -11.9512  -22.0490  -20.6927 H   0  0  0  0  0  0
  -11.8113  -22.7595  -22.3366 H   0  0  0  0  0  0
   -9.3986  -22.6249  -22.1927 H   0  0  0  0  0  0
   -9.5380  -21.9241  -20.5447 H   0  0  0  0  0  0
   -8.6068  -17.3950  -25.8904 H   0  0  0  0  0  0
  -12.5916  -16.9990  -27.5937 H   0  0  0  0  0  0
  -13.0901  -14.3448  -27.6023 H   0  0  0  0  0  0
  -11.3026  -14.1864  -27.5230 H   0  0  0  0  0  0
  -11.0666  -15.6579  -29.9050 H   0  0  0  0  0  0
  -12.8541  -15.8163  -29.9843 H   0  0  0  0  0  0
  -12.9158  -19.5588  -24.4393 H   0  0  0  0  0  0
  -12.8716  -17.9573  -26.4216 H   0  0  0  0  0  0
  -11.0923  -23.7563  -15.5942 H   0  0  0  0  0  0
   -9.9110  -22.1950  -18.7715 H   0  0  0  0  0  0
  -11.0814  -23.4609  -18.2672 H   0  0  0  0  0  0
   -9.3918  -23.5066  -17.6593 H   0  0  0  0  0  0
  1  2  1  0  0  0
  1  4  1  0  0  0
  1 10  1  0  0  0
  1 38  1  0  0  0
  2 12  1  0  0  0
  2 39  1  0  0  0
  3 16  2  0  0  0
  4  7  1  0  0  0
  4 40  1  0  0  0
  4 41  1  0  0  0
  5 16  1  0  0  0
  5 17  1  0  0  0
  5 42  1  0  0  0
  6 27  2  0  0  0
  7 43  1  0  0  0
  7 44  1  0  0  0
  7 45  1  0  0  0
  8 19  1  0  0  0
  8 20  1  0  0  0
  8 24  1  0  0  0
  9 34  2  0  0  0
 10 46  1  0  0  0
 10 47  1  0  0  0
 10 48  1  0  0  0
 11 24  2  0  0  0
 11 25  1  0  0  0
 12 14  2  0  0  0
 12 33  1  0  0  0
 13 34  1  0  0  0
 13 49  1  0  0  0
 13 50  1  0  0  0
 14 15  1  0  0  0
 14 51  1  0  0  0
 15 16  1  0  0  0
 15 36  2  0  0  0
 17 18  1  0  0  0
 17 21  1  0  0  0
 17 52  1  0  0  0
 18 19  1  0  0  0
 18 53  1  0  0  0
 18 54  1  0  0  0
 19 23  1  0  0  0
 19 55  1  0  0  0
 20 21  1  0  0  0
 20 22  1  0  0  0
 20 56  1  0  0  0
 21 57  1  0  0  0
 21 58  1  0  0  0
 22 23  1  0  0  0
 22 59  1  0  0  0
 22 60  1  0  0  0
 23 61  1  0  0  0
 23 62  1  0  0  0
 24 31  1  0  0  0
 25 26  2  0  0  0
 25 63  1  0  0  0
 26 27  1  0  0  0
 26 32  1  0  0  0
 27 28  1  0  0  0
 28 29  1  0  0  0
 28 30  1  0  0  0
 28 64  1  0  0  0
 29 30  1  0  0  0
 29 65  1  0  0  0
 29 66  1  0  0  0
 30 67  1  0  0  0
 30 68  1  0  0  0
 31 32  2  0  0  0
 31 69  1  0  0  0
 32 70  1  0  0  0
 33 34  1  0  0  0
 33 35  2  0  0  0
 35 36  1  0  0  0
 35 71  1  0  0  0
 36 37  1  0  0  0
 37 72  1  0  0  0
 37 73  1  0  0  0
 37 74  1  0  0  0
M  END
> <s_m_source_file>
../4awo_ligand.sdf

> <i_m_source_file_index>
1

> <s_epik_input>
W0NIM11bQ0gyXVtDQEBIXShbQ0gzXSlbTkhdYzFbY0hdYyhjKFtDSDNdKVtjSF1jMUMoPU8pW05IMl0pQyg9TylbTkhdW0NASF0oW0NIMl0yKVtDSDJdW0NASF0oW0NIMl1bQ0gyXTMpTihbQ0BASF0yMyljNG5bY0hdYyhbY0hdW2NIXTQpQyg9TylbQ0hdNVtDSDJdW0NIMl01

> <s_epik_cmdline>
J2VwaWtfYXBwJywgJy1pbWFlJywgJ2xpZ2FuZF9wcm8ubWFlJywgJy1vbWFlJywgJ2xpZ2FuZF9wcmVwLm1hZScsICctbXMnLCAnMScsICctcGgnLCAnNycsICctcGh0JywgJzAuNScsICctbnQn

> <r_lp_tautomer_probability>
1

> <r_epik_Ionization_Penalty>
  0.0009

> <r_epik_Ionization_Penalty_Charging>
  0.0000

> <r_epik_Ionization_Penalty_Neutral>
  0.0009

> <r_epik_State_Penalty>
 -0.0000

> <r_epik_Charging_Adjusted_Penalty>
0

> <i_epik_Tot_Q>
0

> <i_epik_Tot_abs_Q>
0

$$$$
