4awp_ligand
                    3D
 Schrodinger Suite 2020-3.
 71 75  0  0  1  0            999 V2000
   -9.8730  -21.9070  -19.5100 C   0  0  0  0  0  0
  -10.2370  -21.0340  -18.3060 C   0  0  0  0  0  0
  -10.7150  -21.6760  -17.1640 C   0  0  0  0  0  0
  -11.0590  -20.9240  -16.0380 C   0  0  0  0  0  0
  -11.6930  -21.6410  -14.8590 C   0  0  0  0  0  0
  -12.8380  -21.2720  -14.5610 O   0  0  0  0  0  0
  -11.0600  -22.6620  -14.3070 N   0  0  0  0  0  0
  -10.9500  -19.5100  -16.0340 C   0  0  0  0  0  0
  -11.3330  -18.6370  -14.8370 C   0  0  0  0  0  0
  -10.4540  -18.8820  -17.1540 C   0  0  0  0  0  0
  -10.0970  -19.6180  -18.2950 C   0  0  0  0  0  0
   -9.6140  -18.8190  -19.5350 C   0  0  0  0  0  0
   -8.7160  -17.9980  -19.5620 O   0  0  0  0  0  0
  -10.4410  -19.0370  -20.5670 N   0  0  0  0  0  0
  -10.4420  -18.5540  -21.9250 C   0  0  2  0  0  0
  -11.8180  -18.5430  -22.6700 C   0  0  0  0  0  0
   -9.1470  -18.2840  -22.6780 C   0  0  0  0  0  0
   -9.1930  -19.4580  -23.7340 C   0  0  1  0  0  0
   -9.5940  -20.9120  -23.2290 C   0  0  0  0  0  0
  -11.1310  -20.9770  -23.2140 C   0  0  0  0  0  0
  -11.6110  -19.6240  -23.7660 C   0  0  2  0  0  0
  -10.4160  -19.1230  -24.4860 N   0  0  0  0  0  0
  -10.4570  -18.2910  -25.6250 C   0  0  0  0  0  0
  -11.6770  -17.9900  -26.2420 C   0  0  0  0  0  0
  -11.7010  -17.1650  -27.3590 C   0  0  0  0  0  0
   -9.3210  -17.6980  -26.0690 N   0  0  0  0  0  0
   -9.3170  -16.9190  -27.1330 C   0  0  0  0  0  0
  -10.5020  -16.6060  -27.8230 C   0  0  0  0  0  0
  -10.4630  -15.6920  -29.0500 C   0  0  0  0  0  0
   -9.3920  -15.2130  -29.4260 O   0  0  0  0  0  0
  -11.6490  -15.5220  -29.6860 N   0  0  0  0  0  0
  -11.7970  -14.7440  -30.9350 C   0  0  0  0  0  0
  -11.7020  -13.2200  -30.8190 C   0  0  0  0  0  0
  -11.4130  -12.5030  -32.0050 C   0  0  0  0  0  0
  -11.3080  -11.1210  -31.9570 C   0  0  0  0  0  0
  -11.5520  -10.4630  -30.7400 C   0  0  0  0  0  0
  -11.8520  -11.1630  -29.5630 C   0  0  0  0  0  0
  -11.9490  -12.5590  -29.6060 C   0  0  0  0  0  0
  -10.0704  -22.9624  -19.2707 H   0  0  0  0  0  0
   -8.8067  -21.7781  -19.7473 H   0  0  0  0  0  0
  -10.4804  -21.6077  -20.3769 H   0  0  0  0  0  0
  -10.8199  -22.7609  -17.1500 H   0  0  0  0  0  0
  -10.0418  -22.9196  -14.6339 H   0  0  0  0  0  0
  -11.5515  -23.2539  -13.5208 H   0  0  0  0  0  0
  -11.7104  -19.2746  -14.0240 H   0  0  0  0  0  0
  -12.1156  -17.9250  -15.1380 H   0  0  0  0  0  0
  -10.4483  -18.0838  -14.4887 H   0  0  0  0  0  0
  -10.3368  -17.7983  -17.1550 H   0  0  0  0  0  0
  -11.2331  -19.7196  -20.2254 H   0  0  0  0  0  0
  -10.1015  -17.6943  -21.3292 H   0  0  0  0  0  0
  -12.6202  -18.7990  -21.9622 H   0  0  0  0  0  0
  -12.0018  -17.5414  -23.0859 H   0  0  0  0  0  0
   -9.1852  -17.2795  -23.1247 H   0  0  0  0  0  0
   -8.2982  -18.3432  -21.9808 H   0  0  0  0  0  0
   -8.2146  -19.4921  -24.2356 H   0  0  0  0  0  0
   -9.1804  -21.6655  -23.9154 H   0  0  0  0  0  0
   -9.1889  -21.0742  -22.2193 H   0  0  0  0  0  0
  -11.4690  -21.8100  -23.8480 H   0  0  0  0  0  0
  -11.4813  -21.1352  -22.1833 H   0  0  0  0  0  0
  -12.5328  -19.7678  -24.3487 H   0  0  0  0  0  0
  -12.6056  -18.4020  -25.8468 H   0  0  0  0  0  0
  -12.6411  -16.9546  -27.8689 H   0  0  0  0  0  0
   -8.3717  -16.5074  -27.4866 H   0  0  0  0  0  0
  -12.5281  -15.9980  -29.2271 H   0  0  0  0  0  0
  -11.0091  -15.0365  -31.6447 H   0  0  0  0  0  0
  -12.7832  -14.9462  -31.3783 H   0  0  0  0  0  0
  -11.2742  -13.0325  -32.9476 H   0  0  0  0  0  0
  -11.0405  -10.5545  -32.8490 H   0  0  0  0  0  0
  -11.5067   -9.3744  -30.7099 H   0  0  0  0  0  0
  -12.0077  -10.6274  -28.6266 H   0  0  0  0  0  0
  -12.2122  -13.1235  -28.7115 H   0  0  0  0  0  0
  1  2  1  0  0  0
  1 39  1  0  0  0
  1 40  1  0  0  0
  1 41  1  0  0  0
  2  3  2  0  0  0
  2 11  1  0  0  0
  3  4  1  0  0  0
  3 42  1  0  0  0
  4  5  1  0  0  0
  4  8  2  0  0  0
  5  6  2  0  0  0
  5  7  1  0  0  0
  7 43  1  0  0  0
  7 44  1  0  0  0
  8  9  1  0  0  0
  8 10  1  0  0  0
  9 45  1  0  0  0
  9 46  1  0  0  0
  9 47  1  0  0  0
 10 11  2  0  0  0
 10 48  1  0  0  0
 11 12  1  0  0  0
 12 13  2  0  0  0
 12 14  1  0  0  0
 14 15  1  0  0  0
 14 49  1  0  0  0
 15 16  1  0  0  0
 15 17  1  0  0  0
 15 50  1  0  0  0
 16 21  1  0  0  0
 16 51  1  0  0  0
 16 52  1  0  0  0
 17 18  1  0  0  0
 17 53  1  0  0  0
 17 54  1  0  0  0
 18 19  1  0  0  0
 18 22  1  0  0  0
 18 55  1  0  0  0
 19 20  1  0  0  0
 19 56  1  0  0  0
 19 57  1  0  0  0
 20 21  1  0  0  0
 20 58  1  0  0  0
 20 59  1  0  0  0
 21 22  1  0  0  0
 21 60  1  0  0  0
 22 23  1  0  0  0
 23 24  2  0  0  0
 23 26  1  0  0  0
 24 25  1  0  0  0
 24 61  1  0  0  0
 25 28  2  0  0  0
 25 62  1  0  0  0
 26 27  2  0  0  0
 27 28  1  0  0  0
 27 63  1  0  0  0
 28 29  1  0  0  0
 29 30  2  0  0  0
 29 31  1  0  0  0
 31 32  1  0  0  0
 31 64  1  0  0  0
 32 33  1  0  0  0
 32 65  1  0  0  0
 32 66  1  0  0  0
 33 34  2  0  0  0
 33 38  1  0  0  0
 34 35  1  0  0  0
 34 67  1  0  0  0
 35 36  2  0  0  0
 35 68  1  0  0  0
 36 37  1  0  0  0
 36 69  1  0  0  0
 37 38  2  0  0  0
 37 70  1  0  0  0
 38 71  1  0  0  0
M  END
> <s_m_source_file>
../4awp_ligand.sdf

> <i_m_source_file_index>
1

> <s_epik_input>
W0NIM11jMVtjSF1jKEMoPU8pW05IMl0pYyhbQ0gzXSlbY0hdYzFDKD1PKVtOSF1bQ0BASF0oW0NIMl1bQ0BASF0yMylbQ0gyXVtDQEhdKFtDSDJdW0NIMl0yKU4zYzRbY0hdW2NIXWMoW2NIXW40KUMoPU8pW05IXVtDSDJdYzVbY0hdW2NIXVtjSF1bY0hdW2NIXTU=

> <s_epik_cmdline>
J2VwaWtfYXBwJywgJy1pbWFlJywgJ2xpZ2FuZF9wcm8ubWFlJywgJy1vbWFlJywgJ2xpZ2FuZF9wcmVwLm1hZScsICctbXMnLCAnMScsICctcGgnLCAnNycsICctcGh0JywgJzAuNScsICctbnQn

> <r_lp_tautomer_probability>
1

> <r_epik_Ionization_Penalty>
  0.0011

> <r_epik_Ionization_Penalty_Charging>
  0.0000

> <r_epik_Ionization_Penalty_Neutral>
  0.0011

> <r_epik_State_Penalty>
 -0.0000

> <r_epik_Charging_Adjusted_Penalty>
0

> <i_epik_Tot_Q>
0

> <i_epik_Tot_abs_Q>
0

$$$$
