4ax9_ligand
                    3D
 Schrodinger Suite 2020-3.
 73 76  0  0  1  0            999 V2000
   17.7370  -12.9750   21.1270 N   0  0  0  0  0  0
   18.6830  -13.7220   20.3520 C   0  0  0  0  0  0
   16.8790  -13.6150   22.0190 C   0  0  0  0  0  0
   17.6590  -11.5820   20.8440 C   0  0  0  0  0  0
   20.0700  -13.1470   20.0650 C   0  0  0  0  0  0
   19.9200  -14.3280   20.9770 C   0  0  0  0  0  0
   16.9460  -15.1600   22.1650 C   0  0  1  0  0  0
   16.0580  -12.9750   22.6910 O   0  0  0  0  0  0
   16.6660  -11.6270   19.6790 C   0  0  0  0  0  0
   16.4850  -15.6460   23.4110 N   0  0  3  0  0  0
   15.9770  -15.6560   21.0550 C   0  0  0  0  0  0
   16.5900  -10.5570   18.8560 O   0  5  0  0  0  0
   15.9200  -12.5530   19.3650 O   0  0  0  0  0  0
   17.4120  -16.7460   24.1380 S   0  0  0  0  0  0
   14.4840  -15.3310   21.3120 C   0  0  0  0  0  0
   18.7430  -15.8260   24.5750 C   0  0  0  0  0  0
   16.6880  -17.0720   25.2910 O   0  0  0  0  0  0
   17.6620  -17.6840   23.1350 O   0  0  0  0  0  0
   13.8870  -14.2270   20.7230 N   0  0  0  0  0  0
   13.7860  -16.0850   22.0300 O   0  0  0  0  0  0
   20.0400  -16.0170   24.1530 C   0  0  0  0  0  0
   18.4750  -14.7500   25.4650 C   0  0  0  0  0  0
   12.4990  -13.8980   20.8990 C   0  0  0  0  0  0
   21.0570  -15.1400   24.6180 C   0  0  0  0  0  0
   19.4330  -13.8990   25.9250 C   0  0  0  0  0  0
   12.1900  -12.4500   21.3330 C   0  0  1  0  0  0
   20.7480  -14.0800   25.5100 C   0  0  0  0  0  0
   22.3990  -15.2940   24.2120 C   0  0  0  0  0  0
   12.5760  -12.3160   22.8090 C   0  0  0  0  0  0
   12.9710  -11.4340   20.5020 C   0  0  0  0  0  0
   21.7610  -13.2020   25.9700 C   0  0  0  0  0  0
   23.3630  -14.4350   24.6580 C   0  0  0  0  0  0
   12.4380  -10.9660   23.3380 N   0  0  0  0  0  0
   12.6880  -10.0320   21.0300 C   0  0  0  0  0  0
   23.0470  -13.3790   25.5470 C   0  0  0  0  0  0
   13.0380   -9.9160   22.5120 C   0  0  0  0  0  0
   11.2250  -10.7710   24.1160 C   0  0  0  0  0  0
   10.4600  -11.9530   24.3330 N   0  0  0  0  0  0
   10.8860   -9.6050   24.5720 N   0  3  0  0  0  0
   17.8193  -14.0905   19.7791 H   0  0  0  0  0  0
   17.2925  -11.0473   21.7327 H   0  0  0  0  0  0
   18.6572  -11.2059   20.5756 H   0  0  0  0  0  0
   20.2741  -13.2034   18.9856 H   0  0  0  0  0  0
   20.1062  -12.0969   20.3907 H   0  0  0  0  0  0
   19.8414  -14.2734   22.0728 H   0  0  0  0  0  0
   20.0093  -15.3798   20.6677 H   0  0  0  0  0  0
   17.9756  -15.5472   22.1719 H   0  0  0  0  0  0
   15.6342  -15.1594   23.9105 H   0  0  0  0  0  0
   16.2458  -15.1868   20.0971 H   0  0  0  0  0  0
   16.0546  -16.7493   20.9622 H   0  0  0  0  0  0
   14.5282  -13.5895   20.0965 H   0  0  0  0  0  0
   20.2836  -16.8312   23.4704 H   0  0  0  0  0  0
   17.4478  -14.5984   25.7967 H   0  0  0  0  0  0
   11.9629  -14.0507   19.9507 H   0  0  0  0  0  0
   12.0641  -14.5457   21.6744 H   0  0  0  0  0  0
   19.1737  -13.0893   26.6071 H   0  0  0  0  0  0
   11.1222  -12.2344   21.1804 H   0  0  0  0  0  0
   22.6693  -16.1056   23.5364 H   0  0  0  0  0  0
   11.9333  -12.9698   23.4169 H   0  0  0  0  0  0
   13.6277  -12.6101   22.9412 H   0  0  0  0  0  0
   14.0474  -11.6474   20.5788 H   0  0  0  0  0  0
   12.6578  -11.5027   19.4498 H   0  0  0  0  0  0
   21.5153  -12.3916   26.6563 H   0  0  0  0  0  0
   24.3925  -14.5646   24.3241 H   0  0  0  0  0  0
   13.2898   -9.3010   20.4701 H   0  0  0  0  0  0
   11.6199   -9.8013   20.9036 H   0  0  0  0  0  0
   23.8315  -12.7066   25.8941 H   0  0  0  0  0  0
   12.6868   -8.9324   22.8572 H   0  0  0  0  0  0
   14.1337   -9.9644   22.5963 H   0  0  0  0  0  0
   10.8019  -12.9131   23.9191 H   0  0  0  0  0  0
    9.5274  -11.9056   24.9145 H   0  0  0  0  0  0
   11.5205   -8.7295   24.3697 H   0  0  0  0  0  0
    9.9640   -9.4916   25.1611 H   0  0  0  0  0  0
  1  2  1  0  0  0
  1  3  1  0  0  0
  1  4  1  0  0  0
  2  5  1  0  0  0
  2  6  1  0  0  0
  2 40  1  0  0  0
  3  7  1  0  0  0
  3  8  2  0  0  0
  4  9  1  0  0  0
  4 41  1  0  0  0
  4 42  1  0  0  0
  5  6  1  0  0  0
  5 43  1  0  0  0
  5 44  1  0  0  0
  6 45  1  0  0  0
  6 46  1  0  0  0
  7 10  1  0  0  0
  7 11  1  0  0  0
  7 47  1  0  0  0
  9 12  1  0  0  0
  9 13  2  0  0  0
 10 14  1  0  0  0
 10 48  1  0  0  0
 11 15  1  0  0  0
 11 49  1  0  0  0
 11 50  1  0  0  0
 14 16  1  0  0  0
 14 17  2  0  0  0
 14 18  2  0  0  0
 15 19  1  0  0  0
 15 20  2  0  0  0
 16 21  2  0  0  0
 16 22  1  0  0  0
 19 23  1  0  0  0
 19 51  1  0  0  0
 21 24  1  0  0  0
 21 52  1  0  0  0
 22 25  2  0  0  0
 22 53  1  0  0  0
 23 26  1  0  0  0
 23 54  1  0  0  0
 23 55  1  0  0  0
 24 27  2  0  0  0
 24 28  1  0  0  0
 25 27  1  0  0  0
 25 56  1  0  0  0
 26 29  1  0  0  0
 26 30  1  0  0  0
 26 57  1  0  0  0
 27 31  1  0  0  0
 28 32  2  0  0  0
 28 58  1  0  0  0
 29 33  1  0  0  0
 29 59  1  0  0  0
 29 60  1  0  0  0
 30 34  1  0  0  0
 30 61  1  0  0  0
 30 62  1  0  0  0
 31 35  2  0  0  0
 31 63  1  0  0  0
 32 35  1  0  0  0
 32 64  1  0  0  0
 33 36  1  0  0  0
 33 37  1  0  0  0
 34 36  1  0  0  0
 34 65  1  0  0  0
 34 66  1  0  0  0
 35 67  1  0  0  0
 36 68  1  0  0  0
 36 69  1  0  0  0
 37 38  1  0  0  0
 37 39  2  0  0  0
 38 70  1  0  0  0
 38 71  1  0  0  0
 39 72  1  0  0  0
 39 73  1  0  0  0
M  CHG  2  12  -1  39   1
M  END
> <s_m_source_file>
../4ax9_ligand.sdf

> <i_m_source_file_index>
1

> <s_epik_input>
W0NIMl0xW0NIMl1bQ0gyXU4oL0MoW05IMl0pPU5cW0hdKVtDSDJdW0NAQEhdMVtDSDJdW05IXUMoPU8pW0NIMl1bQ0BASF0oQyg9TylOKFtDSF0yW0NIMl1bQ0gyXTIpW0NIMl1DKD1PKVtPSF0pW05IXVMoPU8pKD1PKWMoW2NIXTMpW2NIXVtjSF1jKGMzNClbY0hdW2NIXVtjSF1bY0hdNA==

> <s_epik_cmdline>
J2VwaWtfYXBwJywgJy1pbWFlJywgJ2xpZ2FuZF9wcm8ubWFlJywgJy1vbWFlJywgJ2xpZ2FuZF9wcmVwLm1hZScsICctbXMnLCAnMScsICctcGgnLCAnNycsICctcGh0JywgJzAuNScsICctbnQn

> <r_lp_tautomer_probability>
1

> <r_epik_Ionization_Penalty>
  0.0011

> <r_epik_Ionization_Penalty_Charging>
  0.0002

> <r_epik_Ionization_Penalty_Neutral>
  0.0009

> <r_epik_State_Penalty>
 -0.0000

> <r_epik_Charging_Adjusted_Penalty>
0.000183960160337134

> <i_epik_Tot_Q>
0

> <i_epik_Tot_abs_Q>
2

> <s_epik_Chemistry_Notes>
This compound has an imine and may undergo hydrolysis.

$$$$
