4axd_ligand
                    3D
 Schrodinger Suite 2020-3.
 44 46  0  0  1  0            999 V2000
  -22.0810    0.1340  -25.2910 P   0  0  0  0  0  0
  -22.9750   -1.1740  -25.0720 O   0  5  0  0  0  0
  -22.8920    1.2880  -26.0730 O   0  5  0  0  0  0
  -20.8560   -0.2770  -26.0330 O   0  0  0  0  0  0
  -20.3660    0.1990  -22.7660 P   0  0  1  0  0  0
  -20.0660   -1.2330  -22.9660 O   0  0  0  0  0  0
  -18.9790    1.0110  -22.8290 O   0  5  0  0  0  0
  -21.5580    0.8740  -23.8230 N   0  0  1  0  0  0
  -21.6900    1.7300  -20.8000 P   0  0  2  0  0  0
  -22.9680    1.9250  -21.5760 O   0  0  0  0  0  0
  -20.6550    2.8250  -20.7300 O   0  5  0  0  0  0
  -20.9820    0.3680  -21.2890 O   0  0  0  0  0  0
  -22.0360    1.2980  -19.2950 O   0  0  0  0  0  0
  -22.9210    0.2210  -19.0370 C   0  0  0  0  0  0
  -23.9350    0.6410  -17.9800 C   0  0  1  0  0  0
  -23.2550    1.0140  -16.7870 O   0  0  0  0  0  0
  -24.7540    1.8630  -18.3720 C   0  0  1  0  0  0
  -25.9100    1.5020  -19.1410 O   0  0  0  0  0  0
  -25.0560    2.5330  -17.0430 C   0  0  1  0  0  0
  -26.2320    2.0190  -16.4280 O   0  0  0  0  0  0
  -23.8760    2.1350  -16.1670 C   0  0  2  0  0  0
  -22.9190    3.2610  -16.1100 N   0  0  0  0  0  0
  -21.9720    3.5660  -17.0180 C   0  0  0  0  0  0
  -21.2850    4.6590  -16.6340 N   0  0  0  0  0  0
  -21.7950    5.0710  -15.4640 C   0  0  0  0  0  0
  -21.5290    6.1610  -14.5030 C   0  0  0  0  0  0
  -20.5630    7.0790  -14.7180 N   0  0  0  0  0  0
  -22.2980    6.2140  -13.3930 N   0  0  0  0  0  0
  -23.2830    5.3240  -13.1600 C   0  0  0  0  0  0
  -23.5760    4.3040  -13.9850 N   0  0  0  0  0  0
  -22.8760    4.1430  -15.1280 C   0  0  0  0  0  0
  -21.1272    1.8618  -24.0435 H   0  0  0  0  0  0
  -23.4477   -0.0508  -19.9637 H   0  0  0  0  0  0
  -22.3485   -0.6449  -18.6731 H   0  0  0  0  0  0
  -24.5822   -0.2281  -17.7907 H   0  0  0  0  0  0
  -24.2744    2.5482  -19.0865 H   0  0  0  0  0  0
  -25.7893    1.0114  -20.1181 H   0  0  0  0  0  0
  -25.2638    3.6076  -17.1530 H   0  0  0  0  0  0
  -27.2146    2.1883  -16.8926 H   0  0  0  0  0  0
  -24.1591    1.8483  -15.1434 H   0  0  0  0  0  0
  -21.7875    3.0066  -17.9351 H   0  0  0  0  0  0
  -19.9443    7.0240  -15.6258 H   0  0  0  0  0  0
  -20.3945    7.8820  -13.9854 H   0  0  0  0  0  0
  -23.8750    5.4377  -12.2519 H   0  0  0  0  0  0
  1  2  1  0  0  0
  1  3  1  0  0  0
  1  4  2  0  0  0
  1  8  1  0  0  0
  5  6  2  0  0  0
  5  7  1  0  0  0
  5  8  1  0  0  0
  5 12  1  0  0  0
  8 32  1  0  0  0
  9 10  2  0  0  0
  9 11  1  0  0  0
  9 12  1  0  0  0
  9 13  1  0  0  0
 13 14  1  0  0  0
 14 15  1  0  0  0
 14 33  1  0  0  0
 14 34  1  0  0  0
 15 16  1  0  0  0
 15 17  1  0  0  0
 15 35  1  0  0  0
 16 21  1  0  0  0
 17 18  1  0  0  0
 17 19  1  0  0  0
 17 36  1  0  0  0
 18 37  1  0  0  0
 19 20  1  0  0  0
 19 21  1  0  0  0
 19 38  1  0  0  0
 20 39  1  0  0  0
 21 22  1  0  0  0
 21 40  1  0  0  0
 22 23  1  0  0  0
 22 31  1  0  0  0
 23 24  2  0  0  0
 23 41  1  0  0  0
 24 25  1  0  0  0
 25 26  2  0  0  0
 25 31  1  0  0  0
 26 27  1  0  0  0
 26 28  1  0  0  0
 27 42  1  0  0  0
 27 43  1  0  0  0
 28 29  2  0  0  0
 29 30  1  0  0  0
 29 44  1  0  0  0
 30 31  2  0  0  0
M  CHG  4   2  -1   3  -1   7  -1  11  -1
M  END
> <s_m_source_file>
../4axd_ligand.sdf

> <i_m_source_file_index>
1

> <s_epik_input>
W09IXVAoPU8pKFtPSF0pW05IXVtQQEBdKD1PKShbT0hdKU9bUEBdKD1PKShbT0hdKU9bQ0gyXVtDQEhdMU9bQ0BIXShbQ0BIXShbT0hdKVtDQEBIXTFbT0hdKW4oW2NIXW4yKWMoYzIzKW5bY0hdbmMzW05IMl0=

> <s_epik_cmdline>
J2VwaWtfYXBwJywgJy1pbWFlJywgJ2xpZ2FuZF9wcm8ubWFlJywgJy1vbWFlJywgJ2xpZ2FuZF9wcmVwLm1hZScsICctbXMnLCAnMScsICctcGgnLCAnNycsICctcGh0JywgJzAuNScsICctbnQn

> <r_lp_tautomer_probability>
0.999997216410988

> <r_epik_Ionization_Penalty>
  0.3578

> <r_epik_Ionization_Penalty_Charging>
  0.3346

> <r_epik_Ionization_Penalty_Neutral>
  0.0232

> <r_epik_State_Penalty>
  0.3402

> <r_epik_Charging_Adjusted_Penalty>
0.674771962662822

> <i_epik_Tot_Q>
-4

> <i_epik_Tot_abs_Q>
4

> <s_epik_Chemistry_Notes>
This compound contains an acetal/aminal-like group ( X-CH(R)-Y where X, Y are N, S, or O) that may be acid/base labile, releasing an aldehyde.

$$$$
