4axm_ligand
                    3D
 Schrodinger Suite 2020-3.
 56 59  0  0  1  0            999 V2000
  -19.6990    8.2410  -30.4930 C   0  0  0  0  0  0
  -20.6110    7.6650  -31.2570 N   0  0  0  0  0  0
  -19.1890    7.6100  -29.2500 C   0  0  0  0  0  0
  -18.2450    8.2700  -28.5650 N   0  0  0  0  0  0
  -17.7800    7.7640  -27.4250 C   0  0  0  0  0  0
  -16.8100    8.5400  -26.7820 N   0  0  0  0  0  0
  -16.3470    9.8020  -27.3860 C   0  0  0  0  0  0
  -15.6690   10.6790  -26.3370 C   0  0  0  0  0  0
  -14.9110   11.7970  -27.0690 C   0  0  0  0  0  0
  -15.9150   12.6540  -27.8320 C   0  0  0  0  0  0
  -16.7540   11.7620  -28.7510 C   0  0  0  0  0  0
  -17.4570   10.6590  -27.9620 C   0  0  0  0  0  0
  -16.1520    8.1310  -25.5230 C   0  0  0  0  0  0
  -14.8780    7.4890  -25.9840 C   0  0  0  0  0  0
  -13.7760    8.2700  -26.3070 C   0  0  0  0  0  0
  -12.6170    7.6640  -26.7590 C   0  0  0  0  0  0
  -12.5680    6.2720  -26.8940 C   0  0  0  0  0  0
  -11.1080    5.4900  -27.4820 Cl  0  0  0  0  0  0
  -13.6730    5.4860  -26.5730 C   0  0  0  0  0  0
  -14.8270    6.1050  -26.1220 C   0  0  0  0  0  0
  -18.2240    6.6040  -26.9280 N   0  0  0  0  0  0
  -19.1690    5.9710  -27.6390 C   0  0  0  0  0  0
  -19.6780    4.7480  -27.1870 N   0  0  0  0  0  0
  -20.7260    4.0510  -27.9710 C   0  0  0  0  0  0
  -20.5380    2.5270  -27.9190 C   0  0  0  0  0  0
  -20.4180    2.0840  -26.5630 O   0  0  0  0  0  0
  -19.2460    2.5990  -25.9290 C   0  0  0  0  0  0
  -19.1950    4.1380  -25.9250 C   0  0  0  0  0  0
  -19.6660    6.4470  -28.7930 N   0  0  0  0  0  0
  -19.2901    9.2237  -30.7705 H   0  0  0  0  0  0
  -21.0199    6.6823  -30.9795 H   0  0  0  0  0  0
  -15.6808    9.4507  -28.1877 H   0  0  0  0  0  0
  -16.4313   11.1102  -25.6714 H   0  0  0  0  0  0
  -14.9690   10.0696  -25.7465 H   0  0  0  0  0  0
  -14.3736   12.4165  -26.3359 H   0  0  0  0  0  0
  -14.1907   11.3525  -27.7716 H   0  0  0  0  0  0
  -16.5751   13.1685  -27.1182 H   0  0  0  0  0  0
  -15.3767   13.3991  -28.4362 H   0  0  0  0  0  0
  -17.5173   12.3716  -29.2567 H   0  0  0  0  0  0
  -16.1017   11.2935  -29.5027 H   0  0  0  0  0  0
  -18.0950   10.0435  -28.6133 H   0  0  0  0  0  0
  -18.0621   11.0745  -27.1428 H   0  0  0  0  0  0
  -15.9708    9.0185  -24.8989 H   0  0  0  0  0  0
  -16.8019    7.4282  -24.9811 H   0  0  0  0  0  0
  -13.8238    9.3542  -26.2050 H   0  0  0  0  0  0
  -11.7453    8.2688  -27.0090 H   0  0  0  0  0  0
  -13.6298    4.4017  -26.6752 H   0  0  0  0  0  0
  -15.7016    5.5039  -25.8733 H   0  0  0  0  0  0
  -21.7161    4.2965  -27.5593 H   0  0  0  0  0  0
  -20.6749    4.3751  -29.0209 H   0  0  0  0  0  0
  -21.4064    2.0345  -28.3808 H   0  0  0  0  0  0
  -19.6254    2.2512  -28.4677 H   0  0  0  0  0  0
  -19.2159    2.2598  -24.8830 H   0  0  0  0  0  0
  -18.3529    2.2353  -26.4583 H   0  0  0  0  0  0
  -18.1494    4.4327  -25.7520 H   0  0  0  0  0  0
  -19.8175    4.4863  -25.0876 H   0  0  0  0  0  0
  1  2  2  0  0  0
  1  3  1  0  0  0
  1 30  1  0  0  0
  2 31  1  0  0  0
  3  4  2  0  0  0
  3 29  1  0  0  0
  4  5  1  0  0  0
  5  6  1  0  0  0
  5 21  2  0  0  0
  6  7  1  0  0  0
  6 13  1  0  0  0
  7  8  1  0  0  0
  7 12  1  0  0  0
  7 32  1  0  0  0
  8  9  1  0  0  0
  8 33  1  0  0  0
  8 34  1  0  0  0
  9 10  1  0  0  0
  9 35  1  0  0  0
  9 36  1  0  0  0
 10 11  1  0  0  0
 10 37  1  0  0  0
 10 38  1  0  0  0
 11 12  1  0  0  0
 11 39  1  0  0  0
 11 40  1  0  0  0
 12 41  1  0  0  0
 12 42  1  0  0  0
 13 14  1  0  0  0
 13 43  1  0  0  0
 13 44  1  0  0  0
 14 15  2  0  0  0
 14 20  1  0  0  0
 15 16  1  0  0  0
 15 45  1  0  0  0
 16 17  2  0  0  0
 16 46  1  0  0  0
 17 18  1  0  0  0
 17 19  1  0  0  0
 19 20  2  0  0  0
 19 47  1  0  0  0
 20 48  1  0  0  0
 21 22  1  0  0  0
 22 23  1  0  0  0
 22 29  2  0  0  0
 23 24  1  0  0  0
 23 28  1  0  0  0
 24 25  1  0  0  0
 24 49  1  0  0  0
 24 50  1  0  0  0
 25 26  1  0  0  0
 25 51  1  0  0  0
 25 52  1  0  0  0
 26 27  1  0  0  0
 27 28  1  0  0  0
 27 53  1  0  0  0
 27 54  1  0  0  0
 28 55  1  0  0  0
 28 56  1  0  0  0
M  END
> <s_m_source_file>
../4axm_ligand.sdf

> <i_m_source_file_index>
1

> <s_epik_input>
W0NIMl0xW0NIMl1PW0NIMl1bQ0gyXU4xYyhuMiluYyhuYzIvW0NIXT1OXFtIXSlOKFtDSF0zW0NIMl1bQ0gyXVtDSDJdW0NIMl1bQ0gyXTMpW0NIMl1jNFtjSF1bY0hdYyhDbClbY0hdW2NIXTQ=

> <s_epik_cmdline>
J2VwaWtfYXBwJywgJy1pbWFlJywgJ2xpZ2FuZF9wcm8ubWFlJywgJy1vbWFlJywgJ2xpZ2FuZF9wcmVwLm1hZScsICctbXMnLCAnMScsICctcGgnLCAnNycsICctcGh0JywgJzAuNScsICctbnQn

> <r_lp_tautomer_probability>
1

> <r_epik_Ionization_Penalty>
  0.0000

> <r_epik_Ionization_Penalty_Charging>
  0.0000

> <r_epik_Ionization_Penalty_Neutral>
  0.0000

> <r_epik_State_Penalty>
 -0.0000

> <r_epik_Charging_Adjusted_Penalty>
0

> <i_epik_Tot_Q>
0

> <i_epik_Tot_abs_Q>
0

> <s_epik_Chemistry_Notes>
This compound has an imine and may undergo hydrolysis.

$$$$
