4ay6_ligand
                    3D
 Schrodinger Suite 2020-3.
 64 66  0  0  1  0            999 V2000
  137.5090  -22.9200   29.8180 N   0  0  0  0  0  0
  138.2490  -22.7280   28.6950 C   0  0  0  0  0  0
  139.1520  -23.4800   28.3410 O   0  0  0  0  0  0
  138.0170  -21.6270   27.8940 N   0  0  0  0  0  0
  137.0050  -20.7190   28.2300 C   0  0  0  0  0  0
  136.8170  -19.7650   27.4890 O   0  0  0  0  0  0
  136.2270  -20.8880   29.3650 C   0  0  0  0  0  0
  136.4740  -21.9990   30.1580 C   0  0  0  0  0  0
  133.4920  -26.4350   34.1260 P   0  0  1  0  0  0
  134.1170  -25.6700   36.8450 P   0  0  2  0  0  0
  134.0650  -28.2120   37.3610 C   0  0  2  0  0  0
  134.6280  -26.9020   37.6800 O   0  0  0  0  0  0
  132.9710  -27.7950   34.3150 O   0  0  0  0  0  0
  137.7390  -24.1390   30.6670 C   0  0  1  0  0  0
  134.8560  -24.4560   37.2570 O   0  0  0  0  0  0
  133.3600  -28.8890   38.5470 C   0  0  2  0  0  0
  132.2810  -27.9860   38.9710 N   0  0  0  0  0  0
  139.4080  -23.6710   32.2930 O   0  0  0  0  0  0
  132.5150  -25.3080   34.0500 O   0  5  0  0  0  0
  138.0360  -23.9710   32.1330 C   0  0  2  0  0  0
  132.6210  -25.7000   36.9200 O   0  5  0  0  0  0
  134.3600  -29.1890   39.6790 C   0  0  1  0  0  0
  133.6590  -29.5710   40.8850 O   0  0  0  0  0  0
  134.5830  -26.1150   35.3550 O   0  0  0  0  0  0
  137.7830  -25.3860   32.5910 C   0  0  2  0  0  0
  138.7860  -26.2890   32.0340 O   0  0  0  0  0  0
  135.3930  -30.2790   39.2950 C   0  0  2  0  0  0
  136.3270  -30.4040   40.3810 O   0  0  0  0  0  0
  136.4900  -25.6560   31.9000 C   0  0  2  0  0  0
  136.4580  -24.7550   30.7610 O   0  0  0  0  0  0
  136.2030  -29.9060   38.0600 C   0  0  2  0  0  0
  135.3510  -29.2340   36.6730 S   0  0  0  0  0  0
  135.3200  -25.3010   32.7830 C   0  0  0  0  0  0
  134.4580  -26.4210   32.8820 O   0  0  0  0  0  0
  136.6210  -31.1440   37.2740 C   0  0  0  0  0  0
  136.8770  -32.2480   38.1380 O   0  0  0  0  0  0
  131.0250  -28.1890   38.5720 C   0  0  0  0  0  0
  130.6710  -29.1490   37.8910 O   0  0  0  0  0  0
  130.0110  -27.1630   39.0590 C   0  0  0  0  0  0
  138.6268  -21.4639   26.9931 H   0  0  0  0  0  0
  135.4475  -20.1720   29.6254 H   0  0  0  0  0  0
  135.8712  -22.1700   31.0499 H   0  0  0  0  0  0
  133.2023  -27.9186   36.7449 H   0  0  0  0  0  0
  138.5714  -24.6676   30.1795 H   0  0  0  0  0  0
  132.8922  -29.8454   38.2705 H   0  0  0  0  0  0
  132.5050  -27.1305   39.6252 H   0  0  0  0  0  0
  139.7905  -22.6787   32.0118 H   0  0  0  0  0  0
  137.5175  -23.1617   32.6679 H   0  0  0  0  0  0
  134.8909  -28.2576   39.9254 H   0  0  0  0  0  0
  132.8854  -28.9107   41.3041 H   0  0  0  0  0  0
  137.8066  -25.5405   33.6798 H   0  0  0  0  0  0
  139.8209  -26.2578   32.4054 H   0  0  0  0  0  0
  134.8829  -31.2389   39.1264 H   0  0  0  0  0  0
  135.9690  -30.6705   41.3864 H   0  0  0  0  0  0
  136.4270  -26.7121   31.5989 H   0  0  0  0  0  0
  136.9552  -29.3382   38.6272 H   0  0  0  0  0  0
  135.6858  -25.0258   33.7832 H   0  0  0  0  0  0
  134.7748  -24.4517   32.3454 H   0  0  0  0  0  0
  135.8169  -31.4252   36.5780 H   0  0  0  0  0  0
  137.5376  -30.9258   36.7064 H   0  0  0  0  0  0
  137.1891  -33.2151   37.7169 H   0  0  0  0  0  0
  130.5259  -26.3894   39.6475 H   0  0  0  0  0  0
  129.2581  -27.6613   39.6874 H   0  0  0  0  0  0
  129.5164  -26.6971   38.1939 H   0  0  0  0  0  0
  1  2  1  0  0  0
  1  8  1  0  0  0
  1 14  1  0  0  0
  2  3  2  0  0  0
  2  4  1  0  0  0
  4  5  1  0  0  0
  4 40  1  0  0  0
  5  6  2  0  0  0
  5  7  1  0  0  0
  7  8  2  0  0  0
  7 41  1  0  0  0
  8 42  1  0  0  0
  9 13  2  0  0  0
  9 19  1  0  0  0
  9 24  1  0  0  0
  9 34  1  0  0  0
 10 12  1  0  0  0
 10 15  2  0  0  0
 10 21  1  0  0  0
 10 24  1  0  0  0
 11 12  1  0  0  0
 11 16  1  0  0  0
 11 32  1  0  0  0
 11 43  1  0  0  0
 14 20  1  0  0  0
 14 30  1  0  0  0
 14 44  1  0  0  0
 16 17  1  0  0  0
 16 22  1  0  0  0
 16 45  1  0  0  0
 17 37  1  0  0  0
 17 46  1  0  0  0
 18 20  1  0  0  0
 18 47  1  0  0  0
 20 25  1  0  0  0
 20 48  1  0  0  0
 22 23  1  0  0  0
 22 27  1  0  0  0
 22 49  1  0  0  0
 23 50  1  0  0  0
 25 26  1  0  0  0
 25 29  1  0  0  0
 25 51  1  0  0  0
 26 52  1  0  0  0
 27 28  1  0  0  0
 27 31  1  0  0  0
 27 53  1  0  0  0
 28 54  1  0  0  0
 29 30  1  0  0  0
 29 33  1  0  0  0
 29 55  1  0  0  0
 31 32  1  0  0  0
 31 35  1  0  0  0
 31 56  1  0  0  0
 33 34  1  0  0  0
 33 57  1  0  0  0
 33 58  1  0  0  0
 35 36  1  0  0  0
 35 59  1  0  0  0
 35 60  1  0  0  0
 36 61  1  0  0  0
 37 38  2  0  0  0
 37 39  1  0  0  0
 39 62  1  0  0  0
 39 63  1  0  0  0
 39 64  1  0  0  0
M  CHG  2  19  -1  21  -1
M  END
> <s_m_source_file>
../4ay6_ligand.sdf

> <i_m_source_file_index>
1

> <s_epik_input>
W2NIXTFbY0hdYyg9TylbbkhdYyg9TyluMVtDQEhdMltDQEhdKFtPSF0pW0NASF0oW09IXSlbQ0BIXShPMilbQ0gyXU9bUEBdKD1PKShbT0hdKU9bUEBAXSg9TykoW09IXSlPW0NAQEhdM1tDQEhdKFtOSF1DKD1PKVtDSDNdKVtDQEBIXShbT0hdKVtDQEhdKFtPSF0pW0NASF0oUzMpW0NIMl1bT0hd

> <s_epik_cmdline>
J2VwaWtfYXBwJywgJy1pbWFlJywgJ2xpZ2FuZF9wcm8ubWFlJywgJy1vbWFlJywgJ2xpZ2FuZF9wcmVwLm1hZScsICctbXMnLCAnMScsICctcGgnLCAnNycsICctcGh0JywgJzAuNScsICctbnQn

> <r_lp_tautomer_probability>
1

> <r_epik_Ionization_Penalty>
  0.0031

> <r_epik_Ionization_Penalty_Charging>
  0.0030

> <r_epik_Ionization_Penalty_Neutral>
  0.0000

> <r_epik_State_Penalty>
 -0.0000

> <r_epik_Charging_Adjusted_Penalty>
0.00304827564191503

> <i_epik_Tot_Q>
-2

> <i_epik_Tot_abs_Q>
2

> <s_epik_Chemistry_Notes>
This compound contains an acetal/aminal-like group ( X-CH(R)-Y where X, Y are N, S, or O) that may be acid/base labile, releasing an aldehyde.

$$$$
