4ayq_ligand
                    3D
 Schrodinger Suite 2020-3.
 27 28  0  0  1  0            999 V2000
    2.8400  -31.8050  -19.8990 C   0  0  0  0  0  0
    4.1660  -31.9290  -19.7440 N   0  0  0  0  0  0
    2.7330  -30.0420  -18.2030 C   0  0  2  0  0  0
    4.2090  -29.7600  -18.5240 C   0  0  1  0  0  0
    5.0020  -30.9950  -18.9290 C   0  0  1  0  0  0
    5.5160  -31.7260  -17.6830 C   0  0  0  0  0  0
    3.4990  -33.6170  -20.9670 C   0  0  0  0  0  0
    4.5820  -33.0430  -20.4070 C   0  0  0  0  0  0
    2.4410  -32.8390  -20.6410 N   0  3  0  0  0  0
    2.6140  -30.9240  -17.0920 O   0  0  0  0  0  0
    0.7300  -31.0920  -18.9740 O   0  0  0  0  0  0
    4.2840  -28.8170  -19.5920 O   0  0  0  0  0  0
    2.0270  -30.6760  -19.3810 C   0  0  2  0  0  0
    6.2480  -32.9080  -18.0070 O   0  0  0  0  0  0
    2.2385  -29.1047  -17.9083 H   0  0  0  0  0  0
    4.6788  -29.3164  -17.6338 H   0  0  0  0  0  0
    5.8430  -30.6707  -19.5595 H   0  0  0  0  0  0
    6.1822  -31.0595  -17.1156 H   0  0  0  0  0  0
    4.6640  -32.0173  -17.0512 H   0  0  0  0  0  0
    3.4792  -34.5283  -21.5647 H   0  0  0  0  0  0
    5.6077  -33.4058  -20.4730 H   0  0  0  0  0  0
    3.0614  -30.6531  -16.1243 H   0  0  0  0  0  0
    0.0572  -31.5793  -19.6950 H   0  0  0  0  0  0
    3.7748  -27.8458  -19.5050 H   0  0  0  0  0  0
    1.8551  -29.9705  -20.2073 H   0  0  0  0  0  0
    6.6736  -33.5286  -17.2047 H   0  0  0  0  0  0
    1.3776  -32.9539  -20.8977 H   0  0  0  0  0  0
  1  2  1  0  0  0
  1  9  2  0  0  0
  1 13  1  0  0  0
  2  5  1  0  0  0
  2  8  1  0  0  0
  3  4  1  0  0  0
  3 10  1  0  0  0
  3 13  1  0  0  0
  3 15  1  0  0  0
  4  5  1  0  0  0
  4 12  1  0  0  0
  4 16  1  0  0  0
  5  6  1  0  0  0
  5 17  1  0  0  0
  6 14  1  0  0  0
  6 18  1  0  0  0
  6 19  1  0  0  0
  7  8  2  0  0  0
  7  9  1  0  0  0
  7 20  1  0  0  0
  8 21  1  0  0  0
  9 27  1  0  0  0
 10 22  1  0  0  0
 11 13  1  0  0  0
 11 23  1  0  0  0
 12 24  1  0  0  0
 13 25  1  0  0  0
 14 26  1  0  0  0
M  CHG  1   9   1
M  END
> <s_m_source_file>
../4ayq_ligand.sdf

> <i_m_source_file_index>
1

> <s_epik_input>
bjFbY0hdW2NIXW4oYzEyKVtDQEhdKFtDSDJdW09IXSlbQ0BASF0oW09IXSlbQ0BIXShbT0hdKVtDQEBIXTJbT0hd

> <s_epik_cmdline>
J2VwaWtfYXBwJywgJy1pbWFlJywgJ2xpZ2FuZF9wcm8ubWFlJywgJy1vbWFlJywgJ2xpZ2FuZF9wcmVwLm1hZScsICctbXMnLCAnMScsICctcGgnLCAnNycsICctcGh0JywgJzAuNScsICctbnQn

> <r_lp_tautomer_probability>
1

> <r_epik_Ionization_Penalty>
  0.2921

> <r_epik_Ionization_Penalty_Charging>
  0.0000

> <r_epik_Ionization_Penalty_Neutral>
  0.2921

> <r_epik_State_Penalty>
  0.2847

> <r_epik_Charging_Adjusted_Penalty>
0.284745957002555

> <i_epik_Tot_Q>
1

> <i_epik_Tot_abs_Q>
1

$$$$
