4ayr_ligand
                    3D
 Schrodinger Suite 2020-3.
 25 25  0  0  1  0            999 V2000
    4.3720   28.8010    2.8460 O   0  0  0  0  0  0
    4.2470   29.7620    1.7850 C   0  0  1  0  0  0
    2.7590   30.0870    1.5900 C   0  0  2  0  0  0
    2.5840   30.9180    0.4270 O   0  0  0  0  0  0
    2.1650   30.8680    2.6990 C   0  0  1  0  0  0
    2.9520   32.0610    3.0060 N   0  3  0  0  0  0
    4.4090   31.8670    3.2200 C   0  0  0  0  0  0
    5.0740   30.9970    2.1420 C   0  0  2  0  0  0
    5.4610   31.7690    0.8780 C   0  0  0  0  0  0
    6.2220   32.9530    1.1930 O   0  0  0  0  0  0
    0.8620   31.1980    2.4110 O   0  0  0  0  0  0
    3.8476   27.8364    2.7789 H   0  0  0  0  0  0
    4.6499   29.3118    0.8658 H   0  0  0  0  0  0
    2.2250   29.1311    1.4853 H   0  0  0  0  0  0
    2.9421   30.5732   -0.5543 H   0  0  0  0  0  0
    2.1000   30.2501    3.6067 H   0  0  0  0  0  0
    2.8666   32.7797    2.1777 H   0  0  0  0  0  0
    2.5746   32.5212    3.9311 H   0  0  0  0  0  0
    4.9139   32.8443    3.2134 H   0  0  0  0  0  0
    4.5749   31.3752    4.1899 H   0  0  0  0  0  0
    6.0114   30.6517    2.6026 H   0  0  0  0  0  0
    6.0721   31.1255    0.2280 H   0  0  0  0  0  0
    4.5505   32.0734    0.3411 H   0  0  0  0  0  0
    6.5728   33.6124    0.3854 H   0  0  0  0  0  0
    0.1380   30.4095    2.1581 H   0  0  0  0  0  0
  1  2  1  0  0  0
  1 12  1  0  0  0
  2  3  1  0  0  0
  2  8  1  0  0  0
  2 13  1  0  0  0
  3  4  1  0  0  0
  3  5  1  0  0  0
  3 14  1  0  0  0
  4 15  1  0  0  0
  5  6  1  0  0  0
  5 11  1  0  0  0
  5 16  1  0  0  0
  6  7  1  0  0  0
  6 17  1  0  0  0
  6 18  1  0  0  0
  7  8  1  0  0  0
  7 19  1  0  0  0
  7 20  1  0  0  0
  8  9  1  0  0  0
  8 21  1  0  0  0
  9 10  1  0  0  0
  9 22  1  0  0  0
  9 23  1  0  0  0
 10 24  1  0  0  0
 11 25  1  0  0  0
M  CHG  1   6   1
M  END
> <i_m_stars>
0

> <s_m_entry_id>
41

> <s_m_entry_name>
Structure41

> <s_pdb_PDB_TITLE>
4ayr_protein

> <s_pdb_PDB_format_version>
3.0

> <s_m_Source_Path>
/disk1/aquila/PDBbind2020/fail/4ayr

> <s_m_Source_File>
4ayr_protein.pdb

> <i_m_Source_File_Index>
1

> <s_ppw_entry_id_backup>
39

> <b_ppw_prepared>
1

> <s_ppw_prepared_with_version>
2020-2

> <b_ppw_assigned_bond_orders>
1

> <b_ppw_added_hydrogens>
1

> <b_ppw_treated_metals>
1

> <b_ppw_created_disulfur>
1

> <s_ppw_het_states>
eJzdk7EOgjAQhl/lwipir9Iexc3J1TgaB4JMIjjgYAzvLi3IoSHRGBMTO335C/xXvvTqoRfDtlmatPRB7HywOGcMGRWjZiQfsMOIU9MjCUZkdG2Wu+q2FXmAtvsxMByELlDPgeZAu4CeAluMPHo79eAAjy3GvSL6wGJ7DrTDYyBD+8Fr3ZwmICXJDJYP3qZKqgxOWZHk1SW2zys4pEk+O5b5AlbTZVnsIS3PRdVsLmAdwwQ991d+YmSKf6BESdkrCYmiMQ1KvtAgvmFBfGbhH+6FQYN3CSIS0fBe0JgR84aRXX0DICgM3w==

> <i_pdb_PDB_Model>
1

> <s_m_source_file>
../4ayr_ligand.sdf

> <i_m_source_file_index>
1

> <s_epik_input>
W09IXVtDQEhdMVtDQEhdKFtPSF0pW0NASF0oW09IXSlbTkgyK11bQ0gyXVtDQEBIXTFbQ0gyXVtPSF0=

> <s_epik_cmdline>
J2VwaWtfYXBwJywgJy1pbWFlJywgJ2xpZ2FuZF9wcm8ubWFlJywgJy1vbWFlJywgJ2xpZ2FuZF9wcmVwLm1hZScsICctbXMnLCAnMScsICctcGgnLCAnNycsICctcGh0JywgJzAuNScsICctbnQn

> <r_epik_Ionization_Penalty>
  0.4716

> <r_epik_Ionization_Penalty_Charging>
  0.1758

> <r_epik_Ionization_Penalty_Neutral>
  0.2957

> <r_epik_State_Penalty>
  0.3958

> <r_epik_Charging_Adjusted_Penalty>
0.571649055445604

> <i_epik_Tot_Q>
1

> <i_epik_Tot_abs_Q>
1

> <s_epik_Chemistry_Notes>
This compound contains an acetal/aminal-like group ( X-CH(R)-Y where X, Y are N, S, or O) that may be acid/base labile, releasing an aldehyde.

$$$$
