4ayt_ligand
                    3D
 Schrodinger Suite 2020-3.
 46 48  0  0  1  0            999 V2000
  -16.9840   22.8330    7.1760 P   0  0  0  0  0  0
  -15.7910   21.9320    7.1020 O   0  0  0  0  0  0
  -16.6800   24.1790    7.8740 O   0  5  0  0  0  0
  -18.2020   22.1880    7.8830 O   0  0  0  0  0  0
  -18.4000   22.0080    4.7820 P   0  0  1  0  0  0
  -17.6480   20.9050    4.0530 O   0  0  0  0  0  0
  -19.6080   21.5530    5.6680 O   0  5  0  0  0  0
  -17.4710   23.2210    5.5510 C   0  0  0  0  0  0
  -20.4650   23.4290    3.2750 P   0  0  2  0  0  0
  -20.9590   24.2210    4.4250 O   0  0  0  0  0  0
  -21.4420   22.4740    2.6030 O   0  5  0  0  0  0
  -19.1310   22.5970    3.4790 O   0  0  0  0  0  0
  -20.2900   24.3750    1.9710 O   0  0  0  0  0  0
  -19.4170   24.1570    0.8430 C   0  0  0  0  0  0
  -19.0910   25.4880    0.2050 C   0  0  1  0  0  0
  -20.3080   26.2010   -0.1170 O   0  0  0  0  0  0
  -18.2210   26.4460    1.0240 C   0  0  1  0  0  0
  -17.1290   26.9480    0.2570 O   0  0  0  0  0  0
  -19.2130   27.5220    1.4910 C   0  0  1  0  0  0
  -18.6180   28.8020    1.6800 O   0  0  0  0  0  0
  -20.2230   27.5360    0.3440 C   0  0  2  0  0  0
  -21.5670   27.9910    0.7040 N   0  0  0  0  0  0
  -22.3130   27.5910    1.7810 C   0  0  0  0  0  0
  -23.5150   28.1160    1.8270 N   0  0  0  0  0  0
  -23.5670   28.9180    0.6970 C   0  0  0  0  0  0
  -24.5890   29.7180    0.1440 C   0  0  0  0  0  0
  -25.8010   29.8550    0.6920 N   0  0  0  0  0  0
  -24.3260   30.3710   -1.0140 N   0  0  0  0  0  0
  -23.1140   30.2360   -1.5680 C   0  0  0  0  0  0
  -22.0750   29.5090   -1.1430 N   0  0  0  0  0  0
  -22.3690   28.8610    0.0000 C   0  0  0  0  0  0
  -18.1204   21.8607    8.9300 H   0  0  0  0  0  0
  -18.0824   24.1354    5.5599 H   0  0  0  0  0  0
  -16.5781   23.3830    4.9294 H   0  0  0  0  0  0
  -18.4899   23.6737    1.1849 H   0  0  0  0  0  0
  -19.9197   23.5087    0.1102 H   0  0  0  0  0  0
  -18.5477   25.2135   -0.7112 H   0  0  0  0  0  0
  -17.6537   25.9892    1.8484 H   0  0  0  0  0  0
  -16.3622   26.2581   -0.1252 H   0  0  0  0  0  0
  -19.6218   27.3676    2.5005 H   0  0  0  0  0  0
  -17.8686   28.9487    2.4717 H   0  0  0  0  0  0
  -19.9026   28.2197   -0.4559 H   0  0  0  0  0  0
  -21.9406   26.8969    2.5344 H   0  0  0  0  0  0
  -26.0416   29.3362    1.6317 H   0  0  0  0  0  0
  -26.5575   30.4865    0.2031 H   0  0  0  0  0  0
  -22.9526   30.7943   -2.4902 H   0  0  0  0  0  0
  1  2  2  0  0  0
  1  3  1  0  0  0
  1  4  1  0  0  0
  1  8  1  0  0  0
  4 32  1  0  0  0
  5  6  2  0  0  0
  5  7  1  0  0  0
  5  8  1  0  0  0
  5 12  1  0  0  0
  8 33  1  0  0  0
  8 34  1  0  0  0
  9 10  2  0  0  0
  9 11  1  0  0  0
  9 12  1  0  0  0
  9 13  1  0  0  0
 13 14  1  0  0  0
 14 15  1  0  0  0
 14 35  1  0  0  0
 14 36  1  0  0  0
 15 16  1  0  0  0
 15 17  1  0  0  0
 15 37  1  0  0  0
 16 21  1  0  0  0
 17 18  1  0  0  0
 17 19  1  0  0  0
 17 38  1  0  0  0
 18 39  1  0  0  0
 19 20  1  0  0  0
 19 21  1  0  0  0
 19 40  1  0  0  0
 20 41  1  0  0  0
 21 22  1  0  0  0
 21 42  1  0  0  0
 22 23  1  0  0  0
 22 31  1  0  0  0
 23 24  2  0  0  0
 23 43  1  0  0  0
 24 25  1  0  0  0
 25 26  2  0  0  0
 25 31  1  0  0  0
 26 27  1  0  0  0
 26 28  1  0  0  0
 27 44  1  0  0  0
 27 45  1  0  0  0
 28 29  2  0  0  0
 29 30  1  0  0  0
 29 46  1  0  0  0
 30 31  2  0  0  0
M  CHG  3   3  -1   7  -1  11  -1
M  END
> <s_m_source_file>
../4ayt_ligand.sdf

> <i_m_source_file_index>
1

> <s_epik_input>
Tz1QKFtPSF0pKFtPSF0pW0NIMl1bUEBAXSg9TykoW09IXSlPW1BAXSg9TykoW09IXSlPW0NIMl1bQ0BIXTFPW0NASF0oW0NASF0oW09IXSlbQ0BASF0xW09IXSluKFtjSF1uMiljKGMyMyluW2NIXW5jM1tOSDJd

> <s_epik_cmdline>
J2VwaWtfYXBwJywgJy1pbWFlJywgJ2xpZ2FuZF9wcm8ubWFlJywgJy1vbWFlJywgJ2xpZ2FuZF9wcmVwLm1hZScsICctbXMnLCAnMScsICctcGgnLCAnNycsICctcGh0JywgJzAuNScsICctbnQn

> <r_lp_tautomer_probability>
0.999997216410988

> <r_epik_Ionization_Penalty>
  0.1707

> <r_epik_Ionization_Penalty_Charging>
  0.0003

> <r_epik_Ionization_Penalty_Neutral>
  0.1704

> <r_epik_State_Penalty>
  0.1593

> <r_epik_Charging_Adjusted_Penalty>
0.159669573191128

> <i_epik_Tot_Q>
-3

> <i_epik_Tot_abs_Q>
3

> <s_epik_Chemistry_Notes>
This compound contains an acetal/aminal-like group ( X-CH(R)-Y where X, Y are N, S, or O) that may be acid/base labile, releasing an aldehyde.

$$$$
