4ayu_ligand
                    3D
 Schrodinger Suite 2020-3.
 21 21  0  0  1  0            999 V2000
  -93.6140    9.5810  -19.7850 C   0  0  0  0  0  0
  -92.4320    9.7500  -20.1180 O   0  0  0  0  0  0
  -94.5090   10.7260  -19.4990 C   0  0  0  0  0  0
  -94.1290    8.2620  -19.6640 N   0  0  0  0  0  0
  -95.4680    7.9410  -19.2570 C   0  0  2  0  0  0
  -95.4690    6.4590  -19.0160 C   0  0  0  0  0  0
  -94.3850    5.9310  -19.8630 C   0  0  0  0  0  0
  -93.3650    7.0460  -19.8910 C   0  0  0  0  0  0
  -96.5340    8.3130  -20.2610 C   0  0  0  0  0  0
  -96.2030    8.6260  -21.4360 O   0  5  0  0  0  0
  -97.7410    8.2870  -19.9100 O   0  0  0  0  0  0
  -93.9568   11.6670  -19.6392 H   0  0  0  0  0  0
  -94.8662   10.6617  -18.4606 H   0  0  0  0  0  0
  -95.3686   10.6997  -20.1848 H   0  0  0  0  0  0
  -95.6762    8.5449  -18.3615 H   0  0  0  0  0  0
  -95.2831    6.2607  -17.9501 H   0  0  0  0  0  0
  -96.4459    6.0417  -19.3016 H   0  0  0  0  0  0
  -93.9818    5.0122  -19.4121 H   0  0  0  0  0  0
  -94.7793    5.7053  -20.8648 H   0  0  0  0  0  0
  -92.8583    7.1079  -20.8654 H   0  0  0  0  0  0
  -92.6152    6.9300  -19.0945 H   0  0  0  0  0  0
  1  2  2  0  0  0
  1  3  1  0  0  0
  1  4  1  0  0  0
  3 12  1  0  0  0
  3 13  1  0  0  0
  3 14  1  0  0  0
  4  5  1  0  0  0
  4  8  1  0  0  0
  5  6  1  0  0  0
  5  9  1  0  0  0
  5 15  1  0  0  0
  6  7  1  0  0  0
  6 16  1  0  0  0
  6 17  1  0  0  0
  7  8  1  0  0  0
  7 18  1  0  0  0
  7 19  1  0  0  0
  8 20  1  0  0  0
  8 21  1  0  0  0
  9 10  1  0  0  0
  9 11  2  0  0  0
M  CHG  1  10  -1
M  END
> <s_m_source_file>
../4ayu_ligand.sdf

> <i_m_source_file_index>
1

> <s_epik_input>
Tz1DKFtDSDNdKU4xW0NAQEhdKEMoPU8pW09IXSlbQ0gyXVtDSDJdW0NIMl0x

> <s_epik_cmdline>
J2VwaWtfYXBwJywgJy1pbWFlJywgJ2xpZ2FuZF9wcm8ubWFlJywgJy1vbWFlJywgJ2xpZ2FuZF9wcmVwLm1hZScsICctbXMnLCAnMScsICctcGgnLCAnNycsICctcGh0JywgJzAuNScsICctbnQn

> <r_lp_tautomer_probability>
1

> <r_epik_Ionization_Penalty>
  0.0005

> <r_epik_Ionization_Penalty_Charging>
  0.0005

> <r_epik_Ionization_Penalty_Neutral>
  0.0000

> <r_epik_State_Penalty>
 -0.0000

> <r_epik_Charging_Adjusted_Penalty>
0.000463455513951949

> <i_epik_Tot_Q>
-1

> <i_epik_Tot_abs_Q>
1

$$$$
