4ayv_ligand
                    3D
 Schrodinger Suite 2020-3.
 79 82  0  0  1  0            999 V2000
   29.5220   17.6380   23.6890 C   0  0  0  0  0  0
   30.8390   18.3690   24.0410 C   0  0  1  0  0  0
   31.3550   18.0230   25.4550 C   0  0  0  0  0  0
   31.9390   18.0500   22.9780 C   0  0  0  0  0  0
   32.5790   18.8780   25.6450 N   0  0  0  0  0  0
   33.1470   18.9460   23.2170 C   0  0  0  0  0  0
   33.7130   18.6960   24.6470 C   0  0  0  0  0  0
   32.4270   20.0940   26.3010 C   0  0  0  0  0  0
   33.5130   20.8500   26.3420 N   0  0  0  0  0  0
   31.2690   20.4210   26.8120 N   0  3  0  0  0  0
   29.7500   13.4180   26.6610 N   0  0  3  0  0  0
   29.8930   13.1300   25.2750 C   0  0  2  0  0  0
   31.3070   13.5900   24.8610 C   0  0  0  0  0  0
   31.9250   14.4320   25.5460 O   0  0  0  0  0  0
   28.8640   13.9020   24.4000 C   0  0  0  0  0  0
   28.8340   15.4080   24.5570 C   0  0  0  0  0  0
   28.2160   15.9780   25.4840 O   0  0  0  0  0  0
   29.5500   16.1520   23.5980 N   0  0  0  0  0  0
   29.3100   12.2750   27.7580 S   0  0  0  0  0  0
   28.3600   11.4260   27.1480 O   0  0  0  0  0  0
   29.0630   13.0620   28.9540 O   0  0  0  0  0  0
   30.7640   10.0600   27.3130 C   0  0  0  0  0  0
   30.6550   11.3050   27.9310 C   0  0  0  0  0  0
   31.7320   11.7770   28.7590 C   0  0  0  0  0  0
   32.8630   11.0470   28.9660 C   0  0  0  0  0  0
   34.1770    9.0060   28.5940 C   0  0  0  0  0  0
   34.2830    7.7690   28.0090 C   0  0  0  0  0  0
   33.2400    7.2410   27.1760 C   0  0  0  0  0  0
   32.0880    7.9720   26.9330 C   0  0  0  0  0  0
   31.9400    9.2660   27.5250 C   0  0  0  0  0  0
   33.0030    9.7730   28.3620 C   0  0  0  0  0  0
   31.8680   13.0410   23.7070 N   0  0  0  0  0  0
   31.1810   11.9550   22.9330 C   0  0  0  0  0  0
   33.0980   13.5900   23.1120 C   0  0  0  0  0  0
   32.1270   10.8190   22.7310 C   0  0  0  0  0  0
   32.6770   14.5420   21.9980 C   0  0  0  0  0  0
   32.7400   10.1950   23.8550 C   0  0  0  0  0  0
   32.4150   10.4040   21.4390 C   0  0  0  0  0  0
   33.6120   14.6840   21.0680 O   0  5  0  0  0  0
   31.6230   15.1370   21.8670 O   0  0  0  0  0  0
   33.6560    9.1490   23.6740 C   0  0  0  0  0  0
   33.3350    9.3500   21.2520 C   0  0  0  0  0  0
   33.9590    8.7220   22.3530 C   0  0  0  0  0  0
   28.7624   17.8632   24.4521 H   0  0  0  0  0  0
   29.1656   17.9778   22.7054 H   0  0  0  0  0  0
   30.6086   19.4446   24.0418 H   0  0  0  0  0  0
   30.5774   18.2578   26.1967 H   0  0  0  0  0  0
   31.5975   16.9512   25.5048 H   0  0  0  0  0  0
   32.2399   16.9957   23.0668 H   0  0  0  0  0  0
   31.5389   18.2334   21.9699 H   0  0  0  0  0  0
   33.9246   18.7193   22.4727 H   0  0  0  0  0  0
   32.8461   19.9999   23.1235 H   0  0  0  0  0  0
   34.5147   19.4161   24.8677 H   0  0  0  0  0  0
   34.1082   17.6723   24.7237 H   0  0  0  0  0  0
   34.4481   20.4946   25.8846 H   0  0  0  0  0  0
   33.4802   21.8336   26.8334 H   0  0  0  0  0  0
   30.4173   19.7295   26.7316 H   0  0  0  0  0  0
   30.0914   14.3846   27.0600 H   0  0  0  0  0  0
   29.7204   12.0458   25.2058 H   0  0  0  0  0  0
   29.0746   13.7162   23.3365 H   0  0  0  0  0  0
   27.8474   13.5560   24.6383 H   0  0  0  0  0  0
   30.1203   15.6607   22.7959 H   0  0  0  0  0  0
   29.9615    9.6925   26.6734 H   0  0  0  0  0  0
   31.6400   12.7522   29.2372 H   0  0  0  0  0  0
   33.6598   11.4426   29.5958 H   0  0  0  0  0  0
   34.9777    9.3928   29.2244 H   0  0  0  0  0  0
   35.1798    7.1738   28.1809 H   0  0  0  0  0  0
   33.3555    6.2535   26.7293 H   0  0  0  0  0  0
   31.3021    7.5649   26.2968 H   0  0  0  0  0  0
   30.3009   11.6061   23.4931 H   0  0  0  0  0  0
   30.8620   12.3467   21.9558 H   0  0  0  0  0  0
   33.6702   14.1269   23.8829 H   0  0  0  0  0  0
   33.7081   12.7687   22.7079 H   0  0  0  0  0  0
   32.4955   10.5327   24.8621 H   0  0  0  0  0  0
   31.9393   10.8834   20.5834 H   0  0  0  0  0  0
   34.1279    8.6712   24.5325 H   0  0  0  0  0  0
   33.5679    9.0150   20.2413 H   0  0  0  0  0  0
   34.6705    7.9126   22.1897 H   0  0  0  0  0  0
   31.1463   21.3877   27.3224 H   0  0  0  0  0  0
  1  2  1  0  0  0
  1 18  1  0  0  0
  1 44  1  0  0  0
  1 45  1  0  0  0
  2  3  1  0  0  0
  2  4  1  0  0  0
  2 46  1  0  0  0
  3  5  1  0  0  0
  3 47  1  0  0  0
  3 48  1  0  0  0
  4  6  1  0  0  0
  4 49  1  0  0  0
  4 50  1  0  0  0
  5  7  1  0  0  0
  5  8  1  0  0  0
  6  7  1  0  0  0
  6 51  1  0  0  0
  6 52  1  0  0  0
  7 53  1  0  0  0
  7 54  1  0  0  0
  8  9  1  0  0  0
  8 10  2  0  0  0
  9 55  1  0  0  0
  9 56  1  0  0  0
 10 57  1  0  0  0
 10 79  1  0  0  0
 11 12  1  0  0  0
 11 19  1  0  0  0
 11 58  1  0  0  0
 12 13  1  0  0  0
 12 15  1  0  0  0
 12 59  1  0  0  0
 13 14  2  0  0  0
 13 32  1  0  0  0
 15 16  1  0  0  0
 15 60  1  0  0  0
 15 61  1  0  0  0
 16 17  2  0  0  0
 16 18  1  0  0  0
 18 62  1  0  0  0
 19 20  2  0  0  0
 19 21  2  0  0  0
 19 23  1  0  0  0
 22 23  2  0  0  0
 22 30  1  0  0  0
 22 63  1  0  0  0
 23 24  1  0  0  0
 24 25  2  0  0  0
 24 64  1  0  0  0
 25 31  1  0  0  0
 25 65  1  0  0  0
 26 27  1  0  0  0
 26 31  2  0  0  0
 26 66  1  0  0  0
 27 28  2  0  0  0
 27 67  1  0  0  0
 28 29  1  0  0  0
 28 68  1  0  0  0
 29 30  2  0  0  0
 29 69  1  0  0  0
 30 31  1  0  0  0
 32 33  1  0  0  0
 32 34  1  0  0  0
 33 35  1  0  0  0
 33 70  1  0  0  0
 33 71  1  0  0  0
 34 36  1  0  0  0
 34 72  1  0  0  0
 34 73  1  0  0  0
 35 37  2  0  0  0
 35 38  1  0  0  0
 36 39  1  0  0  0
 36 40  2  0  0  0
 37 41  1  0  0  0
 37 74  1  0  0  0
 38 42  2  0  0  0
 38 75  1  0  0  0
 41 43  2  0  0  0
 41 76  1  0  0  0
 42 43  1  0  0  0
 42 77  1  0  0  0
 43 78  1  0  0  0
M  CHG  2  10   1  39  -1
M  END
> <s_m_source_file>
../4ayv_ligand.sdf

> <i_m_source_file_index>
1

> <s_epik_input>
W0NIMl0xW0NIMl1bQ0gyXU4oL0MoW05IMl0pPU4vW0hdKVtDSDJdW0NAQEhdMVtDSDJdW05IXUMoPU8pW0NIMl1bQ0BASF0oQyg9TylOKFtDSDJdQyg9TylbT0hdKVtDSDJdYzJbY0hdW2NIXVtjSF1bY0hdW2NIXTIpW05IXVMoPU8pKD1PKWMoW2NIXTMpW2NIXVtjSF1jKGMzNClbY0hdW2NIXVtjSF1bY0hdNA==

> <s_epik_cmdline>
J2VwaWtfYXBwJywgJy1pbWFlJywgJ2xpZ2FuZF9wcm8ubWFlJywgJy1vbWFlJywgJ2xpZ2FuZF9wcmVwLm1hZScsICctbXMnLCAnMScsICctcGgnLCAnNycsICctcGh0JywgJzAuNScsICctbnQn

> <r_lp_tautomer_probability>
1

> <r_epik_Ionization_Penalty>
  0.0012

> <r_epik_Ionization_Penalty_Charging>
  0.0001

> <r_epik_Ionization_Penalty_Neutral>
  0.0011

> <r_epik_State_Penalty>
 -0.0000

> <r_epik_Charging_Adjusted_Penalty>
0.000149986084222469

> <i_epik_Tot_Q>
0

> <i_epik_Tot_abs_Q>
2

> <s_epik_Chemistry_Notes>
This compound has an imine and may undergo hydrolysis.

$$$$
