4ayw_ligand
                    3D
 Schrodinger Suite 2020-3.
 44 46  0  0  1  0            999 V2000
  -26.9970   38.8810   21.4150 P   0  0  0  0  0  0
  -27.0620   39.5770   20.1100 O   0  0  0  0  0  0
  -27.9630   37.6410   21.6330 O   0  5  0  0  0  0
  -27.5850   39.7680   22.5960 O   0  5  0  0  0  0
  -24.7500   36.8730   21.9080 P   0  0  1  0  0  0
  -24.4040   36.3900   23.2550 O   0  0  0  0  0  0
  -25.7160   35.9040   21.1100 O   0  5  0  0  0  0
  -25.4760   38.3610   21.8490 N   0  0  1  0  0  0
  -22.8820   36.2550   19.5320 P   0  0  1  0  0  0
  -22.7660   34.7800   19.5250 O   0  0  0  0  0  0
  -23.7290   36.8970   18.4320 O   0  5  0  0  0  0
  -23.5960   36.8150   20.8290 O   0  0  0  0  0  0
  -21.4490   36.9780   19.3090 O   0  0  0  0  0  0
  -21.1200   38.2920   19.8090 C   0  0  0  0  0  0
  -20.8320   39.2240   18.6570 C   0  0  1  0  0  0
  -20.1020   38.5280   17.6260 O   0  0  0  0  0  0
  -22.0470   39.8010   17.9430 C   0  0  1  0  0  0
  -22.5810   40.9180   18.6450 O   0  0  0  0  0  0
  -21.4790   40.1730   16.5680 C   0  0  1  0  0  0
  -20.9610   41.4980   16.5100 O   0  0  0  0  0  0
  -20.3600   39.1340   16.3710 C   0  0  2  0  0  0
  -20.6490   38.0890   15.3880 N   0  0  0  0  0  0
  -21.6900   37.1960   15.3990 C   0  0  0  0  0  0
  -21.7110   36.3870   14.3670 N   0  0  0  0  0  0
  -20.6040   36.7700   13.6250 C   0  0  0  0  0  0
  -20.0660   36.3020   12.4070 C   0  0  0  0  0  0
  -20.6050   35.3150   11.6880 N   0  0  0  0  0  0
  -18.9420   36.9000   11.9430 N   0  0  0  0  0  0
  -18.4050   37.9000   12.6520 C   0  0  0  0  0  0
  -18.8230   38.4260   13.8090 N   0  0  0  0  0  0
  -19.9360   37.8150   14.2450 C   0  0  0  0  0  0
  -24.7266   38.8370   21.1995 H   0  0  0  0  0  0
  -21.9667   38.6856   20.3906 H   0  0  0  0  0  0
  -20.2310   38.2271   20.4536 H   0  0  0  0  0  0
  -20.2387   40.0307   19.1122 H   0  0  0  0  0  0
  -22.9351   39.1525   17.9138 H   0  0  0  0  0  0
  -23.0189   40.7811   19.6447 H   0  0  0  0  0  0
  -22.2373   40.2340   15.7735 H   0  0  0  0  0  0
  -21.6356   42.3581   16.6331 H   0  0  0  0  0  0
  -19.4464   39.6202   15.9984 H   0  0  0  0  0  0
  -22.4339   37.1618   16.1949 H   0  0  0  0  0  0
  -21.5174   34.8122   12.0412 H   0  0  0  0  0  0
  -20.1368   35.0045   10.7423 H   0  0  0  0  0  0
  -17.5049   38.3466   12.2295 H   0  0  0  0  0  0
  1  2  2  0  0  0
  1  3  1  0  0  0
  1  4  1  0  0  0
  1  8  1  0  0  0
  5  6  2  0  0  0
  5  7  1  0  0  0
  5  8  1  0  0  0
  5 12  1  0  0  0
  8 32  1  0  0  0
  9 10  2  0  0  0
  9 11  1  0  0  0
  9 12  1  0  0  0
  9 13  1  0  0  0
 13 14  1  0  0  0
 14 15  1  0  0  0
 14 33  1  0  0  0
 14 34  1  0  0  0
 15 16  1  0  0  0
 15 17  1  0  0  0
 15 35  1  0  0  0
 16 21  1  0  0  0
 17 18  1  0  0  0
 17 19  1  0  0  0
 17 36  1  0  0  0
 18 37  1  0  0  0
 19 20  1  0  0  0
 19 21  1  0  0  0
 19 38  1  0  0  0
 20 39  1  0  0  0
 21 22  1  0  0  0
 21 40  1  0  0  0
 22 23  1  0  0  0
 22 31  1  0  0  0
 23 24  2  0  0  0
 23 41  1  0  0  0
 24 25  1  0  0  0
 25 26  2  0  0  0
 25 31  1  0  0  0
 26 27  1  0  0  0
 26 28  1  0  0  0
 27 42  1  0  0  0
 27 43  1  0  0  0
 28 29  2  0  0  0
 29 30  1  0  0  0
 29 44  1  0  0  0
 30 31  2  0  0  0
M  CHG  4   3  -1   4  -1   7  -1  11  -1
M  END
> <s_m_source_file>
../4ayw_ligand.sdf

> <i_m_source_file_index>
1

> <s_epik_input>
Tz1QKFtPSF0pKFtPSF0pW05IXVtQQEBdKD1PKShbT0hdKU9bUEBAXSg9TykoW09IXSlPW0NIMl1bQ0BIXTFPW0NASF0oW0NASF0oW09IXSlbQ0BASF0xW09IXSluKFtjSF1uMiljKGMyMyluW2NIXW5jM1tOSDJd

> <s_epik_cmdline>
J2VwaWtfYXBwJywgJy1pbWFlJywgJ2xpZ2FuZF9wcm8ubWFlJywgJy1vbWFlJywgJ2xpZ2FuZF9wcmVwLm1hZScsICctbXMnLCAnMScsICctcGgnLCAnNycsICctcGh0JywgJzAuNScsICctbnQn

> <r_lp_tautomer_probability>
0.999997216410988

> <r_epik_Ionization_Penalty>
  0.3578

> <r_epik_Ionization_Penalty_Charging>
  0.3346

> <r_epik_Ionization_Penalty_Neutral>
  0.0232

> <r_epik_State_Penalty>
  0.3402

> <r_epik_Charging_Adjusted_Penalty>
0.674771962662822

> <i_epik_Tot_Q>
-4

> <i_epik_Tot_abs_Q>
4

> <s_epik_Chemistry_Notes>
This compound contains an acetal/aminal-like group ( X-CH(R)-Y where X, Y are N, S, or O) that may be acid/base labile, releasing an aldehyde.

$$$$
