4ayx_ligand
                    3D
 Schrodinger Suite 2020-3.
 46 48  0  0  1  0            999 V2000
  -19.8770   21.3900    5.2170 P   0  0  0  0  0  0
  -19.4050   19.9900    4.9820 O   0  0  0  0  0  0
  -18.7220   22.3530    5.5690 O   0  5  0  0  0  0
  -20.9500   21.4940    6.3250 O   0  0  0  0  0  0
  -21.7180   20.8930    3.0970 P   0  0  1  0  0  0
  -21.1650   19.7220    2.3040 O   0  0  0  0  0  0
  -22.8680   20.5980    4.1110 O   0  5  0  0  0  0
  -20.5960   21.9860    3.7600 C   0  0  0  0  0  0
  -23.8100   22.4610    1.7590 P   0  0  2  0  0  0
  -24.0640   23.4290    2.8520 O   0  0  0  0  0  0
  -24.9530   21.5520    1.3010 O   0  5  0  0  0  0
  -22.5280   21.5250    1.8690 O   0  0  0  0  0  0
  -23.7320   23.2350    0.3410 O   0  0  0  0  0  0
  -22.8830   22.9040   -0.7770 C   0  0  0  0  0  0
  -22.5280   24.1850   -1.4890 C   0  0  1  0  0  0
  -23.7230   24.9690   -1.7040 O   0  0  0  0  0  0
  -21.5210   25.0920   -0.7770 C   0  0  1  0  0  0
  -20.4700   25.4890   -1.6530 O   0  0  0  0  0  0
  -22.3880   26.2440   -0.2440 C   0  0  1  0  0  0
  -21.6990   27.4860   -0.1350 O   0  0  0  0  0  0
  -23.5070   26.3020   -1.2870 C   0  0  2  0  0  0
  -24.7760   26.8550   -0.8080 N   0  0  0  0  0  0
  -25.4580   26.5040    0.3280 C   0  0  0  0  0  0
  -26.5560   27.1930    0.5290 N   0  0  0  0  0  0
  -26.6030   28.0580   -0.5560 C   0  0  0  0  0  0
  -27.5220   29.0610   -0.9330 C   0  0  0  0  0  0
  -28.5830   29.4070   -0.1990 N   0  0  0  0  0  0
  -27.2880   29.7290   -2.0890 N   0  0  0  0  0  0
  -26.2000   29.4180   -2.8040 C   0  0  0  0  0  0
  -25.2590   28.5040   -2.5430 N   0  0  0  0  0  0
  -25.5180   27.8540   -1.3940 C   0  0  0  0  0  0
  -20.7162   21.1684    7.3494 H   0  0  0  0  0  0
  -21.1230   22.9284    3.9701 H   0  0  0  0  0  0
  -19.8112   22.1641    3.0100 H   0  0  0  0  0  0
  -21.9718   22.4080   -0.4112 H   0  0  0  0  0  0
  -23.4205   22.2277   -1.4580 H   0  0  0  0  0  0
  -22.0975   23.8599   -2.4476 H   0  0  0  0  0  0
  -20.9110   24.6162    0.0050 H   0  0  0  0  0  0
  -19.7977   24.7324   -2.0838 H   0  0  0  0  0  0
  -22.7006   26.1381    0.8053 H   0  0  0  0  0  0
  -20.8676   27.5931    0.5773 H   0  0  0  0  0  0
  -23.2263   26.9447   -2.1345 H   0  0  0  0  0  0
  -25.1177   25.7207    1.0053 H   0  0  0  0  0  0
  -28.7952   28.8806    0.7433 H   0  0  0  0  0  0
  -29.2445   30.2183   -0.5368 H   0  0  0  0  0  0
  -26.0622   29.9867   -3.7236 H   0  0  0  0  0  0
  1  2  2  0  0  0
  1  3  1  0  0  0
  1  4  1  0  0  0
  1  8  1  0  0  0
  4 32  1  0  0  0
  5  6  2  0  0  0
  5  7  1  0  0  0
  5  8  1  0  0  0
  5 12  1  0  0  0
  8 33  1  0  0  0
  8 34  1  0  0  0
  9 10  2  0  0  0
  9 11  1  0  0  0
  9 12  1  0  0  0
  9 13  1  0  0  0
 13 14  1  0  0  0
 14 15  1  0  0  0
 14 35  1  0  0  0
 14 36  1  0  0  0
 15 16  1  0  0  0
 15 17  1  0  0  0
 15 37  1  0  0  0
 16 21  1  0  0  0
 17 18  1  0  0  0
 17 19  1  0  0  0
 17 38  1  0  0  0
 18 39  1  0  0  0
 19 20  1  0  0  0
 19 21  1  0  0  0
 19 40  1  0  0  0
 20 41  1  0  0  0
 21 22  1  0  0  0
 21 42  1  0  0  0
 22 23  1  0  0  0
 22 31  1  0  0  0
 23 24  2  0  0  0
 23 43  1  0  0  0
 24 25  1  0  0  0
 25 26  2  0  0  0
 25 31  1  0  0  0
 26 27  1  0  0  0
 26 28  1  0  0  0
 27 44  1  0  0  0
 27 45  1  0  0  0
 28 29  2  0  0  0
 29 30  1  0  0  0
 29 46  1  0  0  0
 30 31  2  0  0  0
M  CHG  3   3  -1   7  -1  11  -1
M  END
> <s_m_source_file>
../4ayx_ligand.sdf

> <i_m_source_file_index>
1

> <s_epik_input>
Tz1QKFtPSF0pKFtPSF0pW0NIMl1bUEBAXSg9TykoW09IXSlPW1BAXSg9TykoW09IXSlPW0NIMl1bQ0BIXTFPW0NASF0oW0NASF0oW09IXSlbQ0BASF0xW09IXSluKFtjSF1uMiljKGMyMyluW2NIXW5jM1tOSDJd

> <s_epik_cmdline>
J2VwaWtfYXBwJywgJy1pbWFlJywgJ2xpZ2FuZF9wcm8ubWFlJywgJy1vbWFlJywgJ2xpZ2FuZF9wcmVwLm1hZScsICctbXMnLCAnMScsICctcGgnLCAnNycsICctcGh0JywgJzAuNScsICctbnQn

> <r_lp_tautomer_probability>
0.999997216410988

> <r_epik_Ionization_Penalty>
  0.1707

> <r_epik_Ionization_Penalty_Charging>
  0.0003

> <r_epik_Ionization_Penalty_Neutral>
  0.1704

> <r_epik_State_Penalty>
  0.1593

> <r_epik_Charging_Adjusted_Penalty>
0.159669573191128

> <i_epik_Tot_Q>
-3

> <i_epik_Tot_abs_Q>
3

> <s_epik_Chemistry_Notes>
This compound contains an acetal/aminal-like group ( X-CH(R)-Y where X, Y are N, S, or O) that may be acid/base labile, releasing an aldehyde.

$$$$
