4ayy_ligand
                    3D
 Schrodinger Suite 2020-3.
 79 82  0  0  1  0            999 V2000
   29.5640   17.7300   23.4910 C   0  0  0  0  0  0
   30.9530   18.3840   23.6240 C   0  0  1  0  0  0
   31.3890   18.3680   25.0910 C   0  0  0  0  0  0
   31.9960   17.6880   22.7530 C   0  0  0  0  0  0
   32.6740   18.9930   25.3520 N   0  0  0  0  0  0
   33.4130   18.0870   23.1160 C   0  0  0  0  0  0
   33.4670   19.2010   24.1530 C   0  0  0  0  0  0
   32.5850   20.0970   26.3130 C   0  0  0  0  0  0
   31.2670   20.3120   26.8370 N   0  0  0  0  0  0
   33.6300   20.8030   26.6660 N   0  3  0  0  0  0
   29.4700   13.4370   26.6140 N   0  0  3  0  0  0
   29.6730   13.3400   25.1930 C   0  0  2  0  0  0
   31.1430   13.7460   24.8330 C   0  0  0  0  0  0
   31.7370   14.6350   25.4800 O   0  0  0  0  0  0
   28.6260   14.0900   24.3030 C   0  0  0  0  0  0
   28.6610   15.6220   24.3470 C   0  0  0  0  0  0
   27.9170   16.2470   25.1430 O   0  0  0  0  0  0
   29.5030   16.2970   23.4930 N   0  0  0  0  0  0
   29.1590   12.2070   27.6450 S   0  0  0  0  0  0
   28.8270   12.7870   28.8980 O   0  0  0  0  0  0
   28.2170   11.3520   27.0330 O   0  0  0  0  0  0
   30.7720   10.0930   27.2600 C   0  0  0  0  0  0
   30.5840   11.3240   27.8610 C   0  0  0  0  0  0
   31.6070   11.8410   28.7060 C   0  0  0  0  0  0
   32.7700   11.1520   28.9240 C   0  0  0  0  0  0
   34.1730    9.1510   28.5150 C   0  0  0  0  0  0
   34.3360    7.9290   27.9000 C   0  0  0  0  0  0
   33.3310    7.3820   27.0600 C   0  0  0  0  0  0
   32.1680    8.0830   26.8470 C   0  0  0  0  0  0
   31.9650    9.3530   27.4650 C   0  0  0  0  0  0
   32.9790    9.8910   28.3080 C   0  0  0  0  0  0
   31.7810   13.0840   23.8000 N   0  0  0  0  0  0
   31.0250   12.4100   22.7610 C   0  0  2  0  0  0
   31.5490   10.9830   22.5040 C   0  0  0  0  0  0
   33.0650   10.9090   22.3340 C   0  0  1  0  0  0
   33.8230   11.7880   23.3200 C   0  0  0  0  0  0
   33.1940   13.1710   23.4970 C   0  0  0  0  0  0
   30.9370   13.2140   21.4660 C   0  0  0  0  0  0
   31.1350   12.4680   20.3380 O   0  5  0  0  0  0
   30.7180   14.4300   21.3340 O   0  0  0  0  0  0
   33.5290    9.4700   22.4580 C   0  0  0  0  0  0
   28.9268   18.0489   24.3290 H   0  0  0  0  0  0
   29.1026   18.0389   22.5414 H   0  0  0  0  0  0
   30.8845   19.4238   23.2716 H   0  0  0  0  0  0
   30.6464   18.9043   25.7001 H   0  0  0  0  0  0
   31.4663   17.3274   25.4392 H   0  0  0  0  0  0
   31.9083   16.5984   22.8760 H   0  0  0  0  0  0
   31.8287   17.9526   21.6985 H   0  0  0  0  0  0
   33.9441   17.2173   23.5302 H   0  0  0  0  0  0
   33.9362   18.4414   22.2156 H   0  0  0  0  0  0
   33.1249   20.1123   23.6406 H   0  0  0  0  0  0
   34.5263   19.3110   24.4284 H   0  0  0  0  0  0
   30.4309   19.6826   26.4980 H   0  0  0  0  0  0
   31.0924   21.1062   27.5778 H   0  0  0  0  0  0
   34.6144   20.5864   26.2255 H   0  0  0  0  0  0
   29.6786   14.3825   27.1361 H   0  0  0  0  0  0
   29.4845   12.2662   25.0465 H   0  0  0  0  0  0
   28.7785   13.8167   23.2484 H   0  0  0  0  0  0
   27.6099   13.8043   24.6126 H   0  0  0  0  0  0
   30.1360   15.7186   22.8040 H   0  0  0  0  0  0
   29.9911    9.6846   26.6185 H   0  0  0  0  0  0
   31.4610   12.8067   29.1900 H   0  0  0  0  0  0
   33.5377   11.5736   29.5728 H   0  0  0  0  0  0
   34.9580    9.5484   29.1583 H   0  0  0  0  0  0
   35.2574    7.3697   28.0621 H   0  0  0  0  0  0
   33.4807    6.4116   26.5866 H   0  0  0  0  0  0
   31.3953    7.6657   26.2014 H   0  0  0  0  0  0
   30.0154   12.3668   23.1955 H   0  0  0  0  0  0
   31.2820   10.3360   23.3526 H   0  0  0  0  0  0
   31.0958   10.5862   21.5836 H   0  0  0  0  0  0
   33.2959   11.2908   21.3285 H   0  0  0  0  0  0
   33.8410   11.3014   24.3063 H   0  0  0  0  0  0
   34.8536   11.9337   22.9642 H   0  0  0  0  0  0
   33.3348   13.7364   22.5640 H   0  0  0  0  0  0
   33.7143   13.6845   24.3190 H   0  0  0  0  0  0
   32.9762    8.8436   21.7425 H   0  0  0  0  0  0
   33.3415    9.1111   23.4808 H   0  0  0  0  0  0
   34.6058    9.4119   22.2407 H   0  0  0  0  0  0
   33.5233   21.6126   27.4030 H   0  0  0  0  0  0
  1  2  1  0  0  0
  1 18  1  0  0  0
  1 42  1  0  0  0
  1 43  1  0  0  0
  2  3  1  0  0  0
  2  4  1  0  0  0
  2 44  1  0  0  0
  3  5  1  0  0  0
  3 45  1  0  0  0
  3 46  1  0  0  0
  4  6  1  0  0  0
  4 47  1  0  0  0
  4 48  1  0  0  0
  5  7  1  0  0  0
  5  8  1  0  0  0
  6  7  1  0  0  0
  6 49  1  0  0  0
  6 50  1  0  0  0
  7 51  1  0  0  0
  7 52  1  0  0  0
  8  9  1  0  0  0
  8 10  2  0  0  0
  9 53  1  0  0  0
  9 54  1  0  0  0
 10 55  1  0  0  0
 10 79  1  0  0  0
 11 12  1  0  0  0
 11 19  1  0  0  0
 11 56  1  0  0  0
 12 13  1  0  0  0
 12 15  1  0  0  0
 12 57  1  0  0  0
 13 14  2  0  0  0
 13 32  1  0  0  0
 15 16  1  0  0  0
 15 58  1  0  0  0
 15 59  1  0  0  0
 16 17  2  0  0  0
 16 18  1  0  0  0
 18 60  1  0  0  0
 19 20  2  0  0  0
 19 21  2  0  0  0
 19 23  1  0  0  0
 22 23  2  0  0  0
 22 30  1  0  0  0
 22 61  1  0  0  0
 23 24  1  0  0  0
 24 25  2  0  0  0
 24 62  1  0  0  0
 25 31  1  0  0  0
 25 63  1  0  0  0
 26 27  1  0  0  0
 26 31  2  0  0  0
 26 64  1  0  0  0
 27 28  2  0  0  0
 27 65  1  0  0  0
 28 29  1  0  0  0
 28 66  1  0  0  0
 29 30  2  0  0  0
 29 67  1  0  0  0
 30 31  1  0  0  0
 32 33  1  0  0  0
 32 37  1  0  0  0
 33 34  1  0  0  0
 33 38  1  0  0  0
 33 68  1  0  0  0
 34 35  1  0  0  0
 34 69  1  0  0  0
 34 70  1  0  0  0
 35 36  1  0  0  0
 35 41  1  0  0  0
 35 71  1  0  0  0
 36 37  1  0  0  0
 36 72  1  0  0  0
 36 73  1  0  0  0
 37 74  1  0  0  0
 37 75  1  0  0  0
 38 39  1  0  0  0
 38 40  2  0  0  0
 41 76  1  0  0  0
 41 77  1  0  0  0
 41 78  1  0  0  0
M  CHG  2  10   1  39  -1
M  END
> <s_m_source_file>
../4ayy_ligand.sdf

> <i_m_source_file_index>
1

> <s_epik_input>
W0NIMl0xW0NIMl1bQ0gyXU4oL0MoW05IMl0pPU4vW0hdKVtDSDJdW0NAQEhdMVtDSDJdW05IXUMoPU8pW0NIMl1bQ0BASF0oQyg9TylOMltDQEBIXShDKD1PKVtPSF0pW0NIMl1bQ0BIXShbQ0gzXSlbQ0gyXVtDSDJdMilbTkhdUyg9TykoPU8pYyhbY0hdMylbY0hdW2NIXWMoYzM0KVtjSF1bY0hdW2NIXVtjSF00

> <s_epik_cmdline>
J2VwaWtfYXBwJywgJy1pbWFlJywgJ2xpZ2FuZF9wcm8ubWFlJywgJy1vbWFlJywgJ2xpZ2FuZF9wcmVwLm1hZScsICctbXMnLCAnMScsICctcGgnLCAnNycsICctcGh0JywgJzAuNScsICctbnQn

> <r_lp_tautomer_probability>
1

> <r_epik_Ionization_Penalty>
  0.0011

> <r_epik_Ionization_Penalty_Charging>
  0.0002

> <r_epik_Ionization_Penalty_Neutral>
  0.0009

> <r_epik_State_Penalty>
 -0.0000

> <r_epik_Charging_Adjusted_Penalty>
0.0001834944130253

> <i_epik_Tot_Q>
0

> <i_epik_Tot_abs_Q>
2

> <s_epik_Chemistry_Notes>
This compound has an imine and may undergo hydrolysis.

$$$$
