4az2_ligand
                    3D
 Schrodinger Suite 2020-3.
 67 70  0  0  1  0            999 V2000
   30.4020   13.2940   24.1520 N   0  0  3  0  0  0
   29.4670   13.7990   25.2030 C   0  0  1  0  0  0
   29.1270   15.2790   24.9440 C   0  0  0  0  0  0
   28.3660   15.8740   25.7070 O   0  0  0  0  0  0
   28.1650   12.9530   25.3460 C   0  0  0  0  0  0
   28.5550   11.6340   26.0070 C   0  0  0  0  0  0
   28.7050   11.5810   27.4570 C   0  0  0  0  0  0
   28.8520   10.4580   25.2160 C   0  0  0  0  0  0
   29.1620   10.3850   28.0920 C   0  0  0  0  0  0
   29.3030    9.2690   25.8610 C   0  0  0  0  0  0
   29.4600    9.2360   27.2820 C   0  0  0  0  0  0
   32.0500   13.2000   24.4410 S   0  0  0  0  0  0
   32.3020   14.2650   25.3840 O   0  0  0  0  0  0
   32.7500   13.1370   23.2370 O   0  0  0  0  0  0
   32.4710   11.6600   26.6110 C   0  0  0  0  0  0
   32.3400   11.7490   25.2160 C   0  0  0  0  0  0
   32.5770   10.5550   24.4440 C   0  0  0  0  0  0
   32.9460    9.3510   25.0250 C   0  0  0  0  0  0
   33.4770    8.0490   27.0660 C   0  0  0  0  0  0
   33.5990    8.0170   28.4400 C   0  0  0  0  0  0
   33.3620    9.1710   29.2380 C   0  0  0  0  0  0
   32.9980   10.3650   28.6510 C   0  0  0  0  0  0
   32.8570   10.4400   27.2300 C   0  0  0  0  0  0
   33.0980    9.2720   26.4330 C   0  0  0  0  0  0
   29.7300   15.8930   23.8630 N   0  0  0  0  0  0
   29.5070   17.3030   23.5000 C   0  0  0  0  0  0
   30.7560   18.2080   23.7690 C   0  0  1  0  0  0
   31.1850   18.1050   25.2770 C   0  0  0  0  0  0
   31.9300   17.8520   22.8110 C   0  0  0  0  0  0
   32.3940   18.9750   25.4330 N   0  0  0  0  0  0
   33.1550   18.7320   23.1060 C   0  0  0  0  0  0
   33.5990   18.6520   24.6080 C   0  0  0  0  0  0
   32.3420   20.0960   26.3190 C   0  0  0  0  0  0
   33.4560   20.8780   26.4390 N   0  0  0  0  0  0
   31.2690   20.3120   26.9520 N   0  3  0  0  0  0
   30.0032   12.8260   23.2399 H   0  0  0  0  0  0
   30.0344   13.6955   26.1396 H   0  0  0  0  0  0
   27.4399   13.4983   25.9680 H   0  0  0  0  0  0
   27.7327   12.7742   24.3504 H   0  0  0  0  0  0
   28.4674   12.4579   28.0592 H   0  0  0  0  0  0
   28.7314   10.4816   24.1329 H   0  0  0  0  0  0
   29.2827   10.3449   29.1746 H   0  0  0  0  0  0
   29.5289    8.3822   25.2689 H   0  0  0  0  0  0
   29.8124    8.3219   27.7598 H   0  0  0  0  0  0
   32.2743   12.5374   27.2271 H   0  0  0  0  0  0
   32.4617   10.6002   23.3611 H   0  0  0  0  0  0
   33.1180    8.4718   24.4041 H   0  0  0  0  0  0
   33.6670    7.1546   26.4727 H   0  0  0  0  0  0
   33.8841    7.0842   28.9264 H   0  0  0  0  0  0
   33.4689    9.1111   30.3211 H   0  0  0  0  0  0
   32.8189   11.2463   29.2668 H   0  0  0  0  0  0
   30.4074   15.2704   23.2601 H   0  0  0  0  0  0
   29.2683   17.3724   22.4284 H   0  0  0  0  0  0
   28.6695   17.7052   24.0890 H   0  0  0  0  0  0
   30.4850   19.2522   23.5539 H   0  0  0  0  0  0
   30.3620   18.4557   25.9171 H   0  0  0  0  0  0
   31.4188   17.0582   25.5211 H   0  0  0  0  0  0
   32.2081   16.7966   22.9483 H   0  0  0  0  0  0
   31.6161   18.0159   21.7696 H   0  0  0  0  0  0
   34.0005   18.4041   22.4834 H   0  0  0  0  0  0
   32.9165   19.7812   22.8772 H   0  0  0  0  0  0
   34.3944   19.3818   24.8193 H   0  0  0  0  0  0
   33.9535   17.6409   24.8569 H   0  0  0  0  0  0
   34.3608   20.6387   25.8611 H   0  0  0  0  0  0
   33.4480   21.7469   27.1135 H   0  0  0  0  0  0
   30.4048   19.6458   26.8130 H   0  0  0  0  0  0
   31.1997   21.1661   27.6417 H   0  0  0  0  0  0
  1  2  1  0  0  0
  1 12  1  0  0  0
  1 36  1  0  0  0
  2  3  1  0  0  0
  2  5  1  0  0  0
  2 37  1  0  0  0
  3  4  2  0  0  0
  3 25  1  0  0  0
  5  6  1  0  0  0
  5 38  1  0  0  0
  5 39  1  0  0  0
  6  7  2  0  0  0
  6  8  1  0  0  0
  7  9  1  0  0  0
  7 40  1  0  0  0
  8 10  2  0  0  0
  8 41  1  0  0  0
  9 11  2  0  0  0
  9 42  1  0  0  0
 10 11  1  0  0  0
 10 43  1  0  0  0
 11 44  1  0  0  0
 12 13  2  0  0  0
 12 14  2  0  0  0
 12 16  1  0  0  0
 15 16  2  0  0  0
 15 23  1  0  0  0
 15 45  1  0  0  0
 16 17  1  0  0  0
 17 18  2  0  0  0
 17 46  1  0  0  0
 18 24  1  0  0  0
 18 47  1  0  0  0
 19 20  1  0  0  0
 19 24  2  0  0  0
 19 48  1  0  0  0
 20 21  2  0  0  0
 20 49  1  0  0  0
 21 22  1  0  0  0
 21 50  1  0  0  0
 22 23  2  0  0  0
 22 51  1  0  0  0
 23 24  1  0  0  0
 25 26  1  0  0  0
 25 52  1  0  0  0
 26 27  1  0  0  0
 26 53  1  0  0  0
 26 54  1  0  0  0
 27 28  1  0  0  0
 27 29  1  0  0  0
 27 55  1  0  0  0
 28 30  1  0  0  0
 28 56  1  0  0  0
 28 57  1  0  0  0
 29 31  1  0  0  0
 29 58  1  0  0  0
 29 59  1  0  0  0
 30 32  1  0  0  0
 30 33  1  0  0  0
 31 32  1  0  0  0
 31 60  1  0  0  0
 31 61  1  0  0  0
 32 62  1  0  0  0
 32 63  1  0  0  0
 33 34  1  0  0  0
 33 35  2  0  0  0
 34 64  1  0  0  0
 34 65  1  0  0  0
 35 66  1  0  0  0
 35 67  1  0  0  0
M  CHG  1  35   1
M  END
> <s_m_source_file>
../4az2_ligand.sdf

> <i_m_source_file_index>
1

> <s_epik_input>
W2NIXTFbY0hdW2NIXVtjSF1jKGMxMilbY0hdW2NIXWMoW2NIXTIpUyg9TykoPU8pW05IXVtDQEhdKFtDSDJdYzNbY0hdW2NIXVtjSF1bY0hdW2NIXTMpQyg9TylbTkhdW0NIMl1bQ0BIXTRbQ0gyXU4oL0MoW05IMl0pPU5cW0hdKVtDSDJdW0NIMl1bQ0gyXTQ=

> <s_epik_cmdline>
J2VwaWtfYXBwJywgJy1pbWFlJywgJ2xpZ2FuZF9wcm8ubWFlJywgJy1vbWFlJywgJ2xpZ2FuZF9wcmVwLm1hZScsICctbXMnLCAnMScsICctcGgnLCAnNycsICctcGh0JywgJzAuNScsICctbnQn

> <r_lp_tautomer_probability>
1

> <r_epik_Ionization_Penalty>
  0.0003

> <r_epik_Ionization_Penalty_Charging>
  0.0000

> <r_epik_Ionization_Penalty_Neutral>
  0.0003

> <r_epik_State_Penalty>
 -0.0000

> <r_epik_Charging_Adjusted_Penalty>
4.88629992930905e-06

> <i_epik_Tot_Q>
1

> <i_epik_Tot_abs_Q>
1

> <s_epik_Chemistry_Notes>
This compound has an imine and may undergo hydrolysis.

$$$$
