4az3_ligand
                    3D
 Schrodinger Suite 2020-3.
 64 66  0  0  1  0            999 V2000
  -36.2570    9.5860   15.4020 C   0  0  0  0  0  0
  -35.0480    8.7390   15.8270 C   0  0  0  0  0  0
  -35.2460    7.3580   15.9480 C   0  0  0  0  0  0
  -34.1980    6.5160   16.3310 C   0  0  0  0  0  0
  -32.9390    7.0600   16.5960 C   0  0  0  0  0  0
  -32.7350    8.4370   16.4730 C   0  0  0  0  0  0
  -33.7740    9.2990   16.0790 C   0  0  0  0  0  0
  -33.5290   10.8340   15.9660 C   0  0  2  0  0  0
  -32.0610   11.2200   15.6830 C   0  0  0  0  0  0
  -31.5580   10.8240   14.2860 C   0  0  0  0  0  0
  -32.3350   10.9850   13.3220 O   0  0  0  0  0  0
  -30.3800   10.4170   14.2100 O   0  5  0  0  0  0
  -33.9400   11.4910   17.2190 N   0  0  0  0  0  0
  -34.5870   12.6590   17.3070 C   0  0  0  0  0  0
  -34.9460   13.3540   16.3530 O   0  0  0  0  0  0
  -34.8410   13.1040   18.7530 C   0  0  0  0  0  0
  -34.7920   12.2730   19.7910 N   0  0  0  0  0  0
  -35.0910   14.3430   19.1730 C   0  0  0  0  0  0
  -35.2330   14.2080   20.4940 C   0  0  0  0  0  0
  -35.4530   15.2000   21.4170 O   0  0  0  0  0  0
  -36.4210   16.2360   21.0980 C   0  0  0  0  0  0
  -35.7530   17.6350   21.1320 C   0  0  1  0  0  0
  -36.6870   18.8680   21.3740 C   0  0  0  0  0  0
  -35.9900   20.1210   20.8340 C   0  0  0  0  0  0
  -38.0300   18.7430   20.6350 C   0  0  0  0  0  0
  -36.9720   19.0880   22.8700 C   0  0  0  0  0  0
  -34.6310   17.6280   22.0330 O   0  0  0  0  0  0
  -34.9870   12.9340   20.8080 N   0  0  0  0  0  0
  -35.0460   12.3890   22.0230 C   0  0  0  0  0  0
  -33.8760   12.1840   22.7630 C   0  0  0  0  0  0
  -33.9450   11.5770   24.0220 C   0  0  0  0  0  0
  -35.1770   11.1610   24.5370 C   0  0  0  0  0  0
  -36.3450   11.3540   23.7920 C   0  0  0  0  0  0
  -36.2770   11.9570   22.5300 C   0  0  0  0  0  0
  -37.4020   12.1360   21.8080 F   0  0  0  0  0  0
  -37.1319    8.9334   15.2651 H   0  0  0  0  0  0
  -36.0307   10.0992   14.4558 H   0  0  0  0  0  0
  -36.4741   10.3318   16.1808 H   0  0  0  0  0  0
  -36.2289    6.9347   15.7411 H   0  0  0  0  0  0
  -34.3621    5.4423   16.4222 H   0  0  0  0  0  0
  -32.1168    6.4113   16.8983 H   0  0  0  0  0  0
  -31.7499    8.8517   16.6869 H   0  0  0  0  0  0
  -34.1492   11.2098   15.1388 H   0  0  0  0  0  0
  -31.9458   12.3106   15.7680 H   0  0  0  0  0  0
  -31.4042   10.7239   16.4127 H   0  0  0  0  0  0
  -33.7172   11.0180   18.1868 H   0  0  0  0  0  0
  -35.1628   15.2535   18.5781 H   0  0  0  0  0  0
  -36.8285   16.0597   20.0916 H   0  0  0  0  0  0
  -37.2384   16.2131   21.8337 H   0  0  0  0  0  0
  -35.3205   17.7909   20.1327 H   0  0  0  0  0  0
  -35.7750   19.9883   19.7634 H   0  0  0  0  0  0
  -35.0486   20.2809   21.3800 H   0  0  0  0  0  0
  -36.6461   20.9933   20.9709 H   0  0  0  0  0  0
  -37.8449   18.5850   19.5623 H   0  0  0  0  0  0
  -38.6126   19.6656   20.7746 H   0  0  0  0  0  0
  -38.5930   17.8890   21.0396 H   0  0  0  0  0  0
  -36.0208   19.1797   23.4148 H   0  0  0  0  0  0
  -37.5397   18.2325   23.2648 H   0  0  0  0  0  0
  -37.5592   20.0090   22.9998 H   0  0  0  0  0  0
  -33.8877   16.8189   21.9795 H   0  0  0  0  0  0
  -32.9129   12.4965   22.3595 H   0  0  0  0  0  0
  -33.0352   11.4279   24.6035 H   0  0  0  0  0  0
  -35.2269   10.6872   25.5173 H   0  0  0  0  0  0
  -37.3070   11.0354   24.1933 H   0  0  0  0  0  0
  1  2  1  0  0  0
  1 36  1  0  0  0
  1 37  1  0  0  0
  1 38  1  0  0  0
  2  3  2  0  0  0
  2  7  1  0  0  0
  3  4  1  0  0  0
  3 39  1  0  0  0
  4  5  2  0  0  0
  4 40  1  0  0  0
  5  6  1  0  0  0
  5 41  1  0  0  0
  6  7  2  0  0  0
  6 42  1  0  0  0
  7  8  1  0  0  0
  8  9  1  0  0  0
  8 13  1  0  0  0
  8 43  1  0  0  0
  9 10  1  0  0  0
  9 44  1  0  0  0
  9 45  1  0  0  0
 10 11  2  0  0  0
 10 12  1  0  0  0
 13 14  1  0  0  0
 13 46  1  0  0  0
 14 15  2  0  0  0
 14 16  1  0  0  0
 16 17  2  0  0  0
 16 18  1  0  0  0
 17 28  1  0  0  0
 18 19  2  0  0  0
 18 47  1  0  0  0
 19 20  1  0  0  0
 19 28  1  0  0  0
 20 21  1  0  0  0
 21 22  1  0  0  0
 21 48  1  0  0  0
 21 49  1  0  0  0
 22 23  1  0  0  0
 22 27  1  0  0  0
 22 50  1  0  0  0
 23 24  1  0  0  0
 23 25  1  0  0  0
 23 26  1  0  0  0
 24 51  1  0  0  0
 24 52  1  0  0  0
 24 53  1  0  0  0
 25 54  1  0  0  0
 25 55  1  0  0  0
 25 56  1  0  0  0
 26 57  1  0  0  0
 26 58  1  0  0  0
 26 59  1  0  0  0
 27 60  1  0  0  0
 28 29  1  0  0  0
 29 30  2  0  0  0
 29 34  1  0  0  0
 30 31  1  0  0  0
 30 61  1  0  0  0
 31 32  2  0  0  0
 31 62  1  0  0  0
 32 33  1  0  0  0
 32 63  1  0  0  0
 33 34  2  0  0  0
 33 64  1  0  0  0
 34 35  1  0  0  0
M  CHG  1  12  -1
M  END
> <s_m_source_file>
../4az3_ligand.sdf

> <i_m_source_file_index>
1

> <s_epik_input>
W0NIM11jMVtjSF1bY0hdW2NIXVtjSF1jMVtDQEhdKFtDSDJdQyg9TylbT0hdKVtOSF1DKD1PKWMybm4oYyhbY0hdMilPW0NIMl1bQ0BIXShbT0hdKUMoW0NIM10pKFtDSDNdKVtDSDNdKS1jM1tjSF1bY0hdW2NIXVtjSF1jM0Y=

> <s_epik_cmdline>
J2VwaWtfYXBwJywgJy1pbWFlJywgJ2xpZ2FuZF9wcm8ubWFlJywgJy1vbWFlJywgJ2xpZ2FuZF9wcmVwLm1hZScsICctbXMnLCAnMScsICctcGgnLCAnNycsICctcGh0JywgJzAuNScsICctbnQn

> <r_lp_tautomer_probability>
1

> <r_epik_Ionization_Penalty>
  0.0010

> <r_epik_Ionization_Penalty_Charging>
  0.0010

> <r_epik_Ionization_Penalty_Neutral>
  0.0000

> <r_epik_State_Penalty>
 -0.0000

> <r_epik_Charging_Adjusted_Penalty>
0.000998666195480149

> <i_epik_Tot_Q>
-1

> <i_epik_Tot_abs_Q>
1

$$$$
