4aza_ligand
                    3D
 Schrodinger Suite 2020-3.
232234  0  0  1  0            999 V2000
  -40.9510  -18.0520  -13.9810 C   0  0  0  0  0  0
  -39.7950  -17.7060  -13.7820 O   0  0  0  0  0  0
  -41.7720  -18.5620  -12.8120 C   0  0  0  0  0  0
  -41.6450  -17.6450  -15.0540 N   0  0  0  0  0  0
  -41.8160  -16.1900  -15.3800 C   0  0  2  0  0  0
  -42.2600  -15.4000  -14.1490 C   0  0  0  0  0  0
  -43.2510  -15.7390  -13.5070 O   0  0  0  0  0  0
  -42.8100  -15.9890  -16.5300 C   0  0  0  0  0  0
  -42.3650  -16.5680  -17.8670 C   0  0  0  0  0  0
  -41.4640  -15.6170  -18.6450 C   0  0  0  0  0  0
  -41.0090  -16.2260  -19.9690 C   0  0  0  0  0  0
  -40.1360  -17.4260  -19.7930 N   0  3  0  0  0  0
  -41.4990  -14.3690  -13.8130 N   0  0  0  0  0  0
  -41.8570  -13.4700  -12.7330 C   0  0  2  0  0  0
  -41.8540  -12.0500  -13.2590 C   0  0  0  0  0  0
  -40.8160  -11.5300  -13.6610 O   0  0  0  0  0  0
  -40.8880  -13.6090  -11.5560 C   0  0  0  0  0  0
  -41.2490  -14.6940  -10.5570 C   0  0  0  0  0  0
  -42.3690  -14.2470   -9.6200 C   0  0  0  0  0  0
  -42.7680  -15.3640   -8.6640 C   0  0  0  0  0  0
  -43.5230  -14.8960   -7.4670 N   0  3  0  0  0  0
  -43.0280  -11.4300  -13.2740 N   0  0  0  0  0  0
  -43.1360  -10.0350  -13.6540 C   0  0  2  0  0  0
  -43.6370   -9.2300  -12.4760 C   0  0  0  0  0  0
  -44.5320   -9.6660  -11.7470 O   0  0  0  0  0  0
  -44.0540   -9.8510  -14.8550 C   0  0  0  0  0  0
  -43.6000  -10.6120  -16.0850 C   0  0  0  0  0  0
  -44.1220   -9.9850  -17.3690 C   0  0  0  0  0  0
  -44.2280  -10.9840  -18.4330 N   0  0  0  0  0  0
  -43.1950  -11.5140  -19.0940 C   0  0  0  0  0  0
  -41.9430  -11.1450  -18.8130 N   0  0  0  0  0  0
  -43.4160  -12.4200  -20.0460 N   0  0  0  0  0  0
  -43.0440   -8.0530  -12.2940 N   0  0  0  0  0  0
  -43.4060   -7.1630  -11.2040 C   0  0  2  0  0  0
  -43.6430   -5.7730  -11.7730 C   0  0  0  0  0  0
  -42.8450   -5.2890  -12.5840 O   0  0  0  0  0  0
  -42.2820   -7.1150  -10.1710 C   0  0  0  0  0  0
  -42.0150   -8.4210   -9.4270 C   0  0  0  0  0  0
  -42.8670   -8.8550   -8.4090 C   0  0  0  0  0  0
  -40.8940   -9.2050   -9.7190 C   0  0  0  0  0  0
  -42.6230  -10.0340   -7.7180 C   0  0  0  0  0  0
  -40.6430  -10.3900   -9.0290 C   0  0  0  0  0  0
  -41.5110  -10.7970   -8.0260 C   0  0  0  0  0  0
  -41.2820  -11.9690   -7.3280 O   0  0  0  0  0  0
  -44.7380   -5.1380  -11.3640 N   0  0  0  0  0  0
  -45.0260   -3.7650  -11.7860 C   0  0  2  0  0  0
  -44.1020   -2.8220  -11.0310 C   0  0  0  0  0  0
  -43.5040   -3.2160  -10.0320 O   0  0  0  0  0  0
  -46.4770   -3.4030  -11.4960 C   0  0  0  0  0  0
  -46.6800   -3.1950  -10.1090 O   0  0  0  0  0  0
  -43.9930   -1.5800  -11.4940 N   0  0  0  0  0  0
  -43.1510   -0.5920  -10.8220 C   0  0  2  0  0  0
  -43.6700   -0.2230   -9.4270 C   0  0  0  0  0  0
  -42.8730    0.0640   -8.5310 O   0  0  0  0  0  0
  -42.9690    0.6580  -11.6830 C   0  0  0  0  0  0
  -44.2580    1.3600  -12.0520 C   0  0  0  0  0  0
  -44.0240    2.5530  -12.9660 C   0  0  0  0  0  0
  -42.9240    3.3990  -12.5060 N   0  0  0  0  0  0
  -43.0110    4.2770  -11.5140 C   0  0  0  0  0  0
  -44.1500    4.4400  -10.8530 N   0  0  0  0  0  0
  -41.9530    4.9890  -11.1750 N   0  0  0  0  0  0
  -44.9950   -0.2460   -9.2520 N   0  0  0  0  0  0
  -45.6310    0.1060   -7.9730 C   0  0  2  0  0  0
  -45.3720   -0.9720   -6.9250 C   0  0  0  0  0  0
  -45.0780   -0.6610   -5.7730 O   0  0  0  0  0  0
  -47.1470    0.3340   -8.1290 C   0  0  0  0  0  0
  -47.5420    1.4690   -9.0660 C   0  0  0  0  0  0
  -47.4770    1.0870  -10.5420 C   0  0  0  0  0  0
  -47.3080   -0.1150  -10.8560 O   0  0  0  0  0  0
  -47.5970    1.9960  -11.3980 O   0  0  0  0  0  0
  -45.4770   -2.2350   -7.3360 N   0  0  0  0  0  0
  -45.1240   -3.3530   -6.4730 C   0  0  2  0  0  0
  -43.6750   -3.2530   -5.9940 C   0  0  0  0  0  0
  -43.4150   -3.3240   -4.7960 O   0  0  0  0  0  0
  -45.3590   -4.6880   -7.1870 C   0  0  0  0  0  0
  -45.1940   -5.8910   -6.2970 C   0  0  0  0  0  0
  -46.2500   -6.3420   -5.5090 C   0  0  0  0  0  0
  -43.9810   -6.5720   -6.2390 C   0  0  0  0  0  0
  -46.1020   -7.4530   -4.6930 C   0  0  0  0  0  0
  -43.8280   -7.6830   -5.4220 C   0  0  0  0  0  0
  -44.8900   -8.1200   -4.6460 C   0  0  0  0  0  0
  -42.7480   -3.0810   -6.9390 N   0  0  0  0  0  0
  -41.3150   -3.0000   -6.6450 C   0  0  2  0  0  0
  -40.9710   -1.8400   -5.7110 C   0  0  0  0  0  0
  -40.1840   -2.0090   -4.7660 O   0  0  0  0  0  0
  -40.4930   -2.9030   -7.9380 C   0  0  0  0  0  0
  -40.4560   -4.1290   -8.8600 C   0  0  0  0  0  0
  -39.6640   -3.8340  -10.1310 C   0  0  0  0  0  0
  -39.9000   -5.3650   -8.1530 C   0  0  0  0  0  0
  -41.5700   -0.6780   -5.9730 N   0  0  0  0  0  0
  -41.3330    0.5270   -5.1730 C   0  0  2  0  0  0
  -41.8620    0.4090   -3.7380 C   0  0  0  0  0  0
  -41.3710    1.0930   -2.8400 O   0  0  0  0  0  0
  -41.9120    1.7750   -5.8650 C   0  0  0  0  0  0
  -41.1420    2.3420   -7.0630 C   0  0  0  0  0  0
  -42.0160    3.2900   -7.8750 C   0  0  0  0  0  0
  -39.8530    3.0240   -6.6170 C   0  0  0  0  0  0
  -42.8450   -0.4650   -3.5280 N   0  0  0  0  0  0
  -43.3520   -0.7740   -2.1860 C   0  0  0  0  0  0
  -42.3060   -1.3970   -1.2700 C   0  0  0  0  0  0
  -42.3880   -1.2690   -0.0450 O   0  0  0  0  0  0
  -41.3150   -2.0630   -1.8630 N   0  0  0  0  0  0
  -40.2060   -2.6530   -1.1040 C   0  0  2  0  0  0
  -39.0490   -1.6910   -0.8480 C   0  0  0  0  0  0
  -38.0650   -2.0810   -0.2160 O   0  0  0  0  0  0
  -39.6810   -3.8940   -1.8120 C   0  0  0  0  0  0
  -40.6320   -5.0420   -1.7900 C   0  0  0  0  0  0
  -41.6590   -5.1290   -2.7310 C   0  0  0  0  0  0
  -40.5190   -6.0310   -0.8230 C   0  0  0  0  0  0
  -42.5530   -6.1860   -2.7040 C   0  0  0  0  0  0
  -41.4100   -7.0920   -0.7920 C   0  0  0  0  0  0
  -42.4250   -7.1730   -1.7360 C   0  0  0  0  0  0
  -39.1180   -0.5300   -1.4730 N   0  0  0  0  0  0
  -41.0994  -18.8653  -11.9962 H   0  0  0  0  0  0
  -42.3709  -19.4266  -13.1341 H   0  0  0  0  0  0
  -42.4411  -17.7639  -12.4580 H   0  0  0  0  0  0
  -42.0951  -18.4106  -15.7030 H   0  0  0  0  0  0
  -40.8271  -15.8278  -15.6977 H   0  0  0  0  0  0
  -43.7655  -16.4720  -16.2774 H   0  0  0  0  0  0
  -42.9739  -14.9130  -16.6891 H   0  0  0  0  0  0
  -41.8055  -17.4994  -17.6952 H   0  0  0  0  0  0
  -43.2485  -16.7801  -18.4870 H   0  0  0  0  0  0
  -42.0116  -14.6879  -18.8615 H   0  0  0  0  0  0
  -40.5712  -15.3852  -18.0458 H   0  0  0  0  0  0
  -41.8890  -16.5367  -20.5513 H   0  0  0  0  0  0
  -40.4373  -15.4788  -20.5390 H   0  0  0  0  0  0
  -39.8442  -17.8150  -20.7797 H   0  0  0  0  0  0
  -40.6865  -18.2021  -19.2410 H   0  0  0  0  0  0
  -39.2348  -17.1442  -19.2288 H   0  0  0  0  0  0
  -40.5713  -14.2047  -14.3807 H   0  0  0  0  0  0
  -42.8668  -13.7600  -12.4073 H   0  0  0  0  0  0
  -39.8834  -13.8489  -11.9345 H   0  0  0  0  0  0
  -40.8527  -12.6626  -10.9964 H   0  0  0  0  0  0
  -41.5857  -15.5916  -11.0963 H   0  0  0  0  0  0
  -40.3662  -14.9411   -9.9490 H   0  0  0  0  0  0
  -42.0295  -13.3840   -9.0283 H   0  0  0  0  0  0
  -43.2507  -13.9613  -10.2125 H   0  0  0  0  0  0
  -43.4094  -16.0858   -9.1908 H   0  0  0  0  0  0
  -41.8646  -15.8745   -8.2990 H   0  0  0  0  0  0
  -43.7724  -15.7579   -6.8307 H   0  0  0  0  0  0
  -44.4493  -14.3981   -7.7894 H   0  0  0  0  0  0
  -42.9044  -14.1867   -6.8976 H   0  0  0  0  0  0
  -43.9289  -11.9943  -12.9912 H   0  0  0  0  0  0
  -42.1191   -9.7201  -13.9309 H   0  0  0  0  0  0
  -45.0640  -10.2060  -14.6023 H   0  0  0  0  0  0
  -44.0966   -8.7853  -15.1241 H   0  0  0  0  0  0
  -42.5008  -10.6173  -16.1279 H   0  0  0  0  0  0
  -43.9699  -11.6467  -16.0333 H   0  0  0  0  0  0
  -45.1179   -9.5543  -17.1882 H   0  0  0  0  0  0
  -43.4334   -9.1920  -17.6961 H   0  0  0  0  0  0
  -45.2162  -11.3543  -18.7433 H   0  0  0  0  0  0
  -41.7528  -10.3977  -18.0285 H   0  0  0  0  0  0
  -41.1017  -11.5883  -19.3660 H   0  0  0  0  0  0
  -44.4448  -12.7290  -20.2831 H   0  0  0  0  0  0
  -42.2553   -7.7615  -13.0032 H   0  0  0  0  0  0
  -44.3215   -7.5647  -10.7452 H   0  0  0  0  0  0
  -41.3389   -6.8432  -10.6677 H   0  0  0  0  0  0
  -42.5215   -6.3646   -9.4031 H   0  0  0  0  0  0
  -43.7408   -8.2562   -8.1520 H   0  0  0  0  0  0
  -40.2046   -8.8837  -10.4998 H   0  0  0  0  0  0
  -43.3069  -10.3582   -6.9336 H   0  0  0  0  0  0
  -39.7696  -10.9935   -9.2761 H   0  0  0  0  0  0
  -41.9771  -12.2816   -6.5348 H   0  0  0  0  0  0
  -45.4341   -5.6653  -10.6952 H   0  0  0  0  0  0
  -44.8493   -3.7147  -12.8706 H   0  0  0  0  0  0
  -46.7390   -2.4798  -12.0336 H   0  0  0  0  0  0
  -47.1327   -4.2205  -11.8302 H   0  0  0  0  0  0
  -47.6782   -2.9254   -9.7336 H   0  0  0  0  0  0
  -44.5511   -1.3018  -12.4001 H   0  0  0  0  0  0
  -42.1863   -1.1083  -10.7091 H   0  0  0  0  0  0
  -42.3506    1.3892  -11.1417 H   0  0  0  0  0  0
  -42.4728    0.3847  -12.6259 H   0  0  0  0  0  0
  -44.9225    0.6559  -12.5742 H   0  0  0  0  0  0
  -44.7527    1.7223  -11.1387 H   0  0  0  0  0  0
  -43.7792    2.1973  -13.9777 H   0  0  0  0  0  0
  -44.9341    3.1696  -13.0043 H   0  0  0  0  0  0
  -41.9390    3.3324  -12.9911 H   0  0  0  0  0  0
  -45.0360    3.8499  -11.1301 H   0  0  0  0  0  0
  -44.2082    5.1652  -10.0280 H   0  0  0  0  0  0
  -41.0055    4.8592  -11.7185 H   0  0  0  0  0  0
  -45.6146   -0.5426  -10.1111 H   0  0  0  0  0  0
  -45.1456    1.0456   -7.6705 H   0  0  0  0  0  0
  -47.6157   -0.5776   -8.5281 H   0  0  0  0  0  0
  -47.5848    0.5722   -7.1484 H   0  0  0  0  0  0
  -48.5750    1.7797   -8.8505 H   0  0  0  0  0  0
  -46.8636    2.3217   -8.9154 H   0  0  0  0  0  0
  -47.5544    1.7514  -12.4696 H   0  0  0  0  0  0
  -45.8415   -2.4219   -8.3569 H   0  0  0  0  0  0
  -45.8004   -3.2611   -5.6104 H   0  0  0  0  0  0
  -46.3839   -4.7152   -7.5856 H   0  0  0  0  0  0
  -44.6411   -4.7930   -8.0138 H   0  0  0  0  0  0
  -47.2040   -5.8154   -5.5341 H   0  0  0  0  0  0
  -43.1412   -6.2281   -6.8428 H   0  0  0  0  0  0
  -46.9397   -7.8011   -4.0887 H   0  0  0  0  0  0
  -42.8749   -8.2109   -5.3905 H   0  0  0  0  0  0
  -44.7708   -8.9889   -3.9987 H   0  0  0  0  0  0
  -43.1019   -2.9993   -7.9773 H   0  0  0  0  0  0
  -41.1008   -3.9433   -6.1212 H   0  0  0  0  0  0
  -40.8863   -2.0871   -8.5622 H   0  0  0  0  0  0
  -39.4409   -2.6999   -7.6893 H   0  0  0  0  0  0
  -41.4946   -4.3548   -9.1436 H   0  0  0  0  0  0
  -40.0797   -2.9425  -10.6234 H   0  0  0  0  0  0
  -39.7312   -4.6945  -10.8129 H   0  0  0  0  0  0
  -38.6103   -3.6524   -9.8726 H   0  0  0  0  0  0
  -40.4839   -5.5596   -7.2413 H   0  0  0  0  0  0
  -38.8476   -5.1913   -7.8843 H   0  0  0  0  0  0
  -39.9685   -6.2334   -8.8247 H   0  0  0  0  0  0
  -42.2641   -0.6444   -6.8257 H   0  0  0  0  0  0
  -40.2357    0.5882   -5.1265 H   0  0  0  0  0  0
  -42.9183    1.5486   -6.2473 H   0  0  0  0  0  0
  -41.9721    2.6010   -5.1411 H   0  0  0  0  0  0
  -40.8622    1.5043   -7.7187 H   0  0  0  0  0  0
  -42.9355    2.7696   -8.1809 H   0  0  0  0  0  0
  -41.4667    3.6200   -8.7691 H   0  0  0  0  0  0
  -42.2767    4.1648   -7.2612 H   0  0  0  0  0  0
  -39.2457    2.3153   -6.0348 H   0  0  0  0  0  0
  -40.0968    3.8967   -5.9933 H   0  0  0  0  0  0
  -39.2868    3.3519   -7.5012 H   0  0  0  0  0  0
  -43.2789   -0.9625   -4.4079 H   0  0  0  0  0  0
  -43.7025    0.1508   -1.7045 H   0  0  0  0  0  0
  -44.1870   -1.4858   -2.2644 H   0  0  0  0  0  0
  -41.3468   -2.1632   -2.9580 H   0  0  0  0  0  0
  -40.6643   -2.9017   -0.1354 H   0  0  0  0  0  0
  -39.4781   -3.6562   -2.8667 H   0  0  0  0  0  0
  -38.7523   -4.2280   -1.3263 H   0  0  0  0  0  0
  -41.7583   -4.3575   -3.4945 H   0  0  0  0  0  0
  -39.7224   -5.9728   -0.0813 H   0  0  0  0  0  0
  -43.3547   -6.2430   -3.4403 H   0  0  0  0  0  0
  -41.3140   -7.8625   -0.0270 H   0  0  0  0  0  0
  -43.1213   -8.0114   -1.7171 H   0  0  0  0  0  0
  -40.0326   -0.2518   -2.0172 H   0  0  0  0  0  0
  -38.2609    0.1591   -1.4495 H   0  0  0  0  0  0
  1  2  2  0  0  0
  1  3  1  0  0  0
  1  4  1  0  0  0
  3114  1  0  0  0
  3115  1  0  0  0
  3116  1  0  0  0
  4  5  1  0  0  0
  4117  1  0  0  0
  5  6  1  0  0  0
  5  8  1  0  0  0
  5118  1  0  0  0
  6  7  2  0  0  0
  6 13  1  0  0  0
  8  9  1  0  0  0
  8119  1  0  0  0
  8120  1  0  0  0
  9 10  1  0  0  0
  9121  1  0  0  0
  9122  1  0  0  0
 10 11  1  0  0  0
 10123  1  0  0  0
 10124  1  0  0  0
 11 12  1  0  0  0
 11125  1  0  0  0
 11126  1  0  0  0
 12127  1  0  0  0
 12128  1  0  0  0
 12129  1  0  0  0
 13 14  1  0  0  0
 13130  1  0  0  0
 14 15  1  0  0  0
 14 17  1  0  0  0
 14131  1  0  0  0
 15 16  2  0  0  0
 15 22  1  0  0  0
 17 18  1  0  0  0
 17132  1  0  0  0
 17133  1  0  0  0
 18 19  1  0  0  0
 18134  1  0  0  0
 18135  1  0  0  0
 19 20  1  0  0  0
 19136  1  0  0  0
 19137  1  0  0  0
 20 21  1  0  0  0
 20138  1  0  0  0
 20139  1  0  0  0
 21140  1  0  0  0
 21141  1  0  0  0
 21142  1  0  0  0
 22 23  1  0  0  0
 22143  1  0  0  0
 23 24  1  0  0  0
 23 26  1  0  0  0
 23144  1  0  0  0
 24 25  2  0  0  0
 24 33  1  0  0  0
 26 27  1  0  0  0
 26145  1  0  0  0
 26146  1  0  0  0
 27 28  1  0  0  0
 27147  1  0  0  0
 27148  1  0  0  0
 28 29  1  0  0  0
 28149  1  0  0  0
 28150  1  0  0  0
 29 30  1  0  0  0
 29151  1  0  0  0
 30 31  1  0  0  0
 30 32  2  0  0  0
 31152  1  0  0  0
 31153  1  0  0  0
 32154  1  0  0  0
 33 34  1  0  0  0
 33155  1  0  0  0
 34 35  1  0  0  0
 34 37  1  0  0  0
 34156  1  0  0  0
 35 36  2  0  0  0
 35 45  1  0  0  0
 37 38  1  0  0  0
 37157  1  0  0  0
 37158  1  0  0  0
 38 39  2  0  0  0
 38 40  1  0  0  0
 39 41  1  0  0  0
 39159  1  0  0  0
 40 42  2  0  0  0
 40160  1  0  0  0
 41 43  2  0  0  0
 41161  1  0  0  0
 42 43  1  0  0  0
 42162  1  0  0  0
 43 44  1  0  0  0
 44163  1  0  0  0
 45 46  1  0  0  0
 45164  1  0  0  0
 46 47  1  0  0  0
 46 49  1  0  0  0
 46165  1  0  0  0
 47 48  2  0  0  0
 47 51  1  0  0  0
 49 50  1  0  0  0
 49166  1  0  0  0
 49167  1  0  0  0
 50168  1  0  0  0
 51 52  1  0  0  0
 51169  1  0  0  0
 52 53  1  0  0  0
 52 55  1  0  0  0
 52170  1  0  0  0
 53 54  2  0  0  0
 53 62  1  0  0  0
 55 56  1  0  0  0
 55171  1  0  0  0
 55172  1  0  0  0
 56 57  1  0  0  0
 56173  1  0  0  0
 56174  1  0  0  0
 57 58  1  0  0  0
 57175  1  0  0  0
 57176  1  0  0  0
 58 59  1  0  0  0
 58177  1  0  0  0
 59 60  1  0  0  0
 59 61  2  0  0  0
 60178  1  0  0  0
 60179  1  0  0  0
 61180  1  0  0  0
 62 63  1  0  0  0
 62181  1  0  0  0
 63 64  1  0  0  0
 63 66  1  0  0  0
 63182  1  0  0  0
 64 65  2  0  0  0
 64 71  1  0  0  0
 66 67  1  0  0  0
 66183  1  0  0  0
 66184  1  0  0  0
 67 68  1  0  0  0
 67185  1  0  0  0
 67186  1  0  0  0
 68 69  2  0  0  0
 68 70  1  0  0  0
 70187  1  0  0  0
 71 72  1  0  0  0
 71188  1  0  0  0
 72 73  1  0  0  0
 72 75  1  0  0  0
 72189  1  0  0  0
 73 74  2  0  0  0
 73 82  1  0  0  0
 75 76  1  0  0  0
 75190  1  0  0  0
 75191  1  0  0  0
 76 77  2  0  0  0
 76 78  1  0  0  0
 77 79  1  0  0  0
 77192  1  0  0  0
 78 80  2  0  0  0
 78193  1  0  0  0
 79 81  2  0  0  0
 79194  1  0  0  0
 80 81  1  0  0  0
 80195  1  0  0  0
 81196  1  0  0  0
 82 83  1  0  0  0
 82197  1  0  0  0
 83 84  1  0  0  0
 83 86  1  0  0  0
 83198  1  0  0  0
 84 85  2  0  0  0
 84 90  1  0  0  0
 86 87  1  0  0  0
 86199  1  0  0  0
 86200  1  0  0  0
 87 88  1  0  0  0
 87 89  1  0  0  0
 87201  1  0  0  0
 88202  1  0  0  0
 88203  1  0  0  0
 88204  1  0  0  0
 89205  1  0  0  0
 89206  1  0  0  0
 89207  1  0  0  0
 90 91  1  0  0  0
 90208  1  0  0  0
 91 92  1  0  0  0
 91 94  1  0  0  0
 91209  1  0  0  0
 92 93  2  0  0  0
 92 98  1  0  0  0
 94 95  1  0  0  0
 94210  1  0  0  0
 94211  1  0  0  0
 95 96  1  0  0  0
 95 97  1  0  0  0
 95212  1  0  0  0
 96213  1  0  0  0
 96214  1  0  0  0
 96215  1  0  0  0
 97216  1  0  0  0
 97217  1  0  0  0
 97218  1  0  0  0
 98 99  1  0  0  0
 98219  1  0  0  0
 99100  1  0  0  0
 99220  1  0  0  0
 99221  1  0  0  0
100101  2  0  0  0
100102  1  0  0  0
102103  1  0  0  0
102222  1  0  0  0
103104  1  0  0  0
103106  1  0  0  0
103223  1  0  0  0
104105  2  0  0  0
104113  1  0  0  0
106107  1  0  0  0
106224  1  0  0  0
106225  1  0  0  0
107108  2  0  0  0
107109  1  0  0  0
108110  1  0  0  0
108226  1  0  0  0
109111  2  0  0  0
109227  1  0  0  0
110112  2  0  0  0
110228  1  0  0  0
111112  1  0  0  0
111229  1  0  0  0
112230  1  0  0  0
113231  1  0  0  0
113232  1  0  0  0
M  CHG  2  12   1  21   1
M  END
> <s_m_source_file>
../4aza_ligand.sdf

> <i_m_source_file_index>
1

> <s_epik_input>
W05IMytdW0NIMl1bQ0gyXVtDSDJdW0NIMl1bQ0BIXShbTkhdQyg9TylbQ0gzXSlDKD1PKVtOSF1bQ0BASF0oW0NIMl1bQ0gyXVtDSDJdW0NIMl1bTkgzK10pQyg9TylbTkhdW0NAQEhdKFtDSDJdW0NIMl1bQ0gyXVtOSF0vQyhbTkgyXSk9TlxbSF0pQyg9TylbTkhdW0NAQEhdKFtDSDJdYzFbY0hdW2NIXWMoW09IXSlbY0hdW2NIXTEpQyg9TylbTkhdW0NAQEhdKFtDSDJdW09IXSlDKD1PKVtOSF1bQ0BASF0oW0NIMl1bQ0gyXVtDSDJdW05IXS9DKFtOSDJdKT1OXFtIXSlDKD1PKVtOSF1bQ0BASF0oW0NIMl1bQ0gyXUMoPU8pW09IXSlDKD1PKVtOSF1bQ0BASF0oW0NIMl1jMltjSF1bY0hdW2NIXVtjSF1bY0hdMilDKD1PKVtOSF1bQ0BASF0oW0NIMl1bQ0hdKFtDSDNdKVtDSDNdKUMoPU8pW05IXVtDQEBIXShbQ0gyXVtDSF0oW0NIM10pW0NIM10pQyg9TylbTkhdW0NIMl1DKD1PKVtOSF1bQ0BIXShDKD1PKVtOSDJdKVtDSDJdYzNbY0hdW2NIXVtjSF1bY0hdW2NIXTM=

> <s_epik_cmdline>
J2VwaWtfYXBwJywgJy1pbWFlJywgJ2xpZ2FuZF9wcm8ubWFlJywgJy1vbWFlJywgJ2xpZ2FuZF9wcmVwLm1hZScsICctbXMnLCAnMScsICctcGgnLCAnNycsICctcGh0JywgJzAuNScsICctbnQn

> <s_epik_pKa_notes>
Molecule size exceeds maximum supported for generating protonation states

> <s_epik_Chemistry_Notes>
This compound has an imine and may undergo hydrolysis.

$$$$
