4azb_ligand
                    3D
 Schrodinger Suite 2020-3.
 44 45  0  0  1  0            999 V2000
   36.2290   15.4990  -16.9760 C   0  0  0  0  0  0
   36.0890   15.6870  -18.4950 C   0  0  0  0  0  0
   35.1340   15.2160  -19.1050 O   0  0  0  0  0  0
   37.0720   16.3670  -19.0730 N   0  0  0  0  0  0
   37.0880   16.6630  -20.5130 C   0  0  2  0  0  0
   36.1550   17.8340  -20.7770 C   0  0  1  0  0  0
   36.8930   19.0390  -20.6260 O   0  0  0  0  0  0
   35.6090   17.7210  -22.1930 C   0  0  2  0  0  0
   34.8660   18.8830  -22.5290 O   0  0  0  0  0  0
   34.6940   16.5080  -22.2470 C   0  0  1  0  0  0
   34.0150   16.3380  -23.6270 C   0  0  0  0  0  0
   35.0190   16.1560  -24.6290 O   0  0  0  0  0  0
   35.4530   15.3260  -21.9630 O   0  0  0  0  0  0
   36.6650   15.4490  -21.3560 C   0  0  0  0  0  0
   37.4820   14.4230  -21.5400 N   0  0  0  0  0  0
   36.9510   13.4310  -22.3060 O   0  0  0  0  0  0
   37.8850   12.6740  -22.9320 C   0  0  0  0  0  0
   39.0950   12.8000  -22.7140 O   0  0  0  0  0  0
   37.3980   11.7680  -23.7760 N   0  0  0  0  0  0
   36.0780   11.6710  -24.0140 C   0  0  0  0  0  0
   35.3040   10.7230  -23.3580 C   0  0  0  0  0  0
   33.9460   10.6240  -23.6230 C   0  0  0  0  0  0
   33.3400   11.4800  -24.5410 C   0  0  0  0  0  0
   34.1070   12.4290  -25.2010 C   0  0  0  0  0  0
   35.4720   12.5180  -24.9380 C   0  0  0  0  0  0
   35.3695   14.9269  -16.5966 H   0  0  0  0  0  0
   36.2593   16.4834  -16.4860 H   0  0  0  0  0  0
   37.1583   14.9522  -16.7583 H   0  0  0  0  0  0
   37.8959   16.7126  -18.4313 H   0  0  0  0  0  0
   38.1274   16.9198  -20.7653 H   0  0  0  0  0  0
   35.3343   17.8916  -20.0468 H   0  0  0  0  0  0
   37.3595   19.2808  -19.6596 H   0  0  0  0  0  0
   36.4168   17.6760  -22.9383 H   0  0  0  0  0  0
   35.3595   19.8660  -22.5446 H   0  0  0  0  0  0
   33.9378   16.6136  -21.4551 H   0  0  0  0  0  0
   33.3538   15.4592  -23.6045 H   0  0  0  0  0  0
   33.4233   17.2362  -23.8577 H   0  0  0  0  0  0
   34.7277   16.0176  -25.6807 H   0  0  0  0  0  0
   38.0793   11.0784  -24.2959 H   0  0  0  0  0  0
   35.7654   10.0538  -22.6318 H   0  0  0  0  0  0
   33.3482    9.8710  -23.1094 H   0  0  0  0  0  0
   32.2708   11.4043  -24.7390 H   0  0  0  0  0  0
   33.6435   13.1021  -25.9223 H   0  0  0  0  0  0
   36.0735   13.2604  -25.4624 H   0  0  0  0  0  0
  1  2  1  0  0  0
  1 26  1  0  0  0
  1 27  1  0  0  0
  1 28  1  0  0  0
  2  3  2  0  0  0
  2  4  1  0  0  0
  4  5  1  0  0  0
  4 29  1  0  0  0
  5  6  1  0  0  0
  5 14  1  0  0  0
  5 30  1  0  0  0
  6  7  1  0  0  0
  6  8  1  0  0  0
  6 31  1  0  0  0
  7 32  1  0  0  0
  8  9  1  0  0  0
  8 10  1  0  0  0
  8 33  1  0  0  0
  9 34  1  0  0  0
 10 11  1  0  0  0
 10 13  1  0  0  0
 10 35  1  0  0  0
 11 12  1  0  0  0
 11 36  1  0  0  0
 11 37  1  0  0  0
 12 38  1  0  0  0
 13 14  1  0  0  0
 14 15  2  0  0  0
 15 16  1  0  0  0
 16 17  1  0  0  0
 17 18  2  0  0  0
 17 19  1  0  0  0
 19 20  1  0  0  0
 19 39  1  0  0  0
 20 21  2  0  0  0
 20 25  1  0  0  0
 21 22  1  0  0  0
 21 40  1  0  0  0
 22 23  2  0  0  0
 22 41  1  0  0  0
 23 24  1  0  0  0
 23 42  1  0  0  0
 24 25  2  0  0  0
 24 43  1  0  0  0
 25 44  1  0  0  0
M  END
> <s_m_source_file>
../4azb_ligand.sdf

> <i_m_source_file_index>
1

> <s_epik_input>
W0NIM11DKD1PKVtOSF1bQ0BASF0xW0NAQEhdKFtPSF0pW0NASF0oW09IXSlbQ0BASF0oW0NIMl1bT0hdKU9DXDE9Ti9PQyg9TylbTkhdYzJbY0hdW2NIXVtjSF1bY0hdW2NIXTI=

> <s_epik_cmdline>
J2VwaWtfYXBwJywgJy1pbWFlJywgJ2xpZ2FuZF9wcm8ubWFlJywgJy1vbWFlJywgJ2xpZ2FuZF9wcmVwLm1hZScsICctbXMnLCAnMScsICctcGgnLCAnNycsICctcGh0JywgJzAuNScsICctbnQn

> <r_lp_tautomer_probability>
1

> <r_epik_Ionization_Penalty>
  0.0000

> <r_epik_Ionization_Penalty_Charging>
  0.0000

> <r_epik_Ionization_Penalty_Neutral>
  0.0000

> <r_epik_State_Penalty>
 -0.0000

> <r_epik_Charging_Adjusted_Penalty>
0

> <i_epik_Tot_Q>
0

> <i_epik_Tot_abs_Q>
0

> <s_epik_Chemistry_Notes>
This compound has an imine and may undergo hydrolysis.

$$$$
