4aze_ligand
                    3D
 Schrodinger Suite 2020-3.
 36 39  0  0  1  0            999 V2000
  -38.2640  -19.3670   25.0830 C   0  0  0  0  0  0
  -38.0660  -18.0870   24.5790 C   0  0  0  0  0  0
  -37.8160  -17.8390   23.2400 C   0  0  0  0  0  0
  -37.7450  -18.9100   22.3760 C   0  0  0  0  0  0
  -37.9340  -20.2030   22.8710 C   0  0  0  0  0  0
  -38.1920  -20.4400   24.2190 C   0  0  0  0  0  0
  -38.3790  -21.6870   24.6360 N   0  0  0  0  0  0
  -37.8670  -22.1410   25.7720 C   0  0  0  0  0  0
  -37.2150  -21.4330   26.6940 N   0  0  0  0  0  0
  -36.8410  -22.2760   27.6490 C   0  0  0  0  0  0
  -37.3080  -23.5170   27.2650 C   0  0  0  0  0  0
  -37.9260  -23.4150   26.1070 N   0  0  0  0  0  0
  -37.1760  -24.5610   27.9020 O   0  0  0  0  0  0
  -36.1510  -22.1290   28.8580 C   0  0  0  0  0  0
  -35.6010  -20.9340   29.3480 C   0  0  0  0  0  0
  -35.8350  -19.6940   28.7680 C   0  0  0  0  0  0
  -35.2480  -18.5640   29.2960 C   0  0  0  0  0  0
  -34.4400  -18.6560   30.4200 C   0  0  0  0  0  0
  -34.2130  -19.8830   31.0090 C   0  0  0  0  0  0
  -34.8010  -21.0200   30.4820 C   0  0  0  0  0  0
  -35.3080  -17.2640   28.9090 O   0  0  0  0  0  0
  -34.1450  -16.6840   29.5010 C   0  0  0  0  0  0
  -34.0000  -17.4170   30.7430 O   0  0  0  0  0  0
  -38.4724  -19.5203   26.1419 H   0  0  0  0  0  0
  -38.1094  -17.2427   25.2670 H   0  0  0  0  0  0
  -37.6785  -16.8202   22.8777 H   0  0  0  0  0  0
  -37.5434  -18.7502   21.3168 H   0  0  0  0  0  0
  -37.8781  -21.0478   22.1845 H   0  0  0  0  0  0
  -38.9773  -22.3850   24.0320 H   0  0  0  0  0  0
  -36.0018  -22.9983   29.5154 H   0  0  0  0  0  0
  -36.4829  -19.6143   27.8951 H   0  0  0  0  0  0
  -33.5720  -19.9568   31.8875 H   0  0  0  0  0  0
  -34.6362  -21.9867   30.9579 H   0  0  0  0  0  0
  -33.2845  -16.8214   28.8297 H   0  0  0  0  0  0
  -34.3141  -15.6095   29.6651 H   0  0  0  0  0  0
  -38.4283  -24.1352   25.4445 H   0  0  0  0  0  0
  1  2  2  0  0  0
  1  6  1  0  0  0
  1 24  1  0  0  0
  2  3  1  0  0  0
  2 25  1  0  0  0
  3  4  2  0  0  0
  3 26  1  0  0  0
  4  5  1  0  0  0
  4 27  1  0  0  0
  5  6  2  0  0  0
  5 28  1  0  0  0
  6  7  1  0  0  0
  7  8  1  0  0  0
  7 29  1  0  0  0
  8  9  2  0  0  0
  8 12  1  0  0  0
  9 10  1  0  0  0
 10 11  1  0  0  0
 10 14  2  0  0  0
 11 12  1  0  0  0
 11 13  2  0  0  0
 12 36  1  0  0  0
 14 15  1  0  0  0
 14 30  1  0  0  0
 15 16  2  0  0  0
 15 20  1  0  0  0
 16 17  1  0  0  0
 16 31  1  0  0  0
 17 18  2  0  0  0
 17 21  1  0  0  0
 18 19  1  0  0  0
 18 23  1  0  0  0
 19 20  2  0  0  0
 19 32  1  0  0  0
 20 33  1  0  0  0
 21 22  1  0  0  0
 22 23  1  0  0  0
 22 34  1  0  0  0
 22 35  1  0  0  0
M  END
> <s_m_source_file>
../4aze_ligand.sdf

> <i_m_source_file_index>
1

> <s_epik_input>
W2NIXTFbY0hdW2NIXVtjSF1bY0hdYzFbTkhdQzI9TkMoPU8pQyg9TjIpW0NIMl1jKFtjSF0zKVtjSF1bY0hdYyhjMzQpT1tDSDJdTzQ=

> <s_epik_cmdline>
J2VwaWtfYXBwJywgJy1pbWFlJywgJ2xpZ2FuZF9wcm8ubWFlJywgJy1vbWFlJywgJ2xpZ2FuZF9wcmVwLm1hZScsICctbXMnLCAnMScsICctcGgnLCAnNycsICctcGh0JywgJzAuNScsICctbnQn

> <r_lp_tautomer_probability>
1

> <r_epik_Ionization_Penalty>
  0.0001

> <r_epik_Ionization_Penalty_Charging>
  0.0000

> <r_epik_Ionization_Penalty_Neutral>
  0.0001

> <r_epik_State_Penalty>
 -0.0000

> <r_epik_Charging_Adjusted_Penalty>
0

> <i_epik_Tot_Q>
0

> <i_epik_Tot_abs_Q>
0

> <s_epik_Chemistry_Notes>
This compound has an imine and may undergo hydrolysis. This compound contains an acetal/aminal-like group ( X-CH(R)-Y where X, Y are N, S, or O) that may be acid/base labile, releasing an aldehyde.

$$$$
