4azi_ligand
                    3D
 Schrodinger Suite 2020-3.
 44 45  0  0  1  0            999 V2000
  -26.1750   34.9190   -7.4960 C   0  0  0  0  0  0
  -25.1780   35.0420   -8.6580 C   0  0  0  0  0  0
  -24.8670   34.0550   -9.3090 O   0  0  0  0  0  0
  -24.6960   36.2680   -8.8720 N   0  0  0  0  0  0
  -23.7380   36.6240   -9.9400 C   0  0  2  0  0  0
  -24.4930   36.8620  -11.2490 C   0  0  1  0  0  0
  -25.0150   38.1970  -11.2590 O   0  0  0  0  0  0
  -23.5870   36.6550  -12.4540 C   0  0  2  0  0  0
  -24.3570   36.9210  -13.6180 O   0  0  0  0  0  0
  -23.1000   35.1980  -12.4790 C   0  0  1  0  0  0
  -22.1340   34.8640  -13.6200 C   0  0  0  0  0  0
  -20.9100   35.5890  -13.4650 O   0  0  0  0  0  0
  -22.4720   34.7930  -11.2330 O   0  0  0  0  0  0
  -22.6320   35.5610  -10.1120 C   0  0  0  0  0  0
  -21.7850   35.3510   -9.1270 N   0  0  0  0  0  0
  -20.8320   34.4010   -9.3490 O   0  0  0  0  0  0
  -19.6470   34.6300   -8.7090 C   0  0  0  0  0  0
  -18.7420   33.7970   -8.7850 O   0  0  0  0  0  0
  -19.5420   35.7810   -8.0270 N   0  0  0  0  0  0
  -18.4790   36.1640   -7.3030 C   0  0  0  0  0  0
  -18.6970   36.5720   -5.9870 C   0  0  0  0  0  0
  -17.6310   36.9850   -5.1880 C   0  0  0  0  0  0
  -16.3360   36.9890   -5.7030 C   0  0  0  0  0  0
  -16.1070   36.5830   -7.0250 C   0  0  0  0  0  0
  -17.1760   36.1730   -7.8270 C   0  0  0  0  0  0
  -26.5077   33.8743   -7.4074 H   0  0  0  0  0  0
  -27.0439   35.5655   -7.6884 H   0  0  0  0  0  0
  -25.6873   35.2291   -6.5601 H   0  0  0  0  0  0
  -25.0629   37.0420   -8.1818 H   0  0  0  0  0  0
  -23.2578   37.5582   -9.6133 H   0  0  0  0  0  0
  -25.3579   36.1861  -11.3204 H   0  0  0  0  0  0
  -25.6933   38.5283  -10.4589 H   0  0  0  0  0  0
  -22.7396   37.3563  -12.4654 H   0  0  0  0  0  0
  -24.7915   37.9195  -13.7737 H   0  0  0  0  0  0
  -24.0184   34.6023  -12.5869 H   0  0  0  0  0  0
  -21.9155   33.7859  -13.6117 H   0  0  0  0  0  0
  -22.5934   35.1376  -14.5813 H   0  0  0  0  0  0
  -20.1014   35.4668  -14.2007 H   0  0  0  0  0  0
  -20.3729   36.5018   -8.0334 H   0  0  0  0  0  0
  -19.7082   36.5680   -5.5800 H   0  0  0  0  0  0
  -17.8106   37.3044   -4.1615 H   0  0  0  0  0  0
  -15.5017   37.3077   -5.0781 H   0  0  0  0  0  0
  -15.0943   36.5870   -7.4281 H   0  0  0  0  0  0
  -16.9988   35.8611   -8.8563 H   0  0  0  0  0  0
  1  2  1  0  0  0
  1 26  1  0  0  0
  1 27  1  0  0  0
  1 28  1  0  0  0
  2  3  2  0  0  0
  2  4  1  0  0  0
  4  5  1  0  0  0
  4 29  1  0  0  0
  5  6  1  0  0  0
  5 14  1  0  0  0
  5 30  1  0  0  0
  6  7  1  0  0  0
  6  8  1  0  0  0
  6 31  1  0  0  0
  7 32  1  0  0  0
  8  9  1  0  0  0
  8 10  1  0  0  0
  8 33  1  0  0  0
  9 34  1  0  0  0
 10 11  1  0  0  0
 10 13  1  0  0  0
 10 35  1  0  0  0
 11 12  1  0  0  0
 11 36  1  0  0  0
 11 37  1  0  0  0
 12 38  1  0  0  0
 13 14  1  0  0  0
 14 15  2  0  0  0
 15 16  1  0  0  0
 16 17  1  0  0  0
 17 18  2  0  0  0
 17 19  1  0  0  0
 19 20  1  0  0  0
 19 39  1  0  0  0
 20 21  2  0  0  0
 20 25  1  0  0  0
 21 22  1  0  0  0
 21 40  1  0  0  0
 22 23  2  0  0  0
 22 41  1  0  0  0
 23 24  1  0  0  0
 23 42  1  0  0  0
 24 25  2  0  0  0
 24 43  1  0  0  0
 25 44  1  0  0  0
M  END
> <s_m_source_file>
../4azi_ligand.sdf

> <i_m_source_file_index>
1

> <s_epik_input>
W0NIM11DKD1PKVtOSF1bQ0BASF0xW0NAQEhdKFtPSF0pW0NASF0oW09IXSlbQ0BASF0oW0NIMl1bT0hdKU9DXDE9Ti9PQyg9TylbTkhdYzJbY0hdW2NIXVtjSF1bY0hdW2NIXTI=

> <s_epik_cmdline>
J2VwaWtfYXBwJywgJy1pbWFlJywgJ2xpZ2FuZF9wcm8ubWFlJywgJy1vbWFlJywgJ2xpZ2FuZF9wcmVwLm1hZScsICctbXMnLCAnMScsICctcGgnLCAnNycsICctcGh0JywgJzAuNScsICctbnQn

> <r_lp_tautomer_probability>
1

> <r_epik_Ionization_Penalty>
  0.0000

> <r_epik_Ionization_Penalty_Charging>
  0.0000

> <r_epik_Ionization_Penalty_Neutral>
  0.0000

> <r_epik_State_Penalty>
 -0.0000

> <r_epik_Charging_Adjusted_Penalty>
0

> <i_epik_Tot_Q>
0

> <i_epik_Tot_abs_Q>
0

> <s_epik_Chemistry_Notes>
This compound has an imine and may undergo hydrolysis.

$$$$
