4azp_ligand
                    3D
 Schrodinger Suite 2020-3.
 70 69  0  0  1  0            999 V2000
   24.2370   14.7690    2.9330 C   0  0  0  0  0  0
   25.2250   15.2850    3.4570 O   0  0  0  0  0  0
   23.7310   15.2180    1.5640 C   0  0  0  0  0  0
   23.3350   16.6910    1.5790 C   0  0  0  0  0  0
   22.6240   16.9780    0.2620 C   0  0  0  0  0  0
   23.6330   16.8620   -0.8780 C   0  0  0  0  0  0
   23.1580   16.1790   -2.1670 C   0  0  0  0  0  0
   21.7200   15.6880   -2.2110 C   0  0  0  0  0  0
   21.5460   14.7880   -3.4290 C   0  0  0  0  0  0
   21.8640   15.4370   -4.7750 C   0  0  0  0  0  0
   21.6720   14.5370   -5.9940 C   0  0  0  0  0  0
   22.9480   14.5340   -6.8390 C   0  0  0  0  0  0
   23.4670   13.1590   -7.2890 C   0  0  0  0  0  0
   22.6410   11.9410   -6.8550 C   0  0  0  0  0  0
   23.2840   11.2100   -5.6690 C   0  0  0  0  0  0
   24.1350   12.0530   -4.7100 C   0  0  0  0  0  0
   24.7450   11.2850   -3.5320 C   0  0  0  0  0  0
   23.6410   10.8650   -2.5390 C   0  0  0  0  0  0
   23.4480   11.9120   -1.4270 C   0  0  0  0  0  0
   24.5100   11.7250   -0.3350 C   0  0  0  0  0  0
   23.9350   10.9400    0.8520 C   0  0  0  0  0  0
   24.2250   11.7520    4.5190 C   0  0  0  0  0  0
   23.8110   13.1790    4.7630 C   0  0  0  0  0  0
   25.5830   11.8040    4.1270 O   0  0  0  0  0  0
   23.5270   13.7620    3.4580 N   0  0  0  0  0  0
   24.5239   15.0752    0.8151 H   0  0  0  0  0  0
   22.8507   14.6206    1.2844 H   0  0  0  0  0  0
   22.6654   16.8820    2.4306 H   0  0  0  0  0  0
   24.2375   17.3124    1.6757 H   0  0  0  0  0  0
   21.8127   16.2495    0.1170 H   0  0  0  0  0  0
   22.2041   17.9944    0.2859 H   0  0  0  0  0  0
   23.9605   17.8673   -1.1815 H   0  0  0  0  0  0
   24.5028   16.2795   -0.5400 H   0  0  0  0  0  0
   23.2522   16.8799   -3.0095 H   0  0  0  0  0  0
   23.7755   15.2892   -2.3595 H   0  0  0  0  0  0
   21.4976   15.1222   -1.2943 H   0  0  0  0  0  0
   21.0403   16.5498   -2.2839 H   0  0  0  0  0  0
   22.2113   13.9167   -3.3391 H   0  0  0  0  0  0
   20.5017   14.4474   -3.4871 H   0  0  0  0  0  0
   21.2111   16.3095   -4.9247 H   0  0  0  0  0  0
   22.9156   15.7596   -4.7872 H   0  0  0  0  0  0
   21.4522   13.5117   -5.6618 H   0  0  0  0  0  0
   20.8345   14.9136   -6.5996 H   0  0  0  0  0  0
   22.7782   15.1086   -7.7615 H   0  0  0  0  0  0
   23.7678   14.9929   -6.2669 H   0  0  0  0  0  0
   23.5027   13.1222   -8.3878 H   0  0  0  0  0  0
   24.4768   12.9976   -6.8837 H   0  0  0  0  0  0
   21.6348   12.2686   -6.5545 H   0  0  0  0  0  0
   22.5611   11.2343   -7.6941 H   0  0  0  0  0  0
   22.4975   10.7579   -5.0469 H   0  0  0  0  0  0
   23.9536   10.4217   -6.0435 H   0  0  0  0  0  0
   24.9755   12.4994   -5.2616 H   0  0  0  0  0  0
   23.5157   12.8518   -4.2760 H   0  0  0  0  0  0
   25.2541   10.3843   -3.9057 H   0  0  0  0  0  0
   25.4709   11.9273   -3.0120 H   0  0  0  0  0  0
   22.6882   10.7511   -3.0767 H   0  0  0  0  0  0
   23.9141    9.9081   -2.0702 H   0  0  0  0  0  0
   23.5431   12.9215   -1.8534 H   0  0  0  0  0  0
   22.4488   11.7945   -0.9822 H   0  0  0  0  0  0
   25.3658   11.1702   -0.7470 H   0  0  0  0  0  0
   24.8480   12.7097    0.0202 H   0  0  0  0  0  0
   24.7116   10.8178    1.6214 H   0  0  0  0  0  0
   23.5996    9.9501    0.5090 H   0  0  0  0  0  0
   23.0818   11.4896    1.2762 H   0  0  0  0  0  0
   24.0996   11.1705    5.4443 H   0  0  0  0  0  0
   23.5979   11.3188    3.7259 H   0  0  0  0  0  0
   22.9162   13.1969    5.4026 H   0  0  0  0  0  0
   24.6295   13.7180    5.2625 H   0  0  0  0  0  0
   26.1228   10.8755    3.8893 H   0  0  0  0  0  0
   22.6940   13.3754    2.8524 H   0  0  0  0  0  0
  1  2  2  0  0  0
  1  3  1  0  0  0
  1 25  1  0  0  0
  3  4  1  0  0  0
  3 26  1  0  0  0
  3 27  1  0  0  0
  4  5  1  0  0  0
  4 28  1  0  0  0
  4 29  1  0  0  0
  5  6  1  0  0  0
  5 30  1  0  0  0
  5 31  1  0  0  0
  6  7  1  0  0  0
  6 32  1  0  0  0
  6 33  1  0  0  0
  7  8  1  0  0  0
  7 34  1  0  0  0
  7 35  1  0  0  0
  8  9  1  0  0  0
  8 36  1  0  0  0
  8 37  1  0  0  0
  9 10  1  0  0  0
  9 38  1  0  0  0
  9 39  1  0  0  0
 10 11  1  0  0  0
 10 40  1  0  0  0
 10 41  1  0  0  0
 11 12  1  0  0  0
 11 42  1  0  0  0
 11 43  1  0  0  0
 12 13  1  0  0  0
 12 44  1  0  0  0
 12 45  1  0  0  0
 13 14  1  0  0  0
 13 46  1  0  0  0
 13 47  1  0  0  0
 14 15  1  0  0  0
 14 48  1  0  0  0
 14 49  1  0  0  0
 15 16  1  0  0  0
 15 50  1  0  0  0
 15 51  1  0  0  0
 16 17  1  0  0  0
 16 52  1  0  0  0
 16 53  1  0  0  0
 17 18  1  0  0  0
 17 54  1  0  0  0
 17 55  1  0  0  0
 18 19  1  0  0  0
 18 56  1  0  0  0
 18 57  1  0  0  0
 19 20  1  0  0  0
 19 58  1  0  0  0
 19 59  1  0  0  0
 20 21  1  0  0  0
 20 60  1  0  0  0
 20 61  1  0  0  0
 21 62  1  0  0  0
 21 63  1  0  0  0
 21 64  1  0  0  0
 22 23  1  0  0  0
 22 24  1  0  0  0
 22 65  1  0  0  0
 22 66  1  0  0  0
 23 25  1  0  0  0
 23 67  1  0  0  0
 23 68  1  0  0  0
 24 69  1  0  0  0
 25 70  1  0  0  0
M  END
> <s_m_source_file>
../4azp_ligand.sdf

> <i_m_source_file_index>
1

> <s_epik_input>
W09IXVtDSDJdW0NIMl1bTkhdQyg9TylbQ0gyXVtDSDJdW0NIMl1bQ0gyXVtDSDJdW0NIMl1bQ0gyXVtDSDJdW0NIMl1bQ0gyXVtDSDJdW0NIMl1bQ0gyXVtDSDJdW0NIMl1bQ0gyXVtDSDJdW0NIMl1bQ0gzXQ==

> <s_epik_cmdline>
J2VwaWtfYXBwJywgJy1pbWFlJywgJ2xpZ2FuZF9wcm8ubWFlJywgJy1vbWFlJywgJ2xpZ2FuZF9wcmVwLm1hZScsICctbXMnLCAnMScsICctcGgnLCAnNycsICctcGh0JywgJzAuNScsICctbnQn

> <r_lp_tautomer_probability>
1

> <r_epik_Ionization_Penalty>
  0.0000

> <r_epik_Ionization_Penalty_Charging>
  0.0000

> <r_epik_Ionization_Penalty_Neutral>
  0.0000

> <r_epik_State_Penalty>
 -0.0000

> <r_epik_Charging_Adjusted_Penalty>
0

> <i_epik_Tot_Q>
0

> <i_epik_Tot_abs_Q>
0

$$$$
