4azt_ligand
                    3D
 Schrodinger Suite 2020-3.
 40 43  0  0  1  0            999 V2000
   15.7620  -56.0660   14.9240 N   0  0  0  0  0  0
   15.2500  -54.6800   15.0640 C   0  0  0  0  0  0
   14.8350  -57.0760   14.3350 C   0  0  0  0  0  0
   16.9640  -56.0320   14.3210 C   0  0  0  0  0  0
   13.8200  -54.6340   15.4670 C   0  0  0  0  0  0
   13.0780  -55.3620   14.4770 O   0  0  0  0  0  0
   13.3730  -56.7870   14.6880 C   0  0  0  0  0  0
   21.4440  -54.4580   12.7670 C   0  0  0  0  0  0
   20.8370  -55.7270   12.7960 C   0  0  0  0  0  0
   20.7670  -53.3280   13.2420 C   0  0  0  0  0  0
   19.5360  -55.8940   13.2810 C   0  0  0  0  0  0
   18.8920  -54.7600   13.7570 C   0  0  0  0  0  0
   18.8910  -57.1450   13.3360 C   0  0  0  0  0  0
   19.4590  -53.4990   13.7410 C   0  0  0  0  0  0
   17.6080  -54.8260   14.2600 O   0  0  0  0  0  0
   18.6700  -52.4650   14.2330 C   0  0  0  0  0  0
   18.7010  -51.1950   13.6520 C   0  0  0  0  0  0
   17.8770  -50.1540   14.1300 C   0  0  0  0  0  0
   17.7870  -52.7110   15.2910 C   0  0  0  0  0  0
   16.9760  -51.6740   15.7760 C   0  0  0  0  0  0
   17.0160  -50.3930   15.2040 C   0  0  0  0  0  0
   17.6030  -57.2030   13.8810 C   0  0  0  0  0  0
   19.3940  -58.1900   12.8940 O   0  0  0  0  0  0
   15.8332  -54.1495   15.8311 H   0  0  0  0  0  0
   15.3458  -54.1548   14.1022 H   0  0  0  0  0  0
   14.9320  -57.0677   13.2393 H   0  0  0  0  0  0
   15.0899  -58.0751   14.7181 H   0  0  0  0  0  0
   13.7031  -55.0978   16.4576 H   0  0  0  0  0  0
   13.4848  -53.5872   15.5104 H   0  0  0  0  0  0
   12.7146  -57.3920   14.0473 H   0  0  0  0  0  0
   13.1932  -57.0419   15.7429 H   0  0  0  0  0  0
   22.4537  -54.3532   12.3699 H   0  0  0  0  0  0
   21.3898  -56.5941   12.4345 H   0  0  0  0  0  0
   21.2373  -52.3448   13.2265 H   0  0  0  0  0  0
   19.3731  -51.0049   12.8152 H   0  0  0  0  0  0
   17.9120  -49.1692   13.6641 H   0  0  0  0  0  0
   17.7298  -53.7043   15.7362 H   0  0  0  0  0  0
   16.3031  -51.8666   16.6116 H   0  0  0  0  0  0
   16.3835  -49.5949   15.5927 H   0  0  0  0  0  0
   17.0928  -58.1626   13.9645 H   0  0  0  0  0  0
  1  2  1  0  0  0
  1  3  1  0  0  0
  1  4  1  0  0  0
  2  5  1  0  0  0
  2 24  1  0  0  0
  2 25  1  0  0  0
  3  7  1  0  0  0
  3 26  1  0  0  0
  3 27  1  0  0  0
  4 15  1  0  0  0
  4 22  2  0  0  0
  5  6  1  0  0  0
  5 28  1  0  0  0
  5 29  1  0  0  0
  6  7  1  0  0  0
  7 30  1  0  0  0
  7 31  1  0  0  0
  8  9  2  0  0  0
  8 10  1  0  0  0
  8 32  1  0  0  0
  9 11  1  0  0  0
  9 33  1  0  0  0
 10 14  2  0  0  0
 10 34  1  0  0  0
 11 12  2  0  0  0
 11 13  1  0  0  0
 12 14  1  0  0  0
 12 15  1  0  0  0
 13 22  1  0  0  0
 13 23  2  0  0  0
 14 16  1  0  0  0
 16 17  2  0  0  0
 16 19  1  0  0  0
 17 18  1  0  0  0
 17 35  1  0  0  0
 18 21  2  0  0  0
 18 36  1  0  0  0
 19 20  2  0  0  0
 19 37  1  0  0  0
 20 21  1  0  0  0
 20 38  1  0  0  0
 21 39  1  0  0  0
 22 40  1  0  0  0
M  END
> <s_m_source_file>
../4azt_ligand.sdf

> <i_m_source_file_index>
1

> <s_epik_input>
W0NIMl0xW0NIMl1PW0NIMl1bQ0gyXU4xYyhbY0hdYzI9TylvYyhjMjMpYyhbY0hdW2NIXVtjSF0zKS1jNFtjSF1bY0hdW2NIXVtjSF1bY0hdNA==

> <s_epik_cmdline>
J2VwaWtfYXBwJywgJy1pbWFlJywgJ2xpZ2FuZF9wcm8ubWFlJywgJy1vbWFlJywgJ2xpZ2FuZF9wcmVwLm1hZScsICctbXMnLCAnMScsICctcGgnLCAnNycsICctcGh0JywgJzAuNScsICctbnQn

> <r_epik_Ionization_Penalty>
  0.0980

> <r_epik_Ionization_Penalty_Charging>
  0.0980

> <r_epik_Ionization_Penalty_Neutral>
  0.0000

> <r_epik_State_Penalty>
  0.0881

> <r_epik_Charging_Adjusted_Penalty>
0.186149725856889

> <i_epik_Tot_Q>
0

> <i_epik_Tot_abs_Q>
0

> <s_epik_Chemistry_Notes>
This compound has an imine and may undergo hydrolysis.

$$$$
