4b00_ligand
                    3D
 Schrodinger Suite 2020-3.
 61 65  0  0  1  0            999 V2000
    7.4070    8.0310  -22.7420 C   0  0  0  0  0  0
    7.9850    6.6420  -22.9300 C   0  0  0  0  0  0
    6.9370    5.6560  -23.1440 N   0  0  0  0  0  0
    6.7130    4.7870  -22.0930 C   0  0  0  0  0  0
    5.7900    3.8150  -22.1410 C   0  0  0  0  0  0
    4.9700    3.7420  -23.3430 C   0  0  0  0  0  0
    5.1170    4.5700  -24.3930 C   0  0  0  0  0  0
    6.1790    5.6260  -24.3200 C   0  0  0  0  0  0
    6.3100    6.3960  -25.2630 O   0  0  0  0  0  0
    4.2890    4.4770  -25.6300 C   0  0  0  0  0  0
    5.5620    2.8120  -21.0190 C   0  0  1  0  0  0
    6.3750    3.1150  -19.7890 C   0  0  0  0  0  0
    7.7430    3.0340  -19.5900 C   0  0  0  0  0  0
    8.2610    3.3830  -18.3530 C   0  0  0  0  0  0
    7.4290    3.8200  -17.3360 C   0  0  0  0  0  0
    6.0570    3.8700  -17.5320 C   0  0  0  0  0  0
    5.5570    3.5110  -18.7710 C   0  0  0  0  0  0
    4.1960    3.4430  -19.3060 C   0  0  0  0  0  0
    4.1830    3.0320  -20.5330 N   0  0  0  0  0  0
    3.0770    3.7260  -18.5590 N   0  0  0  0  0  0
    5.2860    4.3020  -16.5230 F   0  0  0  0  0  0
    5.8560    1.3770  -21.4190 C   0  0  0  0  0  0
    6.6660    1.0800  -22.5070 C   0  0  0  0  0  0
    6.9510   -0.2350  -22.8390 C   0  0  0  0  0  0
    6.4390   -1.2560  -22.0600 C   0  0  0  0  0  0
    5.6380   -1.0060  -20.9590 C   0  0  0  0  0  0
    5.3620    0.3220  -20.6550 C   0  0  0  0  0  0
    5.1520   -2.1100  -20.1190 C   0  0  0  0  0  0
    3.9610   -2.0860  -19.4070 C   0  0  0  0  0  0
    3.6380   -3.1260  -18.5580 C   0  0  0  0  0  0
    4.5050   -4.1970  -18.4710 C   0  0  0  0  0  0
    5.6470   -4.2860  -19.1580 N   0  0  0  0  0  0
    5.9360   -3.2410  -19.9410 C   0  0  0  0  0  0
    2.4740   -3.1740  -17.7480 C   0  0  0  0  0  0
    1.4920   -3.2190  -17.0620 C   0  0  0  0  0  0
    0.2970   -3.2730  -16.2260 C   0  0  0  0  0  0
    8.2243    8.7498  -22.5830 H   0  0  0  0  0  0
    6.7397    8.0352  -21.8675 H   0  0  0  0  0  0
    6.8376    8.3157  -23.6391 H   0  0  0  0  0  0
    8.6523    6.6378  -23.8045 H   0  0  0  0  0  0
    8.5544    6.3573  -22.0330 H   0  0  0  0  0  0
    7.3108    4.8960  -21.1881 H   0  0  0  0  0  0
    4.1964    2.9759  -23.3942 H   0  0  0  0  0  0
    3.5623    3.6580  -25.5241 H   0  0  0  0  0  0
    4.9410    4.2793  -26.4936 H   0  0  0  0  0  0
    3.7530    5.4251  -25.7846 H   0  0  0  0  0  0
    8.4011    2.7014  -20.3927 H   0  0  0  0  0  0
    9.3347    3.3128  -18.1787 H   0  0  0  0  0  0
    7.8533    4.1253  -16.3795 H   0  0  0  0  0  0
    3.1822    4.0713  -17.5199 H   0  0  0  0  0  0
    7.0821    1.8898  -23.1064 H   0  0  0  0  0  0
    7.5724   -0.4619  -23.7053 H   0  0  0  0  0  0
    6.6729   -2.2883  -22.3204 H   0  0  0  0  0  0
    4.7380    0.5454  -19.7897 H   0  0  0  0  0  0
    3.2784   -1.2435  -19.5183 H   0  0  0  0  0  0
    4.2423   -5.0173  -17.8030 H   0  0  0  0  0  0
    6.8761   -3.2816  -20.4912 H   0  0  0  0  0  0
   -0.4486   -3.9323  -16.6943 H   0  0  0  0  0  0
   -0.1226   -2.2617  -16.1204 H   0  0  0  0  0  0
    0.5616   -3.6657  -15.2331 H   0  0  0  0  0  0
    2.0765    3.6071  -19.0004 H   0  0  0  0  0  0
  1  2  1  0  0  0
  1 37  1  0  0  0
  1 38  1  0  0  0
  1 39  1  0  0  0
  2  3  1  0  0  0
  2 40  1  0  0  0
  2 41  1  0  0  0
  3  4  1  0  0  0
  3  8  1  0  0  0
  4  5  2  0  0  0
  4 42  1  0  0  0
  5  6  1  0  0  0
  5 11  1  0  0  0
  6  7  2  0  0  0
  6 43  1  0  0  0
  7  8  1  0  0  0
  7 10  1  0  0  0
  8  9  2  0  0  0
 10 44  1  0  0  0
 10 45  1  0  0  0
 10 46  1  0  0  0
 11 12  1  0  0  0
 11 19  1  0  0  0
 11 22  1  0  0  0
 12 13  2  0  0  0
 12 17  1  0  0  0
 13 14  1  0  0  0
 13 47  1  0  0  0
 14 15  2  0  0  0
 14 48  1  0  0  0
 15 16  1  0  0  0
 15 49  1  0  0  0
 16 17  2  0  0  0
 16 21  1  0  0  0
 17 18  1  0  0  0
 18 19  2  0  0  0
 18 20  1  0  0  0
 20 50  1  0  0  0
 20 61  1  0  0  0
 22 23  2  0  0  0
 22 27  1  0  0  0
 23 24  1  0  0  0
 23 51  1  0  0  0
 24 25  2  0  0  0
 24 52  1  0  0  0
 25 26  1  0  0  0
 25 53  1  0  0  0
 26 27  2  0  0  0
 26 28  1  0  0  0
 27 54  1  0  0  0
 28 29  2  0  0  0
 28 33  1  0  0  0
 29 30  1  0  0  0
 29 55  1  0  0  0
 30 31  2  0  0  0
 30 34  1  0  0  0
 31 32  1  0  0  0
 31 56  1  0  0  0
 32 33  2  0  0  0
 33 57  1  0  0  0
 34 35  3  0  0  0
 35 36  1  0  0  0
 36 58  1  0  0  0
 36 59  1  0  0  0
 36 60  1  0  0  0
M  END
> <s_m_source_file>
../4b00_ligand.sdf

> <i_m_source_file_index>
1

> <s_epik_input>
W2NIXTFbY0hdW2NIXWMoRiljKGMxMikvQyg9TlxbSF0pW05IXVtDQF0yKGMoW2NIXWMoYzM9TylbQ0gzXSlbY0hdbjNbQ0gyXVtDSDNdKWM0W2NIXVtjSF1bY0hdYyhbY0hdNCktYzVbY0hdYyhbY0hdbltjSF01KUMjQ1tDSDNd

> <s_epik_cmdline>
J2VwaWtfYXBwJywgJy1pbWFlJywgJ2xpZ2FuZF9wcm8ubWFlJywgJy1vbWFlJywgJ2xpZ2FuZF9wcmVwLm1hZScsICctbXMnLCAnMScsICctcGgnLCAnNycsICctcGh0JywgJzAuNScsICctbnQn

> <r_lp_tautomer_probability>
1

> <r_epik_Ionization_Penalty>
  0.0039

> <r_epik_Ionization_Penalty_Charging>
  0.0000

> <r_epik_Ionization_Penalty_Neutral>
  0.0039

> <r_epik_State_Penalty>
 -0.0000

> <r_epik_Charging_Adjusted_Penalty>
2.00771033643331e-06

> <i_epik_Tot_Q>
0

> <i_epik_Tot_abs_Q>
0

> <s_epik_Chemistry_Notes>
This compound has an imine and may undergo hydrolysis.

$$$$
