4b05_ligand
                    3D
 Schrodinger Suite 2020-3.
 48 52  0  0  1  0            999 V2000
    8.1610    3.3190  -18.3450 C   0  0  0  0  0  0
    7.6400    2.9580  -19.5770 C   0  0  0  0  0  0
    6.2770    3.0760  -19.7920 C   0  0  0  0  0  0
    5.4800    3.5280  -18.7840 C   0  0  0  0  0  0
    5.9770    3.9060  -17.5480 C   0  0  0  0  0  0
    7.3400    3.7970  -17.3350 C   0  0  0  0  0  0
    5.2130    4.4070  -16.5580 F   0  0  0  0  0  0
    4.1170    3.5120  -19.3240 C   0  0  0  0  0  0
    4.0820    3.0720  -20.5470 N   0  0  0  0  0  0
    5.4540    2.7750  -21.0260 C   0  0  2  0  0  0
    5.6710    1.3070  -21.3290 C   0  0  0  0  0  0
    6.5360    0.9060  -22.3370 C   0  0  0  0  0  0
    6.7260   -0.4340  -22.6020 C   0  0  0  0  0  0
    6.0860   -1.3950  -21.8400 C   0  0  0  0  0  0
    5.2340   -1.0330  -20.8130 C   0  0  0  0  0  0
    5.0460    0.3230  -20.5780 C   0  0  0  0  0  0
    4.6280   -2.0420  -19.9520 C   0  0  0  0  0  0
    5.3190   -3.1660  -19.5380 C   0  0  0  0  0  0
    4.8560   -4.0740  -18.6700 N   0  0  0  0  0  0
    3.6220   -3.8310  -18.2040 C   0  0  0  0  0  0
    2.8260   -2.8090  -18.5430 N   0  0  0  0  0  0
    3.3640   -1.9370  -19.4080 C   0  0  0  0  0  0
    5.7520    3.6940  -22.2230 C   0  0  0  0  0  0
    6.9300    4.4150  -22.1970 C   0  0  0  0  0  0
    7.2710    5.2430  -23.2350 C   0  0  0  0  0  0
    6.5160    5.4010  -24.3230 N   0  0  0  0  0  0
    5.3590    4.7380  -24.3740 C   0  0  0  0  0  0
    4.9460    3.8690  -23.3600 C   0  0  0  0  0  0
    4.5960    4.9460  -25.6540 C   0  0  0  0  0  0
    3.4530    5.7240  -25.6200 F   0  0  0  0  0  0
    4.3210    3.7920  -26.3130 F   0  0  0  0  0  0
    3.0330    3.8580  -18.5610 N   0  0  0  0  0  0
    9.2323    3.2259  -18.1671 H   0  0  0  0  0  0
    8.2938    2.5863  -20.3660 H   0  0  0  0  0  0
    7.7674    4.0864  -16.3750 H   0  0  0  0  0  0
    7.0687    1.6548  -22.9231 H   0  0  0  0  0  0
    7.3840   -0.7375  -23.4162 H   0  0  0  0  0  0
    6.2555   -2.4507  -22.0519 H   0  0  0  0  0  0
    4.3799    0.6260  -19.7702 H   0  0  0  0  0  0
    6.3158   -3.3247  -19.9494 H   0  0  0  0  0  0
    3.2266   -4.5379  -17.4746 H   0  0  0  0  0  0
    2.7575   -1.0810  -19.7037 H   0  0  0  0  0  0
    7.5972    4.3244  -21.3398 H   0  0  0  0  0  0
    8.2056    5.7999  -23.1678 H   0  0  0  0  0  0
    4.0031    3.3298  -23.4512 H   0  0  0  0  0  0
    5.2540    5.5326  -26.3120 H   0  0  0  0  0  0
    3.1775    4.2206  -17.5326 H   0  0  0  0  0  0
    2.0182    3.7732  -18.9768 H   0  0  0  0  0  0
  1  2  2  0  0  0
  1  6  1  0  0  0
  1 33  1  0  0  0
  2  3  1  0  0  0
  2 34  1  0  0  0
  3  4  2  0  0  0
  3 10  1  0  0  0
  4  5  1  0  0  0
  4  8  1  0  0  0
  5  6  2  0  0  0
  5  7  1  0  0  0
  6 35  1  0  0  0
  8  9  2  0  0  0
  8 32  1  0  0  0
  9 10  1  0  0  0
 10 11  1  0  0  0
 10 23  1  0  0  0
 11 12  2  0  0  0
 11 16  1  0  0  0
 12 13  1  0  0  0
 12 36  1  0  0  0
 13 14  2  0  0  0
 13 37  1  0  0  0
 14 15  1  0  0  0
 14 38  1  0  0  0
 15 16  2  0  0  0
 15 17  1  0  0  0
 16 39  1  0  0  0
 17 18  2  0  0  0
 17 22  1  0  0  0
 18 19  1  0  0  0
 18 40  1  0  0  0
 19 20  2  0  0  0
 20 21  1  0  0  0
 20 41  1  0  0  0
 21 22  2  0  0  0
 22 42  1  0  0  0
 23 24  2  0  0  0
 23 28  1  0  0  0
 24 25  1  0  0  0
 24 43  1  0  0  0
 25 26  2  0  0  0
 25 44  1  0  0  0
 26 27  1  0  0  0
 27 28  2  0  0  0
 27 29  1  0  0  0
 28 45  1  0  0  0
 29 30  1  0  0  0
 29 31  1  0  0  0
 29 46  1  0  0  0
 32 47  1  0  0  0
 32 48  1  0  0  0
M  END
> <s_m_source_file>
../4b05_ligand.sdf

> <i_m_source_file_index>
1

> <s_epik_input>
W2NIXTFbY0hdW2NIXWMoRiljKGMxMikvQyg9Ti9bSF0pW05IXVtDQF0yKGMzW2NIXVtjSF1uYyhbY0hdMylbQ0hdKEYpRiljNFtjSF1bY0hdW2NIXWMoW2NIXTQpLWM1W2NIXW5bY0hdbltjSF01

> <s_epik_cmdline>
J2VwaWtfYXBwJywgJy1pbWFlJywgJ2xpZ2FuZF9wcm8ubWFlJywgJy1vbWFlJywgJ2xpZ2FuZF9wcmVwLm1hZScsICctbXMnLCAnMScsICctcGgnLCAnNycsICctcGh0JywgJzAuNScsICctbnQn

> <r_lp_tautomer_probability>
1

> <r_epik_Ionization_Penalty>
  0.0348

> <r_epik_Ionization_Penalty_Charging>
  0.0000

> <r_epik_Ionization_Penalty_Neutral>
  0.0348

> <r_epik_State_Penalty>
  0.0289

> <r_epik_Charging_Adjusted_Penalty>
0.0289484330799774

> <i_epik_Tot_Q>
0

> <i_epik_Tot_abs_Q>
0

> <s_epik_Chemistry_Notes>
This compound has an imine and may undergo hydrolysis.

$$$$
