4b0b_ligand
                    3D
 Schrodinger Suite 2020-3.
 24 25  0  0  1  0            999 V2000
   22.5810   18.3240   14.5760 N   0  0  0  0  0  0
   22.2150   17.0220   14.5250 C   0  0  0  0  0  0
   21.9120   16.3600   15.7050 C   0  0  0  0  0  0
   21.9480   17.0370   16.9210 C   0  0  0  0  0  0
   22.2420   18.3870   16.9560 C   0  0  0  0  0  0
   22.5060   19.0500   15.7500 C   0  0  0  0  0  0
   24.7900   17.0730    9.3640 N   0  0  0  0  0  0
   23.6470   17.0950   10.0520 C   0  0  0  0  0  0
   23.6080   16.7310   11.4010 C   0  0  0  0  0  0
   22.4290   16.7940   12.1290 C   0  0  0  0  0  0
   21.2600   17.0820   11.4380 C   0  0  0  0  0  0
   21.2890   17.4690   10.0980 C   0  0  0  0  0  0
   22.4960   17.5250    9.4100 C   0  0  0  0  0  0
   22.3300   16.2540   13.4010 O   0  0  0  0  0  0
   21.6441   15.3037   15.6805 H   0  0  0  0  0  0
   21.7438   16.5009   17.8478 H   0  0  0  0  0  0
   22.2680   18.9255   17.9033 H   0  0  0  0  0  0
   22.6511   20.1302   15.7377 H   0  0  0  0  0  0
   25.7178   16.7362    9.8495 H   0  0  0  0  0  0
   24.8045   17.3917    8.3113 H   0  0  0  0  0  0
   24.5210   16.3913   11.8900 H   0  0  0  0  0  0
   20.3018   17.0043   11.9518 H   0  0  0  0  0  0
   20.3613   17.7286    9.5881 H   0  0  0  0  0  0
   22.5364   17.8992    8.3871 H   0  0  0  0  0  0
  1  2  2  0  0  0
  1  6  1  0  0  0
  2  3  1  0  0  0
  2 14  1  0  0  0
  3  4  2  0  0  0
  3 15  1  0  0  0
  4  5  1  0  0  0
  4 16  1  0  0  0
  5  6  2  0  0  0
  5 17  1  0  0  0
  6 18  1  0  0  0
  7  8  1  0  0  0
  7 19  1  0  0  0
  7 20  1  0  0  0
  8  9  2  0  0  0
  8 13  1  0  0  0
  9 10  1  0  0  0
  9 21  1  0  0  0
 10 11  2  0  0  0
 10 14  1  0  0  0
 11 12  1  0  0  0
 11 22  1  0  0  0
 12 13  2  0  0  0
 12 23  1  0  0  0
 13 24  1  0  0  0
M  END
> <s_m_source_file>
../4b0b_ligand.sdf

> <i_m_source_file_index>
1

> <s_epik_input>
W2NIXTFbY0hdW2NIXVtjSF1uYzFPYyhbY0hdYzJbTkgyXSlbY0hdW2NIXVtjSF0y

> <s_epik_cmdline>
J2VwaWtfYXBwJywgJy1pbWFlJywgJ2xpZ2FuZF9wcm8ubWFlJywgJy1vbWFlJywgJ2xpZ2FuZF9wcmVwLm1hZScsICctbXMnLCAnMScsICctcGgnLCAnNycsICctcGh0JywgJzAuNScsICctbnQn

> <r_lp_tautomer_probability>
1

> <r_epik_Ionization_Penalty>
  0.0009

> <r_epik_Ionization_Penalty_Charging>
  0.0000

> <r_epik_Ionization_Penalty_Neutral>
  0.0009

> <r_epik_State_Penalty>
 -0.0000

> <r_epik_Charging_Adjusted_Penalty>
0

> <i_epik_Tot_Q>
0

> <i_epik_Tot_abs_Q>
0

$$$$
