4b0g_ligand
                    3D
 Schrodinger Suite 2020-3.
 51 55  0  0  1  0            999 V2000
  -22.1310   -6.2510  -15.1940 C   0  0  0  0  0  0
  -22.3150   -7.5290  -14.3330 C   0  0  0  0  0  0
  -21.4680   -8.7010  -14.3080 C   0  0  0  0  0  0
  -22.0780   -9.6650  -13.3310 C   0  0  0  0  0  0
  -21.5800  -11.0920  -13.0040 C   0  0  0  0  0  0
  -22.3330  -11.9630  -13.8890 N   0  0  0  0  0  0
  -23.1520  -12.9770  -13.1960 C   0  0  0  0  0  0
  -24.2660  -13.5150  -14.0870 C   0  0  0  0  0  0
  -23.8690  -13.7010  -15.4840 N   0  0  0  0  0  0
  -24.5800  -14.6880  -16.3660 C   0  0  0  0  0  0
  -24.5170  -14.5700  -17.7430 C   0  0  0  0  0  0
  -23.7670  -12.9990  -18.5960 Br  0  0  0  0  0  0
  -25.1170  -15.5640  -18.6350 C   0  0  0  0  0  0
  -25.7680  -16.6910  -18.0900 N   0  0  0  0  0  0
  -25.8310  -16.8480  -16.6820 C   0  0  0  0  0  0
  -26.3900  -17.8420  -15.9210 N   0  3  0  0  0  0
  -26.1730  -17.5140  -14.5550 C   0  0  0  0  0  0
  -26.6720  -18.2620  -13.4760 C   0  0  0  0  0  0
  -27.6630  -19.2870  -13.6230 C   0  0  0  0  0  0
  -27.9560  -19.7440  -12.3710 N   0  3  0  0  0  0
  -27.1900  -19.0370  -11.4460 C   0  0  0  0  0  0
  -26.3930  -18.1130  -12.1490 N   0  0  0  0  0  0
  -25.4390  -17.1760  -11.5340 C   0  0  0  0  0  0
  -25.4870  -16.3130  -14.5020 N   0  0  0  0  0  0
  -25.2560  -15.8790  -15.8100 C   0  0  0  0  0  0
  -22.3830  -13.6950  -15.7170 C   0  0  0  0  0  0
  -21.6580  -12.4510  -15.0950 C   0  0  0  0  0  0
  -23.2560   -9.0870  -12.7990 N   0  0  0  0  0  0
  -23.4160   -7.7420  -13.4070 O   0  0  0  0  0  0
  -21.2209   -6.3479  -15.8042 H   0  0  0  0  0  0
  -22.0391   -5.3750  -14.5350 H   0  0  0  0  0  0
  -23.0026   -6.1242  -15.8530 H   0  0  0  0  0  0
  -20.5586   -8.8556  -14.8886 H   0  0  0  0  0  0
  -20.4985  -11.1555  -13.1945 H   0  0  0  0  0  0
  -21.7797  -11.3166  -11.9459 H   0  0  0  0  0  0
  -22.5137  -13.8210  -12.8956 H   0  0  0  0  0  0
  -23.6118  -12.5290  -12.3028 H   0  0  0  0  0  0
  -24.5974  -14.4935  -13.7092 H   0  0  0  0  0  0
  -25.1129  -12.8131  -14.0794 H   0  0  0  0  0  0
  -25.0610  -15.4339  -19.7158 H   0  0  0  0  0  0
  -28.1002  -19.6358  -14.5586 H   0  0  0  0  0  0
  -27.2052  -19.1753  -10.3649 H   0  0  0  0  0  0
  -24.9570  -16.5754  -12.3194 H   0  0  0  0  0  0
  -24.6732  -17.7415  -10.9829 H   0  0  0  0  0  0
  -25.9739  -16.5109  -10.8401 H   0  0  0  0  0  0
  -21.9377  -14.5948  -15.2674 H   0  0  0  0  0  0
  -22.1814  -13.6873  -16.7983 H   0  0  0  0  0  0
  -21.6379  -11.6533  -15.8521 H   0  0  0  0  0  0
  -20.6280  -12.7453  -14.8451 H   0  0  0  0  0  0
  -26.8908  -18.6918  -16.4079 H   0  0  0  0  0  0
  -28.6963  -20.5466  -12.2377 H   0  0  0  0  0  0
  1  2  1  0  0  0
  1 30  1  0  0  0
  1 31  1  0  0  0
  1 32  1  0  0  0
  2  3  2  0  0  0
  2 29  1  0  0  0
  3  4  1  0  0  0
  3 33  1  0  0  0
  4  5  1  0  0  0
  4 28  2  0  0  0
  5  6  1  0  0  0
  5 34  1  0  0  0
  5 35  1  0  0  0
  6  7  1  0  0  0
  6 27  1  0  0  0
  7  8  1  0  0  0
  7 36  1  0  0  0
  7 37  1  0  0  0
  8  9  1  0  0  0
  8 38  1  0  0  0
  8 39  1  0  0  0
  9 10  1  0  0  0
  9 26  1  0  0  0
 10 11  2  0  0  0
 10 25  1  0  0  0
 11 12  1  0  0  0
 11 13  1  0  0  0
 13 14  2  0  0  0
 13 40  1  0  0  0
 14 15  1  0  0  0
 15 16  1  0  0  0
 15 25  2  0  0  0
 16 17  2  0  0  0
 16 50  1  0  0  0
 17 18  1  0  0  0
 17 24  1  0  0  0
 18 19  2  0  0  0
 18 22  1  0  0  0
 19 20  1  0  0  0
 19 41  1  0  0  0
 20 21  2  0  0  0
 20 51  1  0  0  0
 21 22  1  0  0  0
 21 42  1  0  0  0
 22 23  1  0  0  0
 23 43  1  0  0  0
 23 44  1  0  0  0
 23 45  1  0  0  0
 24 25  1  0  0  0
 26 27  1  0  0  0
 26 46  1  0  0  0
 26 47  1  0  0  0
 27 48  1  0  0  0
 27 49  1  0  0  0
 28 29  1  0  0  0
M  CHG  2  16   1  20   1
M  END
> <s_m_source_file>
../4b0g_ligand.sdf

> <i_m_source_file_index>
1

> <s_epik_input>
W0NIM11jMVtjSF1jKG5vMSlbQ0gyXVtOSCtdMltDSDJdW0NIMl1OKFtDSDJdW0NIMl0yKWMoYyhCcilbY0hdbjMpYyhjMzQpW25IXWMobjQpLWM1W2NIXW5bY0hdbjVbQ0gzXQ==

> <s_epik_cmdline>
J2VwaWtfYXBwJywgJy1pbWFlJywgJ2xpZ2FuZF9wcm8ubWFlJywgJy1vbWFlJywgJ2xpZ2FuZF9wcmVwLm1hZScsICctbXMnLCAnMScsICctcGgnLCAnNycsICctcGh0JywgJzAuNScsICctbnQn

> <r_epik_Ionization_Penalty>
  0.5146

> <r_epik_Ionization_Penalty_Charging>
  0.0000

> <r_epik_Ionization_Penalty_Neutral>
  0.5146

> <r_epik_State_Penalty>
  0.3984

> <r_epik_Charging_Adjusted_Penalty>
0.39843505724521

> <i_epik_Tot_Q>
2

> <i_epik_Tot_abs_Q>
2

$$$$
