4b12_ligand
                    3D
 Schrodinger Suite 2020-3.
 53 56  0  0  1  0            999 V2000
   23.1370   46.1030   60.5640 O   0  0  0  0  0  0
   23.9390   45.5640   61.3140 C   0  0  0  0  0  0
   25.4120   45.9880   61.3060 C   0  0  0  0  0  0
   25.5680   47.5200   60.9530 C   0  0  0  0  0  0
   25.2390   48.3980   62.1820 C   0  0  0  0  0  0
   26.2230   48.6810   63.1500 C   0  0  0  0  0  0
   25.9090   49.4500   64.2900 C   0  0  0  0  0  0
   24.6130   49.9550   64.4510 C   0  0  0  0  0  0
   23.6110   49.6290   63.5250 C   0  0  0  0  0  0
   23.9120   48.8700   62.3930 C   0  0  0  0  0  0
   23.4510   44.3400   62.0370 C   0  0  0  0  0  0
   22.2680   43.8970   61.8380 O   0  0  0  0  0  0
   22.1640   42.7280   62.5470 C   0  0  0  0  0  0
   23.3390   42.3960   63.2170 C   0  0  0  0  0  0
   24.1830   43.4800   62.8610 C   0  0  0  0  0  0
   25.6170   43.5640   63.3560 C   0  0  0  0  0  0
   23.3940   41.2450   64.0340 C   0  0  0  0  0  0
   22.2480   40.4530   64.1120 C   0  0  0  0  0  0
   21.0690   40.7570   63.4170 C   0  0  0  0  0  0
   21.0130   41.9160   62.6460 C   0  0  0  0  0  0
   24.5300   40.9150   64.7720 O   0  0  0  0  0  0
   24.4090   40.7300   66.1990 C   0  0  0  0  0  0
   25.4720   39.7560   66.7520 C   0  0  0  0  0  0
   26.8340   40.4180   66.8560 C   0  0  0  0  0  0
   26.7720   41.7390   67.4670 N   0  3  0  0  0  0
   25.7470   42.6700   67.0400 C   0  0  0  0  0  0
   24.3640   42.0480   66.9810 C   0  0  0  0  0  0
   25.8495   45.8122   62.2998 H   0  0  0  0  0  0
   25.9590   45.3990   60.5551 H   0  0  0  0  0  0
   26.6030   47.7203   60.6389 H   0  0  0  0  0  0
   24.8798   47.7798   60.1351 H   0  0  0  0  0  0
   27.2363   48.3021   63.0166 H   0  0  0  0  0  0
   26.6719   49.6503   65.0423 H   0  0  0  0  0  0
   24.3824   50.6024   65.2971 H   0  0  0  0  0  0
   22.5894   49.9711   63.6908 H   0  0  0  0  0  0
   23.1304   48.6382   61.6695 H   0  0  0  0  0  0
   26.0873   44.4778   62.9638 H   0  0  0  0  0  0
   26.1775   42.6843   63.0069 H   0  0  0  0  0  0
   25.6243   43.5908   64.4557 H   0  0  0  0  0  0
   22.2703   39.5616   64.7388 H   0  0  0  0  0  0
   20.2060   40.0941   63.4792 H   0  0  0  0  0  0
   20.0949   42.1917   62.1272 H   0  0  0  0  0  0
   23.4140   40.2679   66.2794 H   0  0  0  0  0  0
   25.1725   39.4172   67.7548 H   0  0  0  0  0  0
   25.5576   38.8877   66.0821 H   0  0  0  0  0  0
   27.4992   39.7936   67.4705 H   0  0  0  0  0  0
   27.2641   40.5320   65.8500 H   0  0  0  0  0  0
   26.6119   41.6348   68.5503 H   0  0  0  0  0  0
   27.7172   42.2716   67.2856 H   0  0  0  0  0  0
   25.7025   43.5144   67.7436 H   0  0  0  0  0  0
   25.9872   43.0436   66.0336 H   0  0  0  0  0  0
   23.6760   42.7467   66.4826 H   0  0  0  0  0  0
   24.0121   41.8549   68.0052 H   0  0  0  0  0  0
  1  2  2  0  0  0
  2  3  1  0  0  0
  2 11  1  0  0  0
  3  4  1  0  0  0
  3 28  1  0  0  0
  3 29  1  0  0  0
  4  5  1  0  0  0
  4 30  1  0  0  0
  4 31  1  0  0  0
  5  6  2  0  0  0
  5 10  1  0  0  0
  6  7  1  0  0  0
  6 32  1  0  0  0
  7  8  2  0  0  0
  7 33  1  0  0  0
  8  9  1  0  0  0
  8 34  1  0  0  0
  9 10  2  0  0  0
  9 35  1  0  0  0
 10 36  1  0  0  0
 11 12  1  0  0  0
 11 15  2  0  0  0
 12 13  1  0  0  0
 13 14  2  0  0  0
 13 20  1  0  0  0
 14 15  1  0  0  0
 14 17  1  0  0  0
 15 16  1  0  0  0
 16 37  1  0  0  0
 16 38  1  0  0  0
 16 39  1  0  0  0
 17 18  2  0  0  0
 17 21  1  0  0  0
 18 19  1  0  0  0
 18 40  1  0  0  0
 19 20  2  0  0  0
 19 41  1  0  0  0
 20 42  1  0  0  0
 21 22  1  0  0  0
 22 23  1  0  0  0
 22 27  1  0  0  0
 22 43  1  0  0  0
 23 24  1  0  0  0
 23 44  1  0  0  0
 23 45  1  0  0  0
 24 25  1  0  0  0
 24 46  1  0  0  0
 24 47  1  0  0  0
 25 26  1  0  0  0
 25 48  1  0  0  0
 25 49  1  0  0  0
 26 27  1  0  0  0
 26 50  1  0  0  0
 26 51  1  0  0  0
 27 52  1  0  0  0
 27 53  1  0  0  0
M  CHG  1  25   1
M  END
> <s_m_source_file>
../4b12_ligand.sdf

> <i_m_source_file_index>
1

> <s_epik_input>
W2NIXTFbY0hdW2NIXVtjSF1bY0hdYzFbQ0gyXVtDSDJdQyg9TyljKG8yKWMoW0NIM10pYyhjMjMpYyhbY0hdW2NIXVtjSF0zKU9bQ0hdNFtDSDJdW0NIMl1bTkgyK11bQ0gyXVtDSDJdNA==

> <s_epik_cmdline>
J2VwaWtfYXBwJywgJy1pbWFlJywgJ2xpZ2FuZF9wcm8ubWFlJywgJy1vbWFlJywgJ2xpZ2FuZF9wcmVwLm1hZScsICctbXMnLCAnMScsICctcGgnLCAnNycsICctcGh0JywgJzAuNScsICctbnQn

> <r_lp_tautomer_probability>
1

> <r_epik_Ionization_Penalty>
  0.0023

> <r_epik_Ionization_Penalty_Charging>
  0.0023

> <r_epik_Ionization_Penalty_Neutral>
  0.0000

> <r_epik_State_Penalty>
 -0.0000

> <r_epik_Charging_Adjusted_Penalty>
0.00233358860961355

> <i_epik_Tot_Q>
1

> <i_epik_Tot_abs_Q>
1

$$$$
