4b13_ligand
                    3D
 Schrodinger Suite 2020-3.
 53 57  0  0  1  0            999 V2000
   25.1840   42.2010   63.7330 C   0  0  0  0  0  0
   23.8700   42.0010   63.2080 C   0  0  0  0  0  0
   23.1110   42.6930   62.3590 C   0  0  0  0  0  0
   22.0540   42.2040   62.2530 O   0  0  0  0  0  0
   23.4970   43.9000   61.8150 C   0  0  0  0  0  0
   24.6590   44.5010   62.0050 N   0  0  0  0  0  0
   24.5710   45.5140   61.2130 C   0  0  0  0  0  0
   25.5690   46.5570   61.0650 C   0  0  0  0  0  0
   25.3360   47.2400   62.3930 C   0  0  0  0  0  0
   24.0770   47.6310   62.7440 C   0  0  0  0  0  0
   23.9160   48.2750   63.9530 C   0  0  0  0  0  0
   24.9720   48.5080   64.8100 C   0  0  0  0  0  0
   26.2270   48.1080   64.4440 C   0  0  0  0  0  0
   26.3720   47.4640   63.2500 C   0  0  0  0  0  0
   23.4030   45.5250   60.6410 N   0  0  0  0  0  0
   22.7900   44.4550   61.0580 O   0  0  0  0  0  0
   22.0370   41.0880   62.9200 C   0  0  0  0  0  0
   23.2100   40.8930   63.6260 C   0  0  0  0  0  0
   20.9770   40.2090   63.0190 C   0  0  0  0  0  0
   21.1480   39.1120   63.8190 C   0  0  0  0  0  0
   22.3530   38.9490   64.5260 C   0  0  0  0  0  0
   23.4180   39.8400   64.4490 C   0  0  0  0  0  0
   24.5560   39.6750   65.1770 O   0  0  0  0  0  0
   24.4780   39.4040   66.6330 C   0  0  0  0  0  0
   25.1670   38.1330   67.1160 C   0  0  0  0  0  0
   26.6560   38.3440   67.1540 C   0  0  0  0  0  0
   27.0460   39.5620   67.8680 N   0  3  0  0  0  0
   26.2010   40.7300   67.8620 C   0  0  0  0  0  0
   24.7150   40.5360   67.6160 C   0  0  0  0  0  0
   25.6073   43.1279   63.3186 H   0  0  0  0  0  0
   25.8232   41.3499   63.4555 H   0  0  0  0  0  0
   25.1329   42.2792   64.8290 H   0  0  0  0  0  0
   26.5620   46.0997   60.9431 H   0  0  0  0  0  0
   25.3345   47.1659   60.1794 H   0  0  0  0  0  0
   23.2259   47.4406   62.0902 H   0  0  0  0  0  0
   22.9202   48.6115   64.2414 H   0  0  0  0  0  0
   24.8077   49.0045   65.7663 H   0  0  0  0  0  0
   27.0863   48.2980   65.0871 H   0  0  0  0  0  0
   27.3641   47.1116   62.9678 H   0  0  0  0  0  0
   20.0438   40.3814   62.4828 H   0  0  0  0  0  0
   20.3553   38.3691   63.9078 H   0  0  0  0  0  0
   22.4579   38.0759   65.1700 H   0  0  0  0  0  0
   23.3874   39.2606   66.6221 H   0  0  0  0  0  0
   24.8091   37.8829   68.1256 H   0  0  0  0  0  0
   24.9341   37.3060   66.4291 H   0  0  0  0  0  0
   27.1341   37.4931   67.6613 H   0  0  0  0  0  0
   27.0416   38.4222   66.1268 H   0  0  0  0  0  0
   27.1638   39.3377   68.9384 H   0  0  0  0  0  0
   27.9991   39.9344   67.4644 H   0  0  0  0  0  0
   26.2649   41.2338   68.8378 H   0  0  0  0  0  0
   26.5331   41.4188   67.0713 H   0  0  0  0  0  0
   24.2970   41.4686   67.2090 H   0  0  0  0  0  0
   24.2239   40.3006   68.5717 H   0  0  0  0  0  0
  1  2  1  0  0  0
  1 30  1  0  0  0
  1 31  1  0  0  0
  1 32  1  0  0  0
  2  3  2  0  0  0
  2 18  1  0  0  0
  3  4  1  0  0  0
  3  5  1  0  0  0
  4 17  1  0  0  0
  5  6  2  0  0  0
  5 16  1  0  0  0
  6  7  1  0  0  0
  7  8  1  0  0  0
  7 15  2  0  0  0
  8  9  1  0  0  0
  8 33  1  0  0  0
  8 34  1  0  0  0
  9 10  2  0  0  0
  9 14  1  0  0  0
 10 11  1  0  0  0
 10 35  1  0  0  0
 11 12  2  0  0  0
 11 36  1  0  0  0
 12 13  1  0  0  0
 12 37  1  0  0  0
 13 14  2  0  0  0
 13 38  1  0  0  0
 14 39  1  0  0  0
 15 16  1  0  0  0
 17 18  2  0  0  0
 17 19  1  0  0  0
 18 22  1  0  0  0
 19 20  2  0  0  0
 19 40  1  0  0  0
 20 21  1  0  0  0
 20 41  1  0  0  0
 21 22  2  0  0  0
 21 42  1  0  0  0
 22 23  1  0  0  0
 23 24  1  0  0  0
 24 25  1  0  0  0
 24 29  1  0  0  0
 24 43  1  0  0  0
 25 26  1  0  0  0
 25 44  1  0  0  0
 25 45  1  0  0  0
 26 27  1  0  0  0
 26 46  1  0  0  0
 26 47  1  0  0  0
 27 28  1  0  0  0
 27 48  1  0  0  0
 27 49  1  0  0  0
 28 29  1  0  0  0
 28 50  1  0  0  0
 28 51  1  0  0  0
 29 52  1  0  0  0
 29 53  1  0  0  0
M  CHG  1  27   1
M  END
> <s_m_source_file>
../4b13_ligand.sdf

> <i_m_source_file_index>
1

> <s_epik_input>
W0NIMl0xW0NIMl1bTkgyK11bQ0gyXVtDSDJdW0NIXTFPYyhbY0hdW2NIXVtjSF0yKWMoYzIzKWMoW0NIM10pYyhvMyktYzRuYyhubzQpW0NIMl1jNVtjSF1bY0hdW2NIXVtjSF1bY0hdNQ==

> <s_epik_cmdline>
J2VwaWtfYXBwJywgJy1pbWFlJywgJ2xpZ2FuZF9wcm8ubWFlJywgJy1vbWFlJywgJ2xpZ2FuZF9wcmVwLm1hZScsICctbXMnLCAnMScsICctcGgnLCAnNycsICctcGh0JywgJzAuNScsICctbnQn

> <r_lp_tautomer_probability>
1

> <r_epik_Ionization_Penalty>
  0.0023

> <r_epik_Ionization_Penalty_Charging>
  0.0023

> <r_epik_Ionization_Penalty_Neutral>
  0.0000

> <r_epik_State_Penalty>
 -0.0000

> <r_epik_Charging_Adjusted_Penalty>
0.00233358860961355

> <i_epik_Tot_Q>
1

> <i_epik_Tot_abs_Q>
1

$$$$
