4b14_ligand
                    3D
 Schrodinger Suite 2020-3.
 55 58  0  0  1  0            999 V2000
   25.5030   41.9930   63.8030 C   0  0  0  0  0  0
   26.3190   40.7780   68.1080 N   0  3  0  0  0  0
   22.0240   42.1460   62.4870 O   0  0  0  0  0  0
   24.0760   41.8180   63.4030 C   0  0  0  0  0  0
   24.7130   39.3240   65.1470 O   0  0  0  0  0  0
   23.2470   42.6710   62.5790 C   0  0  0  0  0  0
   22.6350   44.6690   61.5770 O   0  0  0  0  0  0
   22.0470   40.9840   63.1660 C   0  0  0  0  0  0
   20.9350   40.0730   63.3620 C   0  0  0  0  0  0
   21.1500   38.9390   64.1180 C   0  0  0  0  0  0
   22.3800   38.6680   64.7400 C   0  0  0  0  0  0
   23.4660   39.5620   64.5560 C   0  0  0  0  0  0
   24.9390   38.8270   66.4830 C   0  0  0  0  0  0
   26.3830   38.5050   66.9500 C   0  0  0  0  0  0
   27.1260   39.7210   67.4840 C   0  0  0  0  0  0
   24.9130   40.9680   67.7230 C   0  0  0  0  0  0
   24.2180   39.6640   67.5090 C   0  0  0  0  0  0
   23.2780   40.7230   63.8040 C   0  0  0  0  0  0
   23.5360   43.9810   61.9530 C   0  0  0  0  0  0
   21.2370   48.6840   63.3420 C   0  0  0  0  0  0
   25.0160   45.7850   61.3960 C   0  0  0  0  0  0
   24.9490   46.6880   62.5870 C   0  0  0  0  0  0
   26.0570   46.9690   63.4060 C   0  0  0  0  0  0
   25.8970   47.7910   64.5230 C   0  0  0  0  0  0
   24.6610   48.3810   64.8340 C   0  0  0  0  0  0
   23.5830   48.0680   63.9770 C   0  0  0  0  0  0
   23.7260   47.2480   62.8780 C   0  0  0  0  0  0
   22.3550   48.5960   64.2320 O   0  0  0  0  0  0
   24.8860   44.4620   61.8410 O   0  0  0  0  0  0
   25.8962   42.9209   63.3621 H   0  0  0  0  0  0
   26.0925   41.1372   63.4424 H   0  0  0  0  0  0
   25.5721   42.0499   64.8993 H   0  0  0  0  0  0
   26.2718   40.6103   69.1941 H   0  0  0  0  0  0
   26.7790   41.7570   67.9078 H   0  0  0  0  0  0
   19.9580   40.2785   62.9247 H   0  0  0  0  0  0
   20.3341   38.2261   64.2372 H   0  0  0  0  0  0
   22.4990   37.7785   65.3587 H   0  0  0  0  0  0
   24.4587   37.8491   66.3313 H   0  0  0  0  0  0
   26.3496   37.7563   67.7552 H   0  0  0  0  0  0
   26.9621   38.1074   66.1035 H   0  0  0  0  0  0
   27.6700   40.1354   66.6224 H   0  0  0  0  0  0
   27.8455   39.3278   68.2173 H   0  0  0  0  0  0
   24.3857   41.5148   68.5186 H   0  0  0  0  0  0
   24.8637   41.5442   66.7873 H   0  0  0  0  0  0
   23.1928   39.8641   67.1641 H   0  0  0  0  0  0
   24.1838   39.1223   68.4657 H   0  0  0  0  0  0
   20.3940   49.1660   63.8588 H   0  0  0  0  0  0
   20.9420   47.6735   63.0228 H   0  0  0  0  0  0
   21.5160   49.2801   62.4606 H   0  0  0  0  0  0
   24.1991   46.0322   60.7020 H   0  0  0  0  0  0
   25.9822   45.9195   60.8877 H   0  0  0  0  0  0
   27.0343   46.5478   63.1703 H   0  0  0  0  0  0
   26.7534   47.9798   65.1704 H   0  0  0  0  0  0
   24.5403   49.0445   65.6903 H   0  0  0  0  0  0
   22.8681   47.0426   62.2378 H   0  0  0  0  0  0
  1  4  1  0  0  0
  1 30  1  0  0  0
  1 31  1  0  0  0
  1 32  1  0  0  0
  2 15  1  0  0  0
  2 16  1  0  0  0
  2 33  1  0  0  0
  2 34  1  0  0  0
  3  6  1  0  0  0
  3  8  1  0  0  0
  4  6  2  0  0  0
  4 18  1  0  0  0
  5 12  1  0  0  0
  5 13  1  0  0  0
  6 19  1  0  0  0
  7 19  2  0  0  0
  8  9  1  0  0  0
  8 18  2  0  0  0
  9 10  2  0  0  0
  9 35  1  0  0  0
 10 11  1  0  0  0
 10 36  1  0  0  0
 11 12  2  0  0  0
 11 37  1  0  0  0
 12 18  1  0  0  0
 13 14  1  0  0  0
 13 17  1  0  0  0
 13 38  1  0  0  0
 14 15  1  0  0  0
 14 39  1  0  0  0
 14 40  1  0  0  0
 15 41  1  0  0  0
 15 42  1  0  0  0
 16 17  1  0  0  0
 16 43  1  0  0  0
 16 44  1  0  0  0
 17 45  1  0  0  0
 17 46  1  0  0  0
 19 29  1  0  0  0
 20 28  1  0  0  0
 20 47  1  0  0  0
 20 48  1  0  0  0
 20 49  1  0  0  0
 21 22  1  0  0  0
 21 29  1  0  0  0
 21 50  1  0  0  0
 21 51  1  0  0  0
 22 23  2  0  0  0
 22 27  1  0  0  0
 23 24  1  0  0  0
 23 52  1  0  0  0
 24 25  2  0  0  0
 24 53  1  0  0  0
 25 26  1  0  0  0
 25 54  1  0  0  0
 26 27  2  0  0  0
 26 28  1  0  0  0
 27 55  1  0  0  0
M  CHG  1   2   1
M  END
> <s_m_source_file>
../4b14_ligand.sdf

> <i_m_source_file_index>
1

> <s_epik_input>
W0NIMl0xW0NIMl1bTkgyK11bQ0gyXVtDSDJdW0NIXTFPYyhbY0hdW2NIXVtjSF0yKWMoYzIzKWMoW0NIM10pYyhvMylDKD1PKU9bQ0gyXWM0W2NIXVtjSF1bY0hdYyhbY0hdNClPW0NIM10=

> <s_epik_cmdline>
J2VwaWtfYXBwJywgJy1pbWFlJywgJ2xpZ2FuZF9wcm8ubWFlJywgJy1vbWFlJywgJ2xpZ2FuZF9wcmVwLm1hZScsICctbXMnLCAnMScsICctcGgnLCAnNycsICctcGh0JywgJzAuNScsICctbnQn

> <r_lp_tautomer_probability>
1

> <r_epik_Ionization_Penalty>
  0.0023

> <r_epik_Ionization_Penalty_Charging>
  0.0023

> <r_epik_Ionization_Penalty_Neutral>
  0.0000

> <r_epik_State_Penalty>
 -0.0000

> <r_epik_Charging_Adjusted_Penalty>
0.00233358860961355

> <i_epik_Tot_Q>
1

> <i_epik_Tot_abs_Q>
1

> <s_epik_Chemistry_Notes>
This compound has an ester and may undergo hydrolysis at high or low pH.

$$$$
