4b1c_ligand
                    3D
 Schrodinger Suite 2020-3.
 45 48  0  0  1  0            999 V2000
    5.5840    2.4870  -20.6520 C   0  0  2  0  0  0
    4.1790    2.8010  -20.3620 N   0  0  0  0  0  0
    4.1540    3.1200  -19.1080 C   0  0  0  0  0  0
    6.1270    3.4660  -21.6450 C   0  0  0  0  0  0
    5.8420    1.0800  -21.1230 C   0  0  0  0  0  0
    5.4060    0.0310  -20.3510 C   0  0  0  0  0  0
    5.6320   -1.2830  -20.6850 C   0  0  0  0  0  0
    6.3290   -1.5540  -21.8440 C   0  0  0  0  0  0
    6.7900   -0.5090  -22.6230 C   0  0  0  0  0  0
    6.5630    0.8030  -22.2660 C   0  0  0  0  0  0
    3.0640    3.4890  -18.3610 N   0  0  0  0  0  0
    5.8580    3.2720  -17.0860 C   0  0  0  0  0  0
    5.7850    4.9210  -21.4630 C   0  0  0  0  0  0
    5.2470    4.1570  -22.6500 C   0  0  0  0  0  0
    5.1950   -2.3490  -19.8010 C   0  0  0  0  0  0
    4.0080   -2.3270  -19.1080 C   0  0  0  0  0  0
    3.7350   -3.3950  -18.2720 C   0  0  0  0  0  0
    4.6330   -4.4310  -18.1440 C   0  0  0  0  0  0
    6.0140   -3.4410  -19.6000 C   0  0  0  0  0  0
    2.5450   -3.4330  -17.5170 C   0  0  0  0  0  0
    6.3760    2.6490  -19.4060 N   0  0  0  0  0  0
    5.7930   -4.4860  -18.8000 N   0  0  0  0  0  0
    5.5190    3.0110  -18.5250 C   0  0  0  0  0  0
    1.5470   -3.4700  -16.8540 C   0  0  0  0  0  0
    0.3430   -3.5170  -16.0580 C   0  0  0  0  0  0
    7.0416    2.8613  -21.7331 H   0  0  0  0  0  0
    4.8576    0.2498  -19.4348 H   0  0  0  0  0  0
    6.5151   -2.5853  -22.1438 H   0  0  0  0  0  0
    7.3433   -0.7266  -23.5366 H   0  0  0  0  0  0
    6.9500    1.6149  -22.8818 H   0  0  0  0  0  0
    2.0722    3.5572  -18.8318 H   0  0  0  0  0  0
    4.9483    3.5676  -16.5428 H   0  0  0  0  0  0
    6.6007    4.0812  -17.0252 H   0  0  0  0  0  0
    6.2734    2.3584  -16.6357 H   0  0  0  0  0  0
    5.2585    5.0571  -20.5068 H   0  0  0  0  0  0
    6.7093    5.5174  -21.4607 H   0  0  0  0  0  0
    5.7202    4.1146  -23.6421 H   0  0  0  0  0  0
    4.2693    3.6543  -22.6883 H   0  0  0  0  0  0
    3.3076   -1.4985  -19.2133 H   0  0  0  0  0  0
    4.3823   -5.2503  -17.4702 H   0  0  0  0  0  0
    6.9496   -3.4513  -20.1592 H   0  0  0  0  0  0
    0.4765   -2.9036  -15.1547 H   0  0  0  0  0  0
    0.1360   -4.5575  -15.7673 H   0  0  0  0  0  0
   -0.5005   -3.1257  -16.6456 H   0  0  0  0  0  0
    3.1819    3.7166  -17.2913 H   0  0  0  0  0  0
  1  2  1  0  0  0
  1  4  1  0  0  0
  1  5  1  0  0  0
  1 21  1  0  0  0
  2  3  2  0  0  0
  3 11  1  0  0  0
  3 23  1  0  0  0
  4 13  1  0  0  0
  4 14  1  0  0  0
  4 26  1  0  0  0
  5  6  2  0  0  0
  5 10  1  0  0  0
  6  7  1  0  0  0
  6 27  1  0  0  0
  7  8  2  0  0  0
  7 15  1  0  0  0
  8  9  1  0  0  0
  8 28  1  0  0  0
  9 10  2  0  0  0
  9 29  1  0  0  0
 10 30  1  0  0  0
 11 31  1  0  0  0
 11 45  1  0  0  0
 12 23  1  0  0  0
 12 32  1  0  0  0
 12 33  1  0  0  0
 12 34  1  0  0  0
 13 14  1  0  0  0
 13 35  1  0  0  0
 13 36  1  0  0  0
 14 37  1  0  0  0
 14 38  1  0  0  0
 15 16  2  0  0  0
 15 19  1  0  0  0
 16 17  1  0  0  0
 16 39  1  0  0  0
 17 18  2  0  0  0
 17 20  1  0  0  0
 18 22  1  0  0  0
 18 40  1  0  0  0
 19 22  2  0  0  0
 19 41  1  0  0  0
 20 24  3  0  0  0
 21 23  2  0  0  0
 24 25  1  0  0  0
 25 42  1  0  0  0
 25 43  1  0  0  0
 25 44  1  0  0  0
M  END
> <s_m_source_file>
../4b1c_ligand.sdf

> <i_m_source_file_index>
1

> <s_epik_input>
W0NIM11DKD1OMSlDKD1OL1tIXSlcW05IXVtDQF0xKFtDSF0yW0NIMl1bQ0gyXTIpYzNbY0hdYyhbY0hdW2NIXVtjSF0zKS1jNFtjSF1jKFtjSF1uW2NIXTQpQyNDW0NIM10=

> <s_epik_cmdline>
J2VwaWtfYXBwJywgJy1pbWFlJywgJ2xpZ2FuZF9wcm8ubWFlJywgJy1vbWFlJywgJ2xpZ2FuZF9wcmVwLm1hZScsICctbXMnLCAnMScsICctcGgnLCAnNycsICctcGh0JywgJzAuNScsICctbnQn

> <r_lp_tautomer_probability>
1

> <r_epik_Ionization_Penalty>
  0.0157

> <r_epik_Ionization_Penalty_Charging>
  0.0000

> <r_epik_Ionization_Penalty_Neutral>
  0.0157

> <r_epik_State_Penalty>
 -0.0000

> <r_epik_Charging_Adjusted_Penalty>
0

> <i_epik_Tot_Q>
0

> <i_epik_Tot_abs_Q>
0

> <s_epik_Chemistry_Notes>
This compound has an imine and may undergo hydrolysis.

$$$$
