4b1d_ligand
                    3D
 Schrodinger Suite 2020-3.
 52 55  0  0  1  0            999 V2000
    4.7110    4.3820  -25.5000 C   0  0  0  0  0  0
    5.4900    4.4570  -24.2210 C   0  0  0  0  0  0
    5.1330    3.5910  -23.2100 C   0  0  0  0  0  0
    5.8290    3.5610  -22.0080 C   0  0  0  0  0  0
    6.8880    4.4360  -21.8400 C   0  0  0  0  0  0
    7.2550    5.3240  -22.8340 C   0  0  0  0  0  0
    6.5450    5.3440  -24.0230 C   0  0  0  0  0  0
    6.9330    6.2180  -25.0380 O   0  0  0  0  0  0
    6.1430    7.4240  -25.0090 C   0  0  0  0  0  0
    8.4090    6.2260  -22.5500 C   0  0  0  0  0  0
    5.4510    2.5860  -20.9070 C   0  0  1  0  0  0
    6.2380    2.8010  -19.6680 N   0  0  0  0  0  0
    5.3770    3.2130  -18.8030 C   0  0  0  0  0  0
    4.0100    3.2740  -19.3710 C   0  0  0  0  0  0
    4.0420    2.8650  -20.5910 N   0  0  0  0  0  0
    2.9360    3.6680  -18.6110 N   0  0  0  0  0  0
    5.6500    3.4900  -17.3550 C   0  0  0  0  0  0
    5.7170    1.1390  -21.2760 C   0  0  0  0  0  0
    6.5340    0.7710  -22.3420 C   0  0  0  0  0  0
    6.7660   -0.5690  -22.6290 C   0  0  0  0  0  0
    6.2090   -1.5590  -21.8380 C   0  0  0  0  0  0
    5.4220   -1.2220  -20.7490 C   0  0  0  0  0  0
    5.1880    0.1240  -20.4880 C   0  0  0  0  0  0
    4.8680   -2.2350  -19.8590 C   0  0  0  0  0  0
    3.5810   -2.1690  -19.3630 C   0  0  0  0  0  0
    3.0810   -3.0170  -18.4550 N   0  0  0  0  0  0
    3.9180   -3.9960  -18.0730 C   0  0  0  0  0  0
    5.1730   -4.2120  -18.4970 N   0  0  0  0  0  0
    5.6180   -3.3000  -19.3790 C   0  0  0  0  0  0
    3.9339    3.6085  -25.4112 H   0  0  0  0  0  0
    5.3890    4.1272  -26.3279 H   0  0  0  0  0  0
    4.2386    5.3552  -25.6992 H   0  0  0  0  0  0
    4.2889    2.9171  -23.3562 H   0  0  0  0  0  0
    7.4451    4.4248  -20.9032 H   0  0  0  0  0  0
    6.4683    8.0949  -25.8177 H   0  0  0  0  0  0
    6.2765    7.9265  -24.0397 H   0  0  0  0  0  0
    5.0816    7.1705  -25.1475 H   0  0  0  0  0  0
    8.7999    6.0155  -21.5436 H   0  0  0  0  0  0
    8.0773    7.2735  -22.6029 H   0  0  0  0  0  0
    9.2006    6.0540  -23.2942 H   0  0  0  0  0  0
    3.0877    3.9930  -17.5711 H   0  0  0  0  0  0
    6.7275    3.3874  -17.1589 H   0  0  0  0  0  0
    5.0942    2.7726  -16.7333 H   0  0  0  0  0  0
    5.3286    4.5132  -17.1105 H   0  0  0  0  0  0
    6.9965    1.5422  -22.9580 H   0  0  0  0  0  0
    7.3893   -0.8415  -23.4807 H   0  0  0  0  0  0
    6.3904   -2.6078  -22.0729 H   0  0  0  0  0  0
    4.5666    0.3926  -19.6337 H   0  0  0  0  0  0
    2.9309   -1.3766  -19.7339 H   0  0  0  0  0  0
    3.5329   -4.6967  -17.3322 H   0  0  0  0  0  0
    6.6401   -3.4042  -19.7430 H   0  0  0  0  0  0
    1.9241    3.6586  -19.0422 H   0  0  0  0  0  0
  1  2  1  0  0  0
  1 30  1  0  0  0
  1 31  1  0  0  0
  1 32  1  0  0  0
  2  3  2  0  0  0
  2  7  1  0  0  0
  3  4  1  0  0  0
  3 33  1  0  0  0
  4  5  2  0  0  0
  4 11  1  0  0  0
  5  6  1  0  0  0
  5 34  1  0  0  0
  6  7  2  0  0  0
  6 10  1  0  0  0
  7  8  1  0  0  0
  8  9  1  0  0  0
  9 35  1  0  0  0
  9 36  1  0  0  0
  9 37  1  0  0  0
 10 38  1  0  0  0
 10 39  1  0  0  0
 10 40  1  0  0  0
 11 12  1  0  0  0
 11 15  1  0  0  0
 11 18  1  0  0  0
 12 13  2  0  0  0
 13 14  1  0  0  0
 13 17  1  0  0  0
 14 15  2  0  0  0
 14 16  1  0  0  0
 16 41  1  0  0  0
 16 52  1  0  0  0
 17 42  1  0  0  0
 17 43  1  0  0  0
 17 44  1  0  0  0
 18 19  2  0  0  0
 18 23  1  0  0  0
 19 20  1  0  0  0
 19 45  1  0  0  0
 20 21  2  0  0  0
 20 46  1  0  0  0
 21 22  1  0  0  0
 21 47  1  0  0  0
 22 23  2  0  0  0
 22 24  1  0  0  0
 23 48  1  0  0  0
 24 25  2  0  0  0
 24 29  1  0  0  0
 25 26  1  0  0  0
 25 49  1  0  0  0
 26 27  2  0  0  0
 27 28  1  0  0  0
 27 50  1  0  0  0
 28 29  2  0  0  0
 29 51  1  0  0  0
M  END
> <s_m_source_file>
../4b1d_ligand.sdf

> <i_m_source_file_index>
1

> <s_epik_input>
W0NIM11PYzFjKFtDSDNdKVtjSF1jKFtjSF1jMVtDSDNdKVtDQF0yKE49QyhbQ0gzXSkvQyhbTkhdMik9TlxbSF0pYzNbY0hdW2NIXVtjSF1jKFtjSF0zKS1jNFtjSF1uW2NIXW5bY0hdNA==

> <s_epik_cmdline>
J2VwaWtfYXBwJywgJy1pbWFlJywgJ2xpZ2FuZF9wcm8ubWFlJywgJy1vbWFlJywgJ2xpZ2FuZF9wcmVwLm1hZScsICctbXMnLCAnMScsICctcGgnLCAnNycsICctcGh0JywgJzAuNScsICctbnQn

> <r_lp_tautomer_probability>
1

> <r_epik_Ionization_Penalty>
  0.0031

> <r_epik_Ionization_Penalty_Charging>
  0.0000

> <r_epik_Ionization_Penalty_Neutral>
  0.0031

> <r_epik_State_Penalty>
 -0.0000

> <r_epik_Charging_Adjusted_Penalty>
0

> <i_epik_Tot_Q>
0

> <i_epik_Tot_abs_Q>
0

> <s_epik_Chemistry_Notes>
This compound has an imine and may undergo hydrolysis.

$$$$
