4b1j_ligand
                    3D
 Schrodinger Suite 2020-3.
 58 61  0  0  1  0            999 V2000
   23.1950   -4.3180   -1.2490 N   0  0  0  0  0  0
   24.0350   -5.2700   -0.8260 C   0  0  0  0  0  0
   25.3000   -5.1420   -0.4210 N   0  0  0  0  0  0
   25.6960   -3.8670   -0.4600 C   0  0  0  0  0  0
   24.9440   -2.7800   -0.8690 C   0  0  0  0  0  0
   23.6210   -3.0390   -1.2910 C   0  0  0  0  0  0
   22.7710   -2.1070   -1.7310 N   0  0  0  0  0  0
   25.6850   -1.6140   -0.7810 N   0  0  0  0  0  0
   26.8290   -2.0160   -0.3060 C   0  0  0  0  0  0
   26.9140   -3.3640   -0.0980 N   0  0  0  0  0  0
   28.0630   -4.1370    0.3870 C   0  0  1  0  0  0
   29.4320   -3.6500   -0.1100 C   0  0  2  0  0  0
   30.2510   -4.7900   -0.3840 O   0  0  0  0  0  0
   29.9360   -2.8660    1.0910 C   0  0  2  0  0  0
   31.3510   -2.8270    1.1480 O   0  0  0  0  0  0
   28.0760   -4.0890    1.8020 O   0  0  0  0  0  0
   29.3830   -3.6870    2.2560 C   0  0  2  0  0  0
   29.2760   -2.9830    3.5930 C   0  0  0  0  0  0
   28.6440   -1.7150    3.4130 O   0  0  0  0  0  0
   28.9310   -0.5290    4.3980 P   0  0  2  0  0  0
   28.0590    0.6020    4.0480 O   0  0  0  0  0  0
   30.4070   -0.2020    4.3390 O   0  5  0  0  0  0
   28.6190   -1.1950    5.8110 O   0  0  0  0  0  0
   29.4190   -1.2670    7.1970 P   0  0  1  0  0  0
   28.5270   -1.9880    8.1810 O   0  5  0  0  0  0
   30.7880   -1.7960    6.9840 O   0  0  0  0  0  0
   29.5390    0.2530    7.5920 O   0  0  0  0  0  0
   28.6190    0.8370    8.5190 C   0  0  0  0  0  0
   28.7780    2.9860    7.3040 N   0  3  0  0  0  0
   27.5210    3.7570    7.3000 C   0  0  0  0  0  0
   25.9760    4.4400    8.9890 O   0  0  0  0  0  0
   26.8120    3.3820    8.5870 C   0  0  2  0  0  0
   28.5760    4.2600   10.0160 O   0  0  0  0  0  0
   27.9580    3.1000    9.5250 C   0  0  2  0  0  0
   28.9130    2.3230    8.6140 C   0  0  1  0  0  0
   23.6331   -6.2831   -0.8102 H   0  0  0  0  0  0
   21.7550   -2.3920   -2.0418 H   0  0  0  0  0  0
   23.0871   -1.0546   -1.7825 H   0  0  0  0  0  0
   27.6513   -1.3333   -0.0919 H   0  0  0  0  0  0
   27.8796   -5.1666    0.0461 H   0  0  0  0  0  0
   29.4626   -3.0899   -1.0562 H   0  0  0  0  0  0
   30.0066   -5.4529   -1.2271 H   0  0  0  0  0  0
   29.6909   -1.7938    1.0766 H   0  0  0  0  0  0
   31.9173   -2.2764    0.3824 H   0  0  0  0  0  0
   30.0394   -4.5431    2.4710 H   0  0  0  0  0  0
   28.6784   -3.5963    4.2835 H   0  0  0  0  0  0
   30.2826   -2.8353    4.0113 H   0  0  0  0  0  0
   27.5902    0.6789    8.1633 H   0  0  0  0  0  0
   28.7427    0.3651    9.5049 H   0  0  0  0  0  0
   28.7490    2.2332    6.5024 H   0  0  0  0  0  0
   29.6261    3.6665    7.1374 H   0  0  0  0  0  0
   27.7505    4.8323    7.2662 H   0  0  0  0  0  0
   26.9247    3.4815    6.4177 H   0  0  0  0  0  0
   25.1113    4.7231    8.3708 H   0  0  0  0  0  0
   26.0833    2.5589    8.5491 H   0  0  0  0  0  0
   28.0251    4.9342   10.6883 H   0  0  0  0  0  0
   27.6591    2.6344   10.4757 H   0  0  0  0  0  0
   29.9485    2.3574    8.9836 H   0  0  0  0  0  0
  1  2  1  0  0  0
  1  6  2  0  0  0
  2  3  2  0  0  0
  2 36  1  0  0  0
  3  4  1  0  0  0
  4  5  2  0  0  0
  4 10  1  0  0  0
  5  6  1  0  0  0
  5  8  1  0  0  0
  6  7  1  0  0  0
  7 37  1  0  0  0
  7 38  1  0  0  0
  8  9  2  0  0  0
  9 10  1  0  0  0
  9 39  1  0  0  0
 10 11  1  0  0  0
 11 12  1  0  0  0
 11 16  1  0  0  0
 11 40  1  0  0  0
 12 13  1  0  0  0
 12 14  1  0  0  0
 12 41  1  0  0  0
 13 42  1  0  0  0
 14 15  1  0  0  0
 14 17  1  0  0  0
 14 43  1  0  0  0
 15 44  1  0  0  0
 16 17  1  0  0  0
 17 18  1  0  0  0
 17 45  1  0  0  0
 18 19  1  0  0  0
 18 46  1  0  0  0
 18 47  1  0  0  0
 19 20  1  0  0  0
 20 21  2  0  0  0
 20 22  1  0  0  0
 20 23  1  0  0  0
 23 24  1  0  0  0
 24 25  1  0  0  0
 24 26  2  0  0  0
 24 27  1  0  0  0
 27 28  1  0  0  0
 28 35  1  0  0  0
 28 48  1  0  0  0
 28 49  1  0  0  0
 29 30  1  0  0  0
 29 35  1  0  0  0
 29 50  1  0  0  0
 29 51  1  0  0  0
 30 32  1  0  0  0
 30 52  1  0  0  0
 30 53  1  0  0  0
 31 32  1  0  0  0
 31 54  1  0  0  0
 32 34  1  0  0  0
 32 55  1  0  0  0
 33 34  1  0  0  0
 33 56  1  0  0  0
 34 35  1  0  0  0
 34 57  1  0  0  0
 35 58  1  0  0  0
M  CHG  3  22  -1  25  -1  29   1
M  END
> <s_m_source_file>
../4b1j_ligand.sdf

> <i_m_source_file_index>
1

> <s_epik_input>
bjFbY0hdbmMoW05IMl0pYyhjMTIpbltjSF1uMltDQEhdM1tDQEhdKFtPSF0pW0NASF0oW09IXSlbQ0BIXShPMylbQ0gyXU9bUEBdKD1PKShbT0hdKU9bUEBdKD1PKShbT0hdKU9bQ0gyXVtDQEhdKFtDQEhdNFtPSF0pW05IMitdW0NIMl1bQ0BASF00W09IXQ==

> <s_epik_cmdline>
J2VwaWtfYXBwJywgJy1pbWFlJywgJ2xpZ2FuZF9wcm8ubWFlJywgJy1vbWFlJywgJ2xpZ2FuZF9wcmVwLm1hZScsICctbXMnLCAnMScsICctcGgnLCAnNycsICctcGh0JywgJzAuNScsICctbnQn

> <r_lp_tautomer_probability>
0.999997216410988

> <r_epik_Ionization_Penalty>
  0.0158

> <r_epik_Ionization_Penalty_Charging>
  0.0152

> <r_epik_Ionization_Penalty_Neutral>
  0.0006

> <r_epik_State_Penalty>
  0.0116

> <r_epik_Charging_Adjusted_Penalty>
0.0267967268555876

> <i_epik_Tot_Q>
-1

> <i_epik_Tot_abs_Q>
3

> <s_epik_Chemistry_Notes>
This compound contains an acetal/aminal-like group ( X-CH(R)-Y where X, Y are N, S, or O) that may be acid/base labile, releasing an aldehyde.

$$$$
