4b2l_ligand
                    3D
 Schrodinger Suite 2020-3.
 30 31  0  0  1  0            999 V2000
   23.9010    7.1510   -5.5770 N   0  0  0  0  0  0
   22.5490    7.3770   -5.0360 C   0  0  2  0  0  0
   21.8560    8.5110   -5.8000 C   0  0  0  0  0  0
   20.4990    8.5020   -5.9130 O   0  0  0  0  0  0
   22.6450    7.7650   -3.5630 C   0  0  0  0  0  0
   21.2500    7.9980   -2.9560 C   0  0  0  0  0  0
   20.6420    9.1700   -2.7540 C   0  0  0  0  0  0
   20.3840    7.0090   -2.5150 C   0  0  0  0  0  0
   19.4340    8.9730   -2.2010 N   0  3  0  0  0  0
   19.2570    7.6660   -2.0420 C   0  0  0  0  0  0
   20.4640    5.6220   -2.4730 C   0  0  0  0  0  0
   18.2000    6.9380   -1.5230 C   0  0  0  0  0  0
   19.3990    4.8910   -1.9490 C   0  0  0  0  0  0
   18.2830    5.5600   -1.4830 C   0  0  0  0  0  0
   22.5110    9.4210   -6.3120 O   0  0  0  0  0  0
   20.0490    9.6360   -6.6550 C   0  0  0  0  0  0
   24.4945    8.0718   -5.4773 H   0  0  0  0  0  0
   24.3883    6.3384   -5.0183 H   0  0  0  0  0  0
   21.9987    6.4324   -5.1584 H   0  0  0  0  0  0
   23.1408    6.9584   -3.0030 H   0  0  0  0  0  0
   23.2291    8.6919   -3.4653 H   0  0  0  0  0  0
   21.1455   10.1066   -3.0358 H   0  0  0  0  0  0
   21.3513    5.1106   -2.8463 H   0  0  0  0  0  0
   17.3114    7.4472   -1.1498 H   0  0  0  0  0  0
   19.4459    3.8028   -1.9072 H   0  0  0  0  0  0
   17.4501    4.9875   -1.0749 H   0  0  0  0  0  0
   18.9522    9.6102   -6.7349 H   0  0  0  0  0  0
   20.4906    9.6139   -7.6622 H   0  0  0  0  0  0
   20.3576   10.5574   -6.1395 H   0  0  0  0  0  0
   18.7902    9.8332   -1.9652 H   0  0  0  0  0  0
  1  2  1  0  0  0
  1 17  1  0  0  0
  1 18  1  0  0  0
  2  3  1  0  0  0
  2  5  1  0  0  0
  2 19  1  0  0  0
  3  4  1  0  0  0
  3 15  2  0  0  0
  4 16  1  0  0  0
  5  6  1  0  0  0
  5 20  1  0  0  0
  5 21  1  0  0  0
  6  7  2  0  0  0
  6  8  1  0  0  0
  7  9  1  0  0  0
  7 22  1  0  0  0
  8 10  2  0  0  0
  8 11  1  0  0  0
  9 10  1  0  0  0
  9 30  1  0  0  0
 10 12  1  0  0  0
 11 13  2  0  0  0
 11 23  1  0  0  0
 12 14  2  0  0  0
 12 24  1  0  0  0
 13 14  1  0  0  0
 13 25  1  0  0  0
 14 26  1  0  0  0
 16 27  1  0  0  0
 16 28  1  0  0  0
 16 29  1  0  0  0
M  CHG  1   9   1
M  END
> <s_m_source_file>
../4b2l_ligand.sdf

> <i_m_source_file_index>
1

> <s_epik_input>
W0NIM11PQyg9TylbQ0BASF0oW05IMytdKVtDSDJdYzFbY0hdW25IXWMoYzEyKVtjSF1bY0hdW2NIXVtjSF0y

> <s_epik_cmdline>
J2VwaWtfYXBwJywgJy1pbWFlJywgJ2xpZ2FuZF9wcm8ubWFlJywgJy1vbWFlJywgJ2xpZ2FuZF9wcmVwLm1hZScsICctbXMnLCAnMScsICctcGgnLCAnNycsICctcGh0JywgJzAuNScsICctbnQn

> <r_epik_Ionization_Penalty>
  0.2414

> <r_epik_Ionization_Penalty_Charging>
  0.0000

> <r_epik_Ionization_Penalty_Neutral>
  0.2414

> <r_epik_State_Penalty>
  0.2324

> <r_epik_Charging_Adjusted_Penalty>
0.232375280829377

> <i_epik_Tot_Q>
1

> <i_epik_Tot_abs_Q>
1

> <s_epik_Chemistry_Notes>
This compound has an ester and may undergo hydrolysis at high or low pH.

$$$$
