4b34_ligand
                    3D
 Schrodinger Suite 2020-3.
 16 17  0  0  1  0            999 V2000
   18.5620    5.3810   -1.6920 C   0  0  0  0  0  0
   20.3380    8.1850   -3.0520 N   0  0  0  0  0  0
   18.2140    8.1340   -1.7700 S   0  0  0  0  0  0
   19.3440    4.3060   -2.0550 C   0  0  0  0  0  0
   19.3780   10.3080   -2.7020 N   0  0  0  0  0  0
   20.5100    4.5050   -2.7850 C   0  0  0  0  0  0
   20.8970    5.7900   -3.1440 C   0  0  0  0  0  0
   20.1130    6.8820   -2.7830 C   0  0  0  0  0  0
   18.9370    6.6520   -2.0490 C   0  0  0  0  0  0
   19.3920    8.9900   -2.5720 C   0  0  0  0  0  0
   17.6466    5.2220   -1.1220 H   0  0  0  0  0  0
   19.0474    3.2969   -1.7689 H   0  0  0  0  0  0
   20.1886   10.8157   -3.2453 H   0  0  0  0  0  0
   18.5558   10.8949   -2.2667 H   0  0  0  0  0  0
   21.1218    3.6512   -3.0763 H   0  0  0  0  0  0
   21.8162    5.9434   -3.7094 H   0  0  0  0  0  0
  1  4  1  0  0  0
  1  9  2  0  0  0
  1 11  1  0  0  0
  2  8  1  0  0  0
  2 10  2  0  0  0
  3  9  1  0  0  0
  3 10  1  0  0  0
  4  6  2  0  0  0
  4 12  1  0  0  0
  5 10  1  0  0  0
  5 13  1  0  0  0
  5 14  1  0  0  0
  6  7  1  0  0  0
  6 15  1  0  0  0
  7  8  2  0  0  0
  7 16  1  0  0  0
  8  9  1  0  0  0
M  END
> <s_m_source_file>
../4b34_ligand.sdf

> <i_m_source_file_index>
1

> <s_epik_input>
W2NIXTFbY0hdW2NIXVtjSF1jKGMxMilzYyhuMilbTkgyXQ==

> <s_epik_cmdline>
J2VwaWtfYXBwJywgJy1pbWFlJywgJ2xpZ2FuZF9wcm8ubWFlJywgJy1vbWFlJywgJ2xpZ2FuZF9wcmVwLm1hZScsICctbXMnLCAnMScsICctcGgnLCAnNycsICctcGh0JywgJzAuNScsICctbnQn

> <r_lp_tautomer_probability>
1

> <r_epik_Ionization_Penalty>
  0.0010

> <r_epik_Ionization_Penalty_Charging>
  0.0000

> <r_epik_Ionization_Penalty_Neutral>
  0.0010

> <r_epik_State_Penalty>
 -0.0000

> <r_epik_Charging_Adjusted_Penalty>
0

> <i_epik_Tot_Q>
0

> <i_epik_Tot_abs_Q>
0

$$$$
