4b35_ligand
                    3D
 Schrodinger Suite 2020-3.
 21 22  0  0  1  0            999 V2000
   23.3260    3.6580   -4.1880 C   0  0  0  0  0  0
   22.1380    4.0960   -3.5240 O   0  0  0  0  0  0
   22.0010    5.4390   -3.5390 C   0  0  0  0  0  0
   22.8400    6.1660   -4.0710 O   0  0  0  0  0  0
   20.7660    6.0140   -2.8600 C   0  0  0  0  0  0
   19.8580    5.1270   -2.3030 C   0  0  0  0  0  0
   18.7220    5.6150   -1.6760 C   0  0  0  0  0  0
   18.4720    6.9650   -1.5990 C   0  0  0  0  0  0
   19.3860    7.8530   -2.1550 C   0  0  0  0  0  0
   20.5270    7.3780   -2.7920 C   0  0  0  0  0  0
   21.2040    8.4380   -3.2280 C   0  0  0  0  0  0
   20.5170    9.5280   -2.8890 C   0  0  0  0  0  0
   19.4050    9.1720   -2.2360 N   0  0  0  0  0  0
   23.3863    2.5605   -4.1455 H   0  0  0  0  0  0
   24.2055    4.0931   -3.6909 H   0  0  0  0  0  0
   23.3001    3.9835   -5.2384 H   0  0  0  0  0  0
   20.0360    4.0530   -2.3576 H   0  0  0  0  0  0
   18.0127    4.9145   -1.2352 H   0  0  0  0  0  0
   17.5706    7.3335   -1.1093 H   0  0  0  0  0  0
   22.1515    8.4178   -3.7664 H   0  0  0  0  0  0
   20.7344   10.5917   -3.0656 H   0  0  0  0  0  0
  1  2  1  0  0  0
  1 14  1  0  0  0
  1 15  1  0  0  0
  1 16  1  0  0  0
  2  3  1  0  0  0
  3  4  2  0  0  0
  3  5  1  0  0  0
  5  6  2  0  0  0
  5 10  1  0  0  0
  6  7  1  0  0  0
  6 17  1  0  0  0
  7  8  2  0  0  0
  7 18  1  0  0  0
  8  9  1  0  0  0
  8 19  1  0  0  0
  9 10  2  0  0  0
  9 13  1  0  0  0
 10 11  1  0  0  0
 11 12  1  0  0  0
 11 20  1  0  0  0
 12 13  2  0  0  0
 12 21  1  0  0  0
M  END
> <s_m_source_file>
../4b35_ligand.sdf

> <i_m_source_file_index>
1

> <s_epik_input>
W0NIM11PQyg9TyljKFtjSF1bY0hdW2NIXTEpYyhjMTIpW0NIMl1bQ0hdPU4y

> <s_epik_cmdline>
J2VwaWtfYXBwJywgJy1pbWFlJywgJ2xpZ2FuZF9wcm8ubWFlJywgJy1vbWFlJywgJ2xpZ2FuZF9wcmVwLm1hZScsICctbXMnLCAnMScsICctcGgnLCAnNycsICctcGh0JywgJzAuNScsICctbnQn

> <r_epik_Ionization_Penalty>
  0.0150

> <r_epik_Ionization_Penalty_Charging>
  0.0000

> <r_epik_Ionization_Penalty_Neutral>
  0.0150

> <r_epik_State_Penalty>
  0.0118

> <r_epik_Charging_Adjusted_Penalty>
0.011805499518601

> <i_epik_Tot_Q>
0

> <i_epik_Tot_abs_Q>
0

> <s_epik_Chemistry_Notes>
This compound has an ester and may undergo hydrolysis at high or low pH. This compound has an imine and may undergo hydrolysis.

$$$$
