4b3b_ligand
                    3D
 Schrodinger Suite 2020-3.
 69 70  0  0  1  0            999 V2000
   28.4970    1.8370   39.7100 C   0  0  0  0  0  0
   28.1370    2.9620   40.0540 O   0  0  0  0  0  0
   29.8520    1.5410   39.1350 C   0  0  0  0  0  0
   27.7330    0.8240   40.0860 N   0  0  0  0  0  0
   26.4920    0.9700   40.8140 C   0  0  2  0  0  0
   26.7530    1.3250   42.2800 C   0  0  0  0  0  0
   27.6980    0.8160   42.9090 O   0  0  0  0  0  0
   25.6710   -0.3200   40.7190 C   0  0  0  0  0  0
   25.1160   -0.5760   39.3510 C   0  0  0  0  0  0
   23.8770   -0.0700   39.0000 C   0  0  0  0  0  0
   25.8350   -1.2930   38.4230 C   0  0  0  0  0  0
   23.3520   -0.2910   37.7510 C   0  0  0  0  0  0
   25.3190   -1.5130   37.1630 C   0  0  0  0  0  0
   24.0820   -1.0010   36.8230 C   0  0  0  0  0  0
   25.9380    2.2300   42.8090 N   0  0  0  0  0  0
   26.0180    2.5670   44.2300 C   0  0  2  0  0  0
   24.6190    2.6060   44.7810 C   0  0  0  0  0  0
   23.6730    2.9530   44.0790 O   0  0  0  0  0  0
   26.6240    3.9440   44.4580 C   0  0  0  0  0  0
   27.9980    4.0980   43.9120 C   0  0  0  0  0  0
   29.1210    3.5890   44.5280 N   0  0  0  0  0  0
   28.4290    4.7150   42.7920 C   0  0  0  0  0  0
   30.1870    3.8890   43.8080 C   0  0  0  0  0  0
   29.7950    4.5690   42.7470 N   0  0  0  0  0  0
   24.4830    2.2990   46.0640 N   0  0  0  0  0  0
   23.1860    2.3780   46.7030 C   0  0  2  0  0  0
   22.6160    3.8000   46.5860 C   0  0  0  0  0  0
   23.3580    4.7890   46.6450 O   0  0  0  0  0  0
   23.2350    1.9070   48.1810 C   0  0  2  0  0  0
   21.9080    1.8980   48.6990 O   0  0  0  0  0  0
   24.0860    2.8170   49.0320 C   0  0  0  0  0  0
   21.2990    3.9030   46.4200 N   0  0  0  0  0  0
   20.6400    5.2010   46.5020 C   0  0  2  0  0  0
   20.3290    5.5780   47.9730 C   0  0  0  0  0  0
   19.8870    6.6860   48.2560 O   0  0  0  0  0  0
   19.3670    5.2170   45.6430 C   0  0  0  0  0  0
   20.5560    4.6490   48.8960 N   0  0  0  0  0  0
   30.3543    2.4846   38.8756 H   0  0  0  0  0  0
   29.7399    0.9246   38.2308 H   0  0  0  0  0  0
   30.4544    0.9969   39.8773 H   0  0  0  0  0  0
   28.0948   -0.1778   39.8110 H   0  0  0  0  0  0
   25.9683    1.8014   40.3195 H   0  0  0  0  0  0
   26.3057   -1.1788   40.9828 H   0  0  0  0  0  0
   24.8205   -0.2654   41.4144 H   0  0  0  0  0  0
   23.3095    0.5126   39.7258 H   0  0  0  0  0  0
   26.8164   -1.6888   38.6845 H   0  0  0  0  0  0
   22.3643    0.0926   37.4952 H   0  0  0  0  0  0
   25.8878   -2.0914   36.4349 H   0  0  0  0  0  0
   23.6835   -1.1586   35.8208 H   0  0  0  0  0  0
   25.1970    2.7281   42.1665 H   0  0  0  0  0  0
   26.6460    1.7909   44.6918 H   0  0  0  0  0  0
   26.1388    4.7868   44.9721 H   0  0  0  0  0  0
   27.9075    5.2608   41.9919 H   0  0  0  0  0  0
   31.2155    3.6206   44.0491 H   0  0  0  0  0  0
   25.3631    1.9828   46.6432 H   0  0  0  0  0  0
   22.5641    1.6791   46.1244 H   0  0  0  0  0  0
   23.6270    0.8825   48.2624 H   0  0  0  0  0  0
   21.1317    1.2892   48.2123 H   0  0  0  0  0  0
   25.1136    2.8308   48.6398 H   0  0  0  0  0  0
   24.0940    2.4483   50.0683 H   0  0  0  0  0  0
   23.6708    3.8354   49.0083 H   0  0  0  0  0  0
   20.7075    2.9975   46.2194 H   0  0  0  0  0  0
   21.3676    5.9129   46.0851 H   0  0  0  0  0  0
   19.6201    4.9460   44.6074 H   0  0  0  0  0  0
   18.9252    6.2242   45.6610 H   0  0  0  0  0  0
   18.6440    4.4922   46.0454 H   0  0  0  0  0  0
   20.9533    3.6665   48.6014 H   0  0  0  0  0  0
   20.3465    4.8626   49.9545 H   0  0  0  0  0  0
   29.0261    3.0337   45.4728 H   0  0  0  0  0  0
  1  2  2  0  0  0
  1  3  1  0  0  0
  1  4  1  0  0  0
  3 38  1  0  0  0
  3 39  1  0  0  0
  3 40  1  0  0  0
  4  5  1  0  0  0
  4 41  1  0  0  0
  5  6  1  0  0  0
  5  8  1  0  0  0
  5 42  1  0  0  0
  6  7  2  0  0  0
  6 15  1  0  0  0
  8  9  1  0  0  0
  8 43  1  0  0  0
  8 44  1  0  0  0
  9 10  2  0  0  0
  9 11  1  0  0  0
 10 12  1  0  0  0
 10 45  1  0  0  0
 11 13  2  0  0  0
 11 46  1  0  0  0
 12 14  2  0  0  0
 12 47  1  0  0  0
 13 14  1  0  0  0
 13 48  1  0  0  0
 14 49  1  0  0  0
 15 16  1  0  0  0
 15 50  1  0  0  0
 16 17  1  0  0  0
 16 19  1  0  0  0
 16 51  1  0  0  0
 17 18  2  0  0  0
 17 25  1  0  0  0
 19 20  2  0  0  0
 19 52  1  0  0  0
 20 21  1  0  0  0
 20 22  1  0  0  0
 21 23  1  0  0  0
 21 69  1  0  0  0
 22 24  2  0  0  0
 22 53  1  0  0  0
 23 24  1  0  0  0
 23 54  1  0  0  0
 25 26  1  0  0  0
 25 55  1  0  0  0
 26 27  1  0  0  0
 26 29  1  0  0  0
 26 56  1  0  0  0
 27 28  2  0  0  0
 27 32  1  0  0  0
 29 30  1  0  0  0
 29 31  1  0  0  0
 29 57  1  0  0  0
 30 58  1  0  0  0
 31 59  1  0  0  0
 31 60  1  0  0  0
 31 61  1  0  0  0
 32 33  1  0  0  0
 32 62  1  0  0  0
 33 34  1  0  0  0
 33 36  1  0  0  0
 33 63  1  0  0  0
 34 35  2  0  0  0
 34 37  1  0  0  0
 36 64  1  0  0  0
 36 65  1  0  0  0
 36 66  1  0  0  0
 37 67  1  0  0  0
 37 68  1  0  0  0
M  END
> <s_m_source_file>
../4b3b_ligand.sdf

> <i_m_source_file_index>
1

> <s_epik_input>
W2NIXTFbY0hdW2NIXVtjSF1bY0hdYzFbQ0gyXVtDQEhdKFtOSF1DKD1PKVtDSDNdKUMoPU8pW05IXVtDQEBIXShbQ0gyXUMyPU5bQ0gyXU49W0NIXTIpQyg9TylbTkhdW0NAQEhdKFtDQEhdKFtPSF0pW0NIM10pQyg9TylbTkhdW0NAQEhdKFtDSDNdKUMoPU8pW05IMl0=

> <s_epik_cmdline>
J2VwaWtfYXBwJywgJy1pbWFlJywgJ2xpZ2FuZF9wcm8ubWFlJywgJy1vbWFlJywgJ2xpZ2FuZF9wcmVwLm1hZScsICctbXMnLCAnMScsICctcGgnLCAnNycsICctcGh0JywgJzAuNScsICctbnQn

> <r_lp_tautomer_probability>
1

> <r_epik_Ionization_Penalty>
  0.0000

> <r_epik_Ionization_Penalty_Charging>
  0.0000

> <r_epik_Ionization_Penalty_Neutral>
  0.0000

> <r_epik_State_Penalty>
 -0.0000

> <r_epik_Charging_Adjusted_Penalty>
5.61626537363368e-07

> <i_epik_Tot_Q>
0

> <i_epik_Tot_abs_Q>
0

> <s_epik_Chemistry_Notes>
This compound has an imine and may undergo hydrolysis.

$$$$
