4b3c_ligand
                    3D
 Schrodinger Suite 2020-3.
 16 17  0  0  1  0            999 V2000
    9.1680   17.1980   23.6190 O   0  0  0  0  0  0
    9.6650   16.8520   22.4040 C   0  0  0  0  0  0
   10.3780   17.7850   21.6560 C   0  0  0  0  0  0
   10.8820   17.4280   20.4120 C   0  0  0  0  0  0
   10.6740   16.1380   19.9250 C   0  0  0  0  0  0
   11.0350   15.5370   18.7930 N   0  0  0  0  0  0
    9.4600   15.5630   21.9130 C   0  0  0  0  0  0
    9.9670   15.2100   20.6730 C   0  0  0  0  0  0
    9.9280   14.0830   19.9690 C   0  0  0  0  0  0
   10.5790   14.2850   18.8230 C   0  0  0  0  0  0
    9.3277   18.2138   24.0096 H   0  0  0  0  0  0
   10.5398   18.7904   22.0447 H   0  0  0  0  0  0
   11.4382   18.1536   19.8185 H   0  0  0  0  0  0
    8.9026   14.8355   22.5030 H   0  0  0  0  0  0
    9.4469   13.1542   20.2756 H   0  0  0  0  0  0
   10.7699   13.6097   17.9759 H   0  0  0  0  0  0
  1  2  1  0  0  0
  1 11  1  0  0  0
  2  3  2  0  0  0
  2  7  1  0  0  0
  3  4  1  0  0  0
  3 12  1  0  0  0
  4  5  2  0  0  0
  4 13  1  0  0  0
  5  6  1  0  0  0
  5  8  1  0  0  0
  6 10  2  0  0  0
  7  8  2  0  0  0
  7 14  1  0  0  0
  8  9  1  0  0  0
  9 10  1  0  0  0
  9 15  1  0  0  0
 10 16  1  0  0  0
M  END
> <s_m_source_file>
../4b3c_ligand.sdf

> <i_m_source_file_index>
1

> <s_epik_input>
W2NIXTFbY0hdYyhbT0hdKVtjSF1jKGMxMilbQ0gyXVtDSF09TjI=

> <s_epik_cmdline>
J2VwaWtfYXBwJywgJy1pbWFlJywgJ2xpZ2FuZF9wcm8ubWFlJywgJy1vbWFlJywgJ2xpZ2FuZF9wcmVwLm1hZScsICctbXMnLCAnMScsICctcGgnLCAnNycsICctcGh0JywgJzAuNScsICctbnQn

> <r_lp_tautomer_probability>
1

> <r_epik_Ionization_Penalty>
  0.0776

> <r_epik_Ionization_Penalty_Charging>
  0.0000

> <r_epik_Ionization_Penalty_Neutral>
  0.0776

> <r_epik_State_Penalty>
 -0.0000

> <r_epik_Charging_Adjusted_Penalty>
0

> <i_epik_Tot_Q>
0

> <i_epik_Tot_abs_Q>
0

> <s_epik_Chemistry_Notes>
This compound has an imine and may undergo hydrolysis.

$$$$
