4b3d_ligand
                    3D
 Schrodinger Suite 2020-3.
 18 19  0  0  1  0            999 V2000
    5.3270    6.8150   -1.0770 C   0  0  0  0  0  0
    4.4140    6.1330   -1.8700 C   0  0  0  0  0  0
    4.6860    4.8320   -2.2770 C   0  0  0  0  0  0
    5.8740    4.2210   -1.8920 C   0  0  0  0  0  0
    6.3820    3.0170   -2.1310 N   0  0  0  0  0  0
    6.5140    6.2000   -0.6910 C   0  0  0  0  0  0
    6.7850    4.8980   -1.1020 C   0  0  0  0  0  0
    7.8140    4.0850   -0.8920 C   0  0  0  0  0  0
    7.5670    2.9420   -1.5240 C   0  0  0  0  0  0
    5.0190    8.2440   -0.6310 C   0  0  0  0  0  0
    3.4855    6.6169   -2.1729 H   0  0  0  0  0  0
    3.9697    4.2922   -2.8964 H   0  0  0  0  0  0
    7.2299    6.7365   -0.0683 H   0  0  0  0  0  0
    8.7035    4.3144   -0.3053 H   0  0  0  0  0  0
    8.1671    2.0233   -1.6008 H   0  0  0  0  0  0
    4.0427    8.5514   -1.0339 H   0  0  0  0  0  0
    5.8002    8.9215   -1.0060 H   0  0  0  0  0  0
    4.9924    8.2875    0.4678 H   0  0  0  0  0  0
  1  2  2  0  0  0
  1  6  1  0  0  0
  1 10  1  0  0  0
  2  3  1  0  0  0
  2 11  1  0  0  0
  3  4  2  0  0  0
  3 12  1  0  0  0
  4  5  1  0  0  0
  4  7  1  0  0  0
  5  9  2  0  0  0
  6  7  2  0  0  0
  6 13  1  0  0  0
  7  8  1  0  0  0
  8  9  1  0  0  0
  8 14  1  0  0  0
  9 15  1  0  0  0
 10 16  1  0  0  0
 10 17  1  0  0  0
 10 18  1  0  0  0
M  END
> <s_m_source_file>
../4b3d_ligand.sdf

> <i_m_source_file_index>
1

> <s_epik_input>
W2NIXTFbY0hdYyhbQ0gzXSlbY0hdYyhjMTIpW0NIMl1bQ0hdPU4y

> <s_epik_cmdline>
J2VwaWtfYXBwJywgJy1pbWFlJywgJ2xpZ2FuZF9wcm8ubWFlJywgJy1vbWFlJywgJ2xpZ2FuZF9wcmVwLm1hZScsICctbXMnLCAnMScsICctcGgnLCAnNycsICctcGh0JywgJzAuNScsICctbnQn

> <r_epik_Ionization_Penalty>
  0.0312

> <r_epik_Ionization_Penalty_Charging>
  0.0000

> <r_epik_Ionization_Penalty_Neutral>
  0.0312

> <r_epik_State_Penalty>
  0.0257

> <r_epik_Charging_Adjusted_Penalty>
0.0257366188240057

> <i_epik_Tot_Q>
0

> <i_epik_Tot_abs_Q>
0

> <s_epik_Chemistry_Notes>
This compound has an imine and may undergo hydrolysis.

$$$$
