4b3u_ligand
                    3D
 Schrodinger Suite 2020-3.
 35 36  0  0  1  0            999 V2000
   38.7000    8.1710   12.0700 C   0  0  0  0  0  0
   39.0110    7.1390   11.1840 C   0  0  0  0  0  0
   38.6750    5.8220   11.4980 C   0  0  0  0  0  0
   39.0530    4.7350   10.5070 C   0  0  0  0  0  0
   39.5510    2.5570   12.1210 O   0  5  0  0  0  0
   38.5540    2.4690   11.4010 C   0  0  0  0  0  0
   38.1980    3.5260   10.5520 N   0  3  0  0  0  0
   37.0480    3.4030    9.7370 C   0  0  0  0  0  0
   36.7000    4.3970    8.9100 N   0  0  0  0  0  0
   37.7630    1.3170   11.4300 N   0  0  0  0  0  0
   36.6300    1.1890   10.6300 C   0  0  0  0  0  0
   36.2740    2.2360    9.7830 C   0  0  3  0  0  0
   35.2070    2.1380    8.9860 N   0  0  1  0  0  0
   35.2480    1.2590    7.8060 C   0  0  0  0  0  0
   37.7300    6.5860   13.5900 C   0  0  0  0  0  0
   38.0440    5.5530   12.7080 C   0  0  0  0  0  0
   35.9620    0.1470   10.7090 O   0  0  0  0  0  0
   35.4890    2.1150    6.5570 C   0  0  0  0  0  0
   38.0510    7.8910   13.2670 C   0  0  0  0  0  0
   38.9664    9.1987   11.8231 H   0  0  0  0  0  0
   39.5173    7.3622   10.2449 H   0  0  0  0  0  0
   38.9853    5.1323    9.4835 H   0  0  0  0  0  0
   40.0827    4.4016   10.7035 H   0  0  0  0  0  0
   37.3038    5.3156    8.8695 H   0  0  0  0  0  0
   36.8879    1.7973    8.9826 H   0  0  0  0  0  0
   34.3495    1.7652    9.5655 H   0  0  0  0  0  0
   36.0637    0.5299    7.9201 H   0  0  0  0  0  0
   34.2903    0.7260    7.7123 H   0  0  0  0  0  0
   37.2316    6.3646   14.5338 H   0  0  0  0  0  0
   37.7927    4.5250   12.9691 H   0  0  0  0  0  0
   35.5213    1.4668    5.6689 H   0  0  0  0  0  0
   36.4460    2.6481    6.6569 H   0  0  0  0  0  0
   34.6726    2.8442    6.4492 H   0  0  0  0  0  0
   37.7953    8.7005   13.9507 H   0  0  0  0  0  0
   35.8104    4.2949    8.2711 H   0  0  0  0  0  0
  1  2  2  0  0  0
  1 19  1  0  0  0
  1 20  1  0  0  0
  2  3  1  0  0  0
  2 21  1  0  0  0
  3  4  1  0  0  0
  3 16  2  0  0  0
  4  7  1  0  0  0
  4 22  1  0  0  0
  4 23  1  0  0  0
  5  6  1  0  0  0
  6  7  1  0  0  0
  6 10  2  0  0  0
  7  8  2  0  0  0
  8  9  1  0  0  0
  8 12  1  0  0  0
  9 24  1  0  0  0
  9 35  1  0  0  0
 10 11  1  0  0  0
 11 12  1  0  0  0
 11 17  2  0  0  0
 12 13  1  0  0  0
 12 25  1  0  0  0
 13 14  1  0  0  0
 13 26  1  0  0  0
 14 18  1  0  0  0
 14 27  1  0  0  0
 14 28  1  0  0  0
 15 16  1  0  0  0
 15 19  2  0  0  0
 15 29  1  0  0  0
 16 30  1  0  0  0
 18 31  1  0  0  0
 18 32  1  0  0  0
 18 33  1  0  0  0
 19 34  1  0  0  0
M  CHG  2   5  -1   7   1
M  END
> <s_m_source_file>
../4b3u_ligand.sdf

> <i_m_source_file_index>
1

> <s_epik_input>
W2NIXTFbY0hdW2NIXVtjSF1bY0hdYzFbQ0gyXU4oQzI9TykvQyg9TlxbSF0pW0NIXShDKD1PKVtOSF0yKVtOSDIrXVtDSDJdW0NIM10=

> <s_epik_cmdline>
J2VwaWtfYXBwJywgJy1pbWFlJywgJ2xpZ2FuZF9wcm8ubWFlJywgJy1vbWFlJywgJ2xpZ2FuZF9wcmVwLm1hZScsICctbXMnLCAnMScsICctcGgnLCAnNycsICctcGh0JywgJzAuNScsICctbnQn

> <r_epik_Ionization_Penalty>
  0.4216

> <r_epik_Ionization_Penalty_Charging>
  0.3016

> <r_epik_Ionization_Penalty_Neutral>
  0.1200

> <r_epik_State_Penalty>
  0.2950

> <r_epik_Charging_Adjusted_Penalty>
0.596580522820079

> <i_epik_Tot_Q>
0

> <i_epik_Tot_abs_Q>
2

> <s_epik_Chemistry_Notes>
This compound has an imine and may undergo hydrolysis.

$$$$
