4b4g_ligand
                    3D
 Schrodinger Suite 2020-3.
 47 48  0  0  1  0            999 V2000
   37.8170    6.7790   10.2840 C   0  0  0  0  0  0
   37.2140    7.7820   11.0500 C   0  0  0  0  0  0
   37.1740    7.6680   12.4460 C   0  0  0  0  0  0
   37.7280    6.5620   13.0810 C   0  0  0  0  0  0
   38.3330    5.5680   12.3100 C   0  0  0  0  0  0
   38.3890    5.6680   10.9170 C   0  0  0  0  0  0
   38.9780    4.6530   10.1510 C   0  0  0  0  0  0
   38.1190    3.4290   10.1720 N   0  3  0  0  0  0
   37.1740    3.1830    9.2330 C   0  0  0  0  0  0
   36.9580    4.0080    8.2300 N   0  0  0  0  0  0
   38.2910    2.5520   11.1720 C   0  0  0  0  0  0
   39.1480    2.7940   12.0180 O   0  5  0  0  0  0
   37.5200    1.3720   11.2640 N   0  0  0  0  0  0
   36.5290    1.1210   10.3320 C   0  0  0  0  0  0
   35.8620    0.0910   10.4560 O   0  0  0  0  0  0
   36.3550    2.0560    9.2980 C   0  0  2  0  0  0
   35.4850    1.7950    8.2840 N   0  0  3  0  0  0
   35.9960    0.8980    7.2370 C   0  0  0  0  0  0
   33.9440    2.1590    8.2930 S   0  0  0  0  0  0
   33.7240    3.6030    8.6830 O   0  0  0  0  0  0
   33.4100    1.9710    6.8910 O   0  0  0  0  0  0
   33.1500    0.9250    9.4120 C   0  0  0  0  0  0
   31.7340    1.3110    9.8060 C   0  0  0  0  0  0
   31.4650    0.9640   11.2850 C   0  0  0  0  0  0
   31.6870   -0.5040   11.4530 C   0  0  0  0  0  0
   37.8418    6.8617    9.1974 H   0  0  0  0  0  0
   36.7754    8.6519   10.5612 H   0  0  0  0  0  0
   36.7047    8.4529   13.0391 H   0  0  0  0  0  0
   37.6904    6.4723   14.1667 H   0  0  0  0  0  0
   38.7692    4.6990   12.8027 H   0  0  0  0  0  0
   39.0914    4.9966    9.1122 H   0  0  0  0  0  0
   39.9667    4.4073   10.5659 H   0  0  0  0  0  0
   35.4410    2.5687    9.6324 H   0  0  0  0  0  0
   37.0772    0.7507    7.3760 H   0  0  0  0  0  0
   35.8108    1.3447    6.2490 H   0  0  0  0  0  0
   35.4822   -0.0724    7.3028 H   0  0  0  0  0  0
   33.1035   -0.0512    8.9071 H   0  0  0  0  0  0
   33.7416    0.8327   10.3347 H   0  0  0  0  0  0
   31.5960    2.3931    9.6642 H   0  0  0  0  0  0
   31.0163    0.7643    9.1766 H   0  0  0  0  0  0
   32.1553    1.5318   11.9262 H   0  0  0  0  0  0
   30.4277    1.2263   11.5404 H   0  0  0  0  0  0
   31.5028   -0.7852   12.5004 H   0  0  0  0  0  0
   32.7246   -0.7510   11.1841 H   0  0  0  0  0  0
   30.9970   -1.0565   10.7982 H   0  0  0  0  0  0
   37.5704    4.9154    8.1226 H   0  0  0  0  0  0
   36.1651    3.7899    7.4994 H   0  0  0  0  0  0
  1  2  2  0  0  0
  1  6  1  0  0  0
  1 26  1  0  0  0
  2  3  1  0  0  0
  2 27  1  0  0  0
  3  4  2  0  0  0
  3 28  1  0  0  0
  4  5  1  0  0  0
  4 29  1  0  0  0
  5  6  2  0  0  0
  5 30  1  0  0  0
  6  7  1  0  0  0
  7  8  1  0  0  0
  7 31  1  0  0  0
  7 32  1  0  0  0
  8  9  2  0  0  0
  8 11  1  0  0  0
  9 10  1  0  0  0
  9 16  1  0  0  0
 10 46  1  0  0  0
 10 47  1  0  0  0
 11 12  1  0  0  0
 11 13  2  0  0  0
 13 14  1  0  0  0
 14 15  2  0  0  0
 14 16  1  0  0  0
 16 17  1  0  0  0
 16 33  1  0  0  0
 17 18  1  0  0  0
 17 19  1  0  0  0
 18 34  1  0  0  0
 18 35  1  0  0  0
 18 36  1  0  0  0
 19 20  2  0  0  0
 19 21  2  0  0  0
 19 22  1  0  0  0
 22 23  1  0  0  0
 22 37  1  0  0  0
 22 38  1  0  0  0
 23 24  1  0  0  0
 23 39  1  0  0  0
 23 40  1  0  0  0
 24 25  1  0  0  0
 24 41  1  0  0  0
 24 42  1  0  0  0
 25 43  1  0  0  0
 25 44  1  0  0  0
 25 45  1  0  0  0
M  CHG  2   8   1  12  -1
M  END
> <s_m_source_file>
../4b4g_ligand.sdf

> <i_m_source_file_index>
1

> <s_epik_input>
W2NIXTFbY0hdW2NIXVtjSF1bY0hdYzFbQ0gyXU4yL0MoPU5cW0hdKVtDQEhdKEMoPU8pW05IXUMyPU8pTihbQ0gzXSlTKD1PKSg9TylbQ0gyXVtDSDJdW0NIMl1bQ0gzXQ==

> <s_epik_cmdline>
J2VwaWtfYXBwJywgJy1pbWFlJywgJ2xpZ2FuZF9wcm8ubWFlJywgJy1vbWFlJywgJ2xpZ2FuZF9wcmVwLm1hZScsICctbXMnLCAnMScsICctcGgnLCAnNycsICctcGh0JywgJzAuNScsICctbnQn

> <r_epik_Ionization_Penalty>
  0.1798

> <r_epik_Ionization_Penalty_Charging>
  0.1798

> <r_epik_Ionization_Penalty_Neutral>
  0.0000

> <r_epik_State_Penalty>
  0.0454

> <r_epik_Charging_Adjusted_Penalty>
0.225267089839133

> <i_epik_Tot_Q>
0

> <i_epik_Tot_abs_Q>
2

> <s_epik_Chemistry_Notes>
This compound has an imine and may undergo hydrolysis.

$$$$
