4b4m_ligand
                    3D
 Schrodinger Suite 2020-3.
 45 47  0  0  1  0            999 V2000
   37.7820    6.9300   10.2690 C   0  0  0  0  0  0
   37.2370    7.9970   11.0120 C   0  0  0  0  0  0
   37.2320    7.9550   12.4140 C   0  0  0  0  0  0
   37.7770    6.8440   13.0550 C   0  0  0  0  0  0
   38.3240    5.7930   12.3060 C   0  0  0  0  0  0
   38.3250    5.7980   10.9050 C   0  0  0  0  0  0
   38.8980    4.7360   10.1470 C   0  0  0  0  0  0
   38.1090    3.4720   10.1460 N   0  3  0  0  0  0
   37.2240    3.2040    9.1450 C   0  0  0  0  0  0
   37.0260    4.0660    8.1480 N   0  0  0  0  0  0
   38.3050    2.5790   11.1420 C   0  0  0  0  0  0
   39.1250    2.8270   12.0290 O   0  5  0  0  0  0
   37.5750    1.3760   11.1800 N   0  0  0  0  0  0
   36.6280    1.0910   10.1990 C   0  0  0  0  0  0
   35.9920    0.0340   10.2540 O   0  0  0  0  0  0
   36.4550    2.0280    9.1710 C   0  0  2  0  0  0
   35.5980    1.7200    8.1720 N   0  0  3  0  0  0
   36.0820    0.7180    7.1990 C   0  0  0  0  0  0
   33.9810    2.2720    8.1380 S   0  0  0  0  0  0
   33.3090    1.8580    6.8340 O   0  0  0  0  0  0
   33.8770    3.7800    8.3150 O   0  0  0  0  0  0
   33.2050    1.4860    9.5160 C   0  0  0  0  0  0
   32.3920    0.3710    9.3470 C   0  0  0  0  0  0
   31.7980   -0.2220   10.4500 C   0  0  0  0  0  0
   31.9980    0.3170   11.7080 C   0  0  0  0  0  0
   32.8140    1.4210   11.8810 C   0  0  0  0  0  0
   33.4300    2.0050   10.7810 C   0  0  0  0  0  0
   31.4170   -0.2520   12.8020 F   0  0  0  0  0  0
   37.7828    6.9828    9.1803 H   0  0  0  0  0  0
   36.8172    8.8593   10.4941 H   0  0  0  0  0  0
   36.8093    8.7768   12.9920 H   0  0  0  0  0  0
   37.7779    6.7921   14.1438 H   0  0  0  0  0  0
   38.7628    4.9443   12.8306 H   0  0  0  0  0  0
   38.9983    5.0477    9.0969 H   0  0  0  0  0  0
   39.8903    4.4897   10.5528 H   0  0  0  0  0  0
   37.6123    4.9955    8.0999 H   0  0  0  0  0  0
   35.6013    2.7210    9.1409 H   0  0  0  0  0  0
   37.1430    0.5016    7.3926 H   0  0  0  0  0  0
   35.9686    1.1131    6.1787 H   0  0  0  0  0  0
   35.4946   -0.2063    7.3017 H   0  0  0  0  0  0
   32.2222   -0.0356    8.3501 H   0  0  0  0  0  0
   31.1763   -1.1088   10.3266 H   0  0  0  0  0  0
   32.9732    1.8316   12.8781 H   0  0  0  0  0  0
   34.0859    2.8657   10.9122 H   0  0  0  0  0  0
   36.2762    3.8480    7.3732 H   0  0  0  0  0  0
  1  2  2  0  0  0
  1  6  1  0  0  0
  1 29  1  0  0  0
  2  3  1  0  0  0
  2 30  1  0  0  0
  3  4  2  0  0  0
  3 31  1  0  0  0
  4  5  1  0  0  0
  4 32  1  0  0  0
  5  6  2  0  0  0
  5 33  1  0  0  0
  6  7  1  0  0  0
  7  8  1  0  0  0
  7 34  1  0  0  0
  7 35  1  0  0  0
  8  9  2  0  0  0
  8 11  1  0  0  0
  9 10  1  0  0  0
  9 16  1  0  0  0
 10 36  1  0  0  0
 10 45  1  0  0  0
 11 12  1  0  0  0
 11 13  2  0  0  0
 13 14  1  0  0  0
 14 15  2  0  0  0
 14 16  1  0  0  0
 16 17  1  0  0  0
 16 37  1  0  0  0
 17 18  1  0  0  0
 17 19  1  0  0  0
 18 38  1  0  0  0
 18 39  1  0  0  0
 18 40  1  0  0  0
 19 20  2  0  0  0
 19 21  2  0  0  0
 19 22  1  0  0  0
 22 23  2  0  0  0
 22 27  1  0  0  0
 23 24  1  0  0  0
 23 41  1  0  0  0
 24 25  2  0  0  0
 24 42  1  0  0  0
 25 26  1  0  0  0
 25 28  1  0  0  0
 26 27  2  0  0  0
 26 43  1  0  0  0
 27 44  1  0  0  0
M  CHG  2   8   1  12  -1
M  END
> <s_m_source_file>
../4b4m_ligand.sdf

> <i_m_source_file_index>
1

> <s_epik_input>
W2NIXTFbY0hdW2NIXVtjSF1bY0hdYzFbQ0gyXU4yL0MoPU5cW0hdKVtDQEhdKEMoPU8pW05IXUMyPU8pTihbQ0gzXSlTKD1PKSg9TyljM1tjSF1bY0hdYyhGKVtjSF1bY0hdMw==

> <s_epik_cmdline>
J2VwaWtfYXBwJywgJy1pbWFlJywgJ2xpZ2FuZF9wcm8ubWFlJywgJy1vbWFlJywgJ2xpZ2FuZF9wcmVwLm1hZScsICctbXMnLCAnMScsICctcGgnLCAnNycsICctcGh0JywgJzAuNScsICctbnQn

> <r_epik_Ionization_Penalty>
  0.1622

> <r_epik_Ionization_Penalty_Charging>
  0.1622

> <r_epik_Ionization_Penalty_Neutral>
  0.0000

> <r_epik_State_Penalty>
  0.6083

> <r_epik_Charging_Adjusted_Penalty>
0.770475223174008

> <i_epik_Tot_Q>
0

> <i_epik_Tot_abs_Q>
2

> <s_epik_Chemistry_Notes>
This compound has an imine and may undergo hydrolysis.

$$$$
