4b4n_ligand
                    3D
 Schrodinger Suite 2020-3.
223229  0  0  1  0            999 V2000
    3.4800  -15.1940  -17.8980 N   0  3  0  0  0  0
    4.4190  -14.0850  -17.6400 C   0  0  2  0  0  0
    4.8060  -13.9070  -16.1730 C   0  0  0  0  0  0
    4.2400  -14.5410  -15.2930 O   0  0  0  0  0  0
    3.6380  -12.8410  -18.0940 C   0  0  0  0  0  0
    2.2090  -13.2360  -17.9470 C   0  0  0  0  0  0
    2.1640  -14.6940  -18.3540 C   0  0  0  0  0  0
    5.7480  -13.0040  -15.9100 N   0  0  0  0  0  0
    6.1480  -12.6840  -14.5320 C   0  0  2  0  0  0
    5.0530  -11.8090  -13.8940 C   0  0  0  0  0  0
    4.6680  -12.0200  -12.7380 O   0  0  0  0  0  0
    7.5380  -11.9360  -14.4550 C   0  0  0  0  0  0
    7.8020  -11.4920  -13.0400 C   0  0  0  0  0  0
    8.6820  -12.8270  -14.8490 C   0  0  0  0  0  0
    4.5750  -10.8300  -14.6640 N   0  0  0  0  0  0
    3.5820   -9.8560  -14.2130 C   0  0  2  0  0  0
    2.3030   -9.8290  -15.0800 C   0  0  0  0  0  0
    2.3170   -9.4800  -16.2660 O   0  0  0  0  0  0
    4.1810   -8.4430  -14.1580 C   0  0  0  0  0  0
    5.2420   -8.2570  -13.0610 C   0  0  0  0  0  0
    5.8400   -6.8680  -13.2270 C   0  0  0  0  0  0
    4.6910   -8.4240  -11.6320 C   0  0  0  0  0  0
    1.1950  -10.1970  -14.4450 N   0  0  0  0  0  0
   -0.1140  -10.1300  -15.0760 C   0  0  2  0  0  0
   -0.6750   -8.7050  -15.0510 C   0  0  0  0  0  0
   -0.3140   -7.8960  -14.1840 O   0  0  0  0  0  0
   -1.0890  -11.1170  -14.3980 C   0  0  0  0  0  0
   -0.7570  -12.5690  -14.6690 C   0  0  0  0  0  0
   -0.9670  -13.1160  -15.9380 C   0  0  0  0  0  0
   -0.2240  -13.3810  -13.6770 C   0  0  0  0  0  0
   -0.6520  -14.4410  -16.2030 C   0  0  0  0  0  0
    0.1030  -14.7130  -13.9340 C   0  0  0  0  0  0
   -0.1120  -15.2450  -15.1950 C   0  0  0  0  0  0
   -1.5440   -8.3770  -16.0200 N   0  0  0  0  0  0
   -2.1350   -7.0310  -15.9780 C   0  0  2  0  0  0
   -2.9880   -6.8670  -14.7300 C   0  0  0  0  0  0
   -3.8900   -7.6840  -14.4890 O   0  0  0  0  0  0
   -2.9890   -6.9800  -17.2580 C   0  0  0  0  0  0
   -2.3690   -7.9890  -18.1530 C   0  0  0  0  0  0
   -1.8960   -9.0900  -17.2660 C   0  0  0  0  0  0
   -2.6980   -5.8430  -13.9280 N   0  0  0  0  0  0
   -3.2940   -5.7540  -12.5970 C   0  0  0  0  0  0
   -2.8030   -6.9160  -11.7350 C   0  0  0  0  0  0
   -3.5820   -7.7390  -11.2220 O   0  0  0  0  0  0
   -1.4810   -7.0340  -11.6890 N   0  0  0  0  0  0
   -0.7600   -7.7150  -10.6190 C   0  0  2  0  0  0
    0.2810   -6.6420  -10.2660 C   0  0  0  0  0  0
    0.9830   -6.1800  -11.1420 O   0  0  0  0  0  0
   -0.1030   -8.9910  -11.1450 C   0  0  0  0  0  0
    1.0280   -9.5690  -10.2960 C   0  0  0  0  0  0
    1.6660  -10.8070  -10.9300 C   0  0  0  0  0  0
    1.3100  -11.2050  -12.0560 O   0  0  0  0  0  0
    2.6090  -11.4230  -10.2190 N   0  0  0  0  0  0
    0.3070   -6.1650   -9.0120 N   0  0  0  0  0  0
    1.3200   -5.1830   -8.6850 C   0  0  2  0  0  0
    2.7270   -5.6920   -8.9610 C   0  0  0  0  0  0
    3.0110   -6.9060   -8.8710 O   0  0  0  0  0  0
    1.1290   -4.9700   -7.1830 C   0  0  0  0  0  0
   -0.3680   -5.1720   -6.9870 C   0  0  0  0  0  0
   -0.8250   -6.1220   -8.0660 C   0  0  0  0  0  0
    3.5950   -4.7420   -9.2630 N   0  0  0  0  0  0
    5.0310   -5.0290   -9.3420 C   0  0  2  0  0  0
    5.4590   -5.7220   -8.0290 C   0  0  0  0  0  0
    5.0510   -5.3320   -6.9410 O   0  0  0  0  0  0
    5.8120   -3.7280   -9.6170 C   0  0  0  0  0  0
    5.4250   -3.0210  -10.9010 C   0  0  0  0  0  0
    5.9820   -3.3980  -12.0990 C   0  0  0  0  0  0
    4.5240   -1.9750  -10.8860 C   0  0  0  0  0  0
    5.6900   -2.7140  -13.2570 C   0  0  0  0  0  0
    4.1810   -1.2870  -12.0540 C   0  0  0  0  0  0
    4.7810   -1.6440  -13.2400 C   0  0  0  0  0  0
    6.1900   -6.8390   -8.1270 N   0  0  0  0  0  0
    6.6690   -7.5330   -6.9430 C   0  0  0  0  0  0
    5.6880   -8.5220   -6.3420 C   0  0  0  0  0  0
    6.0680   -9.3390   -5.5320 O   0  0  0  0  0  0
    4.4300   -8.4420   -6.7340 N   0  0  0  0  0  0
    3.4100   -9.3590   -6.1800 C   0  0  2  0  0  0
    3.6620  -10.8010   -6.6080 C   0  0  0  0  0  0
    3.7090  -11.0820   -7.8000 O   0  0  0  0  0  0
    2.0200   -8.9320   -6.6570 C   0  0  0  0  0  0
    0.8780   -9.6010   -5.9030 C   0  0  0  0  0  0
   -0.4770   -9.0360   -6.2660 C   0  0  0  0  0  0
   -0.8760   -8.0080   -5.7330 O   0  0  0  0  0  0
   -1.2040   -9.7200   -7.1620 N   0  0  0  0  0  0
    3.8460  -11.7160   -5.6340 N   0  0  0  0  0  0
    3.9570  -13.1200   -6.0440 C   0  0  2  0  0  0
    2.6520  -13.5820   -6.7080 C   0  0  0  0  0  0
    1.5630  -13.1480   -6.3000 O   0  0  0  0  0  0
    4.2130  -13.8800   -4.7400 C   0  0  0  0  0  0
    4.0130  -12.9080   -3.6350 C   0  0  0  0  0  0
    4.1270  -11.5200   -4.1970 C   0  0  0  0  0  0
    2.7550  -14.4470   -7.7360 N   0  0  0  0  0  0
    1.5660  -14.8270   -8.4460 C   0  0  2  0  0  0
    0.6370  -15.7010   -7.6300 C   0  0  0  0  0  0
    1.1150  -16.4530   -6.7800 O   0  0  0  0  0  0
    2.1040  -15.5910   -9.6500 C   0  0  0  0  0  0
    3.5400  -15.8070   -9.4330 C   0  0  0  0  0  0
    3.8520  -15.3680   -8.0310 C   0  0  0  0  0  0
   -0.6780  -15.5630   -7.8520 N   0  0  0  0  0  0
   -1.6690  -16.3610   -7.1450 C   0  0  2  0  0  0
   -1.6610  -17.8250   -7.5310 C   0  0  0  0  0  0
   -2.0830  -18.6790   -6.7450 O   0  0  0  0  0  0
   -3.0930  -15.8530   -7.3240 C   0  0  0  0  0  0
   -3.7900  -14.8240   -6.4550 C   0  0  0  0  0  0
   -3.1740  -14.7000   -5.0500 C   0  0  0  0  0  0
   -3.8290  -13.4940   -7.2090 C   0  0  0  0  0  0
   -1.2790  -18.1410   -8.7540 N   0  0  0  0  0  0
   -0.8600  -19.5080   -9.0520 C   0  0  0  0  0  0
    0.6580  -19.6780   -8.9170 C   0  0  0  0  0  0
    1.4340  -19.4780   -9.8800 O   0  0  0  0  0  0
    1.0736  -19.9814   -7.9561 O   0  0  0  0  0  0
    3.8930  -15.8501  -18.6784 H   0  0  0  0  0  0
    3.3321  -15.7718  -16.9737 H   0  0  0  0  0  0
    5.3568  -14.3052  -18.1711 H   0  0  0  0  0  0
    3.8998  -11.9885  -17.4501 H   0  0  0  0  0  0
    3.8970  -12.6059  -19.1369 H   0  0  0  0  0  0
    1.8954  -13.0955  -16.9021 H   0  0  0  0  0  0
    1.5863  -12.6109  -18.6039 H   0  0  0  0  0  0
    2.0765  -14.8312  -19.4419 H   0  0  0  0  0  0
    1.3636  -15.2541  -17.8483 H   0  0  0  0  0  0
    6.2306  -12.4923  -16.7557 H   0  0  0  0  0  0
    6.2268  -13.6619  -14.0344 H   0  0  0  0  0  0
    7.5250  -11.0729  -15.1368 H   0  0  0  0  0  0
    6.9872  -10.8336  -12.7043 H   0  0  0  0  0  0
    8.7556  -10.9453  -12.9992 H   0  0  0  0  0  0
    7.8559  -12.3729  -12.3833 H   0  0  0  0  0  0
    8.5342  -13.1789  -15.8807 H   0  0  0  0  0  0
    8.7247  -13.6910  -14.1695 H   0  0  0  0  0  0
    9.6245  -12.2634  -14.7853 H   0  0  0  0  0  0
    4.9691  -10.7790  -15.6897 H   0  0  0  0  0  0
    3.3329  -10.2269  -13.2078 H   0  0  0  0  0  0
    4.6633   -8.2115  -15.1192 H   0  0  0  0  0  0
    3.3813   -7.7130  -13.9638 H   0  0  0  0  0  0
    6.0064   -9.0380  -13.1861 H   0  0  0  0  0  0
    6.2309   -6.7569  -14.2492 H   0  0  0  0  0  0
    6.6585   -6.7325  -12.5047 H   0  0  0  0  0  0
    5.0630   -6.1104  -13.0472 H   0  0  0  0  0  0
    4.2607   -9.4302  -11.5202 H   0  0  0  0  0  0
    3.9117   -7.6695  -11.4490 H   0  0  0  0  0  0
    5.5072   -8.2916  -10.9065 H   0  0  0  0  0  0
    1.2893  -10.5609  -13.4112 H   0  0  0  0  0  0
    0.0640  -10.4209  -16.1218 H   0  0  0  0  0  0
   -1.0617  -10.9690  -13.3083 H   0  0  0  0  0  0
   -2.1093  -10.9363  -14.7671 H   0  0  0  0  0  0
   -1.3837  -12.4935  -16.7298 H   0  0  0  0  0  0
   -0.0582  -12.9712  -12.6807 H   0  0  0  0  0  0
   -0.8255  -14.8547  -17.1964 H   0  0  0  0  0  0
    0.5267  -15.3335  -13.1444 H   0  0  0  0  0  0
    0.1388  -16.2857  -15.4002 H   0  0  0  0  0  0
   -1.3632   -6.2489  -15.9268 H   0  0  0  0  0  0
   -4.0315   -7.2316  -17.0134 H   0  0  0  0  0  0
   -2.9470   -5.9679  -17.6868 H   0  0  0  0  0  0
   -3.1188   -8.3519  -18.8714 H   0  0  0  0  0  0
   -1.5310   -7.5301  -18.6981 H   0  0  0  0  0  0
   -1.0050   -9.6003  -17.6606 H   0  0  0  0  0  0
   -2.6801   -9.8320  -17.0549 H   0  0  0  0  0  0
   -2.0051   -5.0617  -14.2737 H   0  0  0  0  0  0
   -3.0025   -4.8028  -12.1276 H   0  0  0  0  0  0
   -4.3897   -5.8003  -12.6820 H   0  0  0  0  0  0
   -0.9266   -6.5797  -12.5234 H   0  0  0  0  0  0
   -1.4107   -8.0333   -9.7912 H   0  0  0  0  0  0
   -0.8586   -9.7865  -11.2245 H   0  0  0  0  0  0
    0.3316   -8.7976  -12.1368 H   0  0  0  0  0  0
    1.8150   -8.8111  -10.1687 H   0  0  0  0  0  0
    0.6352   -9.8588   -9.3102 H   0  0  0  0  0  0
    2.8918  -11.0364   -9.2288 H   0  0  0  0  0  0
    3.1050  -12.3183  -10.6221 H   0  0  0  0  0  0
    1.1783   -4.2908   -9.3126 H   0  0  0  0  0  0
    1.7284   -5.7074   -6.6290 H   0  0  0  0  0  0
    1.4548   -3.9548   -6.9122 H   0  0  0  0  0  0
   -0.5532   -5.5964   -5.9892 H   0  0  0  0  0  0
   -0.8833   -4.2041   -7.0752 H   0  0  0  0  0  0
   -1.7231   -5.7563   -8.5853 H   0  0  0  0  0  0
   -1.0140   -7.1323   -7.6741 H   0  0  0  0  0  0
    3.2261   -3.7239   -9.4564 H   0  0  0  0  0  0
    5.2033   -5.7083  -10.1898 H   0  0  0  0  0  0
    5.6397   -3.0164   -8.7960 H   0  0  0  0  0  0
    6.8864   -3.9532   -9.6876 H   0  0  0  0  0  0
    6.6629   -4.2485  -12.1327 H   0  0  0  0  0  0
    4.0691   -1.6784   -9.9409 H   0  0  0  0  0  0
    6.1672   -3.0046  -14.1929 H   0  0  0  0  0  0
    3.4491   -0.4798  -12.0256 H   0  0  0  0  0  0
    4.5527   -1.1013  -14.1573 H   0  0  0  0  0  0
    6.4268   -7.2303   -9.1274 H   0  0  0  0  0  0
    7.5772   -8.1010   -7.1932 H   0  0  0  0  0  0
    6.9003   -6.7996   -6.1565 H   0  0  0  0  0  0
    4.1428   -7.6854   -7.4791 H   0  0  0  0  0  0
    3.4985   -9.2855   -5.0860 H   0  0  0  0  0  0
    1.9051   -7.8459   -6.5262 H   0  0  0  0  0  0
    1.9027   -9.1877   -7.7204 H   0  0  0  0  0  0
    0.8658  -10.6762   -6.1348 H   0  0  0  0  0  0
    1.0208   -9.4607   -4.8214 H   0  0  0  0  0  0
   -0.7997  -10.6386   -7.6122 H   0  0  0  0  0  0
   -2.2045   -9.3623   -7.4466 H   0  0  0  0  0  0
    4.7671  -13.2471   -6.7772 H   0  0  0  0  0  0
    3.5043  -14.7173   -4.6584 H   0  0  0  0  0  0
    5.2419  -14.2690   -4.7382 H   0  0  0  0  0  0
    3.0160  -13.0543   -3.1939 H   0  0  0  0  0  0
    4.7817  -13.0658   -2.8642 H   0  0  0  0  0  0
    5.1350  -11.0970   -4.0749 H   0  0  0  0  0  0
    3.3853  -10.8295   -3.7692 H   0  0  0  0  0  0
    0.9901  -13.9191   -8.6784 H   0  0  0  0  0  0
    1.5801  -16.5543   -9.7369 H   0  0  0  0  0  0
    1.9387  -15.0001  -10.5630 H   0  0  0  0  0  0
    3.7743  -16.8737   -9.5643 H   0  0  0  0  0  0
    4.1140  -15.2134  -10.1597 H   0  0  0  0  0  0
    4.8103  -14.8333   -7.9544 H   0  0  0  0  0  0
    3.8371  -16.1989   -7.3103 H   0  0  0  0  0  0
   -0.9998  -14.8186   -8.5952 H   0  0  0  0  0  0
   -1.3228  -16.2323   -6.1089 H   0  0  0  0  0  0
   -3.1933  -15.3843   -8.3141 H   0  0  0  0  0  0
   -3.7956  -16.6956   -7.2444 H   0  0  0  0  0  0
   -4.8200  -15.1676   -6.2788 H   0  0  0  0  0  0
   -3.1744  -15.6854   -4.5612 H   0  0  0  0  0  0
   -3.7668  -13.9932   -4.4508 H   0  0  0  0  0  0
   -2.1405  -14.3328   -5.1339 H   0  0  0  0  0  0
   -4.2780  -13.6481   -8.2013 H   0  0  0  0  0  0
   -2.8054  -13.1084   -7.3255 H   0  0  0  0  0  0
   -4.4317  -12.7689   -6.6425 H   0  0  0  0  0  0
   -1.2754  -17.3793   -9.5476 H   0  0  0  0  0  0
   -1.3496  -20.2021   -8.3531 H   0  0  0  0  0  0
   -1.1466  -19.7629  -10.0830 H   0  0  0  0  0  0
    2.5183  -19.6090   -9.7490 H   0  0  0  0  0  0
  1  2  1  0  0  0
  1  7  1  0  0  0
  1112  1  0  0  0
  1113  1  0  0  0
  2  3  1  0  0  0
  2  5  1  0  0  0
  2114  1  0  0  0
  3  4  2  0  0  0
  3  8  1  0  0  0
  5  6  1  0  0  0
  5115  1  0  0  0
  5116  1  0  0  0
  6  7  1  0  0  0
  6117  1  0  0  0
  6118  1  0  0  0
  7119  1  0  0  0
  7120  1  0  0  0
  8  9  1  0  0  0
  8121  1  0  0  0
  9 10  1  0  0  0
  9 12  1  0  0  0
  9122  1  0  0  0
 10 11  2  0  0  0
 10 15  1  0  0  0
 12 13  1  0  0  0
 12 14  1  0  0  0
 12123  1  0  0  0
 13124  1  0  0  0
 13125  1  0  0  0
 13126  1  0  0  0
 14127  1  0  0  0
 14128  1  0  0  0
 14129  1  0  0  0
 15 16  1  0  0  0
 15130  1  0  0  0
 16 17  1  0  0  0
 16 19  1  0  0  0
 16131  1  0  0  0
 17 18  2  0  0  0
 17 23  1  0  0  0
 19 20  1  0  0  0
 19132  1  0  0  0
 19133  1  0  0  0
 20 21  1  0  0  0
 20 22  1  0  0  0
 20134  1  0  0  0
 21135  1  0  0  0
 21136  1  0  0  0
 21137  1  0  0  0
 22138  1  0  0  0
 22139  1  0  0  0
 22140  1  0  0  0
 23 24  1  0  0  0
 23141  1  0  0  0
 24 25  1  0  0  0
 24 27  1  0  0  0
 24142  1  0  0  0
 25 26  2  0  0  0
 25 34  1  0  0  0
 27 28  1  0  0  0
 27143  1  0  0  0
 27144  1  0  0  0
 28 29  2  0  0  0
 28 30  1  0  0  0
 29 31  1  0  0  0
 29145  1  0  0  0
 30 32  2  0  0  0
 30146  1  0  0  0
 31 33  2  0  0  0
 31147  1  0  0  0
 32 33  1  0  0  0
 32148  1  0  0  0
 33149  1  0  0  0
 34 35  1  0  0  0
 34 40  1  0  0  0
 35 36  1  0  0  0
 35 38  1  0  0  0
 35150  1  0  0  0
 36 37  2  0  0  0
 36 41  1  0  0  0
 38 39  1  0  0  0
 38151  1  0  0  0
 38152  1  0  0  0
 39 40  1  0  0  0
 39153  1  0  0  0
 39154  1  0  0  0
 40155  1  0  0  0
 40156  1  0  0  0
 41 42  1  0  0  0
 41157  1  0  0  0
 42 43  1  0  0  0
 42158  1  0  0  0
 42159  1  0  0  0
 43 44  2  0  0  0
 43 45  1  0  0  0
 45 46  1  0  0  0
 45160  1  0  0  0
 46 47  1  0  0  0
 46 49  1  0  0  0
 46161  1  0  0  0
 47 48  2  0  0  0
 47 54  1  0  0  0
 49 50  1  0  0  0
 49162  1  0  0  0
 49163  1  0  0  0
 50 51  1  0  0  0
 50164  1  0  0  0
 50165  1  0  0  0
 51 52  2  0  0  0
 51 53  1  0  0  0
 53166  1  0  0  0
 53167  1  0  0  0
 54 55  1  0  0  0
 54 60  1  0  0  0
 55 56  1  0  0  0
 55 58  1  0  0  0
 55168  1  0  0  0
 56 57  2  0  0  0
 56 61  1  0  0  0
 58 59  1  0  0  0
 58169  1  0  0  0
 58170  1  0  0  0
 59 60  1  0  0  0
 59171  1  0  0  0
 59172  1  0  0  0
 60173  1  0  0  0
 60174  1  0  0  0
 61 62  1  0  0  0
 61175  1  0  0  0
 62 63  1  0  0  0
 62 65  1  0  0  0
 62176  1  0  0  0
 63 64  2  0  0  0
 63 72  1  0  0  0
 65 66  1  0  0  0
 65177  1  0  0  0
 65178  1  0  0  0
 66 67  2  0  0  0
 66 68  1  0  0  0
 67 69  1  0  0  0
 67179  1  0  0  0
 68 70  2  0  0  0
 68180  1  0  0  0
 69 71  2  0  0  0
 69181  1  0  0  0
 70 71  1  0  0  0
 70182  1  0  0  0
 71183  1  0  0  0
 72 73  1  0  0  0
 72184  1  0  0  0
 73 74  1  0  0  0
 73185  1  0  0  0
 73186  1  0  0  0
 74 75  2  0  0  0
 74 76  1  0  0  0
 76 77  1  0  0  0
 76187  1  0  0  0
 77 78  1  0  0  0
 77 80  1  0  0  0
 77188  1  0  0  0
 78 79  2  0  0  0
 78 85  1  0  0  0
 80 81  1  0  0  0
 80189  1  0  0  0
 80190  1  0  0  0
 81 82  1  0  0  0
 81191  1  0  0  0
 81192  1  0  0  0
 82 83  2  0  0  0
 82 84  1  0  0  0
 84193  1  0  0  0
 84194  1  0  0  0
 85 86  1  0  0  0
 85 91  1  0  0  0
 86 87  1  0  0  0
 86 89  1  0  0  0
 86195  1  0  0  0
 87 88  2  0  0  0
 87 92  1  0  0  0
 89 90  1  0  0  0
 89196  1  0  0  0
 89197  1  0  0  0
 90 91  1  0  0  0
 90198  1  0  0  0
 90199  1  0  0  0
 91200  1  0  0  0
 91201  1  0  0  0
 92 93  1  0  0  0
 92 98  1  0  0  0
 93 94  1  0  0  0
 93 96  1  0  0  0
 93202  1  0  0  0
 94 95  2  0  0  0
 94 99  1  0  0  0
 96 97  1  0  0  0
 96203  1  0  0  0
 96204  1  0  0  0
 97 98  1  0  0  0
 97205  1  0  0  0
 97206  1  0  0  0
 98207  1  0  0  0
 98208  1  0  0  0
 99100  1  0  0  0
 99209  1  0  0  0
100101  1  0  0  0
100103  1  0  0  0
100210  1  0  0  0
101102  2  0  0  0
101107  1  0  0  0
103104  1  0  0  0
103211  1  0  0  0
103212  1  0  0  0
104105  1  0  0  0
104106  1  0  0  0
104213  1  0  0  0
105214  1  0  0  0
105215  1  0  0  0
105216  1  0  0  0
106217  1  0  0  0
106218  1  0  0  0
106219  1  0  0  0
107108  1  0  0  0
107220  1  0  0  0
108109  1  0  0  0
108221  1  0  0  0
108222  1  0  0  0
109110  1  0  0  0
109111  2  0  0  0
110223  1  0  0  0
M  CHG  1   1   1
M  END
> <s_m_source_file>
../4b4n_ligand.sdf

> <i_m_source_file_index>
1

> <s_epik_input>
W0NIMl0xW0NIMl1bQ0gyXVtOSDIrXVtDQEBIXTFDKD1PKVtOSF1bQ0BASF0oW0NIXShbQ0gzXSlbQ0gzXSlDKD1PKVtOSF1bQ0BASF0oW0NIMl1bQ0hdKFtDSDNdKVtDSDNdKUMoPU8pW05IXVtDQEBIXShbQ0gyXWMyW2NIXVtjSF1bY0hdW2NIXVtjSF0yKUMoPU8pTjNbQ0BASF0oW0NIMl1bQ0gyXVtDSDJdMylDKD1PKVtOSF1bQ0gyXUMoPU8pW05IXVtDQEBIXShbQ0gyXVtDSDJdQyg9TylbTkgyXSlDKD1PKU40W0NAQEhdKFtDSDJdW0NIMl1bQ0gyXTQpQyg9TylbTkhdW0NAQEhdKFtDSDJdYzVbY0hdW2NIXVtjSF1bY0hdW2NIXTUpQyg9TylbTkhdW0NIMl1DKD1PKVtOSF1bQ0BASF0oW0NIMl1bQ0gyXUMoPU8pW05IMl0pQyg9TylONltDQEBIXShbQ0gyXVtDSDJdW0NIMl02KUMoPU8pTjdbQ0BASF0oW0NIMl1bQ0gyXVtDSDJdNylDKD1PKVtOSF1bQ0BASF0oW0NIMl1bQ0hdKFtDSDNdKVtDSDNdKUMoPU8pW05IXVtDSDJdQyg9TylbT0hd

> <s_epik_cmdline>
J2VwaWtfYXBwJywgJy1pbWFlJywgJ2xpZ2FuZF9wcm8ubWFlJywgJy1vbWFlJywgJ2xpZ2FuZF9wcmVwLm1hZScsICctbXMnLCAnMScsICctcGgnLCAnNycsICctcGh0JywgJzAuNScsICctbnQn

> <s_epik_pKa_notes>
Molecule size exceeds maximum supported for generating protonation states

$$$$
