4b5s_ligand
                    3D
 Schrodinger Suite 2020-3.
  9  8  0  0  1  0            999 V2000
  -48.5870  -31.3390  -18.0920 C   0  0  0  0  0  0
  -49.2790  -30.7750  -17.1390 O   0  0  0  0  0  0
  -49.1070  -31.4810  -19.2950 O   0  5  0  0  0  0
  -47.2980  -31.8030  -17.8250 C   0  0  0  0  0  0
  -46.5990  -32.2960  -18.8110 O   0  0  0  0  0  0
  -46.7360  -31.7890  -16.4370 C   0  0  0  0  0  0
  -47.4672  -31.3381  -15.7499 H   0  0  0  0  0  0
  -45.8077  -31.1991  -16.4233 H   0  0  0  0  0  0
  -46.5204  -32.8195  -16.1183 H   0  0  0  0  0  0
  1  2  2  0  0  0
  1  3  1  0  0  0
  1  4  1  0  0  0
  4  5  2  0  0  0
  4  6  1  0  0  0
  6  7  1  0  0  0
  6  8  1  0  0  0
  6  9  1  0  0  0
M  CHG  1   3  -1
M  END
> <s_m_source_file>
../4b5s_ligand.sdf

> <i_m_source_file_index>
1

> <s_epik_input>
Tz1DKFtPSF0pQyg9TylbQ0gzXQ==

> <s_epik_cmdline>
J2VwaWtfYXBwJywgJy1pbWFlJywgJ2xpZ2FuZF9wcm8ubWFlJywgJy1vbWFlJywgJ2xpZ2FuZF9wcmVwLm1hZScsICctbXMnLCAnMScsICctcGgnLCAnNycsICctcGh0JywgJzAuNScsICctbnQn

> <r_lp_tautomer_probability>
1

> <r_epik_Ionization_Penalty>
  0.0001

> <r_epik_Ionization_Penalty_Charging>
  0.0001

> <r_epik_Ionization_Penalty_Neutral>
  0.0000

> <r_epik_State_Penalty>
 -0.0000

> <r_epik_Charging_Adjusted_Penalty>
0.000107804877567525

> <i_epik_Tot_Q>
-1

> <i_epik_Tot_abs_Q>
1

$$$$
