4b60_ligand
                    3D
 Schrodinger Suite 2020-3.
198199  0  0  1  0            999 V2000
  -12.1090   -0.1230  -35.4040 N   0  3  0  0  0  0
  -12.6720   -1.4190  -35.8880 C   0  0  2  0  0  0
  -11.6820   -2.5950  -35.9210 C   0  0  0  0  0  0
  -12.0360   -3.6600  -35.4160 O   0  0  0  0  0  0
  -13.4010   -1.2780  -37.2350 C   0  0  0  0  0  0
  -13.5950   -2.5850  -37.9830 C   0  0  0  0  0  0
  -14.7930   -2.6070  -38.8970 C   0  0  0  0  0  0
  -15.6300   -1.6740  -38.9480 O   0  0  0  0  0  0
  -14.8840   -3.6800  -39.6520 N   0  0  0  0  0  0
  -10.4830   -2.4410  -36.5050 N   0  0  0  0  0  0
   -9.4800   -3.5370  -36.4790 C   0  0  2  0  0  0
   -8.3620   -3.3950  -35.4110 C   0  0  0  0  0  0
   -7.7150   -4.3860  -35.0820 O   0  0  0  0  0  0
   -8.8460   -3.7510  -37.8730 C   0  0  0  0  0  0
   -9.6210   -4.6970  -38.7900 C   0  0  0  0  0  0
   -9.0680   -4.7310  -40.2090 C   0  0  0  0  0  0
   -9.2800   -3.8040  -41.0100 O   0  0  0  0  0  0
   -8.3750   -5.8040  -40.5370 N   0  0  0  0  0  0
   -8.1300   -2.1770  -34.9090 N   0  0  0  0  0  0
   -7.0870   -1.9160  -33.9060 C   0  0  2  0  0  0
   -7.6230   -1.0680  -32.7290 C   0  0  0  0  0  0
   -8.1370    0.0580  -32.9240 O   0  0  0  0  0  0
   -5.8780   -1.2270  -34.5570 C   0  0  0  0  0  0
   -5.4950   -1.7930  -35.8940 C   0  0  0  0  0  0
   -4.6780   -2.8970  -36.0350 N   0  0  0  0  0  0
   -5.8260   -1.4110  -37.1570 C   0  0  0  0  0  0
   -4.5270   -3.1750  -37.3190 C   0  0  0  0  0  0
   -5.2090   -2.2870  -38.0240 N   0  0  0  0  0  0
   -7.4990   -1.5980  -31.5150 N   0  0  0  0  0  0
   -7.9270   -0.9120  -30.2810 C   0  0  2  0  0  0
   -6.7310   -0.7650  -29.3240 C   0  0  0  0  0  0
   -5.8870   -1.6560  -29.2500 O   0  0  0  0  0  0
   -9.0990   -1.6640  -29.6080 C   0  0  0  0  0  0
  -10.2890   -1.8290  -30.5140 C   0  0  0  0  0  0
  -11.2250   -0.8340  -30.7120 N   0  0  0  0  0  0
  -10.6530   -2.8500  -31.3180 C   0  0  0  0  0  0
  -12.1270   -1.2460  -31.5890 C   0  0  0  0  0  0
  -11.7930   -2.4630  -31.9810 N   0  0  0  0  0  0
   -6.6720    0.3640  -28.6250 N   0  0  0  0  0  0
   -5.5460    0.7800  -27.8160 C   0  0  2  0  0  0
   -6.0930    1.3220  -26.5100 C   0  0  0  0  0  0
   -7.0920    2.0910  -26.4930 O   0  0  0  0  0  0
   -4.7720    1.9070  -28.5350 C   0  0  0  0  0  0
   -3.8750    2.7050  -27.5900 C   0  0  0  0  0  0
   -2.6420    1.9270  -27.1870 C   0  0  0  0  0  0
   -3.4890    4.0740  -28.1400 C   0  0  0  0  0  0
   -5.4540    0.9290  -25.3990 N   0  0  0  0  0  0
   -5.8060    1.4790  -24.1070 C   0  0  0  0  0  0
   -4.6270    1.4050  -23.1550 C   0  0  0  0  0  0
   -3.5580    0.9420  -23.5250 O   0  0  0  0  0  0
   -4.8170    1.8510  -21.9250 N   0  0  0  0  0  0
   -3.7720    1.6260  -20.9370 C   0  0  0  0  0  0
   -4.1490    2.0260  -19.5400 C   0  0  0  0  0  0
   -5.2510    2.5070  -19.3110 O   0  0  0  0  0  0
   -3.2120    1.8170  -18.6120 N   0  0  0  0  0  0
   -3.4460    2.0540  -17.2120 C   0  0  2  0  0  0
   -2.1410    2.5140  -16.6090 C   0  0  0  0  0  0
   -1.0860    2.3750  -17.2440 O   0  0  0  0  0  0
   -3.8640    0.7300  -16.5640 C   0  0  0  0  0  0
   -2.2240    3.0630  -15.4010 N   0  0  0  0  0  0
   -1.0890    3.3990  -14.5810 C   0  0  2  0  0  0
   -1.2620    2.8570  -13.1630 C   0  0  0  0  0  0
   -2.3260    2.9910  -12.6010 O   0  0  0  0  0  0
   -0.9830    4.9000  -14.4820 C   0  0  0  0  0  0
   -0.9200    5.5160  -15.8510 C   0  0  0  0  0  0
   -0.4360    6.9370  -15.8040 C   0  0  0  0  0  0
   -0.1130    7.4290  -17.2020 C   0  0  0  0  0  0
   -0.2440    8.9080  -17.2350 N   0  3  0  0  0  0
   -0.2170    2.2440  -12.6090 N   0  0  0  0  0  0
   -0.2360    1.7160  -11.2310 C   0  0  2  0  0  0
    0.4390    2.7870  -10.3210 C   0  0  0  0  0  0
    1.3880    3.4630  -10.7370 O   0  0  0  0  0  0
    0.4980    0.3600  -11.1300 C   0  0  0  0  0  0
   -0.2680   -0.9240  -11.5210 C   0  0  0  0  0  0
   -0.7610   -0.9250  -12.9620 C   0  0  0  0  0  0
   -1.9920   -0.8750  -13.2360 O   0  0  0  0  0  0
    0.1630   -0.9500  -13.8900 N   0  0  0  0  0  0
   -0.0800    2.9450   -9.1070 N   0  0  0  0  0  0
    0.4910    3.8590   -8.1150 C   0  0  2  0  0  0
    1.4730    3.1250   -7.2070 C   0  0  0  0  0  0
    1.2960    1.9230   -6.8770 O   0  0  0  0  0  0
   -0.6250    4.4840   -7.2780 C   0  0  0  0  0  0
    2.5070    3.8330   -6.7670 N   0  0  0  0  0  0
    3.3500    3.3460   -5.6870 C   0  0  0  0  0  0
    4.2240    4.4470   -5.1270 C   0  0  0  0  0  0
    4.1680    5.5730   -5.5690 O   0  0  0  0  0  0
    4.9930    4.1130   -4.1060 N   0  0  0  0  0  0
    5.7790    5.0910   -3.3830 C   0  0  2  0  0  0
    7.0790    5.3160   -4.1440 C   0  0  0  0  0  0
    7.6730    4.3490   -4.6260 O   0  0  0  0  0  0
    6.0820    4.5300   -1.9980 C   0  0  0  0  0  0
    6.9850    5.4280   -1.1680 C   0  0  0  0  0  0
    6.8590    6.6690   -1.1650 O   0  0  0  0  0  0
    7.8520    4.8820   -0.4780 O   0  0  0  0  0  0
    7.4710    6.5840   -4.2690 N   0  0  0  0  0  0
    8.7800    7.0360   -4.7830 C   0  0  2  0  0  0
    8.8410    7.5930   -6.1940 C   0  0  0  0  0  0
    9.6167    8.5564   -6.4346 O   0  0  0  0  0  0
    9.9360    6.0500   -4.4450 C   0  0  0  0  0  0
   11.1880    6.3480   -5.2130 C   0  0  0  0  0  0
   10.1770    6.1570   -2.9560 C   0  0  0  0  0  0
    8.1282    7.1003   -7.1088 O   0  0  0  0  0  0
  -11.6007   -0.2808  -34.4413 H   0  0  0  0  0  0
  -12.9235    0.6047  -35.2737 H   0  0  0  0  0  0
  -11.3881    0.2615  -36.1406 H   0  0  0  0  0  0
  -13.4001   -1.6496  -35.0963 H   0  0  0  0  0  0
  -14.4015   -0.8526  -37.0676 H   0  0  0  0  0  0
  -12.8255   -0.6127  -37.8955 H   0  0  0  0  0  0
  -12.7115   -2.7849  -38.6071 H   0  0  0  0  0  0
  -13.7270   -3.4045  -37.2612 H   0  0  0  0  0  0
  -14.1264   -4.4737  -39.5734 H   0  0  0  0  0  0
  -15.7177   -3.7838  -40.3621 H   0  0  0  0  0  0
  -10.2466   -1.4909  -37.0065 H   0  0  0  0  0  0
  -10.1058   -4.3925  -36.1849 H   0  0  0  0  0  0
   -8.7778   -2.7861  -38.3968 H   0  0  0  0  0  0
   -7.8385   -4.1767  -37.7562 H   0  0  0  0  0  0
   -9.5732   -5.7194  -38.3869 H   0  0  0  0  0  0
  -10.6710   -4.3741  -38.8470 H   0  0  0  0  0  0
   -8.2114   -6.6007  -39.7964 H   0  0  0  0  0  0
   -7.9606   -5.9023  -41.5512 H   0  0  0  0  0  0
   -8.7580   -1.3522  -35.2768 H   0  0  0  0  0  0
   -6.7987   -2.9103  -33.5343 H   0  0  0  0  0  0
   -6.1018   -0.1608  -34.7094 H   0  0  0  0  0  0
   -5.0012   -1.3274  -33.9003 H   0  0  0  0  0  0
   -6.4474   -0.5933  -37.5510 H   0  0  0  0  0  0
   -3.9396   -3.9972  -37.7277 H   0  0  0  0  0  0
   -7.0506   -2.6009  -31.4595 H   0  0  0  0  0  0
   -8.2762    0.0853  -30.5869 H   0  0  0  0  0  0
   -8.7659   -2.6684  -29.3076 H   0  0  0  0  0  0
   -9.4303   -1.1066  -28.7194 H   0  0  0  0  0  0
  -10.2192   -3.8437  -31.5037 H   0  0  0  0  0  0
  -12.9943   -0.6799  -31.9287 H   0  0  0  0  0  0
   -7.5657    1.0017  -28.6931 H   0  0  0  0  0  0
   -4.9113   -0.1046  -27.6593 H   0  0  0  0  0  0
   -4.1329    1.4716  -29.3173 H   0  0  0  0  0  0
   -5.4857    2.6078  -28.9926 H   0  0  0  0  0  0
   -4.4742    2.8768  -26.6837 H   0  0  0  0  0  0
   -2.9409    0.9442  -26.7935 H   0  0  0  0  0  0
   -2.0957    2.4822  -26.4103 H   0  0  0  0  0  0
   -1.9927    1.7888  -28.0641 H   0  0  0  0  0  0
   -4.3978    4.6234  -28.4269 H   0  0  0  0  0  0
   -2.8439    3.9463  -29.0218 H   0  0  0  0  0  0
   -2.9469    4.6398  -27.3680 H   0  0  0  0  0  0
   -4.6533    0.1789  -25.4778 H   0  0  0  0  0  0
   -6.1027    2.5316  -24.2251 H   0  0  0  0  0  0
   -6.6439    0.9075  -23.6811 H   0  0  0  0  0  0
   -5.7379    2.3812  -21.6406 H   0  0  0  0  0  0
   -3.5183    0.5560  -20.9088 H   0  0  0  0  0  0
   -2.8788    2.2075  -21.2091 H   0  0  0  0  0  0
   -2.2321    1.4501  -18.9515 H   0  0  0  0  0  0
   -4.2273    2.8213  -17.1082 H   0  0  0  0  0  0
   -4.8150    0.3919  -17.0014 H   0  0  0  0  0  0
   -3.9897    0.8755  -15.4809 H   0  0  0  0  0  0
   -3.0874   -0.0278  -16.7445 H   0  0  0  0  0  0
   -3.2432    3.2592  -15.0366 H   0  0  0  0  0  0
   -0.2207    2.9490  -15.0845 H   0  0  0  0  0  0
   -1.8626    5.2956  -13.9529 H   0  0  0  0  0  0
   -0.0710    5.1675  -13.9281 H   0  0  0  0  0  0
   -0.2291    4.9375  -16.4819 H   0  0  0  0  0  0
   -1.9228    5.5085  -16.3030 H   0  0  0  0  0  0
   -1.2185    7.5767  -15.3698 H   0  0  0  0  0  0
    0.4709    6.9952  -15.1842 H   0  0  0  0  0  0
    0.9161    7.1414  -17.4633 H   0  0  0  0  0  0
   -0.8134    6.9780  -17.9204 H   0  0  0  0  0  0
   -0.0114    9.2742  -18.2458 H   0  0  0  0  0  0
    0.4559    9.3543  -16.5133 H   0  0  0  0  0  0
   -1.2735    9.1909  -16.9703 H   0  0  0  0  0  0
    0.6878    2.1391  -13.2258 H   0  0  0  0  0  0
   -1.2872    1.5371  -10.9608 H   0  0  0  0  0  0
    1.3808    0.3711  -11.7862 H   0  0  0  0  0  0
    0.8160    0.1917  -10.0905 H   0  0  0  0  0  0
    0.3915   -1.7959  -11.3990 H   0  0  0  0  0  0
   -1.1492   -1.0372  -10.8724 H   0  0  0  0  0  0
    1.2252   -0.9937  -13.6075 H   0  0  0  0  0  0
   -0.1232   -0.9273  -14.9519 H   0  0  0  0  0  0
   -0.9747    2.3546   -8.8602 H   0  0  0  0  0  0
    1.0248    4.6336   -8.6851 H   0  0  0  0  0  0
   -1.3283    5.0109   -7.9396 H   0  0  0  0  0  0
   -0.1907    5.1972   -6.5619 H   0  0  0  0  0  0
   -1.1590    3.6936   -6.7302 H   0  0  0  0  0  0
    2.7205    4.8049   -7.2358 H   0  0  0  0  0  0
    2.7177    2.9564   -4.8755 H   0  0  0  0  0  0
    4.0002    2.5424   -6.0632 H   0  0  0  0  0  0
    5.0248    3.0541   -3.8098 H   0  0  0  0  0  0
    5.1994    6.0232   -3.3128 H   0  0  0  0  0  0
    5.1422    4.4007   -1.4411 H   0  0  0  0  0  0
    6.5854    3.5571   -2.0985 H   0  0  0  0  0  0
    7.5303    7.2885   -0.5522 H   0  0  0  0  0  0
    6.7210    7.3224   -3.9490 H   0  0  0  0  0  0
    8.8766    7.9612   -4.1959 H   0  0  0  0  0  0
    9.6758    8.9745   -7.4503 H   0  0  0  0  0  0
    9.6858    5.0173   -4.7294 H   0  0  0  0  0  0
   10.9858    6.2634   -6.2909 H   0  0  0  0  0  0
   11.9717    5.6301   -4.9295 H   0  0  0  0  0  0
   11.5254    7.3692   -4.9822 H   0  0  0  0  0  0
    9.2445    5.9341   -2.4167 H   0  0  0  0  0  0
   10.5077    7.1770   -2.7105 H   0  0  0  0  0  0
   10.9540    5.4378   -2.6577 H   0  0  0  0  0  0
  1  2  1  0  0  0
  1103  1  0  0  0
  1104  1  0  0  0
  1105  1  0  0  0
  2  3  1  0  0  0
  2  5  1  0  0  0
  2106  1  0  0  0
  3  4  2  0  0  0
  3 10  1  0  0  0
  5  6  1  0  0  0
  5107  1  0  0  0
  5108  1  0  0  0
  6  7  1  0  0  0
  6109  1  0  0  0
  6110  1  0  0  0
  7  8  2  0  0  0
  7  9  1  0  0  0
  9111  1  0  0  0
  9112  1  0  0  0
 10 11  1  0  0  0
 10113  1  0  0  0
 11 12  1  0  0  0
 11 14  1  0  0  0
 11114  1  0  0  0
 12 13  2  0  0  0
 12 19  1  0  0  0
 14 15  1  0  0  0
 14115  1  0  0  0
 14116  1  0  0  0
 15 16  1  0  0  0
 15117  1  0  0  0
 15118  1  0  0  0
 16 17  2  0  0  0
 16 18  1  0  0  0
 18119  1  0  0  0
 18120  1  0  0  0
 19 20  1  0  0  0
 19121  1  0  0  0
 20 21  1  0  0  0
 20 23  1  0  0  0
 20122  1  0  0  0
 21 22  2  0  0  0
 21 29  1  0  0  0
 23 24  1  0  0  0
 23123  1  0  0  0
 23124  1  0  0  0
 24 25  2  0  0  0
 24 26  1  0  0  0
 25 27  1  0  0  0
 26 28  2  0  0  0
 26125  1  0  0  0
 27 28  1  0  0  0
 27126  1  0  0  0
 29 30  1  0  0  0
 29127  1  0  0  0
 30 31  1  0  0  0
 30 33  1  0  0  0
 30128  1  0  0  0
 31 32  2  0  0  0
 31 39  1  0  0  0
 33 34  1  0  0  0
 33129  1  0  0  0
 33130  1  0  0  0
 34 35  2  0  0  0
 34 36  1  0  0  0
 35 37  1  0  0  0
 36 38  2  0  0  0
 36131  1  0  0  0
 37 38  1  0  0  0
 37132  1  0  0  0
 39 40  1  0  0  0
 39133  1  0  0  0
 40 41  1  0  0  0
 40 43  1  0  0  0
 40134  1  0  0  0
 41 42  2  0  0  0
 41 47  1  0  0  0
 43 44  1  0  0  0
 43135  1  0  0  0
 43136  1  0  0  0
 44 45  1  0  0  0
 44 46  1  0  0  0
 44137  1  0  0  0
 45138  1  0  0  0
 45139  1  0  0  0
 45140  1  0  0  0
 46141  1  0  0  0
 46142  1  0  0  0
 46143  1  0  0  0
 47 48  1  0  0  0
 47144  1  0  0  0
 48 49  1  0  0  0
 48145  1  0  0  0
 48146  1  0  0  0
 49 50  2  0  0  0
 49 51  1  0  0  0
 51 52  1  0  0  0
 51147  1  0  0  0
 52 53  1  0  0  0
 52148  1  0  0  0
 52149  1  0  0  0
 53 54  2  0  0  0
 53 55  1  0  0  0
 55 56  1  0  0  0
 55150  1  0  0  0
 56 57  1  0  0  0
 56 59  1  0  0  0
 56151  1  0  0  0
 57 58  2  0  0  0
 57 60  1  0  0  0
 59152  1  0  0  0
 59153  1  0  0  0
 59154  1  0  0  0
 60 61  1  0  0  0
 60155  1  0  0  0
 61 62  1  0  0  0
 61 64  1  0  0  0
 61156  1  0  0  0
 62 63  2  0  0  0
 62 69  1  0  0  0
 64 65  1  0  0  0
 64157  1  0  0  0
 64158  1  0  0  0
 65 66  1  0  0  0
 65159  1  0  0  0
 65160  1  0  0  0
 66 67  1  0  0  0
 66161  1  0  0  0
 66162  1  0  0  0
 67 68  1  0  0  0
 67163  1  0  0  0
 67164  1  0  0  0
 68165  1  0  0  0
 68166  1  0  0  0
 68167  1  0  0  0
 69 70  1  0  0  0
 69168  1  0  0  0
 70 71  1  0  0  0
 70 73  1  0  0  0
 70169  1  0  0  0
 71 72  2  0  0  0
 71 78  1  0  0  0
 73 74  1  0  0  0
 73170  1  0  0  0
 73171  1  0  0  0
 74 75  1  0  0  0
 74172  1  0  0  0
 74173  1  0  0  0
 75 76  2  0  0  0
 75 77  1  0  0  0
 77174  1  0  0  0
 77175  1  0  0  0
 78 79  1  0  0  0
 78176  1  0  0  0
 79 80  1  0  0  0
 79 82  1  0  0  0
 79177  1  0  0  0
 80 81  2  0  0  0
 80 83  1  0  0  0
 82178  1  0  0  0
 82179  1  0  0  0
 82180  1  0  0  0
 83 84  1  0  0  0
 83181  1  0  0  0
 84 85  1  0  0  0
 84182  1  0  0  0
 84183  1  0  0  0
 85 86  2  0  0  0
 85 87  1  0  0  0
 87 88  1  0  0  0
 87184  1  0  0  0
 88 89  1  0  0  0
 88 91  1  0  0  0
 88185  1  0  0  0
 89 90  2  0  0  0
 89 95  1  0  0  0
 91 92  1  0  0  0
 91186  1  0  0  0
 91187  1  0  0  0
 92 93  1  0  0  0
 92 94  2  0  0  0
 93188  1  0  0  0
 95 96  1  0  0  0
 95189  1  0  0  0
 96 97  1  0  0  0
 96 99  1  0  0  0
 96190  1  0  0  0
 97 98  1  0  0  0
 97102  2  0  0  0
 98191  1  0  0  0
 99100  1  0  0  0
 99101  1  0  0  0
 99192  1  0  0  0
100193  1  0  0  0
100194  1  0  0  0
100195  1  0  0  0
101196  1  0  0  0
101197  1  0  0  0
101198  1  0  0  0
M  CHG  2   1   1  68   1
M  END
> <s_m_source_file>
../4b60_ligand.sdf

> <i_m_source_file_index>
1

> <s_epik_input>
Tz1DKFtOSDJdKVtDSDJdW0NIMl1bQ0BIXShbTkgzK10pQyg9TylbTkhdW0NAQEhdKFtDSDJdW0NIMl1DKD1PKVtOSDJdKUMoPU8pW05IXVtDQEBIXShbQ0gyXUMxPU5bQ0gyXU49W0NIXTEpQyg9TylbTkhdW0NAQEhdKFtDSDJdQzI9TltDSDJdTj1bQ0hdMilDKD1PKVtOSF1bQ0BASF0oW0NIMl1bQ0hdKFtDSDNdKVtDSDNdKUMoPU8pW05IXVtDSDJdQyg9TylbTkhdW0NIMl1DKD1PKVtOSF1bQ0BASF0oW0NIM10pQyg9TylbTkhdW0NAQEhdKFtDSDJdW0NIMl1bQ0gyXVtDSDJdW05IMytdKUMoPU8pW05IXVtDQEBIXShbQ0gyXVtDSDJdQyg9TylbTkgyXSlDKD1PKVtOSF1bQ0BASF0oW0NIM10pQyg9TylbTkhdW0NIMl1DKD1PKVtOSF1bQ0BASF0oW0NIMl1DKD1PKVtPSF0pQyg9TylbTkhdW0NASF0oQyg9TylbT0hdKVtDSF0oW0NIM10pW0NIM10=

> <s_epik_cmdline>
J2VwaWtfYXBwJywgJy1pbWFlJywgJ2xpZ2FuZF9wcm8ubWFlJywgJy1vbWFlJywgJ2xpZ2FuZF9wcmVwLm1hZScsICctbXMnLCAnMScsICctcGgnLCAnNycsICctcGh0JywgJzAuNScsICctbnQn

> <s_epik_pKa_notes>
Molecule size exceeds maximum supported for generating protonation states

> <s_epik_Chemistry_Notes>
This compound has an imine and may undergo hydrolysis.

$$$$
