4b6c_ligand
                    3D
 Schrodinger Suite 2020-3.
 70 73  0  0  1  0            999 V2000
   27.6240   37.1060   78.4500 C   0  0  0  0  0  0
   26.5110   36.1060   78.1910 C   0  0  0  0  0  0
   25.3820   36.1080   79.0190 C   0  0  0  0  0  0
   24.3360   35.2280   78.8120 C   0  0  0  0  0  0
   24.3750   34.2820   77.7800 C   0  0  0  0  0  0
   25.4790   34.2910   76.9250 C   0  0  0  0  0  0
   26.5390   35.1920   77.0940 C   0  0  0  0  0  0
   27.6970   35.1160   76.1360 C   0  0  0  0  0  0
   23.2250   33.3690   77.5340 C   0  0  0  0  0  0
   23.3350   32.1500   76.8340 C   0  0  0  0  0  0
   22.2790   31.3340   76.6280 N   0  0  0  0  0  0
   21.0840   31.7600   77.1030 C   0  0  0  0  0  0
   20.9370   33.0150   77.7810 C   0  0  0  0  0  0
   22.0220   33.7900   77.9930 N   0  0  0  0  0  0
   19.6180   33.4950   78.3890 C   0  0  0  0  0  0
   18.5940   32.8090   78.2930 O   0  0  0  0  0  0
   19.6550   34.6520   79.0390 N   0  0  0  0  0  0
   19.9460   30.9980   76.9060 N   0  0  0  0  0  0
   19.7590   29.6520   76.4950 C   0  0  0  0  0  0
   20.6160   29.0230   75.5810 C   0  0  0  0  0  0
   20.3840   27.7110   75.1860 C   0  0  0  0  0  0
   19.2730   27.0220   75.6740 C   0  0  0  0  0  0
   18.3950   27.6530   76.5630 C   0  0  0  0  0  0
   18.6310   28.9690   76.9560 C   0  0  0  0  0  0
   18.9920   25.7230   75.2820 O   0  0  0  0  0  0
   19.6360   25.1590   74.1220 C   0  0  0  0  0  0
   19.0370   23.8220   73.7660 C   0  0  0  0  0  0
   19.2590   22.6550   74.7280 C   0  0  0  0  0  0
   20.6740   22.3480   75.0580 N   0  0  1  0  0  0
   20.7630   21.6820   76.3720 C   0  0  0  0  0  0
   22.2040   21.3390   76.7200 C   0  0  0  0  0  0
   22.8020   20.4920   75.6920 N   0  3  1  0  0  0
   22.7330   21.1700   74.3980 C   0  0  0  0  0  0
   21.2940   21.4880   74.0350 C   0  0  0  0  0  0
   24.1860   20.1630   76.0320 C   0  0  0  0  0  0
   27.3833   37.6989   79.3447 H   0  0  0  0  0  0
   27.7247   37.7752   77.5828 H   0  0  0  0  0  0
   28.5701   36.5682   78.6100 H   0  0  0  0  0  0
   25.3266   36.8182   79.8440 H   0  0  0  0  0  0
   23.4641   35.2713   79.4646 H   0  0  0  0  0  0
   25.5174   33.5767   76.1025 H   0  0  0  0  0  0
   28.4411   35.8823   76.3988 H   0  0  0  0  0  0
   27.3372   35.2905   75.1113 H   0  0  0  0  0  0
   28.1591   34.1197   76.1977 H   0  0  0  0  0  0
   24.3094   31.8552   76.4444 H   0  0  0  0  0  0
   20.5940   35.2224   79.0936 H   0  0  0  0  0  0
   18.7467   35.0402   79.5230 H   0  0  0  0  0  0
   18.9527   31.4386   77.0770 H   0  0  0  0  0  0
   21.4701   29.5668   75.1774 H   0  0  0  0  0  0
   21.0696   27.2203   74.4952 H   0  0  0  0  0  0
   17.5279   27.1158   76.9473 H   0  0  0  0  0  0
   17.9316   29.4681   77.6267 H   0  0  0  0  0  0
   19.5119   25.8394   73.2666 H   0  0  0  0  0  0
   20.7076   25.0210   74.3283 H   0  0  0  0  0  0
   17.9444   23.9199   73.6841 H   0  0  0  0  0  0
   19.4476   23.4806   72.8043 H   0  0  0  0  0  0
   18.7602   22.8686   75.6849 H   0  0  0  0  0  0
   18.8392   21.7361   74.2928 H   0  0  0  0  0  0
   20.3643   22.3502   77.1495 H   0  0  0  0  0  0
   20.1764   20.7517   76.3521 H   0  0  0  0  0  0
   22.7921   22.2651   76.8006 H   0  0  0  0  0  0
   22.2317   20.8024   77.6798 H   0  0  0  0  0  0
   22.2372   19.5499   75.6337 H   0  0  0  0  0  0
   23.3036   22.1093   74.4453 H   0  0  0  0  0  0
   23.1605   20.5201   73.6203 H   0  0  0  0  0  0
   20.7314   20.5459   73.9579 H   0  0  0  0  0  0
   21.2792   22.0044   73.0638 H   0  0  0  0  0  0
   24.2131   19.6548   77.0072 H   0  0  0  0  0  0
   24.7805   21.0871   76.0834 H   0  0  0  0  0  0
   24.6052   19.4997   75.2611 H   0  0  0  0  0  0
  1  2  1  0  0  0
  1 36  1  0  0  0
  1 37  1  0  0  0
  1 38  1  0  0  0
  2  3  2  0  0  0
  2  7  1  0  0  0
  3  4  1  0  0  0
  3 39  1  0  0  0
  4  5  2  0  0  0
  4 40  1  0  0  0
  5  6  1  0  0  0
  5  9  1  0  0  0
  6  7  2  0  0  0
  6 41  1  0  0  0
  7  8  1  0  0  0
  8 42  1  0  0  0
  8 43  1  0  0  0
  8 44  1  0  0  0
  9 10  2  0  0  0
  9 14  1  0  0  0
 10 11  1  0  0  0
 10 45  1  0  0  0
 11 12  2  0  0  0
 12 13  1  0  0  0
 12 18  1  0  0  0
 13 14  2  0  0  0
 13 15  1  0  0  0
 15 16  2  0  0  0
 15 17  1  0  0  0
 17 46  1  0  0  0
 17 47  1  0  0  0
 18 19  1  0  0  0
 18 48  1  0  0  0
 19 20  2  0  0  0
 19 24  1  0  0  0
 20 21  1  0  0  0
 20 49  1  0  0  0
 21 22  2  0  0  0
 21 50  1  0  0  0
 22 23  1  0  0  0
 22 25  1  0  0  0
 23 24  2  0  0  0
 23 51  1  0  0  0
 24 52  1  0  0  0
 25 26  1  0  0  0
 26 27  1  0  0  0
 26 53  1  0  0  0
 26 54  1  0  0  0
 27 28  1  0  0  0
 27 55  1  0  0  0
 27 56  1  0  0  0
 28 29  1  0  0  0
 28 57  1  0  0  0
 28 58  1  0  0  0
 29 30  1  0  0  0
 29 34  1  0  0  0
 30 31  1  0  0  0
 30 59  1  0  0  0
 30 60  1  0  0  0
 31 32  1  0  0  0
 31 61  1  0  0  0
 31 62  1  0  0  0
 32 33  1  0  0  0
 32 35  1  0  0  0
 32 63  1  0  0  0
 33 34  1  0  0  0
 33 64  1  0  0  0
 33 65  1  0  0  0
 34 66  1  0  0  0
 34 67  1  0  0  0
 35 68  1  0  0  0
 35 69  1  0  0  0
 35 70  1  0  0  0
M  CHG  1  32   1
M  END
> <s_m_source_file>
../4b6c_ligand.sdf

> <i_m_source_file_index>
1

> <s_epik_input>
W0NIM11jMVtjSF1bY0hdYyhbY0hdYzFbQ0gzXSktYzJbY0hdbmMoYyhuMilDKD1PKVtOSDJdKVtOSF1jM1tjSF1bY0hdYyhbY0hdW2NIXTMpT1tDSDJdW0NIMl1bQ0gyXVtOQEgrXTRbQ0gyXVtDSDJdW05ASCtdKFtDSDNdKVtDSDJdW0NIMl00

> <s_epik_cmdline>
J2VwaWtfYXBwJywgJy1pbWFlJywgJ2xpZ2FuZF9wcm8ubWFlJywgJy1vbWFlJywgJ2xpZ2FuZF9wcmVwLm1hZScsICctbXMnLCAnMScsICctcGgnLCAnNycsICctcGh0JywgJzAuNScsICctbnQn

> <r_lp_tautomer_probability>
0.999999901280008

> <r_epik_Ionization_Penalty>
  0.0280

> <r_epik_Ionization_Penalty_Charging>
  0.0275

> <r_epik_Ionization_Penalty_Neutral>
  0.0005

> <r_epik_State_Penalty>
  0.1076

> <r_epik_Charging_Adjusted_Penalty>
0.135024481058367

> <i_epik_Tot_Q>
1

> <i_epik_Tot_abs_Q>
1

$$$$
