4b6f_ligand
                    3D
 Schrodinger Suite 2020-3.
 29 30  0  0  1  0            999 V2000
   -0.1500   14.8320  -43.5070 N   0  3  0  0  0  0
   -0.0610   14.5840  -42.0440 C   0  0  0  0  0  0
    7.4920   13.5410  -37.9400 C   0  0  0  0  0  0
    7.9870   14.3760  -38.9220 C   0  0  0  0  0  0
    7.1440   15.2470  -39.5760 C   0  0  0  0  0  0
    5.7990   15.3030  -39.2350 C   0  0  0  0  0  0
    5.2980   14.4360  -38.2760 C   0  0  0  0  0  0
    6.1500   13.5750  -37.6140 C   0  0  0  0  0  0
    1.2700   14.9940  -41.4660 C   0  0  0  0  0  0
    1.5460   16.3330  -41.2040 C   0  0  0  0  0  0
    2.7720   16.7120  -40.6960 C   0  0  0  0  0  0
    3.7240   15.7560  -40.3840 C   0  0  0  0  0  0
    3.4750   14.4230  -40.6790 C   0  0  0  0  0  0
    2.2530   14.0430  -41.1960 C   0  0  0  0  0  0
    4.9590   16.1520  -39.9170 O   0  0  0  0  0  0
   -1.1378   14.5155  -43.8731 H   0  0  0  0  0  0
    0.6336   14.2590  -44.0243 H   0  0  0  0  0  0
   -0.0116   15.9049  -43.7061 H   0  0  0  0  0  0
   -0.8446   15.1570  -41.5267 H   0  0  0  0  0  0
   -0.1994   13.5111  -41.8449 H   0  0  0  0  0  0
    8.1609   12.8542  -37.4214 H   0  0  0  0  0  0
    9.0456   14.3458  -39.1798 H   0  0  0  0  0  0
    7.5332   15.8935  -40.3626 H   0  0  0  0  0  0
    4.2327   14.4343  -38.0451 H   0  0  0  0  0  0
    5.7632   12.9208  -36.8327 H   0  0  0  0  0  0
    0.7866   17.0894  -41.4020 H   0  0  0  0  0  0
    2.9918   17.7681  -40.5397 H   0  0  0  0  0  0
    4.2468   13.6739  -40.5019 H   0  0  0  0  0  0
    2.0547   12.9898  -41.3950 H   0  0  0  0  0  0
  1  2  1  0  0  0
  1 16  1  0  0  0
  1 17  1  0  0  0
  1 18  1  0  0  0
  2  9  1  0  0  0
  2 19  1  0  0  0
  2 20  1  0  0  0
  3  4  2  0  0  0
  3  8  1  0  0  0
  3 21  1  0  0  0
  4  5  1  0  0  0
  4 22  1  0  0  0
  5  6  2  0  0  0
  5 23  1  0  0  0
  6  7  1  0  0  0
  6 15  1  0  0  0
  7  8  2  0  0  0
  7 24  1  0  0  0
  8 25  1  0  0  0
  9 10  2  0  0  0
  9 14  1  0  0  0
 10 11  1  0  0  0
 10 26  1  0  0  0
 11 12  2  0  0  0
 11 27  1  0  0  0
 12 13  1  0  0  0
 12 15  1  0  0  0
 13 14  2  0  0  0
 13 28  1  0  0  0
 14 29  1  0  0  0
M  CHG  1   1   1
M  END
> <s_m_source_file>
../4b6f_ligand.sdf

> <i_m_source_file_index>
1

> <s_epik_input>
W05IMytdW0NIMl1jMVtjSF1bY0hdYyhbY0hdW2NIXTEpT2MyW2NIXVtjSF1bY0hdW2NIXVtjSF0y

> <s_epik_cmdline>
J2VwaWtfYXBwJywgJy1pbWFlJywgJ2xpZ2FuZF9wcm8ubWFlJywgJy1vbWFlJywgJ2xpZ2FuZF9wcmVwLm1hZScsICctbXMnLCAnMScsICctcGgnLCAnNycsICctcGh0JywgJzAuNScsICctbnQn

> <r_lp_tautomer_probability>
1

> <r_epik_Ionization_Penalty>
  0.0272

> <r_epik_Ionization_Penalty_Charging>
  0.0272

> <r_epik_Ionization_Penalty_Neutral>
  0.0000

> <r_epik_State_Penalty>
  0.0222

> <r_epik_Charging_Adjusted_Penalty>
0.0493596612159649

> <i_epik_Tot_Q>
1

> <i_epik_Tot_abs_Q>
1

$$$$
