4b6o_ligand
                    3D
 Schrodinger Suite 2020-3.
 39 40  0  0  1  0            999 V2000
  -52.1670  -29.4250   -7.6900 C   0  0  0  0  0  0
  -51.2420  -28.9440   -6.6820 O   0  0  0  0  0  0
  -49.9080  -29.2470   -6.8040 C   0  0  0  0  0  0
  -49.3690  -29.8830   -7.9070 C   0  0  0  0  0  0
  -48.0060  -30.1570   -7.9810 C   0  0  0  0  0  0
  -49.0560  -28.9030   -5.7600 C   0  0  0  0  0  0
  -47.7000  -29.1840   -5.8220 C   0  0  0  0  0  0
  -47.1790  -29.8300   -6.9360 C   0  0  0  0  0  0
  -45.6960  -30.1330   -6.9930 C   0  0  0  0  0  0
  -44.8700  -28.8360   -7.1380 C   0  0  2  0  0  0
  -45.2230  -28.1690   -8.4810 C   0  0  0  0  0  0
  -45.9670  -27.1690   -8.5380 O   0  0  0  0  0  0
  -44.6370  -28.7950   -9.7530 C   0  0  1  0  0  0
  -44.8850  -27.9660  -10.9130 O   0  0  0  0  0  0
  -43.1270  -29.0040   -9.5600 C   0  0  2  0  0  0
  -42.6160  -29.6960  -10.7040 O   0  0  0  0  0  0
  -42.8330  -29.8340   -8.3050 C   0  0  0  0  0  0
  -43.3140  -29.0840   -7.0440 C   0  0  2  0  0  0
  -42.9860  -29.8570   -5.7510 C   0  0  0  0  0  0
  -42.8180  -31.1090   -5.8300 O   0  5  0  0  0  0
  -42.9140  -29.1860   -4.6820 O   0  0  0  0  0  0
  -42.6360  -27.7790   -7.0150 O   0  0  0  0  0  0
  -53.1860  -29.0945   -7.4401 H   0  0  0  0  0  0
  -52.1355  -30.5241   -7.7219 H   0  0  0  0  0  0
  -51.8811  -29.0213   -8.6725 H   0  0  0  0  0  0
  -50.0208  -30.1742   -8.7307 H   0  0  0  0  0  0
  -47.5947  -30.6325   -8.8714 H   0  0  0  0  0  0
  -49.4608  -28.4046   -4.8792 H   0  0  0  0  0  0
  -47.0445  -28.8989   -4.9991 H   0  0  0  0  0  0
  -45.3903  -30.6438   -6.0680 H   0  0  0  0  0  0
  -45.4872  -30.7820   -7.8563 H   0  0  0  0  0  0
  -45.1540  -28.1745   -6.3063 H   0  0  0  0  0  0
  -45.1498  -29.7402   -9.9844 H   0  0  0  0  0  0
  -45.9170  -27.7147  -11.1989 H   0  0  0  0  0  0
  -42.6074  -28.0363   -9.4996 H   0  0  0  0  0  0
  -42.7293  -29.2590  -11.7071 H   0  0  0  0  0  0
  -43.3577  -30.7984   -8.3720 H   0  0  0  0  0  0
  -41.7500  -30.0104   -8.2275 H   0  0  0  0  0  0
  -42.7508  -27.0807   -7.8571 H   0  0  0  0  0  0
  1  2  1  0  0  0
  1 23  1  0  0  0
  1 24  1  0  0  0
  1 25  1  0  0  0
  2  3  1  0  0  0
  3  4  2  0  0  0
  3  6  1  0  0  0
  4  5  1  0  0  0
  4 26  1  0  0  0
  5  8  2  0  0  0
  5 27  1  0  0  0
  6  7  2  0  0  0
  6 28  1  0  0  0
  7  8  1  0  0  0
  7 29  1  0  0  0
  8  9  1  0  0  0
  9 10  1  0  0  0
  9 30  1  0  0  0
  9 31  1  0  0  0
 10 11  1  0  0  0
 10 18  1  0  0  0
 10 32  1  0  0  0
 11 12  2  0  0  0
 11 13  1  0  0  0
 13 14  1  0  0  0
 13 15  1  0  0  0
 13 33  1  0  0  0
 14 34  1  0  0  0
 15 16  1  0  0  0
 15 17  1  0  0  0
 15 35  1  0  0  0
 16 36  1  0  0  0
 17 18  1  0  0  0
 17 37  1  0  0  0
 17 38  1  0  0  0
 18 19  1  0  0  0
 18 22  1  0  0  0
 19 20  1  0  0  0
 19 21  2  0  0  0
 22 39  1  0  0  0
M  CHG  1  20  -1
M  END
> <s_m_source_file>
../4b6o_ligand.sdf

> <i_m_source_file_index>
1

> <s_epik_input>
W0NIM11PYzFbY0hdW2NIXWMoW2NIXVtjSF0xKVtDSDJdW0NAQEhdKFtDQEBdMihbT0hdKUMoPU8pW09IXSlDKD1PKVtDQEBIXShbT0hdKVtDQEhdKFtPSF0pW0NIMl0y

> <s_epik_cmdline>
J2VwaWtfYXBwJywgJy1pbWFlJywgJ2xpZ2FuZF9wcm8ubWFlJywgJy1vbWFlJywgJ2xpZ2FuZF9wcmVwLm1hZScsICctbXMnLCAnMScsICctcGgnLCAnNycsICctcGh0JywgJzAuNScsICctbnQn

> <r_lp_tautomer_probability>
1

> <r_epik_Ionization_Penalty>
  0.0001

> <r_epik_Ionization_Penalty_Charging>
  0.0001

> <r_epik_Ionization_Penalty_Neutral>
  0.0000

> <r_epik_State_Penalty>
 -0.0000

> <r_epik_Charging_Adjusted_Penalty>
9.39619022213023e-05

> <i_epik_Tot_Q>
-1

> <i_epik_Tot_abs_Q>
1

$$$$
