4b6q_ligand
                    3D
 Schrodinger Suite 2020-3.
 38 40  0  0  1  0            999 V2000
   18.7850    2.0030   36.0950 C   0  0  0  0  0  0
   17.5020    1.7350   36.3290 C   0  0  0  0  0  0
   16.5040    2.5880   36.8230 C   0  0  0  0  0  0
   15.2280    2.1240   36.9840 C   0  0  0  0  0  0
   14.9300    0.8050   36.5900 C   0  0  0  0  0  0
   15.8890   -0.0610   36.0800 C   0  0  0  0  0  0
   17.1750    0.4050   35.9460 C   0  0  0  0  0  0
   18.5790   -0.3810   35.3420 S   0  0  0  0  0  0
   19.5130    1.0090   35.6300 C   0  0  0  0  0  0
   14.6370    4.0320   40.0500 O   0  0  0  0  0  0
   13.8110    3.1250   40.0510 C   0  0  0  0  0  0
   11.9030    2.4300   38.7040 C   0  0  1  0  0  0
   11.4200    1.6500   37.4850 C   0  0  0  0  0  0
   13.4340    2.4110   38.7620 C   0  0  1  0  0  0
   11.4720    0.4090   37.5480 O   0  0  0  0  0  0
   11.0520    2.3070   36.4950 O   0  5  0  0  0  0
   11.4780    3.8010   38.5940 O   0  0  0  0  0  0
   11.3290    1.7900   39.9700 C   0  0  0  0  0  0
   11.6870    2.5790   41.2280 C   0  0  1  0  0  0
   11.1510    1.9240   42.4260 O   0  0  0  0  0  0
   13.1930    2.6460   41.3620 C   0  0  2  0  0  0
   13.5540    3.5520   42.4580 O   0  0  0  0  0  0
   14.1120    3.0220   37.5360 C   0  0  0  0  0  0
   19.2092    2.9902   36.2781 H   0  0  0  0  0  0
   16.7455    3.6198   37.0783 H   0  0  0  0  0  0
   13.9046    0.4491   36.6894 H   0  0  0  0  0  0
   15.6292   -1.0803   35.7944 H   0  0  0  0  0  0
   20.5865    1.0706   35.4512 H   0  0  0  0  0  0
   13.8012    1.3741   38.7581 H   0  0  0  0  0  0
   11.8025    4.4104   37.7377 H   0  0  0  0  0  0
   10.2325    1.7467   39.8941 H   0  0  0  0  0  0
   11.7294    0.7714   40.0799 H   0  0  0  0  0  0
   11.2408    3.5830   41.1740 H   0  0  0  0  0  0
   10.0665    1.7733   42.5318 H   0  0  0  0  0  0
   13.5896    1.6542   41.6246 H   0  0  0  0  0  0
   14.6124    3.7250   42.7026 H   0  0  0  0  0  0
   14.5348    3.9946   37.8281 H   0  0  0  0  0  0
   13.3459    3.1730   36.7612 H   0  0  0  0  0  0
  1  2  1  0  0  0
  1  9  2  0  0  0
  1 24  1  0  0  0
  2  3  2  0  0  0
  2  7  1  0  0  0
  3  4  1  0  0  0
  3 25  1  0  0  0
  4  5  2  0  0  0
  4 23  1  0  0  0
  5  6  1  0  0  0
  5 26  1  0  0  0
  6  7  2  0  0  0
  6 27  1  0  0  0
  7  8  1  0  0  0
  8  9  1  0  0  0
  9 28  1  0  0  0
 10 11  2  0  0  0
 11 14  1  0  0  0
 11 21  1  0  0  0
 12 13  1  0  0  0
 12 14  1  0  0  0
 12 17  1  0  0  0
 12 18  1  0  0  0
 13 15  2  0  0  0
 13 16  1  0  0  0
 14 23  1  0  0  0
 14 29  1  0  0  0
 17 30  1  0  0  0
 18 19  1  0  0  0
 18 31  1  0  0  0
 18 32  1  0  0  0
 19 20  1  0  0  0
 19 21  1  0  0  0
 19 33  1  0  0  0
 20 34  1  0  0  0
 21 22  1  0  0  0
 21 35  1  0  0  0
 22 36  1  0  0  0
 23 37  1  0  0  0
 23 38  1  0  0  0
M  CHG  1  16  -1
M  END
> <s_m_source_file>
../4b6q_ligand.sdf

> <i_m_source_file_index>
1

> <s_epik_input>
W2NIXTFbY0hdc2MoYzEyKVtjSF1bY0hdYyhbY0hdMilbQ0gyXVtDQEhdKFtDQEBdMyhbT0hdKUMoPU8pW09IXSlDKD1PKVtDQEBIXShbT0hdKVtDQEBIXShbQ0gyXTMpW09IXQ==

> <s_epik_cmdline>
J2VwaWtfYXBwJywgJy1pbWFlJywgJ2xpZ2FuZF9wcm8ubWFlJywgJy1vbWFlJywgJ2xpZ2FuZF9wcmVwLm1hZScsICctbXMnLCAnMScsICctcGgnLCAnNycsICctcGh0JywgJzAuNScsICctbnQn

> <r_lp_tautomer_probability>
1

> <r_epik_Ionization_Penalty>
  0.0001

> <r_epik_Ionization_Penalty_Charging>
  0.0001

> <r_epik_Ionization_Penalty_Neutral>
  0.0000

> <r_epik_State_Penalty>
 -0.0000

> <r_epik_Charging_Adjusted_Penalty>
9.39619022213023e-05

> <i_epik_Tot_Q>
-1

> <i_epik_Tot_abs_Q>
1

$$$$
