4b71_ligand
                    3D
 Schrodinger Suite 2020-3.
 35 36  0  0  1  0            999 V2000
    7.7680   13.4270  -39.4550 C   0  0  0  0  0  0
    7.1580   13.4280  -38.2140 C   0  0  0  0  0  0
    5.8280   13.7970  -38.0940 C   0  0  0  0  0  0
    5.1050   14.1660  -39.2150 C   0  0  0  0  0  0
    5.7170   14.1650  -40.4640 C   0  0  0  0  0  0
    7.0530   13.7940  -40.5790 C   0  0  0  0  0  0
    5.1250   14.5100  -41.6870 O   0  0  0  0  0  0
    3.8310   15.0160  -41.7490 C   0  0  0  0  0  0
    3.4620   16.3190  -41.3980 C   0  0  0  0  0  0
    2.1500   16.7420  -41.4900 C   0  0  0  0  0  0
    1.1700   15.8830  -41.9320 C   0  0  0  0  0  0
    1.4900   14.5790  -42.2910 C   0  0  0  0  0  0
    2.8320   14.1670  -42.1910 C   0  0  0  0  0  0
    4.6360   17.4580  -40.8330 Cl  0  0  0  0  0  0
    0.5340   12.2930  -42.1410 N   0  3  0  0  0  0
    0.1150   14.7410  -45.0340 C   0  0  0  0  0  0
    0.4300   13.4730  -44.2950 C   0  0  0  0  0  0
    3.1500   12.9070  -42.5370 F   0  0  0  0  0  0
    0.4080   13.6340  -42.7790 C   0  0  2  0  0  0
    8.8145   13.1362  -39.5467 H   0  0  0  0  0  0
    7.7243   13.1381  -37.3290 H   0  0  0  0  0  0
    5.3499   13.7967  -37.1144 H   0  0  0  0  0  0
    4.0588   14.4566  -39.1193 H   0  0  0  0  0  0
    7.5359   13.7929  -41.5562 H   0  0  0  0  0  0
    1.8894   17.7629  -41.2106 H   0  0  0  0  0  0
    0.1380   16.2269  -42.0009 H   0  0  0  0  0  0
    0.5186   12.4047  -41.0468 H   0  0  0  0  0  0
    1.4823   11.8282  -42.4488 H   0  0  0  0  0  0
   -0.3058   11.6565  -42.4565 H   0  0  0  0  0  0
    0.1486   14.5521  -46.1171 H   0  0  0  0  0  0
    0.8557   15.5112  -44.7729 H   0  0  0  0  0  0
   -0.8901   15.0889  -44.7534 H   0  0  0  0  0  0
   -0.3107   12.7028  -44.5561 H   0  0  0  0  0  0
    1.4351   13.1251  -44.5756 H   0  0  0  0  0  0
   -0.5547   14.0700  -42.4738 H   0  0  0  0  0  0
  1  2  2  0  0  0
  1  6  1  0  0  0
  1 20  1  0  0  0
  2  3  1  0  0  0
  2 21  1  0  0  0
  3  4  2  0  0  0
  3 22  1  0  0  0
  4  5  1  0  0  0
  4 23  1  0  0  0
  5  6  2  0  0  0
  5  7  1  0  0  0
  6 24  1  0  0  0
  7  8  1  0  0  0
  8  9  2  0  0  0
  8 13  1  0  0  0
  9 10  1  0  0  0
  9 14  1  0  0  0
 10 11  2  0  0  0
 10 25  1  0  0  0
 11 12  1  0  0  0
 11 26  1  0  0  0
 12 13  2  0  0  0
 12 19  1  0  0  0
 13 18  1  0  0  0
 15 19  1  0  0  0
 15 27  1  0  0  0
 15 28  1  0  0  0
 15 29  1  0  0  0
 16 17  1  0  0  0
 16 30  1  0  0  0
 16 31  1  0  0  0
 16 32  1  0  0  0
 17 19  1  0  0  0
 17 33  1  0  0  0
 17 34  1  0  0  0
 19 35  1  0  0  0
M  CHG  1  15   1
M  END
> <s_m_source_file>
../4b71_ligand.sdf

> <i_m_source_file_index>
1

> <s_epik_input>
W2NIXTFbY0hdW2NIXVtjSF1bY0hdYzFPYzJjKENsKVtjSF1bY0hdYyhjMkYpW0NASF0oW05IMytdKVtDSDJdW0NIM10=

> <s_epik_cmdline>
J2VwaWtfYXBwJywgJy1pbWFlJywgJ2xpZ2FuZF9wcm8ubWFlJywgJy1vbWFlJywgJ2xpZ2FuZF9wcmVwLm1hZScsICctbXMnLCAnMScsICctcGgnLCAnNycsICctcGh0JywgJzAuNScsICctbnQn

> <r_lp_tautomer_probability>
1

> <r_epik_Ionization_Penalty>
  0.0331

> <r_epik_Ionization_Penalty_Charging>
  0.0331

> <r_epik_Ionization_Penalty_Neutral>
  0.0000

> <r_epik_State_Penalty>
  0.0275

> <r_epik_Charging_Adjusted_Penalty>
0.0606536241781828

> <i_epik_Tot_Q>
1

> <i_epik_Tot_abs_Q>
1

$$$$
