4b72_ligand
                    3D
 Schrodinger Suite 2020-3.
 49 53  0  0  1  0            999 V2000
    8.3090    3.8620  -16.2020 C   0  0  0  0  0  0
    7.4260    3.5170  -17.3770 C   0  0  0  0  0  0
    6.1380    3.6020  -17.3760 N   0  0  0  0  0  0
    5.5420    3.2460  -18.5300 C   0  0  0  0  0  0
    6.4080    2.8550  -19.5020 C   0  0  0  0  0  0
    7.9840    2.9370  -18.8880 S   0  0  0  0  0  0
    5.6180    2.5000  -20.7410 C   0  0  1  0  0  0
    4.2250    2.7250  -20.3170 N   0  0  0  0  0  0
    4.1850    3.1500  -19.0900 C   0  0  0  0  0  0
    3.0500    3.4390  -18.3700 N   0  0  0  0  0  0
    5.9470    3.4390  -21.8910 C   0  0  0  0  0  0
    7.2010    4.0510  -22.0210 C   0  0  0  0  0  0
    7.4610    4.8970  -23.1010 C   0  0  0  0  0  0
    6.4430    5.2320  -24.0010 C   0  0  0  0  0  0
    5.1760    4.6140  -23.8870 C   0  0  0  0  0  0
    4.9470    3.7410  -22.8200 C   0  0  0  0  0  0
    6.7240    6.0700  -25.0280 O   0  0  0  0  0  0
    5.6880    6.8500  -25.6560 C   0  0  0  0  0  0
    5.8800    1.0340  -21.1000 C   0  0  0  0  0  0
    6.6880    0.6630  -22.1840 C   0  0  0  0  0  0
    6.9220   -0.6810  -22.4790 C   0  0  0  0  0  0
    6.3890   -1.6760  -21.6710 C   0  0  0  0  0  0
    5.5690   -1.3160  -20.5870 C   0  0  0  0  0  0
    5.3710    0.0400  -20.2870 C   0  0  0  0  0  0
    5.0490   -2.3590  -19.6540 C   0  0  0  0  0  0
    5.8900   -3.4100  -19.2180 C   0  0  0  0  0  0
    5.4430   -4.2910  -18.3220 N   0  0  0  0  0  0
    4.2030   -4.2060  -17.8360 C   0  0  0  0  0  0
    3.3940   -3.2220  -18.2010 N   0  0  0  0  0  0
    3.7620   -2.3020  -19.1010 C   0  0  0  0  0  0
    7.6859    4.2088  -15.3645 H   0  0  0  0  0  0
    9.0102    4.6585  -16.4917 H   0  0  0  0  0  0
    8.8742    2.9701  -15.8938 H   0  0  0  0  0  0
    3.1326    3.7943  -17.3322 H   0  0  0  0  0  0
    7.9757    3.8661  -21.2768 H   0  0  0  0  0  0
    8.4639    5.2993  -23.2441 H   0  0  0  0  0  0
    4.3926    4.8149  -24.6178 H   0  0  0  0  0  0
    3.9637    3.2839  -22.7093 H   0  0  0  0  0  0
    6.1247    7.4591  -26.4612 H   0  0  0  0  0  0
    5.2218    7.5094  -24.9091 H   0  0  0  0  0  0
    4.9266    6.1770  -26.0771 H   0  0  0  0  0  0
    7.1402    1.4357  -22.8057 H   0  0  0  0  0  0
    7.5250   -0.9501  -23.3463 H   0  0  0  0  0  0
    6.6038   -2.7250  -21.8747 H   0  0  0  0  0  0
    4.8054    0.3141  -19.3965 H   0  0  0  0  0  0
    6.9017   -3.4995  -19.6138 H   0  0  0  0  0  0
    3.8506   -4.9567  -17.1287 H   0  0  0  0  0  0
    3.0682   -1.5166  -19.4008 H   0  0  0  0  0  0
    2.0593    3.3149  -18.8317 H   0  0  0  0  0  0
  1  2  1  0  0  0
  1 31  1  0  0  0
  1 32  1  0  0  0
  1 33  1  0  0  0
  2  3  2  0  0  0
  2  6  1  0  0  0
  3  4  1  0  0  0
  4  5  2  0  0  0
  4  9  1  0  0  0
  5  6  1  0  0  0
  5  7  1  0  0  0
  7  8  1  0  0  0
  7 11  1  0  0  0
  7 19  1  0  0  0
  8  9  2  0  0  0
  9 10  1  0  0  0
 10 34  1  0  0  0
 10 49  1  0  0  0
 11 12  2  0  0  0
 11 16  1  0  0  0
 12 13  1  0  0  0
 12 35  1  0  0  0
 13 14  2  0  0  0
 13 36  1  0  0  0
 14 15  1  0  0  0
 14 17  1  0  0  0
 15 16  2  0  0  0
 15 37  1  0  0  0
 16 38  1  0  0  0
 17 18  1  0  0  0
 18 39  1  0  0  0
 18 40  1  0  0  0
 18 41  1  0  0  0
 19 20  2  0  0  0
 19 24  1  0  0  0
 20 21  1  0  0  0
 20 42  1  0  0  0
 21 22  2  0  0  0
 21 43  1  0  0  0
 22 23  1  0  0  0
 22 44  1  0  0  0
 23 24  2  0  0  0
 23 25  1  0  0  0
 24 45  1  0  0  0
 25 26  2  0  0  0
 25 30  1  0  0  0
 26 27  1  0  0  0
 26 46  1  0  0  0
 27 28  2  0  0  0
 28 29  1  0  0  0
 28 47  1  0  0  0
 29 30  2  0  0  0
 30 48  1  0  0  0
M  END
> <s_m_source_file>
../4b72_ligand.sdf

> <i_m_source_file_index>
1

> <s_epik_input>
W2NIXTFbY0hdYyhPW0NIM10pW2NIXVtjSF1jMVtDQF0oW05IXUNcMj1OL1tIXSkoYyhjMjMpc2MobjMpW0NIM10pYzRbY0hdW2NIXVtjSF1jKFtjSF00KS1jNVtjSF1uW2NIXW5bY0hdNQ==

> <s_epik_cmdline>
J2VwaWtfYXBwJywgJy1pbWFlJywgJ2xpZ2FuZF9wcm8ubWFlJywgJy1vbWFlJywgJ2xpZ2FuZF9wcmVwLm1hZScsICctbXMnLCAnMScsICctcGgnLCAnNycsICctcGh0JywgJzAuNScsICctbnQn

> <r_lp_tautomer_probability>
1

> <r_epik_Ionization_Penalty>
  0.0795

> <r_epik_Ionization_Penalty_Charging>
  0.0000

> <r_epik_Ionization_Penalty_Neutral>
  0.0795

> <r_epik_State_Penalty>
 -0.0000

> <r_epik_Charging_Adjusted_Penalty>
0

> <i_epik_Tot_Q>
0

> <i_epik_Tot_abs_Q>
0

> <s_epik_Chemistry_Notes>
This compound has an imine and may undergo hydrolysis.

$$$$
