4b74_ligand
                    3D
 Schrodinger Suite 2020-3.
 57 58  0  0  1  0            999 V2000
    0.6250   15.0930  -43.9980 C   0  0  0  0  0  0
    0.6720   13.9110  -43.0580 C   0  0  0  0  0  0
    0.5230   14.2910  -41.5940 C   0  0  1  0  0  0
    0.3180   13.0290  -40.7840 N   0  3  0  0  0  0
   -1.0690   12.4440  -40.6880 C   0  0  1  0  0  0
   -1.0120   11.0810  -40.0140 C   0  0  0  0  0  0
   -2.0150   13.4090  -39.9670 C   0  0  0  0  0  0
   -1.6630   13.6930  -38.5260 C   0  0  0  0  0  0
   -0.5270   14.0170  -38.1870 O   0  0  0  0  0  0
   -2.6690   13.5670  -37.6630 N   0  0  0  0  0  0
   -2.4760   13.7190  -36.2320 C   0  0  0  0  0  0
   -3.6190   14.4660  -35.5810 C   0  0  0  0  0  0
   -3.7090   15.8510  -36.1020 N   0  3  0  0  0  0
    1.7030   15.0960  -41.0670 C   0  0  0  0  0  0
    1.5490   16.4250  -40.6860 C   0  0  0  0  0  0
    2.6330   17.1410  -40.2090 C   0  0  0  0  0  0
    3.8810   16.5450  -40.1040 C   0  0  0  0  0  0
    5.1890   17.5050  -39.4980 Cl  0  0  0  0  0  0
    4.0830   15.2180  -40.4730 C   0  0  0  0  0  0
    5.3080   14.5580  -40.3940 O   0  0  0  0  0  0
    5.8700   14.2600  -39.1690 C   0  0  0  0  0  0
    5.2640   14.3870  -37.9300 C   0  0  0  0  0  0
    5.9630   14.0450  -36.7850 C   0  0  0  0  0  0
    7.2550   13.5800  -36.8780 C   0  0  0  0  0  0
    7.8580   13.4530  -38.1100 C   0  0  0  0  0  0
    7.1670   13.7920  -39.2580 C   0  0  0  0  0  0
    2.9870   14.5200  -40.9480 C   0  0  0  0  0  0
    3.1470   13.2370  -41.3120 F   0  0  0  0  0  0
    0.7387   14.7421  -45.0343 H   0  0  0  0  0  0
    1.4422   15.7879  -43.7544 H   0  0  0  0  0  0
   -0.3401   15.6095  -43.8896 H   0  0  0  0  0  0
   -0.1452   13.2161  -43.3016 H   0  0  0  0  0  0
    1.6371   13.3944  -43.1664 H   0  0  0  0  0  0
   -0.3557   14.9453  -41.4947 H   0  0  0  0  0  0
    0.9323   12.2194  -41.2049 H   0  0  0  0  0  0
    0.6156   13.2105  -39.7407 H   0  0  0  0  0  0
   -1.4593   12.2975  -41.7060 H   0  0  0  0  0  0
   -0.3220   10.4270  -40.5673 H   0  0  0  0  0  0
   -2.0165   10.6327  -40.0078 H   0  0  0  0  0  0
   -0.6563   11.1980  -38.9797 H   0  0  0  0  0  0
   -2.0164   14.3782  -40.4872 H   0  0  0  0  0  0
   -3.0329   12.9921  -39.9657 H   0  0  0  0  0  0
   -3.6688   13.3411  -38.0622 H   0  0  0  0  0  0
   -2.4046   12.7260  -35.7642 H   0  0  0  0  0  0
   -1.5486   14.2801  -36.0446 H   0  0  0  0  0  0
   -4.5648   13.9459  -35.7928 H   0  0  0  0  0  0
   -3.4584   14.5065  -34.4935 H   0  0  0  0  0  0
   -4.5458   16.3725  -35.6144 H   0  0  0  0  0  0
   -3.8772   15.8237  -37.1887 H   0  0  0  0  0  0
   -2.7708   16.3844  -35.8894 H   0  0  0  0  0  0
    0.5726   16.9034  -40.7633 H   0  0  0  0  0  0
    2.5049   18.1823  -39.9133 H   0  0  0  0  0  0
    4.2406   14.7548  -37.8567 H   0  0  0  0  0  0
    5.4894   14.1442  -35.8083 H   0  0  0  0  0  0
    7.8025   13.3115  -35.9745 H   0  0  0  0  0  0
    8.8815   13.0846  -38.1796 H   0  0  0  0  0  0
    7.6447   13.6903  -40.2325 H   0  0  0  0  0  0
  1  2  1  0  0  0
  1 29  1  0  0  0
  1 30  1  0  0  0
  1 31  1  0  0  0
  2  3  1  0  0  0
  2 32  1  0  0  0
  2 33  1  0  0  0
  3  4  1  0  0  0
  3 14  1  0  0  0
  3 34  1  0  0  0
  4  5  1  0  0  0
  4 35  1  0  0  0
  4 36  1  0  0  0
  5  6  1  0  0  0
  5  7  1  0  0  0
  5 37  1  0  0  0
  6 38  1  0  0  0
  6 39  1  0  0  0
  6 40  1  0  0  0
  7  8  1  0  0  0
  7 41  1  0  0  0
  7 42  1  0  0  0
  8  9  2  0  0  0
  8 10  1  0  0  0
 10 11  1  0  0  0
 10 43  1  0  0  0
 11 12  1  0  0  0
 11 44  1  0  0  0
 11 45  1  0  0  0
 12 13  1  0  0  0
 12 46  1  0  0  0
 12 47  1  0  0  0
 13 48  1  0  0  0
 13 49  1  0  0  0
 13 50  1  0  0  0
 14 15  2  0  0  0
 14 27  1  0  0  0
 15 16  1  0  0  0
 15 51  1  0  0  0
 16 17  2  0  0  0
 16 52  1  0  0  0
 17 18  1  0  0  0
 17 19  1  0  0  0
 19 20  1  0  0  0
 19 27  2  0  0  0
 20 21  1  0  0  0
 21 22  2  0  0  0
 21 26  1  0  0  0
 22 23  1  0  0  0
 22 53  1  0  0  0
 23 24  2  0  0  0
 23 54  1  0  0  0
 24 25  1  0  0  0
 24 55  1  0  0  0
 25 26  2  0  0  0
 25 56  1  0  0  0
 26 57  1  0  0  0
 27 28  1  0  0  0
M  CHG  2   4   1  13   1
M  END
> <s_m_source_file>
../4b74_ligand.sdf

> <i_m_source_file_index>
1

> <s_epik_input>
W05IMytdW0NIMl1bQ0gyXVtOSF1DKD1PKVtDSDJdW0NASF0oW0NIM10pW05IMitdW0NASF0oW0NIMl1bQ0gzXSljMVtjSF1bY0hdYyhDbCljKGMxRilPYzJbY0hdW2NIXVtjSF1bY0hdW2NIXTI=

> <s_epik_cmdline>
J2VwaWtfYXBwJywgJy1pbWFlJywgJ2xpZ2FuZF9wcm8ubWFlJywgJy1vbWFlJywgJ2xpZ2FuZF9wcmVwLm1hZScsICctbXMnLCAnMScsICctcGgnLCAnNycsICctcGh0JywgJzAuNScsICctbnQn

> <r_lp_tautomer_probability>
1

> <r_epik_Ionization_Penalty>
  0.0300

> <r_epik_Ionization_Penalty_Charging>
  0.0300

> <r_epik_Ionization_Penalty_Neutral>
  0.0000

> <r_epik_State_Penalty>
  0.0227

> <r_epik_Charging_Adjusted_Penalty>
0.0527360692328076

> <i_epik_Tot_Q>
2

> <i_epik_Tot_abs_Q>
2

$$$$
