4b77_ligand
                    3D
 Schrodinger Suite 2020-3.
 47 50  0  0  1  0            999 V2000
    5.5780    6.8520  -25.8940 C   0  0  0  0  0  0
    6.6450    6.2270  -25.1580 O   0  0  0  0  0  0
    6.3390    5.3480  -24.1550 C   0  0  0  0  0  0
    7.3460    5.0280  -23.2550 C   0  0  0  0  0  0
    7.0800    4.1670  -22.1920 C   0  0  0  0  0  0
    5.0520    4.7760  -24.0290 C   0  0  0  0  0  0
    4.8000    3.8810  -22.9860 C   0  0  0  0  0  0
    5.8020    3.5980  -22.0490 C   0  0  0  0  0  0
    5.5010    2.6590  -20.8840 C   0  0  1  0  0  0
    6.4280    3.0100  -19.6600 C   0  0  0  0  0  0
    4.0570    3.2780  -19.1430 C   0  0  0  0  0  0
    4.1270    2.9240  -20.3920 N   0  3  0  0  0  0
    2.8860    3.5640  -18.4600 N   0  0  0  0  0  0
    5.7440    1.2110  -21.2310 C   0  0  0  0  0  0
    5.2280    0.2150  -20.4040 C   0  0  0  0  0  0
    6.5310    0.8410  -22.3260 C   0  0  0  0  0  0
    6.7480   -0.5180  -22.6040 C   0  0  0  0  0  0
    6.2320   -1.5130  -21.7850 C   0  0  0  0  0  0
    5.4360   -1.1330  -20.6940 C   0  0  0  0  0  0
    4.8700   -2.1490  -19.7350 C   0  0  0  0  0  0
    5.4460    3.3210  -18.5090 C   0  0  0  0  0  0
    3.5460   -2.0900  -19.2550 C   0  0  0  0  0  0
    3.1620   -3.0270  -18.3680 N   0  0  0  0  0  0
    3.9720   -3.9790  -17.9470 C   0  0  0  0  0  0
    5.2330   -4.0730  -18.3740 N   0  0  0  0  0  0
    5.7020   -3.1800  -19.2480 C   0  0  0  0  0  0
    6.0019    7.5227  -26.6559 H   0  0  0  0  0  0
    4.9478    7.4325  -25.2042 H   0  0  0  0  0  0
    4.9687    6.0785  -26.3844 H   0  0  0  0  0  0
    8.3435    5.4495  -23.3795 H   0  0  0  0  0  0
    7.8634    3.9344  -21.4707 H   0  0  0  0  0  0
    4.2645    5.0307  -24.7383 H   0  0  0  0  0  0
    3.8240    3.4032  -22.9015 H   0  0  0  0  0  0
    7.0719    2.1486  -19.4288 H   0  0  0  0  0  0
    7.0541    3.8788  -19.9115 H   0  0  0  0  0  0
    3.2092    2.8424  -20.9928 H   0  0  0  0  0  0
    1.9187    3.5129  -18.9813 H   0  0  0  0  0  0
    4.6548    0.4931  -19.5196 H   0  0  0  0  0  0
    6.9752    1.6062  -22.9626 H   0  0  0  0  0  0
    7.3332   -0.7973  -23.4802 H   0  0  0  0  0  0
    6.4402   -2.5641  -21.9847 H   0  0  0  0  0  0
    5.5535    2.5619  -17.7202 H   0  0  0  0  0  0
    5.6700    4.3149  -18.0944 H   0  0  0  0  0  0
    2.8580   -1.3138  -19.5899 H   0  0  0  0  0  0
    3.6006   -4.7105  -17.2293 H   0  0  0  0  0  0
    6.7353   -3.2474  -19.5883 H   0  0  0  0  0  0
    2.9236    3.8421  -17.3964 H   0  0  0  0  0  0
  1  2  1  0  0  0
  1 27  1  0  0  0
  1 28  1  0  0  0
  1 29  1  0  0  0
  2  3  1  0  0  0
  3  4  2  0  0  0
  3  6  1  0  0  0
  4  5  1  0  0  0
  4 30  1  0  0  0
  5  8  2  0  0  0
  5 31  1  0  0  0
  6  7  2  0  0  0
  6 32  1  0  0  0
  7  8  1  0  0  0
  7 33  1  0  0  0
  8  9  1  0  0  0
  9 10  1  0  0  0
  9 12  1  0  0  0
  9 14  1  0  0  0
 10 21  1  0  0  0
 10 34  1  0  0  0
 10 35  1  0  0  0
 11 12  2  0  0  0
 11 13  1  0  0  0
 11 21  1  0  0  0
 12 36  1  0  0  0
 13 37  1  0  0  0
 13 47  1  0  0  0
 14 15  2  0  0  0
 14 16  1  0  0  0
 15 19  1  0  0  0
 15 38  1  0  0  0
 16 17  2  0  0  0
 16 39  1  0  0  0
 17 18  1  0  0  0
 17 40  1  0  0  0
 18 19  2  0  0  0
 18 41  1  0  0  0
 19 20  1  0  0  0
 20 22  2  0  0  0
 20 26  1  0  0  0
 21 42  1  0  0  0
 21 43  1  0  0  0
 22 23  1  0  0  0
 22 44  1  0  0  0
 23 24  2  0  0  0
 24 25  1  0  0  0
 24 45  1  0  0  0
 25 26  2  0  0  0
 26 46  1  0  0  0
M  CHG  1  12   1
M  END
> <s_m_source_file>
../4b77_ligand.sdf

> <i_m_source_file_index>
1

> <s_epik_input>
W0NIM11PYzFbY0hdW2NIXWMoW2NIXVtjSF0xKVtDQF0yKFtDSDJdW0NIMl1DKFxbTkhdMik9TlxbSF0pYzNbY0hdYyhbY0hdW2NIXVtjSF0zKS1jNFtjSF1uW2NIXW5bY0hdNA==

> <s_epik_cmdline>
J2VwaWtfYXBwJywgJy1pbWFlJywgJ2xpZ2FuZF9wcm8ubWFlJywgJy1vbWFlJywgJ2xpZ2FuZF9wcmVwLm1hZScsICctbXMnLCAnMScsICctcGgnLCAnNycsICctcGh0JywgJzAuNScsICctbnQn

> <r_lp_tautomer_probability>
1

> <r_epik_Ionization_Penalty>
  0.0005

> <r_epik_Ionization_Penalty_Charging>
  0.0005

> <r_epik_Ionization_Penalty_Neutral>
  0.0000

> <r_epik_State_Penalty>
 -0.0000

> <r_epik_Charging_Adjusted_Penalty>
0.000517987610607281

> <i_epik_Tot_Q>
1

> <i_epik_Tot_abs_Q>
1

> <s_epik_Chemistry_Notes>
This compound has an imine and may undergo hydrolysis.

$$$$
