4b78_ligand
                    3D
 Schrodinger Suite 2020-3.
 52 55  0  0  1  0            999 V2000
    5.7780    6.0540  -25.2560 C   0  0  0  0  0  0
    6.9100    5.4230  -24.6540 O   0  0  0  0  0  0
    6.5490    4.5460  -23.6390 C   0  0  0  0  0  0
    5.2740    4.0530  -23.4720 C   0  0  0  0  0  0
    5.0370    3.1930  -22.4100 C   0  0  0  0  0  0
    6.0240    2.8120  -21.5160 C   0  0  0  0  0  0
    7.2920    3.3280  -21.7370 C   0  0  0  0  0  0
    7.5650    4.1850  -22.7740 C   0  0  0  0  0  0
    5.6960    1.8680  -20.3770 C   0  0  1  0  0  0
    6.5920    2.2390  -19.1690 C   0  0  0  0  0  0
    5.6470    2.3550  -17.9750 C   0  0  2  0  0  0
    4.3370    2.5000  -18.6790 C   0  0  0  0  0  0
    4.3240    2.1860  -19.9340 N   0  3  0  0  0  0
    3.2030    2.8740  -18.0180 N   0  0  0  0  0  0
    5.7790    3.4660  -17.1110 O   0  0  0  0  0  0
    6.9640    3.3370  -16.3300 C   0  0  0  0  0  0
    5.9110    0.4020  -20.6880 C   0  0  0  0  0  0
    6.6830   -0.0040  -21.7640 C   0  0  0  0  0  0
    6.8900   -1.3440  -22.0350 C   0  0  0  0  0  0
    6.3510   -2.3090  -21.2070 C   0  0  0  0  0  0
    5.5760   -1.9470  -20.1190 C   0  0  0  0  0  0
    5.3710   -0.5910  -19.8900 C   0  0  0  0  0  0
    5.0500   -2.9510  -19.1850 C   0  0  0  0  0  0
    5.8470   -4.0070  -18.7570 C   0  0  0  0  0  0
    5.4160   -4.9090  -17.8050 C   0  0  0  0  0  0
    4.1420   -4.7430  -17.3130 C   0  0  0  0  0  0
    3.3080   -3.7700  -17.7090 N   0  0  0  0  0  0
    3.7860   -2.9010  -18.6230 C   0  0  0  0  0  0
    6.1173    6.7354  -26.0501 H   0  0  0  0  0  0
    5.2277    6.6247  -24.4934 H   0  0  0  0  0  0
    5.1176    5.2876  -25.6879 H   0  0  0  0  0  0
    4.4724    4.3313  -24.1562 H   0  0  0  0  0  0
    4.0297    2.7996  -22.2729 H   0  0  0  0  0  0
    8.1004    3.0431  -21.0636 H   0  0  0  0  0  0
    8.5725    4.5768  -22.9139 H   0  0  0  0  0  0
    7.3408    1.4488  -19.0116 H   0  0  0  0  0  0
    7.1020    3.1927  -19.3700 H   0  0  0  0  0  0
    5.8117    1.5494  -17.2443 H   0  0  0  0  0  0
    3.3759    2.1883  -20.4917 H   0  0  0  0  0  0
    3.2494    3.1347  -16.9503 H   0  0  0  0  0  0
    7.0586    4.2051  -15.6611 H   0  0  0  0  0  0
    7.8385    3.2899  -16.9956 H   0  0  0  0  0  0
    6.9095    2.4164  -15.7304 H   0  0  0  0  0  0
    7.1364    0.7478  -22.4100 H   0  0  0  0  0  0
    7.4793   -1.6391  -22.9032 H   0  0  0  0  0  0
    6.5373   -3.3632  -21.4119 H   0  0  0  0  0  0
    4.7550   -0.2959  -19.0406 H   0  0  0  0  0  0
    6.8419   -4.1261  -19.1861 H   0  0  0  0  0  0
    6.0580   -5.7186  -17.4578 H   0  0  0  0  0  0
    3.7894   -5.4439  -16.5564 H   0  0  0  0  0  0
    3.1250   -2.0961  -18.9444 H   0  0  0  0  0  0
    2.2427    2.9148  -18.5529 H   0  0  0  0  0  0
  1  2  1  0  0  0
  1 29  1  0  0  0
  1 30  1  0  0  0
  1 31  1  0  0  0
  2  3  1  0  0  0
  3  4  2  0  0  0
  3  8  1  0  0  0
  4  5  1  0  0  0
  4 32  1  0  0  0
  5  6  2  0  0  0
  5 33  1  0  0  0
  6  7  1  0  0  0
  6  9  1  0  0  0
  7  8  2  0  0  0
  7 34  1  0  0  0
  8 35  1  0  0  0
  9 10  1  0  0  0
  9 13  1  0  0  0
  9 17  1  0  0  0
 10 11  1  0  0  0
 10 36  1  0  0  0
 10 37  1  0  0  0
 11 12  1  0  0  0
 11 15  1  0  0  0
 11 38  1  0  0  0
 12 13  2  0  0  0
 12 14  1  0  0  0
 13 39  1  0  0  0
 14 40  1  0  0  0
 14 52  1  0  0  0
 15 16  1  0  0  0
 16 41  1  0  0  0
 16 42  1  0  0  0
 16 43  1  0  0  0
 17 18  2  0  0  0
 17 22  1  0  0  0
 18 19  1  0  0  0
 18 44  1  0  0  0
 19 20  2  0  0  0
 19 45  1  0  0  0
 20 21  1  0  0  0
 20 46  1  0  0  0
 21 22  2  0  0  0
 21 23  1  0  0  0
 22 47  1  0  0  0
 23 24  2  0  0  0
 23 28  1  0  0  0
 24 25  1  0  0  0
 24 48  1  0  0  0
 25 26  2  0  0  0
 25 49  1  0  0  0
 26 27  1  0  0  0
 26 50  1  0  0  0
 27 28  2  0  0  0
 28 51  1  0  0  0
M  CHG  1  13   1
M  END
> <s_m_source_file>
../4b78_ligand.sdf

> <i_m_source_file_index>
1

> <s_epik_input>
W0NIM11PYzFbY0hdW2NIXWMoW2NIXVtjSF0xKVtDQF0yKFtDSDJdW0NASF0oL0MoW05IXTIpPU5cW0hdKU9bQ0gzXSljM1tjSF1bY0hdW2NIXWMoW2NIXTMpLWM0W2NIXVtjSF1bY0hdbltjSF00

> <s_epik_cmdline>
J2VwaWtfYXBwJywgJy1pbWFlJywgJ2xpZ2FuZF9wcm8ubWFlJywgJy1vbWFlJywgJ2xpZ2FuZF9wcmVwLm1hZScsICctbXMnLCAnMScsICctcGgnLCAnNycsICctcGh0JywgJzAuNScsICctbnQn

> <r_lp_tautomer_probability>
1

> <r_epik_Ionization_Penalty>
  0.0226

> <r_epik_Ionization_Penalty_Charging>
  0.0180

> <r_epik_Ionization_Penalty_Neutral>
  0.0046

> <r_epik_State_Penalty>
  0.0139

> <r_epik_Charging_Adjusted_Penalty>
0.0318857815439648

> <i_epik_Tot_Q>
1

> <i_epik_Tot_abs_Q>
1

> <s_epik_Chemistry_Notes>
This compound has an imine and may undergo hydrolysis.

$$$$
