4b7j_ligand
                    3D
 Schrodinger Suite 2020-3.
 46 46  0  0  1  0            999 V2000
   28.9340   -5.5650   11.8320 C   0  0  0  0  0  0
   29.7840   -4.6730   11.6030 O   0  0  0  0  0  0
   27.7010   -5.2850   11.7910 O   0  5  0  0  0  0
   29.3720   -6.9820   12.1710 C   0  0  1  0  0  0
   30.7800   -6.9540   12.6950 C   0  0  0  0  0  0
   31.0620   -7.8390   13.8680 C   0  0  1  0  0  0
   30.1770   -9.0360   13.8980 C   0  0  1  0  0  0
   30.5290   -9.8660   15.0460 N   0  0  0  0  0  0
   30.9970  -11.2220   14.8760 C   0  0  0  0  0  0
   31.1110  -11.6980   13.7610 O   0  0  0  0  0  0
   31.3450  -12.0410   16.0930 C   0  0  0  0  0  0
   28.7450   -8.6330   14.0390 C   0  0  1  0  0  0
   28.3260   -7.5590   13.0850 C   0  0  0  0  0  0
   27.9120   -9.7560   13.8850 O   0  0  0  0  0  0
   27.1360  -10.2160   14.9680 C   0  0  0  0  0  0
   26.1610   -9.1810   15.5290 C   0  0  0  0  0  0
   26.5080  -11.5760   14.7160 C   0  0  0  0  0  0
   27.4420  -12.7560   14.6270 C   0  0  0  0  0  0
   25.0590   -8.6950   14.6300 C   0  0  0  0  0  0
   32.4550   -8.2690   13.8310 N   0  3  0  0  0  0
   29.4316   -7.6628   11.3090 H   0  0  0  0  0  0
   31.4730   -7.2697   11.9012 H   0  0  0  0  0  0
   31.0314   -5.9325   13.0163 H   0  0  0  0  0  0
   30.8860   -7.2610   14.7872 H   0  0  0  0  0  0
   30.3211   -9.6050   12.9677 H   0  0  0  0  0  0
   30.4401   -9.4615   16.0651 H   0  0  0  0  0  0
   31.1770  -11.4406   16.9993 H   0  0  0  0  0  0
   32.4020  -12.3413   16.0428 H   0  0  0  0  0  0
   30.7099  -12.9386   16.1248 H   0  0  0  0  0  0
   28.5973   -8.2621   15.0640 H   0  0  0  0  0  0
   27.9105   -6.7603   13.7170 H   0  0  0  0  0  0
   27.5210   -8.0074   12.4842 H   0  0  0  0  0  0
   27.9335  -10.3462   15.7144 H   0  0  0  0  0  0
   25.6505   -9.5978   16.4097 H   0  0  0  0  0  0
   26.7143   -8.2760   15.8201 H   0  0  0  0  0  0
   25.8088  -11.8137   15.5312 H   0  0  0  0  0  0
   25.9640  -11.5572   13.7601 H   0  0  0  0  0  0
   26.8600  -13.6712   14.4434 H   0  0  0  0  0  0
   27.9961  -12.8571   15.5719 H   0  0  0  0  0  0
   28.1514  -12.6006   13.8008 H   0  0  0  0  0  0
   24.4437   -7.9594   15.1689 H   0  0  0  0  0  0
   24.4314   -9.5459   14.3264 H   0  0  0  0  0  0
   25.4953   -8.2240   13.7368 H   0  0  0  0  0  0
   33.1108   -7.3861   13.8088 H   0  0  0  0  0  0
   32.6274   -8.8766   12.9304 H   0  0  0  0  0  0
   32.6775   -8.8686   14.7259 H   0  0  0  0  0  0
  1  2  2  0  0  0
  1  3  1  0  0  0
  1  4  1  0  0  0
  4  5  1  0  0  0
  4 13  1  0  0  0
  4 21  1  0  0  0
  5  6  1  0  0  0
  5 22  1  0  0  0
  5 23  1  0  0  0
  6  7  1  0  0  0
  6 20  1  0  0  0
  6 24  1  0  0  0
  7  8  1  0  0  0
  7 12  1  0  0  0
  7 25  1  0  0  0
  8  9  1  0  0  0
  8 26  1  0  0  0
  9 10  2  0  0  0
  9 11  1  0  0  0
 11 27  1  0  0  0
 11 28  1  0  0  0
 11 29  1  0  0  0
 12 13  1  0  0  0
 12 14  1  0  0  0
 12 30  1  0  0  0
 13 31  1  0  0  0
 13 32  1  0  0  0
 14 15  1  0  0  0
 15 16  1  0  0  0
 15 17  1  0  0  0
 15 33  1  0  0  0
 16 19  1  0  0  0
 16 34  1  0  0  0
 16 35  1  0  0  0
 17 18  1  0  0  0
 17 36  1  0  0  0
 17 37  1  0  0  0
 18 38  1  0  0  0
 18 39  1  0  0  0
 18 40  1  0  0  0
 19 41  1  0  0  0
 19 42  1  0  0  0
 19 43  1  0  0  0
 20 44  1  0  0  0
 20 45  1  0  0  0
 20 46  1  0  0  0
M  CHG  2   3  -1  20   1
M  END
> <s_m_source_file>
../4b7j_ligand.sdf

> <i_m_source_file_index>
1

> <s_epik_input>
Tz1DKFtPSF0pW0NASF0xW0NIMl1bQ0BIXShbTkgzK10pW0NAQEhdKFtOSF1DKD1PKVtDSDNdKVtDQEBIXShbQ0gyXTEpT1tDSF0oW0NIMl1bQ0gzXSlbQ0gyXVtDSDNd

> <s_epik_cmdline>
J2VwaWtfYXBwJywgJy1pbWFlJywgJ2xpZ2FuZF9wcm8ubWFlJywgJy1vbWFlJywgJ2xpZ2FuZF9wcmVwLm1hZScsICctbXMnLCAnMScsICctcGgnLCAnNycsICctcGh0JywgJzAuNScsICctbnQn

> <r_lp_tautomer_probability>
1

> <r_epik_Ionization_Penalty>
  0.0019

> <r_epik_Ionization_Penalty_Charging>
  0.0019

> <r_epik_Ionization_Penalty_Neutral>
  0.0000

> <r_epik_State_Penalty>
 -0.0000

> <r_epik_Charging_Adjusted_Penalty>
0.00188816947072547

> <i_epik_Tot_Q>
0

> <i_epik_Tot_abs_Q>
2

$$$$
