4b7n_ligand
                    3D
 Schrodinger Suite 2020-3.
 43 43  0  0  1  0            999 V2000
   29.0600   -5.5790   12.0760 C   0  0  0  0  0  0
   29.9370   -4.7960   11.6480 O   0  0  0  0  0  0
   27.8400   -5.3200   11.9730 O   0  5  0  0  0  0
   29.4410   -6.8380   12.7170 C   0  0  0  0  0  0
   30.7140   -7.1040   13.0790 C   0  0  0  0  0  0
   31.0100   -8.1110   14.1760 C   0  0  1  0  0  0
   29.9420   -9.2110   14.1660 C   0  0  1  0  0  0
   30.1120  -10.1330   15.2820 N   0  0  0  0  0  0
   30.5420  -11.3930   15.1360 C   0  0  0  0  0  0
   30.7420  -11.9130   14.0490 O   0  0  0  0  0  0
   30.7690  -12.1540   16.4100 C   0  0  0  0  0  0
   28.5490   -8.5730   14.1620 C   0  0  1  0  0  0
   28.3900   -7.8170   12.9580 O   0  0  0  0  0  0
   27.4030   -9.5790   14.2360 C   0  0  2  0  0  0
   27.4290  -10.4030   13.0630 O   0  0  0  0  0  0
   26.0500   -8.8670   14.3450 C   0  0  2  0  0  0
   25.8900   -8.2910   15.6460 O   0  0  0  0  0  0
   24.8720   -9.8000   14.0870 C   0  0  0  0  0  0
   24.9010  -10.8780   15.0300 O   0  0  0  0  0  0
   32.3000   -8.7680   13.9710 N   0  0  0  0  0  0
   33.0960   -9.0750   14.9120 C   0  0  0  0  0  0
   34.2510   -9.6720   14.6170 N   0  3  0  0  0  0
   32.8010   -8.8210   16.1910 N   0  0  0  0  0  0
   31.5472   -6.5895   12.5780 H   0  0  0  0  0  0
   31.0638   -7.5657   15.1298 H   0  0  0  0  0  0
   30.0641   -9.8540   13.2819 H   0  0  0  0  0  0
   29.8832   -9.8045   16.3066 H   0  0  0  0  0  0
   30.5323  -11.5094   17.2693 H   0  0  0  0  0  0
   31.8215  -12.4686   16.4666 H   0  0  0  0  0  0
   30.1195  -13.0416   16.4276 H   0  0  0  0  0  0
   28.4816   -7.8931   15.0241 H   0  0  0  0  0  0
   27.5395  -10.2533   15.0943 H   0  0  0  0  0  0
   28.3273  -10.9911   12.8238 H   0  0  0  0  0  0
   26.0384   -8.0387   13.6213 H   0  0  0  0  0  0
   26.6388   -7.5824   16.0297 H   0  0  0  0  0  0
   23.9308   -9.2414   14.1975 H   0  0  0  0  0  0
   24.9409  -10.2039   13.0662 H   0  0  0  0  0  0
   24.1246  -11.6567   14.9993 H   0  0  0  0  0  0
   32.6307   -9.0253   12.9539 H   0  0  0  0  0  0
   34.5070   -9.8872   13.5691 H   0  0  0  0  0  0
   31.8517   -8.3290   16.4492 H   0  0  0  0  0  0
   33.5076   -9.1040   16.9851 H   0  0  0  0  0  0
   34.9480   -9.9494   15.4215 H   0  0  0  0  0  0
  1  2  2  0  0  0
  1  3  1  0  0  0
  1  4  1  0  0  0
  4  5  2  0  0  0
  4 13  1  0  0  0
  5  6  1  0  0  0
  5 24  1  0  0  0
  6  7  1  0  0  0
  6 20  1  0  0  0
  6 25  1  0  0  0
  7  8  1  0  0  0
  7 12  1  0  0  0
  7 26  1  0  0  0
  8  9  1  0  0  0
  8 27  1  0  0  0
  9 10  2  0  0  0
  9 11  1  0  0  0
 11 28  1  0  0  0
 11 29  1  0  0  0
 11 30  1  0  0  0
 12 13  1  0  0  0
 12 14  1  0  0  0
 12 31  1  0  0  0
 14 15  1  0  0  0
 14 16  1  0  0  0
 14 32  1  0  0  0
 15 33  1  0  0  0
 16 17  1  0  0  0
 16 18  1  0  0  0
 16 34  1  0  0  0
 17 35  1  0  0  0
 18 19  1  0  0  0
 18 36  1  0  0  0
 18 37  1  0  0  0
 19 38  1  0  0  0
 20 21  1  0  0  0
 20 39  1  0  0  0
 21 22  2  0  0  0
 21 23  1  0  0  0
 22 40  1  0  0  0
 22 43  1  0  0  0
 23 41  1  0  0  0
 23 42  1  0  0  0
M  CHG  2   3  -1  22   1
M  END
> <s_m_source_file>
../4b7n_ligand.sdf

> <i_m_source_file_index>
1

> <s_epik_input>
Tz1DKFtPSF0pQzE9W0NIXVtDQEhdKFtOSF0vQyg9TlxbSF0pW05IMl0pW0NAQEhdKFtOSF1DKD1PKVtDSDNdKVtDQEBIXShPMSlbQ0BIXShbT0hdKVtDQEhdKFtPSF0pW0NIMl1bT0hd

> <s_epik_cmdline>
J2VwaWtfYXBwJywgJy1pbWFlJywgJ2xpZ2FuZF9wcm8ubWFlJywgJy1vbWFlJywgJ2xpZ2FuZF9wcmVwLm1hZScsICctbXMnLCAnMScsICctcGgnLCAnNycsICctcGh0JywgJzAuNScsICctbnQn

> <r_lp_tautomer_probability>
1

> <r_epik_Ionization_Penalty>
  0.0006

> <r_epik_Ionization_Penalty_Charging>
  0.0006

> <r_epik_Ionization_Penalty_Neutral>
  0.0000

> <r_epik_State_Penalty>
 -0.0000

> <r_epik_Charging_Adjusted_Penalty>
0.000578302121615858

> <i_epik_Tot_Q>
0

> <i_epik_Tot_abs_Q>
2

> <s_epik_Chemistry_Notes>
This compound has an imine and may undergo hydrolysis.

$$$$
