4b7p_ligand
                    3D
 Schrodinger Suite 2020-3.
 55 58  0  0  1  0            999 V2000
    8.0570    3.8370   11.0510 C   0  0  0  0  0  0
    6.8140    4.3370   11.4230 C   0  0  0  0  0  0
    5.6930    3.5700   11.2410 C   0  0  0  0  0  0
    5.7740    2.2760   10.7820 C   0  0  0  0  0  0
    7.0190    1.7210   10.4560 C   0  0  0  0  0  0
    8.1460    2.5290   10.5980 C   0  0  0  0  0  0
    9.3400    2.0010   10.2550 O   0  0  0  0  0  0
    6.7200    5.6280   11.8660 O   0  5  0  0  0  0
    4.6440    1.5500   10.7180 O   0  0  0  0  0  0
    4.4160    0.7230    9.6720 C   0  0  0  0  0  0
    3.9370   -0.5330   10.0520 C   0  0  0  0  0  0
    3.6350   -1.4330    9.0450 C   0  0  0  0  0  0
    3.8850   -1.0890    7.7390 C   0  0  0  0  0  0
    4.3590    0.1720    7.3520 C   0  0  0  0  0  0
    4.6480    1.1090    8.3460 C   0  0  0  0  0  0
    3.5420   -2.0660    6.8050 N   0  3  0  0  0  0
    3.0180   -1.6620    5.7770 O   0  0  0  0  0  0
    3.7250   -3.2570    7.0450 O   0  5  0  0  0  0
    4.3910    4.1410   11.5940 C   0  0  0  0  0  0
    4.1630    4.8950   12.6700 O   0  0  0  0  0  0
    2.7360    5.3060   12.6810 N   0  0  0  0  0  0
    2.2120    4.7350   11.6030 C   0  0  0  0  0  0
    3.1910    4.0400   10.8930 C   0  0  0  0  0  0
    0.7810    4.8470   11.2110 C   0  0  0  0  0  0
    0.4900    4.7250   10.0210 O   0  0  0  0  0  0
   -0.0900    5.0500   12.2090 N   0  0  0  0  0  0
   -1.5290    5.1510   11.9850 C   0  0  2  0  0  0
   -2.1550    5.7230   13.2900 C   0  0  0  0  0  0
   -3.6920    5.5720   13.1660 C   0  0  0  0  0  0
   -4.0490    4.1420   13.0090 N   0  3  2  0  0  0
   -3.5290    3.6440   11.7360 C   0  0  0  0  0  0
   -1.9970    3.7100   11.7650 C   0  0  0  0  0  0
   -5.5420    3.9600   13.0010 C   0  0  0  0  0  0
    8.9472    4.4629   11.1143 H   0  0  0  0  0  0
    7.1031    0.6930   10.1036 H   0  0  0  0  0  0
   10.2556    2.6031   10.3510 H   0  0  0  0  0  0
    3.8060   -0.7943   11.1021 H   0  0  0  0  0  0
    3.2033   -2.4045    9.2857 H   0  0  0  0  0  0
    4.4988    0.4157    6.2988 H   0  0  0  0  0  0
    5.0370    2.0972    8.1007 H   0  0  0  0  0  0
    3.0429    3.5096    9.9524 H   0  0  0  0  0  0
    0.3158    5.1411   13.2273 H   0  0  0  0  0  0
   -1.7569    5.7917   11.1204 H   0  0  0  0  0  0
   -1.7794    5.1573   14.1554 H   0  0  0  0  0  0
   -1.8778    6.7822   13.3960 H   0  0  0  0  0  0
   -4.1736    5.9682   14.0721 H   0  0  0  0  0  0
   -4.0458    6.1322   12.2879 H   0  0  0  0  0  0
   -3.5927    3.5865   13.8416 H   0  0  0  0  0  0
   -3.8536    2.6033   11.5893 H   0  0  0  0  0  0
   -3.9125    4.2669   10.9144 H   0  0  0  0  0  0
   -1.6043    3.3392   10.8067 H   0  0  0  0  0  0
   -1.6265    3.0752   12.5834 H   0  0  0  0  0  0
   -5.9612    4.3272   13.9494 H   0  0  0  0  0  0
   -5.7806    2.8926   12.8835 H   0  0  0  0  0  0
   -5.9760    4.5271   12.1643 H   0  0  0  0  0  0
  1  2  2  0  0  0
  1  6  1  0  0  0
  1 34  1  0  0  0
  2  3  1  0  0  0
  2  8  1  0  0  0
  3  4  2  0  0  0
  3 19  1  0  0  0
  4  5  1  0  0  0
  4  9  1  0  0  0
  5  6  2  0  0  0
  5 35  1  0  0  0
  6  7  1  0  0  0
  7 36  1  0  0  0
  9 10  1  0  0  0
 10 11  2  0  0  0
 10 15  1  0  0  0
 11 12  1  0  0  0
 11 37  1  0  0  0
 12 13  2  0  0  0
 12 38  1  0  0  0
 13 14  1  0  0  0
 13 16  1  0  0  0
 14 15  2  0  0  0
 14 39  1  0  0  0
 15 40  1  0  0  0
 16 17  2  0  0  0
 16 18  1  0  0  0
 19 20  1  0  0  0
 19 23  2  0  0  0
 20 21  1  0  0  0
 21 22  2  0  0  0
 22 23  1  0  0  0
 22 24  1  0  0  0
 23 41  1  0  0  0
 24 25  2  0  0  0
 24 26  1  0  0  0
 26 27  1  0  0  0
 26 42  1  0  0  0
 27 28  1  0  0  0
 27 32  1  0  0  0
 27 43  1  0  0  0
 28 29  1  0  0  0
 28 44  1  0  0  0
 28 45  1  0  0  0
 29 30  1  0  0  0
 29 46  1  0  0  0
 29 47  1  0  0  0
 30 31  1  0  0  0
 30 33  1  0  0  0
 30 48  1  0  0  0
 31 32  1  0  0  0
 31 49  1  0  0  0
 31 50  1  0  0  0
 32 51  1  0  0  0
 32 52  1  0  0  0
 33 53  1  0  0  0
 33 54  1  0  0  0
 33 55  1  0  0  0
M  CHG  4   8  -1  16   1  18  -1  30   1
M  END
> <s_m_source_file>
../4b7p_ligand.sdf

> <i_m_source_file_index>
1

> <s_epik_input>
W2NIXTFbY0hdYyhbTitdKD1PKVtPLV0pW2NIXVtjSF1jMU9jKFtjSF1jKFtPSF0pW2NIXWMyW09IXSljMi1jM29uYyhbY0hdMylDKD1PKVtOSF1bQ0BASF00W0NIMl1bQ0gyXVtOQEBIK10oW0NIM10pW0NIMl1bQ0gyXTQ=

> <s_epik_cmdline>
J2VwaWtfYXBwJywgJy1pbWFlJywgJ2xpZ2FuZF9wcm8ubWFlJywgJy1vbWFlJywgJ2xpZ2FuZF9wcmVwLm1hZScsICctbXMnLCAnMScsICctcGgnLCAnNycsICctcGh0JywgJzAuNScsICctbnQn

> <r_lp_tautomer_probability>
1

> <r_epik_Ionization_Penalty>
  0.1455

> <r_epik_Ionization_Penalty_Charging>
  0.1340

> <r_epik_Ionization_Penalty_Neutral>
  0.0116

> <r_epik_State_Penalty>
 -0.0000

> <r_epik_Charging_Adjusted_Penalty>
0.133976266907557

> <i_epik_Tot_Q>
0

> <i_epik_Tot_abs_Q>
4

$$$$
