4b7q_ligand
                    3D
 Schrodinger Suite 2020-3.
 45 45  0  0  1  0            999 V2000
   26.7390   20.1080  -39.9700 C   0  0  0  0  0  0
   27.1130   18.9470  -39.6960 O   0  0  0  0  0  0
   27.5990   21.0150  -40.1590 O   0  5  0  0  0  0
   25.4070   20.4050  -40.0410 C   0  0  2  0  0  0
   24.5170   19.2330  -40.5010 C   0  0  0  0  0  0
   23.1250   19.6520  -40.6420 C   0  0  1  0  0  0
   22.9510   20.7200  -41.5440 C   0  0  1  0  0  0
   21.4620   21.1630  -41.5760 N   0  0  0  0  0  0
   20.5540   20.8030  -42.6440 C   0  0  0  0  0  0
   20.9310   20.1270  -43.5770 O   0  0  0  0  0  0
   19.1130   21.2540  -42.5970 C   0  0  0  0  0  0
   23.7770   21.8730  -41.2230 C   0  0  1  0  0  0
   25.1610   21.5280  -40.9960 O   0  0  0  0  0  0
   23.7100   22.8880  -42.3640 C   0  0  2  0  0  0
   24.3250   22.3900  -43.5130 O   0  0  0  0  0  0
   24.3450   24.2000  -41.9750 C   0  0  2  0  0  0
   23.6070   24.7980  -40.9790 O   0  0  0  0  0  0
   24.4450   25.1510  -43.1350 C   0  0  0  0  0  0
   23.2640   25.6690  -43.6700 O   0  0  0  0  0  0
   22.3190   18.4110  -41.0960 N   0  0  0  0  0  0
   20.9500   18.1190  -40.6420 C   0  0  0  0  0  0
   20.2820   17.1520  -41.2420 N   0  0  0  0  0  0
   20.3790   18.8410  -39.7000 N   0  3  0  0  0  0
   25.2532   20.6765  -38.9862 H   0  0  0  0  0  0
   24.8726   18.8624  -41.4738 H   0  0  0  0  0  0
   24.5664   18.4221  -39.7594 H   0  0  0  0  0  0
   22.8043   20.1129  -39.6961 H   0  0  0  0  0  0
   23.3376   20.3026  -42.4855 H   0  0  0  0  0  0
   21.0539   21.7793  -40.7614 H   0  0  0  0  0  0
   18.9457   21.8530  -41.6897 H   0  0  0  0  0  0
   18.4536   20.3737  -42.5820 H   0  0  0  0  0  0
   18.8905   21.8637  -43.4851 H   0  0  0  0  0  0
   23.3951   22.2487  -40.2623 H   0  0  0  0  0  0
   22.6645   23.0476  -42.6665 H   0  0  0  0  0  0
   23.9911   21.4355  -43.9458 H   0  0  0  0  0  0
   25.3395   24.0148  -41.5430 H   0  0  0  0  0  0
   23.4173   24.2617  -40.0375 H   0  0  0  0  0  0
   25.0309   26.0329  -42.8367 H   0  0  0  0  0  0
   24.9414   24.6493  -43.9787 H   0  0  0  0  0  0
   23.3046   26.3672  -44.5191 H   0  0  0  0  0  0
   22.7670   17.6899  -41.7955 H   0  0  0  0  0  0
   20.7669   16.5540  -42.0277 H   0  0  0  0  0  0
   19.2403   16.9439  -40.9565 H   0  0  0  0  0  0
   20.9434   19.6451  -39.2052 H   0  0  0  0  0  0
   19.3377   18.6399  -39.4081 H   0  0  0  0  0  0
  1  2  2  0  0  0
  1  3  1  0  0  0
  1  4  1  0  0  0
  4  5  1  0  0  0
  4 13  1  0  0  0
  4 24  1  0  0  0
  5  6  1  0  0  0
  5 25  1  0  0  0
  5 26  1  0  0  0
  6  7  1  0  0  0
  6 20  1  0  0  0
  6 27  1  0  0  0
  7  8  1  0  0  0
  7 12  1  0  0  0
  7 28  1  0  0  0
  8  9  1  0  0  0
  8 29  1  0  0  0
  9 10  2  0  0  0
  9 11  1  0  0  0
 11 30  1  0  0  0
 11 31  1  0  0  0
 11 32  1  0  0  0
 12 13  1  0  0  0
 12 14  1  0  0  0
 12 33  1  0  0  0
 14 15  1  0  0  0
 14 16  1  0  0  0
 14 34  1  0  0  0
 15 35  1  0  0  0
 16 17  1  0  0  0
 16 18  1  0  0  0
 16 36  1  0  0  0
 17 37  1  0  0  0
 18 19  1  0  0  0
 18 38  1  0  0  0
 18 39  1  0  0  0
 19 40  1  0  0  0
 20 21  1  0  0  0
 20 41  1  0  0  0
 21 22  1  0  0  0
 21 23  2  0  0  0
 22 42  1  0  0  0
 22 43  1  0  0  0
 23 44  1  0  0  0
 23 45  1  0  0  0
M  CHG  2   3  -1  23   1
M  END
> <s_m_source_file>
../4b7q_ligand.sdf

> <i_m_source_file_index>
1

> <s_epik_input>
Tz1DKFtPSF0pW0NAQEhdMVtDSDJdW0NASF0oW05IXS9DKFtOSDJdKT1OXFtIXSlbQ0BASF0oW05IXUMoPU8pW0NIM10pW0NAQEhdKE8xKVtDQEhdKFtPSF0pW0NASF0oW09IXSlbQ0gyXVtPSF0=

> <s_epik_cmdline>
J2VwaWtfYXBwJywgJy1pbWFlJywgJ2xpZ2FuZF9wcm8ubWFlJywgJy1vbWFlJywgJ2xpZ2FuZF9wcmVwLm1hZScsICctbXMnLCAnMScsICctcGgnLCAnNycsICctcGh0JywgJzAuNScsICctbnQn

> <r_lp_tautomer_probability>
1

> <r_epik_Ionization_Penalty>
  0.0001

> <r_epik_Ionization_Penalty_Charging>
  0.0001

> <r_epik_Ionization_Penalty_Neutral>
  0.0000

> <r_epik_State_Penalty>
 -0.0000

> <r_epik_Charging_Adjusted_Penalty>
9.91098658302066e-05

> <i_epik_Tot_Q>
0

> <i_epik_Tot_abs_Q>
2

> <s_epik_Chemistry_Notes>
This compound has an imine and may undergo hydrolysis.

$$$$
