4b7z_ligand
                    3D
 Schrodinger Suite 2020-3.
 44 44  0  0  1  0            999 V2000
   28.7560   19.9680   11.8100 S   0  0  0  0  0  0
   29.2730   20.5950   13.2810 N   0  0  3  0  0  0
   27.3900   19.6390   11.9710 O   0  0  0  0  0  0
   31.1550   21.5210    9.4480 C   0  0  0  0  0  0
   26.9300   19.6460   14.7850 N   0  3  0  0  0  0
   29.7000   18.9420   11.5130 O   0  0  0  0  0  0
   30.1940   21.9580   10.3280 C   0  0  0  0  0  0
   28.8600   21.1910   10.5310 C   0  0  0  0  0  0
   26.5620   17.6550   16.3740 C   0  0  0  0  0  0
   30.4340   23.1210   11.0610 C   0  0  0  0  0  0
   31.6490   23.8040   10.9050 C   0  0  0  0  0  0
   32.6130   23.3460   10.0240 C   0  0  0  0  0  0
   32.3660   22.1900    9.2830 C   0  0  0  0  0  0
   28.4700   21.6150   14.0280 C   0  0  0  0  0  0
   27.2950   21.1090   14.9190 C   0  0  0  0  0  0
   33.9090   24.0990    9.8520 C   0  0  0  0  0  0
   25.4340   19.5160   14.5890 C   0  0  0  0  0  0
   24.7350   20.7180   13.9620 C   0  0  0  0  0  0
   27.2230   18.9960   16.1290 C   0  0  0  0  0  0
   30.2977   20.3581   13.6032 H   0  0  0  0  0  0
   30.9638   20.6229    8.8607 H   0  0  0  0  0  0
   27.4797   19.1980   13.9441 H   0  0  0  0  0  0
   28.6622   20.7203    9.5567 H   0  0  0  0  0  0
   28.1149   21.9789   10.7156 H   0  0  0  0  0  0
   26.8439   17.2839   17.3704 H   0  0  0  0  0  0
   26.8929   16.9378   15.6084 H   0  0  0  0  0  0
   25.4693   17.7697   16.3211 H   0  0  0  0  0  0
   29.6799   23.4972   11.7523 H   0  0  0  0  0  0
   31.8365   24.7074   11.4853 H   0  0  0  0  0  0
   33.1121   21.8144    8.5828 H   0  0  0  0  0  0
   29.1285   22.1716   14.7110 H   0  0  0  0  0  0
   28.0083   22.3129   13.3140 H   0  0  0  0  0  0
   26.4264   21.7294   14.6532 H   0  0  0  0  0  0
   27.5918   21.3193   15.9571 H   0  0  0  0  0  0
   33.9153   24.9747   10.5176 H   0  0  0  0  0  0
   34.0041   24.4314    8.8078 H   0  0  0  0  0  0
   34.7524   23.4398   10.1052 H   0  0  0  0  0  0
   25.2236   18.6617   13.9288 H   0  0  0  0  0  0
   24.9492   19.3547   15.5631 H   0  0  0  0  0  0
   23.6589   20.5094   13.8698 H   0  0  0  0  0  0
   25.1582   20.9092   12.9648 H   0  0  0  0  0  0
   24.8838   21.6022   14.5992 H   0  0  0  0  0  0
   28.3055   18.8261   16.2259 H   0  0  0  0  0  0
   26.8819   19.6580   16.9386 H   0  0  0  0  0  0
  1  2  1  0  0  0
  1  3  2  0  0  0
  1  6  2  0  0  0
  1  8  1  0  0  0
  2 14  1  0  0  0
  2 20  1  0  0  0
  4  7  2  0  0  0
  4 13  1  0  0  0
  4 21  1  0  0  0
  5 15  1  0  0  0
  5 17  1  0  0  0
  5 19  1  0  0  0
  5 22  1  0  0  0
  7  8  1  0  0  0
  7 10  1  0  0  0
  8 23  1  0  0  0
  8 24  1  0  0  0
  9 19  1  0  0  0
  9 25  1  0  0  0
  9 26  1  0  0  0
  9 27  1  0  0  0
 10 11  2  0  0  0
 10 28  1  0  0  0
 11 12  1  0  0  0
 11 29  1  0  0  0
 12 13  2  0  0  0
 12 16  1  0  0  0
 13 30  1  0  0  0
 14 15  1  0  0  0
 14 31  1  0  0  0
 14 32  1  0  0  0
 15 33  1  0  0  0
 15 34  1  0  0  0
 16 35  1  0  0  0
 16 36  1  0  0  0
 16 37  1  0  0  0
 17 18  1  0  0  0
 17 38  1  0  0  0
 17 39  1  0  0  0
 18 40  1  0  0  0
 18 41  1  0  0  0
 18 42  1  0  0  0
 19 43  1  0  0  0
 19 44  1  0  0  0
M  CHG  1   5   1
M  END
> <s_m_source_file>
../4b7z_ligand.sdf

> <i_m_source_file_index>
1

> <s_epik_input>
W0NIM11bQ0gyXVtOSCtdKFtDSDJdW0NIM10pW0NIMl1bQ0gyXVtOSF1TKD1PKSg9TylbQ0gyXWMxW2NIXVtjSF1jKFtDSDNdKVtjSF1bY0hdMQ==

> <s_epik_cmdline>
J2VwaWtfYXBwJywgJy1pbWFlJywgJ2xpZ2FuZF9wcm8ubWFlJywgJy1vbWFlJywgJ2xpZ2FuZF9wcmVwLm1hZScsICctbXMnLCAnMScsICctcGgnLCAnNycsICctcGh0JywgJzAuNScsICctbnQn

> <r_epik_Ionization_Penalty>
  0.0195

> <r_epik_Ionization_Penalty_Charging>
  0.0193

> <r_epik_Ionization_Penalty_Neutral>
  0.0002

> <r_epik_State_Penalty>
  0.0154

> <r_epik_Charging_Adjusted_Penalty>
0.0347259026208798

> <i_epik_Tot_Q>
1

> <i_epik_Tot_abs_Q>
1

$$$$
