4b80_ligand
                    3D
 Schrodinger Suite 2020-3.
 41 41  0  0  1  0            999 V2000
   29.4310   20.0060   11.3530 S   0  0  0  0  0  0
   29.4260   21.0740   12.6600 N   0  0  3  0  0  0
   30.5720   19.1820   11.4800 O   0  0  0  0  0  0
   31.9770   21.4030    9.0150 C   0  0  0  0  0  0
   26.8710   19.5040   14.0560 N   0  3  0  0  0  0
   28.1370   19.4240   11.3500 O   0  0  0  0  0  0
   30.8930   21.7880    9.8430 C   0  0  0  0  0  0
   29.5960   20.9910    9.8790 C   0  0  0  0  0  0
   26.9850   18.1820   16.2020 C   0  0  0  0  0  0
   31.0540   22.9390   10.6550 C   0  0  0  0  0  0
   32.2300   23.6810   10.6490 C   0  0  0  0  0  0
   33.2660   23.2640    9.8190 C   0  0  0  0  0  0
   33.1700   22.1330    8.9910 C   0  0  0  0  0  0
   29.1540   20.5150   13.9980 C   0  0  0  0  0  0
   27.7230   20.6830   14.5570 C   0  0  0  0  0  0
   25.4100   19.7460   14.2540 C   0  0  0  0  0  0
   27.2590   18.1840   14.6810 C   0  0  0  0  0  0
   24.9990   20.9560   13.4660 C   0  0  0  0  0  0
   34.4270   23.9950    9.8130 F   0  0  0  0  0  0
   29.4528   22.1640   12.5144 H   0  0  0  0  0  0
   31.8790   20.5198    8.3838 H   0  0  0  0  0  0
   27.0516   19.4215   12.9741 H   0  0  0  0  0  0
   29.5805   20.3351    8.9961 H   0  0  0  0  0  0
   28.7615   21.7052    9.8199 H   0  0  0  0  0  0
   27.2773   17.2100   16.6259 H   0  0  0  0  0  0
   25.9134   18.3531   16.3817 H   0  0  0  0  0  0
   27.5694   18.9815   16.6809 H   0  0  0  0  0  0
   30.2337   23.2507   11.3015 H   0  0  0  0  0  0
   32.3373   24.5652   11.2773 H   0  0  0  0  0  0
   33.9992   21.8337    8.3500 H   0  0  0  0  0  0
   29.3392   19.4308   13.9869 H   0  0  0  0  0  0
   29.8152   20.9924   14.7362 H   0  0  0  0  0  0
   27.2864   21.6280   14.2016 H   0  0  0  0  0  0
   27.7435   20.6793   15.6568 H   0  0  0  0  0  0
   24.8429   18.8695   13.9074 H   0  0  0  0  0  0
   25.2077   19.9147   15.3220 H   0  0  0  0  0  0
   26.6756   17.3740   14.2189 H   0  0  0  0  0  0
   28.3316   18.0023   14.5181 H   0  0  0  0  0  0
   23.9236   21.1385   13.6085 H   0  0  0  0  0  0
   25.2037   20.7854   12.3988 H   0  0  0  0  0  0
   25.5685   21.8306   13.8134 H   0  0  0  0  0  0
  1  2  1  0  0  0
  1  3  2  0  0  0
  1  6  2  0  0  0
  1  8  1  0  0  0
  2 14  1  0  0  0
  2 20  1  0  0  0
  4  7  2  0  0  0
  4 13  1  0  0  0
  4 21  1  0  0  0
  5 15  1  0  0  0
  5 16  1  0  0  0
  5 17  1  0  0  0
  5 22  1  0  0  0
  7  8  1  0  0  0
  7 10  1  0  0  0
  8 23  1  0  0  0
  8 24  1  0  0  0
  9 17  1  0  0  0
  9 25  1  0  0  0
  9 26  1  0  0  0
  9 27  1  0  0  0
 10 11  2  0  0  0
 10 28  1  0  0  0
 11 12  1  0  0  0
 11 29  1  0  0  0
 12 13  2  0  0  0
 12 19  1  0  0  0
 13 30  1  0  0  0
 14 15  1  0  0  0
 14 31  1  0  0  0
 14 32  1  0  0  0
 15 33  1  0  0  0
 15 34  1  0  0  0
 16 18  1  0  0  0
 16 35  1  0  0  0
 16 36  1  0  0  0
 17 37  1  0  0  0
 17 38  1  0  0  0
 18 39  1  0  0  0
 18 40  1  0  0  0
 18 41  1  0  0  0
M  CHG  1   5   1
M  END
> <s_m_source_file>
../4b80_ligand.sdf

> <i_m_source_file_index>
1

> <s_epik_input>
W0NIM11bQ0gyXVtOSCtdKFtDSDJdW0NIM10pW0NIMl1bQ0gyXVtOSF1TKD1PKSg9TylbQ0gyXWMxW2NIXVtjSF1jKEYpW2NIXVtjSF0x

> <s_epik_cmdline>
J2VwaWtfYXBwJywgJy1pbWFlJywgJ2xpZ2FuZF9wcm8ubWFlJywgJy1vbWFlJywgJ2xpZ2FuZF9wcmVwLm1hZScsICctbXMnLCAnMScsICctcGgnLCAnNycsICctcGh0JywgJzAuNScsICctbnQn

> <r_epik_Ionization_Penalty>
  0.0196

> <r_epik_Ionization_Penalty_Charging>
  0.0193

> <r_epik_Ionization_Penalty_Neutral>
  0.0002

> <r_epik_State_Penalty>
  0.0154

> <r_epik_Charging_Adjusted_Penalty>
0.0347259026208798

> <i_epik_Tot_Q>
1

> <i_epik_Tot_abs_Q>
1

$$$$
