4b81_ligand
                    3D
 Schrodinger Suite 2020-3.
 41 41  0  0  1  0            999 V2000
   29.2810   19.6310   11.8060 S   0  0  0  0  0  0
   29.3890   20.5930   13.1800 N   0  0  3  0  0  0
   28.0050   19.0310   11.7280 O   0  0  0  0  0  0
   31.7890   21.0920    9.4250 C   0  0  0  0  0  0
   26.6540   19.3040   14.2530 N   0  3  0  0  0  0
   30.4240   18.7970   11.8580 O   0  0  0  0  0  0
   30.6950   21.5300   10.1880 C   0  0  0  0  0  0
   34.4590   24.0440    9.7400 Cl  0  0  0  0  0  0
   29.4420   20.6860   10.3680 C   0  0  0  0  0  0
   24.6020   20.7160   13.6670 C   0  0  0  0  0  0
   30.8250   22.7880   10.7960 C   0  0  0  0  0  0
   31.9730   23.5610   10.6700 C   0  0  0  0  0  0
   33.0290   23.0890    9.9110 C   0  0  0  0  0  0
   32.9460   21.8540    9.2850 C   0  0  0  0  0  0
   28.2230   21.3360   13.7720 C   0  0  0  0  0  0
   27.1900   20.6500   14.7480 C   0  0  0  0  0  0
   25.4330   19.4740   13.3730 C   0  0  0  0  0  0
   26.1660   18.5280   15.4540 C   0  0  0  0  0  0
   26.6400   17.0820   15.4990 C   0  0  0  0  0  0
   30.4082   20.7887   13.5445 H   0  0  0  0  0  0
   31.7309   20.1245    8.9263 H   0  0  0  0  0  0
   27.4558   18.7981   13.6952 H   0  0  0  0  0  0
   29.3984   20.0722    9.4562 H   0  0  0  0  0  0
   28.6212   21.4182   10.3566 H   0  0  0  0  0  0
   23.7424   20.7527   12.9816 H   0  0  0  0  0  0
   25.2219   21.6137   13.5261 H   0  0  0  0  0  0
   24.2416   20.6786   14.7056 H   0  0  0  0  0  0
   29.9952   23.1730   11.3888 H   0  0  0  0  0  0
   32.0408   24.5300   11.1645 H   0  0  0  0  0  0
   33.7795   21.4831    8.6885 H   0  0  0  0  0  0
   28.5927   22.1829   14.3687 H   0  0  0  0  0  0
   27.5784   21.7109   12.9634 H   0  0  0  0  0  0
   26.3536   21.3527   14.8770 H   0  0  0  0  0  0
   27.7022   20.5089   15.7112 H   0  0  0  0  0  0
   25.7462   19.5438   12.3208 H   0  0  0  0  0  0
   24.7659   18.6087   13.5003 H   0  0  0  0  0  0
   26.5239   19.0131   16.3741 H   0  0  0  0  0  0
   25.0662   18.5067   15.4547 H   0  0  0  0  0  0
   26.2413   16.5933   16.4002 H   0  0  0  0  0  0
   27.7394   17.0572   15.5244 H   0  0  0  0  0  0
   26.2818   16.5507   14.6049 H   0  0  0  0  0  0
  1  2  1  0  0  0
  1  3  2  0  0  0
  1  6  2  0  0  0
  1  9  1  0  0  0
  2 15  1  0  0  0
  2 20  1  0  0  0
  4  7  2  0  0  0
  4 14  1  0  0  0
  4 21  1  0  0  0
  5 16  1  0  0  0
  5 17  1  0  0  0
  5 18  1  0  0  0
  5 22  1  0  0  0
  7  9  1  0  0  0
  7 11  1  0  0  0
  8 13  1  0  0  0
  9 23  1  0  0  0
  9 24  1  0  0  0
 10 17  1  0  0  0
 10 25  1  0  0  0
 10 26  1  0  0  0
 10 27  1  0  0  0
 11 12  2  0  0  0
 11 28  1  0  0  0
 12 13  1  0  0  0
 12 29  1  0  0  0
 13 14  2  0  0  0
 14 30  1  0  0  0
 15 16  1  0  0  0
 15 31  1  0  0  0
 15 32  1  0  0  0
 16 33  1  0  0  0
 16 34  1  0  0  0
 17 35  1  0  0  0
 17 36  1  0  0  0
 18 19  1  0  0  0
 18 37  1  0  0  0
 18 38  1  0  0  0
 19 39  1  0  0  0
 19 40  1  0  0  0
 19 41  1  0  0  0
M  CHG  1   5   1
M  END
> <s_m_source_file>
../4b81_ligand.sdf

> <i_m_source_file_index>
1

> <s_epik_input>
W0NIM11bQ0gyXVtOSCtdKFtDSDJdW0NIM10pW0NIMl1bQ0gyXVtOSF1TKD1PKSg9TylbQ0gyXWMxW2NIXVtjSF1jKENsKVtjSF1bY0hdMQ==

> <s_epik_cmdline>
J2VwaWtfYXBwJywgJy1pbWFlJywgJ2xpZ2FuZF9wcm8ubWFlJywgJy1vbWFlJywgJ2xpZ2FuZF9wcmVwLm1hZScsICctbXMnLCAnMScsICctcGgnLCAnNycsICctcGh0JywgJzAuNScsICctbnQn

> <r_epik_Ionization_Penalty>
  0.0196

> <r_epik_Ionization_Penalty_Charging>
  0.0193

> <r_epik_Ionization_Penalty_Neutral>
  0.0003

> <r_epik_State_Penalty>
  0.0154

> <r_epik_Charging_Adjusted_Penalty>
0.0347259026208798

> <i_epik_Tot_Q>
1

> <i_epik_Tot_abs_Q>
1

$$$$
