4b82_ligand
                    3D
 Schrodinger Suite 2020-3.
 38 38  0  0  1  0            999 V2000
   28.5520   19.2410   12.7780 O   0  0  0  0  0  0
   29.5720   20.1640   13.0440 S   0  0  0  0  0  0
   30.8070   19.6810   13.5840 O   0  0  0  0  0  0
   29.0820   21.3310   14.1590 N   0  0  3  0  0  0
   28.1640   20.9740   15.2820 C   0  0  0  0  0  0
   26.6370   20.9640   15.0200 C   0  0  0  0  0  0
   26.1800   19.5470   14.6750 N   0  3  0  0  0  0
   24.9150   19.6750   13.8520 C   0  0  0  0  0  0
   24.9990   20.6810   12.7110 C   0  0  0  0  0  0
   29.9670   21.1500   11.6840 C   0  0  0  0  0  0
   29.8960   20.7770   10.3150 C   0  0  0  0  0  0
   30.2090   21.6560    9.2840 C   0  0  0  0  0  0
   30.6030   22.9600    9.5260 C   0  0  0  0  0  0
   30.6850   23.3860   10.8430 C   0  0  0  0  0  0
   30.3660   22.4860   11.8740 C   0  0  0  0  0  0
   25.8340   18.7800   15.9350 C   0  0  0  0  0  0
   30.4740   22.9230   13.0770 F   0  0  0  0  0  0
   26.9800   18.0130   16.5980 C   0  0  0  0  0  0
   29.3147   22.3862   13.9531 H   0  0  0  0  0  0
   28.3932   19.9573   15.6339 H   0  0  0  0  0  0
   28.3005   21.6874   16.1081 H   0  0  0  0  0  0
   26.1081   21.3073   15.9213 H   0  0  0  0  0  0
   26.4046   21.6356   14.1804 H   0  0  0  0  0  0
   26.9752   19.0109   14.1362 H   0  0  0  0  0  0
   24.6708   18.7017   13.4013 H   0  0  0  0  0  0
   24.0868   19.9970   14.5003 H   0  0  0  0  0  0
   24.0401   20.7056   12.1725 H   0  0  0  0  0  0
   25.8007   20.3842   12.0188 H   0  0  0  0  0  0
   25.2168   21.6795   13.1179 H   0  0  0  0  0  0
   29.5843   19.7633   10.0633 H   0  0  0  0  0  0
   30.1419   21.3070    8.2536 H   0  0  0  0  0  0
   30.8425   23.6342    8.7037 H   0  0  0  0  0  0
   30.9928   24.4055   11.0755 H   0  0  0  0  0  0
   25.4564   19.4778   16.6969 H   0  0  0  0  0  0
   25.0606   18.0315   15.7079 H   0  0  0  0  0  0
   26.6065   17.5005   17.4968 H   0  0  0  0  0  0
   27.7765   18.7167   16.8814 H   0  0  0  0  0  0
   27.3808   17.2704   15.8924 H   0  0  0  0  0  0
  1  2  2  0  0  0
  2  3  2  0  0  0
  2  4  1  0  0  0
  2 10  1  0  0  0
  4  5  1  0  0  0
  4 19  1  0  0  0
  5  6  1  0  0  0
  5 20  1  0  0  0
  5 21  1  0  0  0
  6  7  1  0  0  0
  6 22  1  0  0  0
  6 23  1  0  0  0
  7  8  1  0  0  0
  7 16  1  0  0  0
  7 24  1  0  0  0
  8  9  1  0  0  0
  8 25  1  0  0  0
  8 26  1  0  0  0
  9 27  1  0  0  0
  9 28  1  0  0  0
  9 29  1  0  0  0
 10 11  2  0  0  0
 10 15  1  0  0  0
 11 12  1  0  0  0
 11 30  1  0  0  0
 12 13  2  0  0  0
 12 31  1  0  0  0
 13 14  1  0  0  0
 13 32  1  0  0  0
 14 15  2  0  0  0
 14 33  1  0  0  0
 15 17  1  0  0  0
 16 18  1  0  0  0
 16 34  1  0  0  0
 16 35  1  0  0  0
 18 36  1  0  0  0
 18 37  1  0  0  0
 18 38  1  0  0  0
M  CHG  1   7   1
M  END
> <s_m_source_file>
../4b82_ligand.sdf

> <i_m_source_file_index>
1

> <s_epik_input>
W0NIM11bQ0gyXVtOSCtdKFtDSDJdW0NIM10pW0NIMl1bQ0gyXVtOSF1TKD1PKSg9TyljMVtjSF1bY0hdW2NIXVtjSF1jMUY=

> <s_epik_cmdline>
J2VwaWtfYXBwJywgJy1pbWFlJywgJ2xpZ2FuZF9wcm8ubWFlJywgJy1vbWFlJywgJ2xpZ2FuZF9wcmVwLm1hZScsICctbXMnLCAnMScsICctcGgnLCAnNycsICctcGh0JywgJzAuNScsICctbnQn

> <r_epik_Ionization_Penalty>
  0.0229

> <r_epik_Ionization_Penalty_Charging>
  0.0207

> <r_epik_Ionization_Penalty_Neutral>
  0.0021

> <r_epik_State_Penalty>
  0.0166

> <r_epik_Charging_Adjusted_Penalty>
0.0373627347166059

> <i_epik_Tot_Q>
1

> <i_epik_Tot_abs_Q>
1

$$$$
