4b83_ligand
                    3D
 Schrodinger Suite 2020-3.
 42 42  0  0  1  0            999 V2000
   29.9260   20.2600   13.3330 N   0  0  3  0  0  0
   28.2500   19.1570   11.8060 O   0  0  0  0  0  0
   29.6190   19.5030   11.8910 S   0  0  0  0  0  0
   33.6530   20.9430    8.8260 C   0  0  0  0  0  0
   27.2190   20.0150   14.6500 N   0  3  0  0  0  0
   30.5870   18.4620   11.8340 O   0  0  0  0  0  0
   30.5390   22.6130    8.7230 C   0  0  0  0  0  0
   31.5370   21.8740    9.3010 C   0  0  0  0  0  0
   31.3070   20.8980   10.2910 C   0  0  0  0  0  0
   28.1600   21.1690   14.9350 C   0  0  0  0  0  0
   29.9670   20.6500   10.7080 C   0  0  0  0  0  0
   28.9740   21.4190   10.1060 C   0  0  0  0  0  0
   29.2290   22.3750    9.1380 C   0  0  0  0  0  0
   29.0630   21.4260   13.7010 C   0  0  0  0  0  0
   27.6120   17.9420   16.0480 C   0  0  0  0  0  0
   26.8590   19.2640   15.9290 C   0  0  0  0  0  0
   32.8630   22.0930    8.9160 O   0  0  0  0  0  0
   25.9780   20.5330   14.0530 C   0  0  0  0  0  0
   25.0190   19.3840   13.8790 C   0  0  0  0  0  0
   30.8274   20.0353   13.9221 H   0  0  0  0  0  0
   34.6718   21.2212    8.5182 H   0  0  0  0  0  0
   33.2196   20.2577    8.0826 H   0  0  0  0  0  0
   33.6891   20.4453    9.8063 H   0  0  0  0  0  0
   27.7064   19.3349   13.9359 H   0  0  0  0  0  0
   30.7614   23.3626    7.9635 H   0  0  0  0  0  0
   32.1372   20.3439   10.7290 H   0  0  0  0  0  0
   27.5744   22.0744   15.1526 H   0  0  0  0  0  0
   28.7902   20.9227   15.8023 H   0  0  0  0  0  0
   27.9406   21.2594   10.4137 H   0  0  0  0  0  0
   28.4068   22.9412    8.7005 H   0  0  0  0  0  0
   29.6983   22.2929   13.9353 H   0  0  0  0  0  0
   28.4017   21.6734   12.8575 H   0  0  0  0  0  0
   27.3219   17.4375   16.9814 H   0  0  0  0  0  0
   28.6947   18.1363   16.0574 H   0  0  0  0  0  0
   27.3622   17.2993   15.1909 H   0  0  0  0  0  0
   27.1132   19.8834   16.8018 H   0  0  0  0  0  0
   25.7807   19.0465   15.9353 H   0  0  0  0  0  0
   25.5399   21.2916   14.7183 H   0  0  0  0  0  0
   26.2025   20.9872   13.0766 H   0  0  0  0  0  0
   24.0832   19.7518   13.4330 H   0  0  0  0  0  0
   24.8056   18.9329   14.8593 H   0  0  0  0  0  0
   25.4682   18.6284   13.2177 H   0  0  0  0  0  0
  1  3  1  0  0  0
  1 14  1  0  0  0
  1 20  1  0  0  0
  2  3  2  0  0  0
  3  6  2  0  0  0
  3 11  1  0  0  0
  4 17  1  0  0  0
  4 21  1  0  0  0
  4 22  1  0  0  0
  4 23  1  0  0  0
  5 10  1  0  0  0
  5 16  1  0  0  0
  5 18  1  0  0  0
  5 24  1  0  0  0
  7  8  2  0  0  0
  7 13  1  0  0  0
  7 25  1  0  0  0
  8  9  1  0  0  0
  8 17  1  0  0  0
  9 11  2  0  0  0
  9 26  1  0  0  0
 10 14  1  0  0  0
 10 27  1  0  0  0
 10 28  1  0  0  0
 11 12  1  0  0  0
 12 13  2  0  0  0
 12 29  1  0  0  0
 13 30  1  0  0  0
 14 31  1  0  0  0
 14 32  1  0  0  0
 15 16  1  0  0  0
 15 33  1  0  0  0
 15 34  1  0  0  0
 15 35  1  0  0  0
 16 36  1  0  0  0
 16 37  1  0  0  0
 18 19  1  0  0  0
 18 38  1  0  0  0
 18 39  1  0  0  0
 19 40  1  0  0  0
 19 41  1  0  0  0
 19 42  1  0  0  0
M  CHG  1   5   1
M  END
> <s_m_source_file>
../4b83_ligand.sdf

> <i_m_source_file_index>
1

> <s_epik_input>
W0NIM11bQ0gyXVtOSCtdKFtDSDJdW0NIM10pW0NIMl1bQ0gyXVtOSF1TKD1PKSg9TyljKFtjSF0xKVtjSF1bY0hdW2NIXWMxT1tDSDNd

> <s_epik_cmdline>
J2VwaWtfYXBwJywgJy1pbWFlJywgJ2xpZ2FuZF9wcm8ubWFlJywgJy1vbWFlJywgJ2xpZ2FuZF9wcmVwLm1hZScsICctbXMnLCAnMScsICctcGgnLCAnNycsICctcGh0JywgJzAuNScsICctbnQn

> <r_lp_tautomer_probability>
1

> <r_epik_Ionization_Penalty>
  0.0215

> <r_epik_Ionization_Penalty_Charging>
  0.0207

> <r_epik_Ionization_Penalty_Neutral>
  0.0008

> <r_epik_State_Penalty>
  0.0166

> <r_epik_Charging_Adjusted_Penalty>
0.0373627347166059

> <i_epik_Tot_Q>
1

> <i_epik_Tot_abs_Q>
1

$$$$
