4b84_ligand
                    3D
 Schrodinger Suite 2020-3.
 41 41  0  0  1  0            999 V2000
   30.6880   18.7140   12.0240 O   0  0  0  0  0  0
   29.8860   19.8950   12.0730 S   0  0  0  0  0  0
   29.9630   20.6260   13.6100 N   0  0  3  0  0  0
   28.7700   21.4280   13.8930 C   0  0  0  0  0  0
   27.8370   20.8800   14.9360 C   0  0  0  0  0  0
   26.9160   19.7970   14.5310 N   0  3  0  0  0  0
   25.5610   20.2560   14.2020 C   0  0  0  0  0  0
   25.2780   20.5480   12.7540 C   0  0  0  0  0  0
   26.9220   18.6590   15.4510 C   0  0  0  0  0  0
   27.6230   17.4340   14.9560 C   0  0  0  0  0  0
   30.2930   21.0490   10.8220 C   0  0  0  0  0  0
   31.5290   21.0210   10.1730 C   0  0  0  0  0  0
   31.8180   21.9530    9.1650 C   0  0  0  0  0  0
   33.1440   21.9410    8.4330 C   0  0  0  0  0  0
   33.8060   23.0540    8.7950 F   0  0  0  0  0  0
   32.9500   21.8850    7.0990 F   0  0  0  0  0  0
   33.8400   20.8670    8.7970 F   0  0  0  0  0  0
   30.8610   22.9260    8.8190 C   0  0  0  0  0  0
   29.6280   22.9510    9.4710 C   0  0  0  0  0  0
   29.3430   22.0160   10.4680 C   0  0  0  0  0  0
   28.6070   19.3090   11.7770 O   0  0  0  0  0  0
   30.8362   20.6851   14.2763 H   0  0  0  0  0  0
   29.0735   22.4236   14.2490 H   0  0  0  0  0  0
   28.1726   21.5331   12.9753 H   0  0  0  0  0  0
   28.4223   20.4654   15.7700 H   0  0  0  0  0  0
   27.1888   21.6869   15.3085 H   0  0  0  0  0  0
   27.3229   19.4129   13.5840 H   0  0  0  0  0  0
   24.8315   19.4882   14.4993 H   0  0  0  0  0  0
   25.3495   21.1910   14.7414 H   0  0  0  0  0  0
   24.2353   20.8808   12.6441 H   0  0  0  0  0  0
   25.4368   19.6369   12.1584 H   0  0  0  0  0  0
   25.9549   21.3398   12.4006 H   0  0  0  0  0  0
   27.4238   18.9466   16.3867 H   0  0  0  0  0  0
   25.8866   18.3574   15.6679 H   0  0  0  0  0  0
   27.5675   16.6455   15.7210 H   0  0  0  0  0  0
   28.6771   17.6724   14.7509 H   0  0  0  0  0  0
   27.1399   17.0832   14.0321 H   0  0  0  0  0  0
   32.2715   20.2728   10.4504 H   0  0  0  0  0  0
   31.0832   23.6585    8.0430 H   0  0  0  0  0  0
   28.8855   23.7021    9.2015 H   0  0  0  0  0  0
   28.3773   22.0385   10.9731 H   0  0  0  0  0  0
  1  2  2  0  0  0
  2  3  1  0  0  0
  2 11  1  0  0  0
  2 21  2  0  0  0
  3  4  1  0  0  0
  3 22  1  0  0  0
  4  5  1  0  0  0
  4 23  1  0  0  0
  4 24  1  0  0  0
  5  6  1  0  0  0
  5 25  1  0  0  0
  5 26  1  0  0  0
  6  7  1  0  0  0
  6  9  1  0  0  0
  6 27  1  0  0  0
  7  8  1  0  0  0
  7 28  1  0  0  0
  7 29  1  0  0  0
  8 30  1  0  0  0
  8 31  1  0  0  0
  8 32  1  0  0  0
  9 10  1  0  0  0
  9 33  1  0  0  0
  9 34  1  0  0  0
 10 35  1  0  0  0
 10 36  1  0  0  0
 10 37  1  0  0  0
 11 12  2  0  0  0
 11 20  1  0  0  0
 12 13  1  0  0  0
 12 38  1  0  0  0
 13 14  1  0  0  0
 13 18  2  0  0  0
 14 15  1  0  0  0
 14 16  1  0  0  0
 14 17  1  0  0  0
 18 19  1  0  0  0
 18 39  1  0  0  0
 19 20  2  0  0  0
 19 40  1  0  0  0
 20 41  1  0  0  0
M  CHG  1   6   1
M  END
> <s_m_source_file>
../4b84_ligand.sdf

> <i_m_source_file_index>
1

> <s_epik_input>
W2NIXTFbY0hdW2NIXWMoQyhGKShGKUYpW2NIXWMxUyg9TykoPU8pW05IXVtDSDJdW0NIMl1bTkgrXShbQ0gyXVtDSDNdKVtDSDJdW0NIM10=

> <s_epik_cmdline>
J2VwaWtfYXBwJywgJy1pbWFlJywgJ2xpZ2FuZF9wcm8ubWFlJywgJy1vbWFlJywgJ2xpZ2FuZF9wcmVwLm1hZScsICctbXMnLCAnMScsICctcGgnLCAnNycsICctcGh0JywgJzAuNScsICctbnQn

> <r_epik_Ionization_Penalty>
  0.0234

> <r_epik_Ionization_Penalty_Charging>
  0.0203

> <r_epik_Ionization_Penalty_Neutral>
  0.0030

> <r_epik_State_Penalty>
  0.0163

> <r_epik_Charging_Adjusted_Penalty>
0.0366297061683594

> <i_epik_Tot_Q>
1

> <i_epik_Tot_abs_Q>
1

$$$$
