4b85_ligand
                    3D
 Schrodinger Suite 2020-3.
 38 38  0  0  1  0            999 V2000
   28.0710   19.2670   11.9720 O   0  0  0  0  0  0
   29.4320   19.5210   12.2780 S   0  0  0  0  0  0
   30.2650   18.4030   12.5440 O   0  0  0  0  0  0
   29.5000   20.5300   13.5920 N   0  0  3  0  0  0
   28.5430   21.6640   13.6880 C   0  0  0  0  0  0
   27.3580   21.4590   14.6820 C   0  0  0  0  0  0
   26.8150   20.0490   14.5260 N   0  3  0  0  0  0
   25.5570   19.9610   13.6800 C   0  0  0  0  0  0
   24.9550   21.3520   13.4180 C   0  0  0  0  0  0
   30.0840   20.4060   11.0040 C   0  0  0  0  0  0
   29.3520   21.4050   10.3270 C   0  0  0  0  0  0
   29.9110   22.1340    9.2750 C   0  0  0  0  0  0
   31.2220   21.8480    8.8970 C   0  0  0  0  0  0
   31.9700   20.8770    9.5330 C   0  0  0  0  0  0
   31.3900   20.1670   10.5750 C   0  0  0  0  0  0
   26.6800   19.3360   15.8480 C   0  0  0  0  0  0
   27.3560   17.9710   15.7940 C   0  0  0  0  0  0
   31.9650   22.7080    7.6030 Cl  0  0  0  0  0  0
   30.3436   20.4613   14.2946 H   0  0  0  0  0  0
   29.0761   22.5664   14.0220 H   0  0  0  0  0  0
   28.0926   21.8483   12.7015 H   0  0  0  0  0  0
   27.7141   21.6060   15.7123 H   0  0  0  0  0  0
   26.5639   22.1874   14.4611 H   0  0  0  0  0  0
   27.5803   19.5007   13.9570 H   0  0  0  0  0  0
   25.7980   19.4981   12.7117 H   0  0  0  0  0  0
   24.8062   19.3496   14.2019 H   0  0  0  0  0  0
   24.0480   21.2493   12.8041 H   0  0  0  0  0  0
   25.6892   21.9750   12.8861 H   0  0  0  0  0  0
   24.6973   21.8264   14.3764 H   0  0  0  0  0  0
   28.3264   21.6124   10.6324 H   0  0  0  0  0  0
   29.3372   22.9064    8.7629 H   0  0  0  0  0  0
   32.9948   20.6724    9.2231 H   0  0  0  0  0  0
   31.9752   19.3957   11.0757 H   0  0  0  0  0  0
   27.1535   19.9367   16.6386 H   0  0  0  0  0  0
   25.6143   19.1964   16.0822 H   0  0  0  0  0  0
   27.2461   17.4687   16.7664 H   0  0  0  0  0  0
   28.4245   18.0998   15.5665 H   0  0  0  0  0  0
   26.8853   17.3595   15.0101 H   0  0  0  0  0  0
  1  2  2  0  0  0
  2  3  2  0  0  0
  2  4  1  0  0  0
  2 10  1  0  0  0
  4  5  1  0  0  0
  4 19  1  0  0  0
  5  6  1  0  0  0
  5 20  1  0  0  0
  5 21  1  0  0  0
  6  7  1  0  0  0
  6 22  1  0  0  0
  6 23  1  0  0  0
  7  8  1  0  0  0
  7 16  1  0  0  0
  7 24  1  0  0  0
  8  9  1  0  0  0
  8 25  1  0  0  0
  8 26  1  0  0  0
  9 27  1  0  0  0
  9 28  1  0  0  0
  9 29  1  0  0  0
 10 11  2  0  0  0
 10 15  1  0  0  0
 11 12  1  0  0  0
 11 30  1  0  0  0
 12 13  2  0  0  0
 12 31  1  0  0  0
 13 14  1  0  0  0
 13 18  1  0  0  0
 14 15  2  0  0  0
 14 32  1  0  0  0
 15 33  1  0  0  0
 16 17  1  0  0  0
 16 34  1  0  0  0
 16 35  1  0  0  0
 17 36  1  0  0  0
 17 37  1  0  0  0
 17 38  1  0  0  0
M  CHG  1   7   1
M  END
> <s_m_source_file>
../4b85_ligand.sdf

> <i_m_source_file_index>
1

> <s_epik_input>
W2NIXTFbY0hdYyhDbClbY0hdW2NIXWMxUyg9TykoPU8pW05IXVtDSDJdW0NIMl1bTkgrXShbQ0gyXVtDSDNdKVtDSDJdW0NIM10=

> <s_epik_cmdline>
J2VwaWtfYXBwJywgJy1pbWFlJywgJ2xpZ2FuZF9wcm8ubWFlJywgJy1vbWFlJywgJ2xpZ2FuZF9wcmVwLm1hZScsICctbXMnLCAnMScsICctcGgnLCAnNycsICctcGh0JywgJzAuNScsICctbnQn

> <r_epik_Ionization_Penalty>
  0.0226

> <r_epik_Ionization_Penalty_Charging>
  0.0211

> <r_epik_Ionization_Penalty_Neutral>
  0.0015

> <r_epik_State_Penalty>
  0.0170

> <r_epik_Charging_Adjusted_Penalty>
0.038052196304681

> <i_epik_Tot_Q>
1

> <i_epik_Tot_abs_Q>
1

$$$$
