4b8o_ligand
                    3D
 Schrodinger Suite 2020-3.
184185  0  0  1  0            999 V2000
   43.4410   -2.4990   10.2760 N   0  3  0  0  0  0
   43.6850   -3.4510    9.2060 C   0  0  0  0  0  0
   43.0040   -3.0670    7.8980 C   0  0  0  0  0  0
   42.6420   -3.9260    7.0940 O   0  0  0  0  0  0
   42.8170   -1.7700    7.6890 N   0  0  0  0  0  0
   42.2400   -1.2550    6.4550 C   0  0  2  0  0  0
   43.1440   -1.4940    5.2370 C   0  0  0  0  0  0
   44.3420   -1.6840    5.3870 O   0  0  0  0  0  0
   42.0080    0.2380    6.6170 C   0  0  0  0  0  0
   41.5150    0.7920    5.4220 O   0  0  0  0  0  0
   42.5780   -1.4700    4.0150 N   0  0  0  0  0  0
   43.4520   -1.6930    2.8540 C   0  0  2  0  0  0
   44.4430   -0.5410    2.6650 C   0  0  0  0  0  0
   44.1230    0.6020    2.9840 O   0  0  0  0  0  0
   42.4750   -1.7480    1.6700 C   0  0  0  0  0  0
   41.1330   -2.0170    2.2900 C   0  0  0  0  0  0
   41.1720   -1.3260    3.6180 C   0  0  0  0  0  0
   45.6320   -0.8310    2.1340 N   0  0  0  0  0  0
   46.6020    0.2600    1.9450 C   0  0  2  0  0  0
   46.0410    1.3880    1.0770 C   0  0  0  0  0  0
   45.2350    1.1640    0.1630 O   0  0  0  0  0  0
   47.7860   -0.4270    1.2480 C   0  0  0  0  0  0
   47.2160   -1.6600    0.6360 C   0  0  0  0  0  0
   46.0390   -2.0800    1.4700 C   0  0  0  0  0  0
   46.4710    2.6030    1.3950 N   0  0  0  0  0  0
   46.1350    3.7840    0.6280 C   0  0  2  0  0  0
   46.9600    3.9000   -0.6390 C   0  0  0  0  0  0
   46.5520    4.5340   -1.5960 O   0  0  0  0  0  0
   46.3830    5.0170    1.4830 C   0  0  0  0  0  0
   45.3410    5.1620    2.6140 C   0  0  0  0  0  0
   45.6440    6.3550    3.4800 C   0  0  0  0  0  0
   44.4510    6.7180    4.3330 C   0  0  0  0  0  0
   44.7390    7.9340    5.1400 N   0  3  0  0  0  0
   48.1390    3.3050   -0.6130 N   0  0  0  0  0  0
   49.0880    3.3860   -1.7170 C   0  0  2  0  0  0
   49.7980    2.0660   -1.8120 C   0  0  0  0  0  0
   49.9210    1.3710   -0.8250 O   0  0  0  0  0  0
   50.0910    4.4970   -1.4810 C   0  0  0  0  0  0
   49.5050    5.9000   -1.6060 C   0  0  0  0  0  0
   50.5970    6.9490   -1.6190 C   0  0  0  0  0  0
   50.0140    8.3320   -1.6870 C   0  0  0  0  0  0
   51.0580    9.3510   -1.9060 N   0  3  0  0  0  0
   50.2010    1.6900   -3.0200 N   0  0  0  0  0  0
   50.9420    0.4560   -3.2200 C   0  0  2  0  0  0
   52.0750    0.7460   -4.1810 C   0  0  0  0  0  0
   51.8560    1.3490   -5.2490 O   0  0  0  0  0  0
   50.0670   -0.6180   -3.8590 C   0  0  0  0  0  0
   48.9860   -1.1820   -3.0110 C   0  0  0  0  0  0
   48.2460   -2.2610   -3.7880 C   0  0  0  0  0  0
   47.0470   -2.7820   -3.0220 C   0  0  0  0  0  0
   46.2980   -3.8430   -3.7710 N   0  3  0  0  0  0
   53.2710    0.3090   -3.8070 N   0  0  0  0  0  0
   54.4480    0.4500   -4.6570 C   0  0  2  0  0  0
   54.6260   -0.8700   -5.3880 C   0  0  0  0  0  0
   54.4970   -1.9270   -4.7980 O   0  0  0  0  0  0
   55.6790    0.7820   -3.8030 C   0  0  0  0  0  0
   56.9370    1.1300   -4.6290 C   0  0  0  0  0  0
   57.9920    1.8170   -3.7660 C   0  0  0  0  0  0
   58.4560    0.9190   -2.7190 N   0  0  0  0  0  0
   59.4790    0.0790   -2.8300 C   0  0  0  0  0  0
   60.2040    0.0440   -3.9510 N   0  0  0  0  0  0
   59.7900   -0.7170   -1.8050 N   0  0  0  0  0  0
   54.8990   -0.7930   -6.6780 N   0  0  0  0  0  0
   55.0480   -1.9800   -7.4970 C   0  0  2  0  0  0
   56.5020   -2.4580   -7.4820 C   0  0  0  0  0  0
   57.3850   -1.7880   -7.9770 O   0  0  0  0  0  0
   54.5730   -1.6880   -8.9200 C   0  0  0  0  0  0
   54.5090   -2.8870   -9.8420 C   0  0  0  0  0  0
   54.1500   -2.4520  -11.2540 C   0  0  0  0  0  0
   54.5080   -3.4880  -12.3010 C   0  0  0  0  0  0
   53.7420   -4.7370  -12.1080 N   0  3  0  0  0  0
   56.7420   -3.6150   -6.8900 N   0  0  0  0  0  0
   58.1020   -4.1050   -6.7560 C   0  0  2  0  0  0
   58.3980   -5.2630   -7.6990 C   0  0  0  0  0  0
   59.5490   -5.6160   -7.9100 O   0  0  0  0  0  0
   58.4340   -4.4940   -5.3060 C   0  0  0  0  0  0
   58.2540   -3.3110   -4.3750 C   0  0  0  0  0  0
   57.5850   -5.6610   -4.8560 C   0  0  0  0  0  0
   57.3580   -5.8380   -8.2780 N   0  0  0  0  0  0
   57.5130   -6.9910   -9.1430 C   0  0  0  0  0  0
   56.7180   -6.8890  -10.4300 C   0  0  0  0  0  0
   55.6665   -6.1969  -10.4847 O   0  0  0  0  0  0
   57.1133   -7.5034  -11.4566 O   0  0  0  0  0  0
   43.9574   -2.8324   11.1882 H   0  0  0  0  0  0
   42.3601   -2.4340   10.4695 H   0  0  0  0  0  0
   43.8207   -1.5099    9.9804 H   0  0  0  0  0  0
   44.7659   -3.5160    9.0125 H   0  0  0  0  0  0
   43.3053   -4.4402    9.5016 H   0  0  0  0  0  0
   43.1150   -1.0757    8.4885 H   0  0  0  0  0  0
   41.3003   -1.8110    6.3211 H   0  0  0  0  0  0
   41.2758    0.4103    7.4196 H   0  0  0  0  0  0
   42.9571    0.7308    6.8746 H   0  0  0  0  0  0
   41.2917    1.8676    5.3655 H   0  0  0  0  0  0
   44.0471   -2.6064    3.0007 H   0  0  0  0  0  0
   42.4915   -0.7864    1.1361 H   0  0  0  0  0  0
   42.7754   -2.5536    0.9838 H   0  0  0  0  0  0
   40.3421   -1.6087    1.6437 H   0  0  0  0  0  0
   40.9915   -3.1021    2.4017 H   0  0  0  0  0  0
   40.5280   -1.8087    4.3678 H   0  0  0  0  0  0
   40.9179   -0.2580    3.5495 H   0  0  0  0  0  0
   46.8465    0.7181    2.9147 H   0  0  0  0  0  0
   48.2040    0.2470    0.4857 H   0  0  0  0  0  0
   48.5610   -0.6654    1.9913 H   0  0  0  0  0  0
   46.8977   -1.4443   -0.3946 H   0  0  0  0  0  0
   47.9801   -2.4512    0.6258 H   0  0  0  0  0  0
   46.3079   -2.8285    2.2299 H   0  0  0  0  0  0
   45.2058   -2.4595    0.8603 H   0  0  0  0  0  0
   47.1101    2.6893    2.2861 H   0  0  0  0  0  0
   45.0754    3.6577    0.3610 H   0  0  0  0  0  0
   47.3797    4.9495    1.9434 H   0  0  0  0  0  0
   46.3305    5.9169    0.8527 H   0  0  0  0  0  0
   44.3401    5.2902    2.1761 H   0  0  0  0  0  0
   45.3535    4.2590    3.2421 H   0  0  0  0  0  0
   46.4932    6.1230    4.1396 H   0  0  0  0  0  0
   45.8986    7.2151    2.8433 H   0  0  0  0  0  0
   43.5839    6.9156    3.6856 H   0  0  0  0  0  0
   44.2189    5.8847    5.0125 H   0  0  0  0  0  0
   43.8609    8.1831    5.7538 H   0  0  0  0  0  0
   44.9670    8.7745    4.4680 H   0  0  0  0  0  0
   45.6021    7.7435    5.7949 H   0  0  0  0  0  0
   48.3932    2.7302    0.2897 H   0  0  0  0  0  0
   48.5237    3.6002   -2.6366 H   0  0  0  0  0  0
   50.5049    4.4077   -0.4658 H   0  0  0  0  0  0
   50.9048    4.4187   -2.2169 H   0  0  0  0  0  0
   48.9332    5.9764   -2.5426 H   0  0  0  0  0  0
   48.8391    6.0966   -0.7528 H   0  0  0  0  0  0
   51.1979    6.8642   -0.7015 H   0  0  0  0  0  0
   51.2430    6.7950   -2.4959 H   0  0  0  0  0  0
   49.2956    8.3866   -2.5182 H   0  0  0  0  0  0
   49.4992    8.5598   -0.7420 H   0  0  0  0  0  0
   50.5942   10.3475   -1.9500 H   0  0  0  0  0  0
   51.5773    9.1461   -2.8538 H   0  0  0  0  0  0
   51.7809    9.3192   -1.0775 H   0  0  0  0  0  0
   49.9631    2.3341   -3.8794 H   0  0  0  0  0  0
   51.2853    0.1362   -2.2251 H   0  0  0  0  0  0
   49.5674   -0.2034   -4.7470 H   0  0  0  0  0  0
   50.6931   -1.4723   -4.1559 H   0  0  0  0  0  0
   49.4238   -1.6189   -2.1014 H   0  0  0  0  0  0
   48.2837   -0.3826   -2.7324 H   0  0  0  0  0  0
   47.8925   -1.8472   -4.7439 H   0  0  0  0  0  0
   48.9253   -3.1041   -3.9822 H   0  0  0  0  0  0
   47.3816   -3.2157   -2.0681 H   0  0  0  0  0  0
   46.3503   -1.9541   -2.8240 H   0  0  0  0  0  0
   45.4420   -4.1819   -3.1689 H   0  0  0  0  0  0
   46.9668   -4.6936   -3.9688 H   0  0  0  0  0  0
   45.9356   -3.4320   -4.7248 H   0  0  0  0  0  0
   53.3586   -0.1721   -2.8217 H   0  0  0  0  0  0
   54.2788    1.2733   -5.3666 H   0  0  0  0  0  0
   55.4586    1.6496   -3.1637 H   0  0  0  0  0  0
   55.9321   -0.0831   -3.1725 H   0  0  0  0  0  0
   57.3697    0.2078   -5.0441 H   0  0  0  0  0  0
   56.6605    1.8074   -5.4504 H   0  0  0  0  0  0
   58.8475    2.1067   -4.3939 H   0  0  0  0  0  0
   57.5579    2.7144   -3.3011 H   0  0  0  0  0  0
   57.9480    0.9025   -1.7435 H   0  0  0  0  0  0
   59.9452    0.7013   -4.7942 H   0  0  0  0  0  0
   61.0600   -0.6422   -4.0312 H   0  0  0  0  0  0
   59.1909   -0.6859   -0.8830 H   0  0  0  0  0  0
   55.0134    0.2040   -7.1285 H   0  0  0  0  0  0
   54.4084   -2.7513   -7.0431 H   0  0  0  0  0  0
   53.5579   -1.2653   -8.8882 H   0  0  0  0  0  0
   55.2556   -0.9672   -9.3938 H   0  0  0  0  0  0
   55.4879   -3.3884   -9.8599 H   0  0  0  0  0  0
   53.7441   -3.5889   -9.4783 H   0  0  0  0  0  0
   53.0667   -2.2724  -11.3180 H   0  0  0  0  0  0
   54.6904   -1.5263  -11.5011 H   0  0  0  0  0  0
   54.2820   -3.0912  -13.3017 H   0  0  0  0  0  0
   55.5806   -3.7224  -12.2331 H   0  0  0  0  0  0
   54.0258   -5.4646  -12.8827 H   0  0  0  0  0  0
   52.6658   -4.5224  -12.1832 H   0  0  0  0  0  0
   53.9643   -5.1536  -11.1145 H   0  0  0  0  0  0
   55.9026   -4.2078   -6.4974 H   0  0  0  0  0  0
   58.7035   -3.2365   -7.0625 H   0  0  0  0  0  0
   59.4871   -4.8074   -5.2526 H   0  0  0  0  0  0
   58.8794   -2.4744   -4.7200 H   0  0  0  0  0  0
   58.5540   -3.5973   -3.3562 H   0  0  0  0  0  0
   57.1980   -3.0030   -4.3734 H   0  0  0  0  0  0
   57.7304   -6.5069   -5.5439 H   0  0  0  0  0  0
   56.5254   -5.3655   -4.8570 H   0  0  0  0  0  0
   57.8815   -5.9597   -3.8397 H   0  0  0  0  0  0
   56.3572   -5.4217   -8.0905 H   0  0  0  0  0  0
   58.5723   -7.1040   -9.4170 H   0  0  0  0  0  0
   57.1725   -7.8939   -8.6150 H   0  0  0  0  0  0
   56.5413   -7.4337  -12.3936 H   0  0  0  0  0  0
  1  2  1  0  0  0
  1 84  1  0  0  0
  1 85  1  0  0  0
  1 86  1  0  0  0
  2  3  1  0  0  0
  2 87  1  0  0  0
  2 88  1  0  0  0
  3  4  2  0  0  0
  3  5  1  0  0  0
  5  6  1  0  0  0
  5 89  1  0  0  0
  6  7  1  0  0  0
  6  9  1  0  0  0
  6 90  1  0  0  0
  7  8  2  0  0  0
  7 11  1  0  0  0
  9 10  1  0  0  0
  9 91  1  0  0  0
  9 92  1  0  0  0
 10 93  1  0  0  0
 11 12  1  0  0  0
 11 17  1  0  0  0
 12 13  1  0  0  0
 12 15  1  0  0  0
 12 94  1  0  0  0
 13 14  2  0  0  0
 13 18  1  0  0  0
 15 16  1  0  0  0
 15 95  1  0  0  0
 15 96  1  0  0  0
 16 17  1  0  0  0
 16 97  1  0  0  0
 16 98  1  0  0  0
 17 99  1  0  0  0
 17100  1  0  0  0
 18 19  1  0  0  0
 18 24  1  0  0  0
 19 20  1  0  0  0
 19 22  1  0  0  0
 19101  1  0  0  0
 20 21  2  0  0  0
 20 25  1  0  0  0
 22 23  1  0  0  0
 22102  1  0  0  0
 22103  1  0  0  0
 23 24  1  0  0  0
 23104  1  0  0  0
 23105  1  0  0  0
 24106  1  0  0  0
 24107  1  0  0  0
 25 26  1  0  0  0
 25108  1  0  0  0
 26 27  1  0  0  0
 26 29  1  0  0  0
 26109  1  0  0  0
 27 28  2  0  0  0
 27 34  1  0  0  0
 29 30  1  0  0  0
 29110  1  0  0  0
 29111  1  0  0  0
 30 31  1  0  0  0
 30112  1  0  0  0
 30113  1  0  0  0
 31 32  1  0  0  0
 31114  1  0  0  0
 31115  1  0  0  0
 32 33  1  0  0  0
 32116  1  0  0  0
 32117  1  0  0  0
 33118  1  0  0  0
 33119  1  0  0  0
 33120  1  0  0  0
 34 35  1  0  0  0
 34121  1  0  0  0
 35 36  1  0  0  0
 35 38  1  0  0  0
 35122  1  0  0  0
 36 37  2  0  0  0
 36 43  1  0  0  0
 38 39  1  0  0  0
 38123  1  0  0  0
 38124  1  0  0  0
 39 40  1  0  0  0
 39125  1  0  0  0
 39126  1  0  0  0
 40 41  1  0  0  0
 40127  1  0  0  0
 40128  1  0  0  0
 41 42  1  0  0  0
 41129  1  0  0  0
 41130  1  0  0  0
 42131  1  0  0  0
 42132  1  0  0  0
 42133  1  0  0  0
 43 44  1  0  0  0
 43134  1  0  0  0
 44 45  1  0  0  0
 44 47  1  0  0  0
 44135  1  0  0  0
 45 46  2  0  0  0
 45 52  1  0  0  0
 47 48  1  0  0  0
 47136  1  0  0  0
 47137  1  0  0  0
 48 49  1  0  0  0
 48138  1  0  0  0
 48139  1  0  0  0
 49 50  1  0  0  0
 49140  1  0  0  0
 49141  1  0  0  0
 50 51  1  0  0  0
 50142  1  0  0  0
 50143  1  0  0  0
 51144  1  0  0  0
 51145  1  0  0  0
 51146  1  0  0  0
 52 53  1  0  0  0
 52147  1  0  0  0
 53 54  1  0  0  0
 53 56  1  0  0  0
 53148  1  0  0  0
 54 55  2  0  0  0
 54 63  1  0  0  0
 56 57  1  0  0  0
 56149  1  0  0  0
 56150  1  0  0  0
 57 58  1  0  0  0
 57151  1  0  0  0
 57152  1  0  0  0
 58 59  1  0  0  0
 58153  1  0  0  0
 58154  1  0  0  0
 59 60  1  0  0  0
 59155  1  0  0  0
 60 61  1  0  0  0
 60 62  2  0  0  0
 61156  1  0  0  0
 61157  1  0  0  0
 62158  1  0  0  0
 63 64  1  0  0  0
 63159  1  0  0  0
 64 65  1  0  0  0
 64 67  1  0  0  0
 64160  1  0  0  0
 65 66  2  0  0  0
 65 72  1  0  0  0
 67 68  1  0  0  0
 67161  1  0  0  0
 67162  1  0  0  0
 68 69  1  0  0  0
 68163  1  0  0  0
 68164  1  0  0  0
 69 70  1  0  0  0
 69165  1  0  0  0
 69166  1  0  0  0
 70 71  1  0  0  0
 70167  1  0  0  0
 70168  1  0  0  0
 71169  1  0  0  0
 71170  1  0  0  0
 71171  1  0  0  0
 72 73  1  0  0  0
 72172  1  0  0  0
 73 74  1  0  0  0
 73 76  1  0  0  0
 73173  1  0  0  0
 74 75  2  0  0  0
 74 79  1  0  0  0
 76 77  1  0  0  0
 76 78  1  0  0  0
 76174  1  0  0  0
 77175  1  0  0  0
 77176  1  0  0  0
 77177  1  0  0  0
 78178  1  0  0  0
 78179  1  0  0  0
 78180  1  0  0  0
 79 80  1  0  0  0
 79181  1  0  0  0
 80 81  1  0  0  0
 80182  1  0  0  0
 80183  1  0  0  0
 81 82  2  0  0  0
 81 83  1  0  0  0
 83184  1  0  0  0
M  CHG  5   1   1  33   1  42   1  51   1  71   1
M  END
> <s_m_source_file>
../4b8o_ligand.sdf

> <i_m_source_file_index>
1

> <s_epik_input>
W05IMytdW0NIMl1DKD1PKVtOSF1bQ0BASF0oW0NIMl1bT0hdKUMoPU8pTjFbQ0BASF0oW0NIMl1bQ0gyXVtDSDJdMSlDKD1PKU4yW0NAQEhdKFtDSDJdW0NIMl1bQ0gyXTIpQyg9TylbTkhdW0NAQEhdKFtDSDJdW0NIMl1bQ0gyXVtDSDJdW05IMytdKUMoPU8pW05IXVtDQEBIXShbQ0gyXVtDSDJdW0NIMl1bQ0gyXVtOSDMrXSlDKD1PKVtOSF1bQ0BASF0oW0NIMl1bQ0gyXVtDSDJdW0NIMl1bTkgzK10pQyg9TylbTkhdW0NAQEhdKFtDSDJdW0NIMl1bQ0gyXVtOSF0vQyhbTkgyXSk9TlxbSF0pQyg9TylbTkhdW0NAQEhdKFtDSDJdW0NIMl1bQ0gyXVtDSDJdW05IMytdKUMoPU8pW05IXVtDQEBIXShbQ0hdKFtDSDNdKVtDSDNdKUMoPU8pW05IXVtDSDJdQyg9TylbT0hd

> <s_epik_cmdline>
J2VwaWtfYXBwJywgJy1pbWFlJywgJ2xpZ2FuZF9wcm8ubWFlJywgJy1vbWFlJywgJ2xpZ2FuZF9wcmVwLm1hZScsICctbXMnLCAnMScsICctcGgnLCAnNycsICctcGh0JywgJzAuNScsICctbnQn

> <s_epik_pKa_notes>
Molecule size exceeds maximum supported for generating protonation states

> <s_epik_Chemistry_Notes>
This compound has an imine and may undergo hydrolysis.

$$$$
