4b8p_ligand
                    3D
 Schrodinger Suite 2020-3.
127126  0  0  1  0            999 V2000
    6.8020  -18.1970   23.0630 N   0  3  0  0  0  0
    7.2560  -17.5110   21.8570 C   0  0  2  0  0  0
    7.4140  -16.0090   22.1320 C   0  0  0  0  0  0
    8.2060  -15.3310   21.4900 O   0  0  0  0  0  0
    6.2890  -17.7350   20.6550 C   0  0  2  0  0  0
    5.9170  -19.1130   20.5730 O   0  0  0  0  0  0
    6.9330  -17.3090   19.3260 C   0  0  0  0  0  0
    6.6570  -15.4920   23.0900 N   0  0  0  0  0  0
    6.7680  -14.0950   23.4830 C   0  0  2  0  0  0
    7.6960  -13.9780   24.6940 C   0  0  0  0  0  0
    8.4600  -13.0230   24.8150 O   0  0  0  0  0  0
    5.3820  -13.5130   23.8360 C   0  0  0  0  0  0
    5.4970  -12.1080   24.3960 C   0  0  0  0  0  0
    4.4810  -13.5290   22.6160 C   0  0  0  0  0  0
    7.6600  -14.9930   25.5540 N   0  0  0  0  0  0
    8.3640  -14.9790   26.8310 C   0  0  2  0  0  0
    9.7700  -15.5260   26.6760 C   0  0  0  0  0  0
    9.9850  -16.4400   25.8910 O   0  0  0  0  0  0
    7.6010  -15.8110   27.8650 C   0  0  0  0  0  0
    6.2230  -15.3040   28.2810 C   0  0  0  0  0  0
    5.5270  -16.3210   29.1400 C   0  0  0  0  0  0
    6.3560  -14.0000   29.0110 C   0  0  0  0  0  0
   10.7260  -14.9660   27.4140 N   0  0  0  0  0  0
   12.0930  -15.4650   27.3900 C   0  0  0  0  0  0
   13.0960  -14.4480   27.8840 C   0  0  0  0  0  0
   12.7470  -13.5600   28.6500 O   0  0  0  0  0  0
   14.3390  -14.5580   27.4350 N   0  0  0  0  0  0
   15.3580  -13.5760   27.8050 C   0  0  2  0  0  0
   15.3340  -12.3190   26.9250 C   0  0  0  0  0  0
   14.9880  -12.3750   25.7510 O   0  0  0  0  0  0
   16.7470  -14.2120   27.8080 C   0  0  0  0  0  0
   16.8540  -15.2650   28.8800 C   0  0  0  0  0  0
   18.2200  -15.4110   29.4470 C   0  0  0  0  0  0
   18.2190  -16.4430   30.5550 C   0  0  0  0  0  0
   19.4070  -16.3430   31.4150 N   0  3  0  0  0  0
   15.6800  -11.1860   27.5350 N   0  0  0  0  0  0
   15.6470   -9.8710   26.9010 C   0  0  2  0  0  0
   16.9640   -9.1430   27.0840 C   0  0  0  0  0  0
   17.4130   -8.9420   28.2110 O   0  0  0  0  0  0
   14.5470   -8.9980   27.5120 C   0  0  0  0  0  0
   13.1250   -9.4260   27.1960 C   0  0  0  0  0  0
   12.1100   -8.5700   27.9280 C   0  0  0  0  0  0
   12.1470   -8.7610   29.3660 N   0  0  0  0  0  0
   11.9050   -7.7890   30.2340 C   0  0  0  0  0  0
   11.6460   -6.5740   29.7840 N   0  3  0  0  0  0
   11.9450   -8.0230   31.5440 N   0  0  0  0  0  0
   17.5600   -8.7170   25.9810 N   0  0  0  0  0  0
   18.7320   -7.8680   26.0370 C   0  0  2  0  0  0
   18.3390   -6.4330   26.3830 C   0  0  0  0  0  0
   19.1760   -5.6410   26.8926 O   0  0  0  0  0  0
   19.4650   -7.9190   24.7000 C   0  0  0  0  0  0
   20.0750   -9.2720   24.3800 C   0  0  0  0  0  0
   21.4000   -9.4810   25.0590 C   0  0  0  0  0  0
   21.8950  -10.8760   24.8170 C   0  0  0  0  0  0
   23.1270  -11.1210   25.5810 N   0  3  0  0  0  0
   17.1646   -6.0369   26.1562 O   0  5  0  0  0  0
    7.5135  -18.0103   23.8809 H   0  0  0  0  0  0
    6.7416  -19.2781   22.8691 H   0  0  0  0  0  0
    5.8088  -17.8194   23.3477 H   0  0  0  0  0  0
    8.2327  -17.9688   21.6413 H   0  0  0  0  0  0
    5.3505  -17.1835   20.8133 H   0  0  0  0  0  0
    5.4372  -19.6052   21.4318 H   0  0  0  0  0  0
    7.2220  -16.2491   19.3817 H   0  0  0  0  0  0
    6.2119  -17.4499   18.5074 H   0  0  0  0  0  0
    7.8260  -17.9231   19.1378 H   0  0  0  0  0  0
    5.9308  -16.1484   23.5917 H   0  0  0  0  0  0
    7.1917  -13.5752   22.6110 H   0  0  0  0  0  0
    4.9196  -14.1349   24.6167 H   0  0  0  0  0  0
    6.1534  -12.1177   25.2786 H   0  0  0  0  0  0
    4.4994  -11.7457   24.6849 H   0  0  0  0  0  0
    5.9216  -11.4418   23.6305 H   0  0  0  0  0  0
    4.4107  -14.5550   22.2255 H   0  0  0  0  0  0
    4.9006  -12.8699   21.8417 H   0  0  0  0  0  0
    3.4783  -13.1737   22.8960 H   0  0  0  0  0  0
    7.0644  -15.8711   25.2639 H   0  0  0  0  0  0
    8.4103  -13.9223   27.1329 H   0  0  0  0  0  0
    7.4367  -16.8247   27.4709 H   0  0  0  0  0  0
    8.1875  -15.8693   28.7938 H   0  0  0  0  0  0
    5.6027  -15.1365   27.3882 H   0  0  0  0  0  0
    5.4392  -17.2685   28.5882 H   0  0  0  0  0  0
    4.5233  -15.9547   29.4017 H   0  0  0  0  0  0
    6.1088  -16.4844   30.0591 H   0  0  0  0  0  0
    6.8672  -13.2696   28.3667 H   0  0  0  0  0  0
    6.9419  -14.1521   29.9295 H   0  0  0  0  0  0
    5.3564  -13.6223   29.2720 H   0  0  0  0  0  0
   10.4646  -14.1085   28.0514 H   0  0  0  0  0  0
   12.1703  -16.3535   28.0338 H   0  0  0  0  0  0
   12.3671  -15.7341   26.3592 H   0  0  0  0  0  0
   14.5999  -15.4000   26.7770 H   0  0  0  0  0  0
   15.0747  -13.2804   28.8260 H   0  0  0  0  0  0
   16.9376  -14.6811   26.8315 H   0  0  0  0  0  0
   17.5047  -13.4372   27.9967 H   0  0  0  0  0  0
   16.1817  -15.0103   29.7125 H   0  0  0  0  0  0
   16.5683  -16.2423   28.4638 H   0  0  0  0  0  0
   18.9129  -15.7331   28.6557 H   0  0  0  0  0  0
   18.5528  -14.4452   29.8550 H   0  0  0  0  0  0
   17.3296  -16.3019   31.1867 H   0  0  0  0  0  0
   18.2010  -17.4517   30.1166 H   0  0  0  0  0  0
   19.3570  -17.1117   32.2002 H   0  0  0  0  0  0
   19.4407  -15.3463   31.8792 H   0  0  0  0  0  0
   20.3122  -16.4961   30.8091 H   0  0  0  0  0  0
   16.0059  -11.2842   28.5810 H   0  0  0  0  0  0
   15.4609  -10.0839   25.8380 H   0  0  0  0  0  0
   14.6383   -9.0070   28.6082 H   0  0  0  0  0  0
   14.6506   -7.9666   27.1439 H   0  0  0  0  0  0
   12.9451   -9.3307   26.1150 H   0  0  0  0  0  0
   12.9809  -10.4731   27.5007 H   0  0  0  0  0  0
   12.3114   -7.5079   27.7246 H   0  0  0  0  0  0
   11.0976   -8.8242   27.5810 H   0  0  0  0  0  0
   12.3848   -9.7505   29.7835 H   0  0  0  0  0  0
   11.6137   -6.3839   28.7010 H   0  0  0  0  0  0
   12.1609   -9.0356   31.9155 H   0  0  0  0  0  0
   11.7622   -7.2037   32.2549 H   0  0  0  0  0  0
   17.1471   -9.0210   25.0078 H   0  0  0  0  0  0
   19.3674   -8.2766   26.8366 H   0  0  0  0  0  0
   18.7630   -7.6797   23.8876 H   0  0  0  0  0  0
   20.2854   -7.1862   24.7034 H   0  0  0  0  0  0
   19.3942  -10.0692   24.7132 H   0  0  0  0  0  0
   20.2337   -9.3552   23.2947 H   0  0  0  0  0  0
   22.1337   -8.7654   24.6594 H   0  0  0  0  0  0
   21.2861   -9.3233   26.1417 H   0  0  0  0  0  0
   21.1273  -11.5975   25.1333 H   0  0  0  0  0  0
   22.1047  -11.0100   23.7455 H   0  0  0  0  0  0
   23.4770  -12.1468   25.3932 H   0  0  0  0  0  0
   22.9241  -10.9936   26.6546 H   0  0  0  0  0  0
   23.9016  -10.4060   25.2668 H   0  0  0  0  0  0
   11.4627   -5.7526   30.4923 H   0  0  0  0  0  0
  1  2  1  0  0  0
  1 57  1  0  0  0
  1 58  1  0  0  0
  1 59  1  0  0  0
  2  3  1  0  0  0
  2  5  1  0  0  0
  2 60  1  0  0  0
  3  4  2  0  0  0
  3  8  1  0  0  0
  5  6  1  0  0  0
  5  7  1  0  0  0
  5 61  1  0  0  0
  6 62  1  0  0  0
  7 63  1  0  0  0
  7 64  1  0  0  0
  7 65  1  0  0  0
  8  9  1  0  0  0
  8 66  1  0  0  0
  9 10  1  0  0  0
  9 12  1  0  0  0
  9 67  1  0  0  0
 10 11  2  0  0  0
 10 15  1  0  0  0
 12 13  1  0  0  0
 12 14  1  0  0  0
 12 68  1  0  0  0
 13 69  1  0  0  0
 13 70  1  0  0  0
 13 71  1  0  0  0
 14 72  1  0  0  0
 14 73  1  0  0  0
 14 74  1  0  0  0
 15 16  1  0  0  0
 15 75  1  0  0  0
 16 17  1  0  0  0
 16 19  1  0  0  0
 16 76  1  0  0  0
 17 18  2  0  0  0
 17 23  1  0  0  0
 19 20  1  0  0  0
 19 77  1  0  0  0
 19 78  1  0  0  0
 20 21  1  0  0  0
 20 22  1  0  0  0
 20 79  1  0  0  0
 21 80  1  0  0  0
 21 81  1  0  0  0
 21 82  1  0  0  0
 22 83  1  0  0  0
 22 84  1  0  0  0
 22 85  1  0  0  0
 23 24  1  0  0  0
 23 86  1  0  0  0
 24 25  1  0  0  0
 24 87  1  0  0  0
 24 88  1  0  0  0
 25 26  2  0  0  0
 25 27  1  0  0  0
 27 28  1  0  0  0
 27 89  1  0  0  0
 28 29  1  0  0  0
 28 31  1  0  0  0
 28 90  1  0  0  0
 29 30  2  0  0  0
 29 36  1  0  0  0
 31 32  1  0  0  0
 31 91  1  0  0  0
 31 92  1  0  0  0
 32 33  1  0  0  0
 32 93  1  0  0  0
 32 94  1  0  0  0
 33 34  1  0  0  0
 33 95  1  0  0  0
 33 96  1  0  0  0
 34 35  1  0  0  0
 34 97  1  0  0  0
 34 98  1  0  0  0
 35 99  1  0  0  0
 35100  1  0  0  0
 35101  1  0  0  0
 36 37  1  0  0  0
 36102  1  0  0  0
 37 38  1  0  0  0
 37 40  1  0  0  0
 37103  1  0  0  0
 38 39  2  0  0  0
 38 47  1  0  0  0
 40 41  1  0  0  0
 40104  1  0  0  0
 40105  1  0  0  0
 41 42  1  0  0  0
 41106  1  0  0  0
 41107  1  0  0  0
 42 43  1  0  0  0
 42108  1  0  0  0
 42109  1  0  0  0
 43 44  1  0  0  0
 43110  1  0  0  0
 44 45  2  0  0  0
 44 46  1  0  0  0
 45111  1  0  0  0
 45127  1  0  0  0
 46112  1  0  0  0
 46113  1  0  0  0
 47 48  1  0  0  0
 47114  1  0  0  0
 48 49  1  0  0  0
 48 51  1  0  0  0
 48115  1  0  0  0
 49 50  2  0  0  0
 49 56  1  0  0  0
 51 52  1  0  0  0
 51116  1  0  0  0
 51117  1  0  0  0
 52 53  1  0  0  0
 52118  1  0  0  0
 52119  1  0  0  0
 53 54  1  0  0  0
 53120  1  0  0  0
 53121  1  0  0  0
 54 55  1  0  0  0
 54122  1  0  0  0
 54123  1  0  0  0
 55124  1  0  0  0
 55125  1  0  0  0
 55126  1  0  0  0
M  CHG  5   1   1  35   1  45   1  55   1  56  -1
M  END
> <s_m_source_file>
../4b8p_ligand.sdf

> <i_m_source_file_index>
1

> <s_epik_input>
W09IXVtDQEhdKFtDSDNdKVtDQEhdKFtOSDMrXSlDKD1PKVtOSF1bQ0BASF0oW0NIXShbQ0gzXSlbQ0gzXSlDKD1PKVtOSF1bQ0BASF0oW0NIMl1bQ0hdKFtDSDNdKVtDSDNdKUMoPU8pW05IXVtDSDJdQyg9TylbTkhdW0NAQEhdKFtDSDJdW0NIMl1bQ0gyXVtDSDJdW05IMytdKUMoPU8pW05IXVtDQEBIXShbQ0gyXVtDSDJdW0NIMl1bTkhdL0MoPU5cW0hdKVtOSDJdKUMoPU8pW05IXVtDQEhdKEMoPU8pW09IXSlbQ0gyXVtDSDJdW0NIMl1bQ0gyXVtOSDMrXQ==

> <s_epik_cmdline>
J2VwaWtfYXBwJywgJy1pbWFlJywgJ2xpZ2FuZF9wcm8ubWFlJywgJy1vbWFlJywgJ2xpZ2FuZF9wcmVwLm1hZScsICctbXMnLCAnMScsICctcGgnLCAnNycsICctcGh0JywgJzAuNScsICctbnQn

> <r_epik_Ionization_Penalty>
  0.0786

> <r_epik_Ionization_Penalty_Charging>
  0.0786

> <r_epik_Ionization_Penalty_Neutral>
  0.0000

> <r_epik_State_Penalty>
  0.0685

> <r_epik_Charging_Adjusted_Penalty>
0.147159134239495

> <i_epik_Tot_Q>
3

> <i_epik_Tot_abs_Q>
5

> <s_epik_Chemistry_Notes>
This compound has an imine and may undergo hydrolysis.

$$$$
