4b8y_ligand
                    3D
 Schrodinger Suite 2020-3.
 93 93  0  0  1  0            999 V2000
   -0.7250   14.6200    3.3000 N   0  0  0  0  0  0
   -0.6000   16.0650    3.3450 C   0  0  0  0  0  0
    0.6360   16.4580    2.5520 C   0  0  0  0  0  0
    1.4720   15.6020    2.2880 O   0  0  0  0  0  0
    1.1200   17.7510    2.2140 N   0  0  0  0  0  0
    2.3830   17.8640    1.4860 C   0  0  0  0  0  0
    3.6240   17.4920    2.2910 C   0  0  0  0  0  0
    3.6180   17.4930    3.5280 O   0  0  0  0  0  0
    4.3610   16.6050    1.5930 N   0  0  0  0  0  0
    5.6000   15.9440    1.9580 C   0  0  0  0  0  0
    5.3530   14.5090    2.3970 C   0  0  0  0  0  0
    6.2840   13.7170    2.5490 O   0  0  0  0  0  0
    2.5990   12.2210    1.8970 C   0  0  0  0  0  0
    3.7530   12.7840    2.6760 C   0  0  2  0  0  0
    3.6200   12.5690    4.1610 C   0  0  0  0  0  0
    2.6880   13.4710    4.9340 C   0  0  0  0  0  0
    2.6120   13.2240    6.4140 C   0  0  0  0  0  0
    2.7750   10.9190    7.4400 C   0  0  0  0  0  0
    4.0840   11.2090    8.1050 C   0  0  0  0  0  0
    3.8570   14.1790    2.3240 N   0  0  0  0  0  0
    2.0930   11.8980    6.6590 N   0  0  0  0  0  0
    2.2080   12.8070    0.8730 O   0  0  0  0  0  0
    0.9520   11.5800    6.1030 O   0  0  0  0  0  0
    2.2700    9.8200    7.5380 O   0  0  0  0  0  0
   -0.5630   11.5570    1.6140 C   0  0  0  0  0  0
    0.6410   10.6740    1.4180 C   0  0  2  0  0  0
    0.3120    9.2410    1.7570 C   0  0  0  0  0  0
    1.3750    8.1940    1.5630 C   0  0  0  0  0  0
    2.4870    8.0320    2.5580 C   0  0  0  0  0  0
    1.5830    7.1450    4.7640 C   0  0  0  0  0  0
    1.6360    5.7040    4.3240 C   0  0  0  0  0  0
    1.6980   11.1510    2.2940 N   0  0  0  0  0  0
    2.0200    8.2200    3.9120 N   0  0  0  0  0  0
   -1.3880   11.7210    0.7180 O   0  0  0  0  0  0
    1.9600    9.4440    4.3540 O   0  0  0  0  0  0
    1.1840    7.4060    5.9030 O   0  0  0  0  0  0
   -2.0830   14.1440    3.2260 C   0  0  0  0  0  0
   -2.1830   12.6470    3.1570 C   0  0  2  0  0  0
   -2.7350   12.1300    4.4530 C   0  0  0  0  0  0
   -3.2890   10.7450    4.3230 C   0  0  0  0  0  0
   -3.2710    9.9410    5.5690 C   0  0  0  0  0  0
   -1.6220    9.5120    7.3910 C   0  0  0  0  0  0
   -2.7160    9.6370    8.4020 C   0  0  0  0  0  0
   -0.8910   12.0300    2.9540 N   0  0  0  0  0  0
   -1.9380    9.6390    6.0130 N   0  0  0  0  0  0
   -3.0940   14.8300    3.3880 O   0  0  0  0  0  0
   -0.9790    9.5240    5.1440 O   0  0  0  0  0  0
   -0.4810    9.2460    7.7350 O   0  0  0  0  0  0
    0.1757   13.9890    3.3233 H   0  0  0  0  0  0
   -1.4960   16.5245    2.9021 H   0  0  0  0  0  0
   -0.4989   16.3919    4.3904 H   0  0  0  0  0  0
    0.5616   18.6575    2.4907 H   0  0  0  0  0  0
    2.3627   17.1978    0.6109 H   0  0  0  0  0  0
    2.5224   18.9030    1.1527 H   0  0  0  0  0  0
    3.8954   16.4010    0.6175 H   0  0  0  0  0  0
    6.2785   15.9329    1.0923 H   0  0  0  0  0  0
    6.0744   16.4870    2.7887 H   0  0  0  0  0  0
    4.6957   12.2923    2.3939 H   0  0  0  0  0  0
    3.2513   11.5505    4.3524 H   0  0  0  0  0  0
    4.6017   12.6996    4.6398 H   0  0  0  0  0  0
    3.0070   14.5169    4.8143 H   0  0  0  0  0  0
    1.6634   13.3541    4.5513 H   0  0  0  0  0  0
    3.6174   13.3093    6.8521 H   0  0  0  0  0  0
    1.9464   13.9678    6.8762 H   0  0  0  0  0  0
    4.3755   12.2501    7.9023 H   0  0  0  0  0  0
    4.8539   10.5293    7.7110 H   0  0  0  0  0  0
    3.9846   11.0607    9.1904 H   0  0  0  0  0  0
    2.9515   14.7532    2.0784 H   0  0  0  0  0  0
    0.4102   12.3209    5.4967 H   0  0  0  0  0  0
    0.9922   10.7279    0.3770 H   0  0  0  0  0  0
    0.0385    9.1692    2.8200 H   0  0  0  0  0  0
   -0.5316    8.9021    1.1377 H   0  0  0  0  0  0
    0.9082    7.1984    1.5349 H   0  0  0  0  0  0
    1.9027    8.3784    0.6156 H   0  0  0  0  0  0
    2.9098    7.0200    2.4738 H   0  0  0  0  0  0
    3.2719    8.7754    2.3549 H   0  0  0  0  0  0
    2.0114    5.6495    3.2915 H   0  0  0  0  0  0
    0.6267    5.2690    4.3706 H   0  0  0  0  0  0
    2.3085    5.1421    4.9889 H   0  0  0  0  0  0
    1.8335   10.7005    3.2883 H   0  0  0  0  0  0
    2.2902   10.2763    3.7150 H   0  0  0  0  0  0
   -2.8077   12.3770    2.2928 H   0  0  0  0  0  0
   -1.9361   12.1075    5.2088 H   0  0  0  0  0  0
   -3.5455   12.7901    4.7957 H   0  0  0  0  0  0
   -4.3388   10.7990    3.9991 H   0  0  0  0  0  0
   -2.7041   10.1844    3.5789 H   0  0  0  0  0  0
   -3.7762   10.4978    6.3720 H   0  0  0  0  0  0
   -3.7939    8.9884    5.3983 H   0  0  0  0  0  0
   -3.6603    9.8790    7.8924 H   0  0  0  0  0  0
   -2.4677   10.4381    9.1137 H   0  0  0  0  0  0
   -2.8250    8.6859    8.9438 H   0  0  0  0  0  0
   -0.1910   11.9296    3.7965 H   0  0  0  0  0  0
   -1.1960    9.6181    4.0697 H   0  0  0  0  0  0
  1  2  1  0  0  0
  1 37  1  0  0  0
  1 49  1  0  0  0
  2  3  1  0  0  0
  2 50  1  0  0  0
  2 51  1  0  0  0
  3  4  2  0  0  0
  3  5  1  0  0  0
  5  6  1  0  0  0
  5 52  1  0  0  0
  6  7  1  0  0  0
  6 53  1  0  0  0
  6 54  1  0  0  0
  7  8  2  0  0  0
  7  9  1  0  0  0
  9 10  1  0  0  0
  9 55  1  0  0  0
 10 11  1  0  0  0
 10 56  1  0  0  0
 10 57  1  0  0  0
 11 12  2  0  0  0
 11 20  1  0  0  0
 13 14  1  0  0  0
 13 22  2  0  0  0
 13 32  1  0  0  0
 14 15  1  0  0  0
 14 20  1  0  0  0
 14 58  1  0  0  0
 15 16  1  0  0  0
 15 59  1  0  0  0
 15 60  1  0  0  0
 16 17  1  0  0  0
 16 61  1  0  0  0
 16 62  1  0  0  0
 17 21  1  0  0  0
 17 63  1  0  0  0
 17 64  1  0  0  0
 18 19  1  0  0  0
 18 21  1  0  0  0
 18 24  2  0  0  0
 19 65  1  0  0  0
 19 66  1  0  0  0
 19 67  1  0  0  0
 20 68  1  0  0  0
 21 23  1  0  0  0
 23 69  1  0  0  0
 25 26  1  0  0  0
 25 34  2  0  0  0
 25 44  1  0  0  0
 26 27  1  0  0  0
 26 32  1  0  0  0
 26 70  1  0  0  0
 27 28  1  0  0  0
 27 71  1  0  0  0
 27 72  1  0  0  0
 28 29  1  0  0  0
 28 73  1  0  0  0
 28 74  1  0  0  0
 29 33  1  0  0  0
 29 75  1  0  0  0
 29 76  1  0  0  0
 30 31  1  0  0  0
 30 33  1  0  0  0
 30 36  2  0  0  0
 31 77  1  0  0  0
 31 78  1  0  0  0
 31 79  1  0  0  0
 32 80  1  0  0  0
 33 35  1  0  0  0
 35 81  1  0  0  0
 37 38  1  0  0  0
 37 46  2  0  0  0
 38 39  1  0  0  0
 38 44  1  0  0  0
 38 82  1  0  0  0
 39 40  1  0  0  0
 39 83  1  0  0  0
 39 84  1  0  0  0
 40 41  1  0  0  0
 40 85  1  0  0  0
 40 86  1  0  0  0
 41 45  1  0  0  0
 41 87  1  0  0  0
 41 88  1  0  0  0
 42 43  1  0  0  0
 42 45  1  0  0  0
 42 48  2  0  0  0
 43 89  1  0  0  0
 43 90  1  0  0  0
 43 91  1  0  0  0
 44 92  1  0  0  0
 45 47  1  0  0  0
 47 93  1  0  0  0
M  END
> <s_m_source_file>
../4b8y_ligand.sdf

> <i_m_source_file_index>
1

> <s_epik_input>
W0NIM11DKD1PKU4oW09IXSlbQ0gyXVtDSDJdW0NIMl1bQ0BASF0oQyg9TylbTkhdW0NIMl1DMT1PKVtOSF1DKD1PKVtDQEhdKFtDSDJdW0NIMl1bQ0gyXU4oW09IXSlDKD1PKVtDSDNdKVtOSF1DKD1PKVtDQEhdKFtDSDJdW0NIMl1bQ0gyXU4oW09IXSlDKD1PKVtDSDNdKVtOSF1DKD1PKVtDSDJdW05IXUMoPU8pW0NIMl1bTkhdMQ==

> <s_epik_cmdline>
J2VwaWtfYXBwJywgJy1pbWFlJywgJ2xpZ2FuZF9wcm8ubWFlJywgJy1vbWFlJywgJ2xpZ2FuZF9wcmVwLm1hZScsICctbXMnLCAnMScsICctcGgnLCAnNycsICctcGh0JywgJzAuNScsICctbnQn

> <r_lp_tautomer_probability>
1

> <r_epik_Ionization_Penalty>
  0.0113

> <r_epik_Ionization_Penalty_Charging>
  0.0000

> <r_epik_Ionization_Penalty_Neutral>
  0.0113

> <r_epik_State_Penalty>
 -0.0000

> <r_epik_Charging_Adjusted_Penalty>
0

> <i_epik_Tot_Q>
0

> <i_epik_Tot_abs_Q>
0

> <s_epik_Chemistry_Notes>
This compound has a N-S or N-O group and may undergo hydrolysis at high or low pH.

$$$$
