4b9h_ligand
                    3D
 Schrodinger Suite 2020-3.
111114  0  0  1  0            999 V2000
  -12.3170   23.3080   53.9020 C   0  0  1  0  0  0
  -13.4460   23.4820   54.9460 C   0  0  1  0  0  0
  -12.9100   23.3170   56.3830 C   0  0  2  0  0  0
  -12.1710   21.9990   56.4960 C   0  0  1  0  0  0
  -11.1360   21.8380   55.3900 C   0  0  1  0  0  0
  -10.5370   20.4270   55.4560 C   0  0  0  0  0  0
  -15.3790   24.9290   54.3740 C   0  0  0  0  0  0
  -15.9070   26.3550   54.2320 C   0  0  0  0  0  0
  -14.0920   24.7850   54.7790 N   0  0  0  0  0  0
  -11.3370   24.3320   54.1070 O   0  0  0  0  0  0
  -13.9130   23.3680   57.4070 O   0  0  0  0  0  0
  -11.4700   22.0280   57.7210 O   0  0  0  0  0  0
  -11.6690   22.0420   54.0780 O   0  0  0  0  0  0
   -9.2280   20.5630   54.9800 O   0  0  0  0  0  0
  -16.1010   23.9260   54.1020 O   0  0  0  0  0  0
  -11.9740   21.2290   58.7810 C   0  0  1  0  0  0
  -10.7830   20.9550   59.7150 C   0  0  1  0  0  0
  -11.2140   20.2760   61.0480 C   0  0  2  0  0  0
  -12.4530   20.9360   61.6110 C   0  0  1  0  0  0
  -13.5430   21.1540   60.5450 C   0  0  1  0  0  0
  -14.7400   21.9160   61.0960 C   0  0  0  0  0  0
   -8.4730   20.4750   58.9830 C   0  0  0  0  0  0
   -7.5920   19.4480   58.2860 C   0  0  0  0  0  0
   -9.7650   20.1380   59.0710 N   0  0  0  0  0  0
  -10.1520   20.1920   61.9790 O   0  0  0  0  0  0
  -12.9950   20.1250   62.6340 O   0  0  0  0  0  0
  -12.9970   21.9320   59.4780 O   0  0  0  0  0  0
  -14.2510   23.1700   61.5310 O   0  0  0  0  0  0
   -8.0290   21.5210   59.4480 O   0  0  0  0  0  0
  -13.0280   20.8540   63.8880 C   0  0  1  0  0  0
  -14.0600   20.2440   64.8540 C   0  0  1  0  0  0
  -14.0740   20.9920   66.1760 C   0  0  2  0  0  0
  -12.6450   21.1420   66.6690 C   0  0  1  0  0  0
  -11.6630   21.6560   65.6230 C   0  0  1  0  0  0
  -10.2030   21.5350   66.1160 C   0  0  0  0  0  0
  -15.8340   19.1420   63.5900 C   0  0  0  0  0  0
  -17.1880   19.1990   62.9740 C   0  0  0  0  0  0
  -15.3940   20.2390   64.2520 N   0  0  0  0  0  0
  -14.9280   20.3400   67.1410 O   0  0  0  0  0  0
  -12.5850   22.1730   67.5710 O   0  0  0  0  0  0
  -11.7370   20.8550   64.4450 O   0  0  0  0  0  0
   -9.8910   20.1700   66.4410 O   0  0  0  0  0  0
  -15.1560   18.0990   63.5180 O   0  0  0  0  0  0
  -12.6640   21.7980   68.9290 C   0  0  1  0  0  0
  -11.9370   22.8450   69.7840 C   0  0  1  0  0  0
  -12.2560   22.5490   71.2680 C   0  0  2  0  0  0
  -13.7610   22.4030   71.5270 C   0  0  1  0  0  0
  -14.3620   21.3670   70.5530 C   0  0  1  0  0  0
  -15.8870   21.1930   70.6690 C   0  0  0  0  0  0
   -9.8930   24.1810   69.0420 C   0  0  0  0  0  0
   -8.3910   24.2170   68.8580 C   0  0  0  0  0  0
  -10.4780   23.0290   69.5250 N   0  0  0  0  0  0
  -11.6800   23.5060   72.1450 O   0  0  0  0  0  0
  -13.9520   21.9850   72.8650 O   0  0  0  0  0  0
  -14.0630   21.7300   69.2090 O   0  0  0  0  0  0
  -16.3160   20.3130   69.6390 O   0  0  0  0  0  0
  -10.5140   25.2100   68.7340 O   0  0  0  0  0  0
  -12.6802   23.3575   52.8649 H   0  0  0  0  0  0
  -14.2349   22.7357   54.7710 H   0  0  0  0  0  0
  -12.2789   24.1863   56.6197 H   0  0  0  0  0  0
  -12.8788   21.1570   56.4917 H   0  0  0  0  0  0
  -10.3920   22.6411   55.4975 H   0  0  0  0  0  0
  -10.5544   20.0696   56.4962 H   0  0  0  0  0  0
  -11.1287   19.7476   54.8249 H   0  0  0  0  0  0
  -15.1197   27.0677   54.5186 H   0  0  0  0  0  0
  -16.7799   26.4897   54.8876 H   0  0  0  0  0  0
  -16.2017   26.5346   53.1875 H   0  0  0  0  0  0
  -13.5300   25.7079   54.9849 H   0  0  0  0  0  0
  -11.6214   25.3910   54.0193 H   0  0  0  0  0  0
  -14.5638   24.2504   57.4960 H   0  0  0  0  0  0
   -8.5694   19.6838   54.9230 H   0  0  0  0  0  0
  -12.4629   20.3355   58.3655 H   0  0  0  0  0  0
  -10.3033   21.9256   59.9096 H   0  0  0  0  0  0
  -11.4305   19.2063   60.9108 H   0  0  0  0  0  0
  -12.1541   21.8890   62.0719 H   0  0  0  0  0  0
  -13.8654   20.1830   60.1410 H   0  0  0  0  0  0
  -15.4920   22.0405   60.3029 H   0  0  0  0  0  0
  -15.1794   21.3532   61.9328 H   0  0  0  0  0  0
   -8.2091   18.5994   57.9557 H   0  0  0  0  0  0
   -6.8216   19.0909   58.9853 H   0  0  0  0  0  0
   -7.1086   19.9115   57.4134 H   0  0  0  0  0  0
  -10.0394   19.1747   58.6163 H   0  0  0  0  0  0
   -9.1976   19.7311   61.6846 H   0  0  0  0  0  0
  -14.9392   23.9054   61.9732 H   0  0  0  0  0  0
  -13.2581   21.9086   63.6760 H   0  0  0  0  0  0
  -13.8137   19.1892   65.0458 H   0  0  0  0  0  0
  -14.5406   21.9823   66.0683 H   0  0  0  0  0  0
  -12.3758   20.1718   67.1120 H   0  0  0  0  0  0
  -11.9525   22.6852   65.3643 H   0  0  0  0  0  0
   -9.5195   21.8786   65.3256 H   0  0  0  0  0  0
  -10.0666   22.1555   67.0140 H   0  0  0  0  0  0
  -17.6254   20.1943   63.1414 H   0  0  0  0  0  0
  -17.8318   18.4338   63.4322 H   0  0  0  0  0  0
  -17.1073   19.0110   61.8932 H   0  0  0  0  0  0
  -16.0391   21.1259   64.3371 H   0  0  0  0  0  0
  -15.9895   20.1687   66.9089 H   0  0  0  0  0  0
   -8.8881   19.9077   66.8090 H   0  0  0  0  0  0
  -12.2276   20.8017   69.0931 H   0  0  0  0  0  0
  -12.2906   23.8373   69.4672 H   0  0  0  0  0  0
  -11.7442   21.6201   71.5600 H   0  0  0  0  0  0
  -14.2862   23.3664   71.4497 H   0  0  0  0  0  0
  -13.8704   20.4035   70.7528 H   0  0  0  0  0  0
  -16.1338   20.7695   71.6537 H   0  0  0  0  0  0
  -16.3772   22.1714   70.5574 H   0  0  0  0  0  0
   -7.9609   23.2520   69.1642 H   0  0  0  0  0  0
   -7.9650   25.0210   69.4762 H   0  0  0  0  0  0
   -8.1556   24.4042   67.7999 H   0  0  0  0  0  0
   -9.7763   22.2049   69.7213 H   0  0  0  0  0  0
  -10.6041   23.7278   72.0870 H   0  0  0  0  0  0
  -13.5836   22.6076   73.6936 H   0  0  0  0  0  0
  -17.3810   20.0544   69.5447 H   0  0  0  0  0  0
  1  2  1  0  0  0
  1 10  1  0  0  0
  1 13  1  0  0  0
  1 58  1  0  0  0
  2  3  1  0  0  0
  2  9  1  0  0  0
  2 59  1  0  0  0
  3  4  1  0  0  0
  3 11  1  0  0  0
  3 60  1  0  0  0
  4  5  1  0  0  0
  4 12  1  0  0  0
  4 61  1  0  0  0
  5  6  1  0  0  0
  5 13  1  0  0  0
  5 62  1  0  0  0
  6 14  1  0  0  0
  6 63  1  0  0  0
  6 64  1  0  0  0
  7  8  1  0  0  0
  7  9  1  0  0  0
  7 15  2  0  0  0
  8 65  1  0  0  0
  8 66  1  0  0  0
  8 67  1  0  0  0
  9 68  1  0  0  0
 10 69  1  0  0  0
 11 70  1  0  0  0
 12 16  1  0  0  0
 14 71  1  0  0  0
 16 17  1  0  0  0
 16 27  1  0  0  0
 16 72  1  0  0  0
 17 18  1  0  0  0
 17 24  1  0  0  0
 17 73  1  0  0  0
 18 19  1  0  0  0
 18 25  1  0  0  0
 18 74  1  0  0  0
 19 20  1  0  0  0
 19 26  1  0  0  0
 19 75  1  0  0  0
 20 21  1  0  0  0
 20 27  1  0  0  0
 20 76  1  0  0  0
 21 28  1  0  0  0
 21 77  1  0  0  0
 21 78  1  0  0  0
 22 23  1  0  0  0
 22 24  1  0  0  0
 22 29  2  0  0  0
 23 79  1  0  0  0
 23 80  1  0  0  0
 23 81  1  0  0  0
 24 82  1  0  0  0
 25 83  1  0  0  0
 26 30  1  0  0  0
 28 84  1  0  0  0
 30 31  1  0  0  0
 30 41  1  0  0  0
 30 85  1  0  0  0
 31 32  1  0  0  0
 31 38  1  0  0  0
 31 86  1  0  0  0
 32 33  1  0  0  0
 32 39  1  0  0  0
 32 87  1  0  0  0
 33 34  1  0  0  0
 33 40  1  0  0  0
 33 88  1  0  0  0
 34 35  1  0  0  0
 34 41  1  0  0  0
 34 89  1  0  0  0
 35 42  1  0  0  0
 35 90  1  0  0  0
 35 91  1  0  0  0
 36 37  1  0  0  0
 36 38  1  0  0  0
 36 43  2  0  0  0
 37 92  1  0  0  0
 37 93  1  0  0  0
 37 94  1  0  0  0
 38 95  1  0  0  0
 39 96  1  0  0  0
 40 44  1  0  0  0
 42 97  1  0  0  0
 44 45  1  0  0  0
 44 55  1  0  0  0
 44 98  1  0  0  0
 45 46  1  0  0  0
 45 52  1  0  0  0
 45 99  1  0  0  0
 46 47  1  0  0  0
 46 53  1  0  0  0
 46100  1  0  0  0
 47 48  1  0  0  0
 47 54  1  0  0  0
 47101  1  0  0  0
 48 49  1  0  0  0
 48 55  1  0  0  0
 48102  1  0  0  0
 49 56  1  0  0  0
 49103  1  0  0  0
 49104  1  0  0  0
 50 51  1  0  0  0
 50 52  1  0  0  0
 50 57  2  0  0  0
 51105  1  0  0  0
 51106  1  0  0  0
 51107  1  0  0  0
 52108  1  0  0  0
 53109  1  0  0  0
 54110  1  0  0  0
 56111  1  0  0  0
M  END
> <s_m_source_file>
../4b9h_ligand.sdf

> <i_m_source_file_index>
1

> <s_epik_input>
W0NIM11DKD1PKVtOSF1bQ0BASF0oW0NASF0xW09IXSlbQ0BASF0oW09IXSlbQ0BASF0oW0NASF0oTzEpW0NIMl1bT0hdKU9bQ0BIXTJbQ0BIXShbTkhdQyg9TylbQ0gzXSlbQ0BASF0oW09IXSlbQ0BASF0oW0NASF0oTzIpW0NIMl1bT0hdKU9bQ0BIXTNbQ0BIXShbTkhdQyg9TylbQ0gzXSlbQ0BASF0oW09IXSlbQ0BASF0oW0NASF0oTzMpW0NIMl1bT0hdKU9bQ0BIXTRbQ0BIXShbTkhdQyg9TylbQ0gzXSlbQ0BASF0oW09IXSlbQ0BIXShbT0hdKVtDQEhdKE80KVtDSDJdW09IXQ==

> <s_epik_cmdline>
J2VwaWtfYXBwJywgJy1pbWFlJywgJ2xpZ2FuZF9wcm8ubWFlJywgJy1vbWFlJywgJ2xpZ2FuZF9wcmVwLm1hZScsICctbXMnLCAnMScsICctcGgnLCAnNycsICctcGh0JywgJzAuNScsICctbnQn

> <r_lp_tautomer_probability>
1

> <r_epik_Ionization_Penalty>
  0.0000

> <r_epik_Ionization_Penalty_Charging>
  0.0000

> <r_epik_Ionization_Penalty_Neutral>
  0.0000

> <r_epik_State_Penalty>
 -0.0000

> <r_epik_Charging_Adjusted_Penalty>
0

> <i_epik_Tot_Q>
0

> <i_epik_Tot_abs_Q>
0

> <s_epik_Chemistry_Notes>
This compound contains an acetal/aminal-like group ( X-CH(R)-Y where X, Y are N, S, or O) that may be acid/base labile, releasing an aldehyde.

$$$$
