4b9w_ligand
                    3D
 Schrodinger Suite 2020-3.
138138  0  0  1  0            999 V2000
   32.6690   21.8530   43.5440 N   0  3  0  0  0  0
   33.9450   22.2290   42.8360 C   0  0  2  0  0  0
   33.6790   22.7030   41.3870 C   0  0  0  0  0  0
   34.3110   23.6490   40.9050 O   0  0  0  0  0  0
   34.9340   21.0640   42.8670 C   0  0  0  0  0  0
   32.7560   22.0180   40.7040 N   0  0  0  0  0  0
   32.1090   22.5140   39.4790 C   0  0  0  0  0  0
   30.8020   23.1690   39.9080 C   0  0  0  0  0  0
   30.8270   24.1800   40.6090 O   0  0  0  0  0  0
   29.6560   22.5990   39.5160 N   0  0  0  0  0  0
   28.3500   23.0790   40.0290 C   0  0  1  0  0  0
   27.2460   23.0680   38.9680 C   0  0  0  0  0  0
   27.3310   24.3700   38.1700 C   0  0  0  0  0  0
   26.5940   24.3110   36.8460 C   0  0  0  0  0  0
   26.9580   25.4450   35.9990 N   0  0  2  0  0  0
   27.5750   25.3530   34.8210 C   0  0  1  0  0  0
   27.8570   26.4840   34.1440 N   0  3  2  0  0  0
   27.5140   27.8240   34.6090 C   0  0  0  0  0  0
   27.9200   24.2140   34.3380 N   0  0  2  0  0  0
   28.6110   23.9020   33.0730 C   0  0  0  0  0  0
   27.9720   22.1800   41.1590 C   0  0  0  0  0  0
   27.1730   21.2700   40.9910 O   0  0  0  0  0  0
   28.5640   22.4220   42.3180 N   0  0  0  0  0  0
   28.3610   21.5580   43.4700 C   0  0  0  0  0  0
   27.1330   21.9970   44.2240 C   0  0  0  0  0  0
   26.7730   23.1700   44.2210 O   0  0  0  0  0  0
   26.5040   21.0570   44.9050 N   0  0  0  0  0  0
   25.3400   21.3650   45.7190 C   0  0  2  0  0  0
   25.7320   22.4280   46.7660 C   0  0  0  0  0  0
   26.8330   22.3980   47.3170 O   0  0  0  0  0  0
   24.8270   20.0800   46.3440 C   0  0  0  0  0  0
   23.6950   20.0400   47.3690 C   0  0  0  0  0  0
   23.1120   18.6310   47.4560 C   0  0  0  0  0  0
   24.1970   20.4940   48.7220 C   0  0  0  0  0  0
   24.8510   23.3990   46.9830 N   0  0  0  0  0  0
   25.0210   24.4020   48.0320 C   0  0  2  0  0  0
   23.8290   24.2770   48.9660 C   0  0  0  0  0  0
   22.7010   24.4570   48.5500 O   0  0  0  0  0  0
   25.0830   25.8340   47.4340 C   0  0  0  0  0  0
   24.9080   26.8850   48.5210 C   0  0  0  0  0  0
   26.3750   26.0490   46.6350 C   0  0  0  0  0  0
   24.0600   23.9650   50.2280 N   0  0  0  0  0  0
   22.9540   23.8700   51.1750 C   0  0  2  0  0  0
   22.3320   25.2560   51.4310 C   0  0  0  0  0  0
   23.0360   26.2130   51.8100 O   0  0  0  0  0  0
   23.4030   23.2210   52.4890 C   0  0  0  0  0  0
   23.8430   21.7860   52.3380 C   0  0  0  0  0  0
   22.9100   20.7630   52.2730 C   0  0  0  0  0  0
   25.1870   21.4590   52.2770 C   0  0  0  0  0  0
   23.3080   19.4460   52.1230 C   0  0  0  0  0  0
   25.5910   20.1450   52.1390 C   0  0  0  0  0  0
   24.6430   19.1340   52.0660 C   0  0  0  0  0  0
   21.0220   25.3410   51.1930 N   0  0  0  0  0  0
   20.2110   26.5260   51.5000 C   0  0  2  0  0  0
   18.9370   26.1340   52.2340 C   0  0  0  0  0  0
   18.2180   27.0180   52.6960 O   0  0  0  0  0  0
   19.7770   27.2190   50.2110 C   0  0  0  0  0  0
   20.5060   28.4900   49.8840 C   0  0  0  0  0  0
   19.9760   29.0570   48.5800 C   0  0  0  0  0  0
   21.0040   29.8560   47.9600 N   0  0  0  0  0  0
   20.9900   30.2960   46.7080 C   0  0  0  0  0  0
   19.9750   30.0360   45.8820 N   0  0  0  0  0  0
   22.0250   31.0030   46.2920 N   0  3  0  0  0  0
   18.5720   24.9410   52.3420 O   0  5  0  0  0  0
   31.9689   22.7009   43.5128 H   0  0  0  0  0  0
   32.8916   21.5996   44.5910 H   0  0  0  0  0  0
   32.2151   20.9841   43.0449 H   0  0  0  0  0  0
   34.3808   23.0698   43.3955 H   0  0  0  0  0  0
   35.1006   20.7521   43.9086 H   0  0  0  0  0  0
   35.8886   21.3815   42.4221 H   0  0  0  0  0  0
   34.5245   20.2200   42.2926 H   0  0  0  0  0  0
   32.4868   21.0305   41.1070 H   0  0  0  0  0  0
   32.7684   23.2432   38.9855 H   0  0  0  0  0  0
   31.9191   21.6715   38.7977 H   0  0  0  0  0  0
   29.6929   21.7627   38.8024 H   0  0  0  0  0  0
   28.4817   24.1193   40.3613 H   0  0  0  0  0  0
   27.3889   22.2065   38.2991 H   0  0  0  0  0  0
   26.2652   22.9914   39.4601 H   0  0  0  0  0  0
   26.8915   25.1895   38.7576 H   0  0  0  0  0  0
   28.3848   24.5988   37.9527 H   0  0  0  0  0  0
   26.8545   23.3792   36.3226 H   0  0  0  0  0  0
   25.5096   24.3382   37.0284 H   0  0  0  0  0  0
   26.0508   26.0024   35.7227 H   0  0  0  0  0  0
   26.6001   25.2932   34.3150 H   0  0  0  0  0  0
   28.9452   26.5671   34.0061 H   0  0  0  0  0  0
   27.8553   28.5663   33.8724 H   0  0  0  0  0  0
   28.0047   28.0137   35.5750 H   0  0  0  0  0  0
   26.4235   27.9021   34.7301 H   0  0  0  0  0  0
   28.6112   23.7151   35.0332 H   0  0  0  0  0  0
   28.7433   22.8134   32.9863 H   0  0  0  0  0  0
   29.5953   24.3930   33.0621 H   0  0  0  0  0  0
   28.0098   24.2669   32.2272 H   0  0  0  0  0  0
   29.2219   23.2999   42.3981 H   0  0  0  0  0  0
   28.2290   20.5199   43.1310 H   0  0  0  0  0  0
   29.2368   21.6187   44.1327 H   0  0  0  0  0  0
   26.8772   20.0238   44.8476 H   0  0  0  0  0  0
   24.5492   21.7668   45.0685 H   0  0  0  0  0  0
   24.4492   19.4137   45.5545 H   0  0  0  0  0  0
   25.6463   19.5819   46.8832 H   0  0  0  0  0  0
   22.8999   20.7322   47.0550 H   0  0  0  0  0  0
   22.7534   18.3206   46.4635 H   0  0  0  0  0  0
   22.2731   18.6246   48.1675 H   0  0  0  0  0  0
   23.8896   17.9330   47.7997 H   0  0  0  0  0  0
   24.6120   21.5092   48.6373 H   0  0  0  0  0  0
   24.9802   19.8057   49.0723 H   0  0  0  0  0  0
   23.3637   20.4972   49.4401 H   0  0  0  0  0  0
   23.9644   23.4282   46.3326 H   0  0  0  0  0  0
   25.9658   24.1811   48.5502 H   0  0  0  0  0  0
   24.2467   25.9656   46.7317 H   0  0  0  0  0  0
   23.9728   26.6946   49.0679 H   0  0  0  0  0  0
   24.8676   27.8839   48.0621 H   0  0  0  0  0  0
   25.7572   26.8360   49.2185 H   0  0  0  0  0  0
   26.4622   25.2707   45.8626 H   0  0  0  0  0  0
   27.2393   25.9913   47.3130 H   0  0  0  0  0  0
   26.3497   27.0392   46.1566 H   0  0  0  0  0  0
   25.0901   23.7764   50.5647 H   0  0  0  0  0  0
   22.2192   23.2148   50.6844 H   0  0  0  0  0  0
   24.2536   23.7822   52.9032 H   0  0  0  0  0  0
   22.5703   23.2340   53.2077 H   0  0  0  0  0  0
   21.8480   20.9991   52.3410 H   0  0  0  0  0  0
   25.9360   22.2484   52.3386 H   0  0  0  0  0  0
   22.5605   18.6561   52.0501 H   0  0  0  0  0  0
   26.6525   19.9028   52.0875 H   0  0  0  0  0  0
   24.9579   18.0955   51.9637 H   0  0  0  0  0  0
   20.5524   24.4554   50.7401 H   0  0  0  0  0  0
   20.8575   27.1632   52.1213 H   0  0  0  0  0  0
   19.9365   26.5417   49.3590 H   0  0  0  0  0  0
   18.7107   27.4809   50.2766 H   0  0  0  0  0  0
   20.3497   29.2205   50.6915 H   0  0  0  0  0  0
   21.5810   28.2803   49.7822 H   0  0  0  0  0  0
   19.6938   28.2320   47.9093 H   0  0  0  0  0  0
   19.0940   29.6821   48.7835 H   0  0  0  0  0  0
   21.8942   30.1500   48.5355 H   0  0  0  0  0  0
   19.1159   29.4465   46.2348 H   0  0  0  0  0  0
   19.9973   30.4111   44.8482 H   0  0  0  0  0  0
   22.8586   31.2138   46.9781 H   0  0  0  0  0  0
   27.3640   26.4556   33.1611 H   0  0  0  0  0  0
   22.0535   31.3811   45.2594 H   0  0  0  0  0  0
  1  2  1  0  0  0
  1 65  1  0  0  0
  1 66  1  0  0  0
  1 67  1  0  0  0
  2  3  1  0  0  0
  2  5  1  0  0  0
  2 68  1  0  0  0
  3  4  2  0  0  0
  3  6  1  0  0  0
  5 69  1  0  0  0
  5 70  1  0  0  0
  5 71  1  0  0  0
  6  7  1  0  0  0
  6 72  1  0  0  0
  7  8  1  0  0  0
  7 73  1  0  0  0
  7 74  1  0  0  0
  8  9  2  0  0  0
  8 10  1  0  0  0
 10 11  1  0  0  0
 10 75  1  0  0  0
 11 12  1  0  0  0
 11 21  1  0  0  0
 11 76  1  0  0  0
 12 13  1  0  0  0
 12 77  1  0  0  0
 12 78  1  0  0  0
 13 14  1  0  0  0
 13 79  1  0  0  0
 13 80  1  0  0  0
 14 15  1  0  0  0
 14 81  1  0  0  0
 14 82  1  0  0  0
 15 16  1  0  0  0
 15 83  1  0  0  0
 16 17  1  0  0  0
 16 19  1  0  0  0
 16 84  1  0  0  0
 17 18  1  0  0  0
 17 85  1  0  0  0
 17137  1  0  0  0
 18 86  1  0  0  0
 18 87  1  0  0  0
 18 88  1  0  0  0
 19 20  1  0  0  0
 19 89  1  0  0  0
 20 90  1  0  0  0
 20 91  1  0  0  0
 20 92  1  0  0  0
 21 22  2  0  0  0
 21 23  1  0  0  0
 23 24  1  0  0  0
 23 93  1  0  0  0
 24 25  1  0  0  0
 24 94  1  0  0  0
 24 95  1  0  0  0
 25 26  2  0  0  0
 25 27  1  0  0  0
 27 28  1  0  0  0
 27 96  1  0  0  0
 28 29  1  0  0  0
 28 31  1  0  0  0
 28 97  1  0  0  0
 29 30  2  0  0  0
 29 35  1  0  0  0
 31 32  1  0  0  0
 31 98  1  0  0  0
 31 99  1  0  0  0
 32 33  1  0  0  0
 32 34  1  0  0  0
 32100  1  0  0  0
 33101  1  0  0  0
 33102  1  0  0  0
 33103  1  0  0  0
 34104  1  0  0  0
 34105  1  0  0  0
 34106  1  0  0  0
 35 36  1  0  0  0
 35107  1  0  0  0
 36 37  1  0  0  0
 36 39  1  0  0  0
 36108  1  0  0  0
 37 38  2  0  0  0
 37 42  1  0  0  0
 39 40  1  0  0  0
 39 41  1  0  0  0
 39109  1  0  0  0
 40110  1  0  0  0
 40111  1  0  0  0
 40112  1  0  0  0
 41113  1  0  0  0
 41114  1  0  0  0
 41115  1  0  0  0
 42 43  1  0  0  0
 42116  1  0  0  0
 43 44  1  0  0  0
 43 46  1  0  0  0
 43117  1  0  0  0
 44 45  2  0  0  0
 44 53  1  0  0  0
 46 47  1  0  0  0
 46118  1  0  0  0
 46119  1  0  0  0
 47 48  2  0  0  0
 47 49  1  0  0  0
 48 50  1  0  0  0
 48120  1  0  0  0
 49 51  2  0  0  0
 49121  1  0  0  0
 50 52  2  0  0  0
 50122  1  0  0  0
 51 52  1  0  0  0
 51123  1  0  0  0
 52124  1  0  0  0
 53 54  1  0  0  0
 53125  1  0  0  0
 54 55  1  0  0  0
 54 57  1  0  0  0
 54126  1  0  0  0
 55 56  2  0  0  0
 55 64  1  0  0  0
 57 58  1  0  0  0
 57127  1  0  0  0
 57128  1  0  0  0
 58 59  1  0  0  0
 58129  1  0  0  0
 58130  1  0  0  0
 59 60  1  0  0  0
 59131  1  0  0  0
 59132  1  0  0  0
 60 61  1  0  0  0
 60133  1  0  0  0
 61 62  1  0  0  0
 61 63  2  0  0  0
 62134  1  0  0  0
 62135  1  0  0  0
 63136  1  0  0  0
 63138  1  0  0  0
M  CHG  4   1   1  17   1  63   1  64  -1
M  END
> <s_m_source_file>
../4b9w_ligand.sdf

> <i_m_source_file_index>
1

> <s_epik_input>
W05IMytdW0NAQEhdKFtDSDNdKUMoPU8pW05IXVtDSDJdQyg9TylbTkhdW0NAQEhdKFtDSDJdW0NIMl1bQ0gyXVtOSF1bQ0hdKFtOSF1bQ0gzXSlbTkhdW0NIM10pQyg9TylbTkhdW0NIMl1DKD1PKVtOSF1bQ0BASF0oW0NIMl1bQ0hdKFtDSDNdKVtDSDNdKUMoPU8pW05IXVtDQEBIXShbQ0hdKFtDSDNdKVtDSDNdKUMoPU8pW05IXVtDQEBIXShbQ0gyXWMxW2NIXVtjSF1bY0hdW2NIXVtjSF0xKUMoPU8pW05IXVtDQEhdKEMoPU8pW09IXSlbQ0gyXVtDSDJdW0NIMl1bTkhdL0MoW05IMl0pPU5cW0hd

> <s_epik_cmdline>
J2VwaWtfYXBwJywgJy1pbWFlJywgJ2xpZ2FuZF9wcm8ubWFlJywgJy1vbWFlJywgJ2xpZ2FuZF9wcmVwLm1hZScsICctbXMnLCAnMScsICctcGgnLCAnNycsICctcGh0JywgJzAuNScsICctbnQn

> <r_lp_tautomer_probability>
1

> <r_epik_Ionization_Penalty>
  0.1241

> <r_epik_Ionization_Penalty_Charging>
  0.1241

> <r_epik_Ionization_Penalty_Neutral>
  0.0000

> <r_epik_State_Penalty>
 -0.0000

> <r_epik_Charging_Adjusted_Penalty>
0.124069147956015

> <i_epik_Tot_Q>
2

> <i_epik_Tot_abs_Q>
4

> <s_epik_Chemistry_Notes>
This compound has an imine and may undergo hydrolysis. This compound contains an acetal/aminal-like group ( X-CH(R)-Y where X, Y are N, S, or O) that may be acid/base labile, releasing an aldehyde.

$$$$
