4ba3_ligand
                    3D
 Schrodinger Suite 2020-3.
118118  0  0  1  0            999 V2000
    2.0970   12.1970    5.7940 N   0  3  0  0  0  0
    1.9300   12.2890    4.3430 C   0  0  2  0  0  0
    0.8160   11.3200    3.8870 C   0  0  0  0  0  0
    0.9790   10.5360    2.9450 O   0  0  0  0  0  0
    3.2660   12.0420    3.5980 C   0  0  0  0  0  0
    4.4070   13.0600    3.8440 C   0  0  0  0  0  0
    5.7460   12.5070    3.3730 C   0  0  0  0  0  0
    4.1210   14.4180    3.1870 C   0  0  0  0  0  0
   -0.3170   11.4280    4.5750 N   0  0  0  0  0  0
   -1.5270   10.6560    4.3360 C   0  0  0  0  0  0
   -1.7780    9.6970    5.4750 C   0  0  0  0  0  0
   -2.3680   10.0630    6.4970 O   0  0  0  0  0  0
   -1.3070    8.4640    5.2930 N   0  0  0  0  0  0
   -1.4490    7.3490    6.2250 C   0  0  2  0  0  0
   -0.1050    6.6590    6.4170 C   0  0  0  0  0  0
    0.7420    6.6830    5.5160 O   0  0  0  0  0  0
   -2.4950    6.3370    5.7170 C   0  0  0  0  0  0
   -3.9160    6.8800    5.6400 C   0  0  0  0  0  0
   -4.8200    5.9090    4.9020 C   0  0  0  0  0  0
   -6.1810    6.5120    4.6640 C   0  0  0  0  0  0
   -7.0630    5.6360    3.8470 N   0  3  0  0  0  0
    0.1010    6.0700    7.6010 N   0  0  0  0  0  0
    1.3380    5.3620    7.9440 C   0  0  2  0  0  0
    1.0300    4.1310    8.7740 C   0  0  0  0  0  0
    0.2440    4.1950    9.7290 O   0  0  0  0  0  0
    2.3440    6.2620    8.7250 C   0  0  0  0  0  0
    2.4440    7.7430    8.3160 C   0  0  0  0  0  0
    3.4460    8.0010    7.2060 C   0  0  0  0  0  0
    3.6400    9.4350    6.9650 N   0  0  0  0  0  0
    4.5060   10.2030    7.6250 C   0  0  0  0  0  0
    5.2640    9.6890    8.5880 N   0  0  0  0  0  0
    4.6160   11.4930    7.3320 N   0  3  0  0  0  0
    1.6550    3.0100    8.4140 N   0  0  0  0  0  0
    1.5470    1.7690    9.1780 C   0  0  2  0  0  0
    2.6980    1.7530   10.2120 C   0  0  0  0  0  0
    3.7160    2.4160    9.9940 O   0  0  0  0  0  0
    1.5490    0.5280    8.2560 C   0  0  0  0  0  0
    2.8370    0.2840    7.4550 C   0  0  0  0  0  0
    2.7380   -0.9410    6.5220 C   0  0  0  0  0  0
    2.8160   -2.2800    7.2340 C   0  0  0  0  0  0
    3.0770   -3.3970    6.2870 N   0  3  0  0  0  0
    2.5120    1.0430   11.3430 N   0  0  0  0  0  0
    3.4930    0.9030   12.4240 C   0  0  2  0  0  0
    4.2420   -0.4290   12.2770 C   0  0  0  0  0  0
    3.6263   -1.4730   11.9328 O   0  0  0  0  0  0
    2.7650    1.0090   13.7850 C   0  0  0  0  0  0
    3.5760    0.9090   15.0690 C   0  0  0  0  0  0
    4.9640    1.0330   15.0600 C   0  0  0  0  0  0
    2.9490    0.7410   16.2980 C   0  0  0  0  0  0
    5.7070    0.9350   16.2400 C   0  0  0  0  0  0
    3.6790    0.6420   17.4810 C   0  0  0  0  0  0
    5.0560    0.7500   17.4510 C   0  0  0  0  0  0
    5.7560    0.6590   18.6300 O   0  0  0  0  0  0
    5.4807   -0.4786   12.5021 O   0  5  0  0  0  0
    1.1301   12.3776    6.2865 H   0  0  0  0  0  0
    2.8251   12.9510    6.1278 H   0  0  0  0  0  0
    2.4613   11.1933    6.0582 H   0  0  0  0  0  0
    1.6216   13.3261    4.1448 H   0  0  0  0  0  0
    3.6743   11.0638    3.8919 H   0  0  0  0  0  0
    3.0882   12.0540    2.5125 H   0  0  0  0  0  0
    4.4765   13.2282    4.9288 H   0  0  0  0  0  0
    5.9313   11.5356    3.8546 H   0  0  0  0  0  0
    6.5483   13.2093    3.6434 H   0  0  0  0  0  0
    5.7252   12.3768    2.2809 H   0  0  0  0  0  0
    3.1513   14.7991    3.5399 H   0  0  0  0  0  0
    4.0919   14.2976    2.0940 H   0  0  0  0  0  0
    4.9149   15.1301    3.4564 H   0  0  0  0  0  0
   -0.2916   12.1750    5.3820 H   0  0  0  0  0  0
   -2.3856   11.3379    4.2481 H   0  0  0  0  0  0
   -1.4177   10.0821    3.4040 H   0  0  0  0  0  0
   -0.7714    8.3218    4.3428 H   0  0  0  0  0  0
   -1.7833    7.7950    7.1733 H   0  0  0  0  0  0
   -2.2239    6.0072    4.7032 H   0  0  0  0  0  0
   -2.5215    5.4677    6.3905 H   0  0  0  0  0  0
   -4.3075    7.0283    6.6572 H   0  0  0  0  0  0
   -3.9128    7.8409    5.1047 H   0  0  0  0  0  0
   -4.3712    5.6567    3.9299 H   0  0  0  0  0  0
   -4.9397    4.9931    5.4993 H   0  0  0  0  0  0
   -6.6793    6.6850    5.6293 H   0  0  0  0  0  0
   -6.0704    7.4684    4.1319 H   0  0  0  0  0  0
   -8.0379    6.1258    3.7068 H   0  0  0  0  0  0
   -7.2061    4.6755    4.3637 H   0  0  0  0  0  0
   -6.5972    5.4590    2.8664 H   0  0  0  0  0  0
   -0.7162    6.1364    8.3344 H   0  0  0  0  0  0
    1.7531    5.0717    6.9676 H   0  0  0  0  0  0
    2.0739    6.2740    9.7912 H   0  0  0  0  0  0
    3.3616    5.8606    8.6091 H   0  0  0  0  0  0
    1.4633    8.0922    7.9605 H   0  0  0  0  0  0
    2.7543    8.3430    9.1842 H   0  0  0  0  0  0
    4.4174    7.5638    7.4801 H   0  0  0  0  0  0
    3.0868    7.5410    6.2736 H   0  0  0  0  0  0
    3.0474    9.9481    6.1933 H   0  0  0  0  0  0
    5.1830    8.6216    8.8410 H   0  0  0  0  0  0
    5.9724   10.3310    9.1321 H   0  0  0  0  0  0
    3.9947   11.9314    6.5372 H   0  0  0  0  0  0
    2.2706    3.0432    7.5030 H   0  0  0  0  0  0
    0.5699    1.7814    9.6832 H   0  0  0  0  0  0
    1.3896   -0.3776    8.8598 H   0  0  0  0  0  0
    0.7420    0.6209    7.5143 H   0  0  0  0  0  0
    3.0535    1.1642    6.8319 H   0  0  0  0  0  0
    3.6730    0.1112    8.1487 H   0  0  0  0  0  0
    1.7771   -0.9177    5.9870 H   0  0  0  0  0  0
    3.5631   -0.9158    5.7950 H   0  0  0  0  0  0
    3.6316   -2.2560    7.9717 H   0  0  0  0  0  0
    1.8634   -2.4786    7.7469 H   0  0  0  0  0  0
    3.1257   -4.3450    6.8427 H   0  0  0  0  0  0
    4.0333   -3.2247    5.7714 H   0  0  0  0  0  0
    2.2651   -3.4472    5.5466 H   0  0  0  0  0  0
    1.5338    0.5458   11.4202 H   0  0  0  0  0  0
    4.2185    1.7237   12.3235 H   0  0  0  0  0  0
    2.2590    1.9832   13.8552 H   0  0  0  0  0  0
    2.0212    0.2027   13.8668 H   0  0  0  0  0  0
    5.4795    1.2096   14.1160 H   0  0  0  0  0  0
    1.8611    0.6854   16.3375 H   0  0  0  0  0  0
    6.7944    1.0037   16.2087 H   0  0  0  0  0  0
    3.1645    0.4797   18.4281 H   0  0  0  0  0  0
    6.8528    0.7426   18.6263 H   0  0  0  0  0  0
    5.3285   12.1236    7.8840 H   0  0  0  0  0  0
  1  2  1  0  0  0
  1 55  1  0  0  0
  1 56  1  0  0  0
  1 57  1  0  0  0
  2  3  1  0  0  0
  2  5  1  0  0  0
  2 58  1  0  0  0
  3  4  2  0  0  0
  3  9  1  0  0  0
  5  6  1  0  0  0
  5 59  1  0  0  0
  5 60  1  0  0  0
  6  7  1  0  0  0
  6  8  1  0  0  0
  6 61  1  0  0  0
  7 62  1  0  0  0
  7 63  1  0  0  0
  7 64  1  0  0  0
  8 65  1  0  0  0
  8 66  1  0  0  0
  8 67  1  0  0  0
  9 10  1  0  0  0
  9 68  1  0  0  0
 10 11  1  0  0  0
 10 69  1  0  0  0
 10 70  1  0  0  0
 11 12  2  0  0  0
 11 13  1  0  0  0
 13 14  1  0  0  0
 13 71  1  0  0  0
 14 15  1  0  0  0
 14 17  1  0  0  0
 14 72  1  0  0  0
 15 16  2  0  0  0
 15 22  1  0  0  0
 17 18  1  0  0  0
 17 73  1  0  0  0
 17 74  1  0  0  0
 18 19  1  0  0  0
 18 75  1  0  0  0
 18 76  1  0  0  0
 19 20  1  0  0  0
 19 77  1  0  0  0
 19 78  1  0  0  0
 20 21  1  0  0  0
 20 79  1  0  0  0
 20 80  1  0  0  0
 21 81  1  0  0  0
 21 82  1  0  0  0
 21 83  1  0  0  0
 22 23  1  0  0  0
 22 84  1  0  0  0
 23 24  1  0  0  0
 23 26  1  0  0  0
 23 85  1  0  0  0
 24 25  2  0  0  0
 24 33  1  0  0  0
 26 27  1  0  0  0
 26 86  1  0  0  0
 26 87  1  0  0  0
 27 28  1  0  0  0
 27 88  1  0  0  0
 27 89  1  0  0  0
 28 29  1  0  0  0
 28 90  1  0  0  0
 28 91  1  0  0  0
 29 30  1  0  0  0
 29 92  1  0  0  0
 30 31  1  0  0  0
 30 32  2  0  0  0
 31 93  1  0  0  0
 31 94  1  0  0  0
 32 95  1  0  0  0
 32118  1  0  0  0
 33 34  1  0  0  0
 33 96  1  0  0  0
 34 35  1  0  0  0
 34 37  1  0  0  0
 34 97  1  0  0  0
 35 36  2  0  0  0
 35 42  1  0  0  0
 37 38  1  0  0  0
 37 98  1  0  0  0
 37 99  1  0  0  0
 38 39  1  0  0  0
 38100  1  0  0  0
 38101  1  0  0  0
 39 40  1  0  0  0
 39102  1  0  0  0
 39103  1  0  0  0
 40 41  1  0  0  0
 40104  1  0  0  0
 40105  1  0  0  0
 41106  1  0  0  0
 41107  1  0  0  0
 41108  1  0  0  0
 42 43  1  0  0  0
 42109  1  0  0  0
 43 44  1  0  0  0
 43 46  1  0  0  0
 43110  1  0  0  0
 44 45  2  0  0  0
 44 54  1  0  0  0
 46 47  1  0  0  0
 46111  1  0  0  0
 46112  1  0  0  0
 47 48  2  0  0  0
 47 49  1  0  0  0
 48 50  1  0  0  0
 48113  1  0  0  0
 49 51  2  0  0  0
 49114  1  0  0  0
 50 52  2  0  0  0
 50115  1  0  0  0
 51 52  1  0  0  0
 51116  1  0  0  0
 52 53  1  0  0  0
 53117  1  0  0  0
M  CHG  5   1   1  21   1  32   1  41   1  54  -1
M  END
> <s_m_source_file>
../4ba3_ligand.sdf

> <i_m_source_file_index>
1

> <s_epik_input>
W0NIM11bQ0hdKFtDSDNdKVtDSDJdW0NASF0oW05IMytdKUMoPU8pW05IXVtDSDJdQyg9TylbTkhdW0NAQEhdKFtDSDJdW0NIMl1bQ0gyXVtDSDJdW05IMytdKUMoPU8pW05IXVtDQEBIXShbQ0gyXVtDSDJdW0NIMl1bTkhdL0MoW05IMl0pPU5cW0hdKUMoPU8pW05IXVtDQEBIXShbQ0gyXVtDSDJdW0NIMl1bQ0gyXVtOSDMrXSlDKD1PKVtOSF1bQ0BIXShDKD1PKVtPSF0pW0NIMl1jMVtjSF1bY0hdYyhbT0hdKVtjSF1bY0hdMQ==

> <s_epik_cmdline>
J2VwaWtfYXBwJywgJy1pbWFlJywgJ2xpZ2FuZF9wcm8ubWFlJywgJy1vbWFlJywgJ2xpZ2FuZF9wcmVwLm1hZScsICctbXMnLCAnMScsICctcGgnLCAnNycsICctcGh0JywgJzAuNScsICctbnQn

> <r_lp_tautomer_probability>
0.999999999997365

> <r_epik_Ionization_Penalty>
  0.0910

> <r_epik_Ionization_Penalty_Charging>
  0.0904

> <r_epik_Ionization_Penalty_Neutral>
  0.0006

> <r_epik_State_Penalty>
  0.0796

> <r_epik_Charging_Adjusted_Penalty>
0.170014339195919

> <i_epik_Tot_Q>
3

> <i_epik_Tot_abs_Q>
5

> <s_epik_Chemistry_Notes>
This compound has an imine and may undergo hydrolysis.

$$$$
