4bae_ligand
                    3D
 Schrodinger Suite 2020-3.
 52 55  0  0  1  0            999 V2000
    9.2750   -5.5000  -24.2990 C   0  0  0  0  0  0
    4.4610   -4.6790  -10.3660 C   0  0  0  0  0  0
    4.9880   -4.8030  -11.6800 C   0  0  0  0  0  0
    6.5570   -4.7910  -22.1540 C   0  0  0  0  0  0
    4.5440   -3.7190  -12.4190 C   0  0  3  0  0  0
    5.2940   -4.4230  -22.5600 C   0  0  0  0  0  0
    3.7120   -3.5270  -10.3170 C   0  0  0  0  0  0
    7.5970   -5.2960  -23.0690 C   0  0  0  0  0  0
    5.7440   -4.2840  -20.1540 C   0  0  0  0  0  0
    4.7410   -3.2760  -13.7680 C   0  0  0  0  0  0
    4.7010   -4.3910  -23.8590 C   0  0  0  0  0  0
    4.4570   -3.4890  -16.8590 C   0  0  0  0  0  0
    4.8290   -3.1010  -18.2740 C   0  0  0  0  0  0
    6.9690   -4.2480  -18.1010 C   0  0  0  0  0  0
    5.6840   -3.7870  -16.0100 C   0  0  2  0  0  0
    6.6850   -4.7360  -16.6840 C   0  0  1  0  0  0
    2.9400   -2.9240   -9.2180 C   0  0  0  0  0  0
    6.7540   -7.6820  -23.3260 C   0  0  0  0  0  0
    7.0860   -6.9870  -16.1410 C   0  0  0  0  0  0
    8.6120   -4.5910  -23.5160 N   0  0  0  0  0  0
    8.7340   -6.7230  -24.3550 N   0  0  0  0  0  0
    6.8000   -4.7170  -20.8080 N   0  0  0  0  0  0
    3.7660   -2.9870  -11.5650 N   0  0  0  0  0  0
    7.6640   -6.5710  -23.5630 N   0  0  0  0  0  0
    5.6930   -4.1430  -18.8000 N   0  0  0  0  0  0
    5.3460   -4.1530  -14.6480 N   0  0  0  0  0  0
    4.3740   -2.1540  -14.0880 O   0  0  0  0  0  0
    3.6100   -4.8560  -24.1530 O   0  0  0  0  0  0
    5.5300   -3.7740  -24.7460 O   0  5  0  0  0  0
    6.1790   -6.0760  -16.7570 O   0  0  0  0  0  0
    4.3950   -3.9580  -21.1760 S   0  0  0  0  0  0
    4.7280   -5.7080   -9.0370 Cl  0  0  0  0  0  0
    6.1340   -6.2370  -12.2210 Br  0  0  0  0  0  0
   10.1849   -5.2432  -24.8415 H   0  0  0  0  0  0
    3.9035   -2.6643  -16.3862 H   0  0  0  0  0  0
    3.8259   -4.3897  -16.8796 H   0  0  0  0  0  0
    3.9167   -3.0149  -18.8825 H   0  0  0  0  0  0
    5.3550   -2.1349  -18.2631 H   0  0  0  0  0  0
    7.4630   -3.2661  -18.0585 H   0  0  0  0  0  0
    7.6261   -4.9673  -18.6117 H   0  0  0  0  0  0
    6.2124   -2.8341  -15.8591 H   0  0  0  0  0  0
    7.5980   -4.8084  -16.0748 H   0  0  0  0  0  0
    3.0503   -3.5384   -8.3123 H   0  0  0  0  0  0
    1.8780   -2.8741   -9.5002 H   0  0  0  0  0  0
    3.3150   -1.9089   -9.0204 H   0  0  0  0  0  0
    5.9460   -7.3572  -22.6540 H   0  0  0  0  0  0
    7.3042   -8.5141  -22.8625 H   0  0  0  0  0  0
    6.3241   -8.0143  -24.2825 H   0  0  0  0  0  0
    6.6815   -8.0078  -16.2067 H   0  0  0  0  0  0
    7.2198   -6.7129  -15.0841 H   0  0  0  0  0  0
    8.0566   -6.9432  -16.6568 H   0  0  0  0  0  0
    5.5709   -5.1643  -14.2783 H   0  0  0  0  0  0
  1 20  1  0  0  0
  1 21  2  0  0  0
  1 34  1  0  0  0
  2  3  2  0  0  0
  2  7  1  0  0  0
  2 32  1  0  0  0
  3  5  1  0  0  0
  3 33  1  0  0  0
  4  6  2  0  0  0
  4  8  1  0  0  0
  4 22  1  0  0  0
  5 10  1  0  0  0
  5 23  1  0  0  0
  6 11  1  0  0  0
  6 31  1  0  0  0
  7 17  1  0  0  0
  7 23  2  0  0  0
  8 20  2  0  0  0
  8 24  1  0  0  0
  9 22  2  0  0  0
  9 25  1  0  0  0
  9 31  1  0  0  0
 10 26  1  0  0  0
 10 27  2  0  0  0
 11 28  2  0  0  0
 11 29  1  0  0  0
 12 13  1  0  0  0
 12 15  1  0  0  0
 12 35  1  0  0  0
 12 36  1  0  0  0
 13 25  1  0  0  0
 13 37  1  0  0  0
 13 38  1  0  0  0
 14 16  1  0  0  0
 14 25  1  0  0  0
 14 39  1  0  0  0
 14 40  1  0  0  0
 15 16  1  0  0  0
 15 26  1  0  0  0
 15 41  1  0  0  0
 16 30  1  0  0  0
 16 42  1  0  0  0
 17 43  1  0  0  0
 17 44  1  0  0  0
 17 45  1  0  0  0
 18 24  1  0  0  0
 18 46  1  0  0  0
 18 47  1  0  0  0
 18 48  1  0  0  0
 19 30  1  0  0  0
 19 49  1  0  0  0
 19 50  1  0  0  0
 19 51  1  0  0  0
 21 24  1  0  0  0
 26 52  1  0  0  0
M  CHG  1  29  -1
M  END
> <s_m_source_file>
../4bae_ligand.sdf

> <i_m_source_file_index>
1

> <s_epik_input>
W0NIM11uMW5bY0hdbmMxLWMyYyhDKD1PKVtPSF0pc2MobjIpTihbQ0gyXVtDQEBIXTNPW0NIM10pW0NIMl1bQ0gyXVtDQEhdM1tOSF1DKD1PKVtDSF0oQyhCcik9QzRDbClOPUM0W0NIM10=

> <s_epik_cmdline>
J2VwaWtfYXBwJywgJy1pbWFlJywgJ2xpZ2FuZF9wcm8ubWFlJywgJy1vbWFlJywgJ2xpZ2FuZF9wcmVwLm1hZScsICctbXMnLCAnMScsICctcGgnLCAnNycsICctcGh0JywgJzAuNScsICctbnQn

> <r_lp_tautomer_probability>
1

> <r_epik_Ionization_Penalty>
  0.1299

> <r_epik_Ionization_Penalty_Charging>
  0.0003

> <r_epik_Ionization_Penalty_Neutral>
  0.1297

> <r_epik_State_Penalty>
 -0.0000

> <r_epik_Charging_Adjusted_Penalty>
0.000274738199922879

> <i_epik_Tot_Q>
-1

> <i_epik_Tot_abs_Q>
1

> <s_epik_Chemistry_Notes>
This compound has an imine and may undergo hydrolysis.

$$$$
