4bam_ligand
                    3D
 Schrodinger Suite 2020-3.
 71 73  0  0  1  0            999 V2000
   18.7580  -14.4100   24.2350 C   0  0  0  0  0  0
   18.8850  -15.7670   24.9610 C   0  0  0  0  0  0
   19.4730  -15.5880   26.3700 C   0  0  0  0  0  0
   20.8280  -14.8600   26.3120 C   0  0  0  0  0  0
   20.6840  -13.4900   25.6230 C   0  0  0  0  0  0
   20.1280  -13.6970   24.2010 C   0  0  0  0  0  0
   16.9340  -15.3900   22.8200 N   0  3  0  0  0  0
   18.2000  -14.6130   22.8030 C   0  0  1  0  0  0
   17.9120  -13.2740   22.1670 C   0  0  0  0  0  0
   16.8690  -12.6920   22.4490 O   0  0  0  0  0  0
   18.7370  -12.6980   21.2700 N   0  0  0  0  0  0
   18.5550  -11.5070   20.4350 C   0  0  2  0  0  0
   17.1810  -11.6540   19.8010 C   0  0  0  0  0  0
   16.8790  -12.6960   19.2430 O   0  0  0  0  0  0
   16.2590  -10.6940   19.9950 N   0  0  0  0  0  0
   14.9020  -10.8410   19.4620 C   0  0  0  0  0  0
   13.9440  -10.8230   20.6240 C   0  0  0  0  0  0
   13.3340   -9.6230   20.9720 C   0  0  0  0  0  0
   12.4450   -9.5740   22.0260 C   0  0  0  0  0  0
   12.2150  -10.7340   22.7870 C   0  0  0  0  0  0
   12.8420  -11.9450   22.4370 C   0  0  0  0  0  0
   13.7010  -11.9780   21.3440 C   0  0  0  0  0  0
   11.2270  -10.6890   23.8950 C   0  0  0  0  0  0
   10.9340   -9.5600   24.4770 N   0  3  0  0  0  0
   10.5360  -11.8340   24.2760 N   0  0  0  0  0  0
   19.7440  -11.8950   19.5470 C   0  0  0  0  0  0
   19.9830  -13.0310   20.5500 C   0  0  0  0  0  0
   16.3400  -15.6770   21.4820 C   0  0  0  0  0  0
   14.6100  -15.5200   19.0600 C   0  0  0  0  0  0
   14.8200  -15.6910   21.5430 C   0  0  0  0  0  0
   14.2730  -15.7660   22.6390 O   0  0  0  0  0  0
   12.5630  -15.5960   20.5270 C   0  0  0  0  0  0
   14.0380  -15.6080   20.4160 N   0  0  0  0  0  0
   18.0530  -13.7741   24.7906 H   0  0  0  0  0  0
   17.8909  -16.2292   25.0508 H   0  0  0  0  0  0
   19.5471  -16.4304   24.3852 H   0  0  0  0  0  0
   18.7793  -14.9950   26.9842 H   0  0  0  0  0  0
   19.6215  -16.5745   26.8334 H   0  0  0  0  0  0
   21.2050  -14.7051   27.3337 H   0  0  0  0  0  0
   21.5472  -15.4685   25.7441 H   0  0  0  0  0  0
   19.9936  -12.8591   26.2021 H   0  0  0  0  0  0
   21.6682  -13.0019   25.5681 H   0  0  0  0  0  0
   20.8441  -14.3058   23.6295 H   0  0  0  0  0  0
   20.0177  -12.7135   23.7208 H   0  0  0  0  0  0
   17.1087  -16.3652   23.2980 H   0  0  0  0  0  0
   16.1711  -14.8356   23.3862 H   0  0  0  0  0  0
   18.9323  -15.1755   22.2052 H   0  0  0  0  0  0
   18.5568  -10.4850   20.8418 H   0  0  0  0  0  0
   16.5329   -9.7913   20.5607 H   0  0  0  0  0  0
   14.6851  -10.0084   18.7767 H   0  0  0  0  0  0
   14.8229  -11.7938   18.9180 H   0  0  0  0  0  0
   13.5591   -8.7169   20.4096 H   0  0  0  0  0  0
   11.9264   -8.6459   22.2663 H   0  0  0  0  0  0
   12.6558  -12.8485   23.0175 H   0  0  0  0  0  0
   14.1818  -12.9127   21.0554 H   0  0  0  0  0  0
   11.4666   -8.6404   24.1930 H   0  0  0  0  0  0
   10.7650  -12.7987   23.7996 H   0  0  0  0  0  0
    9.7603  -11.7751   25.0537 H   0  0  0  0  0  0
   19.3840  -12.1311   18.5347 H   0  0  0  0  0  0
   20.4537  -11.0561   19.4974 H   0  0  0  0  0  0
   20.8386  -12.9364   21.2348 H   0  0  0  0  0  0
   19.9254  -14.0637   20.1757 H   0  0  0  0  0  0
   16.6542  -14.9019   20.7675 H   0  0  0  0  0  0
   16.6850  -16.6608   21.1310 H   0  0  0  0  0  0
   15.7080  -15.5392   19.1233 H   0  0  0  0  0  0
   14.2864  -14.5817   18.5858 H   0  0  0  0  0  0
   14.2623  -16.3734   18.4593 H   0  0  0  0  0  0
   12.1203  -15.5253   19.5225 H   0  0  0  0  0  0
   12.2476  -14.7307   21.1284 H   0  0  0  0  0  0
   12.2243  -16.5231   21.0126 H   0  0  0  0  0  0
   10.1542   -9.5269   25.2521 H   0  0  0  0  0  0
  1  2  1  0  0  0
  1  6  1  0  0  0
  1  8  1  0  0  0
  1 34  1  0  0  0
  2  3  1  0  0  0
  2 35  1  0  0  0
  2 36  1  0  0  0
  3  4  1  0  0  0
  3 37  1  0  0  0
  3 38  1  0  0  0
  4  5  1  0  0  0
  4 39  1  0  0  0
  4 40  1  0  0  0
  5  6  1  0  0  0
  5 41  1  0  0  0
  5 42  1  0  0  0
  6 43  1  0  0  0
  6 44  1  0  0  0
  7  8  1  0  0  0
  7 28  1  0  0  0
  7 45  1  0  0  0
  7 46  1  0  0  0
  8  9  1  0  0  0
  8 47  1  0  0  0
  9 10  2  0  0  0
  9 11  1  0  0  0
 11 12  1  0  0  0
 11 27  1  0  0  0
 12 13  1  0  0  0
 12 26  1  0  0  0
 12 48  1  0  0  0
 13 14  2  0  0  0
 13 15  1  0  0  0
 15 16  1  0  0  0
 15 49  1  0  0  0
 16 17  1  0  0  0
 16 50  1  0  0  0
 16 51  1  0  0  0
 17 18  2  0  0  0
 17 22  1  0  0  0
 18 19  1  0  0  0
 18 52  1  0  0  0
 19 20  2  0  0  0
 19 53  1  0  0  0
 20 21  1  0  0  0
 20 23  1  0  0  0
 21 22  2  0  0  0
 21 54  1  0  0  0
 22 55  1  0  0  0
 23 24  2  0  0  0
 23 25  1  0  0  0
 24 56  1  0  0  0
 24 71  1  0  0  0
 25 57  1  0  0  0
 25 58  1  0  0  0
 26 27  1  0  0  0
 26 59  1  0  0  0
 26 60  1  0  0  0
 27 61  1  0  0  0
 27 62  1  0  0  0
 28 30  1  0  0  0
 28 63  1  0  0  0
 28 64  1  0  0  0
 29 33  1  0  0  0
 29 65  1  0  0  0
 29 66  1  0  0  0
 29 67  1  0  0  0
 30 31  2  0  0  0
 30 33  1  0  0  0
 32 33  1  0  0  0
 32 68  1  0  0  0
 32 69  1  0  0  0
 32 70  1  0  0  0
M  CHG  2   7   1  24   1
M  END
> <s_m_source_file>
../4bam_ligand.sdf

> <i_m_source_file_index>
1

> <s_epik_input>
W0NIMl0xW0NIMl1bQ0gyXVtDSDJdW0NIMl1bQ0hdMVtDQEBIXShbTkgyK11bQ0gyXUMoPU8pTihbQ0gzXSlbQ0gzXSlDKD1PKU4yW0NAQEhdKFtDSDJdW0NIMl0yKUMoPU8pW05IXVtDSDJdYzNbY0hdW2NIXWMoW2NIXVtjSF0zKS9DKD1OXFtIXSlbTkgyXQ==

> <s_epik_cmdline>
J2VwaWtfYXBwJywgJy1pbWFlJywgJ2xpZ2FuZF9wcm8ubWFlJywgJy1vbWFlJywgJ2xpZ2FuZF9wcmVwLm1hZScsICctbXMnLCAnMScsICctcGgnLCAnNycsICctcGh0JywgJzAuNScsICctbnQn

> <r_epik_Ionization_Penalty>
  0.3176

> <r_epik_Ionization_Penalty_Charging>
  0.3176

> <r_epik_Ionization_Penalty_Neutral>
  0.0000

> <r_epik_State_Penalty>
  0.3118

> <r_epik_Charging_Adjusted_Penalty>
0.629354495378285

> <i_epik_Tot_Q>
2

> <i_epik_Tot_abs_Q>
2

> <s_epik_Chemistry_Notes>
This compound has an imine and may undergo hydrolysis.

$$$$
