4ban_ligand
                    3D
 Schrodinger Suite 2020-3.
 68 70  0  0  1  0            999 V2000
   18.7550  -14.5330   24.3130 C   0  0  0  0  0  0
   18.9820  -15.9020   24.9910 C   0  0  0  0  0  0
   19.5380  -15.7040   26.4150 C   0  0  0  0  0  0
   20.8480  -14.8930   26.3990 C   0  0  0  0  0  0
   20.6360  -13.5210   25.7340 C   0  0  0  0  0  0
   20.0780  -13.7220   24.3110 C   0  0  0  0  0  0
   16.9120  -15.4810   22.9110 N   0  3  0  0  0  0
   18.1870  -14.7150   22.8850 C   0  0  1  0  0  0
   17.8930  -13.3740   22.2670 C   0  0  0  0  0  0
   16.8400  -12.8000   22.5530 O   0  0  0  0  0  0
   18.7300  -12.7970   21.3670 N   0  0  0  0  0  0
   18.5620  -11.5920   20.5480 C   0  0  2  0  0  0
   17.1940  -11.7130   19.9190 C   0  0  0  0  0  0
   16.9030  -12.7360   19.3270 O   0  0  0  0  0  0
   16.2630  -10.7680   20.1290 N   0  0  0  0  0  0
   14.9340  -10.9720   19.5560 C   0  0  0  0  0  0
   13.9560  -10.9430   20.6920 C   0  0  0  0  0  0
   13.4490   -9.7210   21.0990 C   0  0  0  0  0  0
   12.5350   -9.6630   22.1360 C   0  0  0  0  0  0
   12.1730  -10.8340   22.8130 C   0  0  0  0  0  0
   12.7020  -12.0710   22.3980 C   0  0  0  0  0  0
   13.5990  -12.1160   21.3380 C   0  0  0  0  0  0
   11.1560  -10.7780   23.9000 C   0  0  0  0  0  0
   10.4320  -11.8410   24.1870 N   0  3  0  0  0  0
   10.8940   -9.5970   24.5570 N   0  0  0  0  0  0
   19.7500  -11.9790   19.6520 C   0  0  0  0  0  0
   19.9870  -13.1160   20.6570 C   0  0  0  0  0  0
   16.3280  -15.8450   21.5910 C   0  0  0  0  0  0
   14.8150  -15.9560   21.6790 C   0  0  0  0  0  0
   14.2850  -16.3140   22.7220 O   0  0  0  0  0  0
   12.5900  -15.6930   20.5780 C   0  0  0  0  0  0
   14.0640  -15.6410   20.5900 N   0  0  0  0  0  0
   18.0056  -13.9682   24.8869 H   0  0  0  0  0  0
   18.0272  -16.4451   25.0492 H   0  0  0  0  0  0
   19.7020  -16.4884   24.4013 H   0  0  0  0  0  0
   18.7997  -15.1627   27.0249 H   0  0  0  0  0  0
   19.7403  -16.6851   26.8694 H   0  0  0  0  0  0
   21.1947  -14.7361   27.4311 H   0  0  0  0  0  0
   21.6141  -15.4450   25.8348 H   0  0  0  0  0  0
   19.9222  -12.9318   26.3285 H   0  0  0  0  0  0
   21.5964  -12.9874   25.6798 H   0  0  0  0  0  0
   20.8349  -14.2566   23.7182 H   0  0  0  0  0  0
   19.8996  -12.7305   23.8694 H   0  0  0  0  0  0
   17.0659  -16.4312   23.4435 H   0  0  0  0  0  0
   16.1406  -14.8916   23.4283 H   0  0  0  0  0  0
   18.9172  -15.2672   22.2752 H   0  0  0  0  0  0
   18.5691  -10.5750   20.9671 H   0  0  0  0  0  0
   16.4769   -9.8605   20.7128 H   0  0  0  0  0  0
   14.7175  -10.1683   18.8368 H   0  0  0  0  0  0
   14.9019  -11.9434   19.0409 H   0  0  0  0  0  0
   13.7696   -8.8050   20.6028 H   0  0  0  0  0  0
   12.0975   -8.7075   22.4254 H   0  0  0  0  0  0
   12.4090  -12.9896   22.9063 H   0  0  0  0  0  0
   14.0197  -13.0687   21.0162 H   0  0  0  0  0  0
   10.6261  -12.7938   23.6728 H   0  0  0  0  0  0
   11.4874   -8.6987   24.3313 H   0  0  0  0  0  0
   10.0912   -9.5516   25.3077 H   0  0  0  0  0  0
   19.3857  -12.2128   18.6408 H   0  0  0  0  0  0
   20.4596  -11.1400   19.6012 H   0  0  0  0  0  0
   20.8353  -13.0153   21.3501 H   0  0  0  0  0  0
   19.9429  -14.1481   20.2790 H   0  0  0  0  0  0
   16.5832  -15.0718   20.8514 H   0  0  0  0  0  0
   16.7350  -16.8133   21.2644 H   0  0  0  0  0  0
   12.2206  -15.3941   19.5859 H   0  0  0  0  0  0
   12.1927  -15.0058   21.3395 H   0  0  0  0  0  0
   12.2575  -16.7178   20.7996 H   0  0  0  0  0  0
   14.6109  -15.3352   19.6859 H   0  0  0  0  0  0
    9.6336  -11.7755   24.9408 H   0  0  0  0  0  0
  1  2  1  0  0  0
  1  6  1  0  0  0
  1  8  1  0  0  0
  1 33  1  0  0  0
  2  3  1  0  0  0
  2 34  1  0  0  0
  2 35  1  0  0  0
  3  4  1  0  0  0
  3 36  1  0  0  0
  3 37  1  0  0  0
  4  5  1  0  0  0
  4 38  1  0  0  0
  4 39  1  0  0  0
  5  6  1  0  0  0
  5 40  1  0  0  0
  5 41  1  0  0  0
  6 42  1  0  0  0
  6 43  1  0  0  0
  7  8  1  0  0  0
  7 28  1  0  0  0
  7 44  1  0  0  0
  7 45  1  0  0  0
  8  9  1  0  0  0
  8 46  1  0  0  0
  9 10  2  0  0  0
  9 11  1  0  0  0
 11 12  1  0  0  0
 11 27  1  0  0  0
 12 13  1  0  0  0
 12 26  1  0  0  0
 12 47  1  0  0  0
 13 14  2  0  0  0
 13 15  1  0  0  0
 15 16  1  0  0  0
 15 48  1  0  0  0
 16 17  1  0  0  0
 16 49  1  0  0  0
 16 50  1  0  0  0
 17 18  2  0  0  0
 17 22  1  0  0  0
 18 19  1  0  0  0
 18 51  1  0  0  0
 19 20  2  0  0  0
 19 52  1  0  0  0
 20 21  1  0  0  0
 20 23  1  0  0  0
 21 22  2  0  0  0
 21 53  1  0  0  0
 22 54  1  0  0  0
 23 24  2  0  0  0
 23 25  1  0  0  0
 24 55  1  0  0  0
 24 68  1  0  0  0
 25 56  1  0  0  0
 25 57  1  0  0  0
 26 27  1  0  0  0
 26 58  1  0  0  0
 26 59  1  0  0  0
 27 60  1  0  0  0
 27 61  1  0  0  0
 28 29  1  0  0  0
 28 62  1  0  0  0
 28 63  1  0  0  0
 29 30  2  0  0  0
 29 32  1  0  0  0
 31 32  1  0  0  0
 31 64  1  0  0  0
 31 65  1  0  0  0
 31 66  1  0  0  0
 32 67  1  0  0  0
M  CHG  2   7   1  24   1
M  END
> <s_m_source_file>
../4ban_ligand.sdf

> <i_m_source_file_index>
1

> <s_epik_input>
W0NIMl0xW0NIMl1bQ0gyXVtDSDJdW0NIMl1bQ0hdMVtDQEBIXShbTkgyK11bQ0gyXUMoPU8pW05IXVtDSDNdKUMoPU8pTjJbQ0BASF0oW0NIMl1bQ0gyXTIpQyg9TylbTkhdW0NIMl1jM1tjSF1bY0hdYyhbY0hdW2NIXTMpL0MoPU5cW0hdKVtOSDJd

> <s_epik_cmdline>
J2VwaWtfYXBwJywgJy1pbWFlJywgJ2xpZ2FuZF9wcm8ubWFlJywgJy1vbWFlJywgJ2xpZ2FuZF9wcmVwLm1hZScsICctbXMnLCAnMScsICctcGgnLCAnNycsICctcGh0JywgJzAuNScsICctbnQn

> <r_epik_Ionization_Penalty>
  0.3176

> <r_epik_Ionization_Penalty_Charging>
  0.3176

> <r_epik_Ionization_Penalty_Neutral>
  0.0000

> <r_epik_State_Penalty>
  0.3118

> <r_epik_Charging_Adjusted_Penalty>
0.629354495378285

> <i_epik_Tot_Q>
2

> <i_epik_Tot_abs_Q>
2

> <s_epik_Chemistry_Notes>
This compound has an imine and may undergo hydrolysis.

$$$$
