4bao_ligand
                    3D
 Schrodinger Suite 2020-3.
 65 67  0  0  1  0            999 V2000
   18.8260  -14.4920   24.2160 C   0  0  0  0  0  0
   18.9260  -15.7910   25.0380 C   0  0  0  0  0  0
   19.4630  -15.4470   26.4360 C   0  0  0  0  0  0
   20.8600  -14.8050   26.3340 C   0  0  0  0  0  0
   20.7940  -13.4950   25.5410 C   0  0  0  0  0  0
   20.2040  -13.7840   24.1440 C   0  0  0  0  0  0
   16.9740  -15.5260   22.8620 N   0  3  0  0  0  0
   18.2640  -14.7820   22.8100 C   0  0  1  0  0  0
   17.9860  -13.4590   22.1550 C   0  0  0  0  0  0
   16.9690  -12.8750   22.4850 O   0  0  0  0  0  0
   18.7990  -12.9000   21.2270 N   0  0  0  0  0  0
   18.6330  -11.7020   20.3900 C   0  0  2  0  0  0
   17.2430  -11.8200   19.8070 C   0  0  0  0  0  0
   16.9390  -12.8630   19.2540 O   0  0  0  0  0  0
   16.3140  -10.8710   20.0530 N   0  0  0  0  0  0
   14.9510  -11.0570   19.5600 C   0  0  0  0  0  0
   13.9780  -11.0110   20.7090 C   0  0  0  0  0  0
   13.6590  -12.1700   21.4040 C   0  0  0  0  0  0
   12.7390  -12.1230   22.4440 C   0  0  0  0  0  0
   12.1560  -10.8880   22.8020 C   0  0  0  0  0  0
   12.5010   -9.7210   22.0970 C   0  0  0  0  0  0
   13.4130   -9.7910   21.0600 C   0  0  0  0  0  0
   11.1650  -10.8050   23.9070 C   0  0  0  0  0  0
   10.4330  -11.9160   24.2990 N   0  0  0  0  0  0
   10.9450   -9.6670   24.5050 N   0  3  0  0  0  0
   19.7940  -12.1380   19.4720 C   0  0  0  0  0  0
   20.0340  -13.2510   20.4970 C   0  0  0  0  0  0
   16.3960  -15.9280   21.5510 C   0  0  0  0  0  0
   14.9570  -16.3940   21.6930 C   0  0  0  0  0  0
   14.3610  -16.3550   22.7550 O   0  0  0  0  0  0
   14.3000  -16.8850   20.6250 N   0  0  0  0  0  0
   18.1215  -13.8144   24.7205 H   0  0  0  0  0  0
   17.9296  -16.2493   25.1221 H   0  0  0  0  0  0
   19.6102  -16.4909   24.5360 H   0  0  0  0  0  0
   18.7793  -14.7392   26.9274 H   0  0  0  0  0  0
   19.5346  -16.3652   27.0375 H   0  0  0  0  0  0
   21.2402  -14.5918   27.3440 H   0  0  0  0  0  0
   21.5452  -15.4972   25.8229 H   0  0  0  0  0  0
   20.1537  -12.7761   26.0732 H   0  0  0  0  0  0
   21.8065  -13.0776   25.4375 H   0  0  0  0  0  0
   20.9164  -14.4226   23.6011 H   0  0  0  0  0  0
   20.0962  -12.8245   23.6169 H   0  0  0  0  0  0
   17.1102  -16.4566   23.4325 H   0  0  0  0  0  0
   16.2112  -14.9035   23.3526 H   0  0  0  0  0  0
   18.9765  -15.3975   22.2413 H   0  0  0  0  0  0
   18.6700  -10.6740   20.7796 H   0  0  0  0  0  0
   16.5754   -9.9645   20.6187 H   0  0  0  0  0  0
   14.7068  -10.2564   18.8462 H   0  0  0  0  0  0
   14.8727  -12.0325   19.0577 H   0  0  0  0  0  0
   14.1297  -13.1153   21.1340 H   0  0  0  0  0  0
   12.4692  -13.0331   22.9797 H   0  0  0  0  0  0
   12.0514   -8.7654   22.3669 H   0  0  0  0  0  0
   13.6893   -8.8873   20.5168 H   0  0  0  0  0  0
   10.6012  -12.8864   23.8090 H   0  0  0  0  0  0
    9.6842  -11.8267   25.0999 H   0  0  0  0  0  0
   11.5134   -8.7723   24.2110 H   0  0  0  0  0  0
   19.3995  -12.3902   18.4766 H   0  0  0  0  0  0
   20.5187  -11.3154   19.3816 H   0  0  0  0  0  0
   20.8991  -13.1461   21.1683 H   0  0  0  0  0  0
   19.9681  -14.2906   20.1435 H   0  0  0  0  0  0
   16.4166  -15.0702   20.8627 H   0  0  0  0  0  0
   16.9876  -16.7527   21.1269 H   0  0  0  0  0  0
   14.8014  -16.9379   19.6474 H   0  0  0  0  0  0
   13.2619  -17.2332   20.7302 H   0  0  0  0  0  0
   10.1910   -9.6019   25.3033 H   0  0  0  0  0  0
  1  2  1  0  0  0
  1  6  1  0  0  0
  1  8  1  0  0  0
  1 32  1  0  0  0
  2  3  1  0  0  0
  2 33  1  0  0  0
  2 34  1  0  0  0
  3  4  1  0  0  0
  3 35  1  0  0  0
  3 36  1  0  0  0
  4  5  1  0  0  0
  4 37  1  0  0  0
  4 38  1  0  0  0
  5  6  1  0  0  0
  5 39  1  0  0  0
  5 40  1  0  0  0
  6 41  1  0  0  0
  6 42  1  0  0  0
  7  8  1  0  0  0
  7 28  1  0  0  0
  7 43  1  0  0  0
  7 44  1  0  0  0
  8  9  1  0  0  0
  8 45  1  0  0  0
  9 10  2  0  0  0
  9 11  1  0  0  0
 11 12  1  0  0  0
 11 27  1  0  0  0
 12 13  1  0  0  0
 12 26  1  0  0  0
 12 46  1  0  0  0
 13 14  2  0  0  0
 13 15  1  0  0  0
 15 16  1  0  0  0
 15 47  1  0  0  0
 16 17  1  0  0  0
 16 48  1  0  0  0
 16 49  1  0  0  0
 17 18  2  0  0  0
 17 22  1  0  0  0
 18 19  1  0  0  0
 18 50  1  0  0  0
 19 20  2  0  0  0
 19 51  1  0  0  0
 20 21  1  0  0  0
 20 23  1  0  0  0
 21 22  2  0  0  0
 21 52  1  0  0  0
 22 53  1  0  0  0
 23 24  1  0  0  0
 23 25  2  0  0  0
 24 54  1  0  0  0
 24 55  1  0  0  0
 25 56  1  0  0  0
 25 65  1  0  0  0
 26 27  1  0  0  0
 26 57  1  0  0  0
 26 58  1  0  0  0
 27 59  1  0  0  0
 27 60  1  0  0  0
 28 29  1  0  0  0
 28 61  1  0  0  0
 28 62  1  0  0  0
 29 30  2  0  0  0
 29 31  1  0  0  0
 31 63  1  0  0  0
 31 64  1  0  0  0
M  CHG  2   7   1  25   1
M  END
> <s_m_source_file>
../4bao_ligand.sdf

> <i_m_source_file_index>
1

> <s_epik_input>
W0NIMl0xW0NIMl1bQ0gyXVtDSDJdW0NIMl1bQ0hdMVtDQEBIXShbTkgyK11bQ0gyXUMoPU8pW05IMl0pQyg9TylOMltDQEBIXShbQ0gyXVtDSDJdMilDKD1PKVtOSF1bQ0gyXWMzW2NIXVtjSF1jKFtjSF1bY0hdMykvQyhbTkgyXSk9TlxbSF0=

> <s_epik_cmdline>
J2VwaWtfYXBwJywgJy1pbWFlJywgJ2xpZ2FuZF9wcm8ubWFlJywgJy1vbWFlJywgJ2xpZ2FuZF9wcmVwLm1hZScsICctbXMnLCAnMScsICctcGgnLCAnNycsICctcGh0JywgJzAuNScsICctbnQn

> <r_epik_Ionization_Penalty>
  0.3176

> <r_epik_Ionization_Penalty_Charging>
  0.3176

> <r_epik_Ionization_Penalty_Neutral>
  0.0000

> <r_epik_State_Penalty>
  0.3118

> <r_epik_Charging_Adjusted_Penalty>
0.629354495378285

> <i_epik_Tot_Q>
2

> <i_epik_Tot_abs_Q>
2

> <s_epik_Chemistry_Notes>
This compound has an imine and may undergo hydrolysis.

$$$$
