4baq_ligand
                    3D
 Schrodinger Suite 2020-3.
 71 73  0  0  1  0            999 V2000
   18.7700  -14.5310   24.2010 C   0  0  0  0  0  0
   18.8900  -15.8540   24.9790 C   0  0  0  0  0  0
   19.4250  -15.5690   26.3880 C   0  0  0  0  0  0
   20.8250  -14.9400   26.2940 C   0  0  0  0  0  0
   20.7250  -13.5770   25.5940 C   0  0  0  0  0  0
   20.1110  -13.7580   24.1860 C   0  0  0  0  0  0
   17.0040  -15.5640   22.7950 N   0  3  0  0  0  0
   18.2700  -14.7950   22.7660 C   0  0  1  0  0  0
   17.9940  -13.4660   22.1110 C   0  0  0  0  0  0
   16.9890  -12.8630   22.4510 O   0  0  0  0  0  0
   18.8060  -12.9080   21.1800 N   0  0  0  0  0  0
   18.6340  -11.7030   20.3590 C   0  0  2  0  0  0
   17.2390  -11.8210   19.7690 C   0  0  0  0  0  0
   16.8970  -12.8940   19.2870 O   0  0  0  0  0  0
   16.3370  -10.8280   19.9420 N   0  0  0  0  0  0
   14.9700  -11.0130   19.4510 C   0  0  0  0  0  0
   14.0140  -11.0280   20.6150 C   0  0  0  0  0  0
   13.4600   -9.8210   21.0260 C   0  0  0  0  0  0
   12.5830   -9.7860   22.0930 C   0  0  0  0  0  0
   12.2690  -10.9790   22.7660 C   0  0  0  0  0  0
   12.8180  -12.2040   22.3360 C   0  0  0  0  0  0
   13.7050  -12.2160   21.2610 C   0  0  0  0  0  0
   11.2680  -10.9270   23.8550 C   0  0  0  0  0  0
   10.5420  -11.9780   24.1770 N   0  3  0  0  0  0
   11.0360   -9.7280   24.4760 N   0  0  0  0  0  0
   19.7960  -12.1120   19.4430 C   0  0  0  0  0  0
   20.0340  -13.2570   20.4360 C   0  0  0  0  0  0
   16.3660  -15.8900   21.4900 C   0  0  0  0  0  0
   12.0350  -15.5660   19.4200 C   0  0  0  0  0  0
   14.8900  -16.2140   21.6700 C   0  0  0  0  0  0
   14.4460  -16.5720   22.7540 O   0  0  0  0  0  0
   12.6200  -16.3420   20.6020 C   0  0  0  0  0  0
   14.0720  -16.1010   20.5930 N   0  0  0  0  0  0
   18.0295  -13.9037   24.7188 H   0  0  0  0  0  0
   17.9001  -16.3283   25.0507 H   0  0  0  0  0  0
   19.5820  -16.5276   24.4524 H   0  0  0  0  0  0
   18.7468  -14.8734   26.9039 H   0  0  0  0  0  0
   19.4855  -16.5099   26.9545 H   0  0  0  0  0  0
   21.2347  -14.8044   27.3058 H   0  0  0  0  0  0
   21.4865  -15.6023   25.7163 H   0  0  0  0  0  0
   20.0859  -12.9063   26.1870 H   0  0  0  0  0  0
   21.7294  -13.1384   25.5002 H   0  0  0  0  0  0
   20.8423  -14.3043   23.5722 H   0  0  0  0  0  0
   19.9518  -12.7558   23.7614 H   0  0  0  0  0  0
   17.1754  -16.5341   23.2844 H   0  0  0  0  0  0
   16.2448  -14.9994   23.3560 H   0  0  0  0  0  0
   19.0069  -15.3778   22.1939 H   0  0  0  0  0  0
   18.6700  -10.6806   20.7633 H   0  0  0  0  0  0
   16.6190   -9.8907   20.4440 H   0  0  0  0  0  0
   14.7088  -10.1867   18.7735 H   0  0  0  0  0  0
   14.9012  -11.9675   18.9086 H   0  0  0  0  0  0
   13.7184   -8.8992   20.5047 H   0  0  0  0  0  0
   12.1390   -8.8422   22.4097 H   0  0  0  0  0  0
   12.5513  -13.1332   22.8395 H   0  0  0  0  0  0
   14.1530  -13.1529   20.9300 H   0  0  0  0  0  0
   10.7228  -12.9438   23.6825 H   0  0  0  0  0  0
   11.6384   -8.8463   24.2121 H   0  0  0  0  0  0
   10.2473   -9.6471   25.2385 H   0  0  0  0  0  0
   19.4091  -12.3365   18.4380 H   0  0  0  0  0  0
   20.5216  -11.2876   19.3808 H   0  0  0  0  0  0
   20.9030  -13.1798   21.1060 H   0  0  0  0  0  0
   19.9532  -14.2866   20.0574 H   0  0  0  0  0  0
   16.4578  -15.0289   20.8117 H   0  0  0  0  0  0
   16.8667  -16.7624   21.0448 H   0  0  0  0  0  0
   10.9459  -15.7165   19.3856 H   0  0  0  0  0  0
   12.4851  -15.9291   18.4842 H   0  0  0  0  0  0
   12.2535  -14.4947   19.5405 H   0  0  0  0  0  0
   12.1699  -15.9789   21.5378 H   0  0  0  0  0  0
   12.4015  -17.4133   20.4815 H   0  0  0  0  0  0
   14.5745  -15.8040   19.6606 H   0  0  0  0  0  0
    9.7550  -11.8898   24.9404 H   0  0  0  0  0  0
  1  2  1  0  0  0
  1  6  1  0  0  0
  1  8  1  0  0  0
  1 34  1  0  0  0
  2  3  1  0  0  0
  2 35  1  0  0  0
  2 36  1  0  0  0
  3  4  1  0  0  0
  3 37  1  0  0  0
  3 38  1  0  0  0
  4  5  1  0  0  0
  4 39  1  0  0  0
  4 40  1  0  0  0
  5  6  1  0  0  0
  5 41  1  0  0  0
  5 42  1  0  0  0
  6 43  1  0  0  0
  6 44  1  0  0  0
  7  8  1  0  0  0
  7 28  1  0  0  0
  7 45  1  0  0  0
  7 46  1  0  0  0
  8  9  1  0  0  0
  8 47  1  0  0  0
  9 10  2  0  0  0
  9 11  1  0  0  0
 11 12  1  0  0  0
 11 27  1  0  0  0
 12 13  1  0  0  0
 12 26  1  0  0  0
 12 48  1  0  0  0
 13 14  2  0  0  0
 13 15  1  0  0  0
 15 16  1  0  0  0
 15 49  1  0  0  0
 16 17  1  0  0  0
 16 50  1  0  0  0
 16 51  1  0  0  0
 17 18  2  0  0  0
 17 22  1  0  0  0
 18 19  1  0  0  0
 18 52  1  0  0  0
 19 20  2  0  0  0
 19 53  1  0  0  0
 20 21  1  0  0  0
 20 23  1  0  0  0
 21 22  2  0  0  0
 21 54  1  0  0  0
 22 55  1  0  0  0
 23 24  2  0  0  0
 23 25  1  0  0  0
 24 56  1  0  0  0
 24 71  1  0  0  0
 25 57  1  0  0  0
 25 58  1  0  0  0
 26 27  1  0  0  0
 26 59  1  0  0  0
 26 60  1  0  0  0
 27 61  1  0  0  0
 27 62  1  0  0  0
 28 30  1  0  0  0
 28 63  1  0  0  0
 28 64  1  0  0  0
 29 32  1  0  0  0
 29 65  1  0  0  0
 29 66  1  0  0  0
 29 67  1  0  0  0
 30 31  2  0  0  0
 30 33  1  0  0  0
 32 33  1  0  0  0
 32 68  1  0  0  0
 32 69  1  0  0  0
 33 70  1  0  0  0
M  CHG  2   7   1  24   1
M  END
> <s_m_source_file>
../4baq_ligand.sdf

> <i_m_source_file_index>
1

> <s_epik_input>
W0NIMl0xW0NIMl1bQ0gyXVtDSDJdW0NIMl1bQ0hdMVtDQEBIXShbTkgyK11bQ0gyXUMoPU8pW05IXVtDSDJdW0NIM10pQyg9TylOMltDQEBIXShbQ0gyXVtDSDJdMilDKD1PKVtOSF1bQ0gyXWMzW2NIXVtjSF1jKFtjSF1bY0hdMykvQyg9TlxbSF0pW05IMl0=

> <s_epik_cmdline>
J2VwaWtfYXBwJywgJy1pbWFlJywgJ2xpZ2FuZF9wcm8ubWFlJywgJy1vbWFlJywgJ2xpZ2FuZF9wcmVwLm1hZScsICctbXMnLCAnMScsICctcGgnLCAnNycsICctcGh0JywgJzAuNScsICctbnQn

> <r_epik_Ionization_Penalty>
  0.3062

> <r_epik_Ionization_Penalty_Charging>
  0.3062

> <r_epik_Ionization_Penalty_Neutral>
  0.0000

> <r_epik_State_Penalty>
  0.2998

> <r_epik_Charging_Adjusted_Penalty>
0.606023774862413

> <i_epik_Tot_Q>
2

> <i_epik_Tot_abs_Q>
2

> <s_epik_Chemistry_Notes>
This compound has an imine and may undergo hydrolysis.

$$$$
