4bb2_ligand
                    3D
 Schrodinger Suite 2020-3.
 53 56  0  0  1  0            999 V2000
  -30.5220   -8.7000    2.1330 C   0  0  0  0  0  0
  -30.6380   -7.5620    3.1480 C   0  0  0  0  0  0
  -30.3490   -8.0960    4.5340 C   0  0  0  0  0  0
  -30.9020   -7.6230    5.5140 O   0  0  0  0  0  0
  -29.3840   -9.2000    4.7130 C   0  0  0  0  0  0
  -28.8290   -9.8330    3.6670 C   0  0  0  0  0  0
  -27.7490  -10.8570    3.9560 C   0  0  0  0  0  0
  -28.0890  -12.1850    3.2840 C   0  0  0  0  0  0
  -28.4180  -12.0050    1.8040 C   0  0  2  0  0  0
  -29.5140  -10.9350    1.5620 C   0  0  1  0  0  0
  -29.2490   -9.5640    2.2300 C   0  0  1  0  0  0
  -29.8880  -10.8250    0.0680 C   0  0  0  0  0  0
  -30.2290  -12.1680   -0.5910 C   0  0  0  0  0  0
  -29.1680  -13.2350   -0.3160 C   0  0  1  0  0  0
  -28.8900  -13.3260    1.1840 C   0  0  1  0  0  0
  -28.0950  -14.6140    1.3900 C   0  0  0  0  0  0
  -28.7090  -15.5360    0.3290 C   0  0  0  0  0  0
  -29.6290  -14.6680   -0.5550 C   0  0  2  0  0  0
  -27.9060  -12.9240   -1.1410 C   0  0  0  0  0  0
  -28.0960   -8.8020    1.5700 C   0  0  0  0  0  0
  -29.6780  -15.0840   -2.0140 C   0  0  0  0  0  0
  -28.7980  -15.8070   -2.4700 O   0  0  0  0  0  0
  -30.8250  -14.6120   -2.8740 C   0  0  0  0  0  0
  -31.3698   -9.3899    2.2571 H   0  0  0  0  0  0
  -30.5330   -8.2852    1.1142 H   0  0  0  0  0  0
  -29.9129   -6.7732    2.8989 H   0  0  0  0  0  0
  -31.6562   -7.1467    3.1185 H   0  0  0  0  0  0
  -29.1234   -9.4998    5.7387 H   0  0  0  0  0  0
  -26.7859  -10.4934    3.5685 H   0  0  0  0  0  0
  -27.6721  -11.0122    5.0423 H   0  0  0  0  0  0
  -27.2304  -12.8677    3.3659 H   0  0  0  0  0  0
  -28.9627  -12.6336    3.7794 H   0  0  0  0  0  0
  -27.4781  -11.6781    1.3352 H   0  0  0  0  0  0
  -30.4052  -11.3061    2.0893 H   0  0  0  0  0  0
  -30.7695  -10.1763   -0.0425 H   0  0  0  0  0  0
  -29.0438  -10.3946   -0.4906 H   0  0  0  0  0  0
  -31.1900  -12.5344   -0.2007 H   0  0  0  0  0  0
  -30.3029  -12.0337   -1.6803 H   0  0  0  0  0  0
  -29.7941  -13.4394    1.8002 H   0  0  0  0  0  0
  -27.0259  -14.4155    1.2238 H   0  0  0  0  0  0
  -28.2451  -14.9772    2.4174 H   0  0  0  0  0  0
  -27.9067  -15.9865   -0.2738 H   0  0  0  0  0  0
  -29.2863  -16.3309    0.8238 H   0  0  0  0  0  0
  -30.6894  -14.7866   -0.2875 H   0  0  0  0  0  0
  -27.5917  -11.8867   -0.9534 H   0  0  0  0  0  0
  -28.1266  -13.0525   -2.2110 H   0  0  0  0  0  0
  -27.0981  -13.6106   -0.8481 H   0  0  0  0  0  0
  -27.9520   -7.8393    2.0823 H   0  0  0  0  0  0
  -28.3340   -8.6220    0.5112 H   0  0  0  0  0  0
  -27.1739   -9.3975    1.6425 H   0  0  0  0  0  0
  -31.4963  -13.9792   -2.2749 H   0  0  0  0  0  0
  -31.3818  -15.4820   -3.2523 H   0  0  0  0  0  0
  -30.4328  -14.0308   -3.7216 H   0  0  0  0  0  0
  1  2  1  0  0  0
  1 11  1  0  0  0
  1 24  1  0  0  0
  1 25  1  0  0  0
  2  3  1  0  0  0
  2 26  1  0  0  0
  2 27  1  0  0  0
  3  4  2  0  0  0
  3  5  1  0  0  0
  5  6  2  0  0  0
  5 28  1  0  0  0
  6  7  1  0  0  0
  6 11  1  0  0  0
  7  8  1  0  0  0
  7 29  1  0  0  0
  7 30  1  0  0  0
  8  9  1  0  0  0
  8 31  1  0  0  0
  8 32  1  0  0  0
  9 10  1  0  0  0
  9 15  1  0  0  0
  9 33  1  0  0  0
 10 11  1  0  0  0
 10 12  1  0  0  0
 10 34  1  0  0  0
 11 20  1  0  0  0
 12 13  1  0  0  0
 12 35  1  0  0  0
 12 36  1  0  0  0
 13 14  1  0  0  0
 13 37  1  0  0  0
 13 38  1  0  0  0
 14 15  1  0  0  0
 14 18  1  0  0  0
 14 19  1  0  0  0
 15 16  1  0  0  0
 15 39  1  0  0  0
 16 17  1  0  0  0
 16 40  1  0  0  0
 16 41  1  0  0  0
 17 18  1  0  0  0
 17 42  1  0  0  0
 17 43  1  0  0  0
 18 21  1  0  0  0
 18 44  1  0  0  0
 19 45  1  0  0  0
 19 46  1  0  0  0
 19 47  1  0  0  0
 20 48  1  0  0  0
 20 49  1  0  0  0
 20 50  1  0  0  0
 21 22  2  0  0  0
 21 23  1  0  0  0
 23 51  1  0  0  0
 23 52  1  0  0  0
 23 53  1  0  0  0
M  END
> <s_m_source_file>
../4bb2_ligand.sdf

> <i_m_source_file_index>
1

> <s_epik_input>
W0NIMl0xW0NIMl1DKD1PKVtDSF09QyhbQ0BdMTJbQ0gzXSlbQ0gyXVtDSDJdW0NAQEhdM1tDQEBIXTJbQ0gyXVtDSDJdW0NAQF00KFtDSDNdKVtDQEhdM1tDSDJdW0NIMl1bQ0BASF00Qyg9TylbQ0gzXQ==

> <s_epik_cmdline>
J2VwaWtfYXBwJywgJy1pbWFlJywgJ2xpZ2FuZF9wcm8ubWFlJywgJy1vbWFlJywgJ2xpZ2FuZF9wcmVwLm1hZScsICctbXMnLCAnMScsICctcGgnLCAnNycsICctcGh0JywgJzAuNScsICctbnQn

> <r_lp_tautomer_probability>
1

> <r_epik_Ionization_Penalty>
  0.0000

> <r_epik_Ionization_Penalty_Charging>
  0.0000

> <r_epik_Ionization_Penalty_Neutral>
  0.0000

> <r_epik_State_Penalty>
 -0.0000

> <r_epik_Charging_Adjusted_Penalty>
0

> <i_epik_Tot_Q>
0

> <i_epik_Tot_abs_Q>
0

$$$$
