4bb9_ligand
                    3D
 Schrodinger Suite 2020-3.
 27 27  0  0  1  0            999 V2000
   50.6400   31.4180   15.6160 C   0  0  0  0  0  0
   49.2680   31.2540   14.9520 C   0  0  1  0  0  0
   48.1950   31.7850   15.8920 C   0  0  2  0  0  0
   46.8130   31.5870   15.3030 C   0  0  1  0  0  0
   46.5700   30.1030   15.0980 C   0  0  1  0  0  0
   47.6610   29.6080   14.0850 C   0  0  0  0  0  0
   50.6800   30.6200   16.7980 O   0  0  0  0  0  0
   49.2630   31.9930   13.7380 O   0  0  0  0  0  0
   48.4020   33.1590   16.2250 O   0  0  0  0  0  0
   45.8050   32.0310   16.2650 O   0  0  0  0  0  0
   46.6830   29.3320   16.3310 O   0  0  0  0  0  0
   48.9880   29.8660   14.7110 O   0  0  0  0  0  0
   51.9560   30.7580   17.7460 P   0  0  0  0  0  0
   51.7970   29.6020   18.7390 O   0  0  0  0  0  0
   51.9440   32.1350   18.4600 O   0  5  0  0  0  0
   53.2200   30.7000   16.8480 O   0  5  0  0  0  0
   51.4259   31.0904   14.9195 H   0  0  0  0  0  0
   50.7977   32.4752   15.8757 H   0  0  0  0  0  0
   48.2773   31.2643   16.8575 H   0  0  0  0  0  0
   46.7225   32.1684   14.3736 H   0  0  0  0  0  0
   45.5254   29.9456   14.7912 H   0  0  0  0  0  0
   47.5240   28.5333   13.8947 H   0  0  0  0  0  0
   47.5630   30.1630   13.1403 H   0  0  0  0  0  0
   49.4613   33.0749   13.7519 H   0  0  0  0  0  0
   49.3573   33.4802   16.6657 H   0  0  0  0  0  0
   45.7726   33.0841   16.5812 H   0  0  0  0  0  0
   45.9997   29.5323   17.1695 H   0  0  0  0  0  0
  1  2  1  0  0  0
  1  7  1  0  0  0
  1 17  1  0  0  0
  1 18  1  0  0  0
  2  3  1  0  0  0
  2  8  1  0  0  0
  2 12  1  0  0  0
  3  4  1  0  0  0
  3  9  1  0  0  0
  3 19  1  0  0  0
  4  5  1  0  0  0
  4 10  1  0  0  0
  4 20  1  0  0  0
  5  6  1  0  0  0
  5 11  1  0  0  0
  5 21  1  0  0  0
  6 12  1  0  0  0
  6 22  1  0  0  0
  6 23  1  0  0  0
  7 13  1  0  0  0
  8 24  1  0  0  0
  9 25  1  0  0  0
 10 26  1  0  0  0
 11 27  1  0  0  0
 13 14  2  0  0  0
 13 15  1  0  0  0
 13 16  1  0  0  0
M  CHG  2  15  -1  16  -1
M  END
> <s_m_source_file>
../4bb9_ligand.sdf

> <i_m_source_file_index>
1

> <s_epik_input>
Tz1QKFtPSF0pKFtPSF0pT1tDSDJdW0NAXTEoW09IXSlbQ0BASF0oW09IXSlbQ0BIXShbT0hdKVtDQEBIXShbQ0gyXU8xKVtPSF0=

> <s_epik_cmdline>
J2VwaWtfYXBwJywgJy1pbWFlJywgJ2xpZ2FuZF9wcm8ubWFlJywgJy1vbWFlJywgJ2xpZ2FuZF9wcmVwLm1hZScsICctbXMnLCAnMScsICctcGgnLCAnNycsICctcGh0JywgJzAuNScsICctbnQn

> <r_epik_Ionization_Penalty>
  0.0892

> <r_epik_Ionization_Penalty_Charging>
  0.0892

> <r_epik_Ionization_Penalty_Neutral>
  0.0000

> <r_epik_State_Penalty>
  0.0797

> <r_epik_Charging_Adjusted_Penalty>
0.168898609911678

> <i_epik_Tot_Q>
-2

> <i_epik_Tot_abs_Q>
2

$$$$
