4bbe_ligand
                    3D
 Schrodinger Suite 2020-3.
 52 55  0  0  1  0            999 V2000
    2.6020   -6.9730   -6.0520 O   0  0  0  0  0  0
    1.6770   -7.7360   -5.7750 C   0  0  0  0  0  0
    1.6930   -8.6600   -4.8080 N   0  0  0  0  0  0
    2.7050   -8.9160   -3.9660 C   0  0  0  0  0  0
    3.9640   -8.3180   -4.0850 C   0  0  0  0  0  0
    0.3690   -7.6770   -6.5640 C   0  0  0  0  0  0
    3.4870  -10.1240   -2.0230 C   0  0  0  0  0  0
    4.7450   -9.5300   -2.1420 C   0  0  0  0  0  0
    5.7420   -9.8450   -1.2160 C   0  0  0  0  0  0
    6.9870   -9.2220   -1.2470 C   0  0  0  0  0  0
    7.9290   -9.5790   -0.2880 C   0  0  0  0  0  0
    7.6340  -10.4910    0.6270 N   0  0  0  0  0  0
    6.4270  -11.0880    0.6560 C   0  0  0  0  0  0
    5.4970  -10.7610   -0.2620 N   0  0  0  0  0  0
    6.1890  -12.0030    1.6080 N   0  0  0  0  0  0
    5.0140  -12.5920    1.8910 C   0  0  0  0  0  0
    5.0250  -13.6820    2.7600 C   0  0  0  0  0  0
    3.8440  -14.3390    3.0970 C   0  0  0  0  0  0
    2.6230  -13.9130    2.5700 C   0  0  0  0  0  0
    2.6060  -12.8170    1.7010 C   0  0  0  0  0  0
    3.7910  -12.1610    1.3670 C   0  0  0  0  0  0
    2.4740   -9.8200   -2.9300 C   0  0  0  0  0  0
    1.4280  -14.5830    2.9250 N   0  0  0  0  0  0
    4.9780   -8.6210   -3.1770 C   0  0  0  0  0  0
    1.3720  -15.3760    4.1890 C   0  0  0  0  0  0
    0.5050  -16.6310    4.0280 C   0  0  0  0  0  0
   -0.7680  -16.2520    3.4610 O   0  0  0  0  0  0
   -0.6210  -15.7790    2.1030 C   0  0  0  0  0  0
    0.2190  -14.4920    2.0540 C   0  0  0  0  0  0
    0.8138   -9.3006   -4.6448 H   0  0  0  0  0  0
    4.1536   -7.6108   -4.8925 H   0  0  0  0  0  0
    0.4406   -6.8953   -7.3346 H   0  0  0  0  0  0
   -0.4610   -7.4435   -5.8809 H   0  0  0  0  0  0
    0.1862   -8.6497   -7.0441 H   0  0  0  0  0  0
    3.2961  -10.8303   -1.2151 H   0  0  0  0  0  0
    7.2177   -8.4728   -2.0044 H   0  0  0  0  0  0
    8.9118   -9.1077   -0.2891 H   0  0  0  0  0  0
    7.0074  -12.3461    2.2580 H   0  0  0  0  0  0
    5.9701  -14.0246    3.1812 H   0  0  0  0  0  0
    3.8730  -15.1910    3.7763 H   0  0  0  0  0  0
    1.6604  -12.4732    1.2819 H   0  0  0  0  0  0
    3.7635  -11.3055    0.6921 H   0  0  0  0  0  0
    1.4963  -10.2911   -2.8292 H   0  0  0  0  0  0
    5.9549   -8.1475   -3.2750 H   0  0  0  0  0  0
    2.3882  -15.6890    4.4708 H   0  0  0  0  0  0
    0.9432  -14.7575    4.9912 H   0  0  0  0  0  0
    1.0116  -17.3434    3.3603 H   0  0  0  0  0  0
    0.3492  -17.0977    5.0118 H   0  0  0  0  0  0
   -0.1202  -16.5496    1.4985 H   0  0  0  0  0  0
   -1.6137  -15.5680    1.6787 H   0  0  0  0  0  0
   -0.4122  -13.6557    2.3891 H   0  0  0  0  0  0
    0.5294  -14.3227    1.0124 H   0  0  0  0  0  0
  1  2  2  0  0  0
  2  3  1  0  0  0
  2  6  1  0  0  0
  3  4  1  0  0  0
  3 30  1  0  0  0
  4  5  2  0  0  0
  4 22  1  0  0  0
  5 24  1  0  0  0
  5 31  1  0  0  0
  6 32  1  0  0  0
  6 33  1  0  0  0
  6 34  1  0  0  0
  7  8  1  0  0  0
  7 22  2  0  0  0
  7 35  1  0  0  0
  8  9  1  0  0  0
  8 24  2  0  0  0
  9 10  2  0  0  0
  9 14  1  0  0  0
 10 11  1  0  0  0
 10 36  1  0  0  0
 11 12  2  0  0  0
 11 37  1  0  0  0
 12 13  1  0  0  0
 13 14  2  0  0  0
 13 15  1  0  0  0
 15 16  1  0  0  0
 15 38  1  0  0  0
 16 17  2  0  0  0
 16 21  1  0  0  0
 17 18  1  0  0  0
 17 39  1  0  0  0
 18 19  2  0  0  0
 18 40  1  0  0  0
 19 20  1  0  0  0
 19 23  1  0  0  0
 20 21  2  0  0  0
 20 41  1  0  0  0
 21 42  1  0  0  0
 22 43  1  0  0  0
 23 25  1  0  0  0
 23 29  1  0  0  0
 24 44  1  0  0  0
 25 26  1  0  0  0
 25 45  1  0  0  0
 25 46  1  0  0  0
 26 27  1  0  0  0
 26 47  1  0  0  0
 26 48  1  0  0  0
 27 28  1  0  0  0
 28 29  1  0  0  0
 28 49  1  0  0  0
 28 50  1  0  0  0
 29 51  1  0  0  0
 29 52  1  0  0  0
M  END
> <s_m_source_file>
../4bbe_ligand.sdf

> <i_m_source_file_index>
1

> <s_epik_input>
Tz1DKFtDSDNdKVtOSF1jMVtjSF1bY0hdYyhbY0hdW2NIXTEpLWMyW2NIXVtjSF1uYyhuMilbTkhdYzNbY0hdW2NIXWMoW2NIXVtjSF0zKU40W0NIMl1bQ0gyXU9bQ0gyXVtDSDJdNA==

> <s_epik_cmdline>
J2VwaWtfYXBwJywgJy1pbWFlJywgJ2xpZ2FuZF9wcm8ubWFlJywgJy1vbWFlJywgJ2xpZ2FuZF9wcmVwLm1hZScsICctbXMnLCAnMScsICctcGgnLCAnNycsICctcGh0JywgJzAuNScsICctbnQn

> <r_lp_tautomer_probability>
1

> <r_epik_Ionization_Penalty>
  0.0002

> <r_epik_Ionization_Penalty_Charging>
  0.0000

> <r_epik_Ionization_Penalty_Neutral>
  0.0002

> <r_epik_State_Penalty>
 -0.0000

> <r_epik_Charging_Adjusted_Penalty>
0

> <i_epik_Tot_Q>
0

> <i_epik_Tot_abs_Q>
0

$$$$
