4bbf_ligand
                    3D
 Schrodinger Suite 2020-3.
 62 66  0  0  1  0            999 V2000
   -1.3500  -26.8590  -32.1030 O   0  0  0  0  0  0
   -1.8570  -25.8660  -31.5760 C   0  0  0  0  0  0
   -1.1160  -25.1280  -30.5140 C   0  0  1  0  0  0
   -1.6610  -25.6520  -29.1790 C   0  0  0  0  0  0
   -0.8600  -26.9320  -28.9120 C   0  0  0  0  0  0
    0.4980  -26.6410  -29.5170 C   0  0  0  0  0  0
    0.2640  -25.5430  -30.4660 N   0  3  0  0  0  0
   -3.1000  -25.4040  -31.7760 N   0  0  0  0  0  0
   -4.0890  -25.8690  -32.6570 C   0  0  0  0  0  0
   -3.9360  -27.0530  -33.3960 C   0  0  0  0  0  0
   -5.2650  -25.1050  -32.7280 C   0  0  0  0  0  0
   -6.3400  -25.5260  -33.5280 C   0  0  0  0  0  0
   -6.1710  -26.7120  -34.2750 C   0  0  0  0  0  0
   -5.0000  -27.4500  -34.2170 C   0  0  0  0  0  0
   -7.2250  -27.1730  -35.2020 C   0  0  0  0  0  0
   -6.8070  -28.0420  -36.1570 N   0  0  0  0  0  0
   -7.6990  -28.5560  -37.0220 C   0  0  0  0  0  0
   -8.9470  -28.1300  -36.9750 N   0  0  0  0  0  0
   -9.4340  -27.2370  -36.0740 C   0  0  0  0  0  0
   -8.5740  -26.7360  -35.1040 C   0  0  0  0  0  0
   -7.4000  -29.3640  -38.0600 N   0  0  0  0  0  0
   -6.2160  -30.0380  -38.3500 C   0  0  0  0  0  0
   -4.9810  -29.7400  -37.7480 C   0  0  0  0  0  0
   -3.8460  -30.4820  -38.0600 C   0  0  0  0  0  0
   -3.9660  -31.5420  -38.9540 C   0  0  0  0  0  0
   -5.1840  -31.8540  -39.5390 C   0  0  0  0  0  0
   -6.3060  -31.1060  -39.2330 C   0  0  0  0  0  0
   -2.8620  -32.3230  -39.2560 N   0  0  0  0  0  0
   -1.8720  -32.6030  -38.1750 C   0  0  0  0  0  0
   -0.7540  -33.5720  -38.5840 C   0  0  0  0  0  0
   -0.7980  -33.9930  -39.9560 O   0  0  0  0  0  0
   -2.1180  -34.2200  -40.4710 C   0  0  0  0  0  0
   -2.7840  -32.8670  -40.6180 C   0  0  0  0  0  0
   -1.1765  -24.0492  -30.7205 H   0  0  0  0  0  0
   -1.5001  -24.8968  -28.3955 H   0  0  0  0  0  0
   -2.7376  -25.8551  -29.2768 H   0  0  0  0  0  0
   -0.8033  -27.1096  -27.8279 H   0  0  0  0  0  0
   -1.3580  -27.7842  -29.3976 H   0  0  0  0  0  0
    1.1986  -26.3477  -28.7213 H   0  0  0  0  0  0
    0.8746  -27.5420  -30.0233 H   0  0  0  0  0  0
    0.5779  -25.8883  -31.4621 H   0  0  0  0  0  0
    0.8917  -24.6940  -30.1576 H   0  0  0  0  0  0
   -3.4643  -24.5391  -31.2021 H   0  0  0  0  0  0
   -3.0215  -27.6428  -33.3333 H   0  0  0  0  0  0
   -5.3442  -24.1790  -32.1585 H   0  0  0  0  0  0
   -7.2696  -24.9585  -33.5705 H   0  0  0  0  0  0
   -4.9048  -28.3535  -34.8193 H   0  0  0  0  0  0
  -10.4764  -26.9205  -36.1112 H   0  0  0  0  0  0
   -8.9107  -26.0551  -34.3222 H   0  0  0  0  0  0
   -8.1550  -29.5679  -38.8336 H   0  0  0  0  0  0
   -4.9121  -28.9215  -37.0314 H   0  0  0  0  0  0
   -2.8822  -30.2380  -37.6132 H   0  0  0  0  0  0
   -5.2567  -32.6869  -40.2384 H   0  0  0  0  0  0
   -7.2651  -31.3557  -39.6868 H   0  0  0  0  0  0
   -1.3894  -31.6636  -37.8675 H   0  0  0  0  0  0
   -2.3877  -33.0498  -37.3122 H   0  0  0  0  0  0
    0.2230  -33.0905  -38.4301 H   0  0  0  0  0  0
   -0.8149  -34.4824  -37.9697 H   0  0  0  0  0  0
   -2.0494  -34.7242  -41.4462 H   0  0  0  0  0  0
   -2.6813  -34.8531  -39.7697 H   0  0  0  0  0  0
   -3.7979  -32.9597  -41.0344 H   0  0  0  0  0  0
   -2.1887  -32.1909  -41.2493 H   0  0  0  0  0  0
  1  2  2  0  0  0
  2  3  1  0  0  0
  2  8  1  0  0  0
  3  4  1  0  0  0
  3  7  1  0  0  0
  3 34  1  0  0  0
  4  5  1  0  0  0
  4 35  1  0  0  0
  4 36  1  0  0  0
  5  6  1  0  0  0
  5 37  1  0  0  0
  5 38  1  0  0  0
  6  7  1  0  0  0
  6 39  1  0  0  0
  6 40  1  0  0  0
  7 41  1  0  0  0
  7 42  1  0  0  0
  8  9  1  0  0  0
  8 43  1  0  0  0
  9 10  2  0  0  0
  9 11  1  0  0  0
 10 14  1  0  0  0
 10 44  1  0  0  0
 11 12  2  0  0  0
 11 45  1  0  0  0
 12 13  1  0  0  0
 12 46  1  0  0  0
 13 14  2  0  0  0
 13 15  1  0  0  0
 14 47  1  0  0  0
 15 16  2  0  0  0
 15 20  1  0  0  0
 16 17  1  0  0  0
 17 18  2  0  0  0
 17 21  1  0  0  0
 18 19  1  0  0  0
 19 20  2  0  0  0
 19 48  1  0  0  0
 20 49  1  0  0  0
 21 22  1  0  0  0
 21 50  1  0  0  0
 22 23  2  0  0  0
 22 27  1  0  0  0
 23 24  1  0  0  0
 23 51  1  0  0  0
 24 25  2  0  0  0
 24 52  1  0  0  0
 25 26  1  0  0  0
 25 28  1  0  0  0
 26 27  2  0  0  0
 26 53  1  0  0  0
 27 54  1  0  0  0
 28 29  1  0  0  0
 28 33  1  0  0  0
 29 30  1  0  0  0
 29 55  1  0  0  0
 29 56  1  0  0  0
 30 31  1  0  0  0
 30 57  1  0  0  0
 30 58  1  0  0  0
 31 32  1  0  0  0
 32 33  1  0  0  0
 32 59  1  0  0  0
 32 60  1  0  0  0
 33 61  1  0  0  0
 33 62  1  0  0  0
M  CHG  1   7   1
M  END
> <s_m_source_file>
../4bbf_ligand.sdf

> <i_m_source_file_index>
1

> <s_epik_input>
W05IMitdMVtDSDJdW0NIMl1bQ0gyXVtDQEBIXTFDKD1PKVtOSF1jMltjSF1bY0hdYyhbY0hdW2NIXTIpLWMzbmMobltjSF1bY0hdMylbTkhdYzRbY0hdW2NIXWMoW2NIXVtjSF00KU41W0NIMl1bQ0gyXU9bQ0gyXVtDSDJdNQ==

> <s_epik_cmdline>
J2VwaWtfYXBwJywgJy1pbWFlJywgJ2xpZ2FuZF9wcm8ubWFlJywgJy1vbWFlJywgJ2xpZ2FuZF9wcmVwLm1hZScsICctbXMnLCAnMScsICctcGgnLCAnNycsICctcGh0JywgJzAuNScsICctbnQn

> <r_lp_tautomer_probability>
0.999999987636

> <r_epik_Ionization_Penalty>
  0.0570

> <r_epik_Ionization_Penalty_Charging>
  0.0568

> <r_epik_Ionization_Penalty_Neutral>
  0.0002

> <r_epik_State_Penalty>
  0.0490

> <r_epik_Charging_Adjusted_Penalty>
0.105810602595158

> <i_epik_Tot_Q>
1

> <i_epik_Tot_abs_Q>
1

$$$$
