4bbg_ligand
                    3D
 Schrodinger Suite 2020-3.
 52 54  0  0  1  0            999 V2000
   18.9120   33.6420  -23.6650 C   0  0  0  0  0  0
   17.8190   33.0290  -22.8690 C   0  0  0  0  0  0
   16.9460   32.2600  -23.7840 C   0  0  0  0  0  0
   16.7170   30.9520  -23.4950 C   0  0  0  0  0  0
   16.3990   32.8540  -24.8830 C   0  0  0  0  0  0
   15.5890   32.1000  -25.6870 C   0  0  0  0  0  0
   15.3630   30.7870  -25.3970 C   0  0  0  0  0  0
   15.9130   30.2050  -24.2980 C   0  0  0  0  0  0
   14.8970   32.6380  -26.9260 C   0  0  1  0  0  0
   15.3910   34.6160  -28.2610 C   0  0  0  0  0  0
   15.3610   35.9570  -28.5250 C   0  0  0  0  0  0
   14.7460   36.7930  -27.6330 C   0  0  0  0  0  0
   14.1580   36.2900  -26.4980 C   0  0  0  0  0  0
   14.1880   34.9450  -26.2380 C   0  0  0  0  0  0
   14.8210   34.1190  -27.1200 C   0  0  0  0  0  0
   15.9130   32.2250  -28.3200 S   0  0  0  0  0  0
   17.5720   32.2060  -27.5400 C   0  0  0  0  0  0
   18.7110   32.7760  -28.3880 C   0  0  0  0  0  0
   19.5250   31.6750  -28.8810 N   0  3  0  0  0  0
   11.3700   31.4120  -26.6220 C   0  0  0  0  0  0
   12.5560   32.0110  -26.3040 C   0  0  0  0  0  0
   13.5800   31.9940  -27.2050 C   0  0  0  0  0  0
   13.4180   31.3890  -28.4120 C   0  0  0  0  0  0
   12.2330   30.7870  -28.7260 C   0  0  0  0  0  0
   11.2020   30.7970  -27.8360 C   0  0  0  0  0  0
   12.0820   30.1950  -29.9130 O   0  0  0  0  0  0
   19.5715   34.2183  -22.9995 H   0  0  0  0  0  0
   18.4816   34.3115  -24.4243 H   0  0  0  0  0  0
   19.4927   32.8504  -24.1610 H   0  0  0  0  0  0
   18.2494   32.3595  -22.1097 H   0  0  0  0  0  0
   17.2382   33.8206  -22.3729 H   0  0  0  0  0  0
   17.1791   30.5004  -22.6171 H   0  0  0  0  0  0
   16.6015   33.8998  -25.1141 H   0  0  0  0  0  0
   14.7306   30.1937  -26.0575 H   0  0  0  0  0  0
   15.7131   29.1591  -24.0650 H   0  0  0  0  0  0
   15.8727   33.9371  -28.9647 H   0  0  0  0  0  0
   15.8193   36.3537  -29.4309 H   0  0  0  0  0  0
   14.7226   37.8658  -27.8245 H   0  0  0  0  0  0
   13.6642   36.9654  -25.7994 H   0  0  0  0  0  0
   13.7146   34.5423  -25.3425 H   0  0  0  0  0  0
   17.5491   32.8009  -26.6150 H   0  0  0  0  0  0
   17.8537   31.1695  -27.3025 H   0  0  0  0  0  0
   18.2914   33.3379  -29.2355 H   0  0  0  0  0  0
   19.3265   33.4476  -27.7715 H   0  0  0  0  0  0
   20.3481   32.0728  -29.4928 H   0  0  0  0  0  0
   18.9035   31.0051  -29.4934 H   0  0  0  0  0  0
   19.9386   31.1149  -28.0294 H   0  0  0  0  0  0
   10.5498   31.4231  -25.9041 H   0  0  0  0  0  0
   12.6830   32.4988  -25.3376 H   0  0  0  0  0  0
   14.2368   31.3845  -29.1315 H   0  0  0  0  0  0
   10.2537   30.3213  -28.0861 H   0  0  0  0  0  0
   12.9137   30.1860  -30.6329 H   0  0  0  0  0  0
  1  2  1  0  0  0
  1 27  1  0  0  0
  1 28  1  0  0  0
  1 29  1  0  0  0
  2  3  1  0  0  0
  2 30  1  0  0  0
  2 31  1  0  0  0
  3  4  2  0  0  0
  3  5  1  0  0  0
  4  8  1  0  0  0
  4 32  1  0  0  0
  5  6  2  0  0  0
  5 33  1  0  0  0
  6  7  1  0  0  0
  6  9  1  0  0  0
  7  8  2  0  0  0
  7 34  1  0  0  0
  8 35  1  0  0  0
  9 15  1  0  0  0
  9 16  1  0  0  0
  9 22  1  0  0  0
 10 11  2  0  0  0
 10 15  1  0  0  0
 10 36  1  0  0  0
 11 12  1  0  0  0
 11 37  1  0  0  0
 12 13  2  0  0  0
 12 38  1  0  0  0
 13 14  1  0  0  0
 13 39  1  0  0  0
 14 15  2  0  0  0
 14 40  1  0  0  0
 16 17  1  0  0  0
 17 18  1  0  0  0
 17 41  1  0  0  0
 17 42  1  0  0  0
 18 19  1  0  0  0
 18 43  1  0  0  0
 18 44  1  0  0  0
 19 45  1  0  0  0
 19 46  1  0  0  0
 19 47  1  0  0  0
 20 21  2  0  0  0
 20 25  1  0  0  0
 20 48  1  0  0  0
 21 22  1  0  0  0
 21 49  1  0  0  0
 22 23  2  0  0  0
 23 24  1  0  0  0
 23 50  1  0  0  0
 24 25  2  0  0  0
 24 26  1  0  0  0
 25 51  1  0  0  0
 26 52  1  0  0  0
M  CHG  1  19   1
M  END
> <s_m_source_file>
../4bbg_ligand.sdf

> <i_m_source_file_index>
1

> <s_epik_input>
W0NIM11bQ0gyXWMxW2NIXVtjSF1bY0hdYyhbY0hdMSlbQ0BdKFNbQ0gyXVtDSDJdW05IMytdKShjMltjSF1bY0hdW2NIXVtjSF1bY0hdMiljM1tjSF1bY0hdW2NIXWMoW2NIXTMpW09IXQ==

> <s_epik_cmdline>
J2VwaWtfYXBwJywgJy1pbWFlJywgJ2xpZ2FuZF9wcm8ubWFlJywgJy1vbWFlJywgJ2xpZ2FuZF9wcmVwLm1hZScsICctbXMnLCAnMScsICctcGgnLCAnNycsICctcGh0JywgJzAuNScsICctbnQn

> <r_lp_tautomer_probability>
1

> <r_epik_Ionization_Penalty>
  0.0041

> <r_epik_Ionization_Penalty_Charging>
  0.0021

> <r_epik_Ionization_Penalty_Neutral>
  0.0020

> <r_epik_State_Penalty>
 -0.0000

> <r_epik_Charging_Adjusted_Penalty>
0.0020785735786874

> <i_epik_Tot_Q>
1

> <i_epik_Tot_abs_Q>
1

$$$$
