4bc5_ligand
                    3D
 Schrodinger Suite 2020-3.
 19 18  0  0  1  0            999 V2000
   13.7970   -0.4910   29.2660 C   0  0  0  0  0  0
   13.9580    0.8860   29.5850 O   0  0  0  0  0  0
   14.9010   -1.3640   29.9260 C   0  0  0  0  0  0
   15.7190   -0.9170   30.6970 O   0  0  0  0  0  0
   14.9750   -2.8260   29.5940 C   0  0  1  0  0  0
   13.7970   -3.3060   28.9740 O   0  0  0  0  0  0
   16.2730   -3.1700   28.7870 C   0  0  2  0  0  0
   16.1590   -2.7380   27.4240 O   0  0  0  0  0  0
   16.3790   -4.7090   28.7750 C   0  0  0  0  0  0
   17.6090   -5.0480   28.1400 F   0  0  0  0  0  0
   12.8176   -0.8388   29.6264 H   0  0  0  0  0  0
   13.8548   -0.6240   28.1756 H   0  0  0  0  0  0
   13.2500    1.6288   29.1888 H   0  0  0  0  0  0
   14.9351   -3.3794   30.5438 H   0  0  0  0  0  0
   12.8176   -3.1288   29.4424 H   0  0  0  0  0  0
   17.1622   -2.6505   29.1737 H   0  0  0  0  0  0
   16.0704   -1.6663   27.1923 H   0  0  0  0  0  0
   16.3630   -5.0857   29.8084 H   0  0  0  0  0  0
   15.5295   -5.1307   28.2178 H   0  0  0  0  0  0
  1  2  1  0  0  0
  1  3  1  0  0  0
  1 11  1  0  0  0
  1 12  1  0  0  0
  2 13  1  0  0  0
  3  4  2  0  0  0
  3  5  1  0  0  0
  5  6  1  0  0  0
  5  7  1  0  0  0
  5 14  1  0  0  0
  6 15  1  0  0  0
  7  8  1  0  0  0
  7  9  1  0  0  0
  7 16  1  0  0  0
  8 17  1  0  0  0
  9 10  1  0  0  0
  9 18  1  0  0  0
  9 19  1  0  0  0
M  END
> <s_m_source_file>
../4bc5_ligand.sdf

> <i_m_source_file_index>
1

> <s_epik_input>
W09IXVtDSDJdQyg9TylbQ0BASF0oW09IXSlbQ0BIXShbT0hdKVtDSDJdRg==

> <s_epik_cmdline>
J2VwaWtfYXBwJywgJy1pbWFlJywgJ2xpZ2FuZF9wcm8ubWFlJywgJy1vbWFlJywgJ2xpZ2FuZF9wcmVwLm1hZScsICctbXMnLCAnMScsICctcGgnLCAnNycsICctcGh0JywgJzAuNScsICctbnQn

> <r_lp_tautomer_probability>
1

> <r_epik_Ionization_Penalty>
  0.0000

> <r_epik_Ionization_Penalty_Charging>
  0.0000

> <r_epik_Ionization_Penalty_Neutral>
  0.0000

> <r_epik_State_Penalty>
 -0.0000

> <r_epik_Charging_Adjusted_Penalty>
0

> <i_epik_Tot_Q>
0

> <i_epik_Tot_abs_Q>
0

$$$$
