4bcb_ligand
                    3D
 Schrodinger Suite 2020-3.
 54 56  0  0  1  0            999 V2000
   42.4870   37.8250   86.0200 C   0  0  0  0  0  0
   43.9410   38.0060   85.5470 C   0  0  0  0  0  0
   44.9410   37.9630   86.7070 C   0  0  0  0  0  0
   45.0670   36.5460   87.2640 C   0  0  0  0  0  0
   45.4310   35.4920   86.4410 C   0  0  0  0  0  0
   44.8420   36.3140   88.6190 C   0  0  0  0  0  0
   45.5320   34.1970   86.9560 C   0  0  0  0  0  0
   44.9550   35.0170   89.1510 C   0  0  0  0  0  0
   45.3090   33.9520   88.3170 C   0  0  0  0  0  0
   41.5840   37.4350   84.8510 C   0  0  0  0  0  0
   42.0250   37.3970   83.7200 O   0  0  0  0  0  0
   39.1610   38.9710   83.3580 O   0  0  0  0  0  0
   39.0090   37.7590   83.0970 C   0  0  0  0  0  0
   39.3820   36.7050   84.0900 C   0  0  2  0  0  0
   38.1520   36.1970   84.8570 C   0  0  0  0  0  0
   38.2240   36.8900   86.1980 C   0  0  2  0  0  0
   37.6290   38.2030   85.9780 N   0  0  0  0  0  0
   36.4360   38.4290   86.2290 N   0  0  0  0  0  0
   35.1750   38.6560   86.4950 N   0  0  0  0  0  0
   39.6990   37.1720   86.4660 C   0  0  0  0  0  0
   40.3110   37.1350   85.1400 N   0  0  0  0  0  0
   38.5490   37.3030   81.9080 N   0  0  0  0  0  0
   38.3650   35.8960   81.4800 C   0  0  0  0  0  0
   37.8540   35.9950   80.0490 C   0  0  0  0  0  0
   38.2100   37.4160   79.6110 C   0  0  0  0  0  0
   38.1290   38.2370   80.8840 C   0  0  1  0  0  0
   36.6930   38.6860   81.0920 C   0  0  0  0  0  0
   35.8430   37.9600   81.6630 N   0  0  0  0  0  0
   42.4452   37.0324   86.7816 H   0  0  0  0  0  0
   42.1219   38.7683   86.4522 H   0  0  0  0  0  0
   44.2008   37.2008   84.8440 H   0  0  0  0  0  0
   44.0447   38.9790   85.0445 H   0  0  0  0  0  0
   45.9285   38.2931   86.3522 H   0  0  0  0  0  0
   44.5984   38.6305   87.5114 H   0  0  0  0  0  0
   45.6395   35.6741   85.3868 H   0  0  0  0  0  0
   44.5761   37.1448   89.2726 H   0  0  0  0  0  0
   45.7865   33.3702   86.2929 H   0  0  0  0  0  0
   44.7672   34.8425   90.2104 H   0  0  0  0  0  0
   45.4101   32.9445   88.7206 H   0  0  0  0  0  0
   39.8954   35.9616   83.4624 H   0  0  0  0  0  0
   37.2390   36.4669   84.3059 H   0  0  0  0  0  0
   38.2092   35.1032   84.9585 H   0  0  0  0  0  0
   37.7223   36.3299   87.0009 H   0  0  0  0  0  0
   39.8030   38.1574   86.9437 H   0  0  0  0  0  0
   40.1054   36.3968   87.1323 H   0  0  0  0  0  0
   39.3278   35.3670   81.5356 H   0  0  0  0  0  0
   37.6373   35.4036   82.1418 H   0  0  0  0  0  0
   38.3542   35.2374   79.4278 H   0  0  0  0  0  0
   36.7678   35.8219   80.0347 H   0  0  0  0  0  0
   39.2225   37.4243   79.1811 H   0  0  0  0  0  0
   37.4879   37.7585   78.8552 H   0  0  0  0  0  0
   36.3694   39.6758   80.7376 H   0  0  0  0  0  0
   36.1291   36.9637   82.0311 H   0  0  0  0  0  0
   34.8121   38.3201   81.7953 H   0  0  0  0  0  0
  1  2  1  0  0  0
  1 10  1  0  0  0
  1 29  1  0  0  0
  1 30  1  0  0  0
  2  3  1  0  0  0
  2 31  1  0  0  0
  2 32  1  0  0  0
  3  4  1  0  0  0
  3 33  1  0  0  0
  3 34  1  0  0  0
  4  5  2  0  0  0
  4  6  1  0  0  0
  5  7  1  0  0  0
  5 35  1  0  0  0
  6  8  2  0  0  0
  6 36  1  0  0  0
  7  9  2  0  0  0
  7 37  1  0  0  0
  8  9  1  0  0  0
  8 38  1  0  0  0
  9 39  1  0  0  0
 10 11  2  0  0  0
 10 21  1  0  0  0
 12 13  2  0  0  0
 13 14  1  0  0  0
 13 22  1  0  0  0
 14 15  1  0  0  0
 14 21  1  0  0  0
 14 40  1  0  0  0
 15 16  1  0  0  0
 15 41  1  0  0  0
 15 42  1  0  0  0
 16 17  1  0  0  0
 16 20  1  0  0  0
 16 43  1  0  0  0
 17 18  2  0  0  0
 18 19  3  0  0  0
 20 21  1  0  0  0
 20 44  1  0  0  0
 20 45  1  0  0  0
 22 23  1  0  0  0
 22 26  1  0  0  0
 23 24  1  0  0  0
 23 46  1  0  0  0
 23 47  1  0  0  0
 24 25  1  0  0  0
 24 48  1  0  0  0
 24 49  1  0  0  0
 25 26  1  0  0  0
 25 50  1  0  0  0
 25 51  1  0  0  0
 26 27  2  0  0  0
 27 28  1  0  0  0
 27 52  1  0  0  0
 28 53  1  0  0  0
 28 54  1  0  0  0
M  END
> <s_m_source_file>
../4bcb_ligand.sdf

> <i_m_source_file_index>
1

> <s_epik_input>
W2NIXTFbY0hdW2NIXVtjSF1bY0hdYzFbQ0gyXVtDSDJdW0NIMl1DKD1PKU4yW0NIMl1bQ0BASF0oTj1OI04pW0NIMl1bQ0BIXTJDKD1PKU4zW0NIMl1bQ0gyXVtDSDJdW0NASF0zL1tDSF09TlxbSF0=

> <s_epik_cmdline>
J2VwaWtfYXBwJywgJy1pbWFlJywgJ2xpZ2FuZF9wcm8ubWFlJywgJy1vbWFlJywgJ2xpZ2FuZF9wcmVwLm1hZScsICctbXMnLCAnMScsICctcGgnLCAnNycsICctcGh0JywgJzAuNScsICctbnQn

> <r_lp_tautomer_probability>
1

> <r_epik_Ionization_Penalty>
  0.0000

> <r_epik_Ionization_Penalty_Charging>
  0.0000

> <r_epik_Ionization_Penalty_Neutral>
  0.0000

> <r_epik_State_Penalty>
 -0.0000

> <r_epik_Charging_Adjusted_Penalty>
4.03127805204316e-08

> <i_epik_Tot_Q>
0

> <i_epik_Tot_abs_Q>
0

> <s_epik_Chemistry_Notes>
This compound has an imine and may undergo hydrolysis.

$$$$
