4bcc_ligand
                    3D
 Schrodinger Suite 2020-3.
 78 81  0  0  1  0            999 V2000
   42.6820   37.5600   85.9250 C   0  0  0  0  0  0
   44.0940   37.8460   85.4300 C   0  0  0  0  0  0
   45.0890   37.7900   86.5920 C   0  0  0  0  0  0
   45.1650   36.3770   87.1640 C   0  0  0  0  0  0
   44.9430   36.1700   88.5160 C   0  0  0  0  0  0
   45.4810   35.3140   86.3440 C   0  0  0  0  0  0
   44.9900   34.8780   89.0560 C   0  0  0  0  0  0
   45.5360   34.0220   86.8650 C   0  0  0  0  0  0
   45.2810   33.7940   88.2200 C   0  0  0  0  0  0
   41.7600   37.2300   84.7710 C   0  0  0  0  0  0
   42.1310   37.2630   83.6150 O   0  0  0  0  0  0
   40.4370   37.0190   85.0730 N   0  0  0  0  0  0
   40.1030   36.5200   86.4200 C   0  0  0  0  0  0
   39.6100   36.3810   84.0440 C   0  0  2  0  0  0
   39.1030   37.5220   83.1770 C   0  0  0  0  0  0
   39.2010   38.7100   83.5140 O   0  0  0  0  0  0
   38.5610   35.6240   84.8290 C   0  0  0  0  0  0
   38.6410   36.1850   86.2340 C   0  0  2  0  0  0
   37.8030   37.4090   86.1970 N   0  0  0  0  0  0
   38.2400   38.5820   86.8260 N   0  0  0  0  0  0
   37.1990   39.5130   86.6230 N   0  0  0  0  0  0
   36.5960   37.5810   85.6660 C   0  0  0  0  0  0
   36.2240   38.8880   85.9200 C   0  0  0  0  0  0
   34.9230   39.4670   85.4250 C   0  0  0  0  0  0
   34.1190   40.1220   86.4470 N   0  0  0  0  0  0
   32.8830   41.0750   84.9220 O   0  0  0  0  0  0
   32.9440   40.5510   86.0220 C   0  0  0  0  0  0
   31.7410   40.3450   86.8430 O   0  0  0  0  0  0
   30.7510   41.3470   87.1040 C   0  0  0  0  0  0
   30.6340   42.3270   85.9390 C   0  0  0  0  0  0
   31.1180   42.1120   88.3760 C   0  0  0  0  0  0
   29.4060   40.6580   87.3010 C   0  0  0  0  0  0
   38.5920   37.1900   81.9840 N   0  0  0  0  0  0
   38.0940   38.2280   81.0640 C   0  0  2  0  0  0
   36.6470   38.7280   81.2430 C   0  0  0  0  0  0
   35.8120   37.8540   81.6180 N   0  0  0  0  0  0
   38.1290   37.4430   79.7490 C   0  0  0  0  0  0
   37.8320   35.9990   80.1150 C   0  0  0  0  0  0
   38.4680   35.8200   81.4820 C   0  0  0  0  0  0
   42.7021   36.7048   86.6165 H   0  0  0  0  0  0
   42.2904   38.4451   86.4478 H   0  0  0  0  0  0
   44.3784   37.0946   84.6787 H   0  0  0  0  0  0
   44.1280   38.8481   84.9775 H   0  0  0  0  0  0
   46.0868   38.0847   86.2348 H   0  0  0  0  0  0
   44.7652   38.4795   87.3856 H   0  0  0  0  0  0
   44.7300   37.0195   89.1649 H   0  0  0  0  0  0
   45.6880   35.4842   85.2875 H   0  0  0  0  0  0
   44.8016   34.7186   90.1177 H   0  0  0  0  0  0
   45.7794   33.1844   86.2113 H   0  0  0  0  0  0
   45.3085   32.7812   88.6220 H   0  0  0  0  0  0
   40.7313   35.6480   86.6542 H   0  0  0  0  0  0
   40.2854   37.3128   87.1604 H   0  0  0  0  0  0
   40.1200   35.6661   83.3815 H   0  0  0  0  0  0
   37.5719   35.7955   84.3793 H   0  0  0  0  0  0
   38.7920   34.5487   84.8077 H   0  0  0  0  0  0
   38.2877   35.5369   87.0496 H   0  0  0  0  0  0
   36.0106   36.8329   85.1315 H   0  0  0  0  0  0
   35.1283   40.2212   84.6510 H   0  0  0  0  0  0
   34.3028   38.6644   84.9994 H   0  0  0  0  0  0
   34.5074   40.2235   87.4711 H   0  0  0  0  0  0
   31.5994   42.8317   85.7861 H   0  0  0  0  0  0
   29.8607   43.0757   86.1659 H   0  0  0  0  0  0
   30.3576   41.7796   85.0258 H   0  0  0  0  0  0
   32.0886   42.6105   88.2369 H   0  0  0  0  0  0
   31.1842   41.4097   89.2200 H   0  0  0  0  0  0
   30.3452   42.8661   88.5862 H   0  0  0  0  0  0
   29.1392   40.1067   86.3873 H   0  0  0  0  0  0
   28.6346   41.4132   87.5120 H   0  0  0  0  0  0
   29.4735   39.9568   88.1459 H   0  0  0  0  0  0
   36.4011   39.7821   81.0469 H   0  0  0  0  0  0
   36.1404   36.8188   81.7928 H   0  0  0  0  0  0
   37.3684   37.8434   79.0626 H   0  0  0  0  0  0
   39.1241   37.5400   79.2904 H   0  0  0  0  0  0
   36.7433   35.8446   80.1439 H   0  0  0  0  0  0
   38.2773   35.3311   79.3629 H   0  0  0  0  0  0
   39.4653   35.3597   81.4225 H   0  0  0  0  0  0
   37.8344   35.2352   82.1650 H   0  0  0  0  0  0
   34.7578   38.1295   81.7691 H   0  0  0  0  0  0
  1  2  1  0  0  0
  1 10  1  0  0  0
  1 40  1  0  0  0
  1 41  1  0  0  0
  2  3  1  0  0  0
  2 42  1  0  0  0
  2 43  1  0  0  0
  3  4  1  0  0  0
  3 44  1  0  0  0
  3 45  1  0  0  0
  4  5  2  0  0  0
  4  6  1  0  0  0
  5  7  1  0  0  0
  5 46  1  0  0  0
  6  8  2  0  0  0
  6 47  1  0  0  0
  7  9  2  0  0  0
  7 48  1  0  0  0
  8  9  1  0  0  0
  8 49  1  0  0  0
  9 50  1  0  0  0
 10 11  2  0  0  0
 10 12  1  0  0  0
 12 13  1  0  0  0
 12 14  1  0  0  0
 13 18  1  0  0  0
 13 51  1  0  0  0
 13 52  1  0  0  0
 14 15  1  0  0  0
 14 17  1  0  0  0
 14 53  1  0  0  0
 15 16  2  0  0  0
 15 33  1  0  0  0
 17 18  1  0  0  0
 17 54  1  0  0  0
 17 55  1  0  0  0
 18 19  1  0  0  0
 18 56  1  0  0  0
 19 20  1  0  0  0
 19 22  1  0  0  0
 20 21  2  0  0  0
 21 23  1  0  0  0
 22 23  2  0  0  0
 22 57  1  0  0  0
 23 24  1  0  0  0
 24 25  1  0  0  0
 24 58  1  0  0  0
 24 59  1  0  0  0
 25 27  1  0  0  0
 25 60  1  0  0  0
 26 27  2  0  0  0
 27 28  1  0  0  0
 28 29  1  0  0  0
 29 30  1  0  0  0
 29 31  1  0  0  0
 29 32  1  0  0  0
 30 61  1  0  0  0
 30 62  1  0  0  0
 30 63  1  0  0  0
 31 64  1  0  0  0
 31 65  1  0  0  0
 31 66  1  0  0  0
 32 67  1  0  0  0
 32 68  1  0  0  0
 32 69  1  0  0  0
 33 34  1  0  0  0
 33 39  1  0  0  0
 34 35  2  0  0  0
 34 37  1  0  0  0
 35 36  1  0  0  0
 35 70  1  0  0  0
 36 71  1  0  0  0
 36 78  1  0  0  0
 37 38  1  0  0  0
 37 72  1  0  0  0
 37 73  1  0  0  0
 38 39  1  0  0  0
 38 74  1  0  0  0
 38 75  1  0  0  0
 39 76  1  0  0  0
 39 77  1  0  0  0
M  END
> <s_m_source_file>
../4bcc_ligand.sdf

> <i_m_source_file_index>
1

> <s_epik_input>
W2NIXTFbY0hdW2NIXVtjSF1bY0hdYzFbQ0gyXVtDSDJdW0NIMl1DKD1PKU4yW0NIMl1bQ0BIXShbQ0gyXVtDQEhdMkMoPU8pTjNbQ0BIXSgvW0NIXT1OXFtIXSlbQ0gyXVtDSDJdW0NIMl0zKW40bm5jKFtjSF00KVtDSDJdW05IXUMoPU8pT0MoW0NIM10pKFtDSDNdKVtDSDNd

> <s_epik_cmdline>
J2VwaWtfYXBwJywgJy1pbWFlJywgJ2xpZ2FuZF9wcm8ubWFlJywgJy1vbWFlJywgJ2xpZ2FuZF9wcmVwLm1hZScsICctbXMnLCAnMScsICctcGgnLCAnNycsICctcGh0JywgJzAuNScsICctbnQn

> <r_lp_tautomer_probability>
1

> <r_epik_Ionization_Penalty>
  0.0000

> <r_epik_Ionization_Penalty_Charging>
  0.0000

> <r_epik_Ionization_Penalty_Neutral>
  0.0000

> <r_epik_State_Penalty>
 -0.0000

> <r_epik_Charging_Adjusted_Penalty>
3.68898849636848e-08

> <i_epik_Tot_Q>
0

> <i_epik_Tot_abs_Q>
0

> <s_epik_Chemistry_Notes>
This compound has an ester and may undergo hydrolysis at high or low pH. This compound has an imine and may undergo hydrolysis.

$$$$
