4bcf_ligand
                    3D
 Schrodinger Suite 2020-3.
 59 62  0  0  1  0            999 V2000
   49.0660  -19.3240  -10.4380 C   0  0  0  0  0  0
   50.1740  -19.3740  -11.3640 N   0  0  0  0  0  0
   50.7870  -18.2040  -11.8460 C   0  0  0  0  0  0
   50.3660  -17.3680  -12.7950 N   0  0  0  0  0  0
   51.1630  -16.3110  -13.0980 C   0  0  0  0  0  0
   50.7040  -15.3590  -14.1970 C   0  0  0  0  0  0
   52.3450  -16.1790  -12.3410 C   0  0  0  0  0  0
   53.4380  -15.2830  -12.3350 C   0  0  0  0  0  0
   54.7170  -15.8110  -12.2700 N   0  0  0  0  0  0
   55.8300  -14.9830  -12.2790 C   0  0  0  0  0  0
   57.1780  -15.5320  -12.2220 N   0  0  0  0  0  0
   57.4890  -16.9070  -11.8550 C   0  0  0  0  0  0
   58.8440  -17.1350  -11.5460 C   0  0  0  0  0  0
   59.2550  -18.4120  -11.1910 C   0  0  0  0  0  0
   58.2940  -19.4680  -11.1510 C   0  0  0  0  0  0
   56.9490  -19.2590  -11.4450 C   0  0  0  0  0  0
   56.0180  -20.4020  -11.3660 N   0  0  0  0  0  0
   56.8300  -21.5310  -11.7140 C   0  0  0  0  0  0
   57.1170  -22.4160  -10.5550 C   0  0  0  0  0  0
   56.0040  -22.4210   -9.5580 C   0  0  0  0  0  0
   54.6740  -22.6090  -10.0820 N   0  0  0  0  0  0
   53.9190  -23.7130   -9.4310 C   0  0  0  0  0  0
   52.4940  -24.1030   -9.7940 C   0  0  0  0  0  0
   54.4420  -24.3750   -8.5320 O   0  0  0  0  0  0
   53.9960  -21.8580  -11.1380 C   0  0  0  0  0  0
   54.6240  -20.5910  -11.6860 C   0  0  0  0  0  0
   56.5280  -17.9720  -11.8160 C   0  0  0  0  0  0
   55.7070  -13.6290  -12.3370 N   0  0  0  0  0  0
   54.4320  -13.0720  -12.3910 C   0  0  0  0  0  0
   53.2770  -13.8870  -12.3950 C   0  0  0  0  0  0
   51.9350  -13.2770  -12.4050 C   0  0  0  0  0  0
   50.8740  -12.7960  -12.4410 N   0  0  0  0  0  0
   52.2960  -17.5530  -11.3700 S   0  0  0  0  0  0
   48.7444  -20.3476  -10.1955 H   0  0  0  0  0  0
   48.2297  -18.7757  -10.8962 H   0  0  0  0  0  0
   49.3805  -18.8106   -9.5174 H   0  0  0  0  0  0
   50.5586  -20.3449  -11.7096 H   0  0  0  0  0  0
   49.7482  -15.7116  -14.6119 H   0  0  0  0  0  0
   51.4608  -15.3278  -14.9947 H   0  0  0  0  0  0
   50.5719  -14.3509  -13.7772 H   0  0  0  0  0  0
   58.0417  -14.8958  -12.4655 H   0  0  0  0  0  0
   59.5628  -16.3165  -11.5853 H   0  0  0  0  0  0
   60.2990  -18.6069  -10.9456 H   0  0  0  0  0  0
   58.6245  -20.4711  -10.8813 H   0  0  0  0  0  0
   56.3133  -22.1334  -12.4757 H   0  0  0  0  0  0
   57.7927  -21.1807  -12.1146 H   0  0  0  0  0  0
   57.2630  -23.4474  -10.9085 H   0  0  0  0  0  0
   58.0290  -22.0701  -10.0465 H   0  0  0  0  0  0
   56.1616  -23.2364   -8.8367 H   0  0  0  0  0  0
   55.9846  -21.4588   -9.0252 H   0  0  0  0  0  0
   52.1299  -23.4510  -10.6017 H   0  0  0  0  0  0
   51.8469  -23.9901   -8.9117 H   0  0  0  0  0  0
   52.4750  -25.1499  -10.1311 H   0  0  0  0  0  0
   53.8730  -22.4995  -12.0230 H   0  0  0  0  0  0
   53.0078  -21.5332  -10.7804 H   0  0  0  0  0  0
   54.0379  -19.7531  -11.2806 H   0  0  0  0  0  0
   54.5006  -20.6302  -12.7783 H   0  0  0  0  0  0
   55.4850  -17.7843  -12.0710 H   0  0  0  0  0  0
   54.3226  -11.9882  -12.4309 H   0  0  0  0  0  0
  1  2  1  0  0  0
  1 34  1  0  0  0
  1 35  1  0  0  0
  1 36  1  0  0  0
  2  3  1  0  0  0
  2 37  1  0  0  0
  3  4  2  0  0  0
  3 33  1  0  0  0
  4  5  1  0  0  0
  5  6  1  0  0  0
  5  7  2  0  0  0
  6 38  1  0  0  0
  6 39  1  0  0  0
  6 40  1  0  0  0
  7  8  1  0  0  0
  7 33  1  0  0  0
  8  9  2  0  0  0
  8 30  1  0  0  0
  9 10  1  0  0  0
 10 11  1  0  0  0
 10 28  2  0  0  0
 11 12  1  0  0  0
 11 41  1  0  0  0
 12 13  2  0  0  0
 12 27  1  0  0  0
 13 14  1  0  0  0
 13 42  1  0  0  0
 14 15  2  0  0  0
 14 43  1  0  0  0
 15 16  1  0  0  0
 15 44  1  0  0  0
 16 17  1  0  0  0
 16 27  2  0  0  0
 17 18  1  0  0  0
 17 26  1  0  0  0
 18 19  1  0  0  0
 18 45  1  0  0  0
 18 46  1  0  0  0
 19 20  1  0  0  0
 19 47  1  0  0  0
 19 48  1  0  0  0
 20 21  1  0  0  0
 20 49  1  0  0  0
 20 50  1  0  0  0
 21 22  1  0  0  0
 21 25  1  0  0  0
 22 23  1  0  0  0
 22 24  2  0  0  0
 23 51  1  0  0  0
 23 52  1  0  0  0
 23 53  1  0  0  0
 25 26  1  0  0  0
 25 54  1  0  0  0
 25 55  1  0  0  0
 26 56  1  0  0  0
 26 57  1  0  0  0
 27 58  1  0  0  0
 28 29  1  0  0  0
 29 30  2  0  0  0
 29 59  1  0  0  0
 30 31  1  0  0  0
 31 32  3  0  0  0
M  END
> <s_m_source_file>
../4bcf_ligand.sdf

> <i_m_source_file_index>
1

> <s_epik_input>
W0NIM11bTkhdYzFuYyhbQ0gzXSljKHMxKS1jMm5jKG5bY0hdYzJDI04pW05IXWMzW2NIXVtjSF1bY0hdYyhbY0hdMylONFtDSDJdW0NIMl1bQ0gyXU4oQyg9TylbQ0gzXSlbQ0gyXVtDSDJdNA==

> <s_epik_cmdline>
J2VwaWtfYXBwJywgJy1pbWFlJywgJ2xpZ2FuZF9wcm8ubWFlJywgJy1vbWFlJywgJ2xpZ2FuZF9wcmVwLm1hZScsICctbXMnLCAnMScsICctcGgnLCAnNycsICctcGh0JywgJzAuNScsICctbnQn

> <r_lp_tautomer_probability>
1

> <r_epik_Ionization_Penalty>
  0.0040

> <r_epik_Ionization_Penalty_Charging>
  0.0000

> <r_epik_Ionization_Penalty_Neutral>
  0.0040

> <r_epik_State_Penalty>
 -0.0000

> <r_epik_Charging_Adjusted_Penalty>
0

> <i_epik_Tot_Q>
0

> <i_epik_Tot_abs_Q>
0

$$$$
