4bcg_ligand
                    3D
 Schrodinger Suite 2020-3.
 55 58  0  0  1  0            999 V2000
   50.5740  -19.8360  -10.6280 C   0  0  0  0  0  0
   50.2220  -19.3400  -11.9470 N   0  0  0  0  0  0
   50.9370  -18.1970  -12.4380 C   0  0  0  0  0  0
   50.6050  -17.3500  -13.4110 N   0  0  0  0  0  0
   51.4730  -16.3520  -13.6650 C   0  0  0  0  0  0
   51.1060  -15.3640  -14.7890 C   0  0  0  0  0  0
   52.6460  -16.2920  -12.8720 C   0  0  0  0  0  0
   53.7300  -15.4270  -12.8460 C   0  0  0  0  0  0
   54.9980  -15.9560  -12.8120 N   0  0  0  0  0  0
   56.0730  -15.1420  -12.7820 C   0  0  0  0  0  0
   57.4290  -15.6860  -12.7670 N   0  0  0  0  0  0
   57.7630  -17.0210  -12.3980 C   0  0  0  0  0  0
   59.1270  -17.2020  -11.9920 C   0  0  0  0  0  0
   59.5820  -18.4540  -11.6090 C   0  0  0  0  0  0
   58.6980  -19.5510  -11.6230 C   0  0  0  0  0  0
   57.3610  -19.4050  -12.0260 C   0  0  0  0  0  0
   56.5160  -20.6180  -12.0290 N   0  0  0  0  0  0
   56.9880  -21.9900  -12.0520 C   0  0  0  0  0  0
   56.9440  -22.7590  -10.7640 C   0  0  0  0  0  0
   55.5460  -23.1440  -10.3380 C   0  0  0  0  0  0
   54.5080  -22.6970  -11.2350 N   0  3  0  0  0  0
   54.2330  -21.2740  -11.3360 C   0  0  0  0  0  0
   55.4270  -20.3730  -11.1320 C   0  0  0  0  0  0
   56.8840  -18.1220  -12.4280 C   0  0  0  0  0  0
   55.9440  -13.7770  -12.7810 N   0  0  0  0  0  0
   54.6940  -13.2090  -12.8090 C   0  0  0  0  0  0
   53.5630  -14.0160  -12.8320 C   0  0  0  0  0  0
   52.2110  -13.4080  -12.8240 C   0  0  0  0  0  0
   51.1650  -12.9450  -12.8190 N   0  0  0  0  0  0
   52.4700  -17.6320  -11.8770 S   0  0  0  0  0  0
   49.9492  -20.7082  -10.3855 H   0  0  0  0  0  0
   50.4054  -19.0454   -9.8820 H   0  0  0  0  0  0
   51.6339  -20.1299  -10.6177 H   0  0  0  0  0  0
   49.4332  -19.8384  -12.5296 H   0  0  0  0  0  0
   50.1416  -15.6540  -15.2316 H   0  0  0  0  0  0
   51.8862  -15.3843  -15.5642 H   0  0  0  0  0  0
   51.0282  -14.3484  -14.3735 H   0  0  0  0  0  0
   58.2797  -15.0507  -13.0546 H   0  0  0  0  0  0
   59.8085  -16.3513  -11.9847 H   0  0  0  0  0  0
   60.6181  -18.5891  -11.2987 H   0  0  0  0  0  0
   59.0591  -20.5322  -11.3149 H   0  0  0  0  0  0
   56.3824  -22.5742  -12.7605 H   0  0  0  0  0  0
   58.0418  -22.0100  -12.3669 H   0  0  0  0  0  0
   57.5226  -23.6883  -10.8719 H   0  0  0  0  0  0
   57.3772  -22.1489   -9.9577 H   0  0  0  0  0  0
   55.4697  -24.2397  -10.2780 H   0  0  0  0  0  0
   55.3296  -22.7068   -9.3521 H   0  0  0  0  0  0
   54.7531  -23.0054  -12.2620 H   0  0  0  0  0  0
   53.5482  -23.1442  -10.9370 H   0  0  0  0  0  0
   53.8368  -21.0473  -12.3368 H   0  0  0  0  0  0
   53.4917  -20.9889  -10.5750 H   0  0  0  0  0  0
   55.7653  -20.5202  -10.0957 H   0  0  0  0  0  0
   55.0730  -19.3393  -11.2588 H   0  0  0  0  0  0
   55.8518  -17.9949  -12.7545 H   0  0  0  0  0  0
   54.5889  -12.1241  -12.8132 H   0  0  0  0  0  0
  1  2  1  0  0  0
  1 31  1  0  0  0
  1 32  1  0  0  0
  1 33  1  0  0  0
  2  3  1  0  0  0
  2 34  1  0  0  0
  3  4  2  0  0  0
  3 30  1  0  0  0
  4  5  1  0  0  0
  5  6  1  0  0  0
  5  7  2  0  0  0
  6 35  1  0  0  0
  6 36  1  0  0  0
  6 37  1  0  0  0
  7  8  1  0  0  0
  7 30  1  0  0  0
  8  9  2  0  0  0
  8 27  1  0  0  0
  9 10  1  0  0  0
 10 11  1  0  0  0
 10 25  2  0  0  0
 11 12  1  0  0  0
 11 38  1  0  0  0
 12 13  2  0  0  0
 12 24  1  0  0  0
 13 14  1  0  0  0
 13 39  1  0  0  0
 14 15  2  0  0  0
 14 40  1  0  0  0
 15 16  1  0  0  0
 15 41  1  0  0  0
 16 17  1  0  0  0
 16 24  2  0  0  0
 17 18  1  0  0  0
 17 23  1  0  0  0
 18 19  1  0  0  0
 18 42  1  0  0  0
 18 43  1  0  0  0
 19 20  1  0  0  0
 19 44  1  0  0  0
 19 45  1  0  0  0
 20 21  1  0  0  0
 20 46  1  0  0  0
 20 47  1  0  0  0
 21 22  1  0  0  0
 21 48  1  0  0  0
 21 49  1  0  0  0
 22 23  1  0  0  0
 22 50  1  0  0  0
 22 51  1  0  0  0
 23 52  1  0  0  0
 23 53  1  0  0  0
 24 54  1  0  0  0
 25 26  1  0  0  0
 26 27  2  0  0  0
 26 55  1  0  0  0
 27 28  1  0  0  0
 28 29  3  0  0  0
M  CHG  1  21   1
M  END
> <s_m_source_file>
../4bcg_ligand.sdf

> <i_m_source_file_index>
1

> <s_epik_input>
W0NIM11bTkhdYzFuYyhbQ0gzXSljKHMxKS1jMm5jKG5bY0hdYzJDI04pW05IXWMzW2NIXVtjSF1bY0hdYyhbY0hdMylONFtDSDJdW0NIMl1bQ0gyXVtOSDIrXVtDSDJdW0NIMl00

> <s_epik_cmdline>
J2VwaWtfYXBwJywgJy1pbWFlJywgJ2xpZ2FuZF9wcm8ubWFlJywgJy1vbWFlJywgJ2xpZ2FuZF9wcmVwLm1hZScsICctbXMnLCAnMScsICctcGgnLCAnNycsICctcGh0JywgJzAuNScsICctbnQn

> <r_lp_tautomer_probability>
1

> <r_epik_Ionization_Penalty>
  0.0096

> <r_epik_Ionization_Penalty_Charging>
  0.0069

> <r_epik_Ionization_Penalty_Neutral>
  0.0027

> <r_epik_State_Penalty>
 -0.0000

> <r_epik_Charging_Adjusted_Penalty>
0.00690597259319204

> <i_epik_Tot_Q>
1

> <i_epik_Tot_abs_Q>
1

$$$$
