4bch_ligand
                    3D
 Schrodinger Suite 2020-3.
 56 59  0  0  1  0            999 V2000
   49.3510  -19.2010  -11.3300 C   0  0  0  0  0  0
   50.6190  -19.2770  -11.9540 N   0  0  0  0  0  0
   51.3050  -18.0770  -12.3950 C   0  0  0  0  0  0
   50.8380  -17.1700  -13.3770 N   0  0  0  0  0  0
   51.8330  -16.0720  -13.5630 C   0  0  0  0  0  0
   51.6050  -14.9380  -14.5190 C   0  0  0  0  0  0
   52.9730  -16.2580  -12.6990 C   0  0  0  0  0  0
   54.1850  -15.3490  -12.6580 C   0  0  0  0  0  0
   55.4360  -15.8870  -12.6920 N   0  0  0  0  0  0
   56.5300  -15.0800  -12.6620 C   0  0  0  0  0  0
   57.8580  -15.6510  -12.6560 N   0  0  0  0  0  0
   58.1750  -17.0420  -12.3190 C   0  0  0  0  0  0
   57.1690  -17.9960  -12.3130 C   0  0  0  0  0  0
   57.4720  -19.3500  -12.0230 C   0  0  0  0  0  0
   56.1260  -20.5550  -12.0120 S   0  0  0  0  0  0
   56.5960  -21.7600  -11.0070 N   0  0  0  0  0  0
   55.8360  -21.7720   -9.8850 C   0  0  0  0  0  0
   54.9250  -22.9760   -9.8670 C   0  0  0  0  0  0
   55.6360  -24.2210  -10.1620 O   0  0  0  0  0  0
   56.4710  -24.0820  -11.3720 C   0  0  0  0  0  0
   57.2980  -22.8320  -11.4500 C   0  0  0  0  0  0
   54.9430  -19.9590  -11.4790 O   0  0  0  0  0  0
   55.8210  -21.0580  -13.3300 O   0  0  0  0  0  0
   58.7960  -19.7370  -11.7320 C   0  0  0  0  0  0
   59.1410  -21.1500  -11.4210 C   0  0  0  0  0  0
   59.8160  -18.7990  -11.7550 C   0  0  0  0  0  0
   59.4990  -17.4470  -12.0550 C   0  0  0  0  0  0
   56.3980  -13.7400  -12.6440 N   0  0  0  0  0  0
   55.1630  -13.1700  -12.6170 C   0  0  0  0  0  0
   53.9930  -13.9820  -12.6270 C   0  0  0  0  0  0
   52.6190  -13.4260  -12.5600 C   0  0  0  0  0  0
   51.5350  -12.9940  -12.5140 N   0  0  0  0  0  0
   52.7730  -17.5950  -11.8280 S   0  0  0  0  0  0
   49.0068  -20.2140  -11.0745 H   0  0  0  0  0  0
   48.6317  -18.7318  -12.0173 H   0  0  0  0  0  0
   49.4291  -18.5981  -10.4132 H   0  0  0  0  0  0
   51.0973  -20.2551  -12.1103 H   0  0  0  0  0  0
   50.6435  -15.0803  -15.0340 H   0  0  0  0  0  0
   52.4178  -14.9139  -15.2598 H   0  0  0  0  0  0
   51.5866  -13.9885  -13.9639 H   0  0  0  0  0  0
   58.7257  -15.0280  -12.9185 H   0  0  0  0  0  0
   56.1419  -17.7039  -12.5320 H   0  0  0  0  0  0
   56.4888  -21.8082   -9.0004 H   0  0  0  0  0  0
   55.2203  -20.8611   -9.8494 H   0  0  0  0  0  0
   54.4676  -23.0748   -8.8715 H   0  0  0  0  0  0
   54.1354  -22.8497  -10.6224 H   0  0  0  0  0  0
   57.1770  -24.9236  -11.4289 H   0  0  0  0  0  0
   55.8272  -24.0826  -12.2639 H   0  0  0  0  0  0
   57.5949  -22.6688  -12.4965 H   0  0  0  0  0  0
   58.1971  -22.9632  -10.8300 H   0  0  0  0  0  0
   58.2282  -21.7635  -11.4421 H   0  0  0  0  0  0
   59.5966  -21.2047  -10.4213 H   0  0  0  0  0  0
   59.8534  -21.5268  -12.1697 H   0  0  0  0  0  0
   60.8445  -19.0937  -11.5464 H   0  0  0  0  0  0
   60.2979  -16.7060  -12.0816 H   0  0  0  0  0  0
   55.0683  -12.0845  -12.5875 H   0  0  0  0  0  0
  1  2  1  0  0  0
  1 34  1  0  0  0
  1 35  1  0  0  0
  1 36  1  0  0  0
  2  3  1  0  0  0
  2 37  1  0  0  0
  3  4  2  0  0  0
  3 33  1  0  0  0
  4  5  1  0  0  0
  5  6  1  0  0  0
  5  7  2  0  0  0
  6 38  1  0  0  0
  6 39  1  0  0  0
  6 40  1  0  0  0
  7  8  1  0  0  0
  7 33  1  0  0  0
  8  9  2  0  0  0
  8 30  1  0  0  0
  9 10  1  0  0  0
 10 11  1  0  0  0
 10 28  2  0  0  0
 11 12  1  0  0  0
 11 41  1  0  0  0
 12 13  2  0  0  0
 12 27  1  0  0  0
 13 14  1  0  0  0
 13 42  1  0  0  0
 14 15  1  0  0  0
 14 24  2  0  0  0
 15 16  1  0  0  0
 15 22  2  0  0  0
 15 23  2  0  0  0
 16 17  1  0  0  0
 16 21  1  0  0  0
 17 18  1  0  0  0
 17 43  1  0  0  0
 17 44  1  0  0  0
 18 19  1  0  0  0
 18 45  1  0  0  0
 18 46  1  0  0  0
 19 20  1  0  0  0
 20 21  1  0  0  0
 20 47  1  0  0  0
 20 48  1  0  0  0
 21 49  1  0  0  0
 21 50  1  0  0  0
 24 25  1  0  0  0
 24 26  1  0  0  0
 25 51  1  0  0  0
 25 52  1  0  0  0
 25 53  1  0  0  0
 26 27  2  0  0  0
 26 54  1  0  0  0
 27 55  1  0  0  0
 28 29  1  0  0  0
 29 30  2  0  0  0
 29 56  1  0  0  0
 30 31  1  0  0  0
 31 32  3  0  0  0
M  END
> <s_m_source_file>
../4bch_ligand.sdf

> <i_m_source_file_index>
1

> <s_epik_input>
W0NIM11bTkhdYzFuYyhbQ0gzXSljKHMxKS1jMm5jKG5bY0hdYzJDI04pW05IXWMzW2NIXWMoYyhbQ0gzXSlbY0hdW2NIXTMpUyg9TykoPU8pTjRbQ0gyXVtDSDJdT1tDSDJdW0NIMl00

> <s_epik_cmdline>
J2VwaWtfYXBwJywgJy1pbWFlJywgJ2xpZ2FuZF9wcm8ubWFlJywgJy1vbWFlJywgJ2xpZ2FuZF9wcmVwLm1hZScsICctbXMnLCAnMScsICctcGgnLCAnNycsICctcGh0JywgJzAuNScsICctbnQn

> <r_lp_tautomer_probability>
1

> <r_epik_Ionization_Penalty>
  0.0027

> <r_epik_Ionization_Penalty_Charging>
  0.0000

> <r_epik_Ionization_Penalty_Neutral>
  0.0027

> <r_epik_State_Penalty>
 -0.0000

> <r_epik_Charging_Adjusted_Penalty>
0

> <i_epik_Tot_Q>
0

> <i_epik_Tot_abs_Q>
0

$$$$
