4bci_ligand
                    3D
 Schrodinger Suite 2020-3.
 42 44  0  0  1  0            999 V2000
   51.1150  -20.7230  -12.7410 C   0  0  0  0  0  0
   50.8460  -19.4970  -11.9990 N   0  0  0  0  0  0
   51.4090  -18.2480  -12.4450 C   0  0  0  0  0  0
   50.7660  -17.3590  -13.2820 N   0  0  0  0  0  0
   51.6240  -16.1910  -13.5510 C   0  0  0  0  0  0
   51.1460  -15.1550  -14.4660 C   0  0  0  0  0  0
   52.8670  -16.2710  -12.8720 C   0  0  0  0  0  0
   54.0180  -15.3420  -12.8380 C   0  0  0  0  0  0
   55.2880  -15.8380  -12.7550 N   0  0  0  0  0  0
   56.3650  -14.9440  -12.6880 C   0  0  0  0  0  0
   57.7230  -15.3990  -12.6060 N   0  0  0  0  0  0
   58.0390  -16.8030  -12.4070 C   0  0  0  0  0  0
   59.3620  -17.1120  -12.6570 C   0  0  0  0  0  0
   59.7860  -18.4400  -12.5060 C   0  0  0  0  0  0
   61.4780  -18.7640  -12.8910 S   0  0  0  0  0  0
   61.7010  -20.1820  -12.6590 O   0  0  0  0  0  0
   62.4180  -17.8850  -11.8720 N   0  0  0  0  0  0
   61.6810  -18.3490  -14.2730 O   0  0  0  0  0  0
   58.9200  -19.4690  -12.0940 C   0  0  0  0  0  0
   57.5800  -19.1640  -11.8280 C   0  0  0  0  0  0
   57.1440  -17.8220  -11.9980 C   0  0  0  0  0  0
   56.1970  -13.5870  -12.7100 N   0  0  0  0  0  0
   54.9060  -13.1260  -12.7780 C   0  0  0  0  0  0
   53.8250  -13.9920  -12.8290 C   0  0  0  0  0  0
   52.4580  -13.4200  -12.8070 C   0  0  0  0  0  0
   51.4010  -12.9700  -12.8550 N   0  0  0  0  0  0
   52.8860  -17.6360  -12.1050 S   0  0  0  0  0  0
   50.6047  -21.5664  -12.2529 H   0  0  0  0  0  0
   52.1987  -20.9107  -12.7585 H   0  0  0  0  0  0
   50.7445  -20.6168  -13.7713 H   0  0  0  0  0  0
   50.2136  -19.5261  -11.0994 H   0  0  0  0  0  0
   50.1331  -15.4097  -14.8112 H   0  0  0  0  0  0
   51.8225  -15.0892  -15.3309 H   0  0  0  0  0  0
   51.1229  -14.1870  -13.9440 H   0  0  0  0  0  0
   58.5504  -14.6795  -12.6942 H   0  0  0  0  0  0
   60.0638  -16.3373  -12.9661 H   0  0  0  0  0  0
   63.4782  -18.0737  -12.0966 H   0  0  0  0  0  0
   62.2055  -18.1775  -10.8331 H   0  0  0  0  0  0
   59.2871  -20.4893  -11.9834 H   0  0  0  0  0  0
   56.8869  -19.9379  -11.4981 H   0  0  0  0  0  0
   56.0999  -17.5718  -11.8099 H   0  0  0  0  0  0
   54.7262  -12.0510  -12.7923 H   0  0  0  0  0  0
  1  2  1  0  0  0
  1 28  1  0  0  0
  1 29  1  0  0  0
  1 30  1  0  0  0
  2  3  1  0  0  0
  2 31  1  0  0  0
  3  4  2  0  0  0
  3 27  1  0  0  0
  4  5  1  0  0  0
  5  6  1  0  0  0
  5  7  2  0  0  0
  6 32  1  0  0  0
  6 33  1  0  0  0
  6 34  1  0  0  0
  7  8  1  0  0  0
  7 27  1  0  0  0
  8  9  2  0  0  0
  8 24  1  0  0  0
  9 10  1  0  0  0
 10 11  1  0  0  0
 10 22  2  0  0  0
 11 12  1  0  0  0
 11 35  1  0  0  0
 12 13  2  0  0  0
 12 21  1  0  0  0
 13 14  1  0  0  0
 13 36  1  0  0  0
 14 15  1  0  0  0
 14 19  2  0  0  0
 15 16  2  0  0  0
 15 17  1  0  0  0
 15 18  2  0  0  0
 17 37  1  0  0  0
 17 38  1  0  0  0
 19 20  1  0  0  0
 19 39  1  0  0  0
 20 21  2  0  0  0
 20 40  1  0  0  0
 21 41  1  0  0  0
 22 23  1  0  0  0
 23 24  2  0  0  0
 23 42  1  0  0  0
 24 25  1  0  0  0
 25 26  3  0  0  0
M  END
> <s_m_source_file>
../4bci_ligand.sdf

> <i_m_source_file_index>
1

> <s_epik_input>
W0NIM11bTkhdYzFuYyhbQ0gzXSljKHMxKS1jMm5jKG5bY0hdYzJDI04pW05IXWMzW2NIXWMoUyg9TykoPU8pW05IMl0pW2NIXVtjSF1bY0hdMw==

> <s_epik_cmdline>
J2VwaWtfYXBwJywgJy1pbWFlJywgJ2xpZ2FuZF9wcm8ubWFlJywgJy1vbWFlJywgJ2xpZ2FuZF9wcmVwLm1hZScsICctbXMnLCAnMScsICctcGgnLCAnNycsICctcGh0JywgJzAuNScsICctbnQn

> <r_lp_tautomer_probability>
1

> <r_epik_Ionization_Penalty>
  0.0033

> <r_epik_Ionization_Penalty_Charging>
  0.0000

> <r_epik_Ionization_Penalty_Neutral>
  0.0033

> <r_epik_State_Penalty>
 -0.0000

> <r_epik_Charging_Adjusted_Penalty>
0

> <i_epik_Tot_Q>
0

> <i_epik_Tot_abs_Q>
0

$$$$
