4bcj_ligand
                    3D
 Schrodinger Suite 2020-3.
 38 40  0  0  1  0            999 V2000
   51.1980  -20.2920  -12.3620 C   0  0  0  0  0  0
   50.6860  -19.0090  -11.9580 N   0  0  0  0  0  0
   51.3500  -17.8500  -12.3830 C   0  0  0  0  0  0
   50.8800  -16.8010  -13.1360 N   0  0  0  0  0  0
   51.8280  -15.8170  -13.3530 C   0  0  0  0  0  0
   51.5010  -14.5890  -14.1700 C   0  0  0  0  0  0
   53.0980  -16.0330  -12.7680 C   0  0  0  0  0  0
   54.3060  -15.1360  -12.7720 C   0  0  0  0  0  0
   55.5460  -15.6460  -12.7490 N   0  0  0  0  0  0
   56.5960  -14.7810  -12.7300 C   0  0  0  0  0  0
   57.9330  -15.3480  -12.7610 N   0  0  0  0  0  0
   58.2140  -16.7020  -12.2620 C   0  0  0  0  0  0
   59.4880  -16.9570  -11.7360 C   0  0  0  0  0  0
   59.7850  -18.2270  -11.2420 C   0  0  0  0  0  0
   61.0530  -18.4410  -10.7010 O   0  0  0  0  0  0
   58.8130  -19.2900  -11.2860 C   0  0  0  0  0  0
   57.5630  -19.0390  -11.8170 C   0  0  0  0  0  0
   57.2560  -17.7320  -12.3120 C   0  0  0  0  0  0
   56.4650  -13.4060  -12.7140 N   0  0  0  0  0  0
   55.2240  -12.8530  -12.7010 C   0  0  0  0  0  0
   54.1050  -13.6990  -12.7130 C   0  0  0  0  0  0
   52.6880  -13.1470  -12.6190 C   0  0  0  0  0  0
   51.6210  -12.7320  -12.6060 N   0  0  0  0  0  0
   52.9500  -17.5170  -12.0330 S   0  0  0  0  0  0
   50.5634  -21.0879  -11.9449 H   0  0  0  0  0  0
   52.2264  -20.4101  -11.9899 H   0  0  0  0  0  0
   51.1955  -20.3586  -13.4600 H   0  0  0  0  0  0
   49.7877  -18.9495  -11.3260 H   0  0  0  0  0  0
   50.4587  -14.6462  -14.5168 H   0  0  0  0  0  0
   52.1741  -14.5365  -15.0385 H   0  0  0  0  0  0
   51.6322  -13.6902  -13.5495 H   0  0  0  0  0  0
   58.7702  -14.7607  -13.1662 H   0  0  0  0  0  0
   60.2407  -16.1689  -11.7132 H   0  0  0  0  0  0
   61.7851  -17.6204  -10.6739 H   0  0  0  0  0  0
   59.0614  -20.2805  -10.9047 H   0  0  0  0  0  0
   56.8154  -19.8311  -11.8587 H   0  0  0  0  0  0
   56.2703  -17.5320  -12.7320 H   0  0  0  0  0  0
   55.1000  -11.7703  -12.6816 H   0  0  0  0  0  0
  1  2  1  0  0  0
  1 25  1  0  0  0
  1 26  1  0  0  0
  1 27  1  0  0  0
  2  3  1  0  0  0
  2 28  1  0  0  0
  3  4  2  0  0  0
  3 24  1  0  0  0
  4  5  1  0  0  0
  5  6  1  0  0  0
  5  7  2  0  0  0
  6 29  1  0  0  0
  6 30  1  0  0  0
  6 31  1  0  0  0
  7  8  1  0  0  0
  7 24  1  0  0  0
  8  9  2  0  0  0
  8 21  1  0  0  0
  9 10  1  0  0  0
 10 11  1  0  0  0
 10 19  2  0  0  0
 11 12  1  0  0  0
 11 32  1  0  0  0
 12 13  2  0  0  0
 12 18  1  0  0  0
 13 14  1  0  0  0
 13 33  1  0  0  0
 14 15  1  0  0  0
 14 16  2  0  0  0
 15 34  1  0  0  0
 16 17  1  0  0  0
 16 35  1  0  0  0
 17 18  2  0  0  0
 17 36  1  0  0  0
 18 37  1  0  0  0
 19 20  1  0  0  0
 20 21  2  0  0  0
 20 38  1  0  0  0
 21 22  1  0  0  0
 22 23  3  0  0  0
M  END
> <s_m_source_file>
../4bcj_ligand.sdf

> <i_m_source_file_index>
1

> <s_epik_input>
W0NIM11bTkhdYzFuYyhbQ0gzXSljKHMxKS1jMm5jKG5bY0hdYzJDI04pW05IXWMzW2NIXWMoW09IXSlbY0hdW2NIXVtjSF0z

> <s_epik_cmdline>
J2VwaWtfYXBwJywgJy1pbWFlJywgJ2xpZ2FuZF9wcm8ubWFlJywgJy1vbWFlJywgJ2xpZ2FuZF9wcmVwLm1hZScsICctbXMnLCAnMScsICctcGgnLCAnNycsICctcGh0JywgJzAuNScsICctbnQn

> <r_lp_tautomer_probability>
1

> <r_epik_Ionization_Penalty>
  0.0036

> <r_epik_Ionization_Penalty_Charging>
  0.0000

> <r_epik_Ionization_Penalty_Neutral>
  0.0036

> <r_epik_State_Penalty>
 -0.0000

> <r_epik_Charging_Adjusted_Penalty>
0

> <i_epik_Tot_Q>
0

> <i_epik_Tot_abs_Q>
0

$$$$
