4bck_ligand
                    3D
 Schrodinger Suite 2020-3.
 42 44  0  0  1  0            999 V2000
    3.5300   18.8590   21.3710 C   0  0  0  0  0  0
    3.7440   20.1870   21.9020 N   0  0  0  0  0  0
    5.0090   20.5260   22.5060 C   0  0  0  0  0  0
    6.0760   19.6490   22.7100 N   0  0  0  0  0  0
    7.2260   20.3260   23.3580 C   0  0  0  0  0  0
    8.4940   19.6310   23.6920 C   0  0  0  0  0  0
    6.9200   21.7070   23.5890 C   0  0  0  0  0  0
    7.7740   22.7830   24.2370 C   0  0  0  0  0  0
    7.1820   23.5280   25.2100 N   0  0  0  0  0  0
    7.8510   24.5430   25.8450 C   0  0  0  0  0  0
    7.1760   25.3050   26.8850 N   0  0  0  0  0  0
    5.9730   26.0640   26.5690 C   0  0  0  0  0  0
    4.9750   25.5080   25.7630 C   0  0  0  0  0  0
    3.8120   26.2380   25.4680 C   0  0  0  0  0  0
    2.5510   25.5310   24.4340 S   0  0  0  0  0  0
    2.6310   24.0890   24.4590 O   0  0  0  0  0  0
    2.8390   26.0810   22.9140 N   0  0  0  0  0  0
    1.2500   25.9460   24.8840 O   0  0  0  0  0  0
    3.6440   27.5110   25.9880 C   0  0  0  0  0  0
    4.6320   28.0650   26.8020 C   0  0  0  0  0  0
    5.7950   27.3390   27.0910 C   0  0  0  0  0  0
    9.1470   24.8010   25.5150 N   0  0  0  0  0  0
    9.7550   24.0660   24.5480 C   0  0  0  0  0  0
    9.0800   23.0580   23.8960 C   0  0  0  0  0  0
    9.8070   22.2870   22.8370 C   0  0  0  0  0  0
   10.3780   21.7080   22.0310 N   0  0  0  0  0  0
    5.4280   21.9970   23.0680 S   0  0  0  0  0  0
    2.5142   18.7899   20.9546 H   0  0  0  0  0  0
    3.6473   18.1189   22.1763 H   0  0  0  0  0  0
    4.2657   18.6581   20.5783 H   0  0  0  0  0  0
    2.9422   20.9379   21.8451 H   0  0  0  0  0  0
    8.4233   18.5750   23.3922 H   0  0  0  0  0  0
    8.6719   19.6934   24.7757 H   0  0  0  0  0  0
    9.3267   20.1095   23.1556 H   0  0  0  0  0  0
    7.5739   25.3083   27.9105 H   0  0  0  0  0  0
    5.1002   24.5025   25.3614 H   0  0  0  0  0  0
    2.0834   25.6723   22.2269 H   0  0  0  0  0  0
    3.8402   25.7594   22.5913 H   0  0  0  0  0  0
    2.7415   28.0786   25.7615 H   0  0  0  0  0  0
    4.4990   29.0652   27.2143 H   0  0  0  0  0  0
    6.5635   27.7766   27.7282 H   0  0  0  0  0  0
   10.7914   24.2769   24.2844 H   0  0  0  0  0  0
  1  2  1  0  0  0
  1 28  1  0  0  0
  1 29  1  0  0  0
  1 30  1  0  0  0
  2  3  1  0  0  0
  2 31  1  0  0  0
  3  4  2  0  0  0
  3 27  1  0  0  0
  4  5  1  0  0  0
  5  6  1  0  0  0
  5  7  2  0  0  0
  6 32  1  0  0  0
  6 33  1  0  0  0
  6 34  1  0  0  0
  7  8  1  0  0  0
  7 27  1  0  0  0
  8  9  2  0  0  0
  8 24  1  0  0  0
  9 10  1  0  0  0
 10 11  1  0  0  0
 10 22  2  0  0  0
 11 12  1  0  0  0
 11 35  1  0  0  0
 12 13  2  0  0  0
 12 21  1  0  0  0
 13 14  1  0  0  0
 13 36  1  0  0  0
 14 15  1  0  0  0
 14 19  2  0  0  0
 15 16  2  0  0  0
 15 17  1  0  0  0
 15 18  2  0  0  0
 17 37  1  0  0  0
 17 38  1  0  0  0
 19 20  1  0  0  0
 19 39  1  0  0  0
 20 21  2  0  0  0
 20 40  1  0  0  0
 21 41  1  0  0  0
 22 23  1  0  0  0
 23 24  2  0  0  0
 23 42  1  0  0  0
 24 25  1  0  0  0
 25 26  3  0  0  0
M  END
> <s_m_source_file>
../4bck_ligand.sdf

> <i_m_source_file_index>
1

> <s_epik_input>
W0NIM11bTkhdYzFuYyhbQ0gzXSljKHMxKS1jMm5jKG5bY0hdYzJDI04pW05IXWMzW2NIXWMoUyg9TykoPU8pW05IMl0pW2NIXVtjSF1bY0hdMw==

> <s_epik_cmdline>
J2VwaWtfYXBwJywgJy1pbWFlJywgJ2xpZ2FuZF9wcm8ubWFlJywgJy1vbWFlJywgJ2xpZ2FuZF9wcmVwLm1hZScsICctbXMnLCAnMScsICctcGgnLCAnNycsICctcGh0JywgJzAuNScsICctbnQn

> <r_lp_tautomer_probability>
1

> <r_epik_Ionization_Penalty>
  0.0033

> <r_epik_Ionization_Penalty_Charging>
  0.0000

> <r_epik_Ionization_Penalty_Neutral>
  0.0033

> <r_epik_State_Penalty>
 -0.0000

> <r_epik_Charging_Adjusted_Penalty>
0

> <i_epik_Tot_Q>
0

> <i_epik_Tot_abs_Q>
0

$$$$
