4bco_ligand
                    3D
 Schrodinger Suite 2020-3.
 59 62  0  0  1  0            999 V2000
   -3.8260   21.3860  -18.5080 C   0  0  0  0  0  0
   -4.4790   20.1420  -18.8970 N   0  0  0  0  0  0
   -5.5200   20.1830  -19.8550 C   0  0  0  0  0  0
   -6.3580   19.1690  -20.1870 N   0  0  0  0  0  0
   -7.2840   19.4350  -21.1270 C   0  0  0  0  0  0
   -8.2440   18.3370  -21.5560 C   0  0  0  0  0  0
   -7.2570   20.7510  -21.6580 C   0  0  0  0  0  0
   -8.0720   21.4290  -22.6080 C   0  0  0  0  0  0
   -7.5060   22.2710  -23.5060 N   0  0  0  0  0  0
   -8.2690   22.9720  -24.3970 C   0  0  0  0  0  0
   -7.6260   23.8510  -25.3730 N   0  0  0  0  0  0
   -6.3710   24.5370  -25.0890 C   0  0  0  0  0  0
   -5.7780   24.4750  -23.8180 C   0  0  0  0  0  0
   -4.5750   25.1400  -23.5760 C   0  0  0  0  0  0
   -3.9460   25.8860  -24.6180 C   0  0  0  0  0  0
   -4.5370   25.9400  -25.8810 C   0  0  0  0  0  0
   -3.8930   26.7090  -26.9640 N   0  0  0  0  0  0
   -2.6130   26.0890  -27.2040 C   0  0  0  0  0  0
   -2.3590   25.6900  -28.6120 C   0  0  0  0  0  0
   -3.4360   24.8510  -29.2120 C   0  0  0  0  0  0
   -4.5330   25.6200  -29.6940 N   0  0  0  0  0  0
   -4.9130   25.4170  -31.0840 C   0  0  0  0  0  0
   -6.0630   26.1990  -31.6780 C   0  0  0  0  0  0
   -4.2980   24.6120  -31.7800 O   0  0  0  0  0  0
   -5.3080   26.5860  -28.9710 C   0  0  0  0  0  0
   -4.4410   27.4320  -28.0790 C   0  0  0  0  0  0
   -5.7440   25.2760  -26.1190 C   0  0  0  0  0  0
   -9.6070   22.8660  -24.4000 N   0  0  0  0  0  0
  -10.2380   22.0530  -23.4970 C   0  0  0  0  0  0
   -9.4720   21.3340  -22.5780 C   0  0  0  0  0  0
  -10.1540   20.4780  -21.6020 C   0  0  0  0  0  0
  -10.6910   19.8120  -20.8480 N   0  0  0  0  0  0
   -5.9660   21.5400  -20.8360 S   0  0  0  0  0  0
   -3.0472   21.1732  -17.7609 H   0  0  0  0  0  0
   -4.5703   22.0715  -18.0767 H   0  0  0  0  0  0
   -3.3678   21.8518  -19.3929 H   0  0  0  0  0  0
   -4.1608   19.1898  -18.4474 H   0  0  0  0  0  0
   -8.0381   17.4237  -20.9785 H   0  0  0  0  0  0
   -8.1098   18.1310  -22.6282 H   0  0  0  0  0  0
   -9.2786   18.6619  -21.3717 H   0  0  0  0  0  0
   -8.0893   24.0116  -26.3577 H   0  0  0  0  0  0
   -6.2571   23.9075  -23.0202 H   0  0  0  0  0  0
   -4.1148   25.0896  -22.5892 H   0  0  0  0  0  0
   -3.0095   26.4104  -24.4282 H   0  0  0  0  0  0
   -1.8096   26.7871  -26.9261 H   0  0  0  0  0  0
   -2.5294   25.1742  -26.5989 H   0  0  0  0  0  0
   -2.2647   26.5903  -29.2369 H   0  0  0  0  0  0
   -1.4276   25.1072  -28.6657 H   0  0  0  0  0  0
   -3.0276   24.2815  -30.0599 H   0  0  0  0  0  0
   -3.8227   24.1537  -28.4542 H   0  0  0  0  0  0
   -6.4883   26.8643  -30.9122 H   0  0  0  0  0  0
   -6.8378   25.5017  -32.0293 H   0  0  0  0  0  0
   -5.6993   26.7998  -32.5246 H   0  0  0  0  0  0
   -5.8258   27.2469  -29.6818 H   0  0  0  0  0  0
   -6.0495   26.0674  -28.3456 H   0  0  0  0  0  0
   -5.0593   28.2631  -27.7089 H   0  0  0  0  0  0
   -3.6220   27.8307  -28.6957 H   0  0  0  0  0  0
   -6.2051   25.3282  -27.1053 H   0  0  0  0  0  0
  -11.3247   21.9683  -23.4958 H   0  0  0  0  0  0
  1  2  1  0  0  0
  1 34  1  0  0  0
  1 35  1  0  0  0
  1 36  1  0  0  0
  2  3  1  0  0  0
  2 37  1  0  0  0
  3  4  2  0  0  0
  3 33  1  0  0  0
  4  5  1  0  0  0
  5  6  1  0  0  0
  5  7  2  0  0  0
  6 38  1  0  0  0
  6 39  1  0  0  0
  6 40  1  0  0  0
  7  8  1  0  0  0
  7 33  1  0  0  0
  8  9  2  0  0  0
  8 30  1  0  0  0
  9 10  1  0  0  0
 10 11  1  0  0  0
 10 28  2  0  0  0
 11 12  1  0  0  0
 11 41  1  0  0  0
 12 13  2  0  0  0
 12 27  1  0  0  0
 13 14  1  0  0  0
 13 42  1  0  0  0
 14 15  2  0  0  0
 14 43  1  0  0  0
 15 16  1  0  0  0
 15 44  1  0  0  0
 16 17  1  0  0  0
 16 27  2  0  0  0
 17 18  1  0  0  0
 17 26  1  0  0  0
 18 19  1  0  0  0
 18 45  1  0  0  0
 18 46  1  0  0  0
 19 20  1  0  0  0
 19 47  1  0  0  0
 19 48  1  0  0  0
 20 21  1  0  0  0
 20 49  1  0  0  0
 20 50  1  0  0  0
 21 22  1  0  0  0
 21 25  1  0  0  0
 22 23  1  0  0  0
 22 24  2  0  0  0
 23 51  1  0  0  0
 23 52  1  0  0  0
 23 53  1  0  0  0
 25 26  1  0  0  0
 25 54  1  0  0  0
 25 55  1  0  0  0
 26 56  1  0  0  0
 26 57  1  0  0  0
 27 58  1  0  0  0
 28 29  1  0  0  0
 29 30  2  0  0  0
 29 59  1  0  0  0
 30 31  1  0  0  0
 31 32  3  0  0  0
M  END
> <s_m_source_file>
../4bco_ligand.sdf

> <i_m_source_file_index>
1

> <s_epik_input>
W0NIM11bTkhdYzFuYyhbQ0gzXSljKHMxKS1jMm5jKG5bY0hdYzJDI04pW05IXWMzW2NIXVtjSF1bY0hdYyhbY0hdMylONFtDSDJdW0NIMl1bQ0gyXU4oQyg9TylbQ0gzXSlbQ0gyXVtDSDJdNA==

> <s_epik_cmdline>
J2VwaWtfYXBwJywgJy1pbWFlJywgJ2xpZ2FuZF9wcm8ubWFlJywgJy1vbWFlJywgJ2xpZ2FuZF9wcmVwLm1hZScsICctbXMnLCAnMScsICctcGgnLCAnNycsICctcGh0JywgJzAuNScsICctbnQn

> <r_lp_tautomer_probability>
1

> <r_epik_Ionization_Penalty>
  0.0040

> <r_epik_Ionization_Penalty_Charging>
  0.0000

> <r_epik_Ionization_Penalty_Neutral>
  0.0040

> <r_epik_State_Penalty>
 -0.0000

> <r_epik_Charging_Adjusted_Penalty>
0

> <i_epik_Tot_Q>
0

> <i_epik_Tot_abs_Q>
0

$$$$
