4bcp_ligand
                    3D
 Schrodinger Suite 2020-3.
 55 58  0  0  1  0            999 V2000
    3.6970   21.2090   18.6260 C   0  0  0  0  0  0
    4.4310   20.0390   19.0130 N   0  0  0  0  0  0
    5.4570   20.1550   20.0100 C   0  0  0  0  0  0
    6.2270   19.1690   20.4990 N   0  0  0  0  0  0
    7.1310   19.5270   21.4370 C   0  0  0  0  0  0
    8.0650   18.4770   22.0720 C   0  0  0  0  0  0
    7.1550   20.8950   21.7900 C   0  0  0  0  0  0
    7.9510   21.5880   22.7040 C   0  0  0  0  0  0
    7.3360   22.3990   23.6120 N   0  0  0  0  0  0
    8.0410   23.1080   24.5000 C   0  0  0  0  0  0
    7.3450   23.9650   25.4800 N   0  0  0  0  0  0
    6.1050   24.5900   25.2170 C   0  0  0  0  0  0
    5.7610   25.7770   25.9460 C   0  0  0  0  0  0
    4.5400   26.4180   25.7120 C   0  0  0  0  0  0
    3.6420   25.8950   24.7590 C   0  0  0  0  0  0
    3.9720   24.7240   24.0370 C   0  0  0  0  0  0
    3.0200   24.1790   23.0430 N   0  0  0  0  0  0
    2.2110   22.9900   23.1470 C   0  0  0  0  0  0
    0.7510   23.2910   23.0680 C   0  0  0  0  0  0
    0.4110   23.9650   21.7720 C   0  0  0  0  0  0
    1.3740   23.6660   20.7500 N   0  3  0  0  0  0
    2.4450   24.6150   20.6740 C   0  0  0  0  0  0
    3.5140   24.4530   21.7220 C   0  0  0  0  0  0
    5.2190   24.0740   24.2790 C   0  0  0  0  0  0
    9.4050   23.0310   24.5270 N   0  0  0  0  0  0
   10.0790   22.2380   23.6340 C   0  0  0  0  0  0
    9.3640   21.5030   22.7030 C   0  0  0  0  0  0
   10.0880   20.6430   21.7290 C   0  0  0  0  0  0
   10.6410   19.9850   20.9880 N   0  0  0  0  0  0
    5.9370   21.6160   20.8150 S   0  0  0  0  0  0
    2.9566   20.9400   17.8583 H   0  0  0  0  0  0
    4.3910   21.9593   18.2192 H   0  0  0  0  0  0
    3.1806   21.6249   19.5037 H   0  0  0  0  0  0
    4.2047   19.0686   18.5471 H   0  0  0  0  0  0
    7.8566   17.4891   21.6354 H   0  0  0  0  0  0
    7.8925   18.4418   23.1578 H   0  0  0  0  0  0
    9.1120   18.7512   21.8757 H   0  0  0  0  0  0
    7.7906   24.1423   26.4699 H   0  0  0  0  0  0
    6.4535   26.1806   26.6847 H   0  0  0  0  0  0
    4.2829   27.3209   26.2658 H   0  0  0  0  0  0
    2.6903   26.3946   24.5780 H   0  0  0  0  0  0
    2.4624   22.3025   22.3260 H   0  0  0  0  0  0
    2.4060   22.4970   24.1108 H   0  0  0  0  0  0
    0.1791   22.3541   23.1392 H   0  0  0  0  0  0
    0.4685   23.9568   23.8968 H   0  0  0  0  0  0
   -0.5763   23.6225   21.4286 H   0  0  0  0  0  0
    0.3899   25.0548   21.9199 H   0  0  0  0  0  0
    1.8222   22.6807   20.9455 H   0  0  0  0  0  0
    0.8761   23.6542   19.7692 H   0  0  0  0  0  0
    2.9446   24.5267   19.6980 H   0  0  0  0  0  0
    2.0425   25.6322   20.7891 H   0  0  0  0  0  0
    4.0932   25.3881   21.7338 H   0  0  0  0  0  0
    4.1600   23.6257   21.3932 H   0  0  0  0  0  0
    5.4773   23.1705   23.7267 H   0  0  0  0  0  0
   11.1676   22.1866   23.6567 H   0  0  0  0  0  0
  1  2  1  0  0  0
  1 31  1  0  0  0
  1 32  1  0  0  0
  1 33  1  0  0  0
  2  3  1  0  0  0
  2 34  1  0  0  0
  3  4  2  0  0  0
  3 30  1  0  0  0
  4  5  1  0  0  0
  5  6  1  0  0  0
  5  7  2  0  0  0
  6 35  1  0  0  0
  6 36  1  0  0  0
  6 37  1  0  0  0
  7  8  1  0  0  0
  7 30  1  0  0  0
  8  9  2  0  0  0
  8 27  1  0  0  0
  9 10  1  0  0  0
 10 11  1  0  0  0
 10 25  2  0  0  0
 11 12  1  0  0  0
 11 38  1  0  0  0
 12 13  2  0  0  0
 12 24  1  0  0  0
 13 14  1  0  0  0
 13 39  1  0  0  0
 14 15  2  0  0  0
 14 40  1  0  0  0
 15 16  1  0  0  0
 15 41  1  0  0  0
 16 17  1  0  0  0
 16 24  2  0  0  0
 17 18  1  0  0  0
 17 23  1  0  0  0
 18 19  1  0  0  0
 18 42  1  0  0  0
 18 43  1  0  0  0
 19 20  1  0  0  0
 19 44  1  0  0  0
 19 45  1  0  0  0
 20 21  1  0  0  0
 20 46  1  0  0  0
 20 47  1  0  0  0
 21 22  1  0  0  0
 21 48  1  0  0  0
 21 49  1  0  0  0
 22 23  1  0  0  0
 22 50  1  0  0  0
 22 51  1  0  0  0
 23 52  1  0  0  0
 23 53  1  0  0  0
 24 54  1  0  0  0
 25 26  1  0  0  0
 26 27  2  0  0  0
 26 55  1  0  0  0
 27 28  1  0  0  0
 28 29  3  0  0  0
M  CHG  1  21   1
M  END
> <s_m_source_file>
../4bcp_ligand.sdf

> <i_m_source_file_index>
1

> <s_epik_input>
W0NIM11bTkhdYzFuYyhbQ0gzXSljKHMxKS1jMm5jKG5bY0hdYzJDI04pW05IXWMzW2NIXVtjSF1bY0hdYyhbY0hdMylONFtDSDJdW0NIMl1bQ0gyXVtOSDIrXVtDSDJdW0NIMl00

> <s_epik_cmdline>
J2VwaWtfYXBwJywgJy1pbWFlJywgJ2xpZ2FuZF9wcm8ubWFlJywgJy1vbWFlJywgJ2xpZ2FuZF9wcmVwLm1hZScsICctbXMnLCAnMScsICctcGgnLCAnNycsICctcGh0JywgJzAuNScsICctbnQn

> <r_lp_tautomer_probability>
1

> <r_epik_Ionization_Penalty>
  0.0096

> <r_epik_Ionization_Penalty_Charging>
  0.0069

> <r_epik_Ionization_Penalty_Neutral>
  0.0027

> <r_epik_State_Penalty>
 -0.0000

> <r_epik_Charging_Adjusted_Penalty>
0.00690597259319204

> <i_epik_Tot_Q>
1

> <i_epik_Tot_abs_Q>
1

$$$$
