4bcq_ligand
                    3D
 Schrodinger Suite 2020-3.
 52 55  0  0  1  0            999 V2000
   38.4680  -15.0910   37.0600 C   0  0  0  0  0  0
   37.1750  -14.4660   36.9910 N   0  0  0  0  0  0
   36.4400  -14.4390   35.7640 C   0  0  0  0  0  0
   35.4000  -13.5340   35.4600 N   0  0  0  0  0  0
   34.8570  -13.7820   34.1010 C   0  0  0  0  0  0
   33.7450  -12.9850   33.4970 C   0  0  0  0  0  0
   35.5490  -14.8810   33.4900 C   0  0  0  0  0  0
   35.3300  -15.4620   32.1310 C   0  0  0  0  0  0
   34.9940  -16.7590   32.0220 N   0  0  0  0  0  0
   34.8050  -17.3330   30.8300 C   0  0  0  0  0  0
   34.0840  -21.8960   32.5640 C   0  0  0  0  0  0
   34.4440  -18.7100   30.7000 N   0  0  0  0  0  0
   34.6680  -19.7230   31.6820 C   0  0  0  0  0  0
   35.6410  -19.5950   32.6620 C   0  0  0  0  0  0
   35.8330  -20.5970   33.6000 C   0  0  0  0  0  0
   35.0520  -21.7420   33.5570 C   0  0  0  0  0  0
   35.3430  -26.0850   31.9120 C   0  0  0  0  0  0
   34.5190  -26.6550   30.8760 O   0  0  0  0  0  0
   35.0460  -24.6300   32.0690 C   0  0  0  0  0  0
   33.7110  -24.4270   32.2350 N   0  0  0  0  0  0
   33.2160  -23.1080   32.4790 C   0  0  0  0  0  0
   32.0100  -22.9610   32.6190 O   0  0  0  0  0  0
   32.7830  -25.4210   32.1820 C   0  0  0  0  0  0
   33.1130  -26.4820   31.1730 C   0  0  0  0  0  0
   33.8950  -20.8800   31.6420 C   0  0  0  0  0  0
   34.9450  -16.6230   29.7030 N   0  0  0  0  0  0
   35.2820  -15.3290   29.7320 C   0  0  0  0  0  0
   35.4920  -14.7060   30.9600 C   0  0  0  0  0  0
   35.8700  -13.2650   30.9920 C   0  0  0  0  0  0
   36.1550  -12.1640   31.0120 N   0  0  0  0  0  0
   36.6710  -15.4360   34.5110 S   0  0  0  0  0  0
   38.8627  -15.0049   38.0831 H   0  0  0  0  0  0
   39.1540  -14.5927   36.3591 H   0  0  0  0  0  0
   38.3765  -16.1535   36.7905 H   0  0  0  0  0  0
   36.7401  -14.0014   37.8882 H   0  0  0  0  0  0
   33.4208  -12.2107   34.2078 H   0  0  0  0  0  0
   32.8993  -13.6502   33.2685 H   0  0  0  0  0  0
   34.0971  -12.5079   32.5705 H   0  0  0  0  0  0
   33.9498  -19.0649   29.7836 H   0  0  0  0  0  0
   36.2601  -18.6985   32.6948 H   0  0  0  0  0  0
   36.5964  -20.4853   34.3700 H   0  0  0  0  0  0
   35.1949  -22.5248   34.3019 H   0  0  0  0  0  0
   35.1414  -26.5973   32.8643 H   0  0  0  0  0  0
   36.4034  -26.2083   31.6466 H   0  0  0  0  0  0
   35.5771  -24.2404   32.9500 H   0  0  0  0  0  0
   35.3790  -24.0888   31.1711 H   0  0  0  0  0  0
   32.7107  -25.9079   33.1657 H   0  0  0  0  0  0
   31.8054  -24.9959   31.9106 H   0  0  0  0  0  0
   32.5749  -26.2088   30.2533 H   0  0  0  0  0  0
   32.7040  -27.4222   31.5715 H   0  0  0  0  0  0
   33.1295  -20.9879   30.8735 H   0  0  0  0  0  0
   35.3912  -14.7676   28.8041 H   0  0  0  0  0  0
  1  2  1  0  0  0
  1 32  1  0  0  0
  1 33  1  0  0  0
  1 34  1  0  0  0
  2  3  1  0  0  0
  2 35  1  0  0  0
  3  4  2  0  0  0
  3 31  1  0  0  0
  4  5  1  0  0  0
  5  6  1  0  0  0
  5  7  2  0  0  0
  6 36  1  0  0  0
  6 37  1  0  0  0
  6 38  1  0  0  0
  7  8  1  0  0  0
  7 31  1  0  0  0
  8  9  2  0  0  0
  8 28  1  0  0  0
  9 10  1  0  0  0
 10 12  1  0  0  0
 10 26  2  0  0  0
 11 16  2  0  0  0
 11 21  1  0  0  0
 11 25  1  0  0  0
 12 13  1  0  0  0
 12 39  1  0  0  0
 13 14  1  0  0  0
 13 25  2  0  0  0
 14 15  2  0  0  0
 14 40  1  0  0  0
 15 16  1  0  0  0
 15 41  1  0  0  0
 16 42  1  0  0  0
 17 18  1  0  0  0
 17 19  1  0  0  0
 17 43  1  0  0  0
 17 44  1  0  0  0
 18 24  1  0  0  0
 19 20  1  0  0  0
 19 45  1  0  0  0
 19 46  1  0  0  0
 20 21  1  0  0  0
 20 23  1  0  0  0
 21 22  2  0  0  0
 23 24  1  0  0  0
 23 47  1  0  0  0
 23 48  1  0  0  0
 24 49  1  0  0  0
 24 50  1  0  0  0
 25 51  1  0  0  0
 26 27  1  0  0  0
 27 28  2  0  0  0
 27 52  1  0  0  0
 28 29  1  0  0  0
 29 30  3  0  0  0
M  END
> <s_m_source_file>
../4bcq_ligand.sdf

> <i_m_source_file_index>
1

> <s_epik_input>
W0NIM11bTkhdYzFuYyhbQ0gzXSljKHMxKS1jMm5jKG5bY0hdYzJDI04pW05IXWMoW2NIXTMpW2NIXVtjSF1bY0hdYzNDKD1PKU40W0NIMl1bQ0gyXU9bQ0gyXVtDSDJdNA==

> <s_epik_cmdline>
J2VwaWtfYXBwJywgJy1pbWFlJywgJ2xpZ2FuZF9wcm8ubWFlJywgJy1vbWFlJywgJ2xpZ2FuZF9wcmVwLm1hZScsICctbXMnLCAnMScsICctcGgnLCAnNycsICctcGh0JywgJzAuNScsICctbnQn

> <r_lp_tautomer_probability>
1

> <r_epik_Ionization_Penalty>
  0.0027

> <r_epik_Ionization_Penalty_Charging>
  0.0000

> <r_epik_Ionization_Penalty_Neutral>
  0.0027

> <r_epik_State_Penalty>
 -0.0000

> <r_epik_Charging_Adjusted_Penalty>
0

> <i_epik_Tot_Q>
0

> <i_epik_Tot_abs_Q>
0

$$$$
