4bcs_ligand
                    3D
 Schrodinger Suite 2020-3.
 31 32  0  0  1  0            999 V2000
   69.0870   -8.7500   33.2670 C   0  0  0  0  0  0
   69.4980   -9.9130   33.6350 O   0  5  0  0  0  0
   68.4570   -8.5210   32.1890 O   0  0  0  0  0  0
   69.4250   -7.6330   34.2090 C   0  0  0  0  0  0
   68.7250   -6.2940   33.9190 C   0  0  0  0  0  0
   69.4490   -5.4340   32.8760 C   0  0  0  0  0  0
   68.6950   -4.1040   32.7450 C   0  0  0  0  0  0
   69.4840   -3.1720   31.7700 C   0  0  2  0  0  0
   70.9180   -2.4660   32.5580 S   0  0  0  0  0  0
   71.0720   -1.2710   31.2210 C   0  0  0  0  0  0
   69.6350   -0.9360   30.7680 C   0  0  2  0  0  0
   69.2110    0.2440   31.5170 N   0  0  0  0  0  0
   68.2030   -0.0270   32.3580 C   0  0  0  0  0  0
   67.6180    0.7920   33.0460 O   0  0  0  0  0  0
   67.8960   -1.3290   32.3060 N   0  0  0  0  0  0
   68.6420   -2.0140   31.2400 C   0  0  2  0  0  0
   69.1413   -7.9183   35.2328 H   0  0  0  0  0  0
   70.5063   -7.4349   34.1699 H   0  0  0  0  0  0
   67.7106   -6.4853   33.5390 H   0  0  0  0  0  0
   68.6642   -5.7038   34.8453 H   0  0  0  0  0  0
   70.4828   -5.2519   33.2047 H   0  0  0  0  0  0
   69.4587   -5.9600   31.9099 H   0  0  0  0  0  0
   67.6868   -4.2917   32.3472 H   0  0  0  0  0  0
   68.6163   -3.6282   33.7336 H   0  0  0  0  0  0
   69.6231   -3.8300   30.8995 H   0  0  0  0  0  0
   71.5882   -0.3725   31.5900 H   0  0  0  0  0  0
   71.6512   -1.7145   30.3977 H   0  0  0  0  0  0
   69.6220   -0.7844   29.6786 H   0  0  0  0  0  0
   69.7122    1.2093   31.3525 H   0  0  0  0  0  0
   67.1929   -1.8940   32.9357 H   0  0  0  0  0  0
   67.9281   -2.4106   30.5031 H   0  0  0  0  0  0
  1  2  1  0  0  0
  1  3  2  0  0  0
  1  4  1  0  0  0
  4  5  1  0  0  0
  4 17  1  0  0  0
  4 18  1  0  0  0
  5  6  1  0  0  0
  5 19  1  0  0  0
  5 20  1  0  0  0
  6  7  1  0  0  0
  6 21  1  0  0  0
  6 22  1  0  0  0
  7  8  1  0  0  0
  7 23  1  0  0  0
  7 24  1  0  0  0
  8  9  1  0  0  0
  8 16  1  0  0  0
  8 25  1  0  0  0
  9 10  1  0  0  0
 10 11  1  0  0  0
 10 26  1  0  0  0
 10 27  1  0  0  0
 11 12  1  0  0  0
 11 16  1  0  0  0
 11 28  1  0  0  0
 12 13  1  0  0  0
 12 29  1  0  0  0
 13 14  2  0  0  0
 13 15  1  0  0  0
 15 16  1  0  0  0
 15 30  1  0  0  0
 16 31  1  0  0  0
M  CHG  1   2  -1
M  END
> <s_m_source_file>
../4bcs_ligand.sdf

> <i_m_source_file_index>
1

> <s_epik_input>
W09IXUMoPU8pW0NIMl1bQ0gyXVtDSDJdW0NIMl1bQ0BIXShTW0NIMl0xKVtDQEhdKFtDQEhdMTIpW05IXUMoPU8pW05IXTI=

> <s_epik_cmdline>
J2VwaWtfYXBwJywgJy1pbWFlJywgJ2xpZ2FuZF9wcm8ubWFlJywgJy1vbWFlJywgJ2xpZ2FuZF9wcmVwLm1hZScsICctbXMnLCAnMScsICctcGgnLCAnNycsICctcGh0JywgJzAuNScsICctbnQn

> <r_lp_tautomer_probability>
1

> <r_epik_Ionization_Penalty>
  0.0045

> <r_epik_Ionization_Penalty_Charging>
  0.0044

> <r_epik_Ionization_Penalty_Neutral>
  0.0000

> <r_epik_State_Penalty>
 -0.0000

> <r_epik_Charging_Adjusted_Penalty>
0.00443833021372702

> <i_epik_Tot_Q>
-1

> <i_epik_Tot_abs_Q>
1

$$$$
