4bcw_ligand
                    3D
 Schrodinger Suite 2020-3.
 20 20  0  0  1  0            999 V2000
   -7.4380    7.1050   12.1310 Br  0  0  0  0  0  0
   -5.9200    6.2530   12.8710 C   0  0  0  0  0  0
   -4.6620    6.6880   12.4580 C   0  0  0  0  0  0
   -3.5150    6.0950   12.9780 C   0  0  0  0  0  0
   -6.0960    5.2280   13.8060 C   0  0  0  0  0  0
   -4.9850    4.6090   14.3670 C   0  0  0  0  0  0
   -3.6500    5.0750   13.9210 C   0  0  0  0  0  0
   -2.5330    4.5170   14.4180 O   0  0  0  0  0  0
   -5.0810    3.4810   15.3470 C   0  0  0  0  0  0
   -6.0920    3.2360   16.1850 C   0  0  0  0  0  0
   -6.0840    1.9800   17.1730 S   0  0  0  0  0  0
   -7.0460    0.9840   16.6210 O   0  5  0  0  0  0
   -6.5400    2.4350   18.5050 O   0  0  0  0  0  0
   -4.7010    1.4410   17.2720 O   0  0  0  0  0  0
   -4.5763    7.4926   11.7277 H   0  0  0  0  0  0
   -2.5271    6.4221   12.6538 H   0  0  0  0  0  0
   -7.1000    4.9159   14.0936 H   0  0  0  0  0  0
   -1.5463    4.8684   14.0820 H   0  0  0  0  0  0
   -4.2040    2.8172   15.3343 H   0  0  0  0  0  0
   -6.9624    3.9082   16.2082 H   0  0  0  0  0  0
  1  2  1  0  0  0
  2  3  2  0  0  0
  2  5  1  0  0  0
  3  4  1  0  0  0
  3 15  1  0  0  0
  4  7  2  0  0  0
  4 16  1  0  0  0
  5  6  2  0  0  0
  5 17  1  0  0  0
  6  7  1  0  0  0
  6  9  1  0  0  0
  7  8  1  0  0  0
  8 18  1  0  0  0
  9 10  2  0  0  0
  9 19  1  0  0  0
 10 11  1  0  0  0
 10 20  1  0  0  0
 11 12  1  0  0  0
 11 13  2  0  0  0
 11 14  2  0  0  0
M  CHG  1  12  -1
M  END
> <s_m_source_file>
../4bcw_ligand.sdf

> <i_m_source_file_index>
1

> <s_epik_input>
QnJjMVtjSF1bY0hdYyhbT0hdKWMoW2NIXTEpL1tDSF09W0NIXS9TKD1PKSg9TylbT0hd

> <s_epik_cmdline>
J2VwaWtfYXBwJywgJy1pbWFlJywgJ2xpZ2FuZF9wcm8ubWFlJywgJy1vbWFlJywgJ2xpZ2FuZF9wcmVwLm1hZScsICctbXMnLCAnMScsICctcGgnLCAnNycsICctcGh0JywgJzAuNScsICctbnQn

> <r_epik_Ionization_Penalty>
  0.0278

> <r_epik_Ionization_Penalty_Charging>
  0.0000

> <r_epik_Ionization_Penalty_Neutral>
  0.0278

> <r_epik_State_Penalty>
  0.0228

> <r_epik_Charging_Adjusted_Penalty>
0.0228091952794381

> <i_epik_Tot_Q>
-1

> <i_epik_Tot_abs_Q>
1

$$$$
