4bda_ligand
                    3D
 Schrodinger Suite 2020-3.
 17 19  0  0  1  0            999 V2000
  -38.0500   33.8920    5.3340 N   0  0  0  0  0  0
  -39.3030   31.6980    5.4990 C   0  0  0  0  0  0
  -39.1530   30.6970    7.6980 C   0  0  0  0  0  0
  -38.5540   32.7730    5.9750 C   0  0  0  0  0  0
  -38.4160   31.7780    8.1780 C   0  0  0  0  0  0
  -36.1640   35.6640    7.6140 C   0  0  0  0  0  0
  -37.2960   34.6090    6.1990 C   0  0  0  0  0  0
  -36.5450   35.6930    6.3090 N   0  0  0  0  0  0
  -36.5980   34.6550    8.3340 N   0  0  0  0  0  0
  -39.5860   30.6560    6.3730 C   0  0  0  0  0  0
  -38.1110   32.8070    7.2970 C   0  0  0  0  0  0
  -37.3430   33.9440    7.4190 N   0  0  0  0  0  0
  -39.6572   31.6756    4.4684 H   0  0  0  0  0  0
  -39.3945   29.8717    8.3678 H   0  0  0  0  0  0
  -38.0879   31.8147    9.2168 H   0  0  0  0  0  0
  -35.5294   36.4402    8.0416 H   0  0  0  0  0  0
  -40.1536   29.7955    6.0187 H   0  0  0  0  0  0
  1  4  1  0  0  0
  1  7  1  0  0  0
  2  4  1  0  0  0
  2 10  2  0  0  0
  2 13  1  0  0  0
  3  5  2  0  0  0
  3 10  1  0  0  0
  3 14  1  0  0  0
  4 11  2  0  0  0
  5 11  1  0  0  0
  5 15  1  0  0  0
  6  8  1  0  0  0
  6  9  2  0  0  0
  6 16  1  0  0  0
  7  8  2  0  0  0
  7 12  1  0  0  0
  9 12  1  0  0  0
 10 17  1  0  0  0
 11 12  1  0  0  0
M  END
> <s_m_source_file>
../4bda_ligand.sdf

> <i_m_source_file_index>
1

> <s_epik_input>
bjFbY0hdbmMoW25IXTIpbjFjKGMyMylbY0hdW2NIXVtjSF1bY0hdMw==

> <s_epik_cmdline>
J2VwaWtfYXBwJywgJy1pbWFlJywgJ2xpZ2FuZF9wcm8ubWFlJywgJy1vbWFlJywgJ2xpZ2FuZF9wcmVwLm1hZScsICctbXMnLCAnMScsICctcGgnLCAnNycsICctcGh0JywgJzAuNScsICctbnQn

> <r_lp_tautomer_probability>
1

> <r_epik_Ionization_Penalty>
  0.0000

> <r_epik_Ionization_Penalty_Charging>
  0.0000

> <r_epik_Ionization_Penalty_Neutral>
  0.0000

> <r_epik_State_Penalty>
 -0.0000

> <r_epik_Charging_Adjusted_Penalty>
0

> <i_epik_Tot_Q>
0

> <i_epik_Tot_abs_Q>
0

$$$$
