4bdb_ligand
                    3D
 Schrodinger Suite 2020-3.
 21 21  0  0  1  0            999 V2000
  -35.1630   35.0470   10.2520 O   0  0  0  0  0  0
  -36.3080   36.2210    8.1200 C   0  0  0  0  0  0
  -36.5730   34.7940    8.5210 C   0  0  0  0  0  0
  -37.5160   33.9530    7.7490 C   0  0  0  0  0  0
  -37.1380   35.1290    5.6550 O   0  0  0  0  0  0
  -37.6580   34.0810    6.3450 C   0  0  0  0  0  0
  -38.3620   33.1360    5.6110 C   0  0  0  0  0  0
  -38.9380   32.0490    6.2570 C   0  0  0  0  0  0
  -39.5500   31.0720    5.5220 O   0  0  0  0  0  0
  -38.8500   31.9280    7.6350 C   0  0  0  0  0  0
  -38.1550   32.8740    8.3670 C   0  0  0  0  0  0
  -36.0500   34.2180    9.5410 N   0  0  0  0  0  0
  -34.6513   34.6648   11.1476 H   0  0  0  0  0  0
  -36.8813   36.4592    7.2119 H   0  0  0  0  0  0
  -35.2342   36.3525    7.9208 H   0  0  0  0  0  0
  -36.6149   36.8937    8.9344 H   0  0  0  0  0  0
  -36.5704   35.9086    6.1842 H   0  0  0  0  0  0
  -38.4626   33.2464    4.5313 H   0  0  0  0  0  0
  -39.6195   31.1686    4.4285 H   0  0  0  0  0  0
  -39.3276   31.0889    8.1410 H   0  0  0  0  0  0
  -38.1044   32.7758    9.4514 H   0  0  0  0  0  0
  1 12  1  0  0  0
  1 13  1  0  0  0
  2  3  1  0  0  0
  2 14  1  0  0  0
  2 15  1  0  0  0
  2 16  1  0  0  0
  3  4  1  0  0  0
  3 12  2  0  0  0
  4  6  2  0  0  0
  4 11  1  0  0  0
  5  6  1  0  0  0
  5 17  1  0  0  0
  6  7  1  0  0  0
  7  8  2  0  0  0
  7 18  1  0  0  0
  8  9  1  0  0  0
  8 10  1  0  0  0
  9 19  1  0  0  0
 10 11  2  0  0  0
 10 20  1  0  0  0
 11 21  1  0  0  0
M  END
> <s_m_source_file>
../4bdb_ligand.sdf

> <i_m_source_file_index>
1

> <s_epik_input>
W09IXS9OPUMoXFtDSDNdKWMxYyhbT0hdKVtjSF1jKFtPSF0pW2NIXVtjSF0x

> <s_epik_cmdline>
J2VwaWtfYXBwJywgJy1pbWFlJywgJ2xpZ2FuZF9wcm8ubWFlJywgJy1vbWFlJywgJ2xpZ2FuZF9wcmVwLm1hZScsICctbXMnLCAnMScsICctcGgnLCAnNycsICctcGh0JywgJzAuNScsICctbnQn

> <r_lp_tautomer_probability>
1

> <r_epik_Ionization_Penalty>
  0.0077

> <r_epik_Ionization_Penalty_Charging>
  0.0000

> <r_epik_Ionization_Penalty_Neutral>
  0.0077

> <r_epik_State_Penalty>
 -0.0000

> <r_epik_Charging_Adjusted_Penalty>
0

> <i_epik_Tot_Q>
0

> <i_epik_Tot_abs_Q>
0

> <s_epik_Chemistry_Notes>
This compound has an imine and may undergo hydrolysis.

$$$$
