4bdd_ligand
                    3D
 Schrodinger Suite 2020-3.
 34 35  0  0  1  0            999 V2000
  -40.0170   31.7010    3.2650 O   0  0  0  0  0  0
  -40.3000   30.8040    4.0610 C   0  0  0  0  0  0
  -41.0220   29.6920    3.7580 N   0  0  0  0  0  0
  -41.6040   29.3250    2.4430 C   0  0  0  0  0  0
  -42.3850   28.0380    2.6640 C   0  0  0  0  0  0
  -42.5470   30.4120    1.9430 C   0  0  0  0  0  0
  -40.5050   29.0830    1.4190 C   0  0  0  0  0  0
  -39.9270   30.8000    5.3860 N   0  0  0  0  0  0
  -39.1400   31.7390    6.1040 C   0  0  0  0  0  0
  -38.9390   31.4760    7.4620 C   0  0  0  0  0  0
  -38.2320   32.3430    8.2470 C   0  0  0  0  0  0
  -37.6780   33.5200    7.6960 C   0  0  0  0  0  0
  -37.8560   33.7830    6.3210 C   0  0  0  0  0  0
  -38.6000   32.8790    5.5270 C   0  0  0  0  0  0
  -36.9450   34.3710    8.4870 N   0  0  0  0  0  0
  -36.4140   35.4220    7.8830 C   0  0  0  0  0  0
  -36.5740   35.6680    6.5220 C   0  0  0  0  0  0
  -37.2860   34.8810    5.7300 N   0  0  0  0  0  0
  -41.1573   29.0274    4.6241 H   0  0  0  0  0  0
  -43.1793   28.2137    3.4044 H   0  0  0  0  0  0
  -41.7057   27.2558    3.0336 H   0  0  0  0  0  0
  -42.8346   27.7142    1.7137 H   0  0  0  0  0  0
  -43.3386   30.5817    2.6877 H   0  0  0  0  0  0
  -43.0001   30.0953    0.9920 H   0  0  0  0  0  0
  -41.9832   31.3438    1.7883 H   0  0  0  0  0  0
  -39.8282   28.2975    1.7863 H   0  0  0  0  0  0
  -39.9377   30.0125    1.2634 H   0  0  0  0  0  0
  -40.9546   28.7641    0.4671 H   0  0  0  0  0  0
  -40.2492   29.9808    6.0456 H   0  0  0  0  0  0
  -39.3516   30.5675    7.9007 H   0  0  0  0  0  0
  -38.0945   32.1248    9.3060 H   0  0  0  0  0  0
  -38.7484   33.0776    4.4656 H   0  0  0  0  0  0
  -35.8272   36.1240    8.4754 H   0  0  0  0  0  0
  -36.0928   36.5455    6.0901 H   0  0  0  0  0  0
  1  2  2  0  0  0
  2  3  1  0  0  0
  2  8  1  0  0  0
  3  4  1  0  0  0
  3 19  1  0  0  0
  4  5  1  0  0  0
  4  6  1  0  0  0
  4  7  1  0  0  0
  5 20  1  0  0  0
  5 21  1  0  0  0
  5 22  1  0  0  0
  6 23  1  0  0  0
  6 24  1  0  0  0
  6 25  1  0  0  0
  7 26  1  0  0  0
  7 27  1  0  0  0
  7 28  1  0  0  0
  8  9  1  0  0  0
  8 29  1  0  0  0
  9 10  2  0  0  0
  9 14  1  0  0  0
 10 11  1  0  0  0
 10 30  1  0  0  0
 11 12  2  0  0  0
 11 31  1  0  0  0
 12 13  1  0  0  0
 12 15  1  0  0  0
 13 14  2  0  0  0
 13 18  1  0  0  0
 14 32  1  0  0  0
 15 16  2  0  0  0
 16 17  1  0  0  0
 16 33  1  0  0  0
 17 18  2  0  0  0
 17 34  1  0  0  0
M  END
> <s_m_source_file>
../4bdd_ligand.sdf

> <i_m_source_file_index>
1

> <s_epik_input>
W0NIM11DKFtDSDNdKShbQ0gzXSlbTkhdQyg9TylbTkhdYyhbY0hdW2NIXTEpW2NIXWMoYzEyKW5bY0hdW2NIXW4y

> <s_epik_cmdline>
J2VwaWtfYXBwJywgJy1pbWFlJywgJ2xpZ2FuZF9wcm8ubWFlJywgJy1vbWFlJywgJ2xpZ2FuZF9wcmVwLm1hZScsICctbXMnLCAnMScsICctcGgnLCAnNycsICctcGh0JywgJzAuNScsICctbnQn

> <r_lp_tautomer_probability>
1

> <r_epik_Ionization_Penalty>
  0.0000

> <r_epik_Ionization_Penalty_Charging>
  0.0000

> <r_epik_Ionization_Penalty_Neutral>
  0.0000

> <r_epik_State_Penalty>
 -0.0000

> <r_epik_Charging_Adjusted_Penalty>
0

> <i_epik_Tot_Q>
0

> <i_epik_Tot_abs_Q>
0

$$$$
