4bdg_ligand
                    3D
 Schrodinger Suite 2020-3.
 19 20  0  0  1  0            999 V2000
  -36.4030   35.0950    7.1750 C   0  0  0  0  0  0
  -37.0160   33.9730    7.7600 C   0  0  0  0  0  0
  -35.7330   36.0430    7.8180 N   0  0  0  0  0  0
  -36.6190   35.0640    5.8160 N   0  0  0  0  0  0
  -38.4410   31.2160    7.9380 C   0  0  0  0  0  0
  -38.3540   31.9790    6.7810 C   0  0  0  0  0  0
  -37.6110   33.2530    6.7480 C   0  0  3  0  0  0
  -39.1130   30.0580    8.0200 N   0  0  0  0  0  0
  -39.7310   29.6240    6.9160 C   0  0  0  0  0  0
  -39.7060   30.3060    5.7130 C   0  0  0  0  0  0
  -39.0040   31.4970    5.6500 C   0  0  0  0  0  0
  -37.3580   33.9350    5.6100 N   0  0  0  0  0  0
  -36.9549   33.8172    8.8472 H   0  0  0  0  0  0
  -35.6097   35.9854    8.9095 H   0  0  0  0  0  0
  -35.3009   36.8864    7.2594 H   0  0  0  0  0  0
  -37.9336   31.5793    8.8317 H   0  0  0  0  0  0
  -40.2824   28.6851    6.9670 H   0  0  0  0  0  0
  -40.2254   29.9158    4.8378 H   0  0  0  0  0  0
  -38.9606   32.0563    4.7155 H   0  0  0  0  0  0
  1  2  2  0  0  0
  1  3  1  0  0  0
  1  4  1  0  0  0
  2  7  1  0  0  0
  2 13  1  0  0  0
  3 14  1  0  0  0
  3 15  1  0  0  0
  4 12  2  0  0  0
  5  6  2  0  0  0
  5  8  1  0  0  0
  5 16  1  0  0  0
  6  7  1  0  0  0
  6 11  1  0  0  0
  7 12  1  0  0  0
  8  9  2  0  0  0
  9 10  1  0  0  0
  9 17  1  0  0  0
 10 11  2  0  0  0
 10 18  1  0  0  0
 11 19  1  0  0  0
M  END
> <s_m_source_file>
../4bdg_ligand.sdf

> <i_m_source_file_index>
1

> <s_epik_input>
W05IMl1DMT1bQ0hdW0NIXShOPU4xKWMyW2NIXW5bY0hdW2NIXVtjSF0y

> <s_epik_cmdline>
J2VwaWtfYXBwJywgJy1pbWFlJywgJ2xpZ2FuZF9wcm8ubWFlJywgJy1vbWFlJywgJ2xpZ2FuZF9wcmVwLm1hZScsICctbXMnLCAnMScsICctcGgnLCAnNycsICctcGh0JywgJzAuNScsICctbnQn

> <r_lp_tautomer_probability>
1

> <r_epik_Ionization_Penalty>
  0.0003

> <r_epik_Ionization_Penalty_Charging>
  0.0000

> <r_epik_Ionization_Penalty_Neutral>
  0.0003

> <r_epik_State_Penalty>
 -0.0000

> <r_epik_Charging_Adjusted_Penalty>
0

> <i_epik_Tot_Q>
0

> <i_epik_Tot_abs_Q>
0

$$$$
