4bdi_ligand
                    3D
 Schrodinger Suite 2020-3.
 38 39  0  0  1  0            999 V2000
   -4.6020   52.2580   14.6640 C   0  0  0  0  0  0
   -5.0310   53.2170   15.2890 O   0  0  0  0  0  0
   -3.1270   52.0030   14.5740 C   0  0  0  0  0  0
   -5.4560   51.3690   14.0680 N   0  0  0  0  0  0
   -7.1020   50.4420    9.5660 O   0  0  0  0  0  0
  -11.1130   49.1900    9.8290 N   0  0  0  0  0  0
   -5.0600   50.1280   13.3770 C   0  0  0  0  0  0
   -8.9870   49.6260   10.5800 N   0  0  0  0  0  0
   -5.5900   50.0870   11.9410 C   0  0  0  0  0  0
   -7.1210   50.2290   11.9680 C   0  0  0  0  0  0
   -7.5050   51.5510   12.6570 C   0  0  0  0  0  0
   -6.9160   51.5780   14.0750 C   0  0  0  0  0  0
   -7.7250   50.1230   10.5780 C   0  0  0  0  0  0
   -9.8320   49.3990    9.4800 C   0  0  0  0  0  0
   -9.4040   49.3530    8.1380 C   0  0  0  0  0  0
  -10.3550   49.0990    7.1650 C   0  0  0  0  0  0
  -11.6860   48.8980    7.5000 C   0  0  0  0  0  0
  -11.9950   48.9440    8.8500 C   0  0  0  0  0  0
  -12.7490   48.6860    6.4500 C   0  0  0  0  0  0
   -2.5840   52.8024   15.0994 H   0  0  0  0  0  0
   -2.8217   51.9855   13.5173 H   0  0  0  0  0  0
   -2.8934   51.0340   15.0393 H   0  0  0  0  0  0
   -3.9625   50.0612   13.3435 H   0  0  0  0  0  0
   -5.4637   49.2609   13.9204 H   0  0  0  0  0  0
   -9.4664   49.3461   11.5297 H   0  0  0  0  0  0
   -5.1509   50.9144   11.3643 H   0  0  0  0  0  0
   -5.3145   49.1291   11.4757 H   0  0  0  0  0  0
   -7.5457   49.3891   12.5373 H   0  0  0  0  0  0
   -7.1053   52.3961   12.0774 H   0  0  0  0  0  0
   -8.6007   51.6305   12.7131 H   0  0  0  0  0  0
   -7.3974   50.7828   14.6632 H   0  0  0  0  0  0
   -7.1443   52.5558   14.5243 H   0  0  0  0  0  0
   -8.3583   49.5122    7.8750 H   0  0  0  0  0  0
  -10.0532   49.0562    6.1185 H   0  0  0  0  0  0
  -13.0316   48.7671    9.1370 H   0  0  0  0  0  0
  -12.2843   48.6840    5.4530 H   0  0  0  0  0  0
  -13.4888   49.4980    6.5081 H   0  0  0  0  0  0
  -13.2486   47.7215    6.6236 H   0  0  0  0  0  0
  1  2  2  0  0  0
  1  3  1  0  0  0
  1  4  1  0  0  0
  3 20  1  0  0  0
  3 21  1  0  0  0
  3 22  1  0  0  0
  4  7  1  0  0  0
  4 12  1  0  0  0
  5 13  2  0  0  0
  6 14  2  0  0  0
  6 18  1  0  0  0
  7  9  1  0  0  0
  7 23  1  0  0  0
  7 24  1  0  0  0
  8 13  1  0  0  0
  8 14  1  0  0  0
  8 25  1  0  0  0
  9 10  1  0  0  0
  9 26  1  0  0  0
  9 27  1  0  0  0
 10 11  1  0  0  0
 10 13  1  0  0  0
 10 28  1  0  0  0
 11 12  1  0  0  0
 11 29  1  0  0  0
 11 30  1  0  0  0
 12 31  1  0  0  0
 12 32  1  0  0  0
 14 15  1  0  0  0
 15 16  2  0  0  0
 15 33  1  0  0  0
 16 17  1  0  0  0
 16 34  1  0  0  0
 17 18  2  0  0  0
 17 19  1  0  0  0
 18 35  1  0  0  0
 19 36  1  0  0  0
 19 37  1  0  0  0
 19 38  1  0  0  0
M  END
> <s_m_source_file>
../4bdi_ligand.sdf

> <i_m_source_file_index>
1

> <s_epik_input>
Tz1DKFtDSDNdKU4xW0NIMl1bQ0gyXVtDSF0oW0NIMl1bQ0gyXTEpQyg9TylbTkhdYzJuW2NIXWMoW0NIM10pW2NIXVtjSF0y

> <s_epik_cmdline>
J2VwaWtfYXBwJywgJy1pbWFlJywgJ2xpZ2FuZF9wcm8ubWFlJywgJy1vbWFlJywgJ2xpZ2FuZF9wcmVwLm1hZScsICctbXMnLCAnMScsICctcGgnLCAnNycsICctcGh0JywgJzAuNScsICctbnQn

> <r_lp_tautomer_probability>
1

> <r_epik_Ionization_Penalty>
  0.0027

> <r_epik_Ionization_Penalty_Charging>
  0.0000

> <r_epik_Ionization_Penalty_Neutral>
  0.0027

> <r_epik_State_Penalty>
 -0.0000

> <r_epik_Charging_Adjusted_Penalty>
0

> <i_epik_Tot_Q>
0

> <i_epik_Tot_abs_Q>
0

$$$$
