4bdk_ligand
                    3D
 Schrodinger Suite 2020-3.
 37 39  0  0  1  0            999 V2000
   40.5000  -30.5360    4.7880 O   0  0  0  0  0  0
   39.8100  -31.5110    4.4880 C   0  0  0  0  0  0
   39.1110  -32.3150    5.5450 C   0  0  0  0  0  0
   39.3100  -31.9810    6.8890 C   0  0  0  0  0  0
   38.6540  -32.6470    7.8830 C   0  0  0  0  0  0
   38.2580  -33.3470    5.2130 C   0  0  0  0  0  0
   37.5640  -34.0470    6.2260 C   0  0  0  0  0  0
   36.6840  -35.0380    5.8760 N   0  0  0  0  0  0
   36.0430  -35.6300    6.8700 C   0  0  0  0  0  0
   36.2330  -35.2770    8.2020 C   0  0  0  0  0  0
   37.0720  -34.3260    8.5770 N   0  0  0  0  0  0
   37.7590  -33.6930    7.5760 C   0  0  0  0  0  0
   39.6490  -31.9120    3.2200 N   0  0  0  0  0  0
   40.4120  -31.3580    2.1090 C   0  0  0  0  0  0
   41.3860  -32.3380    1.5020 C   0  0  0  0  0  0
   41.4550  -32.5120    0.1270 C   0  0  0  0  0  0
   42.3090  -33.4440   -0.4380 C   0  0  0  0  0  0
   43.1200  -34.2210    0.3830 C   0  0  0  0  0  0
   43.9800  -35.2270    0.0070 O   0  0  0  0  0  0
   44.1070  -35.5310   -1.3850 C   0  0  0  0  0  0
   43.0840  -34.0370    1.7570 C   0  0  0  0  0  0
   42.2200  -33.1040    2.3040 C   0  0  0  0  0  0
   39.9994  -31.1767    7.1459 H   0  0  0  0  0  0
   38.8231  -32.3683    8.9231 H   0  0  0  0  0  0
   38.1189  -33.6231    4.1678 H   0  0  0  0  0  0
   35.3371  -36.4269    6.6359 H   0  0  0  0  0  0
   35.6669  -35.8062    8.9685 H   0  0  0  0  0  0
   38.9003  -32.6966    3.0360 H   0  0  0  0  0  0
   39.7226  -31.0417    1.3124 H   0  0  0  0  0  0
   40.9913  -30.4906    2.4584 H   0  0  0  0  0  0
   40.8246  -31.9031   -0.5209 H   0  0  0  0  0  0
   42.3457  -33.5683   -1.5203 H   0  0  0  0  0  0
   44.8271  -36.3520   -1.5168 H   0  0  0  0  0  0
   44.4635  -34.6406   -1.9237 H   0  0  0  0  0  0
   43.1281  -35.8341   -1.7849 H   0  0  0  0  0  0
   43.7342  -34.6254    2.4044 H   0  0  0  0  0  0
   42.1943  -32.9685    3.3852 H   0  0  0  0  0  0
  1  2  2  0  0  0
  2  3  1  0  0  0
  2 13  1  0  0  0
  3  4  2  0  0  0
  3  6  1  0  0  0
  4  5  1  0  0  0
  4 23  1  0  0  0
  5 12  2  0  0  0
  5 24  1  0  0  0
  6  7  2  0  0  0
  6 25  1  0  0  0
  7  8  1  0  0  0
  7 12  1  0  0  0
  8  9  2  0  0  0
  9 10  1  0  0  0
  9 26  1  0  0  0
 10 11  2  0  0  0
 10 27  1  0  0  0
 11 12  1  0  0  0
 13 14  1  0  0  0
 13 28  1  0  0  0
 14 15  1  0  0  0
 14 29  1  0  0  0
 14 30  1  0  0  0
 15 16  2  0  0  0
 15 22  1  0  0  0
 16 17  1  0  0  0
 16 31  1  0  0  0
 17 18  2  0  0  0
 17 32  1  0  0  0
 18 19  1  0  0  0
 18 21  1  0  0  0
 19 20  1  0  0  0
 20 33  1  0  0  0
 20 34  1  0  0  0
 20 35  1  0  0  0
 21 22  2  0  0  0
 21 36  1  0  0  0
 22 37  1  0  0  0
M  END
> <s_m_source_file>
../4bdk_ligand.sdf

> <i_m_source_file_index>
1

> <s_epik_input>
W0NIM11PYyhbY0hdW2NIXTEpW2NIXVtjSF1jMVtDSDJdW05IXUMoPU8pYyhbY0hdMilbY0hdW2NIXWMoYzIzKW5bY0hdW2NIXW4z

> <s_epik_cmdline>
J2VwaWtfYXBwJywgJy1pbWFlJywgJ2xpZ2FuZF9wcm8ubWFlJywgJy1vbWFlJywgJ2xpZ2FuZF9wcmVwLm1hZScsICctbXMnLCAnMScsICctcGgnLCAnNycsICctcGh0JywgJzAuNScsICctbnQn

> <r_lp_tautomer_probability>
1

> <r_epik_Ionization_Penalty>
  0.0000

> <r_epik_Ionization_Penalty_Charging>
  0.0000

> <r_epik_Ionization_Penalty_Neutral>
  0.0000

> <r_epik_State_Penalty>
 -0.0000

> <r_epik_Charging_Adjusted_Penalty>
0

> <i_epik_Tot_Q>
0

> <i_epik_Tot_abs_Q>
0

$$$$
