4bds_ligand
                    3D
 Schrodinger Suite 2020-3.
 26 28  0  0  1  0            999 V2000
  131.9830  113.3930   41.6630 C   0  0  0  0  0  0
  131.3640  113.0730   42.8390 C   0  0  0  0  0  0
  131.1960  114.0290   43.8590 C   0  0  0  0  0  0
  131.6680  115.3180   43.6930 C   0  0  0  0  0  0
  133.8550  118.8390   41.1760 C   0  0  0  0  0  0
  134.9560  119.1530   40.1640 C   0  0  0  0  0  0
  134.5560  118.5750   38.8110 C   0  0  0  0  0  0
  134.2990  117.0330   38.9020 C   0  0  0  0  0  0
  133.1440  115.1750   40.2430 C   0  0  0  0  0  0
  132.7680  117.0120   42.3620 N   0  3  0  0  0  0
  133.3880  117.3870   41.2260 C   0  0  0  0  0  0
  133.6100  116.5280   40.1270 C   0  0  0  0  0  0
  132.4820  114.7340   41.4480 C   0  0  0  0  0  0
  132.3270  115.6940   42.4700 C   0  0  0  0  0  0
  133.3210  114.2600   39.2330 N   0  0  0  0  0  0
  132.1008  112.6372   40.8865 H   0  0  0  0  0  0
  130.9936  112.0590   42.9899 H   0  0  0  0  0  0
  130.6912  113.7515   44.7843 H   0  0  0  0  0  0
  131.5408  116.0507   44.4899 H   0  0  0  0  0  0
  133.4289  119.6057   41.8231 H   0  0  0  0  0  0
  135.8752  119.6997   40.3745 H   0  0  0  0  0  0
  134.4610  119.1607   37.8966 H   0  0  0  0  0  0
  134.6097  116.3571   38.1053 H   0  0  0  0  0  0
  133.8212  114.5601   38.3004 H   0  0  0  0  0  0
  132.9625  113.2275   39.3572 H   0  0  0  0  0  0
  132.6212  117.7391   43.1743 H   0  0  0  0  0  0
  1  2  2  0  0  0
  1 13  1  0  0  0
  1 16  1  0  0  0
  2  3  1  0  0  0
  2 17  1  0  0  0
  3  4  2  0  0  0
  3 18  1  0  0  0
  4 14  1  0  0  0
  4 19  1  0  0  0
  5  6  1  0  0  0
  5 11  2  0  0  0
  5 20  1  0  0  0
  6  7  2  0  0  0
  6 21  1  0  0  0
  7  8  1  0  0  0
  7 22  1  0  0  0
  8 12  2  0  0  0
  8 23  1  0  0  0
  9 12  1  0  0  0
  9 13  2  0  0  0
  9 15  1  0  0  0
 10 11  1  0  0  0
 10 14  2  0  0  0
 10 26  1  0  0  0
 11 12  1  0  0  0
 13 14  1  0  0  0
 15 24  1  0  0  0
 15 25  1  0  0  0
M  CHG  1  10   1
M  END
> <s_m_source_file>
../4bds_ligand.sdf

> <i_m_source_file_index>
1

> <s_epik_input>
W2NIXTFbY0hdW2NIXVtjSF1jKG4yKWMxYyhbTkgyXSljKGMyMylbY0hdW2NIXVtjSF1bY0hdMw==

> <s_epik_cmdline>
J2VwaWtfYXBwJywgJy1pbWFlJywgJ2xpZ2FuZF9wcm8ubWFlJywgJy1vbWFlJywgJ2xpZ2FuZF9wcmVwLm1hZScsICctbXMnLCAnMScsICctcGgnLCAnNycsICctcGh0JywgJzAuNScsICctbnQn

> <r_lp_tautomer_probability>
1

> <r_epik_Ionization_Penalty>
  0.0008

> <r_epik_Ionization_Penalty_Charging>
  0.0008

> <r_epik_Ionization_Penalty_Neutral>
  0.0000

> <r_epik_State_Penalty>
 -0.0000

> <r_epik_Charging_Adjusted_Penalty>
0.000800945966461022

> <i_epik_Tot_Q>
1

> <i_epik_Tot_abs_Q>
1

$$$$
