4bdt_ligand
                    3D
 Schrodinger Suite 2020-3.
 42 45  0  0  1  0            999 V2000
   -1.5090  -40.0070  -54.5220 O   0  0  0  0  0  0
    0.1030  -32.1370  -46.8300 Cl  0  0  0  0  0  0
   -0.9500  -32.7670  -48.0350 C   0  0  0  0  0  0
   -0.7180  -33.8940  -51.4490 N   0  3  0  0  0  0
   -1.2590  -33.5940  -50.2580 C   0  0  0  0  0  0
   -1.4890  -34.4020  -52.4890 C   0  0  0  0  0  0
   -4.7220  -34.4970  -50.9430 N   0  0  0  0  0  0
   -3.3850  -34.3110  -51.1490 C   0  0  0  0  0  0
   -0.4210  -33.0930  -49.2740 C   0  0  0  0  0  0
   -2.3070  -32.9420  -47.7840 C   0  0  0  0  0  0
   -2.6230  -33.7830  -50.0390 C   0  0  0  0  0  0
   -0.7050  -34.6970  -53.7590 C   0  0  0  0  0  0
   -2.8160  -34.6100  -52.3590 C   0  0  0  0  0  0
   -1.4650  -35.6810  -54.6580 C   0  0  1  0  0  0
   -1.5230  -37.0380  -53.9730 C   0  0  0  0  0  0
   -2.8750  -35.0820  -54.8450 C   0  0  0  0  0  0
   -2.5960  -37.4880  -53.3260 C   0  0  0  0  0  0
   -3.8790  -36.6780  -53.2080 C   0  0  0  0  0  0
   -2.6010  -38.8490  -52.6670 C   0  0  0  0  0  0
   -3.6400  -35.1810  -53.5090 C   0  0  1  0  0  0
   -1.3780  -39.6610  -53.1380 C   0  0  0  0  0  0
   -3.1490  -33.4470  -48.7790 C   0  0  0  0  0  0
   -0.7201  -40.5895  -55.0204 H   0  0  0  0  0  0
   -5.1673  -34.2533  -49.9671 H   0  0  0  0  0  0
   -5.3538  -34.8906  -51.7529 H   0  0  0  0  0  0
    0.6421  -32.9569  -49.4724 H   0  0  0  0  0  0
   -2.7156  -32.6842  -46.8069 H   0  0  0  0  0  0
   -0.5441  -33.7622  -54.3160 H   0  0  0  0  0  0
    0.2673  -35.1387  -53.4954 H   0  0  0  0  0  0
   -0.9728  -35.8381  -55.6291 H   0  0  0  0  0  0
   -0.6162  -37.6578  -54.0320 H   0  0  0  0  0  0
   -2.7884  -34.0279  -55.1471 H   0  0  0  0  0  0
   -3.4117  -35.6437  -55.6237 H   0  0  0  0  0  0
   -4.6214  -37.0607  -53.9239 H   0  0  0  0  0  0
   -4.2758  -36.7664  -52.1859 H   0  0  0  0  0  0
   -2.5584  -38.7276  -51.5746 H   0  0  0  0  0  0
   -3.5214  -39.3856  -52.9407 H   0  0  0  0  0  0
   -4.5755  -34.6079  -53.5887 H   0  0  0  0  0  0
   -1.3048  -40.5787  -52.5360 H   0  0  0  0  0  0
   -0.4706  -39.0557  -52.9956 H   0  0  0  0  0  0
   -4.2121  -33.5802  -48.5784 H   0  0  0  0  0  0
    0.3577  -33.7393  -51.6191 H   0  0  0  0  0  0
  1 21  1  0  0  0
  1 23  1  0  0  0
  2  3  1  0  0  0
  3  9  2  0  0  0
  3 10  1  0  0  0
  4  5  2  0  0  0
  4  6  1  0  0  0
  4 42  1  0  0  0
  5  9  1  0  0  0
  5 11  1  0  0  0
  6 12  1  0  0  0
  6 13  2  0  0  0
  7  8  1  0  0  0
  7 24  1  0  0  0
  7 25  1  0  0  0
  8 11  2  0  0  0
  8 13  1  0  0  0
  9 26  1  0  0  0
 10 22  2  0  0  0
 10 27  1  0  0  0
 11 22  1  0  0  0
 12 14  1  0  0  0
 12 28  1  0  0  0
 12 29  1  0  0  0
 13 20  1  0  0  0
 14 15  1  0  0  0
 14 16  1  0  0  0
 14 30  1  0  0  0
 15 17  2  0  0  0
 15 31  1  0  0  0
 16 20  1  0  0  0
 16 32  1  0  0  0
 16 33  1  0  0  0
 17 18  1  0  0  0
 17 19  1  0  0  0
 18 20  1  0  0  0
 18 34  1  0  0  0
 18 35  1  0  0  0
 19 21  1  0  0  0
 19 36  1  0  0  0
 19 37  1  0  0  0
 20 38  1  0  0  0
 21 39  1  0  0  0
 21 40  1  0  0  0
 22 41  1  0  0  0
M  CHG  1   4   1
M  END
> <s_m_source_file>
../4bdt_ligand.sdf

> <i_m_source_file_index>
1

> <s_epik_input>
W09IXVtDSDJdW0NIMl1DKFtDSDJdW0NAQEhdMVtDSDJdMik9W0NIXVtDQEBIXTJbQ0gyXWMobjMpYzFjKFtOSDJdKWMoYzM0KVtjSF1bY0hdYyhDbClbY0hdNA==

> <s_epik_cmdline>
J2VwaWtfYXBwJywgJy1pbWFlJywgJ2xpZ2FuZF9wcm8ubWFlJywgJy1vbWFlJywgJ2xpZ2FuZF9wcmVwLm1hZScsICctbXMnLCAnMScsICctcGgnLCAnNycsICctcGh0JywgJzAuNScsICctbnQn

> <r_lp_tautomer_probability>
1

> <r_epik_Ionization_Penalty>
  0.0040

> <r_epik_Ionization_Penalty_Charging>
  0.0040

> <r_epik_Ionization_Penalty_Neutral>
  0.0000

> <r_epik_State_Penalty>
 -0.0000

> <r_epik_Charging_Adjusted_Penalty>
0.0039603331615734

> <i_epik_Tot_Q>
1

> <i_epik_Tot_abs_Q>
1

$$$$
