4bea_ligand
                    3D
 Schrodinger Suite 2020-3.
241242  0  0  1  0            999 V2000
  -32.5470   -3.8810   -2.1040 N   0  3  0  0  0  0
  -31.3100   -4.1430   -2.9120 C   0  0  2  0  0  0
  -30.1800   -4.4550   -1.9570 C   0  0  0  0  0  0
  -29.9870   -3.7270   -0.9740 O   0  0  0  0  0  0
  -30.9180   -2.9360   -3.7670 C   0  0  0  0  0  0
  -31.9220   -2.5740   -4.8450 C   0  0  0  0  0  0
  -31.3230   -1.5880   -5.8430 C   0  0  0  0  0  0
  -32.3230   -1.1960   -6.9270 C   0  0  0  0  0  0
  -32.6770   -2.3540   -7.7940 N   0  3  0  0  0  0
  -29.4480   -5.5330   -2.2430 N   0  0  0  0  0  0
  -28.4100   -6.0060   -1.3520 C   0  0  2  0  0  0
  -27.0670   -5.5320   -1.8450 C   0  0  0  0  0  0
  -26.6810   -5.8340   -2.9850 O   0  0  0  0  0  0
  -28.3910   -7.5320   -1.2830 C   0  0  0  0  0  0
  -29.7150   -8.1870   -0.9410 C   0  0  0  0  0  0
  -30.2650   -7.7510    0.4090 C   0  0  0  0  0  0
  -29.3730   -8.1780    1.5530 C   0  0  0  0  0  0
  -30.1090   -8.0570    2.8440 N   0  3  0  0  0  0
  -26.3630   -4.7940   -0.9820 N   0  0  0  0  0  0
  -24.9780   -4.4170   -1.2270 C   0  0  2  0  0  0
  -24.0850   -4.8720   -0.0420 C   0  0  0  0  0  0
  -24.5140   -4.8140    1.1170 O   0  0  0  0  0  0
  -24.9050   -2.9090   -1.4820 C   0  0  0  0  0  0
  -23.5060   -2.3970   -1.7560 C   0  0  0  0  0  0
  -23.4560   -0.9220   -2.1320 C   0  0  0  0  0  0
  -22.1150   -0.5730   -2.6140 N   0  0  0  0  0  0
  -21.6990    0.6550   -2.9180 C   0  0  0  0  0  0
  -22.5150    1.7090   -2.7940 N   0  0  0  0  0  0
  -20.4460    0.8300   -3.3480 N   0  0  0  0  0  0
  -22.8810   -5.3760   -0.3400 N   0  0  0  0  0  0
  -21.8830   -5.7400    0.6930 C   0  0  2  0  0  0
  -20.4910   -5.2210    0.3090 C   0  0  0  0  0  0
  -20.0530   -5.3800   -0.8310 O   0  0  0  0  0  0
  -21.7480   -7.2530    0.8760 C   0  0  0  0  0  0
  -23.0260   -7.9970    1.1520 C   0  0  0  0  0  0
  -23.8120   -8.4640    0.1120 C   0  0  0  0  0  0
  -23.4280   -8.2740    2.4530 C   0  0  0  0  0  0
  -24.9880   -9.1440    0.3580 C   0  0  0  0  0  0
  -24.6010   -8.9590    2.6980 C   0  0  0  0  0  0
  -25.3690   -9.3870    1.6450 C   0  0  0  0  0  0
  -26.5150  -10.0760    1.8840 O   0  0  0  0  0  0
  -19.7910   -4.6460    1.2810 N   0  0  0  0  0  0
  -18.4600   -4.1390    1.0550 C   0  0  2  0  0  0
  -17.4600   -5.2970    1.0290 C   0  0  0  0  0  0
  -17.7620   -6.4100    1.4700 O   0  0  0  0  0  0
  -18.0850   -3.1110    2.1430 C   0  0  0  0  0  0
  -18.2030   -3.6470    3.4660 O   0  0  0  0  0  0
  -16.2740   -5.0270    0.4940 N   0  0  0  0  0  0
  -15.1560   -5.9570    0.5990 C   0  0  2  0  0  0
  -15.0260   -6.5090    2.0320 C   0  0  0  0  0  0
  -15.1750   -7.7240    2.2530 O   0  0  0  0  0  0
  -13.8670   -5.2420    0.1860 C   0  0  0  0  0  0
  -12.6640   -6.1450    0.1180 C   0  0  0  0  0  0
  -11.3700   -5.4030   -0.1930 C   0  0  0  0  0  0
  -10.3300   -6.4000   -0.4150 N   0  0  0  0  0  0
   -9.7450   -7.1260    0.5410 C   0  0  0  0  0  0
  -10.0540   -6.9340    1.8200 N   0  0  0  0  0  0
   -8.8190   -8.0440    0.2170 N   0  0  0  0  0  0
  -16.0100   -7.1110    4.9560 C   0  0  0  0  0  0
  -14.9350   -5.8870    3.1570 N   0  0  0  0  0  0
  -15.8110   -8.1640    5.6160 O   0  0  0  0  0  0
  -14.8270   -6.2210    4.5860 C   0  0  1  0  0  0
  -14.8480   -4.9030    5.3580 C   0  0  0  0  0  0
  -15.9810   -5.3270    7.6510 C   0  0  0  0  0  0
  -15.6500   -5.6600    9.0980 C   0  0  0  0  0  0
  -14.6800   -5.0300    6.8850 C   0  0  0  0  0  0
  -13.5090   -6.9770    4.7910 C   0  0  0  0  0  0
  -17.2130   -6.8070    4.6430 N   0  0  0  0  0  0
  -18.4410   -7.5970    4.9290 C   0  0  2  0  0  0
  -18.3410   -8.9750    4.3460 C   0  0  0  0  0  0
  -18.7010   -9.9380    5.0070 O   0  0  0  0  0  0
  -19.6840   -6.8990    4.3840 C   0  0  0  0  0  0
  -20.1350   -5.7420    5.2500 C   0  0  0  0  0  0
  -21.2850   -4.9780    4.6310 C   0  0  0  0  0  0
  -21.0780   -4.0770    3.8040 O   0  0  0  0  0  0
  -22.5020   -5.3290    5.0160 N   0  0  0  0  0  0
  -17.8400   -9.0530    3.1110 N   0  0  0  0  0  0
  -17.7780  -10.3010    2.3800 C   0  0  2  0  0  0
  -16.6960  -11.2240    2.9080 C   0  0  0  0  0  0
  -16.9410  -12.4190    3.0100 O   0  0  0  0  0  0
  -17.5990  -10.0530    0.8880 C   0  0  0  0  0  0
  -18.7790   -9.4480    0.1180 C   0  0  0  0  0  0
  -18.3890   -9.2410   -1.3420 C   0  0  0  0  0  0
  -20.0250  -10.3180    0.2130 C   0  0  0  0  0  0
  -15.5190  -10.6970    3.2570 N   0  0  0  0  0  0
  -14.4880  -11.5300    3.9000 C   0  0  2  0  0  0
  -14.8960  -11.9640    5.3120 C   0  0  0  0  0  0
  -14.4960  -13.0600    5.7370 O   0  0  0  0  0  0
  -13.1290  -10.8260    3.9870 C   0  0  0  0  0  0
  -12.3810  -10.4900    2.7070 C   0  0  0  0  0  0
  -11.0870   -9.7900    3.0750 C   0  0  0  0  0  0
  -12.1110  -11.7380    1.8680 C   0  0  0  0  0  0
  -16.9900  -12.5930    7.6980 C   0  0  0  0  0  0
  -15.4260  -11.3320    6.3020 N   0  0  0  0  0  0
  -16.8310  -13.4780    8.6020 O   0  0  0  0  0  0
  -15.9830  -11.4620    7.6650 C   0  0  1  0  0  0
  -16.7230  -10.1790    8.0370 C   0  0  0  0  0  0
  -16.7740   -7.9260    9.1020 C   0  0  0  0  0  0
  -15.9900   -6.7980    9.7350 C   0  0  0  0  0  0
  -15.9240   -9.1710    8.8750 C   0  0  0  0  0  0
  -14.8530  -11.7930    8.6460 C   0  0  0  0  0  0
  -17.9480  -12.7540    6.8560 N   0  0  0  0  0  0
  -19.1120  -13.6270    6.5340 C   0  0  2  0  0  0
  -18.7010  -14.9710    5.8970 C   0  0  0  0  0  0
  -17.5720  -15.1380    5.4630 O   0  0  0  0  0  0
  -20.0730  -12.8810    5.6150 C   0  0  0  0  0  0
  -21.4780  -12.4800    6.0740 C   0  0  0  0  0  0
  -21.6800  -12.3980    7.5710 C   0  0  0  0  0  0
  -21.8370  -11.1520    5.4160 C   0  0  0  0  0  0
  -19.6850  -15.7810    5.6620 N   0  0  0  0  0  0
  -32.7906   -4.7723   -1.5071 H   0  0  0  0  0  0
  -33.3844   -3.6519   -2.7794 H   0  0  0  0  0  0
  -32.3727   -3.0268   -1.4332 H   0  0  0  0  0  0
  -31.5193   -4.9925   -3.5787 H   0  0  0  0  0  0
  -30.8079   -2.0509   -3.1232 H   0  0  0  0  0  0
  -29.9641   -3.1408   -4.2751 H   0  0  0  0  0  0
  -32.2232   -3.4833   -5.3858 H   0  0  0  0  0  0
  -32.8068   -2.1128   -4.3820 H   0  0  0  0  0  0
  -31.0126   -0.6745   -5.3146 H   0  0  0  0  0  0
  -30.4489   -2.0448   -6.3301 H   0  0  0  0  0  0
  -33.2442   -0.8205   -6.4575 H   0  0  0  0  0  0
  -31.8874   -0.4094   -7.5606 H   0  0  0  0  0  0
  -33.3975   -2.0317   -8.5601 H   0  0  0  0  0  0
  -33.1259   -3.1483   -7.1796 H   0  0  0  0  0  0
  -31.7691   -2.7373   -8.2826 H   0  0  0  0  0  0
  -29.6501   -6.0658   -3.1839 H   0  0  0  0  0  0
  -28.6520   -5.5736   -0.3699 H   0  0  0  0  0  0
  -28.0864   -7.9394   -2.2583 H   0  0  0  0  0  0
  -27.6768   -7.8553   -0.5114 H   0  0  0  0  0  0
  -30.4616   -7.9256   -1.7053 H   0  0  0  0  0  0
  -29.5871   -9.2791   -0.9119 H   0  0  0  0  0  0
  -30.3509   -6.6546    0.4331 H   0  0  0  0  0  0
  -31.2573   -8.2000    0.5630 H   0  0  0  0  0  0
  -29.0658   -9.2242    1.4076 H   0  0  0  0  0  0
  -28.4812   -7.5347    1.5825 H   0  0  0  0  0  0
  -29.4536   -8.3693    3.6704 H   0  0  0  0  0  0
  -31.0004   -8.7010    2.8196 H   0  0  0  0  0  0
  -30.4159   -7.0115    2.9945 H   0  0  0  0  0  0
  -26.8663   -4.4697   -0.0592 H   0  0  0  0  0  0
  -24.6532   -4.9411   -2.1379 H   0  0  0  0  0  0
  -25.5207   -2.6550   -2.3575 H   0  0  0  0  0  0
  -25.2810   -2.3694   -0.6003 H   0  0  0  0  0  0
  -22.8855   -2.5267   -0.8570 H   0  0  0  0  0  0
  -23.0654   -2.9625   -2.5904 H   0  0  0  0  0  0
  -24.1900   -0.7210   -2.9263 H   0  0  0  0  0  0
  -23.6942   -0.3103   -1.2493 H   0  0  0  0  0  0
  -21.3578   -1.3591   -2.7505 H   0  0  0  0  0  0
  -23.5468    1.5671   -2.4402 H   0  0  0  0  0  0
  -22.1537    2.7170   -3.0459 H   0  0  0  0  0  0
  -19.7739   -0.0347   -3.4506 H   0  0  0  0  0  0
  -22.6461   -5.5166   -1.4054 H   0  0  0  0  0  0
  -22.2754   -5.2727    1.6083 H   0  0  0  0  0  0
  -21.3260   -7.6966   -0.0378 H   0  0  0  0  0  0
  -21.0819   -7.4615    1.7262 H   0  0  0  0  0  0
  -23.4972   -8.2920   -0.9173 H   0  0  0  0  0  0
  -22.8102   -7.9467    3.2893 H   0  0  0  0  0  0
  -25.6082   -9.4846   -0.4711 H   0  0  0  0  0  0
  -24.9153   -9.1587    3.7224 H   0  0  0  0  0  0
  -27.1345  -10.4215    1.0433 H   0  0  0  0  0  0
  -20.2500   -4.5613    2.2770 H   0  0  0  0  0  0
  -18.4937   -3.6516    0.0695 H   0  0  0  0  0  0
  -17.0432   -2.7886    1.9993 H   0  0  0  0  0  0
  -18.7520   -2.2394    2.0694 H   0  0  0  0  0  0
  -17.9654   -3.0188    4.3372 H   0  0  0  0  0  0
  -16.1477   -4.0730   -0.0389 H   0  0  0  0  0  0
  -15.3833   -6.7823   -0.0919 H   0  0  0  0  0  0
  -13.9977   -4.7978   -0.8118 H   0  0  0  0  0  0
  -13.6384   -4.4490    0.9133 H   0  0  0  0  0  0
  -12.5309   -6.6518    1.0852 H   0  0  0  0  0  0
  -12.8133   -6.8958   -0.6719 H   0  0  0  0  0  0
  -11.5080   -4.7870   -1.0938 H   0  0  0  0  0  0
  -11.1049   -4.7562    0.6564 H   0  0  0  0  0  0
   -9.9697   -6.6013   -1.4346 H   0  0  0  0  0  0
  -10.8107   -6.1850    2.0966 H   0  0  0  0  0  0
   -8.5557   -8.2110   -0.8379 H   0  0  0  0  0  0
   -8.3242   -8.6285    1.0066 H   0  0  0  0  0  0
  -14.9525   -4.8344    2.8380 H   0  0  0  0  0  0
  -14.0282   -4.2592    5.0067 H   0  0  0  0  0  0
  -15.8097   -4.3957    5.1914 H   0  0  0  0  0  0
  -16.4942   -6.1818    7.1862 H   0  0  0  0  0  0
  -16.6363   -4.4441    7.6186 H   0  0  0  0  0  0
  -15.0860   -4.8795    9.6297 H   0  0  0  0  0  0
  -13.9833   -5.8509    7.1102 H   0  0  0  0  0  0
  -14.2801   -4.0885    7.2895 H   0  0  0  0  0  0
  -13.5332   -7.9174    4.2208 H   0  0  0  0  0  0
  -13.3765   -7.1997    5.8600 H   0  0  0  0  0  0
  -12.6717   -6.3563    4.4393 H   0  0  0  0  0  0
  -17.2875   -5.8493    4.1070 H   0  0  0  0  0  0
  -18.5068   -7.6822    6.0237 H   0  0  0  0  0  0
  -19.4719   -6.5038    3.3796 H   0  0  0  0  0  0
  -20.5136   -7.6191    4.3270 H   0  0  0  0  0  0
  -20.4652   -6.1228    6.2277 H   0  0  0  0  0  0
  -19.2980   -5.0426    5.3925 H   0  0  0  0  0  0
  -22.6348   -6.1349    5.7528 H   0  0  0  0  0  0
  -23.3805   -4.8148    4.5991 H   0  0  0  0  0  0
  -17.4666   -8.1266    2.6502 H   0  0  0  0  0  0
  -18.7556  -10.7682    2.5700 H   0  0  0  0  0  0
  -16.7636   -9.3550    0.7300 H   0  0  0  0  0  0
  -17.3822  -11.0050    0.3815 H   0  0  0  0  0  0
  -19.0269   -8.4778    0.5733 H   0  0  0  0  0  0
  -17.4885   -8.6115   -1.3952 H   0  0  0  0  0  0
  -19.2142   -8.7464   -1.8753 H   0  0  0  0  0  0
  -18.1831  -10.2158   -1.8082 H   0  0  0  0  0  0
  -20.2942  -10.4587    1.2702 H   0  0  0  0  0  0
  -19.8249  -11.2966   -0.2478 H   0  0  0  0  0  0
  -20.8560   -9.8272   -0.3148 H   0  0  0  0  0  0
  -15.3226   -9.6326    3.0608 H   0  0  0  0  0  0
  -14.4251  -12.3976    3.2267 H   0  0  0  0  0  0
  -13.2496   -9.8574    4.4943 H   0  0  0  0  0  0
  -12.4270  -11.4531    4.5562 H   0  0  0  0  0  0
  -13.0001   -9.8193    2.0932 H   0  0  0  0  0  0
  -11.3115   -8.8974    3.6773 H   0  0  0  0  0  0
  -10.5587   -9.4902    2.1579 H   0  0  0  0  0  0
  -10.4523  -10.4747    3.6566 H   0  0  0  0  0  0
  -13.0651  -12.2241    1.6164 H   0  0  0  0  0  0
  -11.4836  -12.4364    2.4412 H   0  0  0  0  0  0
  -11.5899  -11.4519    0.9425 H   0  0  0  0  0  0
  -15.3890  -10.3465    5.8147 H   0  0  0  0  0  0
  -17.0230   -9.6499    7.1205 H   0  0  0  0  0  0
  -17.6180  -10.4294    8.6254 H   0  0  0  0  0  0
  -17.6124   -8.2030    9.7580 H   0  0  0  0  0  0
  -17.1639   -7.5993    8.1267 H   0  0  0  0  0  0
  -15.6950   -6.9505   10.7837 H   0  0  0  0  0  0
  -15.6645   -9.6234    9.8435 H   0  0  0  0  0  0
  -15.0029   -8.8975    8.3395 H   0  0  0  0  0  0
  -14.3555  -12.7225    8.3321 H   0  0  0  0  0  0
  -15.2702  -11.9232    9.6555 H   0  0  0  0  0  0
  -14.1223  -10.9708    8.6545 H   0  0  0  0  0  0
  -17.7119  -11.8930    6.2135 H   0  0  0  0  0  0
  -19.5925  -13.8422    7.4998 H   0  0  0  0  0  0
  -19.6254  -11.9211    5.3178 H   0  0  0  0  0  0
  -20.2683  -13.4877    4.7184 H   0  0  0  0  0  0
  -22.1560  -13.2906    5.7687 H   0  0  0  0  0  0
  -21.4170  -13.3625    8.0298 H   0  0  0  0  0  0
  -22.7330  -12.1643    7.7866 H   0  0  0  0  0  0
  -21.0368  -11.6075    7.9850 H   0  0  0  0  0  0
  -21.6848  -11.2283    4.3293 H   0  0  0  0  0  0
  -21.1944  -10.3565    5.8213 H   0  0  0  0  0  0
  -22.8907  -10.9133    5.6229 H   0  0  0  0  0  0
  -20.6801  -15.5742    6.0828 H   0  0  0  0  0  0
  -19.5251  -16.6753    5.0418 H   0  0  0  0  0  0
  1  2  1  0  0  0
  1111  1  0  0  0
  1112  1  0  0  0
  1113  1  0  0  0
  2  3  1  0  0  0
  2  5  1  0  0  0
  2114  1  0  0  0
  3  4  2  0  0  0
  3 10  1  0  0  0
  5  6  1  0  0  0
  5115  1  0  0  0
  5116  1  0  0  0
  6  7  1  0  0  0
  6117  1  0  0  0
  6118  1  0  0  0
  7  8  1  0  0  0
  7119  1  0  0  0
  7120  1  0  0  0
  8  9  1  0  0  0
  8121  1  0  0  0
  8122  1  0  0  0
  9123  1  0  0  0
  9124  1  0  0  0
  9125  1  0  0  0
 10 11  1  0  0  0
 10126  1  0  0  0
 11 12  1  0  0  0
 11 14  1  0  0  0
 11127  1  0  0  0
 12 13  2  0  0  0
 12 19  1  0  0  0
 14 15  1  0  0  0
 14128  1  0  0  0
 14129  1  0  0  0
 15 16  1  0  0  0
 15130  1  0  0  0
 15131  1  0  0  0
 16 17  1  0  0  0
 16132  1  0  0  0
 16133  1  0  0  0
 17 18  1  0  0  0
 17134  1  0  0  0
 17135  1  0  0  0
 18136  1  0  0  0
 18137  1  0  0  0
 18138  1  0  0  0
 19 20  1  0  0  0
 19139  1  0  0  0
 20 21  1  0  0  0
 20 23  1  0  0  0
 20140  1  0  0  0
 21 22  2  0  0  0
 21 30  1  0  0  0
 23 24  1  0  0  0
 23141  1  0  0  0
 23142  1  0  0  0
 24 25  1  0  0  0
 24143  1  0  0  0
 24144  1  0  0  0
 25 26  1  0  0  0
 25145  1  0  0  0
 25146  1  0  0  0
 26 27  1  0  0  0
 26147  1  0  0  0
 27 28  1  0  0  0
 27 29  2  0  0  0
 28148  1  0  0  0
 28149  1  0  0  0
 29150  1  0  0  0
 30 31  1  0  0  0
 30151  1  0  0  0
 31 32  1  0  0  0
 31 34  1  0  0  0
 31152  1  0  0  0
 32 33  2  0  0  0
 32 42  1  0  0  0
 34 35  1  0  0  0
 34153  1  0  0  0
 34154  1  0  0  0
 35 36  2  0  0  0
 35 37  1  0  0  0
 36 38  1  0  0  0
 36155  1  0  0  0
 37 39  2  0  0  0
 37156  1  0  0  0
 38 40  2  0  0  0
 38157  1  0  0  0
 39 40  1  0  0  0
 39158  1  0  0  0
 40 41  1  0  0  0
 41159  1  0  0  0
 42 43  1  0  0  0
 42160  1  0  0  0
 43 44  1  0  0  0
 43 46  1  0  0  0
 43161  1  0  0  0
 44 45  2  0  0  0
 44 48  1  0  0  0
 46 47  1  0  0  0
 46162  1  0  0  0
 46163  1  0  0  0
 47164  1  0  0  0
 48 49  1  0  0  0
 48165  1  0  0  0
 49 50  1  0  0  0
 49 52  1  0  0  0
 49166  1  0  0  0
 50 51  2  0  0  0
 50 60  1  0  0  0
 52 53  1  0  0  0
 52167  1  0  0  0
 52168  1  0  0  0
 53 54  1  0  0  0
 53169  1  0  0  0
 53170  1  0  0  0
 54 55  1  0  0  0
 54171  1  0  0  0
 54172  1  0  0  0
 55 56  1  0  0  0
 55173  1  0  0  0
 56 57  2  0  0  0
 56 58  1  0  0  0
 57174  1  0  0  0
 58175  1  0  0  0
 58176  1  0  0  0
 59 61  2  0  0  0
 59 62  1  0  0  0
 59 68  1  0  0  0
 60 62  1  0  0  0
 60177  1  0  0  0
 62 63  1  0  0  0
 62 67  1  0  0  0
 63 66  1  0  0  0
 63178  1  0  0  0
 63179  1  0  0  0
 64 65  1  0  0  0
 64 66  1  0  0  0
 64180  1  0  0  0
 64181  1  0  0  0
 65 99  2  0  0  0
 65182  1  0  0  0
 66183  1  0  0  0
 66184  1  0  0  0
 67185  1  0  0  0
 67186  1  0  0  0
 67187  1  0  0  0
 68 69  1  0  0  0
 68188  1  0  0  0
 69 70  1  0  0  0
 69 72  1  0  0  0
 69189  1  0  0  0
 70 71  2  0  0  0
 70 77  1  0  0  0
 72 73  1  0  0  0
 72190  1  0  0  0
 72191  1  0  0  0
 73 74  1  0  0  0
 73192  1  0  0  0
 73193  1  0  0  0
 74 75  2  0  0  0
 74 76  1  0  0  0
 76194  1  0  0  0
 76195  1  0  0  0
 77 78  1  0  0  0
 77196  1  0  0  0
 78 79  1  0  0  0
 78 81  1  0  0  0
 78197  1  0  0  0
 79 80  2  0  0  0
 79 85  1  0  0  0
 81 82  1  0  0  0
 81198  1  0  0  0
 81199  1  0  0  0
 82 83  1  0  0  0
 82 84  1  0  0  0
 82200  1  0  0  0
 83201  1  0  0  0
 83202  1  0  0  0
 83203  1  0  0  0
 84204  1  0  0  0
 84205  1  0  0  0
 84206  1  0  0  0
 85 86  1  0  0  0
 85207  1  0  0  0
 86 87  1  0  0  0
 86 89  1  0  0  0
 86208  1  0  0  0
 87 88  2  0  0  0
 87 94  1  0  0  0
 89 90  1  0  0  0
 89209  1  0  0  0
 89210  1  0  0  0
 90 91  1  0  0  0
 90 92  1  0  0  0
 90211  1  0  0  0
 91212  1  0  0  0
 91213  1  0  0  0
 91214  1  0  0  0
 92215  1  0  0  0
 92216  1  0  0  0
 92217  1  0  0  0
 93 95  2  0  0  0
 93 96  1  0  0  0
 93102  1  0  0  0
 94 96  1  0  0  0
 94218  1  0  0  0
 96 97  1  0  0  0
 96101  1  0  0  0
 97100  1  0  0  0
 97219  1  0  0  0
 97220  1  0  0  0
 98 99  1  0  0  0
 98100  1  0  0  0
 98221  1  0  0  0
 98222  1  0  0  0
 99223  1  0  0  0
100224  1  0  0  0
100225  1  0  0  0
101226  1  0  0  0
101227  1  0  0  0
101228  1  0  0  0
102103  1  0  0  0
102229  1  0  0  0
103104  1  0  0  0
103106  1  0  0  0
103230  1  0  0  0
104105  2  0  0  0
104110  1  0  0  0
106107  1  0  0  0
106231  1  0  0  0
106232  1  0  0  0
107108  1  0  0  0
107109  1  0  0  0
107233  1  0  0  0
108234  1  0  0  0
108235  1  0  0  0
108236  1  0  0  0
109237  1  0  0  0
109238  1  0  0  0
109239  1  0  0  0
110240  1  0  0  0
110241  1  0  0  0
M  CHG  3   1   1   9   1  18   1
M  END
> <s_m_source_file>
../4bea_ligand.sdf

> <i_m_source_file_index>
1

> <s_epik_input>
W05IMytdW0NIMl1bQ0gyXVtDSDJdW0NIMl1bQ0BIXShbTkgzK10pQyg9TylbTkhdW0NAQEhdKFtDSDJdW0NIMl1bQ0gyXVtDSDJdW05IMytdKUMoPU8pW05IXVtDQEBIXShbQ0gyXVtDSDJdW0NIMl1bTkhdL0MoW05IMl0pPU5cW0hdKUMoPU8pW05IXVtDQEBIXShbQ0gyXWMxW2NIXVtjSF1jKFtPSF0pW2NIXVtjSF0xKUMoPU8pW05IXVtDQEBIXShbQ0gyXVtPSF0pQyg9TylbTkhdW0NAQEhdKFtDSDJdW0NIMl1bQ0gyXVtOSF0vQyg9TlxbSF0pW05IMl0pQyg9TylbTkhdW0NAXTIoW0NIM10pQyg9TylbTkhdW0NAQEhdKFtDSDJdW0NIMl1DKD1PKVtOSDJdKUMoPU8pW05IXVtDQEBIXShbQ0gyXVtDSF0oW0NIM10pW0NIM10pQyg9TylbTkhdW0NAQEhdKFtDSDJdW0NIXShbQ0gzXSlbQ0gzXSlDKD1PKVtOSF1bQ0BdKFtDSDNdKShDKD1PKVtOSF1bQ0BIXShDKD1PKVtOSDJdKVtDSDJdW0NIXShbQ0gzXSlbQ0gzXSlbQ0gyXVtDSDJdW0NIMl0vW0NIXT1bQ0hdXFtDSDJdW0NIMl1bQ0gyXTI=

> <s_epik_cmdline>
J2VwaWtfYXBwJywgJy1pbWFlJywgJ2xpZ2FuZF9wcm8ubWFlJywgJy1vbWFlJywgJ2xpZ2FuZF9wcmVwLm1hZScsICctbXMnLCAnMScsICctcGgnLCAnNycsICctcGh0JywgJzAuNScsICctbnQn

> <s_epik_pKa_notes>
Molecule size exceeds maximum supported for generating protonation states

> <s_epik_Chemistry_Notes>
This compound has an imine and may undergo hydrolysis.

$$$$
