4bek_ligand
                    3D
 Schrodinger Suite 2020-3.
 33 34  0  0  1  0            999 V2000
  -15.0030   40.8780   89.1020 N   0  0  0  0  0  0
  -15.5800   40.8470   90.3180 C   0  0  0  0  0  0
  -15.9300   39.7050   90.7490 N   0  3  0  0  0  0
  -15.8200   42.2990   91.1650 S   0  0  0  0  0  0
  -16.7780   41.8750   92.5850 C   0  0  0  0  0  0
  -16.4580   40.4490   93.0220 C   0  0  0  0  0  0
  -16.8060   39.4870   91.8940 C   0  0  2  0  0  0
  -16.6520   38.0420   92.3580 C   0  0  0  0  0  0
  -18.2420   39.7020   91.5100 C   0  0  0  0  0  0
  -19.2490   39.4070   92.4340 C   0  0  0  0  0  0
  -20.5840   39.5960   92.0680 C   0  0  0  0  0  0
  -20.9190   40.0780   90.8010 C   0  0  0  0  0  0
  -22.2480   40.2490   90.4940 O   0  0  0  0  0  0
  -22.7040   41.0580   89.3760 C   0  0  0  0  0  0
  -19.9130   40.3750   89.8790 C   0  0  0  0  0  0
  -18.5790   40.1820   90.2400 C   0  0  0  0  0  0
  -14.8431   39.9430   88.5451 H   0  0  0  0  0  0
  -15.5676   38.7941   90.2501 H   0  0  0  0  0  0
  -16.5420   42.5673   93.4066 H   0  0  0  0  0  0
  -17.8480   41.9475   92.3404 H   0  0  0  0  0  0
  -15.3863   40.3692   93.2566 H   0  0  0  0  0  0
  -17.0486   40.1980   93.9154 H   0  0  0  0  0  0
  -15.6062   37.8587   92.6456 H   0  0  0  0  0  0
  -16.9317   37.3623   91.5396 H   0  0  0  0  0  0
  -17.3070   37.8630   93.2234 H   0  0  0  0  0  0
  -18.9959   39.0345   93.4266 H   0  0  0  0  0  0
  -21.3749   39.3640   92.7813 H   0  0  0  0  0  0
  -23.8031   41.0413   89.3356 H   0  0  0  0  0  0
  -22.2963   40.6513   88.4388 H   0  0  0  0  0  0
  -22.3576   42.0937   89.5076 H   0  0  0  0  0  0
  -20.1669   40.7532   88.8888 H   0  0  0  0  0  0
  -17.7895   40.4081   89.5233 H   0  0  0  0  0  0
  -14.6915   41.8384   88.6653 H   0  0  0  0  0  0
  1  2  1  0  0  0
  1 17  1  0  0  0
  1 33  1  0  0  0
  2  3  2  0  0  0
  2  4  1  0  0  0
  3  7  1  0  0  0
  3 18  1  0  0  0
  4  5  1  0  0  0
  5  6  1  0  0  0
  5 19  1  0  0  0
  5 20  1  0  0  0
  6  7  1  0  0  0
  6 21  1  0  0  0
  6 22  1  0  0  0
  7  8  1  0  0  0
  7  9  1  0  0  0
  8 23  1  0  0  0
  8 24  1  0  0  0
  8 25  1  0  0  0
  9 10  2  0  0  0
  9 16  1  0  0  0
 10 11  1  0  0  0
 10 26  1  0  0  0
 11 12  2  0  0  0
 11 27  1  0  0  0
 12 13  1  0  0  0
 12 15  1  0  0  0
 13 14  1  0  0  0
 14 28  1  0  0  0
 14 29  1  0  0  0
 14 30  1  0  0  0
 15 16  2  0  0  0
 15 31  1  0  0  0
 16 32  1  0  0  0
M  CHG  1   3   1
M  END
> <s_m_source_file>
../4bek_ligand.sdf

> <i_m_source_file_index>
1

> <s_epik_input>
W0NIMl0xW0NIMl1TQyg9TlxbSF0pL1tOSF1bQ0BdMShbQ0gzXSljMltjSF1bY0hdYyhPW0NIM10pW2NIXVtjSF0y

> <s_epik_cmdline>
J2VwaWtfYXBwJywgJy1pbWFlJywgJ2xpZ2FuZF9wcm8ubWFlJywgJy1vbWFlJywgJ2xpZ2FuZF9wcmVwLm1hZScsICctbXMnLCAnMScsICctcGgnLCAnNycsICctcGh0JywgJzAuNScsICctbnQn

> <r_lp_tautomer_probability>
1

> <r_epik_Ionization_Penalty>
  0.0286

> <r_epik_Ionization_Penalty_Charging>
  0.0286

> <r_epik_Ionization_Penalty_Neutral>
  0.0000

> <r_epik_State_Penalty>
  0.0253

> <r_epik_Charging_Adjusted_Penalty>
0.0539024501652757

> <i_epik_Tot_Q>
1

> <i_epik_Tot_abs_Q>
1

> <s_epik_Chemistry_Notes>
This compound has an imine and may undergo hydrolysis.

$$$$
