4bfd_ligand
                    3D
 Schrodinger Suite 2020-3.
 45 48  0  0  1  0            999 V2000
  -20.2360   43.8350   85.5230 Cl  0  0  0  0  0  0
  -20.6130   43.1030   87.0980 C   0  0  0  0  0  0
  -19.7720   42.1000   87.5340 C   0  0  0  0  0  0
  -20.0320   41.5170   88.7030 N   0  0  0  0  0  0
  -21.7350   43.5090   87.8430 C   0  0  0  0  0  0
  -21.9570   42.8760   89.0560 C   0  0  0  0  0  0
  -21.1050   41.8480   89.4540 C   0  0  0  0  0  0
  -21.2610   41.1730   90.7760 C   0  0  0  0  0  0
  -22.3270   41.2030   91.3530 O   0  0  0  0  0  0
  -20.1530   40.5820   91.2430 N   0  0  0  0  0  0
  -19.9580   39.9740   92.4860 C   0  0  0  0  0  0
  -21.0030   39.7390   93.3960 C   0  0  0  0  0  0
  -20.7070   39.2020   94.6470 C   0  0  0  0  0  0
  -19.3710   38.9330   94.9690 C   0  0  0  0  0  0
  -19.0790   38.4290   96.1810 F   0  0  0  0  0  0
  -18.6340   39.7190   92.8390 C   0  0  0  0  0  0
  -18.3220   39.1930   94.0740 C   0  0  0  0  0  0
  -16.8840   38.8740   94.4600 C   0  0  2  0  0  0
  -16.8430   37.3910   94.8140 C   0  0  0  0  0  0
  -16.4530   39.7010   95.6720 C   0  0  0  0  0  0
  -15.7280   41.0300   95.4320 C   0  0  2  0  0  0
  -16.3540   41.9170   94.3490 C   0  0  0  0  0  0
  -15.0390   41.1870   94.0720 C   0  0  2  0  0  0
  -15.2570   40.0710   93.0820 C   0  0  0  0  0  0
  -15.9670   39.0470   93.3510 N   0  3  0  0  0  0
  -14.6610   40.1340   91.8830 N   0  0  0  0  0  0
  -18.9146   41.7918   86.9357 H   0  0  0  0  0  0
  -22.4032   44.2903   87.4808 H   0  0  0  0  0  0
  -22.7890   43.1792   89.6915 H   0  0  0  0  0  0
  -19.2489   40.5365   90.6181 H   0  0  0  0  0  0
  -22.0326   39.9740   93.1262 H   0  0  0  0  0  0
  -21.5021   38.9947   95.3632 H   0  0  0  0  0  0
  -17.8358   39.9382   92.1298 H   0  0  0  0  0  0
  -17.5240   37.1960   95.6556 H   0  0  0  0  0  0
  -15.8183   37.1102   95.0988 H   0  0  0  0  0  0
  -17.1572   36.7973   93.9429 H   0  0  0  0  0  0
  -17.3386   39.9685   96.2670 H   0  0  0  0  0  0
  -15.7601   39.1116   96.2905 H   0  0  0  0  0  0
  -15.4138   41.1653   96.4775 H   0  0  0  0  0  0
  -17.3543   41.5358   94.0959 H   0  0  0  0  0  0
  -16.4383   42.9480   94.7230 H   0  0  0  0  0  0
  -14.0108   41.4383   93.7726 H   0  0  0  0  0  0
  -15.9211   38.1600   92.7021 H   0  0  0  0  0  0
  -14.0419   41.0049   91.6216 H   0  0  0  0  0  0
  -14.7910   39.3148   91.1605 H   0  0  0  0  0  0
  1  2  1  0  0  0
  2  3  2  0  0  0
  2  5  1  0  0  0
  3  4  1  0  0  0
  3 27  1  0  0  0
  4  7  2  0  0  0
  5  6  2  0  0  0
  5 28  1  0  0  0
  6  7  1  0  0  0
  6 29  1  0  0  0
  7  8  1  0  0  0
  8  9  2  0  0  0
  8 10  1  0  0  0
 10 11  1  0  0  0
 10 30  1  0  0  0
 11 12  2  0  0  0
 11 16  1  0  0  0
 12 13  1  0  0  0
 12 31  1  0  0  0
 13 14  2  0  0  0
 13 32  1  0  0  0
 14 15  1  0  0  0
 14 17  1  0  0  0
 16 17  2  0  0  0
 16 33  1  0  0  0
 17 18  1  0  0  0
 18 19  1  0  0  0
 18 20  1  0  0  0
 18 25  1  0  0  0
 19 34  1  0  0  0
 19 35  1  0  0  0
 19 36  1  0  0  0
 20 21  1  0  0  0
 20 37  1  0  0  0
 20 38  1  0  0  0
 21 22  1  0  0  0
 21 23  1  0  0  0
 21 39  1  0  0  0
 22 23  1  0  0  0
 22 40  1  0  0  0
 22 41  1  0  0  0
 23 24  1  0  0  0
 23 42  1  0  0  0
 24 25  2  0  0  0
 24 26  1  0  0  0
 25 43  1  0  0  0
 26 44  1  0  0  0
 26 45  1  0  0  0
M  CHG  1  25   1
M  END
> <s_m_source_file>
../4bfd_ligand.sdf

> <i_m_source_file_index>
1

> <s_epik_input>
Q2xjMVtjSF1uYyhbY0hdW2NIXTEpQyg9TylbTkhdYzJbY0hdW2NIXWMoRiljKFtjSF0yKVtDQF0oW0NIM10pKFtDSDJdMylbTkhdQyg9TlxbSF0pXFtDQEhdKFtDQEhdMzQpW0NIMl00

> <s_epik_cmdline>
J2VwaWtfYXBwJywgJy1pbWFlJywgJ2xpZ2FuZF9wcm8ubWFlJywgJy1vbWFlJywgJ2xpZ2FuZF9wcmVwLm1hZScsICctbXMnLCAnMScsICctcGgnLCAnNycsICctcGh0JywgJzAuNScsICctbnQn

> <r_lp_tautomer_probability>
1

> <r_epik_Ionization_Penalty>
  0.0000

> <r_epik_Ionization_Penalty_Charging>
  0.0000

> <r_epik_Ionization_Penalty_Neutral>
  0.0000

> <r_epik_State_Penalty>
 -0.0000

> <r_epik_Charging_Adjusted_Penalty>
1.31964926085793e-05

> <i_epik_Tot_Q>
1

> <i_epik_Tot_abs_Q>
1

> <s_epik_Chemistry_Notes>
This compound has an imine and may undergo hydrolysis.

$$$$
