4bfr_ligand
                    3D
 Schrodinger Suite 2020-3.
 48 51  0  0  1  0            999 V2000
    0.3770   73.5740   79.9420 C   0  0  0  0  0  0
    0.9240   72.6840   80.8520 N   0  0  0  0  0  0
    2.0940   73.0470   81.6670 C   0  0  0  0  0  0
    2.8780   71.8060   82.0250 C   0  0  0  0  0  0
    2.0570   70.8320   82.6690 O   0  0  0  0  0  0
    0.9850   70.4420   81.8110 C   0  0  0  0  0  0
    0.1090   71.6180   81.4520 C   0  0  0  0  0  0
    1.1180   74.6600   79.5830 N   0  0  0  0  0  0
    0.6170   75.5380   78.7130 C   0  0  0  0  0  0
   -0.6500   75.3860   78.1250 N   0  0  0  0  0  0
   -1.4640   74.3090   78.4360 C   0  0  0  0  0  0
   -0.9130   73.3890   79.3790 C   0  0  0  0  0  0
   -2.5780   74.2180   77.9030 O   0  0  0  0  0  0
    1.3580   76.8000   78.3370 C   0  0  0  0  0  0
    1.1470   77.9730   79.2730 C   0  0  0  0  0  0
    0.0110   78.2210   79.6460 O   0  0  0  0  0  0
    2.2110   78.7440   79.6640 N   0  0  0  0  0  0
    4.5190   79.1690   80.1340 C   0  0  0  0  0  0
    3.6140   78.5380   79.0850 C   0  0  2  0  0  0
    3.6050   80.0780   80.9110 C   0  0  0  0  0  0
    2.2760   79.7120   80.7030 C   0  0  0  0  0  0
    1.2470   80.3190   81.4220 C   0  0  0  0  0  0
    1.5680   81.3150   82.3400 C   0  0  0  0  0  0
    2.8870   81.7000   82.5320 C   0  0  0  0  0  0
    3.9060   81.0870   81.8190 C   0  0  0  0  0  0
    3.7910   79.2630   77.7570 C   0  0  0  0  0  0
    2.7395   73.7316   81.0973 H   0  0  0  0  0  0
    1.7585   73.5424   82.5900 H   0  0  0  0  0  0
    3.2941   71.3586   81.1103 H   0  0  0  0  0  0
    3.6978   72.0744   82.7076 H   0  0  0  0  0  0
    1.3944   70.0164   80.8830 H   0  0  0  0  0  0
    0.3653   69.6878   82.3181 H   0  0  0  0  0  0
   -0.3793   71.9977   82.3616 H   0  0  0  0  0  0
   -0.6573   71.2934   80.7327 H   0  0  0  0  0  0
   -1.0136   76.1308   77.4018 H   0  0  0  0  0  0
   -1.4999   72.5195   79.6751 H   0  0  0  0  0  0
    2.4396   76.5999   78.3234 H   0  0  0  0  0  0
    1.0340   77.1321   77.3396 H   0  0  0  0  0  0
    4.9524   78.3803   80.7666 H   0  0  0  0  0  0
    5.3270   79.7242   79.6351 H   0  0  0  0  0  0
    3.8316   77.4791   78.8816 H   0  0  0  0  0  0
    0.2104   80.0192   81.2681 H   0  0  0  0  0  0
    0.7759   81.7968   82.9132 H   0  0  0  0  0  0
    3.1234   82.4882   83.2468 H   0  0  0  0  0  0
    4.9405   81.3954   81.9700 H   0  0  0  0  0  0
    3.1367   78.8063   76.9999 H   0  0  0  0  0  0
    4.8390   79.1829   77.4324 H   0  0  0  0  0  0
    3.5252   80.3233   77.8799 H   0  0  0  0  0  0
  1  2  1  0  0  0
  1  8  1  0  0  0
  1 12  2  0  0  0
  2  3  1  0  0  0
  2  7  1  0  0  0
  3  4  1  0  0  0
  3 27  1  0  0  0
  3 28  1  0  0  0
  4  5  1  0  0  0
  4 29  1  0  0  0
  4 30  1  0  0  0
  5  6  1  0  0  0
  6  7  1  0  0  0
  6 31  1  0  0  0
  6 32  1  0  0  0
  7 33  1  0  0  0
  7 34  1  0  0  0
  8  9  2  0  0  0
  9 10  1  0  0  0
  9 14  1  0  0  0
 10 11  1  0  0  0
 10 35  1  0  0  0
 11 12  1  0  0  0
 11 13  2  0  0  0
 12 36  1  0  0  0
 14 15  1  0  0  0
 14 37  1  0  0  0
 14 38  1  0  0  0
 15 16  2  0  0  0
 15 17  1  0  0  0
 17 19  1  0  0  0
 17 21  1  0  0  0
 18 19  1  0  0  0
 18 20  1  0  0  0
 18 39  1  0  0  0
 18 40  1  0  0  0
 19 26  1  0  0  0
 19 41  1  0  0  0
 20 21  2  0  0  0
 20 25  1  0  0  0
 21 22  1  0  0  0
 22 23  2  0  0  0
 22 42  1  0  0  0
 23 24  1  0  0  0
 23 43  1  0  0  0
 24 25  2  0  0  0
 24 44  1  0  0  0
 25 45  1  0  0  0
 26 46  1  0  0  0
 26 47  1  0  0  0
 26 48  1  0  0  0
M  END
> <s_m_source_file>
../4bfr_ligand.sdf

> <i_m_source_file_index>
1

> <s_epik_input>
W0NIMl0xW0NIMl1PW0NIMl1bQ0gyXU4xYzJuYyhbbkhdYyg9TylbY0hdMilbQ0gyXUMoPU8pTihbQ0BIXShbQ0gyXTMpW0NIM10pYyhjMzQpW2NIXVtjSF1bY0hdW2NIXTQ=

> <s_epik_cmdline>
J2VwaWtfYXBwJywgJy1pbWFlJywgJ2xpZ2FuZF9wcm8ubWFlJywgJy1vbWFlJywgJ2xpZ2FuZF9wcmVwLm1hZScsICctbXMnLCAnMScsICctcGgnLCAnNycsICctcGh0JywgJzAuNScsICctbnQn

> <r_lp_tautomer_probability>
0.994036381586735

> <r_epik_Ionization_Penalty>
  0.1913

> <r_epik_Ionization_Penalty_Charging>
  0.1913

> <r_epik_Ionization_Penalty_Neutral>
  0.0000

> <r_epik_State_Penalty>
  0.0129

> <r_epik_Charging_Adjusted_Penalty>
0.204170705741858

> <i_epik_Tot_Q>
0

> <i_epik_Tot_abs_Q>
0

$$$$
