4bfy_ligand
                    3D
 Schrodinger Suite 2020-3.
 56 59  0  0  1  0            999 V2000
  -20.7550    0.2470    8.8370 N   0  0  0  0  0  0
  -15.2330  -10.1580   11.0090 O   0  5  0  0  0  0
  -15.4350  -10.7090   13.1430 O   0  0  0  0  0  0
  -20.1050   -0.6530    9.1700 C   0  0  0  0  0  0
  -23.1080  -12.2460    8.8240 C   0  0  0  0  0  0
  -23.7130  -11.5330    9.8650 C   0  0  0  0  0  0
  -21.8680  -11.8230    8.3440 C   0  0  0  0  0  0
  -23.0790  -10.3870   10.3740 C   0  0  0  0  0  0
  -18.0300   -1.6350    9.1680 C   0  0  0  0  0  0
  -19.8290   -2.6900   10.2140 C   0  0  0  0  0  0
  -14.5310   -5.7990   10.5330 C   0  0  0  0  0  0
  -17.1660   -2.6790    9.5100 C   0  0  0  0  0  0
  -18.9590   -3.7260   10.5690 C   0  0  0  0  0  0
  -15.4090   -4.7650   10.1830 C   0  0  0  0  0  0
  -16.3070   -6.9500   11.6750 C   0  0  0  0  0  0
  -19.2970   -7.4670   10.0510 C   0  0  0  0  0  0
  -20.7230   -7.1820   12.0310 C   0  0  0  0  0  0
  -19.7590   -8.8920    9.9200 C   0  0  0  0  0  0
  -21.3780   -8.5220   11.7830 C   0  0  0  0  0  0
  -14.2190   -8.7750   12.6820 C   0  0  0  0  0  0
  -18.6370   -6.0000   11.8100 C   0  0  0  0  0  0
  -21.2880  -10.7310    8.8650 N   0  0  0  0  0  0
  -14.0800   -7.9010   11.5840 O   0  0  0  0  0  0
  -15.0140   -9.9700   12.2320 C   0  0  0  0  0  0
  -19.3520   -1.6230    9.5110 C   0  0  0  0  0  0
  -14.9770   -6.9010   11.2740 C   0  0  0  0  0  0
  -17.6120   -3.7560   10.2310 C   0  0  0  0  0  0
  -17.1940   -5.9190   11.3340 C   0  0  0  0  0  0
  -21.8480   -9.9980    9.8590 C   0  0  0  0  0  0
  -16.7560   -4.8130   10.5800 C   0  0  0  0  0  0
  -19.3320   -7.2480   11.5060 N   0  3  0  0  0  0
  -21.1730   -8.8420   10.3310 N   0  0  0  0  0  0
  -23.5984  -13.1194    8.3942 H   0  0  0  0  0  0
  -24.6666  -11.8633   10.2769 H   0  0  0  0  0  0
  -21.3718  -12.3782    7.5479 H   0  0  0  0  0  0
  -23.5496   -9.8067   11.1677 H   0  0  0  0  0  0
  -17.6311   -0.7929    8.6024 H   0  0  0  0  0  0
  -20.8806   -2.7350   10.4971 H   0  0  0  0  0  0
  -13.4869   -5.7453   10.2246 H   0  0  0  0  0  0
  -16.1222   -2.6361    9.1988 H   0  0  0  0  0  0
  -19.3618   -4.5591   11.1450 H   0  0  0  0  0  0
  -15.0454   -3.9190    9.5998 H   0  0  0  0  0  0
  -16.6637   -7.7978   12.2600 H   0  0  0  0  0  0
  -18.2852   -7.3695    9.6305 H   0  0  0  0  0  0
  -19.9863   -6.8063    9.5048 H   0  0  0  0  0  0
  -21.2892   -6.3953   11.5108 H   0  0  0  0  0  0
  -20.7127   -6.9732   13.1109 H   0  0  0  0  0  0
  -19.6401   -9.2216    8.8773 H   0  0  0  0  0  0
  -19.1566   -9.5348   10.5787 H   0  0  0  0  0  0
  -20.9070   -9.2841   12.4213 H   0  0  0  0  0  0
  -22.4499   -8.4558   12.0210 H   0  0  0  0  0  0
  -13.2236   -9.0909   13.0275 H   0  0  0  0  0  0
  -14.7433   -8.2573   13.4987 H   0  0  0  0  0  0
  -18.6693   -5.8863   12.9036 H   0  0  0  0  0  0
  -19.2237   -5.1967   11.3404 H   0  0  0  0  0  0
  -18.8214   -8.0938   11.9896 H   0  0  0  0  0  0
  1  4  3  0  0  0
  2 24  1  0  0  0
  3 24  2  0  0  0
  4 25  1  0  0  0
  5  6  2  0  0  0
  5  7  1  0  0  0
  5 33  1  0  0  0
  6  8  1  0  0  0
  6 34  1  0  0  0
  7 22  2  0  0  0
  7 35  1  0  0  0
  8 29  2  0  0  0
  8 36  1  0  0  0
  9 12  2  0  0  0
  9 25  1  0  0  0
  9 37  1  0  0  0
 10 13  1  0  0  0
 10 25  2  0  0  0
 10 38  1  0  0  0
 11 14  2  0  0  0
 11 26  1  0  0  0
 11 39  1  0  0  0
 12 27  1  0  0  0
 12 40  1  0  0  0
 13 27  2  0  0  0
 13 41  1  0  0  0
 14 30  1  0  0  0
 14 42  1  0  0  0
 15 26  2  0  0  0
 15 28  1  0  0  0
 15 43  1  0  0  0
 16 18  1  0  0  0
 16 31  1  0  0  0
 16 44  1  0  0  0
 16 45  1  0  0  0
 17 19  1  0  0  0
 17 31  1  0  0  0
 17 46  1  0  0  0
 17 47  1  0  0  0
 18 32  1  0  0  0
 18 48  1  0  0  0
 18 49  1  0  0  0
 19 32  1  0  0  0
 19 50  1  0  0  0
 19 51  1  0  0  0
 20 23  1  0  0  0
 20 24  1  0  0  0
 20 52  1  0  0  0
 20 53  1  0  0  0
 21 28  1  0  0  0
 21 31  1  0  0  0
 21 54  1  0  0  0
 21 55  1  0  0  0
 22 29  1  0  0  0
 23 26  1  0  0  0
 27 30  1  0  0  0
 28 30  2  0  0  0
 29 32  1  0  0  0
 31 56  1  0  0  0
M  CHG  2   2  -1  31   1
M  END
> <s_m_source_file>
../4bfy_ligand.sdf

> <i_m_source_file_index>
1

> <s_epik_input>
W09IXUMoPU8pW0NIMl1PYzFbY0hdW2NIXWMoLWMoW2NIXVtjSF0yKVtjSF1bY0hdYzJDI04pYyhbY0hdMSlbQ0gyXVtOSCtdM1tDSDJdW0NIMl1OKFtDSDJdW0NIMl0zKWM0W2NIXVtjSF1bY0hdW2NIXW40

> <s_epik_cmdline>
J2VwaWtfYXBwJywgJy1pbWFlJywgJ2xpZ2FuZF9wcm8ubWFlJywgJy1vbWFlJywgJ2xpZ2FuZF9wcmVwLm1hZScsICctbXMnLCAnMScsICctcGgnLCAnNycsICctcGh0JywgJzAuNScsICctbnQn

> <r_lp_tautomer_probability>
1

> <r_epik_Ionization_Penalty>
  0.0474

> <r_epik_Ionization_Penalty_Charging>
  0.0447

> <r_epik_Ionization_Penalty_Neutral>
  0.0027

> <r_epik_State_Penalty>
 -0.0000

> <r_epik_Charging_Adjusted_Penalty>
0.044687212251034

> <i_epik_Tot_Q>
0

> <i_epik_Tot_abs_Q>
2

$$$$
