4bfz_ligand
                    3D
 Schrodinger Suite 2020-3.
 61 64  0  0  1  0            999 V2000
  -15.1560  -10.8200   13.1600 O   0  0  0  0  0  0
  -14.8430   -9.9630   12.3600 C   0  0  0  0  0  0
  -15.1530  -10.0830   11.0750 N   0  0  0  0  0  0
  -15.8640  -11.2110   10.4570 C   0  0  0  0  0  0
  -14.1110   -8.7360   12.8360 C   0  0  0  0  0  0
  -14.0630   -7.7950   11.7720 O   0  0  0  0  0  0
  -14.9990   -6.8230   11.5120 C   0  0  0  0  0  0
  -14.5450   -5.6140   10.9870 C   0  0  0  0  0  0
  -15.4670   -4.6090   10.6810 C   0  0  0  0  0  0
  -16.3710   -7.0070   11.7210 C   0  0  0  0  0  0
  -17.2990   -5.9950   11.4020 C   0  0  0  0  0  0
  -16.8470   -4.7760   10.8830 C   0  0  0  0  0  0
  -17.7210   -3.7210   10.5640 C   0  0  0  0  0  0
  -19.1100   -3.7910   10.7100 C   0  0  0  0  0  0
  -19.9500   -2.7210   10.3690 C   0  0  0  0  0  0
  -19.4160   -1.5410    9.8810 C   0  0  0  0  0  0
  -20.1530   -0.5400    9.5420 C   0  0  0  0  0  0
  -20.8280    0.3420    9.1970 N   0  0  0  0  0  0
  -18.0530   -1.4680    9.7320 C   0  0  0  0  0  0
  -17.2180   -2.5340   10.0630 C   0  0  0  0  0  0
  -18.7910   -6.1700   11.6480 C   0  0  0  0  0  0
  -19.3600   -7.5000   11.4880 N   0  3  0  0  0  0
  -20.7640   -7.4170   11.9460 C   0  0  0  0  0  0
  -21.3930   -8.8030   11.8250 C   0  0  0  0  0  0
  -21.3000   -9.1790   10.3920 N   0  0  0  0  0  0
  -19.8920   -9.2650    9.9440 C   0  0  0  0  0  0
  -19.3170   -7.8620   10.0480 C   0  0  0  0  0  0
  -22.0110  -10.3490   10.0260 C   0  0  0  0  0  0
  -21.5060  -11.1570    9.0580 N   0  0  0  0  0  0
  -22.1550  -12.2650    8.6680 C   0  0  0  0  0  0
  -23.3980  -12.5990    9.2220 C   0  0  0  0  0  0
  -23.9400  -11.7870   10.2150 C   0  0  0  0  0  0
  -23.2460  -10.6520   10.6090 C   0  0  0  0  0  0
  -14.8260   -9.2339   10.4569 H   0  0  0  0  0  0
  -15.9751  -11.0276    9.3781 H   0  0  0  0  0  0
  -16.8585  -11.3133   10.9159 H   0  0  0  0  0  0
  -15.2906  -12.1364   10.6145 H   0  0  0  0  0  0
  -14.6428   -8.3022   13.6957 H   0  0  0  0  0  0
  -13.0899   -9.0122   13.1379 H   0  0  0  0  0  0
  -13.4804   -5.4538   10.8166 H   0  0  0  0  0  0
  -15.1037   -3.6659   10.2727 H   0  0  0  0  0  0
  -16.7278   -7.9490   12.1375 H   0  0  0  0  0  0
  -19.5539   -4.7064   11.1013 H   0  0  0  0  0  0
  -21.0289   -2.8191   10.4889 H   0  0  0  0  0  0
  -17.6113   -0.5502    9.3438 H   0  0  0  0  0  0
  -16.1420   -2.4295    9.9235 H   0  0  0  0  0  0
  -19.0284   -5.8809   12.6824 H   0  0  0  0  0  0
  -19.3548   -5.5329   10.9507 H   0  0  0  0  0  0
  -18.7985   -8.2451   12.0707 H   0  0  0  0  0  0
  -20.7887   -7.0826   12.9937 H   0  0  0  0  0  0
  -21.3124   -6.6987   11.3188 H   0  0  0  0  0  0
  -20.8391   -9.5134   12.4563 H   0  0  0  0  0  0
  -22.4416   -8.7599   12.1546 H   0  0  0  0  0  0
  -19.3428   -9.9631   10.5929 H   0  0  0  0  0  0
  -19.8590   -9.6265    8.9056 H   0  0  0  0  0  0
  -19.9194   -7.1445    9.4714 H   0  0  0  0  0  0
  -18.2759   -7.8346    9.6939 H   0  0  0  0  0  0
  -21.7104  -12.9122    7.9120 H   0  0  0  0  0  0
  -23.9344  -13.4840    8.8797 H   0  0  0  0  0  0
  -24.8951  -12.0393   10.6758 H   0  0  0  0  0  0
  -23.6633   -9.9962   11.3731 H   0  0  0  0  0  0
  1  2  2  0  0  0
  2  3  1  0  0  0
  2  5  1  0  0  0
  3  4  1  0  0  0
  3 34  1  0  0  0
  4 35  1  0  0  0
  4 36  1  0  0  0
  4 37  1  0  0  0
  5  6  1  0  0  0
  5 38  1  0  0  0
  5 39  1  0  0  0
  6  7  1  0  0  0
  7  8  2  0  0  0
  7 10  1  0  0  0
  8  9  1  0  0  0
  8 40  1  0  0  0
  9 12  2  0  0  0
  9 41  1  0  0  0
 10 11  2  0  0  0
 10 42  1  0  0  0
 11 12  1  0  0  0
 11 21  1  0  0  0
 12 13  1  0  0  0
 13 14  2  0  0  0
 13 20  1  0  0  0
 14 15  1  0  0  0
 14 43  1  0  0  0
 15 16  2  0  0  0
 15 44  1  0  0  0
 16 17  1  0  0  0
 16 19  1  0  0  0
 17 18  3  0  0  0
 19 20  2  0  0  0
 19 45  1  0  0  0
 20 46  1  0  0  0
 21 22  1  0  0  0
 21 47  1  0  0  0
 21 48  1  0  0  0
 22 23  1  0  0  0
 22 27  1  0  0  0
 22 49  1  0  0  0
 23 24  1  0  0  0
 23 50  1  0  0  0
 23 51  1  0  0  0
 24 25  1  0  0  0
 24 52  1  0  0  0
 24 53  1  0  0  0
 25 26  1  0  0  0
 25 28  1  0  0  0
 26 27  1  0  0  0
 26 54  1  0  0  0
 26 55  1  0  0  0
 27 56  1  0  0  0
 27 57  1  0  0  0
 28 29  2  0  0  0
 28 33  1  0  0  0
 29 30  1  0  0  0
 30 31  2  0  0  0
 30 58  1  0  0  0
 31 32  1  0  0  0
 31 59  1  0  0  0
 32 33  2  0  0  0
 32 60  1  0  0  0
 33 61  1  0  0  0
M  CHG  1  22   1
M  END
> <s_m_source_file>
../4bfz_ligand.sdf

> <i_m_source_file_index>
1

> <s_epik_input>
W0NIM11bTkhdQyg9TylbQ0gyXU9jMVtjSF1bY0hdYygtYzJbY0hdW2NIXWMoQyNOKVtjSF1bY0hdMiljKFtjSF0xKVtDSDJdW05IK10zW0NIMl1bQ0gyXU4oW0NIMl1bQ0gyXTMpYzRuW2NIXVtjSF1bY0hdW2NIXTQ=

> <s_epik_cmdline>
J2VwaWtfYXBwJywgJy1pbWFlJywgJ2xpZ2FuZF9wcm8ubWFlJywgJy1vbWFlJywgJ2xpZ2FuZF9wcmVwLm1hZScsICctbXMnLCAnMScsICctcGgnLCAnNycsICctcGh0JywgJzAuNScsICctbnQn

> <r_lp_tautomer_probability>
1

> <r_epik_Ionization_Penalty>
  0.0473

> <r_epik_Ionization_Penalty_Charging>
  0.0446

> <r_epik_Ionization_Penalty_Neutral>
  0.0027

> <r_epik_State_Penalty>
 -0.0000

> <r_epik_Charging_Adjusted_Penalty>
0.0446241973708461

> <i_epik_Tot_Q>
1

> <i_epik_Tot_abs_Q>
1

$$$$
