4bg1_ligand
                    3D
 Schrodinger Suite 2020-3.
 29 29  0  0  1  0            999 V2000
   21.9340   33.1590   87.3770 C   0  0  0  0  0  0
   22.8010   33.1980   86.1520 C   0  0  0  0  0  0
   23.8190   32.0870   86.2900 C   0  0  0  0  0  0
   23.9090   31.8790   87.7860 C   0  0  0  0  0  0
   22.5100   32.5920   89.6990 C   0  0  0  0  0  0
   21.5730   31.0740   88.0260 C   0  0  0  0  0  0
   21.8110   29.7500   88.6350 C   0  0  0  0  0  0
   21.1390   28.7540   87.6630 C   0  0  0  0  0  0
   21.6300   27.4540   88.1920 C   0  0  0  0  0  0
   22.5310   32.1420   88.2900 N   0  3  0  0  0  0
   20.8920   26.5750   88.5800 O   0  0  0  0  0  0
   22.9340   27.3330   88.2630 O   0  5  0  0  0  0
   21.9229   34.1520   87.8501 H   0  0  0  0  0  0
   20.9096   32.8770   87.0924 H   0  0  0  0  0  0
   22.1792   33.0446   85.2577 H   0  0  0  0  0  0
   23.3010   34.1757   86.0876 H   0  0  0  0  0  0
   23.4583   31.1916   85.7626 H   0  0  0  0  0  0
   24.7754   32.4096   85.8528 H   0  0  0  0  0  0
   24.2295   30.8475   87.9941 H   0  0  0  0  0  0
   24.6399   32.5828   88.2108 H   0  0  0  0  0  0
   23.2492   33.3946   89.8386 H   0  0  0  0  0  0
   22.7579   31.7466   90.3576 H   0  0  0  0  0  0
   21.5073   32.9694   89.9484 H   0  0  0  0  0  0
   21.5555   30.9759   86.9305 H   0  0  0  0  0  0
   20.6074   31.4695   88.3741 H   0  0  0  0  0  0
   22.8936   29.5748   88.7199 H   0  0  0  0  0  0
   21.3550   29.7193   89.6356 H   0  0  0  0  0  0
   20.0462   28.8647   87.7222 H   0  0  0  0  0  0
   21.4735   28.9617   86.6359 H   0  0  0  0  0  0
  1  2  1  0  0  0
  1 10  1  0  0  0
  1 13  1  0  0  0
  1 14  1  0  0  0
  2  3  1  0  0  0
  2 15  1  0  0  0
  2 16  1  0  0  0
  3  4  1  0  0  0
  3 17  1  0  0  0
  3 18  1  0  0  0
  4 10  1  0  0  0
  4 19  1  0  0  0
  4 20  1  0  0  0
  5 10  1  0  0  0
  5 21  1  0  0  0
  5 22  1  0  0  0
  5 23  1  0  0  0
  6  7  1  0  0  0
  6 10  1  0  0  0
  6 24  1  0  0  0
  6 25  1  0  0  0
  7  8  1  0  0  0
  7 26  1  0  0  0
  7 27  1  0  0  0
  8  9  1  0  0  0
  8 28  1  0  0  0
  8 29  1  0  0  0
  9 11  2  0  0  0
  9 12  1  0  0  0
M  CHG  2  10   1  12  -1
M  END
> <s_m_source_file>
../4bg1_ligand.sdf

> <i_m_source_file_index>
1

> <s_epik_input>
W0NIMl0xW0NIMl1bQ0gyXVtDSDJdW04rXTEoW0NIM10pW0NIMl1bQ0gyXVtDSDJdQyg9TylbT0hd

> <s_epik_cmdline>
J2VwaWtfYXBwJywgJy1pbWFlJywgJ2xpZ2FuZF9wcm8ubWFlJywgJy1vbWFlJywgJ2xpZ2FuZF9wcmVwLm1hZScsICctbXMnLCAnMScsICctcGgnLCAnNycsICctcGh0JywgJzAuNScsICctbnQn

> <r_lp_tautomer_probability>
1

> <r_epik_Ionization_Penalty>
  0.0006

> <r_epik_Ionization_Penalty_Charging>
  0.0006

> <r_epik_Ionization_Penalty_Neutral>
  0.0000

> <r_epik_State_Penalty>
 -0.0000

> <r_epik_Charging_Adjusted_Penalty>
0.000604767785656989

> <i_epik_Tot_Q>
0

> <i_epik_Tot_abs_Q>
2

$$$$
