4bg6_ligand
                    3D
 Schrodinger Suite 2020-3.
116115  0  0  1  0            999 V2000
  -23.2230    7.0900   -7.2680 N   0  3  0  0  0  0
  -22.5490    8.1800   -6.5750 C   0  0  2  0  0  0
  -21.3530    7.6560   -5.7830 C   0  0  0  0  0  0
  -21.2430    6.4550   -5.5330 O   0  0  0  0  0  0
  -23.5280    8.9150   -5.6550 C   0  0  0  0  0  0
  -22.9740   10.1890   -5.0380 C   0  0  0  0  0  0
  -24.0830   11.0530   -4.4560 C   0  0  0  0  0  0
  -25.0120   11.5650   -5.5460 C   0  0  0  0  0  0
  -26.0470   12.4950   -5.0120 N   0  3  0  0  0  0
  -20.4600    8.5620   -5.3930 N   0  0  0  0  0  0
  -19.2130    8.1920   -4.7280 C   0  0  2  0  0  0
  -19.4210    7.4590   -3.4060 C   0  0  0  0  0  0
  -20.4880    7.5340   -2.7970 O   0  0  0  0  0  0
  -18.3550    9.4370   -4.4900 C   0  0  0  0  0  0
  -17.6280    9.8920   -5.7390 C   0  0  0  0  0  0
  -18.0750    9.5390   -6.8500 O   0  0  0  0  0  0
  -16.6080   10.6010   -5.6090 O   0  5  0  0  0  0
  -18.3810    6.7530   -2.9730 N   0  0  0  0  0  0
  -18.4100    6.0070   -1.7210 C   0  0  2  0  0  0
  -18.4590    6.9420   -0.5190 C   0  0  0  0  0  0
  -17.7200    7.9250   -0.4510 O   0  0  0  0  0  0
  -17.1890    5.0890   -1.6230 C   0  0  0  0  0  0
  -17.1070    4.2860   -0.3350 C   0  0  0  0  0  0
  -18.2260    3.2640   -0.2470 C   0  0  0  0  0  0
  -18.0780    2.3870    0.9850 C   0  0  0  0  0  0
  -18.1690    3.1730    2.2460 N   0  3  0  0  0  0
  -19.3350    6.6280    0.4290 N   0  0  0  0  0  0
  -19.4890    7.4440    1.6250 C   0  0  2  0  0  0
  -18.4790    7.0490    2.6980 C   0  0  0  0  0  0
  -18.0320    5.9040    2.7570 O   0  0  0  0  0  0
  -20.9040    7.3310    2.1630 C   0  0  0  0  0  0
  -18.1300    8.0100    3.5460 N   0  0  0  0  0  0
  -17.1490    7.7920    4.6000 C   0  0  2  0  0  0
  -17.7860    7.0900    5.7960 C   0  0  0  0  0  0
  -18.9830    7.2270    6.0420 O   0  0  0  0  0  0
  -16.5270    9.1250    5.0150 C   0  0  0  0  0  0
  -16.4780   10.1180    3.8660 C   0  0  0  0  0  0
  -15.2860   11.0560    3.9440 C   0  0  0  0  0  0
  -15.4730   12.1210    5.0070 C   0  0  0  0  0  0
  -14.6600   13.3300    4.6940 N   0  3  0  0  0  0
  -16.9770    6.3380    6.5340 N   0  0  0  0  0  0
  -17.4900    5.4860    7.6000 C   0  0  1  0  0  0
  -17.8940    4.1280    7.0190 C   0  0  0  0  0  0
  -16.9870    3.7440    5.9970 O   0  0  0  0  0  0
  -16.4620    5.2850    8.7080 C   0  0  0  0  0  0
  -15.3280    5.7520    8.6080 O   0  0  0  0  0  0
  -16.9180    2.1450    5.8180 P   0  0  0  0  0  0
  -17.2550    1.4220    7.2170 O   0  5  0  0  0  0
  -15.4290    1.7410    5.3570 O   0  5  0  0  0  0
  -17.9700    1.6760    4.6930 O   0  0  0  0  0  0
  -16.8720    4.5930    9.7660 N   0  0  0  0  0  0
  -15.9680    4.2420   10.8560 C   0  0  2  0  0  0
  -15.6220    2.7590   10.8110 C   0  0  0  0  0  0
  -15.7360    2.1190    9.7650 O   0  5  0  0  0  0
  -16.5830    4.5990   12.2110 C   0  0  0  0  0  0
  -16.0760    6.2220   12.6740 S   0  0  0  0  0  0
  -15.2150    2.1660   11.8100 O   0  0  0  0  0  0
  -22.5064    6.5736   -7.9235 H   0  0  0  0  0  0
  -24.0477    7.4946   -7.8731 H   0  0  0  0  0  0
  -23.6238    6.3789   -6.5306 H   0  0  0  0  0  0
  -22.1953    8.8603   -7.3637 H   0  0  0  0  0  0
  -24.4248    9.1985   -6.2255 H   0  0  0  0  0  0
  -23.8159    8.2548   -4.8236 H   0  0  0  0  0  0
  -22.2732    9.9306   -4.2305 H   0  0  0  0  0  0
  -22.4470   10.7706   -5.8087 H   0  0  0  0  0  0
  -24.6735   10.4599   -3.7422 H   0  0  0  0  0  0
  -23.6411   11.9168   -3.9377 H   0  0  0  0  0  0
  -24.4255   12.1051   -6.3038 H   0  0  0  0  0  0
  -25.5269   10.7152   -6.0180 H   0  0  0  0  0  0
  -26.6921   12.8370   -5.8347 H   0  0  0  0  0  0
  -25.5557   13.3621   -4.5465 H   0  0  0  0  0  0
  -26.6571   11.9722   -4.2607 H   0  0  0  0  0  0
  -20.6868    9.6208   -5.5869 H   0  0  0  0  0  0
  -18.7410    7.4946   -5.4357 H   0  0  0  0  0  0
  -18.9958   10.2648   -4.1522 H   0  0  0  0  0  0
  -17.5998    9.2202   -3.7201 H   0  0  0  0  0  0
  -17.4754    6.7448   -3.5973 H   0  0  0  0  0  0
  -19.3379    5.4175   -1.7581 H   0  0  0  0  0  0
  -17.2072    4.3651   -2.4510 H   0  0  0  0  0  0
  -16.2710    5.6921   -1.6833 H   0  0  0  0  0  0
  -16.1449    3.7543   -0.2951 H   0  0  0  0  0  0
  -17.1865    4.9655    0.5264 H   0  0  0  0  0  0
  -19.1938    3.7839   -0.1919 H   0  0  0  0  0  0
  -18.2058    2.6204   -1.1388 H   0  0  0  0  0  0
  -18.8764    1.6304    0.9945 H   0  0  0  0  0  0
  -17.0988    1.8864    0.9633 H   0  0  0  0  0  0
  -18.0567    2.4983    3.1075 H   0  0  0  0  0  0
  -19.1476    3.6727    2.2968 H   0  0  0  0  0  0
  -17.3699    3.9287    2.2655 H   0  0  0  0  0  0
  -19.9522    5.7275    0.2944 H   0  0  0  0  0  0
  -19.2932    8.4769    1.3012 H   0  0  0  0  0  0
  -21.6188    7.6189    1.3780 H   0  0  0  0  0  0
  -21.0215    7.9992    3.0289 H   0  0  0  0  0  0
  -21.0970    6.2931    2.4719 H   0  0  0  0  0  0
  -18.6070    8.9948    3.4337 H   0  0  0  0  0  0
  -16.3787    7.1354    4.1692 H   0  0  0  0  0  0
  -17.1217    9.5703    5.8262 H   0  0  0  0  0  0
  -15.4978    8.9563    5.3648 H   0  0  0  0  0  0
  -16.4128    9.5729    2.9128 H   0  0  0  0  0  0
  -17.3894   10.7339    3.8745 H   0  0  0  0  0  0
  -14.3815   10.4799    4.1891 H   0  0  0  0  0  0
  -15.1499   11.5574    2.9744 H   0  0  0  0  0  0
  -16.5334   12.4095    5.0544 H   0  0  0  0  0  0
  -15.1570   11.7243    5.9831 H   0  0  0  0  0  0
  -14.8119   14.0869    5.4776 H   0  0  0  0  0  0
  -14.9723   13.7404    3.7224 H   0  0  0  0  0  0
  -13.5958   13.0551    4.6510 H   0  0  0  0  0  0
  -15.8974    6.3682    6.3255 H   0  0  0  0  0  0
  -18.3566    6.0248    8.0108 H   0  0  0  0  0  0
  -17.8812    3.3698    7.8159 H   0  0  0  0  0  0
  -18.9066    4.1972    6.5950 H   0  0  0  0  0  0
  -17.9269    4.2837    9.8051 H   0  0  0  0  0  0
  -15.0613    4.8411   10.6859 H   0  0  0  0  0  0
  -17.6799    4.5639   12.1365 H   0  0  0  0  0  0
  -16.2438    3.8778   12.9691 H   0  0  0  0  0  0
  -16.4200    6.6555   13.6247 H   0  0  0  0  0  0
  1  2  1  0  0  0
  1 58  1  0  0  0
  1 59  1  0  0  0
  1 60  1  0  0  0
  2  3  1  0  0  0
  2  5  1  0  0  0
  2 61  1  0  0  0
  3  4  2  0  0  0
  3 10  1  0  0  0
  5  6  1  0  0  0
  5 62  1  0  0  0
  5 63  1  0  0  0
  6  7  1  0  0  0
  6 64  1  0  0  0
  6 65  1  0  0  0
  7  8  1  0  0  0
  7 66  1  0  0  0
  7 67  1  0  0  0
  8  9  1  0  0  0
  8 68  1  0  0  0
  8 69  1  0  0  0
  9 70  1  0  0  0
  9 71  1  0  0  0
  9 72  1  0  0  0
 10 11  1  0  0  0
 10 73  1  0  0  0
 11 12  1  0  0  0
 11 14  1  0  0  0
 11 74  1  0  0  0
 12 13  2  0  0  0
 12 18  1  0  0  0
 14 15  1  0  0  0
 14 75  1  0  0  0
 14 76  1  0  0  0
 15 16  2  0  0  0
 15 17  1  0  0  0
 18 19  1  0  0  0
 18 77  1  0  0  0
 19 20  1  0  0  0
 19 22  1  0  0  0
 19 78  1  0  0  0
 20 21  2  0  0  0
 20 27  1  0  0  0
 22 23  1  0  0  0
 22 79  1  0  0  0
 22 80  1  0  0  0
 23 24  1  0  0  0
 23 81  1  0  0  0
 23 82  1  0  0  0
 24 25  1  0  0  0
 24 83  1  0  0  0
 24 84  1  0  0  0
 25 26  1  0  0  0
 25 85  1  0  0  0
 25 86  1  0  0  0
 26 87  1  0  0  0
 26 88  1  0  0  0
 26 89  1  0  0  0
 27 28  1  0  0  0
 27 90  1  0  0  0
 28 29  1  0  0  0
 28 31  1  0  0  0
 28 91  1  0  0  0
 29 30  2  0  0  0
 29 32  1  0  0  0
 31 92  1  0  0  0
 31 93  1  0  0  0
 31 94  1  0  0  0
 32 33  1  0  0  0
 32 95  1  0  0  0
 33 34  1  0  0  0
 33 36  1  0  0  0
 33 96  1  0  0  0
 34 35  2  0  0  0
 34 41  1  0  0  0
 36 37  1  0  0  0
 36 97  1  0  0  0
 36 98  1  0  0  0
 37 38  1  0  0  0
 37 99  1  0  0  0
 37100  1  0  0  0
 38 39  1  0  0  0
 38101  1  0  0  0
 38102  1  0  0  0
 39 40  1  0  0  0
 39103  1  0  0  0
 39104  1  0  0  0
 40105  1  0  0  0
 40106  1  0  0  0
 40107  1  0  0  0
 41 42  1  0  0  0
 41108  1  0  0  0
 42 43  1  0  0  0
 42 45  1  0  0  0
 42109  1  0  0  0
 43 44  1  0  0  0
 43110  1  0  0  0
 43111  1  0  0  0
 44 47  1  0  0  0
 45 46  2  0  0  0
 45 51  1  0  0  0
 47 48  1  0  0  0
 47 49  1  0  0  0
 47 50  2  0  0  0
 51 52  1  0  0  0
 51112  1  0  0  0
 52 53  1  0  0  0
 52 55  1  0  0  0
 52113  1  0  0  0
 53 54  1  0  0  0
 53 57  2  0  0  0
 55 56  1  0  0  0
 55114  1  0  0  0
 55115  1  0  0  0
 56116  1  0  0  0
M  CHG  8   1   1   9   1  17  -1  26   1  40   1  48  -1  49  -1  54  -1
M  END
> <s_m_source_file>
../4bg6_ligand.sdf

> <i_m_source_file_index>
1

> <s_epik_input>
W05IMytdW0NIMl1bQ0gyXVtDSDJdW0NIMl1bQ0BIXShbTkgzK10pQyg9TylbTkhdW0NAQEhdKFtDSDJdQyg9TylbT0hdKUMoPU8pW05IXVtDQEBIXShbQ0gyXVtDSDJdW0NIMl1bQ0gyXVtOSDMrXSlDKD1PKVtOSF1bQ0BASF0oW0NIM10pQyg9TylbTkhdW0NAQEhdKFtDSDJdW0NIMl1bQ0gyXVtDSDJdW05IMytdKUMoPU8pW05IXVtDQEBIXShbQ0gyXU9QKD1PKShbT0hdKVtPSF0pQyg9TylbTkhdW0NASF0oQyg9TylbT0hdKVtDSDJdW1NIXQ==

> <s_epik_cmdline>
J2VwaWtfYXBwJywgJy1pbWFlJywgJ2xpZ2FuZF9wcm8ubWFlJywgJy1vbWFlJywgJ2xpZ2FuZF9wcmVwLm1hZScsICctbXMnLCAnMScsICctcGgnLCAnNycsICctcGh0JywgJzAuNScsICctbnQn

> <r_epik_Ionization_Penalty>
  0.2198

> <r_epik_Ionization_Penalty_Charging>
  0.2148

> <r_epik_Ionization_Penalty_Neutral>
  0.0051

> <r_epik_State_Penalty>
  0.1773

> <r_epik_Charging_Adjusted_Penalty>
0.392026653190821

> <i_epik_Tot_Q>
0

> <i_epik_Tot_abs_Q>
8

$$$$
