4bgg_ligand
                    3D
 Schrodinger Suite 2020-3.
 58 61  0  0  1  0            999 V2000
   48.7640  -44.9100   53.8720 C   0  0  0  0  0  0
   48.5480  -45.1860   52.5500 O   0  0  0  0  0  0
   47.2160  -45.1100   52.1800 C   0  0  0  0  0  0
   46.8960  -45.5740   50.8790 C   0  0  0  0  0  0
   47.9320  -46.0770   50.0840 O   0  0  0  0  0  0
   48.8960  -45.1250   49.7160 C   0  0  0  0  0  0
   45.5910  -45.4800   50.4130 C   0  0  0  0  0  0
   44.5520  -44.9780   51.2910 C   0  0  0  0  0  0
   44.8850  -44.5110   52.5800 C   0  0  0  0  0  0
   46.2490  -44.5720   53.0290 C   0  0  0  0  0  0
   43.7840  -43.9640   53.5110 C   0  0  0  0  0  0
   42.5690  -44.6870   53.5970 C   0  0  0  0  0  0
   41.5590  -44.2090   54.4030 C   0  0  0  0  0  0
   41.7640  -43.0430   55.1480 C   0  0  0  0  0  0
   42.9630  -42.3930   55.0360 N   0  0  0  0  0  0
   43.9550  -42.8040   54.2660 C   0  0  0  0  0  0
   40.3100  -44.9680   54.5020 C   0  0  0  0  0  0
   39.5830  -44.9610   55.6780 C   0  0  0  0  0  0
   38.3460  -45.7290   55.7470 C   0  0  0  0  0  0
   37.9070  -46.5230   54.6410 C   0  0  0  0  0  0
   38.6530  -46.5440   53.5260 C   0  0  0  0  0  0
   39.8740  -45.7510   53.4380 C   0  0  0  0  0  0
   36.7330  -47.2890   54.7110 N   0  0  0  0  0  0
   36.1410  -48.0890   53.6590 C   0  0  0  0  0  0
   35.4740  -49.4080   54.0910 C   0  0  0  0  0  0
   34.6690  -49.2970   55.2660 N   0  3  0  0  0  0
   34.7490  -48.0140   55.9040 C   0  0  0  0  0  0
   36.2040  -47.5700   55.9990 C   0  0  0  0  0  0
   45.3480  -45.9770   49.1200 O   0  0  0  0  0  0
   44.2050  -45.6620   48.4590 C   0  0  0  0  0  0
   49.8388  -44.9892   54.0922 H   0  0  0  0  0  0
   48.2086  -45.6290   54.4922 H   0  0  0  0  0  0
   48.4183  -43.8898   54.0948 H   0  0  0  0  0  0
   49.6676  -45.6052   49.0963 H   0  0  0  0  0  0
   49.3608  -44.7054   50.6204 H   0  0  0  0  0  0
   48.4149  -44.3186   49.1431 H   0  0  0  0  0  0
   43.5150  -44.9614   50.9556 H   0  0  0  0  0  0
   46.5234  -44.2036   54.0175 H   0  0  0  0  0  0
   42.4348  -45.6098   53.0327 H   0  0  0  0  0  0
   40.9836  -42.6594   55.8052 H   0  0  0  0  0  0
   44.8904  -42.2463   54.2217 H   0  0  0  0  0  0
   39.9293  -44.3903   56.5397 H   0  0  0  0  0  0
   37.7457  -45.6978   56.6562 H   0  0  0  0  0  0
   38.3444  -47.1580   52.6799 H   0  0  0  0  0  0
   40.4580  -45.7724   52.5179 H   0  0  0  0  0  0
   35.3562  -47.5071   53.1534 H   0  0  0  0  0  0
   36.9164  -48.3690   52.9308 H   0  0  0  0  0  0
   34.8202  -49.7698   53.2837 H   0  0  0  0  0  0
   36.2494  -50.1598   54.2997 H   0  0  0  0  0  0
   33.6140  -49.4665   55.0050 H   0  0  0  0  0  0
   34.9898  -50.0484   56.0026 H   0  0  0  0  0  0
   34.1828  -47.2764   55.3164 H   0  0  0  0  0  0
   34.3238  -48.0807   56.9163 H   0  0  0  0  0  0
   36.7894  -48.3744   56.4683 H   0  0  0  0  0  0
   36.2578  -46.6656   56.6228 H   0  0  0  0  0  0
   44.2072  -46.1465   47.4714 H   0  0  0  0  0  0
   44.1436  -44.5711   48.3321 H   0  0  0  0  0  0
   43.3380  -46.0132   49.0378 H   0  0  0  0  0  0
  1  2  1  0  0  0
  1 31  1  0  0  0
  1 32  1  0  0  0
  1 33  1  0  0  0
  2  3  1  0  0  0
  3  4  2  0  0  0
  3 10  1  0  0  0
  4  5  1  0  0  0
  4  7  1  0  0  0
  5  6  1  0  0  0
  6 34  1  0  0  0
  6 35  1  0  0  0
  6 36  1  0  0  0
  7  8  2  0  0  0
  7 29  1  0  0  0
  8  9  1  0  0  0
  8 37  1  0  0  0
  9 10  2  0  0  0
  9 11  1  0  0  0
 10 38  1  0  0  0
 11 12  2  0  0  0
 11 16  1  0  0  0
 12 13  1  0  0  0
 12 39  1  0  0  0
 13 14  2  0  0  0
 13 17  1  0  0  0
 14 15  1  0  0  0
 14 40  1  0  0  0
 15 16  2  0  0  0
 16 41  1  0  0  0
 17 18  2  0  0  0
 17 22  1  0  0  0
 18 19  1  0  0  0
 18 42  1  0  0  0
 19 20  2  0  0  0
 19 43  1  0  0  0
 20 21  1  0  0  0
 20 23  1  0  0  0
 21 22  2  0  0  0
 21 44  1  0  0  0
 22 45  1  0  0  0
 23 24  1  0  0  0
 23 28  1  0  0  0
 24 25  1  0  0  0
 24 46  1  0  0  0
 24 47  1  0  0  0
 25 26  1  0  0  0
 25 48  1  0  0  0
 25 49  1  0  0  0
 26 27  1  0  0  0
 26 50  1  0  0  0
 26 51  1  0  0  0
 27 28  1  0  0  0
 27 52  1  0  0  0
 27 53  1  0  0  0
 28 54  1  0  0  0
 28 55  1  0  0  0
 29 30  1  0  0  0
 30 56  1  0  0  0
 30 57  1  0  0  0
 30 58  1  0  0  0
M  CHG  1  26   1
M  END
> <s_m_source_file>
../4bgg_ligand.sdf

> <i_m_source_file_index>
1

> <s_epik_input>
W0NIM11PYzFjKE9bQ0gzXSljKE9bQ0gzXSlbY0hdYyhbY0hdMSktYzJbY0hdYyhbY0hdbltjSF0yKS1jM1tjSF1bY0hdYyhbY0hdW2NIXTMpTjRbQ0gyXVtDSDJdW05IMitdW0NIMl1bQ0gyXTQ=

> <s_epik_cmdline>
J2VwaWtfYXBwJywgJy1pbWFlJywgJ2xpZ2FuZF9wcm8ubWFlJywgJy1vbWFlJywgJ2xpZ2FuZF9wcmVwLm1hZScsICctbXMnLCAnMScsICctcGgnLCAnNycsICctcGh0JywgJzAuNScsICctbnQn

> <r_lp_tautomer_probability>
1

> <r_epik_Ionization_Penalty>
  0.0106

> <r_epik_Ionization_Penalty_Charging>
  0.0086

> <r_epik_Ionization_Penalty_Neutral>
  0.0020

> <r_epik_State_Penalty>
 -0.0000

> <r_epik_Charging_Adjusted_Penalty>
0.00857161421072162

> <i_epik_Tot_Q>
1

> <i_epik_Tot_abs_Q>
1

$$$$
