4bgh_ligand
                    3D
 Schrodinger Suite 2020-3.
 39 40  0  0  1  0            999 V2000
   14.7240   -5.8070   10.5410 O   0  0  0  0  0  0
   13.3480   -5.8030   10.8000 C   0  0  0  0  0  0
   13.0110   -7.2940   10.9270 C   0  0  1  0  0  0
   13.5450   -8.0950    9.7540 C   0  0  0  0  0  0
   13.6070   -7.8660   12.1600 N   0  0  0  0  0  0
   12.9210   -8.7900   12.8970 C   0  0  0  0  0  0
   11.7840   -9.3070   12.3470 N   0  0  0  0  0  0
   13.3580   -9.1750   14.1730 C   0  0  0  0  0  0
   15.0000   -8.3660   14.7610 Br  0  0  0  0  0  0
   12.5930  -10.0830   14.8890 C   0  0  0  0  0  0
   11.4790  -10.5340   14.2610 N   0  0  0  0  0  0
   11.0830  -10.1580   13.0400 C   0  0  0  0  0  0
   10.0220  -10.7200   12.5090 N   0  0  0  0  0  0
    9.4110  -10.5680   11.3800 C   0  0  0  0  0  0
    8.2630  -11.3910   11.1660 C   0  0  0  0  0  0
    7.5020  -11.2020   10.0150 C   0  0  0  0  0  0
    9.7370   -9.5970   10.4560 C   0  0  0  0  0  0
    8.9700   -9.4410    9.3300 C   0  0  0  0  0  0
    7.8230  -10.2370    9.1100 C   0  0  0  0  0  0
    6.7850   -9.9350    7.7290 S   0  0  0  0  0  0
    5.6420   -9.1800    8.3060 O   0  0  0  0  0  0
    6.1350  -11.2100    7.2010 O   0  0  0  0  0  0
    7.4980   -9.0660    6.6130 N   0  0  0  0  0  0
   15.2598   -4.8568   10.3996 H   0  0  0  0  0  0
   13.1512   -5.2463   11.7281 H   0  0  0  0  0  0
   12.8190   -5.3214    9.9644 H   0  0  0  0  0  0
   11.9157   -7.3821   10.9770 H   0  0  0  0  0  0
   13.1241   -7.6993    8.8179 H   0  0  0  0  0  0
   13.2562   -9.1502    9.8688 H   0  0  0  0  0  0
   14.6418   -8.0161    9.7251 H   0  0  0  0  0  0
   14.6077   -7.5467   12.4864 H   0  0  0  0  0  0
   12.8689  -10.4126   15.8907 H   0  0  0  0  0  0
    9.4718  -11.4925   13.0662 H   0  0  0  0  0  0
    7.9869  -12.1552   11.8925 H   0  0  0  0  0  0
    6.6347  -11.8375    9.8358 H   0  0  0  0  0  0
   10.6024   -8.9551   10.6206 H   0  0  0  0  0  0
    9.2499   -8.6897    8.5915 H   0  0  0  0  0  0
    6.8051   -8.9073    5.7735 H   0  0  0  0  0  0
    8.3940   -9.5936    6.2542 H   0  0  0  0  0  0
  1  2  1  0  0  0
  1 24  1  0  0  0
  2  3  1  0  0  0
  2 25  1  0  0  0
  2 26  1  0  0  0
  3  4  1  0  0  0
  3  5  1  0  0  0
  3 27  1  0  0  0
  4 28  1  0  0  0
  4 29  1  0  0  0
  4 30  1  0  0  0
  5  6  1  0  0  0
  5 31  1  0  0  0
  6  7  2  0  0  0
  6  8  1  0  0  0
  7 12  1  0  0  0
  8  9  1  0  0  0
  8 10  2  0  0  0
 10 11  1  0  0  0
 10 32  1  0  0  0
 11 12  2  0  0  0
 12 13  1  0  0  0
 13 14  1  0  0  0
 13 33  1  0  0  0
 14 15  2  0  0  0
 14 17  1  0  0  0
 15 16  1  0  0  0
 15 34  1  0  0  0
 16 19  2  0  0  0
 16 35  1  0  0  0
 17 18  2  0  0  0
 17 36  1  0  0  0
 18 19  1  0  0  0
 18 37  1  0  0  0
 19 20  1  0  0  0
 20 21  2  0  0  0
 20 22  2  0  0  0
 20 23  1  0  0  0
 23 38  1  0  0  0
 23 39  1  0  0  0
M  END
> <s_m_source_file>
../4bgh_ligand.sdf

> <i_m_source_file_index>
1

> <s_epik_input>
W09IXVtDSDJdW0NAQEhdKFtDSDNdKVtOSF1jMW5jKG5bY0hdYzFCcilbTkhdYzJbY0hdW2NIXWMoW2NIXVtjSF0yKVMoPU8pKD1PKVtOSDJd

> <s_epik_cmdline>
J2VwaWtfYXBwJywgJy1pbWFlJywgJ2xpZ2FuZF9wcm8ubWFlJywgJy1vbWFlJywgJ2xpZ2FuZF9wcmVwLm1hZScsICctbXMnLCAnMScsICctcGgnLCAnNycsICctcGh0JywgJzAuNScsICctbnQn

> <r_lp_tautomer_probability>
1

> <r_epik_Ionization_Penalty>
  0.0018

> <r_epik_Ionization_Penalty_Charging>
  0.0000

> <r_epik_Ionization_Penalty_Neutral>
  0.0018

> <r_epik_State_Penalty>
 -0.0000

> <r_epik_Charging_Adjusted_Penalty>
0

> <i_epik_Tot_Q>
0

> <i_epik_Tot_abs_Q>
0

$$$$
