4bgk_ligand
                    3D
 Schrodinger Suite 2020-3.
 26 25  0  0  1  0            999 V2000
   20.6950   26.5190   88.1610 O   0  0  0  0  0  0
   21.5610   27.6810   87.7730 P   0  0  0  0  0  0
   22.9950   27.2710   87.4950 O   0  0  0  0  0  0
   21.4330   28.9260   89.0800 C   0  0  0  0  0  0
   22.3920   30.0910   88.8530 C   0  0  0  0  0  0
   21.9370   30.9200   87.6610 C   0  0  0  0  0  0
   22.7000   32.1780   87.4370 N   0  3  0  0  0  0
   24.1220   31.9360   87.0900 C   0  0  0  0  0  0
   22.6270   33.0900   88.6030 C   0  0  0  0  0  0
   22.0420   32.8190   86.2770 C   0  0  0  0  0  0
   23.2121   26.5196   86.7215 H   0  0  0  0  0  0
   20.4080   29.3244   89.1078 H   0  0  0  0  0  0
   21.6739   28.4658   90.0496 H   0  0  0  0  0  0
   22.4125   30.7289   89.7489 H   0  0  0  0  0  0
   23.4019   29.7017   88.6569 H   0  0  0  0  0  0
   22.0365   30.3250   86.7412 H   0  0  0  0  0  0
   20.8851   31.2114   87.7971 H   0  0  0  0  0  0
   24.6309   31.4589   87.9405 H   0  0  0  0  0  0
   24.6115   32.8939   86.8602 H   0  0  0  0  0  0
   24.1779   31.2757   86.2120 H   0  0  0  0  0  0
   23.1149   32.6182   89.4686 H   0  0  0  0  0  0
   21.5732   33.2950   88.8428 H   0  0  0  0  0  0
   23.1387   34.0337   88.3630 H   0  0  0  0  0  0
   22.0933   32.1461   85.4084 H   0  0  0  0  0  0
   22.5545   33.7631   86.0403 H   0  0  0  0  0  0
   20.9890   33.0243   86.5201 H   0  0  0  0  0  0
  1  2  2  0  0  0
  2  3  1  0  0  0
  2  4  1  0  0  0
  3 11  1  0  0  0
  4  5  1  0  0  0
  4 12  1  0  0  0
  4 13  1  0  0  0
  5  6  1  0  0  0
  5 14  1  0  0  0
  5 15  1  0  0  0
  6  7  1  0  0  0
  6 16  1  0  0  0
  6 17  1  0  0  0
  7  8  1  0  0  0
  7  9  1  0  0  0
  7 10  1  0  0  0
  8 18  1  0  0  0
  8 19  1  0  0  0
  8 20  1  0  0  0
  9 21  1  0  0  0
  9 22  1  0  0  0
  9 23  1  0  0  0
 10 24  1  0  0  0
 10 25  1  0  0  0
 10 26  1  0  0  0
M  CHG  1   7   1
M  END
> <s_m_source_file>
../4bgk_ligand.sdf

> <i_m_source_file_index>
1

> <s_epik_input>
Tz1bUEhdKFtPSF0pW0NIMl1bQ0gyXVtDSDJdW04rXShbQ0gzXSkoW0NIM10pW0NIM10=

> <s_epik_cmdline>
J2VwaWtfYXBwJywgJy1pbWFlJywgJ2xpZ2FuZF9wcm8ubWFlJywgJy1vbWFlJywgJ2xpZ2FuZF9wcmVwLm1hZScsICctbXMnLCAnMScsICctcGgnLCAnNycsICctcGh0JywgJzAuNScsICctbnQn

> <r_lp_tautomer_probability>
1

> <r_epik_Ionization_Penalty>
  0.0000

> <r_epik_Ionization_Penalty_Charging>
  0.0000

> <r_epik_Ionization_Penalty_Neutral>
  0.0000

> <r_epik_State_Penalty>
 -0.0000

> <r_epik_Charging_Adjusted_Penalty>
0

> <i_epik_Tot_Q>
1

> <i_epik_Tot_abs_Q>
1

$$$$
