4bgm_ligand
                    3D
 Schrodinger Suite 2020-3.
 28 27  0  0  1  0            999 V2000
   23.1820   32.6440   88.5470 C   0  0  0  0  0  0
   22.3140   32.9770   89.7530 C   0  0  0  0  0  0
   21.4220   32.6370   86.8730 C   0  0  0  0  0  0
   23.5440   31.6020   86.4810 C   0  0  0  0  0  0
   22.0390   30.5750   88.0790 C   0  0  0  0  0  0
   21.5920   29.5590   87.0230 C   0  0  0  0  0  0
   20.7460   28.4390   87.6150 C   0  0  0  0  0  0
   21.5620   27.2810   88.1030 C   0  0  0  0  0  0
   22.5040   31.8550   87.4960 N   0  3  0  0  0  0
   22.8130   27.2700   88.1180 O   0  5  0  0  0  0
   22.3140   31.9350   90.6400 F   0  0  0  0  0  0
   20.8920   26.3210   88.5070 O   0  0  0  0  0  0
   23.5247   33.5758   88.0734 H   0  0  0  0  0  0
   24.0530   32.0566   88.8731 H   0  0  0  0  0  0
   22.7089   33.8739   90.2525 H   0  0  0  0  0  0
   21.2824   33.1663   89.4213 H   0  0  0  0  0  0
   21.8340   33.5705   86.4621 H   0  0  0  0  0  0
   20.6591   32.8745   87.6290 H   0  0  0  0  0  0
   20.9650   32.0499   86.0627 H   0  0  0  0  0  0
   23.8814   32.5586   86.0554 H   0  0  0  0  0  0
   23.1298   30.9706   85.6812 H   0  0  0  0  0  0
   24.3963   31.0882   86.9496 H   0  0  0  0  0  0
   21.1969   30.8015   88.7495 H   0  0  0  0  0  0
   22.8704   30.1544   88.6637 H   0  0  0  0  0  0
   20.9912   30.0685   86.2552 H   0  0  0  0  0  0
   22.4770   29.1042   86.5540 H   0  0  0  0  0  0
   20.1720   28.8258   88.4699 H   0  0  0  0  0  0
   20.0530   28.0592   86.8498 H   0  0  0  0  0  0
  1  2  1  0  0  0
  1  9  1  0  0  0
  1 13  1  0  0  0
  1 14  1  0  0  0
  2 11  1  0  0  0
  2 15  1  0  0  0
  2 16  1  0  0  0
  3  9  1  0  0  0
  3 17  1  0  0  0
  3 18  1  0  0  0
  3 19  1  0  0  0
  4  9  1  0  0  0
  4 20  1  0  0  0
  4 21  1  0  0  0
  4 22  1  0  0  0
  5  6  1  0  0  0
  5  9  1  0  0  0
  5 23  1  0  0  0
  5 24  1  0  0  0
  6  7  1  0  0  0
  6 25  1  0  0  0
  6 26  1  0  0  0
  7  8  1  0  0  0
  7 27  1  0  0  0
  7 28  1  0  0  0
  8 10  1  0  0  0
  8 12  2  0  0  0
M  CHG  2   9   1  10  -1
M  END
> <s_m_source_file>
../4bgm_ligand.sdf

> <i_m_source_file_index>
1

> <s_epik_input>
RltDSDJdW0NIMl1bTitdKFtDSDNdKShbQ0gzXSlbQ0gyXVtDSDJdW0NIMl1DKD1PKVtPSF0=

> <s_epik_cmdline>
J2VwaWtfYXBwJywgJy1pbWFlJywgJ2xpZ2FuZF9wcm8ubWFlJywgJy1vbWFlJywgJ2xpZ2FuZF9wcmVwLm1hZScsICctbXMnLCAnMScsICctcGgnLCAnNycsICctcGh0JywgJzAuNScsICctbnQn

> <r_lp_tautomer_probability>
1

> <r_epik_Ionization_Penalty>
  0.0006

> <r_epik_Ionization_Penalty_Charging>
  0.0006

> <r_epik_Ionization_Penalty_Neutral>
  0.0000

> <r_epik_State_Penalty>
 -0.0000

> <r_epik_Charging_Adjusted_Penalty>
0.000576220290439172

> <i_epik_Tot_Q>
0

> <i_epik_Tot_abs_Q>
2

$$$$
