4bgx_ligand
                    3D
 Schrodinger Suite 2020-3.
 60 61  0  0  1  0            999 V2000
   36.2720   -5.3090   21.5890 C   0  0  0  0  0  0
   36.5300   -5.4420   23.0840 C   0  0  1  0  0  0
   35.2050   -5.2870   23.8360 C   0  0  0  0  0  0
   34.3580   -6.5300   23.6620 C   0  0  1  0  0  0
   35.1640   -7.7150   24.1570 C   0  0  2  0  0  0
   36.4390   -7.8520   23.3210 C   0  0  2  0  0  0
   37.4030   -8.9740   23.6990 C   0  0  1  0  0  0
   38.7620   -8.8460   22.9850 C   0  0  1  0  0  0
   39.5740  -10.1410   23.0160 C   0  0  0  0  0  0
   34.3470   -9.9610   24.5330 C   0  0  0  0  0  0
   33.3420  -11.0030   24.1350 C   0  0  0  0  0  0
   34.2620   -8.8180   23.8790 N   0  0  0  0  0  0
   35.6210   -4.3300   21.1570 O   0  5  0  0  0  0
   36.7240   -6.1790   20.8170 O   0  0  0  0  0  0
   33.1130   -6.4330   24.3650 O   0  0  0  0  0  0
   37.1950   -6.6610   23.4300 O   0  0  0  0  0  0
   37.5580   -8.9620   25.1100 O   0  0  0  0  0  0
   38.5660   -8.5170   21.6000 O   0  0  0  0  0  0
   40.8620   -9.9660   22.3880 O   0  0  0  0  0  0
   35.1980  -10.1520   25.3860 O   0  0  0  0  0  0
   38.3990   -0.6130   23.0120 C   0  0  2  0  0  0
   39.5370   -0.1600   22.0740 C   0  0  1  0  0  0
   39.9370   -1.2230   21.0270 C   0  0  2  0  0  0
   39.9960   -2.6460   21.6010 C   0  0  2  0  0  0
   38.7160   -2.9080   22.3720 C   0  0  1  0  0  0
   38.6800   -4.3130   22.9350 C   0  0  0  0  0  0
   38.2830    0.2500   24.1570 O   0  0  0  0  0  0
   39.1310    1.0290   21.3780 O   0  0  0  0  0  0
   41.1950   -0.8830   20.4290 O   0  0  0  0  0  0
   41.1100   -2.8480   22.4840 O   0  0  0  0  0  0
   38.6200   -1.9640   23.4510 O   0  0  0  0  0  0
   37.3980   -4.4130   23.5480 O   0  0  0  0  0  0
   35.4067   -5.1351   24.9066 H   0  0  0  0  0  0
   34.6576   -4.4193   23.4393 H   0  0  0  0  0  0
   34.0463   -6.6484   22.6138 H   0  0  0  0  0  0
   35.4497   -7.6787   25.2186 H   0  0  0  0  0  0
   36.0921   -8.0126   22.2896 H   0  0  0  0  0  0
   36.9749   -9.9564   23.4507 H   0  0  0  0  0  0
   39.3183   -8.0269   23.4642 H   0  0  0  0  0  0
   39.7321  -10.4497   24.0599 H   0  0  0  0  0  0
   39.0267  -10.9299   22.4793 H   0  0  0  0  0  0
   32.6843  -10.5978   23.3519 H   0  0  0  0  0  0
   32.7390  -11.2843   25.0110 H   0  0  0  0  0  0
   33.8664  -11.8902   23.7506 H   0  0  0  0  0  0
   33.4849   -8.7120   23.1077 H   0  0  0  0  0  0
   32.4074   -5.6240   24.1250 H   0  0  0  0  0  0
   36.6753   -9.0455   25.7610 H   0  0  0  0  0  0
   38.0017   -7.6141   21.3237 H   0  0  0  0  0  0
   41.5651  -10.8100   22.3306 H   0  0  0  0  0  0
   37.4233   -0.5855   22.5049 H   0  0  0  0  0  0
   40.4130    0.0904   22.6904 H   0  0  0  0  0  0
   39.2029   -1.2070   20.2080 H   0  0  0  0  0  0
   40.1653   -3.3677   20.7883 H   0  0  0  0  0  0
   37.8479   -2.7575   21.7134 H   0  0  0  0  0  0
   38.8038   -5.0388   22.1177 H   0  0  0  0  0  0
   39.4956   -4.4375   23.6626 H   0  0  0  0  0  0
   38.1105    1.3275   24.0184 H   0  0  0  0  0  0
   38.8049    1.9137   21.9446 H   0  0  0  0  0  0
   41.3345    0.1047   19.9652 H   0  0  0  0  0  0
   42.1367   -2.7069   22.1153 H   0  0  0  0  0  0
  1  2  1  0  0  0
  1 13  1  0  0  0
  1 14  2  0  0  0
  2  3  1  0  0  0
  2 16  1  0  0  0
  2 32  1  0  0  0
  3  4  1  0  0  0
  3 33  1  0  0  0
  3 34  1  0  0  0
  4  5  1  0  0  0
  4 15  1  0  0  0
  4 35  1  0  0  0
  5  6  1  0  0  0
  5 12  1  0  0  0
  5 36  1  0  0  0
  6  7  1  0  0  0
  6 16  1  0  0  0
  6 37  1  0  0  0
  7  8  1  0  0  0
  7 17  1  0  0  0
  7 38  1  0  0  0
  8  9  1  0  0  0
  8 18  1  0  0  0
  8 39  1  0  0  0
  9 19  1  0  0  0
  9 40  1  0  0  0
  9 41  1  0  0  0
 10 11  1  0  0  0
 10 12  1  0  0  0
 10 20  2  0  0  0
 11 42  1  0  0  0
 11 43  1  0  0  0
 11 44  1  0  0  0
 12 45  1  0  0  0
 15 46  1  0  0  0
 17 47  1  0  0  0
 18 48  1  0  0  0
 19 49  1  0  0  0
 21 22  1  0  0  0
 21 27  1  0  0  0
 21 31  1  0  0  0
 21 50  1  0  0  0
 22 23  1  0  0  0
 22 28  1  0  0  0
 22 51  1  0  0  0
 23 24  1  0  0  0
 23 29  1  0  0  0
 23 52  1  0  0  0
 24 25  1  0  0  0
 24 30  1  0  0  0
 24 53  1  0  0  0
 25 26  1  0  0  0
 25 31  1  0  0  0
 25 54  1  0  0  0
 26 32  1  0  0  0
 26 55  1  0  0  0
 26 56  1  0  0  0
 27 57  1  0  0  0
 28 58  1  0  0  0
 29 59  1  0  0  0
 30 60  1  0  0  0
M  CHG  1  13  -1
M  END
> <s_m_source_file>
../4bgx_ligand.sdf

> <i_m_source_file_index>
1

> <s_epik_input>
W09IXVtDQEhdMVtDQEhdKFtPSF0pW0NAQEhdKFtPSF0pW0NAQEhdKFtPSF0pW0NASF0oTzEpW0NIMl1PW0NAXTIoQyg9TylbT0hdKVtDSDJdW0NASF0oW09IXSlbQ0BASF0oW05IXUMoPU8pW0NIM10pW0NAQEhdKE8yKVtDQEhdKFtPSF0pW0NASF0oW09IXSlbQ0gyXVtPSF0=

> <s_epik_cmdline>
J2VwaWtfYXBwJywgJy1pbWFlJywgJ2xpZ2FuZF9wcm8ubWFlJywgJy1vbWFlJywgJ2xpZ2FuZF9wcmVwLm1hZScsICctbXMnLCAnMScsICctcGgnLCAnNycsICctcGh0JywgJzAuNScsICctbnQn

> <r_lp_tautomer_probability>
1

> <r_epik_Ionization_Penalty>
  0.0000

> <r_epik_Ionization_Penalty_Charging>
  0.0000

> <r_epik_Ionization_Penalty_Neutral>
  0.0000

> <r_epik_State_Penalty>
 -0.0000

> <r_epik_Charging_Adjusted_Penalty>
3.56892623120892e-05

> <i_epik_Tot_Q>
-1

> <i_epik_Tot_abs_Q>
1

> <s_epik_Chemistry_Notes>
This compound contains an acetal/aminal-like group ( X-CH(R)-Y where X, Y are N, S, or O) that may be acid/base labile, releasing an aldehyde.

$$$$
