4bgy_ligand
                    3D
 Schrodinger Suite 2020-3.
 87 89  0  0  1  0            999 V2000
  -23.0570   29.6730   96.2540 C   0  0  0  0  0  0
  -23.1970   29.1360   97.6530 C   0  0  1  0  0  0
  -22.3010   29.9820   98.5510 C   0  0  0  0  0  0
  -22.8170   31.4160   98.5060 C   0  0  1  0  0  0
  -24.2550   31.4240   98.9760 C   0  0  2  0  0  0
  -25.0910   30.5180   98.0860 C   0  0  2  0  0  0
  -26.5540   30.4860   98.4720 C   0  0  1  0  0  0
  -27.2590   29.2710   97.8960 C   0  0  1  0  0  0
  -28.7700   29.4700   97.9120 C   0  0  0  0  0  0
  -25.7580   33.2900   99.3570 C   0  0  0  0  0  0
  -26.1010   34.7130   99.0290 C   0  0  0  0  0  0
  -24.6960   32.7860   98.7440 N   0  0  0  0  0  0
  -21.9030   29.8390   95.7930 O   0  5  0  0  0  0
  -24.0970   29.9320   95.6140 O   0  0  0  0  0  0
  -22.0290   32.2820   99.3200 O   0  0  0  0  0  0
  -24.5530   29.1970   98.1070 O   0  0  0  0  0  0
  -26.6610   30.4870   99.8870 O   0  0  0  0  0  0
  -26.8120   29.0690   96.5510 O   0  0  0  0  0  0
  -29.4080   28.3620   97.2830 O   0  0  0  0  0  0
  -26.4180   32.6330  100.1370 O   0  0  0  0  0  0
  -22.0520   25.1370  100.0930 C   0  0  1  0  0  0
  -21.8050   26.1350   98.9770 C   0  0  1  0  0  0
  -22.9570   27.1130   98.8440 C   0  0  2  0  0  0
  -24.2830   26.3870   98.8000 C   0  0  2  0  0  0
  -24.4020   25.4450   99.9880 C   0  0  1  0  0  0
  -25.7300   24.6900   99.9960 C   0  0  0  0  0  0
  -20.5860   26.8260   99.2520 O   0  0  0  0  0  0
  -22.7580   27.7900   97.6180 O   0  0  0  0  0  0
  -24.3150   25.6400   97.5890 O   0  0  0  0  0  0
  -23.3240   24.5130   99.9350 O   0  0  0  0  0  0
  -25.5120   23.3310  100.3900 O   0  0  0  0  0  0
  -19.8440   20.7600  101.8610 C   0  0  2  0  0  0
  -21.3310   20.8170  101.5490 C   0  0  1  0  0  0
  -21.6130   21.9250  100.5500 C   0  0  2  0  0  0
  -21.0270   23.2330  101.0550 C   0  0  1  0  0  0
  -19.5860   23.0840  101.5490 C   0  0  1  0  0  0
  -19.0880   24.3650  102.2140 C   0  0  0  0  0  0
  -21.7980   18.4630  101.6830 C   0  0  0  0  0  0
  -22.0820   17.1740  100.9730 C   0  0  0  0  0  0
  -21.6220   19.5400  100.9200 N   0  0  0  0  0  0
  -19.5730   19.6570  102.7300 O   0  0  0  0  0  0
  -23.0230   22.0840  100.3660 O   0  0  0  0  0  0
  -21.0310   24.1600   99.9790 O   0  0  0  0  0  0
  -19.4770   21.9960  102.4690 O   0  0  0  0  0  0
  -20.1440   24.9550  102.9770 O   0  0  0  0  0  0
  -21.7300   18.5220  102.9000 O   0  0  0  0  0  0
  -22.3414   29.5939   99.5795 H   0  0  0  0  0  0
  -21.2655   29.9372   98.1826 H   0  0  0  0  0  0
  -22.7152   31.8413   97.4967 H   0  0  0  0  0  0
  -24.3616   31.1274  100.0299 H   0  0  0  0  0  0
  -25.0198   30.8757   97.0482 H   0  0  0  0  0  0
  -27.0571   31.3994   98.1219 H   0  0  0  0  0  0
  -26.9906   28.3649   98.4590 H   0  0  0  0  0  0
  -29.1185   29.5485   98.9524 H   0  0  0  0  0  0
  -29.0241   30.3926   97.3696 H   0  0  0  0  0  0
  -25.3728   35.1082   98.3054 H   0  0  0  0  0  0
  -26.0712   35.3183   99.9470 H   0  0  0  0  0  0
  -27.1104   34.7559   98.5940 H   0  0  0  0  0  0
  -24.1450   33.4307   98.0435 H   0  0  0  0  0  0
  -20.9538   32.3982   99.1190 H   0  0  0  0  0  0
  -26.2051   31.2990  100.4725 H   0  0  0  0  0  0
  -25.7436   28.9075   96.3449 H   0  0  0  0  0  0
  -30.5046   28.3323   97.2017 H   0  0  0  0  0  0
  -22.0491   25.5753  101.1019 H   0  0  0  0  0  0
  -21.6672   25.6214   98.0141 H   0  0  0  0  0  0
  -22.9749   27.8502   99.6602 H   0  0  0  0  0  0
  -25.1337   27.0842   98.7848 H   0  0  0  0  0  0
  -24.3024   26.0115  100.9256 H   0  0  0  0  0  0
  -26.4197   25.1688  100.7066 H   0  0  0  0  0  0
  -26.1696   24.7107   98.9879 H   0  0  0  0  0  0
  -19.6502   26.2617   99.3779 H   0  0  0  0  0  0
  -24.2405   26.1577   96.6213 H   0  0  0  0  0  0
  -26.3604   22.6336  100.4524 H   0  0  0  0  0  0
  -19.2017   20.6163  100.9796 H   0  0  0  0  0  0
  -21.9523   20.9706  102.4436 H   0  0  0  0  0  0
  -21.2078   21.6566   99.5632 H   0  0  0  0  0  0
  -21.6600   23.6273  101.8636 H   0  0  0  0  0  0
  -18.9378   22.8182  100.7010 H   0  0  0  0  0  0
  -18.2453   24.1285  102.8803 H   0  0  0  0  0  0
  -18.7566   25.0743  101.4413 H   0  0  0  0  0  0
  -22.0983   17.3494   99.8872 H   0  0  0  0  0  0
  -23.0588   16.7848  101.2963 H   0  0  0  0  0  0
  -21.2974   16.4418  101.2145 H   0  0  0  0  0  0
  -21.6948   19.4704   99.8246 H   0  0  0  0  0  0
  -19.8016   18.6314  102.4046 H   0  0  0  0  0  0
  -23.6288   21.2408  100.0027 H   0  0  0  0  0  0
  -19.9677   25.8900  103.5289 H   0  0  0  0  0  0
  1  2  1  0  0  0
  1 13  1  0  0  0
  1 14  2  0  0  0
  2  3  1  0  0  0
  2 16  1  0  0  0
  2 28  1  0  0  0
  3  4  1  0  0  0
  3 47  1  0  0  0
  3 48  1  0  0  0
  4  5  1  0  0  0
  4 15  1  0  0  0
  4 49  1  0  0  0
  5  6  1  0  0  0
  5 12  1  0  0  0
  5 50  1  0  0  0
  6  7  1  0  0  0
  6 16  1  0  0  0
  6 51  1  0  0  0
  7  8  1  0  0  0
  7 17  1  0  0  0
  7 52  1  0  0  0
  8  9  1  0  0  0
  8 18  1  0  0  0
  8 53  1  0  0  0
  9 19  1  0  0  0
  9 54  1  0  0  0
  9 55  1  0  0  0
 10 11  1  0  0  0
 10 12  1  0  0  0
 10 20  2  0  0  0
 11 56  1  0  0  0
 11 57  1  0  0  0
 11 58  1  0  0  0
 12 59  1  0  0  0
 15 60  1  0  0  0
 17 61  1  0  0  0
 18 62  1  0  0  0
 19 63  1  0  0  0
 21 22  1  0  0  0
 21 30  1  0  0  0
 21 43  1  0  0  0
 21 64  1  0  0  0
 22 23  1  0  0  0
 22 27  1  0  0  0
 22 65  1  0  0  0
 23 24  1  0  0  0
 23 28  1  0  0  0
 23 66  1  0  0  0
 24 25  1  0  0  0
 24 29  1  0  0  0
 24 67  1  0  0  0
 25 26  1  0  0  0
 25 30  1  0  0  0
 25 68  1  0  0  0
 26 31  1  0  0  0
 26 69  1  0  0  0
 26 70  1  0  0  0
 27 71  1  0  0  0
 29 72  1  0  0  0
 31 73  1  0  0  0
 32 33  1  0  0  0
 32 41  1  0  0  0
 32 44  1  0  0  0
 32 74  1  0  0  0
 33 34  1  0  0  0
 33 40  1  0  0  0
 33 75  1  0  0  0
 34 35  1  0  0  0
 34 42  1  0  0  0
 34 76  1  0  0  0
 35 36  1  0  0  0
 35 43  1  0  0  0
 35 77  1  0  0  0
 36 37  1  0  0  0
 36 44  1  0  0  0
 36 78  1  0  0  0
 37 45  1  0  0  0
 37 79  1  0  0  0
 37 80  1  0  0  0
 38 39  1  0  0  0
 38 40  1  0  0  0
 38 46  2  0  0  0
 39 81  1  0  0  0
 39 82  1  0  0  0
 39 83  1  0  0  0
 40 84  1  0  0  0
 41 85  1  0  0  0
 42 86  1  0  0  0
 45 87  1  0  0  0
M  CHG  1  13  -1
M  END
> <s_m_source_file>
../4bgy_ligand.sdf

> <i_m_source_file_index>
1

> <s_epik_input>
W09IXVtDSDJdW0NAQEhdKFtPSF0pW0NAQEhdKFtPSF0pW0NASF0oTzEpW0NASF0oW05IXUMoPU8pW0NIM10pW0NAQEhdKFtPSF0pW0NIMl1bQ0BAXTEoQyg9TylbT0hdKU9bQ0BASF0oW0NAQEhdKFtPSF0pW0NASF0oTzIpW0NIMl1bT0hdKVtDQEBIXShbT0hdKVtDQEBIXTJPW0NASF0oW0NASF0oTzMpW0NIMl1bT0hdKVtDQEhdKFtPSF0pW0NASF0oW0NAQEhdM1tPSF0pW05IXUMoPU8pW0NIM10=

> <s_epik_cmdline>
J2VwaWtfYXBwJywgJy1pbWFlJywgJ2xpZ2FuZF9wcm8ubWFlJywgJy1vbWFlJywgJ2xpZ2FuZF9wcmVwLm1hZScsICctbXMnLCAnMScsICctcGgnLCAnNycsICctcGh0JywgJzAuNScsICctbnQn

> <r_lp_tautomer_probability>
1

> <r_epik_Ionization_Penalty>
  0.0000

> <r_epik_Ionization_Penalty_Charging>
  0.0000

> <r_epik_Ionization_Penalty_Neutral>
  0.0000

> <r_epik_State_Penalty>
 -0.0000

> <r_epik_Charging_Adjusted_Penalty>
9.90123822354334e-06

> <i_epik_Tot_Q>
-1

> <i_epik_Tot_abs_Q>
1

> <s_epik_Chemistry_Notes>
This compound contains an acetal/aminal-like group ( X-CH(R)-Y where X, Y are N, S, or O) that may be acid/base labile, releasing an aldehyde.

$$$$
