4bh3_ligand
                    3D
 Schrodinger Suite 2020-3.
 87 89  0  0  1  0            999 V2000
  -22.9270   27.0940  -41.7470 C   0  0  0  0  0  0
  -22.9640   27.3330  -43.2450 C   0  0  1  0  0  0
  -22.1980   26.2380  -43.9940 C   0  0  0  0  0  0
  -22.9460   24.9110  -43.9590 C   0  0  1  0  0  0
  -24.3780   25.0880  -44.4540 C   0  0  2  0  0  0
  -25.0790   26.1840  -43.6580 C   0  0  2  0  0  0
  -26.5290   26.4360  -44.1030 C   0  0  1  0  0  0
  -27.1600   27.6540  -43.4190 C   0  0  1  0  0  0
  -28.6730   27.6500  -43.6230 C   0  0  0  0  0  0
  -25.9670   23.2820  -44.9500 C   0  0  0  0  0  0
  -26.5520   21.9860  -44.4700 C   0  0  0  0  0  0
  -25.0510   23.8300  -44.1520 N   0  0  0  0  0  0
  -21.8340   26.7630  -41.2530 O   0  0  0  0  0  0
  -23.9660   27.2600  -41.0530 O   0  5  0  0  0  0
  -22.2660   23.9400  -44.7600 O   0  0  0  0  0  0
  -24.3130   27.4000  -43.7400 O   0  0  0  0  0  0
  -26.5960   26.5990  -45.5230 O   0  0  0  0  0  0
  -26.8820   27.6460  -42.0090 O   0  0  0  0  0  0
  -29.2870   28.8110  -43.0440 O   0  0  0  0  0  0
  -26.3280   23.7940  -45.9960 O   0  0  0  0  0  0
  -22.5100   31.6680  -45.9080 C   0  0  1  0  0  0
  -22.9520   33.0710  -45.5180 C   0  0  1  0  0  0
  -22.5880   33.4030  -44.0680 C   0  0  2  0  0  0
  -22.9260   32.2590  -43.1090 C   0  0  2  0  0  0
  -22.4200   30.9320  -43.6740 C   0  0  1  0  0  0
  -22.7450   29.7230  -42.8070 C   0  0  0  0  0  0
  -22.3250   34.0000  -46.4080 O   0  0  0  0  0  0
  -23.2890   34.5910  -43.6770 O   0  0  0  0  0  0
  -24.3430   32.2010  -42.9000 O   0  0  0  0  0  0
  -23.0080   30.7300  -44.9580 O   0  0  0  0  0  0
  -22.2930   28.5630  -43.5150 O   0  0  0  0  0  0
  -22.3620   28.7230  -50.2100 C   0  0  2  0  0  0
  -21.8810   28.2120  -48.8560 C   0  0  1  0  0  0
  -22.5650   29.0500  -47.7830 C   0  0  2  0  0  0
  -22.1660   30.5140  -47.9790 C   0  0  1  0  0  0
  -22.2440   31.0000  -49.4330 C   0  0  1  0  0  0
  -21.3900   32.2560  -49.5980 C   0  0  0  0  0  0
  -21.4800   25.9030  -48.1390 C   0  0  0  0  0  0
  -22.0230   24.5040  -48.0920 C   0  0  0  0  0  0
  -22.2720   26.8090  -48.7190 N   0  0  0  0  0  0
  -21.9470   27.8540  -51.2600 O   0  0  0  0  0  0
  -22.1930   28.5930  -46.4760 O   0  0  0  0  0  0
  -23.0260   31.3500  -47.2010 O   0  0  0  0  0  0
  -21.7990   30.0240  -50.3880 O   0  0  0  0  0  0
  -22.0220   33.1590  -50.5120 O   0  0  0  0  0  0
  -20.3860   26.1820  -47.6700 O   0  0  0  0  0  0
  -22.0660   26.5360  -45.0446 H   0  0  0  0  0  0
  -21.2124   26.0949  -43.5269 H   0  0  0  0  0  0
  -22.9429   24.5021  -42.9378 H   0  0  0  0  0  0
  -24.4171   25.3168  -45.5292 H   0  0  0  0  0  0
  -25.0926   25.8863  -42.5991 H   0  0  0  0  0  0
  -27.1252   25.5409  -43.8723 H   0  0  0  0  0  0
  -26.7069   28.5767  -43.8106 H   0  0  0  0  0  0
  -28.8978   27.6388  -44.6997 H   0  0  0  0  0  0
  -29.1045   26.7561  -43.1490 H   0  0  0  0  0  0
  -26.0879   21.7065  -43.5127 H   0  0  0  0  0  0
  -26.3599   21.1991  -45.2142 H   0  0  0  0  0  0
  -27.6370   22.1026  -44.3313 H   0  0  0  0  0  0
  -24.8101   23.2856  -43.2270 H   0  0  0  0  0  0
  -21.2179   23.6853  -44.5439 H   0  0  0  0  0  0
  -26.1901   25.8205  -46.1857 H   0  0  0  0  0  0
  -25.8410   27.6474  -41.6536 H   0  0  0  0  0  0
  -30.3763   28.9483  -43.1111 H   0  0  0  0  0  0
  -21.4161   31.5576  -45.9433 H   0  0  0  0  0  0
  -24.0391   33.1787  -45.6470 H   0  0  0  0  0  0
  -21.5131   33.6237  -43.9914 H   0  0  0  0  0  0
  -22.4927   32.4413  -42.1145 H   0  0  0  0  0  0
  -21.3278   30.9967  -43.7879 H   0  0  0  0  0  0
  -22.2264   29.8143  -41.8412 H   0  0  0  0  0  0
  -23.8307   29.6749  -42.6370 H   0  0  0  0  0  0
  -22.4781   33.9106  -47.4936 H   0  0  0  0  0  0
  -23.1655   35.5182  -44.2559 H   0  0  0  0  0  0
  -24.8755   33.0745  -42.4957 H   0  0  0  0  0  0
  -23.4563   28.7823  -50.3045 H   0  0  0  0  0  0
  -20.7863   28.2500  -48.7547 H   0  0  0  0  0  0
  -23.6573   28.9231  -47.8115 H   0  0  0  0  0  0
  -21.1358   30.6234  -47.6092 H   0  0  0  0  0  0
  -23.3019   31.1583  -49.6896 H   0  0  0  0  0  0
  -21.2728   32.7505  -48.6224 H   0  0  0  0  0  0
  -20.4003   31.9777  -49.9892 H   0  0  0  0  0  0
  -23.0145   24.4794  -48.5677 H   0  0  0  0  0  0
  -22.1107   24.1797  -47.0445 H   0  0  0  0  0  0
  -21.3416   23.8280  -48.6293 H   0  0  0  0  0  0
  -23.2466   26.4699  -49.1001 H   0  0  0  0  0  0
  -22.2906   26.8092  -51.2774 H   0  0  0  0  0  0
  -22.4095   27.5580  -46.1730 H   0  0  0  0  0  0
  -21.5460   34.1212  -50.7522 H   0  0  0  0  0  0
  1  2  1  0  0  0
  1 13  2  0  0  0
  1 14  1  0  0  0
  2  3  1  0  0  0
  2 16  1  0  0  0
  2 31  1  0  0  0
  3  4  1  0  0  0
  3 47  1  0  0  0
  3 48  1  0  0  0
  4  5  1  0  0  0
  4 15  1  0  0  0
  4 49  1  0  0  0
  5  6  1  0  0  0
  5 12  1  0  0  0
  5 50  1  0  0  0
  6  7  1  0  0  0
  6 16  1  0  0  0
  6 51  1  0  0  0
  7  8  1  0  0  0
  7 17  1  0  0  0
  7 52  1  0  0  0
  8  9  1  0  0  0
  8 18  1  0  0  0
  8 53  1  0  0  0
  9 19  1  0  0  0
  9 54  1  0  0  0
  9 55  1  0  0  0
 10 11  1  0  0  0
 10 12  1  0  0  0
 10 20  2  0  0  0
 11 56  1  0  0  0
 11 57  1  0  0  0
 11 58  1  0  0  0
 12 59  1  0  0  0
 15 60  1  0  0  0
 17 61  1  0  0  0
 18 62  1  0  0  0
 19 63  1  0  0  0
 21 22  1  0  0  0
 21 30  1  0  0  0
 21 43  1  0  0  0
 21 64  1  0  0  0
 22 23  1  0  0  0
 22 27  1  0  0  0
 22 65  1  0  0  0
 23 24  1  0  0  0
 23 28  1  0  0  0
 23 66  1  0  0  0
 24 25  1  0  0  0
 24 29  1  0  0  0
 24 67  1  0  0  0
 25 26  1  0  0  0
 25 30  1  0  0  0
 25 68  1  0  0  0
 26 31  1  0  0  0
 26 69  1  0  0  0
 26 70  1  0  0  0
 27 71  1  0  0  0
 28 72  1  0  0  0
 29 73  1  0  0  0
 32 33  1  0  0  0
 32 41  1  0  0  0
 32 44  1  0  0  0
 32 74  1  0  0  0
 33 34  1  0  0  0
 33 40  1  0  0  0
 33 75  1  0  0  0
 34 35  1  0  0  0
 34 42  1  0  0  0
 34 76  1  0  0  0
 35 36  1  0  0  0
 35 43  1  0  0  0
 35 77  1  0  0  0
 36 37  1  0  0  0
 36 44  1  0  0  0
 36 78  1  0  0  0
 37 45  1  0  0  0
 37 79  1  0  0  0
 37 80  1  0  0  0
 38 39  1  0  0  0
 38 40  1  0  0  0
 38 46  2  0  0  0
 39 81  1  0  0  0
 39 82  1  0  0  0
 39 83  1  0  0  0
 40 84  1  0  0  0
 41 85  1  0  0  0
 42 86  1  0  0  0
 45 87  1  0  0  0
M  CHG  1  14  -1
M  END
> <s_m_source_file>
../4bh3_ligand.sdf

> <i_m_source_file_index>
1

> <s_epik_input>
W09IXVtDSDJdW0NAQEhdKFtPSF0pW0NAQEhdKFtPSF0pW0NASF0oTzEpW0NASF0oW05IXUMoPU8pW0NIM10pW0NAQEhdKFtPSF0pW0NIMl1bQ0BAXTEoQyg9TylbT0hdKU9bQ0gyXVtDQEBIXShPMilbQ0BIXShbT0hdKVtDQEhdKFtPSF0pW0NAQEhdKFtPSF0pW0NAQEhdMk9bQ0BIXShbQ0BIXShPMylbQ0gyXVtPSF0pW0NASF0oW09IXSlbQ0BIXShbQ0BASF0zW09IXSlbTkhdQyg9TylbQ0gzXQ==

> <s_epik_cmdline>
J2VwaWtfYXBwJywgJy1pbWFlJywgJ2xpZ2FuZF9wcm8ubWFlJywgJy1vbWFlJywgJ2xpZ2FuZF9wcmVwLm1hZScsICctbXMnLCAnMScsICctcGgnLCAnNycsICctcGh0JywgJzAuNScsICctbnQn

> <r_lp_tautomer_probability>
1

> <r_epik_Ionization_Penalty>
  0.0000

> <r_epik_Ionization_Penalty_Charging>
  0.0000

> <r_epik_Ionization_Penalty_Neutral>
  0.0000

> <r_epik_State_Penalty>
 -0.0000

> <r_epik_Charging_Adjusted_Penalty>
3.55189974798374e-05

> <i_epik_Tot_Q>
-1

> <i_epik_Tot_abs_Q>
1

> <s_epik_Chemistry_Notes>
This compound contains an acetal/aminal-like group ( X-CH(R)-Y where X, Y are N, S, or O) that may be acid/base labile, releasing an aldehyde.

$$$$
