4bh4_ligand
                    3D
 Schrodinger Suite 2020-3.
 87 89  0  0  1  0            999 V2000
   28.3080    2.4600  -13.1450 C   0  0  0  0  0  0
   28.2450    2.2250  -11.6420 C   0  0  1  0  0  0
   28.9550    3.3400  -10.8720 C   0  0  0  0  0  0
   28.1780    4.6430  -10.8990 C   0  0  1  0  0  0
   26.7530    4.4100  -10.4160 C   0  0  2  0  0  0
   26.0920    3.3110  -11.2550 C   0  0  2  0  0  0
   24.6430    3.0170  -10.8450 C   0  0  1  0  0  0
   24.0100    1.8160  -11.5690 C   0  0  1  0  0  0
   22.4880    1.8700  -11.4540 C   0  0  0  0  0  0
   25.1040    6.1460   -9.8520 C   0  0  0  0  0  0
   24.4600    7.4210  -10.3020 C   0  0  0  0  0  0
   26.0300    5.6500  -10.6730 N   0  0  0  0  0  0
   29.4130    2.7470  -13.6480 O   0  0  0  0  0  0
   27.2680    2.3530  -13.8420 O   0  5  0  0  0  0
   28.8490    5.6070  -10.0840 O   0  0  0  0  0  0
   26.8860    2.1120  -11.1830 O   0  0  0  0  0  0
   24.6000    2.7860   -9.4340 O   0  0  0  0  0  0
   24.3510    1.7810  -12.9640 O   0  0  0  0  0  0
   21.8800    0.7140  -12.0480 O   0  0  0  0  0  0
   24.7690    5.6060   -8.8120 O   0  0  0  0  0  0
   27.9950   -2.5350  -11.3000 C   0  0  1  0  0  0
   28.2660   -1.1450  -10.7420 C   0  0  1  0  0  0
   28.5590   -0.1800  -11.8800 C   0  0  2  0  0  0
   29.6540   -0.7160  -12.7980 C   0  0  2  0  0  0
   29.3550   -2.1490  -13.2200 C   0  0  1  0  0  0
   30.4970   -2.7460  -14.0310 C   0  0  0  0  0  0
   27.1390   -0.6710  -10.0000 O   0  0  0  0  0  0
   28.9890    1.0530  -11.3130 O   0  0  0  0  0  0
   30.9160   -0.6790  -12.1220 O   0  0  0  0  0  0
   29.1260   -2.9560  -12.0650 O   0  0  0  0  0  0
   30.0220   -3.9190  -14.7000 O   0  0  0  0  0  0
   27.2870   -7.4560   -9.5720 C   0  0  2  0  0  0
   28.2930   -7.1450  -10.6720 C   0  0  1  0  0  0
   28.5960   -5.6530  -10.7820 C   0  0  2  0  0  0
   27.3620   -4.7540  -10.6310 C   0  0  1  0  0  0
   26.3580   -5.2670   -9.5980 C   0  0  1  0  0  0
   25.0320   -4.5170   -9.7090 C   0  0  0  0  0  0
   30.0550   -8.9260  -10.7250 C   0  0  0  0  0  0
   29.2940   -9.6990  -11.7690 C   0  0  0  0  0  0
   29.5490   -7.7740  -10.2660 N   0  0  0  0  0  0
   26.9350   -8.8410   -9.6220 O   0  0  0  0  0  0
   29.1940   -5.4270  -12.0660 O   0  0  0  0  0  0
   27.7720   -3.4430  -10.2230 O   0  0  0  0  0  0
   26.1180   -6.6640   -9.7730 O   0  0  0  0  0  0
   24.2110   -4.8120   -8.5730 O   0  0  0  0  0  0
   31.1240   -9.3380  -10.3000 O   0  0  0  0  0  0
   29.0786    3.0387   -9.8213 H   0  0  0  0  0  0
   29.9430    3.5231  -11.3196 H   0  0  0  0  0  0
   28.1605    5.0789  -11.9088 H   0  0  0  0  0  0
   26.7252    4.1566   -9.3460 H   0  0  0  0  0  0
   26.0872    3.6254  -12.3091 H   0  0  0  0  0  0
   24.0371    3.9090  -11.0621 H   0  0  0  0  0  0
   24.4262    0.8895  -11.1467 H   0  0  0  0  0  0
   22.2017    1.9100  -10.3927 H   0  0  0  0  0  0
   22.1129    2.7667  -11.9690 H   0  0  0  0  0  0
   24.9032    7.7383  -11.2574 H   0  0  0  0  0  0
   24.6238    8.2017   -9.5446 H   0  0  0  0  0  0
   23.3800    7.2594  -10.4345 H   0  0  0  0  0  0
   26.2381    6.2291  -11.5848 H   0  0  0  0  0  0
   29.8900    5.8851  -10.3052 H   0  0  0  0  0  0
   25.0079    3.5367   -8.7411 H   0  0  0  0  0  0
   25.4064    1.7397  -13.2713 H   0  0  0  0  0  0
   20.7854    0.6057  -12.0453 H   0  0  0  0  0  0
   27.1107   -2.5808  -11.9526 H   0  0  0  0  0  0
   29.0982   -1.1819  -10.0236 H   0  0  0  0  0  0
   27.6472    0.0183  -12.4625 H   0  0  0  0  0  0
   29.7535   -0.0679  -13.6812 H   0  0  0  0  0  0
   28.4253   -2.1712  -13.8076 H   0  0  0  0  0  0
   30.8455   -2.0099  -14.7704 H   0  0  0  0  0  0
   31.3259   -3.0101  -13.3578 H   0  0  0  0  0  0
   26.7734   -1.2394   -9.1321 H   0  0  0  0  0  0
   31.3071    0.2752  -11.7392 H   0  0  0  0  0  0
   30.7013   -4.4992  -15.3418 H   0  0  0  0  0  0
   27.6716   -7.2454   -8.5632 H   0  0  0  0  0  0
   27.9128   -7.5245  -11.6319 H   0  0  0  0  0  0
   29.3151   -5.3719   -9.9985 H   0  0  0  0  0  0
   26.8743   -4.6770  -11.6140 H   0  0  0  0  0  0
   26.7873   -5.1646   -8.5904 H   0  0  0  0  0  0
   25.2250   -3.4347   -9.7470 H   0  0  0  0  0  0
   24.5100   -4.8287  -10.6257 H   0  0  0  0  0  0
   28.3647   -9.1647  -12.0160 H   0  0  0  0  0  0
   29.0500  -10.6985  -11.3798 H   0  0  0  0  0  0
   29.9113   -9.7986  -12.6740 H   0  0  0  0  0  0
   30.1845   -7.2938   -9.5074 H   0  0  0  0  0  0
   27.7094   -9.6105   -9.4873 H   0  0  0  0  0  0
   30.0960   -5.9846  -12.3585 H   0  0  0  0  0  0
   23.2134   -4.3575   -8.4825 H   0  0  0  0  0  0
  1  2  1  0  0  0
  1 13  2  0  0  0
  1 14  1  0  0  0
  2  3  1  0  0  0
  2 16  1  0  0  0
  2 28  1  0  0  0
  3  4  1  0  0  0
  3 47  1  0  0  0
  3 48  1  0  0  0
  4  5  1  0  0  0
  4 15  1  0  0  0
  4 49  1  0  0  0
  5  6  1  0  0  0
  5 12  1  0  0  0
  5 50  1  0  0  0
  6  7  1  0  0  0
  6 16  1  0  0  0
  6 51  1  0  0  0
  7  8  1  0  0  0
  7 17  1  0  0  0
  7 52  1  0  0  0
  8  9  1  0  0  0
  8 18  1  0  0  0
  8 53  1  0  0  0
  9 19  1  0  0  0
  9 54  1  0  0  0
  9 55  1  0  0  0
 10 11  1  0  0  0
 10 12  1  0  0  0
 10 20  2  0  0  0
 11 56  1  0  0  0
 11 57  1  0  0  0
 11 58  1  0  0  0
 12 59  1  0  0  0
 15 60  1  0  0  0
 17 61  1  0  0  0
 18 62  1  0  0  0
 19 63  1  0  0  0
 21 22  1  0  0  0
 21 30  1  0  0  0
 21 43  1  0  0  0
 21 64  1  0  0  0
 22 23  1  0  0  0
 22 27  1  0  0  0
 22 65  1  0  0  0
 23 24  1  0  0  0
 23 28  1  0  0  0
 23 66  1  0  0  0
 24 25  1  0  0  0
 24 29  1  0  0  0
 24 67  1  0  0  0
 25 26  1  0  0  0
 25 30  1  0  0  0
 25 68  1  0  0  0
 26 31  1  0  0  0
 26 69  1  0  0  0
 26 70  1  0  0  0
 27 71  1  0  0  0
 29 72  1  0  0  0
 31 73  1  0  0  0
 32 33  1  0  0  0
 32 41  1  0  0  0
 32 44  1  0  0  0
 32 74  1  0  0  0
 33 34  1  0  0  0
 33 40  1  0  0  0
 33 75  1  0  0  0
 34 35  1  0  0  0
 34 42  1  0  0  0
 34 76  1  0  0  0
 35 36  1  0  0  0
 35 43  1  0  0  0
 35 77  1  0  0  0
 36 37  1  0  0  0
 36 44  1  0  0  0
 36 78  1  0  0  0
 37 45  1  0  0  0
 37 79  1  0  0  0
 37 80  1  0  0  0
 38 39  1  0  0  0
 38 40  1  0  0  0
 38 46  2  0  0  0
 39 81  1  0  0  0
 39 82  1  0  0  0
 39 83  1  0  0  0
 40 84  1  0  0  0
 41 85  1  0  0  0
 42 86  1  0  0  0
 45 87  1  0  0  0
M  CHG  1  14  -1
M  END
> <s_m_source_file>
../4bh4_ligand.sdf

> <i_m_source_file_index>
1

> <s_epik_input>
W09IXVtDSDJdW0NAQEhdKFtPSF0pW0NAQEhdKFtPSF0pW0NASF0oTzEpW0NASF0oW05IXUMoPU8pW0NIM10pW0NAQEhdKFtPSF0pW0NIMl1bQ0BAXTEoQyg9TylbT0hdKU9bQ0BASF0oW0NAQEhdKFtPSF0pW0NASF0oTzIpW0NIMl1bT0hdKVtDQEBIXShbT0hdKVtDQEBIXTJPW0NASF0oW0NASF0oTzMpW0NIMl1bT0hdKVtDQEhdKFtPSF0pW0NASF0oW0NAQEhdM1tPSF0pW05IXUMoPU8pW0NIM10=

> <s_epik_cmdline>
J2VwaWtfYXBwJywgJy1pbWFlJywgJ2xpZ2FuZF9wcm8ubWFlJywgJy1vbWFlJywgJ2xpZ2FuZF9wcmVwLm1hZScsICctbXMnLCAnMScsICctcGgnLCAnNycsICctcGh0JywgJzAuNScsICctbnQn

> <r_lp_tautomer_probability>
1

> <r_epik_Ionization_Penalty>
  0.0000

> <r_epik_Ionization_Penalty_Charging>
  0.0000

> <r_epik_Ionization_Penalty_Neutral>
  0.0000

> <r_epik_State_Penalty>
 -0.0000

> <r_epik_Charging_Adjusted_Penalty>
9.90123822354334e-06

> <i_epik_Tot_Q>
-1

> <i_epik_Tot_abs_Q>
1

> <s_epik_Chemistry_Notes>
This compound contains an acetal/aminal-like group ( X-CH(R)-Y where X, Y are N, S, or O) that may be acid/base labile, releasing an aldehyde.

$$$$
