4bhf_ligand
                    3D
 Schrodinger Suite 2020-3.
 28 27  0  0  1  0            999 V2000
   22.5500   31.9450   87.7140 N   0  3  0  0  0  0
   22.5610   32.8600   88.8680 C   0  0  0  0  0  0
   22.7790   27.1630   87.8820 O   0  5  0  0  0  0
   21.5490   27.3470   87.9330 C   0  0  0  0  0  0
   20.8480   26.5400   88.5310 O   0  0  0  0  0  0
   20.8100   28.5060   87.2660 C   0  0  0  0  0  0
   21.7520   30.7110   88.0550 C   0  0  1  0  0  0
   21.9110   32.6670   86.6090 C   0  0  0  0  0  0
   23.9400   31.6640   87.3010 C   0  0  0  0  0  0
   21.6870   29.7040   86.9090 C   0  0  0  0  0  0
   22.2220   29.9820   89.3010 C   0  0  0  0  0  0
   21.5270   33.0714   89.1782 H   0  0  0  0  0  0
   23.0586   33.7996   88.5861 H   0  0  0  0  0  0
   23.1056   32.3924   89.7015 H   0  0  0  0  0  0
   20.3521   28.1578   86.3284 H   0  0  0  0  0  0
   20.0253   28.8777   87.9413 H   0  0  0  0  0  0
   20.7538   31.1276   88.2550 H   0  0  0  0  0  0
   20.8689   32.8974   86.8755 H   0  0  0  0  0  0
   21.9284   32.0420   85.7040 H   0  0  0  0  0  0
   22.4564   33.6031   86.4187 H   0  0  0  0  0  0
   24.4586   31.1207   88.1047 H   0  0  0  0  0  0
   24.4623   32.6116   87.1027 H   0  0  0  0  0  0
   23.9343   31.0505   86.3880 H   0  0  0  0  0  0
   22.7083   29.3586   86.6907 H   0  0  0  0  0  0
   21.2740   30.2100   86.0239 H   0  0  0  0  0  0
   22.2764   30.6898   90.1413 H   0  0  0  0  0  0
   23.2176   29.5507   89.1198 H   0  0  0  0  0  0
   21.5126   29.1774   89.5446 H   0  0  0  0  0  0
  1  2  1  0  0  0
  1  7  1  0  0  0
  1  8  1  0  0  0
  1  9  1  0  0  0
  2 12  1  0  0  0
  2 13  1  0  0  0
  2 14  1  0  0  0
  3  4  1  0  0  0
  4  5  2  0  0  0
  4  6  1  0  0  0
  6 10  1  0  0  0
  6 15  1  0  0  0
  6 16  1  0  0  0
  7 10  1  0  0  0
  7 11  1  0  0  0
  7 17  1  0  0  0
  8 18  1  0  0  0
  8 19  1  0  0  0
  8 20  1  0  0  0
  9 21  1  0  0  0
  9 22  1  0  0  0
  9 23  1  0  0  0
 10 24  1  0  0  0
 10 25  1  0  0  0
 11 26  1  0  0  0
 11 27  1  0  0  0
 11 28  1  0  0  0
M  CHG  2   1   1   3  -1
M  END
> <s_m_source_file>
../4bhf_ligand.sdf

> <i_m_source_file_index>
1

> <s_epik_input>
W0NIM11bTitdKFtDSDNdKShbQ0gzXSlbQ0BIXShbQ0gzXSlbQ0gyXVtDSDJdQyg9TylbT0hd

> <s_epik_cmdline>
J2VwaWtfYXBwJywgJy1pbWFlJywgJ2xpZ2FuZF9wcm8ubWFlJywgJy1vbWFlJywgJ2xpZ2FuZF9wcmVwLm1hZScsICctbXMnLCAnMScsICctcGgnLCAnNycsICctcGh0JywgJzAuNScsICctbnQn

> <r_lp_tautomer_probability>
1

> <r_epik_Ionization_Penalty>
  0.0006

> <r_epik_Ionization_Penalty_Charging>
  0.0006

> <r_epik_Ionization_Penalty_Neutral>
  0.0000

> <r_epik_State_Penalty>
 -0.0000

> <r_epik_Charging_Adjusted_Penalty>
0.000600285561530544

> <i_epik_Tot_Q>
0

> <i_epik_Tot_abs_Q>
2

$$$$
