4bhi_ligand
                    3D
 Schrodinger Suite 2020-3.
 27 26  0  0  1  0            999 V2000
   20.8580   26.8470   88.3870 O   0  0  0  0  0  0
   21.7620   27.4390   87.7690 C   0  0  0  0  0  0
   22.9620   27.0540   87.8180 O   0  5  0  0  0  0
   21.4390   28.6160   86.8530 C   0  0  0  0  0  0
   20.9320   29.8880   87.4820 C   0  0  0  0  0  0
   21.9950   30.6770   88.1100 N   0  0  3  0  0  0
   22.4810   30.0590   89.3340 C   0  0  0  0  0  0
   22.4760   31.8990   87.6630 N   0  3  0  0  0  0
   23.8620   31.7800   87.1510 C   0  0  0  0  0  0
   21.6430   32.5010   86.5980 C   0  0  0  0  0  0
   22.5010   32.8770   88.7590 C   0  0  0  0  0  0
   22.3446   28.9120   86.3033 H   0  0  0  0  0  0
   20.6565   28.3207   86.1385 H   0  0  0  0  0  0
   20.4601   30.5153   86.7114 H   0  0  0  0  0  0
   20.1928   29.6435   88.2591 H   0  0  0  0  0  0
   21.9633   29.1013   89.4918 H   0  0  0  0  0  0
   22.2838   30.7270   90.1854 H   0  0  0  0  0  0
   23.5633   29.8814   89.2503 H   0  0  0  0  0  0
   23.8867   31.0537   86.3253 H   0  0  0  0  0  0
   24.5237   31.4378   87.9603 H   0  0  0  0  0  0
   24.2040   32.7603   86.7875 H   0  0  0  0  0  0
   21.5857   31.8110   85.7433 H   0  0  0  0  0  0
   22.0932   33.4506   86.2731 H   0  0  0  0  0  0
   20.6310   32.6888   86.9862 H   0  0  0  0  0  0
   23.1094   32.4843   89.5870 H   0  0  0  0  0  0
   21.4751   33.0586   89.1118 H   0  0  0  0  0  0
   22.9372   33.8203   88.3987 H   0  0  0  0  0  0
  1  2  2  0  0  0
  2  3  1  0  0  0
  2  4  1  0  0  0
  4  5  1  0  0  0
  4 12  1  0  0  0
  4 13  1  0  0  0
  5  6  1  0  0  0
  5 14  1  0  0  0
  5 15  1  0  0  0
  6  7  1  0  0  0
  6  8  1  0  0  0
  7 16  1  0  0  0
  7 17  1  0  0  0
  7 18  1  0  0  0
  8  9  1  0  0  0
  8 10  1  0  0  0
  8 11  1  0  0  0
  9 19  1  0  0  0
  9 20  1  0  0  0
  9 21  1  0  0  0
 10 22  1  0  0  0
 10 23  1  0  0  0
 10 24  1  0  0  0
 11 25  1  0  0  0
 11 26  1  0  0  0
 11 27  1  0  0  0
M  CHG  2   3  -1   8   1
M  END
> <s_m_source_file>
../4bhi_ligand.sdf

> <i_m_source_file_index>
1

> <s_epik_input>
Tz1DKFtPSF0pW0NIMl1bQ0gyXVtOSCtdKFtDSDNdKVtOK10oW0NIM10pKFtDSDNdKVtDSDNd

> <s_epik_cmdline>
J2VwaWtfYXBwJywgJy1pbWFlJywgJ2xpZ2FuZF9wcm8ubWFlJywgJy1vbWFlJywgJ2xpZ2FuZF9wcmVwLm1hZScsICctbXMnLCAnMScsICctcGgnLCAnNycsICctcGh0JywgJzAuNScsICctbnQn

> <r_lp_tautomer_probability>
1

> <r_epik_Ionization_Penalty>
  0.0018

> <r_epik_Ionization_Penalty_Charging>
  0.0018

> <r_epik_Ionization_Penalty_Neutral>
  0.0000

> <r_epik_State_Penalty>
 -0.0000

> <r_epik_Charging_Adjusted_Penalty>
0.00184926855518143

> <i_epik_Tot_Q>
0

> <i_epik_Tot_abs_Q>
2

$$$$
