4bhz_ligand
                    3D
 Schrodinger Suite 2020-3.
 19 21  0  0  1  0            999 V2000
    0.8940  -42.2180   17.3370 C   0  0  0  0  0  0
    1.0660  -42.5600   18.7160 C   0  0  0  0  0  0
    1.9660  -41.8030   19.4970 C   0  0  0  0  0  0
    2.6480  -40.7780   18.9150 C   0  0  0  0  0  0
    1.6730  -41.1280   16.8820 C   0  0  0  0  0  0
   -1.4180  -43.7900   14.8510 C   0  0  0  0  0  0
   -0.4840  -42.8620   15.1490 C   0  0  0  0  0  0
   -0.0340  -42.9790   16.5390 C   0  0  0  0  0  0
   -0.6930  -44.0460   17.2560 C   0  0  0  0  0  0
   -0.5350  -44.3720   18.5460 N   0  0  0  0  0  0
   -1.8050  -44.8290   16.1710 S   0  0  0  0  0  0
    0.3160  -43.6450   19.2390 C   0  0  0  0  0  0
    2.5260  -40.4300   17.6280 N   0  0  0  0  0  0
    2.1130  -42.0358   20.5516 H   0  0  0  0  0  0
    3.3365  -40.2049   19.5360 H   0  0  0  0  0  0
    1.5660  -40.8367   15.8371 H   0  0  0  0  0  0
   -1.8833  -43.8743   13.8689 H   0  0  0  0  0  0
   -0.1112  -42.1188   14.4442 H   0  0  0  0  0  0
    0.4545  -43.8947   20.2909 H   0  0  0  0  0  0
  1  2  1  0  0  0
  1  5  1  0  0  0
  1  8  2  0  0  0
  2  3  1  0  0  0
  2 12  2  0  0  0
  3  4  2  0  0  0
  3 14  1  0  0  0
  4 13  1  0  0  0
  4 15  1  0  0  0
  5 13  2  0  0  0
  5 16  1  0  0  0
  6  7  2  0  0  0
  6 11  1  0  0  0
  6 17  1  0  0  0
  7  8  1  0  0  0
  7 18  1  0  0  0
  8  9  1  0  0  0
  9 10  2  0  0  0
  9 11  1  0  0  0
 10 12  1  0  0  0
 12 19  1  0  0  0
M  END
> <s_m_source_file>
../4bhz_ligand.sdf

> <i_m_source_file_index>
1

> <s_epik_input>
W2NIXTFuW2NIXVtjSF1jKGMxMilbY0hdbmMzYzJbY0hdW2NIXXMz

> <s_epik_cmdline>
J2VwaWtfYXBwJywgJy1pbWFlJywgJ2xpZ2FuZF9wcm8ubWFlJywgJy1vbWFlJywgJ2xpZ2FuZF9wcmVwLm1hZScsICctbXMnLCAnMScsICctcGgnLCAnNycsICctcGh0JywgJzAuNScsICctbnQn

> <r_lp_tautomer_probability>
1

> <r_epik_Ionization_Penalty>
  0.0000

> <r_epik_Ionization_Penalty_Charging>
  0.0000

> <r_epik_Ionization_Penalty_Neutral>
  0.0000

> <r_epik_State_Penalty>
 -0.0000

> <r_epik_Charging_Adjusted_Penalty>
0

> <i_epik_Tot_Q>
0

> <i_epik_Tot_abs_Q>
0

$$$$
