4bi0_ligand
                    3D
 Schrodinger Suite 2020-3.
 19 21  0  0  1  0            999 V2000
    1.5750   45.3090   16.4690 C   0  0  0  0  0  0
    1.4960   44.7630   15.2540 N   0  0  0  0  0  0
    0.7040   43.6860   15.1380 C   0  0  0  0  0  0
   -0.0040   43.1910   16.2400 C   0  0  0  0  0  0
    0.9680   44.9140   17.5980 N   0  0  0  0  0  0
    0.1530   43.8440   17.5330 C   0  0  0  0  0  0
   -0.7010   43.0480   18.4200 C   0  0  0  0  0  0
   -0.9280   43.0820   19.7960 C   0  0  0  0  0  0
   -1.3180   42.0360   17.6500 C   0  0  0  0  0  0
   -2.1640   41.0930   18.2350 C   0  0  0  0  0  0
   -2.3740   41.1550   19.6060 C   0  0  0  0  0  0
   -1.7600   42.1370   20.3780 C   0  0  0  0  0  0
   -0.8900   42.1330   16.3390 N   0  0  0  0  0  0
    2.2141   46.1878   16.5549 H   0  0  0  0  0  0
    0.6105   43.1894   14.1722 H   0  0  0  0  0  0
   -0.4482   43.8555   20.4136 H   0  0  0  0  0  0
   -2.6482   40.3263   17.6302 H   0  0  0  0  0  0
   -3.0352   40.4154   20.0811 H   0  0  0  0  0  0
   -1.9320   42.1704   21.4640 H   0  0  0  0  0  0
  1  2  2  0  0  0
  1  5  1  0  0  0
  1 14  1  0  0  0
  2  3  1  0  0  0
  3  4  2  0  0  0
  3 15  1  0  0  0
  4  6  1  0  0  0
  4 13  1  0  0  0
  5  6  2  0  0  0
  6  7  1  0  0  0
  7  8  2  0  0  0
  7  9  1  0  0  0
  8 12  1  0  0  0
  8 16  1  0  0  0
  9 10  1  0  0  0
  9 13  2  0  0  0
 10 11  1  0  0  0
 10 17  1  0  0  0
 11 12  2  0  0  0
 11 18  1  0  0  0
 12 19  1  0  0  0
M  END
> <s_m_source_file>
../4bi0_ligand.sdf

> <i_m_source_file_index>
1

> <s_epik_input>
W2NIXTFuW2NIXW5jKGMxMilDPTNDKD1OMilbQ0gyXVtDSF09W0NIXVtDSF0z

> <s_epik_cmdline>
J2VwaWtfYXBwJywgJy1pbWFlJywgJ2xpZ2FuZF9wcm8ubWFlJywgJy1vbWFlJywgJ2xpZ2FuZF9wcmVwLm1hZScsICctbXMnLCAnMScsICctcGgnLCAnNycsICctcGh0JywgJzAuNScsICctbnQn

> <r_lp_tautomer_probability>
1

> <r_epik_Ionization_Penalty>
  0.0020

> <r_epik_Ionization_Penalty_Charging>
  0.0000

> <r_epik_Ionization_Penalty_Neutral>
  0.0020

> <r_epik_State_Penalty>
 -0.0000

> <r_epik_Charging_Adjusted_Penalty>
0

> <i_epik_Tot_Q>
0

> <i_epik_Tot_abs_Q>
0

> <s_epik_Chemistry_Notes>
This compound has an imine and may undergo hydrolysis.

$$$$
