4bi1_ligand
                    3D
 Schrodinger Suite 2020-3.
 19 21  0  0  1  0            999 V2000
    1.5440   45.1470   16.8810 C   0  0  0  0  0  0
    1.6450   44.7190   15.6050 C   0  0  0  0  0  0
    0.6840   43.3280   15.2580 S   0  0  0  0  0  0
    0.0810   43.2840   16.8820 C   0  0  0  0  0  0
   -0.8270   42.3980   17.5430 C   0  0  0  0  0  0
    0.6440   44.3260   17.6780 C   0  0  0  0  0  0
    0.4120   44.5030   19.0040 N   0  0  0  0  0  0
   -0.4060   43.6570   19.5900 C   0  0  0  0  0  0
   -1.0710   42.5940   18.9370 C   0  0  0  0  0  0
   -1.9910   41.7480   19.5950 C   0  0  0  0  0  0
   -2.6250   40.7780   18.8830 C   0  0  0  0  0  0
   -2.4260   40.5560   17.5790 N   0  0  0  0  0  0
   -1.5530   41.3400   16.9480 C   0  0  0  0  0  0
    2.0781   46.0130   17.2721 H   0  0  0  0  0  0
    2.2756   45.2070   14.8618 H   0  0  0  0  0  0
   -0.5846   43.7845   20.6577 H   0  0  0  0  0  0
   -2.1903   41.8709   20.6596 H   0  0  0  0  0  0
   -3.3390   40.1426   19.4070 H   0  0  0  0  0  0
   -1.3847   41.1508   15.8878 H   0  0  0  0  0  0
  1  2  2  0  0  0
  1  6  1  0  0  0
  1 14  1  0  0  0
  2  3  1  0  0  0
  2 15  1  0  0  0
  3  4  1  0  0  0
  4  5  1  0  0  0
  4  6  2  0  0  0
  5  9  2  0  0  0
  5 13  1  0  0  0
  6  7  1  0  0  0
  7  8  2  0  0  0
  8  9  1  0  0  0
  8 16  1  0  0  0
  9 10  1  0  0  0
 10 11  2  0  0  0
 10 17  1  0  0  0
 11 12  1  0  0  0
 11 18  1  0  0  0
 12 13  2  0  0  0
 13 19  1  0  0  0
M  END
> <s_m_source_file>
../4bi1_ligand.sdf

> <i_m_source_file_index>
1

> <s_epik_input>
czFbY0hdW2NIXWMybltjSF1jKGMzYzEyKVtjSF1bY0hdbltjSF0z

> <s_epik_cmdline>
J2VwaWtfYXBwJywgJy1pbWFlJywgJ2xpZ2FuZF9wcm8ubWFlJywgJy1vbWFlJywgJ2xpZ2FuZF9wcmVwLm1hZScsICctbXMnLCAnMScsICctcGgnLCAnNycsICctcGh0JywgJzAuNScsICctbnQn

> <r_lp_tautomer_probability>
1

> <r_epik_Ionization_Penalty>
  0.0002

> <r_epik_Ionization_Penalty_Charging>
  0.0000

> <r_epik_Ionization_Penalty_Neutral>
  0.0002

> <r_epik_State_Penalty>
 -0.0000

> <r_epik_Charging_Adjusted_Penalty>
0

> <i_epik_Tot_Q>
0

> <i_epik_Tot_abs_Q>
0

$$$$
