4bi2_ligand
                    3D
 Schrodinger Suite 2020-3.
 19 21  0  0  1  0            999 V2000
   -0.7210   42.1430   17.0310 C   0  0  0  0  0  0
   -0.8360   42.5490   18.3940 C   0  0  0  0  0  0
   -1.7300   41.8230   19.2070 C   0  0  0  0  0  0
   -2.3460   40.4460   17.4970 C   0  0  0  0  0  0
   -1.5190   41.0510   16.6040 C   0  0  0  0  0  0
    1.3610   43.7010   14.3320 C   0  0  0  0  0  0
    0.5160   42.7290   14.7320 C   0  0  0  0  0  0
    0.1470   42.8850   16.1480 C   0  0  0  0  0  0
    0.7870   44.0140   16.7640 C   0  0  0  0  0  0
    0.6940   44.3970   18.0430 N   0  0  0  0  0  0
    1.7580   44.8220   15.5790 S   0  0  0  0  0  0
   -0.0870   43.6730   18.8210 C   0  0  0  0  0  0
   -2.4680   40.8000   18.7840 N   0  0  0  0  0  0
   -1.8228   42.1195   20.2518 H   0  0  0  0  0  0
   -2.9532   39.6137   17.1412 H   0  0  0  0  0  0
   -1.4697   40.7014   15.5728 H   0  0  0  0  0  0
    1.7547   43.7707   13.3180 H   0  0  0  0  0  0
    0.1522   41.9287   14.0876 H   0  0  0  0  0  0
   -0.1616   43.9607   19.8697 H   0  0  0  0  0  0
  1  2  1  0  0  0
  1  5  1  0  0  0
  1  8  2  0  0  0
  2  3  1  0  0  0
  2 12  2  0  0  0
  3 13  2  0  0  0
  3 14  1  0  0  0
  4  5  2  0  0  0
  4 13  1  0  0  0
  4 15  1  0  0  0
  5 16  1  0  0  0
  6  7  2  0  0  0
  6 11  1  0  0  0
  6 17  1  0  0  0
  7  8  1  0  0  0
  7 18  1  0  0  0
  8  9  1  0  0  0
  9 10  2  0  0  0
  9 11  1  0  0  0
 10 12  1  0  0  0
 12 19  1  0  0  0
M  END
> <s_m_source_file>
../4bi2_ligand.sdf

> <i_m_source_file_index>
1

> <s_epik_input>
W2NIXTFbY0hdbltjSF1jKGMxMilbY0hdbmMzYzJbY0hdW2NIXXMz

> <s_epik_cmdline>
J2VwaWtfYXBwJywgJy1pbWFlJywgJ2xpZ2FuZF9wcm8ubWFlJywgJy1vbWFlJywgJ2xpZ2FuZF9wcmVwLm1hZScsICctbXMnLCAnMScsICctcGgnLCAnNycsICctcGh0JywgJzAuNScsICctbnQn

> <r_lp_tautomer_probability>
1

> <r_epik_Ionization_Penalty>
  0.0004

> <r_epik_Ionization_Penalty_Charging>
  0.0000

> <r_epik_Ionization_Penalty_Neutral>
  0.0004

> <r_epik_State_Penalty>
 -0.0000

> <r_epik_Charging_Adjusted_Penalty>
0

> <i_epik_Tot_Q>
0

> <i_epik_Tot_abs_Q>
0

$$$$
