4bi6_ligand
                    3D
 Schrodinger Suite 2020-3.
 11 10  0  0  1  0            999 V2000
   -1.6930  -19.8400  -35.5630 P   0  0  0  0  0  0
   -2.2440  -18.3250  -35.5200 O   0  0  0  0  0  0
   -2.5460  -20.6000  -36.5420 O   0  0  0  0  0  0
   -0.2550  -19.7700  -36.0210 O   0  5  0  0  0  0
   -1.7650  -20.4060  -34.1650 O   0  5  0  0  0  0
   -3.5220  -18.0180  -34.9980 C   0  0  0  0  0  0
   -3.9070  -16.6280  -35.4500 C   0  0  0  0  0  0
   -5.0940  -16.3220  -35.6500 O   0  0  0  0  0  0
   -3.0320  -15.7580  -35.6300 O   0  5  0  0  0  0
   -4.2552  -18.7489  -35.3698 H   0  0  0  0  0  0
   -3.4887  -18.0585  -33.8992 H   0  0  0  0  0  0
  1  2  1  0  0  0
  1  3  2  0  0  0
  1  4  1  0  0  0
  1  5  1  0  0  0
  2  6  1  0  0  0
  6  7  1  0  0  0
  6 10  1  0  0  0
  6 11  1  0  0  0
  7  8  2  0  0  0
  7  9  1  0  0  0
M  CHG  3   4  -1   5  -1   9  -1
M  END
> <s_m_source_file>
../4bi6_ligand.sdf

> <i_m_source_file_index>
1

> <s_epik_input>
Tz1QKFtPSF0pKFtPSF0pT1tDSDJdQyg9TylbT0hd

> <s_epik_cmdline>
J2VwaWtfYXBwJywgJy1pbWFlJywgJ2xpZ2FuZF9wcm8ubWFlJywgJy1vbWFlJywgJ2xpZ2FuZF9wcmVwLm1hZScsICctbXMnLCAnMScsICctcGgnLCAnNycsICctcGh0JywgJzAuNScsICctbnQn

> <r_epik_Ionization_Penalty>
  0.1459

> <r_epik_Ionization_Penalty_Charging>
  0.1459

> <r_epik_Ionization_Penalty_Neutral>
  0.0000

> <r_epik_State_Penalty>
  0.1346

> <r_epik_Charging_Adjusted_Penalty>
0.280492608850728

> <i_epik_Tot_Q>
-3

> <i_epik_Tot_abs_Q>
3

$$$$
