4bio_ligand
                    3D
 Schrodinger Suite 2020-3.
 20 21  0  0  1  0            999 V2000
  -24.2940   17.5090   -9.0240 O   0  5  0  0  0  0
  -25.3220   17.3430   -7.1250 O   0  0  0  0  0  0
  -26.3440   23.3650   -8.3210 O   0  0  0  0  0  0
  -25.6700   20.1870   -4.6120 C   0  0  0  0  0  0
  -26.0160   21.5300   -4.7030 C   0  0  0  0  0  0
  -25.7690   21.3420   -9.4910 C   0  0  0  0  0  0
  -25.4220   19.9980   -9.4160 C   0  0  0  0  0  0
  -25.4340   19.4630   -5.7740 C   0  0  0  0  0  0
  -26.1230   22.1400   -5.9590 N   0  0  0  0  0  0
  -24.9640   18.0310   -8.1060 C   0  0  0  0  0  0
  -26.0010   22.0480   -8.3190 C   0  0  0  0  0  0
  -25.3110   19.3750   -8.1770 C   0  0  0  0  0  0
  -25.5460   20.0920   -7.0080 C   0  0  0  0  0  0
  -25.8930   21.4360   -7.0770 C   0  0  0  0  0  0
  -26.4454   23.9055   -9.2737 H   0  0  0  0  0  0
  -25.5846   19.7060   -3.6376 H   0  0  0  0  0  0
  -26.2038   22.1077   -3.7980 H   0  0  0  0  0  0
  -25.8578   21.8355  -10.4588 H   0  0  0  0  0  0
  -25.2367   19.4317  -10.3287 H   0  0  0  0  0  0
  -25.1628   18.4088   -5.7181 H   0  0  0  0  0  0
  1 10  1  0  0  0
  2 10  2  0  0  0
  3 11  1  0  0  0
  3 15  1  0  0  0
  4  5  2  0  0  0
  4  8  1  0  0  0
  4 16  1  0  0  0
  5  9  1  0  0  0
  5 17  1  0  0  0
  6  7  1  0  0  0
  6 11  2  0  0  0
  6 18  1  0  0  0
  7 12  2  0  0  0
  7 19  1  0  0  0
  8 13  2  0  0  0
  8 20  1  0  0  0
  9 14  2  0  0  0
 10 12  1  0  0  0
 11 14  1  0  0  0
 12 13  1  0  0  0
 13 14  1  0  0  0
M  CHG  1   1  -1
M  END
> <s_m_source_file>
../4bio_ligand.sdf

> <i_m_source_file_index>
1

> <s_epik_input>
W09IXUMoPU8pYzFbY0hdW2NIXWMoW09IXSljKGMxMiluW2NIXVtjSF1bY0hdMg==

> <s_epik_cmdline>
J2VwaWtfYXBwJywgJy1pbWFlJywgJ2xpZ2FuZF9wcm8ubWFlJywgJy1vbWFlJywgJ2xpZ2FuZF9wcmVwLm1hZScsICctbXMnLCAnMScsICctcGgnLCAnNycsICctcGh0JywgJzAuNScsICctbnQn

> <r_epik_Ionization_Penalty>
  0.0271

> <r_epik_Ionization_Penalty_Charging>
  0.0003

> <r_epik_Ionization_Penalty_Neutral>
  0.0268

> <r_epik_State_Penalty>
  0.0166

> <r_epik_Charging_Adjusted_Penalty>
0.0168330803425217

> <i_epik_Tot_Q>
-1

> <i_epik_Tot_abs_Q>
1

$$$$
