4bis_ligand
                    3D
 Schrodinger Suite 2020-3.
 20 21  0  0  1  0            999 V2000
   24.3040  -22.8030   -3.0310 O   0  0  0  0  0  0
   23.3010  -22.0400   -4.7910 O   0  5  0  0  0  0
   28.4320  -19.9740   -7.8870 O   0  0  0  0  0  0
   26.5980  -23.1480   -4.5890 C   0  0  0  0  0  0
   27.8160  -23.0070   -5.2420 C   0  0  0  0  0  0
   26.2040  -19.1240   -7.5580 C   0  0  0  0  0  0
   24.9800  -19.2520   -6.9120 C   0  0  0  0  0  0
   25.5790  -22.2400   -4.8450 C   0  0  0  0  0  0
   28.0050  -21.9560   -6.1480 N   0  0  0  0  0  0
   27.2120  -20.0420   -7.2900 C   0  0  0  0  0  0
   24.7750  -20.2910   -6.0090 C   0  0  0  0  0  0
   24.3530  -22.3650   -4.2000 C   0  0  0  0  0  0
   25.7900  -21.2050   -5.7480 C   0  0  0  0  0  0
   27.0170  -21.0820   -6.3910 C   0  0  0  0  0  0
   28.6472  -19.1724   -8.6089 H   0  0  0  0  0  0
   26.4436  -23.9635   -3.8825 H   0  0  0  0  0  0
   28.6235  -23.7134   -5.0495 H   0  0  0  0  0  0
   26.3712  -18.3129   -8.2666 H   0  0  0  0  0  0
   24.1807  -18.5386   -7.1126 H   0  0  0  0  0  0
   23.8141  -20.3888   -5.5039 H   0  0  0  0  0  0
  1 12  2  0  0  0
  2 12  1  0  0  0
  3 10  1  0  0  0
  3 15  1  0  0  0
  4  5  2  0  0  0
  4  8  1  0  0  0
  4 16  1  0  0  0
  5  9  1  0  0  0
  5 17  1  0  0  0
  6  7  1  0  0  0
  6 10  2  0  0  0
  6 18  1  0  0  0
  7 11  2  0  0  0
  7 19  1  0  0  0
  8 12  1  0  0  0
  8 13  2  0  0  0
  9 14  2  0  0  0
 10 14  1  0  0  0
 11 13  1  0  0  0
 11 20  1  0  0  0
 13 14  1  0  0  0
M  CHG  1   2  -1
M  END
> <s_m_source_file>
../4bis_ligand.sdf

> <i_m_source_file_index>
1

> <s_epik_input>
Tz1DKFtPSF0pYzFbY0hdW2NIXW5jKGMxMiljKFtPSF0pW2NIXVtjSF1bY0hdMg==

> <s_epik_cmdline>
J2VwaWtfYXBwJywgJy1pbWFlJywgJ2xpZ2FuZF9wcm8ubWFlJywgJy1vbWFlJywgJ2xpZ2FuZF9wcmVwLm1hZScsICctbXMnLCAnMScsICctcGgnLCAnNycsICctcGh0JywgJzAuNScsICctbnQn

> <r_epik_Ionization_Penalty>
  0.0303

> <r_epik_Ionization_Penalty_Charging>
  0.0005

> <r_epik_Ionization_Penalty_Neutral>
  0.0299

> <r_epik_State_Penalty>
  0.0214

> <r_epik_Charging_Adjusted_Penalty>
0.0218360345561308

> <i_epik_Tot_Q>
-1

> <i_epik_Tot_abs_Q>
1

$$$$
