4bj8_ligand
                    3D
 Schrodinger Suite 2020-3.
 31 32  0  0  1  0            999 V2000
  220.1320    8.1360    6.3560 C   0  0  0  0  0  0
  220.5780    7.1000    6.9220 O   0  5  0  0  0  0
  219.8690    8.1370    5.1490 O   0  0  0  0  0  0
  219.9540    9.4480    7.0860 C   0  0  0  0  0  0
  219.7670    9.2260    8.5750 C   0  0  0  0  0  0
  218.5080    8.3870    8.8510 C   0  0  0  0  0  0
  217.9880    8.5250   10.2930 C   0  0  0  0  0  0
  216.7930    7.6260   10.5530 C   0  0  2  0  0  0
  215.2670    8.5420   10.4150 S   0  0  0  0  0  0
  214.3660    7.2130   11.1490 C   0  0  0  0  0  0
  215.2530    6.6420   12.2520 C   0  0  2  0  0  0
  214.9740    7.3080   13.4980 N   0  0  0  0  0  0
  215.9880    8.0200   13.9080 C   0  0  0  0  0  0
  215.9780    8.7280   14.9070 O   0  0  0  0  0  0
  216.9910    7.8650   13.0610 N   0  0  0  0  0  0
  216.7110    6.9900   11.9580 C   0  0  2  0  0  0
  220.8442   10.0760    6.9338 H   0  0  0  0  0  0
  219.0672    9.9680    6.6946 H   0  0  0  0  0  0
  220.6414    8.6949    8.9792 H   0  0  0  0  0  0
  219.6623   10.1975    9.0803 H   0  0  0  0  0  0
  217.7000    8.7053    8.1758 H   0  0  0  0  0  0
  218.7312    7.3236    8.6799 H   0  0  0  0  0  0
  218.7858    8.2495   10.9984 H   0  0  0  0  0  0
  217.6816    9.5658   10.4743 H   0  0  0  0  0  0
  217.0761    6.8177    9.8627 H   0  0  0  0  0  0
  213.4215    7.5952   11.5636 H   0  0  0  0  0  0
  214.1496    6.4510   10.3857 H   0  0  0  0  0  0
  215.0546    5.5649   12.3546 H   0  0  0  0  0  0
  213.9952    7.1795   13.9832 H   0  0  0  0  0  0
  217.9780    8.3429   13.1471 H   0  0  0  0  0  0
  217.4654    6.1895   11.9635 H   0  0  0  0  0  0
  1  2  1  0  0  0
  1  3  2  0  0  0
  1  4  1  0  0  0
  4  5  1  0  0  0
  4 17  1  0  0  0
  4 18  1  0  0  0
  5  6  1  0  0  0
  5 19  1  0  0  0
  5 20  1  0  0  0
  6  7  1  0  0  0
  6 21  1  0  0  0
  6 22  1  0  0  0
  7  8  1  0  0  0
  7 23  1  0  0  0
  7 24  1  0  0  0
  8  9  1  0  0  0
  8 16  1  0  0  0
  8 25  1  0  0  0
  9 10  1  0  0  0
 10 11  1  0  0  0
 10 26  1  0  0  0
 10 27  1  0  0  0
 11 12  1  0  0  0
 11 16  1  0  0  0
 11 28  1  0  0  0
 12 13  1  0  0  0
 12 29  1  0  0  0
 13 14  2  0  0  0
 13 15  1  0  0  0
 15 16  1  0  0  0
 15 30  1  0  0  0
 16 31  1  0  0  0
M  CHG  1   2  -1
M  END
> <s_m_source_file>
../4bj8_ligand.sdf

> <i_m_source_file_index>
1

> <s_epik_input>
W09IXUMoPU8pW0NIMl1bQ0gyXVtDSDJdW0NIMl1bQ0BIXShTW0NIMl0xKVtDQEhdKFtDQEhdMTIpW05IXUMoPU8pW05IXTI=

> <s_epik_cmdline>
J2VwaWtfYXBwJywgJy1pbWFlJywgJ2xpZ2FuZF9wcm8ubWFlJywgJy1vbWFlJywgJ2xpZ2FuZF9wcmVwLm1hZScsICctbXMnLCAnMScsICctcGgnLCAnNycsICctcGh0JywgJzAuNScsICctbnQn

> <r_lp_tautomer_probability>
1

> <r_epik_Ionization_Penalty>
  0.0045

> <r_epik_Ionization_Penalty_Charging>
  0.0044

> <r_epik_Ionization_Penalty_Neutral>
  0.0000

> <r_epik_State_Penalty>
 -0.0000

> <r_epik_Charging_Adjusted_Penalty>
0.00443833021372702

> <i_epik_Tot_Q>
-1

> <i_epik_Tot_abs_Q>
1

$$$$
