4bj9_ligand
                    3D
 Schrodinger Suite 2020-3.
 67 72  0  0  1  0            999 V2000
  -39.1070  -13.1260   16.1370 C   0  0  0  0  0  0
  -40.1500  -14.1740   16.0990 C   0  0  0  0  0  0
  -40.7960  -14.5070   14.8250 C   0  0  0  0  0  0
  -40.4200  -13.7560   13.5770 C   0  0  0  0  0  0
  -39.3270  -12.7120   13.6230 C   0  0  0  0  0  0
  -38.6970  -12.4090   14.8780 C   0  0  0  0  0  0
  -37.6910  -11.3820   14.6420 C   0  0  0  0  0  0
  -38.7230  -11.8430   12.5980 C   0  0  0  0  0  0
  -37.7190  -11.0440   13.2430 N   0  0  0  0  0  0
  -36.9660  -10.8970   15.4660 O   0  0  0  0  0  0
  -41.0940  -14.1200   12.3630 N   0  0  0  0  0  0
  -41.5470  -13.2230   11.3090 C   0  0  0  0  0  0
  -41.3890  -12.0050   11.3760 O   0  0  0  0  0  0
  -42.2400  -13.9360   10.0940 C   0  0  0  0  0  0
  -42.7430  -12.9510    9.1320 N   0  3  0  0  0  0
  -41.6030  -12.5690    8.2900 C   0  0  0  0  0  0
  -41.8420  -11.4470    7.2860 C   0  0  0  0  0  0
  -42.7310  -10.4050    7.7660 N   0  0  0  0  0  0
  -43.9600  -10.9700    8.1920 C   0  0  0  0  0  0
  -43.7530  -11.9460    9.3240 C   0  0  0  0  0  0
  -42.3960   -8.9750    7.8400 C   0  0  0  0  0  0
  -41.0700   -8.4540    7.3730 C   0  0  2  0  0  0
  -40.0110   -8.5320    8.4560 C   0  0  2  0  0  0
  -39.7140   -7.1500    8.7590 C   0  0  2  0  0  0
  -39.9860   -6.4940    7.4760 C   0  0  1  0  0  0
  -41.2100   -7.0780    6.9960 O   0  0  0  0  0  0
  -43.2050   -8.1570    8.2880 O   0  0  0  0  0  0
  -38.9140   -9.2450    8.0070 O   0  0  0  0  0  0
  -38.3640   -6.9700    9.2720 O   0  0  0  0  0  0
  -40.0950   -5.0860    7.5180 N   0  0  0  0  0  0
  -39.8220   -2.9680    6.8920 C   0  0  0  0  0  0
  -39.5590   -4.2500    6.5470 C   0  0  0  0  0  0
  -40.6990   -4.3120    8.4520 C   0  0  0  0  0  0
  -40.5310   -3.0010    8.0840 N   0  0  0  0  0  0
  -38.6220   -2.1140    4.7970 N   0  0  0  0  0  0
  -38.3470   -3.4590    4.4440 C   0  0  0  0  0  0
  -38.8190   -4.5400    5.3130 N   0  0  0  0  0  0
  -39.3280   -1.8290    5.9780 C   0  0  0  0  0  0
  -39.5760   -0.4930    6.3130 N   0  0  0  0  0  0
  -38.6314  -12.8707   17.0839 H   0  0  0  0  0  0
  -40.4368  -14.6956   17.0121 H   0  0  0  0  0  0
  -41.5464  -15.2964   14.7826 H   0  0  0  0  0  0
  -38.2713  -12.4642   11.8106 H   0  0  0  0  0  0
  -39.4999  -11.2006   12.1578 H   0  0  0  0  0  0
  -37.1295  -10.3233   12.6573 H   0  0  0  0  0  0
  -41.3183  -15.1764   12.1540 H   0  0  0  0  0  0
  -41.5126  -14.5875    9.5876 H   0  0  0  0  0  0
  -43.0839  -14.5412   10.4567 H   0  0  0  0  0  0
  -43.6003  -13.4955    8.7094 H   0  0  0  0  0  0
  -40.7739  -12.2288    8.9278 H   0  0  0  0  0  0
  -41.2776  -13.4369    7.6976 H   0  0  0  0  0  0
  -40.8839  -10.9672    7.0374 H   0  0  0  0  0  0
  -42.2921  -11.8623    6.3723 H   0  0  0  0  0  0
  -44.6307  -10.1700    8.5386 H   0  0  0  0  0  0
  -44.4290  -11.5034    7.3521 H   0  0  0  0  0  0
  -44.7274  -12.4311    9.4827 H   0  0  0  0  0  0
  -43.5000  -11.3352   10.2031 H   0  0  0  0  0  0
  -40.7643   -9.0375    6.4921 H   0  0  0  0  0  0
  -40.2605   -9.0884    9.3715 H   0  0  0  0  0  0
  -40.3126   -6.7315    9.5815 H   0  0  0  0  0  0
  -39.1321   -6.6292    6.7959 H   0  0  0  0  0  0
  -39.0188  -10.3082    7.7449 H   0  0  0  0  0  0
  -38.0736   -7.4281   10.2290 H   0  0  0  0  0  0
  -41.2248   -4.6677    9.3381 H   0  0  0  0  0  0
  -37.7900   -3.6867    3.5352 H   0  0  0  0  0  0
  -40.1271   -0.2500    7.2335 H   0  0  0  0  0  0
  -39.2199    0.3140    5.6558 H   0  0  0  0  0  0
  1  2  2  0  0  0
  1  6  1  0  0  0
  1 40  1  0  0  0
  2  3  1  0  0  0
  2 41  1  0  0  0
  3  4  2  0  0  0
  3 42  1  0  0  0
  4  5  1  0  0  0
  4 11  1  0  0  0
  5  6  2  0  0  0
  5  8  1  0  0  0
  6  7  1  0  0  0
  7  9  1  0  0  0
  7 10  2  0  0  0
  8  9  1  0  0  0
  8 43  1  0  0  0
  8 44  1  0  0  0
  9 45  1  0  0  0
 11 12  1  0  0  0
 11 46  1  0  0  0
 12 13  2  0  0  0
 12 14  1  0  0  0
 14 15  1  0  0  0
 14 47  1  0  0  0
 14 48  1  0  0  0
 15 16  1  0  0  0
 15 20  1  0  0  0
 15 49  1  0  0  0
 16 17  1  0  0  0
 16 50  1  0  0  0
 16 51  1  0  0  0
 17 18  1  0  0  0
 17 52  1  0  0  0
 17 53  1  0  0  0
 18 19  1  0  0  0
 18 21  1  0  0  0
 19 20  1  0  0  0
 19 54  1  0  0  0
 19 55  1  0  0  0
 20 56  1  0  0  0
 20 57  1  0  0  0
 21 22  1  0  0  0
 21 27  2  0  0  0
 22 23  1  0  0  0
 22 26  1  0  0  0
 22 58  1  0  0  0
 23 24  1  0  0  0
 23 28  1  0  0  0
 23 59  1  0  0  0
 24 25  1  0  0  0
 24 29  1  0  0  0
 24 60  1  0  0  0
 25 26  1  0  0  0
 25 30  1  0  0  0
 25 61  1  0  0  0
 28 62  1  0  0  0
 29 63  1  0  0  0
 30 32  1  0  0  0
 30 33  1  0  0  0
 31 32  2  0  0  0
 31 34  1  0  0  0
 31 38  1  0  0  0
 32 37  1  0  0  0
 33 34  2  0  0  0
 33 64  1  0  0  0
 35 36  1  0  0  0
 35 38  2  0  0  0
 36 37  2  0  0  0
 36 65  1  0  0  0
 38 39  1  0  0  0
 39 66  1  0  0  0
 39 67  1  0  0  0
M  CHG  1  15   1
M  END
> <s_m_source_file>
../4bj9_ligand.sdf

> <i_m_source_file_index>
1

> <s_epik_input>
W0NIMl0xW05IXUMoPU8pYyhjMTIpW2NIXVtjSF1bY0hdYzJbTkhdQyg9TylbQ0gyXVtOSCtdM1tDSDJdW0NIMl1OKFtDSDJdW0NIMl0zKUMoPU8pW0NAQEhdNFtDQEBIXShbT0hdKVtDQEBIXShbT0hdKVtDQEBIXShPNCluKFtjSF1uNSljKGM1NiluW2NIXW5jNltOSDJd

> <s_epik_cmdline>
J2VwaWtfYXBwJywgJy1pbWFlJywgJ2xpZ2FuZF9wcm8ubWFlJywgJy1vbWFlJywgJ2xpZ2FuZF9wcmVwLm1hZScsICctbXMnLCAnMScsICctcGgnLCAnNycsICctcGh0JywgJzAuNScsICctbnQn

> <r_lp_tautomer_probability>
0.999997216410988

> <r_epik_Ionization_Penalty>
  0.3586

> <r_epik_Ionization_Penalty_Charging>
  0.3580

> <r_epik_Ionization_Penalty_Neutral>
  0.0006

> <r_epik_State_Penalty>
  0.3547

> <r_epik_Charging_Adjusted_Penalty>
0.712686999498254

> <i_epik_Tot_Q>
1

> <i_epik_Tot_abs_Q>
1

> <s_epik_Chemistry_Notes>
This compound contains an acetal/aminal-like group ( X-CH(R)-Y where X, Y are N, S, or O) that may be acid/base labile, releasing an aldehyde.

$$$$
