4bjc_ligand
                    3D
 Schrodinger Suite 2020-3.
 42 45  0  0  1  0            999 V2000
   12.5440    2.0960   14.9880 O   0  0  0  0  0  0
   12.0450    3.0060   15.6590 C   0  0  0  0  0  0
   11.5500    2.6250   16.9050 N   0  0  0  0  0  0
   10.9100    3.5170   17.8900 C   0  0  0  0  0  0
   11.8180    4.6930   18.2640 C   0  0  0  0  0  0
   11.8850    5.6590   17.2370 C   0  0  0  0  0  0
   11.9900    5.4670   15.9090 C   0  0  0  0  0  0
   12.0560    4.3290   15.1860 C   0  0  0  0  0  0
   12.1520    4.4130   13.7900 C   0  0  0  0  0  0
   12.1750    5.6700   13.1850 C   0  0  3  0  0  0
   12.2720    5.8090   11.8200 F   0  0  0  0  0  0
   12.1100    6.8010   13.9890 C   0  0  0  0  0  0
   12.0170    6.6730   15.3130 C   0  0  0  0  0  0
   11.9390    7.6020   16.2530 N   0  0  0  0  0  0
   11.8610    6.9990   17.4380 C   0  0  0  0  0  0
   11.7570    7.7210   18.5810 C   0  0  0  0  0  0
   12.3890    7.3820   19.7840 C   0  0  0  0  0  0
   12.2420    8.1740   20.9280 C   0  0  0  0  0  0
   10.9910    8.8910   18.5640 C   0  0  0  0  0  0
   10.8470    9.6880   19.6980 C   0  0  0  0  0  0
   11.4590    9.3280   20.8980 C   0  0  0  0  0  0
   11.3370   10.1210   22.0210 C   0  0  0  0  0  0
   10.1710    9.7690   22.8460 N   0  3  0  0  0  0
    8.9080    9.9060   22.0950 C   0  0  0  0  0  0
   11.6700    1.5547   17.1286 H   0  0  0  0  0  0
    9.9776    3.9203   17.4680 H   0  0  0  0  0  0
   10.6833    2.9502   18.8051 H   0  0  0  0  0  0
   11.4302    5.1821   19.1698 H   0  0  0  0  0  0
   12.8366    4.3238   18.4542 H   0  0  0  0  0  0
   12.2081    3.4952   13.1863 H   0  0  0  0  0  0
   12.1352    7.8020   13.5336 H   0  0  0  0  0  0
   13.0065    6.4850   19.8298 H   0  0  0  0  0  0
   12.7442    7.8864   21.8517 H   0  0  0  0  0  0
   10.4940    9.1870   17.6402 H   0  0  0  0  0  0
   10.2516   10.5995   19.6465 H   0  0  0  0  0  0
   12.2353   10.0117   22.6464 H   0  0  0  0  0  0
   11.2275   11.1725   21.7172 H   0  0  0  0  0  0
   10.2616    8.7257   23.1826 H   0  0  0  0  0  0
   10.1267   10.4341   23.7211 H   0  0  0  0  0  0
    8.0634    9.6344   22.7453 H   0  0  0  0  0  0
    8.9270    9.2386   21.2208 H   0  0  0  0  0  0
    8.7922   10.9471   21.7592 H   0  0  0  0  0  0
  1  2  2  0  0  0
  2  3  1  0  0  0
  2  8  1  0  0  0
  3  4  1  0  0  0
  3 25  1  0  0  0
  4  5  1  0  0  0
  4 26  1  0  0  0
  4 27  1  0  0  0
  5  6  1  0  0  0
  5 28  1  0  0  0
  5 29  1  0  0  0
  6  7  2  0  0  0
  6 15  1  0  0  0
  7  8  1  0  0  0
  7 13  1  0  0  0
  8  9  2  0  0  0
  9 10  1  0  0  0
  9 30  1  0  0  0
 10 11  1  0  0  0
 10 12  1  0  0  0
 12 13  2  0  0  0
 12 31  1  0  0  0
 13 14  1  0  0  0
 14 15  2  0  0  0
 15 16  1  0  0  0
 16 17  2  0  0  0
 16 19  1  0  0  0
 17 18  1  0  0  0
 17 32  1  0  0  0
 18 21  2  0  0  0
 18 33  1  0  0  0
 19 20  2  0  0  0
 19 34  1  0  0  0
 20 21  1  0  0  0
 20 35  1  0  0  0
 21 22  1  0  0  0
 22 23  1  0  0  0
 22 36  1  0  0  0
 22 37  1  0  0  0
 23 24  1  0  0  0
 23 38  1  0  0  0
 23 39  1  0  0  0
 24 40  1  0  0  0
 24 41  1  0  0  0
 24 42  1  0  0  0
M  CHG  1  23   1
M  END
> <s_m_source_file>
../4bjc_ligand.sdf

> <i_m_source_file_index>
1

> <s_epik_input>
W0NIMl0xW0NIMl1bTkhdQyg9TylDKEMyPUMxMyk9W0NIXVtDSF0oRilbQ0hdPUMyTj1DM2M0W2NIXVtjSF1jKFtjSF1bY0hdNClbQ0gyXVtOSDIrXVtDSDNd

> <s_epik_cmdline>
J2VwaWtfYXBwJywgJy1pbWFlJywgJ2xpZ2FuZF9wcm8ubWFlJywgJy1vbWFlJywgJ2xpZ2FuZF9wcmVwLm1hZScsICctbXMnLCAnMScsICctcGgnLCAnNycsICctcGh0JywgJzAuNScsICctbnQn

> <r_lp_tautomer_probability>
1

> <r_epik_Ionization_Penalty>
  0.0892

> <r_epik_Ionization_Penalty_Charging>
  0.0197

> <r_epik_Ionization_Penalty_Neutral>
  0.0695

> <r_epik_State_Penalty>
 -0.0000

> <r_epik_Charging_Adjusted_Penalty>
0.0196903786169714

> <i_epik_Tot_Q>
1

> <i_epik_Tot_abs_Q>
1

> <s_epik_Chemistry_Notes>
This compound has an imine and may undergo hydrolysis.

$$$$
