4bkj_ligand
                    3D
 Schrodinger Suite 2020-3.
 69 73  0  0  1  0            999 V2000
  -23.0430   31.4550   32.6020 C   0  0  0  0  0  0
  -22.4770   30.1870   32.3750 C   0  0  0  0  0  0
  -22.4770   29.2620   33.4250 C   0  0  0  0  0  0
  -22.9950   29.6760   34.6610 C   0  0  0  0  0  0
  -23.5160   30.8850   34.8340 N   0  0  0  0  0  0
  -23.5370   31.7770   33.8560 C   0  0  0  0  0  0
  -21.8920   27.9760   33.2890 C   0  0  0  0  0  0
  -21.4730   27.3940   32.0540 C   0  0  0  0  0  0
  -20.8620   26.1340   32.0660 C   0  0  0  0  0  0
  -20.7030   25.4550   33.2370 N   0  0  0  0  0  0
  -21.1200   26.0470   34.3530 C   0  0  0  0  0  0
  -21.6920   27.2420   34.3980 N   0  0  0  0  0  0
  -20.9320   25.3820   35.5870 N   0  0  0  0  0  0
  -20.3130   24.0880   35.6750 C   0  0  0  0  0  0
  -21.0480   22.8930   35.4860 C   0  0  0  0  0  0
  -20.4550   21.6610   35.6410 C   0  0  0  0  0  0
  -19.0860   21.6060   35.9370 C   0  0  0  0  0  0
  -18.3440   22.7840   36.0920 C   0  0  0  0  0  0
  -18.9380   24.0390   36.0020 C   0  0  0  0  0  0
  -16.9660   22.6370   36.4700 N   0  0  0  0  0  0
  -16.0670   23.7280   36.7540 C   0  0  0  0  0  0
  -14.6850   23.3050   37.2280 C   0  0  0  0  0  0
  -14.1400   22.0430   36.9290 C   0  0  0  0  0  0
  -12.8710   21.7000   37.4160 C   0  0  0  0  0  0
  -12.1960   22.6330   38.2120 C   0  0  0  0  0  0
  -12.7350   23.8590   38.5410 C   0  0  0  0  0  0
  -14.0050   24.2220   38.0630 C   0  0  0  0  0  0
  -10.8290   22.2630   38.7490 C   0  0  0  0  0  0
  -10.0050   21.6380   37.7250 N   0  3  2  0  0  0
   -8.6850   21.1170   38.1230 C   0  0  0  0  0  0
   -7.9790   20.3430   37.0700 C   0  0  0  0  0  0
   -7.7880   21.1270   35.8360 N   0  0  1  0  0  0
   -7.0320   20.4250   34.7670 C   0  0  0  0  0  0
   -9.0780   21.7220   35.3890 C   0  0  0  0  0  0
   -9.8900   22.4520   36.4890 C   0  0  0  0  0  0
  -16.3120   24.9010   36.5940 O   0  0  0  0  0  0
  -22.5390   22.9740   35.1520 C   0  0  0  0  0  0
  -23.0928   32.1832   31.7924 H   0  0  0  0  0  0
  -22.0492   29.9316   31.4055 H   0  0  0  0  0  0
  -22.9691   28.9853   35.5038 H   0  0  0  0  0  0
  -23.9454   32.7710   34.0383 H   0  0  0  0  0  0
  -21.6268   27.9238   31.1139 H   0  0  0  0  0  0
  -20.5113   25.6934   31.1327 H   0  0  0  0  0  0
  -21.2642   25.8550   36.5229 H   0  0  0  0  0  0
  -21.0382   20.7462   35.5357 H   0  0  0  0  0  0
  -18.5950   20.6391   36.0474 H   0  0  0  0  0  0
  -18.3653   24.9498   36.1769 H   0  0  0  0  0  0
  -16.5247   21.6335   36.5609 H   0  0  0  0  0  0
  -14.7024   21.3345   36.3209 H   0  0  0  0  0  0
  -12.4227   20.7345   37.1816 H   0  0  0  0  0  0
  -12.1745   24.5477   39.1732 H   0  0  0  0  0  0
  -14.4524   25.1802   38.3273 H   0  0  0  0  0  0
  -10.3164   23.1696   39.1029 H   0  0  0  0  0  0
  -10.9421   21.5561   39.5842 H   0  0  0  0  0  0
  -10.6060   20.7350   37.5420 H   0  0  0  0  0  0
   -8.0271   21.9552   38.3959 H   0  0  0  0  0  0
   -8.8009   20.4457   38.9866 H   0  0  0  0  0  0
   -6.9880   20.0407   37.4395 H   0  0  0  0  0  0
   -8.5654   19.4471   36.8182 H   0  0  0  0  0  0
   -6.0985   20.0193   35.1841 H   0  0  0  0  0  0
   -6.7954   21.1335   33.9595 H   0  0  0  0  0  0
   -7.6424   19.6025   34.3659 H   0  0  0  0  0  0
   -8.8857   22.4641   34.6001 H   0  0  0  0  0  0
   -9.7306   20.9290   34.9951 H   0  0  0  0  0  0
  -10.8947   22.6616   36.0932 H   0  0  0  0  0  0
   -9.3819   23.3998   36.7201 H   0  0  0  0  0  0
  -22.8386   24.0289   35.0657 H   0  0  0  0  0  0
  -23.1206   22.4919   35.9516 H   0  0  0  0  0  0
  -22.7296   22.4595   34.1986 H   0  0  0  0  0  0
  1  2  2  0  0  0
  1  6  1  0  0  0
  1 38  1  0  0  0
  2  3  1  0  0  0
  2 39  1  0  0  0
  3  4  2  0  0  0
  3  7  1  0  0  0
  4  5  1  0  0  0
  4 40  1  0  0  0
  5  6  2  0  0  0
  6 41  1  0  0  0
  7  8  2  0  0  0
  7 12  1  0  0  0
  8  9  1  0  0  0
  8 42  1  0  0  0
  9 10  2  0  0  0
  9 43  1  0  0  0
 10 11  1  0  0  0
 11 12  2  0  0  0
 11 13  1  0  0  0
 13 14  1  0  0  0
 13 44  1  0  0  0
 14 15  2  0  0  0
 14 19  1  0  0  0
 15 16  1  0  0  0
 15 37  1  0  0  0
 16 17  2  0  0  0
 16 45  1  0  0  0
 17 18  1  0  0  0
 17 46  1  0  0  0
 18 19  2  0  0  0
 18 20  1  0  0  0
 19 47  1  0  0  0
 20 21  1  0  0  0
 20 48  1  0  0  0
 21 22  1  0  0  0
 21 36  2  0  0  0
 22 23  2  0  0  0
 22 27  1  0  0  0
 23 24  1  0  0  0
 23 49  1  0  0  0
 24 25  2  0  0  0
 24 50  1  0  0  0
 25 26  1  0  0  0
 25 28  1  0  0  0
 26 27  2  0  0  0
 26 51  1  0  0  0
 27 52  1  0  0  0
 28 29  1  0  0  0
 28 53  1  0  0  0
 28 54  1  0  0  0
 29 30  1  0  0  0
 29 35  1  0  0  0
 29 55  1  0  0  0
 30 31  1  0  0  0
 30 56  1  0  0  0
 30 57  1  0  0  0
 31 32  1  0  0  0
 31 58  1  0  0  0
 31 59  1  0  0  0
 32 33  1  0  0  0
 32 34  1  0  0  0
 33 60  1  0  0  0
 33 61  1  0  0  0
 33 62  1  0  0  0
 34 35  1  0  0  0
 34 63  1  0  0  0
 34 64  1  0  0  0
 35 65  1  0  0  0
 35 66  1  0  0  0
 37 67  1  0  0  0
 37 68  1  0  0  0
 37 69  1  0  0  0
M  CHG  1  29   1
M  END
> <s_m_source_file>
../4bkj_ligand.sdf

> <i_m_source_file_index>
1

> <s_epik_input>
W2NIXTFuW2NIXVtjSF1bY0hdYzEtYzJbY0hdW2NIXW5jKG4yKVtOSF1jM2MoW0NIM10pW2NIXVtjSF1jKFtjSF0zKVtOSF1DKD1PKWM0W2NIXVtjSF1jKFtjSF1bY0hdNClbQ0gyXVtOQEBIK101W0NIMl1bQ0gyXVtOQEBIK10oW0NIM10pW0NIMl1bQ0gyXTU=

> <s_epik_cmdline>
J2VwaWtfYXBwJywgJy1pbWFlJywgJ2xpZ2FuZF9wcm8ubWFlJywgJy1vbWFlJywgJ2xpZ2FuZF9wcmVwLm1hZScsICctbXMnLCAnMScsICctcGgnLCAnNycsICctcGh0JywgJzAuNScsICctbnQn

> <r_lp_tautomer_probability>
1

> <r_epik_Ionization_Penalty>
  0.0173

> <r_epik_Ionization_Penalty_Charging>
  0.0155

> <r_epik_Ionization_Penalty_Neutral>
  0.0019

> <r_epik_State_Penalty>
 -0.0000

> <r_epik_Charging_Adjusted_Penalty>
0.0154526225118262

> <i_epik_Tot_Q>
1

> <i_epik_Tot_abs_Q>
1

$$$$
