4bky_ligand
                    3D
 Schrodinger Suite 2020-3.
 67 72  0  0  1  0            999 V2000
   15.5470    9.6500    8.8210 O   0  0  0  0  0  0
   15.0570    9.8760    7.7200 C   0  0  0  0  0  0
   14.1390   10.8320    7.5760 N   0  0  0  0  0  0
   13.5530   11.5350    8.7050 C   0  0  1  0  0  0
   14.4290   12.6650    9.1020 C   0  0  0  0  0  0
   14.7710   13.6590    8.1750 C   0  0  0  0  0  0
   15.5670   14.7270    8.5810 C   0  0  0  0  0  0
   16.0260   14.8110    9.8970 C   0  0  0  0  0  0
   15.6830   13.8200   10.8210 C   0  0  0  0  0  0
   14.8770   12.7540   10.4230 C   0  0  0  0  0  0
   12.1830   12.0280    8.2350 C   0  0  0  0  0  0
   11.3770   12.7450    9.2310 N   0  3  0  0  0  0
   10.0690   12.2200    9.5920 C   0  0  0  0  0  0
    9.4070   13.4090   10.2790 C   0  0  0  0  0  0
   10.3600   14.6020   10.1690 C   0  0  0  0  0  0
   11.7310   14.0520    9.7890 C   0  0  0  0  0  0
   15.3600    9.1870    6.6120 N   0  0  0  0  0  0
   16.0770    7.8930    6.6130 C   0  0  0  0  0  0
   17.5000    8.0580    7.1760 C   0  0  0  0  0  0
   16.6830    6.8600    7.6270 C   0  0  0  0  0  0
   14.8250    9.5310    5.2560 C   0  0  0  0  0  0
   15.2920    8.3720    4.4120 C   0  0  0  0  0  0
   16.1060    7.5240    5.1910 C   0  0  0  0  0  0
   16.5060    6.4270    4.5290 N   0  3  0  0  0  0
   15.3460    7.7730    3.1630 C   0  0  0  0  0  0
   16.0410    6.6030    3.2030 N   0  0  0  0  0  0
   14.7310    8.1660    1.9980 N   0  0  0  0  0  0
   13.9170    9.2160    1.9060 C   0  0  0  0  0  0
   13.6860    9.9570    2.8430 O   0  0  0  0  0  0
   13.3030    9.5270    0.5870 C   0  0  0  0  0  0
   12.3820   10.5000    0.3530 N   0  0  0  0  0  0
   11.8010   11.4420    1.3430 C   0  0  0  0  0  0
   12.0400   10.5150   -0.9410 C   0  0  0  0  0  0
   12.7900    9.5110   -1.4730 C   0  0  0  0  0  0
   12.7110    9.0620   -3.3960 Br  0  0  0  0  0  0
   13.5970    8.8480   -0.5900 C   0  0  0  0  0  0
   13.8279   11.0818    6.5509 H   0  0  0  0  0  0
   13.4863   10.8677    9.5769 H   0  0  0  0  0  0
   14.4172   13.5966    7.1459 H   0  0  0  0  0  0
   15.8341   15.5043    7.8651 H   0  0  0  0  0  0
   16.6517   15.6492   10.2037 H   0  0  0  0  0  0
   16.0438   13.8801   11.8478 H   0  0  0  0  0  0
   14.5953   11.9873   11.1447 H   0  0  0  0  0  0
   12.3127   12.7225    7.3919 H   0  0  0  0  0  0
   11.5751   11.1697    7.9128 H   0  0  0  0  0  0
   12.2863   12.3457    9.7041 H   0  0  0  0  0  0
    9.5368   11.9045    8.6825 H   0  0  0  0  0  0
   10.1927   11.3568   10.2625 H   0  0  0  0  0  0
    8.4526   13.6354    9.7811 H   0  0  0  0  0  0
    9.2207   13.1651   11.3353 H   0  0  0  0  0  0
    9.9935   15.2941    9.3965 H   0  0  0  0  0  0
   10.4074   15.1239   11.1362 H   0  0  0  0  0  0
   12.3986   13.9135   10.6522 H   0  0  0  0  0  0
   12.2430   14.6517    9.0220 H   0  0  0  0  0  0
   18.2247    8.0512    6.3485 H   0  0  0  0  0  0
   17.5715    9.0124    7.7182 H   0  0  0  0  0  0
   16.0583    6.8247    8.5317 H   0  0  0  0  0  0
   16.7117    5.8635    7.1621 H   0  0  0  0  0  0
   13.7287    9.6084    5.3032 H   0  0  0  0  0  0
   15.2467   10.4928    4.9286 H   0  0  0  0  0  0
   14.9002    7.6014    1.0692 H   0  0  0  0  0  0
   12.2304   11.2415    2.3357 H   0  0  0  0  0  0
   10.7100   11.3068    1.3813 H   0  0  0  0  0  0
   12.0323   12.4754    1.0454 H   0  0  0  0  0  0
   11.3323   11.1720   -1.4465 H   0  0  0  0  0  0
   14.2813    8.0171   -0.7616 H   0  0  0  0  0  0
   17.0658    5.5196    4.7996 H   0  0  0  0  0  0
  1  2  2  0  0  0
  2  3  1  0  0  0
  2 17  1  0  0  0
  3  4  1  0  0  0
  3 37  1  0  0  0
  4  5  1  0  0  0
  4 11  1  0  0  0
  4 38  1  0  0  0
  5  6  2  0  0  0
  5 10  1  0  0  0
  6  7  1  0  0  0
  6 39  1  0  0  0
  7  8  2  0  0  0
  7 40  1  0  0  0
  8  9  1  0  0  0
  8 41  1  0  0  0
  9 10  2  0  0  0
  9 42  1  0  0  0
 10 43  1  0  0  0
 11 12  1  0  0  0
 11 44  1  0  0  0
 11 45  1  0  0  0
 12 13  1  0  0  0
 12 16  1  0  0  0
 12 46  1  0  0  0
 13 14  1  0  0  0
 13 47  1  0  0  0
 13 48  1  0  0  0
 14 15  1  0  0  0
 14 49  1  0  0  0
 14 50  1  0  0  0
 15 16  1  0  0  0
 15 51  1  0  0  0
 15 52  1  0  0  0
 16 53  1  0  0  0
 16 54  1  0  0  0
 17 18  1  0  0  0
 17 21  1  0  0  0
 18 19  1  0  0  0
 18 20  1  0  0  0
 18 23  1  0  0  0
 19 20  1  0  0  0
 19 55  1  0  0  0
 19 56  1  0  0  0
 20 57  1  0  0  0
 20 58  1  0  0  0
 21 22  1  0  0  0
 21 59  1  0  0  0
 21 60  1  0  0  0
 22 23  2  0  0  0
 22 25  1  0  0  0
 23 24  1  0  0  0
 24 26  1  0  0  0
 24 67  1  0  0  0
 25 26  2  0  0  0
 25 27  1  0  0  0
 27 28  1  0  0  0
 27 61  1  0  0  0
 28 29  2  0  0  0
 28 30  1  0  0  0
 30 31  1  0  0  0
 30 36  2  0  0  0
 31 32  1  0  0  0
 31 33  1  0  0  0
 32 62  1  0  0  0
 32 63  1  0  0  0
 32 64  1  0  0  0
 33 34  2  0  0  0
 33 65  1  0  0  0
 34 35  1  0  0  0
 34 36  1  0  0  0
 36 66  1  0  0  0
M  CHG  2  12   1  24   1
M  END
> <s_m_source_file>
../4bky_ligand.sdf

> <i_m_source_file_index>
1

> <s_epik_input>
W2NIXTFbY0hdW2NIXVtjSF1bY0hdYzFbQ0BASF0oW0NIMl1bTkgrXTJbQ0gyXVtDSDJdW0NIMl1bQ0gyXTIpW05IXUMoPU8pTjNbQ0gyXWMoYzRDMzVbQ0gyXVtDSDJdNSljKG5bbkhdNClbTkhdQyg9TyljNm4oW0NIM10pW2NIXWMoQnIpW2NIXTY=

> <s_epik_cmdline>
J2VwaWtfYXBwJywgJy1pbWFlJywgJ2xpZ2FuZF9wcm8ubWFlJywgJy1vbWFlJywgJ2xpZ2FuZF9wcmVwLm1hZScsICctbXMnLCAnMScsICctcGgnLCAnNycsICctcGh0JywgJzAuNScsICctbnQn

> <r_lp_tautomer_probability>
1

> <r_epik_Ionization_Penalty>
  0.0025

> <r_epik_Ionization_Penalty_Charging>
  0.0020

> <r_epik_Ionization_Penalty_Neutral>
  0.0006

> <r_epik_State_Penalty>
 -0.0000

> <r_epik_Charging_Adjusted_Penalty>
0.00198579079314276

> <i_epik_Tot_Q>
2

> <i_epik_Tot_abs_Q>
2

> <s_epik_Chemistry_Notes>
This compound has an imine and may undergo hydrolysis.

$$$$
