4bkz_ligand
                    3D
 Schrodinger Suite 2020-3.
 44 47  0  0  1  0            999 V2000
   15.7590   10.4640    9.7010 O   0  0  0  0  0  0
   14.9500   10.7490    8.8330 C   0  0  0  0  0  0
   13.9870   11.6310    9.0740 N   0  0  0  0  0  0
   13.7340   12.3520   10.3180 C   0  0  0  0  0  0
   12.4820   11.6910   10.8910 C   0  0  0  0  0  0
   11.4550   12.7210   11.3390 C   0  0  0  0  0  0
   10.7060   12.1880   12.4620 N   0  3  0  0  0  0
   15.0080   10.1410    7.4660 C   0  0  0  0  0  0
   15.8620    8.9880    7.0530 C   0  0  0  0  0  0
   16.8620    8.1130    7.7910 C   0  0  0  0  0  0
   17.0370    6.7500    7.1000 C   0  0  0  0  0  0
   14.3010   10.5260    6.3840 N   0  0  0  0  0  0
   14.6120    9.7270    5.2500 N   0  0  0  0  0  0
   15.5470    8.8680    5.7090 C   0  0  0  0  0  0
   16.1270    7.8310    4.9820 C   0  0  0  0  0  0
   16.0620    7.5420    3.5550 C   0  0  0  0  0  0
   16.7290    6.3880    3.3350 N   0  0  0  0  0  0
   17.1650    5.9540    4.6240 N   0  0  0  0  0  0
   16.7920    6.8110    5.6180 C   0  0  0  0  0  0
   15.4420    8.3880    2.7000 N   0  0  0  0  0  0
   15.3840    8.4080    1.3440 C   0  0  0  0  0  0
   16.3190    7.7780    0.5190 C   0  0  0  0  0  0
   16.1790    7.8720   -0.8770 C   0  0  0  0  0  0
   17.0740    7.2510   -1.6670 F   0  0  0  0  0  0
   15.1210    8.5930   -1.4640 C   0  0  0  0  0  0
   14.1910    9.2270   -0.6430 C   0  0  0  0  0  0
   14.3340    9.1340    0.7520 C   0  0  0  0  0  0
   13.3384   11.7960    8.2010 H   0  0  0  0  0  0
   14.5999   12.2430   10.9876 H   0  0  0  0  0  0
   13.5726   13.4176   10.0979 H   0  0  0  0  0  0
   12.0198   11.0534   10.1230 H   0  0  0  0  0  0
   12.7572   11.0763   11.7607 H   0  0  0  0  0  0
   11.9701   13.6443   11.6427 H   0  0  0  0  0  0
   10.7690   12.9404   10.5076 H   0  0  0  0  0  0
    9.9616   12.9282   12.7907 H   0  0  0  0  0  0
   11.3949   11.9679   13.2908 H   0  0  0  0  0  0
   10.1938   11.2640   12.1556 H   0  0  0  0  0  0
   17.4304    8.3438    8.7041 H   0  0  0  0  0  0
   17.3137    5.8649    7.6916 H   0  0  0  0  0  0
   14.8608    9.2364    3.0904 H   0  0  0  0  0  0
   17.1484    7.2194    0.9529 H   0  0  0  0  0  0
   15.0309    8.6543   -2.5485 H   0  0  0  0  0  0
   13.3632    9.7879   -1.0770 H   0  0  0  0  0  0
   13.6113    9.6384    1.3934 H   0  0  0  0  0  0
  1  2  2  0  0  0
  2  3  1  0  0  0
  2  8  1  0  0  0
  3  4  1  0  0  0
  3 28  1  0  0  0
  4  5  1  0  0  0
  4 29  1  0  0  0
  4 30  1  0  0  0
  5  6  1  0  0  0
  5 31  1  0  0  0
  5 32  1  0  0  0
  6  7  1  0  0  0
  6 33  1  0  0  0
  6 34  1  0  0  0
  7 35  1  0  0  0
  7 36  1  0  0  0
  7 37  1  0  0  0
  8  9  2  0  0  0
  8 12  1  0  0  0
  9 10  1  0  0  0
  9 14  1  0  0  0
 10 11  2  0  0  0
 10 38  1  0  0  0
 11 19  1  0  0  0
 11 39  1  0  0  0
 12 13  2  0  0  0
 13 14  1  0  0  0
 14 15  2  0  0  0
 15 16  1  0  0  0
 15 19  1  0  0  0
 16 17  2  0  0  0
 16 20  1  0  0  0
 17 18  1  0  0  0
 18 19  2  0  0  0
 20 21  1  0  0  0
 20 40  1  0  0  0
 21 22  2  0  0  0
 21 27  1  0  0  0
 22 23  1  0  0  0
 22 41  1  0  0  0
 23 24  1  0  0  0
 23 25  2  0  0  0
 25 26  1  0  0  0
 25 42  1  0  0  0
 26 27  2  0  0  0
 26 43  1  0  0  0
 27 44  1  0  0  0
M  CHG  1   7   1
M  END
> <s_m_source_file>
../4bkz_ligand.sdf

> <i_m_source_file_index>
1

> <s_epik_input>
W05IMytdW0NIMl1bQ0gyXVtDSDJdW05IXUMoPU8pQz0xTj1OYyhjMTIpYzNjKFtjSF1bY0hdMik9Tk49QzNbTkhdYzRbY0hdYyhGKVtjSF1bY0hdW2NIXTQ=

> <s_epik_cmdline>
J2VwaWtfYXBwJywgJy1pbWFlJywgJ2xpZ2FuZF9wcm8ubWFlJywgJy1vbWFlJywgJ2xpZ2FuZF9wcmVwLm1hZScsICctbXMnLCAnMScsICctcGgnLCAnNycsICctcGh0JywgJzAuNScsICctbnQn

> <r_lp_tautomer_probability>
1

> <r_epik_Ionization_Penalty>
  0.2489

> <r_epik_Ionization_Penalty_Charging>
  0.0014

> <r_epik_Ionization_Penalty_Neutral>
  0.2476

> <r_epik_State_Penalty>
 -0.0000

> <r_epik_Charging_Adjusted_Penalty>
0.00137347551582462

> <i_epik_Tot_Q>
1

> <i_epik_Tot_abs_Q>
1

> <s_epik_Chemistry_Notes>
This compound has an imine and may undergo hydrolysis.

$$$$
