4blb_ligand
                    3D
 Schrodinger Suite 2020-3.
114115  0  0  1  0            999 V2000
   46.2930   -6.1420  -55.1900 N   0  3  0  0  0  0
   47.3430   -5.9910  -54.1830 C   0  0  2  0  0  0
   48.5930   -6.8010  -54.5580 C   0  0  0  0  0  0
   49.5900   -6.7840  -53.8300 O   0  0  0  0  0  0
   46.8390   -6.4310  -52.7920 C   0  0  0  0  0  0
   45.8620   -5.5460  -52.2720 O   0  0  0  0  0  0
   48.5380   -7.4950  -55.6950 N   0  0  0  0  0  0
   49.6560   -8.3220  -56.1650 C   0  0  2  0  0  0
   49.8790   -8.2550  -57.6780 C   0  0  0  0  0  0
   48.9360   -8.0780  -58.4470 O   0  0  0  0  0  0
   49.4360   -9.7780  -55.7540 C   0  0  0  0  0  0
   50.7010  -10.6030  -55.7260 C   0  0  0  0  0  0
   51.5410  -10.6000  -54.6250 C   0  0  0  0  0  0
   51.0520  -11.3950  -56.8090 C   0  0  0  0  0  0
   52.7000  -11.3650  -54.6100 C   0  0  0  0  0  0
   52.2050  -12.1610  -56.8020 C   0  0  0  0  0  0
   53.0250  -12.1420  -55.6980 C   0  0  0  0  0  0
   54.1750  -12.8950  -55.6680 O   0  0  0  0  0  0
   51.1390   -8.3940  -58.0910 N   0  0  0  0  0  0
   51.5140   -8.3010  -59.4940 C   0  0  0  0  0  0
   52.1830   -9.5490  -60.0580 C   0  0  0  0  0  0
   52.9580  -10.2180  -59.3700 O   0  0  0  0  0  0
   51.8770   -9.8570  -61.3170 N   0  0  0  0  0  0
   52.5070  -10.9660  -62.0340 C   0  0  2  0  0  0
   53.0320  -10.4800  -63.3880 C   0  0  0  0  0  0
   52.2530  -10.0620  -64.2390 O   0  0  0  0  0  0
   51.5110  -12.1050  -62.2430 C   0  0  0  0  0  0
   50.6470  -12.3790  -61.0520 C   0  0  0  0  0  0
   50.8930  -13.4010  -60.1640 N   0  0  0  0  0  0
   49.5290  -11.7550  -60.6090 C   0  0  0  0  0  0
   49.9670  -13.4010  -59.2240 C   0  0  0  0  0  0
   49.1240  -12.4100  -59.4710 N   0  0  0  0  0  0
   54.3410  -10.5660  -63.6020 N   0  0  0  0  0  0
   54.9630   -9.9240  -64.7650 C   0  0  2  0  0  0
   55.5850  -10.8730  -65.7820 C   0  0  0  0  0  0
   56.3660  -11.7590  -65.4330 O   0  0  0  0  0  0
   56.0160   -8.9180  -64.3020 C   0  0  0  0  0  0
   55.5440   -7.8780  -63.2800 C   0  0  0  0  0  0
   56.4670   -7.8150  -62.0980 C   0  0  0  0  0  0
   55.4750   -6.5230  -63.9680 C   0  0  0  0  0  0
   55.2150  -10.6600  -67.0460 N   0  0  0  0  0  0
   55.7650  -11.3840  -68.1960 C   0  0  2  0  0  0
   55.5450  -12.8840  -68.0840 C   0  0  0  0  0  0
   56.4080  -13.6810  -68.4370 O   0  0  0  0  0  0
   57.2540  -11.0830  -68.3580 C   0  0  0  0  0  0
   57.4620   -9.7170  -68.6850 O   0  0  0  0  0  0
   54.3720  -13.2570  -67.5890 N   0  0  0  0  0  0
   54.0490  -14.6510  -67.3320 C   0  0  2  0  0  0
   54.0150  -15.4410  -68.6360 C   0  0  0  0  0  0
   54.2490  -16.6480  -68.6430 O   0  0  0  0  0  0
   52.6940  -14.8010  -66.6330 C   0  0  2  0  0  0
   51.5680  -14.2820  -67.5250 C   0  0  0  0  0  0
   52.6990  -14.0210  -65.3190 C   0  0  0  0  0  0
   50.2380  -14.6350  -67.0300 C   0  0  0  0  0  0
   53.6570  -14.7600  -69.7200 N   0  0  0  0  0  0
   53.7020  -15.3420  -71.0500 C   0  0  0  0  0  0
   54.9660  -14.9460  -71.8020 C   0  0  0  0  0  0
   55.5007  -13.8175  -71.6340 O   0  5  0  0  0  0
   55.4870  -15.7627  -72.6077 O   0  0  0  0  0  0
   46.6764   -5.8225  -56.1703 H   0  0  0  0  0  0
   45.4284   -5.5205  -54.9142 H   0  0  0  0  0  0
   45.9846   -7.1966  -55.2428 H   0  0  0  0  0  0
   47.5763   -4.9160  -54.1899 H   0  0  0  0  0  0
   46.3889   -7.4321  -52.8649 H   0  0  0  0  0  0
   47.6837   -6.4592  -52.0879 H   0  0  0  0  0  0
   45.4148   -5.7385  -51.2856 H   0  0  0  0  0  0
   47.6132   -7.4323  -56.2874 H   0  0  0  0  0  0
   50.5324   -7.8803  -55.6682 H   0  0  0  0  0  0
   49.0022   -9.8123  -54.7437 H   0  0  0  0  0  0
   48.7485  -10.2598  -56.4648 H   0  0  0  0  0  0
   51.2891   -9.9889  -53.7583 H   0  0  0  0  0  0
   50.4050  -11.4148  -57.6860 H   0  0  0  0  0  0
   53.3520  -11.3499  -53.7366 H   0  0  0  0  0  0
   52.4612  -12.7749  -57.6654 H   0  0  0  0  0  0
   54.8240  -12.8727  -54.7801 H   0  0  0  0  0  0
   51.9077   -8.5854  -57.3278 H   0  0  0  0  0  0
   50.6157   -8.1191  -60.1023 H   0  0  0  0  0  0
   52.2230   -7.4710  -59.6298 H   0  0  0  0  0  0
   51.1173   -9.2390  -61.8180 H   0  0  0  0  0  0
   53.3357  -11.3092  -61.3972 H   0  0  0  0  0  0
   51.3923  -12.7039  -63.1580 H   0  0  0  0  0  0
   48.9550  -10.8938  -60.9817 H   0  0  0  0  0  0
   49.9063  -14.0973  -58.3876 H   0  0  0  0  0  0
   54.9598  -11.1305  -62.8890 H   0  0  0  0  0  0
   54.1049   -9.4473  -65.2613 H   0  0  0  0  0  0
   56.8525   -9.4540  -63.8298 H   0  0  0  0  0  0
   56.3866   -8.3502  -65.1682 H   0  0  0  0  0  0
   54.5561   -8.1596  -62.8866 H   0  0  0  0  0  0
   56.5069   -8.8005  -61.6110 H   0  0  0  0  0  0
   56.0954   -7.0671  -61.3821 H   0  0  0  0  0  0
   57.4750   -7.5312  -62.4347 H   0  0  0  0  0  0
   54.7959   -6.5842  -64.8311 H   0  0  0  0  0  0
   56.4794   -6.2346  -64.3114 H   0  0  0  0  0  0
   55.0998   -5.7704  -63.2589 H   0  0  0  0  0  0
   54.4479   -9.8865  -67.1987 H   0  0  0  0  0  0
   55.1990  -11.0101  -69.0619 H   0  0  0  0  0  0
   57.7775  -11.3049  -67.4163 H   0  0  0  0  0  0
   57.6686  -11.7066  -69.1637 H   0  0  0  0  0  0
   58.4831   -9.3369  -68.8360 H   0  0  0  0  0  0
   53.6325  -12.4721  -67.3723 H   0  0  0  0  0  0
   54.8610  -14.9968  -66.6754 H   0  0  0  0  0  0
   52.5217  -15.8681  -66.4290 H   0  0  0  0  0  0
   51.6224  -13.1849  -67.5832 H   0  0  0  0  0  0
   51.6731  -14.7083  -68.5336 H   0  0  0  0  0  0
   53.5093  -14.3931  -64.6748 H   0  0  0  0  0  0
   51.7338  -14.1558  -64.8089 H   0  0  0  0  0  0
   52.8575  -12.9526  -65.5274 H   0  0  0  0  0  0
   49.4744  -14.2344  -67.7129 H   0  0  0  0  0  0
   50.0943  -14.2063  -66.0272 H   0  0  0  0  0  0
   50.1450  -15.7298  -66.9776 H   0  0  0  0  0  0
   53.3181  -13.7223  -69.5849 H   0  0  0  0  0  0
   53.6780  -16.4389  -70.9712 H   0  0  0  0  0  0
   52.8339  -14.9970  -71.6308 H   0  0  0  0  0  0
   51.7611  -14.0604  -60.3111 H   0  0  0  0  0  0
  1  2  1  0  0  0
  1 60  1  0  0  0
  1 61  1  0  0  0
  1 62  1  0  0  0
  2  3  1  0  0  0
  2  5  1  0  0  0
  2 63  1  0  0  0
  3  4  2  0  0  0
  3  7  1  0  0  0
  5  6  1  0  0  0
  5 64  1  0  0  0
  5 65  1  0  0  0
  6 66  1  0  0  0
  7  8  1  0  0  0
  7 67  1  0  0  0
  8  9  1  0  0  0
  8 11  1  0  0  0
  8 68  1  0  0  0
  9 10  2  0  0  0
  9 19  1  0  0  0
 11 12  1  0  0  0
 11 69  1  0  0  0
 11 70  1  0  0  0
 12 13  2  0  0  0
 12 14  1  0  0  0
 13 15  1  0  0  0
 13 71  1  0  0  0
 14 16  2  0  0  0
 14 72  1  0  0  0
 15 17  2  0  0  0
 15 73  1  0  0  0
 16 17  1  0  0  0
 16 74  1  0  0  0
 17 18  1  0  0  0
 18 75  1  0  0  0
 19 20  1  0  0  0
 19 76  1  0  0  0
 20 21  1  0  0  0
 20 77  1  0  0  0
 20 78  1  0  0  0
 21 22  2  0  0  0
 21 23  1  0  0  0
 23 24  1  0  0  0
 23 79  1  0  0  0
 24 25  1  0  0  0
 24 27  1  0  0  0
 24 80  1  0  0  0
 25 26  2  0  0  0
 25 33  1  0  0  0
 27 28  2  0  0  0
 27 81  1  0  0  0
 28 29  1  0  0  0
 28 30  1  0  0  0
 29 31  1  0  0  0
 29114  1  0  0  0
 30 32  2  0  0  0
 30 82  1  0  0  0
 31 32  1  0  0  0
 31 83  1  0  0  0
 33 34  1  0  0  0
 33 84  1  0  0  0
 34 35  1  0  0  0
 34 37  1  0  0  0
 34 85  1  0  0  0
 35 36  2  0  0  0
 35 41  1  0  0  0
 37 38  1  0  0  0
 37 86  1  0  0  0
 37 87  1  0  0  0
 38 39  1  0  0  0
 38 40  1  0  0  0
 38 88  1  0  0  0
 39 89  1  0  0  0
 39 90  1  0  0  0
 39 91  1  0  0  0
 40 92  1  0  0  0
 40 93  1  0  0  0
 40 94  1  0  0  0
 41 42  1  0  0  0
 41 95  1  0  0  0
 42 43  1  0  0  0
 42 45  1  0  0  0
 42 96  1  0  0  0
 43 44  2  0  0  0
 43 47  1  0  0  0
 45 46  1  0  0  0
 45 97  1  0  0  0
 45 98  1  0  0  0
 46 99  1  0  0  0
 47 48  1  0  0  0
 47100  1  0  0  0
 48 49  1  0  0  0
 48 51  1  0  0  0
 48101  1  0  0  0
 49 50  2  0  0  0
 49 55  1  0  0  0
 51 52  1  0  0  0
 51 53  1  0  0  0
 51102  1  0  0  0
 52 54  1  0  0  0
 52103  1  0  0  0
 52104  1  0  0  0
 53105  1  0  0  0
 53106  1  0  0  0
 53107  1  0  0  0
 54108  1  0  0  0
 54109  1  0  0  0
 54110  1  0  0  0
 55 56  1  0  0  0
 55111  1  0  0  0
 56 57  1  0  0  0
 56112  1  0  0  0
 56113  1  0  0  0
 57 58  1  0  0  0
 57 59  2  0  0  0
M  CHG  2   1   1  58  -1
M  END
> <s_m_source_file>
../4blb_ligand.sdf

> <i_m_source_file_index>
1

> <s_epik_input>
W2NIXTFbY0hdYyhbT0hdKVtjSF1bY0hdYzFbQ0gyXVtDQEhdKFtOSF1DKD1PKVtDQEBIXShbTkgzK10pW0NIMl1bT0hdKUMoPU8pW05IXVtDSDJdQyg9TylbTkhdW0NAQEhdKFtDSDJdQzI9TltDSDJdTj1bQ0hdMilDKD1PKVtOSF1bQ0BASF0oW0NIMl1bQ0hdKFtDSDNdKVtDSDNdKUMoPU8pW05IXVtDQEBIXShbQ0gyXVtPSF0pQyg9TylbTkhdW0NAQEhdKFtDQEBIXShbQ0gzXSlbQ0gyXVtDSDNdKUMoPU8pW05IXVtDSDJdQyg9TylbT0hd

> <s_epik_cmdline>
J2VwaWtfYXBwJywgJy1pbWFlJywgJ2xpZ2FuZF9wcm8ubWFlJywgJy1vbWFlJywgJ2xpZ2FuZF9wcmVwLm1hZScsICctbXMnLCAnMScsICctcGgnLCAnNycsICctcGh0JywgJzAuNScsICctbnQn

> <r_epik_Ionization_Penalty>
  0.1594

> <r_epik_Ionization_Penalty_Charging>
  0.1585

> <r_epik_Ionization_Penalty_Neutral>
  0.0010

> <r_epik_State_Penalty>
  0.1476

> <r_epik_Charging_Adjusted_Penalty>
0.306030035841819

> <i_epik_Tot_Q>
0

> <i_epik_Tot_abs_Q>
2

> <s_epik_Chemistry_Notes>
This compound has an imine and may undergo hydrolysis.

$$$$
