4bnu_ligand
                    3D
 Schrodinger Suite 2020-3.
 32 35  0  0  1  0            999 V2000
   -7.6830   -1.9570   39.9740 N   0  0  0  0  0  0
   -8.8770   -1.3620   40.1590 C   0  0  0  0  0  0
   -9.0450   -0.0370   39.8710 N   0  0  0  0  0  0
   -8.0030    0.6860   39.3690 C   0  0  0  0  0  0
   -6.7650    0.0970   39.1790 C   0  0  0  0  0  0
   -6.5880   -1.2770   39.4760 C   0  0  0  0  0  0
   -8.1870    2.0380   39.1030 C   0  0  0  0  0  0
   -7.1740    2.8230   38.6000 C   0  0  0  0  0  0
   -5.9400    2.2380   38.3910 C   0  0  0  0  0  0
   -5.7560    0.9020   38.6740 C   0  0  0  0  0  0
   -9.7870   -3.3920   41.1510 C   0  0  0  0  0  0
  -10.8860   -4.0790   41.6650 C   0  0  0  0  0  0
  -12.1250   -3.4940   41.6990 C   0  0  0  0  0  0
  -12.2840   -2.1980   41.2380 C   0  0  0  0  0  0
  -11.2020   -1.5090   40.7380 C   0  0  0  0  0  0
   -9.9540   -2.0970   40.6730 C   0  0  0  0  0  0
   -4.1190   -1.7250   38.9760 C   0  0  0  0  0  0
   -5.4120   -1.9700   39.3100 N   0  0  0  0  0  0
   -5.3950   -3.3090   39.5590 C   0  0  0  0  0  0
   -4.1710   -3.8390   39.3850 N   0  0  0  0  0  0
   -3.4260   -2.9020   39.0400 N   0  0  0  0  0  0
   -9.1600    2.4890   39.2980 H   0  0  0  0  0  0
   -7.3408    3.8760   38.3731 H   0  0  0  0  0  0
   -5.1130    2.8325   38.0027 H   0  0  0  0  0  0
   -4.7762    0.4599   38.4932 H   0  0  0  0  0  0
   -8.8057   -3.8658   41.1241 H   0  0  0  0  0  0
  -10.7584   -5.0929   42.0441 H   0  0  0  0  0  0
  -12.9809   -4.0462   42.0870 H   0  0  0  0  0  0
  -13.2649   -1.7238   41.2709 H   0  0  0  0  0  0
  -11.3322   -0.4848   40.3884 H   0  0  0  0  0  0
   -3.7039   -0.7548   38.7032 H   0  0  0  0  0  0
   -6.2700   -3.8833   39.8634 H   0  0  0  0  0  0
  1  2  2  0  0  0
  1  6  1  0  0  0
  2  3  1  0  0  0
  2 16  1  0  0  0
  3  4  2  0  0  0
  4  5  1  0  0  0
  4  7  1  0  0  0
  5  6  2  0  0  0
  5 10  1  0  0  0
  6 18  1  0  0  0
  7  8  2  0  0  0
  7 22  1  0  0  0
  8  9  1  0  0  0
  8 23  1  0  0  0
  9 10  2  0  0  0
  9 24  1  0  0  0
 10 25  1  0  0  0
 11 12  2  0  0  0
 11 16  1  0  0  0
 11 26  1  0  0  0
 12 13  1  0  0  0
 12 27  1  0  0  0
 13 14  2  0  0  0
 13 28  1  0  0  0
 14 15  1  0  0  0
 14 29  1  0  0  0
 15 16  2  0  0  0
 15 30  1  0  0  0
 17 18  1  0  0  0
 17 21  2  0  0  0
 17 31  1  0  0  0
 18 19  1  0  0  0
 19 20  2  0  0  0
 19 32  1  0  0  0
 20 21  1  0  0  0
M  END
> <s_m_source_file>
../4bnu_ligand.sdf

> <i_m_source_file_index>
1

> <s_epik_input>
W2NIXTFbY0hdW2NIXVtjSF1jKGMxMiljKC1uM1tjSF1ubltjSF0zKW5jKG4yKS1jNFtjSF1bY0hdW2NIXVtjSF1bY0hdNA==

> <s_epik_cmdline>
J2VwaWtfYXBwJywgJy1pbWFlJywgJ2xpZ2FuZF9wcm8ubWFlJywgJy1vbWFlJywgJ2xpZ2FuZF9wcmVwLm1hZScsICctbXMnLCAnMScsICctcGgnLCAnNycsICctcGh0JywgJzAuNScsICctbnQn

> <r_lp_tautomer_probability>
1

> <r_epik_Ionization_Penalty>
  0.0000

> <r_epik_Ionization_Penalty_Charging>
  0.0000

> <r_epik_Ionization_Penalty_Neutral>
  0.0000

> <r_epik_State_Penalty>
 -0.0000

> <r_epik_Charging_Adjusted_Penalty>
0

> <i_epik_Tot_Q>
0

> <i_epik_Tot_abs_Q>
0

$$$$
