4bnx_ligand
                    3D
 Schrodinger Suite 2020-3.
 39 42  0  0  1  0            999 V2000
   27.0420  162.8440   49.4190 Cl  0  0  0  0  0  0
   25.6560  163.6920   49.1060 C   0  0  0  0  0  0
   25.3220  164.2460   47.8910 C   0  0  0  0  0  0
   24.1180  164.9220   47.8450 C   0  0  0  0  0  0
   23.2830  165.0080   48.9720 C   0  0  0  0  0  0
   23.6540  164.4370   50.1900 C   0  0  0  0  0  0
   24.8760  163.7730   50.2200 C   0  0  0  0  0  0
   25.4780  163.1160   51.2070 N   0  0  0  0  0  0
   24.9640  163.1530   52.3750 C   0  0  0  0  0  0
   23.7280  163.5920   52.5420 N   0  0  0  0  0  0
   25.7460  162.7200   53.4390 C   0  0  0  0  0  0
   27.0760  162.2600   53.2640 C   0  0  0  0  0  0
   27.8050  161.8440   54.3790 C   0  0  0  0  0  0
   27.2160  161.8940   55.6590 C   0  0  0  0  0  0
   25.9000  162.3410   55.8400 C   0  0  0  0  0  0
   25.1590  162.7560   54.7180 C   0  0  0  0  0  0
   23.8990  163.2060   54.8540 N   0  0  0  0  0  0
   23.2010  163.6390   53.7710 C   0  0  0  0  0  0
   21.8640  163.9960   53.8970 C   0  0  0  0  0  0
   21.0470  164.2440   52.7810 C   0  0  0  0  0  0
   19.7070  164.5030   52.9680 C   0  0  0  0  0  0
   19.1830  164.4590   54.2650 C   0  0  0  0  0  0
   19.9900  164.1770   55.3610 C   0  0  0  0  0  0
   21.3040  163.9210   55.1600 C   0  0  0  0  0  0
   22.1620  163.6570   56.1570 O   0  0  0  0  0  0
   25.9684  164.1567   47.0179 H   0  0  0  0  0  0
   23.8092  165.3988   46.9147 H   0  0  0  0  0  0
   22.3292  165.5297   48.8934 H   0  0  0  0  0  0
   23.0187  164.5077   51.0729 H   0  0  0  0  0  0
   26.4025  162.5535   51.0097 H   0  0  0  0  0  0
   27.5235  162.2317   52.2705 H   0  0  0  0  0  0
   28.8262  161.4817   54.2607 H   0  0  0  0  0  0
   27.7963  161.5784   56.5260 H   0  0  0  0  0  0
   25.4569  162.3668   56.8355 H   0  0  0  0  0  0
   21.4697  164.2316   51.7764 H   0  0  0  0  0  0
   19.0650  164.7385   52.1192 H   0  0  0  0  0  0
   18.1209  164.6497   54.4187 H   0  0  0  0  0  0
   19.5711  164.1622   56.3672 H   0  0  0  0  0  0
   23.2201  163.4562   55.9333 H   0  0  0  0  0  0
  1  2  1  0  0  0
  2  3  2  0  0  0
  2  7  1  0  0  0
  3  4  1  0  0  0
  3 26  1  0  0  0
  4  5  2  0  0  0
  4 27  1  0  0  0
  5  6  1  0  0  0
  5 28  1  0  0  0
  6  7  2  0  0  0
  6 29  1  0  0  0
  7  8  1  0  0  0
  8  9  1  0  0  0
  8 30  1  0  0  0
  9 10  2  0  0  0
  9 11  1  0  0  0
 10 18  1  0  0  0
 11 12  2  0  0  0
 11 16  1  0  0  0
 12 13  1  0  0  0
 12 31  1  0  0  0
 13 14  2  0  0  0
 13 32  1  0  0  0
 14 15  1  0  0  0
 14 33  1  0  0  0
 15 16  2  0  0  0
 15 34  1  0  0  0
 16 17  1  0  0  0
 17 18  2  0  0  0
 18 19  1  0  0  0
 19 20  2  0  0  0
 19 24  1  0  0  0
 20 21  1  0  0  0
 20 35  1  0  0  0
 21 22  2  0  0  0
 21 36  1  0  0  0
 22 23  1  0  0  0
 22 37  1  0  0  0
 23 24  2  0  0  0
 23 38  1  0  0  0
 24 25  1  0  0  0
 25 39  1  0  0  0
M  END
> <s_m_source_file>
../4bnx_ligand.sdf

> <i_m_source_file_index>
1

> <s_epik_input>
Q2xjMVtjSF1bY0hdW2NIXVtjSF1jMVtOSF1jMm5jKG5jKGMyMylbY0hdW2NIXVtjSF1bY0hdMyktYzRbY0hdW2NIXVtjSF1bY0hdYzRbT0hd

> <s_epik_cmdline>
J2VwaWtfYXBwJywgJy1pbWFlJywgJ2xpZ2FuZF9wcm8ubWFlJywgJy1vbWFlJywgJ2xpZ2FuZF9wcmVwLm1hZScsICctbXMnLCAnMScsICctcGgnLCAnNycsICctcGh0JywgJzAuNScsICctbnQn

> <r_lp_tautomer_probability>
1

> <r_epik_Ionization_Penalty>
  0.0075

> <r_epik_Ionization_Penalty_Charging>
  0.0000

> <r_epik_Ionization_Penalty_Neutral>
  0.0075

> <r_epik_State_Penalty>
 -0.0000

> <r_epik_Charging_Adjusted_Penalty>
0

> <i_epik_Tot_Q>
0

> <i_epik_Tot_abs_Q>
0

$$$$
