4bny_ligand
                    3D
 Schrodinger Suite 2020-3.
 36 39  0  0  1  0            999 V2000
    7.4100   -3.0500   33.8220 N   0  0  0  0  0  0
    8.4420   -2.1670   33.7060 C   0  0  0  0  0  0
    8.2670   -0.9460   34.1410 N   0  0  0  0  0  0
    7.0730   -0.6030   34.6550 C   0  0  0  0  0  0
    6.0570   -1.4100   34.7730 C   0  0  0  0  0  0
    6.1910   -2.6800   34.3650 C   0  0  0  0  0  0
    5.0370   -3.3870   34.5520 C   0  0  0  0  0  0
    9.7230   -2.4480   33.1940 C   0  0  0  0  0  0
   10.7690   -1.5210   33.2740 C   0  0  0  0  0  0
   12.0600   -1.8810   32.8250 C   0  0  0  0  0  0
    4.0020   -2.7060   35.0930 C   0  0  0  0  0  0
    4.5190   -1.0580   35.4200 S   0  0  0  0  0  0
    9.9610   -3.7000   32.7360 C   0  0  0  0  0  0
   11.1910   -4.0710   32.2850 C   0  0  0  0  0  0
   12.2250   -3.1590   32.2840 C   0  0  0  0  0  0
    5.4900    1.1120   35.1860 C   0  0  0  0  0  0
    6.8710    0.6150   35.0570 N   0  0  0  0  0  0
    8.0260    1.4680   35.1400 C   0  0  0  0  0  0
    5.4270    2.2300   36.0870 C   0  0  0  0  0  0
    6.4230    3.0850   35.6010 O   0  0  0  0  0  0
    7.5940    2.4630   36.0440 C   0  0  0  0  0  0
    4.9555   -4.4395   34.2806 H   0  0  0  0  0  0
   10.5886   -0.5260   33.6808 H   0  0  0  0  0  0
   12.8970   -1.1866   32.8981 H   0  0  0  0  0  0
    3.0104   -3.1119   35.2934 H   0  0  0  0  0  0
    9.1493   -4.4274   32.7282 H   0  0  0  0  0  0
   11.3578   -5.0865   31.9257 H   0  0  0  0  0  0
   13.1867   -3.4393   31.8543 H   0  0  0  0  0  0
    5.1220    1.4324   34.2001 H   0  0  0  0  0  0
    4.8462    0.3092   35.5745 H   0  0  0  0  0  0
    8.8831    0.8891   35.5145 H   0  0  0  0  0  0
    8.2604    1.8660   34.1417 H   0  0  0  0  0  0
    4.4247    2.6810   36.0421 H   0  0  0  0  0  0
    5.6289    1.8865   37.1123 H   0  0  0  0  0  0
    7.3956    2.0061   37.0248 H   0  0  0  0  0  0
    8.3768    3.2288   36.1479 H   0  0  0  0  0  0
  1  2  1  0  0  0
  1  6  2  0  0  0
  2  3  2  0  0  0
  2  8  1  0  0  0
  3  4  1  0  0  0
  4  5  2  0  0  0
  4 17  1  0  0  0
  5  6  1  0  0  0
  5 12  1  0  0  0
  6  7  1  0  0  0
  7 11  2  0  0  0
  7 22  1  0  0  0
  8  9  2  0  0  0
  8 13  1  0  0  0
  9 10  1  0  0  0
  9 23  1  0  0  0
 10 15  2  0  0  0
 10 24  1  0  0  0
 11 12  1  0  0  0
 11 25  1  0  0  0
 13 14  2  0  0  0
 13 26  1  0  0  0
 14 15  1  0  0  0
 14 27  1  0  0  0
 15 28  1  0  0  0
 16 17  1  0  0  0
 16 19  1  0  0  0
 16 29  1  0  0  0
 16 30  1  0  0  0
 17 18  1  0  0  0
 18 21  1  0  0  0
 18 31  1  0  0  0
 18 32  1  0  0  0
 19 20  1  0  0  0
 19 33  1  0  0  0
 19 34  1  0  0  0
 20 21  1  0  0  0
 21 35  1  0  0  0
 21 36  1  0  0  0
M  END
> <s_m_source_file>
../4bny_ligand.sdf

> <i_m_source_file_index>
1

> <s_epik_input>
W2NIXTFbY0hdW2NIXVtjSF1bY0hdYzEtYyhuYyhjMjMpW2NIXVtjSF1zMyluYzJONFtDSDJdW0NIMl1PW0NIMl1bQ0gyXTQ=

> <s_epik_cmdline>
J2VwaWtfYXBwJywgJy1pbWFlJywgJ2xpZ2FuZF9wcm8ubWFlJywgJy1vbWFlJywgJ2xpZ2FuZF9wcmVwLm1hZScsICctbXMnLCAnMScsICctcGgnLCAnNycsICctcGh0JywgJzAuNScsICctbnQn

> <r_lp_tautomer_probability>
1

> <r_epik_Ionization_Penalty>
  0.0000

> <r_epik_Ionization_Penalty_Charging>
  0.0000

> <r_epik_Ionization_Penalty_Neutral>
  0.0000

> <r_epik_State_Penalty>
 -0.0000

> <r_epik_Charging_Adjusted_Penalty>
0

> <i_epik_Tot_Q>
0

> <i_epik_Tot_abs_Q>
0

$$$$
