4bnz_ligand
                    3D
 Schrodinger Suite 2020-3.
 33 35  0  0  1  0            999 V2000
  -11.6930   -3.7300  -32.1410 C   0  0  0  0  0  0
  -10.5020   -4.4120  -32.1580 C   0  0  0  0  0  0
   -9.4190   -3.7950  -32.6160 C   0  0  0  0  0  0
   -9.4140   -2.5370  -33.0700 C   0  0  0  0  0  0
  -10.5290   -1.8340  -33.0860 C   0  0  0  0  0  0
  -11.7010   -2.4170  -32.6180 C   0  0  0  0  0  0
   -7.4020   -3.3350  -33.2670 C   0  0  0  0  0  0
   -7.6290   -5.6600  -32.4060 C   0  0  0  0  0  0
   -8.1820   -4.2820  -32.7570 N   0  0  0  0  0  0
   -4.5080   -0.2150  -35.3210 C   0  0  0  0  0  0
   -3.8490    0.8890  -35.8670 C   0  0  0  0  0  0
   -4.4370    2.1750  -35.8300 C   0  0  0  0  0  0
   -5.6780    2.3910  -35.2460 C   0  0  0  0  0  0
   -6.3380    1.2860  -34.7130 C   0  0  0  0  0  0
   -5.7550   -0.0130  -34.7480 C   0  0  0  0  0  0
   -7.7000   -1.1060  -33.9300 C   0  0  0  0  0  0
   -6.3460   -1.1150  -34.2710 N   0  0  0  0  0  0
   -8.4120   -0.0930  -33.8420 O   0  0  0  0  0  0
   -8.1690   -2.2660  -33.4650 C   0  0  0  0  0  0
  -12.6037   -4.1980  -31.7672 H   0  0  0  0  0  0
  -10.4462   -5.4408  -31.8022 H   0  0  0  0  0  0
  -10.5320   -0.8104  -33.4607 H   0  0  0  0  0  0
  -12.6302   -1.8472  -32.6232 H   0  0  0  0  0  0
   -6.3367   -3.4180  -33.4822 H   0  0  0  0  0  0
   -8.4369   -6.2870  -32.0008 H   0  0  0  0  0  0
   -6.8337   -5.5551  -31.6534 H   0  0  0  0  0  0
   -7.2177   -6.1314  -33.3108 H   0  0  0  0  0  0
   -4.0555   -1.2064  -35.3445 H   0  0  0  0  0  0
   -2.8697    0.7579  -36.3272 H   0  0  0  0  0  0
   -3.9029    3.0168  -36.2707 H   0  0  0  0  0  0
   -6.1190    3.3870  -35.2061 H   0  0  0  0  0  0
   -7.3205    1.4182  -34.2600 H   0  0  0  0  0  0
   -5.7644   -2.0400  -34.1442 H   0  0  0  0  0  0
  1  2  2  0  0  0
  1  6  1  0  0  0
  1 20  1  0  0  0
  2  3  1  0  0  0
  2 21  1  0  0  0
  3  4  2  0  0  0
  3  9  1  0  0  0
  4  5  1  0  0  0
  4 19  1  0  0  0
  5  6  2  0  0  0
  5 22  1  0  0  0
  6 23  1  0  0  0
  7  9  1  0  0  0
  7 19  2  0  0  0
  7 24  1  0  0  0
  8  9  1  0  0  0
  8 25  1  0  0  0
  8 26  1  0  0  0
  8 27  1  0  0  0
 10 11  2  0  0  0
 10 15  1  0  0  0
 10 28  1  0  0  0
 11 12  1  0  0  0
 11 29  1  0  0  0
 12 13  2  0  0  0
 12 30  1  0  0  0
 13 14  1  0  0  0
 13 31  1  0  0  0
 14 15  2  0  0  0
 14 32  1  0  0  0
 15 17  1  0  0  0
 16 17  1  0  0  0
 16 18  2  0  0  0
 16 19  1  0  0  0
 17 33  1  0  0  0
M  END
> <s_m_source_file>
../4bnz_ligand.sdf

> <i_m_source_file_index>
1

> <s_epik_input>
W2NIXTFbY0hdW2NIXVtjSF1jKGMxMiljKFtjSF1uMltDSDNdKUMoPU8pW05IXWMzW2NIXVtjSF1bY0hdW2NIXVtjSF0z

> <s_epik_cmdline>
J2VwaWtfYXBwJywgJy1pbWFlJywgJ2xpZ2FuZF9wcm8ubWFlJywgJy1vbWFlJywgJ2xpZ2FuZF9wcmVwLm1hZScsICctbXMnLCAnMScsICctcGgnLCAnNycsICctcGh0JywgJzAuNScsICctbnQn

> <r_lp_tautomer_probability>
1

> <r_epik_Ionization_Penalty>
  0.0000

> <r_epik_Ionization_Penalty_Charging>
  0.0000

> <r_epik_Ionization_Penalty_Neutral>
  0.0000

> <r_epik_State_Penalty>
 -0.0000

> <r_epik_Charging_Adjusted_Penalty>
0

> <i_epik_Tot_Q>
0

> <i_epik_Tot_abs_Q>
0

$$$$
