4bo1_ligand
                    3D
 Schrodinger Suite 2020-3.
 39 41  0  0  1  0            999 V2000
   -6.6070   -7.0780  -33.6510 C   0  0  0  0  0  0
   -6.7960   -5.8990  -32.8850 O   0  0  0  0  0  0
   -8.1100   -5.7080  -32.6900 C   0  0  0  0  0  0
   -8.9270   -6.7090  -32.2010 C   0  0  0  0  0  0
  -10.2710   -6.4440  -31.9960 C   0  0  0  0  0  0
  -11.3050   -7.7370  -31.3760 Cl  0  0  0  0  0  0
  -10.7590   -5.1660  -32.3100 C   0  0  0  0  0  0
  -12.0830   -4.9550  -32.0680 O   0  0  0  0  0  0
  -12.5300   -3.9150  -32.9090 C   0  0  0  0  0  0
   -9.9230   -4.1750  -32.8120 C   0  0  0  0  0  0
   -8.5710   -4.4480  -32.9980 C   0  0  0  0  0  0
   -7.6010   -3.6230  -33.4740 N   0  0  0  0  0  0
   -7.8570   -2.3640  -33.9180 C   0  0  0  0  0  0
   -8.9530   -1.7970  -33.8990 O   0  0  0  0  0  0
   -6.7450   -1.6460  -34.3700 C   0  0  0  0  0  0
   -5.5000   -2.2260  -34.5360 C   0  0  0  0  0  0
   -5.3260   -3.5180  -34.2460 N   0  0  0  0  0  0
   -4.0840   -4.1390  -34.4290 C   0  0  0  0  0  0
   -2.9990   -3.4100  -34.8520 C   0  0  0  0  0  0
   -3.1860   -2.0710  -35.1370 C   0  0  0  0  0  0
   -4.4290   -1.4790  -34.9720 C   0  0  0  0  0  0
   -4.5820   -0.1250  -35.2470 C   0  0  0  0  0  0
   -5.8320    0.4540  -35.0820 C   0  0  0  0  0  0
   -6.9060   -0.3100  -34.6370 C   0  0  0  0  0  0
   -5.5314   -7.2405  -33.8146 H   0  0  0  0  0  0
   -7.1132   -6.9697  -34.6216 H   0  0  0  0  0  0
   -7.0298   -7.9379  -33.1108 H   0  0  0  0  0  0
   -8.5190   -7.6951  -31.9792 H   0  0  0  0  0  0
  -13.5990   -3.7303  -32.7272 H   0  0  0  0  0  0
  -12.3813   -4.2038  -33.9599 H   0  0  0  0  0  0
  -11.9583   -2.9997  -32.6958 H   0  0  0  0  0  0
  -10.3235   -3.1915  -33.0581 H   0  0  0  0  0  0
   -6.5566   -3.9663  -33.5115 H   0  0  0  0  0  0
   -3.9777   -5.2063  -34.2348 H   0  0  0  0  0  0
   -2.0189   -3.8746  -34.9597 H   0  0  0  0  0  0
   -2.3476   -1.4737  -35.4953 H   0  0  0  0  0  0
   -3.7350    0.4713  -35.5862 H   0  0  0  0  0  0
   -5.9731    1.5122  -35.3020 H   0  0  0  0  0  0
   -7.8818    0.1559  -34.4996 H   0  0  0  0  0  0
  1  2  1  0  0  0
  1 25  1  0  0  0
  1 26  1  0  0  0
  1 27  1  0  0  0
  2  3  1  0  0  0
  3  4  2  0  0  0
  3 11  1  0  0  0
  4  5  1  0  0  0
  4 28  1  0  0  0
  5  6  1  0  0  0
  5  7  2  0  0  0
  7  8  1  0  0  0
  7 10  1  0  0  0
  8  9  1  0  0  0
  9 29  1  0  0  0
  9 30  1  0  0  0
  9 31  1  0  0  0
 10 11  2  0  0  0
 10 32  1  0  0  0
 11 12  1  0  0  0
 12 13  1  0  0  0
 12 33  1  0  0  0
 13 14  2  0  0  0
 13 15  1  0  0  0
 15 16  2  0  0  0
 15 24  1  0  0  0
 16 17  1  0  0  0
 16 21  1  0  0  0
 17 18  2  0  0  0
 18 19  1  0  0  0
 18 34  1  0  0  0
 19 20  2  0  0  0
 19 35  1  0  0  0
 20 21  1  0  0  0
 20 36  1  0  0  0
 21 22  2  0  0  0
 22 23  1  0  0  0
 22 37  1  0  0  0
 23 24  2  0  0  0
 23 38  1  0  0  0
 24 39  1  0  0  0
M  END
> <s_m_source_file>
../4bo1_ligand.sdf

> <i_m_source_file_index>
1

> <s_epik_input>
W0NIM11PYzFbY0hdYyhDbCljKE9bQ0gzXSlbY0hdYzFbTkhdQyg9TyljMltjSF1bY0hdW2NIXWMoYzIzKVtjSF1bY0hdW2NIXW4z

> <s_epik_cmdline>
J2VwaWtfYXBwJywgJy1pbWFlJywgJ2xpZ2FuZF9wcm8ubWFlJywgJy1vbWFlJywgJ2xpZ2FuZF9wcmVwLm1hZScsICctbXMnLCAnMScsICctcGgnLCAnNycsICctcGh0JywgJzAuNScsICctbnQn

> <r_lp_tautomer_probability>
1

> <r_epik_Ionization_Penalty>
  0.0005

> <r_epik_Ionization_Penalty_Charging>
  0.0000

> <r_epik_Ionization_Penalty_Neutral>
  0.0005

> <r_epik_State_Penalty>
 -0.0000

> <r_epik_Charging_Adjusted_Penalty>
0

> <i_epik_Tot_Q>
0

> <i_epik_Tot_abs_Q>
0

$$$$
