4bo2_ligand
                    3D
 Schrodinger Suite 2020-3.
 41 43  0  0  1  0            999 V2000
    9.6790  102.0330  183.2980 C   0  0  0  0  0  0
   10.1140  102.8690  182.0550 C   0  0  0  0  0  0
   11.0720  103.9870  182.4300 N   0  0  0  0  0  0
   12.3720  103.8540  182.1710 C   0  0  0  0  0  0
   13.0320  102.8810  181.6140 C   0  0  0  0  0  0
   14.3840  103.0300  181.4430 C   0  0  0  0  0  0
   15.0590  104.1400  181.8750 C   0  0  0  0  0  0
   14.3210  105.1110  182.4450 C   0  0  0  0  0  0
   13.0320  104.9460  182.5680 C   0  0  0  0  0  0
   12.1820  105.7740  183.0780 N   0  0  0  0  0  0
   10.9830  105.1820  183.0160 C   0  0  0  0  0  0
    9.9230  105.8420  183.4990 N   0  0  0  0  0  0
    8.7560  105.2200  183.7510 C   0  0  0  0  0  0
    8.5510  104.0200  183.5220 O   0  0  0  0  0  0
    7.8240  106.0230  184.2880 N   0  0  0  0  0  0
    8.1260  107.3120  184.4550 C   0  0  0  0  0  0
    9.3040  107.8840  184.0420 C   0  0  0  0  0  0
    9.5030  109.2340  184.2590 C   0  0  0  0  0  0
    8.5240  110.0140  184.8880 C   0  0  0  0  0  0
    7.3360  109.4460  185.3150 C   0  0  0  0  0  0
    7.1660  108.0850  185.0770 C   0  0  0  0  0  0
    6.0550  107.4230  185.4450 O   0  0  0  0  0  0
    6.3880  106.0190  185.5130 C   0  0  0  0  0  0
    8.9882  101.2376  182.9814 H   0  0  0  0  0  0
    9.1752  102.6891  184.0231 H   0  0  0  0  0  0
   10.5668  101.5828  183.7660 H   0  0  0  0  0  0
   10.6178  102.2129  181.3299 H   0  0  0  0  0  0
    9.2262  103.3192  181.5869 H   0  0  0  0  0  0
   12.5238  101.9721  181.2921 H   0  0  0  0  0  0
   14.9414  102.2365  180.9454 H   0  0  0  0  0  0
   16.1393  104.2329  181.7631 H   0  0  0  0  0  0
   14.7951  106.0259  182.8003 H   0  0  0  0  0  0
    6.8448  105.6131  184.5763 H   0  0  0  0  0  0
   10.0695  107.2830  183.5511 H   0  0  0  0  0  0
   10.4347  109.6986  183.9363 H   0  0  0  0  0  0
    8.6994  111.0786  185.0427 H   0  0  0  0  0  0
    6.5688  110.0374  185.8147 H   0  0  0  0  0  0
    5.4985  105.4453  185.8125 H   0  0  0  0  0  0
    7.1882  105.8674  186.2524 H   0  0  0  0  0  0
    6.7308  105.6753  184.5259 H   0  0  0  0  0  0
   12.5227  106.7499  183.4542 H   0  0  0  0  0  0
  1  2  1  0  0  0
  1 24  1  0  0  0
  1 25  1  0  0  0
  1 26  1  0  0  0
  2  3  1  0  0  0
  2 27  1  0  0  0
  2 28  1  0  0  0
  3  4  1  0  0  0
  3 11  1  0  0  0
  4  5  1  0  0  0
  4  9  2  0  0  0
  5  6  2  0  0  0
  5 29  1  0  0  0
  6  7  1  0  0  0
  6 30  1  0  0  0
  7  8  2  0  0  0
  7 31  1  0  0  0
  8  9  1  0  0  0
  8 32  1  0  0  0
  9 10  1  0  0  0
 10 11  1  0  0  0
 10 41  1  0  0  0
 11 12  2  0  0  0
 12 13  1  0  0  0
 13 14  2  0  0  0
 13 15  1  0  0  0
 15 16  1  0  0  0
 15 33  1  0  0  0
 16 17  2  0  0  0
 16 21  1  0  0  0
 17 18  1  0  0  0
 17 34  1  0  0  0
 18 19  2  0  0  0
 18 35  1  0  0  0
 19 20  1  0  0  0
 19 36  1  0  0  0
 20 21  2  0  0  0
 20 37  1  0  0  0
 21 22  1  0  0  0
 22 23  1  0  0  0
 23 38  1  0  0  0
 23 39  1  0  0  0
 23 40  1  0  0  0
M  END
> <s_m_source_file>
../4bo2_ligand.sdf

> <i_m_source_file_index>
1

> <s_epik_input>
W2NIXTFbY0hdW2NIXVtjSF1jKGMxMiluYyhuMltDSDJdW0NIM10pW05IXUMoPU8pW05IXWMzW2NIXVtjSF1bY0hdW2NIXWMzT1tDSDNd

> <s_epik_cmdline>
J2VwaWtfYXBwJywgJy1pbWFlJywgJ2xpZ2FuZF9wcm8ubWFlJywgJy1vbWFlJywgJ2xpZ2FuZF9wcmVwLm1hZScsICctbXMnLCAnMScsICctcGgnLCAnNycsICctcGh0JywgJzAuNScsICctbnQn

> <r_lp_tautomer_probability>
1

> <r_epik_Ionization_Penalty>
  1.2400

> <r_epik_Ionization_Penalty_Charging>
  1.2399

> <r_epik_Ionization_Penalty_Neutral>
  0.0001

> <r_epik_State_Penalty>
 -0.0000

> <r_epik_Charging_Adjusted_Penalty>
1.23992947146494

> <i_epik_Tot_Q>
0

> <i_epik_Tot_abs_Q>
0

$$$$
