4bo3_ligand
                    3D
 Schrodinger Suite 2020-3.
 31 32  0  0  1  0            999 V2000
  -10.6240   -8.9220  -32.6650 N   0  0  0  0  0  0
   -6.3350   -1.2180  -34.4130 F   0  0  0  0  0  0
  -11.5370   -7.7900  -30.3920 O   0  0  0  0  0  0
  -10.5670   -7.6340  -31.5400 S   0  0  0  0  0  0
   -9.1470   -7.5360  -30.9940 O   0  0  0  0  0  0
   -8.2120   -1.4930  -35.7640 F   0  0  0  0  0  0
   -6.7470   -1.9610  -35.3000 C   0  0  0  0  0  0
   -6.7150   -3.3000  -34.8120 C   0  0  0  0  0  0
   -7.8090   -3.8690  -34.1610 C   0  0  0  0  0  0
   -7.7910   -5.1860  -33.6940 C   0  0  0  0  0  0
   -8.8070   -5.8380  -33.0450 N   0  0  0  0  0  0
  -10.0950   -5.4140  -32.9900 C   0  0  0  0  0  0
  -11.0110   -6.2120  -32.3020 C   0  0  0  0  0  0
  -12.3610   -5.8590  -32.1860 C   0  0  0  0  0  0
   -5.9320   -1.8560  -36.3170 F   0  0  0  0  0  0
   -5.5510   -4.0620  -34.9740 C   0  0  0  0  0  0
   -5.5260   -5.3700  -34.5070 C   0  0  0  0  0  0
   -6.6290   -5.9140  -33.8720 C   0  0  0  0  0  0
  -10.5230   -4.2990  -33.5400 N   0  0  0  0  0  0
  -11.8710   -3.9240  -33.4520 C   0  0  0  0  0  0
  -12.8000   -4.6910  -32.7710 C   0  0  0  0  0  0
  -10.3324   -9.8579  -32.1659 H   0  0  0  0  0  0
   -9.9299   -8.7164  -33.4932 H   0  0  0  0  0  0
   -8.7060   -3.2679  -34.0118 H   0  0  0  0  0  0
   -8.6056   -6.7809  -32.5154 H   0  0  0  0  0  0
  -13.0548   -6.4989  -31.6408 H   0  0  0  0  0  0
   -4.6749   -3.6336  -35.4609 H   0  0  0  0  0  0
   -4.6288   -5.9740  -34.6420 H   0  0  0  0  0  0
   -6.5805   -6.9389  -33.5041 H   0  0  0  0  0  0
  -12.1966   -3.0020  -33.9337 H   0  0  0  0  0  0
  -13.8429   -4.3820  -32.6998 H   0  0  0  0  0  0
  1  4  1  0  0  0
  1 22  1  0  0  0
  1 23  1  0  0  0
  2  7  1  0  0  0
  3  4  2  0  0  0
  4  5  2  0  0  0
  4 13  1  0  0  0
  6  7  1  0  0  0
  7  8  1  0  0  0
  7 15  1  0  0  0
  8  9  2  0  0  0
  8 16  1  0  0  0
  9 10  1  0  0  0
  9 24  1  0  0  0
 10 11  1  0  0  0
 10 18  2  0  0  0
 11 12  1  0  0  0
 11 25  1  0  0  0
 12 13  2  0  0  0
 12 19  1  0  0  0
 13 14  1  0  0  0
 14 21  2  0  0  0
 14 26  1  0  0  0
 16 17  2  0  0  0
 16 27  1  0  0  0
 17 18  1  0  0  0
 17 28  1  0  0  0
 18 29  1  0  0  0
 19 20  2  0  0  0
 20 21  1  0  0  0
 20 30  1  0  0  0
 21 31  1  0  0  0
M  END
> <s_m_source_file>
../4bo3_ligand.sdf

> <i_m_source_file_index>
1

> <s_epik_input>
bjFbY0hdW2NIXVtjSF1jKFMoPU8pKD1PKVtOSDJdKWMxW05IXWMoW2NIXWMyQyhGKShGKUYpW2NIXVtjSF1bY0hdMg==

> <s_epik_cmdline>
J2VwaWtfYXBwJywgJy1pbWFlJywgJ2xpZ2FuZF9wcm8ubWFlJywgJy1vbWFlJywgJ2xpZ2FuZF9wcmVwLm1hZScsICctbXMnLCAnMScsICctcGgnLCAnNycsICctcGh0JywgJzAuNScsICctbnQn

> <r_lp_tautomer_probability>
1

> <r_epik_Ionization_Penalty>
  0.0008

> <r_epik_Ionization_Penalty_Charging>
  0.0000

> <r_epik_Ionization_Penalty_Neutral>
  0.0008

> <r_epik_State_Penalty>
 -0.0000

> <r_epik_Charging_Adjusted_Penalty>
0

> <i_epik_Tot_Q>
0

> <i_epik_Tot_abs_Q>
0

$$$$
