4bo4_ligand
                    3D
 Schrodinger Suite 2020-3.
 39 41  0  0  1  0            999 V2000
   -5.2490    2.6260   35.8550 C   0  0  0  0  0  0
   -4.2400    2.1800   34.9940 C   0  0  0  0  0  0
   -5.4720    0.1130   35.3290 C   0  0  0  0  0  0
   -5.5860   -1.2620   35.4360 C   0  0  0  0  0  0
   -6.8310   -1.8900   35.4700 C   0  0  0  0  0  0
   -8.0120   -1.1600   35.3950 C   0  0  0  0  0  0
   -7.9010    0.2090   35.3020 C   0  0  0  0  0  0
   -6.6440    0.8430   35.2450 C   0  0  0  0  0  0
   -7.3000    3.0640   34.5450 C   0  0  0  0  0  0
   -7.0600    4.2740   34.5700 O   0  0  0  0  0  0
   -8.3680    2.6060   33.8970 N   0  0  0  0  0  0
   -4.1870    0.7040   35.3130 C   0  0  0  0  0  0
   -9.2290    3.4520   33.3500 C   0  0  0  0  0  0
   -8.9400    4.7150   32.8510 C   0  0  0  0  0  0
   -9.9840    5.4440   32.3380 C   0  0  0  0  0  0
  -11.2620    4.9200   32.3190 C   0  0  0  0  0  0
  -11.5420    3.6750   32.8180 C   0  0  0  0  0  0
  -10.5160    2.9440   33.3410 C   0  0  0  0  0  0
   -6.4900    2.1730   35.1750 N   0  0  0  0  0  0
  -10.6630    1.6900   33.8880 O   0  0  0  0  0  0
  -11.6320    0.8050   33.3160 C   0  0  0  0  0  0
   -5.1163    2.1654   36.8450 H   0  0  0  0  0  0
   -5.1932    3.7205   35.9494 H   0  0  0  0  0  0
   -4.5287    2.3864   33.9528 H   0  0  0  0  0  0
   -3.3017    2.7055   35.2254 H   0  0  0  0  0  0
   -4.6821   -1.8682   35.4951 H   0  0  0  0  0  0
   -6.8791   -2.9754   35.5572 H   0  0  0  0  0  0
   -8.9850   -1.6511   35.4092 H   0  0  0  0  0  0
   -8.8058    0.8161   35.2718 H   0  0  0  0  0  0
   -8.5382    1.5224   33.8142 H   0  0  0  0  0  0
   -3.5828    0.1862   34.5535 H   0  0  0  0  0  0
   -3.7326    0.5592   36.3042 H   0  0  0  0  0  0
   -7.9249    5.1118   32.8660 H   0  0  0  0  0  0
   -9.8032    6.4436   31.9428 H   0  0  0  0  0  0
  -12.0713    5.5143   31.8947 H   0  0  0  0  0  0
  -12.5574    3.2793   32.7976 H   0  0  0  0  0  0
  -11.6254   -0.1491   33.8634 H   0  0  0  0  0  0
  -11.3844    0.6235   32.2597 H   0  0  0  0  0  0
  -12.6308    1.2606   33.3854 H   0  0  0  0  0  0
  1  2  1  0  0  0
  1 19  1  0  0  0
  1 22  1  0  0  0
  1 23  1  0  0  0
  2 12  1  0  0  0
  2 24  1  0  0  0
  2 25  1  0  0  0
  3  4  2  0  0  0
  3  8  1  0  0  0
  3 12  1  0  0  0
  4  5  1  0  0  0
  4 26  1  0  0  0
  5  6  2  0  0  0
  5 27  1  0  0  0
  6  7  1  0  0  0
  6 28  1  0  0  0
  7  8  2  0  0  0
  7 29  1  0  0  0
  8 19  1  0  0  0
  9 10  2  0  0  0
  9 11  1  0  0  0
  9 19  1  0  0  0
 11 13  1  0  0  0
 11 30  1  0  0  0
 12 31  1  0  0  0
 12 32  1  0  0  0
 13 14  2  0  0  0
 13 18  1  0  0  0
 14 15  1  0  0  0
 14 33  1  0  0  0
 15 16  2  0  0  0
 15 34  1  0  0  0
 16 17  1  0  0  0
 16 35  1  0  0  0
 17 18  2  0  0  0
 17 36  1  0  0  0
 18 20  1  0  0  0
 20 21  1  0  0  0
 21 37  1  0  0  0
 21 38  1  0  0  0
 21 39  1  0  0  0
M  END
> <s_m_source_file>
../4bo4_ligand.sdf

> <i_m_source_file_index>
1

> <s_epik_input>
W2NIXTFbY0hdW2NIXVtjSF1jKGMxMilOKFtDSDJdW0NIMl1bQ0gyXTIpQyg9TylbTkhdYzNbY0hdW2NIXVtjSF1bY0hdYzNPW0NIM10=

> <s_epik_cmdline>
J2VwaWtfYXBwJywgJy1pbWFlJywgJ2xpZ2FuZF9wcm8ubWFlJywgJy1vbWFlJywgJ2xpZ2FuZF9wcmVwLm1hZScsICctbXMnLCAnMScsICctcGgnLCAnNycsICctcGh0JywgJzAuNScsICctbnQn

> <r_lp_tautomer_probability>
1

> <r_epik_Ionization_Penalty>
  0.0000

> <r_epik_Ionization_Penalty_Charging>
  0.0000

> <r_epik_Ionization_Penalty_Neutral>
  0.0000

> <r_epik_State_Penalty>
 -0.0000

> <r_epik_Charging_Adjusted_Penalty>
0

> <i_epik_Tot_Q>
0

> <i_epik_Tot_abs_Q>
0

$$$$
