4bo5_ligand
                    3D
 Schrodinger Suite 2020-3.
 29 31  0  0  1  0            999 V2000
  -31.0340  -19.0850   36.5230 Cl  0  0  0  0  0  0
  -30.3900  -17.4560   36.5500 C   0  0  0  0  0  0
  -31.1300  -16.4200   37.0870 C   0  0  0  0  0  0
  -30.5990  -15.1280   37.1040 C   0  0  0  0  0  0
  -29.3320  -14.8580   36.5820 C   0  0  0  0  0  0
  -28.5830  -15.8950   36.0440 C   0  0  0  0  0  0
  -29.1340  -17.1730   36.0400 C   0  0  0  0  0  0
  -28.4850  -18.2010   35.5520 N   0  0  0  0  0  0
  -27.2650  -17.9690   35.1130 C   0  0  0  0  0  0
  -26.6690  -18.9870   34.4820 N   0  0  0  0  0  0
  -26.6560  -16.7750   35.2940 N   0  0  0  0  0  0
  -25.3540  -16.6260   34.7810 C   0  0  0  0  0  0
  -24.7410  -17.7260   34.1150 N   0  0  0  0  0  0
  -25.4300  -18.8860   34.0010 C   0  0  0  0  0  0
  -24.9680  -19.9670   33.3780 N   0  0  0  0  0  0
  -23.7940  -20.2540   32.8130 C   0  0  0  0  0  0
  -23.8920  -21.4730   32.2920 C   0  0  0  0  0  0
  -25.1210  -21.9330   32.5260 C   0  0  0  0  0  0
  -25.7900  -21.0000   33.1890 C   0  0  0  0  0  0
  -32.1227  -16.6098   37.4951 H   0  0  0  0  0  0
  -31.1848  -14.3150   37.5329 H   0  0  0  0  0  0
  -28.9354  -13.8428   36.5970 H   0  0  0  0  0  0
  -27.5890  -15.7133   35.6352 H   0  0  0  0  0  0
  -28.9633  -19.1912   35.5254 H   0  0  0  0  0  0
  -24.8216  -15.6813   34.8918 H   0  0  0  0  0  0
  -22.9164  -19.6081   32.7840 H   0  0  0  0  0  0
  -23.1017  -22.0059   31.7633 H   0  0  0  0  0  0
  -25.5083  -22.9063   32.2248 H   0  0  0  0  0  0
  -26.8264  -21.0655   33.5203 H   0  0  0  0  0  0
  1  2  1  0  0  0
  2  3  2  0  0  0
  2  7  1  0  0  0
  3  4  1  0  0  0
  3 20  1  0  0  0
  4  5  2  0  0  0
  4 21  1  0  0  0
  5  6  1  0  0  0
  5 22  1  0  0  0
  6  7  2  0  0  0
  6 23  1  0  0  0
  7  8  1  0  0  0
  8  9  1  0  0  0
  8 24  1  0  0  0
  9 10  2  0  0  0
  9 11  1  0  0  0
 10 14  1  0  0  0
 11 12  2  0  0  0
 12 13  1  0  0  0
 12 25  1  0  0  0
 13 14  2  0  0  0
 14 15  1  0  0  0
 15 16  1  0  0  0
 15 19  1  0  0  0
 16 17  2  0  0  0
 16 26  1  0  0  0
 17 18  1  0  0  0
 17 27  1  0  0  0
 18 19  2  0  0  0
 18 28  1  0  0  0
 19 29  1  0  0  0
M  END
> <s_m_source_file>
../4bo5_ligand.sdf

> <i_m_source_file_index>
1

> <s_epik_input>
Q2xjMVtjSF1bY0hdW2NIXVtjSF1jMVtOSF1jMm5jKG5bY0hdbjIpLW4zW2NIXVtjSF1bY0hdW2NIXTM=

> <s_epik_cmdline>
J2VwaWtfYXBwJywgJy1pbWFlJywgJ2xpZ2FuZF9wcm8ubWFlJywgJy1vbWFlJywgJ2xpZ2FuZF9wcmVwLm1hZScsICctbXMnLCAnMScsICctcGgnLCAnNycsICctcGh0JywgJzAuNScsICctbnQn

> <r_lp_tautomer_probability>
1

> <r_epik_Ionization_Penalty>
  0.0000

> <r_epik_Ionization_Penalty_Charging>
  0.0000

> <r_epik_Ionization_Penalty_Neutral>
  0.0000

> <r_epik_State_Penalty>
 -0.0000

> <r_epik_Charging_Adjusted_Penalty>
0

> <i_epik_Tot_Q>
0

> <i_epik_Tot_abs_Q>
0

$$$$
