4bo6_ligand
                    3D
 Schrodinger Suite 2020-3.
 31 34  0  0  1  0            999 V2000
   -9.0900   -1.7950  -33.2370 C   0  0  0  0  0  0
  -10.5040   -1.8230  -32.7690 C   0  0  0  0  0  0
  -10.7770   -3.1200  -32.3930 C   0  0  0  0  0  0
  -11.9250   -3.5690  -31.9060 C   0  0  0  0  0  0
  -12.0550   -4.8870  -31.5520 C   0  0  0  0  0  0
  -10.9450   -5.7070  -31.7220 C   0  0  0  0  0  0
   -9.7690   -5.1950  -32.2310 C   0  0  0  0  0  0
   -9.6980   -3.9100  -32.5570 C   0  0  0  0  0  0
   -8.6660   -3.2060  -33.0470 N   0  0  0  0  0  0
   -7.4260   -3.6890  -33.2870 C   0  0  0  0  0  0
   -7.1730   -4.8770  -33.0630 O   0  0  0  0  0  0
   -6.4550   -2.8800  -33.7890 C   0  0  0  0  0  0
   -6.6640   -1.5830  -34.0920 N   0  0  0  0  0  0
   -5.1900   -3.2830  -34.0670 C   0  0  0  0  0  0
   -4.3490   -1.9410  -34.6730 S   0  0  0  0  0  0
   -5.6050   -0.9360  -34.5800 C   0  0  0  0  0  0
   -5.6020    0.3430  -34.9080 C   0  0  0  0  0  0
   -6.7200    1.0820  -34.7820 C   0  0  0  0  0  0
   -6.5750    2.3640  -35.1360 C   0  0  0  0  0  0
   -5.0110    2.5820  -35.6220 S   0  0  0  0  0  0
   -4.5160    0.9790  -35.3600 C   0  0  0  0  0  0
   -8.5134   -0.9535  -33.6210 H   0  0  0  0  0  0
  -11.1917   -0.9782  -32.7312 H   0  0  0  0  0  0
  -12.7680   -2.8885  -31.7866 H   0  0  0  0  0  0
  -12.9915   -5.2767  -31.1530 H   0  0  0  0  0  0
  -11.0042   -6.7612  -31.4514 H   0  0  0  0  0  0
   -8.9025   -5.8425  -32.3648 H   0  0  0  0  0  0
   -4.7876   -4.2862  -33.9265 H   0  0  0  0  0  0
   -7.6632    0.6709  -34.4222 H   0  0  0  0  0  0
   -7.3510    3.1290  -35.1086 H   0  0  0  0  0  0
   -3.5242    0.5580  -35.5251 H   0  0  0  0  0  0
  1  2  2  0  0  0
  1  9  1  0  0  0
  1 22  1  0  0  0
  2  3  1  0  0  0
  2 23  1  0  0  0
  3  4  2  0  0  0
  3  8  1  0  0  0
  4  5  1  0  0  0
  4 24  1  0  0  0
  5  6  2  0  0  0
  5 25  1  0  0  0
  6  7  1  0  0  0
  6 26  1  0  0  0
  7  8  2  0  0  0
  7 27  1  0  0  0
  8  9  1  0  0  0
  9 10  1  0  0  0
 10 11  2  0  0  0
 10 12  1  0  0  0
 12 13  1  0  0  0
 12 14  2  0  0  0
 13 16  2  0  0  0
 14 15  1  0  0  0
 14 28  1  0  0  0
 15 16  1  0  0  0
 16 17  1  0  0  0
 17 18  1  0  0  0
 17 21  2  0  0  0
 18 19  2  0  0  0
 18 29  1  0  0  0
 19 20  1  0  0  0
 19 30  1  0  0  0
 20 21  1  0  0  0
 21 31  1  0  0  0
M  END
> <s_m_source_file>
../4bo6_ligand.sdf

> <i_m_source_file_index>
1

> <s_epik_input>
W2NIXTFbY0hdW2NIXVtjSF1jKGMxMiluKFtjSF1bY0hdMilDKD1PKWMzbmMoc1tjSF0zKS1jNFtjSF1bY0hdc1tjSF00

> <s_epik_cmdline>
J2VwaWtfYXBwJywgJy1pbWFlJywgJ2xpZ2FuZF9wcm8ubWFlJywgJy1vbWFlJywgJ2xpZ2FuZF9wcmVwLm1hZScsICctbXMnLCAnMScsICctcGgnLCAnNycsICctcGh0JywgJzAuNScsICctbnQn

> <r_lp_tautomer_probability>
1

> <r_epik_Ionization_Penalty>
  0.0000

> <r_epik_Ionization_Penalty_Charging>
  0.0000

> <r_epik_Ionization_Penalty_Neutral>
  0.0000

> <r_epik_State_Penalty>
 -0.0000

> <r_epik_Charging_Adjusted_Penalty>
0

> <i_epik_Tot_Q>
0

> <i_epik_Tot_abs_Q>
0

$$$$
