4bo7_ligand
                    3D
 Schrodinger Suite 2020-3.
 31 34  0  0  1  0            999 V2000
  -10.5220   -6.8860  -32.1510 N   0  0  0  0  0  0
   -9.2470   -6.8260  -32.5130 C   0  0  0  0  0  0
   -8.2560   -7.6990  -32.4740 C   0  0  0  0  0  0
   -7.0010   -7.3110  -32.9330 C   0  0  0  0  0  0
   -4.1740   -4.1170  -34.9070 C   0  0  0  0  0  0
   -4.0130   -2.8410  -35.4390 C   0  0  0  0  0  0
   -5.0280   -1.9810  -35.4320 C   0  0  0  0  0  0
   -5.0930   -0.6790  -35.9020 C   0  0  0  0  0  0
   -6.2790   -0.0200  -35.1900 C   0  0  0  0  0  0
  -11.0180   -5.7880  -32.4000 N   0  0  0  0  0  0
  -10.0950   -4.9930  -32.9200 N   0  0  0  0  0  0
   -9.0010   -5.6120  -32.9880 N   0  0  0  0  0  0
   -7.8650   -5.1880  -33.4290 N   0  0  0  0  0  0
   -6.8160   -6.0260  -33.4290 C   0  0  0  0  0  0
   -5.5920   -5.6820  -33.8620 N   0  0  0  0  0  0
   -5.4070   -4.4710  -34.3790 C   0  0  0  0  0  0
   -6.4270   -3.5420  -34.4060 C   0  0  0  0  0  0
   -6.2230   -2.3270  -34.9270 C   0  0  0  0  0  0
   -7.1150   -1.2440  -35.0490 C   0  0  0  0  0  0
   -8.4187   -8.7057  -32.0890 H   0  0  0  0  0  0
   -6.1667   -8.0118  -32.9037 H   0  0  0  0  0  0
   -3.3458   -4.8257  -34.9053 H   0  0  0  0  0  0
   -3.0530   -2.5456  -35.8624 H   0  0  0  0  0  0
   -4.1535   -0.1572  -35.6673 H   0  0  0  0  0  0
   -5.2443   -0.6896  -36.9915 H   0  0  0  0  0  0
   -5.9373    0.4256  -34.2441 H   0  0  0  0  0  0
   -6.7026    0.7653  -35.8333 H   0  0  0  0  0  0
   -4.7604   -6.3980  -33.7862 H   0  0  0  0  0  0
   -7.4052   -3.7999  -34.0002 H   0  0  0  0  0  0
   -7.7484   -1.1543  -34.1542 H   0  0  0  0  0  0
   -7.7515   -1.3578  -35.9389 H   0  0  0  0  0  0
  1  2  2  0  0  0
  1 10  1  0  0  0
  2  3  1  0  0  0
  2 12  1  0  0  0
  3  4  2  0  0  0
  3 20  1  0  0  0
  4 14  1  0  0  0
  4 21  1  0  0  0
  5  6  2  0  0  0
  5 16  1  0  0  0
  5 22  1  0  0  0
  6  7  1  0  0  0
  6 23  1  0  0  0
  7  8  1  0  0  0
  7 18  2  0  0  0
  8  9  1  0  0  0
  8 24  1  0  0  0
  8 25  1  0  0  0
  9 19  1  0  0  0
  9 26  1  0  0  0
  9 27  1  0  0  0
 10 11  2  0  0  0
 11 12  1  0  0  0
 12 13  1  0  0  0
 13 14  2  0  0  0
 14 15  1  0  0  0
 15 16  1  0  0  0
 15 28  1  0  0  0
 16 17  2  0  0  0
 17 18  1  0  0  0
 17 29  1  0  0  0
 18 19  1  0  0  0
 19 30  1  0  0  0
 19 31  1  0  0  0
M  END
> <s_m_source_file>
../4bo7_ligand.sdf

> <i_m_source_file_index>
1

> <s_epik_input>
bjFubm4oYzEyKW5jKFtjSF1bY0hdMilbTkhdYyhbY0hdW2NIXTMpW2NIXWMoYzM0KVtDSDJdW0NIMl1bQ0gyXTQ=

> <s_epik_cmdline>
J2VwaWtfYXBwJywgJy1pbWFlJywgJ2xpZ2FuZF9wcm8ubWFlJywgJy1vbWFlJywgJ2xpZ2FuZF9wcmVwLm1hZScsICctbXMnLCAnMScsICctcGgnLCAnNycsICctcGh0JywgJzAuNScsICctbnQn

> <r_lp_tautomer_probability>
1

> <r_epik_Ionization_Penalty>
  0.0000

> <r_epik_Ionization_Penalty_Charging>
  0.0000

> <r_epik_Ionization_Penalty_Neutral>
  0.0000

> <r_epik_State_Penalty>
 -0.0000

> <r_epik_Charging_Adjusted_Penalty>
0

> <i_epik_Tot_Q>
0

> <i_epik_Tot_abs_Q>
0

$$$$
