4bo8_ligand
                    3D
 Schrodinger Suite 2020-3.
 38 40  0  0  1  0            999 V2000
   -3.4360    0.9650  -36.1930 F   0  0  0  0  0  0
   -4.5210    1.0560  -35.8330 C   0  0  0  0  0  0
   -5.1460    2.2990  -35.9130 C   0  0  0  0  0  0
   -6.4390    2.4360  -35.4700 C   0  0  0  0  0  0
   -7.0920    1.3240  -34.9620 C   0  0  0  0  0  0
   -6.4510    0.1020  -34.8960 C   0  0  0  0  0  0
   -5.1360   -0.0900  -35.3510 C   0  0  0  0  0  0
   -4.3150   -1.2070  -35.3260 N   0  0  0  0  0  0
   -4.7080   -2.4350  -34.9120 C   0  0  0  0  0  0
   -3.9400   -3.3990  -34.8520 O   0  0  0  0  0  0
   -6.0110   -2.5390  -34.7500 N   0  0  0  0  0  0
   -6.6050   -3.3180  -34.2300 N   0  0  0  0  0  0
   -7.7940   -2.8150  -33.9980 C   0  0  0  0  0  0
   -6.5620   -4.5070  -33.6210 C   0  0  0  0  0  0
   -5.5050   -5.3130  -33.6220 N   0  0  0  0  0  0
   -7.7680   -4.7660  -33.0650 N   0  3  0  0  0  0
   -8.4890   -3.6630  -33.3060 C   0  0  0  0  0  0
   -9.7390   -3.3300  -33.0500 C   0  0  0  0  0  0
  -10.1530   -2.0310  -33.3690 C   0  0  0  0  0  0
  -11.4560   -1.6740  -33.1570 C   0  0  0  0  0  0
  -12.3320   -2.5910  -32.6330 C   0  0  0  0  0  0
  -11.9240   -3.8680  -32.3260 C   0  0  0  0  0  0
  -10.6210   -4.2580  -32.5440 C   0  0  0  0  0  0
   -4.6128    3.1562  -36.3241 H   0  0  0  0  0  0
   -6.9423    3.4017  -35.5171 H   0  0  0  0  0  0
   -8.1202    1.4144  -34.6115 H   0  0  0  0  0  0
   -6.9875   -0.7477  -34.4737 H   0  0  0  0  0  0
   -3.2690   -1.1283  -35.6571 H   0  0  0  0  0  0
   -6.6801   -1.7720  -35.1672 H   0  0  0  0  0  0
   -8.1427   -1.8384  -34.3339 H   0  0  0  0  0  0
   -4.5710   -4.9946  -34.1081 H   0  0  0  0  0  0
   -5.5643   -6.2984  -33.1368 H   0  0  0  0  0  0
   -9.4448   -1.3125  -33.7816 H   0  0  0  0  0  0
  -11.7963   -0.6680  -33.4026 H   0  0  0  0  0  0
  -13.3683   -2.3026  -32.4572 H   0  0  0  0  0  0
  -12.6376   -4.5773  -31.9067 H   0  0  0  0  0  0
  -10.2968   -5.2747  -32.3217 H   0  0  0  0  0  0
   -7.9465   -5.7277  -32.5618 H   0  0  0  0  0  0
  1  2  1  0  0  0
  2  3  2  0  0  0
  2  7  1  0  0  0
  3  4  1  0  0  0
  3 24  1  0  0  0
  4  5  2  0  0  0
  4 25  1  0  0  0
  5  6  1  0  0  0
  5 26  1  0  0  0
  6  7  2  0  0  0
  6 27  1  0  0  0
  7  8  1  0  0  0
  8  9  1  0  0  0
  8 28  1  0  0  0
  9 10  2  0  0  0
  9 11  1  0  0  0
 11 12  1  0  0  0
 11 29  1  0  0  0
 12 13  1  0  0  0
 12 14  1  0  0  0
 13 17  2  0  0  0
 13 30  1  0  0  0
 14 15  1  0  0  0
 14 16  2  0  0  0
 15 31  1  0  0  0
 15 32  1  0  0  0
 16 17  1  0  0  0
 16 38  1  0  0  0
 17 18  1  0  0  0
 18 19  2  0  0  0
 18 23  1  0  0  0
 19 20  1  0  0  0
 19 33  1  0  0  0
 20 21  2  0  0  0
 20 34  1  0  0  0
 21 22  1  0  0  0
 21 35  1  0  0  0
 22 23  2  0  0  0
 22 36  1  0  0  0
 23 37  1  0  0  0
M  CHG  1  16   1
M  END
> <s_m_source_file>
../4bo8_ligand.sdf

> <i_m_source_file_index>
1

> <s_epik_input>
RmMxW2NIXVtjSF1bY0hdW2NIXWMxW05IXUMoPU8pW05IXW4yW2NIXWMobmMyW05IMl0pLWMzW2NIXVtjSF1bY0hdW2NIXVtjSF0z

> <s_epik_cmdline>
J2VwaWtfYXBwJywgJy1pbWFlJywgJ2xpZ2FuZF9wcm8ubWFlJywgJy1vbWFlJywgJ2xpZ2FuZF9wcmVwLm1hZScsICctbXMnLCAnMScsICctcGgnLCAnNycsICctcGh0JywgJzAuNScsICctbnQn

> <r_epik_Ionization_Penalty>
  0.0277

> <r_epik_Ionization_Penalty_Charging>
  0.0000

> <r_epik_Ionization_Penalty_Neutral>
  0.0277

> <r_epik_State_Penalty>
  0.0226

> <r_epik_Charging_Adjusted_Penalty>
0.0226019931472543

> <i_epik_Tot_Q>
1

> <i_epik_Tot_abs_Q>
1

$$$$
