4bo9_ligand
                    3D
 Schrodinger Suite 2020-3.
 38 41  0  0  1  0            999 V2000
   11.2190  104.0950   32.8290 C   0  0  0  0  0  0
   11.8840  102.9790   32.3610 C   0  0  0  0  0  0
   13.2380  103.0640   32.0320 C   0  0  0  0  0  0
   13.9380  104.2630   32.1710 C   0  0  0  0  0  0
   13.2720  105.3810   32.6400 C   0  0  0  0  0  0
   11.9220  105.2890   32.9630 C   0  0  0  0  0  0
   11.2910  106.3510   33.4360 N   0  0  0  0  0  0
   10.0670  106.3560   33.7860 N   0  0  0  0  0  0
   11.8180  107.5270   33.6550 N   0  0  0  0  0  0
   10.9110  108.3040   34.1320 N   0  0  0  0  0  0
    9.7960  107.5840   34.2190 C   0  0  0  0  0  0
    8.6230  108.0230   34.6860 C   0  0  0  0  0  0
    8.5670  109.3100   35.1750 C   0  0  0  0  0  0
    7.3680  109.7960   35.6750 C   0  0  0  0  0  0
    6.2230  109.0070   35.7040 C   0  0  0  0  0  0
    6.2770  107.7270   35.2250 C   0  0  0  0  0  0
    7.4660  107.2400   34.7240 C   0  0  0  0  0  0
    7.5810  105.9850   34.2210 O   0  0  0  0  0  0
    6.5630  105.0320   34.4970 C   0  0  0  0  0  0
    7.0160  103.7270   33.9160 C   0  0  0  0  0  0
    6.2140  102.7060   33.5260 O   0  0  0  0  0  0
    7.0220  101.7470   33.0930 C   0  0  0  0  0  0
    8.2620  103.4200   33.7300 C   0  0  0  0  0  0
    8.2750  102.1950   33.2140 C   0  0  0  0  0  0
   10.1618  104.0419   33.0890 H   0  0  0  0  0  0
   11.3529  102.0338   32.2487 H   0  0  0  0  0  0
   13.7565  102.1800   31.6608 H   0  0  0  0  0  0
   14.9957  104.3179   31.9134 H   0  0  0  0  0  0
   13.8010  106.3270   32.7556 H   0  0  0  0  0  0
    9.4564  109.9401   35.1690 H   0  0  0  0  0  0
    7.3222  110.8173   36.0530 H   0  0  0  0  0  0
    5.2909  109.4052   36.1049 H   0  0  0  0  0  0
    5.3876  107.0970   35.2391 H   0  0  0  0  0  0
    6.4260  104.9466   35.5851 H   0  0  0  0  0  0
    5.6202  105.3578   34.0332 H   0  0  0  0  0  0
    6.7194  100.7728   32.7091 H   0  0  0  0  0  0
    9.1279  104.0434   33.9528 H   0  0  0  0  0  0
    9.1705  101.6409   32.9327 H   0  0  0  0  0  0
  1  2  2  0  0  0
  1  6  1  0  0  0
  1 25  1  0  0  0
  2  3  1  0  0  0
  2 26  1  0  0  0
  3  4  2  0  0  0
  3 27  1  0  0  0
  4  5  1  0  0  0
  4 28  1  0  0  0
  5  6  2  0  0  0
  5 29  1  0  0  0
  6  7  1  0  0  0
  7  8  1  0  0  0
  7  9  1  0  0  0
  8 11  2  0  0  0
  9 10  2  0  0  0
 10 11  1  0  0  0
 11 12  1  0  0  0
 12 13  2  0  0  0
 12 17  1  0  0  0
 13 14  1  0  0  0
 13 30  1  0  0  0
 14 15  2  0  0  0
 14 31  1  0  0  0
 15 16  1  0  0  0
 15 32  1  0  0  0
 16 17  2  0  0  0
 16 33  1  0  0  0
 17 18  1  0  0  0
 18 19  1  0  0  0
 19 20  1  0  0  0
 19 34  1  0  0  0
 19 35  1  0  0  0
 20 21  1  0  0  0
 20 23  2  0  0  0
 21 22  1  0  0  0
 22 24  2  0  0  0
 22 36  1  0  0  0
 23 24  1  0  0  0
 23 37  1  0  0  0
 24 38  1  0  0  0
M  END
> <s_m_source_file>
../4bo9_ligand.sdf

> <i_m_source_file_index>
1

> <s_epik_input>
W2NIXTFbY0hdW2NIXVtjSF1bY0hdYzEtbjJuYyhubjIpLWMzW2NIXVtjSF1bY0hdW2NIXWMzT1tDSDJdYzRvW2NIXVtjSF1bY0hdNA==

> <s_epik_cmdline>
J2VwaWtfYXBwJywgJy1pbWFlJywgJ2xpZ2FuZF9wcm8ubWFlJywgJy1vbWFlJywgJ2xpZ2FuZF9wcmVwLm1hZScsICctbXMnLCAnMScsICctcGgnLCAnNycsICctcGh0JywgJzAuNScsICctbnQn

> <r_lp_tautomer_probability>
1

> <r_epik_Ionization_Penalty>
  0.0000

> <r_epik_Ionization_Penalty_Charging>
  0.0000

> <r_epik_Ionization_Penalty_Neutral>
  0.0000

> <r_epik_State_Penalty>
 -0.0000

> <r_epik_Charging_Adjusted_Penalty>
0

> <i_epik_Tot_Q>
0

> <i_epik_Tot_abs_Q>
0

$$$$
