4bpi_ligand
                    3D
 Schrodinger Suite 2020-3.
313313  0  0  1  0            999 V2000
    3.6070  -14.0430   24.7350 N   0  3  0  0  0  0
    3.2160  -13.1520   23.6420 C   0  0  2  0  0  0
    4.3440  -12.1790   23.2800 C   0  0  0  0  0  0
    4.9970  -12.3230   22.2420 O   0  0  0  0  0  0
    1.9490  -12.3960   24.0030 C   0  0  0  0  0  0
    4.5640  -11.1760   24.1270 N   0  0  0  0  0  0
    5.7800  -10.3830   24.0210 C   0  0  2  0  0  0
    6.8800  -11.3980   24.3110 C   0  0  0  0  0  0
    7.9410  -11.4020   23.6740 O   0  0  0  0  0  0
    5.7870   -9.2490   25.0480 C   0  0  0  0  0  0
    4.5580   -8.3580   25.0050 C   0  0  0  0  0  0
    3.6730   -8.5260   26.2250 C   0  0  0  0  0  0
    4.1260   -9.1500   27.2080 O   0  0  0  0  0  0
    2.5250   -8.0340   26.2010 O   0  0  0  0  0  0
    6.5730  -12.2840   25.2600 N   0  0  0  0  0  0
    7.8480  -12.7260   25.8160 C   0  0  1  0  0  0
    7.9790  -12.1280   27.2190 C   0  0  0  0  0  0
    9.3950  -11.7700   27.6390 C   0  0  0  0  0  0
    9.9010  -10.4270   27.1340 C   0  0  0  0  0  0
   11.1370  -10.2920   27.0420 O   0  0  0  0  0  0
    9.1010   -9.5110   26.8330 O   0  0  0  0  0  0
    7.9510  -14.2570   25.8540 C   0  0  0  0  0  0
    8.2690  -14.8830   24.4940 C   0  0  0  0  0  0
    9.4310  -15.1010   24.1550 O   0  0  0  0  0  0
    7.2440  -15.1770   23.7050 N   0  0  0  0  0  0
    7.4960  -15.8310   22.4310 C   0  0  2  0  0  0
    8.1340  -14.8750   21.4160 C   0  0  0  0  0  0
    8.9100  -15.2930   20.5610 O   0  0  0  0  0  0
    6.2490  -16.5810   21.8950 C   0  0  2  0  0  0
    5.5470  -15.8010   20.7980 C   0  0  0  0  0  0
    5.3070  -16.9830   23.0450 C   0  0  0  0  0  0
    5.9070  -16.2830   19.4040 C   0  0  0  0  0  0
    7.8380  -13.5860   21.5250 N   0  0  0  0  0  0
    8.5320  -12.6080   20.7100 C   0  0  0  0  0  0
   10.0410  -12.6410   20.9500 C   0  0  0  0  0  0
   10.8470  -12.7000   20.0110 O   0  0  0  0  0  0
   10.4290  -12.6030   22.2130 N   0  0  0  0  0  0
   11.8360  -12.5310   22.5660 C   0  0  2  0  0  0
   12.4350  -13.8950   22.3010 C   0  0  0  0  0  0
   13.6200  -14.0190   21.9690 O   0  0  0  0  0  0
   12.0060  -12.1280   24.0310 C   0  0  0  0  0  0
   11.5960  -14.9120   22.4940 N   0  0  0  0  0  0
   12.4740  -16.0710   22.3870 C   0  0  1  0  0  0
   12.7320  -16.6850   23.7670 C   0  0  0  0  0  0
   11.8540  -17.1060   21.4580 C   0  0  0  0  0  0
   12.1900  -16.7810   20.0040 C   0  0  0  0  0  0
   13.2000  -17.2580   19.4950 O   0  0  0  0  0  0
   13.9360  -16.0960   24.4940 C   0  0  0  0  0  0
   15.1790  -16.9750   24.4500 C   0  0  0  0  0  0
   15.0130  -18.2430   24.0690 N   0  0  0  0  0  0
   16.2840  -16.5200   24.7560 O   0  0  0  0  0  0
   11.3730  -15.9640   19.3370 N   0  0  0  0  0  0
   11.6080  -15.6880   17.9170 C   0  0  2  0  0  0
   12.8710  -14.8540   17.6760 C   0  0  0  0  0  0
   13.6030  -15.0750   16.6950 O   0  0  0  0  0  0
   10.3780  -15.0460   17.2680 C   0  0  0  0  0  0
    9.1820  -15.9940   17.1080 C   0  0  0  0  0  0
    7.9500  -15.2170   16.6850 C   0  0  0  0  0  0
    9.5000  -17.0820   16.0800 C   0  0  0  0  0  0
   13.1320  -13.9060   18.5750 N   0  0  0  0  0  0
   14.2340  -12.9690   18.4090 C   0  0  2  0  0  0
   15.5490  -13.7140   18.5910 C   0  0  0  0  0  0
   16.5060  -13.5060   17.8400 O   0  0  0  0  0  0
   14.1240  -11.8560   19.4570 C   0  0  0  0  0  0
   15.0920  -10.7240   19.2590 C   0  0  0  0  0  0
   14.4760   -9.4480   19.8070 C   0  0  0  0  0  0
   14.6570   -9.3850   21.2320 N   0  0  0  0  0  0
   13.9400   -8.6430   22.0660 C   0  0  0  0  0  0
   12.9310   -7.8740   21.6470 N   0  0  0  0  0  0
   14.2440   -8.6840   23.3480 N   0  0  0  0  0  0
   15.5870  -14.5400   19.6320 N   0  0  0  0  0  0
   16.9580  -14.8740   20.0250 C   0  0  1  0  0  0
   17.1910  -14.5700   21.5030 C   0  0  0  0  0  0
   17.4000  -13.0840   21.7590 C   0  0  0  0  0  0
   18.3200  -12.8970   22.9640 C   0  0  0  0  0  0
   18.7400  -14.1680   23.5660 N   0  0  0  0  0  0
   19.9260  -14.7700   23.4260 C   0  0  0  0  0  0
   20.8690  -14.2260   22.6670 N   0  0  0  0  0  0
   20.1630  -15.9250   24.0430 N   0  0  0  0  0  0
   17.2190  -16.8160   18.4160 C   0  0  0  0  0  0
   18.2510  -16.6980   17.7560 O   0  0  0  0  0  0
   17.1600  -16.3780   19.8820 C   0  0  0  0  0  0
   16.1200  -17.3250   17.8820 N   0  0  0  0  0  0
   16.2470  -18.0020   16.5940 C   0  0  2  0  0  0
   16.5680  -17.0840   15.3910 C   0  0  0  0  0  0
   17.2740  -17.5100   14.4660 O   0  0  0  0  0  0
   15.0440  -18.8990   16.3260 C   0  0  0  0  0  0
   13.8560  -18.1680   15.8060 C   0  0  0  0  0  0
   12.5650  -19.3100   15.2990 S   0  0  0  0  0  0
   12.1640  -20.0130   16.8770 C   0  0  0  0  0  0
   16.0920  -15.8370   15.4020 N   0  0  0  0  0  0
   16.3060  -14.9430   14.2670 C   0  0  2  0  0  0
   17.7200  -14.3860   14.2670 C   0  0  0  0  0  0
   18.3620  -14.2480   13.2090 O   0  0  0  0  0  0
   15.3110  -13.7730   14.3160 C   0  0  0  0  0  0
   18.2060  -14.0570   15.4590 N   0  0  0  0  0  0
   19.4810  -13.3590   15.5690 C   0  0  2  0  0  0
   20.5180  -14.4570   15.4700 C   0  0  0  0  0  0
   21.6870  -14.2200   15.1620 O   0  0  0  0  0  0
   19.5890  -12.6100   16.8900 C   0  0  0  0  0  0
   18.8670  -11.2590   16.8660 C   0  0  0  0  0  0
   18.4260  -10.8050   15.7880 O   0  0  0  0  0  0
   18.7570  -10.6370   17.9390 O   0  0  0  0  0  0
   23.6910  -17.6800   16.6360 O   0  0  0  0  0  0
   22.6580  -17.9440   17.2890 C   0  0  0  0  0  0
   22.4460  -19.0100   17.9040 O   0  0  0  0  0  0
   21.5820  -16.8740   17.3160 C   0  0  0  0  0  0
   21.2490  -16.4900   15.8770 C   0  0  2  0  0  0
   20.0490  -15.6550   15.8000 N   0  0  0  0  0  0
   21.0330  -17.8140   15.1600 C   0  0  0  0  0  0
   21.0120  -17.6270   13.6660 C   0  0  0  0  0  0
   22.0560  -17.7160   13.0260 O   0  0  0  0  0  0
   19.8410  -17.3480   13.1000 N   0  0  0  0  0  0
   19.7390  -17.2160   11.6430 C   0  0  2  0  0  0
   20.5590  -16.0340   11.0850 C   0  0  0  0  0  0
   21.2980  -16.1930   10.1160 O   0  0  0  0  0  0
   18.2810  -17.1390   11.1800 C   0  0  0  0  0  0
   18.1400  -17.0250    9.6570 C   0  0  0  0  0  0
   18.6990  -18.2750    9.0000 C   0  0  0  0  0  0
   16.7110  -16.8080    9.2230 C   0  0  0  0  0  0
   20.4450  -14.8600   11.6880 N   0  0  0  0  0  0
   21.2100  -13.7160   11.1890 C   0  0  2  0  0  0
   22.7150  -13.9400   11.3430 C   0  0  0  0  0  0
   23.5110  -13.4740   10.5240 O   0  0  0  0  0  0
   20.7590  -12.4260   11.8460 C   0  0  0  0  0  0
   21.0480  -11.2170   10.9910 C   0  0  0  0  0  0
   20.3970  -10.9990    9.9650 O   0  0  0  0  0  0
   22.0100  -10.4140   11.4140 N   0  0  0  0  0  0
   25.0040  -13.6330   13.5060 C   0  0  0  0  0  0
   24.5470  -14.5720   12.4030 C   0  0  2  0  0  0
   23.0770  -14.6530   12.4110 N   0  0  0  0  0  0
   25.2160  -15.9230   12.6190 C   0  0  0  0  0  0
   25.3170  -16.7360   11.3430 C   0  0  0  0  0  0
   26.3040  -16.6180   10.6250 O   0  0  0  0  0  0
   24.3060  -17.5580   11.0610 N   0  0  0  0  0  0
   24.2760  -18.3730    9.8420 C   0  0  2  0  0  0
   24.6240  -17.5850    8.5670 C   0  0  0  0  0  0
   25.3430  -18.0950    7.7120 O   0  0  0  0  0  0
   22.9120  -19.0520    9.6690 C   0  0  0  0  0  0
   22.7520  -20.3870   10.3720 C   0  0  0  0  0  0
   22.5850  -21.5370    9.3970 C   0  0  0  0  0  0
   22.7980  -21.3820    8.1950 O   0  0  0  0  0  0
   22.1980  -22.6980    9.9120 N   0  0  0  0  0  0
   24.1070  -16.3580    8.4470 N   0  0  0  0  0  0
   24.4220  -15.4660    7.3190 C   0  0  2  0  0  0
   25.1490  -14.1960    7.7800 C   0  0  0  0  0  0
   26.1760  -14.2650    8.4650 O   0  0  0  0  0  0
   23.1520  -15.0690    6.5500 C   0  0  0  0  0  0
   22.4850  -16.2100    5.8050 C   0  0  0  0  0  0
   21.5180  -16.9950    6.4230 C   0  0  0  0  0  0
   22.8190  -16.5050    4.4870 C   0  0  0  0  0  0
   20.9040  -18.0510    5.7570 C   0  0  0  0  0  0
   22.2030  -17.5620    3.8090 C   0  0  0  0  0  0
   21.2420  -18.3250    4.4520 C   0  0  0  0  0  0
   20.6160  -19.3710    3.8120 O   0  0  0  0  0  0
   24.6931  -13.0669    7.4560 O   0  0  0  0  0  0
    4.5249  -14.5822   24.4580 H   0  0  0  0  0  0
    2.8001  -14.7661   24.9251 H   0  0  0  0  0  0
    3.7899  -13.4504   25.6435 H   0  0  0  0  0  0
    3.0179  -13.8107   22.7836 H   0  0  0  0  0  0
    1.1547  -13.1127   24.2587 H   0  0  0  0  0  0
    1.6297  -11.7851   23.1457 H   0  0  0  0  0  0
    2.1451  -11.7427   24.8660 H   0  0  0  0  0  0
    3.8244  -10.9470   24.9083 H   0  0  0  0  0  0
    5.8560   -9.9133   23.0292 H   0  0  0  0  0  0
    5.8414   -9.6727   26.0617 H   0  0  0  0  0  0
    6.6593   -8.6019   24.8738 H   0  0  0  0  0  0
    4.8705   -7.3044   24.9570 H   0  0  0  0  0  0
    3.9581   -8.6034   24.1162 H   0  0  0  0  0  0
    3.5057   -9.2867   28.1061 H   0  0  0  0  0  0
    5.6304  -12.6935   25.6523 H   0  0  0  0  0  0
    8.6367  -12.3540   25.1455 H   0  0  0  0  0  0
    7.3903  -11.2007   27.2787 H   0  0  0  0  0  0
    7.6045  -12.8484   27.9611 H   0  0  0  0  0  0
    9.4537  -11.7338   28.7368 H   0  0  0  0  0  0
   10.0934  -12.5303   27.2594 H   0  0  0  0  0  0
    9.4821   -8.5454   26.4692 H   0  0  0  0  0  0
    8.7517  -14.5535   26.5476 H   0  0  0  0  0  0
    6.9949  -14.6805   26.1952 H   0  0  0  0  0  0
    6.2139  -14.9325   24.0035 H   0  0  0  0  0  0
    8.2549  -16.5890   22.6751 H   0  0  0  0  0  0
    6.5766  -17.5118   21.4090 H   0  0  0  0  0  0
    4.4580  -15.9021   20.9156 H   0  0  0  0  0  0
    5.8262  -14.7392   20.8668 H   0  0  0  0  0  0
    5.8732  -17.5427   23.8041 H   0  0  0  0  0  0
    4.4972  -17.6150   22.6517 H   0  0  0  0  0  0
    4.8778  -16.0784   23.5006 H   0  0  0  0  0  0
    5.3686  -15.6808   18.6574 H   0  0  0  0  0  0
    5.6225  -17.3401   19.2967 H   0  0  0  0  0  0
    6.9907  -16.1773   19.2480 H   0  0  0  0  0  0
    7.0642  -13.2601   22.2356 H   0  0  0  0  0  0
    8.3459  -12.8186   19.6465 H   0  0  0  0  0  0
    8.1646  -11.6003   20.9540 H   0  0  0  0  0  0
    9.6642  -12.6268   23.0033 H   0  0  0  0  0  0
   12.3101  -11.7634   21.9366 H   0  0  0  0  0  0
   11.5617  -11.1347   24.1919 H   0  0  0  0  0  0
   13.0769  -12.0956   24.2805 H   0  0  0  0  0  0
   11.5017  -12.8639   24.6746 H   0  0  0  0  0  0
   10.5228  -15.0513   22.6913 H   0  0  0  0  0  0
   13.4177  -15.6981   21.9623 H   0  0  0  0  0  0
   11.8543  -16.5235   24.4100 H   0  0  0  0  0  0
   12.9144  -17.7645   23.6598 H   0  0  0  0  0  0
   12.2490  -18.1028   21.7039 H   0  0  0  0  0  0
   10.7612  -17.1035   21.5835 H   0  0  0  0  0  0
   14.2045  -15.1320   24.0373 H   0  0  0  0  0  0
   13.6852  -15.9423   25.5539 H   0  0  0  0  0  0
   14.0108  -18.6109   23.8040 H   0  0  0  0  0  0
   15.8783  -18.9203   24.0200 H   0  0  0  0  0  0
   10.5219  -15.4973   19.8545 H   0  0  0  0  0  0
   11.7754  -16.6825   17.4778 H   0  0  0  0  0  0
   10.0382  -14.2000   17.8835 H   0  0  0  0  0  0
   10.6401  -14.6857   16.2623 H   0  0  0  0  0  0
    8.9705  -16.4717   18.0761 H   0  0  0  0  0  0
    7.7328  -14.4391   17.4318 H   0  0  0  0  0  0
    7.0927  -15.9020   16.6091 H   0  0  0  0  0  0
    8.1311  -14.7465   15.7073 H   0  0  0  0  0  0
   10.3945  -17.6372   16.3986 H   0  0  0  0  0  0
    9.6862  -16.6176   15.1004 H   0  0  0  0  0  0
    8.6478  -17.7732   16.0021 H   0  0  0  0  0  0
   12.4859  -13.8435   19.4631 H   0  0  0  0  0  0
   14.1590  -12.5548   17.3927 H   0  0  0  0  0  0
   13.1128  -11.4240   19.4283 H   0  0  0  0  0  0
   14.3162  -12.2732   20.4565 H   0  0  0  0  0  0
   16.0280  -10.9442   19.7933 H   0  0  0  0  0  0
   15.3018  -10.6044   18.1858 H   0  0  0  0  0  0
   14.9619   -8.5774   19.3424 H   0  0  0  0  0  0
   13.4001   -9.4327   19.5785 H   0  0  0  0  0  0
   15.4432   -9.9849   21.7136 H   0  0  0  0  0  0
   12.6746   -7.8374   20.5779 H   0  0  0  0  0  0
   12.3567   -7.2775   22.3711 H   0  0  0  0  0  0
   15.0741   -9.3160   23.6965 H   0  0  0  0  0  0
   14.7370  -14.9652   20.1858 H   0  0  0  0  0  0
   17.6074  -14.2731   19.3714 H   0  0  0  0  0  0
   16.3181  -14.8976   22.0867 H   0  0  0  0  0  0
   18.0866  -15.1056   21.8508 H   0  0  0  0  0  0
   17.8586  -12.6203   20.8732 H   0  0  0  0  0  0
   16.4299  -12.6069   21.9619 H   0  0  0  0  0  0
   19.2271  -12.3584   22.6526 H   0  0  0  0  0  0
   17.7967  -12.3168   23.7383 H   0  0  0  0  0  0
   18.0456  -14.7277   24.2098 H   0  0  0  0  0  0
   20.6796  -13.2714   22.1542 H   0  0  0  0  0  0
   19.3857  -16.3813   24.6736 H   0  0  0  0  0  0
   21.1362  -16.4234   23.9224 H   0  0  0  0  0  0
   18.1052  -16.6685   20.3640 H   0  0  0  0  0  0
   16.3249  -16.9076   20.3638 H   0  0  0  0  0  0
   15.1373  -17.2532   18.3711 H   0  0  0  0  0  0
   17.1417  -18.6210   16.7563 H   0  0  0  0  0  0
   15.3132  -19.6597   15.5785 H   0  0  0  0  0  0
   14.7405  -19.3942   17.2602 H   0  0  0  0  0  0
   13.4560  -17.5116   16.5929 H   0  0  0  0  0  0
   14.1502  -17.5613   14.9369 H   0  0  0  0  0  0
   11.3646  -20.7585   16.7538 H   0  0  0  0  0  0
   11.8226  -19.2181   17.5564 H   0  0  0  0  0  0
   13.0561  -20.4984   17.2995 H   0  0  0  0  0  0
   15.5322  -15.4854   16.2812 H   0  0  0  0  0  0
   16.1518  -15.5697   13.3762 H   0  0  0  0  0  0
   14.2834  -14.1654   14.3164 H   0  0  0  0  0  0
   15.4576  -13.1299   13.4357 H   0  0  0  0  0  0
   15.4798  -13.1862   15.2310 H   0  0  0  0  0  0
   17.6399  -14.3146   16.3663 H   0  0  0  0  0  0
   19.5743  -12.6077   14.7710 H   0  0  0  0  0  0
   19.1427  -13.2157   17.6925 H   0  0  0  0  0  0
   20.6482  -12.4213   17.1190 H   0  0  0  0  0  0
   17.9076   -9.8350   15.7708 H   0  0  0  0  0  0
   24.5077  -18.4146   16.5779 H   0  0  0  0  0  0
   20.6857  -17.2679   17.8176 H   0  0  0  0  0  0
   21.9525  -15.9952   17.8641 H   0  0  0  0  0  0
   22.0259  -15.8637   15.4143 H   0  0  0  0  0  0
   19.0604  -16.0928   16.0025 H   0  0  0  0  0  0
   21.8485  -18.5066   15.4155 H   0  0  0  0  0  0
   20.0718  -18.2479   15.4729 H   0  0  0  0  0  0
   18.9476  -17.2162   13.7281 H   0  0  0  0  0  0
   20.1850  -18.1538   11.2802 H   0  0  0  0  0  0
   17.7471  -18.0468   11.4975 H   0  0  0  0  0  0
   17.8006  -16.2560   11.6266 H   0  0  0  0  0  0
   18.7023  -16.1403    9.3238 H   0  0  0  0  0  0
   19.7400  -18.4244    9.3224 H   0  0  0  0  0  0
   18.6666  -18.1602    7.9065 H   0  0  0  0  0  0
   18.0952  -19.1457    9.2953 H   0  0  0  0  0  0
   16.3155  -15.9011    9.7038 H   0  0  0  0  0  0
   16.1023  -17.6751    9.5189 H   0  0  0  0  0  0
   16.6737  -16.6896    8.1300 H   0  0  0  0  0  0
   19.7817  -14.7410   12.5574 H   0  0  0  0  0  0
   20.9734  -13.6522   10.1166 H   0  0  0  0  0  0
   19.6744  -12.4654   12.0250 H   0  0  0  0  0  0
   21.2844  -12.2993   12.8041 H   0  0  0  0  0  0
   22.5608  -10.6535   12.3356 H   0  0  0  0  0  0
   22.2593   -9.5067   10.8443 H   0  0  0  0  0  0
   24.5317  -12.6491   13.3690 H   0  0  0  0  0  0
   26.0978  -13.5237   13.4646 H   0  0  0  0  0  0
   24.7135  -14.0463   14.4831 H   0  0  0  0  0  0
   24.8067  -14.1997   11.4010 H   0  0  0  0  0  0
   22.5617  -15.2201   13.2002 H   0  0  0  0  0  0
   26.2354  -15.7701   13.0029 H   0  0  0  0  0  0
   24.6342  -16.5082   13.3464 H   0  0  0  0  0  0
   23.4751  -17.6128   11.7798 H   0  0  0  0  0  0
   25.0674  -19.1146   10.0258 H   0  0  0  0  0  0
   22.1230  -18.3963   10.0660 H   0  0  0  0  0  0
   22.7291  -19.2405    8.6008 H   0  0  0  0  0  0
   23.6431  -20.5878   10.9849 H   0  0  0  0  0  0
   21.8620  -20.3570   11.0178 H   0  0  0  0  0  0
   22.0198  -22.7877   10.9937 H   0  0  0  0  0  0
   22.0556  -23.5701    9.2569 H   0  0  0  0  0  0
   23.4194  -16.0231    9.2376 H   0  0  0  0  0  0
   25.0878  -16.0674    6.6826 H   0  0  0  0  0  0
   22.4076  -14.6681    7.2536 H   0  0  0  0  0  0
   23.4008  -14.3012    5.8026 H   0  0  0  0  0  0
   21.2345  -16.7781    7.4529 H   0  0  0  0  0  0
   23.5711  -15.9041    3.9757 H   0  0  0  0  0  0
   20.1575  -18.6593    6.2677 H   0  0  0  0  0  0
   22.4782  -17.7846    2.7781 H   0  0  0  0  0  0
   19.8557  -19.9639    4.3415 H   0  0  0  0  0  0
   25.2083  -12.1514    7.7824 H   0  0  0  0  0  0
  1  2  1  0  0  0
  1157  1  0  0  0
  1158  1  0  0  0
  1159  1  0  0  0
  2  3  1  0  0  0
  2  5  1  0  0  0
  2160  1  0  0  0
  3  4  2  0  0  0
  3  6  1  0  0  0
  5161  1  0  0  0
  5162  1  0  0  0
  5163  1  0  0  0
  6  7  1  0  0  0
  6164  1  0  0  0
  7  8  1  0  0  0
  7 10  1  0  0  0
  7165  1  0  0  0
  8  9  2  0  0  0
  8 15  1  0  0  0
 10 11  1  0  0  0
 10166  1  0  0  0
 10167  1  0  0  0
 11 12  1  0  0  0
 11168  1  0  0  0
 11169  1  0  0  0
 12 13  1  0  0  0
 12 14  2  0  0  0
 13170  1  0  0  0
 15 16  1  0  0  0
 15171  1  0  0  0
 16 17  1  0  0  0
 16 22  1  0  0  0
 16172  1  0  0  0
 17 18  1  0  0  0
 17173  1  0  0  0
 17174  1  0  0  0
 18 19  1  0  0  0
 18175  1  0  0  0
 18176  1  0  0  0
 19 20  2  0  0  0
 19 21  1  0  0  0
 21177  1  0  0  0
 22 23  1  0  0  0
 22178  1  0  0  0
 22179  1  0  0  0
 23 24  2  0  0  0
 23 25  1  0  0  0
 25 26  1  0  0  0
 25180  1  0  0  0
 26 27  1  0  0  0
 26 29  1  0  0  0
 26181  1  0  0  0
 27 28  2  0  0  0
 27 33  1  0  0  0
 29 30  1  0  0  0
 29 31  1  0  0  0
 29182  1  0  0  0
 30 32  1  0  0  0
 30183  1  0  0  0
 30184  1  0  0  0
 31185  1  0  0  0
 31186  1  0  0  0
 31187  1  0  0  0
 32188  1  0  0  0
 32189  1  0  0  0
 32190  1  0  0  0
 33 34  1  0  0  0
 33191  1  0  0  0
 34 35  1  0  0  0
 34192  1  0  0  0
 34193  1  0  0  0
 35 36  2  0  0  0
 35 37  1  0  0  0
 37 38  1  0  0  0
 37194  1  0  0  0
 38 39  1  0  0  0
 38 41  1  0  0  0
 38195  1  0  0  0
 39 40  2  0  0  0
 39 42  1  0  0  0
 41196  1  0  0  0
 41197  1  0  0  0
 41198  1  0  0  0
 42 43  1  0  0  0
 42199  1  0  0  0
 43 44  1  0  0  0
 43 45  1  0  0  0
 43200  1  0  0  0
 44 48  1  0  0  0
 44201  1  0  0  0
 44202  1  0  0  0
 45 46  1  0  0  0
 45203  1  0  0  0
 45204  1  0  0  0
 46 47  2  0  0  0
 46 52  1  0  0  0
 48 49  1  0  0  0
 48205  1  0  0  0
 48206  1  0  0  0
 49 50  1  0  0  0
 49 51  2  0  0  0
 50207  1  0  0  0
 50208  1  0  0  0
 52 53  1  0  0  0
 52209  1  0  0  0
 53 54  1  0  0  0
 53 56  1  0  0  0
 53210  1  0  0  0
 54 55  2  0  0  0
 54 60  1  0  0  0
 56 57  1  0  0  0
 56211  1  0  0  0
 56212  1  0  0  0
 57 58  1  0  0  0
 57 59  1  0  0  0
 57213  1  0  0  0
 58214  1  0  0  0
 58215  1  0  0  0
 58216  1  0  0  0
 59217  1  0  0  0
 59218  1  0  0  0
 59219  1  0  0  0
 60 61  1  0  0  0
 60220  1  0  0  0
 61 62  1  0  0  0
 61 64  1  0  0  0
 61221  1  0  0  0
 62 63  2  0  0  0
 62 71  1  0  0  0
 64 65  1  0  0  0
 64222  1  0  0  0
 64223  1  0  0  0
 65 66  1  0  0  0
 65224  1  0  0  0
 65225  1  0  0  0
 66 67  1  0  0  0
 66226  1  0  0  0
 66227  1  0  0  0
 67 68  1  0  0  0
 67228  1  0  0  0
 68 69  1  0  0  0
 68 70  2  0  0  0
 69229  1  0  0  0
 69230  1  0  0  0
 70231  1  0  0  0
 71 72  1  0  0  0
 71232  1  0  0  0
 72 73  1  0  0  0
 72 82  1  0  0  0
 72233  1  0  0  0
 73 74  1  0  0  0
 73234  1  0  0  0
 73235  1  0  0  0
 74 75  1  0  0  0
 74236  1  0  0  0
 74237  1  0  0  0
 75 76  1  0  0  0
 75238  1  0  0  0
 75239  1  0  0  0
 76 77  1  0  0  0
 76240  1  0  0  0
 77 78  2  0  0  0
 77 79  1  0  0  0
 78241  1  0  0  0
 79242  1  0  0  0
 79243  1  0  0  0
 80 81  2  0  0  0
 80 82  1  0  0  0
 80 83  1  0  0  0
 82244  1  0  0  0
 82245  1  0  0  0
 83 84  1  0  0  0
 83246  1  0  0  0
 84 85  1  0  0  0
 84 87  1  0  0  0
 84247  1  0  0  0
 85 86  2  0  0  0
 85 91  1  0  0  0
 87 88  1  0  0  0
 87248  1  0  0  0
 87249  1  0  0  0
 88 89  1  0  0  0
 88250  1  0  0  0
 88251  1  0  0  0
 89 90  1  0  0  0
 90252  1  0  0  0
 90253  1  0  0  0
 90254  1  0  0  0
 91 92  1  0  0  0
 91255  1  0  0  0
 92 93  1  0  0  0
 92 95  1  0  0  0
 92256  1  0  0  0
 93 94  2  0  0  0
 93 96  1  0  0  0
 95257  1  0  0  0
 95258  1  0  0  0
 95259  1  0  0  0
 96 97  1  0  0  0
 96260  1  0  0  0
 97 98  1  0  0  0
 97100  1  0  0  0
 97261  1  0  0  0
 98 99  2  0  0  0
 98109  1  0  0  0
100101  1  0  0  0
100262  1  0  0  0
100263  1  0  0  0
101102  1  0  0  0
101103  2  0  0  0
102264  1  0  0  0
104105  1  0  0  0
104265  1  0  0  0
105106  2  0  0  0
105107  1  0  0  0
107108  1  0  0  0
107266  1  0  0  0
107267  1  0  0  0
108109  1  0  0  0
108110  1  0  0  0
108268  1  0  0  0
109269  1  0  0  0
110111  1  0  0  0
110270  1  0  0  0
110271  1  0  0  0
111112  2  0  0  0
111113  1  0  0  0
113114  1  0  0  0
113272  1  0  0  0
114115  1  0  0  0
114117  1  0  0  0
114273  1  0  0  0
115116  2  0  0  0
115121  1  0  0  0
117118  1  0  0  0
117274  1  0  0  0
117275  1  0  0  0
118119  1  0  0  0
118120  1  0  0  0
118276  1  0  0  0
119277  1  0  0  0
119278  1  0  0  0
119279  1  0  0  0
120280  1  0  0  0
120281  1  0  0  0
120282  1  0  0  0
121122  1  0  0  0
121283  1  0  0  0
122123  1  0  0  0
122125  1  0  0  0
122284  1  0  0  0
123124  2  0  0  0
123131  1  0  0  0
125126  1  0  0  0
125285  1  0  0  0
125286  1  0  0  0
126127  2  0  0  0
126128  1  0  0  0
128287  1  0  0  0
128288  1  0  0  0
129130  1  0  0  0
129289  1  0  0  0
129290  1  0  0  0
129291  1  0  0  0
130131  1  0  0  0
130132  1  0  0  0
130292  1  0  0  0
131293  1  0  0  0
132133  1  0  0  0
132294  1  0  0  0
132295  1  0  0  0
133134  2  0  0  0
133135  1  0  0  0
135136  1  0  0  0
135296  1  0  0  0
136137  1  0  0  0
136139  1  0  0  0
136297  1  0  0  0
137138  2  0  0  0
137144  1  0  0  0
139140  1  0  0  0
139298  1  0  0  0
139299  1  0  0  0
140141  1  0  0  0
140300  1  0  0  0
140301  1  0  0  0
141142  2  0  0  0
141143  1  0  0  0
143302  1  0  0  0
143303  1  0  0  0
144145  1  0  0  0
144304  1  0  0  0
145146  1  0  0  0
145148  1  0  0  0
145305  1  0  0  0
146147  2  0  0  0
146156  1  0  0  0
148149  1  0  0  0
148306  1  0  0  0
148307  1  0  0  0
149150  2  0  0  0
149151  1  0  0  0
150152  1  0  0  0
150308  1  0  0  0
151153  2  0  0  0
151309  1  0  0  0
152154  2  0  0  0
152310  1  0  0  0
153154  1  0  0  0
153311  1  0  0  0
154155  1  0  0  0
155312  1  0  0  0
156313  1  0  0  0
M  CHG  1   1   1
M  END
> <s_m_source_file>
../4bpi_ligand.sdf

> <i_m_source_file_index>
1

> <s_epik_input>
W05IMytdW0NAQEhdKFtDSDNdKUMoPU8pW05IXVtDQEBIXShbQ0gyXVtDSDJdQyg9TylbT0hdKUMoPU8pW05IXVtDQEBIXShbQ0gyXVtDSDJdQyg9TylbT0hdKVtDSDJdQyg9TylbTkhdW0NAQEhdKFtDQEBIXShbQ0gzXSlbQ0gyXVtDSDNdKUMoPU8pW05IXVtDSDJdQyg9TylbTkhdW0NAQEhdKFtDSDNdKUMoPU8pW05IXVtDQEBIXShbQ0gyXVtDSDJdQyg9TylbTkgyXSlbQ0gyXUMoPU8pW05IXVtDQEBIXShbQ0gyXVtDSF0oW0NIM10pW0NIM10pQyg9TylbTkhdW0NAQEhdKFtDSDJdW0NIMl1bQ0gyXVtOSF0vQyhbTkgyXSk9TlxbSF0pQyg9TylbTkhdW0NAQEhdKFtDSDJdW0NIMl1bQ0gyXVtOSF0vQyg9TlxbSF0pW05IMl0pW0NIMl1DKD1PKVtOSF1bQ0BASF0oW0NIMl1bQ0gyXVNbQ0gzXSlDKD1PKVtOSF1bQ0BASF0oW0NIM10pQyg9TylbTkhdW0NAQEhdKFtDSDJdQyg9TylbT0hdKUMoPU8pW05IXVtDQEBIXShbQ0gyXUMoPU8pW09IXSlbQ0gyXUMoPU8pW05IXVtDQEBIXShbQ0gyXVtDSF0oW0NIM10pW0NIM10pQyg9TylbTkhdW0NAQEhdKFtDSDJdQyg9TylbTkgyXSlDKD1PKVtOSF1bQ0BASF0oW0NIM10pW0NIMl1DKD1PKVtOSF1bQ0BASF0oW0NIMl1bQ0gyXUMoPU8pW05IMl0pQyg9TylbTkhdW0NASF0oQyg9TylbT0hdKVtDSDJdYzFbY0hdW2NIXWMoW09IXSlbY0hdW2NIXTE=

> <s_epik_cmdline>
J2VwaWtfYXBwJywgJy1pbWFlJywgJ2xpZ2FuZF9wcm8ubWFlJywgJy1vbWFlJywgJ2xpZ2FuZF9wcmVwLm1hZScsICctbXMnLCAnMScsICctcGgnLCAnNycsICctcGh0JywgJzAuNScsICctbnQn

> <s_epik_pKa_notes>
Molecule size exceeds maximum supported for generating protonation states

> <s_epik_Chemistry_Notes>
This compound has an imine and may undergo hydrolysis.

$$$$
