4bpj_ligand
                    3D
 Schrodinger Suite 2020-3.
298298  0  0  1  0            999 V2000
   -1.9180   20.8810   20.4110 N   0  3  0  0  0  0
   -1.6850   19.6520   19.6560 C   0  0  2  0  0  0
   -0.3210   19.6660   18.9800 C   0  0  0  0  0  0
    0.2770   20.7320   18.7870 O   0  0  0  0  0  0
   -2.7830   19.4440   18.6320 C   0  0  0  0  0  0
    0.1670   18.4800   18.6190 N   0  0  0  0  0  0
    1.4840   18.3510   18.0060 C   0  0  2  0  0  0
    1.5820   19.1180   16.6890 C   0  0  0  0  0  0
    2.5510   19.8330   16.4470 O   0  0  0  0  0  0
    1.8720   16.8790   17.7790 C   0  0  2  0  0  0
    3.0560   16.7990   16.8160 C   0  0  0  0  0  0
    0.6820   16.0940   17.2510 C   0  0  0  0  0  0
    3.6600   15.4430   16.6440 C   0  0  0  0  0  0
    0.5530   18.9740   15.8590 N   0  0  0  0  0  0
    0.5180   19.6160   14.5430 C   0  0  2  0  0  0
    1.4970   18.9490   13.5870 C   0  0  0  0  0  0
    0.7500   21.1270   14.5990 C   0  0  0  0  0  0
    1.7580   21.6290   14.0780 O   0  0  0  0  0  0
   -0.1880   21.8310   15.2350 N   0  0  0  0  0  0
   -0.1750   23.2930   15.3510 C   0  0  2  0  0  0
    0.9850   23.7700   16.2120 C   0  0  0  0  0  0
    1.5780   24.8340   15.9520 O   0  0  0  0  0  0
   -1.4930   23.7850   15.9300 C   0  0  0  0  0  0
    1.2320   23.0070   17.2730 N   0  0  0  0  0  0
    2.1660   23.6340   18.2120 C   0  0  1  0  0  0
    1.5350   23.8750   19.5910 C   0  0  0  0  0  0
    3.4150   22.7780   18.3520 C   0  0  0  0  0  0
    4.3750   22.9870   17.1860 C   0  0  0  0  0  0
    5.0740   23.9970   17.1530 O   0  0  0  0  0  0
    0.3740   24.8640   19.6190 C   0  0  0  0  0  0
    0.7280   26.2600   19.1200 C   0  0  0  0  0  0
   -0.2370   26.9420   18.5260 N   0  0  0  0  0  0
    1.8610   26.7190   19.2520 O   0  0  0  0  0  0
    4.4040   22.0680   16.2170 N   0  0  0  0  0  0
    5.3800   22.1590   15.1500 C   0  0  2  0  0  0
    5.1700   23.3390   14.2220 C   0  0  0  0  0  0
    6.1330   24.0060   13.8500 O   0  0  0  0  0  0
    5.3810   20.8800   14.3120 C   0  0  0  0  0  0
    5.9740   19.7020   15.0730 C   0  0  0  0  0  0
    5.7280   18.4240   14.2910 C   0  0  0  0  0  0
    7.4640   19.8890   15.2680 C   0  0  0  0  0  0
    3.9220   23.5760   13.8260 N   0  0  0  0  0  0
    3.6440   24.5910   12.8080 C   0  0  2  0  0  0
    3.9620   25.9800   13.3520 C   0  0  0  0  0  0
    4.6350   26.7630   12.6810 O   0  0  0  0  0  0
    2.2020   24.5210   12.3360 C   0  0  0  0  0  0
    1.8920   25.5180   11.2220 C   0  0  0  0  0  0
    0.4060   25.5930   10.9990 C   0  0  0  0  0  0
   -0.0870   24.4450   10.2290 N   0  0  0  0  0  0
   -1.3570   24.0490   10.1960 C   0  0  0  0  0  0
   -2.2890   24.6890   10.8990 N   0  0  0  0  0  0
   -1.7080   22.9940    9.4640 N   0  0  0  0  0  0
    3.3940   26.2690   14.5250 N   0  0  0  0  0  0
    3.4820   27.6500   14.9970 C   0  0  1  0  0  0
    2.0870   28.1490   15.3840 C   0  0  0  0  0  0
    1.1000   28.0030   14.2330 C   0  0  0  0  0  0
    0.0400   29.0900   14.2920 C   0  0  0  0  0  0
   -0.7100   29.0730   15.5400 N   0  0  0  0  0  0
   -1.7960   29.8060   15.7430 C   0  0  0  0  0  0
   -2.2320   30.6080   14.7800 N   0  0  0  0  0  0
   -2.4350   29.7420   16.9030 N   0  0  0  0  0  0
    5.8440   27.7700   15.9110 C   0  0  0  0  0  0
    6.3000   28.7700   15.3690 O   0  0  0  0  0  0
    4.3580   27.7090   16.2420 C   0  0  0  0  0  0
    6.5720   26.7020   16.2310 N   0  0  0  0  0  0
    8.0220   26.6510   16.0480 C   0  0  2  0  0  0
    8.4570   27.0570   14.6460 C   0  0  0  0  0  0
    9.3190   27.9120   14.4690 O   0  0  0  0  0  0
    8.5370   25.2390   16.3230 C   0  0  0  0  0  0
    8.1800   24.7180   17.6890 C   0  0  0  0  0  0
    8.6470   23.0010   17.8820 S   0  0  0  0  0  0
    7.7710   22.6350   19.3840 C   0  0  0  0  0  0
    7.8410   26.4320   13.6560 N   0  0  0  0  0  0
    8.2600   26.5810   12.2660 C   0  0  2  0  0  0
    8.0280   27.9680   11.6890 C   0  0  0  0  0  0
    8.9370   28.5410   11.0720 O   0  0  0  0  0  0
    7.5650   25.5410   11.4010 C   0  0  0  0  0  0
    6.8100   28.4870   11.8560 N   0  0  0  0  0  0
    6.4390   29.7780   11.2570 C   0  0  2  0  0  0
    7.0560   30.9040   12.0610 C   0  0  0  0  0  0
    7.3590   31.9700   11.5070 O   0  0  0  0  0  0
    4.9230   29.9480   11.2080 C   0  0  0  0  0  0
    4.2700   29.1160   10.1180 C   0  0  0  0  0  0
    4.9890   28.5090    9.2750 O   0  0  0  0  0  0
    3.0210   29.0920   10.0910 O   0  0  0  0  0  0
    6.9970   33.1890   17.2300 O   0  0  0  0  0  0
    6.7630   33.3850   16.0280 C   0  0  0  0  0  0
    6.8040   34.5220   15.5050 O   0  0  0  0  0  0
    6.4110   32.1750   15.1820 C   0  0  0  0  0  0
    7.4980   31.8320   14.1590 C   0  0  2  0  0  0
    7.1330   30.6540   13.3690 N   0  0  0  0  0  0
    8.7810   31.5430   14.9210 C   0  0  0  0  0  0
    9.9840   31.5780   14.0180 C   0  0  0  0  0  0
   10.4690   32.6640   13.6980 O   0  0  0  0  0  0
   10.4560   30.4120   13.5870 N   0  0  0  0  0  0
   11.6900   30.3500   12.8060 C   0  0  2  0  0  0
   11.5980   31.1000   11.4720 C   0  0  0  0  0  0
   12.4780   31.9000   11.1480 O   0  0  0  0  0  0
   12.1340   28.9010   12.5770 C   0  0  0  0  0  0
   13.5000   28.7310   11.9030 C   0  0  0  0  0  0
   14.6100   29.3700   12.7210 C   0  0  0  0  0  0
   13.7860   27.2650   11.6730 C   0  0  0  0  0  0
   10.5500   30.8370   10.6990 N   0  0  0  0  0  0
   10.4440   31.4300    9.3670 C   0  0  2  0  0  0
   10.3260   32.9270    9.4900 C   0  0  0  0  0  0
   10.9330   33.6690    8.7160 O   0  0  0  0  0  0
    9.2750   30.8510    8.5780 C   0  0  0  0  0  0
    9.4670   31.0240    7.0830 C   0  0  0  0  0  0
   10.2720   30.3160    6.4800 O   0  0  0  0  0  0
    8.7440   31.9640    6.4850 N   0  0  0  0  0  0
    7.8580   35.1270    9.9760 C   0  0  0  0  0  0
    9.2960   34.7750   10.3350 C   0  0  2  0  0  0
    9.4840   33.3320   10.4390 N   0  0  0  0  0  0
    9.6440   35.3900   11.6630 C   0  0  0  0  0  0
   11.1080   35.7240   11.7210 C   0  0  0  0  0  0
   11.5000   36.7800   11.2310 O   0  0  0  0  0  0
   11.9170   34.8440   12.3050 N   0  0  0  0  0  0
   13.3400   35.1350   12.4870 C   0  0  2  0  0  0
   14.0450   35.3900   11.1660 C   0  0  0  0  0  0
   14.8580   36.3040   11.0620 O   0  0  0  0  0  0
   14.0460   33.9970   13.2210 C   0  0  0  0  0  0
   13.5680   33.7710   14.6370 C   0  0  0  0  0  0
   14.3670   32.6910   15.3390 C   0  0  0  0  0  0
   15.5730   32.5680   15.1330 O   0  0  0  0  0  0
   13.6960   31.8980   16.1660 N   0  0  0  0  0  0
   13.7290   34.5880   10.1530 N   0  0  0  0  0  0
   14.4130   34.7070    8.8650 C   0  0  2  0  0  0
   13.6640   35.5160    7.8020 C   0  0  0  0  0  0
   14.0220   35.4840    6.6240 O   0  0  0  0  0  0
   14.8180   33.3260    8.3380 C   0  0  0  0  0  0
   16.0190   32.7870    9.0690 C   0  0  0  0  0  0
   17.3040   33.0960    8.6420 C   0  0  0  0  0  0
   15.8730   32.0030   10.2040 C   0  0  0  0  0  0
   18.4090   32.6270    9.3100 C   0  0  0  0  0  0
   16.9800   31.5270   10.8870 C   0  0  0  0  0  0
   18.2450   31.8440   10.4280 C   0  0  0  0  0  0
   19.3580   31.3870   11.0890 O   0  0  0  0  0  0
   12.6420   36.2510    8.2320 N   0  0  0  0  0  0
   11.8550   37.0990    7.3300 C   0  0  2  0  0  0
   11.3390   36.3640    6.0880 C   0  0  0  0  0  0
   11.4870   36.8470    4.9630 O   0  0  0  0  0  0
   12.6590   38.3490    6.9430 C   0  0  0  0  0  0
   13.0740   39.1700    8.1490 C   0  0  0  0  0  0
   13.7180   40.4970    7.7830 C   0  0  0  0  0  0
   14.5770   40.5180    6.8790 O   0  0  0  0  0  0
   13.3660   41.5200    8.4030 O   0  0  0  0  0  0
   10.7330   35.1980    6.3000 N   0  0  0  0  0  0
   -1.1132   21.0164   21.1485 H   0  0  0  0  0  0
   -2.8848   20.8139   20.9314 H   0  0  0  0  0  0
   -1.9314   21.7379   19.7215 H   0  0  0  0  0  0
   -1.7109   18.8399   20.3975 H   0  0  0  0  0  0
   -3.7597   19.4367   19.1380 H   0  0  0  0  0  0
   -2.6287   18.4833   18.1190 H   0  0  0  0  0  0
   -2.7574   20.2610   17.8959 H   0  0  0  0  0  0
   -0.4486   17.5852   18.7932 H   0  0  0  0  0  0
    2.1491   18.8120   18.7511 H   0  0  0  0  0  0
    2.1696   16.4206   18.7336 H   0  0  0  0  0  0
    2.7368   17.1239   15.8147 H   0  0  0  0  0  0
    3.8644   17.4538   17.1735 H   0  0  0  0  0  0
   -0.1526   16.1699   17.9635 H   0  0  0  0  0  0
    0.9646   15.0380   17.1284 H   0  0  0  0  0  0
    0.3730   16.5061   16.2791 H   0  0  0  0  0  0
    4.4982   15.5023   15.9341 H   0  0  0  0  0  0
    2.8994   14.7494   16.2562 H   0  0  0  0  0  0
    4.0270   15.0792   17.6151 H   0  0  0  0  0  0
   -0.2900   18.3489   16.1886 H   0  0  0  0  0  0
   -0.5133   19.4488   14.1987 H   0  0  0  0  0  0
    1.3084   17.8655   13.5660 H   0  0  0  0  0  0
    2.5263   19.1355   13.9272 H   0  0  0  0  0  0
    1.3637   19.3641   12.5771 H   0  0  0  0  0  0
   -1.0053   21.2506   15.6879 H   0  0  0  0  0  0
   -0.0428   23.6741   14.3276 H   0  0  0  0  0  0
   -2.3238   23.4345   15.3000 H   0  0  0  0  0  0
   -1.4931   24.8846   15.9587 H   0  0  0  0  0  0
   -1.6150   23.3916   16.9500 H   0  0  0  0  0  0
    0.8204   22.0102   17.4897 H   0  0  0  0  0  0
    2.4131   24.6052   17.7585 H   0  0  0  0  0  0
    1.1433   22.9260   19.9859 H   0  0  0  0  0  0
    2.2966   24.2716   20.2785 H   0  0  0  0  0  0
    3.9381   23.0422   19.2829 H   0  0  0  0  0  0
    3.1303   21.7158   18.3801 H   0  0  0  0  0  0
   -0.4408   24.4910   18.9811 H   0  0  0  0  0  0
    0.0105   24.9736   20.6514 H   0  0  0  0  0  0
   -1.2398   26.5014   18.4246 H   0  0  0  0  0  0
   -0.0368   27.9499   18.1334 H   0  0  0  0  0  0
    3.6814   21.2388   16.2322 H   0  0  0  0  0  0
    6.3185   22.3095   15.7036 H   0  0  0  0  0  0
    4.3484   20.6242   14.0322 H   0  0  0  0  0  0
    5.9789   21.0381   13.4023 H   0  0  0  0  0  0
    5.4964   19.6382   16.0619 H   0  0  0  0  0  0
    4.6464   18.2846   14.1472 H   0  0  0  0  0  0
    6.1371   17.5685   14.8485 H   0  0  0  0  0  0
    6.2223   18.4931   13.3108 H   0  0  0  0  0  0
    7.6464   20.8142   15.8344 H   0  0  0  0  0  0
    7.9566   19.9566   14.2868 H   0  0  0  0  0  0
    7.8713   19.0321   15.8245 H   0  0  0  0  0  0
    3.0956   23.0018   14.2703 H   0  0  0  0  0  0
    4.3027   24.3543   11.9594 H   0  0  0  0  0  0
    1.9908   23.5124   11.9511 H   0  0  0  0  0  0
    1.5294   24.7403   13.1783 H   0  0  0  0  0  0
    2.2665   26.5127   11.5055 H   0  0  0  0  0  0
    2.3819   25.1931   10.2923 H   0  0  0  0  0  0
   -0.1103   25.6053   11.9702 H   0  0  0  0  0  0
    0.1644   26.5113   10.4436 H   0  0  0  0  0  0
    0.6115   23.8466    9.6256 H   0  0  0  0  0  0
   -2.0149   25.5625   11.5088 H   0  0  0  0  0  0
   -3.3332   24.3443   10.8701 H   0  0  0  0  0  0
   -0.9496   22.4546    8.8776 H   0  0  0  0  0  0
    2.8738   25.5127   15.1311 H   0  0  0  0  0  0
    3.9138   28.2354   14.1719 H   0  0  0  0  0  0
    1.7129   27.5657   16.2383 H   0  0  0  0  0  0
    2.1418   29.2120   15.6617 H   0  0  0  0  0  0
    1.6376   28.0828   13.2766 H   0  0  0  0  0  0
    0.6064   27.0219   14.2954 H   0  0  0  0  0  0
    0.5199   30.0755   14.1996 H   0  0  0  0  0  0
   -0.6740   28.9511   13.4668 H   0  0  0  0  0  0
   -0.3818   28.4304   16.3702 H   0  0  0  0  0  0
   -1.6970   30.6562   13.8201 H   0  0  0  0  0  0
   -3.1284   31.2247   14.9416 H   0  0  0  0  0  0
   -2.0681   29.0750   17.6970 H   0  0  0  0  0  0
    4.1052   28.6062   16.8260 H   0  0  0  0  0  0
    4.1852   26.8120   16.8548 H   0  0  0  0  0  0
    6.0395   25.8347   16.6483 H   0  0  0  0  0  0
    8.4058   27.3841   16.7727 H   0  0  0  0  0  0
    8.1099   24.5429   15.5861 H   0  0  0  0  0  0
    9.6342   25.2273   16.2454 H   0  0  0  0  0  0
    8.7039   25.3085   18.4551 H   0  0  0  0  0  0
    7.0938   24.8015   17.8410 H   0  0  0  0  0  0
    7.9473   21.5862   19.6650 H   0  0  0  0  0  0
    6.6941   22.7971   19.2292 H   0  0  0  0  0  0
    8.1293   23.2952   20.1876 H   0  0  0  0  0  0
    6.9884   25.7839   13.9070 H   0  0  0  0  0  0
    9.3475   26.4210   12.3080 H   0  0  0  0  0  0
    7.7361   24.5396   11.8229 H   0  0  0  0  0  0
    7.9712   25.5829   10.3796 H   0  0  0  0  0  0
    6.4850   25.7483   11.3749 H   0  0  0  0  0  0
    6.0769   27.9282   12.4562 H   0  0  0  0  0  0
    6.8386   29.7742   10.2322 H   0  0  0  0  0  0
    4.4882   29.6400   12.1704 H   0  0  0  0  0  0
    4.6783   31.0031   11.0160 H   0  0  0  0  0  0
    4.5190   27.9056    8.4844 H   0  0  0  0  0  0
    7.0589   35.3999   16.1168 H   0  0  0  0  0  0
    6.2736   31.2995   15.8336 H   0  0  0  0  0  0
    5.4797   32.3715   14.6306 H   0  0  0  0  0  0
    7.6211   32.6505   13.4345 H   0  0  0  0  0  0
    6.9544   29.6904   13.8687 H   0  0  0  0  0  0
    8.9174   32.2982   15.7091 H   0  0  0  0  0  0
    8.7194   30.5440   15.3773 H   0  0  0  0  0  0
    9.9079   29.4881   13.8237 H   0  0  0  0  0  0
   12.4141   30.8730   13.4480 H   0  0  0  0  0  0
   12.1968   28.3797   13.5436 H   0  0  0  0  0  0
   11.4031   28.3911   11.9322 H   0  0  0  0  0  0
   13.4768   29.2388   10.9275 H   0  0  0  0  0  0
   14.3837   30.4351   12.8773 H   0  0  0  0  0  0
   15.5644   29.2731   12.1828 H   0  0  0  0  0  0
   14.6853   28.8643   13.6950 H   0  0  0  0  0  0
   12.9725   26.8213   11.0802 H   0  0  0  0  0  0
   13.8573   26.7489   12.6418 H   0  0  0  0  0  0
   14.7364   27.1577   11.1296 H   0  0  0  0  0  0
    9.7587   30.1678   11.0677 H   0  0  0  0  0  0
   11.3758   31.1736    8.8416 H   0  0  0  0  0  0
    9.1839   29.7761    8.7934 H   0  0  0  0  0  0
    8.3463   31.3634    8.8695 H   0  0  0  0  0  0
    8.0374   32.5703    7.0708 H   0  0  0  0  0  0
    8.8517   32.1362    5.4039 H   0  0  0  0  0  0
    7.6021   34.6779    9.0050 H   0  0  0  0  0  0
    7.7528   36.2202    9.9135 H   0  0  0  0  0  0
    7.1809   34.7371   10.7502 H   0  0  0  0  0  0
    9.9662   35.1287    9.5377 H   0  0  0  0  0  0
    8.9596   32.7640   11.2216 H   0  0  0  0  0  0
    9.0613   36.3123   11.8039 H   0  0  0  0  0  0
    9.4073   34.6800   12.4692 H   0  0  0  0  0  0
   11.5025   33.8864   12.6532 H   0  0  0  0  0  0
   13.3494   36.0551   13.0897 H   0  0  0  0  0  0
   13.8869   33.0548   12.6761 H   0  0  0  0  0  0
   15.1236   34.2102   13.2779 H   0  0  0  0  0  0
   13.6706   34.7033   15.2118 H   0  0  0  0  0  0
   12.5120   33.4633   14.6228 H   0  0  0  0  0  0
   12.6168   32.0480   16.3173 H   0  0  0  0  0  0
   14.2193   31.0910   16.6998 H   0  0  0  0  0  0
   12.9445   33.8294   10.2911 H   0  0  0  0  0  0
   15.2999   35.3032    9.1256 H   0  0  0  0  0  0
   13.9833   32.6226    8.4736 H   0  0  0  0  0  0
   15.0654   33.3997    7.2687 H   0  0  0  0  0  0
   17.4382   33.7225    7.7602 H   0  0  0  0  0  0
   14.8735   31.7582   10.5633 H   0  0  0  0  0  0
   19.4097   32.8742    8.9557 H   0  0  0  0  0  0
   16.8552   30.9094   11.7764 H   0  0  0  0  0  0
   20.3616   31.6430   10.7184 H   0  0  0  0  0  0
   12.3940   36.2084    9.3028 H   0  0  0  0  0  0
   10.9724   37.3724    7.9269 H   0  0  0  0  0  0
   13.5720   38.0469    6.4090 H   0  0  0  0  0  0
   12.0481   38.9906    6.2909 H   0  0  0  0  0  0
   12.1893   39.3907    8.7643 H   0  0  0  0  0  0
   13.8032   38.6024    8.7457 H   0  0  0  0  0  0
   15.0562   41.4673    6.5976 H   0  0  0  0  0  0
   10.6269   34.8115    7.3244 H   0  0  0  0  0  0
   10.3383   34.6209    5.4508 H   0  0  0  0  0  0
  1  2  1  0  0  0
  1148  1  0  0  0
  1149  1  0  0  0
  1150  1  0  0  0
  2  3  1  0  0  0
  2  5  1  0  0  0
  2151  1  0  0  0
  3  4  2  0  0  0
  3  6  1  0  0  0
  5152  1  0  0  0
  5153  1  0  0  0
  5154  1  0  0  0
  6  7  1  0  0  0
  6155  1  0  0  0
  7  8  1  0  0  0
  7 10  1  0  0  0
  7156  1  0  0  0
  8  9  2  0  0  0
  8 14  1  0  0  0
 10 11  1  0  0  0
 10 12  1  0  0  0
 10157  1  0  0  0
 11 13  1  0  0  0
 11158  1  0  0  0
 11159  1  0  0  0
 12160  1  0  0  0
 12161  1  0  0  0
 12162  1  0  0  0
 13163  1  0  0  0
 13164  1  0  0  0
 13165  1  0  0  0
 14 15  1  0  0  0
 14166  1  0  0  0
 15 16  1  0  0  0
 15 17  1  0  0  0
 15167  1  0  0  0
 16168  1  0  0  0
 16169  1  0  0  0
 16170  1  0  0  0
 17 18  2  0  0  0
 17 19  1  0  0  0
 19 20  1  0  0  0
 19171  1  0  0  0
 20 21  1  0  0  0
 20 23  1  0  0  0
 20172  1  0  0  0
 21 22  2  0  0  0
 21 24  1  0  0  0
 23173  1  0  0  0
 23174  1  0  0  0
 23175  1  0  0  0
 24 25  1  0  0  0
 24176  1  0  0  0
 25 26  1  0  0  0
 25 27  1  0  0  0
 25177  1  0  0  0
 26 30  1  0  0  0
 26178  1  0  0  0
 26179  1  0  0  0
 27 28  1  0  0  0
 27180  1  0  0  0
 27181  1  0  0  0
 28 29  2  0  0  0
 28 34  1  0  0  0
 30 31  1  0  0  0
 30182  1  0  0  0
 30183  1  0  0  0
 31 32  1  0  0  0
 31 33  2  0  0  0
 32184  1  0  0  0
 32185  1  0  0  0
 34 35  1  0  0  0
 34186  1  0  0  0
 35 36  1  0  0  0
 35 38  1  0  0  0
 35187  1  0  0  0
 36 37  2  0  0  0
 36 42  1  0  0  0
 38 39  1  0  0  0
 38188  1  0  0  0
 38189  1  0  0  0
 39 40  1  0  0  0
 39 41  1  0  0  0
 39190  1  0  0  0
 40191  1  0  0  0
 40192  1  0  0  0
 40193  1  0  0  0
 41194  1  0  0  0
 41195  1  0  0  0
 41196  1  0  0  0
 42 43  1  0  0  0
 42197  1  0  0  0
 43 44  1  0  0  0
 43 46  1  0  0  0
 43198  1  0  0  0
 44 45  2  0  0  0
 44 53  1  0  0  0
 46 47  1  0  0  0
 46199  1  0  0  0
 46200  1  0  0  0
 47 48  1  0  0  0
 47201  1  0  0  0
 47202  1  0  0  0
 48 49  1  0  0  0
 48203  1  0  0  0
 48204  1  0  0  0
 49 50  1  0  0  0
 49205  1  0  0  0
 50 51  1  0  0  0
 50 52  2  0  0  0
 51206  1  0  0  0
 51207  1  0  0  0
 52208  1  0  0  0
 53 54  1  0  0  0
 53209  1  0  0  0
 54 55  1  0  0  0
 54 64  1  0  0  0
 54210  1  0  0  0
 55 56  1  0  0  0
 55211  1  0  0  0
 55212  1  0  0  0
 56 57  1  0  0  0
 56213  1  0  0  0
 56214  1  0  0  0
 57 58  1  0  0  0
 57215  1  0  0  0
 57216  1  0  0  0
 58 59  1  0  0  0
 58217  1  0  0  0
 59 60  1  0  0  0
 59 61  2  0  0  0
 60218  1  0  0  0
 60219  1  0  0  0
 61220  1  0  0  0
 62 63  2  0  0  0
 62 64  1  0  0  0
 62 65  1  0  0  0
 64221  1  0  0  0
 64222  1  0  0  0
 65 66  1  0  0  0
 65223  1  0  0  0
 66 67  1  0  0  0
 66 69  1  0  0  0
 66224  1  0  0  0
 67 68  2  0  0  0
 67 73  1  0  0  0
 69 70  1  0  0  0
 69225  1  0  0  0
 69226  1  0  0  0
 70 71  1  0  0  0
 70227  1  0  0  0
 70228  1  0  0  0
 71 72  1  0  0  0
 72229  1  0  0  0
 72230  1  0  0  0
 72231  1  0  0  0
 73 74  1  0  0  0
 73232  1  0  0  0
 74 75  1  0  0  0
 74 77  1  0  0  0
 74233  1  0  0  0
 75 76  2  0  0  0
 75 78  1  0  0  0
 77234  1  0  0  0
 77235  1  0  0  0
 77236  1  0  0  0
 78 79  1  0  0  0
 78237  1  0  0  0
 79 80  1  0  0  0
 79 82  1  0  0  0
 79238  1  0  0  0
 80 81  2  0  0  0
 80 91  1  0  0  0
 82 83  1  0  0  0
 82239  1  0  0  0
 82240  1  0  0  0
 83 84  1  0  0  0
 83 85  2  0  0  0
 84241  1  0  0  0
 86 87  2  0  0  0
 87 88  1  0  0  0
 87 89  1  0  0  0
 88242  1  0  0  0
 89 90  1  0  0  0
 89243  1  0  0  0
 89244  1  0  0  0
 90 91  1  0  0  0
 90 92  1  0  0  0
 90245  1  0  0  0
 91246  1  0  0  0
 92 93  1  0  0  0
 92247  1  0  0  0
 92248  1  0  0  0
 93 94  2  0  0  0
 93 95  1  0  0  0
 95 96  1  0  0  0
 95249  1  0  0  0
 96 97  1  0  0  0
 96 99  1  0  0  0
 96250  1  0  0  0
 97 98  2  0  0  0
 97103  1  0  0  0
 99100  1  0  0  0
 99251  1  0  0  0
 99252  1  0  0  0
100101  1  0  0  0
100102  1  0  0  0
100253  1  0  0  0
101254  1  0  0  0
101255  1  0  0  0
101256  1  0  0  0
102257  1  0  0  0
102258  1  0  0  0
102259  1  0  0  0
103104  1  0  0  0
103260  1  0  0  0
104105  1  0  0  0
104107  1  0  0  0
104261  1  0  0  0
105106  2  0  0  0
105113  1  0  0  0
107108  1  0  0  0
107262  1  0  0  0
107263  1  0  0  0
108109  2  0  0  0
108110  1  0  0  0
110264  1  0  0  0
110265  1  0  0  0
111112  1  0  0  0
111266  1  0  0  0
111267  1  0  0  0
111268  1  0  0  0
112113  1  0  0  0
112114  1  0  0  0
112269  1  0  0  0
113270  1  0  0  0
114115  1  0  0  0
114271  1  0  0  0
114272  1  0  0  0
115116  2  0  0  0
115117  1  0  0  0
117118  1  0  0  0
117273  1  0  0  0
118119  1  0  0  0
118121  1  0  0  0
118274  1  0  0  0
119120  2  0  0  0
119126  1  0  0  0
121122  1  0  0  0
121275  1  0  0  0
121276  1  0  0  0
122123  1  0  0  0
122277  1  0  0  0
122278  1  0  0  0
123124  2  0  0  0
123125  1  0  0  0
125279  1  0  0  0
125280  1  0  0  0
126127  1  0  0  0
126281  1  0  0  0
127128  1  0  0  0
127130  1  0  0  0
127282  1  0  0  0
128129  2  0  0  0
128138  1  0  0  0
130131  1  0  0  0
130283  1  0  0  0
130284  1  0  0  0
131132  2  0  0  0
131133  1  0  0  0
132134  1  0  0  0
132285  1  0  0  0
133135  2  0  0  0
133286  1  0  0  0
134136  2  0  0  0
134287  1  0  0  0
135136  1  0  0  0
135288  1  0  0  0
136137  1  0  0  0
137289  1  0  0  0
138139  1  0  0  0
138290  1  0  0  0
139140  1  0  0  0
139142  1  0  0  0
139291  1  0  0  0
140141  2  0  0  0
140147  1  0  0  0
142143  1  0  0  0
142292  1  0  0  0
142293  1  0  0  0
143144  1  0  0  0
143294  1  0  0  0
143295  1  0  0  0
144145  1  0  0  0
144146  2  0  0  0
145296  1  0  0  0
147297  1  0  0  0
147298  1  0  0  0
M  CHG  1   1   1
M  END
> <s_m_source_file>
../4bpj_ligand.sdf

> <i_m_source_file_index>
1

> <s_epik_input>
W05IMytdW0NAQEhdKFtDSDNdKUMoPU8pW05IXVtDQEBIXShbQ0BASF0oW0NIM10pW0NIMl1bQ0gzXSlDKD1PKVtOSF1bQ0BIXShbQ0gzXSlDKD1PKVtOSF1bQ0BASF0oW0NIM10pQyg9TylbTkhdW0NAQEhdKFtDSDJdW0NIMl1DKD1PKVtOSDJdKVtDSDJdQyg9TylbTkhdW0NAQEhdKFtDSDJdW0NIXShbQ0gzXSlbQ0gzXSlDKD1PKVtOSF1bQ0BASF0oW0NIMl1bQ0gyXVtDSDJdW05IXS9DKFtOSDJdKT1OXFtIXSlDKD1PKVtOSF1bQ0BASF0oW0NIMl1bQ0gyXVtDSDJdW05IXS9DKFtOSDJdKT1OXFtIXSlbQ0gyXUMoPU8pW05IXVtDQEBIXShbQ0gyXVtDSDJdU1tDSDNdKUMoPU8pW05IXVtDQEBIXShbQ0gzXSlDKD1PKVtOSF1bQ0BASF0oW0NIMl1DKD1PKVtPSF0pQyg9TylbTkhdW0NAQEhdKFtDSDJdQyg9TylbT0hdKVtDSDJdQyg9TylbTkhdW0NAQEhdKFtDSDJdW0NIXShbQ0gzXSlbQ0gzXSlDKD1PKVtOSF1bQ0BASF0oW0NIMl1DKD1PKVtOSDJdKUMoPU8pW05IXVtDQEBIXShbQ0gzXSlbQ0gyXUMoPU8pW05IXVtDQEBIXShbQ0gyXVtDSDJdQyg9TylbTkgyXSlDKD1PKVtOSF1bQ0BIXShDKD1PKVtOSF1bQ0BIXShDKD1PKVtOSDJdKVtDSDJdW0NIMl1DKD1PKVtPSF0pW0NIMl1jMVtjSF1bY0hdYyhbT0hdKVtjSF1bY0hdMQ==

> <s_epik_cmdline>
J2VwaWtfYXBwJywgJy1pbWFlJywgJ2xpZ2FuZF9wcm8ubWFlJywgJy1vbWFlJywgJ2xpZ2FuZF9wcmVwLm1hZScsICctbXMnLCAnMScsICctcGgnLCAnNycsICctcGh0JywgJzAuNScsICctbnQn

> <s_epik_pKa_notes>
Molecule size exceeds maximum supported for generating protonation states

> <s_epik_Chemistry_Notes>
This compound has an imine and may undergo hydrolysis.

$$$$
