4bqh_ligand
                    3D
 Schrodinger Suite 2020-3.
 39 42  0  0  1  0            999 V2000
   -8.2350   35.4930    7.4340 O   0  0  0  0  0  0
   -9.2630   36.1490    7.6920 C   0  0  0  0  0  0
  -10.4920   35.6270    7.7230 N   0  0  0  0  0  0
  -11.3820   36.6190    7.9990 C   0  0  0  0  0  0
  -12.7130   36.5430    8.1000 C   0  0  0  0  0  0
  -13.5210   37.6610    8.3610 C   0  0  0  0  0  0
  -12.8860   38.9010    8.5020 C   0  0  0  0  0  0
  -13.6690   40.0760    8.7650 C   0  0  0  0  0  0
  -11.4780   38.9300    8.3850 C   0  0  0  0  0  0
  -10.6500   40.6190    8.6490 Br  0  0  0  0  0  0
  -10.7390   37.8120    8.1400 C   0  0  0  0  0  0
   -9.3370   37.5470    7.9440 C   0  0  2  0  0  0
   -8.8840   38.1870    6.7480 O   0  0  0  0  0  0
   -8.3860   38.0760    9.0510 C   0  0  0  0  0  0
   -8.5540   37.3600   10.4070 C   0  0  0  0  0  0
   -9.2700   36.3480   10.4450 O   0  0  0  0  0  0
   -7.8350   37.8690   11.5290 C   0  0  0  0  0  0
   -7.2500   39.1370   11.5410 C   0  0  0  0  0  0
   -6.5670   39.5910   12.6070 C   0  0  0  0  0  0
   -5.9540   40.7990   12.7780 O   0  0  0  0  0  0
   -5.0590   40.5750   13.9020 C   0  0  0  0  0  0
   -5.7230   39.5520   14.6540 O   0  0  0  0  0  0
   -6.4400   38.8610   13.7150 C   0  0  0  0  0  0
   -6.9890   37.6370   13.7860 C   0  0  0  0  0  0
   -7.7040   37.1210   12.7060 C   0  0  0  0  0  0
  -10.6379   34.5523    7.5393 H   0  0  0  0  0  0
  -13.1912   35.5716    7.9743 H   0  0  0  0  0  0
  -14.6033   37.5672    8.4506 H   0  0  0  0  0  0
  -14.7338   39.8041    8.8119 H   0  0  0  0  0  0
  -13.5128   40.8086    7.9594 H   0  0  0  0  0  0
  -13.3600   40.5152    9.7250 H   0  0  0  0  0  0
   -9.3904   37.9879    5.7920 H   0  0  0  0  0  0
   -7.3417   37.9370    8.7345 H   0  0  0  0  0  0
   -8.5787   39.1458    9.2195 H   0  0  0  0  0  0
   -7.3495   39.7756   10.6633 H   0  0  0  0  0  0
   -4.0760   40.2513   13.5291 H   0  0  0  0  0  0
   -4.9455   41.5088   14.4721 H   0  0  0  0  0  0
   -6.8748   37.0438   14.6933 H   0  0  0  0  0  0
   -8.1616   36.1343   12.7777 H   0  0  0  0  0  0
  1  2  2  0  0  0
  2  3  1  0  0  0
  2 12  1  0  0  0
  3  4  1  0  0  0
  3 26  1  0  0  0
  4  5  2  0  0  0
  4 11  1  0  0  0
  5  6  1  0  0  0
  5 27  1  0  0  0
  6  7  2  0  0  0
  6 28  1  0  0  0
  7  8  1  0  0  0
  7  9  1  0  0  0
  8 29  1  0  0  0
  8 30  1  0  0  0
  8 31  1  0  0  0
  9 10  1  0  0  0
  9 11  2  0  0  0
 11 12  1  0  0  0
 12 13  1  0  0  0
 12 14  1  0  0  0
 13 32  1  0  0  0
 14 15  1  0  0  0
 14 33  1  0  0  0
 14 34  1  0  0  0
 15 16  2  0  0  0
 15 17  1  0  0  0
 17 18  2  0  0  0
 17 25  1  0  0  0
 18 19  1  0  0  0
 18 35  1  0  0  0
 19 20  1  0  0  0
 19 23  2  0  0  0
 20 21  1  0  0  0
 21 22  1  0  0  0
 21 36  1  0  0  0
 21 37  1  0  0  0
 22 23  1  0  0  0
 23 24  1  0  0  0
 24 25  2  0  0  0
 24 38  1  0  0  0
 25 39  1  0  0  0
M  END
> <s_m_source_file>
../4bqh_ligand.sdf

> <i_m_source_file_index>
1

> <s_epik_input>
W2NIXTFbY0hdYyhbQ0gzXSljKEJyKWMoYzEyKVtDQF0oW09IXSkoQyg9TylbTkhdMilbQ0gyXUMoPU8pYyhbY0hdMylbY0hdW2NIXWMoYzM0KU9bQ0gyXU80

> <s_epik_cmdline>
J2VwaWtfYXBwJywgJy1pbWFlJywgJ2xpZ2FuZF9wcm8ubWFlJywgJy1vbWFlJywgJ2xpZ2FuZF9wcmVwLm1hZScsICctbXMnLCAnMScsICctcGgnLCAnNycsICctcGh0JywgJzAuNScsICctbnQn

> <r_lp_tautomer_probability>
1

> <r_epik_Ionization_Penalty>
  0.0000

> <r_epik_Ionization_Penalty_Charging>
  0.0000

> <r_epik_Ionization_Penalty_Neutral>
  0.0000

> <r_epik_State_Penalty>
 -0.0000

> <r_epik_Charging_Adjusted_Penalty>
0

> <i_epik_Tot_Q>
0

> <i_epik_Tot_abs_Q>
0

> <s_epik_Chemistry_Notes>
This compound contains an acetal/aminal-like group ( X-CH(R)-Y where X, Y are N, S, or O) that may be acid/base labile, releasing an aldehyde.

$$$$
