4bqt_ligand
                    3D
 Schrodinger Suite 2020-3.
 29 31  0  0  1  0            999 V2000
   27.7880  -26.6030   83.3710 O   0  0  0  0  0  0
   28.2700  -26.1000   84.4120 C   0  0  0  0  0  0
   29.0380  -26.8500   85.3220 N   0  0  0  0  0  0
   29.2590  -28.2620   85.0180 C   0  0  0  0  0  0
   30.2300  -29.0030   85.9500 C   0  0  2  0  0  0
   29.3940  -29.7770   86.9310 C   0  0  0  0  0  0
   28.6470  -28.8190   87.7040 N   0  3  0  0  0  0
   29.3700  -27.7680   88.3880 C   0  0  0  0  0  0
   30.3340  -27.0530   87.4600 C   0  0  1  0  0  0
   31.1590  -28.0690   86.7170 C   0  0  0  0  0  0
   29.5450  -26.2690   86.4980 C   0  0  0  0  0  0
   29.2880  -24.9410   86.7660 C   0  0  0  0  0  0
   28.5460  -24.2020   85.8650 C   0  0  0  0  0  0
   28.0430  -24.7750   84.7000 C   0  0  0  0  0  0
   28.3034  -28.8036   85.0767 H   0  0  0  0  0  0
   29.6733  -28.3582   84.0036 H   0  0  0  0  0  0
   30.8741  -29.6639   85.3514 H   0  0  0  0  0  0
   28.7142  -30.4474   86.3847 H   0  0  0  0  0  0
   30.0504  -30.3722   87.5828 H   0  0  0  0  0  0
   27.9386  -28.2913   87.0484 H   0  0  0  0  0  0
   28.0928  -29.3408   88.4981 H   0  0  0  0  0  0
   28.6569  -27.0289   88.7820 H   0  0  0  0  0  0
   29.9465  -28.2004   89.2190 H   0  0  0  0  0  0
   30.9982  -26.3752   88.0162 H   0  0  0  0  0  0
   31.7577  -28.6529   87.4316 H   0  0  0  0  0  0
   31.8285  -27.5563   86.0106 H   0  0  0  0  0  0
   29.6660  -24.4796   87.6783 H   0  0  0  0  0  0
   28.3505  -23.1495   86.0702 H   0  0  0  0  0  0
   27.4621  -24.1656   84.0078 H   0  0  0  0  0  0
  1  2  2  0  0  0
  2  3  1  0  0  0
  2 14  1  0  0  0
  3  4  1  0  0  0
  3 11  1  0  0  0
  4  5  1  0  0  0
  4 15  1  0  0  0
  4 16  1  0  0  0
  5  6  1  0  0  0
  5 10  1  0  0  0
  5 17  1  0  0  0
  6  7  1  0  0  0
  6 18  1  0  0  0
  6 19  1  0  0  0
  7  8  1  0  0  0
  7 20  1  0  0  0
  7 21  1  0  0  0
  8  9  1  0  0  0
  8 22  1  0  0  0
  8 23  1  0  0  0
  9 10  1  0  0  0
  9 11  1  0  0  0
  9 24  1  0  0  0
 10 25  1  0  0  0
 10 26  1  0  0  0
 11 12  2  0  0  0
 12 13  1  0  0  0
 12 27  1  0  0  0
 13 14  2  0  0  0
 13 28  1  0  0  0
 14 29  1  0  0  0
M  CHG  1   7   1
M  END
> <s_m_source_file>
../4bqt_ligand.sdf

> <i_m_source_file_index>
1

> <s_epik_input>
Tz1jMVtjSF1bY0hdW2NIXWMobjEyKVtDQEhdM1tDSDJdW05IMitdW0NIMl1bQ0BASF0oW0NIMl0yKVtDSDJdMw==

> <s_epik_cmdline>
J2VwaWtfYXBwJywgJy1pbWFlJywgJ2xpZ2FuZF9wcm8ubWFlJywgJy1vbWFlJywgJ2xpZ2FuZF9wcmVwLm1hZScsICctbXMnLCAnMScsICctcGgnLCAnNycsICctcGh0JywgJzAuNScsICctbnQn

> <r_lp_tautomer_probability>
1

> <r_epik_Ionization_Penalty>
  0.0006

> <r_epik_Ionization_Penalty_Charging>
  0.0006

> <r_epik_Ionization_Penalty_Neutral>
  0.0000

> <r_epik_State_Penalty>
 -0.0000

> <r_epik_Charging_Adjusted_Penalty>
0.000616007069728907

> <i_epik_Tot_Q>
1

> <i_epik_Tot_abs_Q>
1

$$$$
