4bqw_ligand
                    3D
 Schrodinger Suite 2020-3.
 30 31  0  0  1  0            999 V2000
  -32.5940   23.0990    3.2560 O   0  5  0  0  0  0
  -32.9530   22.3040    4.1520 C   0  0  0  0  0  0
  -32.2930   21.3370    4.5880 O   0  0  0  0  0  0
  -34.3260   22.5440    4.7840 C   0  0  0  0  0  0
  -34.9380   23.7500    4.2040 N   0  0  0  0  0  0
  -36.1540   24.1470    4.5730 C   0  0  0  0  0  0
  -36.7910   23.6010    5.4710 O   0  0  0  0  0  0
  -35.8000   26.3200    3.3050 C   0  0  0  0  0  0
  -34.5940   26.0810    3.2610 O   0  5  0  0  0  0
  -35.3620   28.4720    2.1320 C   0  0  0  0  0  0
  -37.6690   27.7860    2.7890 C   0  0  0  0  0  0
  -38.1670   28.9700    2.2520 C   0  0  0  0  0  0
  -36.6820   25.4120    3.8880 C   0  0  0  0  0  0
  -39.5350   29.2340    2.2910 C   0  0  0  0  0  0
  -40.4020   28.3170    2.8680 C   0  0  0  0  0  0
  -39.9080   27.1300    3.4070 C   0  0  0  0  0  0
  -38.5420   26.8710    3.3670 C   0  0  0  0  0  0
  -38.0470   25.6870    3.9080 C   0  0  0  0  0  0
  -36.2960   27.5050    2.7510 N   0  0  0  0  0  0
  -38.9190   24.7820    4.4300 O   0  0  0  0  0  0
  -34.9754   21.6776    4.5901 H   0  0  0  0  0  0
  -34.2112   22.6806    5.8694 H   0  0  0  0  0  0
  -34.3897   24.3384    3.4536 H   0  0  0  0  0  0
  -34.3353   28.0822    2.1956 H   0  0  0  0  0  0
  -35.4231   29.4328    2.6641 H   0  0  0  0  0  0
  -35.6335   28.6196    1.0763 H   0  0  0  0  0  0
  -37.4861   29.6915    1.8004 H   0  0  0  0  0  0
  -39.9237   30.1605    1.8684 H   0  0  0  0  0  0
  -41.4715   28.5252    2.8999 H   0  0  0  0  0  0
  -40.5891   26.4082    3.8577 H   0  0  0  0  0  0
  1  2  1  0  0  0
  2  3  2  0  0  0
  2  4  1  0  0  0
  4  5  1  0  0  0
  4 21  1  0  0  0
  4 22  1  0  0  0
  5  6  1  0  0  0
  5 23  1  0  0  0
  6  7  2  0  0  0
  6 13  1  0  0  0
  8  9  1  0  0  0
  8 13  2  0  0  0
  8 19  1  0  0  0
 10 19  1  0  0  0
 10 24  1  0  0  0
 10 25  1  0  0  0
 10 26  1  0  0  0
 11 12  2  0  0  0
 11 17  1  0  0  0
 11 19  1  0  0  0
 12 14  1  0  0  0
 12 27  1  0  0  0
 13 18  1  0  0  0
 14 15  2  0  0  0
 14 28  1  0  0  0
 15 16  1  0  0  0
 15 29  1  0  0  0
 16 17  2  0  0  0
 16 30  1  0  0  0
 17 18  1  0  0  0
 18 20  2  0  0  0
M  CHG  2   1  -1   9  -1
M  END
> <s_m_source_file>
../4bqw_ligand.sdf

> <i_m_source_file_index>
1

> <s_epik_input>
W09IXUMoPU8pW0NIMl1bTkhdQyg9TyljKGMoPU8pbjFbQ0gzXSljKFtPSF0pYyhjMTIpW2NIXVtjSF1bY0hdW2NIXTI=

> <s_epik_cmdline>
J2VwaWtfYXBwJywgJy1pbWFlJywgJ2xpZ2FuZF9wcm8ubWFlJywgJy1vbWFlJywgJ2xpZ2FuZF9wcmVwLm1hZScsICctbXMnLCAnMScsICctcGgnLCAnNycsICctcGh0JywgJzAuNScsICctbnQn

> <r_epik_Ionization_Penalty>
  0.1491

> <r_epik_Ionization_Penalty_Charging>
  0.1491

> <r_epik_Ionization_Penalty_Neutral>
  0.0000

> <r_epik_State_Penalty>
  0.1285

> <r_epik_Charging_Adjusted_Penalty>
0.277574161595188

> <i_epik_Tot_Q>
-2

> <i_epik_Tot_abs_Q>
2

$$$$
