4bqx_ligand
                    3D
 Schrodinger Suite 2020-3.
 27 28  0  0  1  0            999 V2000
   36.3030  -16.5910   -3.1550 O   0  5  0  0  0  0
   35.6650  -17.1970   -4.0420 C   0  0  0  0  0  0
   34.4670  -17.0160   -4.3460 O   0  0  0  0  0  0
   36.4130  -18.2610   -4.8470 C   0  0  0  0  0  0
   37.8070  -18.3520   -4.3930 N   0  0  0  0  0  0
   38.6010  -19.2990   -4.8890 C   0  0  0  0  0  0
   38.2430  -20.1380   -5.7100 O   0  0  0  0  0  0
   40.0360  -19.3300   -4.3640 C   0  0  0  0  0  0
   40.7260  -20.4560   -4.5960 N   0  0  0  0  0  0
   41.9760  -20.6400   -4.1470 C   0  0  0  0  0  0
   42.7290  -22.1630   -4.5070 Cl  0  0  0  0  0  0
   42.6030  -19.6270   -3.4250 C   0  0  0  0  0  0
   40.6080  -18.2870   -3.6440 C   0  0  0  0  0  0
   39.9070  -17.1610   -3.3390 O   0  0  0  0  0  0
   41.9130  -18.4420   -3.1810 C   0  0  0  0  0  0
   42.5140  -17.4140   -2.4600 C   0  0  0  0  0  0
   43.8110  -17.5690   -1.9790 C   0  0  0  0  0  0
   44.5040  -18.7530   -2.2200 C   0  0  0  0  0  0
   43.9000  -19.7800   -2.9380 C   0  0  0  0  0  0
   35.9243  -19.2366   -4.7082 H   0  0  0  0  0  0
   36.3980  -17.9918   -5.9134 H   0  0  0  0  0  0
   38.1901  -17.6401   -3.6471 H   0  0  0  0  0  0
   38.8767  -17.0386   -3.7045 H   0  0  0  0  0  0
   41.9695  -16.4886   -2.2723 H   0  0  0  0  0  0
   44.2836  -16.7651   -1.4146 H   0  0  0  0  0  0
   45.5204  -18.8749   -1.8457 H   0  0  0  0  0  0
   44.4428  -20.7075   -3.1204 H   0  0  0  0  0  0
  1  2  1  0  0  0
  2  3  2  0  0  0
  2  4  1  0  0  0
  4  5  1  0  0  0
  4 20  1  0  0  0
  4 21  1  0  0  0
  5  6  1  0  0  0
  5 22  1  0  0  0
  6  7  2  0  0  0
  6  8  1  0  0  0
  8  9  2  0  0  0
  8 13  1  0  0  0
  9 10  1  0  0  0
 10 11  1  0  0  0
 10 12  2  0  0  0
 12 15  1  0  0  0
 12 19  1  0  0  0
 13 14  1  0  0  0
 13 15  2  0  0  0
 14 23  1  0  0  0
 15 16  1  0  0  0
 16 17  2  0  0  0
 16 24  1  0  0  0
 17 18  1  0  0  0
 17 25  1  0  0  0
 18 19  2  0  0  0
 18 26  1  0  0  0
 19 27  1  0  0  0
M  CHG  1   1  -1
M  END
> <s_m_source_file>
../4bqx_ligand.sdf

> <i_m_source_file_index>
1

> <s_epik_input>
W09IXUMoPU8pW0NIMl1bTkhdQyg9TyljKG5jMUNsKWMoW09IXSljKGMxMilbY0hdW2NIXVtjSF1bY0hdMg==

> <s_epik_cmdline>
J2VwaWtfYXBwJywgJy1pbWFlJywgJ2xpZ2FuZF9wcm8ubWFlJywgJy1vbWFlJywgJ2xpZ2FuZF9wcmVwLm1hZScsICctbXMnLCAnMScsICctcGgnLCAnNycsICctcGh0JywgJzAuNScsICctbnQn

> <r_epik_Ionization_Penalty>
  0.2507

> <r_epik_Ionization_Penalty_Charging>
  0.0002

> <r_epik_Ionization_Penalty_Neutral>
  0.2504

> <r_epik_State_Penalty>
  0.2552

> <r_epik_Charging_Adjusted_Penalty>
0.255393992824121

> <i_epik_Tot_Q>
-1

> <i_epik_Tot_abs_Q>
1

$$$$
