4bqy_ligand
                    3D
 Schrodinger Suite 2020-3.
 30 31  0  0  1  0            999 V2000
  -44.1240  -20.4180    2.9120 C   0  0  0  0  0  0
  -42.9490  -22.6770    4.4560 Cl  0  0  0  0  0  0
  -42.8390  -20.2120    3.3770 C   0  0  0  0  0  0
  -42.1860  -19.0640    3.1220 C   0  0  0  0  0  0
  -42.8240  -18.0690    2.4050 C   0  0  0  0  0  0
  -44.1020  -18.2490    1.9370 C   0  0  0  0  0  0
  -44.7480  -19.4270    2.1880 C   0  0  0  0  0  0
  -42.1930  -21.1720    4.1020 C   0  0  0  0  0  0
  -40.9650  -20.9970    4.5890 N   0  0  0  0  0  0
  -40.2730  -19.8940    4.3620 C   0  0  0  0  0  0
  -36.0820  -20.1730    4.5620 C   0  0  0  0  0  0
  -40.9070  -18.9010    3.6070 C   0  0  0  0  0  0
  -38.9780  -19.8150    4.9250 C   0  0  0  0  0  0
  -38.6060  -20.5300    5.9540 O   0  0  0  0  0  0
  -38.1100  -18.9330    4.4310 N   0  0  0  0  0  0
  -36.7910  -18.8920    4.9250 C   0  0  2  0  0  0
  -36.0290  -17.7360    4.2870 C   0  0  0  0  0  0
  -36.5910  -17.0250    3.4350 O   0  5  0  0  0  0
  -34.8690  -17.5700    4.6760 O   0  0  0  0  0  0
  -40.2480  -17.7220    3.3270 O   0  0  0  0  0  0
  -44.6389  -21.3567    3.1166 H   0  0  0  0  0  0
  -42.3061  -17.1302    2.2089 H   0  0  0  0  0  0
  -44.5968  -17.4600    1.3707 H   0  0  0  0  0  0
  -45.7600  -19.5823    1.8140 H   0  0  0  0  0  0
  -36.6126  -21.0256    5.0109 H   0  0  0  0  0  0
  -35.0504  -20.1416    4.9425 H   0  0  0  0  0  0
  -36.0660  -20.2859    3.4679 H   0  0  0  0  0  0
  -38.4223  -18.2373    3.6383 H   0  0  0  0  0  0
  -36.9016  -18.7712    6.0127 H   0  0  0  0  0  0
  -40.7460  -16.9411    2.7335 H   0  0  0  0  0  0
  1  3  2  0  0  0
  1  7  1  0  0  0
  1 21  1  0  0  0
  2  8  1  0  0  0
  3  4  1  0  0  0
  3  8  1  0  0  0
  4  5  2  0  0  0
  4 12  1  0  0  0
  5  6  1  0  0  0
  5 22  1  0  0  0
  6  7  2  0  0  0
  6 23  1  0  0  0
  7 24  1  0  0  0
  8  9  2  0  0  0
  9 10  1  0  0  0
 10 12  2  0  0  0
 10 13  1  0  0  0
 11 16  1  0  0  0
 11 25  1  0  0  0
 11 26  1  0  0  0
 11 27  1  0  0  0
 12 20  1  0  0  0
 13 14  2  0  0  0
 13 15  1  0  0  0
 15 16  1  0  0  0
 15 28  1  0  0  0
 16 17  1  0  0  0
 16 29  1  0  0  0
 17 18  1  0  0  0
 17 19  2  0  0  0
 20 30  1  0  0  0
M  CHG  1  18  -1
M  END
> <s_m_source_file>
../4bqy_ligand.sdf

> <i_m_source_file_index>
1

> <s_epik_input>
W2NIXTFbY0hdW2NIXVtjSF1jKGMxMiljKFtPSF0pYyhuYzJDbClDKD1PKVtOSF1bQ0BASF0oW0NIM10pQyg9TylbT0hd

> <s_epik_cmdline>
J2VwaWtfYXBwJywgJy1pbWFlJywgJ2xpZ2FuZF9wcm8ubWFlJywgJy1vbWFlJywgJ2xpZ2FuZF9wcmVwLm1hZScsICctbXMnLCAnMScsICctcGgnLCAnNycsICctcGh0JywgJzAuNScsICctbnQn

> <r_epik_Ionization_Penalty>
  0.2347

> <r_epik_Ionization_Penalty_Charging>
  0.0002

> <r_epik_Ionization_Penalty_Neutral>
  0.2345

> <r_epik_State_Penalty>
  0.2392

> <r_epik_Charging_Adjusted_Penalty>
0.239435874758194

> <i_epik_Tot_Q>
-1

> <i_epik_Tot_abs_Q>
1

$$$$
