4br3_ligand
                    3D
 Schrodinger Suite 2020-3.
 59 63  0  0  1  0            999 V2000
   -5.8160  -10.2470    5.4630 C   0  0  0  0  0  0
   -6.9440   -9.9350    4.5610 N   0  3  0  0  0  0
   -7.3730   -8.5470    4.3510 C   0  0  0  0  0  0
   -7.6410  -10.9430    4.0130 C   0  0  0  0  0  0
   -8.7640  -10.7120    3.2100 C   0  0  0  0  0  0
   -9.4860  -11.7770    2.6540 C   0  0  0  0  0  0
   -7.2400  -12.2470    4.2590 C   0  0  0  0  0  0
   -7.9320  -13.3340    3.7280 C   0  0  0  0  0  0
   -9.0500  -13.0980    2.9000 N   0  0  0  0  0  0
   -9.8030  -14.2600    2.3970 C   0  0  0  0  0  0
  -10.4730  -14.7820    3.5350 C   0  0  0  0  0  0
  -11.5960  -14.1310    4.0450 C   0  0  0  0  0  0
  -12.2280  -14.6200    5.1760 C   0  0  0  0  0  0
  -10.0050  -15.9200    4.1920 C   0  0  0  0  0  0
  -10.6610  -16.4220    5.3270 C   0  0  0  0  0  0
  -11.7930  -15.7790    5.8370 C   0  0  0  0  0  0
  -12.4850  -16.2320    6.9850 C   0  0  0  0  0  0
  -13.4670  -15.4070    7.5600 C   0  0  0  0  0  0
  -14.1850  -15.7950    8.6890 C   0  0  0  0  0  0
  -12.2320  -17.4700    7.5900 C   0  0  0  0  0  0
  -12.9520  -17.8560    8.7260 C   0  0  0  0  0  0
  -13.9320  -17.0270    9.2850 C   0  0  0  0  0  0
  -14.6740  -17.4140   10.4230 C   0  0  0  0  0  0
  -14.0530  -16.9360   11.6950 N   0  0  0  0  0  0
  -13.3070  -17.7780   12.4460 C   0  0  0  0  0  0
  -12.9850  -19.0650   12.2850 N   0  0  0  0  0  0
  -12.2280  -19.4400   13.3100 C   0  0  0  0  0  0
  -12.0750  -18.3880   14.1100 N   0  5  0  0  0  0
  -12.7400  -17.3530   13.5890 C   0  0  0  0  0  0
  -12.9050  -16.0810   14.0140 C   0  0  0  0  0  0
  -12.3060  -15.7510   15.1600 N   0  3  0  0  0  0
  -13.6340  -15.1790   13.3240 N   0  0  0  0  0  0
  -14.2410  -15.5940   12.1240 C   0  0  0  0  0  0
   -5.3610   -9.3107    5.8185 H   0  0  0  0  0  0
   -5.0636  -10.8367    4.9188 H   0  0  0  0  0  0
   -6.1836  -10.8258    6.3231 H   0  0  0  0  0  0
   -6.6835   -7.8672    4.8730 H   0  0  0  0  0  0
   -8.3901   -8.4136    4.7480 H   0  0  0  0  0  0
   -7.3668   -8.3202    3.2747 H   0  0  0  0  0  0
   -9.0820   -9.6880    3.0140 H   0  0  0  0  0  0
  -10.3685  -11.5892    2.0425 H   0  0  0  0  0  0
   -6.3636  -12.4262    4.8818 H   0  0  0  0  0  0
   -7.6139  -14.3528    3.9493 H   0  0  0  0  0  0
  -10.5121  -13.9304    1.6233 H   0  0  0  0  0  0
   -9.1037  -14.9914    1.9658 H   0  0  0  0  0  0
  -11.9767  -13.2361    3.5527 H   0  0  0  0  0  0
  -13.0940  -14.0857    5.5667 H   0  0  0  0  0  0
   -9.1158  -16.4275    3.8181 H   0  0  0  0  0  0
  -10.2846  -17.3210    5.8150 H   0  0  0  0  0  0
  -13.6726  -14.4359    7.1097 H   0  0  0  0  0  0
  -14.9449  -15.1338    9.1056 H   0  0  0  0  0  0
  -11.4732  -18.1335    7.1752 H   0  0  0  0  0  0
  -12.7455  -18.8226    9.1855 H   0  0  0  0  0  0
  -15.6882  -16.9928   10.3601 H   0  0  0  0  0  0
  -14.7348  -18.5115   10.4653 H   0  0  0  0  0  0
  -11.8070  -20.4330   13.4677 H   0  0  0  0  0  0
  -11.7160  -16.5005   15.7079 H   0  0  0  0  0  0
  -14.8426  -14.9009   11.5360 H   0  0  0  0  0  0
  -12.4023  -14.7295   15.5567 H   0  0  0  0  0  0
  1  2  1  0  0  0
  1 34  1  0  0  0
  1 35  1  0  0  0
  1 36  1  0  0  0
  2  3  1  0  0  0
  2  4  2  0  0  0
  3 37  1  0  0  0
  3 38  1  0  0  0
  3 39  1  0  0  0
  4  5  1  0  0  0
  4  7  1  0  0  0
  5  6  2  0  0  0
  5 40  1  0  0  0
  6  9  1  0  0  0
  6 41  1  0  0  0
  7  8  2  0  0  0
  7 42  1  0  0  0
  8  9  1  0  0  0
  8 43  1  0  0  0
  9 10  1  0  0  0
 10 11  1  0  0  0
 10 44  1  0  0  0
 10 45  1  0  0  0
 11 12  2  0  0  0
 11 14  1  0  0  0
 12 13  1  0  0  0
 12 46  1  0  0  0
 13 16  2  0  0  0
 13 47  1  0  0  0
 14 15  2  0  0  0
 14 48  1  0  0  0
 15 16  1  0  0  0
 15 49  1  0  0  0
 16 17  1  0  0  0
 17 18  2  0  0  0
 17 20  1  0  0  0
 18 19  1  0  0  0
 18 50  1  0  0  0
 19 22  2  0  0  0
 19 51  1  0  0  0
 20 21  2  0  0  0
 20 52  1  0  0  0
 21 22  1  0  0  0
 21 53  1  0  0  0
 22 23  1  0  0  0
 23 24  1  0  0  0
 23 54  1  0  0  0
 23 55  1  0  0  0
 24 25  1  0  0  0
 24 33  1  0  0  0
 25 26  1  0  0  0
 25 29  2  0  0  0
 26 27  2  0  0  0
 27 28  1  0  0  0
 27 56  1  0  0  0
 28 29  1  0  0  0
 29 30  1  0  0  0
 30 31  2  0  0  0
 30 32  1  0  0  0
 31 57  1  0  0  0
 31 59  1  0  0  0
 32 33  2  0  0  0
 33 58  1  0  0  0
M  CHG  3   2   1  28  -1  31   1
M  END
> <s_m_source_file>
../4br3_ligand.sdf

> <i_m_source_file_index>
1

> <s_epik_input>
W0NIM11bTitdKFtDSDNdKT1jMVtjSF1bY0hdbihbY0hdW2NIXTEpW0NIMl1jMltjSF1bY0hdYyhbY0hdW2NIXTIpLWMzW2NIXVtjSF1jKFtjSF1bY0hdMylbQ0gyXW40W2NIXW5jKFtOSDJdKWMoYzQ1KW5bY0hdbjU=

> <s_epik_cmdline>
J2VwaWtfYXBwJywgJy1pbWFlJywgJ2xpZ2FuZF9wcm8ubWFlJywgJy1vbWFlJywgJ2xpZ2FuZF9wcmVwLm1hZScsICctbXMnLCAnMScsICctcGgnLCAnNycsICctcGh0JywgJzAuNScsICctbnQn

> <r_epik_Ionization_Penalty>
  0.2686

> <r_epik_Ionization_Penalty_Charging>
  0.0090

> <r_epik_Ionization_Penalty_Neutral>
  0.2596

> <r_epik_State_Penalty>
  0.4077

> <r_epik_Charging_Adjusted_Penalty>
0.416711749001501

> <i_epik_Tot_Q>
1

> <i_epik_Tot_abs_Q>
3

> <s_epik_Chemistry_Notes>
This compound has an imine and may undergo hydrolysis.

$$$$
