4brx_ligand
                    3D
 Schrodinger Suite 2020-3.
 57 60  0  0  1  0            999 V2000
  -10.4060    3.0680   -1.1270 C   0  0  0  0  0  0
   -9.4360    2.0920   -0.4360 C   0  0  0  0  0  0
   -8.0290    2.3360   -0.8170 O   0  0  0  0  0  0
   -7.7180    2.2780   -2.1980 C   0  0  0  0  0  0
   -8.5580    3.3080   -2.9820 C   0  0  0  0  0  0
   -9.9410    3.5130   -2.4760 N   0  0  0  0  0  0
  -10.8530    4.3310   -3.2650 C   0  0  0  0  0  0
  -12.1740    4.5700   -2.8470 C   0  0  0  0  0  0
  -13.0060    5.3980   -3.6230 C   0  0  0  0  0  0
  -14.2890    5.6360   -3.2880 O   0  0  0  0  0  0
  -14.5970    4.9820   -1.9540 C   0  0  0  0  0  0
  -10.3880    4.9470   -4.4340 C   0  0  0  0  0  0
  -11.2420    5.7570   -5.1890 C   0  0  0  0  0  0
  -12.5480    5.9920   -4.7920 C   0  0  0  0  0  0
  -13.4230    6.7610   -5.4880 N   0  0  0  0  0  0
  -13.1570    7.8440   -6.2600 C   0  0  0  0  0  0
  -11.9210    8.3250   -6.4160 N   0  0  0  0  0  0
  -14.1820    8.4690   -6.8980 N   0  0  0  0  0  0
  -13.9550    9.5430   -7.6620 C   0  0  0  0  0  0
  -11.6920    9.4010   -7.2020 C   0  0  0  0  0  0
  -10.4600    9.8600   -7.4290 N   0  0  0  0  0  0
   -9.3200    9.3200   -6.9750 C   0  0  0  0  0  0
   -9.2420    9.0360   -5.5990 C   0  0  0  0  0  0
   -8.0780    8.5050   -5.0780 C   0  0  0  0  0  0
   -6.9850    8.2550   -5.9300 C   0  0  0  0  0  0
   -7.0470    8.5680   -7.2950 C   0  0  0  0  0  0
   -8.2180    9.1210   -7.8260 C   0  0  0  0  0  0
   -8.2440    9.4030   -9.3440 C   0  0  0  0  0  0
   -9.0550   10.2010   -9.8520 O   0  0  0  0  0  0
   -7.4290    8.6130  -10.0680 N   0  0  0  0  0  0
  -12.7040   10.0120   -7.8160 N   0  0  0  0  0  0
   -7.3660    8.8450  -11.5430 C   0  0  0  0  0  0
  -11.3836    2.5814   -1.2590 H   0  0  0  0  0  0
  -10.5252    3.9679   -0.5057 H   0  0  0  0  0  0
   -9.5179    2.2047    0.6551 H   0  0  0  0  0  0
   -9.6913    1.0599   -0.7182 H   0  0  0  0  0  0
   -6.6507    2.5011   -2.3432 H   0  0  0  0  0  0
   -7.9374    1.2705   -2.5813 H   0  0  0  0  0  0
   -8.0624    4.2893   -2.9454 H   0  0  0  0  0  0
   -8.6523    2.9836   -4.0289 H   0  0  0  0  0  0
  -12.5504    4.1177   -1.9295 H   0  0  0  0  0  0
  -15.6449    5.1778   -1.6829 H   0  0  0  0  0  0
  -13.9344    5.3973   -1.1804 H   0  0  0  0  0  0
  -14.4350    3.8968   -2.0316 H   0  0  0  0  0  0
   -9.3579    4.7946   -4.7560 H   0  0  0  0  0  0
  -10.8727    6.2123   -6.1079 H   0  0  0  0  0  0
  -14.4981    6.5295   -5.4645 H   0  0  0  0  0  0
  -14.7867   10.0399   -8.1615 H   0  0  0  0  0  0
  -10.3133   10.7629   -8.0399 H   0  0  0  0  0  0
  -10.0942    9.2336   -4.9487 H   0  0  0  0  0  0
   -8.0060    8.2809   -4.0137 H   0  0  0  0  0  0
   -6.0769    7.8113   -5.5218 H   0  0  0  0  0  0
   -6.1879    8.3817   -7.9394 H   0  0  0  0  0  0
   -6.8218    7.8184   -9.6098 H   0  0  0  0  0  0
   -6.6643    8.1298  -11.9970 H   0  0  0  0  0  0
   -7.0213    9.8712  -11.7384 H   0  0  0  0  0  0
   -8.3660    8.7047  -11.9793 H   0  0  0  0  0  0
  1  2  1  0  0  0
  1  6  1  0  0  0
  1 33  1  0  0  0
  1 34  1  0  0  0
  2  3  1  0  0  0
  2 35  1  0  0  0
  2 36  1  0  0  0
  3  4  1  0  0  0
  4  5  1  0  0  0
  4 37  1  0  0  0
  4 38  1  0  0  0
  5  6  1  0  0  0
  5 39  1  0  0  0
  5 40  1  0  0  0
  6  7  1  0  0  0
  7  8  2  0  0  0
  7 12  1  0  0  0
  8  9  1  0  0  0
  8 41  1  0  0  0
  9 10  1  0  0  0
  9 14  2  0  0  0
 10 11  1  0  0  0
 11 42  1  0  0  0
 11 43  1  0  0  0
 11 44  1  0  0  0
 12 13  2  0  0  0
 12 45  1  0  0  0
 13 14  1  0  0  0
 13 46  1  0  0  0
 14 15  1  0  0  0
 15 16  1  0  0  0
 15 47  1  0  0  0
 16 17  2  0  0  0
 16 18  1  0  0  0
 17 20  1  0  0  0
 18 19  2  0  0  0
 19 31  1  0  0  0
 19 48  1  0  0  0
 20 21  1  0  0  0
 20 31  2  0  0  0
 21 22  1  0  0  0
 21 49  1  0  0  0
 22 23  2  0  0  0
 22 27  1  0  0  0
 23 24  1  0  0  0
 23 50  1  0  0  0
 24 25  2  0  0  0
 24 51  1  0  0  0
 25 26  1  0  0  0
 25 52  1  0  0  0
 26 27  2  0  0  0
 26 53  1  0  0  0
 27 28  1  0  0  0
 28 29  2  0  0  0
 28 30  1  0  0  0
 30 32  1  0  0  0
 30 54  1  0  0  0
 32 55  1  0  0  0
 32 56  1  0  0  0
 32 57  1  0  0  0
M  END
> <s_m_source_file>
../4brx_ligand.sdf

> <i_m_source_file_index>
1

> <s_epik_input>
W0NIMl0xW0NIMl1PW0NIMl1bQ0gyXU4xYzJbY0hdYyhPW0NIM10pYyhbY0hdW2NIXTIpW05IXWMzbmMobltjSF1uMylbTkhdYzRbY0hdW2NIXVtjSF1bY0hdYzRDKD1PKVtOSF1bQ0gzXQ==

> <s_epik_cmdline>
J2VwaWtfYXBwJywgJy1pbWFlJywgJ2xpZ2FuZF9wcm8ubWFlJywgJy1vbWFlJywgJ2xpZ2FuZF9wcmVwLm1hZScsICctbXMnLCAnMScsICctcGgnLCAnNycsICctcGh0JywgJzAuNScsICctbnQn

> <r_lp_tautomer_probability>
1

> <r_epik_Ionization_Penalty>
  0.0001

> <r_epik_Ionization_Penalty_Charging>
  0.0000

> <r_epik_Ionization_Penalty_Neutral>
  0.0001

> <r_epik_State_Penalty>
 -0.0000

> <r_epik_Charging_Adjusted_Penalty>
0

> <i_epik_Tot_Q>
0

> <i_epik_Tot_abs_Q>
0

$$$$
