4bs4_ligand
                    3D
 Schrodinger Suite 2020-3.
 36 38  0  0  1  0            999 V2000
  -38.1700  -11.0450    5.7030 C   0  0  0  0  0  0
  -39.4980  -10.9430    7.8020 C   0  0  0  0  0  0
  -38.6960  -10.1090    8.5790 C   0  0  0  0  0  0
  -38.6250  -10.2950    9.9630 C   0  0  0  0  0  0
  -40.2130  -11.9680    8.4280 C   0  0  0  0  0  0
  -40.1600  -12.1560    9.8020 C   0  0  0  0  0  0
  -39.3250  -11.3300   10.5820 C   0  0  0  0  0  0
  -39.3130  -11.5760   12.0380 C   0  0  0  0  0  0
  -40.0750  -12.6350   12.4750 O   0  0  0  0  0  0
  -40.1940  -12.9900   13.7870 C   0  0  0  0  0  0
  -41.0260  -14.0130   14.2050 C   0  0  0  0  0  0
  -41.1250  -14.3250   15.5680 C   0  0  0  0  0  0
  -40.4060  -13.5970   16.5320 C   0  0  0  0  0  0
  -39.5770  -12.5420   16.1390 C   0  0  0  0  0  0
  -39.4800  -12.2050   14.8040 C   0  0  0  0  0  0
  -38.5810  -11.1250   14.2900 C   0  0  0  0  0  0
  -37.8650  -10.5000   15.0840 O   0  0  0  0  0  0
  -38.5420  -10.8360   12.9210 C   0  0  0  0  0  0
  -39.5640  -10.7880    6.3130 C   0  0  0  0  0  0
  -40.0560   -9.4030    5.9410 C   0  0  0  0  0  0
  -37.8279  -12.0526    5.9818 H   0  0  0  0  0  0
  -37.4591  -10.2975    6.0851 H   0  0  0  0  0  0
  -38.2294  -10.9681    4.6073 H   0  0  0  0  0  0
  -38.1233   -9.3106    8.1071 H   0  0  0  0  0  0
  -38.0147   -9.6224   10.5657 H   0  0  0  0  0  0
  -40.8266  -12.6353    7.8228 H   0  0  0  0  0  0
  -40.7585  -12.9352   10.2739 H   0  0  0  0  0  0
  -41.6051  -14.5770   13.4738 H   0  0  0  0  0  0
  -41.7695  -15.1448   15.8853 H   0  0  0  0  0  0
  -40.4949  -13.8554   17.5872 H   0  0  0  0  0  0
  -39.0086  -11.9869   16.8852 H   0  0  0  0  0  0
  -37.9071  -10.0313   12.5502 H   0  0  0  0  0  0
  -40.2917  -11.5195    5.9318 H   0  0  0  0  0  0
  -40.0970   -9.3104    4.8457 H   0  0  0  0  0  0
  -39.3671   -8.6478    6.3473 H   0  0  0  0  0  0
  -41.0608   -9.2460    6.3601 H   0  0  0  0  0  0
  1 19  1  0  0  0
  1 21  1  0  0  0
  1 22  1  0  0  0
  1 23  1  0  0  0
  2  3  2  0  0  0
  2  5  1  0  0  0
  2 19  1  0  0  0
  3  4  1  0  0  0
  3 24  1  0  0  0
  4  7  2  0  0  0
  4 25  1  0  0  0
  5  6  2  0  0  0
  5 26  1  0  0  0
  6  7  1  0  0  0
  6 27  1  0  0  0
  7  8  1  0  0  0
  8  9  1  0  0  0
  8 18  2  0  0  0
  9 10  1  0  0  0
 10 11  2  0  0  0
 10 15  1  0  0  0
 11 12  1  0  0  0
 11 28  1  0  0  0
 12 13  2  0  0  0
 12 29  1  0  0  0
 13 14  1  0  0  0
 13 30  1  0  0  0
 14 15  2  0  0  0
 14 31  1  0  0  0
 15 16  1  0  0  0
 16 17  2  0  0  0
 16 18  1  0  0  0
 18 32  1  0  0  0
 19 20  1  0  0  0
 19 33  1  0  0  0
 20 34  1  0  0  0
 20 35  1  0  0  0
 20 36  1  0  0  0
M  END
> <s_m_source_file>
../4bs4_ligand.sdf

> <i_m_source_file_index>
1

> <s_epik_input>
W0NIM11bQ0hdKFtDSDNdKWMxW2NIXVtjSF1jKFtjSF1bY0hdMSktYyhvMilbY0hdYyg9TyljKGMyMylbY0hdW2NIXVtjSF1bY0hdMw==

> <s_epik_cmdline>
J2VwaWtfYXBwJywgJy1pbWFlJywgJ2xpZ2FuZF9wcm8ubWFlJywgJy1vbWFlJywgJ2xpZ2FuZF9wcmVwLm1hZScsICctbXMnLCAnMScsICctcGgnLCAnNycsICctcGh0JywgJzAuNScsICctbnQn

> <r_lp_tautomer_probability>
1

> <r_epik_Ionization_Penalty>
  0.0000

> <r_epik_Ionization_Penalty_Charging>
  0.0000

> <r_epik_Ionization_Penalty_Neutral>
  0.0000

> <r_epik_State_Penalty>
 -0.0000

> <r_epik_Charging_Adjusted_Penalty>
0

> <i_epik_Tot_Q>
0

> <i_epik_Tot_abs_Q>
0

$$$$
