4bs5_ligand
                    3D
 Schrodinger Suite 2020-3.
 45 47  0  0  1  0            999 V2000
   -4.6520   -3.4170   24.2130 F   0  0  0  0  0  0
   -5.1890   -3.6500   25.3950 C   0  0  0  0  0  0
   -5.8490   -2.5660   25.7380 F   0  0  0  0  0  0
   -4.2190   -3.8010   26.2770 F   0  0  0  0  0  0
   -6.1340   -4.8380   25.3250 C   0  0  0  0  0  0
   -7.5470   -4.6330   25.3310 C   0  0  0  0  0  0
   -8.4250   -5.6890   25.2330 C   0  0  0  0  0  0
   -7.9930   -6.9780   25.1830 C   0  0  0  0  0  0
   -6.6190   -7.2120   25.1830 C   0  0  0  0  0  0
   -5.6400   -6.1850   25.2560 C   0  0  0  0  0  0
   -4.0460   -6.6840   25.1960 S   0  0  0  0  0  0
   -3.2770   -5.8010   24.3780 O   0  0  0  0  0  0
   -4.0890   -8.0490   24.7740 O   0  0  0  0  0  0
   -3.4650   -6.6810   26.8030 C   0  0  1  0  0  0
   -4.2380   -7.5480   27.8190 C   0  0  0  0  0  0
   -3.3030   -8.5670   28.2830 N   0  3  0  0  0  0
   -2.2050   -8.6850   27.3220 C   0  0  1  0  0  0
   -2.0450   -7.2620   26.8210 C   0  0  0  0  0  0
   -0.9380   -9.3090   27.8210 C   0  0  0  0  0  0
   -0.4980   -9.0400   28.9290 O   0  0  0  0  0  0
   -0.3970  -10.1650   26.9730 N   0  0  0  0  0  0
    0.8090  -10.9190   27.2620 C   0  0  0  0  0  0
    0.7280  -12.4140   27.0220 C   0  0  0  0  0  0
    0.7410  -11.8970   28.4590 C   0  0  0  0  0  0
    2.1390  -10.2010   27.0420 C   0  0  0  0  0  0
    3.2500  -10.7820   27.2300 N   0  0  0  0  0  0
   -7.9388   -3.6193   25.4149 H   0  0  0  0  0  0
   -9.4954   -5.4867   25.1944 H   0  0  0  0  0  0
   -8.7019   -7.8051   25.1440 H   0  0  0  0  0  0
   -6.2750   -8.2446   25.1234 H   0  0  0  0  0  0
   -3.5115   -5.6588   27.2067 H   0  0  0  0  0  0
   -4.5808   -6.9178   28.6529 H   0  0  0  0  0  0
   -5.1071   -8.0058   27.3240 H   0  0  0  0  0  0
   -2.9038   -8.2778   29.2664 H   0  0  0  0  0  0
   -3.8246   -9.5317   28.3683 H   0  0  0  0  0  0
   -2.4697   -9.4229   26.5503 H   0  0  0  0  0  0
   -1.6252   -7.2356   25.8046 H   0  0  0  0  0  0
   -1.4129   -6.6646   27.4944 H   0  0  0  0  0  0
   -0.9073  -10.2928   26.0070 H   0  0  0  0  0  0
   -0.1780  -12.6437   26.4420 H   0  0  0  0  0  0
    1.6153  -12.7441   26.4619 H   0  0  0  0  0  0
    1.6404  -11.7782   29.0811 H   0  0  0  0  0  0
   -0.1530  -11.6778   29.0613 H   0  0  0  0  0  0
    2.1159   -9.1520   26.7116 H   0  0  0  0  0  0
    3.2731  -11.8310   27.5604 H   0  0  0  0  0  0
  1  2  1  0  0  0
  2  3  1  0  0  0
  2  4  1  0  0  0
  2  5  1  0  0  0
  5  6  2  0  0  0
  5 10  1  0  0  0
  6  7  1  0  0  0
  6 27  1  0  0  0
  7  8  2  0  0  0
  7 28  1  0  0  0
  8  9  1  0  0  0
  8 29  1  0  0  0
  9 10  2  0  0  0
  9 30  1  0  0  0
 10 11  1  0  0  0
 11 12  2  0  0  0
 11 13  2  0  0  0
 11 14  1  0  0  0
 14 15  1  0  0  0
 14 18  1  0  0  0
 14 31  1  0  0  0
 15 16  1  0  0  0
 15 32  1  0  0  0
 15 33  1  0  0  0
 16 17  1  0  0  0
 16 34  1  0  0  0
 16 35  1  0  0  0
 17 18  1  0  0  0
 17 19  1  0  0  0
 17 36  1  0  0  0
 18 37  1  0  0  0
 18 38  1  0  0  0
 19 20  2  0  0  0
 19 21  1  0  0  0
 21 22  1  0  0  0
 21 39  1  0  0  0
 22 23  1  0  0  0
 22 24  1  0  0  0
 22 25  1  0  0  0
 23 24  1  0  0  0
 23 40  1  0  0  0
 23 41  1  0  0  0
 24 42  1  0  0  0
 24 43  1  0  0  0
 25 26  2  0  0  0
 25 44  1  0  0  0
 26 45  1  0  0  0
M  CHG  1  16   1
M  END
> <s_m_source_file>
../4bs5_ligand.sdf

> <i_m_source_file_index>
1

> <s_epik_input>
RkMoRikoRiljMVtjSF1bY0hdW2NIXVtjSF1jMVMoPU8pKD1PKVtDQEhdMltDSDJdW05IMitdW0NAQEhdKFtDSDJdMilDKD1PKVtOSF1DMyhbQ0gyXVtDSDJdMykvW0NIXT1OXFtIXQ==

> <s_epik_cmdline>
J2VwaWtfYXBwJywgJy1pbWFlJywgJ2xpZ2FuZF9wcm8ubWFlJywgJy1vbWFlJywgJ2xpZ2FuZF9wcmVwLm1hZScsICctbXMnLCAnMScsICctcGgnLCAnNycsICctcGh0JywgJzAuNScsICctbnQn

> <r_lp_tautomer_probability>
0.5

> <r_epik_Ionization_Penalty>
  0.1161

> <r_epik_Ionization_Penalty_Charging>
  0.0456

> <r_epik_Ionization_Penalty_Neutral>
  0.0705

> <r_epik_State_Penalty>
  0.4107

> <r_epik_Charging_Adjusted_Penalty>
0.456254348527632

> <i_epik_Tot_Q>
1

> <i_epik_Tot_abs_Q>
1

> <s_epik_Chemistry_Notes>
This compound has an imine and may undergo hydrolysis.

$$$$
