4bsq_ligand
                    3D
 Schrodinger Suite 2020-3.
 53 55  0  0  1  0            999 V2000
   -3.6760   -7.6530   24.4880 O   0  0  0  0  0  0
   -3.7860   -6.4100   25.2560 S   0  0  0  0  0  0
   -2.9840   -5.3130   24.6950 O   0  0  0  0  0  0
   -5.5140   -6.0230   25.5830 C   0  0  0  0  0  0
   -5.9490   -4.7060   25.8230 C   0  0  0  0  0  0
   -7.3100   -4.4220   26.0540 C   0  0  0  0  0  0
   -8.2690   -5.4490   26.0560 C   0  0  0  0  0  0
   -7.8610   -6.7700   25.8120 C   0  0  0  0  0  0
   -6.4950   -7.0460   25.5820 C   0  0  0  0  0  0
   -3.0560   -6.7350   26.8390 C   0  0  2  0  0  0
   -1.6340   -7.2700   26.6260 C   0  0  0  0  0  0
   -3.8790   -7.7820   27.6100 C   0  0  0  0  0  0
   -2.7930   -8.6420   28.2630 C   0  0  2  0  0  0
   -1.6860   -8.6940   27.1890 C   0  0  2  0  0  0
   -0.3800   -9.2320   27.7110 C   0  0  0  0  0  0
    0.2060  -10.2520   26.9980 N   0  0  0  0  0  0
    1.4680  -10.9070   27.4070 C   0  0  0  0  0  0
    2.6340  -10.1700   26.8060 C   0  0  0  0  0  0
    3.8460  -10.5960   26.7650 N   0  0  0  0  0  0
    0.1570   -8.8380   28.7480 O   0  0  0  0  0  0
   -3.2770   -9.9810   28.7950 C   0  0  0  0  0  0
   -3.0100  -11.0280   28.2070 O   0  0  0  0  0  0
   -4.0240  -10.0420   29.9800 N   0  0  0  0  0  0
   -4.2410   -8.8620   30.8450 C   0  0  0  0  0  0
   -4.0800   -9.2830   32.3100 C   0  0  0  0  0  0
   -4.9280  -10.4070   32.5860 O   0  0  0  0  0  0
   -4.6570  -11.5690   31.7910 C   0  0  0  0  0  0
   -4.8400  -11.2410   30.3020 C   0  0  0  0  0  0
   -5.2223   -3.8936   25.8303 H   0  0  0  0  0  0
   -7.6224   -3.3932   26.2333 H   0  0  0  0  0  0
   -9.3183   -5.2225   26.2449 H   0  0  0  0  0  0
   -8.5934   -7.5772   25.8001 H   0  0  0  0  0  0
   -6.1864   -8.0752   25.3985 H   0  0  0  0  0  0
   -2.9674   -5.8853   27.5319 H   0  0  0  0  0  0
   -1.3944   -7.2571   25.5525 H   0  0  0  0  0  0
   -0.9183   -6.6353   27.1691 H   0  0  0  0  0  0
   -4.5213   -7.2748   28.3450 H   0  0  0  0  0  0
   -4.5052   -8.3481   26.9047 H   0  0  0  0  0  0
   -2.4259   -8.2209   29.2106 H   0  0  0  0  0  0
   -1.8807   -9.4218   26.3875 H   0  0  0  0  0  0
   -0.2653  -10.6187   26.0742 H   0  0  0  0  0  0
    1.6424  -11.7890   28.0408 H   0  0  0  0  0  0
    2.4836   -9.1794   26.3519 H   0  0  0  0  0  0
    4.0989  -11.5771   27.1933 H   0  0  0  0  0  0
   -3.5019   -8.0856   30.5982 H   0  0  0  0  0  0
   -5.2550   -8.4685   30.6808 H   0  0  0  0  0  0
   -3.0326   -9.5614   32.4985 H   0  0  0  0  0  0
   -4.3603   -8.4451   32.9652 H   0  0  0  0  0  0
   -3.6220  -11.8986   31.9644 H   0  0  0  0  0  0
   -5.3505  -12.3753   32.0718 H   0  0  0  0  0  0
   -5.8990  -11.0312   30.0911 H   0  0  0  0  0  0
   -4.5046  -12.0889   29.6867 H   0  0  0  0  0  0
    4.6303   -9.9795   26.3016 H   0  0  0  0  0  0
  1  2  2  0  0  0
  2  3  2  0  0  0
  2  4  1  0  0  0
  2 10  1  0  0  0
  4  5  2  0  0  0
  4  9  1  0  0  0
  5  6  1  0  0  0
  5 29  1  0  0  0
  6  7  2  0  0  0
  6 30  1  0  0  0
  7  8  1  0  0  0
  7 31  1  0  0  0
  8  9  2  0  0  0
  8 32  1  0  0  0
  9 33  1  0  0  0
 10 11  1  0  0  0
 10 12  1  0  0  0
 10 34  1  0  0  0
 11 14  1  0  0  0
 11 35  1  0  0  0
 11 36  1  0  0  0
 12 13  1  0  0  0
 12 37  1  0  0  0
 12 38  1  0  0  0
 13 14  1  0  0  0
 13 21  1  0  0  0
 13 39  1  0  0  0
 14 15  1  0  0  0
 14 40  1  0  0  0
 15 16  1  0  0  0
 15 20  2  0  0  0
 16 17  1  0  0  0
 16 41  1  0  0  0
 17 18  2  0  0  0
 17 42  1  0  0  0
 18 19  1  0  0  0
 18 43  1  0  0  0
 19 44  1  0  0  0
 19 53  1  0  0  0
 21 22  2  0  0  0
 21 23  1  0  0  0
 23 24  1  0  0  0
 23 28  1  0  0  0
 24 25  1  0  0  0
 24 45  1  0  0  0
 24 46  1  0  0  0
 25 26  1  0  0  0
 25 47  1  0  0  0
 25 48  1  0  0  0
 26 27  1  0  0  0
 27 28  1  0  0  0
 27 49  1  0  0  0
 27 50  1  0  0  0
 28 51  1  0  0  0
 28 52  1  0  0  0
M  END
> <s_m_source_file>
../4bsq_ligand.sdf

> <i_m_source_file_index>
1

> <s_epik_input>
W2NIXTFbY0hdW2NIXVtjSF1bY0hdYzFTKD1PKSg9TylbQ0BASF0yW0NIMl1bQ0BASF0oQyg9TylbTkhdW0NIMl0vW0NIXT1OXFtIXSlbQ0BASF0oW0NIMl0yKUMoPU8pTjNbQ0gyXVtDSDJdT1tDSDJdW0NIMl0z

> <s_epik_cmdline>
J2VwaWtfYXBwJywgJy1pbWFlJywgJ2xpZ2FuZF9wcm8ubWFlJywgJy1vbWFlJywgJ2xpZ2FuZF9wcmVwLm1hZScsICctbXMnLCAnMScsICctcGgnLCAnNycsICctcGh0JywgJzAuNScsICctbnQn

> <r_lp_tautomer_probability>
1

> <r_epik_Ionization_Penalty>
  0.0003

> <r_epik_Ionization_Penalty_Charging>
  0.0002

> <r_epik_Ionization_Penalty_Neutral>
  0.0000

> <r_epik_State_Penalty>
 -0.0000

> <r_epik_Charging_Adjusted_Penalty>
0.000232367881818018

> <i_epik_Tot_Q>
0

> <i_epik_Tot_abs_Q>
0

> <s_epik_Chemistry_Notes>
This compound has an imine and may undergo hydrolysis.

$$$$
