4bt9_ligand
                    3D
 Schrodinger Suite 2020-3.
108113  0  0  1  0            999 V2000
   77.7600   25.9090  -19.1310 N   0  3  0  0  0  0
   78.9090   25.0140  -18.9610 C   0  0  2  0  0  0
   79.3680   24.9220  -17.5070 C   0  0  0  0  0  0
   79.4710   25.9390  -16.8200 O   0  0  0  0  0  0
   79.9950   25.6700  -19.8190 C   0  0  0  0  0  0
   79.5960   27.1030  -19.9100 C   0  0  0  0  0  0
   78.0950   27.0850  -19.9520 C   0  0  0  0  0  0
   79.6650   23.7000  -17.0490 N   0  0  0  0  0  0
   79.9770   23.4070  -15.6430 C   0  0  2  0  0  0
   81.2860   24.0370  -15.1660 C   0  0  0  0  0  0
   82.1160   24.4180  -15.9880 O   0  0  0  0  0  0
   80.1040   21.8860  -15.6370 C   0  0  0  0  0  0
   80.5270   21.5410  -17.0390 C   0  0  0  0  0  0
   79.8000   22.5110  -17.9130 C   0  0  0  0  0  0
   81.4650   24.1360  -13.8510 N   0  0  0  0  0  0
   82.6910   24.6740  -13.2900 C   0  0  0  0  0  0
   83.5550   23.6200  -12.6240 C   0  0  0  0  0  0
   83.0520   22.5930  -12.1750 O   0  0  0  0  0  0
   84.8710   23.8670  -12.5590 N   0  0  0  0  0  0
   85.7830   22.9040  -11.9300 C   0  0  2  0  0  0
   85.4750   22.7670  -10.4380 C   0  0  0  0  0  0
   84.9320   23.7050   -9.8540 O   0  0  0  0  0  0
   87.1640   23.5330  -12.1430 C   0  0  0  0  0  0
   86.8960   25.0000  -12.3550 C   0  0  0  0  0  0
   85.5550   25.0990  -12.9940 C   0  0  0  0  0  0
   85.7910   21.6040   -9.8400 N   0  0  0  0  0  0
   85.4510   21.3210   -8.4360 C   0  0  2  0  0  0
   85.9630   22.3680   -7.4420 C   0  0  0  0  0  0
   87.0960   22.8450   -7.5560 O   0  0  0  0  0  0
   86.1440   19.9780   -8.1800 C   0  0  0  0  0  0
   86.1620   19.3140   -9.5360 C   0  0  0  0  0  0
   86.4290   20.4460  -10.4970 C   0  0  0  0  0  0
   85.1240   22.7270   -6.4800 N   0  0  0  0  0  0
   85.5570   23.5900   -5.3960 C   0  0  0  0  0  0
   86.0810   22.7240   -4.2700 C   0  0  0  0  0  0
   85.9590   21.5010   -4.3340 O   0  0  0  0  0  0
   86.6770   23.3480   -3.2400 N   0  0  0  0  0  0
   87.1810   22.5860   -2.0890 C   0  0  2  0  0  0
   86.0640   21.7900   -1.4080 C   0  0  0  0  0  0
   84.9220   22.2520   -1.3570 O   0  0  0  0  0  0
   87.7060   23.6820   -1.1500 C   0  0  0  0  0  0
   88.0770   24.8230   -2.0750 C   0  0  0  0  0  0
   87.0070   24.7850   -3.1470 C   0  0  0  0  0  0
   86.3860   20.5860   -0.9080 N   0  0  0  0  0  0
   85.3830   19.7740   -0.2110 C   0  0  2  0  0  0
   85.1880   20.2450    1.2260 C   0  0  0  0  0  0
   85.8130   21.2270    1.6370 O   0  0  0  0  0  0
   85.9970   18.3700   -0.2300 C   0  0  0  0  0  0
   87.4810   18.6000   -0.3120 C   0  0  0  0  0  0
   87.6550   19.8610   -1.1210 C   0  0  0  0  0  0
   84.3270   19.5640    1.9760 N   0  0  0  0  0  0
   84.1630   19.8610    3.3900 C   0  0  0  0  0  0
   82.8580   20.5440    3.7580 C   0  0  0  0  0  0
   81.7740   20.0720    3.4100 O   0  0  0  0  0  0
   82.8470   21.5790    4.4300 O   0  5  0  0  0  0
   76.9420   25.3654  -19.6264 H   0  0  0  0  0  0
   77.4216   26.2624  -18.1458 H   0  0  0  0  0  0
   78.6317   23.9922  -19.2593 H   0  0  0  0  0  0
   80.9722   25.5497  -19.3286 H   0  0  0  0  0  0
   80.0199   25.1905  -20.8087 H   0  0  0  0  0  0
   79.9716   27.6448  -19.0294 H   0  0  0  0  0  0
   80.0229   27.5453  -20.8222 H   0  0  0  0  0  0
   77.7004   26.9463  -20.9694 H   0  0  0  0  0  0
   77.6469   27.9844  -19.5044 H   0  0  0  0  0  0
   79.1908   23.8253  -14.9974 H   0  0  0  0  0  0
   80.8569   21.5839  -14.8941 H   0  0  0  0  0  0
   79.1333   21.4380  -15.3783 H   0  0  0  0  0  0
   81.6177   21.6510  -17.1305 H   0  0  0  0  0  0
   80.2433   20.5020  -17.2624 H   0  0  0  0  0  0
   78.8011   22.1528  -18.2025 H   0  0  0  0  0  0
   80.3701   22.7764  -18.8155 H   0  0  0  0  0  0
   80.6571   23.7986  -13.1851 H   0  0  0  0  0  0
   83.2880   25.1367  -14.0897 H   0  0  0  0  0  0
   82.4455   25.4312  -12.5308 H   0  0  0  0  0  0
   85.6724   21.9047  -12.3764 H   0  0  0  0  0  0
   87.7874   23.3586  -11.2536 H   0  0  0  0  0  0
   87.6431   23.0768  -13.0218 H   0  0  0  0  0  0
   86.9077   25.5188  -11.3851 H   0  0  0  0  0  0
   87.6736   25.4243  -13.0071 H   0  0  0  0  0  0
   85.6160   25.1163  -14.0922 H   0  0  0  0  0  0
   84.9895   25.9753  -12.6444 H   0  0  0  0  0  0
   84.3565   21.3302   -8.3269 H   0  0  0  0  0  0
   87.1576   20.1566   -7.7918 H   0  0  0  0  0  0
   85.5655   19.4014   -7.4432 H   0  0  0  0  0  0
   86.9568   18.5540   -9.5616 H   0  0  0  0  0  0
   85.1898   18.8343   -9.7223 H   0  0  0  0  0  0
   85.9654   20.2813  -11.4808 H   0  0  0  0  0  0
   87.5033   20.6438  -10.6265 H   0  0  0  0  0  0
   84.0870   22.3614   -6.5112 H   0  0  0  0  0  0
   86.3526   24.2591   -5.7555 H   0  0  0  0  0  0
   84.7054   24.1898   -5.0423 H   0  0  0  0  0  0
   87.9361   21.8543   -2.4121 H   0  0  0  0  0  0
   86.9147   23.9675   -0.4412 H   0  0  0  0  0  0
   88.5765   23.3029   -0.5945 H   0  0  0  0  0  0
   88.0682   25.7684   -1.5128 H   0  0  0  0  0  0
   89.0827   24.6499   -2.4857 H   0  0  0  0  0  0
   87.3731   25.1409   -4.1213 H   0  0  0  0  0  0
   86.1067   25.3505   -2.8647 H   0  0  0  0  0  0
   84.4047   19.8572   -0.7070 H   0  0  0  0  0  0
   85.7178   17.8352    0.6898 H   0  0  0  0  0  0
   85.6214   17.8173   -1.1038 H   0  0  0  0  0  0
   87.8906   18.7160    0.7023 H   0  0  0  0  0  0
   87.9587   17.7401   -0.8042 H   0  0  0  0  0  0
   87.7841   19.6553   -2.1939 H   0  0  0  0  0  0
   88.4934   20.4760   -0.7621 H   0  0  0  0  0  0
   83.7332   18.7641    1.5095 H   0  0  0  0  0  0
   84.2017   18.9259    3.9680 H   0  0  0  0  0  0
   84.9714   20.5299    3.7204 H   0  0  0  0  0  0
  1  2  1  0  0  0
  1  7  1  0  0  0
  1 56  1  0  0  0
  1 57  1  0  0  0
  2  3  1  0  0  0
  2  5  1  0  0  0
  2 58  1  0  0  0
  3  4  2  0  0  0
  3  8  1  0  0  0
  5  6  1  0  0  0
  5 59  1  0  0  0
  5 60  1  0  0  0
  6  7  1  0  0  0
  6 61  1  0  0  0
  6 62  1  0  0  0
  7 63  1  0  0  0
  7 64  1  0  0  0
  8  9  1  0  0  0
  8 14  1  0  0  0
  9 10  1  0  0  0
  9 12  1  0  0  0
  9 65  1  0  0  0
 10 11  2  0  0  0
 10 15  1  0  0  0
 12 13  1  0  0  0
 12 66  1  0  0  0
 12 67  1  0  0  0
 13 14  1  0  0  0
 13 68  1  0  0  0
 13 69  1  0  0  0
 14 70  1  0  0  0
 14 71  1  0  0  0
 15 16  1  0  0  0
 15 72  1  0  0  0
 16 17  1  0  0  0
 16 73  1  0  0  0
 16 74  1  0  0  0
 17 18  2  0  0  0
 17 19  1  0  0  0
 19 20  1  0  0  0
 19 25  1  0  0  0
 20 21  1  0  0  0
 20 23  1  0  0  0
 20 75  1  0  0  0
 21 22  2  0  0  0
 21 26  1  0  0  0
 23 24  1  0  0  0
 23 76  1  0  0  0
 23 77  1  0  0  0
 24 25  1  0  0  0
 24 78  1  0  0  0
 24 79  1  0  0  0
 25 80  1  0  0  0
 25 81  1  0  0  0
 26 27  1  0  0  0
 26 32  1  0  0  0
 27 28  1  0  0  0
 27 30  1  0  0  0
 27 82  1  0  0  0
 28 29  2  0  0  0
 28 33  1  0  0  0
 30 31  1  0  0  0
 30 83  1  0  0  0
 30 84  1  0  0  0
 31 32  1  0  0  0
 31 85  1  0  0  0
 31 86  1  0  0  0
 32 87  1  0  0  0
 32 88  1  0  0  0
 33 34  1  0  0  0
 33 89  1  0  0  0
 34 35  1  0  0  0
 34 90  1  0  0  0
 34 91  1  0  0  0
 35 36  2  0  0  0
 35 37  1  0  0  0
 37 38  1  0  0  0
 37 43  1  0  0  0
 38 39  1  0  0  0
 38 41  1  0  0  0
 38 92  1  0  0  0
 39 40  2  0  0  0
 39 44  1  0  0  0
 41 42  1  0  0  0
 41 93  1  0  0  0
 41 94  1  0  0  0
 42 43  1  0  0  0
 42 95  1  0  0  0
 42 96  1  0  0  0
 43 97  1  0  0  0
 43 98  1  0  0  0
 44 45  1  0  0  0
 44 50  1  0  0  0
 45 46  1  0  0  0
 45 48  1  0  0  0
 45 99  1  0  0  0
 46 47  2  0  0  0
 46 51  1  0  0  0
 48 49  1  0  0  0
 48100  1  0  0  0
 48101  1  0  0  0
 49 50  1  0  0  0
 49102  1  0  0  0
 49103  1  0  0  0
 50104  1  0  0  0
 50105  1  0  0  0
 51 52  1  0  0  0
 51106  1  0  0  0
 52 53  1  0  0  0
 52107  1  0  0  0
 52108  1  0  0  0
 53 54  2  0  0  0
 53 55  1  0  0  0
M  CHG  2   1   1  55  -1
M  END
> <s_m_source_file>
../4bt9_ligand.sdf

> <i_m_source_file_index>
1

> <s_epik_input>
W0NIMl0xW0NIMl1bQ0gyXVtOSDIrXVtDQEBIXTFDKD1PKU4yW0NAQEhdKFtDSDJdW0NIMl1bQ0gyXTIpQyg9TylbTkhdW0NIMl1DKD1PKU4zW0NAQEhdKFtDSDJdW0NIMl1bQ0gyXTMpQyg9TylONFtDQEBIXShbQ0gyXVtDSDJdW0NIMl00KUMoPU8pW05IXVtDSDJdQyg9TylONVtDQEBIXShbQ0gyXVtDSDJdW0NIMl01KUMoPU8pTjZbQ0BASF0oW0NIMl1bQ0gyXVtDSDJdNilDKD1PKVtOSF1bQ0gyXUMoPU8pW09IXQ==

> <s_epik_cmdline>
J2VwaWtfYXBwJywgJy1pbWFlJywgJ2xpZ2FuZF9wcm8ubWFlJywgJy1vbWFlJywgJ2xpZ2FuZF9wcmVwLm1hZScsICctbXMnLCAnMScsICctcGgnLCAnNycsICctcGh0JywgJzAuNScsICctbnQn

> <r_epik_Ionization_Penalty>
  0.0383

> <r_epik_Ionization_Penalty_Charging>
  0.0383

> <r_epik_Ionization_Penalty_Neutral>
  0.0000

> <r_epik_State_Penalty>
  0.0319

> <r_epik_Charging_Adjusted_Penalty>
0.0701862263754353

> <i_epik_Tot_Q>
0

> <i_epik_Tot_abs_Q>
2

$$$$
