4btb_ligand
                    3D
 Schrodinger Suite 2020-3.
129137  0  0  1  0            999 V2000
   84.5970   53.8960   59.5350 N   0  3  0  0  0  0
   83.8740   54.5350   58.4350 C   0  0  2  0  0  0
   82.7600   55.4210   58.9910 C   0  0  0  0  0  0
   82.4330   55.3060   60.1750 O   0  0  0  0  0  0
   83.2900   53.3370   57.6850 C   0  0  0  0  0  0
   83.0150   52.3480   58.7600 C   0  0  0  0  0  0
   84.0810   52.5420   59.8110 C   0  0  0  0  0  0
   82.1820   56.2990   58.1540 N   0  0  0  0  0  0
   81.1050   57.1690   58.6320 C   0  0  2  0  0  0
   79.8540   56.3500   58.8830 C   0  0  0  0  0  0
   79.8550   55.1560   58.5870 O   0  0  0  0  0  0
   80.8640   58.0910   57.4360 C   0  0  0  0  0  0
   81.2410   57.2620   56.2640 C   0  0  0  0  0  0
   82.4400   56.4960   56.7160 C   0  0  0  0  0  0
   78.7930   56.9760   59.4170 N   0  0  0  0  0  0
   77.5250   56.2460   59.4450 C   0  0  2  0  0  0
   77.0200   56.0380   58.0290 C   0  0  0  0  0  0
   77.5320   56.6700   57.1040 O   0  0  0  0  0  0
   76.5810   57.1980   60.1980 C   0  0  0  0  0  0
   77.2230   58.5420   60.1030 C   0  0  0  0  0  0
   78.6950   58.2880   60.0790 C   0  0  0  0  0  0
   76.0330   55.1470   57.8570 N   0  0  0  0  0  0
   75.3490   55.0410   56.5640 C   0  0  2  0  0  0
   74.7000   56.3710   56.2010 C   0  0  0  0  0  0
   74.3430   57.1290   57.0970 O   0  0  0  0  0  0
   74.2620   53.9890   56.8300 C   0  0  0  0  0  0
   74.8200   53.1490   57.9590 C   0  0  0  0  0  0
   75.5960   54.1140   58.8170 C   0  0  0  0  0  0
   74.5320   56.6480   54.8980 N   0  0  0  0  0  0
   73.8860   57.8800   54.4280 C   0  0  2  0  0  0
   72.4820   58.0780   55.0040 C   0  0  0  0  0  0
   71.8850   57.1070   55.4730 O   0  0  0  0  0  0
   73.8090   57.6780   52.9060 C   0  0  0  0  0  0
   74.0420   56.2080   52.6820 C   0  0  0  0  0  0
   74.9490   55.7820   53.7820 C   0  0  0  0  0  0
   71.9680   59.3240   54.9790 N   0  0  0  0  0  0
   70.6210   59.6280   55.4770 C   0  0  2  0  0  0
   69.5730   58.6710   54.9400 C   0  0  0  0  0  0
   69.4440   58.5190   53.7290 O   0  0  0  0  0  0
   70.3740   61.0410   54.9600 C   0  0  0  0  0  0
   71.7390   61.6570   54.9230 C   0  0  0  0  0  0
   72.6800   60.5400   54.5430 C   0  0  0  0  0  0
   68.8520   57.9950   55.8420 N   0  0  0  0  0  0
   67.8080   57.0860   55.3810 C   0  0  2  0  0  0
   66.4910   57.8420   55.2150 C   0  0  0  0  0  0
   66.3040   58.9150   55.7940 O   0  0  0  0  0  0
   67.7160   56.0750   56.5250 C   0  0  0  0  0  0
   68.0030   56.9050   57.7460 C   0  0  0  0  0  0
   69.0400   57.9290   57.3040 C   0  0  0  0  0  0
   65.5720   57.2750   54.4300 N   0  0  0  0  0  0
   64.2450   57.8650   54.2900 C   0  0  2  0  0  0
   63.4790   57.7420   55.6000 C   0  0  0  0  0  0
   63.4140   56.6460   56.1630 O   0  0  0  0  0  0
   63.6030   56.9940   53.2060 C   0  0  0  0  0  0
   64.2840   55.6870   53.3150 C   0  0  0  0  0  0
   65.7000   56.0070   53.6910 C   0  0  0  0  0  0
   62.9280   58.8600   56.1040 N   0  0  0  0  0  0
   62.1260   58.7910   57.3280 C   0  0  2  0  0  0
   60.8930   57.9320   57.0890 C   0  0  0  0  0  0
   60.4170   57.8610   55.9520 O   0  0  0  0  0  0
   61.7060   60.2490   57.5610 C   0  0  0  0  0  0
   62.7080   61.0570   56.8370 C   0  0  0  0  0  0
   63.1310   60.2440   55.6490 C   0  0  0  0  0  0
   60.3530   57.3050   58.0060 O   0  5  0  0  0  0
   85.6627   53.8147   59.2750 H   0  0  0  0  0  0
   84.4872   54.5016   60.4467 H   0  0  0  0  0  0
   84.5296   55.1745   57.8258 H   0  0  0  0  0  0
   82.3749   53.6450   57.1580 H   0  0  0  0  0  0
   84.0258   52.9665   56.9561 H   0  0  0  0  0  0
   82.0145   52.5307   59.1791 H   0  0  0  0  0  0
   83.0576   51.3312   58.3425 H   0  0  0  0  0  0
   84.8984   51.8119   59.7170 H   0  0  0  0  0  0
   83.6729   52.5061   60.8319 H   0  0  0  0  0  0
   81.3785   57.6745   59.5699 H   0  0  0  0  0  0
   79.8055   58.3890   57.4103 H   0  0  0  0  0  0
   81.4950   58.9870   57.5308 H   0  0  0  0  0  0
   80.4051   56.5970   56.0012 H   0  0  0  0  0  0
   81.4710   57.9167   55.4105 H   0  0  0  0  0  0
   83.3761   57.0586   56.5852 H   0  0  0  0  0  0
   82.5284   55.5172   56.2218 H   0  0  0  0  0  0
   77.6466   55.2561   59.9091 H   0  0  0  0  0  0
   75.5911   57.1880   59.7184 H   0  0  0  0  0  0
   76.4853   56.8687   61.2432 H   0  0  0  0  0  0
   76.8892   59.0436   59.1827 H   0  0  0  0  0  0
   76.9364   59.1478   60.9753 H   0  0  0  0  0  0
   79.1297   58.2233   61.0874 H   0  0  0  0  0  0
   79.2442   59.0376   59.4904 H   0  0  0  0  0  0
   76.0553   54.7832   55.7611 H   0  0  0  0  0  0
   73.3266   54.4924   57.1155 H   0  0  0  0  0  0
   74.0956   53.3953   55.9191 H   0  0  0  0  0  0
   73.9917   52.6864   58.5158 H   0  0  0  0  0  0
   75.4680   52.3624   57.5451 H   0  0  0  0  0  0
   76.4779   53.6482   59.2811 H   0  0  0  0  0  0
   74.9734   54.5776   59.5964 H   0  0  0  0  0  0
   74.4726   58.7484   54.7624 H   0  0  0  0  0  0
   72.8169   57.9867   52.5449 H   0  0  0  0  0  0
   74.5833   58.2864   52.4157 H   0  0  0  0  0  0
   73.0810   55.6742   52.7220 H   0  0  0  0  0  0
   74.5050   56.0562   51.6958 H   0  0  0  0  0  0
   76.0096   55.9636   53.5535 H   0  0  0  0  0  0
   74.8100   54.7279   54.0641 H   0  0  0  0  0  0
   70.5843   59.5208   56.5712 H   0  0  0  0  0  0
   69.9146   60.9911   53.9618 H   0  0  0  0  0  0
   69.6988   61.5705   55.6483 H   0  0  0  0  0  0
   71.7562   62.4658   54.1777 H   0  0  0  0  0  0
   71.9835   62.0666   55.9142 H   0  0  0  0  0  0
   73.6440   60.6087   55.0683 H   0  0  0  0  0  0
   72.8562   60.4927   53.4582 H   0  0  0  0  0  0
   68.0555   56.6425   54.4053 H   0  0  0  0  0  0
   66.7085   55.6340   56.5444 H   0  0  0  0  0  0
   68.4612   55.2803   56.3729 H   0  0  0  0  0  0
   67.0763   57.3910   58.0851 H   0  0  0  0  0  0
   68.3917   56.2580   58.5462 H   0  0  0  0  0  0
   70.0683   57.6085   57.5273 H   0  0  0  0  0  0
   68.8623   58.9224   57.7418 H   0  0  0  0  0  0
   64.2997   58.9354   54.0427 H   0  0  0  0  0  0
   62.5232   56.9071   53.3973 H   0  0  0  0  0  0
   63.7648   57.4559   52.2209 H   0  0  0  0  0  0
   63.7896   55.0792   54.0872 H   0  0  0  0  0  0
   64.2320   55.1647   52.3483 H   0  0  0  0  0  0
   66.3455   56.1578   52.8132 H   0  0  0  0  0  0
   66.1449   55.2439   54.3465 H   0  0  0  0  0  0
   62.6975   58.3424   58.1540 H   0  0  0  0  0  0
   60.6930   60.4069   57.1625 H   0  0  0  0  0  0
   61.7135   60.4649   58.6396 H   0  0  0  0  0  0
   62.2537   62.0079   56.5216 H   0  0  0  0  0  0
   63.5626   61.2607   57.4990 H   0  0  0  0  0  0
   64.1897   60.3934   55.3904 H   0  0  0  0  0  0
   62.5069   60.4341   54.7634 H   0  0  0  0  0  0
  1  2  1  0  0  0
  1  7  1  0  0  0
  1 65  1  0  0  0
  1 66  1  0  0  0
  2  3  1  0  0  0
  2  5  1  0  0  0
  2 67  1  0  0  0
  3  4  2  0  0  0
  3  8  1  0  0  0
  5  6  1  0  0  0
  5 68  1  0  0  0
  5 69  1  0  0  0
  6  7  1  0  0  0
  6 70  1  0  0  0
  6 71  1  0  0  0
  7 72  1  0  0  0
  7 73  1  0  0  0
  8  9  1  0  0  0
  8 14  1  0  0  0
  9 10  1  0  0  0
  9 12  1  0  0  0
  9 74  1  0  0  0
 10 11  2  0  0  0
 10 15  1  0  0  0
 12 13  1  0  0  0
 12 75  1  0  0  0
 12 76  1  0  0  0
 13 14  1  0  0  0
 13 77  1  0  0  0
 13 78  1  0  0  0
 14 79  1  0  0  0
 14 80  1  0  0  0
 15 16  1  0  0  0
 15 21  1  0  0  0
 16 17  1  0  0  0
 16 19  1  0  0  0
 16 81  1  0  0  0
 17 18  2  0  0  0
 17 22  1  0  0  0
 19 20  1  0  0  0
 19 82  1  0  0  0
 19 83  1  0  0  0
 20 21  1  0  0  0
 20 84  1  0  0  0
 20 85  1  0  0  0
 21 86  1  0  0  0
 21 87  1  0  0  0
 22 23  1  0  0  0
 22 28  1  0  0  0
 23 24  1  0  0  0
 23 26  1  0  0  0
 23 88  1  0  0  0
 24 25  2  0  0  0
 24 29  1  0  0  0
 26 27  1  0  0  0
 26 89  1  0  0  0
 26 90  1  0  0  0
 27 28  1  0  0  0
 27 91  1  0  0  0
 27 92  1  0  0  0
 28 93  1  0  0  0
 28 94  1  0  0  0
 29 30  1  0  0  0
 29 35  1  0  0  0
 30 31  1  0  0  0
 30 33  1  0  0  0
 30 95  1  0  0  0
 31 32  2  0  0  0
 31 36  1  0  0  0
 33 34  1  0  0  0
 33 96  1  0  0  0
 33 97  1  0  0  0
 34 35  1  0  0  0
 34 98  1  0  0  0
 34 99  1  0  0  0
 35100  1  0  0  0
 35101  1  0  0  0
 36 37  1  0  0  0
 36 42  1  0  0  0
 37 38  1  0  0  0
 37 40  1  0  0  0
 37102  1  0  0  0
 38 39  2  0  0  0
 38 43  1  0  0  0
 40 41  1  0  0  0
 40103  1  0  0  0
 40104  1  0  0  0
 41 42  1  0  0  0
 41105  1  0  0  0
 41106  1  0  0  0
 42107  1  0  0  0
 42108  1  0  0  0
 43 44  1  0  0  0
 43 49  1  0  0  0
 44 45  1  0  0  0
 44 47  1  0  0  0
 44109  1  0  0  0
 45 46  2  0  0  0
 45 50  1  0  0  0
 47 48  1  0  0  0
 47110  1  0  0  0
 47111  1  0  0  0
 48 49  1  0  0  0
 48112  1  0  0  0
 48113  1  0  0  0
 49114  1  0  0  0
 49115  1  0  0  0
 50 51  1  0  0  0
 50 56  1  0  0  0
 51 52  1  0  0  0
 51 54  1  0  0  0
 51116  1  0  0  0
 52 53  2  0  0  0
 52 57  1  0  0  0
 54 55  1  0  0  0
 54117  1  0  0  0
 54118  1  0  0  0
 55 56  1  0  0  0
 55119  1  0  0  0
 55120  1  0  0  0
 56121  1  0  0  0
 56122  1  0  0  0
 57 58  1  0  0  0
 57 63  1  0  0  0
 58 59  1  0  0  0
 58 61  1  0  0  0
 58123  1  0  0  0
 59 60  2  0  0  0
 59 64  1  0  0  0
 61 62  1  0  0  0
 61124  1  0  0  0
 61125  1  0  0  0
 62 63  1  0  0  0
 62126  1  0  0  0
 62127  1  0  0  0
 63128  1  0  0  0
 63129  1  0  0  0
M  CHG  2   1   1  64  -1
M  END
> <s_m_source_file>
../4btb_ligand.sdf

> <i_m_source_file_index>
1

> <s_epik_input>
W0NIMl0xW0NIMl1bQ0gyXVtOSDIrXVtDQEBIXTFDKD1PKU4yW0NAQEhdKFtDSDJdW0NIMl1bQ0gyXTIpQyg9TylOM1tDQEBIXShbQ0gyXVtDSDJdW0NIMl0zKUMoPU8pTjRbQ0BASF0oW0NIMl1bQ0gyXVtDSDJdNClDKD1PKU41W0NAQEhdKFtDSDJdW0NIMl1bQ0gyXTUpQyg9TylONltDQEBIXShbQ0gyXVtDSDJdW0NIMl02KUMoPU8pTjdbQ0BASF0oW0NIMl1bQ0gyXVtDSDJdNylDKD1PKU44W0NAQEhdKFtDSDJdW0NIMl1bQ0gyXTgpQyg9TylOOVtDQEhdKEMoPU8pW09IXSlbQ0gyXVtDSDJdW0NIMl05

> <s_epik_cmdline>
J2VwaWtfYXBwJywgJy1pbWFlJywgJ2xpZ2FuZF9wcm8ubWFlJywgJy1vbWFlJywgJ2xpZ2FuZF9wcmVwLm1hZScsICctbXMnLCAnMScsICctcGgnLCAnNycsICctcGh0JywgJzAuNScsICctbnQn

> <r_epik_Ionization_Penalty>
  0.0382

> <r_epik_Ionization_Penalty_Charging>
  0.0382

> <r_epik_Ionization_Penalty_Neutral>
  0.0000

> <r_epik_State_Penalty>
  0.0317

> <r_epik_Charging_Adjusted_Penalty>
0.0699662412451952

> <i_epik_Tot_Q>
0

> <i_epik_Tot_abs_Q>
2

$$$$
