4bti_ligand
                    3D
 Schrodinger Suite 2020-3.
 75 78  0  0  1  0            999 V2000
   31.6740  -24.1750  -41.4650 C   0  0  0  0  0  0
   30.5710  -23.4020  -41.5740 C   0  0  0  0  0  0
   30.7990  -22.0940  -41.4080 C   0  0  0  0  0  0
   29.6070  -20.8510  -41.4840 Cl  0  0  0  0  0  0
   32.4200  -21.8450  -41.1130 S   0  0  0  0  0  0
   32.7920  -23.4910  -41.1990 C   0  0  0  0  0  0
   34.1970  -24.0580  -41.0310 C   0  0  0  0  0  0
   35.1650  -23.3020  -41.0940 O   0  0  0  0  0  0
   34.3160  -25.3710  -40.8070 N   0  0  0  0  0  0
   35.6540  -25.9920  -40.6820 C   0  0  0  0  0  0
   36.1370  -26.1060  -39.2240 C   0  0  1  0  0  0
   36.0960  -24.7410  -38.5320 C   0  0  0  0  0  0
   35.0740  -24.3410  -37.9750 O   0  0  0  0  0  0
   37.1800  -23.9670  -38.5460 N   0  0  0  0  0  0
   38.4560  -24.3290  -39.1820 C   0  0  0  0  0  0
   37.2580  -22.6360  -37.9230 C   0  0  0  0  0  0
   38.6810  -22.1690  -38.2310 C   0  0  0  0  0  0
   39.4540  -23.4690  -38.4190 C   0  0  2  0  0  0
   40.6590  -23.2470  -39.2370 N   0  3  0  0  0  0
   41.4430  -22.1190  -38.7100 C   0  0  0  0  0  0
   41.5040  -24.4560  -39.2310 C   0  0  0  0  0  0
   35.2790  -27.0710  -38.5200 N   0  0  3  0  0  0
   36.1160  -28.0130  -37.4920 S   0  0  0  0  0  0
   35.1510  -28.9650  -36.8520 O   0  0  0  0  0  0
   37.1540  -28.7870  -38.2410 O   0  0  0  0  0  0
   36.9040  -27.0130  -36.2840 C   0  0  0  0  0  0
   36.1660  -26.3960  -35.2740 C   0  0  0  0  0  0
   34.8090  -26.5620  -35.2290 O   0  0  0  0  0  0
   34.3360  -27.4150  -34.1780 C   0  0  0  0  0  0
   33.0070  -27.3320  -34.1820 F   0  0  0  0  0  0
   34.5880  -28.7120  -34.4080 F   0  0  0  0  0  0
   38.2860  -26.8330  -36.3500 C   0  0  0  0  0  0
   38.9380  -26.0420  -35.4050 C   0  0  0  0  0  0
   38.2030  -25.4240  -34.3970 C   0  0  0  0  0  0
   36.8230  -25.5990  -34.3320 C   0  0  0  0  0  0
   36.1120  -24.9580  -33.3060 N   0  0  0  0  0  0
   35.3110  -23.7610  -33.6530 C   0  0  0  0  0  0
   35.1470  -22.8500  -32.4480 C   0  0  0  0  0  0
   34.5120  -23.6350  -31.3100 C   0  0  0  0  0  0
   35.4270  -24.7750  -30.8400 C   0  0  0  0  0  0
   36.1730  -25.4510  -31.9920 C   0  0  0  0  0  0
   36.8550  -26.4410  -31.7450 O   0  0  0  0  0  0
   31.6543  -25.2584  -41.5832 H   0  0  0  0  0  0
   29.5809  -23.8089  -41.7794 H   0  0  0  0  0  0
   33.4115  -25.9903  -40.7156 H   0  0  0  0  0  0
   35.6276  -27.0078  -41.1033 H   0  0  0  0  0  0
   36.3916  -25.3871  -41.2297 H   0  0  0  0  0  0
   37.1671  -26.4891  -39.1778 H   0  0  0  0  0  0
   38.6353  -25.4070  -39.0566 H   0  0  0  0  0  0
   38.4131  -24.0867  -40.2541 H   0  0  0  0  0  0
   36.4989  -21.9771  -38.3697 H   0  0  0  0  0  0
   37.0753  -22.7258  -36.8420 H   0  0  0  0  0  0
   38.6753  -21.5516  -39.1414 H   0  0  0  0  0  0
   39.0626  -21.5749  -37.3875 H   0  0  0  0  0  0
   39.8330  -23.9122  -37.4863 H   0  0  0  0  0  0
   40.3369  -23.0168  -40.2633 H   0  0  0  0  0  0
   40.8232  -21.2103  -38.7093 H   0  0  0  0  0  0
   42.3274  -21.9591  -39.3442 H   0  0  0  0  0  0
   41.7645  -22.3443  -37.6825 H   0  0  0  0  0  0
   40.9286  -25.3075  -39.6233 H   0  0  0  0  0  0
   41.8253  -24.6736  -38.2017 H   0  0  0  0  0  0
   42.3882  -24.2885  -39.8635 H   0  0  0  0  0  0
   34.1845  -26.9884  -38.5917 H   0  0  0  0  0  0
   34.7895  -27.1440  -33.2132 H   0  0  0  0  0  0
   38.8584  -27.3129  -37.1438 H   0  0  0  0  0  0
   40.0186  -25.9080  -35.4552 H   0  0  0  0  0  0
   38.7083  -24.8024  -33.6578 H   0  0  0  0  0  0
   35.8166  -23.2009  -34.4534 H   0  0  0  0  0  0
   34.3144  -24.0740  -33.9977 H   0  0  0  0  0  0
   36.1328  -22.4766  -32.1338 H   0  0  0  0  0  0
   34.5015  -22.0005  -32.7157 H   0  0  0  0  0  0
   34.3260  -22.9624  -30.4597 H   0  0  0  0  0  0
   33.5597  -24.0682  -31.6500 H   0  0  0  0  0  0
   36.1779  -24.3780  -30.1410 H   0  0  0  0  0  0
   34.8247  -25.5435  -30.3334 H   0  0  0  0  0  0
  1  2  1  0  0  0
  1  6  2  0  0  0
  1 43  1  0  0  0
  2  3  2  0  0  0
  2 44  1  0  0  0
  3  4  1  0  0  0
  3  5  1  0  0  0
  5  6  1  0  0  0
  6  7  1  0  0  0
  7  8  2  0  0  0
  7  9  1  0  0  0
  9 10  1  0  0  0
  9 45  1  0  0  0
 10 11  1  0  0  0
 10 46  1  0  0  0
 10 47  1  0  0  0
 11 12  1  0  0  0
 11 22  1  0  0  0
 11 48  1  0  0  0
 12 13  2  0  0  0
 12 14  1  0  0  0
 14 15  1  0  0  0
 14 16  1  0  0  0
 15 18  1  0  0  0
 15 49  1  0  0  0
 15 50  1  0  0  0
 16 17  1  0  0  0
 16 51  1  0  0  0
 16 52  1  0  0  0
 17 18  1  0  0  0
 17 53  1  0  0  0
 17 54  1  0  0  0
 18 19  1  0  0  0
 18 55  1  0  0  0
 19 20  1  0  0  0
 19 21  1  0  0  0
 19 56  1  0  0  0
 20 57  1  0  0  0
 20 58  1  0  0  0
 20 59  1  0  0  0
 21 60  1  0  0  0
 21 61  1  0  0  0
 21 62  1  0  0  0
 22 23  1  0  0  0
 22 63  1  0  0  0
 23 24  2  0  0  0
 23 25  2  0  0  0
 23 26  1  0  0  0
 26 27  2  0  0  0
 26 32  1  0  0  0
 27 28  1  0  0  0
 27 35  1  0  0  0
 28 29  1  0  0  0
 29 30  1  0  0  0
 29 31  1  0  0  0
 29 64  1  0  0  0
 32 33  2  0  0  0
 32 65  1  0  0  0
 33 34  1  0  0  0
 33 66  1  0  0  0
 34 35  2  0  0  0
 34 67  1  0  0  0
 35 36  1  0  0  0
 36 37  1  0  0  0
 36 41  1  0  0  0
 37 38  1  0  0  0
 37 68  1  0  0  0
 37 69  1  0  0  0
 38 39  1  0  0  0
 38 70  1  0  0  0
 38 71  1  0  0  0
 39 40  1  0  0  0
 39 72  1  0  0  0
 39 73  1  0  0  0
 40 41  1  0  0  0
 40 74  1  0  0  0
 40 75  1  0  0  0
 41 42  2  0  0  0
M  CHG  1  19   1
M  END
> <s_m_source_file>
../4bti_ligand.sdf

> <i_m_source_file_index>
1

> <s_epik_input>
Q2xjMVtjSF1bY0hdYyhzMSlDKD1PKVtOSF1bQ0gyXVtDQEBIXShDKD1PKU4yW0NIMl1bQ0BIXShbQ0gyXVtDSDJdMilbTkgrXShbQ0gzXSlbQ0gzXSlbTkhdUyg9TykoPU8pYzNjKE9bQ0hdKEYpRiljKFtjSF1bY0hdW2NIXTMpTjRbQ0gyXVtDSDJdW0NIMl1bQ0gyXUM0PU8=

> <s_epik_cmdline>
J2VwaWtfYXBwJywgJy1pbWFlJywgJ2xpZ2FuZF9wcm8ubWFlJywgJy1vbWFlJywgJ2xpZ2FuZF9wcmVwLm1hZScsICctbXMnLCAnMScsICctcGgnLCAnNycsICctcGh0JywgJzAuNScsICctbnQn

> <r_lp_tautomer_probability>
1

> <r_epik_Ionization_Penalty>
  0.0216

> <r_epik_Ionization_Penalty_Charging>
  0.0055

> <r_epik_Ionization_Penalty_Neutral>
  0.0161

> <r_epik_State_Penalty>
  0.0127

> <r_epik_Charging_Adjusted_Penalty>
0.0181614307977614

> <i_epik_Tot_Q>
1

> <i_epik_Tot_abs_Q>
1

$$$$
