4btk_ligand
                    3D
 Schrodinger Suite 2020-3.
 37 39  0  0  1  0            999 V2000
   64.9060   19.2270   25.5250 N   0  0  0  0  0  0
   66.2050   19.1560   25.2280 C   0  0  0  0  0  0
   66.9080   19.9880   24.4600 N   0  0  0  0  0  0
   66.2410   21.0060   23.9200 C   0  0  0  0  0  0
   64.8900   21.1870   24.1810 C   0  0  0  0  0  0
   64.2450   20.2590   24.9870 C   0  0  0  0  0  0
   66.9010   21.9020   23.1050 C   0  0  0  0  0  0
   66.2580   22.9880   22.5480 C   0  0  0  0  0  0
   64.9070   23.1510   22.8090 C   0  0  0  0  0  0
   64.2200   22.2520   23.6100 C   0  0  0  0  0  0
   62.8680   20.4170   25.2580 N   0  0  0  0  0  0
   62.0970   19.5370   26.0450 C   0  0  0  0  0  0
   61.0730   20.0890   26.7790 C   0  0  0  0  0  0
   60.2820   19.2820   27.5620 C   0  0  0  0  0  0
   60.4590   17.9150   27.6330 C   0  0  0  0  0  0
   61.4850   17.3590   26.8910 C   0  0  0  0  0  0
   62.2840   18.1660   26.1040 C   0  0  0  0  0  0
   59.2700   19.8870   28.2490 O   0  0  0  0  0  0
   66.9030   23.9280   21.7190 O   0  0  0  0  0  0
   68.3220   23.8160   21.6770 C   0  0  0  0  0  0
   64.2260   24.2010   22.2030 O   0  0  0  0  0  0
   63.4820   24.9220   23.1960 C   0  0  0  0  0  0
   66.7544   18.3215   25.6637 H   0  0  0  0  0  0
   67.9595   21.7478   22.8954 H   0  0  0  0  0  0
   63.1531   22.3851   23.7891 H   0  0  0  0  0  0
   62.3209   21.2764   24.8431 H   0  0  0  0  0  0
   60.8893   21.1627   26.7400 H   0  0  0  0  0  0
   59.8119   17.2946   28.2530 H   0  0  0  0  0  0
   61.6633   16.2843   26.9270 H   0  0  0  0  0  0
   63.0812   17.7124   25.5150 H   0  0  0  0  0  0
   59.1373   20.9771   28.1859 H   0  0  0  0  0  0
   68.7310   24.5874   21.0080 H   0  0  0  0  0  0
   68.6002   22.8201   21.3017 H   0  0  0  0  0  0
   68.7308   23.9539   22.6889 H   0  0  0  0  0  0
   62.9426   25.7531   22.7182 H   0  0  0  0  0  0
   64.1725   25.3205   23.9539 H   0  0  0  0  0  0
   62.7607   24.2450   23.6770 H   0  0  0  0  0  0
  1  2  2  0  0  0
  1  6  1  0  0  0
  2  3  1  0  0  0
  2 23  1  0  0  0
  3  4  2  0  0  0
  4  5  1  0  0  0
  4  7  1  0  0  0
  5  6  2  0  0  0
  5 10  1  0  0  0
  6 11  1  0  0  0
  7  8  2  0  0  0
  7 24  1  0  0  0
  8  9  1  0  0  0
  8 19  1  0  0  0
  9 10  2  0  0  0
  9 21  1  0  0  0
 10 25  1  0  0  0
 11 12  1  0  0  0
 11 26  1  0  0  0
 12 13  2  0  0  0
 12 17  1  0  0  0
 13 14  1  0  0  0
 13 27  1  0  0  0
 14 15  2  0  0  0
 14 18  1  0  0  0
 15 16  1  0  0  0
 15 28  1  0  0  0
 16 17  2  0  0  0
 16 29  1  0  0  0
 17 30  1  0  0  0
 18 31  1  0  0  0
 19 20  1  0  0  0
 20 32  1  0  0  0
 20 33  1  0  0  0
 20 34  1  0  0  0
 21 22  1  0  0  0
 22 35  1  0  0  0
 22 36  1  0  0  0
 22 37  1  0  0  0
M  END
> <s_m_source_file>
../4btk_ligand.sdf

> <i_m_source_file_index>
1

> <s_epik_input>
W0NIM11PYyhbY0hdMSljKE9bQ0gzXSlbY0hdYyhjMTIpYyhuW2NIXW4yKVtOSF1jM1tjSF1jKFtPSF0pW2NIXVtjSF1bY0hdMw==

> <s_epik_cmdline>
J2VwaWtfYXBwJywgJy1pbWFlJywgJ2xpZ2FuZF9wcm8ubWFlJywgJy1vbWFlJywgJ2xpZ2FuZF9wcmVwLm1hZScsICctbXMnLCAnMScsICctcGgnLCAnNycsICctcGh0JywgJzAuNScsICctbnQn

> <r_lp_tautomer_probability>
1

> <r_epik_Ionization_Penalty>
  0.0025

> <r_epik_Ionization_Penalty_Charging>
  0.0000

> <r_epik_Ionization_Penalty_Neutral>
  0.0025

> <r_epik_State_Penalty>
 -0.0000

> <r_epik_Charging_Adjusted_Penalty>
0

> <i_epik_Tot_Q>
0

> <i_epik_Tot_abs_Q>
0

$$$$
