4btl_ligand
                    3D
 Schrodinger Suite 2020-3.
 51 52  0  0  1  0            999 V2000
   32.5090   24.1390   10.4940 Cl  0  0  0  0  0  0
   27.6230   18.9600   11.7650 O   0  0  0  0  0  0
   29.0210   18.8920   12.0200 S   0  0  0  0  0  0
   29.7950   19.9150   10.8990 C   0  0  0  0  0  0
   31.1690   19.9960   10.7220 C   0  0  0  0  0  0
   31.7980   20.8300    9.8280 C   0  0  0  0  0  0
   29.0680   20.7930   10.1010 C   0  0  0  0  0  0
   29.6580   21.6690    9.1800 C   0  0  0  0  0  0
   31.0500   21.6870    9.0470 C   0  0  0  0  0  0
   31.6560   22.5160    8.1580 O   0  0  0  0  0  0
   32.9970   22.8220    8.2350 C   0  0  0  0  0  0
   33.8910   22.4360    7.2430 C   0  0  0  0  0  0
   33.4870   21.5470    6.1480 N   0  3  0  0  0  0
   34.1560   21.5860    5.1280 O   0  0  0  0  0  0
   32.5380   20.7950    6.3200 O   0  5  0  0  0  0
   35.2420   22.7900    7.2880 C   0  0  0  0  0  0
   35.7170   23.5610    8.3410 C   0  0  0  0  0  0
   34.8480   23.9760    9.3410 C   0  0  0  0  0  0
   33.5130   23.6140    9.2690 C   0  0  0  0  0  0
   29.2340   19.5020   13.5480 N   0  0  3  0  0  0
   28.5180   20.7410   14.0000 C   0  0  0  0  0  0
   27.1060   20.5910   14.6690 C   0  0  0  0  0  0
   26.3510   19.3280   14.2170 N   0  3  0  0  0  0
   26.1760   18.4170   15.4010 C   0  0  0  0  0  0
   27.3040   17.4330   15.6260 C   0  0  0  0  0  0
   24.9900   19.7340   13.7320 C   0  0  0  0  0  0
   25.0380   20.6600   12.5260 C   0  0  0  0  0  0
   29.6280   17.6160   11.9700 O   0  0  0  0  0  0
   31.7960   19.3507   11.3373 H   0  0  0  0  0  0
   32.8840   20.8142    9.7365 H   0  0  0  0  0  0
   27.9823   20.7997   10.1974 H   0  0  0  0  0  0
   29.0383   22.3295    8.5735 H   0  0  0  0  0  0
   35.9202   22.4624    6.5000 H   0  0  0  0  0  0
   36.7700   23.8397    8.3822 H   0  0  0  0  0  0
   35.2119   24.5794   10.1727 H   0  0  0  0  0  0
   30.0355   19.0731   14.1674 H   0  0  0  0  0  0
   29.1289   21.2644   14.7502 H   0  0  0  0  0  0
   28.3501   21.4027   13.1375 H   0  0  0  0  0  0
   27.2219   20.5352   15.7614 H   0  0  0  0  0  0
   26.4835   21.4602   14.4103 H   0  0  0  0  0  0
   26.8933   18.8016   13.4177 H   0  0  0  0  0  0
   26.0966   19.0190   16.3182 H   0  0  0  0  0  0
   25.2602   17.8212   15.2731 H   0  0  0  0  0  0
   27.0821   16.8167   16.5097 H   0  0  0  0  0  0
   28.2430   17.9825   15.7885 H   0  0  0  0  0  0
   27.4066   16.7847   14.7433 H   0  0  0  0  0  0
   24.4219   18.8379   13.4416 H   0  0  0  0  0  0
   24.4565   20.2618   14.5363 H   0  0  0  0  0  0
   24.0132   20.9190   12.2216 H   0  0  0  0  0  0
   25.5504   20.1534   11.6949 H   0  0  0  0  0  0
   25.5851   21.5772   12.7895 H   0  0  0  0  0  0
  1 19  1  0  0  0
  2  3  2  0  0  0
  3  4  1  0  0  0
  3 20  1  0  0  0
  3 28  2  0  0  0
  4  5  2  0  0  0
  4  7  1  0  0  0
  5  6  1  0  0  0
  5 29  1  0  0  0
  6  9  2  0  0  0
  6 30  1  0  0  0
  7  8  2  0  0  0
  7 31  1  0  0  0
  8  9  1  0  0  0
  8 32  1  0  0  0
  9 10  1  0  0  0
 10 11  1  0  0  0
 11 12  2  0  0  0
 11 19  1  0  0  0
 12 13  1  0  0  0
 12 16  1  0  0  0
 13 14  2  0  0  0
 13 15  1  0  0  0
 16 17  2  0  0  0
 16 33  1  0  0  0
 17 18  1  0  0  0
 17 34  1  0  0  0
 18 19  2  0  0  0
 18 35  1  0  0  0
 20 21  1  0  0  0
 20 36  1  0  0  0
 21 22  1  0  0  0
 21 37  1  0  0  0
 21 38  1  0  0  0
 22 23  1  0  0  0
 22 39  1  0  0  0
 22 40  1  0  0  0
 23 24  1  0  0  0
 23 26  1  0  0  0
 23 41  1  0  0  0
 24 25  1  0  0  0
 24 42  1  0  0  0
 24 43  1  0  0  0
 25 44  1  0  0  0
 25 45  1  0  0  0
 25 46  1  0  0  0
 26 27  1  0  0  0
 26 47  1  0  0  0
 26 48  1  0  0  0
 27 49  1  0  0  0
 27 50  1  0  0  0
 27 51  1  0  0  0
M  CHG  3  13   1  15  -1  23   1
M  END
> <s_m_source_file>
../4btl_ligand.sdf

> <i_m_source_file_index>
1

> <s_epik_input>
Q2xjMVtjSF1bY0hdW2NIXWMoW04rXSg9TylbTy1dKWMxT2MoW2NIXVtjSF0yKVtjSF1bY0hdYzJTKD1PKSg9TylbTkhdW0NIMl1bQ0gyXVtOSCtdKFtDSDJdW0NIM10pW0NIMl1bQ0gzXQ==

> <s_epik_cmdline>
J2VwaWtfYXBwJywgJy1pbWFlJywgJ2xpZ2FuZF9wcm8ubWFlJywgJy1vbWFlJywgJ2xpZ2FuZF9wcmVwLm1hZScsICctbXMnLCAnMScsICctcGgnLCAnNycsICctcGh0JywgJzAuNScsICctbnQn

> <r_lp_tautomer_probability>
1

> <r_epik_Ionization_Penalty>
  0.0243

> <r_epik_Ionization_Penalty_Charging>
  0.0207

> <r_epik_Ionization_Penalty_Neutral>
  0.0036

> <r_epik_State_Penalty>
  0.0166

> <r_epik_Charging_Adjusted_Penalty>
0.0373627347166059

> <i_epik_Tot_Q>
1

> <i_epik_Tot_abs_Q>
3

$$$$
