4btt_ligand
                    3D
 Schrodinger Suite 2020-3.
 75 79  0  0  1  0            999 V2000
   33.3960  -21.6360  -42.1050 C   0  0  0  0  0  0
   32.2110  -21.0200  -42.2490 C   0  0  0  0  0  0
   31.2480  -21.7990  -42.7340 C   0  0  0  0  0  0
   29.6400  -21.2610  -43.0580 Cl  0  0  0  0  0  0
   31.8540  -23.3520  -42.9360 S   0  0  0  0  0  0
   33.4000  -22.9390  -42.4040 C   0  0  0  0  0  0
   34.4740  -23.8120  -42.3030 C   0  0  0  0  0  0
   34.5350  -25.0090  -41.7280 C   0  0  0  0  0  0
   35.7110  -23.4640  -42.7430 O   0  0  0  0  0  0
   36.5410  -24.5460  -42.4280 N   0  0  0  0  0  0
   35.7890  -25.4610  -41.8220 C   0  0  0  0  0  0
   36.3020  -26.8080  -41.3070 C   0  0  0  0  0  0
   36.6740  -26.8250  -39.8090 C   0  0  1  0  0  0
   36.8040  -25.4240  -39.1520 C   0  0  0  0  0  0
   35.7860  -24.8770  -38.7210 O   0  0  0  0  0  0
   38.0060  -24.8310  -38.9490 N   0  0  0  0  0  0
   38.0890  -23.5040  -38.2570 C   0  0  0  0  0  0
   38.7470  -22.4460  -39.1630 C   0  0  0  0  0  0
   39.9010  -23.0020  -40.0580 C   0  0  0  0  0  0
   41.1790  -22.4120  -39.7530 O   0  0  0  0  0  0
   41.5610  -21.4900  -40.7900 C   0  0  0  0  0  0
   40.0030  -24.5190  -40.4190 C   0  0  0  0  0  0
   39.2980  -25.4410  -39.4050 C   0  0  0  0  0  0
   35.7080  -27.6590  -39.0690 N   0  0  3  0  0  0
   36.4250  -28.5700  -37.9000 S   0  0  0  0  0  0
   35.4060  -29.4990  -37.3080 O   0  0  0  0  0  0
   37.5060  -29.4180  -38.5100 O   0  0  0  0  0  0
   37.1180  -27.5180  -36.6360 C   0  0  0  0  0  0
   36.3280  -26.6760  -35.8110 C   0  0  0  0  0  0
   34.7880  -26.6300  -35.9380 C   0  0  0  0  0  0
   34.1040  -27.5360  -34.9140 C   0  0  0  0  0  0
   38.5130  -27.5250  -36.5210 C   0  0  0  0  0  0
   39.1650  -26.7260  -35.5870 C   0  0  0  0  0  0
   38.4070  -25.9020  -34.7600 C   0  0  0  0  0  0
   37.0110  -25.8650  -34.8700 C   0  0  0  0  0  0
   36.3250  -25.0110  -33.9700 N   0  0  0  0  0  0
   35.9780  -23.6170  -34.4070 C   0  0  0  0  0  0
   35.0550  -22.8720  -33.4180 C   0  0  0  0  0  0
   34.4950  -23.6230  -32.3010 O   0  0  0  0  0  0
   35.3920  -24.6150  -31.7570 C   0  0  0  0  0  0
   36.0570  -25.4580  -32.6450 C   0  0  0  0  0  0
   36.3460  -26.5990  -32.2830 O   0  0  0  0  0  0
   34.2901  -21.1112  -41.7685 H   0  0  0  0  0  0
   32.0524  -19.9730  -41.9909 H   0  0  0  0  0  0
   33.7025  -25.5334  -41.2589 H   0  0  0  0  0  0
   35.5269  -27.5750  -41.4513 H   0  0  0  0  0  0
   37.2074  -27.0925  -41.8632 H   0  0  0  0  0  0
   37.6615  -27.3024  -39.7264 H   0  0  0  0  0  0
   37.0764  -23.1627  -37.9959 H   0  0  0  0  0  0
   38.6895  -23.6051  -37.3409 H   0  0  0  0  0  0
   37.9903  -22.0196  -39.8380 H   0  0  0  0  0  0
   39.1759  -21.6464  -38.5412 H   0  0  0  0  0  0
   39.6379  -22.5701  -41.0348 H   0  0  0  0  0  0
   42.5376  -21.0469  -40.5452 H   0  0  0  0  0  0
   40.8064  -20.6936  -40.8687 H   0  0  0  0  0  0
   41.6310  -22.0249  -41.7486 H   0  0  0  0  0  0
   39.5394  -24.6942  -41.4010 H   0  0  0  0  0  0
   41.0612  -24.8171  -40.4547 H   0  0  0  0  0  0
   39.9590  -25.5902  -38.5385 H   0  0  0  0  0  0
   39.0968  -26.4106  -39.8839 H   0  0  0  0  0  0
   34.6279  -27.5058  -39.2099 H   0  0  0  0  0  0
   34.4373  -25.6002  -35.7752 H   0  0  0  0  0  0
   34.4929  -26.9631  -36.9440 H   0  0  0  0  0  0
   33.0130  -27.4729  -35.0395 H   0  0  0  0  0  0
   34.3756  -27.2120  -33.8985 H   0  0  0  0  0  0
   34.4313  -28.5749  -35.0672 H   0  0  0  0  0  0
   39.1000  -28.1689  -37.1759 H   0  0  0  0  0  0
   40.2517  -26.7450  -35.5043 H   0  0  0  0  0  0
   38.9055  -25.2782  -34.0181 H   0  0  0  0  0  0
   36.8992  -23.0242  -34.5073 H   0  0  0  0  0  0
   35.4591  -23.6550  -35.3762 H   0  0  0  0  0  0
   35.6085  -22.0425  -32.9538 H   0  0  0  0  0  0
   34.1834  -22.4742  -33.9585 H   0  0  0  0  0  0
   36.1899  -24.1152  -31.1882 H   0  0  0  0  0  0
   34.8332  -25.2884  -31.0905 H   0  0  0  0  0  0
  1  2  1  0  0  0
  1  6  2  0  0  0
  1 43  1  0  0  0
  2  3  2  0  0  0
  2 44  1  0  0  0
  3  4  1  0  0  0
  3  5  1  0  0  0
  5  6  1  0  0  0
  6  7  1  0  0  0
  7  8  2  0  0  0
  7  9  1  0  0  0
  8 11  1  0  0  0
  8 45  1  0  0  0
  9 10  1  0  0  0
 10 11  2  0  0  0
 11 12  1  0  0  0
 12 13  1  0  0  0
 12 46  1  0  0  0
 12 47  1  0  0  0
 13 14  1  0  0  0
 13 24  1  0  0  0
 13 48  1  0  0  0
 14 15  2  0  0  0
 14 16  1  0  0  0
 16 17  1  0  0  0
 16 23  1  0  0  0
 17 18  1  0  0  0
 17 49  1  0  0  0
 17 50  1  0  0  0
 18 19  1  0  0  0
 18 51  1  0  0  0
 18 52  1  0  0  0
 19 20  1  0  0  0
 19 22  1  0  0  0
 19 53  1  0  0  0
 20 21  1  0  0  0
 21 54  1  0  0  0
 21 55  1  0  0  0
 21 56  1  0  0  0
 22 23  1  0  0  0
 22 57  1  0  0  0
 22 58  1  0  0  0
 23 59  1  0  0  0
 23 60  1  0  0  0
 24 25  1  0  0  0
 24 61  1  0  0  0
 25 26  2  0  0  0
 25 27  2  0  0  0
 25 28  1  0  0  0
 28 29  2  0  0  0
 28 32  1  0  0  0
 29 30  1  0  0  0
 29 35  1  0  0  0
 30 31  1  0  0  0
 30 62  1  0  0  0
 30 63  1  0  0  0
 31 64  1  0  0  0
 31 65  1  0  0  0
 31 66  1  0  0  0
 32 33  2  0  0  0
 32 67  1  0  0  0
 33 34  1  0  0  0
 33 68  1  0  0  0
 34 35  2  0  0  0
 34 69  1  0  0  0
 35 36  1  0  0  0
 36 37  1  0  0  0
 36 41  1  0  0  0
 37 38  1  0  0  0
 37 70  1  0  0  0
 37 71  1  0  0  0
 38 39  1  0  0  0
 38 72  1  0  0  0
 38 73  1  0  0  0
 39 40  1  0  0  0
 40 41  1  0  0  0
 40 74  1  0  0  0
 40 75  1  0  0  0
 41 42  2  0  0  0
M  END
> <s_m_source_file>
../4btt_ligand.sdf

> <i_m_source_file_index>
1

> <s_epik_input>
Q2xjMVtjSF1bY0hdYyhzMSktYzJbY0hdYyhubzIpW0NIMl1bQ0BASF0oQyg9TylOM1tDSDJdW0NIMl1bQ0hdKE9bQ0gzXSlbQ0gyXVtDSDJdMylbTkhdUyg9TykoPU8pYzRjKFtDSDJdW0NIM10pYyhbY0hdW2NIXVtjSF00KU41W0NIMl1bQ0gyXU9bQ0gyXUM1PU8=

> <s_epik_cmdline>
J2VwaWtfYXBwJywgJy1pbWFlJywgJ2xpZ2FuZF9wcm8ubWFlJywgJy1vbWFlJywgJ2xpZ2FuZF9wcmVwLm1hZScsICctbXMnLCAnMScsICctcGgnLCAnNycsICctcGh0JywgJzAuNScsICctbnQn

> <r_lp_tautomer_probability>
1

> <r_epik_Ionization_Penalty>
  0.0019

> <r_epik_Ionization_Penalty_Charging>
  0.0000

> <r_epik_Ionization_Penalty_Neutral>
  0.0019

> <r_epik_State_Penalty>
 -0.0000

> <r_epik_Charging_Adjusted_Penalty>
0

> <i_epik_Tot_Q>
0

> <i_epik_Tot_abs_Q>
0

$$$$
