4btu_ligand
                    3D
 Schrodinger Suite 2020-3.
 68 71  0  0  1  0            999 V2000
   -9.2630  -10.7040  -16.7700 C   0  0  0  0  0  0
   -8.0750  -11.3270  -16.5970 C   0  0  0  0  0  0
   -7.0160  -10.5090  -16.6430 C   0  0  0  0  0  0
   -5.3610  -10.9810  -16.4570 Cl  0  0  0  0  0  0
   -7.5470   -8.9430  -16.9110 S   0  0  0  0  0  0
   -9.1660   -9.3820  -16.9630 C   0  0  0  0  0  0
  -10.3360   -8.4190  -17.1810 C   0  0  0  0  0  0
  -10.1740   -7.2030  -17.0990 O   0  0  0  0  0  0
  -11.5060   -8.9950  -17.4490 N   0  0  0  0  0  0
  -12.7320   -8.2080  -17.6570 C   0  0  0  0  0  0
  -12.8320   -7.7080  -19.1020 C   0  0  1  0  0  0
  -11.5140   -7.0690  -19.5410 C   0  0  0  0  0  0
  -10.6250   -7.7450  -20.0580 O   0  0  0  0  0  0
  -11.3420   -5.7630  -19.3670 N   0  0  0  0  0  0
  -12.4130   -4.9490  -18.7610 C   0  0  0  0  0  0
  -12.6670   -3.7360  -19.6550 C   0  0  0  0  0  0
  -11.4040   -3.0180  -19.8900 N   0  3  0  0  0  0
  -11.6840   -1.8140  -20.6830 C   0  0  0  0  0  0
  -10.4500   -3.8680  -20.6230 C   0  0  0  0  0  0
  -10.0920   -5.1010  -19.7910 C   0  0  0  0  0  0
  -13.1570   -8.8260  -19.9970 N   0  0  3  0  0  0
  -14.2420   -8.3260  -21.0970 S   0  0  0  0  0  0
  -14.7750   -9.5120  -21.8470 O   0  0  0  0  0  0
  -15.3700   -7.6260  -20.3980 O   0  0  0  0  0  0
  -13.4780   -7.2160  -22.2150 C   0  0  0  0  0  0
  -12.7530   -7.7050  -23.2950 C   0  0  0  0  0  0
  -12.6100   -9.4130  -23.5270 Cl  0  0  0  0  0  0
  -13.5950   -5.8440  -22.0220 C   0  0  0  0  0  0
  -12.9890   -4.9620  -22.9090 C   0  0  0  0  0  0
  -13.1030   -3.6330  -22.7240 F   0  0  0  0  0  0
  -12.2650   -5.4510  -23.9890 C   0  0  0  0  0  0
  -12.1440   -6.8220  -24.1810 C   0  0  0  0  0  0
  -11.4160   -7.3060  -25.2750 N   0  0  0  0  0  0
  -10.5500   -8.4950  -25.1000 C   0  0  0  0  0  0
   -9.4930   -8.5560  -26.2000 C   0  0  0  0  0  0
  -10.1530   -8.4870  -27.5710 C   0  0  0  0  0  0
  -10.8000   -7.1180  -27.7680 C   0  0  0  0  0  0
  -11.5510   -6.6540  -26.5150 C   0  0  0  0  0  0
  -12.2900   -5.6740  -26.5940 O   0  0  0  0  0  0
  -10.2165  -11.2318  -16.7538 H   0  0  0  0  0  0
   -7.9874  -12.4012  -16.4343 H   0  0  0  0  0  0
  -11.5395  -10.0926  -17.5133 H   0  0  0  0  0  0
  -13.6105   -8.8338  -17.4410 H   0  0  0  0  0  0
  -12.7276   -7.3376  -16.9844 H   0  0  0  0  0  0
  -13.6490   -6.9762  -19.1850 H   0  0  0  0  0  0
  -13.3293   -5.5519  -18.6779 H   0  0  0  0  0  0
  -12.1000   -4.6178  -17.7598 H   0  0  0  0  0  0
  -13.0803   -4.0704  -20.6180 H   0  0  0  0  0  0
  -13.3832   -3.0614  -19.1630 H   0  0  0  0  0  0
  -10.9617   -2.7447  -18.9206 H   0  0  0  0  0  0
  -12.3962   -1.1750  -20.1404 H   0  0  0  0  0  0
  -12.1168   -2.1053  -21.6514 H   0  0  0  0  0  0
  -10.7487   -1.2600  -20.8511 H   0  0  0  0  0  0
  -10.9023   -4.1931  -21.5715 H   0  0  0  0  0  0
   -9.5337   -3.2959  -20.8308 H   0  0  0  0  0  0
   -9.5174   -4.7993  -18.9029 H   0  0  0  0  0  0
   -9.4939   -5.7993  -20.3949 H   0  0  0  0  0  0
  -12.5642   -9.7518  -19.9582 H   0  0  0  0  0  0
  -14.1624   -5.4598  -21.1744 H   0  0  0  0  0  0
  -11.7918   -4.7593  -24.6859 H   0  0  0  0  0  0
  -10.0459   -8.4409  -24.1238 H   0  0  0  0  0  0
  -11.1646   -9.4062  -25.1453 H   0  0  0  0  0  0
   -8.8012   -7.7077  -26.0912 H   0  0  0  0  0  0
   -8.9326   -9.4990  -26.1181 H   0  0  0  0  0  0
   -9.3943   -8.6454  -28.3516 H   0  0  0  0  0  0
  -10.9248   -9.2672  -27.6461 H   0  0  0  0  0  0
  -10.0225   -6.3747  -27.9981 H   0  0  0  0  0  0
  -11.5174   -7.1678  -28.6004 H   0  0  0  0  0  0
  1  2  1  0  0  0
  1  6  2  0  0  0
  1 40  1  0  0  0
  2  3  2  0  0  0
  2 41  1  0  0  0
  3  4  1  0  0  0
  3  5  1  0  0  0
  5  6  1  0  0  0
  6  7  1  0  0  0
  7  8  2  0  0  0
  7  9  1  0  0  0
  9 10  1  0  0  0
  9 42  1  0  0  0
 10 11  1  0  0  0
 10 43  1  0  0  0
 10 44  1  0  0  0
 11 12  1  0  0  0
 11 21  1  0  0  0
 11 45  1  0  0  0
 12 13  2  0  0  0
 12 14  1  0  0  0
 14 15  1  0  0  0
 14 20  1  0  0  0
 15 16  1  0  0  0
 15 46  1  0  0  0
 15 47  1  0  0  0
 16 17  1  0  0  0
 16 48  1  0  0  0
 16 49  1  0  0  0
 17 18  1  0  0  0
 17 19  1  0  0  0
 17 50  1  0  0  0
 18 51  1  0  0  0
 18 52  1  0  0  0
 18 53  1  0  0  0
 19 20  1  0  0  0
 19 54  1  0  0  0
 19 55  1  0  0  0
 20 56  1  0  0  0
 20 57  1  0  0  0
 21 22  1  0  0  0
 21 58  1  0  0  0
 22 23  2  0  0  0
 22 24  2  0  0  0
 22 25  1  0  0  0
 25 26  2  0  0  0
 25 28  1  0  0  0
 26 27  1  0  0  0
 26 32  1  0  0  0
 28 29  2  0  0  0
 28 59  1  0  0  0
 29 30  1  0  0  0
 29 31  1  0  0  0
 31 32  2  0  0  0
 31 60  1  0  0  0
 32 33  1  0  0  0
 33 34  1  0  0  0
 33 38  1  0  0  0
 34 35  1  0  0  0
 34 61  1  0  0  0
 34 62  1  0  0  0
 35 36  1  0  0  0
 35 63  1  0  0  0
 35 64  1  0  0  0
 36 37  1  0  0  0
 36 65  1  0  0  0
 36 66  1  0  0  0
 37 38  1  0  0  0
 37 67  1  0  0  0
 37 68  1  0  0  0
 38 39  2  0  0  0
M  CHG  1  17   1
M  END
> <s_m_source_file>
../4btu_ligand.sdf

> <i_m_source_file_index>
1

> <s_epik_input>
Q2xjMVtjSF1bY0hdYyhzMSlDKD1PKVtOSF1bQ0gyXVtDQEBIXShDKD1PKU4yW0NIMl1bQ0gyXVtOSCtdKFtDSDNdKVtDSDJdW0NIMl0yKVtOSF1TKD1PKSg9TyljM2MoQ2wpYyhbY0hdYyhGKVtjSF0zKU40W0NIMl1bQ0gyXVtDSDJdW0NIMl1DND1P

> <s_epik_cmdline>
J2VwaWtfYXBwJywgJy1pbWFlJywgJ2xpZ2FuZF9wcm8ubWFlJywgJy1vbWFlJywgJ2xpZ2FuZF9wcmVwLm1hZScsICctbXMnLCAnMScsICctcGgnLCAnNycsICctcGh0JywgJzAuNScsICctbnQn

> <r_lp_tautomer_probability>
1

> <r_epik_Ionization_Penalty>
  0.2941

> <r_epik_Ionization_Penalty_Charging>
  0.2039

> <r_epik_Ionization_Penalty_Neutral>
  0.0902

> <r_epik_State_Penalty>
 -0.0000

> <r_epik_Charging_Adjusted_Penalty>
0.203861969303164

> <i_epik_Tot_Q>
1

> <i_epik_Tot_abs_Q>
1

$$$$
