4btw_ligand
                    3D
 Schrodinger Suite 2020-3.
 46 49  0  0  1  0            999 V2000
   16.4310  143.6570   32.3770 C   0  0  0  0  0  0
   15.5740  142.4800   31.9260 C   0  0  0  0  0  0
   14.3160  142.3480   32.7920 C   0  0  0  0  0  0
   14.6010  142.4030   34.3040 C   0  0  0  0  0  0
   15.6060  143.4790   34.7360 C   0  0  0  0  0  0
   16.8360  143.4340   33.8360 C   0  0  0  0  0  0
   17.8410  144.4040   34.2340 N   0  0  0  0  0  0
   19.1730  144.1620   34.1080 C   0  0  0  0  0  0
   19.6390  143.0170   33.4430 C   0  0  0  0  0  0
   20.9850  142.7230   33.3330 C   0  0  0  0  0  0
   21.2820  141.5750   32.6600 O   0  0  0  0  0  0
   21.8860  143.5650   33.8850 N   0  0  0  0  0  0
   23.2230  143.4340   33.8700 C   0  0  0  0  0  0
   23.8710  142.4040   33.2420 C   0  0  0  0  0  0
   25.2500  142.3110   33.2560 C   0  0  0  0  0  0
   26.0190  143.2590   33.8890 C   0  0  0  0  0  0
   25.3820  144.2990   34.5150 C   0  0  0  0  0  0
   24.0020  144.3860   34.4990 C   0  0  0  0  0  0
   21.4120  144.7070   34.5410 N   0  0  0  0  0  0
   20.1090  145.0260   34.6630 C   0  0  0  0  0  0
   19.7830  146.1960   35.3530 C   0  0  0  0  0  0
   20.6450  147.0680   35.9150 N   0  3  0  0  0  0
   19.9640  148.0830   36.5040 C   0  0  0  0  0  0
   18.6680  147.8750   36.3160 N   0  3  0  0  0  0
   18.5670  146.6810   35.5880 N   0  0  0  0  0  0
   17.3286  143.7207   31.7443 H   0  0  0  0  0  0
   15.8521  144.5880   32.2868 H   0  0  0  0  0  0
   15.2667  142.6296   30.8804 H   0  0  0  0  0  0
   16.1559  141.5501   32.0077 H   0  0  0  0  0  0
   13.6221  143.1689   32.5582 H   0  0  0  0  0  0
   13.8274  141.3846   32.5844 H   0  0  0  0  0  0
   13.6663  142.6093   34.8460 H   0  0  0  0  0  0
   15.0114  141.4376   34.6351 H   0  0  0  0  0  0
   15.1369  144.4710   34.6589 H   0  0  0  0  0  0
   15.9121  143.2981   35.7770 H   0  0  0  0  0  0
   17.3316  142.4602   33.9626 H   0  0  0  0  0  0
   18.9139  142.3358   32.9977 H   0  0  0  0  0  0
   23.2887  141.6436   32.7216 H   0  0  0  0  0  0
   25.7358  141.4725   32.7571 H   0  0  0  0  0  0
   27.1065  143.1855   33.8929 H   0  0  0  0  0  0
   25.9669  145.0621   35.0285 H   0  0  0  0  0  0
   23.5167  145.2266   34.9950 H   0  0  0  0  0  0
   20.4057  148.9237   37.0390 H   0  0  0  0  0  0
   17.7583  148.4223   36.6039 H   0  0  0  0  0  0
   17.5340  145.3733   34.6538 H   0  0  0  0  0  0
   21.7285  146.8901   35.8491 H   0  0  0  0  0  0
  1  2  1  0  0  0
  1  6  1  0  0  0
  1 26  1  0  0  0
  1 27  1  0  0  0
  2  3  1  0  0  0
  2 28  1  0  0  0
  2 29  1  0  0  0
  3  4  1  0  0  0
  3 30  1  0  0  0
  3 31  1  0  0  0
  4  5  1  0  0  0
  4 32  1  0  0  0
  4 33  1  0  0  0
  5  6  1  0  0  0
  5 34  1  0  0  0
  5 35  1  0  0  0
  6  7  1  0  0  0
  6 36  1  0  0  0
  7  8  1  0  0  0
  7 45  1  0  0  0
  8  9  2  0  0  0
  8 20  1  0  0  0
  9 10  1  0  0  0
  9 37  1  0  0  0
 10 11  2  0  0  0
 10 12  1  0  0  0
 12 13  1  0  0  0
 12 19  1  0  0  0
 13 14  2  0  0  0
 13 18  1  0  0  0
 14 15  1  0  0  0
 14 38  1  0  0  0
 15 16  2  0  0  0
 15 39  1  0  0  0
 16 17  1  0  0  0
 16 40  1  0  0  0
 17 18  2  0  0  0
 17 41  1  0  0  0
 18 42  1  0  0  0
 19 20  2  0  0  0
 20 21  1  0  0  0
 21 22  2  0  0  0
 21 25  1  0  0  0
 22 23  1  0  0  0
 22 46  1  0  0  0
 23 24  1  0  0  0
 23 43  1  0  0  0
 24 25  2  0  0  0
 24 44  1  0  0  0
M  CHG  2  22   1  24   1
M  END
> <s_m_source_file>
../4btw_ligand.sdf

> <i_m_source_file_index>
1

> <s_epik_input>
W0NIMl0xW0NIMl1bQ0gyXVtDSDJdW0NIMl1bQ0hdMS9OPWMyXFtjSF1jKFtPSF0pbigtYzNbY0hdW2NIXVtjSF1bY0hdW2NIXTMpbmMyQzQ9TltDSDJdTj1ONA==

> <s_epik_cmdline>
J2VwaWtfYXBwJywgJy1pbWFlJywgJ2xpZ2FuZF9wcm8ubWFlJywgJy1vbWFlJywgJ2xpZ2FuZF9wcmVwLm1hZScsICctbXMnLCAnMScsICctcGgnLCAnNycsICctcGh0JywgJzAuNScsICctbnQn

> <r_epik_Ionization_Penalty>
  0.0122

> <r_epik_Ionization_Penalty_Charging>
  0.0115

> <r_epik_Ionization_Penalty_Neutral>
  0.0007

> <r_epik_State_Penalty>
  0.2656

> <r_epik_Charging_Adjusted_Penalty>
0.277079686846216

> <i_epik_Tot_Q>
2

> <i_epik_Tot_abs_Q>
2

> <s_epik_Chemistry_Notes>
This compound has an imine and may undergo hydrolysis.

$$$$
