4btx_ligand
                    3D
 Schrodinger Suite 2020-3.
 39 41  0  0  1  0            999 V2000
   89.8970   52.7340   32.7770 C   0  0  0  0  0  0
   88.5260   52.8740   32.7340 C   0  0  0  0  0  0
   87.8110   52.8290   33.9360 C   0  0  0  0  0  0
   88.4620   52.6430   35.1630 C   0  0  0  0  0  0
   89.8500   52.5030   35.2010 C   0  0  0  0  0  0
   90.5680   52.5800   34.0080 C   0  0  0  0  0  0
   91.9000   52.4020   33.9770 N   0  0  0  0  0  0
   92.3060   51.3460   34.5480 N   0  0  0  0  0  0
   92.7560   53.2300   33.3110 C   0  0  0  0  0  0
   92.3660   54.2670   32.7360 O   0  0  0  0  0  0
   94.1210   52.8770   33.3060 C   0  0  0  0  0  0
   94.5450   51.7160   33.9760 C   0  0  0  0  0  0
   95.8160   51.2920   33.9860 N   0  0  0  0  0  0
   97.0630   52.0860   34.1290 C   0  0  0  0  0  0
   97.5200   52.4860   32.7180 C   0  0  0  0  0  0
   96.9200   53.2860   35.0810 C   0  0  0  0  0  0
   93.5800   50.9030   34.6080 C   0  0  0  0  0  0
   93.7860   49.7350   35.2880 C   0  0  0  0  0  0
   92.8160   48.8730   35.5800 N   0  3  0  0  0  0
   93.3980   47.8900   36.2550 C   0  0  0  0  0  0
   94.6800   48.1750   36.3490 N   0  3  0  0  0  0
   94.9080   49.2300   35.8010 N   0  0  0  0  0  0
   90.4688   52.7424   31.8491 H   0  0  0  0  0  0
   88.0103   53.0166   31.7843 H   0  0  0  0  0  0
   86.7269   52.9408   33.9176 H   0  0  0  0  0  0
   87.8847   52.6077   36.0869 H   0  0  0  0  0  0
   90.3643   52.3362   36.1474 H   0  0  0  0  0  0
   94.8454   53.5024   32.7842 H   0  0  0  0  0  0
   95.8700   50.1997   33.8682 H   0  0  0  0  0  0
   97.8110   51.4398   34.6116 H   0  0  0  0  0  0
   97.6021   51.5864   32.0904 H   0  0  0  0  0  0
   98.4997   52.9826   32.7769 H   0  0  0  0  0  0
   96.7854   53.1754   32.2764 H   0  0  0  0  0  0
   96.5916   52.9326   36.0696 H   0  0  0  0  0  0
   96.1759   53.9881   34.6767 H   0  0  0  0  0  0
   97.8903   53.7952   35.1773 H   0  0  0  0  0  0
   92.9040   47.0062   36.6587 H   0  0  0  0  0  0
   95.4978   47.6150   36.8261 H   0  0  0  0  0  0
   91.7844   49.0755   35.2562 H   0  0  0  0  0  0
  1  2  2  0  0  0
  1  6  1  0  0  0
  1 23  1  0  0  0
  2  3  1  0  0  0
  2 24  1  0  0  0
  3  4  2  0  0  0
  3 25  1  0  0  0
  4  5  1  0  0  0
  4 26  1  0  0  0
  5  6  2  0  0  0
  5 27  1  0  0  0
  6  7  1  0  0  0
  7  8  1  0  0  0
  7  9  1  0  0  0
  8 17  2  0  0  0
  9 10  2  0  0  0
  9 11  1  0  0  0
 11 12  2  0  0  0
 11 28  1  0  0  0
 12 13  1  0  0  0
 12 17  1  0  0  0
 13 14  1  0  0  0
 13 29  1  0  0  0
 14 15  1  0  0  0
 14 16  1  0  0  0
 14 30  1  0  0  0
 15 31  1  0  0  0
 15 32  1  0  0  0
 15 33  1  0  0  0
 16 34  1  0  0  0
 16 35  1  0  0  0
 16 36  1  0  0  0
 17 18  1  0  0  0
 18 19  2  0  0  0
 18 22  1  0  0  0
 19 20  1  0  0  0
 19 39  1  0  0  0
 20 21  1  0  0  0
 20 37  1  0  0  0
 21 22  2  0  0  0
 21 38  1  0  0  0
M  CHG  2  19   1  21   1
M  END
> <s_m_source_file>
../4btx_ligand.sdf

> <i_m_source_file_index>
1

> <s_epik_input>
W2NIXTFbY0hdW2NIXVtjSF1bY0hdYzEtbjJuYyhjKFtjSF1jMj1PKVtOSF1bQ0hdKFtDSDNdKVtDSDNdKUMzPU5bQ0gyXU49TjM=

> <s_epik_cmdline>
J2VwaWtfYXBwJywgJy1pbWFlJywgJ2xpZ2FuZF9wcm8ubWFlJywgJy1vbWFlJywgJ2xpZ2FuZF9wcmVwLm1hZScsICctbXMnLCAnMScsICctcGgnLCAnNycsICctcGh0JywgJzAuNScsICctbnQn

> <r_epik_Ionization_Penalty>
  0.0125

> <r_epik_Ionization_Penalty_Charging>
  0.0115

> <r_epik_Ionization_Penalty_Neutral>
  0.0010

> <r_epik_State_Penalty>
  0.2656

> <r_epik_Charging_Adjusted_Penalty>
0.277079433267608

> <i_epik_Tot_Q>
2

> <i_epik_Tot_abs_Q>
2

> <s_epik_Chemistry_Notes>
This compound has an imine and may undergo hydrolysis.

$$$$
