4bty_ligand
                    3D
 Schrodinger Suite 2020-3.
 57 61  0  0  1  0            999 V2000
  100.3370   55.9690   33.3670 C   0  0  0  0  0  0
  101.2870   56.6980   32.4910 C   0  0  0  0  0  0
  100.5740   57.0000   31.2070 N   0  3  0  0  0  0
  101.2670   58.0610   30.4280 C   0  0  0  0  0  0
  100.4430   55.8300   30.3400 C   0  0  0  0  0  0
  100.4050   54.5590   31.2150 C   0  0  0  0  0  0
   99.7900   54.8110   32.5690 N   0  0  0  0  0  0
   98.7870   54.0190   33.0760 C   0  0  0  0  0  0
   98.4550   54.0570   34.4470 C   0  0  0  0  0  0
   97.4310   53.2700   34.9860 C   0  0  0  0  0  0
   98.0320   53.1330   32.2760 C   0  0  0  0  0  0
   97.0080   52.3400   32.8050 C   0  0  0  0  0  0
   96.6920   52.4170   34.1630 C   0  0  0  0  0  0
   95.7290   51.6560   34.7200 N   0  0  0  0  0  0
   94.4340   51.8670   34.4720 C   0  0  0  0  0  0
   93.9860   53.0420   33.8950 C   0  0  0  0  0  0
   92.6380   53.2370   33.6900 C   0  0  0  0  0  0
   92.2840   54.3050   33.1760 O   0  0  0  0  0  0
   91.7890   52.2580   34.0400 N   0  0  0  0  0  0
   90.4640   52.4170   33.8610 C   0  0  0  0  0  0
   89.8790   52.7380   32.6150 C   0  0  0  0  0  0
   88.4980   52.9300   32.4910 C   0  0  0  0  0  0
   87.6960   52.7760   33.6350 C   0  0  0  0  0  0
   85.9320   53.0170   33.6050 Cl  0  0  0  0  0  0
   88.2970   52.4340   34.8480 C   0  0  0  0  0  0
   89.6630   52.2740   34.9780 C   0  0  0  0  0  0
   92.1900   51.2560   34.5520 N   0  0  0  0  0  0
   93.4730   50.9180   34.8150 C   0  0  0  0  0  0
   93.6490   49.7120   35.4080 C   0  0  0  0  0  0
   92.6230   48.9050   35.6880 N   0  0  0  0  0  0
   93.1740   47.8630   36.2890 C   0  0  0  0  0  0
   94.4810   48.0820   36.3560 N   0  3  0  0  0  0
   94.7510   49.1220   35.8680 N   0  0  0  0  0  0
  100.8664   55.6066   34.2605 H   0  0  0  0  0  0
   99.5253   56.6461   33.6713 H   0  0  0  0  0  0
  101.6005   57.6294   32.9851 H   0  0  0  0  0  0
  102.1689   56.0682   32.3023 H   0  0  0  0  0  0
   99.5633   57.3258   31.4940 H   0  0  0  0  0  0
  101.3822   58.9587   31.0531 H   0  0  0  0  0  0
  100.6723   58.3089   29.5364 H   0  0  0  0  0  0
  102.2589   57.6999   30.1184 H   0  0  0  0  0  0
   99.5132   55.9076   29.7575 H   0  0  0  0  0  0
  101.3022   55.7834   29.6547 H   0  0  0  0  0  0
   99.8092   53.7841   30.7104 H   0  0  0  0  0  0
  101.4296   54.1903   31.3708 H   0  0  0  0  0  0
   99.0138   54.7204   35.1071 H   0  0  0  0  0  0
   97.2093   53.3229   36.0519 H   0  0  0  0  0  0
   98.2546   53.0648   31.2111 H   0  0  0  0  0  0
   96.4557   51.6606   32.1558 H   0  0  0  0  0  0
   94.2864   53.8955   34.5206 H   0  0  0  0  0  0
   94.4261   53.1493   32.8926 H   0  0  0  0  0  0
   90.5145   52.8378   31.7351 H   0  0  0  0  0  0
   88.0552   53.1927   31.5303 H   0  0  0  0  0  0
   87.6654   52.2879   35.7243 H   0  0  0  0  0  0
   90.1025   52.0385   35.9473 H   0  0  0  0  0  0
   92.6491   46.9835   36.6618 H   0  0  0  0  0  0
   95.2754   47.4515   36.7819 H   0  0  0  0  0  0
  1  2  1  0  0  0
  1  7  1  0  0  0
  1 34  1  0  0  0
  1 35  1  0  0  0
  2  3  1  0  0  0
  2 36  1  0  0  0
  2 37  1  0  0  0
  3  4  1  0  0  0
  3  5  1  0  0  0
  3 38  1  0  0  0
  4 39  1  0  0  0
  4 40  1  0  0  0
  4 41  1  0  0  0
  5  6  1  0  0  0
  5 42  1  0  0  0
  5 43  1  0  0  0
  6  7  1  0  0  0
  6 44  1  0  0  0
  6 45  1  0  0  0
  7  8  1  0  0  0
  8  9  2  0  0  0
  8 11  1  0  0  0
  9 10  1  0  0  0
  9 46  1  0  0  0
 10 13  2  0  0  0
 10 47  1  0  0  0
 11 12  2  0  0  0
 11 48  1  0  0  0
 12 13  1  0  0  0
 12 49  1  0  0  0
 13 14  1  0  0  0
 14 15  2  0  0  0
 15 16  1  0  0  0
 15 28  1  0  0  0
 16 17  1  0  0  0
 16 50  1  0  0  0
 16 51  1  0  0  0
 17 18  2  0  0  0
 17 19  1  0  0  0
 19 20  1  0  0  0
 19 27  1  0  0  0
 20 21  2  0  0  0
 20 26  1  0  0  0
 21 22  1  0  0  0
 21 52  1  0  0  0
 22 23  2  0  0  0
 22 53  1  0  0  0
 23 24  1  0  0  0
 23 25  1  0  0  0
 25 26  2  0  0  0
 25 54  1  0  0  0
 26 55  1  0  0  0
 27 28  2  0  0  0
 28 29  1  0  0  0
 29 30  2  0  0  0
 29 33  1  0  0  0
 30 31  1  0  0  0
 31 32  1  0  0  0
 31 56  1  0  0  0
 32 33  2  0  0  0
 32 57  1  0  0  0
M  CHG  2   3   1  32   1
M  END
> <s_m_source_file>
../4bty_ligand.sdf

> <i_m_source_file_index>
1

> <s_epik_input>
W0NIM11bTkgrXTFbQ0gyXVtDSDJdTihbQ0gyXVtDSDJdMSljMltjSF1bY0hdYyhbY0hdW2NIXTIpL049QzNcW0NIMl1DKD1PKU4oYzRbY0hdW2NIXWMoQ2wpW2NIXVtjSF00KU49QzNDNT1OW0NIMl1OPU41

> <s_epik_cmdline>
J2VwaWtfYXBwJywgJy1pbWFlJywgJ2xpZ2FuZF9wcm8ubWFlJywgJy1vbWFlJywgJ2xpZ2FuZF9wcmVwLm1hZScsICctbXMnLCAnMScsICctcGgnLCAnNycsICctcGh0JywgJzAuNScsICctbnQn

> <r_lp_tautomer_probability>
1

> <r_epik_Ionization_Penalty>
  0.0689

> <r_epik_Ionization_Penalty_Charging>
  0.0648

> <r_epik_Ionization_Penalty_Neutral>
  0.0041

> <r_epik_State_Penalty>
 -0.0000

> <r_epik_Charging_Adjusted_Penalty>
0.0647600250191953

> <i_epik_Tot_Q>
2

> <i_epik_Tot_abs_Q>
2

> <s_epik_Chemistry_Notes>
This compound has an imine and may undergo hydrolysis.

$$$$
