4buq_ligand
                    3D
 Schrodinger Suite 2020-3.
 45 45  0  0  1  0            999 V2000
   21.5880   -4.6460    5.2170 O   0  0  0  0  0  0
   21.9480   -5.2020    6.5060 C   0  0  0  0  0  0
   20.7850   -6.0600    7.0150 C   0  0  1  0  0  0
   20.1990   -5.8900   13.5660 C   0  0  0  0  0  0
   19.6130   -5.2220    7.1330 O   0  0  0  0  0  0
   20.4940   -7.1770    6.0630 C   0  0  1  0  0  0
   21.6730   -8.0430    5.9980 O   0  0  0  0  0  0
   19.3210   -7.9820    6.5990 C   0  0  2  0  0  0
   19.0330   -9.0150    5.6520 O   0  0  0  0  0  0
   18.0940   -7.0760    6.7340 C   0  0  2  0  0  0
   17.7700   -6.5580    5.4730 O   0  0  0  0  0  0
   18.4280   -5.9240    7.6330 C   0  0  1  0  0  0
   18.7600   -6.4330    8.9360 O   0  0  0  0  0  0
   19.0290   -5.4320    9.9330 C   0  0  0  0  0  0
   19.4450   -6.1850   11.2030 C   0  0  0  0  0  0
   19.7640   -5.1740   12.2920 C   0  0  0  0  0  0
   21.3020   -4.5610   17.0320 C   0  0  0  0  0  0
   20.9730   -5.5570   15.9150 C   0  0  0  0  0  0
   20.5220   -4.8420   14.6400 C   0  0  0  0  0  0
   22.2955   -3.9958    4.6815 H   0  0  0  0  0  0
   22.8501   -5.8223    6.3987 H   0  0  0  0  0  0
   22.1470   -4.3850    7.2151 H   0  0  0  0  0  0
   21.0060   -6.4866    8.0045 H   0  0  0  0  0  0
   19.3854   -6.5424   13.9160 H   0  0  0  0  0  0
   21.0924   -6.4973   13.3585 H   0  0  0  0  0  0
   20.2840   -6.7853    5.0568 H   0  0  0  0  0  0
   22.6302   -7.6424    5.6331 H   0  0  0  0  0  0
   19.5642   -8.4640    7.5574 H   0  0  0  0  0  0
   19.7950   -9.7722    5.4153 H   0  0  0  0  0  0
   17.2084   -7.6230    7.0898 H   0  0  0  0  0  0
   17.4909   -7.2377    4.6544 H   0  0  0  0  0  0
   17.5752   -5.2327    7.7022 H   0  0  0  0  0  0
   19.8379   -4.7739    9.5829 H   0  0  0  0  0  0
   18.1213   -4.8359   10.1084 H   0  0  0  0  0  0
   18.6208   -6.8361   11.5298 H   0  0  0  0  0  0
   20.3342   -6.7971   10.9917 H   0  0  0  0  0  0
   18.8666   -4.5721   12.4979 H   0  0  0  0  0  0
   20.5750   -4.5165   11.9458 H   0  0  0  0  0  0
   21.6215   -5.1098   17.9302 H   0  0  0  0  0  0
   20.4083   -3.9638   17.2657 H   0  0  0  0  0  0
   22.1124   -3.8944   16.7019 H   0  0  0  0  0  0
   21.8667   -6.1542   15.6813 H   0  0  0  0  0  0
   20.1627   -6.2236   16.2451 H   0  0  0  0  0  0
   21.3264   -4.1838   14.2798 H   0  0  0  0  0  0
   19.6238   -4.2425   14.8492 H   0  0  0  0  0  0
  1  2  1  0  0  0
  1 20  1  0  0  0
  2  3  1  0  0  0
  2 21  1  0  0  0
  2 22  1  0  0  0
  3  5  1  0  0  0
  3  6  1  0  0  0
  3 23  1  0  0  0
  4 16  1  0  0  0
  4 19  1  0  0  0
  4 24  1  0  0  0
  4 25  1  0  0  0
  5 12  1  0  0  0
  6  7  1  0  0  0
  6  8  1  0  0  0
  6 26  1  0  0  0
  7 27  1  0  0  0
  8  9  1  0  0  0
  8 10  1  0  0  0
  8 28  1  0  0  0
  9 29  1  0  0  0
 10 11  1  0  0  0
 10 12  1  0  0  0
 10 30  1  0  0  0
 11 31  1  0  0  0
 12 13  1  0  0  0
 12 32  1  0  0  0
 13 14  1  0  0  0
 14 15  1  0  0  0
 14 33  1  0  0  0
 14 34  1  0  0  0
 15 16  1  0  0  0
 15 35  1  0  0  0
 15 36  1  0  0  0
 16 37  1  0  0  0
 16 38  1  0  0  0
 17 18  1  0  0  0
 17 39  1  0  0  0
 17 40  1  0  0  0
 17 41  1  0  0  0
 18 19  1  0  0  0
 18 42  1  0  0  0
 18 43  1  0  0  0
 19 44  1  0  0  0
 19 45  1  0  0  0
M  END
> <s_m_source_file>
../4buq_ligand.sdf

> <i_m_source_file_index>
1

> <s_epik_input>
W09IXVtDSDJdW0NASF0xT1tDQEBIXShbQ0BASF0oW09IXSlbQ0BASF0oW09IXSlbQ0BASF0xW09IXSlPW0NIMl1bQ0gyXVtDSDJdW0NIMl1bQ0gyXVtDSDJdW0NIM10=

> <s_epik_cmdline>
J2VwaWtfYXBwJywgJy1pbWFlJywgJ2xpZ2FuZF9wcm8ubWFlJywgJy1vbWFlJywgJ2xpZ2FuZF9wcmVwLm1hZScsICctbXMnLCAnMScsICctcGgnLCAnNycsICctcGh0JywgJzAuNScsICctbnQn

> <r_lp_tautomer_probability>
1

> <r_epik_Ionization_Penalty>
  0.0000

> <r_epik_Ionization_Penalty_Charging>
  0.0000

> <r_epik_Ionization_Penalty_Neutral>
  0.0000

> <r_epik_State_Penalty>
 -0.0000

> <r_epik_Charging_Adjusted_Penalty>
0

> <i_epik_Tot_Q>
0

> <i_epik_Tot_abs_Q>
0

> <s_epik_Chemistry_Notes>
This compound contains an acetal/aminal-like group ( X-CH(R)-Y where X, Y are N, S, or O) that may be acid/base labile, releasing an aldehyde.

$$$$
