4bvb_ligand
                    3D
 Schrodinger Suite 2020-3.
 30 32  0  0  1  0            999 V2000
    5.3730  -15.6230    0.9110 N   0  0  0  0  0  0
    6.9950  -16.2250    2.3200 O   0  0  0  0  0  0
    6.4230  -15.3480    1.6730 C   0  0  0  0  0  0
    9.3650  -13.9460    2.3000 N   0  3  0  0  0  0
    6.6770  -12.5900    4.4030 C   0  0  0  0  0  0
   11.3910  -13.5720    3.6200 C   0  0  0  0  0  0
   11.9350  -13.0100    4.7490 C   0  0  0  0  0  0
   10.0730  -13.4840    3.3650 C   0  0  0  0  0  0
   11.8330  -11.6950    7.1870 Cl  0  0  0  0  0  0
    9.2160  -12.9580    4.2830 C   0  0  0  0  0  0
    9.6980  -12.3980    5.4180 C   0  0  0  0  0  0
    7.9540  -13.0920    3.8180 C   0  0  0  0  0  0
    8.0450  -13.6990    2.5690 C   0  0  0  0  0  0
   11.0860  -12.4180    5.6910 C   0  0  0  0  0  0
    5.4040  -13.0460    3.5050 C   0  0  0  0  0  0
    6.8870  -13.9510    1.7020 C   0  0  2  0  0  0
    5.7450  -12.8840    2.0340 C   0  0  0  0  0  0
    4.9880  -16.6520    0.8556 H   0  0  0  0  0  0
    4.8870  -14.8221    0.3344 H   0  0  0  0  0  0
    6.5546  -12.9952    5.4183 H   0  0  0  0  0  0
    6.7009  -11.4911    4.4472 H   0  0  0  0  0  0
   12.0383  -14.0984    2.9185 H   0  0  0  0  0  0
   13.0131  -13.0249    4.9091 H   0  0  0  0  0  0
    9.0131  -11.9295    6.1247 H   0  0  0  0  0  0
    5.1661  -14.0993    3.7144 H   0  0  0  0  0  0
    4.5360  -12.4177    3.7536 H   0  0  0  0  0  0
    7.2796  -13.8826    0.6767 H   0  0  0  0  0  0
    4.8474  -13.0722    1.4267 H   0  0  0  0  0  0
    6.1033  -11.8602    1.8512 H   0  0  0  0  0  0
    9.8885  -14.4091    1.4506 H   0  0  0  0  0  0
  1  3  1  0  0  0
  1 18  1  0  0  0
  1 19  1  0  0  0
  2  3  2  0  0  0
  3 16  1  0  0  0
  4  8  1  0  0  0
  4 13  1  0  0  0
  4 30  1  0  0  0
  5 12  1  0  0  0
  5 15  1  0  0  0
  5 20  1  0  0  0
  5 21  1  0  0  0
  6  7  2  0  0  0
  6  8  1  0  0  0
  6 22  1  0  0  0
  7 14  1  0  0  0
  7 23  1  0  0  0
  8 10  2  0  0  0
  9 14  1  0  0  0
 10 11  1  0  0  0
 10 12  1  0  0  0
 11 14  2  0  0  0
 11 24  1  0  0  0
 12 13  2  0  0  0
 13 16  1  0  0  0
 15 17  1  0  0  0
 15 25  1  0  0  0
 15 26  1  0  0  0
 16 17  1  0  0  0
 16 27  1  0  0  0
 17 28  1  0  0  0
 17 29  1  0  0  0
M  CHG  1   4   1
M  END
> <s_m_source_file>
../4bvb_ligand.sdf

> <i_m_source_file_index>
1

> <s_epik_input>
W0NIMl0xW0NIMl1bQ0gyXVtDQEhdKEMoPU8pW05IMl0pYyhbbkhdMiljMWMoYzIzKVtjSF1jKENsKVtjSF1bY0hdMw==

> <s_epik_cmdline>
J2VwaWtfYXBwJywgJy1pbWFlJywgJ2xpZ2FuZF9wcm8ubWFlJywgJy1vbWFlJywgJ2xpZ2FuZF9wcmVwLm1hZScsICctbXMnLCAnMScsICctcGgnLCAnNycsICctcGh0JywgJzAuNScsICctbnQn

> <r_lp_tautomer_probability>
1

> <r_epik_Ionization_Penalty>
  0.0000

> <r_epik_Ionization_Penalty_Charging>
  0.0000

> <r_epik_Ionization_Penalty_Neutral>
  0.0000

> <r_epik_State_Penalty>
 -0.0000

> <r_epik_Charging_Adjusted_Penalty>
0

> <i_epik_Tot_Q>
1

> <i_epik_Tot_abs_Q>
1

$$$$
