4bw2_ligand
                    3D
 Schrodinger Suite 2020-3.
 54 57  0  0  1  0            999 V2000
   11.4140    5.6450   12.6060 C   0  0  0  0  0  0
   12.3490    6.6330   11.9990 C   0  0  0  0  0  0
   12.1260    7.9090   12.1630 N   0  0  0  0  0  0
   13.1700    8.5850   11.4770 O   0  0  0  0  0  0
   13.9700    7.6640   10.9260 C   0  0  0  0  0  0
   15.1320    8.1760   10.1600 C   0  0  0  0  0  0
   13.5040    6.4240   11.2170 C   0  0  0  0  0  0
   14.0590    5.1180   10.8010 C   0  0  0  0  0  0
   14.3530    4.8670    9.4670 C   0  0  0  0  0  0
   14.8540    3.6550    9.1230 C   0  0  0  0  0  0
   15.0610    2.6670   10.1100 C   0  0  0  0  0  0
   15.5980    1.3650    9.8230 C   0  0  0  0  0  0
   15.9190    0.8990    8.5440 N   0  0  0  0  0  0
   16.2890    1.6630    7.3760 C   0  0  0  0  0  0
   17.5690    2.2130    7.3440 C   0  0  0  0  0  0
   17.9910    2.9520    6.2520 C   0  0  0  0  0  0
   17.1540    3.1540    5.1790 C   0  0  0  0  0  0
   15.8780    2.6200    5.1730 C   0  0  0  0  0  0
   15.4040    1.8760    6.2490 C   0  0  0  0  0  0
   13.9680    1.2950    6.1670 C   0  0  0  0  0  0
   13.1340    2.0010    5.0800 C   0  0  0  0  0  0
   13.1660    1.4280    7.4640 C   0  0  0  0  0  0
   14.0170   -0.1790    5.7880 C   0  0  0  0  0  0
   15.7240    0.5090   10.9520 C   0  0  0  0  0  0
   15.3700    0.9720   12.2140 C   0  0  0  0  0  0
   14.8780    2.1510   12.4910 N   0  0  0  0  0  0
   14.7290    3.0130   11.4440 C   0  0  0  0  0  0
   16.2880   -0.8680   10.8760 C   0  0  0  0  0  0
   16.6760   -1.2260    9.6910 O   0  5  0  0  0  0
   16.4470   -1.5570   11.8760 O   0  0  0  0  0  0
   14.2230    4.2340   11.7880 N   0  0  0  0  0  0
   10.6212    6.1777   13.1516 H   0  0  0  0  0  0
   11.9666    4.9971   13.3023 H   0  0  0  0  0  0
   10.9638    5.0306   11.8123 H   0  0  0  0  0  0
   15.1283    9.2758   10.1797 H   0  0  0  0  0  0
   15.0669    7.8277    9.1186 H   0  0  0  0  0  0
   16.0627    7.8043   10.6135 H   0  0  0  0  0  0
   14.1837    5.6318    8.7091 H   0  0  0  0  0  0
   15.0975    3.4429    8.0819 H   0  0  0  0  0  0
   15.9072   -0.1805    8.3329 H   0  0  0  0  0  0
   18.2439    2.0600    8.1861 H   0  0  0  0  0  0
   18.9946    3.3773    6.2423 H   0  0  0  0  0  0
   17.4991    3.7395    4.3268 H   0  0  0  0  0  0
   15.2326    2.7849    4.3103 H   0  0  0  0  0  0
   13.0678    3.0750    5.3084 H   0  0  0  0  0  0
   12.1229    1.5685    5.0549 H   0  0  0  0  0  0
   13.6161    1.8634    4.1009 H   0  0  0  0  0  0
   13.1171    2.4869    7.7579 H   0  0  0  0  0  0
   13.6572    0.8488    8.2598 H   0  0  0  0  0  0
   12.1474    1.0438    7.3063 H   0  0  0  0  0  0
   14.5897   -0.2992    4.8566 H   0  0  0  0  0  0
   12.9934   -0.5537    5.6400 H   0  0  0  0  0  0
   14.5032   -0.7487    6.5936 H   0  0  0  0  0  0
   15.5163    0.2884   13.0503 H   0  0  0  0  0  0
  1  2  1  0  0  0
  1 32  1  0  0  0
  1 33  1  0  0  0
  1 34  1  0  0  0
  2  3  2  0  0  0
  2  7  1  0  0  0
  3  4  1  0  0  0
  4  5  1  0  0  0
  5  6  1  0  0  0
  5  7  2  0  0  0
  6 35  1  0  0  0
  6 36  1  0  0  0
  6 37  1  0  0  0
  7  8  1  0  0  0
  8  9  2  0  0  0
  8 31  1  0  0  0
  9 10  1  0  0  0
  9 38  1  0  0  0
 10 11  2  0  0  0
 10 39  1  0  0  0
 11 12  1  0  0  0
 11 27  1  0  0  0
 12 13  1  0  0  0
 12 24  2  0  0  0
 13 14  1  0  0  0
 13 40  1  0  0  0
 14 15  2  0  0  0
 14 19  1  0  0  0
 15 16  1  0  0  0
 15 41  1  0  0  0
 16 17  2  0  0  0
 16 42  1  0  0  0
 17 18  1  0  0  0
 17 43  1  0  0  0
 18 19  2  0  0  0
 18 44  1  0  0  0
 19 20  1  0  0  0
 20 21  1  0  0  0
 20 22  1  0  0  0
 20 23  1  0  0  0
 21 45  1  0  0  0
 21 46  1  0  0  0
 21 47  1  0  0  0
 22 48  1  0  0  0
 22 49  1  0  0  0
 22 50  1  0  0  0
 23 51  1  0  0  0
 23 52  1  0  0  0
 23 53  1  0  0  0
 24 25  1  0  0  0
 24 28  1  0  0  0
 25 26  2  0  0  0
 25 54  1  0  0  0
 26 27  1  0  0  0
 27 31  2  0  0  0
 28 29  1  0  0  0
 28 30  2  0  0  0
M  CHG  1  29  -1
M  END
> <s_m_source_file>
../4bw2_ligand.sdf

> <i_m_source_file_index>
1

> <s_epik_input>
W0NIM11jMW5vYyhbQ0gzXSljMS1jKFtjSF1bY0hdMiluYyhjMjMpbltjSF1jKEMoPU8pW09IXSljM1tOSF1jNFtjSF1bY0hdW2NIXVtjSF1jNEMoW0NIM10pKFtDSDNdKVtDSDNd

> <s_epik_cmdline>
J2VwaWtfYXBwJywgJy1pbWFlJywgJ2xpZ2FuZF9wcm8ubWFlJywgJy1vbWFlJywgJ2xpZ2FuZF9wcmVwLm1hZScsICctbXMnLCAnMScsICctcGgnLCAnNycsICctcGh0JywgJzAuNScsICctbnQn

> <r_lp_tautomer_probability>
1

> <r_epik_Ionization_Penalty>
  0.0025

> <r_epik_Ionization_Penalty_Charging>
  0.0001

> <r_epik_Ionization_Penalty_Neutral>
  0.0024

> <r_epik_State_Penalty>
 -0.0000

> <r_epik_Charging_Adjusted_Penalty>
0.000111367759651939

> <i_epik_Tot_Q>
-1

> <i_epik_Tot_abs_Q>
1

$$$$
