4bw3_ligand
                    3D
 Schrodinger Suite 2020-3.
 58 61  0  0  1  0            999 V2000
    9.9490    5.0650   12.2350 C   0  0  0  0  0  0
   10.9040    6.0860   11.7150 C   0  0  0  0  0  0
   10.5820    7.3480   11.7790 N   0  0  0  0  0  0
   11.6720    8.0620   11.2160 O   0  0  0  0  0  0
   12.6050    7.1750   10.8450 C   0  0  0  0  0  0
   13.8330    7.7350   10.2290 C   0  0  0  0  0  0
   12.1760    5.9190   11.1230 C   0  0  0  0  0  0
   12.8920    4.6530   10.8520 C   0  0  0  0  0  0
   13.2560    4.3230    9.5370 C   0  0  0  0  0  0
   14.2120    2.3740   10.1070 C   0  0  0  0  0  0
   14.9140    1.1830    9.7550 C   0  0  0  0  0  0
   15.2200    0.8880    8.4320 N   0  0  0  0  0  0
   15.4610    1.7800    7.3520 C   0  0  0  0  0  0
   16.6500    2.5100    7.3350 C   0  0  0  0  0  0
   16.9260    3.3740    6.2900 C   0  0  0  0  0  0
   16.0390    3.5150    5.2470 C   0  0  0  0  0  0
   14.8560    2.7950    5.2290 C   0  0  0  0  0  0
   14.5290    1.9230    6.2650 C   0  0  0  0  0  0
   13.1950    1.1370    6.1760 C   0  0  0  0  0  0
   12.2090    1.8040    5.2010 C   0  0  0  0  0  0
   13.4520   -0.2810    5.6690 C   0  0  0  0  0  0
   12.4560    1.0290    7.5140 C   0  0  0  0  0  0
   15.2290    0.2900   10.8000 C   0  0  0  0  0  0
   14.8570    0.6380   12.1060 C   0  0  0  0  0  0
   14.2210    1.7250   12.4690 N   0  0  0  0  0  0
   13.8860    2.6190   11.4830 C   0  0  0  0  0  0
   13.2040    3.7930   11.8670 C   0  0  0  0  0  0
   15.9620   -0.9910   10.5830 C   0  0  0  0  0  0
   13.6420    5.3540    7.4310 C   0  0  0  0  0  0
   16.3740   -1.3060    9.4730 O   0  0  0  0  0  0
   16.1450   -1.7230   11.6440 O   0  5  0  0  0  0
   12.8790    5.2530    8.6370 O   0  0  0  0  0  0
   13.8830    3.2620    9.1150 N   0  0  0  0  0  0
    9.0524    5.5676   12.6269 H   0  0  0  0  0  0
   10.4292    4.4906   13.0409 H   0  0  0  0  0  0
    9.6611    4.3839   11.4206 H   0  0  0  0  0  0
   13.7603    8.8322   10.1985 H   0  0  0  0  0  0
   13.9400    7.3460    9.2057 H   0  0  0  0  0  0
   14.7091    7.4420   10.8261 H   0  0  0  0  0  0
   15.3027   -0.1596    8.1070 H   0  0  0  0  0  0
   17.3656    2.3990    8.1497 H   0  0  0  0  0  0
   17.8530    3.9474    6.2928 H   0  0  0  0  0  0
   16.2692    4.1981    4.4294 H   0  0  0  0  0  0
   14.1696    2.9126    4.3905 H   0  0  0  0  0  0
   12.6842    1.9105    4.2147 H   0  0  0  0  0  0
   11.9308    2.7973    5.5832 H   0  0  0  0  0  0
   11.3072    1.1811    5.1082 H   0  0  0  0  0  0
   13.9830   -0.2357    4.7067 H   0  0  0  0  0  0
   12.4925   -0.8017    5.5342 H   0  0  0  0  0  0
   14.0656   -0.8265    6.4011 H   0  0  0  0  0  0
   12.2564    2.0376    7.9051 H   0  0  0  0  0  0
   13.0771    0.4735    8.2321 H   0  0  0  0  0  0
   11.5040    0.4984    7.3653 H   0  0  0  0  0  0
   15.1225   -0.0638   12.8966 H   0  0  0  0  0  0
   12.9432    4.0002   12.9049 H   0  0  0  0  0  0
   13.2220    6.1487    6.7969 H   0  0  0  0  0  0
   13.6040    4.3960    6.8918 H   0  0  0  0  0  0
   14.6867    5.5950    7.6772 H   0  0  0  0  0  0
  1  2  1  0  0  0
  1 34  1  0  0  0
  1 35  1  0  0  0
  1 36  1  0  0  0
  2  3  2  0  0  0
  2  7  1  0  0  0
  3  4  1  0  0  0
  4  5  1  0  0  0
  5  6  1  0  0  0
  5  7  2  0  0  0
  6 37  1  0  0  0
  6 38  1  0  0  0
  6 39  1  0  0  0
  7  8  1  0  0  0
  8  9  2  0  0  0
  8 27  1  0  0  0
  9 32  1  0  0  0
  9 33  1  0  0  0
 10 11  1  0  0  0
 10 26  1  0  0  0
 10 33  2  0  0  0
 11 12  1  0  0  0
 11 23  2  0  0  0
 12 13  1  0  0  0
 12 40  1  0  0  0
 13 14  2  0  0  0
 13 18  1  0  0  0
 14 15  1  0  0  0
 14 41  1  0  0  0
 15 16  2  0  0  0
 15 42  1  0  0  0
 16 17  1  0  0  0
 16 43  1  0  0  0
 17 18  2  0  0  0
 17 44  1  0  0  0
 18 19  1  0  0  0
 19 20  1  0  0  0
 19 21  1  0  0  0
 19 22  1  0  0  0
 20 45  1  0  0  0
 20 46  1  0  0  0
 20 47  1  0  0  0
 21 48  1  0  0  0
 21 49  1  0  0  0
 21 50  1  0  0  0
 22 51  1  0  0  0
 22 52  1  0  0  0
 22 53  1  0  0  0
 23 24  1  0  0  0
 23 28  1  0  0  0
 24 25  2  0  0  0
 24 54  1  0  0  0
 25 26  1  0  0  0
 26 27  2  0  0  0
 27 55  1  0  0  0
 28 30  2  0  0  0
 28 31  1  0  0  0
 29 32  1  0  0  0
 29 56  1  0  0  0
 29 57  1  0  0  0
 29 58  1  0  0  0
M  CHG  1  31  -1
M  END
> <s_m_source_file>
../4bw3_ligand.sdf

> <i_m_source_file_index>
1

> <s_epik_input>
W0NIM11jMW5vYyhbQ0gzXSljMS1jKGMobjIpT1tDSDNdKVtjSF1jKGMyMyluW2NIXWMoQyg9TylbT0hdKWMzW05IXWM0W2NIXVtjSF1bY0hdW2NIXWM0QyhbQ0gzXSkoW0NIM10pW0NIM10=

> <s_epik_cmdline>
J2VwaWtfYXBwJywgJy1pbWFlJywgJ2xpZ2FuZF9wcm8ubWFlJywgJy1vbWFlJywgJ2xpZ2FuZF9wcmVwLm1hZScsICctbXMnLCAnMScsICctcGgnLCAnNycsICctcGh0JywgJzAuNScsICctbnQn

> <r_lp_tautomer_probability>
1

> <r_epik_Ionization_Penalty>
  0.0025

> <r_epik_Ionization_Penalty_Charging>
  0.0001

> <r_epik_Ionization_Penalty_Neutral>
  0.0024

> <r_epik_State_Penalty>
 -0.0000

> <r_epik_Charging_Adjusted_Penalty>
7.10000344867129e-05

> <i_epik_Tot_Q>
-1

> <i_epik_Tot_abs_Q>
1

$$$$
