4bxk_ligand
                    3D
 Schrodinger Suite 2020-3.
 62 63  0  0  1  0            999 V2000
   -5.7470  -22.3020  -21.6340 N   0  0  0  0  0  0
   -6.2880  -23.0360  -20.8130 N   0  3  0  0  0  0
   -6.0470  -22.6280  -19.6190 N   0  0  0  0  0  0
   -5.3490  -21.6280  -19.6290 N   0  0  0  0  0  0
   -5.1200  -21.3800  -20.9120 C   0  0  0  0  0  0
   -4.3070  -20.1990  -21.4280 C   0  0  0  0  0  0
   -4.6100  -19.9360  -22.8930 C   0  0  1  0  0  0
   -6.0170  -19.6470  -23.1620 N   0  3  0  0  0  0
   -3.7800  -18.7830  -23.4910 C   0  0  0  0  0  0
   -3.7960  -18.6910  -24.7090 O   0  0  0  0  0  0
   -3.0820  -17.9400  -22.6940 N   0  0  0  0  0  0
   -2.1980  -16.9250  -23.2940 C   0  0  1  0  0  0
   -2.4580  -15.5230  -22.7810 C   0  0  0  0  0  0
   -3.7600  -15.1210  -23.1820 C   0  0  0  0  0  0
   -4.8080  -15.0440  -22.2630 C   0  0  0  0  0  0
   -6.0820  -14.6380  -22.6730 C   0  0  0  0  0  0
   -6.3370  -14.2920  -23.9980 C   0  0  0  0  0  0
   -5.2880  -14.3610  -24.9090 C   0  0  0  0  0  0
   -4.0170  -14.7640  -24.5040 C   0  0  0  0  0  0
   -0.4560  -17.4960  -22.8680 P   0  0  2  0  0  0
   -0.3010  -18.9090  -23.5510 O   0  5  0  0  0  0
   -0.2750  -17.6430  -21.4020 O   0  0  0  0  0  0
    0.5950  -16.3890  -23.7480 C   0  0  0  0  0  0
    1.9390  -16.2860  -22.9940 C   0  0  1  0  0  0
    3.0830  -15.9700  -23.9990 C   0  0  0  0  0  0
    1.9540  -15.1540  -21.9380 C   0  0  0  0  0  0
    1.1420  -14.2210  -21.9620 O   0  0  0  0  0  0
    2.9830  -15.2510  -21.0800 N   0  0  0  0  0  0
    3.2310  -14.2910  -19.9900 C   0  0  1  0  0  0
    4.3230  -14.8320  -19.0500 C   0  0  0  0  0  0
    3.6540  -12.9080  -20.5440 C   0  0  0  0  0  0
    3.3540  -11.8860  -19.9240 O   0  0  0  0  0  0
    4.3120  -12.8870  -21.7100 N   0  0  0  0  0  0
   -4.5576  -19.2994  -20.8466 H   0  0  0  0  0  0
   -3.2343  -20.4176  -21.3211 H   0  0  0  0  0  0
   -4.3868  -20.8966  -23.3802 H   0  0  0  0  0  0
   -6.6423  -20.4518  -22.7480 H   0  0  0  0  0  0
   -6.1765  -19.5807  -24.2484 H   0  0  0  0  0  0
   -6.2913  -18.6910  -22.6921 H   0  0  0  0  0  0
   -3.1740  -18.0119  -21.6002 H   0  0  0  0  0  0
   -2.5939  -16.8032  -24.3130 H   0  0  0  0  0  0
   -2.3879  -15.5154  -21.6833 H   0  0  0  0  0  0
   -1.7101  -14.8343  -23.2010 H   0  0  0  0  0  0
   -4.6322  -15.3021  -21.2187 H   0  0  0  0  0  0
   -6.8898  -14.5915  -21.9427 H   0  0  0  0  0  0
   -7.3316  -13.9757  -24.3125 H   0  0  0  0  0  0
   -5.4623  -14.0967  -25.9520 H   0  0  0  0  0  0
   -3.2091  -14.8006  -25.2348 H   0  0  0  0  0  0
    0.7634  -16.7735  -24.7648 H   0  0  0  0  0  0
    0.1193  -15.3988  -23.8046 H   0  0  0  0  0  0
    2.0721  -17.2537  -22.4882 H   0  0  0  0  0  0
    3.1153  -16.7493  -24.7746 H   0  0  0  0  0  0
    4.0440  -15.9446  -23.4644 H   0  0  0  0  0  0
    2.8988  -14.9926  -24.4687 H   0  0  0  0  0  0
    3.6604  -16.1054  -21.2251 H   0  0  0  0  0  0
    2.2726  -14.2017  -19.4575 H   0  0  0  0  0  0
    4.0173  -15.8140  -18.6597 H   0  0  0  0  0  0
    4.4655  -14.1328  -18.2128 H   0  0  0  0  0  0
    5.2666  -14.9358  -19.6057 H   0  0  0  0  0  0
    4.5547  -13.8300  -22.2216 H   0  0  0  0  0  0
    4.6098  -11.9267  -22.1563 H   0  0  0  0  0  0
   -6.8778  -23.9003  -21.1524 H   0  0  0  0  0  0
  1  2  2  0  0  0
  1  5  1  0  0  0
  2  3  1  0  0  0
  2 62  1  0  0  0
  3  4  1  0  0  0
  4  5  2  0  0  0
  5  6  1  0  0  0
  6  7  1  0  0  0
  6 34  1  0  0  0
  6 35  1  0  0  0
  7  8  1  0  0  0
  7  9  1  0  0  0
  7 36  1  0  0  0
  8 37  1  0  0  0
  8 38  1  0  0  0
  8 39  1  0  0  0
  9 10  2  0  0  0
  9 11  1  0  0  0
 11 12  1  0  0  0
 11 40  1  0  0  0
 12 13  1  0  0  0
 12 20  1  0  0  0
 12 41  1  0  0  0
 13 14  1  0  0  0
 13 42  1  0  0  0
 13 43  1  0  0  0
 14 15  2  0  0  0
 14 19  1  0  0  0
 15 16  1  0  0  0
 15 44  1  0  0  0
 16 17  2  0  0  0
 16 45  1  0  0  0
 17 18  1  0  0  0
 17 46  1  0  0  0
 18 19  2  0  0  0
 18 47  1  0  0  0
 19 48  1  0  0  0
 20 21  1  0  0  0
 20 22  2  0  0  0
 20 23  1  0  0  0
 23 24  1  0  0  0
 23 49  1  0  0  0
 23 50  1  0  0  0
 24 25  1  0  0  0
 24 26  1  0  0  0
 24 51  1  0  0  0
 25 52  1  0  0  0
 25 53  1  0  0  0
 25 54  1  0  0  0
 26 27  2  0  0  0
 26 28  1  0  0  0
 28 29  1  0  0  0
 28 55  1  0  0  0
 29 30  1  0  0  0
 29 31  1  0  0  0
 29 56  1  0  0  0
 30 57  1  0  0  0
 30 58  1  0  0  0
 30 59  1  0  0  0
 31 32  2  0  0  0
 31 33  1  0  0  0
 33 60  1  0  0  0
 33 61  1  0  0  0
M  CHG  3   2   1   8   1  21  -1
M  END
> <s_m_source_file>
../4bxk_ligand.sdf

> <i_m_source_file_index>
1

> <s_epik_input>
bjFbbkhdbm5jMVtDSDJdW0NAQEhdKFtOSDMrXSlDKD1PKVtOSF1bQ0BASF0oW0NIMl1jMltjSF1bY0hdW2NIXVtjSF1bY0hdMilbUEBAXSg9TykoW09IXSlbQ0gyXVtDQEBIXShbQ0gzXSlDKD1PKVtOSF1bQ0BASF0oW0NIM10pQyg9TylbTkgyXQ==

> <s_epik_cmdline>
J2VwaWtfYXBwJywgJy1pbWFlJywgJ2xpZ2FuZF9wcm8ubWFlJywgJy1vbWFlJywgJ2xpZ2FuZF9wcmVwLm1hZScsICctbXMnLCAnMScsICctcGgnLCAnNycsICctcGh0JywgJzAuNScsICctbnQn

> <r_epik_Ionization_Penalty>
  0.4210

> <r_epik_Ionization_Penalty_Charging>
  0.4210

> <r_epik_Ionization_Penalty_Neutral>
  0.0000

> <r_epik_State_Penalty>
  0.2399

> <r_epik_Charging_Adjusted_Penalty>
0.660904909764253

> <i_epik_Tot_Q>
1

> <i_epik_Tot_abs_Q>
3

$$$$
