4bxn_ligand
                    3D
 Schrodinger Suite 2020-3.
 73 76  0  0  1  0            999 V2000
    7.7870   10.2580    5.1880 C   0  0  0  0  0  0
    7.0260    9.3340    5.9370 C   0  0  0  0  0  0
    5.7130    9.6430    6.3060 C   0  0  0  0  0  0
    4.8580    8.5990    7.1490 C   0  0  0  0  0  0
    5.1580   10.8610    5.9360 C   0  0  0  0  0  0
    5.9210   11.7820    5.1880 C   0  0  0  0  0  0
    7.2380   11.4700    4.8180 C   0  0  0  0  0  0
    8.0660   12.4540    4.0140 C   0  0  0  0  0  0
    8.7200   13.3120    4.6290 O   0  0  0  0  0  0
    8.1110   12.4130    2.5350 N   0  0  0  0  0  0
    8.9500   13.4150    1.8020 C   0  0  0  0  0  0
    8.3280   14.7810    1.4980 C   0  0  0  0  0  0
    8.1780   15.7640    2.6220 C   0  0  0  0  0  0
    7.3300   15.3440    3.8030 N   0  3  0  0  0  0
    7.3230   11.3800    1.8360 C   0  0  2  0  0  0
    7.9210   10.0300    1.9360 C   0  0  0  0  0  0
    7.7140    9.1690    0.6410 C   0  0  0  0  0  0
    9.4070    9.9510    2.4980 C   0  0  0  0  0  0
    7.0960   11.7690    0.3750 C   0  0  0  0  0  0
    8.1560   11.9290   -0.3830 O   0  0  0  0  0  0
    8.0990   12.2800   -1.7230 C   0  0  0  0  0  0
    9.3170   12.4330   -2.4750 C   0  0  0  0  0  0
    9.2610   12.7940   -3.8540 C   0  0  0  0  0  0
   10.7120   12.9770   -4.7540 Cl  0  0  0  0  0  0
    7.9990   13.0030   -4.4860 C   0  0  0  0  0  0
    6.8100   12.8530   -3.7510 C   0  0  0  0  0  0
    6.8640   12.4860   -2.3490 C   0  0  0  0  0  0
    5.6300   12.3260   -1.5650 C   0  0  1  0  0  0
    4.3880   12.5210   -2.1480 O   0  0  0  0  0  0
    5.7470   11.9570   -0.1670 C   0  0  0  0  0  0
    4.4520   11.7890    0.6550 C   0  0  0  0  0  0
    4.4320   10.4880    1.4590 C   0  0  0  0  0  0
    5.0710   10.4840    2.6980 C   0  0  0  0  0  0
    5.0940    9.2990    3.5090 C   0  0  0  0  0  0
    4.4720    8.1330    3.0610 C   0  0  0  0  0  0
    3.8110    8.1210    1.7910 C   0  0  0  0  0  0
    3.7910    9.2950    0.9910 C   0  0  0  0  0  0
    8.8099   10.0141    4.9012 H   0  0  0  0  0  0
    7.4626    8.3786    6.2280 H   0  0  0  0  0  0
    5.4636    7.7016    7.3439 H   0  0  0  0  0  0
    3.9587    8.3183    6.5812 H   0  0  0  0  0  0
    4.5607    9.0554    8.1047 H   0  0  0  0  0  0
    4.1351   11.1048    6.2229 H   0  0  0  0  0  0
    5.4864   12.7383    4.8968 H   0  0  0  0  0  0
    9.8546   13.6346    2.3881 H   0  0  0  0  0  0
    9.2382   13.0056    0.8226 H   0  0  0  0  0  0
    8.9391   15.3032    0.7471 H   0  0  0  0  0  0
    7.3088   14.6413    1.1084 H   0  0  0  0  0  0
    9.1684   15.9961    3.0407 H   0  0  0  0  0  0
    7.7149   16.6868    2.2427 H   0  0  0  0  0  0
    7.3079   16.1553    4.5455 H   0  0  0  0  0  0
    7.7597   14.4404    4.2600 H   0  0  0  0  0  0
    6.3061   15.1311    3.4619 H   0  0  0  0  0  0
    6.3692   11.3207    2.3808 H   0  0  0  0  0  0
    7.2704    9.6383    2.7318 H   0  0  0  0  0  0
    6.6721    9.2630    0.3009 H   0  0  0  0  0  0
    7.9335    8.1142    0.8630 H   0  0  0  0  0  0
    8.3912    9.5261   -0.1488 H   0  0  0  0  0  0
    9.4905   10.5719    3.4022 H   0  0  0  0  0  0
   10.1079   10.3192    1.7343 H   0  0  0  0  0  0
    9.6501    8.9073    2.7462 H   0  0  0  0  0  0
   10.2807   12.2732   -1.9914 H   0  0  0  0  0  0
    7.9567   13.2792   -5.5396 H   0  0  0  0  0  0
    5.8467   13.0127   -4.2353 H   0  0  0  0  0  0
    5.6675   13.3901   -1.2889 H   0  0  0  0  0  0
    4.3165   12.8006   -3.2095 H   0  0  0  0  0  0
    4.3559   12.6255    1.3628 H   0  0  0  0  0  0
    3.5858   11.7810   -0.0230 H   0  0  0  0  0  0
    5.5589   11.3908    3.0554 H   0  0  0  0  0  0
    5.5978    9.3104    4.4755 H   0  0  0  0  0  0
    4.4893    7.2335    3.6764 H   0  0  0  0  0  0
    3.3236    7.2121    1.4382 H   0  0  0  0  0  0
    3.2892    9.2882    0.0234 H   0  0  0  0  0  0
  1  2  2  0  0  0
  1  7  1  0  0  0
  1 38  1  0  0  0
  2  3  1  0  0  0
  2 39  1  0  0  0
  3  4  1  0  0  0
  3  5  2  0  0  0
  4 40  1  0  0  0
  4 41  1  0  0  0
  4 42  1  0  0  0
  5  6  1  0  0  0
  5 43  1  0  0  0
  6  7  2  0  0  0
  6 44  1  0  0  0
  7  8  1  0  0  0
  8  9  2  0  0  0
  8 10  1  0  0  0
 10 11  1  0  0  0
 10 15  1  0  0  0
 11 12  1  0  0  0
 11 45  1  0  0  0
 11 46  1  0  0  0
 12 13  1  0  0  0
 12 47  1  0  0  0
 12 48  1  0  0  0
 13 14  1  0  0  0
 13 49  1  0  0  0
 13 50  1  0  0  0
 14 51  1  0  0  0
 14 52  1  0  0  0
 14 53  1  0  0  0
 15 16  1  0  0  0
 15 19  1  0  0  0
 15 54  1  0  0  0
 16 17  1  0  0  0
 16 18  1  0  0  0
 16 55  1  0  0  0
 17 56  1  0  0  0
 17 57  1  0  0  0
 17 58  1  0  0  0
 18 59  1  0  0  0
 18 60  1  0  0  0
 18 61  1  0  0  0
 19 20  1  0  0  0
 19 30  2  0  0  0
 20 21  1  0  0  0
 21 22  2  0  0  0
 21 27  1  0  0  0
 22 23  1  0  0  0
 22 62  1  0  0  0
 23 24  1  0  0  0
 23 25  2  0  0  0
 25 26  1  0  0  0
 25 63  1  0  0  0
 26 27  2  0  0  0
 26 64  1  0  0  0
 27 28  1  0  0  0
 28 29  1  0  0  0
 28 30  1  0  0  0
 28 65  1  0  0  0
 29 66  1  0  0  0
 30 31  1  0  0  0
 31 32  1  0  0  0
 31 67  1  0  0  0
 31 68  1  0  0  0
 32 33  2  0  0  0
 32 37  1  0  0  0
 33 34  1  0  0  0
 33 69  1  0  0  0
 34 35  2  0  0  0
 34 70  1  0  0  0
 35 36  1  0  0  0
 35 71  1  0  0  0
 36 37  2  0  0  0
 36 72  1  0  0  0
 37 73  1  0  0  0
M  CHG  1  14   1
M  END
> <s_m_source_file>
../4bxn_ligand.sdf

> <i_m_source_file_index>
1

> <s_epik_input>
W0NIM11jMVtjSF1bY0hdYyhbY0hdW2NIXTEpQyg9TylOKFtDSDJdW0NIMl1bQ0gyXVtOSDMrXSlbQ0BIXShbQ0hdKFtDSDNdKVtDSDNdKUMoTzIpPUMoW0NIXShbT0hdKWMoYzIzKVtjSF1bY0hdYyhDbClbY0hdMylbQ0gyXWM0W2NIXVtjSF1bY0hdW2NIXVtjSF00

> <s_epik_cmdline>
J2VwaWtfYXBwJywgJy1pbWFlJywgJ2xpZ2FuZF9wcm8ubWFlJywgJy1vbWFlJywgJ2xpZ2FuZF9wcmVwLm1hZScsICctbXMnLCAnMScsICctcGgnLCAnNycsICctcGh0JywgJzAuNScsICctbnQn

> <r_lp_tautomer_probability>
1

> <r_epik_Ionization_Penalty>
  0.0019

> <r_epik_Ionization_Penalty_Charging>
  0.0011

> <r_epik_Ionization_Penalty_Neutral>
  0.0009

> <r_epik_State_Penalty>
 -0.0000

> <r_epik_Charging_Adjusted_Penalty>
0.00106274597963424

> <i_epik_Tot_Q>
1

> <i_epik_Tot_abs_Q>
1

$$$$
