4bxu_ligand
                    3D
 Schrodinger Suite 2020-3.
231231  0  0  1  0            999 V2000
   14.2610  -14.7700   -0.1330 N   0  3  0  0  0  0
   15.3050  -13.7760    0.0310 C   0  0  2  0  0  0
   14.8220  -12.6470    0.9300 C   0  0  0  0  0  0
   13.6210  -12.3770    1.0080 O   0  0  0  0  0  0
   15.7320  -13.2340   -1.3230 C   0  0  0  0  0  0
   15.7510  -12.0010    1.6110 N   0  0  0  0  0  0
   15.4160  -10.8920    2.4830 C   0  0  2  0  0  0
   15.7840   -9.5690    1.8180 C   0  0  0  0  0  0
   16.5670   -9.5360    0.8660 O   0  0  0  0  0  0
   16.1300  -11.0450    3.8270 C   0  0  0  0  0  0
   15.7760  -12.2680    4.4520 O   0  0  0  0  0  0
   15.2110   -8.4850    2.3110 N   0  0  0  0  0  0
   15.4140   -7.1700    1.7140 C   0  0  2  0  0  0
   16.7130   -6.5360    2.2080 C   0  0  0  0  0  0
   17.1330   -5.4940    1.7050 O   0  0  0  0  0  0
   14.2290   -6.2590    2.0330 C   0  0  0  0  0  0
   12.8740   -6.9110    1.7900 C   0  0  0  0  0  0
   12.6850   -7.4000    0.3650 C   0  0  0  0  0  0
   12.2350   -6.6110   -0.4860 O   0  0  0  0  0  0
   12.9670   -8.5880    0.0940 O   0  0  0  0  0  0
   17.3430   -7.1760    3.1910 N   0  0  0  0  0  0
   18.5590   -6.6510    3.8170 C   0  0  2  0  0  0
   19.6660   -6.4240    2.7920 C   0  0  0  0  0  0
   20.3080   -5.3740    2.7840 O   0  0  0  0  0  0
   19.0550   -7.6040    4.9060 C   0  0  0  0  0  0
   20.3540   -7.1420    5.5400 C   0  0  0  0  0  0
   20.3040   -6.3170    6.4780 O   0  0  0  0  0  0
   21.4320   -7.6160    5.1160 O   0  0  0  0  0  0
   19.8840   -7.4050    1.9260 N   0  0  0  0  0  0
   20.9080   -7.2950    0.8920 C   0  0  2  0  0  0
   20.6530   -6.0810    0.0000 C   0  0  0  0  0  0
   21.5860   -5.3710   -0.3800 O   0  0  0  0  0  0
   20.9560   -8.5710    0.0500 C   0  0  0  0  0  0
   21.2680   -9.8160    0.8640 C   0  0  0  0  0  0
   21.2870  -11.0750    0.0280 C   0  0  0  0  0  0
   20.2270  -11.4480   -0.5220 O   0  0  0  0  0  0
   22.3560  -11.7090   -0.0730 O   0  0  0  0  0  0
   19.3840   -5.8320   -0.3050 N   0  0  0  0  0  0
   19.0130   -4.7050   -1.1490 C   0  0  2  0  0  0
   19.1890   -3.3850   -0.4260 C   0  0  0  0  0  0
   19.8430   -2.4860   -0.9410 O   0  0  0  0  0  0
   17.5800   -4.8260   -1.6480 C   0  0  0  0  0  0
   17.4200   -5.6800   -2.8980 C   0  0  0  0  0  0
   17.3990   -7.1560   -2.5450 C   0  0  0  0  0  0
   16.1760   -5.2670   -3.6580 C   0  0  0  0  0  0
   18.6130   -3.2660    0.7670 N   0  0  0  0  0  0
   18.7010   -2.0220    1.5200 C   0  0  2  0  0  0
   20.1670   -1.6270    1.7080 C   0  0  0  0  0  0
   20.5610   -0.4900    1.4450 O   0  0  0  0  0  0
   17.9800   -2.1140    2.8930 C   0  0  0  0  0  0
   18.6930   -3.0480    3.8650 C   0  0  0  0  0  0
   17.8040   -0.7310    3.4990 C   0  0  0  0  0  0
   20.9780   -2.5960    2.0950 N   0  0  0  0  0  0
   22.3810   -2.3630    2.3410 C   0  0  2  0  0  0
   23.0980   -1.9620    1.0570 C   0  0  0  0  0  0
   23.8580   -0.9980    1.0460 O   0  0  0  0  0  0
   22.9950   -3.5960    2.9680 C   0  0  0  0  0  0
   22.8320   -2.6880   -0.0280 N   0  0  0  0  0  0
   23.3710   -2.3340   -1.3380 C   0  0  2  0  0  0
   22.9730   -0.9040   -1.6960 C   0  0  0  0  0  0
   23.7810   -0.1220   -2.1960 O   0  0  0  0  0  0
   22.8430   -3.3110   -2.3930 C   0  0  0  0  0  0
   23.3500   -3.0550   -3.8030 C   0  0  0  0  0  0
   22.8530   -4.0950   -4.7870 C   0  0  0  0  0  0
   23.4820   -5.1710   -4.8900 O   0  0  0  0  0  0
   21.8310   -3.8560   -5.4580 O   0  0  0  0  0  0
   21.7240   -0.5790   -1.3950 N   0  0  0  0  0  0
   21.1500    0.7280   -1.6740 C   0  0  2  0  0  0
   21.9810    1.8590   -1.0690 C   0  0  0  0  0  0
   22.6410    2.6060   -1.7970 O   0  0  0  0  0  0
   19.7080    0.7620   -1.1490 C   0  0  0  0  0  0
   19.0300    2.0990   -1.2270 C   0  0  0  0  0  0
   18.4220    2.5200   -2.3930 C   0  0  0  0  0  0
   18.9870    2.9240   -0.1210 C   0  0  0  0  0  0
   17.7850    3.7390   -2.4550 C   0  0  0  0  0  0
   18.3520    4.1390   -0.1740 C   0  0  0  0  0  0
   17.7480    4.5500   -1.3420 C   0  0  0  0  0  0
   21.9740    1.9870    0.2570 N   0  0  0  0  0  0
   22.6370    3.1330    0.8810 C   0  0  2  0  0  0
   24.1600    3.0250    0.8690 C   0  0  0  0  0  0
   24.8410    4.0370    0.9760 O   0  0  0  0  0  0
   22.1200    3.4860    2.2960 C   0  0  0  0  0  0
   21.6230    2.3610    3.2070 C   0  0  0  0  0  0
   20.2110    1.9650    2.8200 C   0  0  0  0  0  0
   22.5590    1.1600    3.1990 C   0  0  0  0  0  0
   24.7090    1.8170    0.7520 N   0  0  0  0  0  0
   26.1610    1.6780    0.6530 C   0  0  2  0  0  0
   26.6570    2.1630   -0.7030 C   0  0  0  0  0  0
   27.7180    2.7800   -0.8000 O   0  0  0  0  0  0
   26.6180    0.2360    0.8810 C   0  0  0  0  0  0
   26.4930   -0.2290    2.3210 C   0  0  0  0  0  0
   27.0590   -1.6190    2.5260 C   0  0  0  0  0  0
   28.2380   -1.7820    2.8440 O   0  0  0  0  0  0
   26.2310   -2.6280    2.3290 N   0  0  0  0  0  0
   25.8900    1.8830   -1.7500 N   0  0  0  0  0  0
   26.2560    2.3090   -3.0980 C   0  0  2  0  0  0
   25.9760    3.7940   -3.2960 C   0  0  0  0  0  0
   26.7240    4.4960   -3.9780 O   0  0  0  0  0  0
   25.4930    1.4880   -4.1400 C   0  0  0  0  0  0
   25.7570    1.9490   -5.5580 C   0  0  0  0  0  0
   26.8480    1.6580   -6.0910 O   0  0  0  0  0  0
   24.8650    2.5880   -6.1540 O   0  0  0  0  0  0
   24.9020    4.2740   -2.6850 N   0  0  0  0  0  0
   24.5100    5.6720   -2.8170 C   0  0  2  0  0  0
   25.0510    6.5040   -1.6470 C   0  0  0  0  0  0
   24.6290    7.6390   -1.4200 O   0  0  0  0  0  0
   22.9810    5.7680   -2.9020 C   0  0  0  0  0  0
   22.4550    7.1610   -3.2220 C   0  0  0  0  0  0
   23.0590    7.7450   -4.4830 C   0  0  0  0  0  0
   22.5330    7.5630   -5.5820 O   0  0  0  0  0  0
   24.1610    8.4630   -4.3280 N   0  0  0  0  0  0
   26.0100    5.9470   -0.9240 N   0  0  0  0  0  0
   26.5840    6.6290    0.2320 C   0  0  2  0  0  0
   27.3920    7.8450   -0.2080 C   0  0  0  0  0  0
   27.1879    8.9708    0.3197 O   0  0  0  0  0  0
   27.4640    5.6700    1.0420 C   0  0  0  0  0  0
   28.0270    6.3090    2.2980 C   0  0  0  0  0  0
   27.3700    6.3410    3.3390 O   0  0  0  0  0  0
   29.2540    6.7970    2.2180 N   0  0  0  0  0  0
   28.2689    7.7233   -1.1046 O   0  0  0  0  0  0
   13.9617  -15.1535    0.8536 H   0  0  0  0  0  0
   14.6378  -15.5992   -0.7498 H   0  0  0  0  0  0
   13.3920  -14.3109   -0.6271 H   0  0  0  0  0  0
   16.1498  -14.2959    0.5064 H   0  0  0  0  0  0
   16.0773  -14.0635   -1.9576 H   0  0  0  0  0  0
   16.5499  -12.5111   -1.1872 H   0  0  0  0  0  0
   14.8778  -12.7351   -1.8042 H   0  0  0  0  0  0
   16.7981  -12.3210    1.5057 H   0  0  0  0  0  0
   14.3271  -10.9389    2.6313 H   0  0  0  0  0  0
   17.2183  -11.0315    3.6676 H   0  0  0  0  0  0
   15.8461  -10.2142    4.4897 H   0  0  0  0  0  0
   16.2056  -12.5304    5.4300 H   0  0  0  0  0  0
   14.5665   -8.5938    3.1957 H   0  0  0  0  0  0
   15.4824   -7.3467    0.6304 H   0  0  0  0  0  0
   14.2666   -5.9661    3.0926 H   0  0  0  0  0  0
   14.2778   -5.3593    1.4019 H   0  0  0  0  0  0
   12.7610   -7.7803    2.4545 H   0  0  0  0  0  0
   12.0748   -6.1843    1.9978 H   0  0  0  0  0  0
   12.8378   -8.9637   -0.9317 H   0  0  0  0  0  0
   16.9184   -8.1322    3.5306 H   0  0  0  0  0  0
   18.2603   -5.6853    4.2508 H   0  0  0  0  0  0
   18.2988   -7.6771    5.7015 H   0  0  0  0  0  0
   19.2273   -8.5997    4.4713 H   0  0  0  0  0  0
   22.3860   -7.2960    5.5603 H   0  0  0  0  0  0
   19.2725   -8.3164    1.9997 H   0  0  0  0  0  0
   21.8572   -7.1624    1.4318 H   0  0  0  0  0  0
   19.9810   -8.7274   -0.4346 H   0  0  0  0  0  0
   21.7363   -8.4736   -0.7192 H   0  0  0  0  0  0
   22.2577   -9.7095    1.3322 H   0  0  0  0  0  0
   20.5046   -9.9440    1.6455 H   0  0  0  0  0  0
   20.2173  -12.3613   -1.1351 H   0  0  0  0  0  0
   18.6062   -6.4991    0.0950 H   0  0  0  0  0  0
   19.7144   -4.7620   -1.9945 H   0  0  0  0  0  0
   16.9565   -5.2827   -0.8652 H   0  0  0  0  0  0
   17.1904   -3.8262   -1.8902 H   0  0  0  0  0  0
   18.2848   -5.5164   -3.5578 H   0  0  0  0  0  0
   18.3163   -7.4147   -1.9959 H   0  0  0  0  0  0
   17.3431   -7.7528   -3.4673 H   0  0  0  0  0  0
   16.5224   -7.3701   -1.9160 H   0  0  0  0  0  0
   16.2299   -4.1940   -3.8942 H   0  0  0  0  0  0
   15.2871   -5.4622   -3.0401 H   0  0  0  0  0  0
   16.1078   -5.8449   -4.5915 H   0  0  0  0  0  0
   18.0644   -4.1235    1.1838 H   0  0  0  0  0  0
   18.1861   -1.2845    0.8868 H   0  0  0  0  0  0
   16.9806   -2.5438    2.7301 H   0  0  0  0  0  0
   18.8075   -4.0398    3.4032 H   0  0  0  0  0  0
   18.1005   -3.1391    4.7873 H   0  0  0  0  0  0
   19.6853   -2.6388    4.1056 H   0  0  0  0  0  0
   17.2883   -0.0783    2.7793 H   0  0  0  0  0  0
   18.7906   -0.3068    3.7373 H   0  0  0  0  0  0
   17.2058   -0.8072    4.4189 H   0  0  0  0  0  0
   20.5560   -3.6030    2.2288 H   0  0  0  0  0  0
   22.4376   -1.5251    3.0514 H   0  0  0  0  0  0
   22.4492   -3.8496    3.8888 H   0  0  0  0  0  0
   24.0497   -3.3979    3.2096 H   0  0  0  0  0  0
   22.9323   -4.4366    2.2613 H   0  0  0  0  0  0
   22.1887   -3.5736    0.0810 H   0  0  0  0  0  0
   24.4658   -2.4080   -1.2610 H   0  0  0  0  0  0
   23.1436   -4.3352   -2.1273 H   0  0  0  0  0  0
   21.7454   -3.2497   -2.4329 H   0  0  0  0  0  0
   23.0030   -2.0684   -4.1439 H   0  0  0  0  0  0
   24.4497   -3.0784   -3.8071 H   0  0  0  0  0  0
   23.1413   -5.9417   -5.5971 H   0  0  0  0  0  0
   21.1138   -1.3557   -0.9107 H   0  0  0  0  0  0
   21.1787    0.8383   -2.7681 H   0  0  0  0  0  0
   19.0893    0.0631   -1.7311 H   0  0  0  0  0  0
   19.6965    0.4668   -0.0894 H   0  0  0  0  0  0
   18.4466    1.8797   -3.2748 H   0  0  0  0  0  0
   19.4636    2.6060    0.8063 H   0  0  0  0  0  0
   17.3113    4.0615   -3.3822 H   0  0  0  0  0  0
   18.3254    4.7790    0.7079 H   0  0  0  0  0  0
   17.2421    5.5145   -1.3854 H   0  0  0  0  0  0
   21.4718    1.2344    0.8826 H   0  0  0  0  0  0
   22.3326    3.9326    0.1897 H   0  0  0  0  0  0
   22.9238    3.9704    2.8698 H   0  0  0  0  0  0
   21.2641    4.1719    2.2131 H   0  0  0  0  0  0
   21.6064    2.7348    4.2414 H   0  0  0  0  0  0
   19.5634    2.8540    2.8360 H   0  0  0  0  0  0
   19.8299    1.2208    3.5349 H   0  0  0  0  0  0
   20.2156    1.5329    1.8084 H   0  0  0  0  0  0
   23.5715    1.4824    3.4834 H   0  0  0  0  0  0
   22.5836    0.7211    2.1907 H   0  0  0  0  0  0
   22.1980    0.4090    3.9171 H   0  0  0  0  0  0
   24.0681    0.9232    0.7299 H   0  0  0  0  0  0
   26.5514    2.3180    1.4580 H   0  0  0  0  0  0
   26.0094   -0.4431    0.2658 H   0  0  0  0  0  0
   27.6764    0.1377    0.5981 H   0  0  0  0  0  0
   27.0403    0.4626    2.9784 H   0  0  0  0  0  0
   25.4317   -0.2468    2.6098 H   0  0  0  0  0  0
   25.1858   -2.4346    2.0459 H   0  0  0  0  0  0
   26.5862   -3.6623    2.4479 H   0  0  0  0  0  0
   24.9612    1.3172   -1.5852 H   0  0  0  0  0  0
   27.3376    2.1263   -3.1809 H   0  0  0  0  0  0
   25.7949    0.4327   -4.0680 H   0  0  0  0  0  0
   24.4121    1.5736   -3.9545 H   0  0  0  0  0  0
   25.0318    2.9342   -7.1847 H   0  0  0  0  0  0
   24.3014    3.5904   -2.0669 H   0  0  0  0  0  0
   24.9671    6.0325   -3.7504 H   0  0  0  0  0  0
   22.6149    5.0972   -3.6933 H   0  0  0  0  0  0
   22.5409    5.4725   -1.9382 H   0  0  0  0  0  0
   21.3648    7.1180   -3.3619 H   0  0  0  0  0  0
   22.6915    7.8421   -2.3912 H   0  0  0  0  0  0
   24.5936    8.5972   -3.3256 H   0  0  0  0  0  0
   24.6438    8.9252   -5.2017 H   0  0  0  0  0  0
   26.3736    4.9491   -1.2103 H   0  0  0  0  0  0
   25.7259    6.9564    0.8374 H   0  0  0  0  0  0
   26.8697    4.7959    1.3467 H   0  0  0  0  0  0
   28.3117    5.3395    0.4238 H   0  0  0  0  0  0
   29.8048    6.7472    1.2671 H   0  0  0  0  0  0
   29.7235    7.2526    3.1023 H   0  0  0  0  0  0
   28.8536    8.5984   -1.4244 H   0  0  0  0  0  0
  1  2  1  0  0  0
  1121  1  0  0  0
  1122  1  0  0  0
  1123  1  0  0  0
  2  3  1  0  0  0
  2  5  1  0  0  0
  2124  1  0  0  0
  3  4  2  0  0  0
  3  6  1  0  0  0
  5125  1  0  0  0
  5126  1  0  0  0
  5127  1  0  0  0
  6  7  1  0  0  0
  6128  1  0  0  0
  7  8  1  0  0  0
  7 10  1  0  0  0
  7129  1  0  0  0
  8  9  2  0  0  0
  8 12  1  0  0  0
 10 11  1  0  0  0
 10130  1  0  0  0
 10131  1  0  0  0
 11132  1  0  0  0
 12 13  1  0  0  0
 12133  1  0  0  0
 13 14  1  0  0  0
 13 16  1  0  0  0
 13134  1  0  0  0
 14 15  2  0  0  0
 14 21  1  0  0  0
 16 17  1  0  0  0
 16135  1  0  0  0
 16136  1  0  0  0
 17 18  1  0  0  0
 17137  1  0  0  0
 17138  1  0  0  0
 18 19  2  0  0  0
 18 20  1  0  0  0
 20139  1  0  0  0
 21 22  1  0  0  0
 21140  1  0  0  0
 22 23  1  0  0  0
 22 25  1  0  0  0
 22141  1  0  0  0
 23 24  2  0  0  0
 23 29  1  0  0  0
 25 26  1  0  0  0
 25142  1  0  0  0
 25143  1  0  0  0
 26 27  2  0  0  0
 26 28  1  0  0  0
 28144  1  0  0  0
 29 30  1  0  0  0
 29145  1  0  0  0
 30 31  1  0  0  0
 30 33  1  0  0  0
 30146  1  0  0  0
 31 32  2  0  0  0
 31 38  1  0  0  0
 33 34  1  0  0  0
 33147  1  0  0  0
 33148  1  0  0  0
 34 35  1  0  0  0
 34149  1  0  0  0
 34150  1  0  0  0
 35 36  1  0  0  0
 35 37  2  0  0  0
 36151  1  0  0  0
 38 39  1  0  0  0
 38152  1  0  0  0
 39 40  1  0  0  0
 39 42  1  0  0  0
 39153  1  0  0  0
 40 41  2  0  0  0
 40 46  1  0  0  0
 42 43  1  0  0  0
 42154  1  0  0  0
 42155  1  0  0  0
 43 44  1  0  0  0
 43 45  1  0  0  0
 43156  1  0  0  0
 44157  1  0  0  0
 44158  1  0  0  0
 44159  1  0  0  0
 45160  1  0  0  0
 45161  1  0  0  0
 45162  1  0  0  0
 46 47  1  0  0  0
 46163  1  0  0  0
 47 48  1  0  0  0
 47 50  1  0  0  0
 47164  1  0  0  0
 48 49  2  0  0  0
 48 53  1  0  0  0
 50 51  1  0  0  0
 50 52  1  0  0  0
 50165  1  0  0  0
 51166  1  0  0  0
 51167  1  0  0  0
 51168  1  0  0  0
 52169  1  0  0  0
 52170  1  0  0  0
 52171  1  0  0  0
 53 54  1  0  0  0
 53172  1  0  0  0
 54 55  1  0  0  0
 54 57  1  0  0  0
 54173  1  0  0  0
 55 56  2  0  0  0
 55 58  1  0  0  0
 57174  1  0  0  0
 57175  1  0  0  0
 57176  1  0  0  0
 58 59  1  0  0  0
 58177  1  0  0  0
 59 60  1  0  0  0
 59 62  1  0  0  0
 59178  1  0  0  0
 60 61  2  0  0  0
 60 67  1  0  0  0
 62 63  1  0  0  0
 62179  1  0  0  0
 62180  1  0  0  0
 63 64  1  0  0  0
 63181  1  0  0  0
 63182  1  0  0  0
 64 65  1  0  0  0
 64 66  2  0  0  0
 65183  1  0  0  0
 67 68  1  0  0  0
 67184  1  0  0  0
 68 69  1  0  0  0
 68 71  1  0  0  0
 68185  1  0  0  0
 69 70  2  0  0  0
 69 78  1  0  0  0
 71 72  1  0  0  0
 71186  1  0  0  0
 71187  1  0  0  0
 72 73  2  0  0  0
 72 74  1  0  0  0
 73 75  1  0  0  0
 73188  1  0  0  0
 74 76  2  0  0  0
 74189  1  0  0  0
 75 77  2  0  0  0
 75190  1  0  0  0
 76 77  1  0  0  0
 76191  1  0  0  0
 77192  1  0  0  0
 78 79  1  0  0  0
 78193  1  0  0  0
 79 80  1  0  0  0
 79 82  1  0  0  0
 79194  1  0  0  0
 80 81  2  0  0  0
 80 86  1  0  0  0
 82 83  1  0  0  0
 82195  1  0  0  0
 82196  1  0  0  0
 83 84  1  0  0  0
 83 85  1  0  0  0
 83197  1  0  0  0
 84198  1  0  0  0
 84199  1  0  0  0
 84200  1  0  0  0
 85201  1  0  0  0
 85202  1  0  0  0
 85203  1  0  0  0
 86 87  1  0  0  0
 86204  1  0  0  0
 87 88  1  0  0  0
 87 90  1  0  0  0
 87205  1  0  0  0
 88 89  2  0  0  0
 88 95  1  0  0  0
 90 91  1  0  0  0
 90206  1  0  0  0
 90207  1  0  0  0
 91 92  1  0  0  0
 91208  1  0  0  0
 91209  1  0  0  0
 92 93  2  0  0  0
 92 94  1  0  0  0
 94210  1  0  0  0
 94211  1  0  0  0
 95 96  1  0  0  0
 95212  1  0  0  0
 96 97  1  0  0  0
 96 99  1  0  0  0
 96213  1  0  0  0
 97 98  2  0  0  0
 97103  1  0  0  0
 99100  1  0  0  0
 99214  1  0  0  0
 99215  1  0  0  0
100101  2  0  0  0
100102  1  0  0  0
102216  1  0  0  0
103104  1  0  0  0
103217  1  0  0  0
104105  1  0  0  0
104107  1  0  0  0
104218  1  0  0  0
105106  2  0  0  0
105112  1  0  0  0
107108  1  0  0  0
107219  1  0  0  0
107220  1  0  0  0
108109  1  0  0  0
108221  1  0  0  0
108222  1  0  0  0
109110  2  0  0  0
109111  1  0  0  0
111223  1  0  0  0
111224  1  0  0  0
112113  1  0  0  0
112225  1  0  0  0
113114  1  0  0  0
113116  1  0  0  0
113226  1  0  0  0
114115  2  0  0  0
114120  1  0  0  0
116117  1  0  0  0
116227  1  0  0  0
116228  1  0  0  0
117118  2  0  0  0
117119  1  0  0  0
119229  1  0  0  0
119230  1  0  0  0
120231  1  0  0  0
M  CHG  1   1   1
M  END
> <s_m_source_file>
../4bxu_ligand.sdf

> <i_m_source_file_index>
1

> <s_epik_input>
W05IMytdW0NAQEhdKFtDSDNdKUMoPU8pW05IXVtDQEBIXShbQ0gyXVtPSF0pQyg9TylbTkhdW0NAQEhdKFtDSDJdW0NIMl1DKD1PKVtPSF0pQyg9TylbTkhdW0NAQEhdKFtDSDJdQyg9TylbT0hdKUMoPU8pW05IXVtDQEBIXShbQ0gyXVtDSDJdQyg9TylbT0hdKUMoPU8pW05IXVtDQEBIXShbQ0gyXVtDSF0oW0NIM10pW0NIM10pQyg9TylbTkhdW0NAQEhdKFtDSF0oW0NIM10pW0NIM10pQyg9TylbTkhdW0NAQEhdKFtDSDNdKUMoPU8pW05IXVtDQEBIXShbQ0gyXVtDSDJdQyg9TylbT0hdKUMoPU8pW05IXVtDQEBIXShbQ0gyXWMxW2NIXVtjSF1bY0hdW2NIXVtjSF0xKUMoPU8pW05IXVtDQEBIXShbQ0gyXVtDSF0oW0NIM10pW0NIM10pQyg9TylbTkhdW0NAQEhdKFtDSDJdW0NIMl1DKD1PKVtOSDJdKUMoPU8pW05IXVtDQEBIXShbQ0gyXUMoPU8pW09IXSlDKD1PKVtOSF1bQ0BASF0oW0NIMl1bQ0gyXUMoPU8pW05IMl0pQyg9TylbTkhdW0NASF0oQyg9TylbT0hdKVtDSDJdQyg9TylbTkgyXQ==

> <s_epik_cmdline>
J2VwaWtfYXBwJywgJy1pbWFlJywgJ2xpZ2FuZF9wcm8ubWFlJywgJy1vbWFlJywgJ2xpZ2FuZF9wcmVwLm1hZScsICctbXMnLCAnMScsICctcGgnLCAnNycsICctcGh0JywgJzAuNScsICctbnQn

> <s_epik_pKa_notes>
Molecule size exceeds maximum supported for generating protonation states

$$$$
