4byi_ligand
                    3D
 Schrodinger Suite 2020-3.
 49 52  0  0  1  0            999 V2000
    5.0170  -28.3700   -8.7670 Cl  0  0  0  0  0  0
    4.0520  -29.7170   -8.1660 C   0  0  0  0  0  0
    3.3230  -30.5020   -9.0990 C   0  0  0  0  0  0
    2.5640  -31.5480   -8.6710 N   0  0  0  0  0  0
    2.4860  -31.8830   -7.3330 C   0  0  0  0  0  0
    1.7910  -32.8910   -6.6870 N   0  3  0  0  0  0
    2.0470  -32.7980   -5.3210 C   0  0  0  0  0  0
    1.4880  -33.7110   -4.1920 C   0  0  0  0  0  0
    1.8250  -33.6230   -2.8560 C   0  0  0  0  0  0
    1.1440  -34.5530   -2.2120 N   0  0  0  0  0  0
    1.2120  -34.8040   -0.7730 C   0  0  0  0  0  0
    0.3750  -35.2440   -3.0650 N   0  0  0  0  0  0
    0.5770  -34.7280   -4.3030 C   0  0  0  0  0  0
   -0.1080  -35.2250   -5.5700 C   0  0  0  0  0  0
    2.8920  -31.7460   -5.1280 N   0  0  0  0  0  0
    3.1880  -31.1510   -6.3620 C   0  0  0  0  0  0
    3.9980  -30.0250   -6.7780 C   0  0  0  0  0  0
    4.7600  -29.2310   -5.8260 N   0  0  0  0  0  0
    6.1110  -28.8520   -5.5610 C   0  0  0  0  0  0
    6.1960  -28.6550   -4.1120 C   0  0  2  0  0  0
    6.5610  -29.9260   -3.4580 C   0  0  0  0  0  0
    7.3630  -29.8680   -2.2480 N   0  0  0  0  0  0
    6.6970  -29.8160   -0.9050 C   0  0  0  0  0  0
    7.5220  -29.7600    0.3100 C   0  0  0  0  0  0
    5.5280  -29.8170   -0.8260 O   0  0  0  0  0  0
    4.8740  -28.2590   -3.6770 C   0  0  0  0  0  0
    3.9310  -28.7700   -4.7010 C   0  0  0  0  0  0
    3.3716  -30.2658  -10.1620 H   0  0  0  0  0  0
    2.5256  -32.9148   -2.4135 H   0  0  0  0  0  0
    1.9169  -34.0975   -0.3105 H   0  0  0  0  0  0
    1.5560  -35.8338   -0.5963 H   0  0  0  0  0  0
    0.2142  -34.6695   -0.3298 H   0  0  0  0  0  0
    0.2366  -34.6318   -6.4299 H   0  0  0  0  0  0
   -1.1976  -35.1181   -5.4638 H   0  0  0  0  0  0
    0.1426  -36.2839   -5.7310 H   0  0  0  0  0  0
    6.7884  -29.6520   -5.8945 H   0  0  0  0  0  0
    6.3446  -27.9240   -6.1034 H   0  0  0  0  0  0
    6.9414  -27.8881   -3.8545 H   0  0  0  0  0  0
    5.6469  -30.4648   -3.1679 H   0  0  0  0  0  0
    7.1445  -30.5436   -4.1567 H   0  0  0  0  0  0
    8.4609  -29.8622   -2.3156 H   0  0  0  0  0  0
    8.5861  -29.7681    0.0313 H   0  0  0  0  0  0
    7.3021  -30.6323    0.9430 H   0  0  0  0  0  0
    7.2953  -28.8377    0.8649 H   0  0  0  0  0  0
    4.6649  -28.7002   -2.6913 H   0  0  0  0  0  0
    4.8246  -27.1624   -3.6058 H   0  0  0  0  0  0
    3.2527  -27.9760   -5.0466 H   0  0  0  0  0  0
    3.3408  -29.6124   -4.3111 H   0  0  0  0  0  0
    1.1706  -33.5902   -7.2668 H   0  0  0  0  0  0
  1  2  1  0  0  0
  2  3  2  0  0  0
  2 17  1  0  0  0
  3  4  1  0  0  0
  3 28  1  0  0  0
  4  5  2  0  0  0
  5  6  1  0  0  0
  5 16  1  0  0  0
  6  7  2  0  0  0
  6 49  1  0  0  0
  7  8  1  0  0  0
  7 15  1  0  0  0
  8  9  2  0  0  0
  8 13  1  0  0  0
  9 10  1  0  0  0
  9 29  1  0  0  0
 10 11  1  0  0  0
 10 12  1  0  0  0
 11 30  1  0  0  0
 11 31  1  0  0  0
 11 32  1  0  0  0
 12 13  2  0  0  0
 13 14  1  0  0  0
 14 33  1  0  0  0
 14 34  1  0  0  0
 14 35  1  0  0  0
 15 16  1  0  0  0
 16 17  2  0  0  0
 17 18  1  0  0  0
 18 19  1  0  0  0
 18 27  1  0  0  0
 19 20  1  0  0  0
 19 36  1  0  0  0
 19 37  1  0  0  0
 20 21  1  0  0  0
 20 26  1  0  0  0
 20 38  1  0  0  0
 21 22  1  0  0  0
 21 39  1  0  0  0
 21 40  1  0  0  0
 22 23  1  0  0  0
 22 41  1  0  0  0
 23 24  1  0  0  0
 23 25  2  0  0  0
 24 42  1  0  0  0
 24 43  1  0  0  0
 24 44  1  0  0  0
 26 27  1  0  0  0
 26 45  1  0  0  0
 26 46  1  0  0  0
 27 47  1  0  0  0
 27 48  1  0  0  0
M  CHG  1   6   1
M  END
> <s_m_source_file>
../4byi_ligand.sdf

> <i_m_source_file_index>
1

> <s_epik_input>
W0NIM11DKD1PKVtOSF1bQ0gyXVtDQEhdKFtDSDJdW0NIMl0xKVtDSDJdTjFjKGMoQ2wpW2NIXW4yKWMoYzIzKVtuSF1jKG4zKS1jNFtjSF1uKFtDSDNdKW5jNFtDSDNd

> <s_epik_cmdline>
J2VwaWtfYXBwJywgJy1pbWFlJywgJ2xpZ2FuZF9wcm8ubWFlJywgJy1vbWFlJywgJ2xpZ2FuZF9wcmVwLm1hZScsICctbXMnLCAnMScsICctcGgnLCAnNycsICctcGh0JywgJzAuNScsICctbnQn

> <r_epik_Ionization_Penalty>
  0.0022

> <r_epik_Ionization_Penalty_Charging>
  0.0000

> <r_epik_Ionization_Penalty_Neutral>
  0.0022

> <r_epik_State_Penalty>
  0.2450

> <r_epik_Charging_Adjusted_Penalty>
0.244966784804121

> <i_epik_Tot_Q>
1

> <i_epik_Tot_abs_Q>
1

$$$$
