4byj_ligand
                    3D
 Schrodinger Suite 2020-3.
 46 49  0  0  1  0            999 V2000
    3.4990  -28.1820   -8.7240 Cl  0  0  0  0  0  0
    2.5280  -29.4920   -8.1160 C   0  0  0  0  0  0
    1.7230  -30.1970   -9.0230 C   0  0  0  0  0  0
    0.9500  -31.2210   -8.6070 N   0  0  0  0  0  0
    0.9270  -31.6120   -7.2800 C   0  0  0  0  0  0
    0.2300  -32.6170   -6.6110 N   0  3  0  0  0  0
    0.5720  -32.5760   -5.2890 C   0  0  0  0  0  0
    0.1060  -33.4360   -4.1820 C   0  0  0  0  0  0
    0.5860  -33.3630   -2.8920 C   0  0  0  0  0  0
   -0.0480  -34.2740   -2.1770 N   0  0  0  0  0  0
    0.1610  -34.5120   -0.8100 C   0  0  0  0  0  0
   -0.9470  -34.9590   -2.9600 N   0  0  0  0  0  0
   -0.8650  -34.4540   -4.2070 C   0  0  0  0  0  0
   -1.6850  -34.9190   -5.3920 C   0  0  0  0  0  0
    1.4670  -31.5690   -5.1250 N   0  0  0  0  0  0
    1.6940  -30.9600   -6.3480 C   0  0  0  0  0  0
    2.5240  -29.8650   -6.7410 C   0  0  0  0  0  0
    3.3200  -29.2400   -5.7170 N   0  0  0  0  0  0
    3.1380  -27.8210   -5.4260 C   0  0  0  0  0  0
    4.5310  -27.4110   -5.0490 C   0  0  1  0  0  0
    4.5620  -26.1990   -4.2930 N   0  0  0  0  0  0
    5.5470  -25.1920   -4.6580 C   0  0  0  0  0  0
    5.6230  -23.8940   -3.9060 C   0  0  0  0  0  0
    6.3210  -25.4030   -5.5860 O   0  0  0  0  0  0
    5.0260  -28.5430   -4.2960 C   0  0  0  0  0  0
    4.5110  -29.7050   -5.0350 C   0  0  0  0  0  0
    1.7222  -29.9141  -10.0757 H   0  0  0  0  0  0
    1.3509  -32.6771   -2.5279 H   0  0  0  0  0  0
    0.9328  -33.8253   -0.4321 H   0  0  0  0  0  0
    0.4919  -35.5510   -0.6651 H   0  0  0  0  0  0
   -0.7778  -34.3463   -0.2612 H   0  0  0  0  0  0
   -1.4106  -34.3318   -6.2808 H   0  0  0  0  0  0
   -2.7543  -34.7787   -5.1756 H   0  0  0  0  0  0
   -1.4857  -35.9843   -5.5804 H   0  0  0  0  0  0
    2.7616  -27.3080   -6.3233 H   0  0  0  0  0  0
    2.4137  -27.7047   -4.6063 H   0  0  0  0  0  0
    5.1826  -27.1630   -5.8998 H   0  0  0  0  0  0
    3.8548  -26.0498   -3.4638 H   0  0  0  0  0  0
    4.8583  -23.8830   -3.1154 H   0  0  0  0  0  0
    5.4463  -23.0580   -4.5988 H   0  0  0  0  0  0
    6.6201  -23.7905   -3.4532 H   0  0  0  0  0  0
    6.1255  -28.5165   -4.2744 H   0  0  0  0  0  0
    4.6379  -28.4974   -3.2678 H   0  0  0  0  0  0
    4.2460  -30.5269   -4.3536 H   0  0  0  0  0  0
    5.2411  -30.0636   -5.7755 H   0  0  0  0  0  0
   -0.4560  -33.2737   -7.1661 H   0  0  0  0  0  0
  1  2  1  0  0  0
  2  3  2  0  0  0
  2 17  1  0  0  0
  3  4  1  0  0  0
  3 27  1  0  0  0
  4  5  2  0  0  0
  5  6  1  0  0  0
  5 16  1  0  0  0
  6  7  2  0  0  0
  6 46  1  0  0  0
  7  8  1  0  0  0
  7 15  1  0  0  0
  8  9  2  0  0  0
  8 13  1  0  0  0
  9 10  1  0  0  0
  9 28  1  0  0  0
 10 11  1  0  0  0
 10 12  1  0  0  0
 11 29  1  0  0  0
 11 30  1  0  0  0
 11 31  1  0  0  0
 12 13  2  0  0  0
 13 14  1  0  0  0
 14 32  1  0  0  0
 14 33  1  0  0  0
 14 34  1  0  0  0
 15 16  1  0  0  0
 16 17  2  0  0  0
 17 18  1  0  0  0
 18 19  1  0  0  0
 18 26  1  0  0  0
 19 20  1  0  0  0
 19 35  1  0  0  0
 19 36  1  0  0  0
 20 21  1  0  0  0
 20 25  1  0  0  0
 20 37  1  0  0  0
 21 22  1  0  0  0
 21 38  1  0  0  0
 22 23  1  0  0  0
 22 24  2  0  0  0
 23 39  1  0  0  0
 23 40  1  0  0  0
 23 41  1  0  0  0
 25 26  1  0  0  0
 25 42  1  0  0  0
 25 43  1  0  0  0
 26 44  1  0  0  0
 26 45  1  0  0  0
M  CHG  1   6   1
M  END
> <s_m_source_file>
../4byj_ligand.sdf

> <i_m_source_file_index>
1

> <s_epik_input>
W0NIM11DKD1PKVtOSF1bQ0BASF0oW0NIMl1bQ0gyXTEpW0NIMl1OMWMoYyhDbClbY0hdbjIpYyhjMjMpW25IXWMobjMpLWM0W2NIXW4oW0NIM10pbmM0W0NIM10=

> <s_epik_cmdline>
J2VwaWtfYXBwJywgJy1pbWFlJywgJ2xpZ2FuZF9wcm8ubWFlJywgJy1vbWFlJywgJ2xpZ2FuZF9wcmVwLm1hZScsICctbXMnLCAnMScsICctcGgnLCAnNycsICctcGh0JywgJzAuNScsICctbnQn

> <r_epik_Ionization_Penalty>
  0.0022

> <r_epik_Ionization_Penalty_Charging>
  0.0000

> <r_epik_Ionization_Penalty_Neutral>
  0.0022

> <r_epik_State_Penalty>
  0.2323

> <r_epik_Charging_Adjusted_Penalty>
0.232296912754945

> <i_epik_Tot_Q>
1

> <i_epik_Tot_abs_Q>
1

$$$$
