4bzn_ligand
                    3D
 Schrodinger Suite 2020-3.
 47 49  0  0  1  0            999 V2000
   20.4840  -34.0910    4.3330 O   0  0  0  0  0  0
   21.6070  -33.6510    4.5630 C   0  0  0  0  0  0
   22.4980  -34.3270    5.2830 N   0  0  0  0  0  0
   22.2780  -35.6190    5.9390 C   0  0  0  0  0  0
   23.2200  -36.7280    5.5050 C   0  0  0  0  0  0
   24.6570  -36.2850    5.7730 C   0  0  0  0  0  0
   23.0920  -37.0340    4.0210 C   0  0  0  0  0  0
   22.9140  -37.9910    6.3290 C   0  0  0  0  0  0
   22.0650  -32.3230    3.9980 C   0  0  0  0  0  0
   21.3270  -31.9170    2.7130 C   0  0  2  0  0  0
   21.6940  -32.7610    1.5210 N   0  0  0  0  0  0
   22.0320  -34.0510    1.4890 C   0  0  0  0  0  0
   21.6450  -30.4280    2.4400 C   0  0  0  0  0  0
   21.2300  -30.0700    1.0810 N   0  0  0  0  0  0
   21.3560  -30.8410   -0.0010 C   0  0  0  0  0  0
   21.2010  -30.4250   -1.1430 O   0  0  0  0  0  0
   21.6940  -32.2660    0.2640 C   0  0  0  0  0  0
   22.0540  -33.2450   -0.6590 C   0  0  0  0  0  0
   22.2430  -34.3400    0.1530 C   0  0  0  0  0  0
   22.6920  -35.6830   -0.3510 C   0  0  0  0  0  0
   22.6970  -36.7910    0.4810 C   0  0  0  0  0  0
   23.3480  -38.1110   -0.4470 S   0  0  0  0  0  0
   23.5760  -37.1440   -1.8740 C   0  0  0  0  0  0
   23.1740  -35.8380   -1.6500 C   0  0  0  0  0  0
   23.4751  -33.8284    5.3640 H   0  0  0  0  0  0
   22.4054  -35.5049    7.0256 H   0  0  0  0  0  0
   21.2579  -35.9703    5.7243 H   0  0  0  0  0  0
   24.8780  -35.3821    5.1849 H   0  0  0  0  0  0
   25.3488  -37.0897    5.4834 H   0  0  0  0  0  0
   24.7790  -36.0642    6.8437 H   0  0  0  0  0  0
   23.3121  -36.1267    3.4392 H   0  0  0  0  0  0
   22.0675  -37.3698    3.8029 H   0  0  0  0  0  0
   23.8038  -37.8268    3.7474 H   0  0  0  0  0  0
   23.0087  -37.7615    7.4006 H   0  0  0  0  0  0
   23.6255  -38.7856    6.0599 H   0  0  0  0  0  0
   21.8891  -38.3287    6.1155 H   0  0  0  0  0  0
   21.8939  -31.5299    4.7408 H   0  0  0  0  0  0
   23.1374  -32.3764    3.7591 H   0  0  0  0  0  0
   20.2505  -32.0978    2.8492 H   0  0  0  0  0  0
   22.1226  -34.7320    2.3352 H   0  0  0  0  0  0
   21.1036  -29.7991    3.1620 H   0  0  0  0  0  0
   22.7268  -30.2588    2.5453 H   0  0  0  0  0  0
   20.7693  -29.0902    0.8867 H   0  0  0  0  0  0
   22.1586  -33.1649   -1.7410 H   0  0  0  0  0  0
   22.3586  -36.8284    1.5165 H   0  0  0  0  0  0
   23.9800  -37.5151   -2.8159 H   0  0  0  0  0  0
   23.2272  -35.0390   -2.3895 H   0  0  0  0  0  0
  1  2  2  0  0  0
  2  3  1  0  0  0
  2  9  1  0  0  0
  3  4  1  0  0  0
  3 25  1  0  0  0
  4  5  1  0  0  0
  4 26  1  0  0  0
  4 27  1  0  0  0
  5  6  1  0  0  0
  5  7  1  0  0  0
  5  8  1  0  0  0
  6 28  1  0  0  0
  6 29  1  0  0  0
  6 30  1  0  0  0
  7 31  1  0  0  0
  7 32  1  0  0  0
  7 33  1  0  0  0
  8 34  1  0  0  0
  8 35  1  0  0  0
  8 36  1  0  0  0
  9 10  1  0  0  0
  9 37  1  0  0  0
  9 38  1  0  0  0
 10 11  1  0  0  0
 10 13  1  0  0  0
 10 39  1  0  0  0
 11 12  1  0  0  0
 11 17  1  0  0  0
 12 19  2  0  0  0
 12 40  1  0  0  0
 13 14  1  0  0  0
 13 41  1  0  0  0
 13 42  1  0  0  0
 14 15  1  0  0  0
 14 43  1  0  0  0
 15 16  2  0  0  0
 15 17  1  0  0  0
 17 18  2  0  0  0
 18 19  1  0  0  0
 18 44  1  0  0  0
 19 20  1  0  0  0
 20 21  2  0  0  0
 20 24  1  0  0  0
 21 22  1  0  0  0
 21 45  1  0  0  0
 22 23  1  0  0  0
 23 24  2  0  0  0
 23 46  1  0  0  0
 24 47  1  0  0  0
M  END
> <s_m_source_file>
../4bzn_ligand.sdf

> <i_m_source_file_index>
1

> <s_epik_input>
W0NIM11DKFtDSDNdKShbQ0gzXSlbQ0gyXVtOSF1DKD1PKVtDSDJdW0NASF0xW0NIMl1bTkhdQyg9TyljKG4xMilbY0hdYyhbY0hdMiktYzNbY0hdc1tjSF1bY0hdMw==

> <s_epik_cmdline>
J2VwaWtfYXBwJywgJy1pbWFlJywgJ2xpZ2FuZF9wcm8ubWFlJywgJy1vbWFlJywgJ2xpZ2FuZF9wcmVwLm1hZScsICctbXMnLCAnMScsICctcGgnLCAnNycsICctcGh0JywgJzAuNScsICctbnQn

> <r_lp_tautomer_probability>
1

> <r_epik_Ionization_Penalty>
  0.0000

> <r_epik_Ionization_Penalty_Charging>
  0.0000

> <r_epik_Ionization_Penalty_Neutral>
  0.0000

> <r_epik_State_Penalty>
 -0.0000

> <r_epik_Charging_Adjusted_Penalty>
0

> <i_epik_Tot_Q>
0

> <i_epik_Tot_abs_Q>
0

$$$$
