4bzr_ligand
                    3D
 Schrodinger Suite 2020-3.
 70 71  0  0  1  0            999 V2000
  -10.5120   -7.5920   15.7370 C   0  0  0  0  0  0
   -9.7960   -7.3710   14.5540 C   0  0  0  0  0  0
   -9.3100   -6.0930   14.2710 C   0  0  0  0  0  0
   -8.6110   -5.8630   13.1260 O   0  0  0  0  0  0
   -9.5410   -5.0350   15.1530 C   0  0  0  0  0  0
  -10.2520   -5.2610   16.3360 C   0  0  0  0  0  0
  -10.7370   -6.5410   16.6310 C   0  0  0  0  0  0
  -11.5300   -6.7850   17.9270 C   0  0  0  0  0  0
  -13.0230   -6.4420   17.7690 C   0  0  1  0  0  0
  -13.9100   -6.5420   19.3610 P   0  0  0  0  0  0
  -15.4730   -6.3730   18.9790 O   0  5  0  0  0  0
  -13.7510   -8.0480   19.9080 O   0  0  0  0  0  0
  -13.4940   -5.4590   20.2660 O   0  0  0  0  0  0
  -13.0810   -5.0740   17.2480 N   0  0  0  0  0  0
  -13.6580   -4.7880   16.0910 C   0  0  0  0  0  0
  -14.2510   -5.6030   15.3940 O   0  0  0  0  0  0
  -13.5110   -3.3540   15.6160 C   0  0  1  0  0  0
  -13.4980   -3.4270   14.1420 N   0  0  0  0  0  0
  -12.5340   -2.8760   13.4160 C   0  0  0  0  0  0
  -11.6200   -2.1960   13.8830 O   0  0  0  0  0  0
  -12.6600   -3.0870   11.9000 C   0  0  2  0  0  0
  -11.5600   -4.0480   11.4190 C   0  0  1  0  0  0
  -11.8710   -5.4840   11.8770 C   0  0  0  0  0  0
  -11.3470   -4.0210    9.9000 C   0  0  0  0  0  0
  -10.0920   -4.8140    9.5220 C   0  0  0  0  0  0
  -12.6150   -1.7610   11.2430 N   0  0  0  0  0  0
  -13.4730   -1.4290   10.2810 C   0  0  0  0  0  0
  -13.3460   -0.0030    9.7330 C   0  0  0  0  0  0
  -14.3160   -2.1990    9.8310 O   0  0  0  0  0  0
  -14.6450   -2.4590   16.1110 C   0  0  0  0  0  0
  -14.3260   -1.0010   15.7700 C   0  0  0  0  0  0
  -13.6780   -0.1840   16.7010 C   0  0  0  0  0  0
  -13.3890    1.1440   16.3710 C   0  0  0  0  0  0
  -13.7480    1.6430   15.1150 C   0  0  0  0  0  0
  -13.4750    2.9380   14.7800 O   0  0  0  0  0  0
  -14.3880    0.8260   14.1890 C   0  0  0  0  0  0
  -14.6790   -0.4960   14.5170 C   0  0  0  0  0  0
  -10.8954   -8.5873   15.9617 H   0  0  0  0  0  0
   -9.6192   -8.1915   13.8585 H   0  0  0  0  0  0
   -8.4217   -6.6870   12.4223 H   0  0  0  0  0  0
   -9.1687   -4.0373   14.9203 H   0  0  0  0  0  0
  -10.4289   -4.4391   17.0297 H   0  0  0  0  0  0
  -11.4512   -7.8448   18.2110 H   0  0  0  0  0  0
  -11.1189   -6.1581   18.7320 H   0  0  0  0  0  0
  -13.3922   -7.0651   16.9411 H   0  0  0  0  0  0
  -14.0462   -8.8973   19.2744 H   0  0  0  0  0  0
  -12.6369   -4.2475   17.8222 H   0  0  0  0  0  0
  -12.5783   -2.9038   15.9867 H   0  0  0  0  0  0
  -14.3056   -3.9513   13.6101 H   0  0  0  0  0  0
  -13.6271   -3.5253   11.6124 H   0  0  0  0  0  0
  -10.6217   -3.6971   11.8733 H   0  0  0  0  0  0
  -12.0226   -5.4966   12.9664 H   0  0  0  0  0  0
  -11.0293   -6.1424   11.6162 H   0  0  0  0  0  0
  -12.7834   -5.8392   11.3757 H   0  0  0  0  0  0
  -12.2180   -4.4693    9.3996 H   0  0  0  0  0  0
  -11.2272   -2.9801    9.5650 H   0  0  0  0  0  0
   -9.9543   -4.7844    8.4310 H   0  0  0  0  0  0
  -10.2057   -5.8581    9.8491 H   0  0  0  0  0  0
   -9.2149   -4.3689   10.0145 H   0  0  0  0  0  0
  -11.8592   -1.0219   11.5471 H   0  0  0  0  0  0
  -12.5386    0.5231   10.2634 H   0  0  0  0  0  0
  -14.2943    0.5336    9.8839 H   0  0  0  0  0  0
  -13.1140   -0.0425    8.6585 H   0  0  0  0  0  0
  -15.5851   -2.7540   15.6218 H   0  0  0  0  0  0
  -14.7489   -2.5677   17.2007 H   0  0  0  0  0  0
  -13.3997   -0.5794   17.6779 H   0  0  0  0  0  0
  -12.8851    1.7886   17.0912 H   0  0  0  0  0  0
  -12.9694    3.5976   15.5006 H   0  0  0  0  0  0
  -14.6610    1.2191   13.2097 H   0  0  0  0  0  0
  -15.1832   -1.1375   13.7943 H   0  0  0  0  0  0
  1  2  2  0  0  0
  1  7  1  0  0  0
  1 38  1  0  0  0
  2  3  1  0  0  0
  2 39  1  0  0  0
  3  4  1  0  0  0
  3  5  2  0  0  0
  4 40  1  0  0  0
  5  6  1  0  0  0
  5 41  1  0  0  0
  6  7  2  0  0  0
  6 42  1  0  0  0
  7  8  1  0  0  0
  8  9  1  0  0  0
  8 43  1  0  0  0
  8 44  1  0  0  0
  9 10  1  0  0  0
  9 14  1  0  0  0
  9 45  1  0  0  0
 10 11  1  0  0  0
 10 12  1  0  0  0
 10 13  2  0  0  0
 12 46  1  0  0  0
 14 15  1  0  0  0
 14 47  1  0  0  0
 15 16  2  0  0  0
 15 17  1  0  0  0
 17 18  1  0  0  0
 17 30  1  0  0  0
 17 48  1  0  0  0
 18 19  1  0  0  0
 18 49  1  0  0  0
 19 20  2  0  0  0
 19 21  1  0  0  0
 21 22  1  0  0  0
 21 26  1  0  0  0
 21 50  1  0  0  0
 22 23  1  0  0  0
 22 24  1  0  0  0
 22 51  1  0  0  0
 23 52  1  0  0  0
 23 53  1  0  0  0
 23 54  1  0  0  0
 24 25  1  0  0  0
 24 55  1  0  0  0
 24 56  1  0  0  0
 25 57  1  0  0  0
 25 58  1  0  0  0
 25 59  1  0  0  0
 26 27  1  0  0  0
 26 60  1  0  0  0
 27 28  1  0  0  0
 27 29  2  0  0  0
 28 61  1  0  0  0
 28 62  1  0  0  0
 28 63  1  0  0  0
 30 31  1  0  0  0
 30 64  1  0  0  0
 30 65  1  0  0  0
 31 32  2  0  0  0
 31 37  1  0  0  0
 32 33  1  0  0  0
 32 66  1  0  0  0
 33 34  2  0  0  0
 33 67  1  0  0  0
 34 35  1  0  0  0
 34 36  1  0  0  0
 35 68  1  0  0  0
 36 37  2  0  0  0
 36 69  1  0  0  0
 37 70  1  0  0  0
M  CHG  1  11  -1
M  END
> <s_m_source_file>
../4bzr_ligand.sdf

> <i_m_source_file_index>
1

> <s_epik_input>
W09IXWMxW2NIXVtjSF1jKFtjSF1bY0hdMSlbQ0gyXVtDQEBIXShQKD1PKShbT0hdKVtPSF0pW05IXUMoPU8pW0NAQEhdKFtOSF1DKD1PKVtDQEhdKFtDQEBIXShbQ0gzXSlbQ0gyXVtDSDNdKVtOSF1DKD1PKVtDSDNdKVtDSDJdYzJbY0hdW2NIXWMoW09IXSlbY0hdW2NIXTI=

> <s_epik_cmdline>
J2VwaWtfYXBwJywgJy1pbWFlJywgJ2xpZ2FuZF9wcm8ubWFlJywgJy1vbWFlJywgJ2xpZ2FuZF9wcmVwLm1hZScsICctbXMnLCAnMScsICctcGgnLCAnNycsICctcGh0JywgJzAuNScsICctbnQn

> <r_lp_tautomer_probability>
0.99999999999473

> <r_epik_Ionization_Penalty>
  0.3478

> <r_epik_Ionization_Penalty_Charging>
  0.0000

> <r_epik_Ionization_Penalty_Neutral>
  0.3478

> <r_epik_State_Penalty>
  0.3420

> <r_epik_Charging_Adjusted_Penalty>
0.342012047687441

> <i_epik_Tot_Q>
-1

> <i_epik_Tot_abs_Q>
1

$$$$
