4bzs_ligand
                    3D
 Schrodinger Suite 2020-3.
 70 71  0  0  1  0            999 V2000
   32.0990   13.6600    9.7450 C   0  0  0  0  0  0
   32.9940   12.8810   10.4840 C   0  0  0  0  0  0
   32.7490   11.5230   10.6820 C   0  0  0  0  0  0
   33.6160   10.7570   11.4060 O   0  0  0  0  0  0
   31.6050   10.9460   10.1380 C   0  0  0  0  0  0
   30.7170   11.7220    9.3960 C   0  0  0  0  0  0
   30.9500   13.0810    9.1950 C   0  0  0  0  0  0
   30.0400   13.8490    8.4440 C   0  0  0  0  0  0
   28.9070   14.3850    9.3400 C   0  0  1  0  0  0
   27.6140   15.2730    8.3600 P   0  0  0  0  0  0
   28.3740   16.0580    7.3930 O   0  0  0  0  0  0
   26.7750   14.2140    7.8020 O   0  5  0  0  0  0
   26.9470   16.0890    9.3870 O   0  0  0  0  0  0
   28.2780   13.2550   10.0410 N   0  0  0  0  0  0
   28.1480   13.2450   11.3760 C   0  0  0  0  0  0
   28.5550   14.1460   12.1090 O   0  0  0  0  0  0
   27.4880   12.0060   11.9870 C   0  0  1  0  0  0
   28.2420   11.7820   13.2280 N   0  0  0  0  0  0
   28.9050   10.6430   13.4860 C   0  0  0  0  0  0
   28.9140    9.6590   12.7490 O   0  0  0  0  0  0
   29.7030   10.6580   14.7960 C   0  0  2  0  0  0
   31.2040   10.6380   14.4660 C   0  0  1  0  0  0
   31.6480   12.0700   14.1400 C   0  0  0  0  0  0
   31.9960   10.1030   15.6570 C   0  0  0  0  0  0
   33.4720   10.1520   15.2330 C   0  0  0  0  0  0
   29.3400    9.5060   15.6280 N   0  0  0  0  0  0
   28.8700    9.6660   16.8720 C   0  0  0  0  0  0
   28.5630    8.3680   17.6120 C   0  0  0  0  0  0
   28.6860   10.7560   17.4120 O   0  0  0  0  0  0
   26.0230   12.2930   12.2530 C   0  0  0  0  0  0
   25.3820   11.0540   12.4620 C   0  0  0  0  0  0
   24.5210   10.5160   11.5010 C   0  0  0  0  0  0
   23.8820    9.2950   11.7180 C   0  0  0  0  0  0
   24.0900    8.5980   12.9050 C   0  0  0  0  0  0
   23.4760    7.4050   13.1290 O   0  0  0  0  0  0
   24.9350    9.1280   13.8700 C   0  0  0  0  0  0
   25.5710   10.3460   13.6500 C   0  0  0  0  0  0
   32.2967   14.7216    9.5968 H   0  0  0  0  0  0
   33.8883   13.3379   10.9077 H   0  0  0  0  0  0
   34.5211   11.2093   11.8375 H   0  0  0  0  0  0
   31.4037    9.8860   10.2927 H   0  0  0  0  0  0
   29.8280   11.2597    8.9669 H   0  0  0  0  0  0
   30.5667   14.7014    7.9902 H   0  0  0  0  0  0
   29.6006   13.2255    7.6515 H   0  0  0  0  0  0
   29.4444   14.9149   10.1403 H   0  0  0  0  0  0
   27.4895   16.9138    9.8721 H   0  0  0  0  0  0
   27.9021   12.3936    9.4694 H   0  0  0  0  0  0
   27.5235   11.1003   11.3637 H   0  0  0  0  0  0
   28.2811   12.5674   13.9972 H   0  0  0  0  0  0
   29.4495   11.5429   15.3983 H   0  0  0  0  0  0
   31.3946    9.9785   13.6065 H   0  0  0  0  0  0
   31.0721   12.4459   13.2815 H   0  0  0  0  0  0
   32.7198   12.0742   13.8927 H   0  0  0  0  0  0
   31.4703   12.7165   15.0121 H   0  0  0  0  0  0
   31.8115   10.7389   16.5354 H   0  0  0  0  0  0
   31.6775    9.0732   15.8764 H   0  0  0  0  0  0
   34.1017    9.7768   16.0532 H   0  0  0  0  0  0
   33.7525   11.1900   15.0007 H   0  0  0  0  0  0
   33.6184    9.5243   14.3416 H   0  0  0  0  0  0
   29.4517    8.4854   15.2331 H   0  0  0  0  0  0
   28.7937    7.5116   16.9613 H   0  0  0  0  0  0
   27.4976    8.3447   17.8849 H   0  0  0  0  0  0
   29.1763    8.3117   18.5234 H   0  0  0  0  0  0
   25.9303   12.9301   13.1449 H   0  0  0  0  0  0
   25.5874   12.8107   11.3857 H   0  0  0  0  0  0
   24.3468   11.0570   10.5709 H   0  0  0  0  0  0
   23.2183    8.8858   10.9563 H   0  0  0  0  0  0
   22.8052    6.9802   12.3677 H   0  0  0  0  0  0
   25.1009    8.5888   14.8026 H   0  0  0  0  0  0
   26.2278   10.7540   14.4183 H   0  0  0  0  0  0
  1  2  2  0  0  0
  1  7  1  0  0  0
  1 38  1  0  0  0
  2  3  1  0  0  0
  2 39  1  0  0  0
  3  4  1  0  0  0
  3  5  2  0  0  0
  4 40  1  0  0  0
  5  6  1  0  0  0
  5 41  1  0  0  0
  6  7  2  0  0  0
  6 42  1  0  0  0
  7  8  1  0  0  0
  8  9  1  0  0  0
  8 43  1  0  0  0
  8 44  1  0  0  0
  9 10  1  0  0  0
  9 14  1  0  0  0
  9 45  1  0  0  0
 10 11  2  0  0  0
 10 12  1  0  0  0
 10 13  1  0  0  0
 13 46  1  0  0  0
 14 15  1  0  0  0
 14 47  1  0  0  0
 15 16  2  0  0  0
 15 17  1  0  0  0
 17 18  1  0  0  0
 17 30  1  0  0  0
 17 48  1  0  0  0
 18 19  1  0  0  0
 18 49  1  0  0  0
 19 20  2  0  0  0
 19 21  1  0  0  0
 21 22  1  0  0  0
 21 26  1  0  0  0
 21 50  1  0  0  0
 22 23  1  0  0  0
 22 24  1  0  0  0
 22 51  1  0  0  0
 23 52  1  0  0  0
 23 53  1  0  0  0
 23 54  1  0  0  0
 24 25  1  0  0  0
 24 55  1  0  0  0
 24 56  1  0  0  0
 25 57  1  0  0  0
 25 58  1  0  0  0
 25 59  1  0  0  0
 26 27  1  0  0  0
 26 60  1  0  0  0
 27 28  1  0  0  0
 27 29  2  0  0  0
 28 61  1  0  0  0
 28 62  1  0  0  0
 28 63  1  0  0  0
 30 31  1  0  0  0
 30 64  1  0  0  0
 30 65  1  0  0  0
 31 32  2  0  0  0
 31 37  1  0  0  0
 32 33  1  0  0  0
 32 66  1  0  0  0
 33 34  2  0  0  0
 33 67  1  0  0  0
 34 35  1  0  0  0
 34 36  1  0  0  0
 35 68  1  0  0  0
 36 37  2  0  0  0
 36 69  1  0  0  0
 37 70  1  0  0  0
M  CHG  1  12  -1
M  END
> <s_m_source_file>
../4bzs_ligand.sdf

> <i_m_source_file_index>
1

> <s_epik_input>
W09IXWMxW2NIXVtjSF1jKFtjSF1bY0hdMSlbQ0gyXVtDQEBIXShQKD1PKShbT0hdKVtPSF0pW05IXUMoPU8pW0NAQEhdKFtOSF1DKD1PKVtDQEhdKFtDQEBIXShbQ0gzXSlbQ0gyXVtDSDNdKVtOSF1DKD1PKVtDSDNdKVtDSDJdYzJbY0hdW2NIXWMoW09IXSlbY0hdW2NIXTI=

> <s_epik_cmdline>
J2VwaWtfYXBwJywgJy1pbWFlJywgJ2xpZ2FuZF9wcm8ubWFlJywgJy1vbWFlJywgJ2xpZ2FuZF9wcmVwLm1hZScsICctbXMnLCAnMScsICctcGgnLCAnNycsICctcGh0JywgJzAuNScsICctbnQn

> <r_lp_tautomer_probability>
0.99999999999473

> <r_epik_Ionization_Penalty>
  0.3478

> <r_epik_Ionization_Penalty_Charging>
  0.0000

> <r_epik_Ionization_Penalty_Neutral>
  0.3478

> <r_epik_State_Penalty>
  0.3420

> <r_epik_Charging_Adjusted_Penalty>
0.342012047687441

> <i_epik_Tot_Q>
-1

> <i_epik_Tot_abs_Q>
1

$$$$
