4c0r_ligand
                    3D
 Schrodinger Suite 2020-3.
 58 57  0  0  1  0            999 V2000
    8.7040   -8.8810   21.4750 C   0  0  0  0  0  0
    7.4860   -9.4780   22.0390 N   0  3  0  0  0  0
    6.3160   -8.6860   21.9210 C   0  0  3  0  0  0
    5.5220   -8.7470   20.6640 C   0  0  0  0  0  0
    4.7740   -7.8020   20.3360 O   0  0  0  0  0  0
    5.8230   -7.7570   22.9630 C   0  0  0  0  0  0
    6.7310   -7.8610   24.4900 S   0  0  0  0  0  0
    5.6550   -9.9350   19.8470 N   0  0  0  0  0  0
    4.9680  -10.0050   18.5580 C   0  0  0  0  0  0
    6.0900   -9.7960   17.5440 C   0  0  0  0  0  0
    6.0980  -10.4240   16.4390 O   0  5  0  0  0  0
    7.0540   -9.0070   17.7660 O   0  0  0  0  0  0
    5.6520   -7.4850   27.5260 N   0  0  0  0  0  0
    5.1540   -8.8330   27.6640 C   0  0  0  0  0  0
    6.1450   -9.6800   28.3830 C   0  0  0  0  0  0
    7.0340   -9.1690   29.1310 O   0  5  0  0  0  0
    6.0170  -10.9300   28.2620 O   0  0  0  0  0  0
    4.8740   -6.5430   26.7840 C   0  0  0  0  0  0
    3.7870   -6.8780   26.3160 O   0  0  0  0  0  0
    5.5330   -5.2520   26.5910 C   0  0  1  0  0  0
    6.3160   -4.7230   27.6300 N   0  0  0  0  0  0
    5.9860   -5.0080   25.1890 C   0  0  0  0  0  0
    7.4660   -6.0060   24.8680 S   0  0  0  0  0  0
    7.5140   -4.0580   32.1500 C   0  0  1  0  0  0
    8.8260   -3.3980   31.7570 C   0  0  0  0  0  0
    9.7590   -4.1250   31.3190 O   0  5  0  0  0  0
    8.9760   -2.1560   31.8490 O   0  0  0  0  0  0
    6.6980   -3.0400   32.8380 N   0  3  0  0  0  0
    6.8200   -4.6270   30.9660 C   0  0  0  0  0  0
    6.8710   -3.6120   29.8020 C   0  0  0  0  0  0
    5.8570   -4.0720   28.7760 C   0  0  0  0  0  0
    4.6320   -3.8970   28.8480 O   0  0  0  0  0  0
    9.5496   -9.5701   21.6167 H   0  0  0  0  0  0
    8.9165   -7.9300   21.9854 H   0  0  0  0  0  0
    8.5579   -8.6958   20.4006 H   0  0  0  0  0  0
    7.2735  -10.4290   21.5286 H   0  0  0  0  0  0
    7.6320   -9.6632   23.1134 H   0  0  0  0  0  0
    7.0734   -9.1780   22.5489 H   0  0  0  0  0  0
    5.9051   -6.7219   22.5999 H   0  0  0  0  0  0
    4.7706   -7.9841   23.1885 H   0  0  0  0  0  0
    6.2679  -10.7815   20.1902 H   0  0  0  0  0  0
    4.4861  -10.9882   18.4523 H   0  0  0  0  0  0
    4.2044   -9.2149   18.5061 H   0  0  0  0  0  0
    6.6102   -7.2028   27.9867 H   0  0  0  0  0  0
    4.2131   -8.8197   28.2337 H   0  0  0  0  0  0
    4.9729   -9.2609   26.6669 H   0  0  0  0  0  0
    4.7335   -4.5342   26.8266 H   0  0  0  0  0  0
    7.4123   -4.8022   27.5876 H   0  0  0  0  0  0
    5.1860   -5.2938   24.4902 H   0  0  0  0  0  0
    6.2216   -3.9413   25.0602 H   0  0  0  0  0  0
    7.6658   -4.9081   32.8314 H   0  0  0  0  0  0
    7.2524   -2.6499   33.7043 H   0  0  0  0  0  0
    5.7563   -3.4945   33.1796 H   0  0  0  0  0  0
    6.4768   -2.2165   32.1431 H   0  0  0  0  0  0
    7.3185   -5.5592   30.6617 H   0  0  0  0  0  0
    5.7714   -4.8387   31.2222 H   0  0  0  0  0  0
    6.6187   -2.6096   30.1783 H   0  0  0  0  0  0
    7.8833   -3.5981   29.3717 H   0  0  0  0  0  0
  1  2  1  0  0  0
  1 33  1  0  0  0
  1 34  1  0  0  0
  1 35  1  0  0  0
  2  3  1  0  0  0
  2 36  1  0  0  0
  2 37  1  0  0  0
  3  4  1  0  0  0
  3  6  1  0  0  0
  3 38  1  0  0  0
  4  5  2  0  0  0
  4  8  1  0  0  0
  6  7  1  0  0  0
  6 39  1  0  0  0
  6 40  1  0  0  0
  7 23  1  0  0  0
  8  9  1  0  0  0
  8 41  1  0  0  0
  9 10  1  0  0  0
  9 42  1  0  0  0
  9 43  1  0  0  0
 10 11  1  0  0  0
 10 12  2  0  0  0
 13 14  1  0  0  0
 13 18  1  0  0  0
 13 44  1  0  0  0
 14 15  1  0  0  0
 14 45  1  0  0  0
 14 46  1  0  0  0
 15 16  1  0  0  0
 15 17  2  0  0  0
 18 19  2  0  0  0
 18 20  1  0  0  0
 20 21  1  0  0  0
 20 22  1  0  0  0
 20 47  1  0  0  0
 21 31  1  0  0  0
 21 48  1  0  0  0
 22 23  1  0  0  0
 22 49  1  0  0  0
 22 50  1  0  0  0
 24 25  1  0  0  0
 24 28  1  0  0  0
 24 29  1  0  0  0
 24 51  1  0  0  0
 25 26  1  0  0  0
 25 27  2  0  0  0
 28 52  1  0  0  0
 28 53  1  0  0  0
 28 54  1  0  0  0
 29 30  1  0  0  0
 29 55  1  0  0  0
 29 56  1  0  0  0
 30 31  1  0  0  0
 30 57  1  0  0  0
 30 58  1  0  0  0
 31 32  2  0  0  0
M  CHG  5   2   1  11  -1  16  -1  26  -1  28   1
M  END
> <s_m_source_file>
../4c0r_ligand.sdf

> <i_m_source_file_index>
1

> <s_epik_input>
W09IXUMoPU8pW0NIMl1bTkhdQyg9TylbQ0hdKFtOSDIrXVtDSDNdKVtDSDJdU1NbQ0gyXVtDQEBIXShDKD1PKVtOSF1bQ0gyXUMoPU8pW09IXSlbTkhdQyg9TylbQ0gyXVtDSDJdW0NASF0oW05IMytdKUMoPU8pW09IXQ==

> <s_epik_cmdline>
J2VwaWtfYXBwJywgJy1pbWFlJywgJ2xpZ2FuZF9wcm8ubWFlJywgJy1vbWFlJywgJ2xpZ2FuZF9wcmVwLm1hZScsICctbXMnLCAnMScsICctcGgnLCAnNycsICctcGh0JywgJzAuNScsICctbnQn

> <r_epik_Ionization_Penalty>
  0.3052

> <r_epik_Ionization_Penalty_Charging>
  0.3052

> <r_epik_Ionization_Penalty_Neutral>
  0.0000

> <r_epik_State_Penalty>
  0.2961

> <r_epik_Charging_Adjusted_Penalty>
0.601249904422728

> <i_epik_Tot_Q>
-1

> <i_epik_Tot_abs_Q>
5

$$$$
