4c1c_ligand
                    3D
 Schrodinger Suite 2020-3.
 28 28  0  0  1  0            999 V2000
   11.0160   10.7790   42.4500 O   0  5  0  0  0  0
   10.8000   11.7100   41.6010 C   0  0  0  0  0  0
   10.6250   11.4450   40.4150 O   0  0  0  0  0  0
   10.7640   13.1150   42.0260 C   0  0  1  0  0  0
    9.3700   13.4730   42.4670 C   0  0  0  0  0  0
    9.3930   13.5990   43.9450 C   0  0  0  0  0  0
   10.8230   13.4710   44.3720 C   0  0  0  0  0  0
   11.6000   13.2790   43.1750 N   0  0  0  0  0  0
   13.0410   13.2270   43.1310 C   0  0  0  0  0  0
   13.6020   13.0540   42.0940 O   0  0  0  0  0  0
   13.8330   13.3490   44.3950 C   0  0  2  0  0  0
   14.4860   14.7100   44.5330 C   0  0  0  0  0  0
   14.8900   12.2780   44.4120 C   0  0  0  0  0  0
   14.1750   10.6200   44.2060 S   0  0  0  0  0  0
   11.1339   13.7407   41.2004 H   0  0  0  0  0  0
    9.0718   14.4248   42.0032 H   0  0  0  0  0  0
    8.6727   12.6803   42.1581 H   0  0  0  0  0  0
    8.9863   14.5788   44.2358 H   0  0  0  0  0  0
    8.7809   12.8010   44.3906 H   0  0  0  0  0  0
   11.1328   14.3875   44.8954 H   0  0  0  0  0  0
   10.9282   12.6095   45.0478 H   0  0  0  0  0  0
   13.1363   13.2215   45.2366 H   0  0  0  0  0  0
   13.7117   15.4912   44.5203 H   0  0  0  0  0  0
   15.1815   14.8695   43.6959 H   0  0  0  0  0  0
   15.0387   14.7569   45.4829 H   0  0  0  0  0  0
   15.6011   12.4516   43.5909 H   0  0  0  0  0  0
   15.4251   12.3062   45.3726 H   0  0  0  0  0  0
   14.8294    9.7359   44.1985 H   0  0  0  0  0  0
  1  2  1  0  0  0
  2  3  2  0  0  0
  2  4  1  0  0  0
  4  5  1  0  0  0
  4  8  1  0  0  0
  4 15  1  0  0  0
  5  6  1  0  0  0
  5 16  1  0  0  0
  5 17  1  0  0  0
  6  7  1  0  0  0
  6 18  1  0  0  0
  6 19  1  0  0  0
  7  8  1  0  0  0
  7 20  1  0  0  0
  7 21  1  0  0  0
  8  9  1  0  0  0
  9 10  2  0  0  0
  9 11  1  0  0  0
 11 12  1  0  0  0
 11 13  1  0  0  0
 11 22  1  0  0  0
 12 23  1  0  0  0
 12 24  1  0  0  0
 12 25  1  0  0  0
 13 14  1  0  0  0
 13 26  1  0  0  0
 13 27  1  0  0  0
 14 28  1  0  0  0
M  CHG  1   1  -1
M  END
> <s_m_source_file>
../4c1c_ligand.sdf

> <i_m_source_file_index>
1

> <s_epik_input>
W09IXUMoPU8pW0NASF0xW0NIMl1bQ0gyXVtDSDJdTjFDKD1PKVtDQEhdKFtDSDNdKVtDSDJdW1NIXQ==

> <s_epik_cmdline>
J2VwaWtfYXBwJywgJy1pbWFlJywgJ2xpZ2FuZF9wcm8ubWFlJywgJy1vbWFlJywgJ2xpZ2FuZF9wcmVwLm1hZScsICctbXMnLCAnMScsICctcGgnLCAnNycsICctcGh0JywgJzAuNScsICctbnQn

> <r_lp_tautomer_probability>
1

> <r_epik_Ionization_Penalty>
  0.0024

> <r_epik_Ionization_Penalty_Charging>
  0.0004

> <r_epik_Ionization_Penalty_Neutral>
  0.0020

> <r_epik_State_Penalty>
 -0.0000

> <r_epik_Charging_Adjusted_Penalty>
0.000441835624439187

> <i_epik_Tot_Q>
-1

> <i_epik_Tot_abs_Q>
1

$$$$
