4c1d_ligand
                    3D
 Schrodinger Suite 2020-3.
 28 28  0  0  1  0            999 V2000
  -29.3350   10.0540   58.8960 O   0  0  0  0  0  0
  -28.3530    9.8690   59.5550 C   0  0  0  0  0  0
  -27.1490   10.7640   59.4510 C   0  0  1  0  0  0
  -27.0670   11.3980   58.0890 C   0  0  0  0  0  0
  -26.5970   10.2600   56.7780 S   0  0  0  0  0  0
  -27.3770   11.8710   60.4730 C   0  0  0  0  0  0
  -28.3810    8.7960   60.4680 N   0  0  0  0  0  0
  -29.5230    8.0090   60.5840 C   0  0  2  0  0  0
  -30.7700    8.8060   60.9490 C   0  0  0  0  0  0
  -31.9090    8.4170   60.5560 O   0  5  0  0  0  0
  -30.6910    9.8490   61.6530 O   0  0  0  0  0  0
  -27.3210    8.4920   61.2810 C   0  0  0  0  0  0
  -27.9020    7.6540   62.3890 C   0  0  0  0  0  0
  -29.1440    7.0110   61.7020 C   0  0  0  0  0  0
  -26.2270   10.1862   59.6122 H   0  0  0  0  0  0
  -28.0482   11.8157   57.8193 H   0  0  0  0  0  0
  -26.3174   12.2029   58.1037 H   0  0  0  0  0  0
  -26.5075   10.6205   55.7426 H   0  0  0  0  0  0
  -27.4408   11.4329   61.4800 H   0  0  0  0  0  0
  -28.3154   12.3962   60.2414 H   0  0  0  0  0  0
  -26.5394   12.5830   60.4353 H   0  0  0  0  0  0
  -29.7223    7.5828   59.5897 H   0  0  0  0  0  0
  -26.5659    7.9356   60.7063 H   0  0  0  0  0  0
  -26.8766    9.4213   61.6670 H   0  0  0  0  0  0
  -27.1594    6.9106   62.7145 H   0  0  0  0  0  0
  -28.1687    8.3016   63.2373 H   0  0  0  0  0  0
  -29.9888    6.9020   62.3980 H   0  0  0  0  0  0
  -28.9077    6.0335   61.2563 H   0  0  0  0  0  0
  1  2  2  0  0  0
  2  3  1  0  0  0
  2  7  1  0  0  0
  3  4  1  0  0  0
  3  6  1  0  0  0
  3 15  1  0  0  0
  4  5  1  0  0  0
  4 16  1  0  0  0
  4 17  1  0  0  0
  5 18  1  0  0  0
  6 19  1  0  0  0
  6 20  1  0  0  0
  6 21  1  0  0  0
  7  8  1  0  0  0
  7 12  1  0  0  0
  8  9  1  0  0  0
  8 14  1  0  0  0
  8 22  1  0  0  0
  9 10  1  0  0  0
  9 11  2  0  0  0
 12 13  1  0  0  0
 12 23  1  0  0  0
 12 24  1  0  0  0
 13 14  1  0  0  0
 13 25  1  0  0  0
 13 26  1  0  0  0
 14 27  1  0  0  0
 14 28  1  0  0  0
M  CHG  1  10  -1
M  END
> <s_m_source_file>
../4c1d_ligand.sdf

> <i_m_source_file_index>
1

> <s_epik_input>
W1NIXVtDSDJdW0NAQEhdKFtDSDNdKUMoPU8pTjFbQ0BIXShDKD1PKVtPSF0pW0NIMl1bQ0gyXVtDSDJdMQ==

> <s_epik_cmdline>
J2VwaWtfYXBwJywgJy1pbWFlJywgJ2xpZ2FuZF9wcm8ubWFlJywgJy1vbWFlJywgJ2xpZ2FuZF9wcmVwLm1hZScsICctbXMnLCAnMScsICctcGgnLCAnNycsICctcGh0JywgJzAuNScsICctbnQn

> <r_lp_tautomer_probability>
1

> <r_epik_Ionization_Penalty>
  0.0024

> <r_epik_Ionization_Penalty_Charging>
  0.0004

> <r_epik_Ionization_Penalty_Neutral>
  0.0020

> <r_epik_State_Penalty>
 -0.0000

> <r_epik_Charging_Adjusted_Penalty>
0.000441835624439187

> <i_epik_Tot_Q>
-1

> <i_epik_Tot_abs_Q>
1

$$$$
