4c1e_ligand
                    3D
 Schrodinger Suite 2020-3.
 28 28  0  0  1  0            999 V2000
   75.7530    5.6130   56.4370 O   0  5  0  0  0  0
   75.2250    4.9570   57.3520 C   0  0  0  0  0  0
   74.6140    3.9540   57.0960 O   0  0  0  0  0  0
   75.2870    5.4580   58.7130 C   0  0  1  0  0  0
   76.0720    4.5180   59.5830 C   0  0  0  0  0  0
   77.4600    4.9910   59.5200 C   0  0  0  0  0  0
   77.3740    6.4510   59.1960 C   0  0  0  0  0  0
   76.0350    6.6750   58.7390 N   0  0  0  0  0  0
   75.5320    7.9470   58.3570 C   0  0  0  0  0  0
   74.4300    8.0340   57.9990 O   0  0  0  0  0  0
   76.4800    9.0930   58.4050 C   0  0  2  0  0  0
   76.1050   10.0520   59.5210 C   0  0  0  0  0  0
   76.4060    9.8270   57.0910 C   0  0  0  0  0  0
   76.9360    8.8690   55.6150 S   0  0  0  0  0  0
   74.2490    5.6161   59.0411 H   0  0  0  0  0  0
   75.6810    4.5564   60.6104 H   0  0  0  0  0  0
   75.9789    3.4936   59.1933 H   0  0  0  0  0  0
   77.9487    4.8241   60.4913 H   0  0  0  0  0  0
   78.0007    4.4381   58.7377 H   0  0  0  0  0  0
   77.5897    7.0404   60.0994 H   0  0  0  0  0  0
   78.1075    6.6969   58.4140 H   0  0  0  0  0  0
   77.4908    8.6972   58.5830 H   0  0  0  0  0  0
   76.1551    9.5281   60.4869 H   0  0  0  0  0  0
   75.0824   10.4228   59.3576 H   0  0  0  0  0  0
   76.8059   10.8997   59.5269 H   0  0  0  0  0  0
   75.3676   10.1367   56.9020 H   0  0  0  0  0  0
   77.0523   10.7162   57.1308 H   0  0  0  0  0  0
   76.9110    9.3349   54.6189 H   0  0  0  0  0  0
  1  2  1  0  0  0
  2  3  2  0  0  0
  2  4  1  0  0  0
  4  5  1  0  0  0
  4  8  1  0  0  0
  4 15  1  0  0  0
  5  6  1  0  0  0
  5 16  1  0  0  0
  5 17  1  0  0  0
  6  7  1  0  0  0
  6 18  1  0  0  0
  6 19  1  0  0  0
  7  8  1  0  0  0
  7 20  1  0  0  0
  7 21  1  0  0  0
  8  9  1  0  0  0
  9 10  2  0  0  0
  9 11  1  0  0  0
 11 12  1  0  0  0
 11 13  1  0  0  0
 11 22  1  0  0  0
 12 23  1  0  0  0
 12 24  1  0  0  0
 12 25  1  0  0  0
 13 14  1  0  0  0
 13 26  1  0  0  0
 13 27  1  0  0  0
 14 28  1  0  0  0
M  CHG  1   1  -1
M  END
> <s_m_source_file>
../4c1e_ligand.sdf

> <i_m_source_file_index>
1

> <s_epik_input>
W09IXUMoPU8pW0NASF0xW0NIMl1bQ0gyXVtDSDJdTjFDKD1PKVtDQEhdKFtDSDNdKVtDSDJdW1NIXQ==

> <s_epik_cmdline>
J2VwaWtfYXBwJywgJy1pbWFlJywgJ2xpZ2FuZF9wcm8ubWFlJywgJy1vbWFlJywgJ2xpZ2FuZF9wcmVwLm1hZScsICctbXMnLCAnMScsICctcGgnLCAnNycsICctcGh0JywgJzAuNScsICctbnQn

> <r_lp_tautomer_probability>
1

> <r_epik_Ionization_Penalty>
  0.0024

> <r_epik_Ionization_Penalty_Charging>
  0.0004

> <r_epik_Ionization_Penalty_Neutral>
  0.0020

> <r_epik_State_Penalty>
 -0.0000

> <r_epik_Charging_Adjusted_Penalty>
0.000441835624439187

> <i_epik_Tot_Q>
-1

> <i_epik_Tot_abs_Q>
1

$$$$
