4c1f_ligand
                    3D
 Schrodinger Suite 2020-3.
 28 28  0  0  1  0            999 V2000
   16.9480   14.4440   10.1350 O   0  0  0  0  0  0
   16.7600   13.7620    9.1490 C   0  0  0  0  0  0
   15.3880   13.8090    8.5080 C   0  0  1  0  0  0
   14.4000   13.0060    9.3240 C   0  0  0  0  0  0
   14.2200   11.4040    8.5900 S   0  0  0  0  0  0
   14.9390   15.2530    8.4570 C   0  0  0  0  0  0
   17.8320   12.9670    8.6460 N   0  0  0  0  0  0
   17.7230   12.1660    7.5380 C   0  0  2  0  0  0
   17.4140   10.7450    7.9440 C   0  0  0  0  0  0
   16.9940    9.9200    7.0910 O   0  0  0  0  0  0
   17.5690   10.3790    9.1390 O   0  5  0  0  0  0
   19.0390   12.9880    9.2720 C   0  0  0  0  0  0
   20.0330   12.5660    8.2240 C   0  0  0  0  0  0
   19.1370   12.3640    6.9470 C   0  0  0  0  0  0
   15.4348   13.3813    7.4956 H   0  0  0  0  0  0
   14.7725   12.9039   10.3540 H   0  0  0  0  0  0
   13.4285   13.5218    9.3349 H   0  0  0  0  0  0
   13.5395   10.6662    9.0400 H   0  0  0  0  0  0
   15.6563   15.8393    7.8638 H   0  0  0  0  0  0
   14.8903   15.6581    9.4785 H   0  0  0  0  0  0
   13.9440   15.3114    7.9916 H   0  0  0  0  0  0
   16.8791   12.4594    6.8964 H   0  0  0  0  0  0
   19.2443   14.0046    9.6385 H   0  0  0  0  0  0
   19.0241   12.2884   10.1207 H   0  0  0  0  0  0
   20.7849   13.3579    8.0918 H   0  0  0  0  0  0
   20.5301   11.6379    8.5427 H   0  0  0  0  0  0
   19.4211   11.4721    6.3693 H   0  0  0  0  0  0
   19.1387   13.2441    6.2871 H   0  0  0  0  0  0
  1  2  2  0  0  0
  2  3  1  0  0  0
  2  7  1  0  0  0
  3  4  1  0  0  0
  3  6  1  0  0  0
  3 15  1  0  0  0
  4  5  1  0  0  0
  4 16  1  0  0  0
  4 17  1  0  0  0
  5 18  1  0  0  0
  6 19  1  0  0  0
  6 20  1  0  0  0
  6 21  1  0  0  0
  7  8  1  0  0  0
  7 12  1  0  0  0
  8  9  1  0  0  0
  8 14  1  0  0  0
  8 22  1  0  0  0
  9 10  2  0  0  0
  9 11  1  0  0  0
 12 13  1  0  0  0
 12 23  1  0  0  0
 12 24  1  0  0  0
 13 14  1  0  0  0
 13 25  1  0  0  0
 13 26  1  0  0  0
 14 27  1  0  0  0
 14 28  1  0  0  0
M  CHG  1  11  -1
M  END
> <s_m_source_file>
../4c1f_ligand.sdf

> <i_m_source_file_index>
1

> <s_epik_input>
W1NIXVtDSDJdW0NAQEhdKFtDSDNdKUMoPU8pTjFbQ0BIXShDKD1PKVtPSF0pW0NIMl1bQ0gyXVtDSDJdMQ==

> <s_epik_cmdline>
J2VwaWtfYXBwJywgJy1pbWFlJywgJ2xpZ2FuZF9wcm8ubWFlJywgJy1vbWFlJywgJ2xpZ2FuZF9wcmVwLm1hZScsICctbXMnLCAnMScsICctcGgnLCAnNycsICctcGh0JywgJzAuNScsICctbnQn

> <r_lp_tautomer_probability>
1

> <r_epik_Ionization_Penalty>
  0.0024

> <r_epik_Ionization_Penalty_Charging>
  0.0004

> <r_epik_Ionization_Penalty_Neutral>
  0.0020

> <r_epik_State_Penalty>
 -0.0000

> <r_epik_Charging_Adjusted_Penalty>
0.000441835624439187

> <i_epik_Tot_Q>
-1

> <i_epik_Tot_abs_Q>
1

$$$$
