4c1g_ligand
                    3D
 Schrodinger Suite 2020-3.
 28 28  0  0  1  0            999 V2000
   10.0620   -7.9830  -18.2640 O   0  5  0  0  0  0
   11.0630   -7.4990  -18.8780 C   0  0  0  0  0  0
   11.1250   -6.3260  -19.2530 O   0  0  0  0  0  0
   12.1810   -8.3770  -19.1430 C   0  0  1  0  0  0
   12.9800   -7.7270  -20.2260 C   0  0  0  0  0  0
   13.7280   -6.6540  -19.5330 C   0  0  0  0  0  0
   13.7780   -7.0700  -18.0970 C   0  0  0  0  0  0
   13.0490   -8.3050  -18.0200 N   0  0  0  0  0  0
   13.1840   -9.2850  -16.9560 C   0  0  0  0  0  0
   12.5340  -10.2890  -16.9800 O   0  0  0  0  0  0
   14.1550   -9.0470  -15.8480 C   0  0  2  0  0  0
   15.3690   -9.9170  -16.1210 C   0  0  0  0  0  0
   13.5440   -9.4400  -14.5360 C   0  0  0  0  0  0
   11.9150   -8.6680  -14.3390 S   0  0  0  0  0  0
   11.8297   -9.4009  -19.3382 H   0  0  0  0  0  0
   13.6515   -8.4693  -20.6821 H   0  0  0  0  0  0
   12.3007   -7.3269  -20.9931 H   0  0  0  0  0  0
   14.7366   -6.5727  -19.9644 H   0  0  0  0  0  0
   13.1979   -5.6982  -19.6575 H   0  0  0  0  0  0
   14.8258   -7.2061  -17.7910 H   0  0  0  0  0  0
   13.3120   -6.2927  -17.4736 H   0  0  0  0  0  0
   14.4167   -7.9797  -15.7989 H   0  0  0  0  0  0
   15.8175   -9.6291  -17.0833 H   0  0  0  0  0  0
   15.0621  -10.9726  -16.1607 H   0  0  0  0  0  0
   16.1068   -9.7796  -15.3168 H   0  0  0  0  0  0
   13.4287  -10.5333  -14.4981 H   0  0  0  0  0  0
   14.1973   -9.1115  -13.7142 H   0  0  0  0  0  0
   11.3259   -8.8516  -13.4284 H   0  0  0  0  0  0
  1  2  1  0  0  0
  2  3  2  0  0  0
  2  4  1  0  0  0
  4  5  1  0  0  0
  4  8  1  0  0  0
  4 15  1  0  0  0
  5  6  1  0  0  0
  5 16  1  0  0  0
  5 17  1  0  0  0
  6  7  1  0  0  0
  6 18  1  0  0  0
  6 19  1  0  0  0
  7  8  1  0  0  0
  7 20  1  0  0  0
  7 21  1  0  0  0
  8  9  1  0  0  0
  9 10  2  0  0  0
  9 11  1  0  0  0
 11 12  1  0  0  0
 11 13  1  0  0  0
 11 22  1  0  0  0
 12 23  1  0  0  0
 12 24  1  0  0  0
 12 25  1  0  0  0
 13 14  1  0  0  0
 13 26  1  0  0  0
 13 27  1  0  0  0
 14 28  1  0  0  0
M  CHG  1   1  -1
M  END
> <s_m_source_file>
../4c1g_ligand.sdf

> <i_m_source_file_index>
1

> <s_epik_input>
W09IXUMoPU8pW0NASF0xW0NIMl1bQ0gyXVtDSDJdTjFDKD1PKVtDQEhdKFtDSDNdKVtDSDJdW1NIXQ==

> <s_epik_cmdline>
J2VwaWtfYXBwJywgJy1pbWFlJywgJ2xpZ2FuZF9wcm8ubWFlJywgJy1vbWFlJywgJ2xpZ2FuZF9wcmVwLm1hZScsICctbXMnLCAnMScsICctcGgnLCAnNycsICctcGh0JywgJzAuNScsICctbnQn

> <r_lp_tautomer_probability>
1

> <r_epik_Ionization_Penalty>
  0.0024

> <r_epik_Ionization_Penalty_Charging>
  0.0004

> <r_epik_Ionization_Penalty_Neutral>
  0.0020

> <r_epik_State_Penalty>
 -0.0000

> <r_epik_Charging_Adjusted_Penalty>
0.000441835624439187

> <i_epik_Tot_Q>
-1

> <i_epik_Tot_abs_Q>
1

$$$$
