4c1h_ligand
                    3D
 Schrodinger Suite 2020-3.
 28 28  0  0  1  0            999 V2000
   13.5050   13.2500   42.0170 O   0  0  0  0  0  0
   12.9420   13.3410   43.0980 C   0  0  0  0  0  0
   13.7400   13.2950   44.3750 C   0  0  1  0  0  0
   14.7720   12.1880   44.3260 C   0  0  0  0  0  0
   14.0450   10.5750   44.1510 S   0  0  0  0  0  0
   14.4240   14.6360   44.5380 C   0  0  0  0  0  0
   11.5330   13.4800   43.1450 N   0  0  0  0  0  0
   10.8580   13.5360   41.9390 C   0  0  2  0  0  0
   11.1150   14.8230   41.1850 C   0  0  0  0  0  0
   10.7820   14.9020   39.9730 O   0  0  0  0  0  0
   11.6530   15.8120   41.7550 O   0  5  0  0  0  0
   10.8140   13.5990   44.3030 C   0  0  0  0  0  0
    9.3610   13.6370   43.8950 C   0  0  0  0  0  0
    9.3740   13.4140   42.3430 C   0  0  0  0  0  0
   13.0703   13.0907   45.2234 H   0  0  0  0  0  0
   15.4421   12.3491   43.4687 H   0  0  0  0  0  0
   15.3591   12.1926   45.2562 H   0  0  0  0  0  0
   14.6883    9.6840   44.1029 H   0  0  0  0  0  0
   13.6660   15.4324   44.5724 H   0  0  0  0  0  0
   15.0993   14.8090   43.6871 H   0  0  0  0  0  0
   15.0036   14.6407   45.4729 H   0  0  0  0  0  0
   11.2613   12.7258   41.3137 H   0  0  0  0  0  0
   11.0199   12.7357   44.9528 H   0  0  0  0  0  0
   11.1037   14.5251   44.8210 H   0  0  0  0  0  0
    8.8127   12.8388   44.4167 H   0  0  0  0  0  0
    8.9303   14.6131   44.1628 H   0  0  0  0  0  0
    8.7864   14.1804   41.8163 H   0  0  0  0  0  0
    9.0010   12.4154   42.0717 H   0  0  0  0  0  0
  1  2  2  0  0  0
  2  3  1  0  0  0
  2  7  1  0  0  0
  3  4  1  0  0  0
  3  6  1  0  0  0
  3 15  1  0  0  0
  4  5  1  0  0  0
  4 16  1  0  0  0
  4 17  1  0  0  0
  5 18  1  0  0  0
  6 19  1  0  0  0
  6 20  1  0  0  0
  6 21  1  0  0  0
  7  8  1  0  0  0
  7 12  1  0  0  0
  8  9  1  0  0  0
  8 14  1  0  0  0
  8 22  1  0  0  0
  9 10  2  0  0  0
  9 11  1  0  0  0
 12 13  1  0  0  0
 12 23  1  0  0  0
 12 24  1  0  0  0
 13 14  1  0  0  0
 13 25  1  0  0  0
 13 26  1  0  0  0
 14 27  1  0  0  0
 14 28  1  0  0  0
M  CHG  1  11  -1
M  END
> <s_m_source_file>
../4c1h_ligand.sdf

> <i_m_source_file_index>
1

> <s_epik_input>
W1NIXVtDSDJdW0NAQEhdKFtDSDNdKUMoPU8pTjFbQ0BIXShDKD1PKVtPSF0pW0NIMl1bQ0gyXVtDSDJdMQ==

> <s_epik_cmdline>
J2VwaWtfYXBwJywgJy1pbWFlJywgJ2xpZ2FuZF9wcm8ubWFlJywgJy1vbWFlJywgJ2xpZ2FuZF9wcmVwLm1hZScsICctbXMnLCAnMScsICctcGgnLCAnNycsICctcGh0JywgJzAuNScsICctbnQn

> <r_lp_tautomer_probability>
1

> <r_epik_Ionization_Penalty>
  0.0024

> <r_epik_Ionization_Penalty_Charging>
  0.0004

> <r_epik_Ionization_Penalty_Neutral>
  0.0020

> <r_epik_State_Penalty>
 -0.0000

> <r_epik_Charging_Adjusted_Penalty>
0.000441835624439187

> <i_epik_Tot_Q>
-1

> <i_epik_Tot_abs_Q>
1

$$$$
