4c1t_ligand
                    3D
 Schrodinger Suite 2020-3.
 71 74  0  0  1  0            999 V2000
   21.0420  112.1020   17.8470 O   0  0  0  0  0  0
   19.6570  111.9520   17.5710 C   0  0  0  0  0  0
   18.8450  113.0590   18.1960 C   0  0  2  0  0  0
   19.2770  114.3460   17.6700 O   0  0  0  0  0  0
   18.9740  113.2060   19.7080 C   0  0  2  0  0  0
   18.1330  112.3210   20.4270 O   0  0  0  0  0  0
   18.6480  114.6770   19.9280 C   0  0  1  0  0  0
   19.2930  115.1680   21.0940 O   0  0  0  0  0  0
   19.3110  115.3050   18.7070 C   0  0  2  0  0  0
   18.3510  117.4710   16.2240 C   0  0  1  0  0  0
   19.2880  117.1770   17.3620 C   0  0  1  0  0  0
   20.2680  118.1700   17.9610 C   0  0  2  0  0  0
   20.9070  118.9090   16.8010 C   0  0  1  0  0  0
   19.9690  119.1230   15.6350 C   0  0  0  0  0  0
   18.6100  116.4720   18.3470 O   0  0  0  0  0  0
   21.2540  117.5240   18.6950 O   0  0  0  0  0  0
   21.3830  120.1330   17.2420 O   0  0  0  0  0  0
   18.9990  118.2120   15.2560 O   0  0  0  0  0  0
   14.0980  115.8870   13.8840 C   0  0  1  0  0  0
   15.3650  115.4810   13.1710 C   0  0  1  0  0  0
   16.7300  115.3530   13.8090 C   0  0  2  0  0  0
   16.9090  116.5630   14.7030 C   0  0  1  0  0  0
   15.6260  117.0770   15.3150 C   0  0  0  0  0  0
   15.1620  114.4200   12.3040 O   0  0  0  0  0  0
   17.7100  115.3380   12.8280 O   0  0  0  0  0  0
   17.8020  116.2470   15.7120 O   0  0  0  0  0  0
   14.3670  116.9310   14.7520 O   0  0  0  0  0  0
    8.9180  112.9190   11.4800 O   0  0  0  0  0  0
    9.5370  114.1150   11.7950 C   0  0  1  0  0  0
   10.0770  114.0770   13.1970 C   0  0  1  0  0  0
   11.0570  115.0780   13.7640 C   0  0  2  0  0  0
   12.2000  115.0950   12.7630 C   0  0  1  0  0  0
   11.7140  115.0410   11.3290 C   0  0  0  0  0  0
    9.0840  113.7680   14.1130 O   0  0  0  0  0  0
   11.4680  114.6630   15.0220 O   0  0  0  0  0  0
   13.0380  116.1940   12.9500 O   0  0  0  0  0  0
   10.5770  114.3600   10.9140 O   0  0  0  0  0  0
   21.7632  111.3689   17.4566 H   0  0  0  0  0  0
   19.4955  111.9737   16.4831 H   0  0  0  0  0  0
   19.3045  110.9915   17.9749 H   0  0  0  0  0  0
   17.8083  112.8121   17.9234 H   0  0  0  0  0  0
   19.9350  112.8805   20.1329 H   0  0  0  0  0  0
   18.2784  111.2339   20.3428 H   0  0  0  0  0  0
   17.5869  114.9056   20.1066 H   0  0  0  0  0  0
   18.9610  114.8340   22.0881 H   0  0  0  0  0  0
   20.3569  115.6192   18.8387 H   0  0  0  0  0  0
   17.5002  118.1091   16.5049 H   0  0  0  0  0  0
   20.0081  116.5170   16.8562 H   0  0  0  0  0  0
   19.7978  118.8261   18.7083 H   0  0  0  0  0  0
   21.7879  118.3497   16.4529 H   0  0  0  0  0  0
   19.3750  120.0331   15.8046 H   0  0  0  0  0  0
   20.5535  119.2338   14.7097 H   0  0  0  0  0  0
   20.9811  116.9319   19.5810 H   0  0  0  0  0  0
   22.0832  120.1780   18.0892 H   0  0  0  0  0  0
   13.6995  115.0959   14.5362 H   0  0  0  0  0  0
   15.4897  116.4106   12.5964 H   0  0  0  0  0  0
   16.8788  114.3972   14.3328 H   0  0  0  0  0  0
   17.3659  117.3757   14.1192 H   0  0  0  0  0  0
   15.4779  116.6119   16.3008 H   0  0  0  0  0  0
   15.6866  118.1693   15.4303 H   0  0  0  0  0  0
   14.2190  114.3406   11.7433 H   0  0  0  0  0  0
   17.7334  114.5260   12.0863 H   0  0  0  0  0  0
    8.0662  112.5659   12.0798 H   0  0  0  0  0  0
    8.7788  114.8952   11.6325 H   0  0  0  0  0  0
   10.7386  113.2036   13.1001 H   0  0  0  0  0  0
   10.6480  116.0749   13.9849 H   0  0  0  0  0  0
   12.8591  114.2385   12.9680 H   0  0  0  0  0  0
   11.5040  116.0609   10.9744 H   0  0  0  0  0  0
   12.4895  114.5851   10.6959 H   0  0  0  0  0  0
    8.2936  113.0509   13.8464 H   0  0  0  0  0  0
   10.7417  114.6033   15.8460 H   0  0  0  0  0  0
  1  2  1  0  0  0
  1 38  1  0  0  0
  2  3  1  0  0  0
  2 39  1  0  0  0
  2 40  1  0  0  0
  3  4  1  0  0  0
  3  5  1  0  0  0
  3 41  1  0  0  0
  4  9  1  0  0  0
  5  6  1  0  0  0
  5  7  1  0  0  0
  5 42  1  0  0  0
  6 43  1  0  0  0
  7  8  1  0  0  0
  7  9  1  0  0  0
  7 44  1  0  0  0
  8 45  1  0  0  0
  9 15  1  0  0  0
  9 46  1  0  0  0
 10 11  1  0  0  0
 10 18  1  0  0  0
 10 26  1  0  0  0
 10 47  1  0  0  0
 11 12  1  0  0  0
 11 15  1  0  0  0
 11 48  1  0  0  0
 12 13  1  0  0  0
 12 16  1  0  0  0
 12 49  1  0  0  0
 13 14  1  0  0  0
 13 17  1  0  0  0
 13 50  1  0  0  0
 14 18  1  0  0  0
 14 51  1  0  0  0
 14 52  1  0  0  0
 16 53  1  0  0  0
 17 54  1  0  0  0
 19 20  1  0  0  0
 19 27  1  0  0  0
 19 36  1  0  0  0
 19 55  1  0  0  0
 20 21  1  0  0  0
 20 24  1  0  0  0
 20 56  1  0  0  0
 21 22  1  0  0  0
 21 25  1  0  0  0
 21 57  1  0  0  0
 22 23  1  0  0  0
 22 26  1  0  0  0
 22 58  1  0  0  0
 23 27  1  0  0  0
 23 59  1  0  0  0
 23 60  1  0  0  0
 24 61  1  0  0  0
 25 62  1  0  0  0
 28 29  1  0  0  0
 28 63  1  0  0  0
 29 30  1  0  0  0
 29 37  1  0  0  0
 29 64  1  0  0  0
 30 31  1  0  0  0
 30 34  1  0  0  0
 30 65  1  0  0  0
 31 32  1  0  0  0
 31 35  1  0  0  0
 31 66  1  0  0  0
 32 33  1  0  0  0
 32 36  1  0  0  0
 32 67  1  0  0  0
 33 37  1  0  0  0
 33 68  1  0  0  0
 33 69  1  0  0  0
 34 70  1  0  0  0
 35 71  1  0  0  0
M  END
> <s_m_source_file>
../4c1t_ligand.sdf

> <i_m_source_file_index>
1

> <s_epik_input>
W09IXVtDSDJdW0NAQEhdMU9bQ0BIXShbQ0BIXShbT0hdKVtDQEhdMVtPSF0pT1tDQEhdKFtDQEBIXShbT0hdKVtDQEBIXShbQ0gyXU8yKVtPSF0pW0NAQEhdMk9bQ0BIXShbQ0gyXU8zKVtDQEhdKFtPSF0pW0NAQEhdKFtPSF0pW0NAQEhdM09bQ0BIXShbQ0gyXU80KVtDQEhdKFtPSF0pW0NAQEhdKFtPSF0pW0NAQEhdNFtPSF0=

> <s_epik_cmdline>
J2VwaWtfYXBwJywgJy1pbWFlJywgJ2xpZ2FuZF9wcm8ubWFlJywgJy1vbWFlJywgJ2xpZ2FuZF9wcmVwLm1hZScsICctbXMnLCAnMScsICctcGgnLCAnNycsICctcGh0JywgJzAuNScsICctbnQn

> <r_lp_tautomer_probability>
1

> <r_epik_Ionization_Penalty>
  0.0000

> <r_epik_Ionization_Penalty_Charging>
  0.0000

> <r_epik_Ionization_Penalty_Neutral>
  0.0000

> <r_epik_State_Penalty>
 -0.0000

> <r_epik_Charging_Adjusted_Penalty>
0

> <i_epik_Tot_Q>
0

> <i_epik_Tot_abs_Q>
0

> <s_epik_Chemistry_Notes>
This compound contains an acetal/aminal-like group ( X-CH(R)-Y where X, Y are N, S, or O) that may be acid/base labile, releasing an aldehyde.

$$$$
