4c1u_ligand
                    3D
 Schrodinger Suite 2020-3.
 54 56  0  0  1  0            999 V2000
  -19.3070   18.2950  -20.9070 O   0  0  0  0  0  0
  -20.4960   18.7450  -20.2750 C   0  0  0  0  0  0
  -20.4450   18.5540  -18.7780 C   0  0  2  0  0  0
  -19.4200   19.4100  -18.1920 O   0  0  0  0  0  0
  -20.1220   17.1430  -18.2780 C   0  0  2  0  0  0
  -20.9170   16.7540  -17.1700 O   0  0  0  0  0  0
  -18.6310   17.2080  -17.9690 C   0  0  1  0  0  0
  -17.8640   17.0870  -19.1590 O   0  0  0  0  0  0
  -18.5070   18.6340  -17.4550 C   0  0  2  0  0  0
  -16.8980   20.6850  -13.7040 C   0  0  1  0  0  0
  -17.1970   19.5650  -14.6800 C   0  0  1  0  0  0
  -18.4950   19.8170  -15.4220 C   0  0  2  0  0  0
  -19.5720   20.1580  -14.4150 C   0  0  1  0  0  0
  -19.0890   21.2490  -13.4840 C   0  0  0  0  0  0
  -16.1290   19.4530  -15.5940 O   0  0  0  0  0  0
  -18.8850   18.6370  -16.0970 O   0  0  0  0  0  0
  -20.7330   20.5920  -15.0860 O   0  0  0  0  0  0
  -17.9510   20.8110  -12.7800 O   0  0  0  0  0  0
  -12.2020   24.0740  -10.9970 O   0  0  0  0  0  0
  -12.8420   22.9940  -11.6330 C   0  0  1  0  0  0
  -13.5130   22.1330  -10.5860 C   0  0  1  0  0  0
  -14.2350   20.9800  -11.2510 C   0  0  2  0  0  0
  -15.1360   21.5000  -12.3510 C   0  0  1  0  0  0
  -14.3240   22.3960  -13.2590 C   0  0  0  0  0  0
  -12.5300   21.6320   -9.7080 O   0  0  0  0  0  0
  -14.9940   20.2790  -10.2920 O   0  0  0  0  0  0
  -15.6270   20.4010  -13.0870 O   0  0  0  0  0  0
  -13.8020   23.4860  -12.5340 O   0  0  0  0  0  0
  -19.2017   18.3719  -21.9992 H   0  0  0  0  0  0
  -20.6378   19.8162  -20.4809 H   0  0  0  0  0  0
  -21.3552   18.1798  -20.6652 H   0  0  0  0  0  0
  -21.4580   18.8383  -18.4570 H   0  0  0  0  0  0
  -20.4011   16.3297  -18.9641 H   0  0  0  0  0  0
  -22.0087   16.6734  -17.2777 H   0  0  0  0  0  0
  -18.2413   16.4026  -17.3292 H   0  0  0  0  0  0
  -17.8221   16.1251  -19.6909 H   0  0  0  0  0  0
  -17.5090   19.0903  -17.5305 H   0  0  0  0  0  0
  -16.8343   21.6894  -14.1480 H   0  0  0  0  0  0
  -17.2499   18.5981  -14.1582 H   0  0  0  0  0  0
  -18.3743   20.5962  -16.1890 H   0  0  0  0  0  0
  -19.8735   19.2633  -13.8505 H   0  0  0  0  0  0
  -18.8305   22.1433  -14.0701 H   0  0  0  0  0  0
  -19.8850   21.4981  -12.7669 H   0  0  0  0  0  0
  -15.1084   19.2684  -15.2274 H   0  0  0  0  0  0
  -21.2307   19.9290  -15.8089 H   0  0  0  0  0  0
  -11.4145   23.8856  -10.2525 H   0  0  0  0  0  0
  -12.0896   22.4542  -12.2267 H   0  0  0  0  0  0
  -14.2053   22.7220   -9.9665 H   0  0  0  0  0  0
  -13.5229   20.2420  -11.6488 H   0  0  0  0  0  0
  -16.0200   22.0230  -11.9574 H   0  0  0  0  0  0
  -13.4915   21.8218  -13.6918 H   0  0  0  0  0  0
  -14.9655   22.7773  -14.0671 H   0  0  0  0  0  0
  -11.9008   22.3270   -9.1326 H   0  0  0  0  0  0
  -14.4979   19.8309   -9.4185 H   0  0  0  0  0  0
  1  2  1  0  0  0
  1 29  1  0  0  0
  2  3  1  0  0  0
  2 30  1  0  0  0
  2 31  1  0  0  0
  3  4  1  0  0  0
  3  5  1  0  0  0
  3 32  1  0  0  0
  4  9  1  0  0  0
  5  6  1  0  0  0
  5  7  1  0  0  0
  5 33  1  0  0  0
  6 34  1  0  0  0
  7  8  1  0  0  0
  7  9  1  0  0  0
  7 35  1  0  0  0
  8 36  1  0  0  0
  9 16  1  0  0  0
  9 37  1  0  0  0
 10 11  1  0  0  0
 10 18  1  0  0  0
 10 27  1  0  0  0
 10 38  1  0  0  0
 11 12  1  0  0  0
 11 15  1  0  0  0
 11 39  1  0  0  0
 12 13  1  0  0  0
 12 16  1  0  0  0
 12 40  1  0  0  0
 13 14  1  0  0  0
 13 17  1  0  0  0
 13 41  1  0  0  0
 14 18  1  0  0  0
 14 42  1  0  0  0
 14 43  1  0  0  0
 15 44  1  0  0  0
 17 45  1  0  0  0
 19 20  1  0  0  0
 19 46  1  0  0  0
 20 21  1  0  0  0
 20 28  1  0  0  0
 20 47  1  0  0  0
 21 22  1  0  0  0
 21 25  1  0  0  0
 21 48  1  0  0  0
 22 23  1  0  0  0
 22 26  1  0  0  0
 22 49  1  0  0  0
 23 24  1  0  0  0
 23 27  1  0  0  0
 23 50  1  0  0  0
 24 28  1  0  0  0
 24 51  1  0  0  0
 24 52  1  0  0  0
 25 53  1  0  0  0
 26 54  1  0  0  0
M  END
> <s_m_source_file>
../4c1u_ligand.sdf

> <i_m_source_file_index>
1

> <s_epik_input>
W09IXVtDSDJdW0NAQEhdMU9bQ0BIXShbQ0BIXShbT0hdKVtDQEhdMVtPSF0pT1tDQEBIXShbQ0BASF0oW0NIMl1PMilbT0hdKVtDQEBIXShbT0hdKVtDQEBIXTJPW0NASF0oW0NIMl1PMylbQ0BIXShbT0hdKVtDQEBIXShbT0hdKVtDQEBIXTNbT0hd

> <s_epik_cmdline>
J2VwaWtfYXBwJywgJy1pbWFlJywgJ2xpZ2FuZF9wcm8ubWFlJywgJy1vbWFlJywgJ2xpZ2FuZF9wcmVwLm1hZScsICctbXMnLCAnMScsICctcGgnLCAnNycsICctcGh0JywgJzAuNScsICctbnQn

> <r_lp_tautomer_probability>
1

> <r_epik_Ionization_Penalty>
  0.0000

> <r_epik_Ionization_Penalty_Charging>
  0.0000

> <r_epik_Ionization_Penalty_Neutral>
  0.0000

> <r_epik_State_Penalty>
 -0.0000

> <r_epik_Charging_Adjusted_Penalty>
0

> <i_epik_Tot_Q>
0

> <i_epik_Tot_abs_Q>
0

> <s_epik_Chemistry_Notes>
This compound contains an acetal/aminal-like group ( X-CH(R)-Y where X, Y are N, S, or O) that may be acid/base labile, releasing an aldehyde.

$$$$
