4c1w_ligand
                    3D
 Schrodinger Suite 2020-3.
 81 83  0  0  1  0            999 V2000
    2.0070    1.0270    5.0070 O   0  0  0  0  0  0
    2.6600    1.0020    6.0710 C   0  0  0  0  0  0
    4.1010    0.5640    6.0940 C   0  0  0  0  0  0
    2.1830    1.3380    7.2850 N   0  0  0  0  0  0
    0.8920    1.9970    7.4900 C   0  0  1  0  0  0
   -0.1590    0.9480    7.9320 C   0  0  1  0  0  0
   -1.4340    1.5950    8.1150 O   0  0  0  0  0  0
   -0.3800   -0.2190    6.9830 C   0  0  2  0  0  0
   -0.5950    0.2610    5.6320 O   0  0  0  0  0  0
   -1.5940   -1.0700    7.4220 C   0  0  2  0  0  0
   -1.5750   -1.3330    8.8360 O   0  0  0  0  0  0
   -1.6140   -2.3870    6.6580 C   0  0  0  0  0  0
   -2.8910   -3.0080    6.8350 O   0  0  0  0  0  0
    0.9580    3.0720    8.5680 C   0  0  1  0  0  0
    1.8690    4.0980    8.1450 O   0  0  0  0  0  0
   -0.4120    3.6850    8.8700 C   0  0  0  0  0  0
   -1.4300    2.5740    9.1720 C   0  0  2  0  0  0
   -1.2250    1.9070   10.5510 C   0  0  0  0  0  0
   -1.4110    0.6550   10.6280 O   0  0  0  0  0  0
   -0.9280    2.6120   11.5750 O   0  5  0  0  0  0
   -2.7110    3.1950    9.1220 O   0  0  0  0  0  0
   -3.7700    2.3450    9.5570 C   0  0  1  0  0  0
   -4.4480    2.9720   10.7910 C   0  0  2  0  0  0
   -5.8230    2.3330   11.0570 C   0  0  2  0  0  0
   -6.6540    2.3210    9.9110 O   0  0  0  0  0  0
   -6.5590    3.0820   12.1330 C   0  0  0  0  0  0
   -7.5670    2.1510   12.4980 O   0  0  0  0  0  0
   -4.6410    4.3710   10.5600 O   0  0  0  0  0  0
   -4.7400    2.1850    8.3720 C   0  0  1  0  0  0
   -4.1380    1.3970    7.3070 O   0  0  0  0  0  0
   -6.0430    1.5550    8.8620 C   0  0  2  0  0  0
   -6.9220    1.4390    7.7420 O   0  0  0  0  0  0
   -7.9710    0.5120    8.0310 C   0  0  2  0  0  0
   -7.7540   -0.8200    7.2840 C   0  0  2  0  0  0
   -8.9220   -1.6840    7.2020 O   0  0  0  0  0  0
   -6.5940   -1.5850    7.9370 C   0  0  0  0  0  0
   -5.5280   -1.3960    7.0000 O   0  0  0  0  0  0
   -9.3300    1.1240    7.6700 C   0  0  2  0  0  0
   -9.5370    2.4220    8.2320 O   0  0  0  0  0  0
  -10.3300    0.0840    8.1810 C   0  0  1  0  0  0
  -11.6560    0.6090    8.3330 O   0  0  0  0  0  0
  -10.2450   -1.0960    7.2010 C   0  0  1  0  0  0
  -10.5170   -0.6210    5.8740 O   0  0  0  0  0  0
    4.4221    0.3061    5.0740 H   0  0  0  0  0  0
    4.2063   -0.3163    6.7452 H   0  0  0  0  0  0
    4.7268    1.3823    6.4796 H   0  0  0  0  0  0
    2.8183    1.0921    8.1487 H   0  0  0  0  0  0
    0.6663    2.4640    6.5199 H   0  0  0  0  0  0
    0.1927    0.5299    8.8867 H   0  0  0  0  0  0
    0.5382   -0.8240    6.9549 H   0  0  0  0  0  0
    0.1653    0.8882    5.1436 H   0  0  0  0  0  0
   -2.5265   -0.5096    7.2598 H   0  0  0  0  0  0
   -1.5589   -0.4970    9.5508 H   0  0  0  0  0  0
   -1.4402   -2.1935    5.5892 H   0  0  0  0  0  0
   -0.8234   -3.0471    7.0444 H   0  0  0  0  0  0
   -3.1029   -3.9759    6.3571 H   0  0  0  0  0  0
    1.3632    2.6367    9.4934 H   0  0  0  0  0  0
    2.9060    3.8395    7.8846 H   0  0  0  0  0  0
   -0.3320    4.3495    9.7429 H   0  0  0  0  0  0
   -0.7550    4.2632    7.9993 H   0  0  0  0  0  0
   -3.3362    1.3750    9.8413 H   0  0  0  0  0  0
   -3.7950    2.8744   11.6708 H   0  0  0  0  0  0
   -5.6752    1.2741   11.3156 H   0  0  0  0  0  0
   -5.8674    3.3154   12.9559 H   0  0  0  0  0  0
   -6.9636    4.0169   11.7179 H   0  0  0  0  0  0
   -8.2924    2.4060   13.2847 H   0  0  0  0  0  0
   -3.7768    5.0179   10.3486 H   0  0  0  0  0  0
   -4.9478    3.1570    7.9007 H   0  0  0  0  0  0
   -3.1923    1.7226    6.8491 H   0  0  0  0  0  0
   -5.8971    0.5564    9.2997 H   0  0  0  0  0  0
   -7.8987    0.3511    9.1168 H   0  0  0  0  0  0
   -7.5733   -0.5815    6.2255 H   0  0  0  0  0  0
   -6.3765   -1.1491    8.9233 H   0  0  0  0  0  0
   -6.8733   -2.6422    8.0569 H   0  0  0  0  0  0
   -4.5397   -1.8379    7.1948 H   0  0  0  0  0  0
   -9.4426    1.3862    6.6077 H   0  0  0  0  0  0
   -8.8818    3.2571    7.9435 H   0  0  0  0  0  0
  -10.1425   -0.2155    9.2227 H   0  0  0  0  0  0
  -11.8377    1.4565    9.0103 H   0  0  0  0  0  0
  -10.9628   -1.8889    7.4581 H   0  0  0  0  0  0
  -10.5034   -1.3211    5.0257 H   0  0  0  0  0  0
  1  2  2  0  0  0
  2  3  1  0  0  0
  2  4  1  0  0  0
  3 44  1  0  0  0
  3 45  1  0  0  0
  3 46  1  0  0  0
  4  5  1  0  0  0
  4 47  1  0  0  0
  5  6  1  0  0  0
  5 14  1  0  0  0
  5 48  1  0  0  0
  6  7  1  0  0  0
  6  8  1  0  0  0
  6 49  1  0  0  0
  7 17  1  0  0  0
  8  9  1  0  0  0
  8 10  1  0  0  0
  8 50  1  0  0  0
  9 51  1  0  0  0
 10 11  1  0  0  0
 10 12  1  0  0  0
 10 52  1  0  0  0
 11 53  1  0  0  0
 12 13  1  0  0  0
 12 54  1  0  0  0
 12 55  1  0  0  0
 13 56  1  0  0  0
 14 15  1  0  0  0
 14 16  1  0  0  0
 14 57  1  0  0  0
 15 58  1  0  0  0
 16 17  1  0  0  0
 16 59  1  0  0  0
 16 60  1  0  0  0
 17 18  1  0  0  0
 17 21  1  0  0  0
 18 19  2  0  0  0
 18 20  1  0  0  0
 21 22  1  0  0  0
 22 23  1  0  0  0
 22 29  1  0  0  0
 22 61  1  0  0  0
 23 24  1  0  0  0
 23 28  1  0  0  0
 23 62  1  0  0  0
 24 25  1  0  0  0
 24 26  1  0  0  0
 24 63  1  0  0  0
 25 31  1  0  0  0
 26 27  1  0  0  0
 26 64  1  0  0  0
 26 65  1  0  0  0
 27 66  1  0  0  0
 28 67  1  0  0  0
 29 30  1  0  0  0
 29 31  1  0  0  0
 29 68  1  0  0  0
 30 69  1  0  0  0
 31 32  1  0  0  0
 31 70  1  0  0  0
 32 33  1  0  0  0
 33 34  1  0  0  0
 33 38  1  0  0  0
 33 71  1  0  0  0
 34 35  1  0  0  0
 34 36  1  0  0  0
 34 72  1  0  0  0
 35 42  1  0  0  0
 36 37  1  0  0  0
 36 73  1  0  0  0
 36 74  1  0  0  0
 37 75  1  0  0  0
 38 39  1  0  0  0
 38 40  1  0  0  0
 38 76  1  0  0  0
 39 77  1  0  0  0
 40 41  1  0  0  0
 40 42  1  0  0  0
 40 78  1  0  0  0
 41 79  1  0  0  0
 42 43  1  0  0  0
 42 80  1  0  0  0
 43 81  1  0  0  0
M  CHG  1  20  -1
M  END
> <s_m_source_file>
../4c1w_ligand.sdf

> <i_m_source_file_index>
1

> <s_epik_input>
Tz1DKFtDSDNdKVtOSF1bQ0BIXShbQ0BASF0oW09IXSlbQ0gyXTEpW0NASF0oW0NASF0oW09IXSlbQ0BIXShbT0hdKVtDSDJdW09IXSlPW0NAXTEoQyg9TylbT0hdKU9bQ0BIXTJbQ0BASF0oW09IXSlbQ0BASF0oW0NIMl1bT0hdKU9bQ0BIXShbQ0BASF0yW09IXSlPW0NAQEhdM1tDQEBIXShbQ0gyXVtPSF0pT1tDQEhdKFtPSF0pW0NASF0oW09IXSlbQ0BIXTNbT0hd

> <s_epik_cmdline>
J2VwaWtfYXBwJywgJy1pbWFlJywgJ2xpZ2FuZF9wcm8ubWFlJywgJy1vbWFlJywgJ2xpZ2FuZF9wcmVwLm1hZScsICctbXMnLCAnMScsICctcGgnLCAnNycsICctcGh0JywgJzAuNScsICctbnQn

> <r_lp_tautomer_probability>
1

> <r_epik_Ionization_Penalty>
  0.0000

> <r_epik_Ionization_Penalty_Charging>
  0.0000

> <r_epik_Ionization_Penalty_Neutral>
  0.0000

> <r_epik_State_Penalty>
 -0.0000

> <r_epik_Charging_Adjusted_Penalty>
9.90123822354334e-06

> <i_epik_Tot_Q>
-1

> <i_epik_Tot_abs_Q>
1

> <s_epik_Chemistry_Notes>
This compound contains an acetal/aminal-like group ( X-CH(R)-Y where X, Y are N, S, or O) that may be acid/base labile, releasing an aldehyde.

$$$$
