4c35_ligand
                    3D
 Schrodinger Suite 2020-3.
 28 30  0  0  1  0            999 V2000
   11.9910   83.8410   84.6250 C   0  0  0  0  0  0
   12.6800   84.9970   84.7450 N   0  0  0  0  0  0
   12.5560   82.7450   84.4890 O   0  5  0  0  0  0
   10.4930   83.9140   84.6190 C   0  0  0  0  0  0
    8.0450   86.4160   85.1780 N   0  0  0  0  0  0
    9.1230   92.8140   85.6990 O   0  0  0  0  0  0
    9.7520   82.7400   84.4500 C   0  0  0  0  0  0
   10.2870   86.4720   85.0170 N   0  0  0  0  0  0
    8.3660   82.7530   84.5580 C   0  0  0  0  0  0
    7.6930   83.9390   84.8050 C   0  0  0  0  0  0
    8.4430   85.1070   84.9440 C   0  0  0  0  0  0
    9.1770   87.1870   85.1970 C   0  0  3  0  0  0
    9.1430   88.6580   85.3620 C   0  0  0  0  0  0
   10.3180   89.3670   85.6000 C   0  0  0  0  0  0
   10.3060   90.7490   85.7050 C   0  0  0  0  0  0
    9.1120   91.4470   85.5720 C   0  0  0  0  0  0
    7.9300   90.7540   85.3450 C   0  0  0  0  0  0
    7.9460   89.3700   85.2520 C   0  0  0  0  0  0
    9.8720   85.1500   84.8520 C   0  0  0  0  0  0
   12.1411   85.9518   84.8344 H   0  0  0  0  0  0
   10.0711   93.3421   85.8785 H   0  0  0  0  0  0
   10.2654   81.7926   84.2290 H   0  0  0  0  0  0
    7.8034   81.8144   84.4462 H   0  0  0  0  0  0
    6.5960   83.9422   84.8865 H   0  0  0  0  0  0
   11.2595   88.8279   85.7051 H   0  0  0  0  0  0
   11.2343   91.2888   85.8921 H   0  0  0  0  0  0
    6.9907   91.2970   85.2400 H   0  0  0  0  0  0
    7.0124   88.8309   85.0910 H   0  0  0  0  0  0
  1  2  2  0  0  0
  1  3  1  0  0  0
  1  4  1  0  0  0
  2 20  1  0  0  0
  4  7  2  0  0  0
  4 19  1  0  0  0
  5 11  2  0  0  0
  5 12  1  0  0  0
  6 16  1  0  0  0
  6 21  1  0  0  0
  7  9  1  0  0  0
  7 22  1  0  0  0
  8 12  1  0  0  0
  8 19  2  0  0  0
  9 10  2  0  0  0
  9 23  1  0  0  0
 10 11  1  0  0  0
 10 24  1  0  0  0
 11 19  1  0  0  0
 12 13  1  0  0  0
 13 14  2  0  0  0
 13 18  1  0  0  0
 14 15  1  0  0  0
 14 25  1  0  0  0
 15 16  2  0  0  0
 15 26  1  0  0  0
 16 17  1  0  0  0
 17 18  2  0  0  0
 17 27  1  0  0  0
 18 28  1  0  0  0
M  CHG  1   3  -1
M  END
> <s_m_source_file>
../4c35_ligand.sdf

> <i_m_source_file_index>
1

> <s_epik_input>
W2NIXTFbY0hdW2NIXWMoQyg9TylbTkgyXSljKGMxMik9TltDSF0oTj0yKWMzW2NIXVtjSF1jKFtPSF0pW2NIXVtjSF0z

> <s_epik_cmdline>
J2VwaWtfYXBwJywgJy1pbWFlJywgJ2xpZ2FuZF9wcm8ubWFlJywgJy1vbWFlJywgJ2xpZ2FuZF9wcmVwLm1hZScsICctbXMnLCAnMScsICctcGgnLCAnNycsICctcGh0JywgJzAuNScsICctbnQn

> <r_epik_Ionization_Penalty>
  0.2353

> <r_epik_Ionization_Penalty_Charging>
  0.2323

> <r_epik_Ionization_Penalty_Neutral>
  0.0030

> <r_epik_State_Penalty>
  0.5326

> <r_epik_Charging_Adjusted_Penalty>
0.764980140600405

> <i_epik_Tot_Q>
-1

> <i_epik_Tot_abs_Q>
1

> <s_epik_Chemistry_Notes>
This compound has an imine and may undergo hydrolysis.

$$$$
