4c36_ligand
                    3D
 Schrodinger Suite 2020-3.
 32 35  0  0  1  0            999 V2000
  -26.7090   -9.9010    0.4730 C   0  0  0  0  0  0
  -29.8060  -10.0390   -1.6130 N   0  0  0  0  0  0
  -32.1650  -10.2230   -5.4680 O   0  0  0  0  0  0
  -25.8170   -9.5780   -0.5470 C   0  0  0  0  0  0
  -28.3750   -9.5090   -3.2790 N   0  0  0  0  0  0
  -26.2570   -9.4310   -1.8600 C   0  0  0  0  0  0
  -30.8290  -10.1200   -5.1000 N   0  0  0  0  0  0
  -27.6120   -9.6230   -2.1180 C   0  0  0  0  0  0
  -33.0130  -10.0920   -4.3560 N   0  0  0  0  0  0
  -28.5130   -9.9460   -1.1050 C   0  0  0  0  0  0
  -32.6360   -9.7450   -2.0730 N   0  0  0  0  0  0
  -28.0590  -10.0830    0.2070 C   0  0  0  0  0  0
  -29.6780   -9.7630   -2.8990 C   0  0  0  0  0  0
  -27.8910   -9.0660   -4.6010 C   0  0  0  0  0  0
  -27.5120  -10.2450   -5.4720 C   0  0  0  0  0  0
  -26.1440  -10.8300   -5.3290 C   0  0  0  0  0  0
  -26.4990  -10.0610   -6.5580 C   0  0  0  0  0  0
  -30.8470   -9.9160   -3.7950 C   0  0  0  0  0  0
  -32.2190   -9.9310   -3.3300 C   0  0  0  0  0  0
  -26.3420  -10.0123    1.4933 H   0  0  0  0  0  0
  -24.7613   -9.4386   -0.3145 H   0  0  0  0  0  0
  -25.5630   -9.1739   -2.6602 H   0  0  0  0  0  0
  -33.7103   -9.7790   -1.8392 H   0  0  0  0  0  0
  -31.9047   -9.5580   -1.2729 H   0  0  0  0  0  0
  -28.7534  -10.3290    1.0104 H   0  0  0  0  0  0
  -28.6827   -8.4960   -5.1092 H   0  0  0  0  0  0
  -27.0047   -8.4274   -4.4719 H   0  0  0  0  0  0
  -28.5367  -10.6432   -5.4351 H   0  0  0  0  0  0
  -25.6561  -10.4080   -4.4380 H   0  0  0  0  0  0
  -26.2215  -11.9220   -5.2220 H   0  0  0  0  0  0
  -26.8786  -10.5013   -7.4919 H   0  0  0  0  0  0
  -26.3131   -8.9872   -6.7079 H   0  0  0  0  0  0
  1  4  1  0  0  0
  1 12  2  0  0  0
  1 20  1  0  0  0
  2 10  1  0  0  0
  2 13  2  0  0  0
  3  7  1  0  0  0
  3  9  1  0  0  0
  4  6  2  0  0  0
  4 21  1  0  0  0
  5  8  1  0  0  0
  5 13  1  0  0  0
  5 14  1  0  0  0
  6  8  1  0  0  0
  6 22  1  0  0  0
  7 18  2  0  0  0
  8 10  2  0  0  0
  9 19  2  0  0  0
 10 12  1  0  0  0
 11 19  1  0  0  0
 11 23  1  0  0  0
 11 24  1  0  0  0
 12 25  1  0  0  0
 13 18  1  0  0  0
 14 15  1  0  0  0
 14 26  1  0  0  0
 14 27  1  0  0  0
 15 16  1  0  0  0
 15 17  1  0  0  0
 15 28  1  0  0  0
 16 17  1  0  0  0
 16 29  1  0  0  0
 16 30  1  0  0  0
 17 31  1  0  0  0
 17 32  1  0  0  0
 18 19  1  0  0  0
M  END
> <s_m_source_file>
../4c36_ligand.sdf

> <i_m_source_file_index>
1

> <s_epik_input>
W2NIXTFbY0hdW2NIXVtjSF1jKGMxMiluYyhuMltDSDJdW0NIXTNbQ0gyXVtDSDJdMyktYzRub25jNFtOSDJd

> <s_epik_cmdline>
J2VwaWtfYXBwJywgJy1pbWFlJywgJ2xpZ2FuZF9wcm8ubWFlJywgJy1vbWFlJywgJ2xpZ2FuZF9wcmVwLm1hZScsICctbXMnLCAnMScsICctcGgnLCAnNycsICctcGh0JywgJzAuNScsICctbnQn

> <r_lp_tautomer_probability>
1

> <r_epik_Ionization_Penalty>
  0.0007

> <r_epik_Ionization_Penalty_Charging>
  0.0000

> <r_epik_Ionization_Penalty_Neutral>
  0.0007

> <r_epik_State_Penalty>
 -0.0000

> <r_epik_Charging_Adjusted_Penalty>
0

> <i_epik_Tot_Q>
0

> <i_epik_Tot_abs_Q>
0

$$$$
