4c37_ligand
                    3D
 Schrodinger Suite 2020-3.
 27 29  0  0  1  0            999 V2000
   24.0650   -9.6280   -0.0460 Br  0  0  0  0  0  0
   25.8970   -9.7290    0.4430 C   0  0  0  0  0  0
   26.2340   -9.6060    1.7810 C   0  0  0  0  0  0
   27.6040   -9.7290    1.9920 C   0  0  0  0  0  0
   28.3630   -9.6860    3.1550 N   0  0  0  0  0  0
   27.8030   -9.4490    4.4990 C   0  0  0  0  0  0
   27.3510  -10.7320    5.1440 C   0  0  0  0  0  0
   29.6670   -9.8760    2.7530 C   0  0  0  0  0  0
   29.8140  -10.0060    1.4480 N   0  0  0  0  0  0
   28.5180   -9.9350    0.9490 C   0  0  0  0  0  0
   28.0290  -10.0350   -0.3850 C   0  0  0  0  0  0
   26.7170   -9.9270   -0.6230 N   0  0  0  0  0  0
   30.7890  -10.0370    3.6620 C   0  0  0  0  0  0
   32.1790   -9.9770    3.2820 C   0  0  0  0  0  0
   32.6690   -9.7780    2.0520 N   0  0  0  0  0  0
   32.9270  -10.1560    4.3370 N   0  0  0  0  0  0
   32.0490  -10.3420    5.3790 O   0  0  0  0  0  0
   30.7140  -10.2640    4.9530 N   0  0  0  0  0  0
   25.5096   -9.4328    2.5768 H   0  0  0  0  0  0
   28.5697   -8.9891    5.1398 H   0  0  0  0  0  0
   26.9372   -8.7749    4.4218 H   0  0  0  0  0  0
   26.9406  -10.5162    6.1415 H   0  0  0  0  0  0
   28.2074  -11.4157    5.2399 H   0  0  0  0  0  0
   26.5748  -11.2015    4.5219 H   0  0  0  0  0  0
   28.7222  -10.1991   -1.2100 H   0  0  0  0  0  0
   31.9838   -9.6335    1.2037 H   0  0  0  0  0  0
   33.7568   -9.7590    1.8897 H   0  0  0  0  0  0
  1  2  1  0  0  0
  2  3  2  0  0  0
  2 12  1  0  0  0
  3  4  1  0  0  0
  3 19  1  0  0  0
  4  5  1  0  0  0
  4 10  2  0  0  0
  5  6  1  0  0  0
  5  8  1  0  0  0
  6  7  1  0  0  0
  6 20  1  0  0  0
  6 21  1  0  0  0
  7 22  1  0  0  0
  7 23  1  0  0  0
  7 24  1  0  0  0
  8  9  2  0  0  0
  8 13  1  0  0  0
  9 10  1  0  0  0
 10 11  1  0  0  0
 11 12  2  0  0  0
 11 25  1  0  0  0
 13 14  1  0  0  0
 13 18  2  0  0  0
 14 15  1  0  0  0
 14 16  2  0  0  0
 15 26  1  0  0  0
 15 27  1  0  0  0
 16 17  1  0  0  0
 17 18  1  0  0  0
M  END
> <s_m_source_file>
../4c37_ligand.sdf

> <i_m_source_file_index>
1

> <s_epik_input>
QnJjKFtjSF0xKW5bY0hdYyhjMTIpbmMobjJbQ0gyXVtDSDNdKS1jM2MoW05IMl0pbm9uMw==

> <s_epik_cmdline>
J2VwaWtfYXBwJywgJy1pbWFlJywgJ2xpZ2FuZF9wcm8ubWFlJywgJy1vbWFlJywgJ2xpZ2FuZF9wcmVwLm1hZScsICctbXMnLCAnMScsICctcGgnLCAnNycsICctcGh0JywgJzAuNScsICctbnQn

> <r_lp_tautomer_probability>
1

> <r_epik_Ionization_Penalty>
  0.0001

> <r_epik_Ionization_Penalty_Charging>
  0.0000

> <r_epik_Ionization_Penalty_Neutral>
  0.0000

> <r_epik_State_Penalty>
 -0.0000

> <r_epik_Charging_Adjusted_Penalty>
4.5020275038774e-05

> <i_epik_Tot_Q>
0

> <i_epik_Tot_abs_Q>
0

$$$$
