4c38_ligand
                    3D
 Schrodinger Suite 2020-3.
 30 32  0  0  1  0            999 V2000
   25.3730  -10.0670    0.3840 C   0  0  0  0  0  0
   25.8080   -9.9270    1.6940 C   0  0  0  0  0  0
   27.1880   -9.9400    1.9150 C   0  0  0  0  0  0
   27.9490   -9.8450    3.0870 N   0  0  0  0  0  0
   27.3900   -9.6140    4.4350 C   0  0  0  0  0  0
   27.0230  -10.8920    5.1240 C   0  0  0  0  0  0
   29.2620   -9.9450    2.6850 C   0  0  0  0  0  0
   29.4150  -10.0820    1.3810 N   0  0  0  0  0  0
   28.1150  -10.0860    0.8760 C   0  0  0  0  0  0
   27.5380  -10.1960   -0.3900 C   0  0  0  0  0  0
   26.2260  -10.1940   -0.6570 N   0  0  0  0  0  0
   30.3930  -10.0390    3.6180 C   0  0  0  0  0  0
   31.7730  -10.0340    3.2140 C   0  0  0  0  0  0
   32.2430   -9.8250    1.9810 N   0  0  0  0  0  0
   32.5260  -10.2290    4.2660 N   0  0  0  0  0  0
   31.6400  -10.3700    5.3290 O   0  0  0  0  0  0
   23.9130  -10.0780    0.0470 C   0  0  0  0  0  0
   30.3190  -10.2440    4.9110 N   0  0  0  0  0  0
   25.1026   -9.8116    2.5169 H   0  0  0  0  0  0
   28.1338   -9.0933    5.0561 H   0  0  0  0  0  0
   26.4827   -8.9972    4.3550 H   0  0  0  0  0  0
   26.6132  -10.6671    6.1198 H   0  0  0  0  0  0
   27.9186  -11.5218    5.2297 H   0  0  0  0  0  0
   26.2676  -11.4257    4.5286 H   0  0  0  0  0  0
   28.2165  -10.2922   -1.2376 H   0  0  0  0  0  0
   31.5449   -9.6687    1.1454 H   0  0  0  0  0  0
   33.3281   -9.8092    1.8014 H   0  0  0  0  0  0
   23.3231   -9.9684    0.9689 H   0  0  0  0  0  0
   23.6566  -11.0297   -0.4414 H   0  0  0  0  0  0
   23.6876   -9.2440   -0.6339 H   0  0  0  0  0  0
  1  2  2  0  0  0
  1 11  1  0  0  0
  1 17  1  0  0  0
  2  3  1  0  0  0
  2 19  1  0  0  0
  3  4  1  0  0  0
  3  9  2  0  0  0
  4  5  1  0  0  0
  4  7  1  0  0  0
  5  6  1  0  0  0
  5 20  1  0  0  0
  5 21  1  0  0  0
  6 22  1  0  0  0
  6 23  1  0  0  0
  6 24  1  0  0  0
  7  8  2  0  0  0
  7 12  1  0  0  0
  8  9  1  0  0  0
  9 10  1  0  0  0
 10 11  2  0  0  0
 10 25  1  0  0  0
 12 13  1  0  0  0
 12 18  2  0  0  0
 13 14  1  0  0  0
 13 15  2  0  0  0
 14 26  1  0  0  0
 14 27  1  0  0  0
 15 16  1  0  0  0
 16 18  1  0  0  0
 17 28  1  0  0  0
 17 29  1  0  0  0
 17 30  1  0  0  0
M  END
> <s_m_source_file>
../4c38_ligand.sdf

> <i_m_source_file_index>
1

> <s_epik_input>
W2NIXTFjKFtDSDNdKW5bY0hdYyhjMTIpbmMobjJbQ0gyXVtDSDNdKS1jM2MoW05IMl0pbm9uMw==

> <s_epik_cmdline>
J2VwaWtfYXBwJywgJy1pbWFlJywgJ2xpZ2FuZF9wcm8ubWFlJywgJy1vbWFlJywgJ2xpZ2FuZF9wcmVwLm1hZScsICctbXMnLCAnMScsICctcGgnLCAnNycsICctcGh0JywgJzAuNScsICctbnQn

> <r_lp_tautomer_probability>
1

> <r_epik_Ionization_Penalty>
  0.0386

> <r_epik_Ionization_Penalty_Charging>
  0.0386

> <r_epik_Ionization_Penalty_Neutral>
  0.0000

> <r_epik_State_Penalty>
  0.0323

> <r_epik_Charging_Adjusted_Penalty>
0.0709308412242902

> <i_epik_Tot_Q>
0

> <i_epik_Tot_abs_Q>
0

$$$$
