4c3k_ligand
                    3D
 Schrodinger Suite 2020-3.
 39 41  0  0  1  0            999 V2000
  -16.6530   33.9760  -31.2260 P   0  0  0  0  0  0
  -15.8360   34.5310  -32.3680 O   0  5  0  0  0  0
  -16.0890   32.6910  -30.6740 O   0  0  0  0  0  0
  -17.0500   34.9980  -30.1880 O   0  5  0  0  0  0
  -18.9300   34.6080  -32.6900 P   0  0  2  0  0  0
  -18.0400   35.3560  -33.6530 O   0  5  0  0  0  0
  -19.7790   35.3590  -31.6930 O   0  0  0  0  0  0
  -18.0400   33.5290  -31.8990 O   0  0  0  0  0  0
  -19.8810   33.6590  -33.5660 O   0  0  0  0  0  0
  -20.4090   34.1570  -34.7880 C   0  0  0  0  0  0
  -21.5870   33.2940  -35.2030 C   0  0  1  0  0  0
  -22.2630   32.7890  -34.0500 O   0  0  0  0  0  0
  -22.5890   34.1170  -35.9870 C   0  0  1  0  0  0
  -22.4640   33.8270  -37.3790 O   0  0  0  0  0  0
  -23.9470   33.6980  -35.4650 C   0  0  1  0  0  0
  -24.5710   32.8500  -36.4290 O   0  0  0  0  0  0
  -23.6800   32.9110  -34.1920 C   0  0  2  0  0  0
  -24.2040   33.6520  -33.0180 N   0  0  0  0  0  0
  -23.5000   34.5360  -32.2870 C   0  0  0  0  0  0
  -24.2480   35.0430  -31.2750 N   0  0  0  0  0  0
  -25.4680   34.4810  -31.3510 C   0  0  0  0  0  0
  -26.7380   34.5720  -30.5900 C   0  0  0  0  0  0
  -26.8560   35.3950  -29.5200 N   0  0  0  0  0  0
  -27.7770   33.8130  -31.0020 N   0  0  0  0  0  0
  -27.6730   32.9960  -32.0640 C   0  0  0  0  0  0
  -26.5510   32.8620  -32.7930 N   0  0  0  0  0  0
  -25.4340   33.5650  -32.5010 C   0  0  0  0  0  0
  -20.7408   35.1963  -34.6475 H   0  0  0  0  0  0
  -19.6309   34.1224  -35.5648 H   0  0  0  0  0  0
  -21.2211   32.4297  -35.7767 H   0  0  0  0  0  0
  -22.4252   35.2030  -35.9260 H   0  0  0  0  0  0
  -21.5325   34.0720  -37.9104 H   0  0  0  0  0  0
  -24.6398   34.5396  -35.3176 H   0  0  0  0  0  0
  -24.8411   33.2476  -37.4184 H   0  0  0  0  0  0
  -24.1272   31.9065  -34.2227 H   0  0  0  0  0  0
  -22.4631   34.8092  -32.4827 H   0  0  0  0  0  0
  -25.9994   36.0057  -29.1988 H   0  0  0  0  0  0
  -27.8084   35.4523  -28.9726 H   0  0  0  0  0  0
  -28.5462   32.4097  -32.3502 H   0  0  0  0  0  0
  1  2  1  0  0  0
  1  3  2  0  0  0
  1  4  1  0  0  0
  1  8  1  0  0  0
  5  6  1  0  0  0
  5  7  2  0  0  0
  5  8  1  0  0  0
  5  9  1  0  0  0
  9 10  1  0  0  0
 10 11  1  0  0  0
 10 28  1  0  0  0
 10 29  1  0  0  0
 11 12  1  0  0  0
 11 13  1  0  0  0
 11 30  1  0  0  0
 12 17  1  0  0  0
 13 14  1  0  0  0
 13 15  1  0  0  0
 13 31  1  0  0  0
 14 32  1  0  0  0
 15 16  1  0  0  0
 15 17  1  0  0  0
 15 33  1  0  0  0
 16 34  1  0  0  0
 17 18  1  0  0  0
 17 35  1  0  0  0
 18 19  1  0  0  0
 18 27  1  0  0  0
 19 20  2  0  0  0
 19 36  1  0  0  0
 20 21  1  0  0  0
 21 22  2  0  0  0
 21 27  1  0  0  0
 22 23  1  0  0  0
 22 24  1  0  0  0
 23 37  1  0  0  0
 23 38  1  0  0  0
 24 25  2  0  0  0
 25 26  1  0  0  0
 25 39  1  0  0  0
 26 27  2  0  0  0
M  CHG  3   2  -1   4  -1   6  -1
M  END
> <s_m_source_file>
../4c3k_ligand.sdf

> <i_m_source_file_index>
1

> <s_epik_input>
W09IXVAoPU8pKFtPSF0pT1tQQEBdKD1PKShbT0hdKU9bQ0gyXVtDQEhdMU9bQ0BIXShbQ0BIXShbT0hdKVtDQEBIXTFbT0hdKW4oW2NIXW4yKWMoYzIzKW5bY0hdbmMzW05IMl0=

> <s_epik_cmdline>
J2VwaWtfYXBwJywgJy1pbWFlJywgJ2xpZ2FuZF9wcm8ubWFlJywgJy1vbWFlJywgJ2xpZ2FuZF9wcmVwLm1hZScsICctbXMnLCAnMScsICctcGgnLCAnNycsICctcGh0JywgJzAuNScsICctbnQn

> <r_lp_tautomer_probability>
0.999997216410988

> <r_epik_Ionization_Penalty>
  0.1037

> <r_epik_Ionization_Penalty_Charging>
  0.1033

> <r_epik_Ionization_Penalty_Neutral>
  0.0004

> <r_epik_State_Penalty>
  0.0922

> <r_epik_Charging_Adjusted_Penalty>
0.19546844050481

> <i_epik_Tot_Q>
-3

> <i_epik_Tot_abs_Q>
3

> <s_epik_Chemistry_Notes>
This compound contains an acetal/aminal-like group ( X-CH(R)-Y where X, Y are N, S, or O) that may be acid/base labile, releasing an aldehyde.

$$$$
