4c4e_ligand
                    3D
 Schrodinger Suite 2020-3.
 41 44  0  0  1  0            999 V2000
    2.9850   45.9160  124.9080 C   0  0  0  0  0  0
    1.6880   46.1390  125.4780 O   0  0  0  0  0  0
    1.6040   45.8380  126.8260 C   0  0  0  0  0  0
    1.5650   44.4880  127.2440 C   0  0  0  0  0  0
    1.3950   44.1870  128.5860 C   0  0  0  0  0  0
    1.2370   45.2290  129.5500 C   0  0  0  0  0  0
    1.3030   46.5840  129.1580 C   0  0  0  0  0  0
    1.4910   46.8900  127.7940 C   0  0  0  0  0  0
    1.6160   48.2020  127.3740 O   0  0  0  0  0  0
    0.3840   48.9170  127.2070 C   0  0  0  0  0  0
    0.9240   44.9950  130.9200 N   0  0  0  0  0  0
    0.0320   44.0400  131.4860 C   0  0  0  0  0  0
   -0.5510   43.0380  130.6520 C   0  0  0  0  0  0
   -1.3430   42.0870  131.2900 C   0  0  0  0  0  0
   -2.0070   41.0200  130.7640 N   0  0  0  0  0  0
   -2.6740   40.3730  131.8260 C   0  0  3  0  0  0
   -2.4340   41.0410  133.0050 C   0  0  0  0  0  0
   -1.5840   42.1180  132.6930 C   0  0  0  0  0  0
   -0.9800   43.1330  133.4280 C   0  0  0  0  0  0
   -0.1910   44.0850  132.8720 N   0  0  0  0  0  0
   -3.3870   39.1510  131.6160 C   0  0  0  0  0  0
   -3.4310   38.0630  132.5490 C   0  0  0  0  0  0
   -4.0700   37.0030  131.9910 N   0  3  0  0  0  0
   -4.4370   37.4040  130.7430 N   0  0  0  0  0  0
   -4.0520   38.7120  130.4720 C   0  0  0  0  0  0
    2.9661   46.1782  123.8399 H   0  0  0  0  0  0
    3.2577   44.8563  125.0206 H   0  0  0  0  0  0
    3.7259   46.5424  125.4263 H   0  0  0  0  0  0
    1.6683   43.6862  126.5128 H   0  0  0  0  0  0
    1.3817   43.1459  128.9087 H   0  0  0  0  0  0
    1.2102   47.3799  129.8969 H   0  0  0  0  0  0
    0.5979   49.9430  126.8730 H   0  0  0  0  0  0
   -0.1547   48.9482  128.1656 H   0  0  0  0  0  0
   -0.2361   48.4081  126.4543 H   0  0  0  0  0  0
    1.4017   45.6003  131.7045 H   0  0  0  0  0  0
   -0.3635   43.0471  129.5681 H   0  0  0  0  0  0
   -2.7652   40.8843  134.0422 H   0  0  0  0  0  0
   -1.1690   43.1393  134.5116 H   0  0  0  0  0  0
   -2.9818   38.1756  133.5468 H   0  0  0  0  0  0
   -4.2979   39.1679  129.5016 H   0  0  0  0  0  0
   -4.3148   35.9878  132.3367 H   0  0  0  0  0  0
  1  2  1  0  0  0
  1 26  1  0  0  0
  1 27  1  0  0  0
  1 28  1  0  0  0
  2  3  1  0  0  0
  3  4  2  0  0  0
  3  8  1  0  0  0
  4  5  1  0  0  0
  4 29  1  0  0  0
  5  6  2  0  0  0
  5 30  1  0  0  0
  6  7  1  0  0  0
  6 11  1  0  0  0
  7  8  2  0  0  0
  7 31  1  0  0  0
  8  9  1  0  0  0
  9 10  1  0  0  0
 10 32  1  0  0  0
 10 33  1  0  0  0
 10 34  1  0  0  0
 11 12  1  0  0  0
 11 35  1  0  0  0
 12 13  2  0  0  0
 12 20  1  0  0  0
 13 14  1  0  0  0
 13 36  1  0  0  0
 14 15  2  0  0  0
 14 18  1  0  0  0
 15 16  1  0  0  0
 16 17  1  0  0  0
 16 21  1  0  0  0
 17 18  2  0  0  0
 17 37  1  0  0  0
 18 19  1  0  0  0
 19 20  2  0  0  0
 19 38  1  0  0  0
 21 22  2  0  0  0
 21 25  1  0  0  0
 22 23  1  0  0  0
 22 39  1  0  0  0
 23 24  1  0  0  0
 23 41  1  0  0  0
 24 25  2  0  0  0
 25 40  1  0  0  0
M  CHG  1  23   1
M  END
> <s_m_source_file>
../4c4e_ligand.sdf

> <i_m_source_file_index>
1

> <s_epik_input>
W0NIM11PYzFbY0hdW2NIXWMoW2NIXWMxT1tDSDNdKVtOSF1jKFtjSF0yKW5bY0hdYyhjMj0zKT1bQ0hdW0NIXShOMyljNFtjSF1bbkhdbltjSF00

> <s_epik_cmdline>
J2VwaWtfYXBwJywgJy1pbWFlJywgJ2xpZ2FuZF9wcm8ubWFlJywgJy1vbWFlJywgJ2xpZ2FuZF9wcmVwLm1hZScsICctbXMnLCAnMScsICctcGgnLCAnNycsICctcGh0JywgJzAuNScsICctbnQn

> <r_epik_Ionization_Penalty>
  0.0003

> <r_epik_Ionization_Penalty_Charging>
  0.0000

> <r_epik_Ionization_Penalty_Neutral>
  0.0003

> <r_epik_State_Penalty>
  0.4107

> <r_epik_Charging_Adjusted_Penalty>
0.410679838952604

> <i_epik_Tot_Q>
1

> <i_epik_Tot_abs_Q>
1

> <s_epik_Chemistry_Notes>
This compound has an imine and may undergo hydrolysis.

$$$$
