4c4f_ligand
                    3D
 Schrodinger Suite 2020-3.
 36 39  0  0  1  0            999 V2000
   -1.6310   -6.8240  -15.5610 C   0  0  0  0  0  0
   -1.1800   -8.1410  -15.9100 O   0  0  0  0  0  0
   -1.4910   -9.2140  -15.0380 C   0  0  0  0  0  0
   -1.7370   -9.0100  -13.6510 C   0  0  0  0  0  0
   -1.8850  -10.1230  -12.7930 C   0  0  0  0  0  0
   -1.7980  -11.4380  -13.3120 C   0  0  0  0  0  0
   -1.5810  -11.6590  -14.6840 C   0  0  0  0  0  0
   -1.4240  -10.5540  -15.5750 C   0  0  0  0  0  0
   -1.1510  -10.6960  -16.9650 N   0  0  0  0  0  0
   -0.2870  -11.5830  -17.6590 C   0  0  0  0  0  0
   -0.2650  -11.4870  -19.0660 N   0  0  0  0  0  0
    0.4230  -12.4200  -19.7830 C   0  0  0  0  0  0
    0.4070  -12.5920  -16.9550 C   0  0  0  0  0  0
    1.0850  -13.5540  -17.7480 C   0  0  0  0  0  0
    1.7720  -14.6960  -17.3650 N   0  0  0  0  0  0
    2.2250  -15.3150  -18.5570 C   0  0  0  0  0  0
    1.8240  -14.5800  -19.6610 C   0  0  0  0  0  0
    1.1040  -13.4760  -19.1830 C   0  0  0  0  0  0
    2.9930  -16.5410  -18.5650 C   0  0  0  0  0  0
    3.6870  -17.2120  -17.5750 C   0  0  0  0  0  0
    4.1750  -18.4090  -18.1550 N   0  0  0  0  0  0
    3.7840  -18.4050  -19.4340 C   0  0  0  0  0  0
    3.0590  -17.2880  -19.7470 O   0  0  0  0  0  0
   -1.3109   -6.1100  -16.3341 H   0  0  0  0  0  0
   -1.1991   -6.5333  -14.5920 H   0  0  0  0  0  0
   -2.7287   -6.8193  -15.4894 H   0  0  0  0  0  0
   -1.8110   -7.9984  -13.2519 H   0  0  0  0  0  0
   -2.0665   -9.9692  -11.7293 H   0  0  0  0  0  0
   -1.9005  -12.2897  -12.6395 H   0  0  0  0  0  0
   -1.5325  -12.6777  -15.0687 H   0  0  0  0  0  0
   -1.6552  -10.0445  -17.6939 H   0  0  0  0  0  0
    0.4408  -12.3361  -20.8696 H   0  0  0  0  0  0
    0.4210  -12.6295  -15.8657 H   0  0  0  0  0  0
    2.0297  -14.8158  -20.7051 H   0  0  0  0  0  0
    3.8310  -16.8831  -16.5458 H   0  0  0  0  0  0
    4.0159  -19.1989  -20.1439 H   0  0  0  0  0  0
  1  2  1  0  0  0
  1 24  1  0  0  0
  1 25  1  0  0  0
  1 26  1  0  0  0
  2  3  1  0  0  0
  3  4  2  0  0  0
  3  8  1  0  0  0
  4  5  1  0  0  0
  4 27  1  0  0  0
  5  6  2  0  0  0
  5 28  1  0  0  0
  6  7  1  0  0  0
  6 29  1  0  0  0
  7  8  2  0  0  0
  7 30  1  0  0  0
  8  9  1  0  0  0
  9 10  1  0  0  0
  9 31  1  0  0  0
 10 11  2  0  0  0
 10 13  1  0  0  0
 11 12  1  0  0  0
 12 18  2  0  0  0
 12 32  1  0  0  0
 13 14  2  0  0  0
 13 33  1  0  0  0
 14 15  1  0  0  0
 14 18  1  0  0  0
 15 16  2  0  0  0
 16 17  1  0  0  0
 16 19  1  0  0  0
 17 18  1  0  0  0
 17 34  1  0  0  0
 19 20  2  0  0  0
 19 23  1  0  0  0
 20 21  1  0  0  0
 20 35  1  0  0  0
 21 22  2  0  0  0
 22 23  1  0  0  0
 22 36  1  0  0  0
M  END
> <s_m_source_file>
../4c4f_ligand.sdf

> <i_m_source_file_index>
1

> <s_epik_input>
W0NIM11PYzFbY0hdW2NIXVtjSF1bY0hdYzFbTkhdYyhbY0hdMiluW2NIXWMoYzIzKVtDSDJdQyg9TjMpYzRbY0hdbltjSF1vNA==

> <s_epik_cmdline>
J2VwaWtfYXBwJywgJy1pbWFlJywgJ2xpZ2FuZF9wcm8ubWFlJywgJy1vbWFlJywgJ2xpZ2FuZF9wcmVwLm1hZScsICctbXMnLCAnMScsICctcGgnLCAnNycsICctcGh0JywgJzAuNScsICctbnQn

> <r_lp_tautomer_probability>
1

> <r_epik_Ionization_Penalty>
  0.0083

> <r_epik_Ionization_Penalty_Charging>
  0.0000

> <r_epik_Ionization_Penalty_Neutral>
  0.0083

> <r_epik_State_Penalty>
 -0.0000

> <r_epik_Charging_Adjusted_Penalty>
0

> <i_epik_Tot_Q>
0

> <i_epik_Tot_abs_Q>
0

> <s_epik_Chemistry_Notes>
This compound has an imine and may undergo hydrolysis.

$$$$
