4c4g_ligand
                    3D
 Schrodinger Suite 2020-3.
 63 66  0  0  1  0            999 V2000
   -2.6130   39.5170  128.6990 O   0  0  0  0  0  0
   -1.9070   40.5010  128.8860 C   0  0  0  0  0  0
   -1.1730   41.1230  127.8820 O   0  0  0  0  0  0
   -1.2720   40.7020  126.4670 C   0  0  0  0  0  0
   -2.6300   41.1400  125.9540 C   0  0  0  0  0  0
   -0.1670   41.5110  125.8320 C   0  0  0  0  0  0
   -1.0460   39.2200  126.2400 C   0  0  0  0  0  0
   -1.7680   41.0750  130.1760 N   0  0  0  0  0  0
   -2.3070   40.5780  131.4310 C   0  0  0  0  0  0
   -3.0630   39.3360  131.6360 C   0  0  0  0  0  0
   -4.0750   38.6990  130.8290 C   0  0  0  0  0  0
   -4.5350   37.5700  131.4390 N   0  0  0  0  0  0
   -2.9470   38.5110  132.7740 C   0  0  0  0  0  0
   -3.8650   37.4820  132.6410 N   0  0  0  0  0  0
   -4.2280   36.5170  133.6860 C   0  0  0  0  0  0
   -1.0450   42.2660  130.4560 C   0  0  0  0  0  0
   -1.1420   42.4890  131.8720 C   0  0  0  0  0  0
   -1.9300   41.4520  132.4190 C   0  0  0  0  0  0
   -0.2840   43.1240  129.6260 C   0  0  0  0  0  0
    0.4030   44.1870  130.2900 C   0  0  0  0  0  0
    0.3120   44.4090  131.6850 N   0  3  0  0  0  0
   -0.4560   43.5580  132.4240 C   0  0  0  0  0  0
    1.2730   45.0210  129.5600 N   0  0  0  0  0  0
    1.3860   45.2070  128.1790 C   0  0  0  0  0  0
    1.6170   44.1340  127.3170 C   0  0  0  0  0  0
    1.8380   44.3500  125.9770 C   0  0  0  0  0  0
    1.8340   45.6310  125.4490 C   0  0  0  0  0  0
    1.5600   46.7580  126.2520 C   0  0  0  0  0  0
    1.3470   46.5440  127.6240 C   0  0  0  0  0  0
    1.0490   47.9760  128.6490 Cl  0  0  0  0  0  0
    2.2960   45.7950  124.0380 C   0  0  0  0  0  0
    3.1850   46.6180  123.7820 O   0  0  0  0  0  0
    1.7620   44.9690  123.0090 N   0  0  0  0  0  0
    2.5110   44.8000  121.7530 C   0  0  0  0  0  0
    0.3180   44.7120  122.8840 C   0  0  0  0  0  0
   -2.7601   42.2173  126.1344 H   0  0  0  0  0  0
   -3.4183   40.5822  126.4808 H   0  0  0  0  0  0
   -2.6968   40.9382  124.8747 H   0  0  0  0  0  0
   -0.3490   42.5815  126.0076 H   0  0  0  0  0  0
   -0.1449   41.3155  124.7497 H   0  0  0  0  0  0
    0.7981   41.2255  126.2760 H   0  0  0  0  0  0
   -1.8604   38.6488  126.7095 H   0  0  0  0  0  0
   -0.0853   38.9231  126.6860 H   0  0  0  0  0  0
   -1.0283   39.0130  125.1598 H   0  0  0  0  0  0
   -4.4236   39.0692  129.8649 H   0  0  0  0  0  0
   -2.2596   38.6566  133.6073 H   0  0  0  0  0  0
   -4.9807   35.8174  133.2936 H   0  0  0  0  0  0
   -4.6424   37.0533  134.5524 H   0  0  0  0  0  0
   -3.3329   35.9572  133.9950 H   0  0  0  0  0  0
   -2.1989   41.3598  133.4713 H   0  0  0  0  0  0
   -0.2256   42.9826  128.5468 H   0  0  0  0  0  0
   -0.5334   43.7269  133.4980 H   0  0  0  0  0  0
    2.0028   45.6517  130.0887 H   0  0  0  0  0  0
    1.6223   43.1169  127.7089 H   0  0  0  0  0  0
    2.0193   43.4997  125.3196 H   0  0  0  0  0  0
    1.5152   47.7591  125.8232 H   0  0  0  0  0  0
    3.5763   45.0091  121.9304 H   0  0  0  0  0  0
    2.1213   45.4976  120.9970 H   0  0  0  0  0  0
    2.3950   43.7670  121.3931 H   0  0  0  0  0  0
   -0.1664   44.8589  123.8606 H   0  0  0  0  0  0
    0.1576   43.6772  122.5470 H   0  0  0  0  0  0
   -0.1161   45.4078  122.1510 H   0  0  0  0  0  0
    0.8524   45.2497  132.1445 H   0  0  0  0  0  0
  1  2  2  0  0  0
  2  3  1  0  0  0
  2  8  1  0  0  0
  3  4  1  0  0  0
  4  5  1  0  0  0
  4  6  1  0  0  0
  4  7  1  0  0  0
  5 36  1  0  0  0
  5 37  1  0  0  0
  5 38  1  0  0  0
  6 39  1  0  0  0
  6 40  1  0  0  0
  6 41  1  0  0  0
  7 42  1  0  0  0
  7 43  1  0  0  0
  7 44  1  0  0  0
  8  9  1  0  0  0
  8 16  1  0  0  0
  9 10  1  0  0  0
  9 18  2  0  0  0
 10 11  1  0  0  0
 10 13  2  0  0  0
 11 12  2  0  0  0
 11 45  1  0  0  0
 12 14  1  0  0  0
 13 14  1  0  0  0
 13 46  1  0  0  0
 14 15  1  0  0  0
 15 47  1  0  0  0
 15 48  1  0  0  0
 15 49  1  0  0  0
 16 17  2  0  0  0
 16 19  1  0  0  0
 17 18  1  0  0  0
 17 22  1  0  0  0
 18 50  1  0  0  0
 19 20  2  0  0  0
 19 51  1  0  0  0
 20 21  1  0  0  0
 20 23  1  0  0  0
 21 22  2  0  0  0
 21 63  1  0  0  0
 22 52  1  0  0  0
 23 24  1  0  0  0
 23 53  1  0  0  0
 24 25  2  0  0  0
 24 29  1  0  0  0
 25 26  1  0  0  0
 25 54  1  0  0  0
 26 27  2  0  0  0
 26 55  1  0  0  0
 27 28  1  0  0  0
 27 31  1  0  0  0
 28 29  2  0  0  0
 28 56  1  0  0  0
 29 30  1  0  0  0
 31 32  2  0  0  0
 31 33  1  0  0  0
 33 34  1  0  0  0
 33 35  1  0  0  0
 34 57  1  0  0  0
 34 58  1  0  0  0
 34 59  1  0  0  0
 35 60  1  0  0  0
 35 61  1  0  0  0
 35 62  1  0  0  0
M  CHG  1  21   1
M  END
> <s_m_source_file>
../4c4g_ligand.sdf

> <i_m_source_file_index>
1

> <s_epik_input>
W0NIM11DKFtDSDNdKShbQ0gzXSlPQyg9TyluMWMoLWMyW2NIXW5uKFtjSF0yKVtDSDNdKVtjSF1jKGMxMylbY0hdbmMoW2NIXTMpW05IXWM0W2NIXVtjSF1jKFtjSF1jNENsKUMoPU8pTihbQ0gzXSlbQ0gzXQ==

> <s_epik_cmdline>
J2VwaWtfYXBwJywgJy1pbWFlJywgJ2xpZ2FuZF9wcm8ubWFlJywgJy1vbWFlJywgJ2xpZ2FuZF9wcmVwLm1hZScsICctbXMnLCAnMScsICctcGgnLCAnNycsICctcGh0JywgJzAuNScsICctbnQn

> <r_lp_tautomer_probability>
1

> <r_epik_Ionization_Penalty>
  0.0750

> <r_epik_Ionization_Penalty_Charging>
  0.0728

> <r_epik_Ionization_Penalty_Neutral>
  0.0022

> <r_epik_State_Penalty>
  0.0640

> <r_epik_Charging_Adjusted_Penalty>
0.136793561663374

> <i_epik_Tot_Q>
1

> <i_epik_Tot_abs_Q>
1

> <s_epik_Chemistry_Notes>
This compound has an ester and may undergo hydrolysis at high or low pH.

$$$$
