4c4h_ligand
                    3D
 Schrodinger Suite 2020-3.
 63 66  0  0  1  0            999 V2000
    3.1860  -36.8960  -14.7900 O   0  0  0  0  0  0
    2.3840  -36.6200  -13.9250 C   0  0  0  0  0  0
    1.5830  -37.5830  -13.2530 O   0  0  0  0  0  0
    1.6130  -39.0650  -13.4890 C   0  0  0  0  0  0
    1.4550  -39.4110  -14.9560 C   0  0  0  0  0  0
    2.9280  -39.5730  -12.9360 C   0  0  0  0  0  0
    0.4540  -39.6220  -12.6970 C   0  0  0  0  0  0
    2.1830  -35.2590  -13.5200 N   0  0  0  0  0  0
    2.6440  -34.0500  -14.1720 C   0  0  0  0  0  0
    3.3760  -33.9640  -15.4080 C   0  0  0  0  0  0
    4.5920  -34.6140  -15.8470 C   0  0  0  0  0  0
    4.9410  -34.1860  -17.0980 N   0  0  0  0  0  0
    3.0150  -33.1200  -16.4590 C   0  0  0  0  0  0
    3.9760  -33.2720  -17.4410 N   0  0  0  0  0  0
    4.0210  -32.5020  -18.6700 C   0  0  0  0  0  0
    1.4220  -34.8540  -12.3770 C   0  0  0  0  0  0
    1.4150  -33.4160  -12.3700 C   0  0  0  0  0  0
    2.1920  -32.9620  -13.4690 C   0  0  0  0  0  0
    0.7140  -35.5820  -11.3920 C   0  0  0  0  0  0
   -0.0310  -34.7960  -10.4460 C   0  0  0  0  0  0
   -0.0450  -33.4040  -10.4460 N   0  3  0  0  0  0
    0.6630  -32.7560  -11.3880 C   0  0  0  0  0  0
   -0.8620  -35.4100   -9.4970 N   0  0  0  0  0  0
   -1.1470  -36.7680   -9.2740 C   0  0  0  0  0  0
   -1.5230  -37.6520  -10.3150 C   0  0  0  0  0  0
   -1.7940  -38.9780  -10.0440 C   0  0  0  0  0  0
   -1.7030  -39.4680   -8.7420 C   0  0  0  0  0  0
   -1.3360  -38.6460   -7.6640 C   0  0  0  0  0  0
   -1.0580  -37.2940   -7.9410 C   0  0  0  0  0  0
   -0.5460  -36.2800   -6.6130 Cl  0  0  0  0  0  0
   -2.0440  -40.8780   -8.5230 C   0  0  0  0  0  0
   -3.0000  -41.1590   -7.8230 O   0  0  0  0  0  0
   -1.2610  -41.8740   -9.1820 N   0  0  0  0  0  0
    0.2080  -41.8190   -9.2690 C   0  0  0  0  0  0
   -1.8290  -43.2040   -9.4580 C   0  0  0  0  0  0
    2.3038  -39.0009  -15.5229 H   0  0  0  0  0  0
    0.5174  -38.9789  -15.3357 H   0  0  0  0  0  0
    1.4292  -40.5043  -15.0741 H   0  0  0  0  0  0
    3.7586  -39.1570  -13.5250 H   0  0  0  0  0  0
    2.9507  -40.6712  -12.9948 H   0  0  0  0  0  0
    3.0298  -39.2598  -11.8865 H   0  0  0  0  0  0
   -0.4907  -39.2422  -13.1132 H   0  0  0  0  0  0
    0.5439  -39.3091  -11.6463 H   0  0  0  0  0  0
    0.4647  -40.7204  -12.7547 H   0  0  0  0  0  0
    5.1520  -35.3434  -15.2618 H   0  0  0  0  0  0
    2.1433  -32.4668  -16.4981 H   0  0  0  0  0  0
    4.8841  -32.8224  -19.2720 H   0  0  0  0  0  0
    4.1182  -31.4330  -18.4296 H   0  0  0  0  0  0
    3.0948  -32.6669  -19.2401 H   0  0  0  0  0  0
    2.3958  -31.9196  -13.7138 H   0  0  0  0  0  0
    0.7321  -36.6711  -11.3526 H   0  0  0  0  0  0
    0.6516  -31.6661  -11.3880 H   0  0  0  0  0  0
   -1.4166  -34.7959   -8.7722 H   0  0  0  0  0  0
   -1.5989  -37.2824  -11.3376 H   0  0  0  0  0  0
   -2.0815  -39.6475  -10.8546 H   0  0  0  0  0  0
   -1.2689  -39.0404   -6.6501 H   0  0  0  0  0  0
    0.5502  -40.7967   -9.0504 H   0  0  0  0  0  0
    0.5261  -42.1033  -10.2829 H   0  0  0  0  0  0
    0.6449  -42.5160   -8.5387 H   0  0  0  0  0  0
   -2.9248  -43.1596   -9.3729 H   0  0  0  0  0  0
   -1.4339  -43.9294   -8.7315 H   0  0  0  0  0  0
   -1.5526  -43.5167  -10.4758 H   0  0  0  0  0  0
   -0.6262  -32.8598   -9.6870 H   0  0  0  0  0  0
  1  2  2  0  0  0
  2  3  1  0  0  0
  2  8  1  0  0  0
  3  4  1  0  0  0
  4  5  1  0  0  0
  4  6  1  0  0  0
  4  7  1  0  0  0
  5 36  1  0  0  0
  5 37  1  0  0  0
  5 38  1  0  0  0
  6 39  1  0  0  0
  6 40  1  0  0  0
  6 41  1  0  0  0
  7 42  1  0  0  0
  7 43  1  0  0  0
  7 44  1  0  0  0
  8  9  1  0  0  0
  8 16  1  0  0  0
  9 10  1  0  0  0
  9 18  2  0  0  0
 10 11  1  0  0  0
 10 13  2  0  0  0
 11 12  2  0  0  0
 11 45  1  0  0  0
 12 14  1  0  0  0
 13 14  1  0  0  0
 13 46  1  0  0  0
 14 15  1  0  0  0
 15 47  1  0  0  0
 15 48  1  0  0  0
 15 49  1  0  0  0
 16 17  2  0  0  0
 16 19  1  0  0  0
 17 18  1  0  0  0
 17 22  1  0  0  0
 18 50  1  0  0  0
 19 20  2  0  0  0
 19 51  1  0  0  0
 20 21  1  0  0  0
 20 23  1  0  0  0
 21 22  2  0  0  0
 21 63  1  0  0  0
 22 52  1  0  0  0
 23 24  1  0  0  0
 23 53  1  0  0  0
 24 25  2  0  0  0
 24 29  1  0  0  0
 25 26  1  0  0  0
 25 54  1  0  0  0
 26 27  2  0  0  0
 26 55  1  0  0  0
 27 28  1  0  0  0
 27 31  1  0  0  0
 28 29  2  0  0  0
 28 56  1  0  0  0
 29 30  1  0  0  0
 31 32  2  0  0  0
 31 33  1  0  0  0
 33 34  1  0  0  0
 33 35  1  0  0  0
 34 57  1  0  0  0
 34 58  1  0  0  0
 34 59  1  0  0  0
 35 60  1  0  0  0
 35 61  1  0  0  0
 35 62  1  0  0  0
M  CHG  1  21   1
M  END
> <s_m_source_file>
../4c4h_ligand.sdf

> <i_m_source_file_index>
1

> <s_epik_input>
W0NIM11DKFtDSDNdKShbQ0gzXSlPQyg9TyluMWMoLWMyW2NIXW5uKFtjSF0yKVtDSDNdKVtjSF1jKGMxMylbY0hdbmMoW2NIXTMpW05IXWM0W2NIXVtjSF1jKFtjSF1jNENsKUMoPU8pTihbQ0gzXSlbQ0gzXQ==

> <s_epik_cmdline>
J2VwaWtfYXBwJywgJy1pbWFlJywgJ2xpZ2FuZF9wcm8ubWFlJywgJy1vbWFlJywgJ2xpZ2FuZF9wcmVwLm1hZScsICctbXMnLCAnMScsICctcGgnLCAnNycsICctcGh0JywgJzAuNScsICctbnQn

> <r_lp_tautomer_probability>
1

> <r_epik_Ionization_Penalty>
  0.0750

> <r_epik_Ionization_Penalty_Charging>
  0.0728

> <r_epik_Ionization_Penalty_Neutral>
  0.0022

> <r_epik_State_Penalty>
  0.0640

> <r_epik_Charging_Adjusted_Penalty>
0.136793561663376

> <i_epik_Tot_Q>
1

> <i_epik_Tot_abs_Q>
1

> <s_epik_Chemistry_Notes>
This compound has an ester and may undergo hydrolysis at high or low pH.

$$$$
