4c4i_ligand
                    3D
 Schrodinger Suite 2020-3.
 59 62  0  0  1  0            999 V2000
   -2.0840  -15.7160  -13.9840 C   0  0  0  0  0  0
   -1.8840  -17.0640  -13.5930 N   0  0  0  0  0  0
   -2.7540  -15.3780  -14.9220 O   0  0  0  0  0  0
    0.7590  -16.1280   -6.7800 Cl  0  0  0  0  0  0
   -1.1500  -17.5050  -12.4840 C   0  0  0  0  0  0
    0.9160  -16.9620   -9.5440 N   0  0  0  0  0  0
    2.9900  -11.2190   -7.7960 O   0  0  0  0  0  0
   -0.4520  -16.8050  -11.5100 C   0  0  0  0  0  0
    1.3910  -10.5560   -9.2550 N   0  0  0  0  0  0
   -2.9010  -19.1680  -16.3980 O   0  0  0  0  0  0
    0.1900  -17.6010  -10.5440 C   0  0  0  0  0  0
    0.1560  -18.9770  -10.5180 N   0  3  0  0  0  0
   -1.4350  -14.8260  -13.1900 O   0  0  0  0  0  0
    1.1810  -15.6020   -9.3900 C   0  0  0  0  0  0
   -4.5890  -17.9150  -17.1780 N   0  0  0  0  0  0
    1.4950  -14.7210  -10.4270 C   0  0  0  0  0  0
    1.7790  -13.3980  -10.1450 C   0  0  0  0  0  0
    1.7560  -12.9350   -8.8370 C   0  0  0  0  0  0
    2.1050  -11.5250   -8.5770 C   0  0  0  0  0  0
    1.5640   -9.1330   -8.9220 C   0  0  0  0  0  0
    0.0940  -10.8800   -9.8710 C   0  0  0  0  0  0
    1.4350  -13.7810   -7.7940 C   0  0  0  0  0  0
    1.1550  -15.0920   -8.0920 C   0  0  0  0  0  0
   -0.5290  -19.5990  -11.4720 C   0  0  0  0  0  0
   -1.1980  -18.9170  -12.4770 C   0  0  0  0  0  0
   -1.9730  -19.3410  -13.5930 C   0  0  0  0  0  0
   -2.3830  -18.2260  -14.2650 C   0  0  0  0  0  0
   -3.1680  -18.2130  -15.4580 C   0  0  0  0  0  0
   -4.2040  -17.4310  -15.9170 C   0  0  0  0  0  0
   -3.7850  -18.9440  -17.4140 C   0  0  0  0  0  0
   -1.4250  -13.4240  -13.6100 C   0  0  0  0  0  0
   -0.8420  -13.3540  -15.0020 C   0  0  0  0  0  0
   -0.5780  -12.6590  -12.6200 C   0  0  0  0  0  0
   -2.8590  -12.9480  -13.5900 C   0  0  0  0  0  0
    1.3704  -17.5500   -8.7330 H   0  0  0  0  0  0
   -0.4046  -15.7161  -11.4946 H   0  0  0  0  0  0
    1.5161  -15.0761  -11.4573 H   0  0  0  0  0  0
    2.0230  -12.7127  -10.9567 H   0  0  0  0  0  0
    2.5546   -8.9803   -8.4688 H   0  0  0  0  0  0
    0.7837   -8.8255   -8.2102 H   0  0  0  0  0  0
    1.4830   -8.5296   -9.8381 H   0  0  0  0  0  0
    0.0493  -11.9578  -10.0861 H   0  0  0  0  0  0
   -0.0186  -10.3142  -10.8076 H   0  0  0  0  0  0
   -0.7179  -10.6101   -9.1796 H   0  0  0  0  0  0
    1.4048  -13.4195   -6.7661 H   0  0  0  0  0  0
   -0.5664  -20.6883  -11.4641 H   0  0  0  0  0  0
   -2.1989  -20.3726  -13.8630 H   0  0  0  0  0  0
   -4.6478  -16.5843  -15.3933 H   0  0  0  0  0  0
   -3.8260  -19.5459  -18.3218 H   0  0  0  0  0  0
    0.1998  -13.7065  -14.9813 H   0  0  0  0  0  0
   -0.8702  -12.3141  -15.3595 H   0  0  0  0  0  0
   -1.4311  -13.9904  -15.6787 H   0  0  0  0  0  0
    0.4571  -13.0292  -12.6599 H   0  0  0  0  0  0
   -0.9798  -12.8022  -11.6061 H   0  0  0  0  0  0
   -0.5947  -11.5887  -12.8733 H   0  0  0  0  0  0
   -3.4467  -13.5239  -14.3201 H   0  0  0  0  0  0
   -2.8945  -11.8801  -13.8513 H   0  0  0  0  0  0
   -3.2796  -13.0936  -12.5841 H   0  0  0  0  0  0
    0.6853  -19.5254   -9.7248 H   0  0  0  0  0  0
  1  2  1  0  0  0
  1  3  2  0  0  0
  1 13  1  0  0  0
  2  5  1  0  0  0
  2 27  1  0  0  0
  4 23  1  0  0  0
  5  8  1  0  0  0
  5 25  2  0  0  0
  6 11  1  0  0  0
  6 14  1  0  0  0
  6 35  1  0  0  0
  7 19  2  0  0  0
  8 11  2  0  0  0
  8 36  1  0  0  0
  9 19  1  0  0  0
  9 20  1  0  0  0
  9 21  1  0  0  0
 10 28  1  0  0  0
 10 30  1  0  0  0
 11 12  1  0  0  0
 12 24  2  0  0  0
 12 59  1  0  0  0
 13 31  1  0  0  0
 14 16  2  0  0  0
 14 23  1  0  0  0
 15 29  1  0  0  0
 15 30  2  0  0  0
 16 17  1  0  0  0
 16 37  1  0  0  0
 17 18  2  0  0  0
 17 38  1  0  0  0
 18 19  1  0  0  0
 18 22  1  0  0  0
 20 39  1  0  0  0
 20 40  1  0  0  0
 20 41  1  0  0  0
 21 42  1  0  0  0
 21 43  1  0  0  0
 21 44  1  0  0  0
 22 23  2  0  0  0
 22 45  1  0  0  0
 24 25  1  0  0  0
 24 46  1  0  0  0
 25 26  1  0  0  0
 26 27  2  0  0  0
 26 47  1  0  0  0
 27 28  1  0  0  0
 28 29  2  0  0  0
 29 48  1  0  0  0
 30 49  1  0  0  0
 31 32  1  0  0  0
 31 33  1  0  0  0
 31 34  1  0  0  0
 32 50  1  0  0  0
 32 51  1  0  0  0
 32 52  1  0  0  0
 33 53  1  0  0  0
 33 54  1  0  0  0
 33 55  1  0  0  0
 34 56  1  0  0  0
 34 57  1  0  0  0
 34 58  1  0  0  0
M  CHG  1  12   1
M  END
> <s_m_source_file>
../4c4i_ligand.sdf

> <i_m_source_file_index>
1

> <s_epik_input>
W2NIXTFuW2NIXW9jMS1jKG4yQyg9TylPQyhbQ0gzXSkoW0NIM10pW0NIM10pW2NIXWMoYzIzKVtjSF1uYyhbY0hdMylbTkhdYzRbY0hdW2NIXWMoW2NIXWM0Q2wpQyg9TylOKFtDSDNdKVtDSDNd

> <s_epik_cmdline>
J2VwaWtfYXBwJywgJy1pbWFlJywgJ2xpZ2FuZF9wcm8ubWFlJywgJy1vbWFlJywgJ2xpZ2FuZF9wcmVwLm1hZScsICctbXMnLCAnMScsICctcGgnLCAnNycsICctcGh0JywgJzAuNScsICctbnQn

> <r_epik_Ionization_Penalty>
  0.0755

> <r_epik_Ionization_Penalty_Charging>
  0.0728

> <r_epik_Ionization_Penalty_Neutral>
  0.0027

> <r_epik_State_Penalty>
  0.0640

> <r_epik_Charging_Adjusted_Penalty>
0.136793561663375

> <i_epik_Tot_Q>
1

> <i_epik_Tot_abs_Q>
1

> <s_epik_Chemistry_Notes>
This compound has an ester and may undergo hydrolysis at high or low pH.

$$$$
