4c4j_ligand
                    3D
 Schrodinger Suite 2020-3.
 63 67  0  0  1  0            999 V2000
    4.6010   21.4280   38.3640 C   0  0  0  0  0  0
    4.4090   20.7820   39.6790 N   0  0  0  0  0  0
    1.6930   17.0480   44.1580 O   0  0  0  0  0  0
   -0.3600   19.0560   50.7650 Cl  0  0  0  0  0  0
    4.7690   19.5260   41.4310 C   0  0  0  0  0  0
    5.2480   19.8070   40.1820 N   0  0  0  0  0  0
    3.0960   17.5520   42.4610 O   0  0  0  0  0  0
    3.4030   21.1080   40.5660 C   0  0  0  0  0  0
    0.1130   21.5330   46.5000 N   0  3  0  0  0  0
    3.6030   20.3300   41.7110 C   0  0  0  0  0  0
   -0.6820   19.6460   47.7980 N   0  0  0  0  0  0
    2.7800   20.4160   42.9020 C   0  0  0  0  0  0
   -2.0050   11.9930   48.9600 N   0  0  0  0  0  0
    2.3630   21.5850   43.4720 C   0  0  0  0  0  0
   -2.8260   13.7340   50.1380 N   0  0  0  0  0  0
    1.5870   21.2770   44.6290 C   0  0  0  0  0  0
    2.2790   19.2980   43.6690 N   0  0  0  0  0  0
    0.8540   22.0540   45.5230 C   0  0  0  0  0  0
    0.0880   20.1390   46.6860 C   0  0  0  0  0  0
   -0.9680   18.3000   48.1740 C   0  0  0  0  0  0
   -0.9110   17.9090   49.5780 C   0  0  0  0  0  0
   -1.2050   16.5960   50.0150 C   0  0  0  0  0  0
   -1.5510   15.6540   48.9960 C   0  0  0  0  0  0
   -1.8370   14.2610   49.2300 C   0  0  0  0  0  0
   -1.3440   13.1480   48.5300 C   0  0  0  0  0  0
   -2.8960   12.4210   49.9400 C   0  0  0  0  0  0
   -3.6040   14.5140   51.1020 C   0  0  0  0  0  0
   -1.5910   16.0370   47.6440 C   0  0  0  0  0  0
   -1.3080   17.3060   47.2310 C   0  0  0  0  0  0
    0.8040   19.2350   45.8410 C   0  0  0  0  0  0
    1.5430   19.8320   44.7790 C   0  0  0  0  0  0
    2.4020   17.9220   43.3700 C   0  0  0  0  0  0
    1.7820   15.5740   44.0050 C   0  0  0  0  0  0
    1.3760   15.1130   42.6200 C   0  0  0  0  0  0
    0.7950   15.0870   45.0420 C   0  0  0  0  0  0
    3.1890   15.1270   44.3380 C   0  0  0  0  0  0
    5.4716   20.9827   37.8604 H   0  0  0  0  0  0
    4.7710   22.5054   38.5061 H   0  0  0  0  0  0
    3.7032   21.2768   37.7466 H   0  0  0  0  0  0
    5.2047   18.7995   42.1169 H   0  0  0  0  0  0
    2.6052   21.8331   40.4050 H   0  0  0  0  0  0
   -1.1469   20.3525   48.5014 H   0  0  0  0  0  0
    2.5859   22.5866   43.1042 H   0  0  0  0  0  0
    0.8882   23.1384   45.4184 H   0  0  0  0  0  0
   -1.1698   16.3181   51.0684 H   0  0  0  0  0  0
   -0.5652   13.1794   47.7680 H   0  0  0  0  0  0
   -3.5713   11.7582   50.4811 H   0  0  0  0  0  0
   -3.3215   15.5746   51.0286 H   0  0  0  0  0  0
   -3.3988   14.1494   52.1193 H   0  0  0  0  0  0
   -4.6762   14.4041   50.8824 H   0  0  0  0  0  0
   -1.8587   15.2906   46.8962 H   0  0  0  0  0  0
   -1.3445   17.5531   46.1700 H   0  0  0  0  0  0
    0.7857   18.1567   45.9992 H   0  0  0  0  0  0
    0.3515   15.4518   42.4065 H   0  0  0  0  0  0
    1.4165   14.0148   42.5726 H   0  0  0  0  0  0
    2.0653   15.5378   41.8754 H   0  0  0  0  0  0
   -0.2163   15.4266   44.7736 H   0  0  0  0  0  0
    1.0685   15.4924   46.0273 H   0  0  0  0  0  0
    0.8149   13.9878   45.0793 H   0  0  0  0  0  0
    3.8827   15.4953   43.5678 H   0  0  0  0  0  0
    3.2267   14.0281   44.3701 H   0  0  0  0  0  0
    3.4803   15.5327   45.3181 H   0  0  0  0  0  0
   -0.4748   22.1922   47.1557 H   0  0  0  0  0  0
  1  2  1  0  0  0
  1 37  1  0  0  0
  1 38  1  0  0  0
  1 39  1  0  0  0
  2  6  1  0  0  0
  2  8  1  0  0  0
  3 32  1  0  0  0
  3 33  1  0  0  0
  4 21  1  0  0  0
  5  6  2  0  0  0
  5 10  1  0  0  0
  5 40  1  0  0  0
  7 32  2  0  0  0
  8 10  2  0  0  0
  8 41  1  0  0  0
  9 18  1  0  0  0
  9 19  2  0  0  0
  9 63  1  0  0  0
 10 12  1  0  0  0
 11 19  1  0  0  0
 11 20  1  0  0  0
 11 42  1  0  0  0
 12 14  2  0  0  0
 12 17  1  0  0  0
 13 25  1  0  0  0
 13 26  2  0  0  0
 14 16  1  0  0  0
 14 43  1  0  0  0
 15 24  1  0  0  0
 15 26  1  0  0  0
 15 27  1  0  0  0
 16 18  2  0  0  0
 16 31  1  0  0  0
 17 31  1  0  0  0
 17 32  1  0  0  0
 18 44  1  0  0  0
 19 30  1  0  0  0
 20 21  2  0  0  0
 20 29  1  0  0  0
 21 22  1  0  0  0
 22 23  2  0  0  0
 22 45  1  0  0  0
 23 24  1  0  0  0
 23 28  1  0  0  0
 24 25  2  0  0  0
 25 46  1  0  0  0
 26 47  1  0  0  0
 27 48  1  0  0  0
 27 49  1  0  0  0
 27 50  1  0  0  0
 28 29  2  0  0  0
 28 51  1  0  0  0
 29 52  1  0  0  0
 30 31  2  0  0  0
 30 53  1  0  0  0
 33 34  1  0  0  0
 33 35  1  0  0  0
 33 36  1  0  0  0
 34 54  1  0  0  0
 34 55  1  0  0  0
 34 56  1  0  0  0
 35 57  1  0  0  0
 35 58  1  0  0  0
 35 59  1  0  0  0
 36 60  1  0  0  0
 36 61  1  0  0  0
 36 62  1  0  0  0
M  CHG  1   9   1
M  END
> <s_m_source_file>
../4c4j_ligand.sdf

> <i_m_source_file_index>
1

> <s_epik_input>
W0NIM11uMW5bY0hdYyhbY0hdMSktYyhbY0hdMiluKEMoPU8pT0MoW0NIM10pKFtDSDNdKVtDSDNdKWMoYzIzKVtjSF1jKG5bY0hdMylbTkhdYzRjKENsKVtjSF1jKFtjSF1bY0hdNCktYyhuNVtDSDNdKVtjSF1uW2NIXTU=

> <s_epik_cmdline>
J2VwaWtfYXBwJywgJy1pbWFlJywgJ2xpZ2FuZF9wcm8ubWFlJywgJy1vbWFlJywgJ2xpZ2FuZF9wcmVwLm1hZScsICctbXMnLCAnMScsICctcGgnLCAnNycsICctcGh0JywgJzAuNScsICctbnQn

> <r_lp_tautomer_probability>
1

> <r_epik_Ionization_Penalty>
  0.3368

> <r_epik_Ionization_Penalty_Charging>
  0.3367

> <r_epik_Ionization_Penalty_Neutral>
  0.0001

> <r_epik_State_Penalty>
  0.2558

> <r_epik_Charging_Adjusted_Penalty>
0.592481520452016

> <i_epik_Tot_Q>
1

> <i_epik_Tot_abs_Q>
1

> <s_epik_Chemistry_Notes>
This compound has an ester and may undergo hydrolysis at high or low pH.

$$$$
