4c4n_ligand
                    3D
 Schrodinger Suite 2020-3.
165170  0  0  1  0            999 V2000
   -1.5950    1.3930  -15.6390 C   0  0  2  0  0  0
   -2.8950    1.6780  -14.8890 C   0  0  1  0  0  0
   -2.7200    2.6080  -13.6910 C   0  0  2  0  0  0
   -1.7340    3.7450  -13.9650 C   0  0  1  0  0  0
   -0.4830    3.2270  -14.6700 C   0  0  2  0  0  0
    0.4900    4.3350  -14.9510 C   0  0  0  0  0  0
   -0.7920    0.4960  -14.8630 O   0  0  0  0  0  0
   -3.8280    2.2550  -15.7970 O   0  0  0  0  0  0
   -2.2890    1.8280  -12.5690 O   0  0  0  0  0  0
   -2.3850    4.7610  -14.7460 O   0  0  0  0  0  0
   -0.8800    2.6030  -15.8870 O   0  0  0  0  0  0
    0.3360    5.0140  -15.9880 O   0  0  0  0  0  0
    1.4210    4.5330  -14.1400 O   0  0  0  0  0  0
   -3.7110    1.9080  -17.2860 S   0  0  0  0  0  0
   -3.7590    3.1250  -18.0490 O   0  0  0  0  0  0
   -4.9460    0.9250  -17.7190 O   0  0  0  0  0  0
   -2.4610    1.2360  -17.5230 O   0  0  0  0  0  0
   -3.0420    5.6620  -13.8330 C   0  0  2  0  0  0
   -3.9710    6.6360  -14.5550 C   0  0  1  0  0  0
   -3.1770    7.5170  -15.5100 C   0  0  2  0  0  0
   -2.0740    8.2220  -14.7240 C   0  0  1  0  0  0
   -1.2580    7.2260  -13.9060 C   0  0  1  0  0  0
   -0.2320    7.9700  -13.0540 C   0  0  0  0  0  0
   -5.0500    5.9590  -15.2560 N   0  0  3  0  0  0
   -4.0520    8.4730  -16.1240 O   0  0  0  0  0  0
   -1.1870    8.9380  -15.5950 O   0  0  0  0  0  0
   -2.1090    6.4290  -13.0750 O   0  0  0  0  0  0
   -0.8850    8.8170  -12.1090 O   0  0  0  0  0  0
   -6.5310    6.5890  -15.2760 S   0  0  0  0  0  0
   -7.4760    5.6190  -14.7950 O   0  0  0  0  0  0
   -6.5690    7.7570  -14.4360 O   0  0  0  0  0  0
   -6.9340    7.0070  -16.8050 O   0  0  0  0  0  0
   -0.5160    8.7140  -10.6230 S   0  0  0  0  0  0
   -1.2830    7.6610  -10.0210 O   0  0  0  0  0  0
   -0.8250   10.1270   -9.8590 O   0  0  0  0  0  0
    0.8850    8.4170  -10.4990 O   0  0  0  0  0  0
   -1.0510   10.2770  -15.0760 C   0  0  1  0  0  0
    0.1100   10.9960  -15.7720 C   0  0  1  0  0  0
   -0.2710   11.3410  -17.2110 C   0  0  2  0  0  0
   -1.6600   11.9690  -17.2870 C   0  0  1  0  0  0
   -2.6920   11.1090  -16.5730 C   0  0  2  0  0  0
   -4.0670   11.7160  -16.6730 C   0  0  0  0  0  0
    0.4950   12.1930  -15.0740 O   0  0  0  0  0  0
   -0.2350   10.1520  -18.0100 O   0  0  0  0  0  0
   -1.6220   13.2610  -16.6730 O   0  0  0  0  0  0
   -2.2770   11.0030  -15.2120 O   0  0  0  0  0  0
   -4.3860   12.3230  -17.7180 O   0  0  0  0  0  0
   -4.8450   11.5870  -15.7050 O   0  0  0  0  0  0
    1.6120   12.2190  -14.0010 S   0  0  0  0  0  0
    1.4430   13.3640  -13.1440 O   0  0  0  0  0  0
    3.1090   12.3090  -14.6680 O   0  0  0  0  0  0
    1.5390   11.0180  -13.2160 O   0  0  0  0  0  0
   -1.2670   14.2100  -17.6850 C   0  0  2  0  0  0
   -0.5140   15.3790  -17.0580 C   0  0  1  0  0  0
   -1.4430   16.1650  -16.1500 C   0  0  2  0  0  0
   -2.5530   16.6830  -17.0510 C   0  0  1  0  0  0
   -3.3080   15.4920  -17.6450 C   0  0  1  0  0  0
   -4.4400   15.9380  -18.5690 C   0  0  0  0  0  0
    0.6670   14.9230  -16.3560 N   0  0  3  0  0  0
   -0.7540   17.2410  -15.5090 O   0  0  0  0  0  0
   -3.4240   17.5690  -16.3330 O   0  0  0  0  0  0
   -2.4120   14.6750  -18.4040 O   0  0  0  0  0  0
   -4.1050   17.1870  -19.1840 O   0  0  0  0  0  0
    2.1040   15.1570  -17.0200 S   0  0  0  0  0  0
    3.1170   15.0290  -16.0120 O   0  0  0  0  0  0
    2.3190   14.1800  -18.0470 O   0  0  0  0  0  0
    2.1530   16.6460  -17.6990 O   0  0  0  0  0  0
   -4.1230   17.3730  -20.7110 S   0  0  0  0  0  0
   -3.5510   18.6460  -21.0520 O   0  0  0  0  0  0
   -5.6630   17.3150  -21.2600 O   0  0  0  0  0  0
   -3.3540   16.3260  -21.3170 O   0  0  0  0  0  0
   -3.7460   18.6920  -17.1860 C   0  0  1  0  0  0
   -4.9230   19.4900  -16.6040 C   0  0  1  0  0  0
   -4.7030   21.0180  -16.6890 C   0  0  2  0  0  0
   -3.3330   21.4860  -16.1820 C   0  0  1  0  0  0
   -2.3650   20.3040  -16.2110 C   0  0  2  0  0  0
   -0.9240   20.7310  -16.1310 C   0  0  0  0  0  0
   -6.1440   19.1090  -17.2790 O   0  0  0  0  0  0
   -5.6970   21.6990  -15.9130 O   0  0  0  0  0  0
   -2.8450   22.5970  -16.9640 O   0  0  0  0  0  0
   -2.6180   19.5460  -17.3910 O   0  0  0  0  0  0
   -0.2080   20.6350  -17.1500 O   0  0  0  0  0  0
   -0.4880   21.1530  -15.0370 O   0  0  0  0  0  0
   -6.9540   17.8400  -16.9080 S   0  0  0  0  0  0
   -8.2490   17.8620  -17.5400 O   0  0  0  0  0  0
   -7.1350   17.7540  -15.2840 O   0  0  0  0  0  0
   -6.2610   16.6610  -17.3450 O   0  0  0  0  0  0
   -2.5030   23.7130  -16.1050 C   0  0  2  0  0  0
   -3.4790   24.8710  -16.2830 C   0  0  1  0  0  0
   -3.3950   25.3840  -17.7090 C   0  0  2  0  0  0
   -2.0200   26.0100  -17.8300 C   0  0  1  0  0  0
   -0.9550   24.9580  -17.5470 C   0  0  1  0  0  0
    0.3930   25.6840  -17.5750 C   0  0  0  0  0  0
   -4.8430   24.5550  -15.9130 N   0  0  3  0  0  0
   -4.4120   26.3530  -17.9820 O   0  0  0  0  0  0
   -1.8240   26.5790  -19.1310 O   0  0  0  0  0  0
   -1.1850   24.2580  -16.3080 O   0  0  0  0  0  0
    1.4280   24.9610  -16.9120 O   0  0  0  0  0  0
   -5.6960   25.7050  -15.1960 S   0  0  0  0  0  0
   -7.0920   25.4890  -15.4310 O   0  0  0  0  0  0
   -5.4390   25.6940  -13.7810 O   0  0  0  0  0  0
   -5.2710   27.1610  -15.8090 O   0  0  0  0  0  0
    2.9030   25.2910  -17.2090 S   0  0  0  0  0  0
    3.4230   26.1890  -16.2120 O   0  0  0  0  0  0
    3.0200   25.9920  -18.6800 O   0  0  0  0  0  0
    3.6610   24.0710  -17.1910 O   0  0  0  0  0  0
   -1.7630    0.9323  -16.6236 H   0  0  0  0  0  0
   -3.3167    0.7272  -14.5311 H   0  0  0  0  0  0
   -3.6876    3.0544  -13.4183 H   0  0  0  0  0  0
   -1.4357    4.2388  -13.0284 H   0  0  0  0  0  0
    0.0308    2.4643  -14.0664 H   0  0  0  0  0  0
   -1.1878   -0.4899  -14.5779 H   0  0  0  0  0  0
   -2.8867    0.9668  -12.2357 H   0  0  0  0  0  0
    2.1475    5.3385  -14.3226 H   0  0  0  0  0  0
   -5.9857    1.2672  -17.6097 H   0  0  0  0  0  0
   -3.5679    4.9937  -13.1353 H   0  0  0  0  0  0
   -4.4877    7.2537  -13.8057 H   0  0  0  0  0  0
   -2.7571    6.9384  -16.3460 H   0  0  0  0  0  0
   -2.5368    8.9817  -14.0769 H   0  0  0  0  0  0
   -0.7653    6.5012  -14.5708 H   0  0  0  0  0  0
    0.3902    7.2431  -12.5114 H   0  0  0  0  0  0
    0.4066    8.5863  -13.7039 H   0  0  0  0  0  0
   -4.8287    5.1037  -15.9113 H   0  0  0  0  0  0
   -4.9036    8.1296  -16.7296 H   0  0  0  0  0  0
   -6.9603    6.2424  -17.5954 H   0  0  0  0  0  0
   -1.8484   10.5299   -9.8404 H   0  0  0  0  0  0
   -0.8896   10.1919  -13.9912 H   0  0  0  0  0  0
    1.0059   10.3587  -15.7372 H   0  0  0  0  0  0
    0.4697   12.0314  -17.6408 H   0  0  0  0  0  0
   -1.9553   12.1155  -18.3365 H   0  0  0  0  0  0
   -2.7459   10.0896  -16.9827 H   0  0  0  0  0  0
    0.6909    9.5619  -18.0765 H   0  0  0  0  0  0
   -5.3857   12.7728  -17.8094 H   0  0  0  0  0  0
    3.3740   13.1607  -15.3117 H   0  0  0  0  0  0
   -0.6667   13.6595  -18.4243 H   0  0  0  0  0  0
   -0.1164   16.0448  -17.8381 H   0  0  0  0  0  0
   -1.8135   15.5758  -15.2982 H   0  0  0  0  0  0
   -2.1511   17.3241  -17.8494 H   0  0  0  0  0  0
   -3.6994   14.8736  -16.8238 H   0  0  0  0  0  0
   -4.5959   15.1796  -19.3503 H   0  0  0  0  0  0
   -5.3644   16.0580  -17.9849 H   0  0  0  0  0  0
    0.5883   14.5752  -15.3154 H   0  0  0  0  0  0
    0.0790   17.0293  -14.8225 H   0  0  0  0  0  0
    2.0092   17.5402  -17.0747 H   0  0  0  0  0  0
   -6.4024   18.0467  -20.9023 H   0  0  0  0  0  0
   -3.9658   18.2662  -18.1761 H   0  0  0  0  0  0
   -5.0615   19.2153  -15.5479 H   0  0  0  0  0  0
   -4.8232   21.3099  -17.7427 H   0  0  0  0  0  0
   -3.3993   21.9016  -15.1657 H   0  0  0  0  0  0
   -2.5397   19.6284  -15.3607 H   0  0  0  0  0  0
   -6.7647   21.5161  -16.1043 H   0  0  0  0  0  0
    0.5611   21.4720  -14.9492 H   0  0  0  0  0  0
   -7.6452   18.5650  -14.7437 H   0  0  0  0  0  0
   -2.5030   23.2423  -15.1108 H   0  0  0  0  0  0
   -3.2288   25.6618  -15.5605 H   0  0  0  0  0  0
   -3.5933   24.6010  -18.4558 H   0  0  0  0  0  0
   -1.9324   26.8625  -17.1404 H   0  0  0  0  0  0
   -0.9960   24.1249  -18.2642 H   0  0  0  0  0  0
    0.7063   25.8353  -18.6185 H   0  0  0  0  0  0
    0.2944   26.6597  -17.0766 H   0  0  0  0  0  0
   -5.3078   23.6238  -16.2691 H   0  0  0  0  0  0
   -5.4726   26.0645  -17.9379 H   0  0  0  0  0  0
   -2.5071   27.3588  -19.4989 H   0  0  0  0  0  0
   -5.3946   27.3628  -16.8832 H   0  0  0  0  0  0
    2.5008   26.9409  -18.8799 H   0  0  0  0  0  0
  1  2  1  0  0  0
  1  7  1  0  0  0
  1 11  1  0  0  0
  1107  1  0  0  0
  2  3  1  0  0  0
  2  8  1  0  0  0
  2108  1  0  0  0
  3  4  1  0  0  0
  3  9  1  0  0  0
  3109  1  0  0  0
  4  5  1  0  0  0
  4 10  1  0  0  0
  4110  1  0  0  0
  5  6  1  0  0  0
  5 11  1  0  0  0
  5111  1  0  0  0
  6 12  2  0  0  0
  6 13  1  0  0  0
  7112  1  0  0  0
  8 14  1  0  0  0
  9113  1  0  0  0
 10 18  1  0  0  0
 13114  1  0  0  0
 14 15  2  0  0  0
 14 16  1  0  0  0
 14 17  2  0  0  0
 16115  1  0  0  0
 18 19  1  0  0  0
 18 27  1  0  0  0
 18116  1  0  0  0
 19 20  1  0  0  0
 19 24  1  0  0  0
 19117  1  0  0  0
 20 21  1  0  0  0
 20 25  1  0  0  0
 20118  1  0  0  0
 21 22  1  0  0  0
 21 26  1  0  0  0
 21119  1  0  0  0
 22 23  1  0  0  0
 22 27  1  0  0  0
 22120  1  0  0  0
 23 28  1  0  0  0
 23121  1  0  0  0
 23122  1  0  0  0
 24 29  1  0  0  0
 24123  1  0  0  0
 25124  1  0  0  0
 26 37  1  0  0  0
 28 33  1  0  0  0
 29 30  2  0  0  0
 29 31  2  0  0  0
 29 32  1  0  0  0
 32125  1  0  0  0
 33 34  2  0  0  0
 33 35  1  0  0  0
 33 36  2  0  0  0
 35126  1  0  0  0
 37 38  1  0  0  0
 37 46  1  0  0  0
 37127  1  0  0  0
 38 39  1  0  0  0
 38 43  1  0  0  0
 38128  1  0  0  0
 39 40  1  0  0  0
 39 44  1  0  0  0
 39129  1  0  0  0
 40 41  1  0  0  0
 40 45  1  0  0  0
 40130  1  0  0  0
 41 42  1  0  0  0
 41 46  1  0  0  0
 41131  1  0  0  0
 42 47  1  0  0  0
 42 48  2  0  0  0
 43 49  1  0  0  0
 44132  1  0  0  0
 45 53  1  0  0  0
 47133  1  0  0  0
 49 50  2  0  0  0
 49 51  1  0  0  0
 49 52  2  0  0  0
 51134  1  0  0  0
 53 54  1  0  0  0
 53 62  1  0  0  0
 53135  1  0  0  0
 54 55  1  0  0  0
 54 59  1  0  0  0
 54136  1  0  0  0
 55 56  1  0  0  0
 55 60  1  0  0  0
 55137  1  0  0  0
 56 57  1  0  0  0
 56 61  1  0  0  0
 56138  1  0  0  0
 57 58  1  0  0  0
 57 62  1  0  0  0
 57139  1  0  0  0
 58 63  1  0  0  0
 58140  1  0  0  0
 58141  1  0  0  0
 59 64  1  0  0  0
 59142  1  0  0  0
 60143  1  0  0  0
 61 72  1  0  0  0
 63 68  1  0  0  0
 64 65  2  0  0  0
 64 66  2  0  0  0
 64 67  1  0  0  0
 67144  1  0  0  0
 68 69  2  0  0  0
 68 70  1  0  0  0
 68 71  2  0  0  0
 70145  1  0  0  0
 72 73  1  0  0  0
 72 81  1  0  0  0
 72146  1  0  0  0
 73 74  1  0  0  0
 73 78  1  0  0  0
 73147  1  0  0  0
 74 75  1  0  0  0
 74 79  1  0  0  0
 74148  1  0  0  0
 75 76  1  0  0  0
 75 80  1  0  0  0
 75149  1  0  0  0
 76 77  1  0  0  0
 76 81  1  0  0  0
 76150  1  0  0  0
 77 82  2  0  0  0
 77 83  1  0  0  0
 78 84  1  0  0  0
 79151  1  0  0  0
 80 88  1  0  0  0
 83152  1  0  0  0
 84 85  2  0  0  0
 84 86  1  0  0  0
 84 87  2  0  0  0
 86153  1  0  0  0
 88 89  1  0  0  0
 88 97  1  0  0  0
 88154  1  0  0  0
 89 90  1  0  0  0
 89 94  1  0  0  0
 89155  1  0  0  0
 90 91  1  0  0  0
 90 95  1  0  0  0
 90156  1  0  0  0
 91 92  1  0  0  0
 91 96  1  0  0  0
 91157  1  0  0  0
 92 93  1  0  0  0
 92 97  1  0  0  0
 92158  1  0  0  0
 93 98  1  0  0  0
 93159  1  0  0  0
 93160  1  0  0  0
 94 99  1  0  0  0
 94161  1  0  0  0
 95162  1  0  0  0
 96163  1  0  0  0
 98103  1  0  0  0
 99100  2  0  0  0
 99101  2  0  0  0
 99102  1  0  0  0
102164  1  0  0  0
103104  2  0  0  0
103105  1  0  0  0
103106  2  0  0  0
105165  1  0  0  0
M  END
> <s_m_source_file>
../4c4n_ligand.sdf

> <i_m_source_file_index>
1

> <s_epik_input>
Tz1TKD1PKShbT0hdKU9bQ0BASF0oW0NAQEhdMVtPSF0pW0NAQEhdKFtPSF0pW0NAQEhdKFtDQEBIXShPMSlDKD1PKVtPSF0pT1tDQEBIXTJbQ0BIXShbTkhdUyg9TykoPU8pW09IXSlbQ0BASF0oW09IXSlbQ0BASF0oW0NASF0oTzIpW0NIMl1PUyg9TykoPU8pW09IXSlPW0NASF0zW0NASF0oT1MoPU8pKD1PKVtPSF0pW0NAQEhdKFtPSF0pW0NAQEhdKFtDQEBIXShPMylDKD1PKVtPSF0pT1tDQEBIXTRbQ0BIXShbTkhdUyg9TykoPU8pW09IXSlbQ0BASF0oW09IXSlbQ0BASF0oW0NASF0oTzQpW0NIMl1PUyg9TykoPU8pW09IXSlPW0NASF01W0NASF0oT1MoPU8pKD1PKVtPSF0pW0NAQEhdKFtPSF0pW0NAQEhdKFtDQEBIXShPNSlDKD1PKVtPSF0pT1tDQEBIXTZbQ0BIXShbTkhdUyg9TykoPU8pW09IXSlbQ0BASF0oW09IXSlbQ0BIXShbT0hdKVtDQEhdKE82KVtDSDJdT1MoPU8pKD1PKVtPSF0=

> <s_epik_cmdline>
J2VwaWtfYXBwJywgJy1pbWFlJywgJ2xpZ2FuZF9wcm8ubWFlJywgJy1vbWFlJywgJ2xpZ2FuZF9wcmVwLm1hZScsICctbXMnLCAnMScsICctcGgnLCAnNycsICctcGh0JywgJzAuNScsICctbnQn

> <s_epik_pKa_notes>
Molecule size exceeds maximum supported for generating protonation states

> <s_epik_Chemistry_Notes>
This compound contains an acetal/aminal-like group ( X-CH(R)-Y where X, Y are N, S, or O) that may be acid/base labile, releasing an aldehyde.

$$$$
