4c5w_ligand
                    3D
 Schrodinger Suite 2020-3.
 25 24  0  0  1  0            999 V2000
   22.5500   31.9820   87.7510 N   0  3  0  0  0  0
   23.9350   31.6850   87.2940 C   0  0  0  0  0  0
   20.9210   26.5240   88.5520 O   0  0  0  0  0  0
   21.5770   27.4570   88.0510 C   0  0  0  0  0  0
   22.8290   27.4880   88.0170 O   0  5  0  0  0  0
   20.7650   28.5440   87.3940 C   0  0  0  0  0  0
   21.8650   30.7030   88.0860 C   0  0  0  0  0  0
   22.5740   32.8170   88.9830 C   0  0  0  0  0  0
   21.8550   32.7430   86.6970 C   0  0  0  0  0  0
   21.5580   29.7670   86.9280 C   0  0  0  0  0  0
   24.4642   31.1167   88.0731 H   0  0  0  0  0  0
   24.4679   32.6280   87.1021 H   0  0  0  0  0  0
   23.8964   31.0908   86.3691 H   0  0  0  0  0  0
   20.2650   28.1396   86.5016 H   0  0  0  0  0  0
   20.0088   28.9152   88.1014 H   0  0  0  0  0  0
   22.4908   30.1228   88.7801 H   0  0  0  0  0  0
   20.8958   30.9191   88.5593 H   0  0  0  0  0  0
   23.0887   32.2700   89.7867 H   0  0  0  0  0  0
   21.5430   33.0413   89.2941 H   0  0  0  0  0  0
   23.1080   33.7567   88.7787 H   0  0  0  0  0  0
   21.8239   32.1459   85.7737 H   0  0  0  0  0  0
   22.3938   33.6832   86.5078 H   0  0  0  0  0  0
   20.8288   32.9677   87.0231 H   0  0  0  0  0  0
   22.5088   29.4394   86.4824 H   0  0  0  0  0  0
   20.9728   30.3196   86.1782 H   0  0  0  0  0  0
  1  2  1  0  0  0
  1  7  1  0  0  0
  1  8  1  0  0  0
  1  9  1  0  0  0
  2 11  1  0  0  0
  2 12  1  0  0  0
  2 13  1  0  0  0
  3  4  2  0  0  0
  4  5  1  0  0  0
  4  6  1  0  0  0
  6 10  1  0  0  0
  6 14  1  0  0  0
  6 15  1  0  0  0
  7 10  1  0  0  0
  7 16  1  0  0  0
  7 17  1  0  0  0
  8 18  1  0  0  0
  8 19  1  0  0  0
  8 20  1  0  0  0
  9 21  1  0  0  0
  9 22  1  0  0  0
  9 23  1  0  0  0
 10 24  1  0  0  0
 10 25  1  0  0  0
M  CHG  2   1   1   5  -1
M  END
> <s_m_source_file>
../4c5w_ligand.sdf

> <i_m_source_file_index>
1

> <s_epik_input>
W0NIM11bTitdKFtDSDNdKShbQ0gzXSlbQ0gyXVtDSDJdW0NIMl1DKD1PKVtPSF0=

> <s_epik_cmdline>
J2VwaWtfYXBwJywgJy1pbWFlJywgJ2xpZ2FuZF9wcm8ubWFlJywgJy1vbWFlJywgJ2xpZ2FuZF9wcmVwLm1hZScsICctbXMnLCAnMScsICctcGgnLCAnNycsICctcGh0JywgJzAuNScsICctbnQn

> <r_lp_tautomer_probability>
1

> <r_epik_Ionization_Penalty>
  0.0006

> <r_epik_Ionization_Penalty_Charging>
  0.0006

> <r_epik_Ionization_Penalty_Neutral>
  0.0000

> <r_epik_State_Penalty>
 -0.0000

> <r_epik_Charging_Adjusted_Penalty>
0.000600285561530544

> <i_epik_Tot_Q>
0

> <i_epik_Tot_abs_Q>
2

$$$$
