4c61_ligand
                    3D
 Schrodinger Suite 2020-3.
 45 48  0  0  1  0            999 V2000
   10.6370    7.4690   43.5650 F   0  0  0  0  0  0
   11.6050    6.5200   43.6400 C   0  0  0  0  0  0
   11.3470    5.2000   44.0990 C   0  0  0  0  0  0
   12.3470    4.3160   44.2220 N   0  0  0  0  0  0
   13.5630    4.7640   43.8730 C   0  0  0  0  0  0
   13.9020    5.9700   43.3940 N   0  0  0  0  0  0
   12.9050    6.8560   43.2790 C   0  0  0  0  0  0
   14.7600    3.7720   44.0640 C   0  0  2  0  0  0
   15.3030    3.9670   45.4770 C   0  0  0  0  0  0
   15.8400    4.0140   43.0940 N   0  0  0  0  0  0
   15.7910    3.7760   41.7670 C   0  0  0  0  0  0
   16.8960    4.0740   41.0670 N   0  0  0  0  0  0
   16.8500    3.7280   39.7710 C   0  0  0  0  0  0
   17.9670    3.8670   38.8050 C   0  0  0  0  0  0
   19.3600    4.3440   39.0980 C   0  0  0  0  0  0
   14.6680    3.2120   41.2840 N   0  0  0  0  0  0
   14.6160    2.8840   39.9840 C   0  0  0  0  0  0
   15.7420    3.1300   39.1490 C   0  0  0  0  0  0
   16.0220    2.7760   37.4790 S   0  0  0  0  0  0
   17.6150    3.4150   37.5660 C   0  0  0  0  0  0
   13.4650    2.2720   39.4490 N   0  0  0  0  0  0
   12.3020    1.9500   40.1300 C   0  0  0  0  0  0
   11.2970    1.3210   39.4640 N   0  3  0  0  0  0
   10.3140    1.1200   40.3110 C   0  0  0  0  0  0
   10.6860    1.6190   41.5660 N   0  0  0  0  0  0
    9.9000    1.6050   42.8030 C   0  0  0  0  0  0
   11.9420    2.1320   41.4280 C   0  0  0  0  0  0
   10.3290    4.9044   44.3527 H   0  0  0  0  0  0
   13.1154    7.8549   42.8969 H   0  0  0  0  0  0
   14.4501    2.7326   43.8807 H   0  0  0  0  0  0
   14.4996    3.7873   46.2066 H   0  0  0  0  0  0
   15.6755    4.9960   45.5879 H   0  0  0  0  0  0
   16.1252    3.2582   45.6549 H   0  0  0  0  0  0
   16.8010    4.4284   43.4329 H   0  0  0  0  0  0
   19.4253    4.6615   40.1491 H   0  0  0  0  0  0
   19.6021    5.1936   38.4426 H   0  0  0  0  0  0
   20.0732    3.5263   38.9170 H   0  0  0  0  0  0
   18.2853    3.4558   36.7074 H   0  0  0  0  0  0
   13.4316    1.9996   38.3838 H   0  0  0  0  0  0
    9.3629    0.6424   40.0758 H   0  0  0  0  0  0
    8.9268    1.1285   42.6137 H   0  0  0  0  0  0
    9.7418    2.6373   43.1486 H   0  0  0  0  0  0
   10.4415    1.0388   43.5751 H   0  0  0  0  0  0
   12.5423    2.5986   42.2090 H   0  0  0  0  0  0
   11.4121    1.0772   38.3976 H   0  0  0  0  0  0
  1  2  1  0  0  0
  2  3  2  0  0  0
  2  7  1  0  0  0
  3  4  1  0  0  0
  3 28  1  0  0  0
  4  5  2  0  0  0
  5  6  1  0  0  0
  5  8  1  0  0  0
  6  7  2  0  0  0
  7 29  1  0  0  0
  8  9  1  0  0  0
  8 10  1  0  0  0
  8 30  1  0  0  0
  9 31  1  0  0  0
  9 32  1  0  0  0
  9 33  1  0  0  0
 10 11  1  0  0  0
 10 34  1  0  0  0
 11 12  1  0  0  0
 11 16  2  0  0  0
 12 13  2  0  0  0
 13 14  1  0  0  0
 13 18  1  0  0  0
 14 15  1  0  0  0
 14 20  2  0  0  0
 15 35  1  0  0  0
 15 36  1  0  0  0
 15 37  1  0  0  0
 16 17  1  0  0  0
 17 18  2  0  0  0
 17 21  1  0  0  0
 18 19  1  0  0  0
 19 20  1  0  0  0
 20 38  1  0  0  0
 21 22  1  0  0  0
 21 39  1  0  0  0
 22 23  1  0  0  0
 22 27  2  0  0  0
 23 24  2  0  0  0
 23 45  1  0  0  0
 24 25  1  0  0  0
 24 40  1  0  0  0
 25 26  1  0  0  0
 25 27  1  0  0  0
 26 41  1  0  0  0
 26 42  1  0  0  0
 26 43  1  0  0  0
 27 44  1  0  0  0
M  CHG  1  23   1
M  END
> <s_m_source_file>
../4c61_ligand.sdf

> <i_m_source_file_index>
1

> <s_epik_input>
RmMxW2NIXW5jKG5bY0hdMSlbQ0BIXShbQ0gzXSlbTkhdYyhuMiluYyhjKGMyMylzW2NIXWMzW0NIM10pW05IXWM0bltjSF1uKFtDSDNdKVtjSF00

> <s_epik_cmdline>
J2VwaWtfYXBwJywgJy1pbWFlJywgJ2xpZ2FuZF9wcm8ubWFlJywgJy1vbWFlJywgJ2xpZ2FuZF9wcmVwLm1hZScsICctbXMnLCAnMScsICctcGgnLCAnNycsICctcGh0JywgJzAuNScsICctbnQn

> <r_lp_tautomer_probability>
0.566886452813396

> <r_epik_Ionization_Penalty>
  0.1056

> <r_epik_Ionization_Penalty_Charging>
  0.0000

> <r_epik_Ionization_Penalty_Neutral>
  0.1056

> <r_epik_State_Penalty>
  0.0928

> <r_epik_Charging_Adjusted_Penalty>
0.092848018434365

> <i_epik_Tot_Q>
1

> <i_epik_Tot_abs_Q>
1

> <s_epik_Chemistry_Notes>
This compound contains an electron-poor aromatic ring that is susceptible to covalent hydrolysis at low pH, typically resulting in measured values for nitrogen ring protonation that are around two units higher than predicted values.

$$$$
