4c66_ligand
                    3D
 Schrodinger Suite 2020-3.
 38 41  0  0  1  0            999 V2000
   29.3350   51.2990    1.7690 C   0  0  0  0  0  0
   23.7170   50.2220    0.2760 N   0  0  0  0  0  0
   26.0480   50.9790    1.5380 S   0  0  0  0  0  0
   25.0280   53.4370   -4.4410 Cl  0  0  0  0  0  0
   28.5100   52.3040    1.1120 C   0  0  0  0  0  0
   21.9810   48.9480    0.7390 N   0  0  0  0  0  0
   27.2170   51.7740    0.5390 C   0  0  0  0  0  0
   21.5650   49.9550   -0.1250 N   0  0  0  0  0  0
   26.8550   51.9090   -0.7510 C   0  0  0  0  0  0
   23.5990   51.4980   -2.4850 N   0  0  0  0  0  0
   25.5650   51.3440   -0.9650 C   0  0  0  0  0  0
   25.0150   50.8180    0.1850 C   0  0  0  0  0  0
   23.2570   49.1190    0.9810 C   0  0  0  0  0  0
   24.0940   48.2520    1.8550 C   0  0  0  0  0  0
   22.6130   50.6900   -0.4040 C   0  0  0  0  0  0
   22.7190   51.8370   -1.3530 C   0  0  0  0  0  0
   24.9200   51.3200   -2.2450 C   0  0  0  0  0  0
   25.7970   51.0380   -3.4140 C   0  0  0  0  0  0
   26.5650   49.8710   -3.4620 C   0  0  0  0  0  0
   27.3280   49.5790   -4.5790 C   0  0  0  0  0  0
   27.3610   50.4470   -5.6470 C   0  0  0  0  0  0
   26.6430   51.6280   -5.6060 C   0  0  0  0  0  0
   25.8710   51.9170   -4.4890 C   0  0  0  0  0  0
   30.2509   51.7711    2.1539 H   0  0  0  0  0  0
   29.6028   50.5146    1.0458 H   0  0  0  0  0  0
   28.7741   50.8525    2.6033 H   0  0  0  0  0  0
   28.2422   53.0884    1.8352 H   0  0  0  0  0  0
   29.0709   52.7505    0.2777 H   0  0  0  0  0  0
   27.4626   52.3831   -1.5218 H   0  0  0  0  0  0
   25.1251   48.6348    1.8718 H   0  0  0  0  0  0
   24.0908   47.2242    1.4630 H   0  0  0  0  0  0
   23.6845   48.2563    2.8759 H   0  0  0  0  0  0
   23.1297   52.7050   -0.8165 H   0  0  0  0  0  0
   21.7145   52.0804   -1.7295 H   0  0  0  0  0  0
   26.5629   49.1863   -2.6139 H   0  0  0  0  0  0
   27.9065   48.6558   -4.6134 H   0  0  0  0  0  0
   27.9550   50.2025   -6.5277 H   0  0  0  0  0  0
   26.6828   52.3254   -6.4427 H   0  0  0  0  0  0
  1  5  1  0  0  0
  1 24  1  0  0  0
  1 25  1  0  0  0
  1 26  1  0  0  0
  2 12  1  0  0  0
  2 13  1  0  0  0
  2 15  1  0  0  0
  3  7  1  0  0  0
  3 12  1  0  0  0
  4 23  1  0  0  0
  5  7  1  0  0  0
  5 27  1  0  0  0
  5 28  1  0  0  0
  6  8  1  0  0  0
  6 13  2  0  0  0
  7  9  2  0  0  0
  8 15  2  0  0  0
  9 11  1  0  0  0
  9 29  1  0  0  0
 10 16  1  0  0  0
 10 17  2  0  0  0
 11 12  2  0  0  0
 11 17  1  0  0  0
 13 14  1  0  0  0
 14 30  1  0  0  0
 14 31  1  0  0  0
 14 32  1  0  0  0
 15 16  1  0  0  0
 16 33  1  0  0  0
 16 34  1  0  0  0
 17 18  1  0  0  0
 18 19  2  0  0  0
 18 23  1  0  0  0
 19 20  1  0  0  0
 19 35  1  0  0  0
 20 21  2  0  0  0
 20 36  1  0  0  0
 21 22  1  0  0  0
 21 37  1  0  0  0
 22 23  2  0  0  0
 22 38  1  0  0  0
M  END
> <s_m_source_file>
../4c66_ligand.sdf

> <i_m_source_file_index>
1

> <s_epik_input>
W0NIM11jMW5uYzJbQ0gyXU49QyhjKGMzbjEyKVtjSF1jKHMzKVtDSDJdW0NIM10pYzRbY0hdW2NIXVtjSF1bY0hdYzRDbA==

> <s_epik_cmdline>
J2VwaWtfYXBwJywgJy1pbWFlJywgJ2xpZ2FuZF9wcm8ubWFlJywgJy1vbWFlJywgJ2xpZ2FuZF9wcmVwLm1hZScsICctbXMnLCAnMScsICctcGgnLCAnNycsICctcGh0JywgJzAuNScsICctbnQn

> <r_lp_tautomer_probability>
1

> <r_epik_Ionization_Penalty>
  0.0028

> <r_epik_Ionization_Penalty_Charging>
  0.0000

> <r_epik_Ionization_Penalty_Neutral>
  0.0028

> <r_epik_State_Penalty>
 -0.0000

> <r_epik_Charging_Adjusted_Penalty>
0

> <i_epik_Tot_Q>
0

> <i_epik_Tot_abs_Q>
0

> <s_epik_Chemistry_Notes>
This compound has an imine and may undergo hydrolysis.

$$$$
