4c68_ligand
                    3D
 Schrodinger Suite 2020-3.
 91 91  0  0  1  0            999 V2000
    0.4140  -40.8730  -67.4450 C   0  0  0  0  0  0
    1.2330  -40.6240  -66.3050 N   0  3  0  0  0  0
   -2.6110  -46.6770  -59.9240 O   0  0  0  0  0  0
   -0.2740  -42.2040  -67.3270 C   0  0  0  0  0  0
   -4.6520  -46.5220  -60.7610 N   0  0  0  0  0  0
   -6.5240  -44.9540  -58.1350 O   0  0  0  0  0  0
    0.5100  -43.2390  -66.5800 C   0  0  0  0  0  0
   -7.0210  -47.7720  -58.3750 N   0  0  0  0  0  0
   -7.1100  -47.6000  -60.5220 O   0  0  0  0  0  0
    0.6100  -42.9600  -65.0880 C   0  0  0  0  0  0
   -4.7510  -52.0380  -56.2560 N   0  3  0  0  0  0
   -8.4110  -47.6620  -56.1490 O   0  0  0  0  0  0
   -0.7390  -43.3650  -64.4760 C   0  0  0  0  0  0
  -10.2050  -48.6580  -56.8970 N   0  0  0  0  0  0
   -0.5650  -43.6840  -63.0000 C   0  0  0  0  0  0
   -1.7550  -44.4350  -62.4160 C   0  0  0  0  0  0
   -1.6440  -45.9190  -62.6890 C   0  0  0  0  0  0
   -2.8070  -46.8230  -62.2670 C   0  0  0  0  0  0
   -3.3370  -46.6820  -60.8490 C   0  0  0  0  0  0
   -5.3690  -46.4460  -59.5230 C   0  0  1  0  0  0
   -5.7590  -45.0030  -59.3210 C   0  0  0  0  0  0
   -6.5840  -47.3390  -59.5330 C   0  0  0  0  0  0
   -8.2610  -48.5510  -58.2670 C   0  0  1  0  0  0
   -8.0420  -50.0800  -58.3460 C   0  0  0  0  0  0
   -7.1260  -50.5970  -57.2440 C   0  0  0  0  0  0
   -6.8930  -52.0650  -57.4790 C   0  0  0  0  0  0
   -6.0780  -52.5590  -56.2910 C   0  0  0  0  0  0
   -8.9770  -48.2230  -56.9790 C   0  0  0  0  0  0
  -11.0710  -48.4270  -55.7780 C   0  0  0  0  0  0
  -12.5150  -48.3080  -56.2990 C   0  0  0  0  0  0
  -13.5750  -48.1000  -55.2060 C   0  0  0  0  0  0
  -13.2580  -47.1140  -54.1170 C   0  0  0  0  0  0
  -14.4160  -46.8450  -53.1650 C   0  0  0  0  0  0
  -15.8130  -46.7230  -53.7190 C   0  0  0  0  0  0
  -16.1050  -47.7820  -54.7820 C   0  0  0  0  0  0
  -14.9490  -47.8580  -55.7750 C   0  0  0  0  0  0
   -0.3493  -40.0852  -67.5272 H   0  0  0  0  0  0
    1.0377  -40.8752  -68.3511 H   0  0  0  0  0  0
    1.7253  -39.6463  -66.4137 H   0  0  0  0  0  0
    1.9963  -41.4118  -66.2228 H   0  0  0  0  0  0
    0.6093  -40.6218  -65.3989 H   0  0  0  0  0  0
   -1.2285  -42.0775  -66.7951 H   0  0  0  0  0  0
   -0.4651  -42.6084  -68.3320 H   0  0  0  0  0  0
   -5.1933  -46.4468  -61.7156 H   0  0  0  0  0  0
   -6.9251  -43.9938  -57.7785 H   0  0  0  0  0  0
    0.0295  -44.2210  -66.7011 H   0  0  0  0  0  0
    1.5347  -43.2807  -66.9778 H   0  0  0  0  0  0
   -6.4369  -47.5400  -57.4723 H   0  0  0  0  0  0
    1.4303  -43.5536  -64.6582 H   0  0  0  0  0  0
    0.8086  -41.8900  -64.9275 H   0  0  0  0  0  0
   -4.2241  -52.4355  -55.3760 H   0  0  0  0  0  0
   -4.7895  -50.9403  -56.1955 H   0  0  0  0  0  0
   -4.2158  -52.3363  -57.1695 H   0  0  0  0  0  0
   -1.4547  -42.5369  -64.5855 H   0  0  0  0  0  0
   -1.1251  -44.2544  -64.9955 H   0  0  0  0  0  0
  -10.5651  -49.2356  -57.7611 H   0  0  0  0  0  0
    0.3287  -44.3106  -62.8632 H   0  0  0  0  0  0
   -0.4468  -42.7482  -62.4340 H   0  0  0  0  0  0
   -1.7899  -44.2774  -61.3279 H   0  0  0  0  0  0
   -2.6840  -44.0605  -62.8707 H   0  0  0  0  0  0
   -1.5338  -46.0856  -63.7707 H   0  0  0  0  0  0
   -0.7659  -46.3237  -62.1644 H   0  0  0  0  0  0
   -3.6733  -46.6337  -62.9179 H   0  0  0  0  0  0
   -2.5039  -47.8766  -62.3572 H   0  0  0  0  0  0
   -4.6961  -46.8052  -58.7304 H   0  0  0  0  0  0
   -6.3652  -44.6390  -60.1636 H   0  0  0  0  0  0
   -4.8679  -44.3679  -59.2091 H   0  0  0  0  0  0
   -8.8474  -48.2179  -59.1360 H   0  0  0  0  0  0
   -9.0096  -50.5944  -58.2505 H   0  0  0  0  0  0
   -7.5848  -50.3355  -59.3133 H   0  0  0  0  0  0
   -6.1709  -50.0522  -57.2754 H   0  0  0  0  0  0
   -7.6049  -50.4414  -56.2660 H   0  0  0  0  0  0
   -7.8606  -52.5847  -57.5396 H   0  0  0  0  0  0
   -6.3432  -52.2027  -58.4217 H   0  0  0  0  0  0
   -6.0395  -53.6567  -56.3515 H   0  0  0  0  0  0
   -6.6132  -52.2608  -55.3775 H   0  0  0  0  0  0
  -10.9927  -49.2685  -55.0739 H   0  0  0  0  0  0
  -10.7753  -47.4964  -55.2715 H   0  0  0  0  0  0
  -12.5887  -47.4489  -56.9820 H   0  0  0  0  0  0
  -12.7879  -49.2281  -56.8365 H   0  0  0  0  0  0
  -13.5778  -49.0590  -54.6673 H   0  0  0  0  0  0
  -12.4222  -47.4934  -53.5108 H   0  0  0  0  0  0
  -12.9773  -46.1497  -54.5657 H   0  0  0  0  0  0
  -14.4839  -47.6610  -52.4305 H   0  0  0  0  0  0
  -14.2461  -45.8930  -52.6408 H   0  0  0  0  0  0
  -16.5423  -46.8451  -52.9046 H   0  0  0  0  0  0
  -15.9397  -45.7319  -54.1792 H   0  0  0  0  0  0
  -16.2314  -48.7619  -54.2984 H   0  0  0  0  0  0
  -17.0271  -47.5170  -55.3200 H   0  0  0  0  0  0
  -14.9587  -46.8996  -56.3147 H   0  0  0  0  0  0
  -15.2073  -48.6719  -56.4684 H   0  0  0  0  0  0
  1  2  1  0  0  0
  1  4  1  0  0  0
  1 37  1  0  0  0
  1 38  1  0  0  0
  2 39  1  0  0  0
  2 40  1  0  0  0
  2 41  1  0  0  0
  3 19  2  0  0  0
  4  7  1  0  0  0
  4 42  1  0  0  0
  4 43  1  0  0  0
  5 19  1  0  0  0
  5 20  1  0  0  0
  5 44  1  0  0  0
  6 21  1  0  0  0
  6 45  1  0  0  0
  7 10  1  0  0  0
  7 46  1  0  0  0
  7 47  1  0  0  0
  8 22  1  0  0  0
  8 23  1  0  0  0
  8 48  1  0  0  0
  9 22  2  0  0  0
 10 13  1  0  0  0
 10 49  1  0  0  0
 10 50  1  0  0  0
 11 27  1  0  0  0
 11 51  1  0  0  0
 11 52  1  0  0  0
 11 53  1  0  0  0
 12 28  2  0  0  0
 13 15  1  0  0  0
 13 54  1  0  0  0
 13 55  1  0  0  0
 14 28  1  0  0  0
 14 29  1  0  0  0
 14 56  1  0  0  0
 15 16  1  0  0  0
 15 57  1  0  0  0
 15 58  1  0  0  0
 16 17  1  0  0  0
 16 59  1  0  0  0
 16 60  1  0  0  0
 17 18  1  0  0  0
 17 61  1  0  0  0
 17 62  1  0  0  0
 18 19  1  0  0  0
 18 63  1  0  0  0
 18 64  1  0  0  0
 20 21  1  0  0  0
 20 22  1  0  0  0
 20 65  1  0  0  0
 21 66  1  0  0  0
 21 67  1  0  0  0
 23 24  1  0  0  0
 23 28  1  0  0  0
 23 68  1  0  0  0
 24 25  1  0  0  0
 24 69  1  0  0  0
 24 70  1  0  0  0
 25 26  1  0  0  0
 25 71  1  0  0  0
 25 72  1  0  0  0
 26 27  1  0  0  0
 26 73  1  0  0  0
 26 74  1  0  0  0
 27 75  1  0  0  0
 27 76  1  0  0  0
 29 30  1  0  0  0
 29 77  1  0  0  0
 29 78  1  0  0  0
 30 31  1  0  0  0
 30 79  1  0  0  0
 30 80  1  0  0  0
 31 32  1  0  0  0
 31 36  1  0  0  0
 31 81  1  0  0  0
 32 33  1  0  0  0
 32 82  1  0  0  0
 32 83  1  0  0  0
 33 34  1  0  0  0
 33 84  1  0  0  0
 33 85  1  0  0  0
 34 35  1  0  0  0
 34 86  1  0  0  0
 34 87  1  0  0  0
 35 36  1  0  0  0
 35 88  1  0  0  0
 35 89  1  0  0  0
 36 90  1  0  0  0
 36 91  1  0  0  0
M  CHG  2   2   1  11   1
M  END
> <s_m_source_file>
../4c68_ligand.sdf

> <i_m_source_file_index>
1

> <s_epik_input>
W05IMytdW0NIMl1bQ0gyXVtDSDJdW0NIMl1bQ0gyXVtDSDJdW0NIMl1bQ0gyXVtDSDJdQyg9TylbTkhdW0NAQEhdKFtDSDJdW09IXSlDKD1PKVtOSF1bQ0BASF0oW0NIMl1bQ0gyXVtDSDJdW0NIMl1bTkgzK10pQyg9TylbTkhdW0NIMl1bQ0gyXVtDSF0xW0NIMl1bQ0gyXVtDSDJdW0NIMl1bQ0gyXTE=

> <s_epik_cmdline>
J2VwaWtfYXBwJywgJy1pbWFlJywgJ2xpZ2FuZF9wcm8ubWFlJywgJy1vbWFlJywgJ2xpZ2FuZF9wcmVwLm1hZScsICctbXMnLCAnMScsICctcGgnLCAnNycsICctcGh0JywgJzAuNScsICctbnQn

> <r_lp_tautomer_probability>
1

> <r_epik_Ionization_Penalty>
  0.0008

> <r_epik_Ionization_Penalty_Charging>
  0.0008

> <r_epik_Ionization_Penalty_Neutral>
  0.0000

> <r_epik_State_Penalty>
 -0.0000

> <r_epik_Charging_Adjusted_Penalty>
0.000790593329435101

> <i_epik_Tot_Q>
2

> <i_epik_Tot_abs_Q>
2

$$$$
