4c6u_ligand
                    3D
 Schrodinger Suite 2020-3.
 29 29  0  0  1  0            999 V2000
  -20.0210   35.1090  -31.9860 S   0  0  0  0  0  0
  -16.1630   37.6180  -32.6960 C   0  0  0  0  0  0
  -19.2070   35.9450  -29.4810 C   0  0  0  0  0  0
  -18.6320   35.2540  -30.7290 C   0  0  2  0  0  0
  -17.4850   33.6000  -29.3000 O   0  5  0  0  0  0
  -18.4990   39.4250  -32.2290 C   0  0  0  0  0  0
  -18.5020   38.1560  -31.8940 C   0  0  0  0  0  0
  -17.4170   37.1560  -32.0050 C   0  0  0  0  0  0
  -17.4490   35.9210  -31.4200 C   0  0  0  0  0  0
  -20.0830   33.2970  -31.9150 C   0  0  0  0  0  0
  -20.9030   32.6560  -32.5350 O   0  0  0  0  0  0
  -19.0530   32.8370  -30.9790 C   0  0  0  0  0  0
  -18.7700   31.4310  -30.6930 C   0  0  0  0  0  0
  -17.7160   31.0530  -29.6980 C   0  0  0  0  0  0
  -18.3440   33.8140  -30.3190 C   0  0  0  0  0  0
  -19.3070   30.5460  -31.3640 O   0  0  0  0  0  0
  -16.3200   38.6272  -33.1044 H   0  0  0  0  0  0
  -15.9189   36.9250  -33.5146 H   0  0  0  0  0  0
  -15.3333   37.6395  -31.9741 H   0  0  0  0  0  0
  -19.4363   36.9948  -29.7161 H   0  0  0  0  0  0
  -18.4688   35.9044  -28.6665 H   0  0  0  0  0  0
  -20.1272   35.4299  -29.1679 H   0  0  0  0  0  0
  -17.5940   39.8779  -32.6603 H   0  0  0  0  0  0
  -19.4014   40.0357  -32.0785 H   0  0  0  0  0  0
  -19.4070   37.7031  -31.4627 H   0  0  0  0  0  0
  -16.5476   35.2905  -31.4166 H   0  0  0  0  0  0
  -17.3477   31.9578  -29.1924 H   0  0  0  0  0  0
  -16.8822   30.5580  -30.2173 H   0  0  0  0  0  0
  -18.1442   30.3656  -28.9536 H   0  0  0  0  0  0
  1  4  1  0  0  0
  1 10  1  0  0  0
  2  8  1  0  0  0
  2 17  1  0  0  0
  2 18  1  0  0  0
  2 19  1  0  0  0
  3  4  1  0  0  0
  3 20  1  0  0  0
  3 21  1  0  0  0
  3 22  1  0  0  0
  4  9  1  0  0  0
  4 15  1  0  0  0
  5 15  1  0  0  0
  6  7  2  0  0  0
  6 23  1  0  0  0
  6 24  1  0  0  0
  7  8  1  0  0  0
  7 25  1  0  0  0
  8  9  2  0  0  0
  9 26  1  0  0  0
 10 11  2  0  0  0
 10 12  1  0  0  0
 12 13  1  0  0  0
 12 15  2  0  0  0
 13 14  1  0  0  0
 13 16  2  0  0  0
 14 27  1  0  0  0
 14 28  1  0  0  0
 14 29  1  0  0  0
M  CHG  1   5  -1
M  END
> <s_m_source_file>
../4c6u_ligand.sdf

> <i_m_source_file_index>
1

> <s_epik_input>
W09IXUMxPUMoQyg9TylbQ0gzXSlDKD1PKVNbQ0BdMShbQ0gzXSlcW0NIXT1DKFxbQ0gzXSlbQ0hdPVtDSDJd

> <s_epik_cmdline>
J2VwaWtfYXBwJywgJy1pbWFlJywgJ2xpZ2FuZF9wcm8ubWFlJywgJy1vbWFlJywgJ2xpZ2FuZF9wcmVwLm1hZScsICctbXMnLCAnMScsICctcGgnLCAnNycsICctcGh0JywgJzAuNScsICctbnQn

> <r_lp_tautomer_probability>
1

> <r_epik_Ionization_Penalty>
  0.0001

> <r_epik_Ionization_Penalty_Charging>
  0.0001

> <r_epik_Ionization_Penalty_Neutral>
  0.0000

> <r_epik_State_Penalty>
 -0.0000

> <r_epik_Charging_Adjusted_Penalty>
7.5597013957828e-05

> <i_epik_Tot_Q>
-1

> <i_epik_Tot_abs_Q>
1

$$$$
