4c6v_ligand
                    3D
 Schrodinger Suite 2020-3.
 29 29  0  0  1  0            999 V2000
   40.1450    0.1850   31.9240 S   0  0  0  0  0  0
   40.2230    4.8800   32.5890 C   0  0  0  0  0  0
   40.6810    1.3790   29.4590 C   0  0  0  0  0  0
   39.6980    1.4940   30.6510 C   0  0  2  0  0  0
   37.7010    1.8450   29.1680 O   0  5  0  0  0  0
   43.0690    4.0170   32.2050 C   0  0  0  0  0  0
   42.0470    3.2910   31.8210 C   0  0  0  0  0  0
   40.6020    3.5920   31.9110 C   0  0  0  0  0  0
   39.6180    2.8260   31.3720 C   0  0  0  0  0  0
   38.6000   -0.7370   31.7800 C   0  0  0  0  0  0
   38.3840   -1.7420   32.4280 O   0  0  0  0  0  0
   37.7620   -0.0620   30.7680 C   0  0  0  0  0  0
   36.4320   -0.5230   30.4120 C   0  0  0  0  0  0
   35.6350    0.1610   29.3420 C   0  0  0  0  0  0
   38.3010    1.0790   30.1580 C   0  0  0  0  0  0
   35.9010   -1.4170   31.0730 O   0  0  0  0  0  0
   41.1291    5.3754   32.9679 H   0  0  0  0  0  0
   39.5438    4.6669   33.4276 H   0  0  0  0  0  0
   39.7189    5.5397   31.8674 H   0  0  0  0  0  0
   41.6898    1.6711   29.7862 H   0  0  0  0  0  0
   40.3520    2.0441   28.6470 H   0  0  0  0  0  0
   40.6991    0.3402   29.0976 H   0  0  0  0  0  0
   42.9018    5.0008   32.6679 H   0  0  0  0  0  0
   44.0936    3.6423   32.0643 H   0  0  0  0  0  0
   42.2142    2.3072   31.3581 H   0  0  0  0  0  0
   38.5705    3.1573   31.4272 H   0  0  0  0  0  0
   36.2567    0.9264   28.8544 H   0  0  0  0  0  0
   34.7514    0.6379   29.7913 H   0  0  0  0  0  0
   35.3122   -0.5795   28.5953 H   0  0  0  0  0  0
  1  4  1  0  0  0
  1 10  1  0  0  0
  2  8  1  0  0  0
  2 17  1  0  0  0
  2 18  1  0  0  0
  2 19  1  0  0  0
  3  4  1  0  0  0
  3 20  1  0  0  0
  3 21  1  0  0  0
  3 22  1  0  0  0
  4  9  1  0  0  0
  4 15  1  0  0  0
  5 15  1  0  0  0
  6  7  2  0  0  0
  6 23  1  0  0  0
  6 24  1  0  0  0
  7  8  1  0  0  0
  7 25  1  0  0  0
  8  9  2  0  0  0
  9 26  1  0  0  0
 10 11  2  0  0  0
 10 12  1  0  0  0
 12 13  1  0  0  0
 12 15  2  0  0  0
 13 14  1  0  0  0
 13 16  2  0  0  0
 14 27  1  0  0  0
 14 28  1  0  0  0
 14 29  1  0  0  0
M  CHG  1   5  -1
M  END
> <s_m_source_file>
../4c6v_ligand.sdf

> <i_m_source_file_index>
1

> <s_epik_input>
W09IXUMxPUMoQyg9TylbQ0gzXSlDKD1PKVNbQ0BdMShbQ0gzXSlcW0NIXT1DKFxbQ0gzXSlbQ0hdPVtDSDJd

> <s_epik_cmdline>
J2VwaWtfYXBwJywgJy1pbWFlJywgJ2xpZ2FuZF9wcm8ubWFlJywgJy1vbWFlJywgJ2xpZ2FuZF9wcmVwLm1hZScsICctbXMnLCAnMScsICctcGgnLCAnNycsICctcGh0JywgJzAuNScsICctbnQn

> <r_lp_tautomer_probability>
1

> <r_epik_Ionization_Penalty>
  0.0001

> <r_epik_Ionization_Penalty_Charging>
  0.0001

> <r_epik_Ionization_Penalty_Neutral>
  0.0000

> <r_epik_State_Penalty>
 -0.0000

> <r_epik_Charging_Adjusted_Penalty>
7.5597013957828e-05

> <i_epik_Tot_Q>
-1

> <i_epik_Tot_abs_Q>
1

$$$$
