4c6x_ligand
                    3D
 Schrodinger Suite 2020-3.
 27 27  0  0  1  0            999 V2000
   -5.0700  -21.2760    8.1500 S   0  0  0  0  0  0
   -5.0680  -23.0880    7.9740 C   0  0  0  0  0  0
   -6.0730  -23.4770    7.0080 C   0  0  0  0  0  0
   -6.7650  -22.4580    6.4870 C   0  0  0  0  0  0
   -6.3780  -21.0140    6.8400 C   0  0  1  0  0  0
   -7.5250  -20.2430    7.3420 C   0  0  0  0  0  0
   -7.5440  -19.0680    8.0120 C   0  0  0  0  0  0
   -8.8020  -18.5330    8.5710 C   0  0  0  0  0  0
   -8.8860  -17.3130    9.0820 C   0  0  0  0  0  0
   -4.3000  -23.8410    8.5290 O   0  0  0  0  0  0
   -6.3220  -24.9220    6.6890 C   0  0  0  0  0  0
   -7.8120  -22.6040    5.6860 O   0  5  0  0  0  0
   -5.6560  -20.4310    5.6400 C   0  0  0  0  0  0
   -6.2710  -18.3260    8.3180 C   0  0  0  0  0  0
   -8.4687  -20.7549    7.1025 H   0  0  0  0  0  0
   -9.6883  -19.1842    8.5536 H   0  0  0  0  0  0
   -7.9997  -16.6618    9.0994 H   0  0  0  0  0  0
   -9.8420  -16.9517    9.4887 H   0  0  0  0  0  0
   -5.6146  -25.5489    7.2517 H   0  0  0  0  0  0
   -6.1823  -25.0888    5.6107 H   0  0  0  0  0  0
   -7.3516  -25.1875    6.9707 H   0  0  0  0  0  0
   -4.8224  -21.0908    5.3575 H   0  0  0  0  0  0
   -5.2650  -19.4351    5.8956 H   0  0  0  0  0  0
   -6.3571  -20.3444    4.7968 H   0  0  0  0  0  0
   -5.4238  -18.8381    7.8384 H   0  0  0  0  0  0
   -6.1148  -18.2993    9.4065 H   0  0  0  0  0  0
   -6.3440  -17.2983    7.9327 H   0  0  0  0  0  0
  1  2  1  0  0  0
  1  5  1  0  0  0
  2  3  1  0  0  0
  2 10  2  0  0  0
  3  4  2  0  0  0
  3 11  1  0  0  0
  4  5  1  0  0  0
  4 12  1  0  0  0
  5  6  1  0  0  0
  5 13  1  0  0  0
  6  7  2  0  0  0
  6 15  1  0  0  0
  7  8  1  0  0  0
  7 14  1  0  0  0
  8  9  2  0  0  0
  8 16  1  0  0  0
  9 17  1  0  0  0
  9 18  1  0  0  0
 11 19  1  0  0  0
 11 20  1  0  0  0
 11 21  1  0  0  0
 13 22  1  0  0  0
 13 23  1  0  0  0
 13 24  1  0  0  0
 14 25  1  0  0  0
 14 26  1  0  0  0
 14 27  1  0  0  0
M  CHG  1  12  -1
M  END
> <s_m_source_file>
../4c6x_ligand.sdf

> <i_m_source_file_index>
1

> <s_epik_input>
W09IXUMxPUMoW0NIM10pQyg9TylTW0NAXTEoW0NIM10pL1tDSF09QyhbQ0gzXSkvW0NIXT1bQ0gyXQ==

> <s_epik_cmdline>
J2VwaWtfYXBwJywgJy1pbWFlJywgJ2xpZ2FuZF9wcm8ubWFlJywgJy1vbWFlJywgJ2xpZ2FuZF9wcmVwLm1hZScsICctbXMnLCAnMScsICctcGgnLCAnNycsICctcGh0JywgJzAuNScsICctbnQn

> <r_lp_tautomer_probability>
1

> <r_epik_Ionization_Penalty>
  0.0001

> <r_epik_Ionization_Penalty_Charging>
  0.0001

> <r_epik_Ionization_Penalty_Neutral>
  0.0000

> <r_epik_State_Penalty>
 -0.0000

> <r_epik_Charging_Adjusted_Penalty>
0.000134540928536152

> <i_epik_Tot_Q>
-1

> <i_epik_Tot_abs_Q>
1

$$$$
