4c6z_ligand
                    3D
 Schrodinger Suite 2020-3.
 30 30  0  0  1  0            999 V2000
   -8.5150  -17.5250    9.1190 C   0  0  0  0  0  0
   -3.8350  -23.9010    8.5220 O   0  0  0  0  0  0
   -4.6970  -21.5000    8.1490 S   0  0  0  0  0  0
   -8.3810  -18.6940    8.4730 C   0  0  0  0  0  0
   -7.4960  -22.8200    5.6340 O   0  5  0  0  0  0
   -7.1720  -19.3510    7.9860 C   0  0  0  0  0  0
   -5.8480  -18.6950    8.2780 C   0  0  0  0  0  0
   -7.1730  -20.4750    7.2700 C   0  0  0  0  0  0
   -5.9840  -21.2470    6.7940 C   0  0  1  0  0  0
   -5.2450  -20.5480    5.6590 C   0  0  0  0  0  0
   -4.6730  -23.2870    7.9330 C   0  0  0  0  0  0
   -5.6520  -23.6940    6.8940 C   0  0  0  0  0  0
   -5.8600  -25.1290    6.4920 C   0  0  0  0  0  0
   -6.1240  -26.0560    7.6940 C   0  0  0  0  0  0
   -6.3570  -22.6760    6.3910 C   0  0  0  0  0  0
   -7.6264  -16.9188    9.3492 H   0  0  0  0  0  0
   -9.5134  -17.1732    9.4181 H   0  0  0  0  0  0
   -9.2696  -19.3002    8.2428 H   0  0  0  0  0  0
   -6.0131  -17.7850    8.8735 H   0  0  0  0  0  0
   -5.3538  -18.4294    7.3318 H   0  0  0  0  0  0
   -5.2102  -19.3915    8.8419 H   0  0  0  0  0  0
   -8.1260  -20.9326    6.9659 H   0  0  0  0  0  0
   -4.9855  -19.5241    5.9662 H   0  0  0  0  0  0
   -5.8904  -20.5113    4.7690 H   0  0  0  0  0  0
   -4.3258  -21.1041    5.4227 H   0  0  0  0  0  0
   -6.7266  -25.1991    5.8182 H   0  0  0  0  0  0
   -4.9624  -25.4987    5.9746 H   0  0  0  0  0  0
   -6.2674  -27.0867    7.3376 H   0  0  0  0  0  0
   -7.0287  -25.7218    8.2230 H   0  0  0  0  0  0
   -5.2644  -26.0213    8.3795 H   0  0  0  0  0  0
  1  4  2  0  0  0
  1 16  1  0  0  0
  1 17  1  0  0  0
  2 11  2  0  0  0
  3  9  1  0  0  0
  3 11  1  0  0  0
  4  6  1  0  0  0
  4 18  1  0  0  0
  5 15  1  0  0  0
  6  7  1  0  0  0
  6  8  2  0  0  0
  7 19  1  0  0  0
  7 20  1  0  0  0
  7 21  1  0  0  0
  8  9  1  0  0  0
  8 22  1  0  0  0
  9 10  1  0  0  0
  9 15  1  0  0  0
 10 23  1  0  0  0
 10 24  1  0  0  0
 10 25  1  0  0  0
 11 12  1  0  0  0
 12 13  1  0  0  0
 12 15  2  0  0  0
 13 14  1  0  0  0
 13 26  1  0  0  0
 13 27  1  0  0  0
 14 28  1  0  0  0
 14 29  1  0  0  0
 14 30  1  0  0  0
M  CHG  1   5  -1
M  END
> <s_m_source_file>
../4c6z_ligand.sdf

> <i_m_source_file_index>
1

> <s_epik_input>
W0NIMl09W0NIXS9DKFtDSDNdKT1bQ0hdL1tDQEBdMShbQ0gzXSlTQyg9TylDKFtDSDJdW0NIM10pPUMxW09IXQ==

> <s_epik_cmdline>
J2VwaWtfYXBwJywgJy1pbWFlJywgJ2xpZ2FuZF9wcm8ubWFlJywgJy1vbWFlJywgJ2xpZ2FuZF9wcmVwLm1hZScsICctbXMnLCAnMScsICctcGgnLCAnNycsICctcGh0JywgJzAuNScsICctbnQn

> <r_lp_tautomer_probability>
1

> <r_epik_Ionization_Penalty>
  0.0002

> <r_epik_Ionization_Penalty_Charging>
  0.0002

> <r_epik_Ionization_Penalty_Neutral>
  0.0000

> <r_epik_State_Penalty>
 -0.0000

> <r_epik_Charging_Adjusted_Penalty>
0.000151449418433005

> <i_epik_Tot_Q>
-1

> <i_epik_Tot_abs_Q>
1

$$$$
