4c70_ligand
                    3D
 Schrodinger Suite 2020-3.
 33 33  0  0  1  0            999 V2000
   -9.0420  -17.5140    9.3310 C   0  0  0  0  0  0
   -4.0940  -23.9120    8.3910 O   0  0  0  0  0  0
   -5.1920  -21.5570    8.4310 S   0  0  0  0  0  0
   -8.7600  -18.5790    8.5770 C   0  0  0  0  0  0
   -7.7320  -22.6680    5.5500 O   0  5  0  0  0  0
   -7.5040  -19.2210    8.0540 C   0  0  0  0  0  0
   -6.1610  -18.6030    8.3350 C   0  0  0  0  0  0
   -7.5040  -20.3790    7.3720 C   0  0  0  0  0  0
   -6.3140  -21.1850    6.9380 C   0  0  1  0  0  0
   -5.4760  -20.4740    5.8380 C   0  0  0  0  0  0
   -5.0070  -23.3050    7.9220 C   0  0  0  0  0  0
   -5.8860  -23.6470    6.7630 C   0  0  0  0  0  0
   -5.9910  -25.0310    6.1770 C   0  0  0  0  0  0
   -6.9690  -25.9850    7.0390 C   0  0  0  0  0  0
   -6.3680  -26.6890    8.2800 C   0  0  0  0  0  0
   -6.6650  -22.5930    6.3920 C   0  0  0  0  0  0
   -8.2284  -16.8821    9.7165 H   0  0  0  0  0  0
  -10.0880  -17.2684    9.5667 H   0  0  0  0  0  0
   -9.5736  -19.2109    8.1915 H   0  0  0  0  0  0
   -6.2984  -17.6663    8.8951 H   0  0  0  0  0  0
   -5.6492  -18.3903    7.3848 H   0  0  0  0  0  0
   -5.5537  -19.3006    8.9304 H   0  0  0  0  0  0
   -8.4562  -20.8387    7.0687 H   0  0  0  0  0  0
   -5.2014  -19.4655    6.1808 H   0  0  0  0  0  0
   -6.0705  -20.3985    4.9156 H   0  0  0  0  0  0
   -4.5633  -21.0550    5.6395 H   0  0  0  0  0  0
   -6.3904  -24.9667    5.1541 H   0  0  0  0  0  0
   -4.9942  -25.4956    6.1529 H   0  0  0  0  0  0
   -7.8146  -25.3940    7.4207 H   0  0  0  0  0  0
   -7.3475  -26.7959    6.3993 H   0  0  0  0  0  0
   -7.1426  -27.3008    8.7654 H   0  0  0  0  0  0
   -6.0008  -25.9322    8.9889 H   0  0  0  0  0  0
   -5.5336  -27.3341    7.9674 H   0  0  0  0  0  0
  1  4  2  0  0  0
  1 17  1  0  0  0
  1 18  1  0  0  0
  2 11  2  0  0  0
  3  9  1  0  0  0
  3 11  1  0  0  0
  4  6  1  0  0  0
  4 19  1  0  0  0
  5 16  1  0  0  0
  6  7  1  0  0  0
  6  8  2  0  0  0
  7 20  1  0  0  0
  7 21  1  0  0  0
  7 22  1  0  0  0
  8  9  1  0  0  0
  8 23  1  0  0  0
  9 10  1  0  0  0
  9 16  1  0  0  0
 10 24  1  0  0  0
 10 25  1  0  0  0
 10 26  1  0  0  0
 11 12  1  0  0  0
 12 13  1  0  0  0
 12 16  2  0  0  0
 13 14  1  0  0  0
 13 27  1  0  0  0
 13 28  1  0  0  0
 14 15  1  0  0  0
 14 29  1  0  0  0
 14 30  1  0  0  0
 15 31  1  0  0  0
 15 32  1  0  0  0
 15 33  1  0  0  0
M  CHG  1   5  -1
M  END
> <s_m_source_file>
../4c70_ligand.sdf

> <i_m_source_file_index>
1

> <s_epik_input>
W0NIMl09W0NIXS9DKFtDSDNdKT1bQ0hdL1tDQEBdMShbQ0gzXSlTQyg9TylDKD1DMVtPSF0pW0NIMl1bQ0gyXVtDSDNd

> <s_epik_cmdline>
J2VwaWtfYXBwJywgJy1pbWFlJywgJ2xpZ2FuZF9wcm8ubWFlJywgJy1vbWFlJywgJ2xpZ2FuZF9wcmVwLm1hZScsICctbXMnLCAnMScsICctcGgnLCAnNycsICctcGh0JywgJzAuNScsICctbnQn

> <r_lp_tautomer_probability>
1

> <r_epik_Ionization_Penalty>
  0.0002

> <r_epik_Ionization_Penalty_Charging>
  0.0002

> <r_epik_Ionization_Penalty_Neutral>
  0.0000

> <r_epik_State_Penalty>
 -0.0000

> <r_epik_Charging_Adjusted_Penalty>
0.000155082053050882

> <i_epik_Tot_Q>
-1

> <i_epik_Tot_abs_Q>
1

$$$$
