4c71_ligand
                    3D
 Schrodinger Suite 2020-3.
 38 38  0  0  1  0            999 V2000
   -4.2910  -28.9980    9.7810 N   0  0  0  0  0  0
   -4.9200  -28.0670    9.5950 N   0  0  0  0  0  0
   -5.4680  -27.0200    9.3080 N   0  0  0  0  0  0
   -5.1130  -26.4880    8.0250 C   0  0  0  0  0  0
   -6.3740  -25.7460    7.6630 C   0  0  0  0  0  0
   -6.2750  -25.1960    6.2980 C   0  0  0  0  0  0
   -4.9330  -24.4960    6.1860 C   0  0  0  0  0  0
   -4.8750  -23.1530    6.8630 C   0  0  0  0  0  0
   -3.9810  -22.8900    7.9520 C   0  0  0  0  0  0
   -3.2320  -23.6050    8.5510 O   0  0  0  0  0  0
   -4.0820  -21.1100    8.4080 S   0  0  0  0  0  0
   -5.5110  -22.0400    6.3920 C   0  0  0  0  0  0
   -6.4360  -22.0330    5.4140 O   0  5  0  0  0  0
   -5.2520  -20.6870    6.9980 C   0  0  2  0  0  0
   -4.4960  -19.8610    5.9380 C   0  0  0  0  0  0
   -6.5070  -20.0030    7.4890 C   0  0  0  0  0  0
   -6.6130  -18.8940    8.2000 C   0  0  0  0  0  0
   -5.3750  -18.1180    8.5840 C   0  0  0  0  0  0
   -7.9340  -18.3720    8.6210 C   0  0  0  0  0  0
   -8.0830  -17.1840    9.2620 C   0  0  0  0  0  0
   -4.2338  -25.8352    8.1293 H   0  0  0  0  0  0
   -4.8769  -27.3141    7.3381 H   0  0  0  0  0  0
   -7.2307  -26.4343    7.7099 H   0  0  0  0  0  0
   -6.5290  -24.9189    8.3714 H   0  0  0  0  0  0
   -6.3441  -26.0149    5.5668 H   0  0  0  0  0  0
   -7.0960  -24.4836    6.1293 H   0  0  0  0  0  0
   -4.1537  -25.1215    6.6459 H   0  0  0  0  0  0
   -4.6926  -24.3316    5.1253 H   0  0  0  0  0  0
   -3.5959  -20.4078    5.6205 H   0  0  0  0  0  0
   -4.2036  -18.8919    6.3684 H   0  0  0  0  0  0
   -5.1492  -19.6941    5.0689 H   0  0  0  0  0  0
   -7.4118  -20.5480    7.1818 H   0  0  0  0  0  0
   -4.4839  -18.6351    8.1985 H   0  0  0  0  0  0
   -5.3122  -18.0467    9.6799 H   0  0  0  0  0  0
   -5.4275  -17.1072    8.1532 H   0  0  0  0  0  0
   -8.8159  -18.9891    8.3945 H   0  0  0  0  0  0
   -7.2011  -16.5669    9.4885 H   0  0  0  0  0  0
   -9.0856  -16.8389    9.5547 H   0  0  0  0  0  0
  1  2  3  0  0  0
  2  3  2  0  0  0
  3  4  1  0  0  0
  4  5  1  0  0  0
  4 21  1  0  0  0
  4 22  1  0  0  0
  5  6  1  0  0  0
  5 23  1  0  0  0
  5 24  1  0  0  0
  6  7  1  0  0  0
  6 25  1  0  0  0
  6 26  1  0  0  0
  7  8  1  0  0  0
  7 27  1  0  0  0
  7 28  1  0  0  0
  8  9  1  0  0  0
  8 12  2  0  0  0
  9 10  2  0  0  0
  9 11  1  0  0  0
 11 14  1  0  0  0
 12 13  1  0  0  0
 12 14  1  0  0  0
 14 15  1  0  0  0
 14 16  1  0  0  0
 15 29  1  0  0  0
 15 30  1  0  0  0
 15 31  1  0  0  0
 16 17  2  0  0  0
 16 32  1  0  0  0
 17 18  1  0  0  0
 17 19  1  0  0  0
 18 33  1  0  0  0
 18 34  1  0  0  0
 18 35  1  0  0  0
 19 20  2  0  0  0
 19 36  1  0  0  0
 20 37  1  0  0  0
 20 38  1  0  0  0
M  CHG  1  13  -1
M  END
> <s_m_source_file>
../4c71_ligand.sdf

> <i_m_source_file_index>
1

> <s_epik_input>
TiNOPU5bQ0gyXVtDSDJdW0NIMl1bQ0gyXUMoPUMxW09IXSlDKD1PKVNbQ0BdMShbQ0gzXSkvW0NIXT1DKFxbQ0gzXSlbQ0hdPVtDSDJd

> <s_epik_cmdline>
J2VwaWtfYXBwJywgJy1pbWFlJywgJ2xpZ2FuZF9wcm8ubWFlJywgJy1vbWFlJywgJ2xpZ2FuZF9wcmVwLm1hZScsICctbXMnLCAnMScsICctcGgnLCAnNycsICctcGh0JywgJzAuNScsICctbnQn

> <r_lp_tautomer_probability>
1

> <r_epik_Ionization_Penalty>
  0.0002

> <r_epik_Ionization_Penalty_Charging>
  0.0001

> <r_epik_Ionization_Penalty_Neutral>
  0.0000

> <r_epik_State_Penalty>
 -0.0000

> <r_epik_Charging_Adjusted_Penalty>
0.00014997489454858

> <i_epik_Tot_Q>
-1

> <i_epik_Tot_abs_Q>
1

$$$$
