4c73_ligand
                    3D
 Schrodinger Suite 2020-3.
 29 29  0  0  1  0            999 V2000
   -6.5690  -26.2630    5.3210 F   0  0  0  0  0  0
   -6.8570  -25.0490    5.6950 C   0  0  0  0  0  0
   -8.1810  -25.0220    5.9280 F   0  0  0  0  0  0
   -6.5270  -24.2860    4.6670 F   0  0  0  0  0  0
   -6.0570  -24.6260    6.9440 C   0  0  0  0  0  0
   -5.7760  -25.5120    7.7210 O   0  0  0  0  0  0
   -5.8490  -23.2330    7.1790 C   0  0  0  0  0  0
   -4.8560  -22.9030    8.1420 C   0  0  0  0  0  0
   -4.0780  -23.6410    8.6840 O   0  0  0  0  0  0
   -4.8250  -21.1130    8.3560 S   0  0  0  0  0  0
   -6.5010  -22.1780    6.6430 C   0  0  0  0  0  0
   -7.5720  -22.1940    5.8700 O   0  5  0  0  0  0
   -6.0710  -20.7710    7.0160 C   0  0  2  0  0  0
   -5.3580  -20.1950    5.8200 C   0  0  0  0  0  0
   -7.2480  -19.9990    7.5130 C   0  0  0  0  0  0
   -7.2810  -18.8590    8.1860 C   0  0  0  0  0  0
   -6.0160  -18.1350    8.5980 C   0  0  0  0  0  0
   -8.5610  -18.2730    8.5540 C   0  0  0  0  0  0
   -8.6840  -17.0880    9.1410 C   0  0  0  0  0  0
   -4.5143  -20.8461    5.5475 H   0  0  0  0  0  0
   -4.9819  -19.1910    6.0658 H   0  0  0  0  0  0
   -6.0574  -20.1275    4.9736 H   0  0  0  0  0  0
   -8.1862  -20.5078    7.2467 H   0  0  0  0  0  0
   -5.1396  -18.7003    8.2484 H   0  0  0  0  0  0
   -5.9833  -18.0488    9.6941 H   0  0  0  0  0  0
   -6.0065  -17.1301    8.1507 H   0  0  0  0  0  0
   -9.4570  -18.8669    8.3208 H   0  0  0  0  0  0
   -7.7880  -16.4941    9.3742 H   0  0  0  0  0  0
   -9.6819  -16.7005    9.3940 H   0  0  0  0  0  0
  1  2  1  0  0  0
  2  3  1  0  0  0
  2  4  1  0  0  0
  2  5  1  0  0  0
  5  6  2  0  0  0
  5  7  1  0  0  0
  7  8  1  0  0  0
  7 11  2  0  0  0
  8  9  2  0  0  0
  8 10  1  0  0  0
 10 13  1  0  0  0
 11 12  1  0  0  0
 11 13  1  0  0  0
 13 14  1  0  0  0
 13 15  1  0  0  0
 14 20  1  0  0  0
 14 21  1  0  0  0
 14 22  1  0  0  0
 15 16  2  0  0  0
 15 23  1  0  0  0
 16 17  1  0  0  0
 16 18  1  0  0  0
 17 24  1  0  0  0
 17 25  1  0  0  0
 17 26  1  0  0  0
 18 19  2  0  0  0
 18 27  1  0  0  0
 19 28  1  0  0  0
 19 29  1  0  0  0
M  CHG  1  12  -1
M  END
> <s_m_source_file>
../4c73_ligand.sdf

> <i_m_source_file_index>
1

> <s_epik_input>
RkMoRikoRilDKD1PKUMoPUMxW09IXSlDKD1PKVNbQ0BdMShbQ0gzXSkvW0NIXT1DKFxbQ0gzXSlbQ0hdPVtDSDJd

> <s_epik_cmdline>
J2VwaWtfYXBwJywgJy1pbWFlJywgJ2xpZ2FuZF9wcm8ubWFlJywgJy1vbWFlJywgJ2xpZ2FuZF9wcmVwLm1hZScsICctbXMnLCAnMScsICctcGgnLCAnNycsICctcGh0JywgJzAuNScsICctbnQn

> <r_lp_tautomer_probability>
1

> <r_epik_Ionization_Penalty>
  0.0000

> <r_epik_Ionization_Penalty_Charging>
  0.0000

> <r_epik_Ionization_Penalty_Neutral>
  0.0000

> <r_epik_State_Penalty>
 -0.0000

> <r_epik_Charging_Adjusted_Penalty>
2.70199365463769e-06

> <i_epik_Tot_Q>
-1

> <i_epik_Tot_abs_Q>
1

$$$$
