4c8r_ligand
                    3D
 Schrodinger Suite 2020-3.
 37 38  0  0  1  0            999 V2000
  -31.5050   31.0030  -24.0530 C   0  0  0  0  0  0
  -30.9590   30.3780  -22.9720 C   0  0  0  0  0  0
  -30.0190   31.0190  -22.2200 C   0  0  0  0  0  0
  -29.6190   32.3030  -22.5560 C   0  0  0  0  0  0
  -30.1640   32.9270  -23.6400 N   0  0  0  0  0  0
  -31.1000   32.2850  -24.3960 C   0  0  0  0  0  0
  -31.7110   32.9710  -25.5990 C   0  0  0  0  0  0
  -33.4050   33.3780  -25.2920 S   0  0  0  0  0  0
  -33.1250   34.7150  -24.1560 C   0  0  0  0  0  0
  -34.0680   35.8740  -24.3840 C   0  0  1  0  0  0
  -33.6950   36.5380  -25.6940 C   0  0  0  0  0  0
  -34.5370   36.4580  -26.6290 O   0  0  0  0  0  0
  -32.5720   37.1140  -25.7500 O   0  5  0  0  0  0
  -35.4190   35.4290  -24.4270 N   0  0  0  0  0  0
  -36.0240   34.9640  -23.3160 C   0  0  0  0  0  0
  -35.3830   34.5970  -22.1870 O   0  0  0  0  0  0
  -37.4020   34.8750  -23.3570 C   0  0  0  0  0  0
  -38.0480   33.9480  -22.5960 N   0  3  0  0  0  0
  -39.4070   33.8650  -22.6300 C   0  0  0  0  0  0
  -40.1300   34.7300  -23.4320 C   0  0  0  0  0  0
  -39.4810   35.6640  -24.1890 C   0  0  0  0  0  0
  -38.1180   35.7440  -24.1540 C   0  0  0  0  0  0
  -37.4200   36.6970  -24.9220 O   0  5  0  0  0  0
  -32.2620   30.4943  -24.6499 H   0  0  0  0  0  0
  -31.2729   29.3679  -22.7090 H   0  0  0  0  0  0
  -29.5820   30.5214  -21.3543 H   0  0  0  0  0  0
  -28.8683   32.8146  -21.9536 H   0  0  0  0  0  0
  -31.1562   33.8961  -25.8146 H   0  0  0  0  0  0
  -31.6583   32.3006  -26.4695 H   0  0  0  0  0  0
  -33.2702   34.3574  -23.1259 H   0  0  0  0  0  0
  -32.0964   35.0867  -24.2735 H   0  0  0  0  0  0
  -34.0417   36.5791  -23.5401 H   0  0  0  0  0  0
  -35.9793   35.4627  -25.3730 H   0  0  0  0  0  0
  -39.9239   33.1187  -22.0267 H   0  0  0  0  0  0
  -41.2178   34.6663  -23.4599 H   0  0  0  0  0  0
  -40.0509   36.3452  -24.8208 H   0  0  0  0  0  0
  -37.4720   33.2658  -21.9535 H   0  0  0  0  0  0
  1  2  2  0  0  0
  1  6  1  0  0  0
  1 24  1  0  0  0
  2  3  1  0  0  0
  2 25  1  0  0  0
  3  4  2  0  0  0
  3 26  1  0  0  0
  4  5  1  0  0  0
  4 27  1  0  0  0
  5  6  2  0  0  0
  6  7  1  0  0  0
  7  8  1  0  0  0
  7 28  1  0  0  0
  7 29  1  0  0  0
  8  9  1  0  0  0
  9 10  1  0  0  0
  9 30  1  0  0  0
  9 31  1  0  0  0
 10 11  1  0  0  0
 10 14  1  0  0  0
 10 32  1  0  0  0
 11 12  2  0  0  0
 11 13  1  0  0  0
 14 15  1  0  0  0
 14 33  1  0  0  0
 15 16  2  0  0  0
 15 17  1  0  0  0
 17 18  2  0  0  0
 17 22  1  0  0  0
 18 19  1  0  0  0
 18 37  1  0  0  0
 19 20  2  0  0  0
 19 34  1  0  0  0
 20 21  1  0  0  0
 20 35  1  0  0  0
 21 22  2  0  0  0
 21 36  1  0  0  0
 22 23  1  0  0  0
M  CHG  3  13  -1  18   1  23  -1
M  END
> <s_m_source_file>
../4c8r_ligand.sdf

> <i_m_source_file_index>
1

> <s_epik_input>
bjFbY0hdW2NIXVtjSF1bY0hdYzFbQ0gyXVNbQ0gyXVtDQEBIXShDKD1PKVtPSF0pW05IXUMoPU8pYzJuW2NIXVtjSF1bY0hdYzJbT0hd

> <s_epik_cmdline>
J2VwaWtfYXBwJywgJy1pbWFlJywgJ2xpZ2FuZF9wcm8ubWFlJywgJy1vbWFlJywgJ2xpZ2FuZF9wcmVwLm1hZScsICctbXMnLCAnMScsICctcGgnLCAnNycsICctcGh0JywgJzAuNScsICctbnQn

> <r_lp_tautomer_probability>
0.56342

> <r_epik_Ionization_Penalty>
  0.0542

> <r_epik_Ionization_Penalty_Charging>
  0.0519

> <r_epik_Ionization_Penalty_Neutral>
  0.0023

> <r_epik_State_Penalty>
  0.3914

> <r_epik_Charging_Adjusted_Penalty>
0.44334432123728

> <i_epik_Tot_Q>
-1

> <i_epik_Tot_abs_Q>
3

$$$$
