4c9x_ligand
                    3D
 Schrodinger Suite 2020-3.
 53 56  0  0  1  0            999 V2000
  -12.8480  -13.9590   10.5830 Cl  0  0  0  0  0  0
  -14.3320  -13.1490   10.5750 C   0  0  0  0  0  0
  -14.6490  -12.4340    9.4210 C   0  0  0  0  0  0
  -13.8060  -12.4370    8.4070 F   0  0  0  0  0  0
  -15.8360  -11.7260    9.3230 C   0  0  0  0  0  0
  -16.7160  -11.7280   10.3850 C   0  0  0  0  0  0
  -16.4030  -12.4310   11.5430 C   0  0  0  0  0  0
  -17.5270  -12.3530   12.7580 Cl  0  0  0  0  0  0
  -15.2060  -13.1680   11.6720 C   0  0  0  0  0  0
  -14.9170  -13.8990   12.8830 C   0  0  2  0  0  0
  -13.8460  -13.2030   13.7290 C   0  0  0  0  0  0
  -14.4390  -15.2460   12.6430 O   0  0  0  0  0  0
  -15.2550  -16.1620   12.0530 C   0  0  0  0  0  0
  -16.5650  -15.9320   11.6040 C   0  0  0  0  0  0
  -14.6820  -17.4210   11.9070 C   0  0  0  0  0  0
  -13.4290  -17.6220   12.3560 N   0  0  0  0  0  0
  -15.3980  -18.3870   11.3500 N   0  0  0  0  0  0
  -16.7100  -18.1870   10.8800 C   0  0  0  0  0  0
  -17.3290  -16.9370   11.0090 C   0  0  0  0  0  0
  -18.6050  -16.6900   10.5850 C   0  0  0  0  0  0
  -19.1080  -15.5450   10.1110 C   0  0  0  0  0  0
  -19.6110  -17.5560   10.5800 C   0  0  0  0  0  0
  -20.6920  -16.9280   10.1060 N   0  0  0  0  0  0
  -20.4060  -15.7590    9.8280 N   0  0  0  0  0  0
  -21.4570  -14.8430    9.2670 C   0  0  0  0  0  0
  -21.8350  -15.2970    7.9270 C   0  0  0  0  0  0
  -22.9780  -14.4100    7.5050 C   0  0  0  0  0  0
  -22.5050  -13.0360    7.3110 N   0  3  0  0  0  0
  -22.0600  -12.5050    8.6080 C   0  0  0  0  0  0
  -20.9730  -13.4010    9.2040 C   0  0  0  0  0  0
  -16.0723  -11.1722    8.4144 H   0  0  0  0  0  0
  -17.6554  -11.1793   10.3166 H   0  0  0  0  0  0
  -15.9070  -13.9619   13.3584 H   0  0  0  0  0  0
  -14.1603  -12.1705   13.9415 H   0  0  0  0  0  0
  -12.8942  -13.1904   13.1777 H   0  0  0  0  0  0
  -13.7145  -13.7484   14.6752 H   0  0  0  0  0  0
  -16.9983  -14.9390   11.7236 H   0  0  0  0  0  0
  -12.8686  -16.7927   12.8123 H   0  0  0  0  0  0
  -12.9655  -18.6156   12.2666 H   0  0  0  0  0  0
  -17.2483  -19.0113   10.4121 H   0  0  0  0  0  0
  -18.5654  -14.6090    9.9781 H   0  0  0  0  0  0
  -19.5641  -18.5954   10.9049 H   0  0  0  0  0  0
  -22.3453  -14.8983    9.9134 H   0  0  0  0  0  0
  -20.9755  -15.1927    7.2485 H   0  0  0  0  0  0
  -22.1419  -16.3524    7.9704 H   0  0  0  0  0  0
  -23.4018  -14.7824    6.5607 H   0  0  0  0  0  0
  -23.7549  -14.4176    8.2837 H   0  0  0  0  0  0
  -21.6671  -13.0339    6.5983 H   0  0  0  0  0  0
  -23.3247  -12.4185    6.9151 H   0  0  0  0  0  0
  -21.6543  -11.4919    8.4697 H   0  0  0  0  0  0
  -22.9135  -12.4667    9.3009 H   0  0  0  0  0  0
  -20.7332  -13.0501   10.2186 H   0  0  0  0  0  0
  -20.0732  -13.3434    8.5739 H   0  0  0  0  0  0
  1  2  1  0  0  0
  2  3  2  0  0  0
  2  9  1  0  0  0
  3  4  1  0  0  0
  3  5  1  0  0  0
  5  6  2  0  0  0
  5 31  1  0  0  0
  6  7  1  0  0  0
  6 32  1  0  0  0
  7  8  1  0  0  0
  7  9  2  0  0  0
  9 10  1  0  0  0
 10 11  1  0  0  0
 10 12  1  0  0  0
 10 33  1  0  0  0
 11 34  1  0  0  0
 11 35  1  0  0  0
 11 36  1  0  0  0
 12 13  1  0  0  0
 13 14  2  0  0  0
 13 15  1  0  0  0
 14 19  1  0  0  0
 14 37  1  0  0  0
 15 16  1  0  0  0
 15 17  2  0  0  0
 16 38  1  0  0  0
 16 39  1  0  0  0
 17 18  1  0  0  0
 18 19  2  0  0  0
 18 40  1  0  0  0
 19 20  1  0  0  0
 20 21  2  0  0  0
 20 22  1  0  0  0
 21 24  1  0  0  0
 21 41  1  0  0  0
 22 23  2  0  0  0
 22 42  1  0  0  0
 23 24  1  0  0  0
 24 25  1  0  0  0
 25 26  1  0  0  0
 25 30  1  0  0  0
 25 43  1  0  0  0
 26 27  1  0  0  0
 26 44  1  0  0  0
 26 45  1  0  0  0
 27 28  1  0  0  0
 27 46  1  0  0  0
 27 47  1  0  0  0
 28 29  1  0  0  0
 28 48  1  0  0  0
 28 49  1  0  0  0
 29 30  1  0  0  0
 29 50  1  0  0  0
 29 51  1  0  0  0
 30 52  1  0  0  0
 30 53  1  0  0  0
M  CHG  1  28   1
M  END
> <s_m_source_file>
../4c9x_ligand.sdf

> <i_m_source_file_index>
1

> <s_epik_input>
Q2xjMWMoRilbY0hdW2NIXWMoQ2wpYzFbQ0BIXShbQ0gzXSlPYzJbY0hdYyhbY0hdbmMyW05IMl0pLWMzW2NIXW4obltjSF0zKVtDSF00W0NIMl1bQ0gyXVtOSDIrXVtDSDJdW0NIMl00

> <s_epik_cmdline>
J2VwaWtfYXBwJywgJy1pbWFlJywgJ2xpZ2FuZF9wcm8ubWFlJywgJy1vbWFlJywgJ2xpZ2FuZF9wcmVwLm1hZScsICctbXMnLCAnMScsICctcGgnLCAnNycsICctcGh0JywgJzAuNScsICctbnQn

> <r_lp_tautomer_probability>
0.999999404453161

> <r_epik_Ionization_Penalty>
  0.3436

> <r_epik_Ionization_Penalty_Charging>
  0.0019

> <r_epik_Ionization_Penalty_Neutral>
  0.3417

> <r_epik_State_Penalty>
  0.3362

> <r_epik_Charging_Adjusted_Penalty>
0.338089038862592

> <i_epik_Tot_Q>
1

> <i_epik_Tot_abs_Q>
1

$$$$
