4cae_ligand
                    3D
 Schrodinger Suite 2020-3.
 54 58  0  0  1  0            999 V2000
   21.6580   49.3420   63.5070 C   0  0  0  0  0  0
   22.9450   49.5620   64.1260 O   0  0  0  0  0  0
   24.0720   48.8350   63.8240 C   0  0  0  0  0  0
   25.2260   49.1650   64.5210 C   0  0  0  0  0  0
   26.4110   48.5210   64.3300 C   0  0  0  0  0  0
   26.5280   47.4810   63.3850 C   0  0  0  0  0  0
   25.3480   47.1050   62.6830 C   0  0  0  0  0  0
   24.1090   47.7870   62.8870 C   0  0  0  0  0  0
   25.4940   45.9780   61.6870 C   0  0  0  0  0  0
   25.3870   44.6370   62.4060 C   0  0  0  0  0  0
   24.2770   43.9200   62.7040 O   0  0  0  0  0  0
   24.7090   42.8340   63.3730 C   0  0  0  0  0  0
   25.9760   42.8030   63.6030 N   0  0  0  0  0  0
   26.4150   43.9810   62.9700 N   0  0  0  0  0  0
   23.7230   41.8390   63.8040 C   0  0  0  0  0  0
   22.1840   41.8120   63.0780 S   0  0  0  0  0  0
   21.6890   40.5500   64.0910 C   0  0  0  0  0  0
   20.4610   39.9780   64.0550 C   0  0  0  0  0  0
   20.1940   38.9090   64.9300 C   0  0  0  0  0  0
   21.1390   38.4500   65.8270 C   0  0  0  0  0  0
   22.4550   38.9430   65.9140 C   0  0  0  0  0  0
   22.7370   39.9960   65.0390 C   0  0  0  0  0  0
   23.9100   40.8310   64.8600 C   0  0  0  0  0  0
   25.0650   40.6150   65.5830 O   0  0  0  0  0  0
   24.8110   40.5490   67.0110 C   0  0  0  0  0  0
   25.6670   39.4340   67.5940 C   0  0  0  0  0  0
   27.1540   39.7090   67.3360 C   0  0  0  0  0  0
   27.5070   41.0000   67.9340 N   0  3  0  0  0  0
   26.6850   42.1320   67.4790 C   0  0  0  0  0  0
   25.1740   41.9330   67.6020 C   0  0  0  0  0  0
   20.9261   50.0513   63.9208 H   0  0  0  0  0  0
   21.3255   48.3129   63.7081 H   0  0  0  0  0  0
   21.7427   49.4943   62.4209 H   0  0  0  0  0  0
   25.1822   49.9729   65.2514 H   0  0  0  0  0  0
   27.2818   48.8140   64.9164 H   0  0  0  0  0  0
   27.4813   46.9860   63.1999 H   0  0  0  0  0  0
   23.2158   47.5024   62.3308 H   0  0  0  0  0  0
   24.6975   46.0507   60.9318 H   0  0  0  0  0  0
   26.4746   46.0493   61.1937 H   0  0  0  0  0  0
   19.6981   40.3376   63.3645 H   0  0  0  0  0  0
   19.2153   38.4302   64.8993 H   0  0  0  0  0  0
   20.8468   37.6542   66.5122 H   0  0  0  0  0  0
   23.1927   38.5372   66.6063 H   0  0  0  0  0  0
   23.7532   40.3084   67.1934 H   0  0  0  0  0  0
   25.4979   39.3711   68.6791 H   0  0  0  0  0  0
   25.3933   38.4778   67.1242 H   0  0  0  0  0  0
   27.7588   38.9103   67.7902 H   0  0  0  0  0  0
   27.3389   39.7376   66.2520 H   0  0  0  0  0  0
   27.3920   40.9417   69.0264 H   0  0  0  0  0  0
   28.5507   41.2451   67.6877 H   0  0  0  0  0  0
   26.9315   43.0255   68.0713 H   0  0  0  0  0  0
   26.8885   42.3291   66.4161 H   0  0  0  0  0  0
   24.6451   42.7200   67.0443 H   0  0  0  0  0  0
   24.8755   41.9696   68.6601 H   0  0  0  0  0  0
  1  2  1  0  0  0
  1 31  1  0  0  0
  1 32  1  0  0  0
  1 33  1  0  0  0
  2  3  1  0  0  0
  3  4  2  0  0  0
  3  8  1  0  0  0
  4  5  1  0  0  0
  4 34  1  0  0  0
  5  6  2  0  0  0
  5 35  1  0  0  0
  6  7  1  0  0  0
  6 36  1  0  0  0
  7  8  2  0  0  0
  7  9  1  0  0  0
  8 37  1  0  0  0
  9 10  1  0  0  0
  9 38  1  0  0  0
  9 39  1  0  0  0
 10 11  1  0  0  0
 10 14  2  0  0  0
 11 12  1  0  0  0
 12 13  2  0  0  0
 12 15  1  0  0  0
 13 14  1  0  0  0
 15 16  1  0  0  0
 15 23  2  0  0  0
 16 17  1  0  0  0
 17 18  1  0  0  0
 17 22  2  0  0  0
 18 19  2  0  0  0
 18 40  1  0  0  0
 19 20  1  0  0  0
 19 41  1  0  0  0
 20 21  2  0  0  0
 20 42  1  0  0  0
 21 22  1  0  0  0
 21 43  1  0  0  0
 22 23  1  0  0  0
 23 24  1  0  0  0
 24 25  1  0  0  0
 25 26  1  0  0  0
 25 30  1  0  0  0
 25 44  1  0  0  0
 26 27  1  0  0  0
 26 45  1  0  0  0
 26 46  1  0  0  0
 27 28  1  0  0  0
 27 47  1  0  0  0
 27 48  1  0  0  0
 28 29  1  0  0  0
 28 49  1  0  0  0
 28 50  1  0  0  0
 29 30  1  0  0  0
 29 51  1  0  0  0
 29 52  1  0  0  0
 30 53  1  0  0  0
 30 54  1  0  0  0
M  CHG  1  28   1
M  END
> <s_m_source_file>
../4cae_ligand.sdf

> <i_m_source_file_index>
1

> <s_epik_input>
W0NIM11PYzFbY0hdW2NIXVtjSF1jKFtjSF0xKVtDSDJdYzJvYyhubjIpLWMoczMpYyhjKGMzNClbY0hdW2NIXVtjSF1bY0hdNClPW0NIXTVbQ0gyXVtDSDJdW05IMitdW0NIMl1bQ0gyXTU=

> <s_epik_cmdline>
J2VwaWtfYXBwJywgJy1pbWFlJywgJ2xpZ2FuZF9wcm8ubWFlJywgJy1vbWFlJywgJ2xpZ2FuZF9wcmVwLm1hZScsICctbXMnLCAnMScsICctcGgnLCAnNycsICctcGh0JywgJzAuNScsICctbnQn

> <r_lp_tautomer_probability>
1

> <r_epik_Ionization_Penalty>
  0.0016

> <r_epik_Ionization_Penalty_Charging>
  0.0016

> <r_epik_Ionization_Penalty_Neutral>
  0.0000

> <r_epik_State_Penalty>
 -0.0000

> <r_epik_Charging_Adjusted_Penalty>
0.00164637616491845

> <i_epik_Tot_Q>
1

> <i_epik_Tot_abs_Q>
1

$$$$
