4caf_ligand
                    3D
 Schrodinger Suite 2020-3.
 52 56  0  0  1  0            999 V2000
   25.9950   48.5210   64.0860 C   0  0  0  0  0  0
   26.3550   44.0400   63.0270 N   0  0  0  0  0  0
   24.0900   43.8710   62.8470 O   0  0  0  0  0  0
   22.1310   41.7120   63.1080 S   0  0  0  0  0  0
   24.5780   48.1230   63.7180 C   0  0  0  0  0  0
   25.9540   42.7850   63.5020 N   0  0  0  0  0  0
   25.0100   40.5200   65.4240 O   0  0  0  0  0  0
   24.2200   46.9760   62.8310 C   0  0  0  0  0  0
   27.5190   40.8930   67.7390 N   0  3  0  0  0  0
   25.2250   46.0830   62.1280 C   0  0  0  0  0  0
   22.3090   48.0160   63.5620 N   0  0  0  0  0  0
   25.2400   44.6800   62.6470 C   0  0  0  0  0  0
   23.4210   48.6770   64.1330 N   0  0  0  0  0  0
   24.6460   42.7430   63.2890 C   0  0  0  0  0  0
   23.7060   41.6990   63.6710 C   0  0  0  0  0  0
   23.8460   40.6930   64.7490 C   0  0  0  0  0  0
   24.8390   40.5370   66.8670 C   0  0  0  0  0  0
   25.2640   41.9000   67.4770 C   0  0  0  0  0  0
   26.7920   42.1040   67.3080 C   0  0  0  0  0  0
   27.1300   39.5880   67.2280 C   0  0  0  0  0  0
   25.6420   39.3660   67.4460 C   0  0  0  0  0  0
   22.5990   39.9070   64.9890 C   0  0  0  0  0  0
   22.3140   38.7930   65.8670 C   0  0  0  0  0  0
   21.0040   38.2690   65.8290 C   0  0  0  0  0  0
   19.9970   38.7880   64.9810 C   0  0  0  0  0  0
   20.2540   39.8730   64.0460 C   0  0  0  0  0  0
   21.5660   40.4000   64.0210 C   0  0  0  0  0  0
   22.7350   47.0010   62.7960 C   0  0  3  0  0  0
   21.7970   46.0900   62.0750 C   0  0  0  0  0  0
   26.7071   47.8601   63.5702 H   0  0  0  0  0  0
   26.1310   48.4289   65.1737 H   0  0  0  0  0  0
   26.1742   49.5625   63.7810 H   0  0  0  0  0  0
   28.5788   40.9821   67.4581 H   0  0  0  0  0  0
   27.4369   40.7851   68.8306 H   0  0  0  0  0  0
   24.9858   46.0354   61.0554 H   0  0  0  0  0  0
   26.2366   46.4944   62.2602 H   0  0  0  0  0  0
   23.7648   40.4026   67.0620 H   0  0  0  0  0  0
   24.7314   42.7137   66.9630 H   0  0  0  0  0  0
   25.0131   41.9166   68.5479 H   0  0  0  0  0  0
   27.1108   42.9604   67.9203 H   0  0  0  0  0  0
   27.0132   42.3073   66.2498 H   0  0  0  0  0  0
   27.3496   39.5355   66.1514 H   0  0  0  0  0  0
   27.6937   38.8046   67.7558 H   0  0  0  0  0  0
   25.4453   39.2846   68.5252 H   0  0  0  0  0  0
   25.3412   38.4329   66.9471 H   0  0  0  0  0  0
   23.0755   38.3777   66.5271 H   0  0  0  0  0  0
   20.7578   37.4299   66.4797 H   0  0  0  0  0  0
   18.9954   38.3608   65.0298 H   0  0  0  0  0  0
   19.4711   40.2617   63.3948 H   0  0  0  0  0  0
   22.3733   45.3390   61.5148 H   0  0  0  0  0  0
   21.1814   46.6757   61.3764 H   0  0  0  0  0  0
   21.1453   45.5842   62.8026 H   0  0  0  0  0  0
  1  5  1  0  0  0
  1 30  1  0  0  0
  1 31  1  0  0  0
  1 32  1  0  0  0
  2  6  1  0  0  0
  2 12  2  0  0  0
  3 12  1  0  0  0
  3 14  1  0  0  0
  4 15  1  0  0  0
  4 27  1  0  0  0
  5  8  2  0  0  0
  5 13  1  0  0  0
  6 14  2  0  0  0
  7 16  1  0  0  0
  7 17  1  0  0  0
  8 10  1  0  0  0
  8 28  1  0  0  0
  9 19  1  0  0  0
  9 20  1  0  0  0
  9 33  1  0  0  0
  9 34  1  0  0  0
 10 12  1  0  0  0
 10 35  1  0  0  0
 10 36  1  0  0  0
 11 13  2  0  0  0
 11 28  1  0  0  0
 14 15  1  0  0  0
 15 16  2  0  0  0
 16 22  1  0  0  0
 17 18  1  0  0  0
 17 21  1  0  0  0
 17 37  1  0  0  0
 18 19  1  0  0  0
 18 38  1  0  0  0
 18 39  1  0  0  0
 19 40  1  0  0  0
 19 41  1  0  0  0
 20 21  1  0  0  0
 20 42  1  0  0  0
 20 43  1  0  0  0
 21 44  1  0  0  0
 21 45  1  0  0  0
 22 23  1  0  0  0
 22 27  2  0  0  0
 23 24  2  0  0  0
 23 46  1  0  0  0
 24 25  1  0  0  0
 24 47  1  0  0  0
 25 26  2  0  0  0
 25 48  1  0  0  0
 26 27  1  0  0  0
 26 49  1  0  0  0
 28 29  1  0  0  0
 29 50  1  0  0  0
 29 51  1  0  0  0
 29 52  1  0  0  0
M  CHG  1   9   1
M  END
> <s_m_source_file>
../4caf_ligand.sdf

> <i_m_source_file_index>
1

> <s_epik_input>
TjE9TltDSF0oW0NIM10pQyg9QzFbQ0gzXSlbQ0gyXWMybm5jKG8yKS1jKHNjKGMzNClbY0hdW2NIXVtjSF1bY0hdNCljM09bQ0hdNVtDSDJdW0NIMl1bTkgyK11bQ0gyXVtDSDJdNQ==

> <s_epik_cmdline>
J2VwaWtfYXBwJywgJy1pbWFlJywgJ2xpZ2FuZF9wcm8ubWFlJywgJy1vbWFlJywgJ2xpZ2FuZF9wcmVwLm1hZScsICctbXMnLCAnMScsICctcGgnLCAnNycsICctcGh0JywgJzAuNScsICctbnQn

> <r_lp_tautomer_probability>
1

> <r_epik_Ionization_Penalty>
  0.0016

> <r_epik_Ionization_Penalty_Charging>
  0.0016

> <r_epik_Ionization_Penalty_Neutral>
  0.0000

> <r_epik_State_Penalty>
 -0.0000

> <r_epik_Charging_Adjusted_Penalty>
0.00164637616491845

> <i_epik_Tot_Q>
1

> <i_epik_Tot_abs_Q>
1

$$$$
