4ccd_ligand
                    3D
 Schrodinger Suite 2020-3.
 22 22  0  0  1  0            999 V2000
   77.2510   90.5140   18.2130 C   0  0  0  0  0  0
   76.8220   90.3300   19.6520 C   0  0  0  0  0  0
   77.9510   90.3010   20.5570 C   0  0  2  0  0  0
   78.9410   89.3040   20.2000 C   0  0  2  0  0  0
   79.4050   89.4280   18.7750 C   0  0  1  0  0  0
   80.3200   88.3470   18.3240 C   0  0  0  0  0  0
   77.5260   90.1080   21.9390 O   0  0  0  0  0  0
   78.3780   88.0190   20.4240 O   0  0  0  0  0  0
   78.1930   89.4600   17.8780 O   0  0  0  0  0  0
   80.8620   88.5340   17.0500 O   0  0  0  0  0  0
   76.3699   90.4541   17.5572 H   0  0  0  0  0  0
   77.7291   91.4977   18.0958 H   0  0  0  0  0  0
   76.1665   91.1622   19.9485 H   0  0  0  0  0  0
   76.2770   89.3799   19.7535 H   0  0  0  0  0  0
   78.4296   91.2862   20.4552 H   0  0  0  0  0  0
   79.8044   89.4340   20.8691 H   0  0  0  0  0  0
   80.0028   90.3494   18.7145 H   0  0  0  0  0  0
   81.1671   88.2690   19.0213 H   0  0  0  0  0  0
   79.7753   87.3916   18.3004 H   0  0  0  0  0  0
   76.7744   90.7780   22.3820 H   0  0  0  0  0  0
   77.9861   87.7558   21.4175 H   0  0  0  0  0  0
   81.5508   87.7862   16.6302 H   0  0  0  0  0  0
  1  2  1  0  0  0
  1  9  1  0  0  0
  1 11  1  0  0  0
  1 12  1  0  0  0
  2  3  1  0  0  0
  2 13  1  0  0  0
  2 14  1  0  0  0
  3  4  1  0  0  0
  3  7  1  0  0  0
  3 15  1  0  0  0
  4  5  1  0  0  0
  4  8  1  0  0  0
  4 16  1  0  0  0
  5  6  1  0  0  0
  5  9  1  0  0  0
  5 17  1  0  0  0
  6 10  1  0  0  0
  6 18  1  0  0  0
  6 19  1  0  0  0
  7 20  1  0  0  0
  8 21  1  0  0  0
 10 22  1  0  0  0
M  END
> <s_m_source_file>
../4ccd_ligand.sdf

> <i_m_source_file_index>
1

> <s_epik_input>
W09IXVtDQEBIXTFbQ0gyXVtDSDJdT1tDQEBIXShbQ0BASF0xW09IXSlbQ0gyXVtPSF0=

> <s_epik_cmdline>
J2VwaWtfYXBwJywgJy1pbWFlJywgJ2xpZ2FuZF9wcm8ubWFlJywgJy1vbWFlJywgJ2xpZ2FuZF9wcmVwLm1hZScsICctbXMnLCAnMScsICctcGgnLCAnNycsICctcGh0JywgJzAuNScsICctbnQn

> <r_lp_tautomer_probability>
1

> <r_epik_Ionization_Penalty>
  0.0000

> <r_epik_Ionization_Penalty_Charging>
  0.0000

> <r_epik_Ionization_Penalty_Neutral>
  0.0000

> <r_epik_State_Penalty>
 -0.0000

> <r_epik_Charging_Adjusted_Penalty>
0

> <i_epik_Tot_Q>
0

> <i_epik_Tot_abs_Q>
0

$$$$
