4cd1_ligand
                    3D
 Schrodinger Suite 2020-3.
 44 47  0  0  1  0            999 V2000
   28.1120   34.5550   26.0360 O   0  0  0  0  0  0
   29.1500   35.0860   25.6370 C   0  0  0  0  0  0
   29.1640   35.8640   24.3420 C   0  0  0  0  0  0
   28.0100   35.9830   23.5440 C   0  0  0  0  0  0
   28.0970   36.6940   22.3380 C   0  0  0  0  0  0
   29.3010   37.2780   21.8900 C   0  0  0  0  0  0
   30.4620   37.1830   22.6530 C   0  0  0  0  0  0
   30.4340   36.4810   23.8790 C   0  0  0  0  0  0
   31.6580   36.3350   24.7160 C   0  0  0  0  0  0
   32.7260   36.8540   24.3630 O   0  0  0  0  0  0
   30.3710   34.9550   26.4850 C   0  0  0  0  0  0
   31.6220   35.5900   26.0060 C   0  0  0  0  0  0
   32.8190   35.4580   26.8600 C   0  0  0  0  0  0
   34.0070   35.9600   26.4810 N   0  0  0  0  0  0
   30.3470   34.1950   27.7910 C   0  0  0  0  0  0
   31.5210   34.1090   28.5400 C   0  0  0  0  0  0
   32.7570   34.6710   28.1400 C   0  0  0  0  0  0
   34.1080   34.5660   29.0680 S   0  0  0  0  0  0
   35.1870   33.8230   28.4050 O   0  0  0  0  0  0
   33.6960   33.8710   30.3600 O   0  5  0  0  0  0
   34.5820   35.9090   29.4110 O   0  0  0  0  0  0
   29.1430   33.6470   28.1270 N   0  0  0  0  0  0
   28.9350   32.8450   29.2150 C   0  0  0  0  0  0
   27.7360   33.0250   29.9240 C   0  0  0  0  0  0
   27.3770   32.2560   31.0580 C   0  0  0  0  0  0
   28.3080   31.3160   31.4550 C   0  0  0  0  0  0
   29.4880   31.1310   30.7770 C   0  0  0  0  0  0
   30.4260   30.1010   31.2730 C   0  0  0  0  0  0
   29.8430   31.8580   29.6180 C   0  0  0  0  0  0
   27.0684   35.5319   23.8570 H   0  0  0  0  0  0
   27.2021   36.7992   21.7246 H   0  0  0  0  0  0
   29.3224   37.8083   20.9380 H   0  0  0  0  0  0
   31.3857   37.6468   22.3070 H   0  0  0  0  0  0
   34.0871   36.5404   25.5500 H   0  0  0  0  0  0
   34.8991   35.7904   27.1018 H   0  0  0  0  0  0
   31.4841   33.5769   29.4906 H   0  0  0  0  0  0
   28.2573   33.8413   27.5043 H   0  0  0  0  0  0
   27.0457   33.7969   29.5838 H   0  0  0  0  0  0
   26.4312   32.3963   31.5813 H   0  0  0  0  0  0
   28.1001   30.7031   32.3321 H   0  0  0  0  0  0
   30.0086   29.6287   32.1745 H   0  0  0  0  0  0
   31.3901   30.5706   31.5179 H   0  0  0  0  0  0
   30.5769   29.3376   30.4955 H   0  0  0  0  0  0
   30.7659   31.6626   29.0720 H   0  0  0  0  0  0
  1  2  2  0  0  0
  2  3  1  0  0  0
  2 11  1  0  0  0
  3  4  2  0  0  0
  3  8  1  0  0  0
  4  5  1  0  0  0
  4 30  1  0  0  0
  5  6  2  0  0  0
  5 31  1  0  0  0
  6  7  1  0  0  0
  6 32  1  0  0  0
  7  8  2  0  0  0
  7 33  1  0  0  0
  8  9  1  0  0  0
  9 10  2  0  0  0
  9 12  1  0  0  0
 11 12  2  0  0  0
 11 15  1  0  0  0
 12 13  1  0  0  0
 13 14  1  0  0  0
 13 17  2  0  0  0
 14 34  1  0  0  0
 14 35  1  0  0  0
 15 16  2  0  0  0
 15 22  1  0  0  0
 16 17  1  0  0  0
 16 36  1  0  0  0
 17 18  1  0  0  0
 18 19  2  0  0  0
 18 20  1  0  0  0
 18 21  2  0  0  0
 22 23  1  0  0  0
 22 37  1  0  0  0
 23 24  2  0  0  0
 23 29  1  0  0  0
 24 25  1  0  0  0
 24 38  1  0  0  0
 25 26  2  0  0  0
 25 39  1  0  0  0
 26 27  1  0  0  0
 26 40  1  0  0  0
 27 28  1  0  0  0
 27 29  2  0  0  0
 28 41  1  0  0  0
 28 42  1  0  0  0
 28 43  1  0  0  0
 29 44  1  0  0  0
M  CHG  1  20  -1
M  END
> <s_m_source_file>
../4cd1_ligand.sdf

> <i_m_source_file_index>
1

> <s_epik_input>
W2NIXTFbY0hdW2NIXVtjSF1jKGMxMilDKD1PKWMzYyhDMj1PKWMoW2NIXWMoYzNbTkgyXSlTKD1PKSg9TylbT0hdKVtOSF1jNFtjSF1bY0hdW2NIXWMoW0NIM10pW2NIXTQ=

> <s_epik_cmdline>
J2VwaWtfYXBwJywgJy1pbWFlJywgJ2xpZ2FuZF9wcm8ubWFlJywgJy1vbWFlJywgJ2xpZ2FuZF9wcmVwLm1hZScsICctbXMnLCAnMScsICctcGgnLCAnNycsICctcGh0JywgJzAuNScsICctbnQn

> <r_lp_tautomer_probability>
1

> <r_epik_Ionization_Penalty>
  0.0000

> <r_epik_Ionization_Penalty_Charging>
  0.0000

> <r_epik_Ionization_Penalty_Neutral>
  0.0000

> <r_epik_State_Penalty>
 -0.0000

> <r_epik_Charging_Adjusted_Penalty>
1.05178324423018e-06

> <i_epik_Tot_Q>
-1

> <i_epik_Tot_abs_Q>
1

$$$$
