4cd4_ligand
                    3D
 Schrodinger Suite 2020-3.
 45 46  0  0  1  0            999 V2000
   12.2490   20.3440   15.0440 C   0  0  1  0  0  0
   13.4370   19.9450   15.8790 C   0  0  2  0  0  0
   13.0320   20.0210   17.3450 C   0  0  2  0  0  0
   12.5690   21.4380   17.6640 C   0  0  1  0  0  0
   11.4970   21.9160   16.6740 C   0  0  1  0  0  0
   11.1680   23.4010   16.8460 C   0  0  0  0  0  0
   14.5570   20.8140   15.6450 O   0  0  0  0  0  0
   14.1650   19.6440   18.1680 O   0  0  0  0  0  0
   12.0170   21.4980   18.9910 O   0  0  0  0  0  0
   11.9380   21.7260   15.3170 O   0  0  0  0  0  0
   12.3170   24.2210   16.7040 O   0  0  0  0  0  0
   12.6400   20.3480   13.6860 O   0  0  0  0  0  0
   11.7210   19.9690   12.6670 C   0  0  1  0  0  0
   10.4140   20.7680   12.7210 C   0  0  2  0  0  0
    9.5900   20.3610   13.8230 O   0  0  0  0  0  0
    9.5740   20.5150   11.4610 C   0  0  0  0  0  0
   10.3440   20.7780   10.2380 N   0  3  0  0  0  0
   11.5380   19.9470   10.1570 C   0  0  0  0  0  0
   12.4360   20.2670   11.3490 C   0  0  2  0  0  0
   13.7650   19.5290   11.2240 C   0  0  0  0  0  0
   13.6060   18.1080   11.2230 O   0  0  0  0  0  0
   11.3913   19.6764   15.2131 H   0  0  0  0  0  0
   13.7888   18.9455   15.5837 H   0  0  0  0  0  0
   12.2329   19.3044   17.5858 H   0  0  0  0  0  0
   13.4459   22.1019   17.6504 H   0  0  0  0  0  0
   10.5998   21.2969   16.8218 H   0  0  0  0  0  0
   10.4339   23.7044   16.0850 H   0  0  0  0  0  0
   10.7479   23.5698   17.8485 H   0  0  0  0  0  0
   14.9915   20.8921   14.6375 H   0  0  0  0  0  0
   14.6175   18.6475   18.0577 H   0  0  0  0  0  0
   12.6273   21.1955   19.8547 H   0  0  0  0  0  0
   12.2290   25.3130   16.8031 H   0  0  0  0  0  0
   11.4861   18.9089   12.8430 H   0  0  0  0  0  0
   10.6729   21.8260   12.8747 H   0  0  0  0  0  0
    9.9684   20.4436   14.8526 H   0  0  0  0  0  0
    9.2436   19.4659   11.4452 H   0  0  0  0  0  0
    8.6949   21.1762   11.4675 H   0  0  0  0  0  0
    9.7181   20.5675    9.3583 H   0  0  0  0  0  0
   10.6570   21.8324   10.2214 H   0  0  0  0  0  0
   11.2486   18.8860   10.1804 H   0  0  0  0  0  0
   12.0708   20.1611    9.2187 H   0  0  0  0  0  0
   12.6615   21.3436   11.3482 H   0  0  0  0  0  0
   14.2559   19.8148   10.2820 H   0  0  0  0  0  0
   14.4138   19.7959   12.0713 H   0  0  0  0  0  0
   14.4879   17.4560   11.1383 H   0  0  0  0  0  0
  1  2  1  0  0  0
  1 10  1  0  0  0
  1 12  1  0  0  0
  1 22  1  0  0  0
  2  3  1  0  0  0
  2  7  1  0  0  0
  2 23  1  0  0  0
  3  4  1  0  0  0
  3  8  1  0  0  0
  3 24  1  0  0  0
  4  5  1  0  0  0
  4  9  1  0  0  0
  4 25  1  0  0  0
  5  6  1  0  0  0
  5 10  1  0  0  0
  5 26  1  0  0  0
  6 11  1  0  0  0
  6 27  1  0  0  0
  6 28  1  0  0  0
  7 29  1  0  0  0
  8 30  1  0  0  0
  9 31  1  0  0  0
 11 32  1  0  0  0
 12 13  1  0  0  0
 13 14  1  0  0  0
 13 19  1  0  0  0
 13 33  1  0  0  0
 14 15  1  0  0  0
 14 16  1  0  0  0
 14 34  1  0  0  0
 15 35  1  0  0  0
 16 17  1  0  0  0
 16 36  1  0  0  0
 16 37  1  0  0  0
 17 18  1  0  0  0
 17 38  1  0  0  0
 17 39  1  0  0  0
 18 19  1  0  0  0
 18 40  1  0  0  0
 18 41  1  0  0  0
 19 20  1  0  0  0
 19 42  1  0  0  0
 20 21  1  0  0  0
 20 43  1  0  0  0
 20 44  1  0  0  0
 21 45  1  0  0  0
M  CHG  1  17   1
M  END
> <s_m_source_file>
../4cd4_ligand.sdf

> <i_m_source_file_index>
1

> <s_epik_input>
W09IXVtDSDJdW0NAQEhdKE8xKVtDQEBIXShbT0hdKVtDQEhdKFtPSF0pW0NASF0oW09IXSlbQ0BASF0xT1tDQEhdMltDQEhdKFtPSF0pW0NIMl1bTkgyK11bQ0gyXVtDQEBIXTJbQ0gyXVtPSF0=

> <s_epik_cmdline>
J2VwaWtfYXBwJywgJy1pbWFlJywgJ2xpZ2FuZF9wcm8ubWFlJywgJy1vbWFlJywgJ2xpZ2FuZF9wcmVwLm1hZScsICctbXMnLCAnMScsICctcGgnLCAnNycsICctcGh0JywgJzAuNScsICctbnQn

> <r_lp_tautomer_probability>
1

> <r_epik_Ionization_Penalty>
  0.0080

> <r_epik_Ionization_Penalty_Charging>
  0.0080

> <r_epik_Ionization_Penalty_Neutral>
  0.0000

> <r_epik_State_Penalty>
 -0.0000

> <r_epik_Charging_Adjusted_Penalty>
0.00795629459225398

> <i_epik_Tot_Q>
1

> <i_epik_Tot_abs_Q>
1

> <s_epik_Chemistry_Notes>
This compound contains an acetal/aminal-like group ( X-CH(R)-Y where X, Y are N, S, or O) that may be acid/base labile, releasing an aldehyde.

$$$$
