4cd6_ligand
                    3D
 Schrodinger Suite 2020-3.
 45 46  0  0  1  0            999 V2000
   -4.8830  -16.8860  -19.9350 O   0  0  0  0  0  0
   -5.5610  -18.1400  -20.1420 C   0  0  1  0  0  0
   -6.6790  -18.2430  -19.1140 C   0  0  2  0  0  0
   -6.0780  -18.4280  -17.8250 O   0  0  0  0  0  0
   -7.7100  -19.3460  -19.4060 C   0  0  0  0  0  0
   -7.9570  -19.5100  -20.8420 N   0  3  0  0  0  0
   -6.8420  -19.4750  -21.8000 C   0  0  0  0  0  0
   -6.0820  -18.1780  -21.5800 C   0  0  2  0  0  0
   -5.0100  -17.9280  -22.6420 C   0  0  0  0  0  0
   -3.9310  -18.8740  -22.6110 O   0  0  0  0  0  0
   -3.5390  -16.6860  -19.5090 C   0  0  1  0  0  0
   -2.9200  -15.3350  -19.8250 C   0  0  2  0  0  0
   -1.6330  -15.2520  -19.0100 C   0  0  2  0  0  0
   -1.9410  -15.4830  -17.5360 C   0  0  1  0  0  0
   -2.7650  -16.7570  -17.2800 C   0  0  1  0  0  0
   -3.1080  -16.8800  -15.7880 C   0  0  0  0  0  0
   -3.8160  -14.2480  -19.4950 O   0  0  0  0  0  0
   -1.0080  -13.9790  -19.1500 O   0  0  0  0  0  0
   -0.7070  -15.5990  -16.8340 O   0  0  0  0  0  0
   -3.9300  -16.7410  -18.1290 O   0  0  0  0  0  0
   -3.9410  -18.0190  -15.5110 O   0  0  0  0  0  0
   -4.8489  -18.9648  -19.9916 H   0  0  0  0  0  0
   -7.2312  -17.2920  -19.0891 H   0  0  0  0  0  0
   -5.3168  -17.7196  -17.4663 H   0  0  0  0  0  0
   -7.3427  -20.3049  -19.0116 H   0  0  0  0  0  0
   -8.6650  -19.0925  -18.9227 H   0  0  0  0  0  0
   -8.4263  -20.4881  -21.0239 H   0  0  0  0  0  0
   -8.6269  -18.7110  -21.1925 H   0  0  0  0  0  0
   -6.1825  -20.3381  -21.6267 H   0  0  0  0  0  0
   -7.2381  -19.5163  -22.8254 H   0  0  0  0  0  0
   -6.7774  -17.3357  -21.7102 H   0  0  0  0  0  0
   -5.4645  -17.9844  -23.6421 H   0  0  0  0  0  0
   -4.5727  -16.9296  -22.4937 H   0  0  0  0  0  0
   -3.1040  -18.7889  -23.3313 H   0  0  0  0  0  0
   -2.8123  -17.3997  -19.9244 H   0  0  0  0  0  0
   -2.7516  -15.2014  -20.9038 H   0  0  0  0  0  0
   -0.9019  -15.9748  -19.4012 H   0  0  0  0  0  0
   -2.4828  -14.6084  -17.1466 H   0  0  0  0  0  0
   -2.2302  -17.6694  -17.5826 H   0  0  0  0  0  0
   -2.1806  -16.9870  -15.2062 H   0  0  0  0  0  0
   -3.6448  -15.9778  -15.4596 H   0  0  0  0  0  0
   -4.7905  -14.1662  -19.9987 H   0  0  0  0  0  0
   -0.7043  -13.6219  -20.1451 H   0  0  0  0  0  0
    0.0335  -14.7872  -16.8855 H   0  0  0  0  0  0
   -4.2629  -18.2272  -14.4800 H   0  0  0  0  0  0
  1  2  1  0  0  0
  1 11  1  0  0  0
  2  3  1  0  0  0
  2  8  1  0  0  0
  2 22  1  0  0  0
  3  4  1  0  0  0
  3  5  1  0  0  0
  3 23  1  0  0  0
  4 24  1  0  0  0
  5  6  1  0  0  0
  5 25  1  0  0  0
  5 26  1  0  0  0
  6  7  1  0  0  0
  6 27  1  0  0  0
  6 28  1  0  0  0
  7  8  1  0  0  0
  7 29  1  0  0  0
  7 30  1  0  0  0
  8  9  1  0  0  0
  8 31  1  0  0  0
  9 10  1  0  0  0
  9 32  1  0  0  0
  9 33  1  0  0  0
 10 34  1  0  0  0
 11 12  1  0  0  0
 11 20  1  0  0  0
 11 35  1  0  0  0
 12 13  1  0  0  0
 12 17  1  0  0  0
 12 36  1  0  0  0
 13 14  1  0  0  0
 13 18  1  0  0  0
 13 37  1  0  0  0
 14 15  1  0  0  0
 14 19  1  0  0  0
 14 38  1  0  0  0
 15 16  1  0  0  0
 15 20  1  0  0  0
 15 39  1  0  0  0
 16 21  1  0  0  0
 16 40  1  0  0  0
 16 41  1  0  0  0
 17 42  1  0  0  0
 18 43  1  0  0  0
 19 44  1  0  0  0
 21 45  1  0  0  0
M  CHG  1   6   1
M  END
> <s_m_source_file>
../4cd6_ligand.sdf

> <i_m_source_file_index>
1

> <s_epik_input>
W09IXVtDSDJdW0NAQEhdKE8xKVtDQEBIXShbT0hdKVtDQEhdKFtPSF0pW0NASF0oW09IXSlbQ0BASF0xT1tDQEhdMltDQEhdKFtPSF0pW0NIMl1bTkgyK11bQ0gyXVtDQEBIXTJbQ0gyXVtPSF0=

> <s_epik_cmdline>
J2VwaWtfYXBwJywgJy1pbWFlJywgJ2xpZ2FuZF9wcm8ubWFlJywgJy1vbWFlJywgJ2xpZ2FuZF9wcmVwLm1hZScsICctbXMnLCAnMScsICctcGgnLCAnNycsICctcGh0JywgJzAuNScsICctbnQn

> <r_lp_tautomer_probability>
1

> <r_epik_Ionization_Penalty>
  0.0080

> <r_epik_Ionization_Penalty_Charging>
  0.0080

> <r_epik_Ionization_Penalty_Neutral>
  0.0000

> <r_epik_State_Penalty>
 -0.0000

> <r_epik_Charging_Adjusted_Penalty>
0.00795629459225398

> <i_epik_Tot_Q>
1

> <i_epik_Tot_abs_Q>
1

> <s_epik_Chemistry_Notes>
This compound contains an acetal/aminal-like group ( X-CH(R)-Y where X, Y are N, S, or O) that may be acid/base labile, releasing an aldehyde.

$$$$
