4cd8_ligand
                    3D
 Schrodinger Suite 2020-3.
 48 50  0  0  1  0            999 V2000
   15.0700  -19.3520  -21.4970 C   0  0  0  0  0  0
   16.0080  -19.1930  -22.4150 N   0  0  0  0  0  0
   16.2470  -17.9800  -19.8530 C   0  0  2  0  0  0
   17.3220  -17.8280  -20.9530 C   0  0  1  0  0  0
   16.7590  -17.9400  -22.3840 C   0  0  1  0  0  0
   17.8040  -17.9300  -23.5030 C   0  0  0  0  0  0
   15.1000  -21.1300  -22.7700 C   0  0  0  0  0  0
   16.0560  -20.2530  -23.2380 C   0  0  0  0  0  0
   14.4910  -20.5400  -21.7090 N   0  3  0  0  0  0
   16.5590  -19.0130  -18.9190 O   0  0  0  0  0  0
   13.9960  -18.7320  -19.3930 O   0  0  0  0  0  0
   14.8660  -18.3030  -20.4470 C   0  0  2  0  0  0
   18.7730  -18.9890  -23.3800 O   0  0  0  0  0  0
   19.1540  -16.5170  -20.2970 C   0  0  2  0  0  0
   19.8840  -15.2000  -20.5150 C   0  0  2  0  0  0
   21.1490  -15.2040  -19.6610 C   0  0  2  0  0  0
   20.7820  -15.5780  -18.2300 C   0  0  1  0  0  0
   20.0600  -16.9250  -18.1830 C   0  0  1  0  0  0
   19.7940  -17.4440  -16.7710 C   0  0  0  0  0  0
   17.9570  -16.5240  -21.0540 O   0  0  0  0  0  0
   19.1810  -14.0520  -20.1270 O   0  0  0  0  0  0
   21.8060  -13.9270  -19.7070 O   0  0  0  0  0  0
   22.0240  -15.7050  -17.5620 O   0  0  0  0  0  0
   18.8450  -16.7350  -18.9170 O   0  0  0  0  0  0
   18.7560  -18.4380  -16.7850 O   0  0  0  0  0  0
   16.2424  -17.0498  -19.2658 H   0  0  0  0  0  0
   18.0536  -18.5866  -20.6379 H   0  0  0  0  0  0
   16.1073  -17.0800  -22.5977 H   0  0  0  0  0  0
   17.3020  -18.0486  -24.4746 H   0  0  0  0  0  0
   18.3498  -16.9751  -23.4865 H   0  0  0  0  0  0
   14.8746  -22.1157  -23.1769 H   0  0  0  0  0  0
   16.7132  -20.3914  -24.0965 H   0  0  0  0  0  0
   17.5105  -18.9870  -18.3676 H   0  0  0  0  0  0
   12.9558  -19.0105  -19.6175 H   0  0  0  0  0  0
   14.3361  -17.4470  -20.8902 H   0  0  0  0  0  0
   19.5767  -19.0883  -24.1244 H   0  0  0  0  0  0
   19.7639  -17.3753  -20.6153 H   0  0  0  0  0  0
   20.0089  -15.0714  -21.6003 H   0  0  0  0  0  0
   21.8971  -15.8999  -20.0684 H   0  0  0  0  0  0
   20.1661  -14.8142  -17.7328 H   0  0  0  0  0  0
   20.6488  -17.7147  -18.6725 H   0  0  0  0  0  0
   20.7128  -17.8937  -16.3665 H   0  0  0  0  0  0
   19.4798  -16.6096  -16.1267 H   0  0  0  0  0  0
   18.2170  -13.8116  -20.5991 H   0  0  0  0  0  0
   22.1361  -13.5127  -20.6711 H   0  0  0  0  0  0
   22.6984  -14.8394  -17.4856 H   0  0  0  0  0  0
   18.4401  -18.9166  -15.8463 H   0  0  0  0  0  0
   13.6660  -20.8730  -21.0621 H   0  0  0  0  0  0
  1  2  1  0  0  0
  1  9  2  0  0  0
  1 12  1  0  0  0
  2  5  1  0  0  0
  2  8  1  0  0  0
  3  4  1  0  0  0
  3 10  1  0  0  0
  3 12  1  0  0  0
  3 26  1  0  0  0
  4  5  1  0  0  0
  4 20  1  0  0  0
  4 27  1  0  0  0
  5  6  1  0  0  0
  5 28  1  0  0  0
  6 13  1  0  0  0
  6 29  1  0  0  0
  6 30  1  0  0  0
  7  8  2  0  0  0
  7  9  1  0  0  0
  7 31  1  0  0  0
  8 32  1  0  0  0
  9 48  1  0  0  0
 10 33  1  0  0  0
 11 12  1  0  0  0
 11 34  1  0  0  0
 12 35  1  0  0  0
 13 36  1  0  0  0
 14 15  1  0  0  0
 14 20  1  0  0  0
 14 24  1  0  0  0
 14 37  1  0  0  0
 15 16  1  0  0  0
 15 21  1  0  0  0
 15 38  1  0  0  0
 16 17  1  0  0  0
 16 22  1  0  0  0
 16 39  1  0  0  0
 17 18  1  0  0  0
 17 23  1  0  0  0
 17 40  1  0  0  0
 18 19  1  0  0  0
 18 24  1  0  0  0
 18 41  1  0  0  0
 19 25  1  0  0  0
 19 42  1  0  0  0
 19 43  1  0  0  0
 21 44  1  0  0  0
 22 45  1  0  0  0
 23 46  1  0  0  0
 25 47  1  0  0  0
M  CHG  1   9   1
M  END
> <s_m_source_file>
../4cd8_ligand.sdf

> <i_m_source_file_index>
1

> <s_epik_input>
bjFbY0hdW2NIXW4oYzEyKVtDQEhdKFtDSDJdW09IXSlbQ0BIXShbQ0BIXShbT0hdKVtDQEBIXTJbT0hdKU9bQ0BIXTNbQ0BASF0oW09IXSlbQ0BASF0oW09IXSlbQ0BIXShbT0hdKVtDQEhdKE8zKVtDSDJdW09IXQ==

> <s_epik_cmdline>
J2VwaWtfYXBwJywgJy1pbWFlJywgJ2xpZ2FuZF9wcm8ubWFlJywgJy1vbWFlJywgJ2xpZ2FuZF9wcmVwLm1hZScsICctbXMnLCAnMScsICctcGgnLCAnNycsICctcGh0JywgJzAuNScsICctbnQn

> <r_lp_tautomer_probability>
1

> <r_epik_Ionization_Penalty>
  0.2519

> <r_epik_Ionization_Penalty_Charging>
  0.0000

> <r_epik_Ionization_Penalty_Neutral>
  0.2519

> <r_epik_State_Penalty>
  0.2429

> <r_epik_Charging_Adjusted_Penalty>
0.242864884130159

> <i_epik_Tot_Q>
1

> <i_epik_Tot_abs_Q>
1

> <s_epik_Chemistry_Notes>
This compound contains an acetal/aminal-like group ( X-CH(R)-Y where X, Y are N, S, or O) that may be acid/base labile, releasing an aldehyde.

$$$$
