4cdr_ligand
                    3D
 Schrodinger Suite 2020-3.
113113  0  0  1  0            999 V2000
  175.1930  -49.8030   24.5220 C   0  0  0  0  0  0
  175.9510  -50.1970   25.4290 O   0  0  0  0  0  0
  175.6310  -50.0180   23.0460 C   0  0  0  0  0  0
  173.9440  -49.1770   24.6540 N   0  0  0  0  0  0
  173.1200  -48.7180   25.8690 C   0  0  2  0  0  0
  173.3370  -47.2020   26.2090 C   0  0  0  0  0  0
  172.3960  -46.4960   26.5640 O   0  0  0  0  0  0
  173.0940  -49.6140   27.1840 C   0  0  0  0  0  0
  171.7650  -49.3950   27.9400 C   0  0  0  0  0  0
  174.2700  -49.3900   28.1780 C   0  0  0  0  0  0
  174.5880  -46.7360   26.1290 N   0  0  0  0  0  0
  174.8970  -45.3240   26.3610 C   0  0  2  0  0  0
  175.4940  -44.9310   25.0150 C   0  0  0  0  0  0
  176.5970  -45.3560   24.7040 O   0  0  0  0  0  0
  175.8480  -45.0960   27.5570 C   0  0  2  0  0  0
  176.8680  -44.1760   27.1670 O   0  0  0  0  0  0
  176.4980  -46.4010   28.0420 C   0  0  0  0  0  0
  174.6990  -44.2340   24.1820 N   0  0  0  0  0  0
  175.0420  -43.8120   22.7720 C   0  0  2  0  0  0
  175.9860  -42.7850   22.7190 C   0  0  0  0  0  0
  175.9860  -41.8440   23.5190 O   0  0  0  0  0  0
  173.7320  -43.3740   22.1500 C   0  0  0  0  0  0
  172.8660  -42.9210   23.3370 C   0  0  0  0  0  0
  173.3230  -43.7460   24.5340 C   0  0  0  0  0  0
  176.8550  -42.9240   21.7160 N   0  0  0  0  0  0
  177.9950  -42.0350   21.4610 C   0  0  2  0  0  0
  178.0780  -41.6700   19.9610 C   0  0  0  0  0  0
  177.5070  -42.3660   19.1090 O   0  0  0  0  0  0
  179.1430  -42.9780   21.8450 C   0  0  0  0  0  0
  179.1400  -43.2040   23.3660 C   0  0  0  0  0  0
  180.5300  -42.4960   21.3990 C   0  0  0  0  0  0
  180.5280  -35.4290   20.4760 C   0  0  0  0  0  0
  179.1810  -35.6220   19.7590 C   0  0  0  0  0  0
  179.3470  -36.5770   18.5720 C   0  0  0  0  0  0
  179.2970  -37.9200   19.0660 O   0  0  0  0  0  0
  179.6470  -38.8230   18.0150 C   0  0  0  0  0  0
  179.0350  -40.2230   18.2110 C   0  0  1  0  0  0
  180.0240  -41.2610   17.6520 C   0  0  0  0  0  0
  181.1430  -41.3950   18.1610 O   0  0  0  0  0  0
  178.8230  -40.5880   19.6320 N   0  0  0  0  0  0
  179.5910  -42.0290   16.6430 N   0  0  0  0  0  0
  180.4710  -43.0790   16.0870 C   0  0  2  0  0  0
  180.7160  -42.8100   14.6030 C   0  0  0  0  0  0
  179.8930  -42.1610   13.9690 O   0  0  0  0  0  0
  179.8270  -44.4400   16.3310 C   0  0  2  0  0  0
  178.4620  -44.3210   15.9820 O   0  0  0  0  0  0
  179.9380  -44.8460   17.8210 C   0  0  0  0  0  0
  181.8720  -43.2810   14.0950 N   0  0  0  0  0  0
  182.2910  -43.0360   12.6960 C   0  0  2  0  0  0
  181.4240  -43.7690   11.6780 C   0  0  0  0  0  0
  181.1210  -45.0720   11.9200 O   0  0  0  0  0  0
  183.7510  -43.4360   12.4850 C   0  0  0  0  0  0
  181.0530  -43.0590   10.6080 N   0  0  0  0  0  0
  176.6141  -50.5110   23.0234 H   0  0  0  0  0  0
  175.6971  -49.0447   22.5377 H   0  0  0  0  0  0
  174.8918  -50.6504   22.5326 H   0  0  0  0  0  0
  173.5548  -49.0251   23.6364 H   0  0  0  0  0  0
  172.1213  -48.8764   25.4361 H   0  0  0  0  0  0
  173.1928  -50.6559   26.8455 H   0  0  0  0  0  0
  170.9215  -49.5496   27.2511 H   0  0  0  0  0  0
  171.7326  -48.3688   28.3348 H   0  0  0  0  0  0
  171.6945  -50.1106   28.7724 H   0  0  0  0  0  0
  175.2259  -49.5422   27.6554 H   0  0  0  0  0  0
  174.1887  -50.1056   29.0094 H   0  0  0  0  0  0
  174.2268  -48.3638   28.5718 H   0  0  0  0  0  0
  175.3945  -47.4421   25.8820 H   0  0  0  0  0  0
  173.9996  -44.7511   26.6377 H   0  0  0  0  0  0
  175.3029  -44.6312   28.3918 H   0  0  0  0  0  0
  176.5949  -43.1796   26.7894 H   0  0  0  0  0  0
  175.7139  -47.1113   28.3430 H   0  0  0  0  0  0
  177.1499  -46.1883   28.9021 H   0  0  0  0  0  0
  177.0955  -46.8376   27.2281 H   0  0  0  0  0  0
  175.5763  -44.5980   22.2181 H   0  0  0  0  0  0
  173.9183  -42.5515   21.4438 H   0  0  0  0  0  0
  173.2789  -44.2213   21.6146 H   0  0  0  0  0  0
  173.0202  -41.8464   23.5144 H   0  0  0  0  0  0
  171.8059  -43.1066   23.1094 H   0  0  0  0  0  0
  172.6609  -44.6077   24.7047 H   0  0  0  0  0  0
  173.3730  -43.1354   25.4476 H   0  0  0  0  0  0
  176.6675  -43.7818   21.0534 H   0  0  0  0  0  0
  177.9362  -41.0877   22.0170 H   0  0  0  0  0  0
  178.9581  -43.9175   21.3036 H   0  0  0  0  0  0
  178.1450  -43.5494   23.6834 H   0  0  0  0  0  0
  179.3809  -42.2604   23.8774 H   0  0  0  0  0  0
  179.8919  -43.9639   23.6252 H   0  0  0  0  0  0
  180.5298  -42.3350   20.3108 H   0  0  0  0  0  0
  181.2826  -43.2555   21.6572 H   0  0  0  0  0  0
  180.7717  -41.5520   21.9093 H   0  0  0  0  0  0
  180.3963  -34.7423   21.3252 H   0  0  0  0  0  0
  181.2604  -35.0061   19.7727 H   0  0  0  0  0  0
  180.8906  -36.4006   20.8429 H   0  0  0  0  0  0
  178.4486  -36.0449   20.4623 H   0  0  0  0  0  0
  178.8184  -34.6505   19.3921 H   0  0  0  0  0  0
  178.5338  -36.4097   17.8503 H   0  0  0  0  0  0
  180.3148  -36.3902   18.0836 H   0  0  0  0  0  0
  179.2844  -38.4266   17.0551 H   0  0  0  0  0  0
  180.7407  -38.9342   17.9761 H   0  0  0  0  0  0
  178.0431  -40.2209   17.7354 H   0  0  0  0  0  0
  179.2725  -39.9781   20.4295 H   0  0  0  0  0  0
  178.5832  -41.8796   16.2283 H   0  0  0  0  0  0
  181.4406  -43.0472   16.6055 H   0  0  0  0  0  0
  180.2666  -45.2139   15.6846 H   0  0  0  0  0  0
  178.1789  -44.0381   14.9574 H   0  0  0  0  0  0
  180.9986  -44.9399   18.0974 H   0  0  0  0  0  0
  179.4317  -45.8100   17.9770 H   0  0  0  0  0  0
  179.4626  -44.0766   18.4471 H   0  0  0  0  0  0
  182.5146  -43.8693   14.7666 H   0  0  0  0  0  0
  182.1542  -41.9527   12.5624 H   0  0  0  0  0  0
  184.3841  -42.9115   13.2157 H   0  0  0  0  0  0
  184.0627  -43.1620   11.4663 H   0  0  0  0  0  0
  183.8569  -44.5224   12.6211 H   0  0  0  0  0  0
  181.3563  -42.0058   10.5146 H   0  0  0  0  0  0
  180.4443  -43.5279    9.8208 H   0  0  0  0  0  0
  1  2  2  0  0  0
  1  3  1  0  0  0
  1  4  1  0  0  0
  3 54  1  0  0  0
  3 55  1  0  0  0
  3 56  1  0  0  0
  4  5  1  0  0  0
  4 57  1  0  0  0
  5  6  1  0  0  0
  5  8  1  0  0  0
  5 58  1  0  0  0
  6  7  2  0  0  0
  6 11  1  0  0  0
  8  9  1  0  0  0
  8 10  1  0  0  0
  8 59  1  0  0  0
  9 60  1  0  0  0
  9 61  1  0  0  0
  9 62  1  0  0  0
 10 63  1  0  0  0
 10 64  1  0  0  0
 10 65  1  0  0  0
 11 12  1  0  0  0
 11 66  1  0  0  0
 12 13  1  0  0  0
 12 15  1  0  0  0
 12 67  1  0  0  0
 13 14  2  0  0  0
 13 18  1  0  0  0
 15 16  1  0  0  0
 15 17  1  0  0  0
 15 68  1  0  0  0
 16 69  1  0  0  0
 17 70  1  0  0  0
 17 71  1  0  0  0
 17 72  1  0  0  0
 18 19  1  0  0  0
 18 24  1  0  0  0
 19 20  1  0  0  0
 19 22  1  0  0  0
 19 73  1  0  0  0
 20 21  2  0  0  0
 20 25  1  0  0  0
 22 23  1  0  0  0
 22 74  1  0  0  0
 22 75  1  0  0  0
 23 24  1  0  0  0
 23 76  1  0  0  0
 23 77  1  0  0  0
 24 78  1  0  0  0
 24 79  1  0  0  0
 25 26  1  0  0  0
 25 80  1  0  0  0
 26 27  1  0  0  0
 26 29  1  0  0  0
 26 81  1  0  0  0
 27 28  2  0  0  0
 27 40  1  0  0  0
 29 30  1  0  0  0
 29 31  1  0  0  0
 29 82  1  0  0  0
 30 83  1  0  0  0
 30 84  1  0  0  0
 30 85  1  0  0  0
 31 86  1  0  0  0
 31 87  1  0  0  0
 31 88  1  0  0  0
 32 33  1  0  0  0
 32 89  1  0  0  0
 32 90  1  0  0  0
 32 91  1  0  0  0
 33 34  1  0  0  0
 33 92  1  0  0  0
 33 93  1  0  0  0
 34 35  1  0  0  0
 34 94  1  0  0  0
 34 95  1  0  0  0
 35 36  1  0  0  0
 36 37  1  0  0  0
 36 96  1  0  0  0
 36 97  1  0  0  0
 37 38  1  0  0  0
 37 40  1  0  0  0
 37 98  1  0  0  0
 38 39  2  0  0  0
 38 41  1  0  0  0
 40 99  1  0  0  0
 41 42  1  0  0  0
 41100  1  0  0  0
 42 43  1  0  0  0
 42 45  1  0  0  0
 42101  1  0  0  0
 43 44  2  0  0  0
 43 48  1  0  0  0
 45 46  1  0  0  0
 45 47  1  0  0  0
 45102  1  0  0  0
 46103  1  0  0  0
 47104  1  0  0  0
 47105  1  0  0  0
 47106  1  0  0  0
 48 49  1  0  0  0
 48107  1  0  0  0
 49 50  1  0  0  0
 49 52  1  0  0  0
 49108  1  0  0  0
 50 51  2  0  0  0
 50 53  1  0  0  0
 52109  1  0  0  0
 52110  1  0  0  0
 52111  1  0  0  0
 53112  1  0  0  0
 53113  1  0  0  0
M  END
> <s_m_source_file>
../4cdr_ligand.sdf

> <i_m_source_file_index>
1

> <s_epik_input>
Tz1DKFtDSDNdKVtOSF1bQ0BASF0oW0NIXShbQ0gzXSlbQ0gzXSlDKD1PKVtOSF1bQ0BASF0oW0NASF0oW09IXSlbQ0gzXSlDKD1PKU4xW0NAQEhdKFtDSDJdW0NIMl1bQ0gyXTEpQyg9TylbTkhdW0NAQEhdKFtDSF0oW0NIM10pW0NIM10pQyg9TylbTkhdW0NAQEhdKFtDSDJdT1tDSDJdW0NIMl1bQ0gzXSlDKD1PKVtOSF1bQ0BASF0oW0NASF0oW09IXSlbQ0gzXSlDKD1PKVtOSF1bQ0BASF0oW0NIM10pQyg9TylbTkgyXQ==

> <s_epik_cmdline>
J2VwaWtfYXBwJywgJy1pbWFlJywgJ2xpZ2FuZF9wcm8ubWFlJywgJy1vbWFlJywgJ2xpZ2FuZF9wcmVwLm1hZScsICctbXMnLCAnMScsICctcGgnLCAnNycsICctcGh0JywgJzAuNScsICctbnQn

> <r_lp_tautomer_probability>
1

> <r_epik_Ionization_Penalty>
  0.0000

> <r_epik_Ionization_Penalty_Charging>
  0.0000

> <r_epik_Ionization_Penalty_Neutral>
  0.0000

> <r_epik_State_Penalty>
 -0.0000

> <r_epik_Charging_Adjusted_Penalty>
0

> <i_epik_Tot_Q>
0

> <i_epik_Tot_abs_Q>
0

$$$$
