4ce1_ligand
                    3D
 Schrodinger Suite 2020-3.
 51 52  0  0  1  0            999 V2000
   19.8830   -1.9180   -6.1750 O   0  0  0  0  0  0
   18.9630   -2.7070   -6.0140 C   0  0  0  0  0  0
   17.9460   -2.8520   -6.8860 N   0  0  0  0  0  0
   16.9460   -3.9220   -6.7610 C   0  0  0  0  0  0
   19.0060   -3.5920   -4.7950 C   0  0  0  0  0  0
   19.9400   -4.6660   -4.7570 C   0  0  0  0  0  0
   20.7510   -4.8690   -5.7990 O   0  0  0  0  0  0
   19.9990   -5.5180   -3.6690 C   0  0  0  0  0  0
   19.1500   -5.3140   -2.5960 C   0  0  0  0  0  0
   19.1190   -6.1560   -1.5350 O   0  5  0  0  0  0
   18.2580   -4.2200   -2.6520 C   0  0  0  0  0  0
   17.3230   -3.9730   -1.2430 Cl  0  0  0  0  0  0
   18.1240   -3.3460   -3.7240 C   0  0  0  0  0  0
   17.1160   -2.2100   -3.7550 C   0  0  0  0  0  0
   15.6760   -2.6260   -3.5330 C   0  0  0  0  0  0
   15.2630   -3.6740   -3.9720 O   0  0  0  0  0  0
   14.7950   -1.7110   -2.7250 C   0  0  0  0  0  0
   13.3100   -2.0370   -2.7370 C   0  0  0  0  0  0
   12.5790   -1.1470   -3.6910 C   0  0  0  0  0  0
   12.9500   -1.4330   -5.1370 C   0  0  0  0  0  0
   12.4950   -0.4060   -6.1570 C   0  0  0  0  0  0
   12.8930   -0.8180   -7.5780 C   0  0  0  0  0  0
   14.3220   -0.4340   -7.8830 C   0  0  0  0  0  0
   15.4070   -1.0410   -7.4100 C   0  0  0  0  0  0
   16.8540   -0.6740   -7.6690 C   0  0  0  0  0  0
   17.7480   -1.8840   -7.9650 C   0  0  0  0  0  0
   17.2117   -4.5754   -5.9169 H   0  0  0  0  0  0
   16.9230   -4.5125   -7.6888 H   0  0  0  0  0  0
   15.9550   -3.4788   -6.5837 H   0  0  0  0  0  0
   20.7095   -4.1954   -6.6676 H   0  0  0  0  0  0
   20.7096   -6.3445   -3.6571 H   0  0  0  0  0  0
   17.3591   -1.4825   -2.9665 H   0  0  0  0  0  0
   17.1530   -1.7136   -4.7359 H   0  0  0  0  0  0
   15.1062   -1.7395   -1.6703 H   0  0  0  0  0  0
   14.8859   -0.6833   -3.1065 H   0  0  0  0  0  0
   13.1667   -3.0827   -3.0467 H   0  0  0  0  0  0
   12.8948   -1.8931   -1.7286 H   0  0  0  0  0  0
   11.4955   -1.3000   -3.5783 H   0  0  0  0  0  0
   12.8254   -0.0969   -3.4750 H   0  0  0  0  0  0
   14.0445   -1.4911   -5.2301 H   0  0  0  0  0  0
   12.5043   -2.3895   -5.4476 H   0  0  0  0  0  0
   11.4002   -0.3077   -6.1150 H   0  0  0  0  0  0
   12.9593    0.5654   -5.9315 H   0  0  0  0  0  0
   12.7940   -1.9083   -7.6849 H   0  0  0  0  0  0
   12.2345   -0.3172   -8.3030 H   0  0  0  0  0  0
   14.4245    0.4277   -8.5590 H   0  0  0  0  0  0
   15.3046   -1.9152   -6.7502 H   0  0  0  0  0  0
   16.9119   -0.0014   -8.5375 H   0  0  0  0  0  0
   17.2677   -0.1673   -6.7846 H   0  0  0  0  0  0
   18.7198   -1.4638   -8.2635 H   0  0  0  0  0  0
   17.2851   -2.3858   -8.8275 H   0  0  0  0  0  0
  1  2  2  0  0  0
  2  3  1  0  0  0
  2  5  1  0  0  0
  3  4  1  0  0  0
  3 26  1  0  0  0
  4 27  1  0  0  0
  4 28  1  0  0  0
  4 29  1  0  0  0
  5  6  2  0  0  0
  5 13  1  0  0  0
  6  7  1  0  0  0
  6  8  1  0  0  0
  7 30  1  0  0  0
  8  9  2  0  0  0
  8 31  1  0  0  0
  9 10  1  0  0  0
  9 11  1  0  0  0
 11 12  1  0  0  0
 11 13  2  0  0  0
 13 14  1  0  0  0
 14 15  1  0  0  0
 14 32  1  0  0  0
 14 33  1  0  0  0
 15 16  2  0  0  0
 15 17  1  0  0  0
 17 18  1  0  0  0
 17 34  1  0  0  0
 17 35  1  0  0  0
 18 19  1  0  0  0
 18 36  1  0  0  0
 18 37  1  0  0  0
 19 20  1  0  0  0
 19 38  1  0  0  0
 19 39  1  0  0  0
 20 21  1  0  0  0
 20 40  1  0  0  0
 20 41  1  0  0  0
 21 22  1  0  0  0
 21 42  1  0  0  0
 21 43  1  0  0  0
 22 23  1  0  0  0
 22 44  1  0  0  0
 22 45  1  0  0  0
 23 24  2  0  0  0
 23 46  1  0  0  0
 24 25  1  0  0  0
 24 47  1  0  0  0
 25 26  1  0  0  0
 25 48  1  0  0  0
 25 49  1  0  0  0
 26 50  1  0  0  0
 26 51  1  0  0  0
M  CHG  1  10  -1
M  END
> <s_m_source_file>
../4ce1_ligand.sdf

> <i_m_source_file_index>
1

> <s_epik_input>
Tz1DMU4oW0NIM10pW0NIMl1bQ0gyXVxbQ0hdPVtDSF1cW0NIMl1bQ0gyXVtDSDJdW0NIMl1bQ0gyXVtDSDJdQyg9TylbQ0gyXWMoYzEyKWMoQ2wpYyhbT0hdKVtjSF1jMltPSF0=

> <s_epik_cmdline>
J2VwaWtfYXBwJywgJy1pbWFlJywgJ2xpZ2FuZF9wcm8ubWFlJywgJy1vbWFlJywgJ2xpZ2FuZF9wcmVwLm1hZScsICctbXMnLCAnMScsICctcGgnLCAnNycsICctcGh0JywgJzAuNScsICctbnQn

> <r_lp_tautomer_probability>
0.99999998

> <r_epik_Ionization_Penalty>
  0.3849

> <r_epik_Ionization_Penalty_Charging>
  0.3815

> <r_epik_Ionization_Penalty_Neutral>
  0.0034

> <r_epik_State_Penalty>
  0.5172

> <r_epik_Charging_Adjusted_Penalty>
0.898655396915027

> <i_epik_Tot_Q>
-1

> <i_epik_Tot_abs_Q>
1

$$$$
