4ce2_ligand
                    3D
 Schrodinger Suite 2020-3.
 48 49  0  0  1  0            999 V2000
   19.9770   -2.0660   -6.4070 O   0  0  0  0  0  0
   19.0240   -2.7650   -6.1270 C   0  0  0  0  0  0
   17.9210   -2.8350   -6.8980 N   0  0  0  0  0  0
   16.8340   -3.7860   -6.6380 C   0  0  0  0  0  0
   19.1380   -3.6220   -4.8830 C   0  0  0  0  0  0
   20.1060   -4.6690   -4.9100 C   0  0  0  0  0  0
   20.9270   -4.8390   -5.9880 O   0  0  0  0  0  0
   20.2250   -5.5520   -3.8470 C   0  0  0  0  0  0
   19.4020   -5.4290   -2.7440 C   0  0  0  0  0  0
   19.4430   -6.3140   -1.7030 O   0  5  0  0  0  0
   18.4890   -4.4110   -2.7000 C   0  0  0  0  0  0
   17.4910   -4.3360   -1.3010 Cl  0  0  0  0  0  0
   18.3230   -3.4890   -3.7320 C   0  0  0  0  0  0
   17.2850   -2.4070   -3.5170 C   0  0  0  0  0  0
   15.8830   -2.9460   -3.3270 C   0  0  0  0  0  0
   15.5750   -4.0310   -3.7700 O   0  0  0  0  0  0
   14.9070   -2.1090   -2.5410 C   0  0  0  0  0  0
   13.5870   -1.8270   -3.2270 C   0  0  0  0  0  0
   13.7250   -0.8540   -4.3710 C   0  0  0  0  0  0
   13.0070   -1.2800   -5.6550 C   0  0  0  0  0  0
   13.2570   -0.3480   -6.8420 C   0  0  0  0  0  0
   14.7280   -0.1810   -7.0150 C   0  0  0  0  0  0
   15.5120   -0.9380   -7.7080 C   0  0  0  0  0  0
   16.9750   -0.7610   -7.8150 C   0  0  0  0  0  0
   17.7960   -2.0160   -8.1060 C   0  0  0  0  0  0
   17.0432   -4.3370   -5.7092 H   0  0  0  0  0  0
   16.7587   -4.4948   -7.4758 H   0  0  0  0  0  0
   15.8853   -3.2390   -6.5341 H   0  0  0  0  0  0
   20.8564   -4.1548   -6.8464 H   0  0  0  0  0  0
   20.9708   -6.3462   -3.8819 H   0  0  0  0  0  0
   17.5402   -1.8276   -2.6175 H   0  0  0  0  0  0
   17.2657   -1.7386   -4.3904 H   0  0  0  0  0  0
   14.6627   -2.6195   -1.5978 H   0  0  0  0  0  0
   15.3573   -1.1296   -2.3218 H   0  0  0  0  0  0
   13.1748   -2.7645   -3.6285 H   0  0  0  0  0  0
   12.8810   -1.3973   -2.5011 H   0  0  0  0  0  0
   13.3054    0.1194   -4.0771 H   0  0  0  0  0  0
   14.7888   -0.7335   -4.6236 H   0  0  0  0  0  0
   13.3485   -2.2830   -5.9505 H   0  0  0  0  0  0
   11.9214   -1.2995   -5.4789 H   0  0  0  0  0  0
   12.8208   -0.7873   -7.7513 H   0  0  0  0  0  0
   12.7900    0.6285   -6.6462 H   0  0  0  0  0  0
   15.1357    0.6884   -6.4784 H   0  0  0  0  0  0
   15.0990   -1.7863   -8.2735 H   0  0  0  0  0  0
   17.2007   -0.0593   -8.6315 H   0  0  0  0  0  0
   17.3661   -0.3600   -6.8683 H   0  0  0  0  0  0
   18.7967   -1.7176   -8.4518 H   0  0  0  0  0  0
   17.2945   -2.5979   -8.8933 H   0  0  0  0  0  0
  1  2  2  0  0  0
  2  3  1  0  0  0
  2  5  1  0  0  0
  3  4  1  0  0  0
  3 25  1  0  0  0
  4 26  1  0  0  0
  4 27  1  0  0  0
  4 28  1  0  0  0
  5  6  2  0  0  0
  5 13  1  0  0  0
  6  7  1  0  0  0
  6  8  1  0  0  0
  7 29  1  0  0  0
  8  9  2  0  0  0
  8 30  1  0  0  0
  9 10  1  0  0  0
  9 11  1  0  0  0
 11 12  1  0  0  0
 11 13  2  0  0  0
 13 14  1  0  0  0
 14 15  1  0  0  0
 14 31  1  0  0  0
 14 32  1  0  0  0
 15 16  2  0  0  0
 15 17  1  0  0  0
 17 18  1  0  0  0
 17 33  1  0  0  0
 17 34  1  0  0  0
 18 19  1  0  0  0
 18 35  1  0  0  0
 18 36  1  0  0  0
 19 20  1  0  0  0
 19 37  1  0  0  0
 19 38  1  0  0  0
 20 21  1  0  0  0
 20 39  1  0  0  0
 20 40  1  0  0  0
 21 22  1  0  0  0
 21 41  1  0  0  0
 21 42  1  0  0  0
 22 23  2  0  0  0
 22 43  1  0  0  0
 23 24  1  0  0  0
 23 44  1  0  0  0
 24 25  1  0  0  0
 24 45  1  0  0  0
 24 46  1  0  0  0
 25 47  1  0  0  0
 25 48  1  0  0  0
M  CHG  1  10  -1
M  END
> <s_m_source_file>
../4ce2_ligand.sdf

> <i_m_source_file_index>
1

> <s_epik_input>
Tz1DMU4oW0NIM10pW0NIMl1bQ0gyXVxbQ0hdPVtDSF1cW0NIMl1bQ0gyXVtDSDJdW0NIMl1bQ0gyXUMoPU8pW0NIMl1jKGMxMiljKENsKWMoW09IXSlbY0hdYzJbT0hd

> <s_epik_cmdline>
J2VwaWtfYXBwJywgJy1pbWFlJywgJ2xpZ2FuZF9wcm8ubWFlJywgJy1vbWFlJywgJ2xpZ2FuZF9wcmVwLm1hZScsICctbXMnLCAnMScsICctcGgnLCAnNycsICctcGh0JywgJzAuNScsICctbnQn

> <r_lp_tautomer_probability>
0.99999998

> <r_epik_Ionization_Penalty>
  0.3846

> <r_epik_Ionization_Penalty_Charging>
  0.3812

> <r_epik_Ionization_Penalty_Neutral>
  0.0034

> <r_epik_State_Penalty>
  0.5169

> <r_epik_Charging_Adjusted_Penalty>
0.898060595641891

> <i_epik_Tot_Q>
-1

> <i_epik_Tot_abs_Q>
1

$$$$
