4ce3_ligand
                    3D
 Schrodinger Suite 2020-3.
 45 46  0  0  1  0            999 V2000
   18.9440   -2.5540   -6.1100 C   0  0  0  0  0  0
   19.0140   -3.4650   -4.9000 C   0  0  0  0  0  0
   19.8930   -4.5750   -4.8780 C   0  0  0  0  0  0
   19.9290   -5.4450   -3.8030 C   0  0  0  0  0  0
   19.1110   -5.2270   -2.7120 C   0  0  0  0  0  0
   18.2730   -4.1340   -2.7080 C   0  0  0  0  0  0
   18.1830   -3.2420   -3.7740 C   0  0  0  0  0  0
   17.1720   -2.1150   -3.6950 C   0  0  0  0  0  0
   15.7290   -2.5730   -3.7930 C   0  0  0  0  0  0
   14.6450   -1.7130   -3.1990 C   0  0  0  0  0  0
   14.0610   -0.6730   -4.1430 C   0  0  0  0  0  0
   13.1670   -1.2460   -5.2390 C   0  0  0  0  0  0
   13.0250   -0.2710   -6.3790 C   0  0  0  0  0  0
   13.7950   -0.1580   -7.4610 C   0  0  0  0  0  0
   14.9880   -0.9980   -7.8520 C   0  0  0  0  0  0
   16.3090   -0.6530   -7.1490 C   0  0  0  0  0  0
   17.0560   -3.8130   -7.0700 C   0  0  0  0  0  0
   19.9050   -1.8310   -6.3250 O   0  0  0  0  0  0
   20.7650   -4.7840   -5.8860 O   0  0  0  0  0  0
   19.0890   -6.1000   -1.6750 O   0  5  0  0  0  0
   17.3230   -3.9120   -1.2940 Cl  0  0  0  0  0  0
   17.4710   -1.4530   -7.7300 C   0  0  0  0  0  0
   15.4560   -3.6280   -4.3220 O   0  0  0  0  0  0
   17.8710   -2.6070   -6.9230 N   0  0  0  0  0  0
   20.6025   -6.3019   -3.8171 H   0  0  0  0  0  0
   17.2817   -1.5907   -2.7342 H   0  0  0  0  0  0
   17.3452   -1.4085   -4.5201 H   0  0  0  0  0  0
   13.8085   -2.3494   -2.8745 H   0  0  0  0  0  0
   15.0452   -1.1642   -2.3338 H   0  0  0  0  0  0
   13.4490    0.0394   -3.5703 H   0  0  0  0  0  0
   14.8778   -0.1338   -4.6452 H   0  0  0  0  0  0
   13.6085   -2.1776   -5.6226 H   0  0  0  0  0  0
   12.1693   -1.4559   -4.8260 H   0  0  0  0  0  0
   12.1646    0.4009   -6.2436 H   0  0  0  0  0  0
   13.5886    0.6270   -8.2034 H   0  0  0  0  0  0
   14.7843   -2.0541   -7.6212 H   0  0  0  0  0  0
   15.1764   -0.8880   -8.9302 H   0  0  0  0  0  0
   16.5232    0.4184   -7.2764 H   0  0  0  0  0  0
   16.2255   -0.8852   -6.0770 H   0  0  0  0  0  0
   17.4526   -4.6052   -6.4180 H   0  0  0  0  0  0
   17.0857   -4.1503   -8.1166 H   0  0  0  0  0  0
   16.0169   -3.5902   -6.7859 H   0  0  0  0  0  0
   20.7679   -4.1142   -6.7585 H   0  0  0  0  0  0
   17.1924   -1.8358   -8.7229 H   0  0  0  0  0  0
   18.3538   -0.8032   -7.8220 H   0  0  0  0  0  0
  1  2  1  0  0  0
  1 18  2  0  0  0
  1 24  1  0  0  0
  2  3  2  0  0  0
  2  7  1  0  0  0
  3  4  1  0  0  0
  3 19  1  0  0  0
  4  5  2  0  0  0
  4 25  1  0  0  0
  5  6  1  0  0  0
  5 20  1  0  0  0
  6  7  2  0  0  0
  6 21  1  0  0  0
  7  8  1  0  0  0
  8  9  1  0  0  0
  8 26  1  0  0  0
  8 27  1  0  0  0
  9 10  1  0  0  0
  9 23  2  0  0  0
 10 11  1  0  0  0
 10 28  1  0  0  0
 10 29  1  0  0  0
 11 12  1  0  0  0
 11 30  1  0  0  0
 11 31  1  0  0  0
 12 13  1  0  0  0
 12 32  1  0  0  0
 12 33  1  0  0  0
 13 14  2  0  0  0
 13 34  1  0  0  0
 14 15  1  0  0  0
 14 35  1  0  0  0
 15 16  1  0  0  0
 15 36  1  0  0  0
 15 37  1  0  0  0
 16 22  1  0  0  0
 16 38  1  0  0  0
 16 39  1  0  0  0
 17 24  1  0  0  0
 17 40  1  0  0  0
 17 41  1  0  0  0
 17 42  1  0  0  0
 19 43  1  0  0  0
 22 24  1  0  0  0
 22 44  1  0  0  0
 22 45  1  0  0  0
M  CHG  1  20  -1
M  END
> <s_m_source_file>
../4ce3_ligand.sdf

> <i_m_source_file_index>
1

> <s_epik_input>
Tz1DMU4oW0NIM10pW0NIMl1bQ0gyXVtDSDJdL1tDSF09W0NIXVxbQ0gyXVtDSDJdW0NIMl1DKD1PKVtDSDJdYyhjMTIpYyhDbCljKFtPSF0pW2NIXWMyW09IXQ==

> <s_epik_cmdline>
J2VwaWtfYXBwJywgJy1pbWFlJywgJ2xpZ2FuZF9wcm8ubWFlJywgJy1vbWFlJywgJ2xpZ2FuZF9wcmVwLm1hZScsICctbXMnLCAnMScsICctcGgnLCAnNycsICctcGh0JywgJzAuNScsICctbnQn

> <r_lp_tautomer_probability>
0.99999998

> <r_epik_Ionization_Penalty>
  0.4052

> <r_epik_Ionization_Penalty_Charging>
  0.4021

> <r_epik_Ionization_Penalty_Neutral>
  0.0031

> <r_epik_State_Penalty>
  0.5329

> <r_epik_Charging_Adjusted_Penalty>
0.934983674791732

> <i_epik_Tot_Q>
-1

> <i_epik_Tot_abs_Q>
1

$$$$
