4cfl_ligand
                    3D
 Schrodinger Suite 2020-3.
 42 45  0  0  1  0            999 V2000
   22.1830   49.0130   -0.2320 O   0  0  0  0  0  0
   23.1670   49.7020   -0.5250 C   0  0  0  0  0  0
   24.4840   49.4790    0.1040 C   0  0  0  0  0  0
   24.6710   48.5040    1.0850 C   0  0  0  0  0  0
   25.9230   48.3120    1.6500 C   0  0  0  0  0  0
   27.0040   49.0780    1.2450 C   0  0  0  0  0  0
   25.5810   50.2490   -0.2900 C   0  0  0  0  0  0
   26.8530   50.0530    0.2630 C   0  0  0  0  0  0
   28.0510   50.8160   -0.1930 C   0  0  0  0  0  0
   28.9190   51.4000    0.7270 C   0  0  0  0  0  0
   30.0320   52.1060    0.3000 C   0  0  0  0  0  0
   30.2950   52.2420   -1.0430 C   0  0  0  0  0  0
   29.4500   51.6690   -1.9670 C   0  0  0  0  0  0
   28.3370   50.9590   -1.5490 C   0  0  0  0  0  0
   25.4560   51.2230   -1.2570 O   0  0  0  0  0  0
   24.2240   51.4340   -1.8540 C   0  0  0  0  0  0
   23.0890   50.7370   -1.5250 C   0  0  0  0  0  0
   24.3730   52.4090   -2.8620 N   0  0  0  0  0  0
   25.6170   53.1810   -2.8980 C   0  0  0  0  0  0
   26.1920   53.0900   -4.2870 C   0  0  0  0  0  0
   25.1650   53.3610   -5.3090 N   0  3  0  0  0  0
   24.0290   52.4310   -5.2330 C   0  0  0  0  0  0
   23.3370   52.4990   -3.8940 C   0  0  0  0  0  0
   23.8297   47.8910    1.4084 H   0  0  0  0  0  0
   26.0576   47.5518    2.4194 H   0  0  0  0  0  0
   27.9814   48.9158    1.6993 H   0  0  0  0  0  0
   28.7204   51.3004    1.7941 H   0  0  0  0  0  0
   30.7025   52.5559    1.0322 H   0  0  0  0  0  0
   31.1695   52.8016   -1.3750 H   0  0  0  0  0  0
   29.6580   51.7747   -3.0317 H   0  0  0  0  0  0
   27.6771   50.5068   -2.2894 H   0  0  0  0  0  0
   22.1410   50.9629   -2.0133 H   0  0  0  0  0  0
   25.4046   54.2306   -2.6464 H   0  0  0  0  0  0
   26.3276   52.7656   -2.1683 H   0  0  0  0  0  0
   27.0004   53.8277   -4.3982 H   0  0  0  0  0  0
   26.5929   52.0791   -4.4524 H   0  0  0  0  0  0
   24.7748   54.3807   -5.1753 H   0  0  0  0  0  0
   25.6105   53.2672   -6.3104 H   0  0  0  0  0  0
   23.2960   52.6831   -6.0135 H   0  0  0  0  0  0
   24.3868   51.4019   -5.3846 H   0  0  0  0  0  0
   22.6329   51.6615   -3.7807 H   0  0  0  0  0  0
   22.7952   53.4504   -3.7877 H   0  0  0  0  0  0
  1  2  2  0  0  0
  2  3  1  0  0  0
  2 17  1  0  0  0
  3  4  2  0  0  0
  3  7  1  0  0  0
  4  5  1  0  0  0
  4 24  1  0  0  0
  5  6  2  0  0  0
  5 25  1  0  0  0
  6  8  1  0  0  0
  6 26  1  0  0  0
  7  8  2  0  0  0
  7 15  1  0  0  0
  8  9  1  0  0  0
  9 10  2  0  0  0
  9 14  1  0  0  0
 10 11  1  0  0  0
 10 27  1  0  0  0
 11 12  2  0  0  0
 11 28  1  0  0  0
 12 13  1  0  0  0
 12 29  1  0  0  0
 13 14  2  0  0  0
 13 30  1  0  0  0
 14 31  1  0  0  0
 15 16  1  0  0  0
 16 17  2  0  0  0
 16 18  1  0  0  0
 17 32  1  0  0  0
 18 19  1  0  0  0
 18 23  1  0  0  0
 19 20  1  0  0  0
 19 33  1  0  0  0
 19 34  1  0  0  0
 20 21  1  0  0  0
 20 35  1  0  0  0
 20 36  1  0  0  0
 21 22  1  0  0  0
 21 37  1  0  0  0
 21 38  1  0  0  0
 22 23  1  0  0  0
 22 39  1  0  0  0
 22 40  1  0  0  0
 23 41  1  0  0  0
 23 42  1  0  0  0
M  CHG  1  21   1
M  END
> <s_m_source_file>
../4cfl_ligand.sdf

> <i_m_source_file_index>
1

> <s_epik_input>
W0NIMl0xW0NIMl1bTkgyK11bQ0gyXVtDSDJdTjFjKFtjSF1jMj1PKW9jKGMyMyljKFtjSF1bY0hdW2NIXTMpLWM0W2NIXVtjSF1bY0hdW2NIXVtjSF00

> <s_epik_cmdline>
J2VwaWtfYXBwJywgJy1pbWFlJywgJ2xpZ2FuZF9wcm8ubWFlJywgJy1vbWFlJywgJ2xpZ2FuZF9wcmVwLm1hZScsICctbXMnLCAnMScsICctcGgnLCAnNycsICctcGh0JywgJzAuNScsICctbnQn

> <r_epik_Ionization_Penalty>
  0.1715

> <r_epik_Ionization_Penalty_Charging>
  0.1715

> <r_epik_Ionization_Penalty_Neutral>
  0.0000

> <r_epik_State_Penalty>
  0.1522

> <r_epik_Charging_Adjusted_Penalty>
0.323657545804064

> <i_epik_Tot_Q>
1

> <i_epik_Tot_abs_Q>
1

> <s_epik_Chemistry_Notes>
This compound has an imine and may undergo hydrolysis.

$$$$
