4cfm_ligand
                    3D
 Schrodinger Suite 2020-3.
 48 51  0  0  1  0            999 V2000
   -4.7020  -20.3020   21.0160 C   0  0  0  0  0  0
   -3.8310  -19.7980   19.9450 C   0  0  0  0  0  0
   -3.1670  -20.9960   19.2670 C   0  0  0  0  0  0
   -4.2360  -21.7330   18.5010 C   0  0  0  0  0  0
   -5.2530  -22.2920   19.4680 C   0  0  0  0  0  0
   -5.7840  -21.2440   20.4780 C   0  0  0  0  0  0
   -6.2660  -22.0550   21.6280 C   0  0  0  0  0  0
   -7.0010  -21.2280   22.4980 O   0  0  0  0  0  0
   -7.8920  -21.9750   23.2330 C   0  0  0  0  0  0
   -9.1910  -21.6400   23.2160 N   0  0  0  0  0  0
  -10.0550  -22.3580   23.9410 C   0  0  0  0  0  0
  -11.3340  -22.0480   23.9390 N   0  0  0  0  0  0
   -9.6420  -23.3980   24.6710 N   0  0  0  0  0  0
   -8.3610  -23.7320   24.6920 C   0  0  0  0  0  0
   -7.7600  -24.7140   25.3390 N   0  3  0  0  0  0
   -7.4660  -23.0310   23.9770 C   0  0  0  0  0  0
   -6.2760  -23.6010   24.1930 N   0  0  0  0  0  0
   -6.4760  -24.6400   25.0260 C   0  0  0  0  0  0
   -5.5330  -25.4880   25.4950 C   0  0  0  0  0  0
   -5.5720  -25.9080   26.8340 C   0  0  0  0  0  0
   -4.6040  -26.7730   27.3570 C   0  0  0  0  0  0
   -3.5890  -27.2530   26.5320 C   0  0  0  0  0  0
   -3.5380  -26.8570   25.1940 C   0  0  0  0  0  0
   -4.5040  -25.9830   24.6710 C   0  0  0  0  0  0
   -4.3900  -25.6090   23.3290 C   0  0  0  0  0  0
   -4.0979  -20.8555   21.7500 H   0  0  0  0  0  0
   -5.1987  -19.4559   21.5134 H   0  0  0  0  0  0
   -4.4338  -19.2368   19.2158 H   0  0  0  0  0  0
   -3.0660  -19.1352   20.3758 H   0  0  0  0  0  0
   -2.3804  -20.6416   18.5847 H   0  0  0  0  0  0
   -2.7220  -21.6498   20.0315 H   0  0  0  0  0  0
   -4.7328  -21.0400   17.8060 H   0  0  0  0  0  0
   -3.7784  -22.5565   17.9331 H   0  0  0  0  0  0
   -6.1175  -22.6783   18.9082 H   0  0  0  0  0  0
   -4.7975  -23.1081   20.0481 H   0  0  0  0  0  0
   -6.5586  -20.6160   20.0137 H   0  0  0  0  0  0
   -6.9083  -22.8683   21.2594 H   0  0  0  0  0  0
   -5.4045  -22.4817   22.1624 H   0  0  0  0  0  0
  -11.6923  -21.1950   23.3439 H   0  0  0  0  0  0
  -12.0448  -22.6419   24.5324 H   0  0  0  0  0  0
   -6.3741  -25.5525   27.4808 H   0  0  0  0  0  0
   -4.6440  -27.0698   28.4050 H   0  0  0  0  0  0
   -2.8375  -27.9351   26.9296 H   0  0  0  0  0  0
   -2.7413  -27.2297   24.5501 H   0  0  0  0  0  0
   -5.2126  -24.9272   23.0673 H   0  0  0  0  0  0
   -4.4401  -26.5052   22.6931 H   0  0  0  0  0  0
   -3.4276  -25.1003   23.1706 H   0  0  0  0  0  0
   -8.3451  -25.3883   25.9816 H   0  0  0  0  0  0
  1  2  1  0  0  0
  1  6  1  0  0  0
  1 26  1  0  0  0
  1 27  1  0  0  0
  2  3  1  0  0  0
  2 28  1  0  0  0
  2 29  1  0  0  0
  3  4  1  0  0  0
  3 30  1  0  0  0
  3 31  1  0  0  0
  4  5  1  0  0  0
  4 32  1  0  0  0
  4 33  1  0  0  0
  5  6  1  0  0  0
  5 34  1  0  0  0
  5 35  1  0  0  0
  6  7  1  0  0  0
  6 36  1  0  0  0
  7  8  1  0  0  0
  7 37  1  0  0  0
  7 38  1  0  0  0
  8  9  1  0  0  0
  9 10  2  0  0  0
  9 16  1  0  0  0
 10 11  1  0  0  0
 11 12  1  0  0  0
 11 13  2  0  0  0
 12 39  1  0  0  0
 12 40  1  0  0  0
 13 14  1  0  0  0
 14 15  1  0  0  0
 14 16  2  0  0  0
 15 18  2  0  0  0
 15 48  1  0  0  0
 16 17  1  0  0  0
 17 18  1  0  0  0
 18 19  1  0  0  0
 19 20  2  0  0  0
 19 24  1  0  0  0
 20 21  1  0  0  0
 20 41  1  0  0  0
 21 22  2  0  0  0
 21 42  1  0  0  0
 22 23  1  0  0  0
 22 43  1  0  0  0
 23 24  2  0  0  0
 23 44  1  0  0  0
 24 25  1  0  0  0
 25 45  1  0  0  0
 25 46  1  0  0  0
 25 47  1  0  0  0
M  CHG  1  15   1
M  END
> <s_m_source_file>
../4cfm_ligand.sdf

> <i_m_source_file_index>
1

> <s_epik_input>
W0NIMl0xW0NIMl1bQ0gyXVtDSDJdW0NIMl1bQ0hdMVtDSDJdT2MobmMobjIpW05IMl0pYyhjMjMpW25IXWMobjMpLWM0W2NIXVtjSF1bY0hdW2NIXWM0W0NIM10=

> <s_epik_cmdline>
J2VwaWtfYXBwJywgJy1pbWFlJywgJ2xpZ2FuZF9wcm8ubWFlJywgJy1vbWFlJywgJ2xpZ2FuZF9wcmVwLm1hZScsICctbXMnLCAnMScsICctcGgnLCAnNycsICctcGh0JywgJzAuNScsICctbnQn

> <r_lp_tautomer_probability>
1

> <r_epik_Ionization_Penalty>
  0.0878

> <r_epik_Ionization_Penalty_Charging>
  0.0000

> <r_epik_Ionization_Penalty_Neutral>
  0.0878

> <r_epik_State_Penalty>
 -0.0000

> <r_epik_Charging_Adjusted_Penalty>
0

> <i_epik_Tot_Q>
1

> <i_epik_Tot_abs_Q>
1

$$$$
