4cft_ligand
                    3D
 Schrodinger Suite 2020-3.
 44 46  0  0  1  0            999 V2000
   17.1450   18.4350   39.1190 F   0  0  0  0  0  0
   16.9650   14.7930   39.2240 C   0  0  0  0  0  0
   17.4640   16.0910   39.3490 C   0  0  0  0  0  0
   16.6640   17.1810   38.9970 C   0  0  0  0  0  0
   15.3650   16.9700   38.5200 C   0  0  0  0  0  0
   15.6670   14.5820   38.7520 C   0  0  0  0  0  0
   14.8610   15.6700   38.3910 C   0  0  0  0  0  0
   13.4500   15.4570   37.8730 C   0  0  0  0  0  0
   13.4200   14.5110   36.6710 C   0  0  0  0  0  0
   12.8030   15.1140   35.4980 N   0  3  0  0  0  0
   11.6340   14.5490   34.8320 C   0  0  0  0  0  0
   11.6750   13.0310   34.7930 C   0  0  0  0  0  0
   10.7180   12.3940   33.8060 C   0  0  0  0  0  0
   11.2160   11.3750   32.9920 C   0  0  0  0  0  0
   10.3860   10.7470   32.0690 C   0  0  0  0  0  0
    9.3570   12.7510   33.7170 C   0  0  0  0  0  0
    8.5180   12.1050   32.7900 C   0  0  0  0  0  0
    7.2030   12.4150   32.6810 N   0  0  0  0  0  0
    9.0460   11.1020   31.9650 C   0  0  0  0  0  0
    8.2380   10.4570   31.0380 C   0  0  0  0  0  0
    6.8980   10.8050   30.9210 C   0  0  0  0  0  0
    6.3970   11.7910   31.7830 C   0  0  0  0  0  0
    5.1090   12.1110   31.7200 N   0  0  0  0  0  0
   17.5897   13.9420   39.4954 H   0  0  0  0  0  0
   18.4758   16.2536   39.7205 H   0  0  0  0  0  0
   14.7425   17.8223   38.2475 H   0  0  0  0  0  0
   15.2797   13.5669   38.6642 H   0  0  0  0  0  0
   12.8289   15.0215   38.6695 H   0  0  0  0  0  0
   13.0239   16.4223   37.5622 H   0  0  0  0  0  0
   14.4481   14.2264   36.4027 H   0  0  0  0  0  0
   12.8453   13.6091   36.9284 H   0  0  0  0  0  0
   12.4630   16.1307   35.7444 H   0  0  0  0  0  0
   13.5376   15.1611   34.6806 H   0  0  0  0  0  0
   10.7234   14.8529   35.3691 H   0  0  0  0  0  0
   11.5887   14.9167   33.7963 H   0  0  0  0  0  0
   12.6857   12.6986   34.5138 H   0  0  0  0  0  0
   11.4188   12.6316   35.7854 H   0  0  0  0  0  0
   12.2589   11.0704   33.0800 H   0  0  0  0  0  0
   10.7902    9.9692   31.4212 H   0  0  0  0  0  0
    8.9542   13.5280   34.3667 H   0  0  0  0  0  0
    8.6555    9.6769   30.4014 H   0  0  0  0  0  0
    6.2558   10.3262   30.1818 H   0  0  0  0  0  0
    4.7006   12.8824   32.3894 H   0  0  0  0  0  0
    4.4511   11.6045   30.9985 H   0  0  0  0  0  0
  1  4  1  0  0  0
  2  3  2  0  0  0
  2  6  1  0  0  0
  2 24  1  0  0  0
  3  4  1  0  0  0
  3 25  1  0  0  0
  4  5  2  0  0  0
  5  7  1  0  0  0
  5 26  1  0  0  0
  6  7  2  0  0  0
  6 27  1  0  0  0
  7  8  1  0  0  0
  8  9  1  0  0  0
  8 28  1  0  0  0
  8 29  1  0  0  0
  9 10  1  0  0  0
  9 30  1  0  0  0
  9 31  1  0  0  0
 10 11  1  0  0  0
 10 32  1  0  0  0
 10 33  1  0  0  0
 11 12  1  0  0  0
 11 34  1  0  0  0
 11 35  1  0  0  0
 12 13  1  0  0  0
 12 36  1  0  0  0
 12 37  1  0  0  0
 13 14  2  0  0  0
 13 16  1  0  0  0
 14 15  1  0  0  0
 14 38  1  0  0  0
 15 19  2  0  0  0
 15 39  1  0  0  0
 16 17  2  0  0  0
 16 40  1  0  0  0
 17 18  1  0  0  0
 17 19  1  0  0  0
 18 22  2  0  0  0
 19 20  1  0  0  0
 20 21  2  0  0  0
 20 41  1  0  0  0
 21 22  1  0  0  0
 21 42  1  0  0  0
 22 23  1  0  0  0
 23 43  1  0  0  0
 23 44  1  0  0  0
M  CHG  1  10   1
M  END
> <s_m_source_file>
../4cft_ligand.sdf

> <i_m_source_file_index>
1

> <s_epik_input>
RmMxW2NIXVtjSF1bY0hdYyhbY0hdMSlbQ0gyXVtDSDJdW05IMitdW0NIMl1bQ0gyXWMoW2NIXTIpW2NIXVtjSF1jKGMyMylbY0hdW2NIXWMobjMpW05IMl0=

> <s_epik_cmdline>
J2VwaWtfYXBwJywgJy1pbWFlJywgJ2xpZ2FuZF9wcm8ubWFlJywgJy1vbWFlJywgJ2xpZ2FuZF9wcmVwLm1hZScsICctbXMnLCAnMScsICctcGgnLCAnNycsICctcGh0JywgJzAuNScsICctbnQn

> <r_epik_Ionization_Penalty>
  0.0206

> <r_epik_Ionization_Penalty_Charging>
  0.0011

> <r_epik_Ionization_Penalty_Neutral>
  0.0195

> <r_epik_State_Penalty>
  0.0156

> <r_epik_Charging_Adjusted_Penalty>
0.0166827939964865

> <i_epik_Tot_Q>
1

> <i_epik_Tot_abs_Q>
1

$$$$
