4cfu_ligand
                    3D
 Schrodinger Suite 2020-3.
 50 53  0  0  1  0            999 V2000
   -5.9800   21.6440  -19.4150 C   0  0  0  0  0  0
   -4.7150   22.2930  -18.9630 C   0  0  0  0  0  0
   -3.7070   21.2410  -18.3820 C   0  0  0  0  0  0
   -3.4980   19.9830  -19.2850 C   0  0  0  0  0  0
   -4.9260   19.3880  -19.7090 C   0  0  0  0  0  0
   -5.5780   20.5560  -20.4340 C   0  0  0  0  0  0
   -6.7180   20.1050  -21.2500 C   0  0  0  0  0  0
   -6.4370   20.9030  -22.4360 O   0  0  0  0  0  0
   -7.5220   21.5090  -23.0210 C   0  0  0  0  0  0
   -8.8070   21.1460  -22.7510 N   0  0  0  0  0  0
   -9.8240   21.7830  -23.4110 C   0  0  0  0  0  0
  -11.0640   21.3910  -23.1720 N   0  0  0  0  0  0
   -9.5700   22.7450  -24.3190 N   0  0  0  0  0  0
   -8.2810   23.0830  -24.5530 C   0  0  0  0  0  0
   -7.7440   24.0310  -25.3130 N   0  3  0  0  0  0
   -7.2410   22.5040  -23.9010 C   0  0  0  0  0  0
   -6.0650   23.0810  -24.3060 N   0  0  0  0  0  0
   -6.3920   24.0210  -25.2050 C   0  0  0  0  0  0
   -5.5740   24.8640  -25.8910 C   0  0  0  0  0  0
   -5.8550   25.1380  -27.2340 C   0  0  0  0  0  0
   -5.0360   25.9990  -27.9860 C   0  0  0  0  0  0
   -3.9330   26.6480  -27.3880 C   0  0  0  0  0  0
   -3.6380   26.3820  -26.0390 C   0  0  0  0  0  0
   -2.5340   27.0240  -25.4230 C   0  0  0  0  0  0
   -2.7560   27.8640  -24.5080 O   0  0  0  0  0  0
   -1.3320   26.7230  -25.7160 O   0  5  0  0  0  0
   -4.4520   25.5170  -25.2740 C   0  0  0  0  0  0
   -4.1370   25.2740  -23.8930 C   0  0  0  0  0  0
   -6.4939   21.2001  -18.5496 H   0  0  0  0  0  0
   -6.6319   22.3970  -19.8820 H   0  0  0  0  0  0
   -4.2380   22.7995  -19.8150 H   0  0  0  0  0  0
   -4.9410   23.0299  -18.1782 H   0  0  0  0  0  0
   -2.7209   21.7109  -18.2520 H   0  0  0  0  0  0
   -4.0728   20.8812  -17.4090 H   0  0  0  0  0  0
   -2.9365   20.2682  -20.1869 H   0  0  0  0  0  0
   -2.9336   19.2211  -18.7274 H   0  0  0  0  0  0
   -4.7801   18.5133  -20.3598 H   0  0  0  0  0  0
   -5.4797   19.0862  -18.8077 H   0  0  0  0  0  0
   -4.8743   20.9759  -21.1678 H   0  0  0  0  0  0
   -6.6560   19.0166  -21.3968 H   0  0  0  0  0  0
   -7.6581   20.3526  -20.7353 H   0  0  0  0  0  0
  -11.2584   20.6044  -22.4280 H   0  0  0  0  0  0
  -11.9011   21.8515  -23.7171 H   0  0  0  0  0  0
   -6.7229   24.6765  -27.7051 H   0  0  0  0  0  0
   -5.2544   26.1672  -29.0406 H   0  0  0  0  0  0
   -3.3209   27.3432  -27.9625 H   0  0  0  0  0  0
   -4.8759   24.5806  -23.4649 H   0  0  0  0  0  0
   -4.1614   26.2238  -23.3387 H   0  0  0  0  0  0
   -3.1327   24.8316  -23.8184 H   0  0  0  0  0  0
   -8.3913   24.6868  -25.9138 H   0  0  0  0  0  0
  1  2  1  0  0  0
  1  6  1  0  0  0
  1 29  1  0  0  0
  1 30  1  0  0  0
  2  3  1  0  0  0
  2 31  1  0  0  0
  2 32  1  0  0  0
  3  4  1  0  0  0
  3 33  1  0  0  0
  3 34  1  0  0  0
  4  5  1  0  0  0
  4 35  1  0  0  0
  4 36  1  0  0  0
  5  6  1  0  0  0
  5 37  1  0  0  0
  5 38  1  0  0  0
  6  7  1  0  0  0
  6 39  1  0  0  0
  7  8  1  0  0  0
  7 40  1  0  0  0
  7 41  1  0  0  0
  8  9  1  0  0  0
  9 10  2  0  0  0
  9 16  1  0  0  0
 10 11  1  0  0  0
 11 12  1  0  0  0
 11 13  2  0  0  0
 12 42  1  0  0  0
 12 43  1  0  0  0
 13 14  1  0  0  0
 14 15  1  0  0  0
 14 16  2  0  0  0
 15 18  2  0  0  0
 15 50  1  0  0  0
 16 17  1  0  0  0
 17 18  1  0  0  0
 18 19  1  0  0  0
 19 20  2  0  0  0
 19 27  1  0  0  0
 20 21  1  0  0  0
 20 44  1  0  0  0
 21 22  2  0  0  0
 21 45  1  0  0  0
 22 23  1  0  0  0
 22 46  1  0  0  0
 23 24  1  0  0  0
 23 27  2  0  0  0
 24 25  2  0  0  0
 24 26  1  0  0  0
 27 28  1  0  0  0
 28 47  1  0  0  0
 28 48  1  0  0  0
 28 49  1  0  0  0
M  CHG  2  15   1  26  -1
M  END
> <s_m_source_file>
../4cfu_ligand.sdf

> <i_m_source_file_index>
1

> <s_epik_input>
W0NIMl0xW0NIMl1bQ0gyXVtDSDJdW0NIMl1bQ0hdMVtDSDJdT2MobmMobjIpW05IMl0pYyhjMjMpW25IXWMobjMpLWM0W2NIXVtjSF1bY0hdYyhDKD1PKVtPSF0pYzRbQ0gzXQ==

> <s_epik_cmdline>
J2VwaWtfYXBwJywgJy1pbWFlJywgJ2xpZ2FuZF9wcm8ubWFlJywgJy1vbWFlJywgJ2xpZ2FuZF9wcmVwLm1hZScsICctbXMnLCAnMScsICctcGgnLCAnNycsICctcGh0JywgJzAuNScsICctbnQn

> <r_lp_tautomer_probability>
1

> <r_epik_Ionization_Penalty>
  0.0882

> <r_epik_Ionization_Penalty_Charging>
  0.0004

> <r_epik_Ionization_Penalty_Neutral>
  0.0878

> <r_epik_State_Penalty>
 -0.0000

> <r_epik_Charging_Adjusted_Penalty>
0.000356900462446444

> <i_epik_Tot_Q>
0

> <i_epik_Tot_abs_Q>
2

$$$$
