4cfv_ligand
                    3D
 Schrodinger Suite 2020-3.
 49 52  0  0  1  0            999 V2000
  -32.7740  -15.8740  -29.3380 N   0  0  0  0  0  0
  -32.4330  -16.1720  -28.0620 C   0  0  0  0  0  0
  -32.4580  -15.1450  -27.2980 N   0  0  0  0  0  0
  -32.0490  -17.4370  -27.6830 N   0  0  0  0  0  0
  -32.1680  -18.4590  -28.6200 C   0  0  0  0  0  0
  -32.5450  -18.1820  -29.9340 C   0  0  0  0  0  0
  -32.8270  -16.8860  -30.2390 C   0  0  0  0  0  0
  -33.2400  -16.5860  -31.5210 O   0  0  0  0  0  0
  -32.5530  -19.3750  -30.6530 N   0  0  0  0  0  0
  -32.1790  -20.3720  -29.7750 C   0  0  0  0  0  0
  -31.9340  -19.8090  -28.5610 N   0  3  0  0  0  0
  -33.9490  -15.3050  -31.7410 C   0  0  0  0  0  0
  -34.6650  -15.7820  -32.9340 C   0  0  0  0  0  0
  -31.8960  -21.6930  -29.9990 C   0  0  0  0  0  0
  -30.6390  -22.1750  -29.4830 C   0  0  0  0  0  0
  -30.1470  -23.4780  -29.6390 C   0  0  0  0  0  0
  -30.9270  -24.4130  -30.3180 C   0  0  0  0  0  0
  -32.1420  -23.9410  -30.8560 C   0  0  0  0  0  0
  -32.6630  -22.5970  -30.7590 C   0  0  0  0  0  0
  -33.9170  -22.1750  -31.3060 C   0  0  0  0  0  0
  -32.8720  -24.8240  -31.5520 O   0  0  0  0  0  0
  -36.2200  -15.8820  -32.7430 C   0  0  0  0  0  0
  -36.6230  -16.9850  -33.7230 C   0  0  0  0  0  0
  -36.3890  -16.4650  -35.1560 C   0  0  0  0  0  0
  -34.9210  -15.9920  -35.4040 C   0  0  0  0  0  0
  -34.3010  -15.0410  -34.2540 C   0  0  0  0  0  0
  -32.7817  -14.1717  -27.6953 H   0  0  0  0  0  0
  -32.1557  -15.2359  -26.2443 H   0  0  0  0  0  0
  -34.5650  -15.0709  -30.8603 H   0  0  0  0  0  0
  -33.2143  -14.5016  -31.8985 H   0  0  0  0  0  0
  -34.2355  -16.7930  -32.9919 H   0  0  0  0  0  0
  -30.0218  -21.4694  -28.9269 H   0  0  0  0  0  0
  -29.1726  -23.7552  -29.2369 H   0  0  0  0  0  0
  -30.6149  -25.4516  -30.4270 H   0  0  0  0  0  0
  -34.0701  -21.1072  -31.0908 H   0  0  0  0  0  0
  -34.7304  -22.7607  -30.8528 H   0  0  0  0  0  0
  -33.9139  -22.3329  -32.3946 H   0  0  0  0  0  0
  -32.5242  -25.8621  -31.6591 H   0  0  0  0  0  0
  -36.4450  -16.1441  -31.6987 H   0  0  0  0  0  0
  -36.6823  -14.9138  -32.9858 H   0  0  0  0  0  0
  -36.0096  -17.8797  -33.5405 H   0  0  0  0  0  0
  -37.6850  -17.2330  -33.5794 H   0  0  0  0  0  0
  -36.6071  -17.2665  -35.8771 H   0  0  0  0  0  0
  -37.0520  -15.6085  -35.3481 H   0  0  0  0  0  0
  -34.2604  -16.8687  -35.4751 H   0  0  0  0  0  0
  -34.8736  -15.4201  -36.3424 H   0  0  0  0  0  0
  -34.7553  -14.0392  -34.2494 H   0  0  0  0  0  0
  -33.2078  -14.9475  -34.3325 H   0  0  0  0  0  0
  -31.5994  -20.2686  -27.6193 H   0  0  0  0  0  0
  1  2  2  0  0  0
  1  7  1  0  0  0
  2  3  1  0  0  0
  2  4  1  0  0  0
  3 27  1  0  0  0
  3 28  1  0  0  0
  4  5  2  0  0  0
  5  6  1  0  0  0
  5 11  1  0  0  0
  6  7  2  0  0  0
  6  9  1  0  0  0
  7  8  1  0  0  0
  8 12  1  0  0  0
  9 10  1  0  0  0
 10 11  2  0  0  0
 10 14  1  0  0  0
 11 49  1  0  0  0
 12 13  1  0  0  0
 12 29  1  0  0  0
 12 30  1  0  0  0
 13 22  1  0  0  0
 13 26  1  0  0  0
 13 31  1  0  0  0
 14 15  2  0  0  0
 14 19  1  0  0  0
 15 16  1  0  0  0
 15 32  1  0  0  0
 16 17  2  0  0  0
 16 33  1  0  0  0
 17 18  1  0  0  0
 17 34  1  0  0  0
 18 19  2  0  0  0
 18 21  1  0  0  0
 19 20  1  0  0  0
 20 35  1  0  0  0
 20 36  1  0  0  0
 20 37  1  0  0  0
 21 38  1  0  0  0
 22 23  1  0  0  0
 22 39  1  0  0  0
 22 40  1  0  0  0
 23 24  1  0  0  0
 23 41  1  0  0  0
 23 42  1  0  0  0
 24 25  1  0  0  0
 24 43  1  0  0  0
 24 44  1  0  0  0
 25 26  1  0  0  0
 25 45  1  0  0  0
 25 46  1  0  0  0
 26 47  1  0  0  0
 26 48  1  0  0  0
M  CHG  1  11   1
M  END
> <s_m_source_file>
../4cfv_ligand.sdf

> <i_m_source_file_index>
1

> <s_epik_input>
W0NIMl0xW0NIMl1bQ0gyXVtDSDJdW0NIMl1bQ0hdMVtDSDJdT2MobmMobjIpW05IMl0pYyhjMjMpW25IXWMobjMpLWM0W2NIXVtjSF1bY0hdYyhbT0hdKWM0W0NIM10=

> <s_epik_cmdline>
J2VwaWtfYXBwJywgJy1pbWFlJywgJ2xpZ2FuZF9wcm8ubWFlJywgJy1vbWFlJywgJ2xpZ2FuZF9wcmVwLm1hZScsICctbXMnLCAnMScsICctcGgnLCAnNycsICctcGh0JywgJzAuNScsICctbnQn

> <r_lp_tautomer_probability>
1

> <r_epik_Ionization_Penalty>
  0.0886

> <r_epik_Ionization_Penalty_Charging>
  0.0000

> <r_epik_Ionization_Penalty_Neutral>
  0.0886

> <r_epik_State_Penalty>
 -0.0000

> <r_epik_Charging_Adjusted_Penalty>
0

> <i_epik_Tot_Q>
1

> <i_epik_Tot_abs_Q>
1

$$$$
