4cfw_ligand
                    3D
 Schrodinger Suite 2020-3.
 53 56  0  0  1  0            999 V2000
  -33.9570   13.6480   29.9500 N   0  0  0  0  0  0
  -33.6890   14.1170   28.7200 C   0  0  0  0  0  0
  -33.6400   13.2870   27.7120 N   0  0  0  0  0  0
  -33.4540   15.4280   28.5110 N   0  0  0  0  0  0
  -33.5050   16.2830   29.5510 C   0  0  0  0  0  0
  -33.8050   15.8550   30.8080 C   0  0  0  0  0  0
  -34.0380   14.5290   30.9920 C   0  0  0  0  0  0
  -34.2990   14.1010   32.2880 O   0  0  0  0  0  0
  -33.8060   16.9240   31.6390 N   0  0  0  0  0  0
  -33.5240   17.9860   30.8560 C   0  0  0  0  0  0
  -33.3370   17.6010   29.5780 N   0  3  0  0  0  0
  -35.6320   13.5710   32.5040 C   0  0  0  0  0  0
  -35.7420   13.0430   33.9460 C   0  0  0  0  0  0
  -33.4030   19.2760   31.1890 C   0  0  0  0  0  0
  -32.0050   21.2800   31.0350 C   0  0  0  0  0  0
  -34.9380   13.9660   34.8980 C   0  0  0  0  0  0
  -35.4510   13.8850   36.3280 C   0  0  0  0  0  0
  -36.9190   14.5450   36.4130 C   0  0  0  0  0  0
  -37.7250   14.3770   35.1090 C   0  0  0  0  0  0
  -37.2760   13.0210   34.3830 C   0  0  0  0  0  0
  -32.2410   19.9310   30.7820 C   0  0  0  0  0  0
  -32.9750   21.9950   31.7100 C   0  0  0  0  0  0
  -34.1540   21.3780   32.1290 C   0  0  0  0  0  0
  -34.3960   20.0140   31.8640 C   0  0  0  0  0  0
  -35.5880   19.4140   32.2530 C   0  0  0  0  0  0
  -35.3190   22.4880   32.9300 S   0  0  0  0  0  0
  -34.6590   23.9120   32.9380 O   0  0  0  0  0  0
  -35.6300   22.1260   34.2980 N   0  0  0  0  0  0
  -36.6620   22.4720   32.1570 O   0  0  0  0  0  0
  -33.8302   12.2155   27.8721 H   0  0  0  0  0  0
  -33.4085   13.6598   26.7033 H   0  0  0  0  0  0
  -36.3735   14.3680   32.3461 H   0  0  0  0  0  0
  -35.8195   12.7503   31.7960 H   0  0  0  0  0  0
  -35.3044   12.0345   33.9834 H   0  0  0  0  0  0
  -31.0810   21.7580   30.7096 H   0  0  0  0  0  0
  -33.8798   13.6657   34.8927 H   0  0  0  0  0  0
  -35.0249   15.0085   34.5580 H   0  0  0  0  0  0
  -35.5051   12.8313   36.6390 H   0  0  0  0  0  0
  -34.7660   14.4293   36.9947 H   0  0  0  0  0  0
  -37.4888   14.0685   37.2244 H   0  0  0  0  0  0
  -36.8256   15.6224   36.6142 H   0  0  0  0  0  0
  -38.7985   14.3315   35.3448 H   0  0  0  0  0  0
  -37.5313   15.2326   34.4454 H   0  0  0  0  0  0
  -37.9088   12.8870   33.4933 H   0  0  0  0  0  0
  -37.4461   12.1893   35.0825 H   0  0  0  0  0  0
  -31.4841   19.3620   30.2421 H   0  0  0  0  0  0
  -32.8175   23.0534   31.9177 H   0  0  0  0  0  0
  -35.5795   18.3550   31.9558 H   0  0  0  0  0  0
  -36.4317   19.9248   31.7658 H   0  0  0  0  0  0
  -35.6961   19.4875   33.3452 H   0  0  0  0  0  0
  -36.3453   22.8500   34.7153 H   0  0  0  0  0  0
  -34.7081   22.1339   34.8980 H   0  0  0  0  0  0
  -33.0938   18.1435   28.6525 H   0  0  0  0  0  0
  1  2  2  0  0  0
  1  7  1  0  0  0
  2  3  1  0  0  0
  2  4  1  0  0  0
  3 30  1  0  0  0
  3 31  1  0  0  0
  4  5  2  0  0  0
  5  6  1  0  0  0
  5 11  1  0  0  0
  6  7  2  0  0  0
  6  9  1  0  0  0
  7  8  1  0  0  0
  8 12  1  0  0  0
  9 10  1  0  0  0
 10 11  2  0  0  0
 10 14  1  0  0  0
 11 53  1  0  0  0
 12 13  1  0  0  0
 12 32  1  0  0  0
 12 33  1  0  0  0
 13 16  1  0  0  0
 13 20  1  0  0  0
 13 34  1  0  0  0
 14 21  2  0  0  0
 14 24  1  0  0  0
 15 21  1  0  0  0
 15 22  2  0  0  0
 15 35  1  0  0  0
 16 17  1  0  0  0
 16 36  1  0  0  0
 16 37  1  0  0  0
 17 18  1  0  0  0
 17 38  1  0  0  0
 17 39  1  0  0  0
 18 19  1  0  0  0
 18 40  1  0  0  0
 18 41  1  0  0  0
 19 20  1  0  0  0
 19 42  1  0  0  0
 19 43  1  0  0  0
 20 44  1  0  0  0
 20 45  1  0  0  0
 21 46  1  0  0  0
 22 23  1  0  0  0
 22 47  1  0  0  0
 23 24  2  0  0  0
 23 26  1  0  0  0
 24 25  1  0  0  0
 25 48  1  0  0  0
 25 49  1  0  0  0
 25 50  1  0  0  0
 26 27  2  0  0  0
 26 28  1  0  0  0
 26 29  2  0  0  0
 28 51  1  0  0  0
 28 52  1  0  0  0
M  CHG  1  11   1
M  END
> <s_m_source_file>
../4cfw_ligand.sdf

> <i_m_source_file_index>
1

> <s_epik_input>
W0NIMl0xW0NIMl1bQ0gyXVtDSDJdW0NIMl1bQ0hdMVtDSDJdT2MobmMobjIpW05IMl0pYyhjMjMpW25IXWMobjMpLWM0W2NIXVtjSF1bY0hdYyhjNFtDSDNdKVMoPU8pKD1PKVtOSDJd

> <s_epik_cmdline>
J2VwaWtfYXBwJywgJy1pbWFlJywgJ2xpZ2FuZF9wcm8ubWFlJywgJy1vbWFlJywgJ2xpZ2FuZF9wcmVwLm1hZScsICctbXMnLCAnMScsICctcGgnLCAnNycsICctcGh0JywgJzAuNScsICctbnQn

> <r_lp_tautomer_probability>
1

> <r_epik_Ionization_Penalty>
  0.0882

> <r_epik_Ionization_Penalty_Charging>
  0.0000

> <r_epik_Ionization_Penalty_Neutral>
  0.0882

> <r_epik_State_Penalty>
 -0.0000

> <r_epik_Charging_Adjusted_Penalty>
0

> <i_epik_Tot_Q>
1

> <i_epik_Tot_abs_Q>
1

$$$$
