4cfx_ligand
                    3D
 Schrodinger Suite 2020-3.
 50 53  0  0  1  0            999 V2000
  -34.5520   14.2000   30.4040 N   0  0  0  0  0  0
  -33.9770   14.3730   29.2210 C   0  0  0  0  0  0
  -33.7540   13.3300   28.4610 N   0  0  0  0  0  0
  -33.6390   15.5950   28.7990 N   0  0  0  0  0  0
  -33.8680   16.6590   29.5690 C   0  0  0  0  0  0
  -34.4360   16.5010   30.7470 C   0  0  0  0  0  0
  -34.7650   15.2860   31.1460 C   0  0  0  0  0  0
  -35.3500   15.2540   32.3500 O   0  0  0  0  0  0
  -34.5660   17.6880   31.3240 N   0  0  0  0  0  0
  -34.0550   18.5700   30.4830 C   0  0  0  0  0  0
  -33.6340   17.9450   29.3970 N   0  3  0  0  0  0
  -35.0360   14.1650   33.1930 C   0  0  0  0  0  0
  -35.6410   14.5770   34.4890 C   0  0  0  0  0  0
  -37.1110   14.9610   34.2970 C   0  0  0  0  0  0
  -37.6710   15.4230   35.5740 C   0  0  0  0  0  0
  -37.5750   14.2510   36.5480 C   0  0  0  0  0  0
  -36.1180   13.8140   36.7350 C   0  0  0  0  0  0
  -35.5480   13.4100   35.4130 C   0  0  0  0  0  0
  -33.9960   19.8870   30.6670 C   0  0  0  0  0  0
  -33.3980   20.6830   29.6920 C   0  0  0  0  0  0
  -33.3230   22.0520   29.8350 C   0  0  0  0  0  0
  -33.8580   22.6410   30.9600 C   0  0  0  0  0  0
  -34.4640   21.8700   31.9360 C   0  0  0  0  0  0
  -34.5380   20.4840   31.8040 C   0  0  0  0  0  0
  -35.0730   22.7160   33.2650 S   0  0  0  0  0  0
  -33.8810   23.3170   34.0160 O   0  0  0  0  0  0
  -35.8410   21.8480   34.1760 N   0  0  0  0  0  0
  -35.9890   23.8270   32.7610 O   0  0  0  0  0  0
  -34.0331   12.3250   28.8105 H   0  0  0  0  0  0
  -33.2876   13.4589   27.4731 H   0  0  0  0  0  0
  -35.4826   13.2457   32.7862 H   0  0  0  0  0  0
  -33.9437   14.0481   33.2495 H   0  0  0  0  0  0
  -35.0861   15.4359   34.8944 H   0  0  0  0  0  0
  -37.1851   15.7674   33.5525 H   0  0  0  0  0  0
  -37.6760   14.0849   33.9460 H   0  0  0  0  0  0
  -37.0903   16.2828   35.9394 H   0  0  0  0  0  0
  -38.7188   15.7240   35.4274 H   0  0  0  0  0  0
  -37.9823   14.5516   37.5246 H   0  0  0  0  0  0
  -38.1520   13.4004   36.1562 H   0  0  0  0  0  0
  -35.5343   14.6505   37.1469 H   0  0  0  0  0  0
  -36.0770   12.9615   37.4290 H   0  0  0  0  0  0
  -36.1188   12.5667   34.9971 H   0  0  0  0  0  0
  -34.4940   13.1175   35.5293 H   0  0  0  0  0  0
  -32.9820   20.2146   28.8000 H   0  0  0  0  0  0
  -32.8462   22.6614   29.0673 H   0  0  0  0  0  0
  -33.8034   23.7228   31.0819 H   0  0  0  0  0  0
  -35.0114   19.8779   32.5764 H   0  0  0  0  0  0
  -36.2147   22.4437   35.0218 H   0  0  0  0  0  0
  -35.1905   21.0447   34.5523 H   0  0  0  0  0  0
  -33.1659   18.2993   28.4667 H   0  0  0  0  0  0
  1  2  2  0  0  0
  1  7  1  0  0  0
  2  3  1  0  0  0
  2  4  1  0  0  0
  3 29  1  0  0  0
  3 30  1  0  0  0
  4  5  2  0  0  0
  5  6  1  0  0  0
  5 11  1  0  0  0
  6  7  2  0  0  0
  6  9  1  0  0  0
  7  8  1  0  0  0
  8 12  1  0  0  0
  9 10  1  0  0  0
 10 11  2  0  0  0
 10 19  1  0  0  0
 11 50  1  0  0  0
 12 13  1  0  0  0
 12 31  1  0  0  0
 12 32  1  0  0  0
 13 14  1  0  0  0
 13 18  1  0  0  0
 13 33  1  0  0  0
 14 15  1  0  0  0
 14 34  1  0  0  0
 14 35  1  0  0  0
 15 16  1  0  0  0
 15 36  1  0  0  0
 15 37  1  0  0  0
 16 17  1  0  0  0
 16 38  1  0  0  0
 16 39  1  0  0  0
 17 18  1  0  0  0
 17 40  1  0  0  0
 17 41  1  0  0  0
 18 42  1  0  0  0
 18 43  1  0  0  0
 19 20  2  0  0  0
 19 24  1  0  0  0
 20 21  1  0  0  0
 20 44  1  0  0  0
 21 22  2  0  0  0
 21 45  1  0  0  0
 22 23  1  0  0  0
 22 46  1  0  0  0
 23 24  2  0  0  0
 23 25  1  0  0  0
 24 47  1  0  0  0
 25 26  2  0  0  0
 25 27  1  0  0  0
 25 28  2  0  0  0
 27 48  1  0  0  0
 27 49  1  0  0  0
M  CHG  1  11   1
M  END
> <s_m_source_file>
../4cfx_ligand.sdf

> <i_m_source_file_index>
1

> <s_epik_input>
W0NIMl0xW0NIMl1bQ0gyXVtDSDJdW0NIMl1bQ0hdMVtDSDJdT2MobmMobjIpW05IMl0pYyhjMjMpW25IXWMobjMpLWM0W2NIXVtjSF1bY0hdYyhbY0hdNClTKD1PKSg9TylbTkgyXQ==

> <s_epik_cmdline>
J2VwaWtfYXBwJywgJy1pbWFlJywgJ2xpZ2FuZF9wcm8ubWFlJywgJy1vbWFlJywgJ2xpZ2FuZF9wcmVwLm1hZScsICctbXMnLCAnMScsICctcGgnLCAnNycsICctcGh0JywgJzAuNScsICctbnQn

> <r_lp_tautomer_probability>
1

> <r_epik_Ionization_Penalty>
  0.0884

> <r_epik_Ionization_Penalty_Charging>
  0.0000

> <r_epik_Ionization_Penalty_Neutral>
  0.0884

> <r_epik_State_Penalty>
 -0.0000

> <r_epik_Charging_Adjusted_Penalty>
0

> <i_epik_Tot_Q>
1

> <i_epik_Tot_abs_Q>
1

$$$$
