4cg9_ligand
                    3D
 Schrodinger Suite 2020-3.
 43 45  0  0  1  0            999 V2000
  -20.6390   14.3650    9.3450 C   0  0  0  0  0  0
  -20.7810   12.8960    9.3040 N   0  3  0  0  0  0
  -22.0750   12.2690    8.9680 C   0  0  0  0  0  0
  -19.7030   12.1060    9.4620 C   0  0  0  0  0  0
  -19.8650   10.7210    9.4210 C   0  0  0  0  0  0
  -18.7550    9.8960    9.5500 C   0  0  0  0  0  0
  -18.4150   12.6370    9.6320 C   0  0  0  0  0  0
  -17.2880   11.8180    9.7770 C   0  0  0  0  0  0
  -17.4590   10.4270    9.7490 N   0  0  0  0  0  0
  -16.3030    9.4930    9.8580 C   0  0  0  0  0  0
  -16.3180    8.7750    8.6490 C   0  0  0  0  0  0
  -15.8360    9.3570    7.4740 C   0  0  0  0  0  0
  -15.8910    8.6350    6.2720 C   0  0  0  0  0  0
  -16.8850    7.4990    8.6050 C   0  0  0  0  0  0
  -16.9460    6.7750    7.4130 C   0  0  0  0  0  0
  -16.4510    7.3440    6.2380 C   0  0  0  0  0  0
  -16.5140    6.6330    5.0300 C   0  0  0  0  0  0
  -17.6670    5.9030    4.7140 C   0  0  0  0  0  0
  -17.7570    5.1960    3.5170 C   0  0  0  0  0  0
  -15.4440    6.6620    4.1260 C   0  0  0  0  0  0
  -15.5370    5.9600    2.9200 C   0  0  0  0  0  0
  -16.6880    5.2290    2.6140 C   0  0  0  0  0  0
  -21.6236   14.8328    9.1974 H   0  0  0  0  0  0
  -19.9554   14.6897    8.5467 H   0  0  0  0  0  0
  -20.2322   14.6669   10.3214 H   0  0  0  0  0  0
  -22.8464   13.0476    8.8747 H   0  0  0  0  0  0
  -22.3589   11.5649    9.7640 H   0  0  0  0  0  0
  -21.9835   11.7274    8.0149 H   0  0  0  0  0  0
  -20.8568   10.2888    9.2885 H   0  0  0  0  0  0
  -18.8855    8.8152    9.4967 H   0  0  0  0  0  0
  -18.2879   13.7194    9.6518 H   0  0  0  0  0  0
  -16.2976   12.2537    9.9090 H   0  0  0  0  0  0
  -15.3751   10.0708    9.9814 H   0  0  0  0  0  0
  -16.4438    8.8353   10.7284 H   0  0  0  0  0  0
  -15.4203   10.3645    7.4908 H   0  0  0  0  0  0
  -15.4969    9.0775    5.3571 H   0  0  0  0  0  0
  -17.2872    7.0606    9.5183 H   0  0  0  0  0  0
  -17.3765    5.7737    7.3997 H   0  0  0  0  0  0
  -18.5034    5.8880    5.4127 H   0  0  0  0  0  0
  -18.6536    4.6211    3.2852 H   0  0  0  0  0  0
  -14.5434    7.2290    4.3615 H   0  0  0  0  0  0
  -14.7066    5.9832    2.2144 H   0  0  0  0  0  0
  -16.7533    4.6845    1.6720 H   0  0  0  0  0  0
  1  2  1  0  0  0
  1 23  1  0  0  0
  1 24  1  0  0  0
  1 25  1  0  0  0
  2  3  1  0  0  0
  2  4  2  0  0  0
  3 26  1  0  0  0
  3 27  1  0  0  0
  3 28  1  0  0  0
  4  5  1  0  0  0
  4  7  1  0  0  0
  5  6  2  0  0  0
  5 29  1  0  0  0
  6  9  1  0  0  0
  6 30  1  0  0  0
  7  8  2  0  0  0
  7 31  1  0  0  0
  8  9  1  0  0  0
  8 32  1  0  0  0
  9 10  1  0  0  0
 10 11  1  0  0  0
 10 33  1  0  0  0
 10 34  1  0  0  0
 11 12  2  0  0  0
 11 14  1  0  0  0
 12 13  1  0  0  0
 12 35  1  0  0  0
 13 16  2  0  0  0
 13 36  1  0  0  0
 14 15  2  0  0  0
 14 37  1  0  0  0
 15 16  1  0  0  0
 15 38  1  0  0  0
 16 17  1  0  0  0
 17 18  2  0  0  0
 17 20  1  0  0  0
 18 19  1  0  0  0
 18 39  1  0  0  0
 19 22  2  0  0  0
 19 40  1  0  0  0
 20 21  2  0  0  0
 20 41  1  0  0  0
 21 22  1  0  0  0
 21 42  1  0  0  0
 22 43  1  0  0  0
M  CHG  1   2   1
M  END
> <s_m_source_file>
../4cg9_ligand.sdf

> <i_m_source_file_index>
1

> <s_epik_input>
W0NIM11bTitdKFtDSDNdKT1jMVtjSF1bY0hdbihbY0hdW2NIXTEpW0NIMl1jMltjSF1bY0hdYyhbY0hdW2NIXTIpLWMzW2NIXVtjSF1bY0hdW2NIXVtjSF0z

> <s_epik_cmdline>
J2VwaWtfYXBwJywgJy1pbWFlJywgJ2xpZ2FuZF9wcm8ubWFlJywgJy1vbWFlJywgJ2xpZ2FuZF9wcmVwLm1hZScsICctbXMnLCAnMScsICctcGgnLCAnNycsICctcGh0JywgJzAuNScsICctbnQn

> <r_lp_tautomer_probability>
1

> <r_epik_Ionization_Penalty>
  0.0000

> <r_epik_Ionization_Penalty_Charging>
  0.0000

> <r_epik_Ionization_Penalty_Neutral>
  0.0000

> <r_epik_State_Penalty>
 -0.0000

> <r_epik_Charging_Adjusted_Penalty>
0

> <i_epik_Tot_Q>
1

> <i_epik_Tot_abs_Q>
1

> <s_epik_Chemistry_Notes>
This compound has an imine and may undergo hydrolysis.

$$$$
