4cgj_ligand
                    3D
 Schrodinger Suite 2020-3.
 59 62  0  0  1  0            999 V2000
   -8.6900   40.7920   -0.7050 C   0  0  0  0  0  0
   -9.8110   41.2640   -1.3490 C   0  0  0  0  0  0
   -8.0810   41.5610    0.2570 C   0  0  0  0  0  0
  -10.3430   42.4990   -1.0390 C   0  0  0  0  0  0
  -11.5200   45.0770   -2.6680 C   0  0  0  0  0  0
  -12.5680   44.7730   -3.5090 C   0  0  0  0  0  0
  -13.0090   45.4410   -0.8070 C   0  0  0  0  0  0
   -8.6180   42.7880    0.5540 C   0  0  0  0  0  0
   -9.7290   43.2690   -0.0780 C   0  0  0  0  0  0
  -11.7190   45.4030   -1.3350 C   0  0  0  0  0  0
  -13.8260   44.8130   -2.9780 C   0  0  0  0  0  0
  -14.0370   45.1390   -1.6720 C   0  0  0  0  0  0
  -13.3730   45.7860    0.6020 C   0  0  0  0  0  0
   -8.6150   47.1630    2.2100 C   0  0  0  0  0  0
   -8.0910   43.7350    1.5540 C   0  0  0  0  0  0
  -15.9240   44.6220   -2.5850 C   0  0  0  0  0  0
  -10.0990   44.6190    0.4380 C   0  0  1  0  0  0
   -8.7940   45.0040    1.1240 C   0  0  1  0  0  0
  -10.4630   45.7000   -0.5720 C   0  0  0  0  0  0
   -8.9030   47.8960    3.4800 C   0  0  0  0  0  0
  -10.3680   48.2670    3.5020 C   0  0  0  0  0  0
  -10.6260   49.2800    4.5960 C   0  0  0  0  0  0
  -10.4100   48.6450    5.9500 C   0  0  0  0  0  0
  -10.9260   49.5590    7.0330 C   0  0  0  0  0  0
   -9.0360   45.8570    2.2520 N   0  0  0  0  0  0
  -12.3340   49.1980    7.3020 N   0  3  0  0  0  0
  -14.3360   45.1590    1.1330 O   0  5  0  0  0  0
  -12.7310   46.7120    1.1660 O   0  0  0  0  0  0
   -8.0620   47.6970    1.2620 O   0  0  0  0  0  0
  -14.9710   44.5410   -3.6580 O   0  0  0  0  0  0
  -15.3730   45.1160   -1.3500 O   0  0  0  0  0  0
   -8.2867   39.8113   -0.9573 H   0  0  0  0  0  0
  -10.2862   40.6526   -2.1161 H   0  0  0  0  0  0
   -7.1900   41.2037    0.7733 H   0  0  0  0  0  0
  -11.2369   42.8594   -1.5481 H   0  0  0  0  0  0
  -10.5039   45.0608   -3.0623 H   0  0  0  0  0  0
  -12.4005   44.5116   -4.5539 H   0  0  0  0  0  0
   -8.3671   43.3943    2.5628 H   0  0  0  0  0  0
   -6.9953   43.7842    1.4707 H   0  0  0  0  0  0
  -16.7412   45.3006   -2.8708 H   0  0  0  0  0  0
  -16.3328   43.6213   -2.3813 H   0  0  0  0  0  0
  -11.0226   44.5373    1.0298 H   0  0  0  0  0  0
   -8.1555   45.6100    0.4643 H   0  0  0  0  0  0
   -9.6211   45.7935   -1.2738 H   0  0  0  0  0  0
  -10.5848   46.6424   -0.0179 H   0  0  0  0  0  0
   -8.6679   47.2491    4.3381 H   0  0  0  0  0  0
   -8.2860   48.8054    3.5265 H   0  0  0  0  0  0
  -10.6510   48.7008    2.5316 H   0  0  0  0  0  0
  -10.9714   47.3669    3.6912 H   0  0  0  0  0  0
   -9.9358   50.1286    4.4801 H   0  0  0  0  0  0
  -11.6634   49.6390    4.5261 H   0  0  0  0  0  0
  -10.9490   47.6872    5.9960 H   0  0  0  0  0  0
   -9.3353   48.4688    6.1051 H   0  0  0  0  0  0
  -10.3200   49.4292    7.9418 H   0  0  0  0  0  0
  -10.8595   50.6033    6.6940 H   0  0  0  0  0  0
   -9.5541   45.4627    3.1386 H   0  0  0  0  0  0
  -12.7358   49.8514    8.0904 H   0  0  0  0  0  0
  -12.3872   48.1500    7.6318 H   0  0  0  0  0  0
  -12.9266   49.3240    6.3839 H   0  0  0  0  0  0
  1  2  2  0  0  0
  1  3  1  0  0  0
  1 32  1  0  0  0
  2  4  1  0  0  0
  2 33  1  0  0  0
  3  8  2  0  0  0
  3 34  1  0  0  0
  4  9  2  0  0  0
  4 35  1  0  0  0
  5  6  2  0  0  0
  5 10  1  0  0  0
  5 36  1  0  0  0
  6 11  1  0  0  0
  6 37  1  0  0  0
  7 10  2  0  0  0
  7 12  1  0  0  0
  7 13  1  0  0  0
  8  9  1  0  0  0
  8 15  1  0  0  0
  9 17  1  0  0  0
 10 19  1  0  0  0
 11 12  2  0  0  0
 11 30  1  0  0  0
 12 31  1  0  0  0
 13 27  1  0  0  0
 13 28  2  0  0  0
 14 20  1  0  0  0
 14 25  1  0  0  0
 14 29  2  0  0  0
 15 18  1  0  0  0
 15 38  1  0  0  0
 15 39  1  0  0  0
 16 30  1  0  0  0
 16 31  1  0  0  0
 16 40  1  0  0  0
 16 41  1  0  0  0
 17 18  1  0  0  0
 17 19  1  0  0  0
 17 42  1  0  0  0
 18 25  1  0  0  0
 18 43  1  0  0  0
 19 44  1  0  0  0
 19 45  1  0  0  0
 20 21  1  0  0  0
 20 46  1  0  0  0
 20 47  1  0  0  0
 21 22  1  0  0  0
 21 48  1  0  0  0
 21 49  1  0  0  0
 22 23  1  0  0  0
 22 50  1  0  0  0
 22 51  1  0  0  0
 23 24  1  0  0  0
 23 52  1  0  0  0
 23 53  1  0  0  0
 24 26  1  0  0  0
 24 54  1  0  0  0
 24 55  1  0  0  0
 25 56  1  0  0  0
 26 57  1  0  0  0
 26 58  1  0  0  0
 26 59  1  0  0  0
M  CHG  2  26   1  27  -1
M  END
> <s_m_source_file>
../4cgj_ligand.sdf

> <i_m_source_file_index>
1

> <s_epik_input>
TzFbQ0gyXU9jKGMxMiljKEMoPU8pW09IXSljKFtjSF1bY0hdMilbQ0gyXVtDQEBIXShjKGMzNClbY0hdW2NIXVtjSF1bY0hdMylbQ0BIXShbQ0gyXTQpW05IXUMoPU8pW0NIMl1bQ0gyXVtDSDJdW0NIMl1bQ0gyXVtOSDMrXQ==

> <s_epik_cmdline>
J2VwaWtfYXBwJywgJy1pbWFlJywgJ2xpZ2FuZF9wcm8ubWFlJywgJy1vbWFlJywgJ2xpZ2FuZF9wcmVwLm1hZScsICctbXMnLCAnMScsICctcGgnLCAnNycsICctcGh0JywgJzAuNScsICctbnQn

> <r_lp_tautomer_probability>
1

> <r_epik_Ionization_Penalty>
  0.0006

> <r_epik_Ionization_Penalty_Charging>
  0.0006

> <r_epik_Ionization_Penalty_Neutral>
  0.0000

> <r_epik_State_Penalty>
 -0.0000

> <r_epik_Charging_Adjusted_Penalty>
0.000608998683167293

> <i_epik_Tot_Q>
0

> <i_epik_Tot_abs_Q>
2

> <s_epik_Chemistry_Notes>
This compound contains an acetal/aminal-like group ( X-CH(R)-Y where X, Y are N, S, or O) that may be acid/base labile, releasing an aldehyde.

$$$$
