4ch2_ligand
                    3D
 Schrodinger Suite 2020-3.
135138  0  0  1  0            999 V2000
  -28.1980  -21.0490  -12.1000 N   0  3  0  0  0  0
  -26.9840  -20.3840  -12.6520 C   0  0  2  0  0  0
  -26.0520  -19.8330  -11.5370 C   0  0  0  0  0  0
  -26.0670  -20.2370  -10.3880 O   0  0  0  0  0  0
  -27.3260  -19.2880  -13.6860 C   0  0  0  0  0  0
  -26.0620  -18.7770  -14.4250 C   0  0  0  0  0  0
  -25.1570  -19.6100  -14.6640 O   0  5  0  0  0  0
  -25.9140  -17.5710  -14.7170 O   0  0  0  0  0  0
  -25.1950  -18.9090  -11.8890 N   0  0  0  0  0  0
  -24.0760  -18.5870  -11.0450 C   0  0  2  0  0  0
  -24.5320  -17.7670   -9.7810 C   0  0  0  0  0  0
  -24.1090  -18.0040   -8.6490 O   0  0  0  0  0  0
  -23.1250  -17.7400  -11.8960 C   0  0  0  0  0  0
  -21.8510  -17.1950  -11.3220 C   0  0  0  0  0  0
  -20.8320  -18.2590  -11.0110 C   0  0  0  0  0  0
  -21.3390  -16.2180  -12.3280 C   0  0  0  0  0  0
  -25.3520  -16.7850  -10.0320 N   0  0  0  0  0  0
  -25.8470  -15.8310   -9.0190 C   0  0  2  0  0  0
  -27.3530  -15.9180   -8.9320 C   0  0  0  0  0  0
  -28.0770  -16.1580   -9.9240 O   0  0  0  0  0  0
  -25.4910  -14.4140   -9.3930 C   0  0  0  0  0  0
  -24.0850  -14.0400   -9.2900 C   0  0  0  0  0  0
  -23.4030  -13.9560   -8.0430 C   0  0  0  0  0  0
  -23.3870  -13.6570  -10.4130 C   0  0  0  0  0  0
  -22.0720  -13.6230   -7.9340 C   0  0  0  0  0  0
  -22.0770  -13.2700  -10.2850 C   0  0  0  0  0  0
  -21.3680  -13.2580   -9.0680 C   0  0  0  0  0  0
  -20.0520  -12.8980   -8.9820 O   0  0  0  0  0  0
  -19.2240  -11.7860   -9.8420 P   0  0  0  0  0  0
  -20.2200  -10.7410  -10.3110 O   0  5  0  0  0  0
  -18.8230  -12.6990  -10.9810 O   0  0  0  0  0  0
  -18.0850  -11.3740   -8.9540 O   0  0  0  0  0  0
  -27.8930  -15.7380   -7.7140 N   0  0  0  0  0  0
  -29.2940  -15.6540   -7.5260 C   0  0  2  0  0  0
  -29.7970  -14.3360   -8.1270 C   0  0  0  0  0  0
  -29.2870  -13.2630   -7.8160 O   0  0  0  0  0  0
  -29.5500  -15.6380   -6.0070 C   0  0  0  0  0  0
  -30.9710  -15.6860   -5.6310 C   0  0  0  0  0  0
  -31.6760  -16.6720   -5.8740 O   0  0  0  0  0  0
  -31.4270  -14.7010   -5.0350 O   0  5  0  0  0  0
  -30.8430  -14.4590   -8.9610 N   0  0  0  0  0  0
  -31.5510  -13.2720   -9.5380 C   0  0  2  0  0  0
  -30.5900  -12.2330  -10.0730 C   0  0  0  0  0  0
  -30.6300  -11.0710   -9.6600 O   0  0  0  0  0  0
  -32.4610  -12.5100   -8.5310 C   0  0  0  0  0  0
  -33.6410  -13.2900   -8.0630 C   0  0  0  0  0  0
  -33.8870  -13.5180   -6.6980 C   0  0  0  0  0  0
  -34.5900  -13.7700   -8.9860 C   0  0  0  0  0  0
  -35.0050  -14.2860   -6.3030 C   0  0  0  0  0  0
  -35.6780  -14.5130   -8.5820 C   0  0  0  0  0  0
  -35.9040  -14.7990   -7.2320 C   0  0  0  0  0  0
  -37.0050  -15.5180   -6.7770 O   0  0  0  0  0  0
  -38.4630  -15.2440   -7.4070 P   0  0  0  0  0  0
  -38.6600  -13.7080   -7.1740 O   0  5  0  0  0  0
  -39.2950  -16.2150   -6.6010 O   0  0  0  0  0  0
  -38.5050  -15.4470   -8.9080 O   0  0  0  0  0  0
  -29.6790  -12.6410  -10.9450 N   0  0  0  0  0  0
  -28.7350  -11.6970  -11.5450 C   0  0  2  0  0  0
  -28.4000  -12.3330  -12.8740 C   0  0  0  0  0  0
  -28.2090  -13.5730  -12.9080 O   0  0  0  0  0  0
  -27.4800  -11.4830  -10.7330 C   0  0  0  0  0  0
  -26.6550  -10.4150  -11.4250 C   0  0  0  0  0  0
  -25.6910  -10.8370  -12.3590 C   0  0  0  0  0  0
  -26.7890   -9.0530  -11.0980 C   0  0  0  0  0  0
  -24.9170   -9.8770  -13.0070 C   0  0  0  0  0  0
  -25.9930   -8.0920  -11.7570 C   0  0  0  0  0  0
  -25.0470   -8.5180  -12.6920 C   0  0  0  0  0  0
  -24.2890   -7.6400  -13.4370 O   0  0  0  0  0  0
  -23.3190   -6.4460  -12.9920 P   0  0  0  0  0  0
  -22.8860   -6.0070  -14.3680 O   0  5  0  0  0  0
  -22.1630   -6.9650  -12.1400 O   0  0  0  0  0  0
  -24.2460   -5.4960  -12.2800 O   0  0  0  0  0  0
  -28.4400  -11.5280  -13.9820 N   0  0  0  0  0  0
  -28.8300  -10.0830  -14.0470 C   0  0  2  0  0  0
  -30.3310   -9.7990  -13.8740 C   0  0  0  0  0  0
  -31.1438  -10.7512  -14.0164 O   0  0  0  0  0  0
  -28.3630   -9.6430  -15.4680 C   0  0  0  0  0  0
  -28.3250  -10.9010  -16.2810 C   0  0  0  0  0  0
  -28.0560  -12.0540  -15.3130 C   0  0  0  0  0  0
  -30.7393   -8.6398  -13.5960 O   0  5  0  0  0  0
  -27.8966  -21.8169  -11.3723 H   0  0  0  0  0  0
  -28.7618  -21.5206  -12.9183 H   0  0  0  0  0  0
  -28.8316  -20.3004  -11.6019 H   0  0  0  0  0  0
  -26.4658  -21.1995  -13.1777 H   0  0  0  0  0  0
  -28.0223  -19.6944  -14.4344 H   0  0  0  0  0  0
  -27.7949  -18.4346  -13.1743 H   0  0  0  0  0  0
  -25.3370  -18.3766  -12.8410 H   0  0  0  0  0  0
  -23.6315  -19.5452  -10.7380 H   0  0  0  0  0  0
  -22.7842  -18.3284  -12.7606 H   0  0  0  0  0  0
  -23.6511  -16.8407  -12.2489 H   0  0  0  0  0  0
  -22.0472  -16.7125  -10.3531 H   0  0  0  0  0  0
  -21.2458  -18.9571  -10.2684 H   0  0  0  0  0  0
  -19.9233  -17.7893  -10.6064 H   0  0  0  0  0  0
  -20.5825  -18.8079  -11.9311 H   0  0  0  0  0  0
  -22.1100  -15.4593  -12.5277 H   0  0  0  0  0  0
  -21.0945  -16.7467  -13.2611 H   0  0  0  0  0  0
  -20.4353  -15.7282  -11.9364 H   0  0  0  0  0  0
  -25.6752  -16.6921  -11.0793 H   0  0  0  0  0  0
  -25.3678  -16.1061   -8.0679 H   0  0  0  0  0  0
  -25.7719  -14.2297  -10.4404 H   0  0  0  0  0  0
  -26.0334  -13.7150   -8.7395 H   0  0  0  0  0  0
  -23.9618  -14.1655   -7.1309 H   0  0  0  0  0  0
  -23.8686  -13.6611  -11.3908 H   0  0  0  0  0  0
  -21.5769  -13.6466   -6.9632 H   0  0  0  0  0  0
  -21.5502  -12.9508  -11.1843 H   0  0  0  0  0  0
  -19.5824  -13.0593  -11.6905 H   0  0  0  0  0  0
  -27.2163  -15.6556   -6.8507 H   0  0  0  0  0  0
  -29.7400  -16.5223   -8.0331 H   0  0  0  0  0  0
  -29.0656  -16.5105   -5.5443 H   0  0  0  0  0  0
  -29.1343  -14.7158   -5.5748 H   0  0  0  0  0  0
  -31.1758  -15.4758   -9.2167 H   0  0  0  0  0  0
  -32.1336  -13.7433  -10.3432 H   0  0  0  0  0  0
  -31.8764  -12.2425   -7.6384 H   0  0  0  0  0  0
  -32.8463  -11.5950   -9.0047 H   0  0  0  0  0  0
  -33.2164  -13.1030   -5.9456 H   0  0  0  0  0  0
  -34.4609  -13.5485  -10.0454 H   0  0  0  0  0  0
  -35.1672  -14.4815   -5.2430 H   0  0  0  0  0  0
  -36.3772  -14.8856   -9.3306 H   0  0  0  0  0  0
  -37.9279  -14.7837   -9.5691 H   0  0  0  0  0  0
  -29.6388  -13.7063  -11.2161 H   0  0  0  0  0  0
  -29.2046  -10.7041  -11.6053 H   0  0  0  0  0  0
  -27.7512  -11.1572   -9.7180 H   0  0  0  0  0  0
  -26.9145  -12.4248  -10.6769 H   0  0  0  0  0  0
  -25.5522  -11.8970  -12.5719 H   0  0  0  0  0  0
  -27.5054   -8.7412  -10.3380 H   0  0  0  0  0  0
  -24.2014  -10.1869  -13.7685 H   0  0  0  0  0  0
  -26.1149   -7.0310  -11.5391 H   0  0  0  0  0  0
  -21.4322   -7.6645  -12.5720 H   0  0  0  0  0  0
  -28.3663   -9.5639  -13.1952 H   0  0  0  0  0  0
  -29.0795   -8.9179  -15.8812 H   0  0  0  0  0  0
  -27.3687   -9.1776  -15.3994 H   0  0  0  0  0  0
  -29.2909  -11.0385  -16.7891 H   0  0  0  0  0  0
  -27.5233  -10.8290  -17.0307 H   0  0  0  0  0  0
  -26.9933  -12.3380  -15.3024 H   0  0  0  0  0  0
  -28.6689  -12.9363  -15.5494 H   0  0  0  0  0  0
  1  2  1  0  0  0
  1 81  1  0  0  0
  1 82  1  0  0  0
  1 83  1  0  0  0
  2  3  1  0  0  0
  2  5  1  0  0  0
  2 84  1  0  0  0
  3  4  2  0  0  0
  3  9  1  0  0  0
  5  6  1  0  0  0
  5 85  1  0  0  0
  5 86  1  0  0  0
  6  7  1  0  0  0
  6  8  2  0  0  0
  9 10  1  0  0  0
  9 87  1  0  0  0
 10 11  1  0  0  0
 10 13  1  0  0  0
 10 88  1  0  0  0
 11 12  2  0  0  0
 11 17  1  0  0  0
 13 14  1  0  0  0
 13 89  1  0  0  0
 13 90  1  0  0  0
 14 15  1  0  0  0
 14 16  1  0  0  0
 14 91  1  0  0  0
 15 92  1  0  0  0
 15 93  1  0  0  0
 15 94  1  0  0  0
 16 95  1  0  0  0
 16 96  1  0  0  0
 16 97  1  0  0  0
 17 18  1  0  0  0
 17 98  1  0  0  0
 18 19  1  0  0  0
 18 21  1  0  0  0
 18 99  1  0  0  0
 19 20  2  0  0  0
 19 33  1  0  0  0
 21 22  1  0  0  0
 21100  1  0  0  0
 21101  1  0  0  0
 22 23  2  0  0  0
 22 24  1  0  0  0
 23 25  1  0  0  0
 23102  1  0  0  0
 24 26  2  0  0  0
 24103  1  0  0  0
 25 27  2  0  0  0
 25104  1  0  0  0
 26 27  1  0  0  0
 26105  1  0  0  0
 27 28  1  0  0  0
 28 29  1  0  0  0
 29 30  1  0  0  0
 29 31  1  0  0  0
 29 32  2  0  0  0
 31106  1  0  0  0
 33 34  1  0  0  0
 33107  1  0  0  0
 34 35  1  0  0  0
 34 37  1  0  0  0
 34108  1  0  0  0
 35 36  2  0  0  0
 35 41  1  0  0  0
 37 38  1  0  0  0
 37109  1  0  0  0
 37110  1  0  0  0
 38 39  2  0  0  0
 38 40  1  0  0  0
 41 42  1  0  0  0
 41111  1  0  0  0
 42 43  1  0  0  0
 42 45  1  0  0  0
 42112  1  0  0  0
 43 44  2  0  0  0
 43 57  1  0  0  0
 45 46  1  0  0  0
 45113  1  0  0  0
 45114  1  0  0  0
 46 47  2  0  0  0
 46 48  1  0  0  0
 47 49  1  0  0  0
 47115  1  0  0  0
 48 50  2  0  0  0
 48116  1  0  0  0
 49 51  2  0  0  0
 49117  1  0  0  0
 50 51  1  0  0  0
 50118  1  0  0  0
 51 52  1  0  0  0
 52 53  1  0  0  0
 53 54  1  0  0  0
 53 55  2  0  0  0
 53 56  1  0  0  0
 56119  1  0  0  0
 57 58  1  0  0  0
 57120  1  0  0  0
 58 59  1  0  0  0
 58 61  1  0  0  0
 58121  1  0  0  0
 59 60  2  0  0  0
 59 73  1  0  0  0
 61 62  1  0  0  0
 61122  1  0  0  0
 61123  1  0  0  0
 62 63  2  0  0  0
 62 64  1  0  0  0
 63 65  1  0  0  0
 63124  1  0  0  0
 64 66  2  0  0  0
 64125  1  0  0  0
 65 67  2  0  0  0
 65126  1  0  0  0
 66 67  1  0  0  0
 66127  1  0  0  0
 67 68  1  0  0  0
 68 69  1  0  0  0
 69 70  1  0  0  0
 69 71  1  0  0  0
 69 72  2  0  0  0
 71128  1  0  0  0
 73 74  1  0  0  0
 73 79  1  0  0  0
 74 75  1  0  0  0
 74 77  1  0  0  0
 74129  1  0  0  0
 75 76  2  0  0  0
 75 80  1  0  0  0
 77 78  1  0  0  0
 77130  1  0  0  0
 77131  1  0  0  0
 78 79  1  0  0  0
 78132  1  0  0  0
 78133  1  0  0  0
 79134  1  0  0  0
 79135  1  0  0  0
M  CHG  7   1   1   7  -1  30  -1  40  -1  54  -1  70  -1  80  -1
M  END
> <s_m_source_file>
../4ch2_ligand.sdf

> <i_m_source_file_index>
1

> <s_epik_input>
W09IXUMoPU8pW0NIMl1bQ0BIXShbTkgzK10pQyg9TylbTkhdW0NAQEhdKFtDSDJdW0NIXShbQ0gzXSlbQ0gzXSlDKD1PKVtOSF1bQ0BASF0oW0NIMl1jMVtjSF1bY0hdYyhbY0hdW2NIXTEpT1AoPU8pKFtPSF0pW09IXSlDKD1PKVtOSF1bQ0BASF0oW0NIMl1DKD1PKVtPSF0pQyg9TylbTkhdW0NAQEhdKFtDSDJdYzJbY0hdW2NIXWMoW2NIXVtjSF0yKU9QKD1PKShbT0hdKVtPSF0pQyg9TylbTkhdW0NASF0oQyg9TylOM1tDQEhdKEMoPU8pW09IXSlbQ0gyXVtDSDJdW0NIMl0zKVtDSDJdYzRbY0hdW2NIXWMoW2NIXVtjSF00KU9QKD1PKShbT0hdKVtPSF0=

> <s_epik_cmdline>
J2VwaWtfYXBwJywgJy1pbWFlJywgJ2xpZ2FuZF9wcm8ubWFlJywgJy1vbWFlJywgJ2xpZ2FuZF9wcmVwLm1hZScsICctbXMnLCAnMScsICctcGgnLCAnNycsICctcGh0JywgJzAuNScsICctbnQn

> <r_epik_Ionization_Penalty>
  3.6183

> <r_epik_Ionization_Penalty_Charging>
  0.0259

> <r_epik_Ionization_Penalty_Neutral>
  3.5924

> <r_epik_State_Penalty>
  0.0498

> <r_epik_Charging_Adjusted_Penalty>
0.0757349222748491

> <i_epik_Tot_Q>
-5

> <i_epik_Tot_abs_Q>
7

$$$$
