4ch8_ligand
                    3D
 Schrodinger Suite 2020-3.
 58 58  0  0  1  0            999 V2000
   42.5380   -2.2680   63.4350 N   0  3  0  0  0  0
   41.5080   -2.5700   62.4050 C   0  0  2  0  0  0
   40.4950   -3.7100   62.7660 C   0  0  0  0  0  0
   39.5620   -3.9600   62.0070 O   0  0  0  0  0  0
   42.1850   -2.8490   61.0580 C   0  0  0  0  0  0
   43.1570   -4.0280   60.9480 C   0  0  0  0  0  0
   43.1220   -4.5610   59.5170 C   0  0  0  0  0  0
   44.5980   -3.6740   61.3670 C   0  0  0  0  0  0
   40.6960   -4.4020   63.8840 N   0  0  0  0  0  0
   39.6970   -5.3520   64.3910 C   0  0  2  0  0  0
   39.4330   -4.9640   65.8040 C   0  0  0  0  0  0
   40.3560   -4.5700   66.5400 O   0  0  0  0  0  0
   40.1540   -6.8140   64.3400 C   0  0  0  0  0  0
   40.1650   -7.4060   62.9230 C   0  0  0  0  0  0
   38.9910   -7.8420   62.2790 C   0  0  0  0  0  0
   41.3970   -7.5450   62.2740 C   0  0  0  0  0  0
   39.0370   -8.4100   60.9990 C   0  0  0  0  0  0
   41.4660   -8.0710   60.9950 C   0  0  0  0  0  0
   40.2880   -8.5180   60.3670 C   0  0  0  0  0  0
   40.3280   -9.0500   59.1090 O   0  0  0  0  0  0
   41.4310  -10.0880   58.5530 P   0  0  0  0  0  0
   40.7390  -10.7050   57.3690 O   0  0  0  0  0  0
   41.8110  -11.1430   59.5710 O   0  5  0  0  0  0
   42.5700   -9.1300   58.2910 O   0  5  0  0  0  0
   38.1760   -5.0650   66.2080 N   0  0  0  0  0  0
   37.7980   -4.8770   67.5660 C   0  0  2  0  0  0
   38.6170   -5.7250   68.5180 C   0  0  0  0  0  0
   38.4310   -6.9709   68.4924 O   0  0  0  0  0  0
   36.3430   -5.2690   67.7010 C   0  0  0  0  0  0
   35.8260   -5.0560   69.0240 C   0  0  0  0  0  0
   35.8970   -3.9180   69.5340 O   0  5  0  0  0  0
   35.2020   -5.9820   69.5510 O   0  0  0  0  0  0
   39.4520   -5.2042   69.3049 O   0  5  0  0  0  0
   42.0458   -2.0689   64.3984 H   0  0  0  0  0  0
   43.1149   -1.3831   63.1282 H   0  0  0  0  0  0
   43.2149   -3.1287   63.5400 H   0  0  0  0  0  0
   40.9278   -1.6362   62.3682 H   0  0  0  0  0  0
   41.4172   -3.0513   60.2967 H   0  0  0  0  0  0
   42.7778   -1.9726   60.7570 H   0  0  0  0  0  0
   42.8196   -4.8054   61.6492 H   0  0  0  0  0  0
   42.0854   -4.8058   59.2422 H   0  0  0  0  0  0
   43.7433   -5.4661   59.4476 H   0  0  0  0  0  0
   43.5121   -3.7949   58.8308 H   0  0  0  0  0  0
   44.5967   -3.2933   62.3990 H   0  0  0  0  0  0
   44.9970   -2.9025   60.6920 H   0  0  0  0  0  0
   45.2282   -4.5737   61.3088 H   0  0  0  0  0  0
   41.6375   -4.2492   64.4320 H   0  0  0  0  0  0
   38.8063   -5.2593   63.7521 H   0  0  0  0  0  0
   41.1771   -6.8924   64.7365 H   0  0  0  0  0  0
   39.4767   -7.4313   64.9484 H   0  0  0  0  0  0
   38.0311   -7.7359   62.7844 H   0  0  0  0  0  0
   42.3115   -7.2361   62.7804 H   0  0  0  0  0  0
   38.1287   -8.7582   60.5073 H   0  0  0  0  0  0
   42.4238   -8.1384   60.4790 H   0  0  0  0  0  0
   37.4127   -5.3031   65.4525 H   0  0  0  0  0  0
   37.9902   -3.8129   67.7679 H   0  0  0  0  0  0
   35.7362   -4.6717   67.0045 H   0  0  0  0  0  0
   36.2275   -6.3371   67.4647 H   0  0  0  0  0  0
  1  2  1  0  0  0
  1 34  1  0  0  0
  1 35  1  0  0  0
  1 36  1  0  0  0
  2  3  1  0  0  0
  2  5  1  0  0  0
  2 37  1  0  0  0
  3  4  2  0  0  0
  3  9  1  0  0  0
  5  6  1  0  0  0
  5 38  1  0  0  0
  5 39  1  0  0  0
  6  7  1  0  0  0
  6  8  1  0  0  0
  6 40  1  0  0  0
  7 41  1  0  0  0
  7 42  1  0  0  0
  7 43  1  0  0  0
  8 44  1  0  0  0
  8 45  1  0  0  0
  8 46  1  0  0  0
  9 10  1  0  0  0
  9 47  1  0  0  0
 10 11  1  0  0  0
 10 13  1  0  0  0
 10 48  1  0  0  0
 11 12  2  0  0  0
 11 25  1  0  0  0
 13 14  1  0  0  0
 13 49  1  0  0  0
 13 50  1  0  0  0
 14 15  2  0  0  0
 14 16  1  0  0  0
 15 17  1  0  0  0
 15 51  1  0  0  0
 16 18  2  0  0  0
 16 52  1  0  0  0
 17 19  2  0  0  0
 17 53  1  0  0  0
 18 19  1  0  0  0
 18 54  1  0  0  0
 19 20  1  0  0  0
 20 21  1  0  0  0
 21 22  2  0  0  0
 21 23  1  0  0  0
 21 24  1  0  0  0
 25 26  1  0  0  0
 25 55  1  0  0  0
 26 27  1  0  0  0
 26 29  1  0  0  0
 26 56  1  0  0  0
 27 28  2  0  0  0
 27 33  1  0  0  0
 29 30  1  0  0  0
 29 57  1  0  0  0
 29 58  1  0  0  0
 30 31  1  0  0  0
 30 32  2  0  0  0
M  CHG  5   1   1  23  -1  24  -1  31  -1  33  -1
M  END
> <s_m_source_file>
../4ch8_ligand.sdf

> <i_m_source_file_index>
1

> <s_epik_input>
W0NIM11bQ0hdKFtDSDNdKVtDSDJdW0NASF0oW05IMytdKUMoPU8pW05IXVtDQEhdKEMoPU8pW05IXVtDQEhdKEMoPU8pW09IXSlbQ0gyXUMoPU8pW09IXSlbQ0gyXWMxW2NIXVtjSF1jKFtjSF1bY0hdMSlPUCg9TykoW09IXSlbT0hd

> <s_epik_cmdline>
J2VwaWtfYXBwJywgJy1pbWFlJywgJ2xpZ2FuZF9wcm8ubWFlJywgJy1vbWFlJywgJ2xpZ2FuZF9wcmVwLm1hZScsICctbXMnLCAnMScsICctcGgnLCAnNycsICctcGh0JywgJzAuNScsICctbnQn

> <r_epik_Ionization_Penalty>
  0.1777

> <r_epik_Ionization_Penalty_Charging>
  0.1777

> <r_epik_Ionization_Penalty_Neutral>
  0.0000

> <r_epik_State_Penalty>
  0.1481

> <r_epik_Charging_Adjusted_Penalty>
0.325748375339877

> <i_epik_Tot_Q>
-3

> <i_epik_Tot_abs_Q>
5

$$$$
