4ci1_ligand
                    3D
 Schrodinger Suite 2020-3.
 29 31  0  0  1  0            999 V2000
   -1.9230    7.6950   11.5530 O   0  0  0  0  0  0
   -1.7150    8.1980   12.6490 C   0  0  0  0  0  0
   -1.2940    9.4800   12.7950 N   0  0  0  0  0  0
   -1.0710   10.0980   13.9790 C   0  0  0  0  0  0
   -0.6930   11.2480   14.0060 O   0  0  0  0  0  0
   -1.3060    9.3770   15.2840 C   0  0  0  0  0  0
   -1.1110    7.8540   15.0770 C   0  0  0  0  0  0
   -2.0010    7.3990   13.8990 C   0  0  2  0  0  0
   -1.8960    5.9660   13.6690 N   0  0  0  0  0  0
   -1.1600    1.4940   12.4720 C   0  0  0  0  0  0
   -0.5210    2.7510   12.3880 C   0  0  0  0  0  0
   -1.2270    3.8480   12.9070 C   0  0  0  0  0  0
   -2.5050    3.7040   13.4760 C   0  0  0  0  0  0
    0.1860    5.7930   12.6040 O   0  0  0  0  0  0
   -3.9930    5.3480   14.4010 O   0  0  0  0  0  0
   -3.1470    2.4540   13.5350 C   0  0  0  0  0  0
   -2.4540    1.3430   13.0130 C   0  0  0  0  0  0
   -2.9000    5.0910   13.9260 C   0  0  0  0  0  0
   -0.8680    5.3160   13.0430 C   0  0  0  0  0  0
   -1.1070   10.1020   11.9072 H   0  0  0  0  0  0
   -0.5902    9.7387   16.0368 H   0  0  0  0  0  0
   -2.3318    9.5709   15.6305 H   0  0  0  0  0  0
   -0.0547    7.6471   14.8501 H   0  0  0  0  0  0
   -1.4007    7.3193   15.9936 H   0  0  0  0  0  0
   -3.0619    7.5472   14.1491 H   0  0  0  0  0  0
   -0.6356    0.6111   12.1065 H   0  0  0  0  0  0
    0.4680    2.8633   11.9437 H   0  0  0  0  0  0
   -4.1419    2.3484   13.9676 H   0  0  0  0  0  0
   -2.9221    0.3587   13.0275 H   0  0  0  0  0  0
  1  2  2  0  0  0
  2  3  1  0  0  0
  2  8  1  0  0  0
  3  4  1  0  0  0
  3 20  1  0  0  0
  4  5  2  0  0  0
  4  6  1  0  0  0
  6  7  1  0  0  0
  6 21  1  0  0  0
  6 22  1  0  0  0
  7  8  1  0  0  0
  7 23  1  0  0  0
  7 24  1  0  0  0
  8  9  1  0  0  0
  8 25  1  0  0  0
  9 18  1  0  0  0
  9 19  1  0  0  0
 10 11  2  0  0  0
 10 17  1  0  0  0
 10 26  1  0  0  0
 11 12  1  0  0  0
 11 27  1  0  0  0
 12 13  2  0  0  0
 12 19  1  0  0  0
 13 16  1  0  0  0
 13 18  1  0  0  0
 14 19  2  0  0  0
 15 18  2  0  0  0
 16 17  2  0  0  0
 16 28  1  0  0  0
 17 29  1  0  0  0
M  END
> <s_m_source_file>
../4ci1_ligand.sdf

> <i_m_source_file_index>
1

> <s_epik_input>
Tz1DMVtOSF1DKD1PKVtDSDJdW0NIMl1bQ0BASF0xTihDMj1PKUMoPU8pYyhjMjMpW2NIXVtjSF1bY0hdW2NIXTM=

> <s_epik_cmdline>
J2VwaWtfYXBwJywgJy1pbWFlJywgJ2xpZ2FuZF9wcm8ubWFlJywgJy1vbWFlJywgJ2xpZ2FuZF9wcmVwLm1hZScsICctbXMnLCAnMScsICctcGgnLCAnNycsICctcGh0JywgJzAuNScsICctbnQn

> <r_lp_tautomer_probability>
1

> <r_epik_Ionization_Penalty>
  0.0002

> <r_epik_Ionization_Penalty_Charging>
  0.0000

> <r_epik_Ionization_Penalty_Neutral>
  0.0002

> <r_epik_State_Penalty>
 -0.0000

> <r_epik_Charging_Adjusted_Penalty>
0

> <i_epik_Tot_Q>
0

> <i_epik_Tot_abs_Q>
0

$$$$
