4ci2_ligand
                    3D
 Schrodinger Suite 2020-3.
 32 34  0  0  1  0            999 V2000
   84.2300  156.3710   13.8710 C   0  0  1  0  0  0
   85.1530  156.8780   15.0090 C   0  0  0  0  0  0
   84.8460  158.3630   15.2820 C   0  0  0  0  0  0
   85.0100  159.1500   14.0030 C   0  0  0  0  0  0
   84.7820  158.5390   12.8080 N   0  0  0  0  0  0
   84.4320  157.2300   12.6430 C   0  0  0  0  0  0
   84.1060  152.7120   13.1650 C   0  0  0  0  0  0
   85.4170  153.0100   12.7900 C   0  0  0  0  0  0
   85.7210  154.4870   12.9980 C   0  0  0  0  0  0
   84.4530  154.9740   13.5320 N   0  0  0  0  0  0
   83.5020  154.0070   13.6410 C   0  0  0  0  0  0
   84.4530  150.4040   12.5990 C   0  0  0  0  0  0
   85.7900  150.7100   12.2340 C   0  0  0  0  0  0
   86.3000  152.0260   12.3190 C   0  0  0  0  0  0
   83.5800  151.4140   13.0630 C   0  0  0  0  0  0
   82.3300  154.0900   14.0400 O   0  0  0  0  0  0
   87.5760  152.3610   11.9750 N   0  0  0  0  0  0
   84.2170  156.7370   11.5430 O   0  0  0  0  0  0
   85.3050  160.3310   14.0740 O   0  0  0  0  0  0
   83.1821  156.3951   14.2045 H   0  0  0  0  0  0
   84.9701  156.2885   15.9195 H   0  0  0  0  0  0
   86.2044  156.7669   14.7053 H   0  0  0  0  0  0
   83.8128  158.4629   15.6459 H   0  0  0  0  0  0
   85.5414  158.7474   16.0427 H   0  0  0  0  0  0
   84.8762  159.1091   11.8720 H   0  0  0  0  0  0
   86.5589  154.5932   13.7028 H   0  0  0  0  0  0
   85.9916  154.9448   12.0351 H   0  0  0  0  0  0
   84.0951  149.3774   12.5205 H   0  0  0  0  0  0
   86.4401  149.9103   11.8792 H   0  0  0  0  0  0
   82.5459  151.1954   13.3294 H   0  0  0  0  0  0
   87.9137  153.4041   12.0636 H   0  0  0  0  0  0
   88.2678  151.5882   11.6088 H   0  0  0  0  0  0
  1  2  1  0  0  0
  1  6  1  0  0  0
  1 10  1  0  0  0
  1 20  1  0  0  0
  2  3  1  0  0  0
  2 21  1  0  0  0
  2 22  1  0  0  0
  3  4  1  0  0  0
  3 23  1  0  0  0
  3 24  1  0  0  0
  4  5  1  0  0  0
  4 19  2  0  0  0
  5  6  1  0  0  0
  5 25  1  0  0  0
  6 18  2  0  0  0
  7  8  2  0  0  0
  7 11  1  0  0  0
  7 15  1  0  0  0
  8  9  1  0  0  0
  8 14  1  0  0  0
  9 10  1  0  0  0
  9 26  1  0  0  0
  9 27  1  0  0  0
 10 11  1  0  0  0
 11 16  2  0  0  0
 12 13  1  0  0  0
 12 15  2  0  0  0
 12 28  1  0  0  0
 13 14  2  0  0  0
 13 29  1  0  0  0
 14 17  1  0  0  0
 15 30  1  0  0  0
 17 31  1  0  0  0
 17 32  1  0  0  0
M  END
> <s_m_source_file>
../4ci2_ligand.sdf

> <i_m_source_file_index>
1

> <s_epik_input>
Tz1DMVtOSF1DKD1PKVtDSDJdW0NIMl1bQ0BASF0xTihDMj1PKVtDSDJdYyhjMjMpYyhbTkgyXSlbY0hdW2NIXVtjSF0z

> <s_epik_cmdline>
J2VwaWtfYXBwJywgJy1pbWFlJywgJ2xpZ2FuZF9wcm8ubWFlJywgJy1vbWFlJywgJ2xpZ2FuZF9wcmVwLm1hZScsICctbXMnLCAnMScsICctcGgnLCAnNycsICctcGh0JywgJzAuNScsICctbnQn

> <r_lp_tautomer_probability>
1

> <r_epik_Ionization_Penalty>
  0.0002

> <r_epik_Ionization_Penalty_Charging>
  0.0000

> <r_epik_Ionization_Penalty_Neutral>
  0.0002

> <r_epik_State_Penalty>
 -0.0000

> <r_epik_Charging_Adjusted_Penalty>
0

> <i_epik_Tot_Q>
0

> <i_epik_Tot_abs_Q>
0

$$$$
