4cik_ligand
                    3D
 Schrodinger Suite 2020-3.
 38 40  0  0  1  0            999 V2000
   -5.3960   -0.2270   14.8560 C   0  0  0  0  0  0
   -5.1110   -1.7360   14.8780 C   0  0  0  0  0  0
   -4.8730   -2.0500   16.3110 N   0  3  0  0  0  0
   -6.1280   -1.9030   17.0750 C   0  0  2  0  0  0
   -6.4870   -0.3940   17.1200 C   0  0  0  0  0  0
   -6.6790    0.0330   15.6650 C   0  0  1  0  0  0
   -7.0400    1.4830   15.6830 C   0  0  0  0  0  0
   -8.2250    1.9820   16.0570 O   0  0  0  0  0  0
   -8.2450    3.1970   15.9620 N   0  0  0  0  0  0
   -7.0390    3.6490   15.5650 C   0  0  0  0  0  0
   -6.2170    2.5040   15.3760 C   0  0  0  0  0  0
   -6.7020    4.7930   15.3760 O   0  0  0  0  0  0
   -5.8650   -2.3160   18.5200 C   0  0  0  0  0  0
   -7.1620   -2.4830   19.2880 C   0  0  0  0  0  0
   -7.3620   -1.7480   20.4490 C   0  0  0  0  0  0
   -8.5200   -1.9150   21.1930 C   0  0  0  0  0  0
   -9.5010   -2.7950   20.7600 C   0  0  0  0  0  0
   -9.2860   -3.5420   19.6130 C   0  0  0  0  0  0
   -8.1260   -3.3820   18.8710 C   0  0  0  0  0  0
   -4.5498    0.3126   15.3063 H   0  0  0  0  0  0
   -5.5313    0.1055   13.8162 H   0  0  0  0  0  0
   -5.9800   -2.2791   14.4783 H   0  0  0  0  0  0
   -4.2276   -1.9514   14.2590 H   0  0  0  0  0  0
   -4.5113   -3.0846   16.4045 H   0  0  0  0  0  0
   -4.1189   -1.3599   16.7173 H   0  0  0  0  0  0
   -6.8939   -2.5301   16.5953 H   0  0  0  0  0  0
   -7.4100   -0.2539   17.7017 H   0  0  0  0  0  0
   -5.6664    0.1642   17.5943 H   0  0  0  0  0  0
   -7.4934   -0.5248   15.1796 H   0  0  0  0  0  0
   -5.1747    2.4627   15.0597 H   0  0  0  0  0  0
   -5.3229   -3.2730   18.5349 H   0  0  0  0  0  0
   -5.2597   -1.5440   19.0176 H   0  0  0  0  0  0
   -6.6047   -1.0360   20.7772 H   0  0  0  0  0  0
   -8.6595   -1.3551   22.1177 H   0  0  0  0  0  0
  -10.4323   -2.8979   21.3169 H   0  0  0  0  0  0
  -10.0370   -4.2632   19.2906 H   0  0  0  0  0  0
   -7.9744   -3.9633   17.9615 H   0  0  0  0  0  0
   -7.4145    5.6124   15.5518 H   0  0  0  0  0  0
  1  2  1  0  0  0
  1  6  1  0  0  0
  1 20  1  0  0  0
  1 21  1  0  0  0
  2  3  1  0  0  0
  2 22  1  0  0  0
  2 23  1  0  0  0
  3  4  1  0  0  0
  3 24  1  0  0  0
  3 25  1  0  0  0
  4  5  1  0  0  0
  4 13  1  0  0  0
  4 26  1  0  0  0
  5  6  1  0  0  0
  5 27  1  0  0  0
  5 28  1  0  0  0
  6  7  1  0  0  0
  6 29  1  0  0  0
  7  8  1  0  0  0
  7 11  2  0  0  0
  8  9  1  0  0  0
  9 10  2  0  0  0
 10 11  1  0  0  0
 10 12  1  0  0  0
 11 30  1  0  0  0
 12 38  1  0  0  0
 13 14  1  0  0  0
 13 31  1  0  0  0
 13 32  1  0  0  0
 14 15  2  0  0  0
 14 19  1  0  0  0
 15 16  1  0  0  0
 15 33  1  0  0  0
 16 17  2  0  0  0
 16 34  1  0  0  0
 17 18  1  0  0  0
 17 35  1  0  0  0
 18 19  2  0  0  0
 18 36  1  0  0  0
 19 37  1  0  0  0
M  CHG  1   3   1
M  END
> <s_m_source_file>
../4cik_ligand.sdf

> <i_m_source_file_index>
1

> <s_epik_input>
W2NIXTFjKD1PKVtuSF1vYzFbQ0BIXShbQ0gyXTIpW0NIMl1bQ0gyXVtOSDIrXVtDQEhdMltDSDJdYzNbY0hdW2NIXVtjSF1bY0hdW2NIXTM=

> <s_epik_cmdline>
J2VwaWtfYXBwJywgJy1pbWFlJywgJ2xpZ2FuZF9wcm8ubWFlJywgJy1vbWFlJywgJ2xpZ2FuZF9wcmVwLm1hZScsICctbXMnLCAnMScsICctcGgnLCAnNycsICctcGh0JywgJzAuNScsICctbnQn

> <r_lp_tautomer_probability>
0.967938717548702

> <r_epik_Ionization_Penalty>
  0.2061

> <r_epik_Ionization_Penalty_Charging>
  0.0026

> <r_epik_Ionization_Penalty_Neutral>
  0.2035

> <r_epik_State_Penalty>
  0.1934

> <r_epik_Charging_Adjusted_Penalty>
0.19600028417162

> <i_epik_Tot_Q>
1

> <i_epik_Tot_abs_Q>
1

$$$$
