4cix_ligand
                    3D
 Schrodinger Suite 2020-3.
 38 39  0  0  1  0            999 V2000
    6.4620  -31.1470  -46.5600 C   0  0  0  0  0  0
    5.1520  -31.6220  -46.4710 C   0  0  0  0  0  0
    4.1440  -31.0020  -47.2070 C   0  0  0  0  0  0
    4.4340  -29.9150  -48.0350 C   0  0  0  0  0  0
    5.7430  -29.4430  -48.1270 C   0  0  0  0  0  0
    6.7650  -30.0560  -47.3890 C   0  0  0  0  0  0
    8.0810  -29.5880  -47.4840 C   0  0  0  0  0  0
    8.2600  -28.3370  -46.6250 C   0  0  2  0  0  0
    9.3680  -27.5560  -47.1310 O   0  0  0  0  0  0
    8.4180  -28.7170  -45.2780 C   0  0  0  0  0  0
    7.2700  -28.7030  -44.4830 C   0  0  0  0  0  0
    7.2200  -29.0660  -43.1350 C   0  0  2  0  0  0
    6.0870  -29.8820  -42.9560 C   0  0  0  0  0  0
    6.2420  -31.1100  -42.7890 O   0  5  0  0  0  0
    4.9810  -29.3180  -43.0050 O   0  0  0  0  0  0
    7.0540  -27.8900  -42.3490 O   0  0  0  0  0  0
    8.4640  -29.7960  -42.6720 C   0  0  0  0  0  0
    9.6810  -29.0590  -43.2390 C   0  0  1  0  0  0
   10.9080  -29.6970  -42.7860 O   0  0  0  0  0  0
    9.6620  -29.1260  -44.7650 C   0  0  2  0  0  0
   10.7200  -28.2780  -45.2190 O   0  0  0  0  0  0
    7.2530  -31.6259  -45.9829 H   0  0  0  0  0  0
    4.9193  -32.4723  -45.8300 H   0  0  0  0  0  0
    3.1200  -31.3686  -47.1359 H   0  0  0  0  0  0
    3.6392  -29.4370  -48.6077 H   0  0  0  0  0  0
    5.9718  -28.5960  -48.7738 H   0  0  0  0  0  0
    8.7735  -30.3674  -47.1334 H   0  0  0  0  0  0
    8.3075  -29.3406  -48.5316 H   0  0  0  0  0  0
    7.3935  -27.6595  -46.6107 H   0  0  0  0  0  0
    9.3600  -27.2000  -48.1718 H   0  0  0  0  0  0
    6.3075  -28.3879  -44.9123 H   0  0  0  0  0  0
    6.2009  -27.2207  -42.5340 H   0  0  0  0  0  0
    8.4992  -29.7995  -41.5726 H   0  0  0  0  0  0
    8.4401  -30.8319  -43.0413 H   0  0  0  0  0  0
    9.6875  -28.0211  -42.8748 H   0  0  0  0  0  0
   11.1295  -29.7619  -41.7105 H   0  0  0  0  0  0
    9.7890  -30.1326  -45.1900 H   0  0  0  0  0  0
   10.9075  -28.1614  -46.2966 H   0  0  0  0  0  0
  1  2  2  0  0  0
  1  6  1  0  0  0
  1 22  1  0  0  0
  2  3  1  0  0  0
  2 23  1  0  0  0
  3  4  2  0  0  0
  3 24  1  0  0  0
  4  5  1  0  0  0
  4 25  1  0  0  0
  5  6  2  0  0  0
  5 26  1  0  0  0
  6  7  1  0  0  0
  7  8  1  0  0  0
  7 27  1  0  0  0
  7 28  1  0  0  0
  8  9  1  0  0  0
  8 10  1  0  0  0
  8 29  1  0  0  0
  9 30  1  0  0  0
 10 11  2  0  0  0
 10 20  1  0  0  0
 11 12  1  0  0  0
 11 31  1  0  0  0
 12 13  1  0  0  0
 12 16  1  0  0  0
 12 17  1  0  0  0
 13 14  1  0  0  0
 13 15  2  0  0  0
 16 32  1  0  0  0
 17 18  1  0  0  0
 17 33  1  0  0  0
 17 34  1  0  0  0
 18 19  1  0  0  0
 18 20  1  0  0  0
 18 35  1  0  0  0
 19 36  1  0  0  0
 20 21  1  0  0  0
 20 37  1  0  0  0
 21 38  1  0  0  0
M  CHG  1  14  -1
M  END
> <s_m_source_file>
../4cix_ligand.sdf

> <i_m_source_file_index>
1

> <s_epik_input>
W2NIXTFbY0hdW2NIXVtjSF1bY0hdYzFbQ0gyXVtDQEhdKFtPSF0pQyhbQ0BASF0oW09IXSlbQ0BASF0oW0NIMl0yKVtPSF0pPVtDSF1bQ0BAXTIoW09IXSlDKD1PKVtPSF0=

> <s_epik_cmdline>
J2VwaWtfYXBwJywgJy1pbWFlJywgJ2xpZ2FuZF9wcm8ubWFlJywgJy1vbWFlJywgJ2xpZ2FuZF9wcmVwLm1hZScsICctbXMnLCAnMScsICctcGgnLCAnNycsICctcGh0JywgJzAuNScsICctbnQn

> <r_lp_tautomer_probability>
1

> <r_epik_Ionization_Penalty>
  0.0001

> <r_epik_Ionization_Penalty_Charging>
  0.0001

> <r_epik_Ionization_Penalty_Neutral>
  0.0000

> <r_epik_State_Penalty>
 -0.0000

> <r_epik_Charging_Adjusted_Penalty>
0.000133344608574323

> <i_epik_Tot_Q>
-1

> <i_epik_Tot_abs_Q>
1

$$$$
