4ciy_ligand
                    3D
 Schrodinger Suite 2020-3.
 38 39  0  0  1  0            999 V2000
  -14.5000  -29.1070    6.1440 C   0  0  0  0  0  0
  -13.3280  -29.0810    5.3750 C   0  0  0  0  0  0
  -12.0740  -29.4420    5.9110 C   0  0  0  0  0  0
  -11.9710  -29.8360    7.2380 C   0  0  0  0  0  0
  -13.1350  -29.8490    8.0090 C   0  0  0  0  0  0
  -14.4070  -29.4790    7.4970 C   0  0  0  0  0  0
  -15.5620  -29.5990    8.3410 C   0  0  0  0  0  0
  -16.4140  -28.3980    8.5720 C   0  0  1  0  0  0
  -16.0610  -27.4550    7.5760 O   0  0  0  0  0  0
  -17.8130  -28.7660    8.5890 C   0  0  0  0  0  0
  -18.5620  -28.7700    7.4080 C   0  0  0  0  0  0
  -19.9860  -29.0670    7.3350 C   0  0  2  0  0  0
  -20.2390  -29.9020    6.1590 C   0  0  0  0  0  0
  -20.4800  -31.1360    6.2530 O   0  5  0  0  0  0
  -20.2460  -29.3470    5.0550 O   0  0  0  0  0  0
  -20.7180  -27.7990    7.1930 O   0  0  0  0  0  0
  -20.5480  -29.7220    8.6140 C   0  0  0  0  0  0
  -19.9850  -29.0330    9.8330 C   0  0  1  0  0  0
  -20.4090  -29.7140   11.0880 O   0  0  0  0  0  0
  -18.4290  -29.0510    9.8450 C   0  0  2  0  0  0
  -18.1240  -28.0470   10.8290 O   0  0  0  0  0  0
  -15.4617  -28.8448    5.7030 H   0  0  0  0  0  0
  -13.3875  -28.7725    4.3313 H   0  0  0  0  0  0
  -11.1843  -29.4115    5.2820 H   0  0  0  0  0  0
  -11.0110  -30.1263    7.6650 H   0  0  0  0  0  0
  -13.0642  -30.1574    9.0521 H   0  0  0  0  0  0
  -16.2483  -30.3479    7.9189 H   0  0  0  0  0  0
  -15.2495  -29.9141    9.3475 H   0  0  0  0  0  0
  -16.2589  -27.8976    9.5392 H   0  0  0  0  0  0
  -15.0190  -27.1144    7.4857 H   0  0  0  0  0  0
  -18.0771  -28.5377    6.4484 H   0  0  0  0  0  0
  -20.5018  -27.1309    6.3463 H   0  0  0  0  0  0
  -21.6443  -29.6326    8.6203 H   0  0  0  0  0  0
  -20.2667  -30.7852    8.6355 H   0  0  0  0  0  0
  -20.4020  -28.0157    9.7978 H   0  0  0  0  0  0
  -21.4788  -29.8305   11.3161 H   0  0  0  0  0  0
  -17.9572  -30.0220   10.0560 H   0  0  0  0  0  0
  -17.0765  -27.8166   11.0733 H   0  0  0  0  0  0
  1  2  2  0  0  0
  1  6  1  0  0  0
  1 22  1  0  0  0
  2  3  1  0  0  0
  2 23  1  0  0  0
  3  4  2  0  0  0
  3 24  1  0  0  0
  4  5  1  0  0  0
  4 25  1  0  0  0
  5  6  2  0  0  0
  5 26  1  0  0  0
  6  7  1  0  0  0
  7  8  1  0  0  0
  7 27  1  0  0  0
  7 28  1  0  0  0
  8  9  1  0  0  0
  8 10  1  0  0  0
  8 29  1  0  0  0
  9 30  1  0  0  0
 10 11  2  0  0  0
 10 20  1  0  0  0
 11 12  1  0  0  0
 11 31  1  0  0  0
 12 13  1  0  0  0
 12 16  1  0  0  0
 12 17  1  0  0  0
 13 14  1  0  0  0
 13 15  2  0  0  0
 16 32  1  0  0  0
 17 18  1  0  0  0
 17 33  1  0  0  0
 17 34  1  0  0  0
 18 19  1  0  0  0
 18 20  1  0  0  0
 18 35  1  0  0  0
 19 36  1  0  0  0
 20 21  1  0  0  0
 20 37  1  0  0  0
 21 38  1  0  0  0
M  CHG  1  14  -1
M  END
> <s_m_source_file>
../4ciy_ligand.sdf

> <i_m_source_file_index>
1

> <s_epik_input>
W2NIXTFbY0hdW2NIXVtjSF1bY0hdYzFbQ0gyXVtDQEBIXShbT0hdKUMoW0NAQEhdKFtPSF0pW0NAQEhdKFtDSDJdMilbT0hdKT1bQ0hdW0NAQF0yKFtPSF0pQyg9TylbT0hd

> <s_epik_cmdline>
J2VwaWtfYXBwJywgJy1pbWFlJywgJ2xpZ2FuZF9wcm8ubWFlJywgJy1vbWFlJywgJ2xpZ2FuZF9wcmVwLm1hZScsICctbXMnLCAnMScsICctcGgnLCAnNycsICctcGh0JywgJzAuNScsICctbnQn

> <r_lp_tautomer_probability>
1

> <r_epik_Ionization_Penalty>
  0.0001

> <r_epik_Ionization_Penalty_Charging>
  0.0001

> <r_epik_Ionization_Penalty_Neutral>
  0.0000

> <r_epik_State_Penalty>
 -0.0000

> <r_epik_Charging_Adjusted_Penalty>
0.000133344608574323

> <i_epik_Tot_Q>
-1

> <i_epik_Tot_abs_Q>
1

$$$$
