4ciz_ligand
                    3D
 Schrodinger Suite 2020-3.
 38 38  0  0  1  0            999 V2000
   -6.0680   15.1820   12.2900 C   0  0  0  0  0  0
   -7.0930   14.7590   13.3540 C   0  0  0  0  0  0
   -8.3320   15.6390   13.3020 C   0  0  0  0  0  0
   -9.0470   15.4750   11.9710 C   0  0  0  0  0  0
   -8.1150   15.2210   10.8230 C   0  0  1  0  0  0
   -6.7730   15.2830   10.9550 C   0  0  2  0  0  0
   -5.9060   15.0910    9.7990 C   0  0  0  0  0  0
   -4.9770   15.9210    9.3220 C   0  0  0  0  0  0
   -4.2970   15.6730    8.0490 C   0  0  0  0  0  0
   -2.9560   15.8420    7.9310 C   0  0  0  0  0  0
   -5.4290   16.5350   12.6740 C   0  0  0  0  0  0
   -4.9340   14.1430   12.2510 C   0  0  0  0  0  0
   -8.7580   14.5520    9.6580 C   0  0  0  0  0  0
   -5.1520   15.2250    6.8950 C   0  0  0  0  0  0
   -7.3950   13.7160   13.1780 H   0  0  0  0  0  0
   -6.6415   14.8463   14.3533 H   0  0  0  0  0  0
   -9.0182   15.3544   14.1133 H   0  0  0  0  0  0
   -8.0389   16.6924   13.4223 H   0  0  0  0  0  0
   -9.7398   14.6226   12.0296 H   0  0  0  0  0  0
   -9.6113   16.3912   11.7426 H   0  0  0  0  0  0
   -7.5303   16.1069   10.5344 H   0  0  0  0  0  0
   -7.3675   16.2005   10.8335 H   0  0  0  0  0  0
   -6.0884   14.1262    9.3031 H   0  0  0  0  0  0
   -4.7018   16.8227    9.8888 H   0  0  0  0  0  0
   -2.3647   16.1710    8.7983 H   0  0  0  0  0  0
   -2.4601   15.6500    6.9681 H   0  0  0  0  0  0
   -6.2082   17.3104   12.7137 H   0  0  0  0  0  0
   -4.6751   16.8110   11.9221 H   0  0  0  0  0  0
   -4.9487   16.4470   13.6597 H   0  0  0  0  0  0
   -5.3466   13.1599   11.9801 H   0  0  0  0  0  0
   -4.4592   14.0812   13.2413 H   0  0  0  0  0  0
   -4.1855   14.4451   11.5037 H   0  0  0  0  0  0
   -9.8517   14.6196    9.7541 H   0  0  0  0  0  0
   -8.4570   13.4943    9.6305 H   0  0  0  0  0  0
   -8.4401   15.0480    8.7290 H   0  0  0  0  0  0
   -6.2006   15.1573    7.2202 H   0  0  0  0  0  0
   -4.8114   14.2384    6.5477 H   0  0  0  0  0  0
   -5.0691   15.9517    6.0734 H   0  0  0  0  0  0
  1  2  1  0  0  0
  1  6  1  0  0  0
  1 11  1  0  0  0
  1 12  1  0  0  0
  2  3  1  0  0  0
  2 15  1  0  0  0
  2 16  1  0  0  0
  3  4  1  0  0  0
  3 17  1  0  0  0
  3 18  1  0  0  0
  4  5  1  0  0  0
  4 19  1  0  0  0
  4 20  1  0  0  0
  5  6  1  0  0  0
  5 13  1  0  0  0
  5 21  1  0  0  0
  6  7  1  0  0  0
  6 22  1  0  0  0
  7  8  2  0  0  0
  7 23  1  0  0  0
  8  9  1  0  0  0
  8 24  1  0  0  0
  9 10  2  0  0  0
  9 14  1  0  0  0
 10 25  1  0  0  0
 10 26  1  0  0  0
 11 27  1  0  0  0
 11 28  1  0  0  0
 11 29  1  0  0  0
 12 30  1  0  0  0
 12 31  1  0  0  0
 12 32  1  0  0  0
 13 33  1  0  0  0
 13 34  1  0  0  0
 13 35  1  0  0  0
 14 36  1  0  0  0
 14 37  1  0  0  0
 14 38  1  0  0  0
M  END
> <s_m_source_file>
../4ciz_ligand.sdf

> <i_m_source_file_index>
1

> <s_epik_input>
W0NIM11DMShbQ0gzXSlbQ0gyXVtDSDJdW0NIMl1bQ0BIXShbQ0gzXSlbQ0BASF0xL1tDSF09W0NIXS9DKD1bQ0gyXSlbQ0gzXQ==

> <s_epik_cmdline>
J2VwaWtfYXBwJywgJy1pbWFlJywgJ2xpZ2FuZF9wcm8ubWFlJywgJy1vbWFlJywgJ2xpZ2FuZF9wcmVwLm1hZScsICctbXMnLCAnMScsICctcGgnLCAnNycsICctcGh0JywgJzAuNScsICctbnQn

> <r_lp_tautomer_probability>
1

> <r_epik_Ionization_Penalty>
  0.0000

> <r_epik_Ionization_Penalty_Charging>
  0.0000

> <r_epik_Ionization_Penalty_Neutral>
  0.0000

> <r_epik_State_Penalty>
 -0.0000

> <r_epik_Charging_Adjusted_Penalty>
0

> <i_epik_Tot_Q>
0

> <i_epik_Tot_abs_Q>
0

$$$$
