4cj4_ligand
                    3D
 Schrodinger Suite 2020-3.
 51 53  0  0  1  0            999 V2000
  -11.2580   44.2170   -1.8040 C   0  0  0  0  0  0
  -12.1510   44.2180   -2.8540 C   0  0  0  0  0  0
  -10.8670   49.4760    3.1290 C   0  0  0  0  0  0
   -9.3590   48.0840    4.3370 C   0  0  0  0  0  0
  -11.4340   49.8090    4.3400 C   0  0  0  0  0  0
  -10.0000   48.4850    5.4870 C   0  0  0  0  0  0
   -9.8120   48.5960    3.1450 C   0  0  0  0  0  0
  -12.8890   45.1580   -0.3010 C   0  0  0  0  0  0
  -11.6080   44.6820   -0.5430 C   0  0  0  0  0  0
  -13.4080   44.6940   -2.5980 C   0  0  0  0  0  0
  -13.7600   45.1490   -1.3640 C   0  0  0  0  0  0
   -9.1670   48.2030    1.8930 C   0  0  0  0  0  0
  -13.3800   45.6780    1.0100 C   0  0  0  0  0  0
  -15.5020   45.0450   -2.5900 C   0  0  0  0  0  0
   -7.4570   42.6850    0.2260 C   0  0  0  0  0  0
   -6.8800   43.2720    2.5690 C   0  0  0  0  0  0
  -10.5740   44.6140    0.5350 C   0  0  0  0  0  0
   -8.2180   44.8770    1.2510 C   0  0  0  0  0  0
   -9.3550   46.6880   -0.0210 C   0  0  0  0  0  0
   -7.9330   43.3920    1.4800 C   0  0  0  0  0  0
   -9.2310   45.1870    0.1600 C   0  0  2  0  0  0
  -11.0310   49.3360    5.5250 N   0  0  0  0  0  0
   -9.9210   47.3320    1.1400 N   0  0  0  0  0  0
  -14.4820   45.2350    1.4360 O   0  0  0  0  0  0
   -8.0650   48.6550    1.6190 O   0  0  0  0  0  0
  -12.6750   46.5540    1.5890 O   0  5  0  0  0  0
  -14.4310   44.7680   -3.4940 O   0  0  0  0  0  0
  -15.0590   45.5680   -1.3310 O   0  0  0  0  0  0
  -10.2483   43.8405   -1.9680 H   0  0  0  0  0  0
  -11.8688   43.8563   -3.8427 H   0  0  0  0  0  0
  -11.2410   49.8945    2.1946 H   0  0  0  0  0  0
   -8.5226   47.3858    4.3705 H   0  0  0  0  0  0
  -12.2706   50.5077    4.3320 H   0  0  0  0  0  0
   -9.6421   48.0804    6.4337 H   0  0  0  0  0  0
  -16.1776   45.7882   -3.0387 H   0  0  0  0  0  0
  -16.0592   44.1186   -2.3867 H   0  0  0  0  0  0
   -7.2691   41.6249    0.4517 H   0  0  0  0  0  0
   -6.5279   43.1545   -0.1294 H   0  0  0  0  0  0
   -8.2287   42.7626   -0.5540 H   0  0  0  0  0  0
   -6.6594   42.2097    2.7502 H   0  0  0  0  0  0
   -7.2561   43.7315    3.4949 H   0  0  0  0  0  0
   -5.9623   43.7879    2.2501 H   0  0  0  0  0  0
  -10.9236   45.1749    1.4143 H   0  0  0  0  0  0
  -10.4037   43.5637    0.8141 H   0  0  0  0  0  0
   -8.6123   45.3217    2.1766 H   0  0  0  0  0  0
   -7.2873   45.3892    0.9656 H   0  0  0  0  0  0
   -8.3589   47.1193   -0.1995 H   0  0  0  0  0  0
  -10.0063   46.9010   -0.8815 H   0  0  0  0  0  0
   -8.8694   42.8967    1.7766 H   0  0  0  0  0  0
   -8.8973   44.7327   -0.7846 H   0  0  0  0  0  0
  -10.9626   47.1281    1.4290 H   0  0  0  0  0  0
  1  2  2  0  0  0
  1  9  1  0  0  0
  1 29  1  0  0  0
  2 10  1  0  0  0
  2 30  1  0  0  0
  3  5  2  0  0  0
  3  7  1  0  0  0
  3 31  1  0  0  0
  4  6  1  0  0  0
  4  7  2  0  0  0
  4 32  1  0  0  0
  5 22  1  0  0  0
  5 33  1  0  0  0
  6 22  2  0  0  0
  6 34  1  0  0  0
  7 12  1  0  0  0
  8  9  2  0  0  0
  8 11  1  0  0  0
  8 13  1  0  0  0
  9 17  1  0  0  0
 10 11  2  0  0  0
 10 27  1  0  0  0
 11 28  1  0  0  0
 12 23  1  0  0  0
 12 25  2  0  0  0
 13 24  2  0  0  0
 13 26  1  0  0  0
 14 27  1  0  0  0
 14 28  1  0  0  0
 14 35  1  0  0  0
 14 36  1  0  0  0
 15 20  1  0  0  0
 15 37  1  0  0  0
 15 38  1  0  0  0
 15 39  1  0  0  0
 16 20  1  0  0  0
 16 40  1  0  0  0
 16 41  1  0  0  0
 16 42  1  0  0  0
 17 21  1  0  0  0
 17 43  1  0  0  0
 17 44  1  0  0  0
 18 20  1  0  0  0
 18 21  1  0  0  0
 18 45  1  0  0  0
 18 46  1  0  0  0
 19 21  1  0  0  0
 19 23  1  0  0  0
 19 47  1  0  0  0
 19 48  1  0  0  0
 20 49  1  0  0  0
 21 50  1  0  0  0
 23 51  1  0  0  0
M  CHG  1  26  -1
M  END
> <s_m_source_file>
../4cj4_ligand.sdf

> <i_m_source_file_index>
1

> <s_epik_input>
TzFbQ0gyXU9jKGMxMiljKEMoPU8pW09IXSljKFtjSF1bY0hdMilbQ0gyXVtDQEhdKFtDSDJdW0NIXShbQ0gzXSlbQ0gzXSlbQ0gyXVtOSF1DKD1PKWMzW2NIXVtjSF1uW2NIXVtjSF0z

> <s_epik_cmdline>
J2VwaWtfYXBwJywgJy1pbWFlJywgJ2xpZ2FuZF9wcm8ubWFlJywgJy1vbWFlJywgJ2xpZ2FuZF9wcmVwLm1hZScsICctbXMnLCAnMScsICctcGgnLCAnNycsICctcGh0JywgJzAuNScsICctbnQn

> <r_lp_tautomer_probability>
1

> <r_epik_Ionization_Penalty>
  0.0004

> <r_epik_Ionization_Penalty_Charging>
  0.0002

> <r_epik_Ionization_Penalty_Neutral>
  0.0002

> <r_epik_State_Penalty>
 -0.0000

> <r_epik_Charging_Adjusted_Penalty>
0.00021814205678087

> <i_epik_Tot_Q>
-1

> <i_epik_Tot_abs_Q>
1

> <s_epik_Chemistry_Notes>
This compound contains an acetal/aminal-like group ( X-CH(R)-Y where X, Y are N, S, or O) that may be acid/base labile, releasing an aldehyde.

$$$$
