4cjp_ligand
                    3D
 Schrodinger Suite 2020-3.
 51 53  0  0  1  0            999 V2000
   -9.8980   48.3000    5.0110 C   0  0  0  0  0  0
   -9.2760   47.8700    3.8610 C   0  0  0  0  0  0
  -11.2020   44.0440   -2.3050 C   0  0  0  0  0  0
  -12.0900   44.1100   -3.3540 C   0  0  0  0  0  0
  -10.9430   49.1890    4.9010 C   0  0  0  0  0  0
  -10.7880   49.2440    2.6450 C   0  0  0  0  0  0
   -9.7390   48.3560    2.6630 C   0  0  0  0  0  0
  -12.7980   44.9810   -0.7730 C   0  0  0  0  0  0
  -11.5300   44.4720   -1.0280 C   0  0  0  0  0  0
  -13.3330   44.6140   -3.0880 C   0  0  0  0  0  0
  -13.6700   45.0340   -1.8380 C   0  0  0  0  0  0
   -9.0990   47.9240    1.4180 C   0  0  0  0  0  0
  -13.2740   45.4610    0.5580 C   0  0  0  0  0  0
  -15.4140   44.9730   -3.0560 C   0  0  0  0  0  0
   -7.4470   42.4300   -0.1920 C   0  0  0  0  0  0
   -6.7620   43.0700    2.0720 C   0  0  0  0  0  0
  -10.4800   44.3300    0.0350 C   0  0  0  0  0  0
   -8.1230   44.6530    0.7790 C   0  0  0  0  0  0
   -9.2630   46.4260   -0.5020 C   0  0  0  0  0  0
   -7.8720   43.1780    1.0510 C   0  0  0  0  0  0
   -9.1320   44.9280   -0.3200 C   0  0  2  0  0  0
  -11.4080   49.6780    3.7480 N   0  0  0  0  0  0
   -9.8500   47.0610    0.6570 N   0  0  0  0  0  0
  -14.3880   45.0330    0.9680 O   0  5  0  0  0  0
   -7.9830   48.3380    1.1530 O   0  0  0  0  0  0
  -12.5480   46.2780    1.1810 O   0  0  0  0  0  0
  -14.3490   44.7440   -3.9940 O   0  0  0  0  0  0
  -14.9580   45.4890   -1.7930 O   0  0  0  0  0  0
   -9.5701   47.9442    5.9877 H   0  0  0  0  0  0
   -8.4437   47.1672    3.8999 H   0  0  0  0  0  0
  -10.2053   43.6409   -2.4845 H   0  0  0  0  0  0
  -11.8145   43.7750   -4.3540 H   0  0  0  0  0  0
  -11.4261   49.5178    5.8211 H   0  0  0  0  0  0
  -11.1333   49.6146    1.6798 H   0  0  0  0  0  0
  -16.1219   45.7027   -3.4760 H   0  0  0  0  0  0
  -15.9378   44.0263   -2.8576 H   0  0  0  0  0  0
   -7.2784   41.3718    0.0565 H   0  0  0  0  0  0
   -6.5166   42.8675   -0.5831 H   0  0  0  0  0  0
   -8.2367   42.5064   -0.9539 H   0  0  0  0  0  0
   -6.5621   42.0096    2.2854 H   0  0  0  0  0  0
   -7.0651   43.5797    2.9985 H   0  0  0  0  0  0
   -5.8513   43.5422    1.6749 H   0  0  0  0  0  0
  -10.8180   44.8320    0.9536 H   0  0  0  0  0  0
  -10.3094   43.2632    0.2417 H   0  0  0  0  0  0
   -8.5052   45.1342    1.6914 H   0  0  0  0  0  0
   -7.1818   45.1355    0.4767 H   0  0  0  0  0  0
   -8.2675   46.8637   -0.6672 H   0  0  0  0  0  0
   -9.9043   46.6351   -1.3709 H   0  0  0  0  0  0
   -8.8082   42.7267    1.4112 H   0  0  0  0  0  0
   -8.7858   44.4676   -1.2571 H   0  0  0  0  0  0
  -10.8956   46.8527    0.9277 H   0  0  0  0  0  0
  1  2  2  0  0  0
  1  5  1  0  0  0
  1 29  1  0  0  0
  2  7  1  0  0  0
  2 30  1  0  0  0
  3  4  2  0  0  0
  3  9  1  0  0  0
  3 31  1  0  0  0
  4 10  1  0  0  0
  4 32  1  0  0  0
  5 22  2  0  0  0
  5 33  1  0  0  0
  6  7  2  0  0  0
  6 22  1  0  0  0
  6 34  1  0  0  0
  7 12  1  0  0  0
  8  9  2  0  0  0
  8 11  1  0  0  0
  8 13  1  0  0  0
  9 17  1  0  0  0
 10 11  2  0  0  0
 10 27  1  0  0  0
 11 28  1  0  0  0
 12 23  1  0  0  0
 12 25  2  0  0  0
 13 24  1  0  0  0
 13 26  2  0  0  0
 14 27  1  0  0  0
 14 28  1  0  0  0
 14 35  1  0  0  0
 14 36  1  0  0  0
 15 20  1  0  0  0
 15 37  1  0  0  0
 15 38  1  0  0  0
 15 39  1  0  0  0
 16 20  1  0  0  0
 16 40  1  0  0  0
 16 41  1  0  0  0
 16 42  1  0  0  0
 17 21  1  0  0  0
 17 43  1  0  0  0
 17 44  1  0  0  0
 18 20  1  0  0  0
 18 21  1  0  0  0
 18 45  1  0  0  0
 18 46  1  0  0  0
 19 21  1  0  0  0
 19 23  1  0  0  0
 19 47  1  0  0  0
 19 48  1  0  0  0
 20 49  1  0  0  0
 21 50  1  0  0  0
 23 51  1  0  0  0
M  CHG  1  24  -1
M  END
> <s_m_source_file>
../4cjp_ligand.sdf

> <i_m_source_file_index>
1

> <s_epik_input>
W2NIXTFuW2NIXVtjSF1bY0hdYzFDKD1PKVtOSF1bQ0gyXVtDQEBIXShbQ0gyXVtDSF0oW0NIM10pW0NIM10pW0NIMl1jKFtjSF1bY0hdMiljKEMoPU8pW09IXSljKGMyMylPW0NIMl1PMw==

> <s_epik_cmdline>
J2VwaWtfYXBwJywgJy1pbWFlJywgJ2xpZ2FuZF9wcm8ubWFlJywgJy1vbWFlJywgJ2xpZ2FuZF9wcmVwLm1hZScsICctbXMnLCAnMScsICctcGgnLCAnNycsICctcGh0JywgJzAuNScsICctbnQn

> <r_lp_tautomer_probability>
1

> <r_epik_Ionization_Penalty>
  0.0004

> <r_epik_Ionization_Penalty_Charging>
  0.0002

> <r_epik_Ionization_Penalty_Neutral>
  0.0002

> <r_epik_State_Penalty>
 -0.0000

> <r_epik_Charging_Adjusted_Penalty>
0.000218839857952461

> <i_epik_Tot_Q>
-1

> <i_epik_Tot_abs_Q>
1

> <s_epik_Chemistry_Notes>
This compound contains an acetal/aminal-like group ( X-CH(R)-Y where X, Y are N, S, or O) that may be acid/base labile, releasing an aldehyde.

$$$$
