4cjq_ligand
                    3D
 Schrodinger Suite 2020-3.
 59 62  0  0  1  0            999 V2000
  -12.0120   48.9490    6.7090 C   0  0  0  0  0  0
  -12.7980   50.0690    6.5640 C   0  0  0  0  0  0
  -11.2010   48.4990    5.6910 C   0  0  0  0  0  0
  -11.1620   44.0870   -2.3970 C   0  0  0  0  0  0
  -12.8090   50.7960    5.3940 C   0  0  0  0  0  0
  -12.0680   44.1060   -3.4350 C   0  0  0  0  0  0
  -10.8970   50.0660    2.4510 C   0  0  0  0  0  0
  -11.1970   49.2120    4.5070 C   0  0  0  0  0  0
  -12.7770   44.9850   -0.8650 C   0  0  0  0  0  0
  -11.4930   44.5240   -1.1240 C   0  0  0  0  0  0
  -10.5020   49.0400    3.2820 C   0  0  0  0  0  0
  -11.9930   50.3340    4.3880 C   0  0  0  0  0  0
  -13.3260   44.5700   -3.1650 C   0  0  0  0  0  0
  -13.6610   44.9970   -1.9190 C   0  0  0  0  0  0
  -13.2530   45.4770    0.4530 C   0  0  0  0  0  0
   -9.0420   47.9190    1.6010 C   0  0  0  0  0  0
  -15.4250   44.9190   -3.1310 C   0  0  0  0  0  0
   -7.4240   42.5100   -0.3550 C   0  0  0  0  0  0
   -6.7510   43.1590    1.9520 C   0  0  0  0  0  0
   -9.5510   47.9460    3.0110 C   0  0  0  0  0  0
  -10.4310   44.4300   -0.0710 C   0  0  0  0  0  0
   -8.0480   44.7650    0.6100 C   0  0  0  0  0  0
   -9.2890   46.6010   -0.4640 C   0  0  0  0  0  0
   -7.8250   43.2820    0.8870 C   0  0  0  0  0  0
   -9.1140   45.0930   -0.4250 C   0  0  2  0  0  0
  -11.7960   50.8380    3.1320 N   0  3  0  0  0  0
   -9.8210   47.1380    0.7710 N   0  0  0  0  0  0
  -14.3780   45.0770    0.8640 O   0  5  0  0  0  0
  -12.5090   46.3020    1.0500 O   0  0  0  0  0  0
   -8.0300   48.5200    1.2750 O   0  0  0  0  0  0
  -14.3640   44.6530   -4.0540 O   0  0  0  0  0  0
  -14.9600   45.4050   -1.8640 O   0  0  0  0  0  0
  -12.0317   48.4044    7.6530 H   0  0  0  0  0  0
  -13.4270   50.3886    7.3948 H   0  0  0  0  0  0
  -10.5827   47.6099    5.8149 H   0  0  0  0  0  0
  -10.1538   43.7168   -2.5828 H   0  0  0  0  0  0
  -13.4279   51.6850    5.2727 H   0  0  0  0  0  0
  -11.7928   43.7644   -4.4328 H   0  0  0  0  0  0
  -10.4845   50.1399    1.4340 H   0  0  0  0  0  0
  -16.0965   45.6807   -3.5539 H   0  0  0  0  0  0
  -15.9905   43.9938   -2.9458 H   0  0  0  0  0  0
   -7.2771   41.4509   -0.0969 H   0  0  0  0  0  0
   -6.4869   42.9229   -0.7567 H   0  0  0  0  0  0
   -8.2171   42.5963   -1.1123 H   0  0  0  0  0  0
   -6.5712   42.0960    2.1703 H   0  0  0  0  0  0
   -7.0824   43.6704    2.8677 H   0  0  0  0  0  0
   -5.8209   43.6214    1.5899 H   0  0  0  0  0  0
   -8.6768   48.0483    3.6708 H   0  0  0  0  0  0
  -10.0410   46.9792    3.1988 H   0  0  0  0  0  0
  -10.7866   44.9108    0.8523 H   0  0  0  0  0  0
  -10.2062   43.3721    0.1296 H   0  0  0  0  0  0
   -8.3557   45.2691    1.5380 H   0  0  0  0  0  0
   -7.1138   45.2137    0.2414 H   0  0  0  0  0  0
   -8.3148   47.0786   -0.6451 H   0  0  0  0  0  0
   -9.9846   46.8686   -1.2731 H   0  0  0  0  0  0
   -8.7710   42.8377    1.2300 H   0  0  0  0  0  0
   -8.8031   44.7156   -1.4104 H   0  0  0  0  0  0
  -10.8608   46.9255    1.0603 H   0  0  0  0  0  0
  -12.2413   51.7198    2.6482 H   0  0  0  0  0  0
  1  2  2  0  0  0
  1  3  1  0  0  0
  1 33  1  0  0  0
  2  5  1  0  0  0
  2 34  1  0  0  0
  3  8  2  0  0  0
  3 35  1  0  0  0
  4  6  2  0  0  0
  4 10  1  0  0  0
  4 36  1  0  0  0
  5 12  2  0  0  0
  5 37  1  0  0  0
  6 13  1  0  0  0
  6 38  1  0  0  0
  7 11  2  0  0  0
  7 26  1  0  0  0
  7 39  1  0  0  0
  8 11  1  0  0  0
  8 12  1  0  0  0
  9 10  2  0  0  0
  9 14  1  0  0  0
  9 15  1  0  0  0
 10 21  1  0  0  0
 11 20  1  0  0  0
 12 26  1  0  0  0
 13 14  2  0  0  0
 13 31  1  0  0  0
 14 32  1  0  0  0
 15 28  1  0  0  0
 15 29  2  0  0  0
 16 20  1  0  0  0
 16 27  1  0  0  0
 16 30  2  0  0  0
 17 31  1  0  0  0
 17 32  1  0  0  0
 17 40  1  0  0  0
 17 41  1  0  0  0
 18 24  1  0  0  0
 18 42  1  0  0  0
 18 43  1  0  0  0
 18 44  1  0  0  0
 19 24  1  0  0  0
 19 45  1  0  0  0
 19 46  1  0  0  0
 19 47  1  0  0  0
 20 48  1  0  0  0
 20 49  1  0  0  0
 21 25  1  0  0  0
 21 50  1  0  0  0
 21 51  1  0  0  0
 22 24  1  0  0  0
 22 25  1  0  0  0
 22 52  1  0  0  0
 22 53  1  0  0  0
 23 25  1  0  0  0
 23 27  1  0  0  0
 23 54  1  0  0  0
 23 55  1  0  0  0
 24 56  1  0  0  0
 25 57  1  0  0  0
 26 59  1  0  0  0
 27 58  1  0  0  0
M  CHG  2  26   1  28  -1
M  END
> <s_m_source_file>
../4cjq_ligand.sdf

> <i_m_source_file_index>
1

> <s_epik_input>
W2NIXTFbY0hdW2NIXVtjSF1jKGMxMilbbkhdW2NIXWMyW0NIMl1DKD1PKVtOSF1bQ0gyXVtDQEBIXShbQ0gyXVtDSF0oW0NIM10pW0NIM10pW0NIMl1jKFtjSF1bY0hdMyljKEMoPU8pW09IXSljKGMzNClPW0NIMl1PNA==

> <s_epik_cmdline>
J2VwaWtfYXBwJywgJy1pbWFlJywgJ2xpZ2FuZF9wcm8ubWFlJywgJy1vbWFlJywgJ2xpZ2FuZF9wcmVwLm1hZScsICctbXMnLCAnMScsICctcGgnLCAnNycsICctcGh0JywgJzAuNScsICctbnQn

> <r_lp_tautomer_probability>
1

> <r_epik_Ionization_Penalty>
  0.0002

> <r_epik_Ionization_Penalty_Charging>
  0.0002

> <r_epik_Ionization_Penalty_Neutral>
  0.0000

> <r_epik_State_Penalty>
 -0.0000

> <r_epik_Charging_Adjusted_Penalty>
0.000223861359863417

> <i_epik_Tot_Q>
0

> <i_epik_Tot_abs_Q>
2

> <s_epik_Chemistry_Notes>
This compound contains an acetal/aminal-like group ( X-CH(R)-Y where X, Y are N, S, or O) that may be acid/base labile, releasing an aldehyde.

$$$$
