4cjr_ligand
                    3D
 Schrodinger Suite 2020-3.
 64 67  0  0  1  0            999 V2000
    9.4420   32.7650    3.6590 C   0  0  0  0  0  0
    9.6320   33.6940    2.6610 C   0  0  0  0  0  0
    6.8260   36.7580    0.6860 C   0  0  0  0  0  0
    7.1730   34.7590   -0.5700 C   0  0  0  0  0  0
    9.8840   31.4740    3.4790 C   0  0  0  0  0  0
    6.4700   36.0030    1.7810 C   0  0  0  0  0  0
    6.8170   33.9950    0.5240 C   0  0  0  0  0  0
   10.9900   36.0450   -4.0150 C   0  0  0  0  0  0
   13.1630   35.1090   -2.4920 C   0  0  0  0  0  0
   11.0650   36.2470   -2.6500 C   0  0  0  0  0  0
   10.7030   32.0490    1.2840 C   0  0  0  0  0  0
    7.1770   36.1390   -0.4930 C   0  0  0  0  0  0
   10.2540   33.3480    1.4760 C   0  0  0  0  0  0
   12.1270   35.7930   -1.8900 C   0  0  0  0  0  0
   12.0350   35.3610   -4.5880 C   0  0  0  0  0  0
   13.0840   34.9100   -3.8510 C   0  0  0  0  0  0
    6.4610   34.6270    1.7010 C   0  0  0  0  0  0
   10.5090   31.1270    2.2980 C   0  0  0  0  0  0
    9.9720   36.9730   -2.0010 C   0  0  0  0  0  0
   11.3710   31.6330    0.0160 C   0  0  0  0  0  0
   13.3740   34.3050   -5.8930 C   0  0  0  0  0  0
   12.4950   35.0400    1.7530 C   0  0  0  0  0  0
    5.9770   32.5440    2.5300 C   0  0  0  0  0  0
   10.9180   29.1300    3.3410 C   0  0  0  0  0  0
    7.5550   36.9800   -1.6680 C   0  0  0  0  0  0
   10.4340   34.4190    0.4460 C   0  0  0  0  0  0
   12.1660   36.0380   -0.4190 C   0  0  0  0  0  0
    8.7370   36.4730   -2.3030 N   0  0  0  0  0  0
   11.8720   34.8460    0.4180 N   0  3  1  0  0  0
   11.0800   30.4730   -0.4230 O   0  5  0  0  0  0
   10.2070   37.9250   -1.2700 O   0  0  0  0  0  0
   12.1340   32.4630   -0.5580 O   0  0  0  0  0  0
   12.1540   35.0550   -5.9220 O   0  0  0  0  0  0
   14.0140   34.2520   -4.6110 O   0  0  0  0  0  0
    6.0900   33.9300    2.8460 O   0  0  0  0  0  0
   10.9690   29.8380    2.1100 O   0  0  0  0  0  0
    8.9446   33.0501    4.5860 H   0  0  0  0  0  0
    9.2869   34.7175    2.8074 H   0  0  0  0  0  0
    6.8300   37.8460    0.7524 H   0  0  0  0  0  0
    7.4533   34.2693   -1.5026 H   0  0  0  0  0  0
    9.7415   30.7308    4.2635 H   0  0  0  0  0  0
    6.1945   36.4949    2.7139 H   0  0  0  0  0  0
    6.8167   32.9069    0.4603 H   0  0  0  0  0  0
   10.1483   36.4082   -4.6047 H   0  0  0  0  0  0
   14.0105   34.7409   -1.9138 H   0  0  0  0  0  0
   13.1725   33.2655   -6.1911 H   0  0  0  0  0  0
   14.0966   34.7531   -6.5909 H   0  0  0  0  0  0
   12.2862   34.1647    2.3857 H   0  0  0  0  0  0
   12.0774   35.9416    2.2249 H   0  0  0  0  0  0
   13.5825   35.1572    1.6366 H   0  0  0  0  0  0
    5.6837   31.9853    3.4310 H   0  0  0  0  0  0
    6.9457   32.1707    2.1662 H   0  0  0  0  0  0
    5.2145   32.4070    1.7491 H   0  0  0  0  0  0
   11.2846   28.1040    3.1893 H   0  0  0  0  0  0
    9.8798   29.0987    3.7032 H   0  0  0  0  0  0
   11.5501   29.6393    4.0833 H   0  0  0  0  0  0
    6.7332   36.9788   -2.3992 H   0  0  0  0  0  0
    7.7477   38.0104   -1.3346 H   0  0  0  0  0  0
   10.1469   34.0296   -0.5419 H   0  0  0  0  0  0
    9.7994   35.2812    0.6988 H   0  0  0  0  0  0
   13.1686   36.3880   -0.1321 H   0  0  0  0  0  0
   11.4211   36.8030   -0.1548 H   0  0  0  0  0  0
    8.6587   35.6673   -3.0478 H   0  0  0  0  0  0
   12.3450   33.9753   -0.0596 H   0  0  0  0  0  0
  1  2  2  0  0  0
  1  5  1  0  0  0
  1 37  1  0  0  0
  2 13  1  0  0  0
  2 38  1  0  0  0
  3  6  2  0  0  0
  3 12  1  0  0  0
  3 39  1  0  0  0
  4  7  1  0  0  0
  4 12  2  0  0  0
  4 40  1  0  0  0
  5 18  2  0  0  0
  5 41  1  0  0  0
  6 17  1  0  0  0
  6 42  1  0  0  0
  7 17  2  0  0  0
  7 43  1  0  0  0
  8 10  2  0  0  0
  8 15  1  0  0  0
  8 44  1  0  0  0
  9 14  2  0  0  0
  9 16  1  0  0  0
  9 45  1  0  0  0
 10 14  1  0  0  0
 10 19  1  0  0  0
 11 13  2  0  0  0
 11 18  1  0  0  0
 11 20  1  0  0  0
 12 25  1  0  0  0
 13 26  1  0  0  0
 14 27  1  0  0  0
 15 16  2  0  0  0
 15 33  1  0  0  0
 16 34  1  0  0  0
 17 35  1  0  0  0
 18 36  1  0  0  0
 19 28  1  0  0  0
 19 31  2  0  0  0
 20 30  1  0  0  0
 20 32  2  0  0  0
 21 33  1  0  0  0
 21 34  1  0  0  0
 21 46  1  0  0  0
 21 47  1  0  0  0
 22 29  1  0  0  0
 22 48  1  0  0  0
 22 49  1  0  0  0
 22 50  1  0  0  0
 23 35  1  0  0  0
 23 51  1  0  0  0
 23 52  1  0  0  0
 23 53  1  0  0  0
 24 36  1  0  0  0
 24 54  1  0  0  0
 24 55  1  0  0  0
 24 56  1  0  0  0
 25 28  1  0  0  0
 25 57  1  0  0  0
 25 58  1  0  0  0
 26 29  1  0  0  0
 26 59  1  0  0  0
 26 60  1  0  0  0
 27 29  1  0  0  0
 27 61  1  0  0  0
 27 62  1  0  0  0
 28 63  1  0  0  0
 29 64  1  0  0  0
M  CHG  2  29   1  30  -1
M  END
> <s_m_source_file>
../4cjr_ligand.sdf

> <i_m_source_file_index>
1

> <s_epik_input>
W0NIM11PYzFbY0hdW2NIXVtjSF1jKGMxQyg9TylbT0hdKVtDSDJdW05ASCtdKFtDSDNdKVtDSDJdYyhbY0hdYyhjMjMpT1tDSDJdTzMpYyhbY0hdMilDKD1PKVtOSF1bQ0gyXWM0W2NIXVtjSF1jKFtjSF1bY0hdNClPW0NIM10=

> <s_epik_cmdline>
J2VwaWtfYXBwJywgJy1pbWFlJywgJ2xpZ2FuZF9wcm8ubWFlJywgJy1vbWFlJywgJ2xpZ2FuZF9wcmVwLm1hZScsICctbXMnLCAnMScsICctcGgnLCAnNycsICctcGh0JywgJzAuNScsICctbnQn

> <r_lp_tautomer_probability>
1

> <r_epik_Ionization_Penalty>
  0.1497

> <r_epik_Ionization_Penalty_Charging>
  0.1497

> <r_epik_Ionization_Penalty_Neutral>
  0.0000

> <r_epik_State_Penalty>
  0.1389

> <r_epik_Charging_Adjusted_Penalty>
0.28860736517888

> <i_epik_Tot_Q>
0

> <i_epik_Tot_abs_Q>
2

> <s_epik_Chemistry_Notes>
This compound contains an acetal/aminal-like group ( X-CH(R)-Y where X, Y are N, S, or O) that may be acid/base labile, releasing an aldehyde.

$$$$
