4cki_ligand
                    3D
 Schrodinger Suite 2020-3.
 32 34  0  0  1  0            999 V2000
   64.8490    5.9490    8.4430 O   0  0  0  0  0  0
   65.1890    7.0840    7.6540 C   0  0  0  0  0  0
   64.7350    8.3780    8.2920 C   0  0  1  0  0  0
   63.2960    8.3340    8.4920 O   0  0  0  0  0  0
   65.3500    8.6950    9.6580 C   0  0  1  0  0  0
   65.5410   10.1060    9.7790 O   0  0  0  0  0  0
   64.2610    8.2610   10.6280 C   0  0  1  0  0  0
   64.2960    8.9280   11.8700 O   0  0  0  0  0  0
   62.9980    8.6050    9.8450 C   0  0  2  0  0  0
   61.8320    7.8070   10.2220 N   0  0  0  0  0  0
   61.6790    6.4840    9.9940 C   0  0  0  0  0  0
   60.4840    6.0510   10.4720 N   0  0  0  0  0  0
   59.8620    7.1200   11.0240 C   0  0  0  0  0  0
   58.5720    7.3680   11.7060 C   0  0  0  0  0  0
   57.6840    6.3620   11.9050 N   0  0  0  0  0  0
   58.3110    8.6270   12.1220 N   0  0  0  0  0  0
   59.1860    9.6350   11.9340 C   0  0  0  0  0  0
   60.3710    9.4870   11.3210 N   0  0  0  0  0  0
   60.7570    8.2730   10.8570 C   0  0  0  0  0  0
   65.1188    4.9395    8.0994 H   0  0  0  0  0  0
   66.2808    7.1292    7.5280 H   0  0  0  0  0  0
   64.7091    7.0019    6.6676 H   0  0  0  0  0  0
   65.0199    9.1642    7.5774 H   0  0  0  0  0  0
   66.3445    8.2612    9.8388 H   0  0  0  0  0  0
   66.2915   10.6148    9.1562 H   0  0  0  0  0  0
   64.3604    7.2282   10.9932 H   0  0  0  0  0  0
   65.1480    8.7801   12.5499 H   0  0  0  0  0  0
   62.7044    9.6553    9.9885 H   0  0  0  0  0  0
   62.4134    5.8516    9.4952 H   0  0  0  0  0  0
   57.9182    5.3449   11.5576 H   0  0  0  0  0  0
   56.7297    6.5633   12.4138 H   0  0  0  0  0  0
   58.9163   10.6256   12.3002 H   0  0  0  0  0  0
  1  2  1  0  0  0
  1 20  1  0  0  0
  2  3  1  0  0  0
  2 21  1  0  0  0
  2 22  1  0  0  0
  3  4  1  0  0  0
  3  5  1  0  0  0
  3 23  1  0  0  0
  4  9  1  0  0  0
  5  6  1  0  0  0
  5  7  1  0  0  0
  5 24  1  0  0  0
  6 25  1  0  0  0
  7  8  1  0  0  0
  7  9  1  0  0  0
  7 26  1  0  0  0
  8 27  1  0  0  0
  9 10  1  0  0  0
  9 28  1  0  0  0
 10 11  1  0  0  0
 10 19  1  0  0  0
 11 12  2  0  0  0
 11 29  1  0  0  0
 12 13  1  0  0  0
 13 14  2  0  0  0
 13 19  1  0  0  0
 14 15  1  0  0  0
 14 16  1  0  0  0
 15 30  1  0  0  0
 15 31  1  0  0  0
 16 17  2  0  0  0
 17 18  1  0  0  0
 17 32  1  0  0  0
 18 19  2  0  0  0
M  END
> <s_m_source_file>
../4cki_ligand.sdf

> <i_m_source_file_index>
1

> <s_epik_input>
W09IXVtDSDJdW0NASF0xT1tDQEhdKFtDQEhdKFtPSF0pW0NAQEhdMVtPSF0pbihbY0hdbjIpYyhjMjMpbltjSF1uYzNbTkgyXQ==

> <s_epik_cmdline>
J2VwaWtfYXBwJywgJy1pbWFlJywgJ2xpZ2FuZF9wcm8ubWFlJywgJy1vbWFlJywgJ2xpZ2FuZF9wcmVwLm1hZScsICctbXMnLCAnMScsICctcGgnLCAnNycsICctcGh0JywgJzAuNScsICctbnQn

> <r_lp_tautomer_probability>
1

> <r_epik_Ionization_Penalty>
  0.0004

> <r_epik_Ionization_Penalty_Charging>
  0.0000

> <r_epik_Ionization_Penalty_Neutral>
  0.0004

> <r_epik_State_Penalty>
 -0.0000

> <r_epik_Charging_Adjusted_Penalty>
0

> <i_epik_Tot_Q>
0

> <i_epik_Tot_abs_Q>
0

> <s_epik_Chemistry_Notes>
This compound contains an acetal/aminal-like group ( X-CH(R)-Y where X, Y are N, S, or O) that may be acid/base labile, releasing an aldehyde.

$$$$
