4ckr_ligand
                    3D
 Schrodinger Suite 2020-3.
 72 76  0  0  1  0            999 V2000
   -9.1260   38.1710   11.8860 C   0  0  0  0  0  0
   -7.7910   37.6510   11.5290 C   0  0  0  0  0  0
   -7.1170   36.8740   12.5650 N   0  0  2  0  0  0
   -6.8430   37.7090   13.7390 C   0  0  0  0  0  0
   -6.0560   36.9310   14.7790 C   0  0  0  0  0  0
   -4.8140   36.4090   14.1970 N   0  3  2  0  0  0
   -5.1170   35.5690   13.0430 C   0  0  0  0  0  0
   -5.8590   36.3580   12.0130 C   0  0  0  0  0  0
   -4.0160   35.6850   15.1850 C   0  0  0  0  0  0
   -2.6170   35.4110   14.6950 C   0  0  0  0  0  0
   -1.9220   36.3800   13.9870 C   0  0  0  0  0  0
   -0.6670   36.1220   13.4770 C   0  0  0  0  0  0
   -0.0850   34.8750   13.6480 C   0  0  0  0  0  0
   -0.7650   33.9060   14.3680 C   0  0  0  0  0  0
   -2.0230   34.1650   14.8950 C   0  0  0  0  0  0
   -2.7120   33.0710   15.6340 C   0  0  0  0  0  0
   -3.0810   33.4250   16.7800 F   0  0  0  0  0  0
   -1.9870   32.0250   15.7830 F   0  0  0  0  0  0
   -3.7460   32.6690   15.0510 F   0  0  0  0  0  0
    1.2870   34.5010   13.2100 C   0  0  0  0  0  0
    2.0950   35.5220   12.8510 N   0  0  0  0  0  0
    3.4690   35.4400   12.5340 C   0  0  0  0  0  0
    4.4220   36.1910   13.1980 C   0  0  0  0  0  0
    5.7550   36.0540   12.8720 C   0  0  0  0  0  0
    6.1750   35.1550   11.9050 C   0  0  0  0  0  0
    7.6360   34.9760   11.6120 C   0  0  0  0  0  0
    5.1960   34.4270   11.2270 C   0  0  0  0  0  0
    3.8600   34.5760   11.5270 C   0  0  0  0  0  0
    5.3360   33.3400   10.4310 O   0  0  0  0  0  0
    6.2220   32.3040   10.4380 C   0  0  0  0  0  0
    6.5720   31.7760    9.2140 C   0  0  0  0  0  0
    7.1980   30.5480    9.1460 C   0  0  0  0  0  0
    7.4940   29.8810   10.3150 C   0  0  0  0  0  0
    7.1600   30.4180   11.5520 C   0  0  0  0  0  0
    7.6330   29.4680   12.6060 C   0  0  0  0  0  0
    8.2480   28.3510   11.8130 C   0  0  0  0  0  0
    8.1410   28.6740   10.4980 N   0  0  0  0  0  0
    8.7450   27.3300   12.2440 O   0  0  0  0  0  0
    6.5200   31.6420   11.6190 C   0  0  0  0  0  0
    1.5960   33.3270   13.0940 O   0  0  0  0  0  0
   -9.5380   38.7370   11.0375 H   0  0  0  0  0  0
   -9.0400   38.8324   12.7608 H   0  0  0  0  0  0
   -9.7946   37.3310   12.1257 H   0  0  0  0  0  0
   -7.8770   36.9896   10.6542 H   0  0  0  0  0  0
   -7.1224   38.4909   11.2893 H   0  0  0  0  0  0
   -6.2570   38.5887   13.4345 H   0  0  0  0  0  0
   -7.7933   38.0378   14.1849 H   0  0  0  0  0  0
   -5.8060   37.5935   15.6208 H   0  0  0  0  0  0
   -6.6624   36.0885   15.1431 H   0  0  0  0  0  0
   -4.2044   37.2594   13.8575 H   0  0  0  0  0  0
   -4.1796   35.1956   12.6050 H   0  0  0  0  0  0
   -5.7373   34.7182   13.3615 H   0  0  0  0  0  0
   -6.0756   35.7069   11.1532 H   0  0  0  0  0  0
   -5.2295   37.1990   11.6867 H   0  0  0  0  0  0
   -3.9450   36.2809   16.1069 H   0  0  0  0  0  0
   -4.4954   34.7204   15.4080 H   0  0  0  0  0  0
   -2.3742   37.3595   13.8314 H   0  0  0  0  0  0
   -0.1300   36.9018   12.9370 H   0  0  0  0  0  0
   -0.3070   32.9290   14.5224 H   0  0  0  0  0  0
    1.6930   36.5436   12.7827 H   0  0  0  0  0  0
    4.1199   36.8901   13.9778 H   0  0  0  0  0  0
    6.4949   36.6669   13.3868 H   0  0  0  0  0  0
    8.2241   35.6446   12.2578 H   0  0  0  0  0  0
    7.8310   35.2200   10.5573 H   0  0  0  0  0  0
    7.9237   33.9322   11.8062 H   0  0  0  0  0  0
    3.1106   34.0129   10.9707 H   0  0  0  0  0  0
    6.3544   32.3283    8.2998 H   0  0  0  0  0  0
    7.4548   30.1116    8.1808 H   0  0  0  0  0  0
    8.3628   29.9742   13.2550 H   0  0  0  0  0  0
    6.7762   29.1332   13.2091 H   0  0  0  0  0  0
    8.4969   28.1033    9.6276 H   0  0  0  0  0  0
    6.2549   32.0780   12.5822 H   0  0  0  0  0  0
  1  2  1  0  0  0
  1 41  1  0  0  0
  1 42  1  0  0  0
  1 43  1  0  0  0
  2  3  1  0  0  0
  2 44  1  0  0  0
  2 45  1  0  0  0
  3  4  1  0  0  0
  3  8  1  0  0  0
  4  5  1  0  0  0
  4 46  1  0  0  0
  4 47  1  0  0  0
  5  6  1  0  0  0
  5 48  1  0  0  0
  5 49  1  0  0  0
  6  7  1  0  0  0
  6  9  1  0  0  0
  6 50  1  0  0  0
  7  8  1  0  0  0
  7 51  1  0  0  0
  7 52  1  0  0  0
  8 53  1  0  0  0
  8 54  1  0  0  0
  9 10  1  0  0  0
  9 55  1  0  0  0
  9 56  1  0  0  0
 10 11  2  0  0  0
 10 15  1  0  0  0
 11 12  1  0  0  0
 11 57  1  0  0  0
 12 13  2  0  0  0
 12 58  1  0  0  0
 13 14  1  0  0  0
 13 20  1  0  0  0
 14 15  2  0  0  0
 14 59  1  0  0  0
 15 16  1  0  0  0
 16 17  1  0  0  0
 16 18  1  0  0  0
 16 19  1  0  0  0
 20 21  1  0  0  0
 20 40  2  0  0  0
 21 22  1  0  0  0
 21 60  1  0  0  0
 22 23  2  0  0  0
 22 28  1  0  0  0
 23 24  1  0  0  0
 23 61  1  0  0  0
 24 25  2  0  0  0
 24 62  1  0  0  0
 25 26  1  0  0  0
 25 27  1  0  0  0
 26 63  1  0  0  0
 26 64  1  0  0  0
 26 65  1  0  0  0
 27 28  2  0  0  0
 27 29  1  0  0  0
 28 66  1  0  0  0
 29 30  1  0  0  0
 30 31  2  0  0  0
 30 39  1  0  0  0
 31 32  1  0  0  0
 31 67  1  0  0  0
 32 33  2  0  0  0
 32 68  1  0  0  0
 33 34  1  0  0  0
 33 37  1  0  0  0
 34 35  1  0  0  0
 34 39  2  0  0  0
 35 36  1  0  0  0
 35 69  1  0  0  0
 35 70  1  0  0  0
 36 37  1  0  0  0
 36 38  2  0  0  0
 37 71  1  0  0  0
 39 72  1  0  0  0
M  CHG  1   6   1
M  END
> <s_m_source_file>
../4ckr_ligand.sdf

> <i_m_source_file_index>
1

> <s_epik_input>
W0NIM11bQ0gyXVtOQEBIK10xW0NIMl1bQ0gyXVtOQEgrXShbQ0gyXVtDSDJdMSlbQ0gyXWMyW2NIXVtjSF1jKFtjSF1jMkMoRikoRilGKUMoPU8pW05IXWMzW2NIXVtjSF1jKFtDSDNdKWMoW2NIXTMpT2MoW2NIXVtjSF00KVtjSF1jKGM0NSlbQ0gyXUMoPU8pW05IXTU=

> <s_epik_cmdline>
J2VwaWtfYXBwJywgJy1pbWFlJywgJ2xpZ2FuZF9wcm8ubWFlJywgJy1vbWFlJywgJ2xpZ2FuZF9wcmVwLm1hZScsICctbXMnLCAnMScsICctcGgnLCAnNycsICctcGh0JywgJzAuNScsICctbnQn

> <r_lp_tautomer_probability>
1

> <r_epik_Ionization_Penalty>
  0.0148

> <r_epik_Ionization_Penalty_Charging>
  0.0136

> <r_epik_Ionization_Penalty_Neutral>
  0.0011

> <r_epik_State_Penalty>
 -0.0000

> <r_epik_Charging_Adjusted_Penalty>
0.0136354947705809

> <i_epik_Tot_Q>
1

> <i_epik_Tot_abs_Q>
1

$$$$
