4cl6_ligand
                    3D
 Schrodinger Suite 2020-3.
 31 33  0  0  1  0            999 V2000
  -37.9330   59.9620    0.0660 Cl  0  0  0  0  0  0
  -34.7620   52.4480    9.7560 C   0  0  0  0  0  0
  -35.7930   51.6480    9.9630 C   0  0  0  0  0  0
  -35.1650   53.5430    9.1470 C   0  0  0  0  0  0
  -37.6100   59.9340    2.8780 C   0  0  0  0  0  0
  -37.3710   57.7690    1.8540 C   0  0  0  0  0  0
  -37.3550   59.3680    4.1240 C   0  0  0  0  0  0
  -37.1180   57.1910    3.1130 C   0  0  0  0  0  0
  -36.8550   57.5070    5.5390 C   0  0  0  0  0  0
  -38.5410   54.4140    8.4250 N   0  0  0  0  0  0
  -36.7850   55.2800    7.4840 N   0  3  0  0  0  0
  -38.0350   56.9460    6.2490 N   0  0  3  0  0  0
  -38.9500   55.3490    7.7310 N   0  3  0  0  0  0
  -36.9100   52.3210    9.4230 O   0  0  0  0  0  0
  -37.6130   59.1430    1.7210 C   0  0  0  0  0  0
  -37.1160   58.0010    4.2610 C   0  0  0  0  0  0
  -37.2190   54.3590    8.3480 C   0  0  0  0  0  0
  -36.4700   53.4630    8.9740 C   0  0  0  0  0  0
  -37.9180   55.9200    7.1190 C   0  0  3  0  0  0
  -33.7333   52.2336   10.0458 H   0  0  0  0  0  0
  -35.7830   50.6724   10.4491 H   0  0  0  0  0  0
  -34.5295   54.3732    8.8387 H   0  0  0  0  0  0
  -37.8093   61.0029    2.8014 H   0  0  0  0  0  0
  -37.3788   57.1361    0.9666 H   0  0  0  0  0  0
  -37.3419   60.0048    5.0085 H   0  0  0  0  0  0
  -36.9249   56.1215    3.1964 H   0  0  0  0  0  0
  -36.4401   58.3430    6.1212 H   0  0  0  0  0  0
  -36.0901   56.7249    5.4243 H   0  0  0  0  0  0
  -39.0354   57.3673    6.0711 H   0  0  0  0  0  0
  -40.0245   55.5823    7.7006 H   0  0  0  0  0  0
  -35.7130   55.3504    7.2475 H   0  0  0  0  0  0
  1 15  1  0  0  0
  2  3  2  0  0  0
  2  4  1  0  0  0
  2 20  1  0  0  0
  3 14  1  0  0  0
  3 21  1  0  0  0
  4 18  2  0  0  0
  4 22  1  0  0  0
  5  7  2  0  0  0
  5 15  1  0  0  0
  5 23  1  0  0  0
  6  8  1  0  0  0
  6 15  2  0  0  0
  6 24  1  0  0  0
  7 16  1  0  0  0
  7 25  1  0  0  0
  8 16  2  0  0  0
  8 26  1  0  0  0
  9 12  1  0  0  0
  9 16  1  0  0  0
  9 27  1  0  0  0
  9 28  1  0  0  0
 10 13  2  0  0  0
 10 17  1  0  0  0
 11 17  2  0  0  0
 11 19  1  0  0  0
 11 31  1  0  0  0
 12 19  1  0  0  0
 12 29  1  0  0  0
 13 19  1  0  0  0
 13 30  1  0  0  0
 14 18  1  0  0  0
 17 18  1  0  0  0
M  CHG  2  11   1  13   1
M  END
> <s_m_source_file>
../4cl6_ligand.sdf

> <i_m_source_file_index>
1

> <s_epik_input>
Q2xjMVtjSF1bY0hdYyhbY0hdW2NIXTEpW0NIMl1bTkhdW0NIXShOPU4yKU49QzJjM1tjSF1bY0hdW2NIXW8z

> <s_epik_cmdline>
J2VwaWtfYXBwJywgJy1pbWFlJywgJ2xpZ2FuZF9wcm8ubWFlJywgJy1vbWFlJywgJ2xpZ2FuZF9wcmVwLm1hZScsICctbXMnLCAnMScsICctcGgnLCAnNycsICctcGh0JywgJzAuNScsICctbnQn

> <r_epik_Ionization_Penalty>
  0.0026

> <r_epik_Ionization_Penalty_Charging>
  0.0007

> <r_epik_Ionization_Penalty_Neutral>
  0.0018

> <r_epik_State_Penalty>
  0.3034

> <r_epik_Charging_Adjusted_Penalty>
0.304175262204349

> <i_epik_Tot_Q>
2

> <i_epik_Tot_abs_Q>
2

> <s_epik_Chemistry_Notes>
This compound has an imine and may undergo hydrolysis.

$$$$
