4cl9_ligand
                    3D
 Schrodinger Suite 2020-3.
 80 82  0  0  1  0            999 V2000
   31.9210   47.2450   -2.8230 C   0  0  0  0  0  0
   31.0140   47.8930   -3.8220 C   0  0  0  0  0  0
   30.5080   46.9330   -4.8390 C   0  0  0  0  0  0
   29.8390   48.4130   -3.0550 O   0  0  0  0  0  0
   29.3800   49.6360   -3.3940 C   0  0  0  0  0  0
   29.9030   50.3460   -4.2220 O   0  0  0  0  0  0
   28.4560   50.0640   -2.5130 N   0  0  0  0  0  0
   27.7040   49.1620   -1.6380 C   0  0  2  0  0  0
   26.2590   49.6430   -1.5510 C   0  0  0  0  0  0
   25.4170   48.8630   -0.5370 C   0  0  2  0  0  0
   24.4320   49.7370    0.2200 C   0  0  0  0  0  0
   26.2310   48.0410    0.3850 N   0  0  0  0  0  0
   25.6980   46.8710    0.8660 C   0  0  0  0  0  0
   26.5330   46.0280    1.7800 C   0  0  0  0  0  0
   24.5710   46.5250    0.5400 O   0  0  0  0  0  0
   27.5100   48.5610    0.7440 C   0  0  0  0  0  0
   27.9560   48.5290    2.0550 C   0  0  0  0  0  0
   29.1940   49.0390    2.3720 C   0  0  0  0  0  0
   30.0240   49.5990    1.4060 C   0  0  0  0  0  0
   29.5590   49.6470    0.0870 C   0  0  0  0  0  0
   28.3170   49.1050   -0.2570 C   0  0  0  0  0  0
   31.3470   50.1520    1.7940 C   0  0  0  0  0  0
   31.8960   51.2610    1.1530 C   0  0  0  0  0  0
   33.1020   51.8040    1.5640 C   0  0  0  0  0  0
   33.7710   51.2720    2.6620 C   0  0  0  0  0  0
   35.0390   51.7500    3.0710 N   0  0  0  0  0  0
   35.6150   51.6790    4.2900 C   0  0  0  0  0  0
   35.0660   51.2200    5.2870 O   0  0  0  0  0  0
   37.0370   52.1780    4.3440 C   0  0  0  0  0  0
   38.0220   51.0090    4.2860 C   0  0  0  0  0  0
   37.9300   50.1570    3.0190 C   0  0  0  0  0  0
   38.5740   48.7640    3.1170 C   0  0  0  0  0  0
   40.0660   48.7800    3.4000 C   0  0  0  0  0  0
   40.7080   47.3910    3.3160 C   0  0  0  0  0  0
   40.4100   46.5250    4.5180 C   0  0  0  0  0  0
   40.5220   46.9510    5.6650 O   0  0  0  0  0  0
   40.0180   45.2970    4.2370 N   0  0  0  0  0  0
   39.7190   44.4240    5.2790 O   0  0  0  0  0  0
   33.2400   50.1600    3.3010 C   0  0  0  0  0  0
   32.0460   49.6190    2.8760 C   0  0  0  0  0  0
   32.8063   46.8435   -3.3378 H   0  0  0  0  0  0
   31.3865   46.4258   -2.3197 H   0  0  0  0  0  0
   32.2367   47.9895   -2.0773 H   0  0  0  0  0  0
   31.5701   48.6747   -4.3602 H   0  0  0  0  0  0
   31.3532   46.5340   -5.4191 H   0  0  0  0  0  0
   29.8103   47.4489   -5.5150 H   0  0  0  0  0  0
   29.9863   46.1061   -4.3350 H   0  0  0  0  0  0
   28.2773   51.1485   -2.4692 H   0  0  0  0  0  0
   27.7645   48.1594   -2.0864 H   0  0  0  0  0  0
   26.2422   50.7007   -1.2495 H   0  0  0  0  0  0
   25.7765   49.5341   -2.5335 H   0  0  0  0  0  0
   24.8307   48.1360   -1.1181 H   0  0  0  0  0  0
   23.8455   50.3325   -0.4951 H   0  0  0  0  0  0
   24.9820   50.4104    0.8938 H   0  0  0  0  0  0
   23.7552   49.1010    0.8094 H   0  0  0  0  0  0
   27.5045   46.5170    1.9443 H   0  0  0  0  0  0
   26.6924   45.0398    1.3238 H   0  0  0  0  0  0
   26.0153   45.9080    2.7431 H   0  0  0  0  0  0
   27.3268   48.1002    2.8349 H   0  0  0  0  0  0
   29.5334   49.0033    3.4072 H   0  0  0  0  0  0
   30.1737   50.1134   -0.6829 H   0  0  0  0  0  0
   31.3664   51.7094    0.3125 H   0  0  0  0  0  0
   33.5283   52.6506    1.0258 H   0  0  0  0  0  0
   35.6947   52.2577    2.3483 H   0  0  0  0  0  0
   37.2246   52.8440    3.4889 H   0  0  0  0  0  0
   37.1962   52.7312    5.2814 H   0  0  0  0  0  0
   39.0512   51.3940    4.3358 H   0  0  0  0  0  0
   37.8412   50.3346    5.1360 H   0  0  0  0  0  0
   36.8728   49.9952    2.7619 H   0  0  0  0  0  0
   38.4335   50.6765    2.1904 H   0  0  0  0  0  0
   38.0995   48.1972    3.9316 H   0  0  0  0  0  0
   38.4339   48.2276    2.1669 H   0  0  0  0  0  0
   40.5713   49.4258    2.6668 H   0  0  0  0  0  0
   40.2428   49.1683    4.4139 H   0  0  0  0  0  0
   40.3308   46.8659    2.4260 H   0  0  0  0  0  0
   41.8006   47.4958    3.2442 H   0  0  0  0  0  0
   39.9263   44.9602    3.1938 H   0  0  0  0  0  0
   39.3910   43.3973    5.0593 H   0  0  0  0  0  0
   33.7696   49.7129    4.1423 H   0  0  0  0  0  0
   31.6383   48.7535    3.3984 H   0  0  0  0  0  0
  1  2  1  0  0  0
  1 41  1  0  0  0
  1 42  1  0  0  0
  1 43  1  0  0  0
  2  3  1  0  0  0
  2  4  1  0  0  0
  2 44  1  0  0  0
  3 45  1  0  0  0
  3 46  1  0  0  0
  3 47  1  0  0  0
  4  5  1  0  0  0
  5  6  2  0  0  0
  5  7  1  0  0  0
  7  8  1  0  0  0
  7 48  1  0  0  0
  8  9  1  0  0  0
  8 21  1  0  0  0
  8 49  1  0  0  0
  9 10  1  0  0  0
  9 50  1  0  0  0
  9 51  1  0  0  0
 10 11  1  0  0  0
 10 12  1  0  0  0
 10 52  1  0  0  0
 11 53  1  0  0  0
 11 54  1  0  0  0
 11 55  1  0  0  0
 12 13  1  0  0  0
 12 16  1  0  0  0
 13 14  1  0  0  0
 13 15  2  0  0  0
 14 56  1  0  0  0
 14 57  1  0  0  0
 14 58  1  0  0  0
 16 17  2  0  0  0
 16 21  1  0  0  0
 17 18  1  0  0  0
 17 59  1  0  0  0
 18 19  2  0  0  0
 18 60  1  0  0  0
 19 20  1  0  0  0
 19 22  1  0  0  0
 20 21  2  0  0  0
 20 61  1  0  0  0
 22 23  2  0  0  0
 22 40  1  0  0  0
 23 24  1  0  0  0
 23 62  1  0  0  0
 24 25  2  0  0  0
 24 63  1  0  0  0
 25 26  1  0  0  0
 25 39  1  0  0  0
 26 27  1  0  0  0
 26 64  1  0  0  0
 27 28  2  0  0  0
 27 29  1  0  0  0
 29 30  1  0  0  0
 29 65  1  0  0  0
 29 66  1  0  0  0
 30 31  1  0  0  0
 30 67  1  0  0  0
 30 68  1  0  0  0
 31 32  1  0  0  0
 31 69  1  0  0  0
 31 70  1  0  0  0
 32 33  1  0  0  0
 32 71  1  0  0  0
 32 72  1  0  0  0
 33 34  1  0  0  0
 33 73  1  0  0  0
 33 74  1  0  0  0
 34 35  1  0  0  0
 34 75  1  0  0  0
 34 76  1  0  0  0
 35 36  2  0  0  0
 35 37  1  0  0  0
 37 38  1  0  0  0
 37 77  1  0  0  0
 38 78  1  0  0  0
 39 40  2  0  0  0
 39 79  1  0  0  0
 40 80  1  0  0  0
M  END
> <s_m_source_file>
../4cl9_ligand.sdf

> <i_m_source_file_index>
1

> <s_epik_input>
W0NIM11bQ0hdKFtDSDNdKU9DKD1PKVtOSF1bQ0BIXShbQ0gyXVtDQEhdKFtDSDNdKU4xQyg9TylbQ0gzXSljKGMxMilbY0hdYyhbY0hdW2NIXTIpLWMzW2NIXVtjSF1jKFtjSF1bY0hdMylbTkhdQyg9TylbQ0gyXVtDSDJdW0NIMl1bQ0gyXVtDSDJdW0NIMl1DKD1PKVtOSF1bT0hd

> <s_epik_cmdline>
J2VwaWtfYXBwJywgJy1pbWFlJywgJ2xpZ2FuZF9wcm8ubWFlJywgJy1vbWFlJywgJ2xpZ2FuZF9wcmVwLm1hZScsICctbXMnLCAnMScsICctcGgnLCAnNycsICctcGh0JywgJzAuNScsICctbnQn

> <r_lp_tautomer_probability>
1

> <r_epik_Ionization_Penalty>
  0.0036

> <r_epik_Ionization_Penalty_Charging>
  0.0000

> <r_epik_Ionization_Penalty_Neutral>
  0.0036

> <r_epik_State_Penalty>
 -0.0000

> <r_epik_Charging_Adjusted_Penalty>
0

> <i_epik_Tot_Q>
0

> <i_epik_Tot_abs_Q>
0

> <s_epik_Chemistry_Notes>
This compound has an ester and may undergo hydrolysis at high or low pH. This compound has a N-S or N-O group and may undergo hydrolysis at high or low pH.

$$$$
