4clb_ligand
                    3D
 Schrodinger Suite 2020-3.
 62 64  0  0  1  0            999 V2000
  -19.7180    1.9460   -5.4650 C   0  0  0  0  0  0
  -19.2090    3.2670   -5.8500 N   0  3  0  0  0  0
  -17.8850    3.5300   -5.2700 C   0  0  0  0  0  0
  -17.4000    4.9310   -5.5600 C   0  0  0  0  0  0
  -16.5650    5.1810   -6.6360 C   0  0  0  0  0  0
  -16.0980    6.4570   -6.8970 C   0  0  0  0  0  0
  -16.4380    7.5360   -6.0810 C   0  0  0  0  0  0
  -17.2700    7.2720   -4.9930 C   0  0  0  0  0  0
  -17.7380    5.9930   -4.7370 C   0  0  0  0  0  0
  -15.9290    8.9120   -6.3610 C   0  0  0  0  0  0
  -15.4910    9.2720   -7.6330 C   0  0  0  0  0  0
  -15.0170   10.5420   -7.9020 C   0  0  0  0  0  0
  -14.9490   11.4900   -6.8880 C   0  0  0  0  0  0
  -14.4560   12.8120   -7.1080 N   0  0  0  0  0  0
  -15.2310   13.9180   -6.4930 C   0  0  1  0  0  0
  -16.2920   14.4480   -7.4420 C   0  0  0  0  0  0
  -15.7870   13.5470   -5.1110 C   0  0  0  0  0  0
  -15.3150   12.2120   -4.5380 C   0  0  1  0  0  0
  -16.1310   11.8300   -3.3880 N   0  0  0  0  0  0
  -15.6160   11.2940   -2.2680 C   0  0  0  0  0  0
  -16.2550   11.0560   -1.2660 O   0  0  0  0  0  0
  -14.3470   10.8750   -2.4770 O   0  0  0  0  0  0
  -13.8010    9.9110   -1.5120 C   0  0  0  0  0  0
  -12.3150   10.0860   -1.4990 C   0  0  0  0  0  0
  -14.2320    8.5580   -1.9610 C   0  0  0  0  0  0
  -15.3540   11.1580   -5.5920 C   0  0  0  0  0  0
  -15.8540    9.8750   -5.3460 C   0  0  0  0  0  0
  -13.3210   13.1220   -7.8180 C   0  0  0  0  0  0
  -12.5340   12.0000   -8.4270 C   0  0  0  0  0  0
  -12.9750   14.2850   -7.9540 O   0  0  0  0  0  0
  -20.7079    1.7882   -5.9180 H   0  0  0  0  0  0
  -19.8030    1.8908   -4.3697 H   0  0  0  0  0  0
  -19.0248    1.1686   -5.8187 H   0  0  0  0  0  0
  -19.1240    3.3222   -6.9453 H   0  0  0  0  0  0
  -19.9022    4.0444   -5.4964 H   0  0  0  0  0  0
  -17.9316    3.4049   -4.1781 H   0  0  0  0  0  0
  -17.1540    2.8229   -5.6892 H   0  0  0  0  0  0
  -16.2707    4.3588   -7.2883 H   0  0  0  0  0  0
  -15.4508    6.6225   -7.7583 H   0  0  0  0  0  0
  -17.5579    8.0884   -4.3306 H   0  0  0  0  0  0
  -18.3820    5.8199   -3.8748 H   0  0  0  0  0  0
  -15.5228    8.5348   -8.4353 H   0  0  0  0  0  0
  -14.6960   10.8006   -8.9110 H   0  0  0  0  0  0
  -14.5075   14.7317   -6.3366 H   0  0  0  0  0  0
  -15.8291   14.6936   -8.4092 H   0  0  0  0  0  0
  -16.7482   15.3526   -7.0136 H   0  0  0  0  0  0
  -17.0670   13.6816   -7.5904 H   0  0  0  0  0  0
  -15.4941   14.3148   -4.3798 H   0  0  0  0  0  0
  -16.8843   13.4879   -5.1610 H   0  0  0  0  0  0
  -14.2825   12.2906   -4.1669 H   0  0  0  0  0  0
  -17.2208   11.9772   -3.4137 H   0  0  0  0  0  0
  -14.1728   10.0673   -0.4886 H   0  0  0  0  0  0
  -12.0685   11.1027   -1.1592 H   0  0  0  0  0  0
  -11.9188    9.9324   -2.5136 H   0  0  0  0  0  0
  -11.8653    9.3515   -0.8147 H   0  0  0  0  0  0
  -15.3303    8.4995   -1.9464 H   0  0  0  0  0  0
  -13.8152    7.7972   -1.2846 H   0  0  0  0  0  0
  -13.8688    8.3781   -2.9836 H   0  0  0  0  0  0
  -16.1929    9.6186   -4.3422 H   0  0  0  0  0  0
  -13.0155   11.0410   -8.1853 H   0  0  0  0  0  0
  -11.5108   12.0086   -8.0234 H   0  0  0  0  0  0
  -12.4985   12.1275   -9.5190 H   0  0  0  0  0  0
  1  2  1  0  0  0
  1 31  1  0  0  0
  1 32  1  0  0  0
  1 33  1  0  0  0
  2  3  1  0  0  0
  2 34  1  0  0  0
  2 35  1  0  0  0
  3  4  1  0  0  0
  3 36  1  0  0  0
  3 37  1  0  0  0
  4  5  2  0  0  0
  4  9  1  0  0  0
  5  6  1  0  0  0
  5 38  1  0  0  0
  6  7  2  0  0  0
  6 39  1  0  0  0
  7  8  1  0  0  0
  7 10  1  0  0  0
  8  9  2  0  0  0
  8 40  1  0  0  0
  9 41  1  0  0  0
 10 11  2  0  0  0
 10 27  1  0  0  0
 11 12  1  0  0  0
 11 42  1  0  0  0
 12 13  2  0  0  0
 12 43  1  0  0  0
 13 14  1  0  0  0
 13 26  1  0  0  0
 14 15  1  0  0  0
 14 28  1  0  0  0
 15 16  1  0  0  0
 15 17  1  0  0  0
 15 44  1  0  0  0
 16 45  1  0  0  0
 16 46  1  0  0  0
 16 47  1  0  0  0
 17 18  1  0  0  0
 17 48  1  0  0  0
 17 49  1  0  0  0
 18 19  1  0  0  0
 18 26  1  0  0  0
 18 50  1  0  0  0
 19 20  1  0  0  0
 19 51  1  0  0  0
 20 21  2  0  0  0
 20 22  1  0  0  0
 22 23  1  0  0  0
 23 24  1  0  0  0
 23 25  1  0  0  0
 23 52  1  0  0  0
 24 53  1  0  0  0
 24 54  1  0  0  0
 24 55  1  0  0  0
 25 56  1  0  0  0
 25 57  1  0  0  0
 25 58  1  0  0  0
 26 27  2  0  0  0
 27 59  1  0  0  0
 28 29  1  0  0  0
 28 30  2  0  0  0
 29 60  1  0  0  0
 29 61  1  0  0  0
 29 62  1  0  0  0
M  CHG  1   2   1
M  END
> <s_m_source_file>
../4clb_ligand.sdf

> <i_m_source_file_index>
1

> <s_epik_input>
W0NIM11bTkgyK11bQ0gyXWMxW2NIXVtjSF1jKFtjSF1bY0hdMSktYyhbY0hdW2NIXTIpW2NIXWMoYzIzKVtDQEBIXShbQ0gyXVtDQEhdKFtDSDNdKU4zQyg9TylbQ0gzXSlbTkhdQyg9TylPW0NIXShbQ0gzXSlbQ0gzXQ==

> <s_epik_cmdline>
J2VwaWtfYXBwJywgJy1pbWFlJywgJ2xpZ2FuZF9wcm8ubWFlJywgJy1vbWFlJywgJ2xpZ2FuZF9wcmVwLm1hZScsICctbXMnLCAnMScsICctcGgnLCAnNycsICctcGh0JywgJzAuNScsICctbnQn

> <r_epik_Ionization_Penalty>
  0.0182

> <r_epik_Ionization_Penalty_Charging>
  0.0182

> <r_epik_Ionization_Penalty_Neutral>
  0.0000

> <r_epik_State_Penalty>
  0.0145

> <r_epik_Charging_Adjusted_Penalty>
0.0327328006234163

> <i_epik_Tot_Q>
1

> <i_epik_Tot_abs_Q>
1

> <s_epik_Chemistry_Notes>
This compound has an ester and may undergo hydrolysis at high or low pH.

$$$$
