4cli_ligand
                    3D
 Schrodinger Suite 2020-3.
 49 52  0  0  1  0            999 V2000
   26.3890   48.2230    7.4390 C   0  0  0  0  0  0
   34.4000   46.8120    8.7880 C   0  0  0  0  0  0
   34.8690   46.6270   10.1040 C   0  0  0  0  0  0
   29.9120   45.4530    8.5200 C   0  0  0  0  0  0
   33.6470   44.5010   10.2610 C   0  0  0  0  0  0
   27.8220   45.9680    9.4930 C   0  0  0  0  0  0
   27.8080   48.4060    7.3250 C   0  0  0  0  0  0
   28.8480   46.3680    8.6050 C   0  0  0  0  0  0
   28.8920   47.6360    7.8070 C   0  0  0  0  0  0
   33.5380   45.8350    8.1850 C   0  0  0  0  0  0
   33.1400   44.6400    8.9220 C   0  0  0  0  0  0
   29.9930   44.2340    9.2420 C   0  0  0  0  0  0
   34.4920   45.4820   10.8230 C   0  0  0  0  0  0
   30.0600   48.3890    7.3350 C   0  0  0  0  0  0
   28.9160   43.9330   10.0990 C   0  0  0  0  0  0
   33.0940   46.1240    6.7820 C   0  0  0  0  0  0
   31.5520   48.1510    7.4820 C   0  0  0  0  0  0
   32.2090   43.5390    8.3520 C   0  0  1  0  0  0
   32.9180   42.1720    8.2670 C   0  0  0  0  0  0
   27.6890   50.5690    5.9860 C   0  0  0  0  0  0
   31.8320   47.3710    5.0630 C   0  0  0  0  0  0
   25.2410   48.0740    7.4870 N   0  0  0  0  0  0
   27.8390   44.7890   10.2230 N   0  0  0  0  0  0
   29.7090   49.4810    6.6570 N   0  0  0  0  0  0
   28.3760   49.4780    6.6600 N   0  0  0  0  0  0
   32.1780   47.1950    6.4830 N   0  0  0  0  0  0
   28.9340   42.7370   10.8520 N   0  0  0  0  0  0
   33.5850   45.3670    5.9340 O   0  0  0  0  0  0
   31.0350   43.3250    9.1860 O   0  0  0  0  0  0
   34.9420   45.3170   12.0630 F   0  0  0  0  0  0
   34.6925   47.6992    8.2264 H   0  0  0  0  0  0
   35.5219   47.3702   10.5617 H   0  0  0  0  0  0
   30.7359   45.6981    7.8498 H   0  0  0  0  0  0
   33.3747   43.6253   10.8502 H   0  0  0  0  0  0
   26.9632   46.6287    9.6110 H   0  0  0  0  0  0
   32.0884   49.1045    7.3677 H   0  0  0  0  0  0
   31.7600   47.7303    8.4769 H   0  0  0  0  0  0
   31.8624   43.8960    7.3710 H   0  0  0  0  0  0
   33.8209   42.2653    7.6456 H   0  0  0  0  0  0
   32.2379   41.4336    7.8172 H   0  0  0  0  0  0
   33.2009   41.8422    9.2776 H   0  0  0  0  0  0
   26.6017   50.4278    6.0743 H   0  0  0  0  0  0
   27.9723   50.5797    4.9232 H   0  0  0  0  0  0
   27.9736   51.5244    6.4510 H   0  0  0  0  0  0
   32.3555   46.6133    4.4614 H   0  0  0  0  0  0
   32.1362   48.3754    4.7333 H   0  0  0  0  0  0
   30.7458   47.2558    4.9333 H   0  0  0  0  0  0
   29.7844   42.0448   10.7645 H   0  0  0  0  0  0
   28.0976   42.4985   11.5255 H   0  0  0  0  0  0
  1  7  1  0  0  0
  1 22  3  0  0  0
  2  3  2  0  0  0
  2 10  1  0  0  0
  2 31  1  0  0  0
  3 13  1  0  0  0
  3 32  1  0  0  0
  4  8  2  0  0  0
  4 12  1  0  0  0
  4 33  1  0  0  0
  5 11  1  0  0  0
  5 13  2  0  0  0
  5 34  1  0  0  0
  6  8  1  0  0  0
  6 23  2  0  0  0
  6 35  1  0  0  0
  7  9  2  0  0  0
  7 25  1  0  0  0
  8  9  1  0  0  0
  9 14  1  0  0  0
 10 11  2  0  0  0
 10 16  1  0  0  0
 11 18  1  0  0  0
 12 15  2  0  0  0
 12 29  1  0  0  0
 13 30  1  0  0  0
 14 17  1  0  0  0
 14 24  2  0  0  0
 15 23  1  0  0  0
 15 27  1  0  0  0
 16 26  1  0  0  0
 16 28  2  0  0  0
 17 26  1  0  0  0
 17 36  1  0  0  0
 17 37  1  0  0  0
 18 19  1  0  0  0
 18 29  1  0  0  0
 18 38  1  0  0  0
 19 39  1  0  0  0
 19 40  1  0  0  0
 19 41  1  0  0  0
 20 25  1  0  0  0
 20 42  1  0  0  0
 20 43  1  0  0  0
 20 44  1  0  0  0
 21 26  1  0  0  0
 21 45  1  0  0  0
 21 46  1  0  0  0
 21 47  1  0  0  0
 24 25  1  0  0  0
 27 48  1  0  0  0
 27 49  1  0  0  0
M  END
> <s_m_source_file>
../4cli_ligand.sdf

> <i_m_source_file_index>
1

> <s_epik_input>
TiNDYzFuKFtDSDNdKW5jKGMxYzIzKVtDSDJdTihbQ0gzXSlDKD1PKWM0YyhbY0hdYyhGKVtjSF1bY0hdNClbQ0BASF0oW0NIM10pT2MoW2NIXTIpYyhbTkgyXSluW2NIXTM=

> <s_epik_cmdline>
J2VwaWtfYXBwJywgJy1pbWFlJywgJ2xpZ2FuZF9wcm8ubWFlJywgJy1vbWFlJywgJ2xpZ2FuZF9wcmVwLm1hZScsICctbXMnLCAnMScsICctcGgnLCAnNycsICctcGh0JywgJzAuNScsICctbnQn

> <r_lp_tautomer_probability>
0.999999404453161

> <r_epik_Ionization_Penalty>
  0.3417

> <r_epik_Ionization_Penalty_Charging>
  0.0000

> <r_epik_Ionization_Penalty_Neutral>
  0.3417

> <r_epik_State_Penalty>
  0.3362

> <r_epik_Charging_Adjusted_Penalty>
0.336176661284146

> <i_epik_Tot_Q>
0

> <i_epik_Tot_abs_Q>
0

$$$$
