4clj_ligand
                    3D
 Schrodinger Suite 2020-3.
 49 52  0  0  1  0            999 V2000
  -26.4020  -20.0140   59.8440 C   0  0  0  0  0  0
  -34.4190  -18.7630   61.1520 C   0  0  0  0  0  0
  -34.9010  -18.5840   62.4650 C   0  0  0  0  0  0
  -29.9730  -17.3450   60.9060 C   0  0  0  0  0  0
  -33.7080  -16.4310   62.6190 C   0  0  0  0  0  0
  -27.8860  -17.8580   61.8940 C   0  0  0  0  0  0
  -27.8150  -20.2460   59.7130 C   0  0  0  0  0  0
  -28.9010  -18.2500   61.0000 C   0  0  0  0  0  0
  -28.9220  -19.5080   60.1950 C   0  0  0  0  0  0
  -33.5690  -17.7760   60.5510 C   0  0  0  0  0  0
  -33.1940  -16.5750   61.2820 C   0  0  0  0  0  0
  -30.0660  -16.1370   61.6330 C   0  0  0  0  0  0
  -34.5440  -17.4250   63.1840 C   0  0  0  0  0  0
  -30.0690  -20.2820   59.7170 C   0  0  0  0  0  0
  -28.9910  -15.8410   62.5050 C   0  0  0  0  0  0
  -33.1100  -18.0620   59.1520 C   0  0  0  0  0  0
  -31.5670  -20.0660   59.8730 C   0  0  0  0  0  0
  -32.2750  -15.4690   60.7050 C   0  0  1  0  0  0
  -33.0120  -14.1260   60.5870 C   0  0  0  0  0  0
  -27.6310  -22.3840   58.3540 C   0  0  0  0  0  0
  -31.8200  -19.3160   57.4560 C   0  0  0  0  0  0
  -25.2690  -19.8160   59.9700 N   0  0  0  0  0  0
  -27.9150  -16.6900   62.6300 N   0  0  0  0  0  0
  -29.6860  -21.3610   59.0280 N   0  0  0  0  0  0
  -28.3490  -21.3210   59.0370 N   0  0  0  0  0  0
  -32.1870  -19.1260   58.8710 N   0  0  0  0  0  0
  -29.0060  -14.6680   63.2680 N   0  0  0  0  0  0
  -33.5930  -17.3130   58.2950 O   0  0  0  0  0  0
  -31.1180  -15.2320   61.5680 O   0  0  0  0  0  0
  -35.0020  -17.2600   64.4230 F   0  0  0  0  0  0
  -34.6937  -19.6561   60.5907 H   0  0  0  0  0  0
  -35.5449  -19.3362   62.9207 H   0  0  0  0  0  0
  -30.7880  -17.5922   60.2258 H   0  0  0  0  0  0
  -33.4510  -15.5472   63.2030 H   0  0  0  0  0  0
  -27.0254  -18.5164   62.0121 H   0  0  0  0  0  0
  -32.0894  -21.0280   59.7651 H   0  0  0  0  0  0
  -31.7752  -19.6453   60.8678 H   0  0  0  0  0  0
  -31.9067  -15.8188   59.7293 H   0  0  0  0  0  0
  -33.8963  -14.2483   59.9444 H   0  0  0  0  0  0
  -32.3390  -13.3760   60.1458 H   0  0  0  0  0  0
  -33.3282  -13.7923   61.5863 H   0  0  0  0  0  0
  -26.5482  -22.2145   58.4483 H   0  0  0  0  0  0
  -27.9100  -22.3900   57.2900 H   0  0  0  0  0  0
  -27.8914  -23.3521   58.8068 H   0  0  0  0  0  0
  -32.3399  -18.5685   56.8388 H   0  0  0  0  0  0
  -32.1134  -20.3259   57.1335 H   0  0  0  0  0  0
  -30.7328  -19.1954   57.3398 H   0  0  0  0  0  0
  -29.8532  -13.9709   63.1884 H   0  0  0  0  0  0
  -28.1706  -14.4430   63.9473 H   0  0  0  0  0  0
  1  7  1  0  0  0
  1 22  3  0  0  0
  2  3  2  0  0  0
  2 10  1  0  0  0
  2 31  1  0  0  0
  3 13  1  0  0  0
  3 32  1  0  0  0
  4  8  2  0  0  0
  4 12  1  0  0  0
  4 33  1  0  0  0
  5 11  1  0  0  0
  5 13  2  0  0  0
  5 34  1  0  0  0
  6  8  1  0  0  0
  6 23  2  0  0  0
  6 35  1  0  0  0
  7  9  2  0  0  0
  7 25  1  0  0  0
  8  9  1  0  0  0
  9 14  1  0  0  0
 10 11  2  0  0  0
 10 16  1  0  0  0
 11 18  1  0  0  0
 12 15  2  0  0  0
 12 29  1  0  0  0
 13 30  1  0  0  0
 14 17  1  0  0  0
 14 24  2  0  0  0
 15 23  1  0  0  0
 15 27  1  0  0  0
 16 26  1  0  0  0
 16 28  2  0  0  0
 17 26  1  0  0  0
 17 36  1  0  0  0
 17 37  1  0  0  0
 18 19  1  0  0  0
 18 29  1  0  0  0
 18 38  1  0  0  0
 19 39  1  0  0  0
 19 40  1  0  0  0
 19 41  1  0  0  0
 20 25  1  0  0  0
 20 42  1  0  0  0
 20 43  1  0  0  0
 20 44  1  0  0  0
 21 26  1  0  0  0
 21 45  1  0  0  0
 21 46  1  0  0  0
 21 47  1  0  0  0
 24 25  1  0  0  0
 27 48  1  0  0  0
 27 49  1  0  0  0
M  END
> <s_m_source_file>
../4clj_ligand.sdf

> <i_m_source_file_index>
1

> <s_epik_input>
TiNDYzFuKFtDSDNdKW5jKGMxYzIzKVtDSDJdTihbQ0gzXSlDKD1PKWM0YyhbY0hdYyhGKVtjSF1bY0hdNClbQ0BASF0oW0NIM10pT2MoW2NIXTIpYyhbTkgyXSluW2NIXTM=

> <s_epik_cmdline>
J2VwaWtfYXBwJywgJy1pbWFlJywgJ2xpZ2FuZF9wcm8ubWFlJywgJy1vbWFlJywgJ2xpZ2FuZF9wcmVwLm1hZScsICctbXMnLCAnMScsICctcGgnLCAnNycsICctcGh0JywgJzAuNScsICctbnQn

> <r_lp_tautomer_probability>
0.999999404453161

> <r_epik_Ionization_Penalty>
  0.3417

> <r_epik_Ionization_Penalty_Charging>
  0.0000

> <r_epik_Ionization_Penalty_Neutral>
  0.3417

> <r_epik_State_Penalty>
  0.3362

> <r_epik_Charging_Adjusted_Penalty>
0.336176661284146

> <i_epik_Tot_Q>
0

> <i_epik_Tot_abs_Q>
0

$$$$
