4clp_ligand
                    3D
 Schrodinger Suite 2020-3.
 33 36  0  0  1  0            999 V2000
  -32.6410  -18.9260   21.8030 P   0  0  2  0  0  0
  -33.2070  -18.0840   20.6780 O   0  5  0  0  0  0
  -32.6390  -20.4100   21.6450 O   0  0  0  0  0  0
  -33.6550  -18.7120   23.0410 O   0  0  0  0  0  0
  -33.2680  -18.7950   24.3980 C   0  0  0  0  0  0
  -32.3220  -17.6520   24.3010 C   0  0  1  0  0  0
  -31.9180  -17.0500   25.5230 O   0  0  0  0  0  0
  -31.0120  -18.0530   23.6170 C   0  0  1  0  0  0
  -31.1810  -18.3360   22.2130 O   0  0  0  0  0  0
  -30.1660  -16.8700   23.9830 C   0  0  1  0  0  0
  -29.7350  -16.2650   22.7900 O   0  0  0  0  0  0
  -31.1990  -16.0740   24.7600 C   0  0  2  0  0  0
  -30.8980  -14.7620   25.3540 N   0  0  0  0  0  0
  -31.8080  -13.8230   25.0140 C   0  0  0  0  0  0
  -31.5130  -12.6400   25.5190 N   0  0  0  0  0  0
  -30.3780  -12.7670   26.1800 C   0  0  0  0  0  0
  -29.5860  -11.8190   26.9370 C   0  0  0  0  0  0
  -30.0220  -10.5490   27.0010 N   0  0  0  0  0  0
  -28.4560  -12.2860   27.5510 N   0  0  0  0  0  0
  -28.0970  -13.5800   27.4350 C   0  0  0  0  0  0
  -28.8200  -14.5160   26.7470 N   0  0  0  0  0  0
  -29.9440  -14.1800   26.0890 C   0  0  0  0  0  0
  -34.1497  -18.6522   25.0401 H   0  0  0  0  0  0
  -32.8280  -19.7839   24.5940 H   0  0  0  0  0  0
  -32.9381  -16.8964   23.7916 H   0  0  0  0  0  0
  -30.5445  -19.0138   23.8784 H   0  0  0  0  0  0
  -29.2065  -17.0145   24.5012 H   0  0  0  0  0  0
  -28.9872  -16.7663   22.1580 H   0  0  0  0  0  0
  -31.9019  -15.5482   24.0971 H   0  0  0  0  0  0
  -32.6834  -14.0196   24.3950 H   0  0  0  0  0  0
  -30.9433  -10.2567   26.4760 H   0  0  0  0  0  0
  -29.4574   -9.8021   27.5784 H   0  0  0  0  0  0
  -27.1743  -13.9004   27.9189 H   0  0  0  0  0  0
  1  2  1  0  0  0
  1  3  2  0  0  0
  1  4  1  0  0  0
  1  9  1  0  0  0
  4  5  1  0  0  0
  5  6  1  0  0  0
  5 23  1  0  0  0
  5 24  1  0  0  0
  6  7  1  0  0  0
  6  8  1  0  0  0
  6 25  1  0  0  0
  7 12  1  0  0  0
  8  9  1  0  0  0
  8 10  1  0  0  0
  8 26  1  0  0  0
 10 11  1  0  0  0
 10 12  1  0  0  0
 10 27  1  0  0  0
 11 28  1  0  0  0
 12 13  1  0  0  0
 12 29  1  0  0  0
 13 14  1  0  0  0
 13 22  1  0  0  0
 14 15  2  0  0  0
 14 30  1  0  0  0
 15 16  1  0  0  0
 16 17  2  0  0  0
 16 22  1  0  0  0
 17 18  1  0  0  0
 17 19  1  0  0  0
 18 31  1  0  0  0
 18 32  1  0  0  0
 19 20  2  0  0  0
 20 21  1  0  0  0
 20 33  1  0  0  0
 21 22  2  0  0  0
M  CHG  1   2  -1
M  END
> <s_m_source_file>
../4clp_ligand.sdf

> <i_m_source_file_index>
1

> <s_epik_input>
W0NIMl0xT1tQQEBdKD1PKShbT0hdKU9bQ0BIXShbQ0BASF0xMilbQ0BASF0oW09IXSlbQ0BASF0oTzIpbihbY0hdbjMpYyhjMzQpbltjSF1uYzRbTkgyXQ==

> <s_epik_cmdline>
J2VwaWtfYXBwJywgJy1pbWFlJywgJ2xpZ2FuZF9wcm8ubWFlJywgJy1vbWFlJywgJ2xpZ2FuZF9wcmVwLm1hZScsICctbXMnLCAnMScsICctcGgnLCAnNycsICctcGh0JywgJzAuNScsICctbnQn

> <r_lp_tautomer_probability>
1

> <r_epik_Ionization_Penalty>
  0.0008

> <r_epik_Ionization_Penalty_Charging>
  0.0002

> <r_epik_Ionization_Penalty_Neutral>
  0.0005

> <r_epik_State_Penalty>
 -0.0000

> <r_epik_Charging_Adjusted_Penalty>
0.000248221998699987

> <i_epik_Tot_Q>
-1

> <i_epik_Tot_abs_Q>
1

> <s_epik_Chemistry_Notes>
This compound contains an acetal/aminal-like group ( X-CH(R)-Y where X, Y are N, S, or O) that may be acid/base labile, releasing an aldehyde.

$$$$
