4clz_ligand
                    3D
 Schrodinger Suite 2020-3.
 36 37  0  0  1  0            999 V2000
    0.4380  -47.5040   -1.5920 O   0  0  0  0  0  0
   -0.5100  -48.4230   -0.9460 S   0  0  0  0  0  0
   -1.8400  -48.0590   -1.4240 O   0  0  0  0  0  0
   -0.4870  -48.4070    0.5370 O   0  5  0  0  0  0
   -0.2790  -50.0620   -1.5370 C   0  0  0  0  0  0
   -0.1430  -51.0670   -0.5440 C   0  0  0  0  0  0
    0.0390  -52.3960   -0.9570 C   0  0  0  0  0  0
    0.0590  -52.6720   -2.3370 C   0  0  0  0  0  0
   -0.0820  -51.6610   -3.3130 C   0  0  0  0  0  0
   -0.2680  -50.3240   -2.9130 C   0  0  0  0  0  0
   -0.4020  -49.2520   -3.8720 C   0  0  0  0  0  0
   -0.0910  -49.3770   -5.1960 C   0  0  0  0  0  0
   -0.1300  -48.3460   -6.1600 C   0  0  0  0  0  0
   -0.2820  -48.5410   -7.5460 C   0  0  0  0  0  0
   -0.2550  -47.4790   -8.4500 C   0  0  0  0  0  0
   -0.0260  -46.1880   -7.9620 C   0  0  0  0  0  0
    0.1970  -46.0450   -6.6070 C   0  0  0  0  0  0
    0.1660  -47.0800   -5.7310 C   0  0  0  0  0  0
    0.0300  -45.1750   -8.8050 N   0  0  0  0  0  0
    0.3450  -43.9600   -8.9180 C   0  0  0  0  0  0
    0.7290  -42.3560   -9.1530 S   0  0  0  0  0  0
   -0.5690  -50.2250   -8.1320 S   0  0  0  0  0  0
    0.6500  -51.0200   -7.8910 O   0  0  0  0  0  0
   -0.9840  -50.0700   -9.4890 O   0  0  0  0  0  0
   -1.6420  -50.7120   -7.1940 O   0  5  0  0  0  0
    0.1860  -53.3810   -0.0310 N   0  0  0  0  0  0
    0.2220  -53.0540    1.2130 C   0  0  0  0  0  0
    0.2820  -52.6320    2.8680 S   0  0  0  0  0  0
   -0.1791  -50.8125    0.5153 H   0  0  0  0  0  0
    0.1880  -53.7036   -2.6644 H   0  0  0  0  0  0
   -0.0469  -51.9150   -4.3724 H   0  0  0  0  0  0
   -0.7780  -48.2941   -3.4834 H   0  0  0  0  0  0
    0.2248  -50.3513   -5.5972 H   0  0  0  0  0  0
   -0.4092  -47.6515   -9.5152 H   0  0  0  0  0  0
    0.4091  -45.0480   -6.2210 H   0  0  0  0  0  0
    0.3785  -46.9024   -4.6768 H   0  0  0  0  0  0
  1  2  2  0  0  0
  2  3  2  0  0  0
  2  4  1  0  0  0
  2  5  1  0  0  0
  5  6  2  0  0  0
  5 10  1  0  0  0
  6  7  1  0  0  0
  6 29  1  0  0  0
  7  8  2  0  0  0
  7 26  1  0  0  0
  8  9  1  0  0  0
  8 30  1  0  0  0
  9 10  2  0  0  0
  9 31  1  0  0  0
 10 11  1  0  0  0
 11 12  2  0  0  0
 11 32  1  0  0  0
 12 13  1  0  0  0
 12 33  1  0  0  0
 13 14  2  0  0  0
 13 18  1  0  0  0
 14 15  1  0  0  0
 14 22  1  0  0  0
 15 16  2  0  0  0
 15 34  1  0  0  0
 16 17  1  0  0  0
 16 19  1  0  0  0
 17 18  2  0  0  0
 17 35  1  0  0  0
 18 36  1  0  0  0
 19 20  2  0  0  0
 20 21  2  0  0  0
 22 23  2  0  0  0
 22 24  2  0  0  0
 22 25  1  0  0  0
 26 27  2  0  0  0
 27 28  2  0  0  0
M  CHG  2   4  -1  25  -1
M  END
> <s_m_source_file>
../4clz_ligand.sdf

> <i_m_source_file_index>
1

> <s_epik_input>
Tz1TKD1PKShbT0hdKWMxW2NIXWMoTj1DPVMpW2NIXVtjSF1jMS9bQ0hdPVtDSF0vYzJjKFMoPU8pKD1PKVtPSF0pW2NIXWMoW2NIXVtjSF0yKU49Qz1T

> <s_epik_cmdline>
J2VwaWtfYXBwJywgJy1pbWFlJywgJ2xpZ2FuZF9wcm8ubWFlJywgJy1vbWFlJywgJ2xpZ2FuZF9wcmVwLm1hZScsICctbXMnLCAnMScsICctcGgnLCAnNycsICctcGh0JywgJzAuNScsICctbnQn

> <r_lp_tautomer_probability>
1

> <r_epik_Ionization_Penalty>
  0.0000

> <r_epik_Ionization_Penalty_Charging>
  0.0000

> <r_epik_Ionization_Penalty_Neutral>
  0.0000

> <r_epik_State_Penalty>
 -0.0000

> <r_epik_Charging_Adjusted_Penalty>
3.65875652291018e-06

> <i_epik_Tot_Q>
-2

> <i_epik_Tot_abs_Q>
2

> <s_epik_Chemistry_Notes>
This compound has an imine and may undergo hydrolysis.

$$$$
