4cmt_ligand
                    3D
 Schrodinger Suite 2020-3.
 52 55  0  0  1  0            999 V2000
   30.0790   44.7040    9.2780 C   0  0  0  0  0  0
   28.9810   44.3830   10.1220 C   0  0  0  0  0  0
   27.8970   45.2190   10.2550 N   0  0  0  0  0  0
   27.8780   46.3940    9.5550 C   0  0  0  0  0  0
   28.9050   46.8280    8.6860 C   0  0  0  0  0  0
   30.0040   45.9390    8.5730 C   0  0  0  0  0  0
   31.1140   43.7830    9.2250 O   0  0  0  0  0  0
   28.9800   43.1830   10.8520 N   0  0  0  0  0  0
   32.3050   43.9770    8.4000 C   0  0  1  0  0  0
   33.2620   45.0350    8.9830 C   0  0  0  0  0  0
   32.9800   42.6020    8.2990 C   0  0  0  0  0  0
   33.7880   46.1530    8.2350 C   0  0  0  0  0  0
   34.6690   47.1000    8.8490 C   0  0  0  0  0  0
   35.0370   46.9500   10.2090 C   0  0  0  0  0  0
   34.5280   45.8600   10.9490 C   0  0  0  0  0  0
   33.6590   44.9160   10.3630 C   0  0  0  0  0  0
   34.8730   45.7160   12.2330 F   0  0  0  0  0  0
   33.4740   46.3850    6.8690 N   0  0  0  0  0  0
   32.7880   47.4920    6.4770 N   0  0  0  0  0  0
   32.7150   47.3170    5.1550 C   0  0  0  0  0  0
   33.3500   46.1310    4.8000 C   0  0  0  0  0  0
   33.8380   45.5290    5.8870 N   0  0  0  0  0  0
   28.8470   48.1140    7.9510 C   0  0  0  0  0  0
   27.5980   48.6860    7.5730 C   0  0  0  0  0  0
   27.5410   49.9120    6.8770 C   0  0  0  0  0  0
   28.7260   50.6180    6.5290 C   0  0  0  0  0  0
   29.9840   50.0740    6.8910 C   0  0  0  0  0  0
   30.0420   48.8380    7.5940 C   0  0  0  0  0  0
   25.9600   50.5610    6.4550 S   0  0  0  0  0  0
   26.0710   51.1330    4.7820 C   0  0  0  0  0  0
   25.0060   49.4670    6.4620 O   0  0  0  0  0  0
   25.7680   51.7080    7.3250 O   0  0  0  0  0  0
   27.0095   47.0415    9.6758 H   0  0  0  0  0  0
   30.8294   46.2136    7.9162 H   0  0  0  0  0  0
   29.8298   42.4893   10.7710 H   0  0  0  0  0  0
   28.1294   42.9370   11.5047 H   0  0  0  0  0  0
   31.9752   44.3591    7.4226 H   0  0  0  0  0  0
   32.2692   41.8745    7.8801 H   0  0  0  0  0  0
   33.2937   42.2731    9.3007 H   0  0  0  0  0  0
   33.8608   42.6732    7.6439 H   0  0  0  0  0  0
   35.0572   47.9375    8.2694 H   0  0  0  0  0  0
   35.7069   47.6694   10.6799 H   0  0  0  0  0  0
   33.2831   44.0862   10.9615 H   0  0  0  0  0  0
   32.2304   48.0010    4.4583 H   0  0  0  0  0  0
   33.4364   45.7491    3.7827 H   0  0  0  0  0  0
   26.6724   48.1686    7.8254 H   0  0  0  0  0  0
   28.6675   51.5644    5.9913 H   0  0  0  0  0  0
   30.9028   50.6001    6.6320 H   0  0  0  0  0  0
   31.0138   48.4284    7.8695 H   0  0  0  0  0  0
   26.2168   50.2745    4.1099 H   0  0  0  0  0  0
   26.9226   51.8226    4.6860 H   0  0  0  0  0  0
   25.1425   51.6571    4.5113 H   0  0  0  0  0  0
  1  2  2  0  0  0
  1  6  1  0  0  0
  1  7  1  0  0  0
  2  3  1  0  0  0
  2  8  1  0  0  0
  3  4  2  0  0  0
  4  5  1  0  0  0
  4 33  1  0  0  0
  5  6  2  0  0  0
  5 23  1  0  0  0
  6 34  1  0  0  0
  7  9  1  0  0  0
  8 35  1  0  0  0
  8 36  1  0  0  0
  9 10  1  0  0  0
  9 11  1  0  0  0
  9 37  1  0  0  0
 10 12  2  0  0  0
 10 16  1  0  0  0
 11 38  1  0  0  0
 11 39  1  0  0  0
 11 40  1  0  0  0
 12 13  1  0  0  0
 12 18  1  0  0  0
 13 14  2  0  0  0
 13 41  1  0  0  0
 14 15  1  0  0  0
 14 42  1  0  0  0
 15 16  2  0  0  0
 15 17  1  0  0  0
 16 43  1  0  0  0
 18 19  1  0  0  0
 18 22  1  0  0  0
 19 20  2  0  0  0
 20 21  1  0  0  0
 20 44  1  0  0  0
 21 22  2  0  0  0
 21 45  1  0  0  0
 23 24  2  0  0  0
 23 28  1  0  0  0
 24 25  1  0  0  0
 24 46  1  0  0  0
 25 26  2  0  0  0
 25 29  1  0  0  0
 26 27  1  0  0  0
 26 47  1  0  0  0
 27 28  2  0  0  0
 27 48  1  0  0  0
 28 49  1  0  0  0
 29 30  1  0  0  0
 29 31  2  0  0  0
 29 32  2  0  0  0
 30 50  1  0  0  0
 30 51  1  0  0  0
 30 52  1  0  0  0
M  END
> <s_m_source_file>
../4cmt_ligand.sdf

> <i_m_source_file_index>
1

> <s_epik_input>
bjFbY0hdW2NIXW5uMS1jKFtjSF1bY0hdYyhGKVtjSF0yKWMyW0NAQEhdKFtDSDNdKU9jM2MoW05IMl0pbltjSF1jKFtjSF0zKS1jNFtjSF1jKFMoPU8pKD1PKVtDSDNdKVtjSF1bY0hdW2NIXTQ=

> <s_epik_cmdline>
J2VwaWtfYXBwJywgJy1pbWFlJywgJ2xpZ2FuZF9wcm8ubWFlJywgJy1vbWFlJywgJ2xpZ2FuZF9wcmVwLm1hZScsICctbXMnLCAnMScsICctcGgnLCAnNycsICctcGh0JywgJzAuNScsICctbnQn

> <r_lp_tautomer_probability>
0.999999404453161

> <r_epik_Ionization_Penalty>
  0.2657

> <r_epik_Ionization_Penalty_Charging>
  0.0000

> <r_epik_Ionization_Penalty_Neutral>
  0.2657

> <r_epik_State_Penalty>
  0.2564

> <r_epik_Charging_Adjusted_Penalty>
0.256363208599964

> <i_epik_Tot_Q>
0

> <i_epik_Tot_abs_Q>
0

$$$$
