4cmu_ligand
                    3D
 Schrodinger Suite 2020-3.
 51 54  0  0  1  0            999 V2000
   34.5540   46.9480    8.7900 C   0  0  0  0  0  0
   35.0130   46.7660   10.1150 C   0  0  0  0  0  0
   30.0020   45.6640    8.4860 C   0  0  0  0  0  0
   33.7240   44.6730   10.2920 C   0  0  0  0  0  0
   27.9030   46.2360    9.3980 C   0  0  0  0  0  0
   28.9530   46.5960    8.5280 C   0  0  0  0  0  0
   28.9850   47.8550    7.7170 C   0  0  0  0  0  0
   33.6690   45.9920    8.2010 C   0  0  0  0  0  0
   33.2310   44.8160    8.9480 C   0  0  0  0  0  0
   30.0470   44.4610    9.2310 C   0  0  0  0  0  0
   34.5970   45.6370   10.8510 C   0  0  0  0  0  0
   30.1620   48.5520    7.2810 C   0  0  0  0  0  0
   27.9010   48.6560    7.1880 C   0  0  0  0  0  0
   28.9380   44.1980   10.0720 C   0  0  0  0  0  0
   33.2340   46.2650    6.7970 C   0  0  0  0  0  0
   31.6740   48.3070    7.4560 C   0  0  0  0  0  0
   32.2710   43.7400    8.3740 C   0  0  1  0  0  0
   26.4250   48.4770    7.2870 C   0  0  0  0  0  0
   32.9560   42.3670    8.2760 C   0  0  0  0  0  0
   30.4300   50.6970    5.9070 C   0  0  0  0  0  0
   31.9770   47.4840    5.0490 C   0  0  0  0  0  0
   27.8790   45.0780   10.1510 N   0  0  0  0  0  0
   28.3420   49.7190    6.5100 N   0  0  0  0  0  0
   29.6780   49.6480    6.5710 N   0  0  0  0  0  0
   32.3130   47.3350    6.4780 N   0  0  0  0  0  0
   28.9030   43.0240   10.8500 N   0  0  0  0  0  0
   33.7340   45.4970    5.9670 O   0  0  0  0  0  0
   31.0840   43.5360    9.2050 O   0  0  0  0  0  0
   35.0330   45.4760   12.1030 F   0  0  0  0  0  0
   34.8752   47.8179    8.2171 H   0  0  0  0  0  0
   35.6858   47.4955   10.5659 H   0  0  0  0  0  0
   30.8450   45.8830    7.8307 H   0  0  0  0  0  0
   33.4215   43.8115   10.8873 H   0  0  0  0  0  0
   27.0551   46.9158    9.4818 H   0  0  0  0  0  0
   32.2155   49.2571    7.3375 H   0  0  0  0  0  0
   31.8656   47.8984    8.4592 H   0  0  0  0  0  0
   31.9289   44.1142    7.3978 H   0  0  0  0  0  0
   26.2039   47.5693    7.8676 H   0  0  0  0  0  0
   25.9990   48.3794    6.2776 H   0  0  0  0  0  0
   25.9826   49.3502    7.7889 H   0  0  0  0  0  0
   33.8627   42.4528    7.6591 H   0  0  0  0  0  0
   32.2659   41.6450    7.8150 H   0  0  0  0  0  0
   33.2295   42.0209    9.2837 H   0  0  0  0  0  0
   31.5070   50.5143    6.0366 H   0  0  0  0  0  0
   30.1677   51.6706    6.3466 H   0  0  0  0  0  0
   30.1852   50.7010    4.8346 H   0  0  0  0  0  0
   32.5088   46.7180    4.4655 H   0  0  0  0  0  0
   32.2793   48.4836    4.7036 H   0  0  0  0  0  0
   30.8924   47.3614    4.9127 H   0  0  0  0  0  0
   29.7367   42.3079   10.8029 H   0  0  0  0  0  0
   28.0420   42.8235   11.5046 H   0  0  0  0  0  0
  1  2  2  0  0  0
  1  8  1  0  0  0
  1 30  1  0  0  0
  2 11  1  0  0  0
  2 31  1  0  0  0
  3  6  2  0  0  0
  3 10  1  0  0  0
  3 32  1  0  0  0
  4  9  1  0  0  0
  4 11  2  0  0  0
  4 33  1  0  0  0
  5  6  1  0  0  0
  5 22  2  0  0  0
  5 34  1  0  0  0
  6  7  1  0  0  0
  7 12  2  0  0  0
  7 13  1  0  0  0
  8  9  2  0  0  0
  8 15  1  0  0  0
  9 17  1  0  0  0
 10 14  2  0  0  0
 10 28  1  0  0  0
 11 29  1  0  0  0
 12 16  1  0  0  0
 12 24  1  0  0  0
 13 18  1  0  0  0
 13 23  2  0  0  0
 14 22  1  0  0  0
 14 26  1  0  0  0
 15 25  1  0  0  0
 15 27  2  0  0  0
 16 25  1  0  0  0
 16 35  1  0  0  0
 16 36  1  0  0  0
 17 19  1  0  0  0
 17 28  1  0  0  0
 17 37  1  0  0  0
 18 38  1  0  0  0
 18 39  1  0  0  0
 18 40  1  0  0  0
 19 41  1  0  0  0
 19 42  1  0  0  0
 19 43  1  0  0  0
 20 24  1  0  0  0
 20 44  1  0  0  0
 20 45  1  0  0  0
 20 46  1  0  0  0
 21 25  1  0  0  0
 21 47  1  0  0  0
 21 48  1  0  0  0
 21 49  1  0  0  0
 23 24  1  0  0  0
 26 50  1  0  0  0
 26 51  1  0  0  0
M  END
> <s_m_source_file>
../4cmu_ligand.sdf

> <i_m_source_file_index>
1

> <s_epik_input>
W2NIXTFuYyhbTkgyXSljKFtjSF0yKU9bQ0BIXShbQ0gzXSljKFtjSF1jKEYpW2NIXVtjSF0zKWMzQyg9TylOKFtDSDNdKVtDSDJdYyhjNGMxMiluKFtDSDNdKW5jNFtDSDNd

> <s_epik_cmdline>
J2VwaWtfYXBwJywgJy1pbWFlJywgJ2xpZ2FuZF9wcm8ubWFlJywgJy1vbWFlJywgJ2xpZ2FuZF9wcmVwLm1hZScsICctbXMnLCAnMScsICctcGgnLCAnNycsICctcGh0JywgJzAuNScsICctbnQn

> <r_lp_tautomer_probability>
0.999999404453161

> <r_epik_Ionization_Penalty>
  0.3421

> <r_epik_Ionization_Penalty_Charging>
  0.0000

> <r_epik_Ionization_Penalty_Neutral>
  0.3421

> <r_epik_State_Penalty>
  0.3362

> <r_epik_Charging_Adjusted_Penalty>
0.336176661284146

> <i_epik_Tot_Q>
0

> <i_epik_Tot_abs_Q>
0

$$$$
