4cnh_ligand
                    3D
 Schrodinger Suite 2020-3.
 43 45  0  0  1  0            999 V2000
   48.2310   -1.9910  -47.9280 C   0  0  0  0  0  0
   48.7500   -0.6740  -47.8890 C   0  0  0  0  0  0
   43.7320   -1.9260  -46.6380 C   0  0  0  0  0  0
   47.5590   -0.2530  -45.7830 C   0  0  0  0  0  0
   41.6330   -0.8970  -47.1300 C   0  0  0  0  0  0
   43.6680   -3.1190  -49.5040 C   0  0  0  0  0  0
   42.6280   -1.8190  -47.5200 C   0  0  0  0  0  0
   47.0160   -1.5800  -45.7940 C   0  0  0  0  0  0
   47.3600   -2.4660  -46.8890 C   0  0  0  0  0  0
   43.8460   -1.1640  -45.4370 C   0  0  0  0  0  0
   48.4130    0.1830  -46.8210 C   0  0  0  0  0  0
   42.5930   -2.6410  -48.7570 C   0  0  0  0  0  0
   42.7870   -0.2710  -45.1460 C   0  0  0  0  0  0
   46.7880   -2.0210  -43.3010 C   0  0  0  0  0  0
   40.0840   -3.0280  -49.2840 C   0  0  0  0  0  0
   47.0660   -4.6890  -47.8720 C   0  0  0  0  0  0
   46.0690   -2.0450  -44.6590 C   0  0  1  0  0  0
   41.6970   -0.1420  -45.9800 N   0  0  0  0  0  0
   43.2440   -3.8340  -50.5740 N   0  0  0  0  0  0
   41.9270   -3.8420  -50.5570 N   0  0  0  0  0  0
   41.5150   -3.1390  -49.4840 N   0  0  0  0  0  0
   42.8380    0.5130  -43.9800 N   0  0  0  0  0  0
   46.7920   -3.7390  -46.8350 O   0  0  0  0  0  0
   44.8910   -1.1890  -44.5110 O   0  0  0  0  0  0
   48.9080    1.4280  -46.7890 F   0  0  0  0  0  0
   48.4950   -2.6508  -48.7545 H   0  0  0  0  0  0
   49.4089   -0.3232  -48.6833 H   0  0  0  0  0  0
   44.5316   -2.6231  -46.8888 H   0  0  0  0  0  0
   47.3109    0.4255  -44.9668 H   0  0  0  0  0  0
   40.7638   -0.7755  -47.7763 H   0  0  0  0  0  0
   44.7150   -2.9407  -49.2590 H   0  0  0  0  0  0
   47.6880   -2.6514  -43.3515 H   0  0  0  0  0  0
   46.1135   -2.4064  -42.5222 H   0  0  0  0  0  0
   47.0770   -0.9880  -43.0574 H   0  0  0  0  0  0
   39.8851   -2.4336  -48.3801 H   0  0  0  0  0  0
   39.6514   -4.0323  -49.1649 H   0  0  0  0  0  0
   39.6293   -2.5338  -50.1552 H   0  0  0  0  0  0
   46.5345   -5.6282  -47.6586 H   0  0  0  0  0  0
   48.1481   -4.8818  -47.9160 H   0  0  0  0  0  0
   46.7257   -4.2863  -48.8374 H   0  0  0  0  0  0
   45.7058   -3.0459  -44.9351 H   0  0  0  0  0  0
   43.6968    0.4289  -43.2978 H   0  0  0  0  0  0
   42.0191    1.2105  -43.7499 H   0  0  0  0  0  0
  1  2  2  0  0  0
  1  9  1  0  0  0
  1 26  1  0  0  0
  2 11  1  0  0  0
  2 27  1  0  0  0
  3  7  2  0  0  0
  3 10  1  0  0  0
  3 28  1  0  0  0
  4  8  1  0  0  0
  4 11  2  0  0  0
  4 29  1  0  0  0
  5  7  1  0  0  0
  5 18  2  0  0  0
  5 30  1  0  0  0
  6 12  2  0  0  0
  6 19  1  0  0  0
  6 31  1  0  0  0
  7 12  1  0  0  0
  8  9  2  0  0  0
  8 17  1  0  0  0
  9 23  1  0  0  0
 10 13  2  0  0  0
 10 24  1  0  0  0
 11 25  1  0  0  0
 12 21  1  0  0  0
 13 18  1  0  0  0
 13 22  1  0  0  0
 14 17  1  0  0  0
 14 32  1  0  0  0
 14 33  1  0  0  0
 14 34  1  0  0  0
 15 21  1  0  0  0
 15 35  1  0  0  0
 15 36  1  0  0  0
 15 37  1  0  0  0
 16 23  1  0  0  0
 16 38  1  0  0  0
 16 39  1  0  0  0
 16 40  1  0  0  0
 17 24  1  0  0  0
 17 41  1  0  0  0
 19 20  2  0  0  0
 20 21  1  0  0  0
 22 42  1  0  0  0
 22 43  1  0  0  0
M  END
> <s_m_source_file>
../4cnh_ligand.sdf

> <i_m_source_file_index>
1

> <s_epik_input>
W0NIM11PYzFbY0hdW2NIXWMoRilbY0hdYzFbQ0BASF0oW0NIM10pT2MoYyhbTkgyXSluW2NIXTIpW2NIXWMyLWMzW2NIXW5ubjNbQ0gzXQ==

> <s_epik_cmdline>
J2VwaWtfYXBwJywgJy1pbWFlJywgJ2xpZ2FuZF9wcm8ubWFlJywgJy1vbWFlJywgJ2xpZ2FuZF9wcmVwLm1hZScsICctbXMnLCAnMScsICctcGgnLCAnNycsICctcGh0JywgJzAuNScsICctbnQn

> <r_lp_tautomer_probability>
1

> <r_epik_Ionization_Penalty>
  0.0044

> <r_epik_Ionization_Penalty_Charging>
  0.0000

> <r_epik_Ionization_Penalty_Neutral>
  0.0044

> <r_epik_State_Penalty>
 -0.0000

> <r_epik_Charging_Adjusted_Penalty>
0

> <i_epik_Tot_Q>
0

> <i_epik_Tot_abs_Q>
0

$$$$
