4cp5_ligand
                    3D
 Schrodinger Suite 2020-3.
 39 40  0  0  1  0            999 V2000
   49.3270  -53.0820   77.0330 C   0  0  0  0  0  0
   52.0820  -51.4340   76.8550 N   0  0  0  0  0  0
   49.1910  -50.7300   76.9370 O   0  0  0  0  0  0
   48.7200  -48.5920   75.3180 P   0  0  2  0  0  0
   47.3530  -47.1410   75.5460 S   0  5  0  0  0  0
   49.6260  -51.8680   76.1930 C   0  0  1  0  0  0
   53.1950  -50.1670   78.3440 N   0  0  0  0  0  0
   50.1300  -48.2340   75.4740 O   0  0  0  0  0  0
   48.4230  -49.9520   72.5150 P   0  0  2  0  0  0
   51.1370  -51.7640   75.7950 C   0  0  0  0  0  0
   53.1360  -53.5830   77.2840 N   0  0  0  0  0  0
   48.4330  -49.1050   73.8580 O   0  0  0  0  0  0
   46.0650  -51.8940   73.1890 P   0  0  0  0  0  0
   52.2720  -50.2030   77.4130 C   0  0  0  0  0  0
   54.7820  -53.4490   79.0470 N   0  0  0  0  0  0
   49.7560  -50.5300   72.2400 O   0  0  0  0  0  0
   53.6430  -51.4780   78.4050 C   0  0  0  0  0  0
   55.3050  -51.4930   80.1660 N   0  0  0  0  0  0
   47.8260  -48.9910   71.4870 O   0  5  0  0  0  0
   52.9690  -52.2670   77.4880 C   0  0  0  0  0  0
   47.3040  -51.0080   72.7490 O   0  0  0  0  0  0
   54.0620  -54.0820   78.1120 C   0  0  0  0  0  0
   45.7280  -53.0560   72.3150 O   0  0  0  0  0  0
   54.5960  -52.1180   79.2230 C   0  0  0  0  0  0
   44.9310  -50.8540   73.3240 O   0  5  0  0  0  0
   48.1060  -49.9540   76.4040 C   0  0  0  0  0  0
   46.5170  -52.3280   74.5930 O   0  5  0  0  0  0
   48.2554  -53.1016   77.2807 H   0  0  0  0  0  0
   49.9170  -53.0405   77.9604 H   0  0  0  0  0  0
   49.5902  -53.9904   76.4713 H   0  0  0  0  0  0
   49.0233  -51.8897   75.2731 H   0  0  0  0  0  0
   51.1826  -50.9943   75.0104 H   0  0  0  0  0  0
   51.3961  -52.7424   75.3643 H   0  0  0  0  0  0
   51.7041  -49.3233   77.1102 H   0  0  0  0  0  0
   56.0335  -52.0546   80.7693 H   0  0  0  0  0  0
   55.1607  -50.4164   80.3397 H   0  0  0  0  0  0
   54.2566  -55.1498   78.0114 H   0  0  0  0  0  0
   47.4476  -50.6043   75.8093 H   0  0  0  0  0  0
   47.5325  -49.5092   77.2306 H   0  0  0  0  0  0
  1  6  1  0  0  0
  1 28  1  0  0  0
  1 29  1  0  0  0
  1 30  1  0  0  0
  2 10  1  0  0  0
  2 14  1  0  0  0
  2 20  1  0  0  0
  3  6  1  0  0  0
  3 26  1  0  0  0
  4  5  1  0  0  0
  4  8  2  0  0  0
  4 12  1  0  0  0
  4 26  1  0  0  0
  6 10  1  0  0  0
  6 31  1  0  0  0
  7 14  2  0  0  0
  7 17  1  0  0  0
  9 12  1  0  0  0
  9 16  2  0  0  0
  9 19  1  0  0  0
  9 21  1  0  0  0
 10 32  1  0  0  0
 10 33  1  0  0  0
 11 20  1  0  0  0
 11 22  2  0  0  0
 13 21  1  0  0  0
 13 23  2  0  0  0
 13 25  1  0  0  0
 13 27  1  0  0  0
 14 34  1  0  0  0
 15 22  1  0  0  0
 15 24  2  0  0  0
 17 20  2  0  0  0
 17 24  1  0  0  0
 18 24  1  0  0  0
 18 35  1  0  0  0
 18 36  1  0  0  0
 22 37  1  0  0  0
 26 38  1  0  0  0
 26 39  1  0  0  0
M  CHG  4   5  -1  19  -1  25  -1  27  -1
M  END
> <s_m_source_file>
../4cp5_ligand.sdf

> <i_m_source_file_index>
1

> <s_epik_input>
Tz1QKFtPSF0pKFtPSF0pT1tQQEBdKD1PKShbT0hdKU9bUEBAXSg9TykoW1NIXSlbQ0gyXU9bQ0BIXShbQ0gzXSlbQ0gyXW4oW2NIXW4xKWMoYzEyKW5bY0hdbmMyW05IMl0=

> <s_epik_cmdline>
J2VwaWtfYXBwJywgJy1pbWFlJywgJ2xpZ2FuZF9wcm8ubWFlJywgJy1vbWFlJywgJ2xpZ2FuZF9wcmVwLm1hZScsICctbXMnLCAnMScsICctcGgnLCAnNycsICctcGh0JywgJzAuNScsICctbnQn

> <r_lp_tautomer_probability>
0.999997216410988

> <r_epik_Ionization_Penalty>
  0.0796

> <r_epik_Ionization_Penalty_Charging>
  0.0786

> <r_epik_Ionization_Penalty_Neutral>
  0.0010

> <r_epik_State_Penalty>
  0.0682

> <r_epik_Charging_Adjusted_Penalty>
0.146813092329528

> <i_epik_Tot_Q>
-4

> <i_epik_Tot_abs_Q>
4

$$$$
