4cp7_ligand
                    3D
 Schrodinger Suite 2020-3.
117119  0  0  1  0            999 V2000
    4.5320   25.3650    0.2410 C   0  0  0  0  0  0
    5.8710   25.6740    0.8880 C   0  0  0  0  0  0
    6.1100   25.2980    2.3050 C   0  0  0  0  0  0
    7.4890   24.9450    2.5020 C   0  0  0  0  0  0
    8.5080   25.8300    2.1330 C   0  0  0  0  0  0
    9.8590   25.4720    2.3320 C   0  0  0  0  0  0
    7.8190   23.7050    3.0700 C   0  0  0  0  0  0
    9.1580   23.3560    3.2650 C   0  0  0  0  0  0
   10.1790   24.2450    2.8940 C   0  0  0  0  0  0
   11.5500   23.8880    3.0940 C   0  0  0  0  0  0
   10.8400   24.4680    5.5340 C   0  0  0  0  0  0
   10.4780   23.4380    6.1140 O   0  0  0  0  0  0
   10.2580   25.6660    5.7080 N   0  0  0  0  0  0
    9.0810   25.8350    6.6370 C   0  0  1  0  0  0
    9.5240   26.4260    8.1110 C   0  0  0  0  0  0
   10.9580   25.9690    8.4650 C   0  0  0  0  0  0
    9.4430   27.9800    8.1210 C   0  0  0  0  0  0
    8.0300   26.8090    5.9210 C   0  0  0  0  0  0
    8.3720   27.9300    5.4790 O   0  0  0  0  0  0
    6.8460   26.3480    5.8300 N   0  0  0  0  0  0
    5.7930   27.0980    5.2140 C   0  0  0  0  0  0
    5.0490   27.8110    6.2570 C   0  0  0  0  0  0
    4.4980   27.0470    7.4350 C   0  0  0  0  0  0
   12.5580   25.7690    4.3300 O   0  0  0  0  0  0
   13.1540   23.5640    4.9980 C   0  0  0  0  0  0
   13.7710   24.1380    6.2130 C   0  0  0  0  0  0
   15.1900   23.6960    6.2780 C   0  0  0  0  0  0
   15.2980   22.3420    6.8410 N   0  0  1  0  0  0
   15.9110   21.6620    6.1250 N   0  0  0  0  0  0
   15.2710   20.6170    5.5200 C   0  0  0  0  0  0
   12.0610   24.4530    4.5020 C   0  0  2  0  0  0
   14.0600   20.3380    5.6800 O   0  0  0  0  0  0
   16.1870   19.7750    4.6110 C   0  0  2  0  0  0
   15.3930   19.0510    3.4750 C   0  0  0  0  0  0
   14.5460   20.0760    2.6880 C   0  0  0  0  0  0
   14.4620   17.9620    4.0900 C   0  0  0  0  0  0
   16.4290   18.3600    2.4960 C   0  0  0  0  0  0
   16.8500   18.7810    5.4560 N   0  0  0  0  0  0
   18.1230   18.7640    5.5940 C   0  0  0  0  0  0
   18.8250   19.6030    4.9980 O   0  0  0  0  0  0
   18.7180   17.7920    6.4210 O   0  0  0  0  0  0
   20.0400   18.1640    6.7590 C   0  0  0  0  0  0
   16.0470   22.4680    8.0050 C   0  0  0  0  0  0
   16.2280   21.1870    8.7470 C   0  0  0  0  0  0
   15.1620   20.5850    9.3490 C   0  0  0  0  0  0
   15.3330   19.3790   10.0540 C   0  0  0  0  0  0
   17.5120   20.5940    8.8370 C   0  0  0  0  0  0
   17.6790   19.3900    9.5420 C   0  0  0  0  0  0
   16.5780   18.7860   10.1470 C   0  0  0  0  0  0
   16.7290   17.5680   10.8740 C   0  0  0  0  0  0
   17.9020   17.3900   11.6610 C   0  0  0  0  0  0
   18.0980   16.2280   12.3950 C   0  0  0  0  0  0
   17.1520   15.2300   12.3720 N   0  0  0  0  0  0
   15.9800   15.3890   11.6010 C   0  0  0  0  0  0
   15.7770   16.5870   10.8450 C   0  0  0  0  0  0
    4.5397   25.7136   -0.8023 H   0  0  0  0  0  0
    3.7309   25.8781    0.7932 H   0  0  0  0  0  0
    4.3557   24.2795    0.2636 H   0  0  0  0  0  0
    6.6721   25.1609    0.3358 H   0  0  0  0  0  0
    6.0473   26.7595    0.8654 H   0  0  0  0  0  0
    5.8605   26.1481    2.9570 H   0  0  0  0  0  0
    5.4780   24.4368    2.5674 H   0  0  0  0  0  0
    8.2589   26.7952    1.6922 H   0  0  0  0  0  0
   10.6524   26.1614    2.0433 H   0  0  0  0  0  0
    7.0289   23.0123    3.3598 H   0  0  0  0  0  0
    9.4101   22.3916    3.7060 H   0  0  0  0  0  0
   11.6486   22.7925    3.0856 H   0  0  0  0  0  0
   12.1622   24.3174    2.2873 H   0  0  0  0  0  0
   10.6541   26.5329    5.1588 H   0  0  0  0  0  0
    8.6685   24.8229    6.7610 H   0  0  0  0  0  0
    8.8663   26.0603    8.9133 H   0  0  0  0  0  0
   11.0055   24.8701    8.4554 H   0  0  0  0  0  0
   11.2240   26.3388    9.4662 H   0  0  0  0  0  0
   11.6647   26.3730    7.7252 H   0  0  0  0  0  0
    8.4200   28.2955    7.8682 H   0  0  0  0  0  0
   10.1462   28.3886    7.3804 H   0  0  0  0  0  0
    9.7055   28.3544    9.1214 H   0  0  0  0  0  0
    6.6420   25.3475    6.2392 H   0  0  0  0  0  0
    6.2236   27.8192    4.5038 H   0  0  0  0  0  0
    5.1199   26.4128    4.6779 H   0  0  0  0  0  0
    5.6960   28.5760    6.7110 H   0  0  0  0  0  0
    4.1663   28.2941    5.8126 H   0  0  0  0  0  0
    3.9742   27.7405    8.1092 H   0  0  0  0  0  0
    5.3239   26.5627    7.9766 H   0  0  0  0  0  0
    3.7941   26.2807    7.0782 H   0  0  0  0  0  0
   11.8913   26.5658    3.9686 H   0  0  0  0  0  0
   13.9174   23.4612    4.2127 H   0  0  0  0  0  0
   12.7337   22.5749    5.2325 H   0  0  0  0  0  0
   13.7223   25.2359    6.1653 H   0  0  0  0  0  0
   13.2275   23.7852    7.1019 H   0  0  0  0  0  0
   15.6192   23.6909    5.2652 H   0  0  0  0  0  0
   15.7608   24.3880    6.9146 H   0  0  0  0  0  0
   16.9773   21.8677    5.9497 H   0  0  0  0  0  0
   16.9556   20.4180    4.1573 H   0  0  0  0  0  0
   13.8265   20.5560    3.3677 H   0  0  0  0  0  0
   14.0021   19.5608    1.8826 H   0  0  0  0  0  0
   15.2065   20.8409    2.2535 H   0  0  0  0  0  0
   13.7408   18.4380    4.7707 H   0  0  0  0  0  0
   15.0685   17.2342    4.6490 H   0  0  0  0  0  0
   13.9198   17.4455    3.2842 H   0  0  0  0  0  0
   17.0879   19.1253    2.0599 H   0  0  0  0  0  0
   15.8849   17.8431    1.6918 H   0  0  0  0  0  0
   17.0336   17.6318    3.0565 H   0  0  0  0  0  0
   16.2531   18.0267    5.9895 H   0  0  0  0  0  0
   20.4846   17.3919    7.4041 H   0  0  0  0  0  0
   20.0250   19.1249    7.2942 H   0  0  0  0  0  0
   20.6385   18.2645    5.8416 H   0  0  0  0  0  0
   17.0499   22.8455    7.7566 H   0  0  0  0  0  0
   15.5487   23.1724    8.6872 H   0  0  0  0  0  0
   14.1737   21.0400    9.2837 H   0  0  0  0  0  0
   14.4743   18.9075   10.5319 H   0  0  0  0  0  0
   18.3684   21.0709    8.3603 H   0  0  0  0  0  0
   18.6647   18.9306    9.6154 H   0  0  0  0  0  0
   18.6562   18.1765   11.6876 H   0  0  0  0  0  0
   19.0029   16.1065   12.9904 H   0  0  0  0  0  0
   15.2294   14.5989   11.5816 H   0  0  0  0  0  0
   14.8719   16.7162   10.2516 H   0  0  0  0  0  0
  1  2  1  0  0  0
  1 56  1  0  0  0
  1 57  1  0  0  0
  1 58  1  0  0  0
  2  3  1  0  0  0
  2 59  1  0  0  0
  2 60  1  0  0  0
  3  4  1  0  0  0
  3 61  1  0  0  0
  3 62  1  0  0  0
  4  5  2  0  0  0
  4  7  1  0  0  0
  5  6  1  0  0  0
  5 63  1  0  0  0
  6  9  2  0  0  0
  6 64  1  0  0  0
  7  8  2  0  0  0
  7 65  1  0  0  0
  8  9  1  0  0  0
  8 66  1  0  0  0
  9 10  1  0  0  0
 10 31  1  0  0  0
 10 67  1  0  0  0
 10 68  1  0  0  0
 11 12  2  0  0  0
 11 13  1  0  0  0
 11 31  1  0  0  0
 13 14  1  0  0  0
 13 69  1  0  0  0
 14 15  1  0  0  0
 14 18  1  0  0  0
 14 70  1  0  0  0
 15 16  1  0  0  0
 15 17  1  0  0  0
 15 71  1  0  0  0
 16 72  1  0  0  0
 16 73  1  0  0  0
 16 74  1  0  0  0
 17 75  1  0  0  0
 17 76  1  0  0  0
 17 77  1  0  0  0
 18 19  2  0  0  0
 18 20  1  0  0  0
 20 21  1  0  0  0
 20 78  1  0  0  0
 21 22  1  0  0  0
 21 79  1  0  0  0
 21 80  1  0  0  0
 22 23  1  0  0  0
 22 81  1  0  0  0
 22 82  1  0  0  0
 23 83  1  0  0  0
 23 84  1  0  0  0
 23 85  1  0  0  0
 24 31  1  0  0  0
 24 86  1  0  0  0
 25 26  1  0  0  0
 25 31  1  0  0  0
 25 87  1  0  0  0
 25 88  1  0  0  0
 26 27  1  0  0  0
 26 89  1  0  0  0
 26 90  1  0  0  0
 27 28  1  0  0  0
 27 91  1  0  0  0
 27 92  1  0  0  0
 28 29  1  0  0  0
 28 43  1  0  0  0
 29 30  1  0  0  0
 29 93  1  0  0  0
 30 32  2  0  0  0
 30 33  1  0  0  0
 33 34  1  0  0  0
 33 38  1  0  0  0
 33 94  1  0  0  0
 34 35  1  0  0  0
 34 36  1  0  0  0
 34 37  1  0  0  0
 35 95  1  0  0  0
 35 96  1  0  0  0
 35 97  1  0  0  0
 36 98  1  0  0  0
 36 99  1  0  0  0
 36100  1  0  0  0
 37101  1  0  0  0
 37102  1  0  0  0
 37103  1  0  0  0
 38 39  1  0  0  0
 38104  1  0  0  0
 39 40  2  0  0  0
 39 41  1  0  0  0
 41 42  1  0  0  0
 42105  1  0  0  0
 42106  1  0  0  0
 42107  1  0  0  0
 43 44  1  0  0  0
 43108  1  0  0  0
 43109  1  0  0  0
 44 45  2  0  0  0
 44 47  1  0  0  0
 45 46  1  0  0  0
 45110  1  0  0  0
 46 49  2  0  0  0
 46111  1  0  0  0
 47 48  2  0  0  0
 47112  1  0  0  0
 48 49  1  0  0  0
 48113  1  0  0  0
 49 50  1  0  0  0
 50 51  2  0  0  0
 50 55  1  0  0  0
 51 52  1  0  0  0
 51114  1  0  0  0
 52 53  2  0  0  0
 52115  1  0  0  0
 53 54  1  0  0  0
 54 55  2  0  0  0
 54116  1  0  0  0
 55117  1  0  0  0
M  END
> <s_m_source_file>
../4cp7_ligand.sdf

> <i_m_source_file_index>
1

> <s_epik_input>
W0NIM11bQ0gyXVtDSDJdYzFbY0hdW2NIXWMoW2NIXVtjSF0xKVtDSDJdW0NAQF0oW09IXSkoQyg9TylbTkhdW0NAQEhdKFtDSF0oW0NIM10pW0NIM10pQyg9TylbTkhdW0NIMl1bQ0gyXVtDSDNdKVtDSDJdW0NIMl1bQ0gyXVtOQEBIK10oW05IXUMoPU8pW0NASF0oQyhbQ0gzXSkoW0NIM10pW0NIM10pW05IXUMoPU8pT1tDSDNdKVtDSDJdYzJbY0hdW2NIXWMoW2NIXVtjSF0yKS1jM1tjSF1bY0hdbltjSF1bY0hdMw==

> <s_epik_cmdline>
J2VwaWtfYXBwJywgJy1pbWFlJywgJ2xpZ2FuZF9wcm8ubWFlJywgJy1vbWFlJywgJ2xpZ2FuZF9wcmVwLm1hZScsICctbXMnLCAnMScsICctcGgnLCAnNycsICctcGh0JywgJzAuNScsICctbnQn

> <r_epik_Ionization_Penalty>
  0.0124

> <r_epik_Ionization_Penalty_Charging>
  0.0000

> <r_epik_Ionization_Penalty_Neutral>
  0.0124

> <r_epik_State_Penalty>
  0.0096

> <r_epik_Charging_Adjusted_Penalty>
0.00958956781581771

> <i_epik_Tot_Q>
0

> <i_epik_Tot_abs_Q>
0

> <s_epik_Chemistry_Notes>
This compound has an ester and may undergo hydrolysis at high or low pH.

$$$$
