4cpq_ligand
                    3D
 Schrodinger Suite 2020-3.
113115  0  0  1  0            999 V2000
    4.9520   25.0590    0.3430 C   0  0  0  0  0  0
    6.0240   25.6380    0.8980 C   0  0  0  0  0  0
    6.3070   25.3920    2.3790 C   0  0  0  0  0  0
    7.6340   25.0100    2.5460 C   0  0  0  0  0  0
    7.9310   23.7720    3.1020 C   0  0  0  0  0  0
    9.2550   23.3870    3.2770 C   0  0  0  0  0  0
    8.6600   25.8920    2.2280 C   0  0  0  0  0  0
    9.9850   25.5150    2.4230 C   0  0  0  0  0  0
   10.2790   24.2810    2.9900 C   0  0  0  0  0  0
   11.5990   23.9140    3.1980 C   0  0  0  0  0  0
   10.9100   24.3920    5.5670 C   0  0  0  0  0  0
   10.5200   23.3340    6.0570 O   0  0  0  0  0  0
   10.3500   25.5840    5.8370 N   0  0  0  0  0  0
    9.1280   25.6690    6.6600 C   0  0  1  0  0  0
    9.4580   26.1080    8.0960 C   0  0  0  0  0  0
    9.2500   27.6150    8.2500 C   0  0  0  0  0  0
   10.9080   25.7580    8.4400 C   0  0  0  0  0  0
    8.1340   26.6500    6.0250 C   0  0  0  0  0  0
    8.4980   27.7500    5.6130 O   0  0  0  0  0  0
    6.8910   26.1720    5.8730 N   0  0  0  0  0  0
    5.8220   26.9550    5.2360 C   0  0  0  0  0  0
    5.2150   27.9080    6.2630 C   0  0  0  0  0  0
    4.6170   27.3950    7.3470 C   0  0  0  0  0  0
   12.5730   25.7430    4.4500 O   0  0  0  0  0  0
   13.1930   23.4880    5.0430 C   0  0  0  0  0  0
   13.7750   24.0000    6.3600 C   0  0  0  0  0  0
   15.2680   23.6790    6.3890 C   0  0  0  0  0  0
   15.5030   22.3140    6.8850 N   0  0  1  0  0  0
   16.0400   21.6860    6.0490 N   0  0  0  0  0  0
   15.3860   20.6370    5.5190 C   0  0  0  0  0  0
   12.0720   24.4120    4.5670 C   0  0  2  0  0  0
   14.2860   20.2440    5.9100 O   0  0  0  0  0  0
   16.2510   19.7730    4.5890 C   0  0  2  0  0  0
   15.4110   19.1040    3.4920 C   0  0  0  0  0  0
   16.3480   18.3790    2.5240 C   0  0  0  0  0  0
   14.6170   20.1630    2.7240 C   0  0  0  0  0  0
   14.4460   18.0900    4.1110 C   0  0  0  0  0  0
   16.9250   18.7400    5.3880 N   0  0  0  0  0  0
   18.2390   18.8070    5.6430 C   0  0  0  0  0  0
   18.9290   19.6790    5.1130 O   0  0  0  0  0  0
   18.8020   17.9240    6.5150 O   0  0  0  0  0  0
   20.2150   18.1310    6.5910 C   0  0  0  0  0  0
   16.3900   22.4150    8.0540 C   0  0  0  0  0  0
   16.4660   21.2050    8.7300 C   0  0  0  0  0  0
   17.6770   20.5270    8.8110 C   0  0  0  0  0  0
   17.7540   19.3240    9.5040 C   0  0  0  0  0  0
   15.3360   20.6910    9.3560 C   0  0  0  0  0  0
   15.4120   19.4840   10.0400 C   0  0  0  0  0  0
   16.6160   18.7930   10.1030 C   0  0  0  0  0  0
   17.8580   17.2520   11.4800 C   0  0  0  0  0  0
   16.6890   17.5960   10.8070 C   0  0  0  0  0  0
   15.5610   16.7900   10.9180 C   0  0  0  0  0  0
   15.6160   15.6120   11.6710 N   0  0  0  0  0  0
   16.8070   15.2530   12.3170 C   0  0  0  0  0  0
   17.9200   16.0790   12.2230 C   0  0  0  0  0  0
    4.2949   24.4205    0.9517 H   0  0  0  0  0  0
    4.7284   25.2218   -0.7217 H   0  0  0  0  0  0
    6.6811   26.2765    0.2893 H   0  0  0  0  0  0
    6.1194   26.3155    2.9465 H   0  0  0  0  0  0
    5.6483   24.5932    2.7504 H   0  0  0  0  0  0
    7.1250   23.1020    3.4013 H   0  0  0  0  0  0
    9.4894   22.3858    3.6386 H   0  0  0  0  0  0
    8.4268   26.8781    1.8262 H   0  0  0  0  0  0
   10.7919   26.1872    2.1312 H   0  0  0  0  0  0
   11.6848   22.8179    3.1623 H   0  0  0  0  0  0
   12.2307   24.3569    2.4139 H   0  0  0  0  0  0
   10.8100   26.5006    5.4391 H   0  0  0  0  0  0
    8.7038   24.6542    6.6767 H   0  0  0  0  0  0
    8.7858   25.5788    8.7874 H   0  0  0  0  0  0
    8.2084   27.8685    8.0032 H   0  0  0  0  0  0
    9.9287   28.1502    7.5697 H   0  0  0  0  0  0
    9.4632   27.9104    9.2879 H   0  0  0  0  0  0
   11.0596   24.6741    8.3298 H   0  0  0  0  0  0
   11.1204   26.0543    9.4778 H   0  0  0  0  0  0
   11.5859   26.2941    7.7596 H   0  0  0  0  0  0
    6.6833   25.1575    6.2439 H   0  0  0  0  0  0
    6.2401   27.5331    4.3988 H   0  0  0  0  0  0
    5.0439   26.2748    4.8594 H   0  0  0  0  0  0
    5.2623   28.9983    6.1251 H   0  0  0  0  0  0
    4.5697   26.3047    7.4849 H   0  0  0  0  0  0
    4.1734   28.0642    8.0989 H   0  0  0  0  0  0
   11.9079   26.5538    4.1179 H   0  0  0  0  0  0
   13.9842   23.4586    4.2794 H   0  0  0  0  0  0
   12.7876   22.4761    5.1901 H   0  0  0  0  0  0
   13.6239   25.0874    6.4295 H   0  0  0  0  0  0
   13.2686   23.5049    7.2017 H   0  0  0  0  0  0
   15.6805   23.7614    5.3726 H   0  0  0  0  0  0
   15.7830   24.3894    7.0524 H   0  0  0  0  0  0
   17.0524   21.9618    5.7188 H   0  0  0  0  0  0
   17.0218   20.3995    4.1165 H   0  0  0  0  0  0
   17.0441   19.1033    2.0759 H   0  0  0  0  0  0
   15.7560   17.9000    1.7302 H   0  0  0  0  0  0
   16.9175   17.6124    3.0699 H   0  0  0  0  0  0
   15.3114   20.8912    2.2796 H   0  0  0  0  0  0
   13.9343   20.6810    3.4136 H   0  0  0  0  0  0
   14.0346   19.6780    1.9268 H   0  0  0  0  0  0
   15.0177   17.3293    4.6628 H   0  0  0  0  0  0
   13.8635   17.6045    3.3141 H   0  0  0  0  0  0
   13.7632   18.6075    4.8009 H   0  0  0  0  0  0
   16.3499   17.8923    5.7887 H   0  0  0  0  0  0
   20.6535   17.4113    7.2980 H   0  0  0  0  0  0
   20.4174   19.1552    6.9375 H   0  0  0  0  0  0
   20.6609   17.9857    5.5960 H   0  0  0  0  0  0
   17.4006   22.6976    7.7241 H   0  0  0  0  0  0
   16.0023   23.1793    8.7435 H   0  0  0  0  0  0
   18.5654   20.9381    8.3316 H   0  0  0  0  0  0
   18.7054   18.7972    9.5779 H   0  0  0  0  0  0
   14.3920   21.2340    9.3103 H   0  0  0  0  0  0
   14.5257   19.0784   10.5280 H   0  0  0  0  0  0
   18.7286   17.9055   11.4240 H   0  0  0  0  0  0
   14.6351   17.0757   10.4189 H   0  0  0  0  0  0
   16.8597   14.3282   12.8916 H   0  0  0  0  0  0
   18.8440   15.8066   12.7331 H   0  0  0  0  0  0
  1  2  2  0  0  0
  1 56  1  0  0  0
  1 57  1  0  0  0
  2  3  1  0  0  0
  2 58  1  0  0  0
  3  4  1  0  0  0
  3 59  1  0  0  0
  3 60  1  0  0  0
  4  5  2  0  0  0
  4  7  1  0  0  0
  5  6  1  0  0  0
  5 61  1  0  0  0
  6  9  2  0  0  0
  6 62  1  0  0  0
  7  8  2  0  0  0
  7 63  1  0  0  0
  8  9  1  0  0  0
  8 64  1  0  0  0
  9 10  1  0  0  0
 10 31  1  0  0  0
 10 65  1  0  0  0
 10 66  1  0  0  0
 11 12  2  0  0  0
 11 13  1  0  0  0
 11 31  1  0  0  0
 13 14  1  0  0  0
 13 67  1  0  0  0
 14 15  1  0  0  0
 14 18  1  0  0  0
 14 68  1  0  0  0
 15 16  1  0  0  0
 15 17  1  0  0  0
 15 69  1  0  0  0
 16 70  1  0  0  0
 16 71  1  0  0  0
 16 72  1  0  0  0
 17 73  1  0  0  0
 17 74  1  0  0  0
 17 75  1  0  0  0
 18 19  2  0  0  0
 18 20  1  0  0  0
 20 21  1  0  0  0
 20 76  1  0  0  0
 21 22  1  0  0  0
 21 77  1  0  0  0
 21 78  1  0  0  0
 22 23  2  0  0  0
 22 79  1  0  0  0
 23 80  1  0  0  0
 23 81  1  0  0  0
 24 31  1  0  0  0
 24 82  1  0  0  0
 25 26  1  0  0  0
 25 31  1  0  0  0
 25 83  1  0  0  0
 25 84  1  0  0  0
 26 27  1  0  0  0
 26 85  1  0  0  0
 26 86  1  0  0  0
 27 28  1  0  0  0
 27 87  1  0  0  0
 27 88  1  0  0  0
 28 29  1  0  0  0
 28 43  1  0  0  0
 29 30  1  0  0  0
 29 89  1  0  0  0
 30 32  2  0  0  0
 30 33  1  0  0  0
 33 34  1  0  0  0
 33 38  1  0  0  0
 33 90  1  0  0  0
 34 35  1  0  0  0
 34 36  1  0  0  0
 34 37  1  0  0  0
 35 91  1  0  0  0
 35 92  1  0  0  0
 35 93  1  0  0  0
 36 94  1  0  0  0
 36 95  1  0  0  0
 36 96  1  0  0  0
 37 97  1  0  0  0
 37 98  1  0  0  0
 37 99  1  0  0  0
 38 39  1  0  0  0
 38100  1  0  0  0
 39 40  2  0  0  0
 39 41  1  0  0  0
 41 42  1  0  0  0
 42101  1  0  0  0
 42102  1  0  0  0
 42103  1  0  0  0
 43 44  1  0  0  0
 43104  1  0  0  0
 43105  1  0  0  0
 44 45  2  0  0  0
 44 47  1  0  0  0
 45 46  1  0  0  0
 45106  1  0  0  0
 46 49  2  0  0  0
 46107  1  0  0  0
 47 48  2  0  0  0
 47108  1  0  0  0
 48 49  1  0  0  0
 48109  1  0  0  0
 49 51  1  0  0  0
 50 51  2  0  0  0
 50 55  1  0  0  0
 50110  1  0  0  0
 51 52  1  0  0  0
 52 53  2  0  0  0
 52111  1  0  0  0
 53 54  1  0  0  0
 54 55  2  0  0  0
 54112  1  0  0  0
 55113  1  0  0  0
M  END
> <s_m_source_file>
../4cpq_ligand.sdf

> <i_m_source_file_index>
1

> <s_epik_input>
W0NIMl09W0NIXVtDSDJdYzFbY0hdW2NIXWMoW2NIXVtjSF0xKVtDSDJdW0NAQF0oW09IXSkoQyg9TylbTkhdW0NAQEhdKFtDSF0oW0NIM10pW0NIM10pQyg9TylbTkhdW0NIMl1bQ0hdPVtDSDJdKVtDSDJdW0NIMl1bQ0gyXVtOQEBIK10oW05IXUMoPU8pW0NASF0oQyhbQ0gzXSkoW0NIM10pW0NIM10pW05IXUMoPU8pT1tDSDNdKVtDSDJdYzJbY0hdW2NIXWMoW2NIXVtjSF0yKS1jM1tjSF1bY0hdW2NIXW5bY0hdMw==

> <s_epik_cmdline>
J2VwaWtfYXBwJywgJy1pbWFlJywgJ2xpZ2FuZF9wcm8ubWFlJywgJy1vbWFlJywgJ2xpZ2FuZF9wcmVwLm1hZScsICctbXMnLCAnMScsICctcGgnLCAnNycsICctcGh0JywgJzAuNScsICctbnQn

> <r_lp_tautomer_probability>
1

> <r_epik_Ionization_Penalty>
  0.0058

> <r_epik_Ionization_Penalty_Charging>
  0.0000

> <r_epik_Ionization_Penalty_Neutral>
  0.0058

> <r_epik_State_Penalty>
 -0.0000

> <r_epik_Charging_Adjusted_Penalty>
0

> <i_epik_Tot_Q>
0

> <i_epik_Tot_abs_Q>
0

> <s_epik_Chemistry_Notes>
This compound has an ester and may undergo hydrolysis at high or low pH.

$$$$
