4cpr_ligand
                    3D
 Schrodinger Suite 2020-3.
111113  0  0  1  0            999 V2000
    7.9440   26.6820    5.8230 C   0  0  0  0  0  0
   10.1670   25.6040    5.7500 N   0  0  0  0  0  0
    8.3120   27.7760    5.3940 O   0  0  0  0  0  0
    8.9170   25.7210    6.5260 C   0  0  1  0  0  0
    9.1990   26.1870    7.9670 C   0  0  0  0  0  0
    5.0230   27.4490    7.3000 C   0  0  0  0  0  0
    4.5640   25.7740    0.7220 C   0  0  0  0  0  0
   19.4830   17.9600    7.2560 C   0  0  0  0  0  0
   14.4320   17.9290    4.0150 C   0  0  0  0  0  0
   16.4290   18.3610    2.5790 C   0  0  0  0  0  0
   14.5880   20.0530    2.7040 C   0  0  0  0  0  0
   18.7590   19.3550    4.9480 O   0  0  0  0  0  0
   16.1600   16.2440   10.8280 S   0  0  0  0  0  0
   13.9400   20.2750    5.5780 O   0  0  0  0  0  0
   10.2900   23.3550    5.9850 O   0  0  0  0  0  0
   12.4700   25.7160    4.4780 O   0  0  0  0  0  0
    5.0550   27.8670    6.0250 C   0  0  0  0  0  0
    5.7600   25.7140    1.3210 C   0  0  0  0  0  0
   17.2890   20.6640    8.7450 C   0  0  0  0  0  0
   15.9480   21.0310    8.7650 C   0  0  0  0  0  0
   17.6970   19.4830    9.3560 C   0  0  0  0  0  0
   15.5420   22.2320    8.1920 C   0  0  0  0  0  0
    7.9660   23.1560    2.8450 C   0  0  0  0  0  0
    8.3190   25.4360    2.1680 C   0  0  0  0  0  0
    9.3310   23.0030    3.0600 C   0  0  0  0  0  0
    9.6840   25.2850    2.3920 C   0  0  0  0  0  0
   17.1670   17.5340   10.5720 C   0  0  0  0  0  0
   18.2800   17.4190   11.3150 C   0  0  0  0  0  0
   16.7720   18.6800   10.0150 C   0  0  0  0  0  0
    5.6610   26.9530    4.9590 C   0  0  0  0  0  0
   13.6630   24.0770    6.2970 C   0  0  0  0  0  0
    6.0820   24.4940    2.1860 C   0  0  0  0  0  0
   15.0850   23.5280    6.3850 C   0  0  0  0  0  0
   12.9700   23.4430    5.0920 C   0  0  0  0  0  0
   17.3870   15.3230   11.7880 C   0  0  0  0  0  0
   11.5440   23.9390    3.1190 C   0  0  0  0  0  0
    6.7390   26.1580    5.5630 N   0  0  0  0  0  0
   16.7330   18.6450    5.5020 N   0  0  0  0  0  0
   15.7510   21.4690    6.2810 N   0  0  0  0  0  0
   18.6420   17.4820    6.2000 O   0  0  0  0  0  0
   18.0650   18.5270    5.5380 C   0  0  0  0  0  0
   15.1440   20.5290    5.5290 C   0  0  0  0  0  0
   10.6810   24.3970    5.4590 C   0  0  0  0  0  0
    7.4600   24.3590    2.3630 C   0  0  0  0  0  0
   18.4750   16.2060   11.8800 C   0  0  0  0  0  0
   10.1810   24.0890    2.8980 C   0  0  0  0  0  0
   15.0260   20.2430    9.4450 C   0  0  0  0  0  0
   15.4320   19.0510   10.0370 C   0  0  0  0  0  0
   16.1030   19.6830    4.6720 C   0  0  2  0  0  0
   15.0740   22.1690    6.9460 N   0  0  1  0  0  0
   15.3830   19.0100    3.4950 C   0  0  0  0  0  0
   11.9150   24.4000    4.5380 C   0  0  2  0  0  0
    9.0920   27.7150    8.0800 C   0  0  0  0  0  0
   10.5970   25.7340    8.4010 C   0  0  0  0  0  0
   10.6866   26.5098    5.4043 H   0  0  0  0  0  0
    8.4854   24.7096    6.5553 H   0  0  0  0  0  0
    8.4487   25.7341    8.6318 H   0  0  0  0  0  0
    5.4290   26.4618    7.5655 H   0  0  0  0  0  0
    4.5907   28.0937    8.0795 H   0  0  0  0  0  0
    3.8394   24.9576    0.8576 H   0  0  0  0  0  0
    4.3061   26.6397    0.0943 H   0  0  0  0  0  0
   19.9386   17.1052    7.7773 H   0  0  0  0  0  0
   18.8816   18.5452    7.9673 H   0  0  0  0  0  0
   20.2747   18.5968    6.8345 H   0  0  0  0  0  0
   13.9202   17.4518    3.1663 H   0  0  0  0  0  0
   13.6868   18.3864    4.6824 H   0  0  0  0  0  0
   15.0057   17.1721    4.5700 H   0  0  0  0  0  0
   15.9233   17.8754    1.7314 H   0  0  0  0  0  0
   16.9974   17.6094    3.1464 H   0  0  0  0  0  0
   17.1162   19.1330    2.2025 H   0  0  0  0  0  0
   14.0755   19.5630    1.8631 H   0  0  0  0  0  0
   15.2739   20.8214    2.3179 H   0  0  0  0  0  0
   13.8436   20.5238    3.3630 H   0  0  0  0  0  0
   13.3619   25.9093    3.8638 H   0  0  0  0  0  0
    4.6490   28.8542    5.7595 H   0  0  0  0  0  0
    6.4846   26.5304    1.1854 H   0  0  0  0  0  0
   18.0210   21.3023    8.2501 H   0  0  0  0  0  0
   18.7450   19.1858    9.3183 H   0  0  0  0  0  0
   14.7330   22.6707    8.7946 H   0  0  0  0  0  0
   16.3929   22.9283    8.1581 H   0  0  0  0  0  0
    7.2883   22.3286    3.0553 H   0  0  0  0  0  0
    7.9231   26.3971    1.8401 H   0  0  0  0  0  0
    9.7327   22.0336    3.3548 H   0  0  0  0  0  0
   10.3654   26.1064    2.1703 H   0  0  0  0  0  0
   18.9772   18.2455   11.4529 H   0  0  0  0  0  0
    4.8828   26.2825    4.5655 H   0  0  0  0  0  0
    6.0669   27.5643    4.1395 H   0  0  0  0  0  0
   13.1159   23.8273    7.2181 H   0  0  0  0  0  0
   13.6986   25.1698    6.1766 H   0  0  0  0  0  0
    5.6083   24.6084    3.1721 H   0  0  0  0  0  0
    5.6975   23.5864    1.6976 H   0  0  0  0  0  0
   15.5291   23.4975    5.3791 H   0  0  0  0  0  0
   15.6899   24.1790    7.0333 H   0  0  0  0  0  0
   13.7145   23.2309    4.3105 H   0  0  0  0  0  0
   12.4843   22.5053    5.3998 H   0  0  0  0  0  0
   17.3014   14.3171   12.1991 H   0  0  0  0  0  0
   11.8197   22.8803    3.0044 H   0  0  0  0  0  0
   12.1025   24.5443    2.3898 H   0  0  0  0  0  0
    6.5680   25.1010    5.8149 H   0  0  0  0  0  0
   16.1084   17.9619    6.0964 H   0  0  0  0  0  0
   16.8439   21.5939    6.2868 H   0  0  0  0  0  0
   19.4091   15.9334   12.3713 H   0  0  0  0  0  0
   13.9851   20.5591    9.5143 H   0  0  0  0  0  0
   14.6975   18.4061   10.5194 H   0  0  0  0  0  0
   16.8976   20.3382    4.2857 H   0  0  0  0  0  0
    8.0874   28.0363    7.7677 H   0  0  0  0  0  0
    9.8455   28.1843    7.4304 H   0  0  0  0  0  0
    9.2665   28.0186    9.1228 H   0  0  0  0  0  0
   10.6698   24.6395    8.3187 H   0  0  0  0  0  0
   10.7729   26.0358    9.4441 H   0  0  0  0  0  0
   11.3519   26.2015    7.7517 H   0  0  0  0  0  0
  1  3  2  0  0  0
  1  4  1  0  0  0
  1 37  1  0  0  0
  2  4  1  0  0  0
  2 43  1  0  0  0
  2 55  1  0  0  0
  4  5  1  0  0  0
  4 56  1  0  0  0
  5 53  1  0  0  0
  5 54  1  0  0  0
  5 57  1  0  0  0
  6 17  2  0  0  0
  6 58  1  0  0  0
  6 59  1  0  0  0
  7 18  2  0  0  0
  7 60  1  0  0  0
  7 61  1  0  0  0
  8 40  1  0  0  0
  8 62  1  0  0  0
  8 63  1  0  0  0
  8 64  1  0  0  0
  9 51  1  0  0  0
  9 65  1  0  0  0
  9 66  1  0  0  0
  9 67  1  0  0  0
 10 51  1  0  0  0
 10 68  1  0  0  0
 10 69  1  0  0  0
 10 70  1  0  0  0
 11 51  1  0  0  0
 11 71  1  0  0  0
 11 72  1  0  0  0
 11 73  1  0  0  0
 12 41  2  0  0  0
 13 27  1  0  0  0
 13 35  1  0  0  0
 14 42  2  0  0  0
 15 43  2  0  0  0
 16 52  1  0  0  0
 16 74  1  0  0  0
 17 30  1  0  0  0
 17 75  1  0  0  0
 18 32  1  0  0  0
 18 76  1  0  0  0
 19 20  2  0  0  0
 19 21  1  0  0  0
 19 77  1  0  0  0
 20 22  1  0  0  0
 20 47  1  0  0  0
 21 29  2  0  0  0
 21 78  1  0  0  0
 22 50  1  0  0  0
 22 79  1  0  0  0
 22 80  1  0  0  0
 23 25  2  0  0  0
 23 44  1  0  0  0
 23 81  1  0  0  0
 24 26  1  0  0  0
 24 44  2  0  0  0
 24 82  1  0  0  0
 25 46  1  0  0  0
 25 83  1  0  0  0
 26 46  2  0  0  0
 26 84  1  0  0  0
 27 28  2  0  0  0
 27 29  1  0  0  0
 28 45  1  0  0  0
 28 85  1  0  0  0
 29 48  1  0  0  0
 30 37  1  0  0  0
 30 86  1  0  0  0
 30 87  1  0  0  0
 31 33  1  0  0  0
 31 34  1  0  0  0
 31 88  1  0  0  0
 31 89  1  0  0  0
 32 44  1  0  0  0
 32 90  1  0  0  0
 32 91  1  0  0  0
 33 50  1  0  0  0
 33 92  1  0  0  0
 33 93  1  0  0  0
 34 52  1  0  0  0
 34 94  1  0  0  0
 34 95  1  0  0  0
 35 45  2  0  0  0
 35 96  1  0  0  0
 36 46  1  0  0  0
 36 52  1  0  0  0
 36 97  1  0  0  0
 36 98  1  0  0  0
 37 99  1  0  0  0
 38 41  1  0  0  0
 38 49  1  0  0  0
 38100  1  0  0  0
 39 42  1  0  0  0
 39 50  1  0  0  0
 39101  1  0  0  0
 40 41  1  0  0  0
 42 49  1  0  0  0
 43 52  1  0  0  0
 45102  1  0  0  0
 47 48  2  0  0  0
 47103  1  0  0  0
 48104  1  0  0  0
 49 51  1  0  0  0
 49105  1  0  0  0
 53106  1  0  0  0
 53107  1  0  0  0
 53108  1  0  0  0
 54109  1  0  0  0
 54110  1  0  0  0
 54111  1  0  0  0
M  END
> <s_m_source_file>
../4cpr_ligand.sdf

> <i_m_source_file_index>
1

> <s_epik_input>
W0NIMl09W0NIXVtDSDJdW05IXUMoPU8pW0NASF0oW0NIXShbQ0gzXSlbQ0gzXSlbTkhdQyg9TylbQ0BdKFtPSF0pKFtDSDJdYyhbY0hdW2NIXTEpW2NIXVtjSF1jMVtDSDJdW0NIXT1bQ0gyXSlbQ0gyXVtDSDJdW0NIMl1bTkBASCtdKFtOSF1DKD1PKVtDQEhdKEMoW0NIM10pKFtDSDNdKVtDSDNdKVtOSF1DKD1PKU9bQ0gzXSlbQ0gyXWMyW2NIXVtjSF1jKFtjSF1bY0hdMiktYzNzW2NIXVtjSF1bY0hdMw==

> <s_epik_cmdline>
J2VwaWtfYXBwJywgJy1pbWFlJywgJ2xpZ2FuZF9wcm8ubWFlJywgJy1vbWFlJywgJ2xpZ2FuZF9wcmVwLm1hZScsICctbXMnLCAnMScsICctcGgnLCAnNycsICctcGh0JywgJzAuNScsICctbnQn

> <r_lp_tautomer_probability>
1

> <r_epik_Ionization_Penalty>
  0.0000

> <r_epik_Ionization_Penalty_Charging>
  0.0000

> <r_epik_Ionization_Penalty_Neutral>
  0.0000

> <r_epik_State_Penalty>
 -0.0000

> <r_epik_Charging_Adjusted_Penalty>
0

> <i_epik_Tot_Q>
0

> <i_epik_Tot_abs_Q>
0

> <s_epik_Chemistry_Notes>
This compound has an ester and may undergo hydrolysis at high or low pH.

$$$$
