4cps_ligand
                    3D
 Schrodinger Suite 2020-3.
107110  0  0  1  0            999 V2000
    7.8720   23.5280    2.8200 C   0  0  0  0  0  0
    9.1330   23.0550    3.1690 C   0  0  0  0  0  0
   10.2630   23.8370    2.9470 C   0  0  0  0  0  0
   11.5230   23.3880    3.3480 C   0  0  0  0  0  0
   10.1350   25.0450    2.2790 C   0  0  0  0  0  0
    8.8720   25.5240    1.9470 C   0  0  0  0  0  0
    7.7380   24.7500    2.1670 C   0  0  0  0  0  0
    6.4790   25.2650    1.8310 C   0  0  0  0  0  0
    5.4930   24.8520    2.7320 C   0  0  0  0  0  0
    5.1690   25.5980    3.8690 C   0  0  0  0  0  0
    6.0450   26.5420    4.4170 C   0  0  0  0  0  0
    6.9670   25.8690    5.3620 N   0  0  0  0  0  0
    8.1590   26.4880    5.7470 C   0  0  0  0  0  0
    8.3950   27.6030    5.2650 O   0  0  0  0  0  0
    9.1210   25.7190    6.4490 C   0  0  2  0  0  0
    9.3800   26.2810    7.8670 C   0  0  0  0  0  0
   10.6920   25.7250    8.4340 C   0  0  0  0  0  0
    9.4320   27.8110    7.8620 C   0  0  0  0  0  0
   10.3750   25.5710    5.6580 N   0  0  0  0  0  0
   11.0040   24.3280    5.5260 C   0  0  0  0  0  0
   10.5770   23.3710    6.1860 O   0  0  0  0  0  0
   12.0320   24.1730    4.5720 C   0  0  2  0  0  0
   12.4920   25.4640    4.1380 O   0  0  0  0  0  0
   13.2300   23.4130    5.1570 C   0  0  0  0  0  0
   13.7190   24.0740    6.4510 C   0  0  0  0  0  0
   15.1740   23.6720    6.7030 C   0  0  0  0  0  0
   15.2830   22.2760    7.1350 N   0  0  1  0  0  0
   15.8670   21.6560    6.2960 N   0  0  0  0  0  0
   15.2300   20.6410    5.6720 C   0  0  0  0  0  0
   14.0940   20.2550    5.9690 O   0  0  0  0  0  0
   16.1730   19.7700    4.8210 C   0  0  2  0  0  0
   15.4710   19.0860    3.6490 C   0  0  0  0  0  0
   14.6080   17.9250    4.1600 C   0  0  0  0  0  0
   16.5220   18.5440    2.6870 C   0  0  0  0  0  0
   14.5740   20.0780    2.9230 C   0  0  0  0  0  0
   16.8270   18.7550    5.6590 N   0  0  0  0  0  0
   18.1550   18.7120    5.7440 C   0  0  0  0  0  0
   18.8340   19.4630    5.0390 O   0  0  0  0  0  0
   18.7370   17.7980    6.5700 O   0  0  0  0  0  0
   20.0130   18.2430    7.0370 C   0  0  0  0  0  0
   16.0200   22.2590    8.4060 C   0  0  0  0  0  0
   16.2210   20.9640    8.8820 C   0  0  0  0  0  0
   17.5140   20.4740    9.0000 C   0  0  0  0  0  0
   17.7470   19.2380    9.5920 C   0  0  0  0  0  0
   15.1630   20.2320    9.4030 C   0  0  0  0  0  0
   15.3880   18.9660    9.9370 C   0  0  0  0  0  0
   16.6780   18.4530   10.0090 C   0  0  0  0  0  0
   15.8710   16.4540   11.1020 C   0  0  0  0  0  0
   16.9200   17.2070   10.5870 C   0  0  0  0  0  0
   18.2190   16.7100   10.6410 C   0  0  0  0  0  0
   18.4800   15.4870   11.2490 C   0  0  0  0  0  0
   17.4350   14.7610   11.8280 N   0  0  0  0  0  0
   16.1270   15.2550   11.7590 C   0  0  0  0  0  0
    6.9860   22.9397    3.0587 H   0  0  0  0  0  0
    9.2366   22.0674    3.6184 H   0  0  0  0  0  0
   11.4648   22.3224    3.6146 H   0  0  0  0  0  0
   12.2392   23.5211    2.5237 H   0  0  0  0  0  0
   11.0231   25.6188    2.0142 H   0  0  0  0  0  0
    8.7701   26.5171    1.5095 H   0  0  0  0  0  0
    6.5179   26.3643    1.8410 H   0  0  0  0  0  0
    6.1968   24.9173    0.8263 H   0  0  0  0  0  0
    4.9662   23.9089    2.5244 H   0  0  0  0  0  0
    4.1975   25.4524    4.3639 H   0  0  0  0  0  0
    6.6259   27.0143    3.6111 H   0  0  0  0  0  0
    5.4679   27.3106    4.9520 H   0  0  0  0  0  0
    6.7145   24.8768    5.7643 H   0  0  0  0  0  0
    8.6573   24.7235    6.5121 H   0  0  0  0  0  0
    8.5459   25.9700    8.5132 H   0  0  0  0  0  0
   10.6534   24.6257    8.4371 H   0  0  0  0  0  0
   10.8308   26.0899    9.4624 H   0  0  0  0  0  0
   11.5328   26.0606    7.8092 H   0  0  0  0  0  0
    8.4905   28.2085    7.4551 H   0  0  0  0  0  0
   10.2725   28.1473    7.2370 H   0  0  0  0  0  0
    9.5704   28.1765    8.8902 H   0  0  0  0  0  0
   10.8215   26.4476    5.1658 H   0  0  0  0  0  0
   11.7864   26.1752    3.6838 H   0  0  0  0  0  0
   12.9340   22.3772    5.3793 H   0  0  0  0  0  0
   14.0540   23.4105    4.4283 H   0  0  0  0  0  0
   13.6499   25.1674    6.3530 H   0  0  0  0  0  0
   13.0931   23.7410    7.2921 H   0  0  0  0  0  0
   15.7539   23.7941    5.7763 H   0  0  0  0  0  0
   15.6004   24.3122    7.4893 H   0  0  0  0  0  0
   16.9057   21.9155    6.0435 H   0  0  0  0  0  0
   16.9567   20.4248    4.4122 H   0  0  0  0  0  0
   15.2446   17.1995    4.6875 H   0  0  0  0  0  0
   14.1168   17.4310    3.3087 H   0  0  0  0  0  0
   13.8439   18.3122    4.8501 H   0  0  0  0  0  0
   17.1681   17.8276    3.2155 H   0  0  0  0  0  0
   17.1324   19.3753    2.3045 H   0  0  0  0  0  0
   16.0239   18.0380    1.8469 H   0  0  0  0  0  0
   13.8173   20.4666    3.6204 H   0  0  0  0  0  0
   14.0739   19.5736    2.0831 H   0  0  0  0  0  0
   15.1824   20.9109    2.5407 H   0  0  0  0  0  0
   16.2191   18.0284    6.2180 H   0  0  0  0  0  0
   20.4480   17.4794    7.6985 H   0  0  0  0  0  0
   19.8920   19.1842    7.5933 H   0  0  0  0  0  0
   20.6806   18.4077    6.1784 H   0  0  0  0  0  0
   17.0052   22.7275    8.2648 H   0  0  0  0  0  0
   15.4538   22.8178    9.1657 H   0  0  0  0  0  0
   18.3522   21.0620    8.6261 H   0  0  0  0  0  0
   18.7687   18.8840    9.7294 H   0  0  0  0  0  0
   14.1557   20.6484    9.3941 H   0  0  0  0  0  0
   14.5481   18.3739   10.3006 H   0  0  0  0  0  0
   14.8448   16.8042   10.9906 H   0  0  0  0  0  0
   19.0368   17.2830   10.2040 H   0  0  0  0  0  0
   19.4969   15.0953   11.2741 H   0  0  0  0  0  0
   15.3096   14.7004   12.2199 H   0  0  0  0  0  0
  1  2  2  0  0  0
  1  7  1  0  0  0
  1 54  1  0  0  0
  2  3  1  0  0  0
  2 55  1  0  0  0
  3  4  1  0  0  0
  3  5  2  0  0  0
  4 22  1  0  0  0
  4 56  1  0  0  0
  4 57  1  0  0  0
  5  6  1  0  0  0
  5 58  1  0  0  0
  6  7  2  0  0  0
  6 59  1  0  0  0
  7  8  1  0  0  0
  8  9  1  0  0  0
  8 60  1  0  0  0
  8 61  1  0  0  0
  9 10  2  0  0  0
  9 62  1  0  0  0
 10 11  1  0  0  0
 10 63  1  0  0  0
 11 12  1  0  0  0
 11 64  1  0  0  0
 11 65  1  0  0  0
 12 13  1  0  0  0
 12 66  1  0  0  0
 13 14  2  0  0  0
 13 15  1  0  0  0
 15 16  1  0  0  0
 15 19  1  0  0  0
 15 67  1  0  0  0
 16 17  1  0  0  0
 16 18  1  0  0  0
 16 68  1  0  0  0
 17 69  1  0  0  0
 17 70  1  0  0  0
 17 71  1  0  0  0
 18 72  1  0  0  0
 18 73  1  0  0  0
 18 74  1  0  0  0
 19 20  1  0  0  0
 19 75  1  0  0  0
 20 21  2  0  0  0
 20 22  1  0  0  0
 22 23  1  0  0  0
 22 24  1  0  0  0
 23 76  1  0  0  0
 24 25  1  0  0  0
 24 77  1  0  0  0
 24 78  1  0  0  0
 25 26  1  0  0  0
 25 79  1  0  0  0
 25 80  1  0  0  0
 26 27  1  0  0  0
 26 81  1  0  0  0
 26 82  1  0  0  0
 27 28  1  0  0  0
 27 41  1  0  0  0
 28 29  1  0  0  0
 28 83  1  0  0  0
 29 30  2  0  0  0
 29 31  1  0  0  0
 31 32  1  0  0  0
 31 36  1  0  0  0
 31 84  1  0  0  0
 32 33  1  0  0  0
 32 34  1  0  0  0
 32 35  1  0  0  0
 33 85  1  0  0  0
 33 86  1  0  0  0
 33 87  1  0  0  0
 34 88  1  0  0  0
 34 89  1  0  0  0
 34 90  1  0  0  0
 35 91  1  0  0  0
 35 92  1  0  0  0
 35 93  1  0  0  0
 36 37  1  0  0  0
 36 94  1  0  0  0
 37 38  2  0  0  0
 37 39  1  0  0  0
 39 40  1  0  0  0
 40 95  1  0  0  0
 40 96  1  0  0  0
 40 97  1  0  0  0
 41 42  1  0  0  0
 41 98  1  0  0  0
 41 99  1  0  0  0
 42 43  2  0  0  0
 42 45  1  0  0  0
 43 44  1  0  0  0
 43100  1  0  0  0
 44 47  2  0  0  0
 44101  1  0  0  0
 45 46  2  0  0  0
 45102  1  0  0  0
 46 47  1  0  0  0
 46103  1  0  0  0
 47 49  1  0  0  0
 48 49  2  0  0  0
 48 53  1  0  0  0
 48104  1  0  0  0
 49 50  1  0  0  0
 50 51  2  0  0  0
 50105  1  0  0  0
 51 52  1  0  0  0
 51106  1  0  0  0
 52 53  2  0  0  0
 53107  1  0  0  0
M  END
> <s_m_source_file>
../4cps_ligand.sdf

> <i_m_source_file_index>
1

> <s_epik_input>
YzEyW2NIXVtjSF1jKFtjSF1bY0hdMilbQ0gyXS9bQ0hdPVtDSF1cW0NIMl1bTkhdQyg9TylbQ0BIXShbQ0hdKFtDSDNdKVtDSDNdKVtOSF1DKD1PKVtDQEBdKFtDSDJdMSkoW09IXSlbQ0gyXVtDSDJdW0NIMl1bTkBASCtdKFtOSF1DKD1PKVtDQEhdKEMoW0NIM10pKFtDSDNdKVtDSDNdKVtOSF1DKD1PKU9bQ0gzXSlbQ0gyXWMzW2NIXVtjSF1jKFtjSF1bY0hdMyktYzRbY0hdW2NIXW5bY0hdW2NIXTQ=

> <s_epik_cmdline>
J2VwaWtfYXBwJywgJy1pbWFlJywgJ2xpZ2FuZF9wcm8ubWFlJywgJy1vbWFlJywgJ2xpZ2FuZF9wcmVwLm1hZScsICctbXMnLCAnMScsICctcGgnLCAnNycsICctcGh0JywgJzAuNScsICctbnQn

> <r_epik_Ionization_Penalty>
  0.0124

> <r_epik_Ionization_Penalty_Charging>
  0.0000

> <r_epik_Ionization_Penalty_Neutral>
  0.0124

> <r_epik_State_Penalty>
  0.0096

> <r_epik_Charging_Adjusted_Penalty>
0.00958956781581771

> <i_epik_Tot_Q>
0

> <i_epik_Tot_abs_Q>
0

> <s_epik_Chemistry_Notes>
This compound has an ester and may undergo hydrolysis at high or low pH.

$$$$
