4cpt_ligand
                    3D
 Schrodinger Suite 2020-3.
107110  0  0  1  0            999 V2000
    7.8350   23.4840    2.7730 C   0  0  0  0  0  0
    9.0990   23.0340    3.1410 C   0  0  0  0  0  0
   10.2220   23.8290    2.9230 C   0  0  0  0  0  0
   11.4750   23.4640    3.4340 C   0  0  0  0  0  0
   10.0680   25.0370    2.2540 C   0  0  0  0  0  0
    8.8020   25.4970    1.9090 C   0  0  0  0  0  0
    7.6760   24.7220    2.1540 C   0  0  0  0  0  0
    6.4140   25.2120    1.7890 C   0  0  0  0  0  0
    5.4170   24.8740    2.7070 C   0  0  0  0  0  0
    5.1920   25.5620    3.9040 C   0  0  0  0  0  0
    6.0780   26.5090    4.4230 C   0  0  0  0  0  0
    6.9930   25.8500    5.3840 N   0  0  0  0  0  0
    8.2080   26.4520    5.7240 C   0  0  0  0  0  0
    8.4740   27.5340    5.1960 O   0  0  0  0  0  0
    9.1690   25.7330    6.4700 C   0  0  2  0  0  0
    9.5330   26.5320    7.7300 C   0  0  0  0  0  0
    8.2790   26.7280    8.5880 C   0  0  0  0  0  0
   10.6040   25.7920    8.5380 C   0  0  0  0  0  0
   10.3730   25.5260    5.6250 N   0  0  0  0  0  0
   11.0380   24.2960    5.5340 C   0  0  0  0  0  0
   10.5840   23.3230    6.1440 O   0  0  0  0  0  0
   12.0230   24.1550    4.5400 C   0  0  2  0  0  0
   12.4380   25.4660    4.1210 O   0  0  0  0  0  0
   13.2760   23.4260    5.0700 C   0  0  0  0  0  0
   13.6300   23.9230    6.4840 C   0  0  0  0  0  0
   15.1290   23.7600    6.7790 C   0  0  0  0  0  0
   15.4910   22.3770    7.1440 N   0  0  1  0  0  0
   15.8930   21.6160    6.2070 N   0  0  0  0  0  0
   15.3770   20.5260    5.6070 C   0  0  0  0  0  0
   14.0710   20.1770    6.0640 O   0  0  0  0  0  0
   16.1520   19.7380    4.8150 C   0  0  2  0  0  0
   15.4770   18.9870    3.6540 C   0  0  0  0  0  0
   14.5890   17.8600    4.1950 C   0  0  0  0  0  0
   14.6280   19.9550    2.8320 C   0  0  0  0  0  0
   16.5510   18.3710    2.7590 C   0  0  0  0  0  0
   16.8510   18.7510    5.6530 N   0  0  0  0  0  0
   18.1810   18.7530    5.7890 C   0  0  0  0  0  0
   18.8780   19.5100    5.1070 O   0  0  0  0  0  0
   18.7450   17.9010    6.6900 O   0  0  0  0  0  0
   20.1590   18.0940    6.7910 C   0  0  0  0  0  0
   16.1380   22.1990    8.3200 C   0  0  0  0  0  0
   16.2400   20.9050    8.8360 C   0  0  0  0  0  0
   17.4810   20.2900    8.9720 C   0  0  0  0  0  0
   17.6050   19.0590    9.6220 C   0  0  0  0  0  0
   15.1560   20.3580    9.5030 C   0  0  0  0  0  0
   15.2670   19.1190   10.1230 C   0  0  0  0  0  0
   16.4880   18.4660   10.1990 C   0  0  0  0  0  0
   16.5690   17.2360   10.8560 C   0  0  0  0  0  0
   17.6830   16.9280   11.6280 C   0  0  0  0  0  0
   17.7250   15.7470   12.3620 C   0  0  0  0  0  0
   16.6270   14.8970   12.3850 C   0  0  0  0  0  0
   15.4650   15.2460   11.6900 N   0  0  0  0  0  0
   15.4470   16.4150   10.9170 C   0  0  0  0  0  0
    6.9615   22.8626    2.9707 H   0  0  0  0  0  0
    9.2113   22.0531    3.6029 H   0  0  0  0  0  0
   11.4438   22.4163    3.7677 H   0  0  0  0  0  0
   12.2378   23.5764    2.6495 H   0  0  0  0  0  0
   10.9467   25.6288    1.9976 H   0  0  0  0  0  0
    8.6923   26.4756    1.4416 H   0  0  0  0  0  0
    6.4520   26.3093    1.7224 H   0  0  0  0  0  0
    6.1272   24.7951    0.8123 H   0  0  0  0  0  0
    4.7890   24.0105    2.4426 H   0  0  0  0  0  0
    4.2797   25.3676    4.4870 H   0  0  0  0  0  0
    6.6625   26.9522    3.6033 H   0  0  0  0  0  0
    5.5107   27.2986    4.9375 H   0  0  0  0  0  0
    6.7171   24.8841    5.8323 H   0  0  0  0  0  0
    8.7185   24.7600    6.7157 H   0  0  0  0  0  0
    9.9326   27.5130    7.4334 H   0  0  0  0  0  0
    7.5139   27.2595    8.0031 H   0  0  0  0  0  0
    8.5340   27.3183    9.4805 H   0  0  0  0  0  0
    7.8888   25.7469    8.8965 H   0  0  0  0  0  0
   11.5016   25.6542    7.9173 H   0  0  0  0  0  0
   10.2170   24.8096    8.8464 H   0  0  0  0  0  0
   10.8622   26.3810    9.4304 H   0  0  0  0  0  0
   10.7805   26.3598    5.0346 H   0  0  0  0  0  0
   11.7017   26.1690    3.7044 H   0  0  0  0  0  0
   13.0815   22.3440    5.1094 H   0  0  0  0  0  0
   14.1254   23.6217    4.3990 H   0  0  0  0  0  0
   13.3713   24.9884    6.5736 H   0  0  0  0  0  0
   13.0637   23.3443    7.2286 H   0  0  0  0  0  0
   15.7104   24.0359    5.8869 H   0  0  0  0  0  0
   15.4110   24.4142    7.6172 H   0  0  0  0  0  0
   16.8594   21.8088    5.7183 H   0  0  0  0  0  0
   16.7881   20.5427    4.4177 H   0  0  0  0  0  0
   13.8089   18.2867    4.8426 H   0  0  0  0  0  0
   15.2031   17.1560    4.7758 H   0  0  0  0  0  0
   14.1180   17.3289    3.3547 H   0  0  0  0  0  0
   13.8538   20.4000    3.4743 H   0  0  0  0  0  0
   14.1496   19.4111    2.0042 H   0  0  0  0  0  0
   15.2693   20.7510    2.4256 H   0  0  0  0  0  0
   17.1639   17.6734    3.3487 H   0  0  0  0  0  0
   17.1911   19.1680    2.3527 H   0  0  0  0  0  0
   16.0714   17.8281    1.9312 H   0  0  0  0  0  0
   16.2776   17.9815    6.1907 H   0  0  0  0  0  0
   20.5737   17.3889    7.5264 H   0  0  0  0  0  0
   20.3662   19.1249    7.1141 H   0  0  0  0  0  0
   20.6242   17.9167    5.8101 H   0  0  0  0  0  0
   17.1776   22.5449    8.2225 H   0  0  0  0  0  0
   15.6320   22.7761    9.1079 H   0  0  0  0  0  0
   18.3686   20.7751    8.5659 H   0  0  0  0  0  0
   18.5752   18.5651    9.6764 H   0  0  0  0  0  0
   14.2120   20.9016    9.5418 H   0  0  0  0  0  0
   14.3814   18.6538   10.5558 H   0  0  0  0  0  0
   18.5283   17.6155   11.6585 H   0  0  0  0  0  0
   18.6237   15.4876   12.9216 H   0  0  0  0  0  0
   16.6709   13.9615   12.9426 H   0  0  0  0  0  0
   14.5489   16.6827   10.3603 H   0  0  0  0  0  0
  1  2  2  0  0  0
  1  7  1  0  0  0
  1 54  1  0  0  0
  2  3  1  0  0  0
  2 55  1  0  0  0
  3  4  1  0  0  0
  3  5  2  0  0  0
  4 22  1  0  0  0
  4 56  1  0  0  0
  4 57  1  0  0  0
  5  6  1  0  0  0
  5 58  1  0  0  0
  6  7  2  0  0  0
  6 59  1  0  0  0
  7  8  1  0  0  0
  8  9  1  0  0  0
  8 60  1  0  0  0
  8 61  1  0  0  0
  9 10  2  0  0  0
  9 62  1  0  0  0
 10 11  1  0  0  0
 10 63  1  0  0  0
 11 12  1  0  0  0
 11 64  1  0  0  0
 11 65  1  0  0  0
 12 13  1  0  0  0
 12 66  1  0  0  0
 13 14  2  0  0  0
 13 15  1  0  0  0
 15 16  1  0  0  0
 15 19  1  0  0  0
 15 67  1  0  0  0
 16 17  1  0  0  0
 16 18  1  0  0  0
 16 68  1  0  0  0
 17 69  1  0  0  0
 17 70  1  0  0  0
 17 71  1  0  0  0
 18 72  1  0  0  0
 18 73  1  0  0  0
 18 74  1  0  0  0
 19 20  1  0  0  0
 19 75  1  0  0  0
 20 21  2  0  0  0
 20 22  1  0  0  0
 22 23  1  0  0  0
 22 24  1  0  0  0
 23 76  1  0  0  0
 24 25  1  0  0  0
 24 77  1  0  0  0
 24 78  1  0  0  0
 25 26  1  0  0  0
 25 79  1  0  0  0
 25 80  1  0  0  0
 26 27  1  0  0  0
 26 81  1  0  0  0
 26 82  1  0  0  0
 27 28  1  0  0  0
 27 41  1  0  0  0
 28 29  1  0  0  0
 28 83  1  0  0  0
 29 30  2  0  0  0
 29 31  1  0  0  0
 31 32  1  0  0  0
 31 36  1  0  0  0
 31 84  1  0  0  0
 32 33  1  0  0  0
 32 34  1  0  0  0
 32 35  1  0  0  0
 33 85  1  0  0  0
 33 86  1  0  0  0
 33 87  1  0  0  0
 34 88  1  0  0  0
 34 89  1  0  0  0
 34 90  1  0  0  0
 35 91  1  0  0  0
 35 92  1  0  0  0
 35 93  1  0  0  0
 36 37  1  0  0  0
 36 94  1  0  0  0
 37 38  2  0  0  0
 37 39  1  0  0  0
 39 40  1  0  0  0
 40 95  1  0  0  0
 40 96  1  0  0  0
 40 97  1  0  0  0
 41 42  1  0  0  0
 41 98  1  0  0  0
 41 99  1  0  0  0
 42 43  2  0  0  0
 42 45  1  0  0  0
 43 44  1  0  0  0
 43100  1  0  0  0
 44 47  2  0  0  0
 44101  1  0  0  0
 45 46  2  0  0  0
 45102  1  0  0  0
 46 47  1  0  0  0
 46103  1  0  0  0
 47 48  1  0  0  0
 48 49  2  0  0  0
 48 53  1  0  0  0
 49 50  1  0  0  0
 49104  1  0  0  0
 50 51  2  0  0  0
 50105  1  0  0  0
 51 52  1  0  0  0
 51106  1  0  0  0
 52 53  2  0  0  0
 53107  1  0  0  0
M  END
> <s_m_source_file>
../4cpt_ligand.sdf

> <i_m_source_file_index>
1

> <s_epik_input>
YzEyW2NIXVtjSF1jKFtjSF1bY0hdMilbQ0gyXS9bQ0hdPVtDSF1cW0NIMl1bTkhdQyg9TylbQ0BIXShbQ0hdKFtDSDNdKVtDSDNdKVtOSF1DKD1PKVtDQEBdKFtDSDJdMSkoW09IXSlbQ0gyXVtDSDJdW0NIMl1bTkBASCtdKFtOSF1DKD1PKVtDQEhdKEMoW0NIM10pKFtDSDNdKVtDSDNdKVtOSF1DKD1PKU9bQ0gzXSlbQ0gyXWMzW2NIXVtjSF1jKFtjSF1bY0hdMyktYzRbY0hdW2NIXVtjSF1uW2NIXTQ=

> <s_epik_cmdline>
J2VwaWtfYXBwJywgJy1pbWFlJywgJ2xpZ2FuZF9wcm8ubWFlJywgJy1vbWFlJywgJ2xpZ2FuZF9wcmVwLm1hZScsICctbXMnLCAnMScsICctcGgnLCAnNycsICctcGh0JywgJzAuNScsICctbnQn

> <r_lp_tautomer_probability>
1

> <r_epik_Ionization_Penalty>
  0.0058

> <r_epik_Ionization_Penalty_Charging>
  0.0000

> <r_epik_Ionization_Penalty_Neutral>
  0.0058

> <r_epik_State_Penalty>
 -0.0000

> <r_epik_Charging_Adjusted_Penalty>
0

> <i_epik_Tot_Q>
0

> <i_epik_Tot_abs_Q>
0

> <s_epik_Chemistry_Notes>
This compound has an ester and may undergo hydrolysis at high or low pH.

$$$$
