4cpu_ligand
                    3D
 Schrodinger Suite 2020-3.
106109  0  0  1  0            999 V2000
    7.9540   23.4930    2.6660 C   0  0  0  0  0  0
    9.2200   23.0440    3.0300 C   0  0  0  0  0  0
   10.3290   23.8680    2.8680 C   0  0  0  0  0  0
   11.5620   23.4970    3.3980 C   0  0  0  0  0  0
   10.1620   25.1500    2.3600 C   0  0  0  0  0  0
    8.8980   25.5890    1.9780 C   0  0  0  0  0  0
    7.7800   24.7930    2.2010 C   0  0  0  0  0  0
    6.5430   25.2130    1.7130 C   0  0  0  0  0  0
    5.5030   24.8620    2.5740 C   0  0  0  0  0  0
    5.2980   25.4770    3.8110 C   0  0  0  0  0  0
    6.1670   26.4390    4.3220 C   0  0  0  0  0  0
    7.0930   25.8040    5.2930 N   0  0  0  0  0  0
    8.2510   26.4810    5.6930 C   0  0  0  0  0  0
    8.4600   27.6080    5.2450 O   0  0  0  0  0  0
    9.2340   25.8050    6.4230 C   0  0  2  0  0  0
    9.6180   26.6350    7.6530 C   0  0  0  0  0  0
    8.3540   27.0740    8.3990 C   0  0  0  0  0  0
   10.5000   25.7940    8.5780 C   0  0  0  0  0  0
   10.4190   25.5880    5.5520 N   0  0  0  0  0  0
   11.0460   24.3400    5.4690 C   0  0  0  0  0  0
   10.5510   23.3840    6.0670 O   0  0  0  0  0  0
   12.0630   24.1600    4.5210 C   0  0  2  0  0  0
   12.5650   25.4390    4.1320 O   0  0  0  0  0  0
   13.2170   23.3460    5.1070 C   0  0  0  0  0  0
   13.7280   24.0030    6.3910 C   0  0  0  0  0  0
   15.2370   23.7830    6.4900 C   0  0  0  0  0  0
   15.5230   22.4390    7.0100 N   0  3  0  0  0  0
   16.0930   21.6240    6.3110 N   0  0  0  0  0  0
   15.3640   20.6680    5.6920 C   0  0  0  0  0  0
   14.2890   20.2500    6.1190 O   0  0  0  0  0  0
   16.2330   19.7750    4.7880 C   0  0  2  0  0  0
   15.4580   19.0860    3.6530 C   0  0  0  0  0  0
   14.5420   17.9930    4.2080 C   0  0  0  0  0  0
   14.6260   20.1110    2.8760 C   0  0  0  0  0  0
   16.4750   18.4400    2.7060 C   0  0  0  0  0  0
   16.8760   18.7510    5.6150 N   0  0  0  0  0  0
   18.2040   18.7330    5.7530 C   0  0  0  0  0  0
   18.8970   19.5040    5.0860 O   0  0  0  0  0  0
   18.7800   17.8740    6.6380 O   0  0  0  0  0  0
   20.1700   18.1720    6.7820 C   0  0  0  0  0  0
   15.6550   22.2780    8.3340 C   0  0  0  0  0  0
   15.9570   21.0000    8.7880 C   0  0  0  0  0  0
   17.2790   20.5690    8.8570 C   0  0  0  0  0  0
   17.5800   19.3380    9.4340 C   0  0  0  0  0  0
   14.9660   20.2820    9.4420 C   0  0  0  0  0  0
   15.2630   19.0540   10.0140 C   0  0  0  0  0  0
   16.5670   18.5800   10.0140 C   0  0  0  0  0  0
   16.8180   17.3850   10.5440 C   0  0  0  0  0  0
   15.8270   16.4740   10.6450 C   0  0  0  0  0  0
   16.1740   15.3840   11.3410 C   0  0  0  0  0  0
   17.6420   15.6910   12.0350 S   0  0  0  0  0  0
   17.8360   17.2050   11.3920 C   0  0  0  0  0  0
    7.0966   22.8247    2.7453 H   0  0  0  0  0  0
    9.3430   22.0430    3.4435 H   0  0  0  0  0  0
   11.5267   22.4410    3.7041 H   0  0  0  0  0  0
   12.3441   23.6320    2.6364 H   0  0  0  0  0  0
   11.0217   25.8126    2.2605 H   0  0  0  0  0  0
    8.7837   26.5625    1.5012 H   0  0  0  0  0  0
    6.5454   26.3073    1.6009 H   0  0  0  0  0  0
    6.3563   24.7447    0.7354 H   0  0  0  0  0  0
    4.8275   24.0610    2.2394 H   0  0  0  0  0  0
    4.4238   25.2067    4.4215 H   0  0  0  0  0  0
    6.7466   26.8834    3.4995 H   0  0  0  0  0  0
    5.5873   27.2248    4.8284 H   0  0  0  0  0  0
    6.8680   24.8052    5.6953 H   0  0  0  0  0  0
    8.7936   24.8363    6.7018 H   0  0  0  0  0  0
   10.1737   27.5288    7.3331 H   0  0  0  0  0  0
    7.7241   27.6780    7.7293 H   0  0  0  0  0  0
    8.6361   27.6738    9.2769 H   0  0  0  0  0  0
    7.7943   26.1855    8.7264 H   0  0  0  0  0  0
   11.4056   25.4818    8.0372 H   0  0  0  0  0  0
    9.9434   24.9036    8.9057 H   0  0  0  0  0  0
   10.7852   26.3919    9.4562 H   0  0  0  0  0  0
   10.8218   26.4189    4.9543 H   0  0  0  0  0  0
   11.8890   26.1821    3.6838 H   0  0  0  0  0  0
   12.8681   22.3285    5.3372 H   0  0  0  0  0  0
   14.0381   23.2956    4.3768 H   0  0  0  0  0  0
   13.5095   25.0807    6.3634 H   0  0  0  0  0  0
   13.2275   23.5495    7.2592 H   0  0  0  0  0  0
   15.6887   23.8858    5.4923 H   0  0  0  0  0  0
   15.6729   24.5310    7.1686 H   0  0  0  0  0  0
   17.1853   21.6714    6.1899 H   0  0  0  0  0  0
   17.0059   20.4081    4.3278 H   0  0  0  0  0  0
   13.8059   18.4431    4.8903 H   0  0  0  0  0  0
   15.1443   17.2526    4.7549 H   0  0  0  0  0  0
   14.0174   17.4977    3.3777 H   0  0  0  0  0  0
   13.8943   20.5775    3.5520 H   0  0  0  0  0  0
   14.0965   19.6064    2.0544 H   0  0  0  0  0  0
   15.2898   20.8852    2.4636 H   0  0  0  0  0  0
   17.0750   17.7029    3.2598 H   0  0  0  0  0  0
   17.1366   19.2161    2.2938 H   0  0  0  0  0  0
   15.9433   17.9373    1.8846 H   0  0  0  0  0  0
   16.2644   17.9925    6.1256 H   0  0  0  0  0  0
   20.6228   17.4714    7.4990 H   0  0  0  0  0  0
   20.2879   19.2015    7.1510 H   0  0  0  0  0  0
   20.6693   18.0725    5.8069 H   0  0  0  0  0  0
   15.5246   23.1373    9.0083 H   0  0  0  0  0  0
   18.0780   21.1949    8.4595 H   0  0  0  0  0  0
   18.6057   18.9692    9.4315 H   0  0  0  0  0  0
   13.9545   20.6830    9.5062 H   0  0  0  0  0  0
   14.4690   18.4590   10.4653 H   0  0  0  0  0  0
   14.8507   16.6692   10.1773 H   0  0  0  0  0  0
   15.4160   15.1852   12.1129 H   0  0  0  0  0  0
   16.2408   14.5212   10.6619 H   0  0  0  0  0  0
   18.7871   17.2830   10.8449 H   0  0  0  0  0  0
   17.8002   17.9751   12.1767 H   0  0  0  0  0  0
  1  2  2  0  0  0
  1  7  1  0  0  0
  1 53  1  0  0  0
  2  3  1  0  0  0
  2 54  1  0  0  0
  3  4  1  0  0  0
  3  5  2  0  0  0
  4 22  1  0  0  0
  4 55  1  0  0  0
  4 56  1  0  0  0
  5  6  1  0  0  0
  5 57  1  0  0  0
  6  7  2  0  0  0
  6 58  1  0  0  0
  7  8  1  0  0  0
  8  9  1  0  0  0
  8 59  1  0  0  0
  8 60  1  0  0  0
  9 10  2  0  0  0
  9 61  1  0  0  0
 10 11  1  0  0  0
 10 62  1  0  0  0
 11 12  1  0  0  0
 11 63  1  0  0  0
 11 64  1  0  0  0
 12 13  1  0  0  0
 12 65  1  0  0  0
 13 14  2  0  0  0
 13 15  1  0  0  0
 15 16  1  0  0  0
 15 19  1  0  0  0
 15 66  1  0  0  0
 16 17  1  0  0  0
 16 18  1  0  0  0
 16 67  1  0  0  0
 17 68  1  0  0  0
 17 69  1  0  0  0
 17 70  1  0  0  0
 18 71  1  0  0  0
 18 72  1  0  0  0
 18 73  1  0  0  0
 19 20  1  0  0  0
 19 74  1  0  0  0
 20 21  2  0  0  0
 20 22  1  0  0  0
 22 23  1  0  0  0
 22 24  1  0  0  0
 23 75  1  0  0  0
 24 25  1  0  0  0
 24 76  1  0  0  0
 24 77  1  0  0  0
 25 26  1  0  0  0
 25 78  1  0  0  0
 25 79  1  0  0  0
 26 27  1  0  0  0
 26 80  1  0  0  0
 26 81  1  0  0  0
 27 28  1  0  0  0
 27 41  2  0  0  0
 28 29  1  0  0  0
 28 82  1  0  0  0
 29 30  2  0  0  0
 29 31  1  0  0  0
 31 32  1  0  0  0
 31 36  1  0  0  0
 31 83  1  0  0  0
 32 33  1  0  0  0
 32 34  1  0  0  0
 32 35  1  0  0  0
 33 84  1  0  0  0
 33 85  1  0  0  0
 33 86  1  0  0  0
 34 87  1  0  0  0
 34 88  1  0  0  0
 34 89  1  0  0  0
 35 90  1  0  0  0
 35 91  1  0  0  0
 35 92  1  0  0  0
 36 37  1  0  0  0
 36 93  1  0  0  0
 37 38  2  0  0  0
 37 39  1  0  0  0
 39 40  1  0  0  0
 40 94  1  0  0  0
 40 95  1  0  0  0
 40 96  1  0  0  0
 41 42  1  0  0  0
 41 97  1  0  0  0
 42 43  2  0  0  0
 42 45  1  0  0  0
 43 44  1  0  0  0
 43 98  1  0  0  0
 44 47  2  0  0  0
 44 99  1  0  0  0
 45 46  2  0  0  0
 45100  1  0  0  0
 46 47  1  0  0  0
 46101  1  0  0  0
 47 48  1  0  0  0
 48 49  2  0  0  0
 48 52  1  0  0  0
 49 50  1  0  0  0
 49102  1  0  0  0
 50 51  1  0  0  0
 50103  1  0  0  0
 50104  1  0  0  0
 51 52  1  0  0  0
 52105  1  0  0  0
 52106  1  0  0  0
M  CHG  1  27   1
M  END
> <s_m_source_file>
../4cpu_ligand.sdf

> <i_m_source_file_index>
1

> <s_epik_input>
YzEyW2NIXVtjSF1jKFtjSF1bY0hdMilbQ0gyXS9bQ0hdPVtDSF1cW0NIMl1bTkhdQyg9TylbQ0BIXShbQ0hdKFtDSDNdKVtDSDNdKVtOSF1DKD1PKVtDQEBdKFtDSDJdMSkoW09IXSlbQ0gyXVtDSDJdW0NIMl0vW04rXShbTkhdQyg9TylbQ0BIXShDKFtDSDNdKShbQ0gzXSlbQ0gzXSlbTkhdQyg9TylPW0NIM10pPVtDSF0vYzNbY0hdW2NIXWMoW2NIXVtjSF0zKUM0PVtDSF1bQ0gyXVNbQ0gyXTQ=

> <s_epik_cmdline>
J2VwaWtfYXBwJywgJy1pbWFlJywgJ2xpZ2FuZF9wcm8ubWFlJywgJy1vbWFlJywgJ2xpZ2FuZF9wcmVwLm1hZScsICctbXMnLCAnMScsICctcGgnLCAnNycsICctcGh0JywgJzAuNScsICctbnQn

> <r_lp_tautomer_probability>
1

> <r_epik_Ionization_Penalty>
  0.0000

> <r_epik_Ionization_Penalty_Charging>
  0.0000

> <r_epik_Ionization_Penalty_Neutral>
  0.0000

> <r_epik_State_Penalty>
 -0.0000

> <r_epik_Charging_Adjusted_Penalty>
0

> <i_epik_Tot_Q>
1

> <i_epik_Tot_abs_Q>
1

> <s_epik_Chemistry_Notes>
This compound has an ester and may undergo hydrolysis at high or low pH. This compound has an imine and may undergo hydrolysis.

$$$$
