4cpw_ligand
                    3D
 Schrodinger Suite 2020-3.
104107  0  0  1  0            999 V2000
    7.9020   23.2340    2.8770 C   0  0  0  0  0  0
    9.2210   22.9110    3.1690 C   0  0  0  0  0  0
   10.2360   23.8110    2.8600 C   0  0  0  0  0  0
   11.5300   23.5760    3.3040 C   0  0  0  0  0  0
    9.9350   25.0060    2.2230 C   0  0  0  0  0  0
    8.6150   25.3220    1.9280 C   0  0  0  0  0  0
    7.6100   24.3950    2.1670 C   0  0  0  0  0  0
    6.2850   24.7450    1.9300 C   0  0  0  0  0  0
    5.6430   24.8550    3.1600 C   0  0  0  0  0  0
    5.3940   26.1970    3.4450 C   0  0  0  0  0  0
    5.9480   26.8120    4.5730 C   0  0  0  0  0  0
    6.9610   25.9450    5.2240 N   0  0  0  0  0  0
    8.1490   26.5340    5.6800 C   0  0  0  0  0  0
    8.4060   27.6780    5.2910 O   0  0  0  0  0  0
    9.1020   25.7620    6.3670 C   0  0  2  0  0  0
    9.5250   26.4870    7.6550 C   0  0  0  0  0  0
    8.3120   26.6450    8.5730 C   0  0  0  0  0  0
   10.6230   25.6960    8.3740 C   0  0  0  0  0  0
   10.2740   25.5460    5.4850 N   0  0  0  0  0  0
   10.9090   24.3060    5.4010 C   0  0  0  0  0  0
   10.4920   23.3730    6.0890 O   0  0  0  0  0  0
   11.9760   24.1470    4.4990 C   0  0  2  0  0  0
   12.5560   25.4300    4.2210 O   0  0  0  0  0  0
   13.0520   23.2370    5.0880 C   0  0  0  0  0  0
   13.8170   23.9670    6.1900 C   0  0  0  0  0  0
   15.2990   23.6120    6.0750 C   0  0  0  0  0  0
   15.5750   22.3780    6.8240 N   0  3  0  0  0  0
   16.0870   21.4750    6.3020 N   0  0  0  0  0  0
   15.3270   20.6710    5.5330 C   0  0  0  0  0  0
   14.1570   20.3780    5.8100 O   0  0  0  0  0  0
   16.1930   19.7240    4.6930 C   0  0  2  0  0  0
   15.4120   18.9820    3.6080 C   0  0  0  0  0  0
   14.4280   18.0000    4.2510 C   0  0  0  0  0  0
   14.6570   19.9770    2.7280 C   0  0  0  0  0  0
   16.4070   18.1990    2.7510 C   0  0  0  0  0  0
   16.8440   18.7410    5.5690 N   0  0  0  0  0  0
   18.1660   18.7480    5.7030 C   0  0  0  0  0  0
   18.8270   19.5370    5.0270 O   0  0  0  0  0  0
   18.7640   17.8700    6.5570 O   0  0  0  0  0  0
   20.0270   18.3590    7.0130 C   0  0  0  0  0  0
   15.6580   22.3960    8.1600 C   0  0  0  0  0  0
   15.9820   21.1850    8.7690 C   0  0  0  0  0  0
   17.2990   20.7450    8.8200 C   0  0  0  0  0  0
   17.6180   19.5570    9.4750 C   0  0  0  0  0  0
   14.9800   20.4130    9.3420 C   0  0  0  0  0  0
   15.2930   19.2030    9.9500 C   0  0  0  0  0  0
   16.6110   18.7720   10.0250 C   0  0  0  0  0  0
   16.9010   17.6320   10.6520 C   0  0  0  0  0  0
   16.0750   16.5670   10.5730 C   0  0  0  0  0  0
   16.4360   15.5480   11.3650 C   0  0  0  0  0  0
   17.6890   16.0750   12.3120 S   0  0  0  0  0  0
   17.7700   17.6020   11.6710 C   0  0  0  0  0  0
    7.0953   22.5780    3.2040 H   0  0  0  0  0  0
    9.4598   21.9566    3.6382 H   0  0  0  0  0  0
   11.6749   22.4963    3.4565 H   0  0  0  0  0  0
   12.2470   23.9397    2.5533 H   0  0  0  0  0  0
   10.7341   25.6968    1.9541 H   0  0  0  0  0  0
    8.3685   26.2976    1.5090 H   0  0  0  0  0  0
    6.2495   25.7058    1.3956 H   0  0  0  0  0  0
    5.8041   23.9673    1.3185 H   0  0  0  0  0  0
    4.6895   24.3076    3.1261 H   0  0  0  0  0  0
    6.2827   24.4289    3.9469 H   0  0  0  0  0  0
    4.7495   26.7735    2.7650 H   0  0  0  0  0  0
    5.6155   27.8175    4.8703 H   0  0  0  0  0  0
    6.7706   24.8677    5.3391 H   0  0  0  0  0  0
    8.6184   24.7970    6.5787 H   0  0  0  0  0  0
    9.9191   27.4817    7.3994 H   0  0  0  0  0  0
    7.5284   27.2134    8.0506 H   0  0  0  0  0  0
    8.6098   27.1838    9.4846 H   0  0  0  0  0  0
    7.9254   25.6515    8.8440 H   0  0  0  0  0  0
   11.4917   25.5864    7.7082 H   0  0  0  0  0  0
   10.2405   24.7008    8.6447 H   0  0  0  0  0  0
   10.9249   26.2331    9.2853 H   0  0  0  0  0  0
   10.6639   26.3747    4.8757 H   0  0  0  0  0  0
   11.9380   26.2311    3.7892 H   0  0  0  0  0  0
   12.5802   22.3385    5.5125 H   0  0  0  0  0  0
   13.7564   22.9420    4.2963 H   0  0  0  0  0  0
   13.6825   25.0524    6.0725 H   0  0  0  0  0  0
   13.4329   23.6541    7.1721 H   0  0  0  0  0  0
   15.5588   23.4610    5.0168 H   0  0  0  0  0  0
   15.9055   24.4315    6.4881 H   0  0  0  0  0  0
   17.1632   21.2962    6.4426 H   0  0  0  0  0  0
   16.9686   20.3298    4.2016 H   0  0  0  0  0  0
   13.7078   18.5551    4.8700 H   0  0  0  0  0  0
   14.9803   17.2873    4.8811 H   0  0  0  0  0  0
   13.8893   17.4524    3.4637 H   0  0  0  0  0  0
   13.9408   20.5410    3.3436 H   0  0  0  0  0  0
   14.1149   19.4325    1.9409 H   0  0  0  0  0  0
   15.3718   20.6739    2.2660 H   0  0  0  0  0  0
   16.9512   17.4823    3.3836 H   0  0  0  0  0  0
   17.1213   18.8964    2.2890 H   0  0  0  0  0  0
   15.8643   17.6550    1.9639 H   0  0  0  0  0  0
   16.2373   18.0014    6.1122 H   0  0  0  0  0  0
   20.4783   17.6261    7.6979 H   0  0  0  0  0  0
   19.8819   19.3132    7.5407 H   0  0  0  0  0  0
   20.6929   18.5141    6.1513 H   0  0  0  0  0  0
   15.4745   23.3308    8.7099 H   0  0  0  0  0  0
   18.0859   21.3315    8.3457 H   0  0  0  0  0  0
   18.6586   19.2428    9.5562 H   0  0  0  0  0  0
   13.9459   20.7567    9.3149 H   0  0  0  0  0  0
   14.4979   18.5877   10.3711 H   0  0  0  0  0  0
   15.1979   16.5387    9.9265 H   0  0  0  0  0  0
   15.9875   14.5547   11.3828 H   0  0  0  0  0  0
   18.4050   18.4199   12.0115 H   0  0  0  0  0  0
  1  2  2  0  0  0
  1  7  1  0  0  0
  1 53  1  0  0  0
  2  3  1  0  0  0
  2 54  1  0  0  0
  3  4  1  0  0  0
  3  5  2  0  0  0
  4 22  1  0  0  0
  4 55  1  0  0  0
  4 56  1  0  0  0
  5  6  1  0  0  0
  5 57  1  0  0  0
  6  7  2  0  0  0
  6 58  1  0  0  0
  7  8  1  0  0  0
  8  9  1  0  0  0
  8 59  1  0  0  0
  8 60  1  0  0  0
  9 10  1  0  0  0
  9 61  1  0  0  0
  9 62  1  0  0  0
 10 11  2  0  0  0
 10 63  1  0  0  0
 11 12  1  0  0  0
 11 64  1  0  0  0
 12 13  1  0  0  0
 12 65  1  0  0  0
 13 14  2  0  0  0
 13 15  1  0  0  0
 15 16  1  0  0  0
 15 19  1  0  0  0
 15 66  1  0  0  0
 16 17  1  0  0  0
 16 18  1  0  0  0
 16 67  1  0  0  0
 17 68  1  0  0  0
 17 69  1  0  0  0
 17 70  1  0  0  0
 18 71  1  0  0  0
 18 72  1  0  0  0
 18 73  1  0  0  0
 19 20  1  0  0  0
 19 74  1  0  0  0
 20 21  2  0  0  0
 20 22  1  0  0  0
 22 23  1  0  0  0
 22 24  1  0  0  0
 23 75  1  0  0  0
 24 25  1  0  0  0
 24 76  1  0  0  0
 24 77  1  0  0  0
 25 26  1  0  0  0
 25 78  1  0  0  0
 25 79  1  0  0  0
 26 27  1  0  0  0
 26 80  1  0  0  0
 26 81  1  0  0  0
 27 28  1  0  0  0
 27 41  2  0  0  0
 28 29  1  0  0  0
 28 82  1  0  0  0
 29 30  2  0  0  0
 29 31  1  0  0  0
 31 32  1  0  0  0
 31 36  1  0  0  0
 31 83  1  0  0  0
 32 33  1  0  0  0
 32 34  1  0  0  0
 32 35  1  0  0  0
 33 84  1  0  0  0
 33 85  1  0  0  0
 33 86  1  0  0  0
 34 87  1  0  0  0
 34 88  1  0  0  0
 34 89  1  0  0  0
 35 90  1  0  0  0
 35 91  1  0  0  0
 35 92  1  0  0  0
 36 37  1  0  0  0
 36 93  1  0  0  0
 37 38  2  0  0  0
 37 39  1  0  0  0
 39 40  1  0  0  0
 40 94  1  0  0  0
 40 95  1  0  0  0
 40 96  1  0  0  0
 41 42  1  0  0  0
 41 97  1  0  0  0
 42 43  2  0  0  0
 42 45  1  0  0  0
 43 44  1  0  0  0
 43 98  1  0  0  0
 44 47  2  0  0  0
 44 99  1  0  0  0
 45 46  2  0  0  0
 45100  1  0  0  0
 46 47  1  0  0  0
 46101  1  0  0  0
 47 48  1  0  0  0
 48 49  1  0  0  0
 48 52  2  0  0  0
 49 50  2  0  0  0
 49102  1  0  0  0
 50 51  1  0  0  0
 50103  1  0  0  0
 51 52  1  0  0  0
 52104  1  0  0  0
M  CHG  1  27   1
M  END
> <s_m_source_file>
../4cpw_ligand.sdf

> <i_m_source_file_index>
1

> <s_epik_input>
YzEyW2NIXVtjSF1jKFtjSF1bY0hdMilbQ0gyXVtDSDJdL1tDSF09W0NIXVxbTkhdQyg9TylbQ0BIXShbQ0hdKFtDSDNdKVtDSDNdKVtOSF1DKD1PKVtDQEBdKFtDSDJdMSkoW09IXSlbQ0gyXVtDSDJdW0NIMl0vW04rXShbTkhdQyg9TylbQ0BIXShDKFtDSDNdKShbQ0gzXSlbQ0gzXSlbTkhdQyg9TylPW0NIM10pPVtDSF0vYzNbY0hdW2NIXWMoW2NIXVtjSF0zKS1jNFtjSF1bY0hdc1tjSF00

> <s_epik_cmdline>
J2VwaWtfYXBwJywgJy1pbWFlJywgJ2xpZ2FuZF9wcm8ubWFlJywgJy1vbWFlJywgJ2xpZ2FuZF9wcmVwLm1hZScsICctbXMnLCAnMScsICctcGgnLCAnNycsICctcGh0JywgJzAuNScsICctbnQn

> <r_lp_tautomer_probability>
1

> <r_epik_Ionization_Penalty>
  0.0000

> <r_epik_Ionization_Penalty_Charging>
  0.0000

> <r_epik_Ionization_Penalty_Neutral>
  0.0000

> <r_epik_State_Penalty>
 -0.0000

> <r_epik_Charging_Adjusted_Penalty>
0

> <i_epik_Tot_Q>
1

> <i_epik_Tot_abs_Q>
1

> <s_epik_Chemistry_Notes>
This compound has an ester and may undergo hydrolysis at high or low pH. This compound has an imine and may undergo hydrolysis.

$$$$
