4cpx_ligand
                    3D
 Schrodinger Suite 2020-3.
107110  0  0  1  0            999 V2000
    9.0030   25.6560    1.9760 C   0  0  0  0  0  0
   10.2710   25.1990    2.3140 C   0  0  0  0  0  0
   10.4210   23.9590    2.9200 C   0  0  0  0  0  0
   11.6560   23.5920    3.4420 C   0  0  0  0  0  0
    9.2990   23.1680    3.1590 C   0  0  0  0  0  0
    8.0350   23.6110    2.7840 C   0  0  0  0  0  0
    7.8800   24.8790    2.2360 C   0  0  0  0  0  0
    6.6290   25.3360    1.8300 C   0  0  0  0  0  0
    5.6240   24.9080    2.6950 C   0  0  0  0  0  0
    5.3100   25.5880    3.8710 C   0  0  0  0  0  0
    6.1580   26.5490    4.4160 C   0  0  0  0  0  0
    7.1270   25.8720    5.3020 N   0  0  0  0  0  0
    8.3080   26.5170    5.6800 C   0  0  0  0  0  0
    8.5600   27.6200    5.2010 O   0  0  0  0  0  0
    9.2690   25.8210    6.4140 C   0  0  2  0  0  0
    9.5760   26.6030    7.6980 C   0  0  0  0  0  0
   10.5400   25.8030    8.5790 C   0  0  0  0  0  0
    8.2720   26.8480    8.4680 C   0  0  0  0  0  0
   10.4890   25.6640    5.5750 N   0  0  0  0  0  0
   11.1680   24.4480    5.5150 C   0  0  0  0  0  0
   10.6680   23.4840    6.0960 O   0  0  0  0  0  0
   12.1710   24.2790    4.5430 C   0  0  2  0  0  0
   12.6200   25.5620    4.1010 O   0  0  0  0  0  0
   13.3710   23.5120    5.1150 C   0  0  0  0  0  0
   13.7950   24.1240    6.4560 C   0  0  0  0  0  0
   15.2450   23.7350    6.7650 C   0  0  0  0  0  0
   15.3620   22.3190    7.1540 N   0  0  1  0  0  0
   15.9370   21.7250    6.2770 N   0  0  0  0  0  0
   15.3040   20.6970    5.6810 C   0  0  0  0  0  0
   14.2220   20.2590    6.0700 O   0  0  0  0  0  0
   16.2240   19.8510    4.7810 C   0  0  2  0  0  0
   15.4800   19.1790    3.6170 C   0  0  0  0  0  0
   14.6120   20.1990    2.8710 C   0  0  0  0  0  0
   16.5140   18.6040    2.6520 C   0  0  0  0  0  0
   14.6050   18.0370    4.1430 C   0  0  0  0  0  0
   16.8610   18.8060    5.5920 N   0  0  0  0  0  0
   18.1850   18.7800    5.7670 C   0  0  0  0  0  0
   18.9000   19.5630    5.1420 O   0  0  0  0  0  0
   18.7300   17.9150    6.6670 O   0  0  0  0  0  0
   20.1590   17.9380    6.5590 C   0  0  0  0  0  0
   16.0870   22.2620    8.2760 C   0  0  0  0  0  0
   16.3600   20.9960    8.7970 C   0  0  0  0  0  0
   17.6720   20.5440    8.8780 C   0  0  0  0  0  0
   17.9570   19.3070    9.4450 C   0  0  0  0  0  0
   15.3310   20.1950    9.2850 C   0  0  0  0  0  0
   15.6130   18.9360    9.8090 C   0  0  0  0  0  0
   16.9260   18.4800    9.8730 C   0  0  0  0  0  0
   16.8770   15.5780   11.8750 C   0  0  0  0  0  0
   16.4580   16.7850   11.4330 C   0  0  0  0  0  0
   17.2140   17.3150   10.4580 C   0  0  1  0  0  0
   18.1060   16.1150    9.7130 S   0  0  0  0  0  0
   17.7440   14.8990   11.0040 C   0  0  0  0  0  0
    8.8880   26.6314    1.5033 H   0  0  0  0  0  0
   11.1466   25.8132    2.1036 H   0  0  0  0  0  0
   11.6175   22.5434    3.7721 H   0  0  0  0  0  0
   12.4294   23.7045    2.6679 H   0  0  0  0  0  0
    9.4124   22.1975    3.6421 H   0  0  0  0  0  0
    7.1676   22.9650    2.9196 H   0  0  0  0  0  0
    6.6284   26.4359    1.8125 H   0  0  0  0  0  0
    6.4079   24.9532    0.8227 H   0  0  0  0  0  0
    5.0701   23.9979    2.4213 H   0  0  0  0  0  0
    4.3685   25.3714    4.3970 H   0  0  0  0  0  0
    6.6903   27.0698    3.6064 H   0  0  0  0  0  0
    5.5665   27.2754    4.9926 H   0  0  0  0  0  0
    6.9208   24.8552    5.6676 H   0  0  0  0  0  0
    8.8443   24.8297    6.6309 H   0  0  0  0  0  0
   10.0412   27.5642    7.4341 H   0  0  0  0  0  0
   11.4766   25.6253    8.0301 H   0  0  0  0  0  0
   10.0810   24.8388    8.8430 H   0  0  0  0  0  0
   10.7547   26.3704    9.4966 H   0  0  0  0  0  0
    7.5768   27.4225    7.8383 H   0  0  0  0  0  0
    8.4890   27.4143    9.3857 H   0  0  0  0  0  0
    7.8153   25.8828    8.7321 H   0  0  0  0  0  0
   10.8676   26.5152    4.9901 H   0  0  0  0  0  0
   11.9066   26.2708    3.6553 H   0  0  0  0  0  0
   13.0931   22.4590    5.2699 H   0  0  0  0  0  0
   14.2128   23.5690    4.4093 H   0  0  0  0  0  0
   13.7150   25.2197    6.4006 H   0  0  0  0  0  0
   13.1383   23.7483    7.2545 H   0  0  0  0  0  0
   15.8669   23.9000    5.8728 H   0  0  0  0  0  0
   15.6216   24.3525    7.5938 H   0  0  0  0  0  0
   16.9528   22.0272    5.9825 H   0  0  0  0  0  0
   17.0012   20.5102    4.3670 H   0  0  0  0  0  0
   15.2463   21.0158    2.4962 H   0  0  0  0  0  0
   13.8552   20.6076    3.5568 H   0  0  0  0  0  0
   14.1117   19.7054    2.0248 H   0  0  0  0  0  0
   17.1485   19.4163    2.2678 H   0  0  0  0  0  0
   15.9993   18.1127    1.8132 H   0  0  0  0  0  0
   17.1392   17.8688    3.1799 H   0  0  0  0  0  0
   13.8556   18.4404    4.8400 H   0  0  0  0  0  0
   15.2355   17.3034    4.6667 H   0  0  0  0  0  0
   14.0956   17.5472    3.3000 H   0  0  0  0  0  0
   16.2463   18.0274    6.0673 H   0  0  0  0  0  0
   20.5931   17.2378    7.2879 H   0  0  0  0  0  0
   20.5258   18.9546    6.7637 H   0  0  0  0  0  0
   20.4547   17.6392    5.5425 H   0  0  0  0  0  0
   17.0693   22.7253    8.1017 H   0  0  0  0  0  0
   15.5638   22.8026    9.0785 H   0  0  0  0  0  0
   18.4827   21.1635    8.4945 H   0  0  0  0  0  0
   18.9926   18.9850    9.5541 H   0  0  0  0  0  0
   14.3023   20.5542    9.2568 H   0  0  0  0  0  0
   14.8013   18.3048   10.1707 H   0  0  0  0  0  0
   16.5359   15.2007   12.8504 H   0  0  0  0  0  0
   15.5632   17.2510   11.8714 H   0  0  0  0  0  0
   17.4583   18.2231   11.0286 H   0  0  0  0  0  0
   18.6480   14.5932   11.5511 H   0  0  0  0  0  0
   17.2383   14.0077   10.6043 H   0  0  0  0  0  0
  1  2  2  0  0  0
  1  7  1  0  0  0
  1 53  1  0  0  0
  2  3  1  0  0  0
  2 54  1  0  0  0
  3  4  1  0  0  0
  3  5  2  0  0  0
  4 22  1  0  0  0
  4 55  1  0  0  0
  4 56  1  0  0  0
  5  6  1  0  0  0
  5 57  1  0  0  0
  6  7  2  0  0  0
  6 58  1  0  0  0
  7  8  1  0  0  0
  8  9  1  0  0  0
  8 59  1  0  0  0
  8 60  1  0  0  0
  9 10  2  0  0  0
  9 61  1  0  0  0
 10 11  1  0  0  0
 10 62  1  0  0  0
 11 12  1  0  0  0
 11 63  1  0  0  0
 11 64  1  0  0  0
 12 13  1  0  0  0
 12 65  1  0  0  0
 13 14  2  0  0  0
 13 15  1  0  0  0
 15 16  1  0  0  0
 15 19  1  0  0  0
 15 66  1  0  0  0
 16 17  1  0  0  0
 16 18  1  0  0  0
 16 67  1  0  0  0
 17 68  1  0  0  0
 17 69  1  0  0  0
 17 70  1  0  0  0
 18 71  1  0  0  0
 18 72  1  0  0  0
 18 73  1  0  0  0
 19 20  1  0  0  0
 19 74  1  0  0  0
 20 21  2  0  0  0
 20 22  1  0  0  0
 22 23  1  0  0  0
 22 24  1  0  0  0
 23 75  1  0  0  0
 24 25  1  0  0  0
 24 76  1  0  0  0
 24 77  1  0  0  0
 25 26  1  0  0  0
 25 78  1  0  0  0
 25 79  1  0  0  0
 26 27  1  0  0  0
 26 80  1  0  0  0
 26 81  1  0  0  0
 27 28  1  0  0  0
 27 41  1  0  0  0
 28 29  1  0  0  0
 28 82  1  0  0  0
 29 30  2  0  0  0
 29 31  1  0  0  0
 31 32  1  0  0  0
 31 36  1  0  0  0
 31 83  1  0  0  0
 32 33  1  0  0  0
 32 34  1  0  0  0
 32 35  1  0  0  0
 33 84  1  0  0  0
 33 85  1  0  0  0
 33 86  1  0  0  0
 34 87  1  0  0  0
 34 88  1  0  0  0
 34 89  1  0  0  0
 35 90  1  0  0  0
 35 91  1  0  0  0
 35 92  1  0  0  0
 36 37  1  0  0  0
 36 93  1  0  0  0
 37 38  2  0  0  0
 37 39  1  0  0  0
 39 40  1  0  0  0
 40 94  1  0  0  0
 40 95  1  0  0  0
 40 96  1  0  0  0
 41 42  1  0  0  0
 41 97  1  0  0  0
 41 98  1  0  0  0
 42 43  2  0  0  0
 42 45  1  0  0  0
 43 44  1  0  0  0
 43 99  1  0  0  0
 44 47  2  0  0  0
 44100  1  0  0  0
 45 46  2  0  0  0
 45101  1  0  0  0
 46 47  1  0  0  0
 46102  1  0  0  0
 47 50  1  0  0  0
 48 49  2  0  0  0
 48 52  1  0  0  0
 48103  1  0  0  0
 49 50  1  0  0  0
 49104  1  0  0  0
 50 51  1  0  0  0
 50105  1  0  0  0
 51 52  1  0  0  0
 52106  1  0  0  0
 52107  1  0  0  0
M  END
> <s_m_source_file>
../4cpx_ligand.sdf

> <i_m_source_file_index>
1

> <s_epik_input>
YzEyW2NIXVtjSF1jKFtjSF1bY0hdMilbQ0gyXS9bQ0hdPVtDSF1cW0NIMl1bTkhdQyg9TylbQ0BIXShbQ0hdKFtDSDNdKVtDSDNdKVtOSF1DKD1PKVtDQEBdKFtDSDJdMSkoW09IXSlbQ0gyXVtDSDJdW0NIMl1bTkBASCtdKFtOSF1DKD1PKVtDQEhdKEMoW0NIM10pKFtDSDNdKVtDSDNdKVtOSF1DKD1PKU9bQ0gzXSlbQ0gyXWMzW2NIXVtjSF1jKFtjSF1bY0hdMylbQ0BIXTRbQ0hdPVtDSF1bQ0gyXVM0

> <s_epik_cmdline>
J2VwaWtfYXBwJywgJy1pbWFlJywgJ2xpZ2FuZF9wcm8ubWFlJywgJy1vbWFlJywgJ2xpZ2FuZF9wcmVwLm1hZScsICctbXMnLCAnMScsICctcGgnLCAnNycsICctcGh0JywgJzAuNScsICctbnQn

> <r_lp_tautomer_probability>
1

> <r_epik_Ionization_Penalty>
  0.0000

> <r_epik_Ionization_Penalty_Charging>
  0.0000

> <r_epik_Ionization_Penalty_Neutral>
  0.0000

> <r_epik_State_Penalty>
 -0.0000

> <r_epik_Charging_Adjusted_Penalty>
0

> <i_epik_Tot_Q>
0

> <i_epik_Tot_abs_Q>
0

> <s_epik_Chemistry_Notes>
This compound has an ester and may undergo hydrolysis at high or low pH.

$$$$
