4cq0_ligand
                    3D
 Schrodinger Suite 2020-3.
 18 19  0  0  1  0            999 V2000
   17.0860    0.3810   14.0750 O   0  5  0  0  0  0
   16.4770    0.9320   14.9510 C   0  0  0  0  0  0
   15.6840    0.3210   15.9070 N   0  0  0  0  0  0
   16.3740    2.4240   14.8420 C   0  0  0  0  0  0
   16.9260    3.2980   13.9490 C   0  0  0  0  0  0
   16.5510    4.6130   14.1110 C   0  0  0  0  0  0
   15.5900    4.9280   15.0640 C   0  0  0  0  0  0
   15.2730    6.2500   15.1350 N   0  0  0  0  0  0
   15.0680    4.0660   15.9710 C   0  0  0  0  0  0
   15.5360    2.8380   15.7790 C   0  0  0  0  0  0
   15.0330    1.5260   16.7590 S   0  0  0  0  0  0
   13.5590    1.5330   16.7510 O   0  0  0  0  0  0
   15.6620    1.6150   18.0640 O   0  0  0  0  0  0
   17.6130    2.9779   13.1656 H   0  0  0  0  0  0
   17.0015    5.3956   13.5005 H   0  0  0  0  0  0
   15.6921    6.9562   14.4031 H   0  0  0  0  0  0
   14.5977    6.6121   15.9243 H   0  0  0  0  0  0
   14.3601    4.3433   16.7520 H   0  0  0  0  0  0
  1  2  1  0  0  0
  2  3  2  0  0  0
  2  4  1  0  0  0
  3 11  1  0  0  0
  4  5  2  0  0  0
  4 10  1  0  0  0
  5  6  1  0  0  0
  5 14  1  0  0  0
  6  7  2  0  0  0
  6 15  1  0  0  0
  7  8  1  0  0  0
  7  9  1  0  0  0
  8 16  1  0  0  0
  8 17  1  0  0  0
  9 10  2  0  0  0
  9 18  1  0  0  0
 10 11  1  0  0  0
 11 12  2  0  0  0
 11 13  2  0  0  0
M  CHG  1   1  -1
M  END
> <s_m_source_file>
../4cq0_ligand.sdf

> <i_m_source_file_index>
1

> <s_epik_input>
Tz1DMVtOSF1TKD1PKSg9TyljKGMxMilbY0hdYyhbTkgyXSlbY0hdW2NIXTI=

> <s_epik_cmdline>
J2VwaWtfYXBwJywgJy1pbWFlJywgJ2xpZ2FuZF9wcm8ubWFlJywgJy1vbWFlJywgJ2xpZ2FuZF9wcmVwLm1hZScsICctbXMnLCAnMScsICctcGgnLCAnNycsICctcGh0JywgJzAuNScsICctbnQn

> <r_lp_tautomer_probability>
1

> <r_epik_Ionization_Penalty>
  0.0000

> <r_epik_Ionization_Penalty_Charging>
  0.0000

> <r_epik_Ionization_Penalty_Neutral>
  0.0000

> <r_epik_State_Penalty>
 -0.0000

> <r_epik_Charging_Adjusted_Penalty>
2.33172359494533e-06

> <i_epik_Tot_Q>
-1

> <i_epik_Tot_abs_Q>
1

$$$$
