4cqe_ligand
                    3D
 Schrodinger Suite 2020-3.
 72 77  0  0  1  0            999 V2000
    4.3840   47.3530   18.5730 F   0  0  0  0  0  0
    4.7940   48.6020   18.2510 C   0  0  0  0  0  0
    5.1360   48.9410   16.9300 C   0  0  0  0  0  0
    5.5500   50.2570   16.6370 C   0  0  0  0  0  0
    5.6220   51.1950   17.6610 C   0  0  0  0  0  0
    6.0350   52.5210   17.3490 F   0  0  0  0  0  0
    5.2740   50.8330   18.9730 C   0  0  0  0  0  0
    4.8640   49.5340   19.2630 C   0  0  0  0  0  0
    4.4160   49.0460   20.9270 S   0  0  0  0  0  0
    5.1770   47.7530   21.1750 O   0  0  0  0  0  0
    4.8220   50.1840   21.8250 O   0  0  0  0  0  0
    2.8260   48.8140   21.0250 N   0  0  0  0  0  0
    1.9870   49.8760   21.0430 C   0  0  0  0  0  0
    0.6720   49.5520   21.3430 C   0  0  0  0  0  0
    0.4250   48.3160   21.5450 F   0  0  0  0  0  0
    2.3230   51.2040   20.7820 C   0  0  0  0  0  0
    1.2900   52.1670   20.8430 C   0  0  0  0  0  0
   -0.0440   51.8400   21.1540 C   0  0  0  0  0  0
   -0.3690   50.4960   21.3870 C   0  0  0  0  0  0
   -1.6260   50.0950   21.7450 C   0  0  0  0  0  0
   -1.6440   49.3950   22.8970 N   0  0  0  0  0  0
   -2.8280   49.0040   23.3600 C   0  0  0  0  0  0
   -2.9930   48.1860   24.6480 C   0  0  1  0  0  0
   -3.9590   48.8900   25.6060 C   0  0  0  0  0  0
   -4.0390   48.0950   26.9050 C   0  0  0  0  0  0
   -3.4420   46.7320   24.3170 C   0  0  0  0  0  0
   -3.6840   45.9340   25.6060 C   0  0  0  0  0  0
   -4.4580   46.6970   26.6350 N   0  3  2  0  0  0
   -5.8850   46.2920   26.8580 C   0  0  0  0  0  0
   -6.9360   47.3680   27.1920 C   0  0  0  0  0  0
   -6.9450   46.7050   25.8150 C   0  0  0  0  0  0
   -3.9870   49.4910   22.3880 S   0  0  0  0  0  0
   -2.8900   50.3230   21.2530 C   0  0  0  0  0  0
   -3.3700   50.8890   20.1150 C   0  0  0  0  0  0
   -4.7510   51.1550   19.9410 C   0  0  0  0  0  0
   -2.5260   51.1070   19.0170 C   0  0  0  0  0  0
   -3.0490   51.6390   17.8270 C   0  0  0  0  0  0
   -4.4240   51.9100   17.7250 N   0  0  0  0  0  0
   -5.2820   51.6930   18.7410 C   0  0  0  0  0  0
   -6.6090   51.9780   18.4830 N   0  0  0  0  0  0
   -7.6150   51.6890   19.3710 C   0  0  0  0  0  0
   -7.4430   51.2880   20.5260 O   0  0  0  0  0  0
   -9.0660   51.9350   18.8830 C   0  0  0  0  0  0
    5.0816   48.1930   16.1390 H   0  0  0  0  0  0
    5.8113   50.5365   15.6164 H   0  0  0  0  0  0
    5.3253   51.5746   19.7702 H   0  0  0  0  0  0
    2.4214   47.7924   21.0773 H   0  0  0  0  0  0
    3.3466   51.4895   20.5394 H   0  0  0  0  0  0
    1.5370   53.2091   20.6403 H   0  0  0  0  0  0
   -0.8079   52.6154   21.2124 H   0  0  0  0  0  0
   -2.0217   48.1332   25.1616 H   0  0  0  0  0  0
   -3.5926   49.9059   25.8152 H   0  0  0  0  0  0
   -4.9560   48.9476   25.1447 H   0  0  0  0  0  0
   -3.0516   48.0844   27.3898 H   0  0  0  0  0  0
   -4.7725   48.5639   27.5773 H   0  0  0  0  0  0
   -4.3750   46.7599   23.7350 H   0  0  0  0  0  0
   -2.6584   46.2309   23.7298 H   0  0  0  0  0  0
   -4.2525   45.0220   25.3713 H   0  0  0  0  0  0
   -2.7177   45.6587   26.0537 H   0  0  0  0  0  0
   -4.0484   46.2944   27.5732 H   0  0  0  0  0  0
   -5.5459   45.3531   27.3200 H   0  0  0  0  0  0
   -7.5344   47.0406   28.0550 H   0  0  0  0  0  0
   -6.4286   48.3132   27.4351 H   0  0  0  0  0  0
   -6.4435   47.1008   24.9195 H   0  0  0  0  0  0
   -7.5494   45.8282   25.5394 H   0  0  0  0  0  0
   -5.4329   50.9372   20.7630 H   0  0  0  0  0  0
   -1.4657   50.8640   19.0867 H   0  0  0  0  0  0
   -2.3890   51.8414   16.9835 H   0  0  0  0  0  0
   -6.8945   52.4557   17.5342 H   0  0  0  0  0  0
   -9.0477   52.2871   17.8410 H   0  0  0  0  0  0
   -9.5427   52.6957   19.5188 H   0  0  0  0  0  0
   -9.6370   50.9967   18.9430 H   0  0  0  0  0  0
  1  2  1  0  0  0
  2  3  2  0  0  0
  2  8  1  0  0  0
  3  4  1  0  0  0
  3 44  1  0  0  0
  4  5  2  0  0  0
  4 45  1  0  0  0
  5  6  1  0  0  0
  5  7  1  0  0  0
  7  8  2  0  0  0
  7 46  1  0  0  0
  8  9  1  0  0  0
  9 10  2  0  0  0
  9 11  2  0  0  0
  9 12  1  0  0  0
 12 13  1  0  0  0
 12 47  1  0  0  0
 13 14  2  0  0  0
 13 16  1  0  0  0
 14 15  1  0  0  0
 14 19  1  0  0  0
 16 17  2  0  0  0
 16 48  1  0  0  0
 17 18  1  0  0  0
 17 49  1  0  0  0
 18 19  2  0  0  0
 18 50  1  0  0  0
 19 20  1  0  0  0
 20 21  1  0  0  0
 20 33  2  0  0  0
 21 22  2  0  0  0
 22 23  1  0  0  0
 22 32  1  0  0  0
 23 24  1  0  0  0
 23 26  1  0  0  0
 23 51  1  0  0  0
 24 25  1  0  0  0
 24 52  1  0  0  0
 24 53  1  0  0  0
 25 28  1  0  0  0
 25 54  1  0  0  0
 25 55  1  0  0  0
 26 27  1  0  0  0
 26 56  1  0  0  0
 26 57  1  0  0  0
 27 28  1  0  0  0
 27 58  1  0  0  0
 27 59  1  0  0  0
 28 29  1  0  0  0
 28 60  1  0  0  0
 29 30  1  0  0  0
 29 31  1  0  0  0
 29 61  1  0  0  0
 30 31  1  0  0  0
 30 62  1  0  0  0
 30 63  1  0  0  0
 31 64  1  0  0  0
 31 65  1  0  0  0
 32 33  1  0  0  0
 33 34  1  0  0  0
 34 35  2  0  0  0
 34 36  1  0  0  0
 35 39  1  0  0  0
 35 66  1  0  0  0
 36 37  2  0  0  0
 36 67  1  0  0  0
 37 38  1  0  0  0
 37 68  1  0  0  0
 38 39  2  0  0  0
 39 40  1  0  0  0
 40 41  1  0  0  0
 40 69  1  0  0  0
 41 42  2  0  0  0
 41 43  1  0  0  0
 43 70  1  0  0  0
 43 71  1  0  0  0
 43 72  1  0  0  0
M  CHG  1  28   1
M  END
> <s_m_source_file>
../4cqe_ligand.sdf

> <i_m_source_file_index>
1

> <s_epik_input>
RmMxW2NIXVtjSF1jKEYpW2NIXWMxUyg9TykoPU8pW05IXWMyYyhGKWMoW2NIXVtjSF1bY0hdMiktYzNuYyhbQ0BIXTRbQ0gyXVtDSDJdW05ASCtdKFtDSDJdW0NIMl00KVtDSF01W0NIMl1bQ0gyXTUpc2MzLWM2W2NIXWMobltjSF1bY0hdNilbTkhdQyg9TylbQ0gzXQ==

> <s_epik_cmdline>
J2VwaWtfYXBwJywgJy1pbWFlJywgJ2xpZ2FuZF9wcm8ubWFlJywgJy1vbWFlJywgJ2xpZ2FuZF9wcmVwLm1hZScsICctbXMnLCAnMScsICctcGgnLCAnNycsICctcGh0JywgJzAuNScsICctbnQn

> <r_epik_Ionization_Penalty>
  0.5683

> <r_epik_Ionization_Penalty_Charging>
  0.1711

> <r_epik_Ionization_Penalty_Neutral>
  0.3972

> <r_epik_State_Penalty>
  0.3963

> <r_epik_Charging_Adjusted_Penalty>
0.567382015985266

> <i_epik_Tot_Q>
1

> <i_epik_Tot_abs_Q>
1

$$$$
