4cqf_ligand
                    3D
 Schrodinger Suite 2020-3.
 39 39  0  0  1  0            999 V2000
   46.1650   33.5440   86.2490 O   0  0  0  0  0  0
   46.0930   32.9900   85.1640 C   0  0  0  0  0  0
   47.2660   32.2200   84.6740 C   0  0  0  0  0  0
   48.0730   31.0510   85.7180 S   0  0  0  0  0  0
   44.9210   33.0910   84.3400 N   0  0  0  0  0  0
   43.7630   33.8680   84.6820 C   0  0  0  0  0  0
   42.9230   34.3090   83.5290 C   0  0  0  0  0  0
   43.0060   35.6520   82.8860 C   0  0  0  0  0  0
   41.8240   36.5430   83.1060 C   0  0  0  0  0  0
   41.0410   37.0460   81.9350 C   0  0  0  0  0  0
   41.3440   38.4020   81.3720 C   0  0  0  0  0  0
   41.3170   38.5360   80.1540 O   0  0  0  0  0  0
   41.6600   39.4970   82.2600 N   0  0  0  0  0  0
   41.9680   40.8580   81.8820 C   0  0  0  0  0  0
   41.0780   41.5760   81.0650 C   0  0  0  0  0  0
   41.3530   42.8990   80.6970 C   0  0  0  0  0  0
   42.5110   43.5190   81.1670 C   0  0  0  0  0  0
   43.3950   42.8190   81.9980 C   0  0  0  0  0  0
   43.1120   41.5030   82.3740 C   0  0  0  0  0  0
   46.9734   31.6251   83.7962 H   0  0  0  0  0  0
   48.0704   32.9160   84.3937 H   0  0  0  0  0  0
   48.9403   30.4868   85.3446 H   0  0  0  0  0  0
   44.9453   32.5262   83.3964 H   0  0  0  0  0  0
   43.1058   33.2776   85.3374 H   0  0  0  0  0  0
   44.0769   34.7830   85.2057 H   0  0  0  0  0  0
   43.1003   33.6442   82.6708 H   0  0  0  0  0  0
   41.8608   34.2672   83.8120 H   0  0  0  0  0  0
   43.8804   36.1926   83.2775 H   0  0  0  0  0  0
   43.1067   35.5317   81.7972 H   0  0  0  0  0  0
   41.0778   36.0173   83.7198 H   0  0  0  0  0  0
   42.1461   37.4582   83.6244 H   0  0  0  0  0  0
   41.1755   36.3629   81.0833 H   0  0  0  0  0  0
   39.9747   37.0952   82.2007 H   0  0  0  0  0  0
   41.6828   39.3341   83.3476 H   0  0  0  0  0  0
   40.1636   41.0979   80.7139 H   0  0  0  0  0  0
   40.6662   43.4412   80.0471 H   0  0  0  0  0  0
   42.7282   44.5498   80.8871 H   0  0  0  0  0  0
   44.3058   43.3018   82.3523 H   0  0  0  0  0  0
   43.7830   40.9759   83.0523 H   0  0  0  0  0  0
  1  2  2  0  0  0
  2  3  1  0  0  0
  2  5  1  0  0  0
  3  4  1  0  0  0
  3 20  1  0  0  0
  3 21  1  0  0  0
  4 22  1  0  0  0
  5  6  1  0  0  0
  5 23  1  0  0  0
  6  7  1  0  0  0
  6 24  1  0  0  0
  6 25  1  0  0  0
  7  8  1  0  0  0
  7 26  1  0  0  0
  7 27  1  0  0  0
  8  9  1  0  0  0
  8 28  1  0  0  0
  8 29  1  0  0  0
  9 10  1  0  0  0
  9 30  1  0  0  0
  9 31  1  0  0  0
 10 11  1  0  0  0
 10 32  1  0  0  0
 10 33  1  0  0  0
 11 12  2  0  0  0
 11 13  1  0  0  0
 13 14  1  0  0  0
 13 34  1  0  0  0
 14 15  2  0  0  0
 14 19  1  0  0  0
 15 16  1  0  0  0
 15 35  1  0  0  0
 16 17  2  0  0  0
 16 36  1  0  0  0
 17 18  1  0  0  0
 17 37  1  0  0  0
 18 19  2  0  0  0
 18 38  1  0  0  0
 19 39  1  0  0  0
M  END
> <s_m_source_file>
../4cqf_ligand.sdf

> <i_m_source_file_index>
1

> <s_epik_input>
W1NIXVtDSDJdQyg9TylbTkhdW0NIMl1bQ0gyXVtDSDJdW0NIMl1bQ0gyXUMoPU8pW05IXWMxW2NIXVtjSF1bY0hdW2NIXVtjSF0x

> <s_epik_cmdline>
J2VwaWtfYXBwJywgJy1pbWFlJywgJ2xpZ2FuZF9wcm8ubWFlJywgJy1vbWFlJywgJ2xpZ2FuZF9wcmVwLm1hZScsICctbXMnLCAnMScsICctcGgnLCAnNycsICctcGh0JywgJzAuNScsICctbnQn

> <r_epik_Ionization_Penalty>
  0.0182

> <r_epik_Ionization_Penalty_Charging>
  0.0000

> <r_epik_Ionization_Penalty_Neutral>
  0.0182

> <r_epik_State_Penalty>
  0.0144

> <r_epik_Charging_Adjusted_Penalty>
0.0144159687036183

> <i_epik_Tot_Q>
0

> <i_epik_Tot_abs_Q>
0

$$$$
