4cqg_ligand
                    3D
 Schrodinger Suite 2020-3.
 61 64  0  0  1  0            999 V2000
    6.3310  -13.1830   35.2250 C   0  0  0  0  0  0
    7.0430  -13.4300   34.0190 N   0  3  0  0  0  0
    7.6910  -12.1930   33.2510 C   0  0  0  0  0  0
    7.1990  -11.6070   31.9250 C   0  0  2  0  0  0
    8.6340  -11.2870   31.4900 C   0  0  0  0  0  0
    8.7300  -10.1930   30.4660 C   0  0  0  0  0  0
    8.0440   -8.9600   30.8840 C   0  0  2  0  0  0
    7.3780   -9.1440   32.2090 C   0  0  0  0  0  0
    6.4560  -10.3330   32.1540 C   0  0  0  0  0  0
    6.8130   -8.3820   30.1620 N   0  0  0  0  0  0
    6.5990   -7.0890   29.3360 C   0  0  0  0  0  0
    7.1670   -5.7720   29.3920 C   0  0  0  0  0  0
    6.6020   -4.8740   28.4880 C   0  0  0  0  0  0
    5.6130   -5.2010   27.6270 N   0  0  0  0  0  0
    5.0560   -6.4740   27.6040 C   0  0  0  0  0  0
    5.5400   -7.3990   28.4540 C   0  0  0  0  0  0
    5.0330   -8.6410   28.5050 N   0  0  0  0  0  0
    4.0770   -9.1110   27.7210 C   0  0  0  0  0  0
    3.5150   -8.1750   26.8260 C   0  0  0  0  0  0
    4.0110   -6.8750   26.7690 C   0  0  0  0  0  0
    3.6520  -10.3880   27.9160 C   0  0  0  0  0  0
    4.4040  -11.3350   28.5750 C   0  0  0  0  0  0
    3.8970  -12.6020   28.8000 C   0  0  0  0  0  0
    4.8820  -13.8050   29.5690 Cl  0  0  0  0  0  0
    2.6040  -12.9220   28.3880 C   0  0  0  0  0  0
    1.8320  -11.9820   27.7570 C   0  0  0  0  0  0
    2.3470  -10.7220   27.5430 C   0  0  0  0  0  0
    0.2220  -12.3710   27.2540 Cl  0  0  0  0  0  0
    2.0760  -14.1520   28.5840 O   0  5  0  0  0  0
    8.2760   -5.2430   30.3000 C   0  0  0  0  0  0
    8.4960   -4.0210   30.3420 O   0  0  0  0  0  0
    9.1420   -6.0930   31.2620 C   0  0  0  0  0  0
    6.3370  -14.3710   33.0340 C   0  0  0  0  0  0
    6.9141  -12.5017   35.8621 H   0  0  0  0  0  0
    6.1686  -14.1326   35.7559 H   0  0  0  0  0  0
    5.3596  -12.7236   34.9898 H   0  0  0  0  0  0
    7.8204  -13.9782   34.5713 H   0  0  0  0  0  0
    7.6573  -11.3026   33.8960 H   0  0  0  0  0  0
    8.7366  -12.4243   32.9997 H   0  0  0  0  0  0
    6.5194  -12.1856   31.2821 H   0  0  0  0  0  0
    9.2194  -10.9665   32.3644 H   0  0  0  0  0  0
    9.0929  -12.1850   31.0507 H   0  0  0  0  0  0
    9.7876   -9.9465   30.2908 H   0  0  0  0  0  0
    8.2714  -10.5304   29.5248 H   0  0  0  0  0  0
    8.9412   -8.3384   30.7469 H   0  0  0  0  0  0
    8.1415   -9.3107   32.9831 H   0  0  0  0  0  0
    6.7966   -8.2433   32.4554 H   0  0  0  0  0  0
    5.7394  -10.1741   31.3347 H   0  0  0  0  0  0
    5.9137  -10.3914   33.1093 H   0  0  0  0  0  0
    5.8569   -8.9255   30.1842 H   0  0  0  0  0  0
    6.9788   -3.8513   28.4748 H   0  0  0  0  0  0
    2.6903   -8.4708   26.1776 H   0  0  0  0  0  0
    3.5792   -6.1632   26.0655 H   0  0  0  0  0  0
    5.4064  -11.0841   28.9219 H   0  0  0  0  0  0
    1.7202   -9.9658   27.0704 H   0  0  0  0  0  0
    8.8764   -7.1549   31.1531 H   0  0  0  0  0  0
    8.9593   -5.7738   32.2987 H   0  0  0  0  0  0
   10.2055   -5.9541   31.0176 H   0  0  0  0  0  0
    5.8979  -15.2159   33.5848 H   0  0  0  0  0  0
    7.0657  -14.7494   32.3021 H   0  0  0  0  0  0
    5.5412  -13.8223   32.5091 H   0  0  0  0  0  0
  1  2  1  0  0  0
  1 34  1  0  0  0
  1 35  1  0  0  0
  1 36  1  0  0  0
  2  3  1  0  0  0
  2 33  1  0  0  0
  2 37  1  0  0  0
  3  4  1  0  0  0
  3 38  1  0  0  0
  3 39  1  0  0  0
  4  5  1  0  0  0
  4  9  1  0  0  0
  4 40  1  0  0  0
  5  6  1  0  0  0
  5 41  1  0  0  0
  5 42  1  0  0  0
  6  7  1  0  0  0
  6 43  1  0  0  0
  6 44  1  0  0  0
  7  8  1  0  0  0
  7 10  1  0  0  0
  7 45  1  0  0  0
  8  9  1  0  0  0
  8 46  1  0  0  0
  8 47  1  0  0  0
  9 48  1  0  0  0
  9 49  1  0  0  0
 10 11  1  0  0  0
 10 50  1  0  0  0
 11 12  2  0  0  0
 11 16  1  0  0  0
 12 13  1  0  0  0
 12 30  1  0  0  0
 13 14  2  0  0  0
 13 51  1  0  0  0
 14 15  1  0  0  0
 15 16  2  0  0  0
 15 20  1  0  0  0
 16 17  1  0  0  0
 17 18  2  0  0  0
 18 19  1  0  0  0
 18 21  1  0  0  0
 19 20  2  0  0  0
 19 52  1  0  0  0
 20 53  1  0  0  0
 21 22  2  0  0  0
 21 27  1  0  0  0
 22 23  1  0  0  0
 22 54  1  0  0  0
 23 24  1  0  0  0
 23 25  2  0  0  0
 25 26  1  0  0  0
 25 29  1  0  0  0
 26 27  2  0  0  0
 26 28  1  0  0  0
 27 55  1  0  0  0
 30 31  2  0  0  0
 30 32  1  0  0  0
 32 56  1  0  0  0
 32 57  1  0  0  0
 32 58  1  0  0  0
 33 59  1  0  0  0
 33 60  1  0  0  0
 33 61  1  0  0  0
M  CHG  2   2   1  29  -1
M  END
> <s_m_source_file>
../4cqg_ligand.sdf

> <i_m_source_file_index>
1

> <s_epik_input>
W0NIM11bTkgrXShbQ0gzXSlbQ0gyXVtDQEBIXTFbQ0gyXVtDSDJdW0NASF0oW0NIMl1bQ0gyXTEpW05IXWMoYyhbY0hdbjIpQyg9TylbQ0gzXSljKGMyMyluYyhbY0hdW2NIXTMpLWM0W2NIXWMoQ2wpYyhbT0hdKWMoQ2wpW2NIXTQ=

> <s_epik_cmdline>
J2VwaWtfYXBwJywgJy1pbWFlJywgJ2xpZ2FuZF9wcm8ubWFlJywgJy1vbWFlJywgJ2xpZ2FuZF9wcmVwLm1hZScsICctbXMnLCAnMScsICctcGgnLCAnNycsICctcGh0JywgJzAuNScsICctbnQn

> <r_lp_tautomer_probability>
0.99995

> <r_epik_Ionization_Penalty>
  0.3545

> <r_epik_Ionization_Penalty_Charging>
  0.3543

> <r_epik_Ionization_Penalty_Neutral>
  0.0002

> <r_epik_State_Penalty>
  0.3496

> <r_epik_Charging_Adjusted_Penalty>
0.703846962161828

> <i_epik_Tot_Q>
0

> <i_epik_Tot_abs_Q>
2

$$$$
