4cr5_ligand
                    3D
 Schrodinger Suite 2020-3.
 18 19  0  0  1  0            999 V2000
  -20.6930  -45.1470  -12.4050 Cl  0  0  0  0  0  0
  -19.1810  -50.7650  -11.4780 N   0  0  0  0  0  0
  -19.5240  -49.4240  -11.6910 C   0  0  0  0  0  0
  -18.5520  -48.4440  -11.6490 C   0  0  0  0  0  0
  -18.9290  -47.1330  -11.8710 C   0  0  0  0  0  0
  -20.2490  -46.8040  -12.1150 C   0  0  0  0  0  0
  -21.2170  -47.7870  -12.1330 C   0  0  0  0  0  0
  -20.8440  -49.1010  -11.9210 C   0  0  0  0  0  0
  -21.8460  -50.1490  -11.9410 C   0  0  0  0  0  0
  -21.5340  -51.4340  -11.7370 C   0  0  0  0  0  0
  -20.1120  -51.7950  -11.4920 C   0  0  0  0  0  0
  -19.8360  -52.9760  -11.3140 O   0  0  0  0  0  0
  -18.1332  -51.0413  -11.2888 H   0  0  0  0  0  0
  -17.5118  -48.6984  -11.4455 H   0  0  0  0  0  0
  -18.1741  -46.3469  -11.8534 H   0  0  0  0  0  0
  -22.2613  -47.5310  -12.3119 H   0  0  0  0  0  0
  -22.8860  -49.8815  -12.1281 H   0  0  0  0  0  0
  -22.3074  -52.2019  -11.7501 H   0  0  0  0  0  0
  1  6  1  0  0  0
  2  3  1  0  0  0
  2 11  1  0  0  0
  2 13  1  0  0  0
  3  4  2  0  0  0
  3  8  1  0  0  0
  4  5  1  0  0  0
  4 14  1  0  0  0
  5  6  2  0  0  0
  5 15  1  0  0  0
  6  7  1  0  0  0
  7  8  2  0  0  0
  7 16  1  0  0  0
  8  9  1  0  0  0
  9 10  2  0  0  0
  9 17  1  0  0  0
 10 11  1  0  0  0
 10 18  1  0  0  0
 11 12  2  0  0  0
M  END
> <s_m_source_file>
../4cr5_ligand.sdf

> <i_m_source_file_index>
1

> <s_epik_input>
W2NIXTFbY0hdYyhDbClbY0hdYyhjMTIpW2NIXVtjSF1jKD1PKVtuSF0y

> <s_epik_cmdline>
J2VwaWtfYXBwJywgJy1pbWFlJywgJ2xpZ2FuZF9wcm8ubWFlJywgJy1vbWFlJywgJ2xpZ2FuZF9wcmVwLm1hZScsICctbXMnLCAnMScsICctcGgnLCAnNycsICctcGh0JywgJzAuNScsICctbnQn

> <r_lp_tautomer_probability>
1

> <r_epik_Ionization_Penalty>
  0.0004

> <r_epik_Ionization_Penalty_Charging>
  0.0004

> <r_epik_Ionization_Penalty_Neutral>
  0.0000

> <r_epik_State_Penalty>
 -0.0000

> <r_epik_Charging_Adjusted_Penalty>
0.000404992097899689

> <i_epik_Tot_Q>
0

> <i_epik_Tot_abs_Q>
0

$$$$
