4crb_ligand
                    3D
 Schrodinger Suite 2020-3.
 63 67  0  0  1  0            999 V2000
   26.2000    9.5370   55.0110 C   0  0  0  0  0  0
   25.3570    9.9080   55.8240 O   0  0  0  0  0  0
   27.1740    8.4730   55.3670 C   0  0  0  0  0  0
   28.3860    8.3750   54.7050 C   0  0  0  0  0  0
   29.2700    7.3790   55.0660 C   0  0  0  0  0  0
   28.9450    6.4940   56.0840 C   0  0  0  0  0  0
   27.7430    6.5930   56.7400 C   0  0  0  0  0  0
   26.8570    7.5880   56.3810 C   0  0  0  0  0  0
   27.4610    5.6350   57.8180 C   0  0  0  0  0  0
   28.3190    4.6720   58.1800 C   0  0  0  0  0  0
   29.6090    4.5560   57.4780 C   0  0  0  0  0  0
   30.4060    3.6780   57.8010 O   0  5  0  0  0  0
   29.8400    5.4800   56.4710 N   0  0  0  0  0  0
   26.2580    5.7780   58.4400 O   0  0  0  0  0  0
   26.3400   10.0950   53.7540 N   0  0  0  0  0  0
   25.6060   11.2790   53.3790 C   0  0  2  0  0  0
   24.8570   10.8830   52.1290 C   0  0  0  0  0  0
   25.2390   10.0020   51.3770 O   0  0  0  0  0  0
   26.5660   12.3950   53.0010 C   0  0  0  0  0  0
   27.5820   12.7140   54.0590 C   0  0  0  0  0  0
   27.1840   13.2180   55.2810 C   0  0  0  0  0  0
   28.9210   12.5150   53.8120 C   0  0  0  0  0  0
   28.1100   13.5210   56.2530 C   0  0  0  0  0  0
   29.8530   12.8100   54.7860 C   0  0  0  0  0  0
   29.4490   13.3140   56.0040 C   0  0  0  0  0  0
   18.6600   11.2170   48.9850 C   0  0  0  0  0  0
   18.8700   11.3940   47.6230 C   0  0  0  0  0  0
   20.0790   11.8940   47.1840 C   0  0  0  0  0  0
   21.0630   12.2140   48.1020 C   0  0  0  0  0  0
   20.8720   12.0500   49.4640 C   0  0  0  0  0  0
   19.6540   11.5460   49.8970 C   0  0  0  0  0  0
   20.3650   12.1350   45.4710 Cl  0  0  0  0  0  0
   19.4020   11.3720   51.2760 N   0  0  0  0  0  0
   19.9170   10.4290   52.1240 C   0  0  0  0  0  0
   19.3750   10.5760   53.3200 N   0  0  0  0  0  0
   18.5080   11.6310   53.1910 N   0  0  0  0  0  0
   18.5170   12.1240   51.9570 N   0  0  0  0  0  0
   21.9770   12.4320   50.4060 C   0  0  0  0  0  0
   22.8470   11.2630   50.7970 C   0  0  0  0  0  0
   23.7030   11.6050   51.9140 N   0  0  0  0  0  0
   28.6386    9.0755   53.9090 H   0  0  0  0  0  0
   30.2259    7.2872   54.5503 H   0  0  0  0  0  0
   25.9023    7.6768   56.8994 H   0  0  0  0  0  0
   28.0655    3.9820   58.9849 H   0  0  0  0  0  0
   30.8091    5.3776   55.9607 H   0  0  0  0  0  0
   27.0245    9.6214   53.0349 H   0  0  0  0  0  0
   24.9708   11.5909   54.2212 H   0  0  0  0  0  0
   27.1208   12.1102   52.0949 H   0  0  0  0  0  0
   25.9985   13.3174   52.8086 H   0  0  0  0  0  0
   26.1240   13.3778   55.4783 H   0  0  0  0  0  0
   29.2454   12.1245   52.8474 H   0  0  0  0  0  0
   27.7861   13.9221   57.2134 H   0  0  0  0  0  0
   30.9126   12.6439   54.5916 H   0  0  0  0  0  0
   30.1886   13.5486   56.7695 H   0  0  0  0  0  0
   17.7098   10.8177   49.3395 H   0  0  0  0  0  0
   18.0873   11.1404   46.9081 H   0  0  0  0  0  0
   22.0149   12.6060   47.7437 H   0  0  0  0  0  0
   20.6574    9.6756   51.8551 H   0  0  0  0  0  0
   22.6221   13.1843   49.9286 H   0  0  0  0  0  0
   21.5453   12.8506   51.3271 H   0  0  0  0  0  0
   22.2111   10.4134   51.0866 H   0  0  0  0  0  0
   23.4784   10.9743   49.9438 H   0  0  0  0  0  0
   23.4299   12.4350   52.5823 H   0  0  0  0  0  0
  1  2  2  0  0  0
  1  3  1  0  0  0
  1 15  1  0  0  0
  3  4  2  0  0  0
  3  8  1  0  0  0
  4  5  1  0  0  0
  4 41  1  0  0  0
  5  6  2  0  0  0
  5 42  1  0  0  0
  6  7  1  0  0  0
  6 13  1  0  0  0
  7  8  2  0  0  0
  7  9  1  0  0  0
  8 43  1  0  0  0
  9 10  1  0  0  0
  9 14  2  0  0  0
 10 11  2  0  0  0
 10 44  1  0  0  0
 11 12  1  0  0  0
 11 13  1  0  0  0
 13 45  1  0  0  0
 15 16  1  0  0  0
 15 46  1  0  0  0
 16 17  1  0  0  0
 16 19  1  0  0  0
 16 47  1  0  0  0
 17 18  2  0  0  0
 17 40  1  0  0  0
 19 20  1  0  0  0
 19 48  1  0  0  0
 19 49  1  0  0  0
 20 21  2  0  0  0
 20 22  1  0  0  0
 21 23  1  0  0  0
 21 50  1  0  0  0
 22 24  2  0  0  0
 22 51  1  0  0  0
 23 25  2  0  0  0
 23 52  1  0  0  0
 24 25  1  0  0  0
 24 53  1  0  0  0
 25 54  1  0  0  0
 26 27  2  0  0  0
 26 31  1  0  0  0
 26 55  1  0  0  0
 27 28  1  0  0  0
 27 56  1  0  0  0
 28 29  2  0  0  0
 28 32  1  0  0  0
 29 30  1  0  0  0
 29 57  1  0  0  0
 30 31  2  0  0  0
 30 38  1  0  0  0
 31 33  1  0  0  0
 33 34  1  0  0  0
 33 37  1  0  0  0
 34 35  2  0  0  0
 34 58  1  0  0  0
 35 36  1  0  0  0
 36 37  2  0  0  0
 38 39  1  0  0  0
 38 59  1  0  0  0
 38 60  1  0  0  0
 39 40  1  0  0  0
 39 61  1  0  0  0
 39 62  1  0  0  0
 40 63  1  0  0  0
M  CHG  1  12  -1
M  END
> <s_m_source_file>
../4crb_ligand.sdf

> <i_m_source_file_index>
1

> <s_epik_input>
Tz1jKFtuSF0xKVtjSF1jKFtPSF0pYyhjMTIpW2NIXWMoW2NIXVtjSF0yKUMoPU8pW05IXVtDQEBIXShbQ0gyXWMzW2NIXVtjSF1bY0hdW2NIXVtjSF0zKUMoPU8pW05IXVtDSDJdW0NIMl1jKFtjSF00KWMoW2NIXVtjSF1jNENsKS1uNVtjSF1ubm41

> <s_epik_cmdline>
J2VwaWtfYXBwJywgJy1pbWFlJywgJ2xpZ2FuZF9wcm8ubWFlJywgJy1vbWFlJywgJ2xpZ2FuZF9wcmVwLm1hZScsICctbXMnLCAnMScsICctcGgnLCAnNycsICctcGh0JywgJzAuNScsICctbnQn

> <r_lp_tautomer_probability>
1

> <r_epik_Ionization_Penalty>
  0.0096

> <r_epik_Ionization_Penalty_Charging>
  0.0096

> <r_epik_Ionization_Penalty_Neutral>
  0.0000

> <r_epik_State_Penalty>
 -0.0000

> <r_epik_Charging_Adjusted_Penalty>
0.00964797521729289

> <i_epik_Tot_Q>
-1

> <i_epik_Tot_abs_Q>
1

$$$$
