4crd_ligand
                    3D
 Schrodinger Suite 2020-3.
 54 57  0  0  1  0            999 V2000
  -28.7200  -54.6420   -7.9940 C   0  0  0  0  0  0
  -27.0810  -56.1420   -7.1260 C   0  0  0  0  0  0
  -18.6650  -48.7450  -10.5310 C   0  0  0  0  0  0
  -29.5810  -55.0110   -6.9850 C   0  0  0  0  0  0
  -27.9340  -56.5190   -6.0890 C   0  0  0  0  0  0
  -18.7880  -47.3690  -10.6480 C   0  0  0  0  0  0
  -21.0900  -47.6150  -11.3120 C   0  0  0  0  0  0
  -18.7110  -51.6950  -11.3670 C   0  0  0  0  0  0
  -27.4650  -55.2140   -8.0860 C   0  0  0  0  0  0
  -20.9900  -48.9900  -11.2100 C   0  0  0  0  0  0
  -19.7720  -49.5220  -10.8190 C   0  0  0  0  0  0
  -29.2010  -55.9470   -6.0450 C   0  0  0  0  0  0
  -19.9970  -46.8150  -11.0340 C   0  0  0  0  0  0
  -26.6170  -54.8020   -9.2100 C   0  0  0  0  0  0
  -25.6130  -55.5300   -9.8050 C   0  0  0  0  0  0
  -25.8020  -53.5970  -10.8050 C   0  0  0  0  0  0
  -24.2570  -50.9040  -10.3800 C   0  0  0  0  0  0
  -30.1150  -57.2880   -4.1790 C   0  0  0  0  0  0
  -31.1040  -58.0850   -2.2570 C   0  0  0  0  0  0
  -22.2070  -49.8260  -11.5270 C   0  0  0  0  0  0
  -25.5010  -52.5350  -11.7840 C   0  0  0  0  0  0
  -22.9820  -50.0930  -10.2390 C   0  0  0  0  0  0
  -18.8200  -52.9220  -10.9180 N   0  0  0  0  0  0
  -26.7230  -53.5940   -9.8510 N   0  0  0  0  0  0
  -19.8060  -52.9120   -9.9620 N   0  0  0  0  0  0
  -20.2870  -51.6720   -9.8360 N   0  0  0  0  0  0
  -25.1050  -54.7710  -10.8050 N   0  0  0  0  0  0
  -19.6110  -50.9150  -10.7020 N   0  0  0  0  0  0
  -30.1660  -56.2280   -5.0580 N   0  0  0  0  0  0
  -24.2910  -51.7770  -11.4370 N   0  0  0  0  0  0
  -25.1770  -50.8170   -9.5690 O   0  0  0  0  0  0
  -29.1900  -58.0850   -4.0230 O   0  0  0  0  0  0
  -31.2540  -57.3070   -3.4530 O   0  0  0  0  0  0
  -20.1530  -45.1050  -11.1750 Cl  0  0  0  0  0  0
  -24.9510  -57.1060   -9.5010 Cl  0  0  0  0  0  0
  -29.0297  -53.8946   -8.7244 H   0  0  0  0  0  0
  -26.0876  -56.5868   -7.1848 H   0  0  0  0  0  0
  -17.7243  -49.2004  -10.2214 H   0  0  0  0  0  0
  -30.5716  -54.5598   -6.9282 H   0  0  0  0  0  0
  -27.6172  -57.2403   -5.3356 H   0  0  0  0  0  0
  -17.9347  -46.7245  -10.4366 H   0  0  0  0  0  0
  -22.0337  -47.1599  -11.6126 H   0  0  0  0  0  0
  -18.0200  -51.3564  -12.1390 H   0  0  0  0  0  0
  -32.0488  -58.0773   -1.6937 H   0  0  0  0  0  0
  -30.3040  -57.6540   -1.6372 H   0  0  0  0  0  0
  -30.8443  -59.1202   -2.5232 H   0  0  0  0  0  0
  -22.8483  -49.2850  -12.2383 H   0  0  0  0  0  0
  -21.8902  -50.7808  -11.9719 H   0  0  0  0  0  0
  -25.3466  -52.9841  -12.7762 H   0  0  0  0  0  0
  -26.3426  -51.8280  -11.8285 H   0  0  0  0  0  0
  -23.2205  -49.1051   -9.8181 H   0  0  0  0  0  0
  -22.2854  -50.6184   -9.5692 H   0  0  0  0  0  0
  -31.0446  -55.5756   -4.9463 H   0  0  0  0  0  0
  -23.3746  -51.9011  -12.0326 H   0  0  0  0  0  0
  1  4  2  0  0  0
  1  9  1  0  0  0
  1 36  1  0  0  0
  2  5  1  0  0  0
  2  9  2  0  0  0
  2 37  1  0  0  0
  3  6  2  0  0  0
  3 11  1  0  0  0
  3 38  1  0  0  0
  4 12  1  0  0  0
  4 39  1  0  0  0
  5 12  2  0  0  0
  5 40  1  0  0  0
  6 13  1  0  0  0
  6 41  1  0  0  0
  7 10  1  0  0  0
  7 13  2  0  0  0
  7 42  1  0  0  0
  8 23  2  0  0  0
  8 28  1  0  0  0
  8 43  1  0  0  0
  9 14  1  0  0  0
 10 11  2  0  0  0
 10 20  1  0  0  0
 11 28  1  0  0  0
 12 29  1  0  0  0
 13 34  1  0  0  0
 14 15  2  0  0  0
 14 24  1  0  0  0
 15 27  1  0  0  0
 15 35  1  0  0  0
 16 21  1  0  0  0
 16 24  2  0  0  0
 16 27  1  0  0  0
 17 22  1  0  0  0
 17 30  1  0  0  0
 17 31  2  0  0  0
 18 29  1  0  0  0
 18 32  2  0  0  0
 18 33  1  0  0  0
 19 33  1  0  0  0
 19 44  1  0  0  0
 19 45  1  0  0  0
 19 46  1  0  0  0
 20 22  1  0  0  0
 20 47  1  0  0  0
 20 48  1  0  0  0
 21 30  1  0  0  0
 21 49  1  0  0  0
 21 50  1  0  0  0
 22 51  1  0  0  0
 22 52  1  0  0  0
 23 25  1  0  0  0
 25 26  2  0  0  0
 26 28  1  0  0  0
 29 53  1  0  0  0
 30 54  1  0  0  0
M  END
> <s_m_source_file>
../4crd_ligand.sdf

> <i_m_source_file_index>
1

> <s_epik_input>
W0NIM11PQyg9TylbTkhdYyhbY0hdW2NIXTEpW2NIXVtjSF1jMS1jMmMoQ2wpW25IXWMobjIpW0NIMl1bTkhdQyg9TylbQ0gyXVtDSDJdYzNbY0hdYyhDbClbY0hdW2NIXWMzLW40W2NIXW5ubjQ=

> <s_epik_cmdline>
J2VwaWtfYXBwJywgJy1pbWFlJywgJ2xpZ2FuZF9wcm8ubWFlJywgJy1vbWFlJywgJ2xpZ2FuZF9wcmVwLm1hZScsICctbXMnLCAnMScsICctcGgnLCAnNycsICctcGh0JywgJzAuNScsICctbnQn

> <r_lp_tautomer_probability>
1

> <r_epik_Ionization_Penalty>
 13.6461

> <r_epik_Ionization_Penalty_Charging>
  0.0000

> <r_epik_Ionization_Penalty_Neutral>
 13.6461

> <r_epik_State_Penalty>
 -0.0000

> <r_epik_Charging_Adjusted_Penalty>
0

> <i_epik_Tot_Q>
0

> <i_epik_Tot_abs_Q>
0

> <s_epik_Chemistry_Notes>
This compound has an ester and may undergo hydrolysis at high or low pH.

$$$$
