4crf_ligand
                    3D
 Schrodinger Suite 2020-3.
 61 65  0  0  1  0            999 V2000
   55.1080   26.2910    9.7460 C   0  0  0  0  0  0
   55.9030   25.4390   10.0890 O   0  0  0  0  0  0
   55.5030   27.2100    8.6380 C   0  0  0  0  0  0
   54.8530   28.4460    8.4840 C   0  0  0  0  0  0
   55.2240   29.2870    7.4800 C   0  0  0  0  0  0
   56.2730   28.9690    6.6110 C   0  0  0  0  0  0
   56.9580   27.7580    6.7550 C   0  0  0  0  0  0
   56.5580   26.8840    7.7700 C   0  0  0  0  0  0
   58.0870   27.4910    5.8130 C   0  0  0  0  0  0
   58.4050   28.4190    4.8420 C   0  0  0  0  0  0
   57.6600   29.6130    4.7530 C   0  0  0  0  0  0
   57.9350   30.4470    3.8980 O   0  5  0  0  0  0
   56.6530   29.8500    5.6090 N   0  0  0  0  0  0
   58.8320   26.3780    5.8830 O   0  0  0  0  0  0
   53.9130   26.4090   10.3940 N   0  0  0  0  0  0
   53.4960   25.5340   11.4910 C   0  0  2  0  0  0
   52.1850   24.8580   11.1870 C   0  0  0  0  0  0
   51.5720   25.0900   10.1570 O   0  0  0  0  0  0
   53.2250   26.3830   12.7300 C   0  0  0  0  0  0
   54.1600   27.5380   12.8420 C   0  0  0  0  0  0
   53.7070   28.8010   12.4820 C   0  0  0  0  0  0
   55.4670   27.3270   13.2990 C   0  0  0  0  0  0
   54.5700   29.8810   12.5870 C   0  0  0  0  0  0
   56.3330   28.4050   13.4000 C   0  0  0  0  0  0
   55.8700   29.6710   13.0480 C   0  0  0  0  0  0
   49.0210   18.5070   11.3950 C   0  0  0  0  0  0
   47.7160   18.8800   11.6200 C   0  0  0  0  0  0
   47.4320   20.2050   11.9060 C   0  0  0  0  0  0
   48.3940   21.1910   11.9750 C   0  0  0  0  0  0
   45.7910   20.6150   12.1660 Cl  0  0  0  0  0  0
   49.7200   20.8190   11.7500 C   0  0  0  0  0  0
   50.0300   19.4710   11.4580 C   0  0  0  0  0  0
   51.3480   19.0820   11.2930 N   0  0  0  0  0  0
   52.3490   19.9880   11.4490 C   0  0  0  0  0  0
   52.0910   21.3830   11.6960 C   0  0  0  0  0  0
   50.8010   21.8220   11.8160 C   0  0  0  0  0  0
   53.5070   19.6070   11.3370 O   0  0  0  0  0  0
   50.4660   23.2800   12.0240 C   0  0  0  0  0  0
   51.6980   24.0230   12.1330 N   0  0  0  0  0  0
   54.0530   28.7310    9.1673 H   0  0  0  0  0  0
   54.6917   30.2293    7.3503 H   0  0  0  0  0  0
   57.0745   25.9317    7.8901 H   0  0  0  0  0  0
   59.2254   28.2304    4.1495 H   0  0  0  0  0  0
   56.1192   30.8036    5.4835 H   0  0  0  0  0  0
   53.2482   27.2153   10.0505 H   0  0  0  0  0  0
   54.3095   24.8022   11.6041 H   0  0  0  0  0  0
   52.1996   26.7788   12.6862 H   0  0  0  0  0  0
   53.3406   25.7634   13.6315 H   0  0  0  0  0  0
   52.6877   28.9409   12.1221 H   0  0  0  0  0  0
   55.7999   26.3257   13.5724 H   0  0  0  0  0  0
   54.2369   30.8820   12.3127 H   0  0  0  0  0  0
   57.3564   28.2647   13.7481 H   0  0  0  0  0  0
   56.5438   30.5233   13.1354 H   0  0  0  0  0  0
   49.2653   17.4689   11.1697 H   0  0  0  0  0  0
   46.9154   18.1417   11.5737 H   0  0  0  0  0  0
   48.1279   22.2243   12.1974 H   0  0  0  0  0  0
   51.5856   18.0393   11.0355 H   0  0  0  0  0  0
   52.9194   22.0856   11.7869 H   0  0  0  0  0  0
   49.8809   23.6475   11.1680 H   0  0  0  0  0  0
   49.8771   23.3930   12.9462 H   0  0  0  0  0  0
   52.3173   23.9315   13.0375 H   0  0  0  0  0  0
  1  2  2  0  0  0
  1  3  1  0  0  0
  1 15  1  0  0  0
  3  4  2  0  0  0
  3  8  1  0  0  0
  4  5  1  0  0  0
  4 40  1  0  0  0
  5  6  2  0  0  0
  5 41  1  0  0  0
  6  7  1  0  0  0
  6 13  1  0  0  0
  7  8  2  0  0  0
  7  9  1  0  0  0
  8 42  1  0  0  0
  9 10  1  0  0  0
  9 14  2  0  0  0
 10 11  2  0  0  0
 10 43  1  0  0  0
 11 12  1  0  0  0
 11 13  1  0  0  0
 13 44  1  0  0  0
 15 16  1  0  0  0
 15 45  1  0  0  0
 16 17  1  0  0  0
 16 19  1  0  0  0
 16 46  1  0  0  0
 17 18  2  0  0  0
 17 39  1  0  0  0
 19 20  1  0  0  0
 19 47  1  0  0  0
 19 48  1  0  0  0
 20 21  2  0  0  0
 20 22  1  0  0  0
 21 23  1  0  0  0
 21 49  1  0  0  0
 22 24  2  0  0  0
 22 50  1  0  0  0
 23 25  2  0  0  0
 23 51  1  0  0  0
 24 25  1  0  0  0
 24 52  1  0  0  0
 25 53  1  0  0  0
 26 27  2  0  0  0
 26 32  1  0  0  0
 26 54  1  0  0  0
 27 28  1  0  0  0
 27 55  1  0  0  0
 28 29  2  0  0  0
 28 30  1  0  0  0
 29 31  1  0  0  0
 29 56  1  0  0  0
 31 32  2  0  0  0
 31 36  1  0  0  0
 32 33  1  0  0  0
 33 34  1  0  0  0
 33 57  1  0  0  0
 34 35  1  0  0  0
 34 37  2  0  0  0
 35 36  2  0  0  0
 35 58  1  0  0  0
 36 38  1  0  0  0
 38 39  1  0  0  0
 38 59  1  0  0  0
 38 60  1  0  0  0
 39 61  1  0  0  0
M  CHG  1  12  -1
M  END
> <s_m_source_file>
../4crf_ligand.sdf

> <i_m_source_file_index>
1

> <s_epik_input>
Tz1jKFtuSF0xKVtjSF1jKFtPSF0pYyhjMTIpW2NIXWMoW2NIXVtjSF0yKUMoPU8pW05IXVtDQEBIXShbQ0gyXWMzW2NIXVtjSF1bY0hdW2NIXVtjSF0zKUMoPU8pW05IXVtDSDJdYzRbY0hdYyg9TylbbkhdYyhjNDUpW2NIXVtjSF1jKENsKVtjSF01

> <s_epik_cmdline>
J2VwaWtfYXBwJywgJy1pbWFlJywgJ2xpZ2FuZF9wcm8ubWFlJywgJy1vbWFlJywgJ2xpZ2FuZF9wcmVwLm1hZScsICctbXMnLCAnMScsICctcGgnLCAnNycsICctcGh0JywgJzAuNScsICctbnQn

> <r_lp_tautomer_probability>
1

> <r_epik_Ionization_Penalty>
  0.0098

> <r_epik_Ionization_Penalty_Charging>
  0.0098

> <r_epik_Ionization_Penalty_Neutral>
  0.0000

> <r_epik_State_Penalty>
 -0.0000

> <r_epik_Charging_Adjusted_Penalty>
0.00981830569225386

> <i_epik_Tot_Q>
-1

> <i_epik_Tot_abs_Q>
1

$$$$
