4crj_ligand
                    3D
 Schrodinger Suite 2020-3.
 36 38  0  0  1  0            999 V2000
   27.1510  -32.9300    1.9290 C   0  0  0  0  0  0
   26.5740  -31.9360    1.1910 O   0  0  0  0  0  0
   28.3550  -31.4680    3.5690 N   0  0  0  0  0  0
   29.9440  -30.7820    5.6780 S   0  0  0  0  0  0
   34.8890  -32.0870    6.5380 C   0  0  0  0  0  0
   35.5290  -33.1740    5.9730 C   0  0  0  0  0  0
   35.0220  -33.7420    4.8320 C   0  0  0  0  0  0
   33.8850  -33.2370    4.2480 C   0  0  0  0  0  0
   37.1230  -33.2280    7.6690 C   0  0  0  0  0  0
   29.2380  -33.1960    4.6820 N   0  3  0  0  0  0
   27.9590  -32.6500    3.0070 C   0  0  0  0  0  0
   31.6530  -32.3700    3.1740 O   0  0  0  0  0  0
   28.2990  -35.0000    3.3940 N   0  0  0  0  0  0
   29.1160  -31.8420    4.5740 C   0  0  0  0  0  0
   36.6830  -33.7940    6.4460 O   0  0  0  0  0  0
   28.4910  -33.7200    3.6770 C   0  0  3  0  0  0
   26.9370  -34.1990    1.5870 N   0  0  0  0  0  0
   27.5120  -35.1550    2.3260 C   0  0  0  0  0  0
   27.2550  -36.4540    1.9420 N   0  0  0  0  0  0
   31.3140  -30.4340    4.5420 C   0  0  0  0  0  0
   32.0340  -31.6920    4.1190 C   0  0  0  0  0  0
   33.2470  -32.1550    4.8120 C   0  0  0  0  0  0
   33.7450  -31.5730    5.9590 C   0  0  0  0  0  0
   35.2889  -31.6332    7.4448 H   0  0  0  0  0  0
   35.5244  -34.6000    4.3853 H   0  0  0  0  0  0
   33.4891  -33.6921    3.3401 H   0  0  0  0  0  0
   38.0335  -33.7452    8.0058 H   0  0  0  0  0  0
   36.3356  -33.3396    8.4289 H   0  0  0  0  0  0
   37.3413  -32.1601    7.5212 H   0  0  0  0  0  0
   26.3034  -34.4355    0.7195 H   0  0  0  0  0  0
   27.6949  -37.2910    2.5041 H   0  0  0  0  0  0
   26.6100  -36.6534    1.0735 H   0  0  0  0  0  0
   30.9251  -29.9415    3.6386 H   0  0  0  0  0  0
   32.0410  -29.7727    5.0360 H   0  0  0  0  0  0
   33.2406  -30.7155    6.4044 H   0  0  0  0  0  0
   29.8569  -33.6305    5.4808 H   0  0  0  0  0  0
  1  2  2  0  0  0
  1 11  1  0  0  0
  1 17  1  0  0  0
  3 11  2  0  0  0
  3 14  1  0  0  0
  4 14  1  0  0  0
  4 20  1  0  0  0
  5  6  2  0  0  0
  5 23  1  0  0  0
  5 24  1  0  0  0
  6  7  1  0  0  0
  6 15  1  0  0  0
  7  8  2  0  0  0
  7 25  1  0  0  0
  8 22  1  0  0  0
  8 26  1  0  0  0
  9 15  1  0  0  0
  9 27  1  0  0  0
  9 28  1  0  0  0
  9 29  1  0  0  0
 10 14  2  0  0  0
 10 16  1  0  0  0
 10 36  1  0  0  0
 11 16  1  0  0  0
 12 21  2  0  0  0
 13 16  1  0  0  0
 13 18  2  0  0  0
 17 18  1  0  0  0
 17 30  1  0  0  0
 18 19  1  0  0  0
 19 31  1  0  0  0
 19 32  1  0  0  0
 20 21  1  0  0  0
 20 33  1  0  0  0
 20 34  1  0  0  0
 21 22  1  0  0  0
 22 23  2  0  0  0
 23 35  1  0  0  0
M  CHG  1  10   1
M  END
> <s_m_source_file>
../4crj_ligand.sdf

> <i_m_source_file_index>
1

> <s_epik_input>
Tz1DMVtOSF1DKFtOSDJdKT1OW0NIXShDMTIpTj1DKE49MilTW0NIMl1DKD1PKWMoW2NIXVtjSF0zKVtjSF1bY0hdYzNPW0NIM10=

> <s_epik_cmdline>
J2VwaWtfYXBwJywgJy1pbWFlJywgJ2xpZ2FuZF9wcm8ubWFlJywgJy1vbWFlJywgJ2xpZ2FuZF9wcmVwLm1hZScsICctbXMnLCAnMScsICctcGgnLCAnNycsICctcGh0JywgJzAuNScsICctbnQn

> <r_lp_tautomer_probability>
1

> <r_epik_Ionization_Penalty>
  0.0012

> <r_epik_Ionization_Penalty_Charging>
  0.0012

> <r_epik_Ionization_Penalty_Neutral>
  0.0000

> <r_epik_State_Penalty>
 -0.0000

> <r_epik_Charging_Adjusted_Penalty>
0.00117809406610644

> <i_epik_Tot_Q>
1

> <i_epik_Tot_abs_Q>
1

> <s_epik_Chemistry_Notes>
This compound has an imine and may undergo hydrolysis.

$$$$
