4csj_ligand
                    3D
 Schrodinger Suite 2020-3.
 60 63  0  0  1  0            999 V2000
   32.3900   17.0130    7.2980 C   0  0  0  0  0  0
   32.9430   18.2370    6.5560 C   0  0  1  0  0  0
   34.3840   18.6060    6.9710 C   0  0  0  0  0  0
   34.6050   18.6510    8.4280 N   0  0  0  0  0  0
   34.2290   19.7150    9.2720 C   0  0  0  0  0  0
   33.2770   20.6850    8.9400 C   0  0  0  0  0  0
   32.9000   21.6810    9.8370 C   0  0  0  0  0  0
   33.4910   21.7750   11.0770 C   0  0  0  0  0  0
   34.4610   20.8250   11.4400 C   0  0  0  0  0  0
   35.2200   20.6280   12.5660 N   0  0  0  0  0  0
   36.0250   19.5060   12.3570 N   0  0  0  0  0  0
   35.8170   19.0070   11.1740 C   0  0  0  0  0  0
   34.8330   19.7930   10.5410 C   0  0  0  0  0  0
   35.2240   21.4120   13.7330 C   0  0  0  0  0  0
   34.0550   21.5820   14.4950 C   0  0  0  0  0  0
   34.1210   22.3580   15.6440 C   0  0  0  0  0  0
   35.3420   22.9000   16.0670 C   0  0  0  0  0  0
   35.3700   23.6650   17.1750 F   0  0  0  0  0  0
   36.5130   22.7020   15.3390 C   0  0  0  0  0  0
   36.4380   21.9640   14.1610 C   0  0  0  0  0  0
   32.9280   17.9220    5.1220 N   0  0  3  0  0  0
   32.5330   19.0730    3.9980 S   0  0  0  0  0  0
   32.7060   18.4430    2.7150 O   0  0  0  0  0  0
   31.2490   19.5240    4.4230 O   0  0  0  0  0  0
   33.6960   20.4350    4.1010 C   0  0  0  0  0  0
   35.0650   20.2380    3.8180 C   0  0  0  0  0  0
   35.6490   18.9240    3.3790 C   0  0  0  0  0  0
   35.9850   21.2710    3.9340 C   0  0  0  0  0  0
   35.5780   22.5240    4.3470 C   0  0  0  0  0  0
   36.5860   23.6440    4.4490 C   0  0  0  0  0  0
   34.2330   22.7460    4.6020 C   0  0  0  0  0  0
   33.2950   21.7250    4.4880 C   0  0  0  0  0  0
   31.8870   22.0810    4.9090 C   0  0  0  0  0  0
   32.3854   17.2113    8.3800 H   0  0  0  0  0  0
   33.0246   16.1394    7.0880 H   0  0  0  0  0  0
   31.3636   16.8109    6.9579 H   0  0  0  0  0  0
   32.2967   19.1032    6.7611 H   0  0  0  0  0  0
   35.0848   17.8628    6.5628 H   0  0  0  0  0  0
   34.6353   19.6019    6.5773 H   0  0  0  0  0  0
   35.0984   17.8091    8.9357 H   0  0  0  0  0  0
   32.8177   20.6603    7.9518 H   0  0  0  0  0  0
   32.1270   22.3955    9.5539 H   0  0  0  0  0  0
   33.2114   22.5726   11.7653 H   0  0  0  0  0  0
   36.3150   18.1360   10.7480 H   0  0  0  0  0  0
   33.1183   21.1152   14.1906 H   0  0  0  0  0  0
   33.2162   22.5472   16.2216 H   0  0  0  0  0  0
   37.4621   23.1137   15.6823 H   0  0  0  0  0  0
   37.3369   21.8136   13.5632 H   0  0  0  0  0  0
   33.3369   16.9654    4.7647 H   0  0  0  0  0  0
   34.8500   18.1706    3.3156 H   0  0  0  0  0  0
   36.4047   18.5967    4.1083 H   0  0  0  0  0  0
   36.1195   19.0434    2.3919 H   0  0  0  0  0  0
   37.0340   21.0920    3.6979 H   0  0  0  0  0  0
   37.5879   23.2586    4.2089 H   0  0  0  0  0  0
   36.5838   24.0472    5.4724 H   0  0  0  0  0  0
   36.3205   24.4420    3.7399 H   0  0  0  0  0  0
   33.9037   23.7420    4.8981 H   0  0  0  0  0  0
   31.2330   21.2062    4.7784 H   0  0  0  0  0  0
   31.5176   22.9109    4.2886 H   0  0  0  0  0  0
   31.8862   22.3849    5.9662 H   0  0  0  0  0  0
  1  2  1  0  0  0
  1 34  1  0  0  0
  1 35  1  0  0  0
  1 36  1  0  0  0
  2  3  1  0  0  0
  2 21  1  0  0  0
  2 37  1  0  0  0
  3  4  1  0  0  0
  3 38  1  0  0  0
  3 39  1  0  0  0
  4  5  1  0  0  0
  4 40  1  0  0  0
  5  6  1  0  0  0
  5 13  2  0  0  0
  6  7  2  0  0  0
  6 41  1  0  0  0
  7  8  1  0  0  0
  7 42  1  0  0  0
  8  9  2  0  0  0
  8 43  1  0  0  0
  9 10  1  0  0  0
  9 13  1  0  0  0
 10 11  1  0  0  0
 10 14  1  0  0  0
 11 12  2  0  0  0
 12 13  1  0  0  0
 12 44  1  0  0  0
 14 15  2  0  0  0
 14 20  1  0  0  0
 15 16  1  0  0  0
 15 45  1  0  0  0
 16 17  2  0  0  0
 16 46  1  0  0  0
 17 18  1  0  0  0
 17 19  1  0  0  0
 19 20  2  0  0  0
 19 47  1  0  0  0
 20 48  1  0  0  0
 21 22  1  0  0  0
 21 49  1  0  0  0
 22 23  2  0  0  0
 22 24  2  0  0  0
 22 25  1  0  0  0
 25 26  2  0  0  0
 25 32  1  0  0  0
 26 27  1  0  0  0
 26 28  1  0  0  0
 27 50  1  0  0  0
 27 51  1  0  0  0
 27 52  1  0  0  0
 28 29  2  0  0  0
 28 53  1  0  0  0
 29 30  1  0  0  0
 29 31  1  0  0  0
 30 54  1  0  0  0
 30 55  1  0  0  0
 30 56  1  0  0  0
 31 32  2  0  0  0
 31 57  1  0  0  0
 32 33  1  0  0  0
 33 58  1  0  0  0
 33 59  1  0  0  0
 33 60  1  0  0  0
M  END
> <s_m_source_file>
../4csj_ligand.sdf

> <i_m_source_file_index>
1

> <s_epik_input>
W0NIM11jMVtjSF1jKFtDSDNdKVtjSF1jKFtDSDNdKWMxUyg9TykoPU8pW05IXVtDQEBIXShbQ0gzXSlbQ0gyXVtOSF1jKFtjSF1bY0hdW2NIXTIpYyhjMjMpW2NIXW5uMy1jNFtjSF1bY0hdYyhGKVtjSF1bY0hdNA==

> <s_epik_cmdline>
J2VwaWtfYXBwJywgJy1pbWFlJywgJ2xpZ2FuZF9wcm8ubWFlJywgJy1vbWFlJywgJ2xpZ2FuZF9wcmVwLm1hZScsICctbXMnLCAnMScsICctcGgnLCAnNycsICctcGh0JywgJzAuNScsICctbnQn

> <r_lp_tautomer_probability>
1

> <r_epik_Ionization_Penalty>
  0.0000

> <r_epik_Ionization_Penalty_Charging>
  0.0000

> <r_epik_Ionization_Penalty_Neutral>
  0.0000

> <r_epik_State_Penalty>
 -0.0000

> <r_epik_Charging_Adjusted_Penalty>
0

> <i_epik_Tot_Q>
0

> <i_epik_Tot_abs_Q>
0

$$$$
