4ctj_ligand
                    3D
 Schrodinger Suite 2020-3.
 17 18  0  0  1  0            999 V2000
   50.8830   49.2460   13.4720 C   0  0  0  0  0  0
   49.7560   49.5700   13.8680 O   0  0  0  0  0  0
   52.0400   49.1970   14.3190 C   0  0  0  0  0  0
   51.0180   48.8880   12.1810 O   0  5  0  0  0  0
   53.1670   48.4550   13.9610 C   0  0  0  0  0  0
   55.0510   49.0930   17.0680 O   0  0  0  0  0  0
   54.2530   48.3660   14.8730 C   0  0  0  0  0  0
   54.1160   49.0710   16.0710 C   0  0  0  0  0  0
   54.6090   49.9590   18.1390 C   0  0  0  0  0  0
   53.2010   50.5240   17.7200 C   0  0  0  0  0  0
   52.9840   49.8270   16.4020 C   0  0  0  0  0  0
   51.9280   49.8850   15.5400 C   0  0  0  0  0  0
   53.2132   47.9511   12.9956 H   0  0  0  0  0  0
   55.1443   47.7796   14.6499 H   0  0  0  0  0  0
   55.1482   50.1784   19.0605 H   0  0  0  0  0  0
   52.5560   51.2301   18.2430 H   0  0  0  0  0  0
   51.0275   50.4461   15.7897 H   0  0  0  0  0  0
  1  2  2  0  0  0
  1  3  1  0  0  0
  1  4  1  0  0  0
  3  5  1  0  0  0
  3 12  2  0  0  0
  5  7  2  0  0  0
  5 13  1  0  0  0
  6  8  1  0  0  0
  6  9  1  0  0  0
  7  8  1  0  0  0
  7 14  1  0  0  0
  8 11  2  0  0  0
  9 10  2  0  0  0
  9 15  1  0  0  0
 10 11  1  0  0  0
 10 16  1  0  0  0
 11 12  1  0  0  0
 12 17  1  0  0  0
M  CHG  1   4  -1
M  END
> <s_m_source_file>
../4ctj_ligand.sdf

> <i_m_source_file_index>
1

> <s_epik_input>
Tz1DKFtPSF0pYyhbY0hdW2NIXTEpW2NIXWMoYzEyKVtjSF1bY0hdbzI=

> <s_epik_cmdline>
J2VwaWtfYXBwJywgJy1pbWFlJywgJ2xpZ2FuZF9wcm8ubWFlJywgJy1vbWFlJywgJ2xpZ2FuZF9wcmVwLm1hZScsICctbXMnLCAnMScsICctcGgnLCAnNycsICctcGh0JywgJzAuNScsICctbnQn

> <r_lp_tautomer_probability>
1

> <r_epik_Ionization_Penalty>
  0.0005

> <r_epik_Ionization_Penalty_Charging>
  0.0005

> <r_epik_Ionization_Penalty_Neutral>
  0.0000

> <r_epik_State_Penalty>
 -0.0000

> <r_epik_Charging_Adjusted_Penalty>
0.000547192066685028

> <i_epik_Tot_Q>
-1

> <i_epik_Tot_abs_Q>
1

$$$$
