4cts_ligand
                    3D
 Schrodinger Suite 2020-3.
 11 10  0  0  1  0            999 V2000
   38.4610   -5.8280   14.9780 O   0  0  0  0  0  0
   39.6670   -5.6000   13.2340 O   0  5  0  0  0  0
   37.7070   -2.2540   15.7720 O   0  5  0  0  0  0
   35.5230   -2.5510   15.7930 O   0  0  0  0  0  0
   35.7300   -4.2370   13.8360 O   0  0  0  0  0  0
   38.6260   -5.3030   13.8580 C   0  0  0  0  0  0
   38.0910   -3.9070   13.6300 C   0  0  0  0  0  0
   36.7640   -3.7340   14.3160 C   0  0  0  0  0  0
   36.6690   -2.8530   15.3500 C   0  0  0  0  0  0
   38.8015   -3.1714   14.0349 H   0  0  0  0  0  0
   37.9609   -3.7358   12.5512 H   0  0  0  0  0  0
  1  6  2  0  0  0
  2  6  1  0  0  0
  3  9  1  0  0  0
  4  9  2  0  0  0
  5  8  2  0  0  0
  6  7  1  0  0  0
  7  8  1  0  0  0
  7 10  1  0  0  0
  7 11  1  0  0  0
  8  9  1  0  0  0
M  CHG  2   2  -1   3  -1
M  END
> <s_m_source_file>
../4cts_ligand.sdf

> <i_m_source_file_index>
1

> <s_epik_input>
Tz1DKFtPSF0pW0NIMl1DKD1PKUMoPU8pW09IXQ==

> <s_epik_cmdline>
J2VwaWtfYXBwJywgJy1pbWFlJywgJ2xpZ2FuZF9wcm8ubWFlJywgJy1vbWFlJywgJ2xpZ2FuZF9wcmVwLm1hZScsICctbXMnLCAnMScsICctcGgnLCAnNycsICctcGh0JywgJzAuNScsICctbnQn

> <r_lp_tautomer_probability>
1

> <r_epik_Ionization_Penalty>
  0.0004

> <r_epik_Ionization_Penalty_Charging>
  0.0004

> <r_epik_Ionization_Penalty_Neutral>
  0.0000

> <r_epik_State_Penalty>
 -0.0000

> <r_epik_Charging_Adjusted_Penalty>
0.000367258356467498

> <i_epik_Tot_Q>
-2

> <i_epik_Tot_abs_Q>
2

$$$$
