4cu1_ligand
                    3D
 Schrodinger Suite 2020-3.
 56 58  0  0  1  0            999 V2000
   17.7560   14.5900   34.0380 N   0  0  0  0  0  0
   17.2600   14.7250   35.2900 C   0  0  0  0  0  0
   18.0480   15.2480   36.3300 C   0  0  0  0  0  0
   17.5060   15.3710   37.6190 C   0  0  0  0  0  0
   18.3230   15.9320   38.7560 C   0  0  0  0  0  0
   16.1900   14.9670   37.8410 C   0  0  0  0  0  0
   15.9800   14.3430   35.5290 N   0  0  0  0  0  0
   15.4480   14.4640   36.7660 C   0  0  0  0  0  0
   14.0370   14.0090   36.9660 C   0  0  0  0  0  0
   13.0350   15.1490   37.0350 C   0  0  1  0  0  0
   12.2280   15.2370   35.7850 C   0  0  0  0  0  0
   11.9910   16.5300   35.3290 C   0  0  0  0  0  0
   10.7980   15.3880   38.3660 N   0  3  0  0  0  0
   10.7360   15.7180   33.5430 C   0  0  0  0  0  0
   11.7040   14.1190   35.0810 C   0  0  0  0  0  0
   10.9340   14.3910   33.9380 C   0  0  0  0  0  0
   10.2900   13.3700   33.0810 C   0  0  0  0  0  0
    8.9650   13.4720   32.8680 C   0  0  0  0  0  0
    8.1630   12.5560   31.9940 C   0  0  0  0  0  0
    6.8200   12.4890   32.1660 N   0  3  0  0  0  0
    6.0300   11.7360   31.3820 C   0  0  0  0  0  0
    4.7050   11.7340   31.6450 N   0  0  0  0  0  0
    6.5580   10.9900   30.3250 C   0  0  0  0  0  0
    7.9470   11.0310   30.1200 C   0  0  0  0  0  0
    8.7440   11.8330   30.9580 C   0  0  0  0  0  0
    8.5810   10.2410   28.9950 C   0  0  0  0  0  0
   12.1660   14.8410   38.2600 C   0  0  0  0  0  0
   11.2520   16.7450   34.2370 N   0  0  0  0  0  0
   18.7909   14.8930   33.8208 H   0  0  0  0  0  0
   17.1242   14.1773   33.2377 H   0  0  0  0  0  0
   19.0753   15.5566   36.1364 H   0  0  0  0  0  0
   19.3276   16.1930   38.3917 H   0  0  0  0  0  0
   18.4063   15.1794   39.5539 H   0  0  0  0  0  0
   17.8309   16.8328   39.1516 H   0  0  0  0  0  0
   15.7469   15.0416   38.8341 H   0  0  0  0  0  0
   13.7391   13.3597   36.1295 H   0  0  0  0  0  0
   13.9627   13.4486   37.9096 H   0  0  0  0  0  0
   13.5225   16.1327   37.1030 H   0  0  0  0  0  0
   12.4132   17.3774   35.8691 H   0  0  0  0  0  0
   10.3423   15.0555   39.3104 H   0  0  0  0  0  0
   10.1930   15.0288   37.5205 H   0  0  0  0  0  0
   10.8400   16.4870   38.3461 H   0  0  0  0  0  0
   10.1477   15.9237   32.6488 H   0  0  0  0  0  0
   11.8910   13.0977   35.4127 H   0  0  0  0  0  0
   10.8588   12.5469   32.6239 H   0  0  0  0  0  0
    8.3901   14.2744   33.3533 H   0  0  0  0  0  0
    4.3095   12.3282   32.4819 H   0  0  0  0  0  0
    4.0216   11.1381   31.0222 H   0  0  0  0  0  0
    5.9121   10.3947   29.6796 H   0  0  0  0  0  0
    9.8203   11.8876   30.7944 H   0  0  0  0  0  0
    7.8026    9.6807   28.4564 H   0  0  0  0  0  0
    9.3177    9.5378   29.4106 H   0  0  0  0  0  0
    9.0834   10.9305   28.3006 H   0  0  0  0  0  0
   12.0189   13.7539   38.3412 H   0  0  0  0  0  0
   12.6659   15.2121   39.1669 H   0  0  0  0  0  0
    6.3392   13.0643   32.9709 H   0  0  0  0  0  0
  1  2  1  0  0  0
  1 29  1  0  0  0
  1 30  1  0  0  0
  2  3  2  0  0  0
  2  7  1  0  0  0
  3  4  1  0  0  0
  3 31  1  0  0  0
  4  5  1  0  0  0
  4  6  2  0  0  0
  5 32  1  0  0  0
  5 33  1  0  0  0
  5 34  1  0  0  0
  6  8  1  0  0  0
  6 35  1  0  0  0
  7  8  2  0  0  0
  8  9  1  0  0  0
  9 10  1  0  0  0
  9 36  1  0  0  0
  9 37  1  0  0  0
 10 11  1  0  0  0
 10 27  1  0  0  0
 10 38  1  0  0  0
 11 12  2  0  0  0
 11 15  1  0  0  0
 12 28  1  0  0  0
 12 39  1  0  0  0
 13 27  1  0  0  0
 13 40  1  0  0  0
 13 41  1  0  0  0
 13 42  1  0  0  0
 14 16  1  0  0  0
 14 28  2  0  0  0
 14 43  1  0  0  0
 15 16  2  0  0  0
 15 44  1  0  0  0
 16 17  1  0  0  0
 17 18  2  0  0  0
 17 45  1  0  0  0
 18 19  1  0  0  0
 18 46  1  0  0  0
 19 20  2  0  0  0
 19 25  1  0  0  0
 20 21  1  0  0  0
 20 56  1  0  0  0
 21 22  1  0  0  0
 21 23  2  0  0  0
 22 47  1  0  0  0
 22 48  1  0  0  0
 23 24  1  0  0  0
 23 49  1  0  0  0
 24 25  2  0  0  0
 24 26  1  0  0  0
 25 50  1  0  0  0
 26 51  1  0  0  0
 26 52  1  0  0  0
 26 53  1  0  0  0
 27 54  1  0  0  0
 27 55  1  0  0  0
M  CHG  2  13   1  20   1
M  END
> <s_m_source_file>
../4cu1_ligand.sdf

> <i_m_source_file_index>
1

> <s_epik_input>
W05IMl1jMVtjSF1jKFtDSDNdKVtjSF1jKG4xKVtDSDJdW0NASF0oW0NIMl1bTkgzK10pYzJbY0hdbltjSF1jKFtjSF0yKS9bQ0hdPVtDSF0vYzNuYyhbTkgyXSlbY0hdYyhbY0hdMylbQ0gzXQ==

> <s_epik_cmdline>
J2VwaWtfYXBwJywgJy1pbWFlJywgJ2xpZ2FuZF9wcm8ubWFlJywgJy1vbWFlJywgJ2xpZ2FuZF9wcmVwLm1hZScsICctbXMnLCAnMScsICctcGgnLCAnNycsICctcGh0JywgJzAuNScsICctbnQn

> <r_lp_tautomer_probability>
1

> <r_epik_Ionization_Penalty>
  0.1593

> <r_epik_Ionization_Penalty_Charging>
  0.1431

> <r_epik_Ionization_Penalty_Neutral>
  0.0162

> <r_epik_State_Penalty>
 -0.0000

> <r_epik_Charging_Adjusted_Penalty>
0.143064131666502

> <i_epik_Tot_Q>
2

> <i_epik_Tot_abs_Q>
2

$$$$
