4cwb_ligand
                    3D
 Schrodinger Suite 2020-3.
 41 44  0  0  1  0            999 V2000
   49.3740  -16.2940  -24.3440 C   0  0  0  0  0  0
   49.5910  -15.1830  -23.5650 C   0  0  0  0  0  0
   48.0980  -16.5490  -24.7740 C   0  0  0  0  0  0
   48.5420  -14.3590  -23.2230 C   0  0  0  0  0  0
   47.0540  -15.7230  -24.4330 C   0  0  0  0  0  0
   45.0030  -13.6530  -24.0900 C   0  0  0  0  0  0
   46.0160  -13.2210  -22.0010 C   0  0  0  0  0  0
   43.8780  -12.9740  -23.6720 C   0  0  0  0  0  0
   44.8980  -12.5540  -21.5740 C   0  0  0  0  0  0
   47.2570  -14.5980  -23.6490 C   0  0  0  0  0  0
   46.0960  -13.7960  -23.2660 C   0  0  0  0  0  0
   43.8150  -12.4270  -22.4140 C   0  0  0  0  0  0
   42.9660   -7.7650  -20.7360 C   0  0  0  0  0  0
   44.1610   -7.7540  -21.3740 C   0  0  0  0  0  0
   42.6840   -8.9000  -22.4900 C   0  0  0  0  0  0
   42.8470   -7.0360  -19.5050 C   0  0  0  0  0  0
   45.1880   -6.4850  -19.9270 C   0  0  0  0  0  0
   42.6040  -11.7390  -21.9330 C   0  0  0  0  0  0
   41.5260  -11.2600  -22.8510 C   0  0  0  0  0  0
   42.0260   -8.4920  -21.4310 N   0  3  0  0  0  0
   45.3020   -7.1510  -21.0400 N   0  0  0  0  0  0
   43.9870   -8.5100  -22.5010 N   0  0  0  0  0  0
   44.0420   -6.4130  -19.1770 N   0  0  0  0  0  0
   46.2120   -5.7790  -19.4080 N   0  0  0  0  0  0
   41.8450   -6.9520  -18.8260 O   0  0  0  0  0  0
   42.4360  -11.5760  -20.7470 O   0  0  0  0  0  0
   42.0550   -9.8560  -23.8120 S   0  0  0  0  0  0
   50.1967  -16.9563  -24.6134 H   0  0  0  0  0  0
   50.5978  -14.9530  -23.2163 H   0  0  0  0  0  0
   47.9078  -17.4225  -25.3976 H   0  0  0  0  0  0
   48.7367  -13.4898  -22.5947 H   0  0  0  0  0  0
   46.0492  -15.9564  -24.7850 H   0  0  0  0  0  0
   45.0271  -14.0841  -25.0908 H   0  0  0  0  0  0
   46.8699  -13.3040  -21.3287 H   0  0  0  0  0  0
   43.0291  -12.8703  -24.3478 H   0  0  0  0  0  0
   44.8663  -12.1253  -20.5723 H   0  0  0  0  0  0
   41.2478  -12.0684  -23.5432 H   0  0  0  0  0  0
   40.6464  -10.9639  -22.2606 H   0  0  0  0  0  0
   47.1842   -5.7611  -19.9223 H   0  0  0  0  0  0
   46.0756   -5.2207  -18.4701 H   0  0  0  0  0  0
   41.0063   -8.5966  -21.0319 H   0  0  0  0  0  0
  1  2  2  0  0  0
  1  3  1  0  0  0
  1 28  1  0  0  0
  2  4  1  0  0  0
  2 29  1  0  0  0
  3  5  2  0  0  0
  3 30  1  0  0  0
  4 10  2  0  0  0
  4 31  1  0  0  0
  5 10  1  0  0  0
  5 32  1  0  0  0
  6  8  2  0  0  0
  6 11  1  0  0  0
  6 33  1  0  0  0
  7  9  1  0  0  0
  7 11  2  0  0  0
  7 34  1  0  0  0
  8 12  1  0  0  0
  8 35  1  0  0  0
  9 12  2  0  0  0
  9 36  1  0  0  0
 10 11  1  0  0  0
 12 18  1  0  0  0
 13 14  2  0  0  0
 13 16  1  0  0  0
 13 20  1  0  0  0
 14 21  1  0  0  0
 14 22  1  0  0  0
 15 20  2  0  0  0
 15 22  1  0  0  0
 15 27  1  0  0  0
 16 23  1  0  0  0
 16 25  2  0  0  0
 17 21  2  0  0  0
 17 23  1  0  0  0
 17 24  1  0  0  0
 18 19  1  0  0  0
 18 26  2  0  0  0
 19 27  1  0  0  0
 19 37  1  0  0  0
 19 38  1  0  0  0
 20 41  1  0  0  0
 24 39  1  0  0  0
 24 40  1  0  0  0
M  CHG  1  20   1
M  END
> <s_m_source_file>
../4cwb_ligand.sdf

> <i_m_source_file_index>
1

> <s_epik_input>
W2NIXTFbY0hdW2NIXVtjSF1bY0hdYzEtYzJbY0hdW2NIXWMoW2NIXVtjSF0yKUMoPU8pW0NIMl1TYyhuMylbbkhdYyhjMzQpW25IXS9jKD1OL1tIXSlbbkhdYzQ9Tw==

> <s_epik_cmdline>
J2VwaWtfYXBwJywgJy1pbWFlJywgJ2xpZ2FuZF9wcm8ubWFlJywgJy1vbWFlJywgJ2xpZ2FuZF9wcmVwLm1hZScsICctbXMnLCAnMScsICctcGgnLCAnNycsICctcGh0JywgJzAuNScsICctbnQn

> <r_epik_Ionization_Penalty>
  3.2348

> <r_epik_Ionization_Penalty_Charging>
  0.0001

> <r_epik_Ionization_Penalty_Neutral>
  3.2346

> <r_epik_State_Penalty>
  0.0000

> <r_epik_Charging_Adjusted_Penalty>
0.000117036394640666

> <i_epik_Tot_Q>
1

> <i_epik_Tot_abs_Q>
1

> <s_epik_Chemistry_Notes>
This compound has an imine and may undergo hydrolysis.

$$$$
