4cwf_ligand
                    3D
 Schrodinger Suite 2020-3.
 30 32  0  0  1  0            999 V2000
    6.2510   11.9160   24.0550 C   0  0  0  0  0  0
    5.2920   11.0910   23.5960 N   0  0  0  0  0  0
    7.4570   11.3580   23.7830 N   0  0  0  0  0  0
    5.8160    9.9340   22.9920 N   0  0  0  0  0  0
    3.9810   11.4080   23.7520 C   0  0  0  0  0  0
    3.6530   12.5890   24.3690 N   0  0  0  0  0  0
    7.1400   10.1890   23.1530 C   0  0  0  0  0  0
    5.9740   13.1280   24.6900 C   0  0  0  0  0  0
    4.6180   13.4510   24.8380 C   0  0  0  0  0  0
    8.1050    9.3410   22.7130 N   0  0  0  0  0  0
    6.9820   13.9860   25.1600 C   0  0  0  0  0  0
    2.8780   10.4870   23.2620 C   0  0  0  0  0  0
    4.2790   14.6550   25.4720 C   0  0  0  0  0  0
    2.7740    9.2490   24.1590 C   0  0  0  0  0  0
    6.6290   15.1730   25.7870 C   0  0  0  0  0  0
    5.2870   15.5030   25.9390 C   0  0  0  0  0  0
    2.2950    9.5740   25.5620 C   0  0  0  0  0  0
    9.1659    9.5885   22.8653 H   0  0  0  0  0  0
    7.8258    8.4065   22.2043 H   0  0  0  0  0  0
    8.0320   13.7220   25.0335 H   0  0  0  0  0  0
    1.9176   11.0230   23.2803 H   0  0  0  0  0  0
    3.0988   10.1653   22.2335 H   0  0  0  0  0  0
    3.2318   14.9288   25.6003 H   0  0  0  0  0  0
    2.0614    8.5360   23.7187 H   0  0  0  0  0  0
    3.7625    8.7740   24.2444 H   0  0  0  0  0  0
    7.4023   15.8449   26.1594 H   0  0  0  0  0  0
    5.0168   16.4378   26.4301 H   0  0  0  0  0  0
    2.2413    8.6488   26.1546 H   0  0  0  0  0  0
    1.2977   10.0354   25.5113 H   0  0  0  0  0  0
    2.9988   10.2733   26.0369 H   0  0  0  0  0  0
  1  2  1  0  0  0
  1  3  2  0  0  0
  1  8  1  0  0  0
  2  4  1  0  0  0
  2  5  1  0  0  0
  3  7  1  0  0  0
  4  7  2  0  0  0
  5  6  2  0  0  0
  5 12  1  0  0  0
  6  9  1  0  0  0
  7 10  1  0  0  0
  8  9  2  0  0  0
  8 11  1  0  0  0
  9 13  1  0  0  0
 10 18  1  0  0  0
 10 19  1  0  0  0
 11 15  2  0  0  0
 11 20  1  0  0  0
 12 14  1  0  0  0
 12 21  1  0  0  0
 12 22  1  0  0  0
 13 16  2  0  0  0
 13 23  1  0  0  0
 14 17  1  0  0  0
 14 24  1  0  0  0
 14 25  1  0  0  0
 15 16  1  0  0  0
 15 26  1  0  0  0
 16 27  1  0  0  0
 17 28  1  0  0  0
 17 29  1  0  0  0
 17 30  1  0  0  0
M  END
> <s_m_source_file>
../4cwf_ligand.sdf

> <i_m_source_file_index>
1

> <s_epik_input>
bjFjKFtOSDJdKW5uKGMxMiljKFtDSDJdW0NIMl1bQ0gzXSluYzNjMltjSF1bY0hdW2NIXVtjSF0z

> <s_epik_cmdline>
J2VwaWtfYXBwJywgJy1pbWFlJywgJ2xpZ2FuZF9wcm8ubWFlJywgJy1vbWFlJywgJ2xpZ2FuZF9wcmVwLm1hZScsICctbXMnLCAnMScsICctcGgnLCAnNycsICctcGh0JywgJzAuNScsICctbnQn

> <r_lp_tautomer_probability>
1

> <r_epik_Ionization_Penalty>
  0.0008

> <r_epik_Ionization_Penalty_Charging>
  0.0000

> <r_epik_Ionization_Penalty_Neutral>
  0.0008

> <r_epik_State_Penalty>
 -0.0000

> <r_epik_Charging_Adjusted_Penalty>
0

> <i_epik_Tot_Q>
0

> <i_epik_Tot_abs_Q>
0

$$$$
