4cwn_ligand
                    3D
 Schrodinger Suite 2020-3.
 42 45  0  0  1  0            999 V2000
   -2.1820   11.8510   24.1340 N   0  0  0  0  0  0
   -1.1030   11.2090   24.6520 C   0  0  0  0  0  0
    0.0870   11.2150   24.0040 N   0  0  0  0  0  0
    0.8100   10.4470   24.9050 N   0  0  0  0  0  0
    0.0960   10.0490   25.9560 C   0  0  0  0  0  0
   -1.1660   10.5400   25.8320 N   0  0  0  0  0  0
    2.1010   10.0850   24.7630 C   0  0  0  0  0  0
    2.6910    9.3310   25.7130 N   0  0  0  0  0  0
    1.9920    8.9160   26.8100 C   0  0  0  0  0  0
    2.6110    8.1350   27.7810 C   0  0  0  0  0  0
    1.9060    7.7120   28.9070 C   0  0  0  0  0  0
    0.5620    8.0640   29.0590 C   0  0  0  0  0  0
   -0.0720    8.8540   28.0890 C   0  0  0  0  0  0
    0.6490    9.2760   26.9690 C   0  0  0  0  0  0
    2.9150   10.5200   23.5730 C   0  0  0  0  0  0
    3.8760   11.6110   23.9770 C   0  0  0  0  0  0
    3.3790   12.7910   24.5230 C   0  0  0  0  0  0
    4.2360   13.8240   24.8990 C   0  0  0  0  0  0
    3.6870   14.9690   25.4390 O   0  0  0  0  0  0
    4.5100   16.0500   25.9040 C   0  0  0  0  0  0
    5.6120   13.6590   24.7170 C   0  0  0  0  0  0
    6.1110   12.4730   24.1700 C   0  0  0  0  0  0
    5.2440   11.4370   23.7980 C   0  0  0  0  0  0
    7.4680   12.3540   24.0000 O   0  0  0  0  0  0
    8.1200   11.1110   23.7330 C   0  0  0  0  0  0
   -2.0971   12.3838   23.1754 H   0  0  0  0  0  0
   -3.1408   11.8381   24.6731 H   0  0  0  0  0  0
    3.6565    7.8513   27.6603 H   0  0  0  0  0  0
    2.4019    7.1082   29.6670 H   0  0  0  0  0  0
    0.0058    7.7241   29.9326 H   0  0  0  0  0  0
   -1.1181    9.1363   28.2078 H   0  0  0  0  0  0
    3.4835    9.6622   23.1843 H   0  0  0  0  0  0
    2.2438   10.9006   22.7890 H   0  0  0  0  0  0
    2.3039   12.9090   24.6585 H   0  0  0  0  0  0
    3.8708   16.8564   26.2928 H   0  0  0  0  0  0
    5.1175   16.4330   25.0708 H   0  0  0  0  0  0
    5.1721   15.6886   26.7047 H   0  0  0  0  0  0
    6.2977   14.4569   25.0022 H   0  0  0  0  0  0
    5.6349   10.5112   23.3758 H   0  0  0  0  0  0
    9.2031   11.2780   23.6383 H   0  0  0  0  0  0
    7.7310   10.6869   22.7956 H   0  0  0  0  0  0
    7.9278   10.4112   24.5596 H   0  0  0  0  0  0
  1  2  1  0  0  0
  1 26  1  0  0  0
  1 27  1  0  0  0
  2  3  2  0  0  0
  2  6  1  0  0  0
  3  4  1  0  0  0
  4  5  1  0  0  0
  4  7  1  0  0  0
  5  6  2  0  0  0
  5 14  1  0  0  0
  7  8  2  0  0  0
  7 15  1  0  0  0
  8  9  1  0  0  0
  9 10  1  0  0  0
  9 14  2  0  0  0
 10 11  2  0  0  0
 10 28  1  0  0  0
 11 12  1  0  0  0
 11 29  1  0  0  0
 12 13  2  0  0  0
 12 30  1  0  0  0
 13 14  1  0  0  0
 13 31  1  0  0  0
 15 16  1  0  0  0
 15 32  1  0  0  0
 15 33  1  0  0  0
 16 17  2  0  0  0
 16 23  1  0  0  0
 17 18  1  0  0  0
 17 34  1  0  0  0
 18 19  1  0  0  0
 18 21  2  0  0  0
 19 20  1  0  0  0
 20 35  1  0  0  0
 20 36  1  0  0  0
 20 37  1  0  0  0
 21 22  1  0  0  0
 21 38  1  0  0  0
 22 23  2  0  0  0
 22 24  1  0  0  0
 23 39  1  0  0  0
 24 25  1  0  0  0
 25 40  1  0  0  0
 25 41  1  0  0  0
 25 42  1  0  0  0
M  END
> <s_m_source_file>
../4cwn_ligand.sdf

> <i_m_source_file_index>
1

> <s_epik_input>
W05IMl1jKG4xKW5jKG4xMiljM2MoW2NIXVtjSF1bY0hdW2NIXTMpbmMyW0NIMl1jNFtjSF1jKE9bQ0gzXSlbY0hdYyhbY0hdNClPW0NIM10=

> <s_epik_cmdline>
J2VwaWtfYXBwJywgJy1pbWFlJywgJ2xpZ2FuZF9wcm8ubWFlJywgJy1vbWFlJywgJ2xpZ2FuZF9wcmVwLm1hZScsICctbXMnLCAnMScsICctcGgnLCAnNycsICctcGh0JywgJzAuNScsICctbnQn

> <r_lp_tautomer_probability>
1

> <r_epik_Ionization_Penalty>
  0.0004

> <r_epik_Ionization_Penalty_Charging>
  0.0000

> <r_epik_Ionization_Penalty_Neutral>
  0.0004

> <r_epik_State_Penalty>
 -0.0000

> <r_epik_Charging_Adjusted_Penalty>
0

> <i_epik_Tot_Q>
0

> <i_epik_Tot_abs_Q>
0

$$$$
