4cwo_ligand
                    3D
 Schrodinger Suite 2020-3.
 36 39  0  0  1  0            999 V2000
    6.4160    8.8860   22.9160 N   0  0  0  0  0  0
    5.8600    9.9440   23.5680 C   0  0  0  0  0  0
    4.5470    9.9200   23.8950 N   0  0  0  0  0  0
    6.5790   11.0490   23.9160 N   0  0  0  0  0  0
    5.6540   11.8240   24.5210 C   0  0  0  0  0  0
    5.7770   13.0870   25.0970 C   0  0  0  0  0  0
    6.9790   13.7990   25.1330 C   0  0  0  0  0  0
    7.0060   15.0670   25.7310 C   0  0  0  0  0  0
    5.8480   15.6190   26.2930 C   0  0  0  0  0  0
    4.6520   14.9040   26.2430 C   0  0  0  0  0  0
    4.6130   13.6400   25.6470 C   0  0  0  0  0  0
    3.4450   12.9360   25.6090 N   0  0  0  0  0  0
    4.4890   11.1760   24.4970 N   0  0  0  0  0  0
    3.3800   11.7120   25.0250 C   0  0  0  0  0  0
    2.1120   10.8840   25.0270 C   0  0  0  0  0  0
    0.7880   11.4280   24.5420 C   0  0  0  0  0  0
    0.7140   12.1360   23.3430 C   0  0  0  0  0  0
   -0.3650   11.1300   25.2860 C   0  0  0  0  0  0
   -1.6120   11.5730   24.8330 C   0  0  0  0  0  0
   -2.7400   11.3260   25.5480 O   0  0  0  0  0  0
   -1.7030   12.2900   23.6450 C   0  0  0  0  0  0
   -0.5380   12.5730   22.9060 C   0  0  0  0  0  0
   -0.6240   13.2550   21.7310 O   0  0  0  0  0  0
    5.7978    8.0145   22.6546 H   0  0  0  0  0  0
    7.4834    8.9027   22.6506 H   0  0  0  0  0  0
    7.8849   13.3736   24.7013 H   0  0  0  0  0  0
    7.9391   15.6297   25.7588 H   0  0  0  0  0  0
    5.8815   16.6004   26.7660 H   0  0  0  0  0  0
    3.7449   15.3318   26.6698 H   0  0  0  0  0  0
    2.2536    9.9951   24.3947 H   0  0  0  0  0  0
    1.8811   10.5694   26.0554 H   0  0  0  0  0  0
    1.6119   12.3433   22.7609 H   0  0  0  0  0  0
   -0.2888   10.5573   26.2103 H   0  0  0  0  0  0
   -2.6816   10.7600   26.4894 H   0  0  0  0  0  0
   -2.6738   12.6322   23.2865 H   0  0  0  0  0  0
    0.2869   13.4753   21.1550 H   0  0  0  0  0  0
  1  2  1  0  0  0
  1 24  1  0  0  0
  1 25  1  0  0  0
  2  3  2  0  0  0
  2  4  1  0  0  0
  3 13  1  0  0  0
  4  5  2  0  0  0
  5  6  1  0  0  0
  5 13  1  0  0  0
  6  7  2  0  0  0
  6 11  1  0  0  0
  7  8  1  0  0  0
  7 26  1  0  0  0
  8  9  2  0  0  0
  8 27  1  0  0  0
  9 10  1  0  0  0
  9 28  1  0  0  0
 10 11  2  0  0  0
 10 29  1  0  0  0
 11 12  1  0  0  0
 12 14  2  0  0  0
 13 14  1  0  0  0
 14 15  1  0  0  0
 15 16  1  0  0  0
 15 30  1  0  0  0
 15 31  1  0  0  0
 16 17  2  0  0  0
 16 18  1  0  0  0
 17 22  1  0  0  0
 17 32  1  0  0  0
 18 19  2  0  0  0
 18 33  1  0  0  0
 19 20  1  0  0  0
 19 21  1  0  0  0
 20 34  1  0  0  0
 21 22  2  0  0  0
 21 35  1  0  0  0
 22 23  1  0  0  0
 23 36  1  0  0  0
M  END
> <s_m_source_file>
../4cwo_ligand.sdf

> <i_m_source_file_index>
1

> <s_epik_input>
W2NIXTFbY0hdW2NIXVtjSF1jKGMxYzIzKW5jKG4zbmMobjIpW05IMl0pW0NIMl1jNFtjSF1jKFtPSF0pW2NIXWMoW2NIXTQpW09IXQ==

> <s_epik_cmdline>
J2VwaWtfYXBwJywgJy1pbWFlJywgJ2xpZ2FuZF9wcm8ubWFlJywgJy1vbWFlJywgJ2xpZ2FuZF9wcmVwLm1hZScsICctbXMnLCAnMScsICctcGgnLCAnNycsICctcGh0JywgJzAuNScsICctbnQn

> <r_lp_tautomer_probability>
1

> <r_epik_Ionization_Penalty>
  0.0045

> <r_epik_Ionization_Penalty_Charging>
  0.0000

> <r_epik_Ionization_Penalty_Neutral>
  0.0045

> <r_epik_State_Penalty>
 -0.0000

> <r_epik_Charging_Adjusted_Penalty>
0

> <i_epik_Tot_Q>
0

> <i_epik_Tot_abs_Q>
0

$$$$
