4cwp_ligand
                    3D
 Schrodinger Suite 2020-3.
 37 41  0  0  1  0            999 V2000
   -2.2510   11.9550   24.0980 N   0  0  0  0  0  0
   -1.1400   11.3320   24.5700 C   0  0  0  0  0  0
    0.0450   11.3620   23.9020 N   0  0  0  0  0  0
    0.7880   10.5620   24.7690 N   0  0  0  0  0  0
    0.0810   10.1420   25.8270 C   0  0  0  0  0  0
   -1.1790   10.6280   25.7290 N   0  0  0  0  0  0
    2.0800   10.2090   24.6070 C   0  0  0  0  0  0
    2.6850    9.4310   25.5420 N   0  0  0  0  0  0
    1.9780    8.9850   26.6430 C   0  0  0  0  0  0
    2.5980    8.1890   27.6120 C   0  0  0  0  0  0
    1.8810    7.7360   28.7210 C   0  0  0  0  0  0
    0.5390    8.0840   28.8790 C   0  0  0  0  0  0
   -0.0860    8.9020   27.9290 C   0  0  0  0  0  0
    0.6360    9.3470   26.8210 C   0  0  0  0  0  0
    2.8820   10.6790   23.4230 C   0  0  0  0  0  0
    3.7840   11.8150   23.8490 C   0  0  0  0  0  0
    5.1870   11.6830   23.7580 C   0  0  0  0  0  0
    6.0330   12.7500   24.1320 C   0  0  0  0  0  0
    5.4150   13.9030   24.6130 C   0  0  0  0  0  0
    4.0560   13.9930   24.7220 C   0  0  0  0  0  0
    3.1890   12.9770   24.3440 C   0  0  0  0  0  0
    5.9840   15.0850   25.0610 O   0  0  0  0  0  0
    4.9220   15.9690   25.4710 C   0  0  0  0  0  0
    3.7240   15.2060   25.2200 O   0  0  0  0  0  0
   -2.2054   12.5225   23.1568 H   0  0  0  0  0  0
   -3.1963   11.8920   24.6570 H   0  0  0  0  0  0
    3.6485    7.9205   27.5004 H   0  0  0  0  0  0
    2.3710    7.1086   29.4656 H   0  0  0  0  0  0
   -0.0218    7.7201   29.7399 H   0  0  0  0  0  0
   -1.1300    9.1891   28.0546 H   0  0  0  0  0  0
    3.4926    9.8478   23.0405 H   0  0  0  0  0  0
    2.2001   11.0269   22.6330 H   0  0  0  0  0  0
    5.6202   10.7505   23.3963 H   0  0  0  0  0  0
    7.1172   12.6755   24.0485 H   0  0  0  0  0  0
    2.1072   13.0803   24.4287 H   0  0  0  0  0  0
    5.0421   16.2172   26.5359 H   0  0  0  0  0  0
    4.9612   16.8913   24.8729 H   0  0  0  0  0  0
  1  2  1  0  0  0
  1 25  1  0  0  0
  1 26  1  0  0  0
  2  3  2  0  0  0
  2  6  1  0  0  0
  3  4  1  0  0  0
  4  5  1  0  0  0
  4  7  1  0  0  0
  5  6  2  0  0  0
  5 14  1  0  0  0
  7  8  2  0  0  0
  7 15  1  0  0  0
  8  9  1  0  0  0
  9 10  1  0  0  0
  9 14  2  0  0  0
 10 11  2  0  0  0
 10 27  1  0  0  0
 11 12  1  0  0  0
 11 28  1  0  0  0
 12 13  2  0  0  0
 12 29  1  0  0  0
 13 14  1  0  0  0
 13 30  1  0  0  0
 15 16  1  0  0  0
 15 31  1  0  0  0
 15 32  1  0  0  0
 16 17  2  0  0  0
 16 21  1  0  0  0
 17 18  1  0  0  0
 17 33  1  0  0  0
 18 19  2  0  0  0
 18 34  1  0  0  0
 19 20  1  0  0  0
 19 22  1  0  0  0
 20 21  2  0  0  0
 20 24  1  0  0  0
 21 35  1  0  0  0
 22 23  1  0  0  0
 23 24  1  0  0  0
 23 36  1  0  0  0
 23 37  1  0  0  0
M  END
> <s_m_source_file>
../4cwp_ligand.sdf

> <i_m_source_file_index>
1

> <s_epik_input>
W05IMl1jKG4xKW5jKG4xMiljM2MoW2NIXVtjSF1bY0hdW2NIXTMpbmMyW0NIMl1jKFtjSF1bY0hdNClbY0hdYyhjNDUpT1tDSDJdTzU=

> <s_epik_cmdline>
J2VwaWtfYXBwJywgJy1pbWFlJywgJ2xpZ2FuZF9wcm8ubWFlJywgJy1vbWFlJywgJ2xpZ2FuZF9wcmVwLm1hZScsICctbXMnLCAnMScsICctcGgnLCAnNycsICctcGh0JywgJzAuNScsICctbnQn

> <r_lp_tautomer_probability>
1

> <r_epik_Ionization_Penalty>
  0.0004

> <r_epik_Ionization_Penalty_Charging>
  0.0000

> <r_epik_Ionization_Penalty_Neutral>
  0.0004

> <r_epik_State_Penalty>
 -0.0000

> <r_epik_Charging_Adjusted_Penalty>
0

> <i_epik_Tot_Q>
0

> <i_epik_Tot_abs_Q>
0

> <s_epik_Chemistry_Notes>
This compound contains an acetal/aminal-like group ( X-CH(R)-Y where X, Y are N, S, or O) that may be acid/base labile, releasing an aldehyde.

$$$$
