4cwr_ligand
                    3D
 Schrodinger Suite 2020-3.
 37 41  0  0  1  0            999 V2000
   -1.1270    9.2920   28.2430 F   0  0  0  0  0  0
    0.1510    8.9800   28.0170 C   0  0  0  0  0  0
    0.7970    8.1990   28.9730 C   0  0  0  0  0  0
    2.1420    7.8710   28.7920 C   0  0  0  0  0  0
    2.8150    8.3000   27.6560 C   0  0  0  0  0  0
    2.1670    9.0740   26.6900 C   0  0  0  0  0  0
    0.8260    9.4170   26.8700 C   0  0  0  0  0  0
    2.8540    9.4860   25.5840 N   0  0  0  0  0  0
    2.2470   10.2400   24.6290 C   0  0  0  0  0  0
    0.9530   10.6010   24.7880 N   0  0  0  0  0  0
    0.2110   11.3470   23.8890 N   0  0  0  0  0  0
   -0.9630   11.3520   24.5490 C   0  0  0  0  0  0
   -2.0420   12.0010   24.0230 N   0  0  0  0  0  0
   -1.0170   10.6770   25.7320 N   0  0  0  0  0  0
    0.2470   10.1950   25.8540 C   0  0  0  0  0  0
    3.0660   10.6820   23.4370 C   0  0  0  0  0  0
    3.9680   11.8410   23.8480 C   0  0  0  0  0  0
    5.3640   11.7370   23.6920 C   0  0  0  0  0  0
    6.2180   12.7920   24.0440 C   0  0  0  0  0  0
    5.6310   13.9480   24.5650 C   0  0  0  0  0  0
    4.2820   14.0430   24.7360 C   0  0  0  0  0  0
    3.4050   13.0120   24.3860 C   0  0  0  0  0  0
    6.2370   15.1100   25.0020 O   0  0  0  0  0  0
    5.2130   15.9850   25.5030 C   0  0  0  0  0  0
    3.9930   15.2600   25.2670 O   0  0  0  0  0  0
    0.2580    7.8478   29.8529 H   0  0  0  0  0  0
    2.6639    7.2778   29.5429 H   0  0  0  0  0  0
    3.8616    8.0297   27.5160 H   0  0  0  0  0  0
   -1.9504   12.5328   23.0645 H   0  0  0  0  0  0
   -3.0034   11.9924   24.5575 H   0  0  0  0  0  0
    3.6827    9.8422   23.0842 H   0  0  0  0  0  0
    2.3930   11.0071   22.6299 H   0  0  0  0  0  0
    5.7892   10.8176   23.2894 H   0  0  0  0  0  0
    7.2976   12.7134   23.9162 H   0  0  0  0  0  0
    2.3285   13.1118   24.5245 H   0  0  0  0  0  0
    5.3834   16.1739   26.5732 H   0  0  0  0  0  0
    5.2431   16.9373   24.9533 H   0  0  0  0  0  0
  1  2  1  0  0  0
  2  3  1  0  0  0
  2  7  2  0  0  0
  3  4  2  0  0  0
  3 26  1  0  0  0
  4  5  1  0  0  0
  4 27  1  0  0  0
  5  6  2  0  0  0
  5 28  1  0  0  0
  6  7  1  0  0  0
  6  8  1  0  0  0
  7 15  1  0  0  0
  8  9  2  0  0  0
  9 10  1  0  0  0
  9 16  1  0  0  0
 10 11  1  0  0  0
 10 15  1  0  0  0
 11 12  2  0  0  0
 12 13  1  0  0  0
 12 14  1  0  0  0
 13 29  1  0  0  0
 13 30  1  0  0  0
 14 15  2  0  0  0
 16 17  1  0  0  0
 16 31  1  0  0  0
 16 32  1  0  0  0
 17 18  2  0  0  0
 17 22  1  0  0  0
 18 19  1  0  0  0
 18 33  1  0  0  0
 19 20  2  0  0  0
 19 34  1  0  0  0
 20 21  1  0  0  0
 20 23  1  0  0  0
 21 22  2  0  0  0
 21 25  1  0  0  0
 22 35  1  0  0  0
 23 24  1  0  0  0
 24 25  1  0  0  0
 24 36  1  0  0  0
 24 37  1  0  0  0
M  END
> <s_m_source_file>
../4cwr_ligand.sdf

> <i_m_source_file_index>
1

> <s_epik_input>
W2NIXTFbY0hdW2NIXWMoRiljKGMxMiljM24obmMobjMpW05IMl0pYyhuMilbQ0gyXWMoW2NIXVtjSF00KVtjSF1jKGM0NSlPW0NIMl1PNQ==

> <s_epik_cmdline>
J2VwaWtfYXBwJywgJy1pbWFlJywgJ2xpZ2FuZF9wcm8ubWFlJywgJy1vbWFlJywgJ2xpZ2FuZF9wcmVwLm1hZScsICctbXMnLCAnMScsICctcGgnLCAnNycsICctcGh0JywgJzAuNScsICctbnQn

> <r_lp_tautomer_probability>
1

> <r_epik_Ionization_Penalty>
  0.0000

> <r_epik_Ionization_Penalty_Charging>
  0.0000

> <r_epik_Ionization_Penalty_Neutral>
  0.0000

> <r_epik_State_Penalty>
 -0.0000

> <r_epik_Charging_Adjusted_Penalty>
0

> <i_epik_Tot_Q>
0

> <i_epik_Tot_abs_Q>
0

> <s_epik_Chemistry_Notes>
This compound contains an acetal/aminal-like group ( X-CH(R)-Y where X, Y are N, S, or O) that may be acid/base labile, releasing an aldehyde.

$$$$
