4cws_ligand
                    3D
 Schrodinger Suite 2020-3.
 46 50  0  0  1  0            999 V2000
    4.7180    6.4990   32.0390 O   0  0  0  0  0  0
    5.0940    6.3110   30.6750 C   0  0  0  0  0  0
    4.4670    7.4370   29.8640 C   0  0  0  0  0  0
    3.0140    7.3220   29.7380 N   0  0  0  0  0  0
    2.3370    8.1010   28.8330 C   0  0  0  0  0  0
    0.9770    8.3970   29.0140 C   0  0  0  0  0  0
    0.2740    9.2130   28.1100 C   0  0  0  0  0  0
    3.0080    8.5920   27.7050 C   0  0  0  0  0  0
    2.3090    9.3840   26.7830 C   0  0  0  0  0  0
    0.9440    9.7080   26.9930 C   0  0  0  0  0  0
    2.9570    9.8410   25.6740 N   0  0  0  0  0  0
    2.3220   10.6130   24.7790 C   0  0  0  0  0  0
    1.0270   10.9330   24.9670 N   0  0  0  0  0  0
    0.2740   11.7240   24.1080 N   0  0  0  0  0  0
    0.3510   10.4940   26.0180 C   0  0  0  0  0  0
   -0.9020   10.9620   25.9200 N   0  0  0  0  0  0
   -0.8900   11.6640   24.7580 C   0  0  0  0  0  0
   -1.9930   12.3280   24.2760 N   0  0  0  0  0  0
    3.1210   11.0990   23.5940 C   0  0  0  0  0  0
    4.0340   12.2550   23.9750 C   0  0  0  0  0  0
    3.4830   13.4080   24.5070 C   0  0  0  0  0  0
    4.3470   14.4430   24.8140 C   0  0  0  0  0  0
    4.0490   15.6660   25.3420 O   0  0  0  0  0  0
    5.2570   16.3770   25.5900 C   0  0  0  0  0  0
    6.2520   15.5220   25.0000 O   0  0  0  0  0  0
    5.6780   14.3510   24.6040 C   0  0  0  0  0  0
    6.2870   13.2030   24.0750 C   0  0  0  0  0  0
    5.4190   12.1590   23.7690 C   0  0  0  0  0  0
    5.0645    5.7923   32.8075 H   0  0  0  0  0  0
    6.1902    6.3417   30.5893 H   0  0  0  0  0  0
    4.7260    5.3355   30.3243 H   0  0  0  0  0  0
    4.6815    8.4011   30.3483 H   0  0  0  0  0  0
    4.8881    7.4354   28.8478 H   0  0  0  0  0  0
    2.4618    6.6102   30.3692 H   0  0  0  0  0  0
    0.4531    7.9844   29.8762 H   0  0  0  0  0  0
   -0.7754    9.4538   28.2798 H   0  0  0  0  0  0
    4.0613    8.3609   27.5462 H   0  0  0  0  0  0
   -1.9303   12.8828   23.3282 H   0  0  0  0  0  0
   -2.9383   12.3045   24.8381 H   0  0  0  0  0  0
    3.7419   10.2769   23.2084 H   0  0  0  0  0  0
    2.4353   11.4418   22.8051 H   0  0  0  0  0  0
    2.4100   13.4966   24.6773 H   0  0  0  0  0  0
    5.2059   17.3653   25.1098 H   0  0  0  0  0  0
    5.3924   16.5028   26.6744 H   0  0  0  0  0  0
    7.3630   13.1338   23.9151 H   0  0  0  0  0  0
    5.8281   11.2369   23.3560 H   0  0  0  0  0  0
  1  2  1  0  0  0
  1 29  1  0  0  0
  2  3  1  0  0  0
  2 30  1  0  0  0
  2 31  1  0  0  0
  3  4  1  0  0  0
  3 32  1  0  0  0
  3 33  1  0  0  0
  4  5  1  0  0  0
  4 34  1  0  0  0
  5  6  2  0  0  0
  5  8  1  0  0  0
  6  7  1  0  0  0
  6 35  1  0  0  0
  7 10  2  0  0  0
  7 36  1  0  0  0
  8  9  2  0  0  0
  8 37  1  0  0  0
  9 10  1  0  0  0
  9 11  1  0  0  0
 10 15  1  0  0  0
 11 12  2  0  0  0
 12 13  1  0  0  0
 12 19  1  0  0  0
 13 14  1  0  0  0
 13 15  1  0  0  0
 14 17  2  0  0  0
 15 16  2  0  0  0
 16 17  1  0  0  0
 17 18  1  0  0  0
 18 38  1  0  0  0
 18 39  1  0  0  0
 19 20  1  0  0  0
 19 40  1  0  0  0
 19 41  1  0  0  0
 20 21  2  0  0  0
 20 28  1  0  0  0
 21 22  1  0  0  0
 21 42  1  0  0  0
 22 23  1  0  0  0
 22 26  2  0  0  0
 23 24  1  0  0  0
 24 25  1  0  0  0
 24 43  1  0  0  0
 24 44  1  0  0  0
 25 26  1  0  0  0
 26 27  1  0  0  0
 27 28  2  0  0  0
 27 45  1  0  0  0
 28 46  1  0  0  0
M  END
> <s_m_source_file>
../4cws_ligand.sdf

> <i_m_source_file_index>
1

> <s_epik_input>
W09IXVtDSDJdW0NIMl1bTkhdYyhbY0hdMSlbY0hdW2NIXWMoYzEyKWMzbihuYyhuMylbTkgyXSljKG4yKVtDSDJdYyhbY0hdNClbY0hdW2NIXWMoYzQ1KU9bQ0gyXU81

> <s_epik_cmdline>
J2VwaWtfYXBwJywgJy1pbWFlJywgJ2xpZ2FuZF9wcm8ubWFlJywgJy1vbWFlJywgJ2xpZ2FuZF9wcmVwLm1hZScsICctbXMnLCAnMScsICctcGgnLCAnNycsICctcGh0JywgJzAuNScsICctbnQn

> <r_lp_tautomer_probability>
1

> <r_epik_Ionization_Penalty>
  0.0031

> <r_epik_Ionization_Penalty_Charging>
  0.0000

> <r_epik_Ionization_Penalty_Neutral>
  0.0031

> <r_epik_State_Penalty>
 -0.0000

> <r_epik_Charging_Adjusted_Penalty>
0

> <i_epik_Tot_Q>
0

> <i_epik_Tot_abs_Q>
0

> <s_epik_Chemistry_Notes>
This compound contains an acetal/aminal-like group ( X-CH(R)-Y where X, Y are N, S, or O) that may be acid/base labile, releasing an aldehyde.

$$$$
