4cxw_ligand
                    3D
 Schrodinger Suite 2020-3.
 40 41  0  0  1  0            999 V2000
   34.3770   -6.8860  -23.3940 O   0  0  0  0  0  0
   34.1040   -7.4030  -24.4970 C   0  0  0  0  0  0
   34.3600   -8.5610  -24.8990 O   0  5  0  0  0  0
   33.3640   -6.5710  -25.4450 C   0  0  0  0  0  0
   32.4830   -7.4830  -26.2180 C   0  0  0  0  0  0
   31.6050   -6.7290  -27.1480 C   0  0  0  0  0  0
   31.5850   -5.5130  -27.2260 O   0  0  0  0  0  0
   30.7470   -7.4440  -27.9830 N   0  0  0  0  0  0
   29.9010   -6.8390  -28.8900 N   0  0  0  0  0  0
   28.6940   -7.4690  -29.2070 C   0  0  0  0  0  0
   28.4230   -8.5330  -28.6660 O   0  0  0  0  0  0
   27.7290   -6.8860  -30.2490 C   0  0  0  0  0  0
   26.3330   -6.6220  -30.0030 C   0  0  0  0  0  0
   25.4740   -6.1100  -30.9470 N   0  0  0  0  0  0
   25.9920   -5.8360  -32.2060 C   0  0  0  0  0  0
   27.3530   -6.0620  -32.5290 C   0  0  0  0  0  0
   28.2220   -6.6070  -31.5300 C   0  0  0  0  0  0
   29.6600   -6.8960  -31.7690 C   0  0  0  0  0  0
   30.2790   -7.0330  -33.1000 C   0  0  0  0  0  0
   30.7350   -8.2810  -33.5880 C   0  0  0  0  0  0
   31.3540   -8.3780  -34.8570 C   0  0  0  0  0  0
   31.5300   -7.2300  -35.6520 C   0  0  0  0  0  0
   31.0810   -5.9790  -35.1590 C   0  0  0  0  0  0
   30.4700   -5.8900  -33.8990 C   0  0  0  0  0  0
   32.7696   -5.8274  -24.8939 H   0  0  0  0  0  0
   34.0719   -6.0547  -26.1101 H   0  0  0  0  0  0
   33.1004   -8.1774  -26.8068 H   0  0  0  0  0  0
   31.8482   -8.0544  -25.5248 H   0  0  0  0  0  0
   30.7651   -8.5403  -27.8944 H   0  0  0  0  0  0
   30.1817   -5.8793  -29.3484 H   0  0  0  0  0  0
   25.9357   -6.8408  -29.0118 H   0  0  0  0  0  0
   25.3290   -5.4334  -32.9718 H   0  0  0  0  0  0
   27.7326   -5.8246  -33.5228 H   0  0  0  0  0  0
   30.2731   -6.0978  -31.3252 H   0  0  0  0  0  0
   29.9221   -7.8593  -31.3072 H   0  0  0  0  0  0
   30.6081   -9.1767  -32.9800 H   0  0  0  0  0  0
   31.6962   -9.3469  -35.2206 H   0  0  0  0  0  0
   32.0039   -7.3017  -36.6310 H   0  0  0  0  0  0
   31.2112   -5.0807  -35.7625 H   0  0  0  0  0  0
   30.1375   -4.9188  -33.5325 H   0  0  0  0  0  0
  1  2  2  0  0  0
  2  3  1  0  0  0
  2  4  1  0  0  0
  4  5  1  0  0  0
  4 25  1  0  0  0
  4 26  1  0  0  0
  5  6  1  0  0  0
  5 27  1  0  0  0
  5 28  1  0  0  0
  6  7  2  0  0  0
  6  8  1  0  0  0
  8  9  1  0  0  0
  8 29  1  0  0  0
  9 10  1  0  0  0
  9 30  1  0  0  0
 10 11  2  0  0  0
 10 12  1  0  0  0
 12 13  2  0  0  0
 12 17  1  0  0  0
 13 14  1  0  0  0
 13 31  1  0  0  0
 14 15  2  0  0  0
 15 16  1  0  0  0
 15 32  1  0  0  0
 16 17  2  0  0  0
 16 33  1  0  0  0
 17 18  1  0  0  0
 18 19  1  0  0  0
 18 34  1  0  0  0
 18 35  1  0  0  0
 19 20  2  0  0  0
 19 24  1  0  0  0
 20 21  1  0  0  0
 20 36  1  0  0  0
 21 22  2  0  0  0
 21 37  1  0  0  0
 22 23  1  0  0  0
 22 38  1  0  0  0
 23 24  2  0  0  0
 23 39  1  0  0  0
 24 40  1  0  0  0
M  CHG  1   3  -1
M  END
> <s_m_source_file>
../4cxw_ligand.sdf

> <i_m_source_file_index>
1

> <s_epik_input>
Tz1DKFtPSF0pW0NIMl1bQ0gyXUMoPU8pW05IXVtOSF1DKD1PKWMxW2NIXW5bY0hdW2NIXWMxW0NIMl1jMltjSF1bY0hdW2NIXVtjSF1bY0hdMg==

> <s_epik_cmdline>
J2VwaWtfYXBwJywgJy1pbWFlJywgJ2xpZ2FuZF9wcm8ubWFlJywgJy1vbWFlJywgJ2xpZ2FuZF9wcmVwLm1hZScsICctbXMnLCAnMScsICctcGgnLCAnNycsICctcGh0JywgJzAuNScsICctbnQn

> <r_lp_tautomer_probability>
1

> <r_epik_Ionization_Penalty>
  0.0015

> <r_epik_Ionization_Penalty_Charging>
  0.0010

> <r_epik_Ionization_Penalty_Neutral>
  0.0005

> <r_epik_State_Penalty>
 -0.0000

> <r_epik_Charging_Adjusted_Penalty>
0.00100652965439179

> <i_epik_Tot_Q>
-1

> <i_epik_Tot_abs_Q>
1

$$$$
