4cxx_ligand
                    3D
 Schrodinger Suite 2020-3.
 52 53  0  0  1  0            999 V2000
   33.9560   -7.1640  725.8230 O   0  5  0  0  0  0
   33.8660   -7.5210  724.6360 C   0  0  0  0  0  0
   34.3740   -8.5820  724.2550 O   0  0  0  0  0  0
   33.1040   -6.6660  723.6680 C   0  0  0  0  0  0
   32.0010   -7.5870  723.1180 C   0  0  0  0  0  0
   31.1780   -6.9080  722.0750 C   0  0  0  0  0  0
   31.4940   -5.7980  721.6390 O   0  0  0  0  0  0
   30.0150   -7.6020  721.6530 N   0  0  0  0  0  0
   29.2100   -6.9740  720.7230 N   0  0  0  0  0  0
   28.8330   -7.6490  719.4830 C   0  0  0  0  0  0
   29.1760   -8.7690  719.2460 O   0  0  0  0  0  0
   27.9360   -6.9590  718.5090 C   0  0  0  0  0  0
   26.5980   -6.8540  718.8200 C   0  0  0  0  0  0
   25.7490   -6.2690  717.9860 N   0  0  0  0  0  0
   26.1880   -5.7820  716.8090 C   0  0  0  0  0  0
   27.5270   -5.8560  716.4030 C   0  0  0  0  0  0
   28.4400   -6.5050  717.2730 C   0  0  0  0  0  0
   29.9670   -6.6440  716.9960 C   0  0  0  0  0  0
   30.3880   -6.9860  715.5420 C   0  0  0  0  0  0
   30.3450   -8.2780  715.0620 C   0  0  0  0  0  0
   30.7990   -8.5000  713.7680 C   0  0  0  0  0  0
   31.2840   -7.4490  713.0040 C   0  0  0  0  0  0
   31.7810   -7.5900  711.5370 C   0  0  0  0  0  0
   32.0490   -9.0510  711.3000 C   0  0  0  0  0  0
   30.7860   -7.0280  710.5520 C   0  0  0  0  0  0
   33.1480   -6.8630  711.3610 C   0  0  0  0  0  0
   31.3230   -6.1770  713.5270 C   0  0  0  0  0  0
   30.8860   -5.9390  714.8030 C   0  0  0  0  0  0
   32.6848   -5.7975  724.1971 H   0  0  0  0  0  0
   33.7809   -6.3195  722.8732 H   0  0  0  0  0  0
   32.4595   -8.4798  722.6677 H   0  0  0  0  0  0
   31.3345   -7.8914  723.9385 H   0  0  0  0  0  0
   29.7425   -8.5975  722.0334 H   0  0  0  0  0  0
   28.8447   -5.9537  720.9114 H   0  0  0  0  0  0
   26.2323   -7.2572  719.7643 H   0  0  0  0  0  0
   25.4680   -5.3084  716.1416 H   0  0  0  0  0  0
   27.8546   -5.4308  715.4543 H   0  0  0  0  0  0
   30.4709   -5.6960  717.2357 H   0  0  0  0  0  0
   30.3815   -7.4480  717.6219 H   0  0  0  0  0  0
   29.9682   -9.0960  715.6760 H   0  0  0  0  0  0
   30.7739   -9.5066  713.3505 H   0  0  0  0  0  0
   31.1132   -9.6183  711.4117 H   0  0  0  0  0  0
   32.7863   -9.4120  712.0322 H   0  0  0  0  0  0
   32.4435   -9.1911  710.2828 H   0  0  0  0  0  0
   29.8200   -7.5397  710.6743 H   0  0  0  0  0  0
   31.1562   -7.1833  709.5279 H   0  0  0  0  0  0
   30.6564   -5.9512  710.7357 H   0  0  0  0  0  0
   33.8753   -7.2711  712.0783 H   0  0  0  0  0  0
   33.0169   -5.7863  711.5442 H   0  0  0  0  0  0
   33.5167   -7.0184  710.3363 H   0  0  0  0  0  0
   31.7039   -5.3540  712.9223 H   0  0  0  0  0  0
   30.9323   -4.9355  715.2259 H   0  0  0  0  0  0
  1  2  1  0  0  0
  2  3  2  0  0  0
  2  4  1  0  0  0
  4  5  1  0  0  0
  4 29  1  0  0  0
  4 30  1  0  0  0
  5  6  1  0  0  0
  5 31  1  0  0  0
  5 32  1  0  0  0
  6  7  2  0  0  0
  6  8  1  0  0  0
  8  9  1  0  0  0
  8 33  1  0  0  0
  9 10  1  0  0  0
  9 34  1  0  0  0
 10 11  2  0  0  0
 10 12  1  0  0  0
 12 13  2  0  0  0
 12 17  1  0  0  0
 13 14  1  0  0  0
 13 35  1  0  0  0
 14 15  2  0  0  0
 15 16  1  0  0  0
 15 36  1  0  0  0
 16 17  2  0  0  0
 16 37  1  0  0  0
 17 18  1  0  0  0
 18 19  1  0  0  0
 18 38  1  0  0  0
 18 39  1  0  0  0
 19 20  2  0  0  0
 19 28  1  0  0  0
 20 21  1  0  0  0
 20 40  1  0  0  0
 21 22  2  0  0  0
 21 41  1  0  0  0
 22 23  1  0  0  0
 22 27  1  0  0  0
 23 24  1  0  0  0
 23 25  1  0  0  0
 23 26  1  0  0  0
 24 42  1  0  0  0
 24 43  1  0  0  0
 24 44  1  0  0  0
 25 45  1  0  0  0
 25 46  1  0  0  0
 25 47  1  0  0  0
 26 48  1  0  0  0
 26 49  1  0  0  0
 26 50  1  0  0  0
 27 28  2  0  0  0
 27 51  1  0  0  0
 28 52  1  0  0  0
M  CHG  1   1  -1
M  END
> <s_m_source_file>
../4cxx_ligand.sdf

> <i_m_source_file_index>
1

> <s_epik_input>
W09IXUMoPU8pW0NIMl1bQ0gyXUMoPU8pW05IXVtOSF1DKD1PKWMxW2NIXW5bY0hdW2NIXWMxW0NIMl1jMltjSF1bY0hdYyhDKFtDSDNdKShbQ0gzXSlbQ0gzXSlbY0hdW2NIXTI=

> <s_epik_cmdline>
J2VwaWtfYXBwJywgJy1pbWFlJywgJ2xpZ2FuZF9wcm8ubWFlJywgJy1vbWFlJywgJ2xpZ2FuZF9wcmVwLm1hZScsICctbXMnLCAnMScsICctcGgnLCAnNycsICctcGh0JywgJzAuNScsICctbnQn

> <r_lp_tautomer_probability>
1

> <r_epik_Ionization_Penalty>
  0.0015

> <r_epik_Ionization_Penalty_Charging>
  0.0010

> <r_epik_Ionization_Penalty_Neutral>
  0.0005

> <r_epik_State_Penalty>
 -0.0000

> <r_epik_Charging_Adjusted_Penalty>
0.00100652965439179

> <i_epik_Tot_Q>
-1

> <i_epik_Tot_abs_Q>
1

$$$$
