4cxy_ligand
                    3D
 Schrodinger Suite 2020-3.
 27 27  0  0  1  0            999 V2000
  -24.6080  -25.6570    5.4120 O   0  5  0  0  0  0
  -23.4950  -25.9400    5.8390 C   0  0  0  0  0  0
  -23.1840  -26.6080    6.8130 O   0  0  0  0  0  0
  -22.2860  -25.3250    5.0230 C   0  0  0  0  0  0
  -22.5600  -24.9360    3.6080 C   0  0  0  0  0  0
  -21.3210  -24.4230    2.9210 C   0  0  0  0  0  0
  -20.3000  -25.0260    2.8610 O   0  0  0  0  0  0
  -21.3710  -23.1070    2.3770 N   0  0  0  0  0  0
  -20.3460  -22.4370    1.6950 N   0  0  0  0  0  0
  -20.7000  -21.8680    0.4440 C   0  0  0  0  0  0
  -21.7880  -21.9910   -0.0300 O   0  0  0  0  0  0
  -19.6880  -21.1050   -0.4040 C   0  0  0  0  0  0
  -19.4310  -21.4810   -1.7050 C   0  0  0  0  0  0
  -18.5010  -20.7680   -2.4780 C   0  0  0  0  0  0
  -17.8510  -19.6600   -1.9170 C   0  0  0  0  0  0
  -18.0950  -19.2440   -0.6480 N   0  0  0  0  0  0
  -18.9910  -19.9590    0.0810 C   0  0  0  0  0  0
  -21.9353  -24.4093    5.5215 H   0  0  0  0  0  0
  -21.4648  -26.0554    4.9779 H   0  0  0  0  0  0
  -22.9270  -25.8111    3.0517 H   0  0  0  0  0  0
  -23.3213  -24.1423    3.5868 H   0  0  0  0  0  0
  -22.3397  -22.6114    2.5384 H   0  0  0  0  0  0
  -19.3399  -22.3770    2.1356 H   0  0  0  0  0  0
  -19.9523  -22.3359   -2.1356 H   0  0  0  0  0  0
  -18.2869  -21.0724   -3.5025 H   0  0  0  0  0  0
  -17.1253  -19.1141   -2.5199 H   0  0  0  0  0  0
  -19.1902  -19.6360    1.1028 H   0  0  0  0  0  0
  1  2  1  0  0  0
  2  3  2  0  0  0
  2  4  1  0  0  0
  4  5  1  0  0  0
  4 18  1  0  0  0
  4 19  1  0  0  0
  5  6  1  0  0  0
  5 20  1  0  0  0
  5 21  1  0  0  0
  6  7  2  0  0  0
  6  8  1  0  0  0
  8  9  1  0  0  0
  8 22  1  0  0  0
  9 10  1  0  0  0
  9 23  1  0  0  0
 10 11  2  0  0  0
 10 12  1  0  0  0
 12 13  2  0  0  0
 12 17  1  0  0  0
 13 14  1  0  0  0
 13 24  1  0  0  0
 14 15  2  0  0  0
 14 25  1  0  0  0
 15 16  1  0  0  0
 15 26  1  0  0  0
 16 17  2  0  0  0
 17 27  1  0  0  0
M  CHG  1   1  -1
M  END
> <s_m_source_file>
../4cxy_ligand.sdf

> <i_m_source_file_index>
1

> <s_epik_input>
W09IXUMoPU8pW0NIMl1bQ0gyXUMoPU8pW05IXVtOSF1DKD1PKWMxW2NIXVtjSF1bY0hdbltjSF0x

> <s_epik_cmdline>
J2VwaWtfYXBwJywgJy1pbWFlJywgJ2xpZ2FuZF9wcm8ubWFlJywgJy1vbWFlJywgJ2xpZ2FuZF9wcmVwLm1hZScsICctbXMnLCAnMScsICctcGgnLCAnNycsICctcGh0JywgJzAuNScsICctbnQn

> <r_lp_tautomer_probability>
1

> <r_epik_Ionization_Penalty>
  0.0013

> <r_epik_Ionization_Penalty_Charging>
  0.0010

> <r_epik_Ionization_Penalty_Neutral>
  0.0003

> <r_epik_State_Penalty>
 -0.0000

> <r_epik_Charging_Adjusted_Penalty>
0.00100652965439179

> <i_epik_Tot_Q>
-1

> <i_epik_Tot_abs_Q>
1

$$$$
