4cy1_ligand
                    3D
 Schrodinger Suite 2020-3.
213214  0  0  1  0            999 V2000
   20.5600  -25.0320  -21.9820 N   0  3  0  0  0  0
   20.7130  -24.5290  -23.3790 C   0  0  0  0  0  0
   19.5700  -24.8250  -24.3400 C   0  0  0  0  0  0
   19.4800  -24.2050  -25.4000 O   0  0  0  0  0  0
   18.7010  -25.7710  -23.9910 N   0  0  0  0  0  0
   17.6000  -26.1650  -24.8680 C   0  0  2  0  0  0
   16.3630  -25.2770  -24.7380 C   0  0  0  0  0  0
   15.4570  -25.3610  -25.5660 O   0  0  0  0  0  0
   17.1660  -27.6190  -24.6010 C   0  0  2  0  0  0
   16.6540  -27.7370  -23.2680 O   0  0  0  0  0  0
   18.3370  -28.5780  -24.7940 C   0  0  0  0  0  0
   16.3110  -24.4360  -23.7080 N   0  0  0  0  0  0
   15.1210  -23.6190  -23.4650 C   0  0  2  0  0  0
   15.1660  -22.3170  -24.2670 C   0  0  0  0  0  0
   15.3170  -21.2250  -23.7130 O   0  0  0  0  0  0
   14.9460  -23.3540  -21.9690 C   0  0  0  0  0  0
   14.5780  -24.8530  -21.0300 S   0  0  0  0  0  0
   15.0090  -22.4620  -25.5810 N   0  0  0  0  0  0
   15.0890  -21.3500  -26.5260 C   0  0  2  0  0  0
   13.9180  -21.3990  -27.5050 C   0  0  0  0  0  0
   13.5130  -22.4770  -27.9420 O   0  0  0  0  0  0
   16.4220  -21.3650  -27.3140 C   0  0  0  0  0  0
   17.5900  -21.0760  -26.3830 C   0  0  0  0  0  0
   16.6420  -22.6930  -28.0330 C   0  0  0  0  0  0
   13.3810  -20.2290  -27.8400 N   0  0  0  0  0  0
   12.2850  -20.1140  -28.8010 C   0  0  2  0  0  0
   12.4050  -18.8050  -29.5680 C   0  0  0  0  0  0
   12.5680  -17.7430  -28.9690 O   0  0  0  0  0  0
   10.9460  -20.1900  -28.0940 C   0  0  0  0  0  0
   12.3030  -18.8840  -30.8920 N   0  0  0  0  0  0
   12.5500  -17.7320  -31.7560 C   0  0  2  0  0  0
   11.6760  -16.5230  -31.4190 C   0  0  0  0  0  0
   12.1590  -15.3920  -31.4380 O   0  0  0  0  0  0
   12.3800  -18.1230  -33.2150 C   0  0  0  0  0  0
   10.4040  -16.7500  -31.0920 N   0  0  0  0  0  0
    9.4930  -15.6310  -30.8180 C   0  0  2  0  0  0
    9.9030  -14.8170  -29.5880 C   0  0  0  0  0  0
    9.5810  -13.6330  -29.4980 O   0  0  0  0  0  0
    8.0430  -16.1010  -30.6630 C   0  0  0  0  0  0
    7.0340  -14.9560  -30.6870 C   0  0  0  0  0  0
    5.6090  -15.4330  -30.4920 C   0  0  0  0  0  0
    5.1500  -16.2830  -31.5880 N   0  0  0  0  0  0
    4.5530  -15.8580  -32.7010 C   0  0  0  0  0  0
    4.3280  -14.5630  -32.9150 N   0  0  0  0  0  0
    4.1790  -16.7450  -33.6150 N   0  0  0  0  0  0
   10.6160  -15.4420  -28.6520 N   0  0  0  0  0  0
   11.0010  -14.7680  -27.4070 C   0  0  2  0  0  0
   12.3200  -13.9950  -27.5240 C   0  0  0  0  0  0
   12.7490  -13.3600  -26.5580 O   0  0  0  0  0  0
   11.0800  -15.7660  -26.2300 C   0  0  2  0  0  0
   12.1080  -16.7330  -26.4760 O   0  0  0  0  0  0
    9.7400  -16.4740  -26.0350 C   0  0  0  0  0  0
   12.9450  -14.0410  -28.7020 N   0  0  0  0  0  0
   14.1580  -13.2770  -28.9960 C   0  0  2  0  0  0
   13.8280  -12.1380  -29.9610 C   0  0  0  0  0  0
   12.9870  -12.3050  -30.8420 O   0  0  0  0  0  0
   15.2100  -14.1830  -29.6360 C   0  0  0  0  0  0
   15.4950  -15.4660  -28.8690 C   0  0  0  0  0  0
   16.7310  -16.1750  -29.4070 C   0  0  0  0  0  0
   16.5030  -16.8380  -30.6950 N   0  0  0  0  0  0
   16.0050  -18.0670  -30.8490 C   0  0  0  0  0  0
   15.6430  -18.7980  -29.7970 N   0  0  0  0  0  0
   15.8540  -18.5690  -32.0710 N   0  0  0  0  0  0
   14.4980  -10.9800  -29.8130 N   0  0  0  0  0  0
   14.2120   -9.8330  -30.6770 C   0  0  2  0  0  0
   14.7630  -10.0120  -32.0910 C   0  0  0  0  0  0
   15.7020  -10.7840  -32.2900 O   0  0  0  0  0  0
   14.9340   -8.6840  -29.9720 C   0  0  0  0  0  0
   16.0850   -9.3380  -29.2900 C   0  0  0  0  0  0
   15.5950  -10.6960  -28.8680 C   0  0  0  0  0  0
   14.1800   -9.3100  -33.0600 N   0  0  0  0  0  0
   14.7070   -9.3310  -34.4280 C   0  0  2  0  0  0
   16.0960   -8.7010  -34.4540 C   0  0  0  0  0  0
   16.3620   -7.7360  -33.7360 O   0  0  0  0  0  0
   13.8030   -8.6040  -35.4550 C   0  0  0  0  0  0
   12.4510   -9.2920  -35.5690 C   0  0  0  0  0  0
   13.6480   -7.1230  -35.1270 C   0  0  0  0  0  0
   16.9740   -9.2610  -35.2820 N   0  0  0  0  0  0
   18.3450   -8.7840  -35.4000 C   0  0  2  0  0  0
   18.5450   -8.1330  -36.7660 C   0  0  0  0  0  0
   18.9580   -8.7860  -37.7270 O   0  0  0  0  0  0
   19.3290   -9.9410  -35.1890 C   0  0  0  0  0  0
   19.1330  -10.7690  -33.9120 C   0  0  0  0  0  0
   20.2050  -11.8410  -33.8060 C   0  0  0  0  0  0
   19.1420   -9.8930  -32.6690 C   0  0  0  0  0  0
   18.2290   -6.8420  -36.8410 N   0  0  0  0  0  0
   18.3820   -6.0640  -38.0690 C   0  0  2  0  0  0
   19.4610   -5.0020  -37.8800 C   0  0  0  0  0  0
   19.2930   -4.0700  -37.0930 O   0  0  0  0  0  0
   17.0570   -5.4030  -38.4520 C   0  0  0  0  0  0
   16.6070   -4.5290  -37.4320 O   0  0  0  0  0  0
   20.5660   -5.1540  -38.6050 N   0  0  0  0  0  0
   21.7060   -4.2470  -38.4950 C   0  0  2  0  0  0
   22.5830   -4.3490  -39.7360 C   0  0  0  0  0  0
   22.3720   -5.2190  -40.5810 O   0  0  0  0  0  0
   22.5310   -4.5800  -37.2500 C   0  0  0  0  0  0
   23.0450   -6.0030  -37.2290 C   0  0  0  0  0  0
   22.2480   -7.0430  -36.7580 C   0  0  0  0  0  0
   24.3220   -6.3120  -37.6880 C   0  0  0  0  0  0
   22.7090   -8.3470  -36.7420 C   0  0  0  0  0  0
   24.7910   -7.6160  -37.6770 C   0  0  0  0  0  0
   23.9810   -8.6280  -37.2010 C   0  0  0  0  0  0
   24.4390   -9.9240  -37.1870 O   0  0  0  0  0  0
   23.5240   -3.5770  -39.9160 O   0  0  0  0  0  0
   21.4468  -24.7547  -21.3933 H   0  0  0  0  0  0
   20.4568  -26.1271  -21.9958 H   0  0  0  0  0  0
   19.6636  -24.5849  -21.5274 H   0  0  0  0  0  0
   20.8162  -23.4339  -23.3652 H   0  0  0  0  0  0
   21.6094  -24.9760  -23.8336 H   0  0  0  0  0  0
   18.8278  -26.2600  -23.0138 H   0  0  0  0  0  0
   18.0459  -26.0305  -25.8645 H   0  0  0  0  0  0
   16.3361  -27.9052  -25.2638 H   0  0  0  0  0  0
   15.8031  -27.1172  -22.9488 H   0  0  0  0  0  0
   18.7246  -28.4818  -25.8190 H   0  0  0  0  0  0
   17.9969  -29.6105  -24.6260 H   0  0  0  0  0  0
   19.1337  -28.3330  -24.0762 H   0  0  0  0  0  0
   17.1776  -24.3594  -23.0348 H   0  0  0  0  0  0
   14.2727  -24.2192  -23.8259 H   0  0  0  0  0  0
   15.8723  -22.9221  -21.5623 H   0  0  0  0  0  0
   14.1150  -22.6496  -21.8161 H   0  0  0  0  0  0
   14.4294  -24.7976  -19.9415 H   0  0  0  0  0  0
   14.8103  -23.4806  -25.9458 H   0  0  0  0  0  0
   15.0262  -20.4499  -25.8968 H   0  0  0  0  0  0
   16.3798  -20.5786  -28.0820 H   0  0  0  0  0  0
   17.4216  -20.1175  -25.8702 H   0  0  0  0  0  0
   18.5200  -21.0206  -26.9678 H   0  0  0  0  0  0
   17.6728  -21.8810  -25.6379 H   0  0  0  0  0  0
   15.7926  -22.8923  -28.7030 H   0  0  0  0  0  0
   16.7224  -23.5021  -27.2922 H   0  0  0  0  0  0
   17.5696  -22.6417  -28.6221 H   0  0  0  0  0  0
   13.7922  -19.3265  -27.3641 H   0  0  0  0  0  0
   12.3789  -20.9674  -29.4887 H   0  0  0  0  0  0
   10.8747  -21.1405  -27.5449 H   0  0  0  0  0  0
   10.1359  -20.1335  -28.8360 H   0  0  0  0  0  0
   10.8559  -19.3512  -27.3882 H   0  0  0  0  0  0
   12.0236  -19.8523  -31.3329 H   0  0  0  0  0  0
   13.5955  -17.4615  -31.5471 H   0  0  0  0  0  0
   13.0154  -18.9928  -33.4379 H   0  0  0  0  0  0
   12.6742  -17.2798  -33.8572 H   0  0  0  0  0  0
   11.3274  -18.3793  -33.4056 H   0  0  0  0  0  0
   10.0381  -17.7854  -31.0281 H   0  0  0  0  0  0
    9.5973  -15.0045  -31.7161 H   0  0  0  0  0  0
    7.7892  -16.7848  -31.4864 H   0  0  0  0  0  0
    7.9280  -16.6250  -29.7027 H   0  0  0  0  0  0
    7.2664  -14.2456  -29.8800 H   0  0  0  0  0  0
    7.0882  -14.4397  -31.6568 H   0  0  0  0  0  0
    5.5412  -16.0144  -29.5607 H   0  0  0  0  0  0
    4.9366  -14.5645  -30.4319 H   0  0  0  0  0  0
    5.2878  -17.3730  -31.5335 H   0  0  0  0  0  0
    4.6341  -13.8201  -32.1638 H   0  0  0  0  0  0
    3.8360  -14.2362  -33.8430 H   0  0  0  0  0  0
    4.3604  -17.8170  -33.4477 H   0  0  0  0  0  0
   10.9164  -16.4854  -28.8281 H   0  0  0  0  0  0
   10.1858  -14.0446  -27.2581 H   0  0  0  0  0  0
   11.3755  -15.2544  -25.3021 H   0  0  0  0  0  0
   13.1446  -16.4039  -26.6408 H   0  0  0  0  0  0
    8.9547  -15.7271  -25.8466 H   0  0  0  0  0  0
    9.8085  -17.1586  -25.1767 H   0  0  0  0  0  0
    9.4922  -17.0459  -26.9414 H   0  0  0  0  0  0
   12.5056  -14.6929  -29.4714 H   0  0  0  0  0  0
   14.5187  -12.8869  -28.0328 H   0  0  0  0  0  0
   14.8752  -14.4807  -30.6407 H   0  0  0  0  0  0
   16.1635  -13.6400  -29.7132 H   0  0  0  0  0  0
   15.6636  -15.2292  -27.8081 H   0  0  0  0  0  0
   14.6357  -16.1466  -28.9607 H   0  0  0  0  0  0
   17.5405  -15.4438  -29.5489 H   0  0  0  0  0  0
   17.0535  -16.9445  -28.6902 H   0  0  0  0  0  0
   16.7478  -16.3173  -31.6325 H   0  0  0  0  0  0
   15.7622  -18.3954  -28.7803 H   0  0  0  0  0  0
   15.2246  -19.8046  -29.9444 H   0  0  0  0  0  0
   16.1488  -17.9762  -32.9494 H   0  0  0  0  0  0
   13.1243   -9.7095  -30.7851 H   0  0  0  0  0  0
   15.2622   -7.9448  -30.7176 H   0  0  0  0  0  0
   14.2493   -8.2044  -29.2570 H   0  0  0  0  0  0
   16.9288   -9.4188  -29.9910 H   0  0  0  0  0  0
   16.3869   -8.7353  -28.4208 H   0  0  0  0  0  0
   15.2031  -10.6973  -27.8402 H   0  0  0  0  0  0
   16.3719  -11.4686  -28.9651 H   0  0  0  0  0  0
   13.2904   -8.7081  -32.8225 H   0  0  0  0  0  0
   14.7397  -10.4029  -34.6730 H   0  0  0  0  0  0
   14.2832   -8.6566  -36.4433 H   0  0  0  0  0  0
   12.5998  -10.3559  -35.8056 H   0  0  0  0  0  0
   11.8642   -8.8170  -36.3690 H   0  0  0  0  0  0
   11.9115   -9.2006  -34.6148 H   0  0  0  0  0  0
   14.6421   -6.6581  -35.0521 H   0  0  0  0  0  0
   13.1187   -7.0131  -34.1690 H   0  0  0  0  0  0
   13.0714   -6.6295  -35.9233 H   0  0  0  0  0  0
   16.6336  -10.1123  -35.8898 H   0  0  0  0  0  0
   18.4877   -8.0336  -34.6084 H   0  0  0  0  0  0
   19.2473  -10.6492  -36.0267 H   0  0  0  0  0  0
   20.3546   -9.5461  -35.1415 H   0  0  0  0  0  0
   18.1484  -11.2563  -33.9675 H   0  0  0  0  0  0
   20.1881  -12.4671  -34.7102 H   0  0  0  0  0  0
   20.0112  -12.4672  -32.9227 H   0  0  0  0  0  0
   21.1916  -11.3645  -33.7084 H   0  0  0  0  0  0
   18.3625   -9.1220  -32.7581 H   0  0  0  0  0  0
   20.1252   -9.4103  -32.5677 H   0  0  0  0  0  0
   18.9448  -10.5130  -31.7821 H   0  0  0  0  0  0
   17.8393   -6.3624  -35.9310 H   0  0  0  0  0  0
   18.6833   -6.7777  -38.8499 H   0  0  0  0  0  0
   17.1904   -4.8233  -39.3773 H   0  0  0  0  0  0
   16.2932   -6.1783  -38.6120 H   0  0  0  0  0  0
   15.6645   -3.9760  -37.5578 H   0  0  0  0  0  0
   20.6021   -6.0001  -39.3070 H   0  0  0  0  0  0
   21.2822   -3.2351  -38.4151 H   0  0  0  0  0  0
   23.0108   -5.2848  -41.4741 H   0  0  0  0  0  0
   23.4048   -3.9137  -37.2002 H   0  0  0  0  0  0
   21.9118   -4.4404  -36.3516 H   0  0  0  0  0  0
   21.2432   -6.8258  -36.3956 H   0  0  0  0  0  0
   24.9642   -5.5148  -38.0625 H   0  0  0  0  0  0
   22.0717   -9.1488  -36.3690 H   0  0  0  0  0  0
   25.7931   -7.8414  -38.0418 H   0  0  0  0  0  0
   23.7947  -10.7310  -36.8081 H   0  0  0  0  0  0
  1  2  1  0  0  0
  1105  1  0  0  0
  1106  1  0  0  0
  1107  1  0  0  0
  2  3  1  0  0  0
  2108  1  0  0  0
  2109  1  0  0  0
  3  4  2  0  0  0
  3  5  1  0  0  0
  5  6  1  0  0  0
  5110  1  0  0  0
  6  7  1  0  0  0
  6  9  1  0  0  0
  6111  1  0  0  0
  7  8  2  0  0  0
  7 12  1  0  0  0
  9 10  1  0  0  0
  9 11  1  0  0  0
  9112  1  0  0  0
 10113  1  0  0  0
 11114  1  0  0  0
 11115  1  0  0  0
 11116  1  0  0  0
 12 13  1  0  0  0
 12117  1  0  0  0
 13 14  1  0  0  0
 13 16  1  0  0  0
 13118  1  0  0  0
 14 15  2  0  0  0
 14 18  1  0  0  0
 16 17  1  0  0  0
 16119  1  0  0  0
 16120  1  0  0  0
 17121  1  0  0  0
 18 19  1  0  0  0
 18122  1  0  0  0
 19 20  1  0  0  0
 19 22  1  0  0  0
 19123  1  0  0  0
 20 21  2  0  0  0
 20 25  1  0  0  0
 22 23  1  0  0  0
 22 24  1  0  0  0
 22124  1  0  0  0
 23125  1  0  0  0
 23126  1  0  0  0
 23127  1  0  0  0
 24128  1  0  0  0
 24129  1  0  0  0
 24130  1  0  0  0
 25 26  1  0  0  0
 25131  1  0  0  0
 26 27  1  0  0  0
 26 29  1  0  0  0
 26132  1  0  0  0
 27 28  2  0  0  0
 27 30  1  0  0  0
 29133  1  0  0  0
 29134  1  0  0  0
 29135  1  0  0  0
 30 31  1  0  0  0
 30136  1  0  0  0
 31 32  1  0  0  0
 31 34  1  0  0  0
 31137  1  0  0  0
 32 33  2  0  0  0
 32 35  1  0  0  0
 34138  1  0  0  0
 34139  1  0  0  0
 34140  1  0  0  0
 35 36  1  0  0  0
 35141  1  0  0  0
 36 37  1  0  0  0
 36 39  1  0  0  0
 36142  1  0  0  0
 37 38  2  0  0  0
 37 46  1  0  0  0
 39 40  1  0  0  0
 39143  1  0  0  0
 39144  1  0  0  0
 40 41  1  0  0  0
 40145  1  0  0  0
 40146  1  0  0  0
 41 42  1  0  0  0
 41147  1  0  0  0
 41148  1  0  0  0
 42 43  1  0  0  0
 42149  1  0  0  0
 43 44  1  0  0  0
 43 45  2  0  0  0
 44150  1  0  0  0
 44151  1  0  0  0
 45152  1  0  0  0
 46 47  1  0  0  0
 46153  1  0  0  0
 47 48  1  0  0  0
 47 50  1  0  0  0
 47154  1  0  0  0
 48 49  2  0  0  0
 48 53  1  0  0  0
 50 51  1  0  0  0
 50 52  1  0  0  0
 50155  1  0  0  0
 51156  1  0  0  0
 52157  1  0  0  0
 52158  1  0  0  0
 52159  1  0  0  0
 53 54  1  0  0  0
 53160  1  0  0  0
 54 55  1  0  0  0
 54 57  1  0  0  0
 54161  1  0  0  0
 55 56  2  0  0  0
 55 64  1  0  0  0
 57 58  1  0  0  0
 57162  1  0  0  0
 57163  1  0  0  0
 58 59  1  0  0  0
 58164  1  0  0  0
 58165  1  0  0  0
 59 60  1  0  0  0
 59166  1  0  0  0
 59167  1  0  0  0
 60 61  1  0  0  0
 60168  1  0  0  0
 61 62  1  0  0  0
 61 63  2  0  0  0
 62169  1  0  0  0
 62170  1  0  0  0
 63171  1  0  0  0
 64 65  1  0  0  0
 64 70  1  0  0  0
 65 66  1  0  0  0
 65 68  1  0  0  0
 65172  1  0  0  0
 66 67  2  0  0  0
 66 71  1  0  0  0
 68 69  1  0  0  0
 68173  1  0  0  0
 68174  1  0  0  0
 69 70  1  0  0  0
 69175  1  0  0  0
 69176  1  0  0  0
 70177  1  0  0  0
 70178  1  0  0  0
 71 72  1  0  0  0
 71179  1  0  0  0
 72 73  1  0  0  0
 72 75  1  0  0  0
 72180  1  0  0  0
 73 74  2  0  0  0
 73 78  1  0  0  0
 75 76  1  0  0  0
 75 77  1  0  0  0
 75181  1  0  0  0
 76182  1  0  0  0
 76183  1  0  0  0
 76184  1  0  0  0
 77185  1  0  0  0
 77186  1  0  0  0
 77187  1  0  0  0
 78 79  1  0  0  0
 78188  1  0  0  0
 79 80  1  0  0  0
 79 82  1  0  0  0
 79189  1  0  0  0
 80 81  2  0  0  0
 80 86  1  0  0  0
 82 83  1  0  0  0
 82190  1  0  0  0
 82191  1  0  0  0
 83 84  1  0  0  0
 83 85  1  0  0  0
 83192  1  0  0  0
 84193  1  0  0  0
 84194  1  0  0  0
 84195  1  0  0  0
 85196  1  0  0  0
 85197  1  0  0  0
 85198  1  0  0  0
 86 87  1  0  0  0
 86199  1  0  0  0
 87 88  1  0  0  0
 87 90  1  0  0  0
 87200  1  0  0  0
 88 89  2  0  0  0
 88 92  1  0  0  0
 90 91  1  0  0  0
 90201  1  0  0  0
 90202  1  0  0  0
 91203  1  0  0  0
 92 93  1  0  0  0
 92204  1  0  0  0
 93 94  1  0  0  0
 93 96  1  0  0  0
 93205  1  0  0  0
 94 95  1  0  0  0
 94104  2  0  0  0
 95206  1  0  0  0
 96 97  1  0  0  0
 96207  1  0  0  0
 96208  1  0  0  0
 97 98  2  0  0  0
 97 99  1  0  0  0
 98100  1  0  0  0
 98209  1  0  0  0
 99101  2  0  0  0
 99210  1  0  0  0
100102  2  0  0  0
100211  1  0  0  0
101102  1  0  0  0
101212  1  0  0  0
102103  1  0  0  0
103213  1  0  0  0
M  CHG  1   1   1
M  END
> <s_m_source_file>
../4cy1_ligand.sdf

> <i_m_source_file_index>
1

> <s_epik_input>
W05IMytdW0NIMl1DKD1PKVtOSF1bQ0BASF0oW0NASF0oW09IXSlbQ0gzXSlDKD1PKVtOSF1bQ0BASF0oW0NIMl1bU0hdKUMoPU8pW05IXVtDQEBIXShbQ0hdKFtDSDNdKVtDSDNdKUMoPU8pW05IXVtDQEBIXShbQ0gzXSlDKD1PKVtOSF1bQ0BASF0oW0NIM10pQyg9TylbTkhdW0NAQEhdKFtDSDJdW0NIMl1bQ0gyXVtOSF0vQyhbTkgyXSk9TlxbSF0pQyg9TylbTkhdW0NAQEhdKFtDQEhdKFtPSF0pW0NIM10pQyg9TylbTkhdW0NAQEhdKFtDSDJdW0NIMl1bQ0gyXVtOSF0vQyhbTkgyXSk9TlxbSF0pQyg9TylOMVtDQEBIXShbQ0gyXVtDSDJdW0NIMl0xKUMoPU8pW05IXVtDQEBIXShbQ0hdKFtDSDNdKVtDSDNdKUMoPU8pW05IXVtDQEBIXShbQ0gyXVtDSF0oW0NIM10pW0NIM10pQyg9TylbTkhdW0NAQEhdKFtDSDJdW09IXSlDKD1PKVtOSF1bQ0BIXShDKD1PKVtPSF0pW0NIMl1jMltjSF1bY0hdYyhbT0hdKVtjSF1bY0hdMg==

> <s_epik_cmdline>
J2VwaWtfYXBwJywgJy1pbWFlJywgJ2xpZ2FuZF9wcm8ubWFlJywgJy1vbWFlJywgJ2xpZ2FuZF9wcmVwLm1hZScsICctbXMnLCAnMScsICctcGgnLCAnNycsICctcGh0JywgJzAuNScsICctbnQn

> <s_epik_pKa_notes>
Molecule size exceeds maximum supported for generating protonation states

> <s_epik_Chemistry_Notes>
This compound has an imine and may undergo hydrolysis.

$$$$
