4czs_ligand
                    3D
 Schrodinger Suite 2020-3.
 97100  0  0  1  0            999 V2000
  -90.0070  -78.2820   55.6160 O   0  0  0  0  0  0
  -89.9150  -76.8570   55.7440 C   0  0  0  0  0  0
  -88.4170  -76.5250   55.8980 C   0  0  0  0  0  0
  -88.2160  -75.1060   56.0410 O   0  0  0  0  0  0
  -86.8990  -74.7940   56.4240 C   0  0  1  0  0  0
  -85.9630  -75.2900   55.3880 O   0  0  0  0  0  0
  -86.2110  -74.6240   54.0990 C   0  0  2  0  0  0
  -85.2440  -75.2020   53.0860 C   0  0  0  0  0  0
  -83.9400  -75.0830   53.6220 O   0  0  0  0  0  0
  -86.0570  -73.1350   54.2330 C   0  0  1  0  0  0
  -86.3850  -72.4730   52.9880 O   0  0  0  0  0  0
  -86.9910  -72.6460   55.2820 C   0  0  2  0  0  0
  -86.8210  -71.2010   55.4940 O   0  0  0  0  0  0
  -86.7650  -73.3090   56.5720 C   0  0  2  0  0  0
  -85.4180  -73.0490   57.0580 O   0  0  0  0  0  0
  -90.3030  -78.6370   54.2970 N   0  0  1  0  0  0
  -90.0350  -80.0360   54.0810 C   0  0  0  0  0  0
  -90.4320  -80.3780   52.6670 C   0  0  0  0  0  0
  -90.9850  -81.4570   52.4130 O   0  0  0  0  0  0
  -90.1430  -79.4290   51.6090 N   0  0  0  0  0  0
  -90.5090  -79.6750   50.2310 C   0  0  2  0  0  0
  -90.1130  -81.0560   49.6920 C   0  0  0  0  0  0
  -90.9360  -81.7710   49.1240 O   0  0  0  0  0  0
  -89.7880  -78.6580   49.4400 C   0  0  0  0  0  0
  -90.1260  -78.7280   47.8850 C   0  0  0  0  0  0
  -89.3390  -79.2780   46.8560 C   0  0  0  0  0  0
  -91.3050  -78.1910   47.2570 C   0  0  0  0  0  0
  -89.9700  -79.1100   45.7050 N   0  3  0  0  0  0
  -91.1460  -78.4630   45.9000 C   0  0  0  0  0  0
  -92.4400  -77.5160   47.7320 C   0  0  0  0  0  0
  -92.1610  -78.0690   44.9720 C   0  0  0  0  0  0
  -93.4440  -77.1240   46.8210 C   0  0  0  0  0  0
  -93.2910  -77.4090   45.4430 C   0  0  0  0  0  0
  -88.7770  -81.5210   49.8370 N   0  0  0  0  0  0
  -88.4290  -82.7860   49.2810 C   0  0  2  0  0  0
  -88.9210  -83.9600   50.0920 C   0  0  0  0  0  0
  -88.9570  -85.0580   49.5490 O   0  0  0  0  0  0
  -86.9270  -82.9080   49.3190 C   0  0  0  0  0  0
  -86.2830  -81.7190   48.6170 C   0  0  0  0  0  0
  -86.2410  -81.7060   47.2270 C   0  0  0  0  0  0
  -85.7600  -80.6770   49.3530 C   0  0  0  0  0  0
  -85.6630  -80.6390   46.5730 C   0  0  0  0  0  0
  -85.1700  -79.6040   48.6970 C   0  0  0  0  0  0
  -85.1300  -79.5930   47.3120 C   0  0  0  0  0  0
  -84.5280  -78.4740   46.6050 O   0  0  0  0  0  0
  -88.4440  -85.4660   52.8850 C   0  0  0  0  0  0
  -89.2700  -83.7240   51.5100 N   0  0  0  0  0  0
  -87.6390  -84.9080   53.6320 O   0  0  0  0  0  0
  -89.6850  -84.7290   52.4400 C   0  0  1  0  0  0
  -90.6900  -85.6620   51.8130 C   0  0  0  0  0  0
  -92.0320  -84.9830   51.8800 C   0  0  0  0  0  0
  -92.8280  -85.3250   52.8190 O   0  0  0  0  0  0
  -92.3330  -84.0840   51.0230 O   0  5  0  0  0  0
  -88.1900  -86.8200   52.4200 N   0  0  0  0  0  0
  -90.3321  -76.3804   54.8446 H   0  0  0  0  0  0
  -90.4822  -76.5309   56.6283 H   0  0  0  0  0  0
  -88.0195  -77.0297   56.7909 H   0  0  0  0  0  0
  -87.8713  -76.8710   55.0078 H   0  0  0  0  0  0
  -86.7130  -75.3037   57.3809 H   0  0  0  0  0  0
  -87.2496  -74.8099   53.7880 H   0  0  0  0  0  0
  -85.4895  -76.2591   52.9065 H   0  0  0  0  0  0
  -85.3230  -74.6419   52.1426 H   0  0  0  0  0  0
  -83.0741  -75.4436   53.0473 H   0  0  0  0  0  0
  -85.0135  -72.8859   54.4762 H   0  0  0  0  0  0
  -85.8081  -72.6954   52.0782 H   0  0  0  0  0  0
  -88.0103  -72.8706   54.9348 H   0  0  0  0  0  0
  -86.9457  -70.5033   54.6528 H   0  0  0  0  0  0
  -87.4976  -72.8919   57.2786 H   0  0  0  0  0  0
  -85.0871  -73.4757   58.0164 H   0  0  0  0  0  0
  -91.2909  -78.4566   54.1182 H   0  0  0  0  0  0
  -88.9629  -80.2313   54.2307 H   0  0  0  0  0  0
  -90.6200  -80.6357   54.7938 H   0  0  0  0  0  0
  -89.6277  -78.4967   51.8832 H   0  0  0  0  0  0
  -91.6050  -79.5878   50.1955 H   0  0  0  0  0  0
  -90.0611  -77.6542   49.7973 H   0  0  0  0  0  0
  -88.7039  -78.8054   49.5542 H   0  0  0  0  0  0
  -88.3723  -79.7462   47.0933 H   0  0  0  0  0  0
  -92.5451  -77.2966   48.7945 H   0  0  0  0  0  0
  -92.0501  -78.2834   43.9091 H   0  0  0  0  0  0
  -94.3334  -76.6040   47.1770 H   0  0  0  0  0  0
  -94.0690  -77.1072   44.7418 H   0  0  0  0  0  0
  -88.0184  -80.9251   50.3657 H   0  0  0  0  0  0
  -88.8978  -82.7640   48.2861 H   0  0  0  0  0  0
  -86.5877  -82.9348   50.3650 H   0  0  0  0  0  0
  -86.6214  -83.8343   48.8106 H   0  0  0  0  0  0
  -86.6626  -82.5346   46.6580 H   0  0  0  0  0  0
  -85.8091  -80.6950   50.4417 H   0  0  0  0  0  0
  -85.6251  -80.6174   45.4839 H   0  0  0  0  0  0
  -84.7426  -78.7786   49.2663 H   0  0  0  0  0  0
  -84.4986  -78.4698   45.5054 H   0  0  0  0  0  0
  -89.1898  -82.6755   51.8327 H   0  0  0  0  0  0
  -90.1789  -84.2245   53.2836 H   0  0  0  0  0  0
  -90.4072  -85.8569   50.7680 H   0  0  0  0  0  0
  -90.7082  -86.6099   52.3708 H   0  0  0  0  0  0
  -87.2849  -87.3530   52.7466 H   0  0  0  0  0  0
  -88.9029  -87.3114   51.7416 H   0  0  0  0  0  0
  -89.5200  -79.4801   44.7720 H   0  0  0  0  0  0
  1  2  1  0  0  0
  1 16  1  0  0  0
  2  3  1  0  0  0
  2 55  1  0  0  0
  2 56  1  0  0  0
  3  4  1  0  0  0
  3 57  1  0  0  0
  3 58  1  0  0  0
  4  5  1  0  0  0
  5  6  1  0  0  0
  5 14  1  0  0  0
  5 59  1  0  0  0
  6  7  1  0  0  0
  7  8  1  0  0  0
  7 10  1  0  0  0
  7 60  1  0  0  0
  8  9  1  0  0  0
  8 61  1  0  0  0
  8 62  1  0  0  0
  9 63  1  0  0  0
 10 11  1  0  0  0
 10 12  1  0  0  0
 10 64  1  0  0  0
 11 65  1  0  0  0
 12 13  1  0  0  0
 12 14  1  0  0  0
 12 66  1  0  0  0
 13 67  1  0  0  0
 14 15  1  0  0  0
 14 68  1  0  0  0
 15 69  1  0  0  0
 16 17  1  0  0  0
 16 70  1  0  0  0
 17 18  1  0  0  0
 17 71  1  0  0  0
 17 72  1  0  0  0
 18 19  2  0  0  0
 18 20  1  0  0  0
 20 21  1  0  0  0
 20 73  1  0  0  0
 21 22  1  0  0  0
 21 24  1  0  0  0
 21 74  1  0  0  0
 22 23  2  0  0  0
 22 34  1  0  0  0
 24 25  1  0  0  0
 24 75  1  0  0  0
 24 76  1  0  0  0
 25 26  2  0  0  0
 25 27  1  0  0  0
 26 28  1  0  0  0
 26 77  1  0  0  0
 27 29  2  0  0  0
 27 30  1  0  0  0
 28 29  1  0  0  0
 28 97  1  0  0  0
 29 31  1  0  0  0
 30 32  2  0  0  0
 30 78  1  0  0  0
 31 33  2  0  0  0
 31 79  1  0  0  0
 32 33  1  0  0  0
 32 80  1  0  0  0
 33 81  1  0  0  0
 34 35  1  0  0  0
 34 82  1  0  0  0
 35 36  1  0  0  0
 35 38  1  0  0  0
 35 83  1  0  0  0
 36 37  2  0  0  0
 36 47  1  0  0  0
 38 39  1  0  0  0
 38 84  1  0  0  0
 38 85  1  0  0  0
 39 40  2  0  0  0
 39 41  1  0  0  0
 40 42  1  0  0  0
 40 86  1  0  0  0
 41 43  2  0  0  0
 41 87  1  0  0  0
 42 44  2  0  0  0
 42 88  1  0  0  0
 43 44  1  0  0  0
 43 89  1  0  0  0
 44 45  1  0  0  0
 45 90  1  0  0  0
 46 48  2  0  0  0
 46 49  1  0  0  0
 46 54  1  0  0  0
 47 49  1  0  0  0
 47 91  1  0  0  0
 49 50  1  0  0  0
 49 92  1  0  0  0
 50 51  1  0  0  0
 50 93  1  0  0  0
 50 94  1  0  0  0
 51 52  2  0  0  0
 51 53  1  0  0  0
 54 95  1  0  0  0
 54 96  1  0  0  0
M  CHG  2  28   1  53  -1
M  END
> <s_m_source_file>
../4czs_ligand.sdf

> <i_m_source_file_index>
1

> <s_epik_input>
W09IXVtDQEhdMVtDQEBIXShbT0hdKVtDQEhdKFtPSF0pW0NAQEhdKFtDSDJdW09IXSlPW0NAQEhdMU9bQ0gyXVtDSDJdT1tOSDIrXVtDSDJdQyg9TylbTkhdW0NAQEhdKFtDSDJdYzJbY0hdW25IXWMoYzIzKVtjSF1bY0hdW2NIXVtjSF0zKUMoPU8pW05IXVtDQEhdKEMoPU8pW05IXVtDQEhdKEMoPU8pW05IMl0pW0NIMl1DKD1PKVtPSF0pW0NIMl1jNFtjSF1bY0hdYyhbT0hdKVtjSF1bY0hdNA==

> <s_epik_cmdline>
J2VwaWtfYXBwJywgJy1pbWFlJywgJ2xpZ2FuZF9wcm8ubWFlJywgJy1vbWFlJywgJ2xpZ2FuZF9wcmVwLm1hZScsICctbXMnLCAnMScsICctcGgnLCAnNycsICctcGh0JywgJzAuNScsICctbnQn

> <r_lp_tautomer_probability>
1

> <r_epik_Ionization_Penalty>
  0.0024

> <r_epik_Ionization_Penalty_Charging>
  0.0006

> <r_epik_Ionization_Penalty_Neutral>
  0.0018

> <r_epik_State_Penalty>
 -0.0000

> <r_epik_Charging_Adjusted_Penalty>
0.000630767991564769

> <i_epik_Tot_Q>
0

> <i_epik_Tot_abs_Q>
2

> <s_epik_Chemistry_Notes>
This compound contains an acetal/aminal-like group ( X-CH(R)-Y where X, Y are N, S, or O) that may be acid/base labile, releasing an aldehyde. This compound has a N-S or N-O group and may undergo hydrolysis at high or low pH.

$$$$
