4d08_ligand
                    3D
 Schrodinger Suite 2020-3.
 60 64  0  0  1  0            999 V2000
   -5.9560   26.6080   18.7600 C   0  0  0  0  0  0
   -5.9650   25.1050   18.5910 C   0  0  0  0  0  0
   -4.5730   24.4930   18.6630 C   0  0  0  0  0  0
   -4.5510   23.0350   18.2730 C   0  0  0  0  0  0
   -3.1880   22.6400   18.0350 O   0  0  0  0  0  0
   -2.3630   22.3810   19.1020 C   0  0  0  0  0  0
   -1.0570   22.0360   18.7890 C   0  0  0  0  0  0
   -0.1280   21.7750   19.7160 N   0  0  0  0  0  0
   -0.4950   21.8430   20.9990 C   0  0  0  0  0  0
   -2.7240   22.4490   20.4390 C   0  0  0  0  0  0
   -1.7790   22.1670   21.4160 C   0  0  0  0  0  0
   -2.1980   22.1360   22.8250 C   0  0  0  0  0  0
   -3.1530   21.3520   23.2720 N   0  0  0  0  0  0
   -3.1620   21.4210   24.6600 N   0  0  0  0  0  0
   -2.2070   22.2610   25.0180 C   0  0  0  0  0  0
   -1.7460   22.6460   26.3170 C   0  0  0  0  0  0
   -2.4230   22.0660   27.5150 C   0  0  0  0  0  0
   -0.7690   23.4690   26.4730 N   0  0  0  0  0  0
   -1.5840   22.7770   23.8820 N   0  0  0  0  0  0
   -0.5440   23.7430   24.0460 C   0  0  0  0  0  0
    0.0220   24.4600   22.9920 C   0  0  0  0  0  0
    0.9590   25.4650   23.2120 C   0  0  0  0  0  0
    1.3670   25.7120   24.5130 C   0  0  0  0  0  0
    0.8170   25.0230   25.5790 C   0  0  0  0  0  0
   -0.1590   24.0470   25.3660 C   0  0  0  0  0  0
    1.3970   26.3750   22.0860 C   0  0  0  0  0  0
    2.3320   25.7910   21.1070 N   0  0  0  0  0  0
    2.8820   24.5020   21.5440 C   0  0  0  0  0  0
    3.8230   23.9610   20.4980 C   0  0  0  0  0  0
    4.8860   24.8680   20.2280 O   0  0  0  0  0  0
    4.3610   26.1170   19.7960 C   0  0  0  0  0  0
    3.4380   26.7140   20.8220 C   0  0  0  0  0  0
   -6.9857   26.9900   18.6988 H   0  0  0  0  0  0
   -5.3483   27.0628   17.9639 H   0  0  0  0  0  0
   -5.5275   26.8642   19.7402 H   0  0  0  0  0  0
   -6.5727   24.6502   19.3871 H   0  0  0  0  0  0
   -6.3935   24.8488   17.6108 H   0  0  0  0  0  0
   -3.8996   25.0323   17.9806 H   0  0  0  0  0  0
   -4.1913   24.5702   19.6917 H   0  0  0  0  0  0
   -4.9776   22.4311   19.0875 H   0  0  0  0  0  0
   -5.1461   22.8908   17.3592 H   0  0  0  0  0  0
   -0.7737   21.9745   17.7382 H   0  0  0  0  0  0
    0.2556   21.6323   21.7608 H   0  0  0  0  0  0
   -3.7411   22.7216   20.7205 H   0  0  0  0  0  0
   -3.2275   21.3898   27.1900 H   0  0  0  0  0  0
   -2.8492   22.8770   28.1238 H   0  0  0  0  0  0
   -1.6910   21.5040   28.1136 H   0  0  0  0  0  0
   -0.2772   24.2272   21.9701 H   0  0  0  0  0  0
    2.1350   26.4626   24.6998 H   0  0  0  0  0  0
    1.1481   25.2437   26.5938 H   0  0  0  0  0  0
    0.5162   26.6972   21.5112 H   0  0  0  0  0  0
    1.9049   27.2568   22.5037 H   0  0  0  0  0  0
    3.4302   24.6384   22.4878 H   0  0  0  0  0  0
    2.0611   23.7860   21.6970 H   0  0  0  0  0  0
    4.2569   23.0135   20.8500 H   0  0  0  0  0  0
    3.2706   23.7863   19.5630 H   0  0  0  0  0  0
    5.1876   26.8213   19.6209 H   0  0  0  0  0  0
    3.7968   25.9745   18.8625 H   0  0  0  0  0  0
    3.0345   27.6615   20.4354 H   0  0  0  0  0  0
    4.0028   26.9060   21.7462 H   0  0  0  0  0  0
  1  2  1  0  0  0
  1 33  1  0  0  0
  1 34  1  0  0  0
  1 35  1  0  0  0
  2  3  1  0  0  0
  2 36  1  0  0  0
  2 37  1  0  0  0
  3  4  1  0  0  0
  3 38  1  0  0  0
  3 39  1  0  0  0
  4  5  1  0  0  0
  4 40  1  0  0  0
  4 41  1  0  0  0
  5  6  1  0  0  0
  6  7  2  0  0  0
  6 10  1  0  0  0
  7  8  1  0  0  0
  7 42  1  0  0  0
  8  9  2  0  0  0
  9 11  1  0  0  0
  9 43  1  0  0  0
 10 11  2  0  0  0
 10 44  1  0  0  0
 11 12  1  0  0  0
 12 13  2  0  0  0
 12 19  1  0  0  0
 13 14  1  0  0  0
 14 15  2  0  0  0
 15 16  1  0  0  0
 15 19  1  0  0  0
 16 17  1  0  0  0
 16 18  2  0  0  0
 17 45  1  0  0  0
 17 46  1  0  0  0
 17 47  1  0  0  0
 18 25  1  0  0  0
 19 20  1  0  0  0
 20 21  1  0  0  0
 20 25  2  0  0  0
 21 22  2  0  0  0
 21 48  1  0  0  0
 22 23  1  0  0  0
 22 26  1  0  0  0
 23 24  2  0  0  0
 23 49  1  0  0  0
 24 25  1  0  0  0
 24 50  1  0  0  0
 26 27  1  0  0  0
 26 51  1  0  0  0
 26 52  1  0  0  0
 27 28  1  0  0  0
 27 32  1  0  0  0
 28 29  1  0  0  0
 28 53  1  0  0  0
 28 54  1  0  0  0
 29 30  1  0  0  0
 29 55  1  0  0  0
 29 56  1  0  0  0
 30 31  1  0  0  0
 31 32  1  0  0  0
 31 57  1  0  0  0
 31 58  1  0  0  0
 32 59  1  0  0  0
 32 60  1  0  0  0
M  END
> <s_m_source_file>
../4d08_ligand.sdf

> <i_m_source_file_index>
1

> <s_epik_input>
W0NIM11bQ0gyXVtDSDJdW0NIMl1PYzFbY0hdbltjSF1jKFtjSF0xKS1jKG5uMiluKGMyMyljNGMobmMzW0NIM10pW2NIXVtjSF1jKFtjSF00KVtDSDJdW05IK101W0NIMl1bQ0gyXU9bQ0gyXVtDSDJdNQ==

> <s_epik_cmdline>
J2VwaWtfYXBwJywgJy1pbWFlJywgJ2xpZ2FuZF9wcm8ubWFlJywgJy1vbWFlJywgJ2xpZ2FuZF9wcmVwLm1hZScsICctbXMnLCAnMScsICctcGgnLCAnNycsICctcGh0JywgJzAuNScsICctbnQn

> <r_lp_tautomer_probability>
1

> <r_epik_Ionization_Penalty>
  0.2855

> <r_epik_Ionization_Penalty_Charging>
  0.0000

> <r_epik_Ionization_Penalty_Neutral>
  0.2855

> <r_epik_State_Penalty>
  0.2773

> <r_epik_Charging_Adjusted_Penalty>
0.277327297006007

> <i_epik_Tot_Q>
0

> <i_epik_Tot_abs_Q>
0

$$$$
