4d0w_ligand
                    3D
 Schrodinger Suite 2020-3.
 36 38  0  0  1  0            999 V2000
   32.0990   -9.1610    3.2170 C   0  0  0  0  0  0
   32.8050   -8.1840    2.5110 C   0  0  0  0  0  0
   33.8890   -8.5240    1.7790 N   0  0  0  0  0  0
   34.3510   -9.8530    1.7770 C   0  0  0  0  0  0
   35.4370  -10.1670    1.0330 N   0  0  0  0  0  0
   33.6990  -10.8010    2.5050 N   0  0  0  0  0  0
   32.5290  -10.4930    3.2120 C   0  0  0  0  0  0
   31.8680  -11.4990    3.8500 C   0  0  0  0  0  0
   32.3460  -12.7750    3.8300 N   0  0  0  0  0  0
   30.6370  -11.4790    4.4830 C   0  0  0  0  0  0
   30.3560  -12.7630    4.9150 C   0  0  0  0  0  0
   29.1480  -13.2080    5.5680 C   0  0  0  0  0  0
   28.1020  -12.5520    5.6870 O   0  0  0  0  0  0
   29.0150  -14.4320    5.9520 N   0  0  0  0  0  0
   31.4250  -13.5400    4.5120 C   0  0  3  0  0  0
   31.6550  -14.8910    4.6000 C   0  0  0  0  0  0
   32.3030  -15.4880    5.7010 C   0  0  0  0  0  0
   32.6070  -16.8470    5.7480 C   0  0  0  0  0  0
   33.4580  -17.5610    7.1580 Cl  0  0  0  0  0  0
   32.3390  -17.7630    4.7460 C   0  0  0  0  0  0
   31.7160  -17.1790    3.6410 C   0  0  0  0  0  0
   31.3870  -15.8070    3.5600 C   0  0  0  0  0  0
   30.8340  -15.4160    2.3290 C   0  0  0  0  0  0
   31.2056   -8.8837    3.7766 H   0  0  0  0  0  0
   32.4806   -7.1442    2.5506 H   0  0  0  0  0  0
   35.9499   -9.3865    0.4518 H   0  0  0  0  0  0
   35.8069  -11.2027    1.0095 H   0  0  0  0  0  0
   29.9208  -10.6659    4.6725 H   0  0  0  0  0  0
   29.8704  -15.1215    5.8978 H   0  0  0  0  0  0
   28.0462  -14.7865    6.3337 H   0  0  0  0  0  0
   32.5771  -14.8611    6.5495 H   0  0  0  0  0  0
   32.5866  -18.8225    4.8119 H   0  0  0  0  0  0
   31.4695  -17.8177    2.7928 H   0  0  0  0  0  0
   30.6093  -14.3395    2.3534 H   0  0  0  0  0  0
   29.9072  -15.9800    2.1477 H   0  0  0  0  0  0
   31.5526  -15.6224    1.5222 H   0  0  0  0  0  0
  1  2  2  0  0  0
  1  7  1  0  0  0
  1 24  1  0  0  0
  2  3  1  0  0  0
  2 25  1  0  0  0
  3  4  2  0  0  0
  4  5  1  0  0  0
  4  6  1  0  0  0
  5 26  1  0  0  0
  5 27  1  0  0  0
  6  7  2  0  0  0
  7  8  1  0  0  0
  8  9  2  0  0  0
  8 10  1  0  0  0
  9 15  1  0  0  0
 10 11  2  0  0  0
 10 28  1  0  0  0
 11 12  1  0  0  0
 11 15  1  0  0  0
 12 13  2  0  0  0
 12 14  1  0  0  0
 14 29  1  0  0  0
 14 30  1  0  0  0
 15 16  1  0  0  0
 16 17  2  0  0  0
 16 22  1  0  0  0
 17 18  1  0  0  0
 17 31  1  0  0  0
 18 19  1  0  0  0
 18 20  2  0  0  0
 20 21  1  0  0  0
 20 32  1  0  0  0
 21 22  2  0  0  0
 21 33  1  0  0  0
 22 23  1  0  0  0
 23 34  1  0  0  0
 23 35  1  0  0  0
 23 36  1  0  0  0
M  END
> <s_m_source_file>
../4d0w_ligand.sdf

> <i_m_source_file_index>
1

> <s_epik_input>
W05IMl1jMW5bY0hdW2NIXWMobjEpQzI9TltDSF0oQyg9W0NIXTIpQyg9TylbTkgyXSljM1tjSF1jKENsKVtjSF1bY0hdYzNbQ0gzXQ==

> <s_epik_cmdline>
J2VwaWtfYXBwJywgJy1pbWFlJywgJ2xpZ2FuZF9wcm8ubWFlJywgJy1vbWFlJywgJ2xpZ2FuZF9wcmVwLm1hZScsICctbXMnLCAnMScsICctcGgnLCAnNycsICctcGh0JywgJzAuNScsICctbnQn

> <r_lp_tautomer_probability>
1

> <r_epik_Ionization_Penalty>
  0.0071

> <r_epik_Ionization_Penalty_Charging>
  0.0000

> <r_epik_Ionization_Penalty_Neutral>
  0.0071

> <r_epik_State_Penalty>
 -0.0000

> <r_epik_Charging_Adjusted_Penalty>
0

> <i_epik_Tot_Q>
0

> <i_epik_Tot_abs_Q>
0

> <s_epik_Chemistry_Notes>
This compound has an imine and may undergo hydrolysis.

$$$$
