4d1a_ligand
                    3D
 Schrodinger Suite 2020-3.
 27 29  0  0  1  0            999 V2000
    2.4860    6.9090   27.7500 N   0  0  0  0  0  0
    2.6050    8.1130   27.1520 C   0  0  0  0  0  0
    2.3990    9.1190   28.0770 C   0  0  3  0  0  0
    2.1420    8.4830   29.3040 C   0  0  0  0  0  0
    1.8620    8.9430   30.5910 C   0  0  0  0  0  0
    1.6500    8.0040   31.6110 C   0  0  0  0  0  0
    1.7140    6.6490   31.3560 C   0  0  0  0  0  0
    1.9890    6.1560   30.0880 C   0  0  0  0  0  0
    2.1990    7.0950   29.0750 C   0  0  0  0  0  0
    2.4430   10.6250   27.8140 C   0  0  0  0  0  0
    3.5360   10.9100   26.8780 C   0  0  1  0  0  0
    3.2710   12.2170   26.2220 C   0  0  0  0  0  0
    4.3380   13.0970   26.5580 N   0  0  0  0  0  0
    5.2750   12.3660   27.4130 C   0  0  0  0  0  0
    4.7600   11.0160   27.5970 N   0  0  0  0  0  0
    2.3170   12.4790   25.5320 O   0  0  0  0  0  0
    6.2910   12.7940   27.8850 O   0  0  0  0  0  0
    2.8348    8.1733   26.0780 H   0  0  0  0  0  0
    1.8090   10.0115   30.7998 H   0  0  0  0  0  0
    1.4312    8.3498   32.6213 H   0  0  0  0  0  0
    1.5440    5.9472   32.1725 H   0  0  0  0  0  0
    2.0389    5.0850   29.8915 H   0  0  0  0  0  0
    1.4860   10.9494   27.3793 H   0  0  0  0  0  0
    2.6149   11.1577   28.7609 H   0  0  0  0  0  0
    3.6334   10.0898   26.1516 H   0  0  0  0  0  0
    4.3412   14.1285   26.1759 H   0  0  0  0  0  0
    5.1451   10.1516   28.1578 H   0  0  0  0  0  0
  1  2  2  0  0  0
  1  9  1  0  0  0
  2  3  1  0  0  0
  2 18  1  0  0  0
  3  4  1  0  0  0
  3 10  1  0  0  0
  4  5  1  0  0  0
  4  9  2  0  0  0
  5  6  2  0  0  0
  5 19  1  0  0  0
  6  7  1  0  0  0
  6 20  1  0  0  0
  7  8  2  0  0  0
  7 21  1  0  0  0
  8  9  1  0  0  0
  8 22  1  0  0  0
 10 11  1  0  0  0
 10 23  1  0  0  0
 10 24  1  0  0  0
 11 12  1  0  0  0
 11 15  1  0  0  0
 11 25  1  0  0  0
 12 13  1  0  0  0
 12 16  2  0  0  0
 13 14  1  0  0  0
 13 26  1  0  0  0
 14 15  1  0  0  0
 14 17  2  0  0  0
 15 27  1  0  0  0
M  END
> <s_m_source_file>
../4d1a_ligand.sdf

> <i_m_source_file_index>
1

> <s_epik_input>
W2NIXTFbY0hdW2NIXVtjSF1jKGMxMilOPVtDSF1bQ0hdMltDSDJdW0NASF0zQyg9TylbTkhdQyg9TylbTkhdMw==

> <s_epik_cmdline>
J2VwaWtfYXBwJywgJy1pbWFlJywgJ2xpZ2FuZF9wcm8ubWFlJywgJy1vbWFlJywgJ2xpZ2FuZF9wcmVwLm1hZScsICctbXMnLCAnMScsICctcGgnLCAnNycsICctcGh0JywgJzAuNScsICctbnQn

> <r_lp_tautomer_probability>
1

> <r_epik_Ionization_Penalty>
  0.0280

> <r_epik_Ionization_Penalty_Charging>
  0.0000

> <r_epik_Ionization_Penalty_Neutral>
  0.0280

> <r_epik_State_Penalty>
 -0.0000

> <r_epik_Charging_Adjusted_Penalty>
0

> <i_epik_Tot_Q>
0

> <i_epik_Tot_abs_Q>
0

> <s_epik_Chemistry_Notes>
This compound has an imine and may undergo hydrolysis.

$$$$
