4d1b_ligand
                    3D
 Schrodinger Suite 2020-3.
 24 25  0  0  1  0            999 V2000
    4.5920   11.7070  -24.6860 N   0  0  0  0  0  0
    5.0900   13.0200  -25.0490 C   0  0  0  0  0  0
    6.0720   13.5750  -24.5770 O   0  0  0  0  0  0
    4.2150   13.5610  -26.0690 N   0  0  0  0  0  0
    3.1960   12.6010  -26.3330 C   0  0  0  0  0  0
    2.2860   12.7240  -27.1410 O   0  0  0  0  0  0
    3.4300   11.4350  -25.4700 C   0  0  2  0  0  0
    2.2360   11.2180  -24.6000 C   0  0  0  0  0  0
    2.4190    9.9930  -23.7640 C   0  0  0  0  0  0
    2.3990    7.5390  -23.4580 C   0  0  0  0  0  0
    2.8200   10.1260  -22.3360 C   0  0  0  0  0  0
    2.9850    9.0160  -21.5610 C   0  0  0  0  0  0
    2.7660    7.6630  -22.1490 C   0  0  0  0  0  0
    2.2180    8.7550  -24.3010 C   0  0  0  0  0  0
    4.9518   10.9634  -23.9596 H   0  0  0  0  0  0
    4.4115   14.5581  -26.4899 H   0  0  0  0  0  0
    3.6278   10.5269  -26.0583 H   0  0  0  0  0  0
    2.1012   12.0869  -23.9390 H   0  0  0  0  0  0
    1.3420   11.0933  -25.2287 H   0  0  0  0  0  0
    2.2382    6.5500  -23.8871 H   0  0  0  0  0  0
    2.9824   11.1153  -21.9081 H   0  0  0  0  0  0
    3.2759    9.1173  -20.5154 H   0  0  0  0  0  0
    2.8990    6.7732  -21.5336 H   0  0  0  0  0  0
    1.9251    8.6551  -25.3462 H   0  0  0  0  0  0
  1  2  1  0  0  0
  1  7  1  0  0  0
  1 15  1  0  0  0
  2  3  2  0  0  0
  2  4  1  0  0  0
  4  5  1  0  0  0
  4 16  1  0  0  0
  5  6  2  0  0  0
  5  7  1  0  0  0
  7  8  1  0  0  0
  7 17  1  0  0  0
  8  9  1  0  0  0
  8 18  1  0  0  0
  8 19  1  0  0  0
  9 11  2  0  0  0
  9 14  1  0  0  0
 10 13  1  0  0  0
 10 14  2  0  0  0
 10 20  1  0  0  0
 11 12  1  0  0  0
 11 21  1  0  0  0
 12 13  2  0  0  0
 12 22  1  0  0  0
 13 23  1  0  0  0
 14 24  1  0  0  0
M  END
> <s_m_source_file>
../4d1b_ligand.sdf

> <i_m_source_file_index>
1

> <s_epik_input>
Tz1DMVtOSF1bQ0BIXShDKD1PKVtOSF0xKVtDSDJdYzJbY0hdW2NIXVtjSF1bY0hdW2NIXTI=

> <s_epik_cmdline>
J2VwaWtfYXBwJywgJy1pbWFlJywgJ2xpZ2FuZF9wcm8ubWFlJywgJy1vbWFlJywgJ2xpZ2FuZF9wcmVwLm1hZScsICctbXMnLCAnMScsICctcGgnLCAnNycsICctcGh0JywgJzAuNScsICctbnQn

> <r_lp_tautomer_probability>
0.999999999781369

> <r_epik_Ionization_Penalty>
  0.0097

> <r_epik_Ionization_Penalty_Charging>
  0.0000

> <r_epik_Ionization_Penalty_Neutral>
  0.0097

> <r_epik_State_Penalty>
  0.0074

> <r_epik_Charging_Adjusted_Penalty>
0.0073503818412329

> <i_epik_Tot_Q>
0

> <i_epik_Tot_abs_Q>
0

$$$$
