4d1c_ligand
                    3D
 Schrodinger Suite 2020-3.
 22 23  0  0  1  0            999 V2000
    4.2330   12.1670  -24.6780 N   0  0  0  0  0  0
    3.1930   11.7400  -25.4370 C   0  0  0  0  0  0
    2.4740   10.5800  -25.3200 C   0  0  0  0  0  0
    2.4930    9.7120  -24.1050 C   0  0  0  0  0  0
    2.7670   10.2230  -22.8410 C   0  0  0  0  0  0
    2.7760    9.4010  -21.7240 C   0  0  0  0  0  0
    2.5070    8.0520  -21.8480 C   0  0  0  0  0  0
    2.2280    7.5310  -23.0990 C   0  0  0  0  0  0
    2.2200    8.3530  -24.2150 C   0  0  0  0  0  0
    3.0280   12.7800  -26.3890 C   0  0  0  0  0  0
    3.9840   13.6810  -26.0680 N   0  0  0  0  0  0
    4.7330   13.3390  -25.0330 C   0  0  0  0  0  0
    1.8470    5.6400  -23.2940 Br  0  0  0  0  0  0
    5.6600   13.9540  -24.5280 O   0  0  0  0  0  0
    2.2120   12.8570  -27.2950 O   0  0  0  0  0  0
    1.4016   10.8011  -25.4253 H   0  0  0  0  0  0
    2.7823    9.8765  -26.1074 H   0  0  0  0  0  0
    2.9780   11.2862  -22.7264 H   0  0  0  0  0  0
    2.9965    9.8218  -20.7430 H   0  0  0  0  0  0
    2.5144    7.4054  -20.9706 H   0  0  0  0  0  0
    1.9964    7.9278  -25.1934 H   0  0  0  0  0  0
    4.0863   14.6066  -26.6536 H   0  0  0  0  0  0
  1  2  2  0  0  0
  1 12  1  0  0  0
  2  3  1  0  0  0
  2 10  1  0  0  0
  3  4  1  0  0  0
  3 16  1  0  0  0
  3 17  1  0  0  0
  4  5  2  0  0  0
  4  9  1  0  0  0
  5  6  1  0  0  0
  5 18  1  0  0  0
  6  7  2  0  0  0
  6 19  1  0  0  0
  7  8  1  0  0  0
  7 20  1  0  0  0
  8  9  2  0  0  0
  8 13  1  0  0  0
  9 21  1  0  0  0
 10 11  1  0  0  0
 10 15  2  0  0  0
 11 12  1  0  0  0
 11 22  1  0  0  0
 12 14  2  0  0  0
M  END
> <s_m_source_file>
../4d1c_ligand.sdf

> <i_m_source_file_index>
1

> <s_epik_input>
Tz1DMVtOSF1DKD1PKU49QzFbQ0gyXWMyW2NIXVtjSF1bY0hdYyhCcilbY0hdMg==

> <s_epik_cmdline>
J2VwaWtfYXBwJywgJy1pbWFlJywgJ2xpZ2FuZF9wcm8ubWFlJywgJy1vbWFlJywgJ2xpZ2FuZF9wcmVwLm1hZScsICctbXMnLCAnMScsICctcGgnLCAnNycsICctcGh0JywgJzAuNScsICctbnQn

> <r_epik_Ionization_Penalty>
  0.0988

> <r_epik_Ionization_Penalty_Charging>
  0.0000

> <r_epik_Ionization_Penalty_Neutral>
  0.0988

> <r_epik_State_Penalty>
  0.0889

> <r_epik_Charging_Adjusted_Penalty>
0.0888736831375019

> <i_epik_Tot_Q>
0

> <i_epik_Tot_abs_Q>
0

> <s_epik_Chemistry_Notes>
This compound has an imine and may undergo hydrolysis.

$$$$
