4d1d_ligand
                    3D
 Schrodinger Suite 2020-3.
 30 32  0  0  1  0            999 V2000
    4.0470   11.8000  -24.1410 N   0  0  0  0  0  0
    2.8530   11.3170  -24.7540 C   0  0  2  0  0  0
    3.0450    9.9020  -25.1990 C   0  0  0  0  0  0
    2.8330    8.9890  -24.0430 C   0  0  0  0  0  0
    2.0680    9.3980  -22.9590 C   0  0  0  0  0  0
    1.8770    8.5560  -21.8790 C   0  0  0  0  0  0
    2.4510    7.2970  -21.8690 C   0  0  0  0  0  0
    3.2180    6.8800  -22.9440 C   0  0  0  0  0  0
    3.4060    7.7270  -24.0270 C   0  0  0  0  0  0
    2.5650   12.1630  -25.9160 C   0  0  0  0  0  0
    3.5790   13.1560  -26.0000 N   0  0  0  0  0  0
    4.5050   12.9470  -24.9010 C   0  0  0  0  0  0
    5.5020   13.6180  -24.6630 O   0  0  0  0  0  0
    1.6180   12.0360  -26.6780 O   0  0  0  0  0  0
    3.7940    5.6220  -22.9360 C   0  0  0  0  0  0
    3.6030    4.7830  -21.8540 C   0  0  0  0  0  0
    2.8340    5.2000  -20.7780 C   0  0  0  0  0  0
    2.2590    6.4550  -20.7850 C   0  0  0  0  0  0
    4.4484   11.2986  -23.2480 H   0  0  0  0  0  0
    2.0389   11.3808  -24.0170 H   0  0  0  0  0  0
    2.3205    9.6656  -25.9923 H   0  0  0  0  0  0
    4.0668    9.7747  -25.5859 H   0  0  0  0  0  0
    1.6150   10.3894  -22.9593 H   0  0  0  0  0  0
    1.2728    8.8848  -21.0335 H   0  0  0  0  0  0
    4.0096    7.3970  -24.8725 H   0  0  0  0  0  0
    3.5536   13.9009  -26.8090 H   0  0  0  0  0  0
    4.3976    5.2929  -23.7818 H   0  0  0  0  0  0
    4.0575    3.7923  -21.8466 H   0  0  0  0  0  0
    2.6835    4.5366  -19.9264 H   0  0  0  0  0  0
    1.6549    6.7833  -19.9392 H   0  0  0  0  0  0
  1  2  1  0  0  0
  1 12  1  0  0  0
  1 19  1  0  0  0
  2  3  1  0  0  0
  2 10  1  0  0  0
  2 20  1  0  0  0
  3  4  1  0  0  0
  3 21  1  0  0  0
  3 22  1  0  0  0
  4  5  2  0  0  0
  4  9  1  0  0  0
  5  6  1  0  0  0
  5 23  1  0  0  0
  6  7  2  0  0  0
  6 24  1  0  0  0
  7  8  1  0  0  0
  7 18  1  0  0  0
  8  9  2  0  0  0
  8 15  1  0  0  0
  9 25  1  0  0  0
 10 11  1  0  0  0
 10 14  2  0  0  0
 11 12  1  0  0  0
 11 26  1  0  0  0
 12 13  2  0  0  0
 15 16  2  0  0  0
 15 27  1  0  0  0
 16 17  1  0  0  0
 16 28  1  0  0  0
 17 18  2  0  0  0
 17 29  1  0  0  0
 18 30  1  0  0  0
M  END
> <s_m_source_file>
../4d1d_ligand.sdf

> <i_m_source_file_index>
1

> <s_epik_input>
Tz1DMVtOSF1DKD1PKVtOSF1bQ0BASF0xW0NIMl1jKFtjSF1bY0hdMilbY0hdYyhjMjMpW2NIXVtjSF1bY0hdW2NIXTM=

> <s_epik_cmdline>
J2VwaWtfYXBwJywgJy1pbWFlJywgJ2xpZ2FuZF9wcm8ubWFlJywgJy1vbWFlJywgJ2xpZ2FuZF9wcmVwLm1hZScsICctbXMnLCAnMScsICctcGgnLCAnNycsICctcGh0JywgJzAuNScsICctbnQn

> <r_lp_tautomer_probability>
0.999999999781369

> <r_epik_Ionization_Penalty>
  0.0097

> <r_epik_Ionization_Penalty_Charging>
  0.0000

> <r_epik_Ionization_Penalty_Neutral>
  0.0097

> <r_epik_State_Penalty>
  0.0074

> <r_epik_Charging_Adjusted_Penalty>
0.0073503818412329

> <i_epik_Tot_Q>
0

> <i_epik_Tot_abs_Q>
0

$$$$
