4d1y_ligand
                    3D
 Schrodinger Suite 2020-3.
 47 49  0  0  1  0            999 V2000
  -35.0430   -7.4820   31.7770 N   0  0  0  0  0  0
  -35.2090   -6.8610   32.9730 C   0  0  0  0  0  0
  -35.0130   -7.5090   34.0240 O   0  0  0  0  0  0
  -35.5710   -5.5710   33.0750 N   0  0  0  0  0  0
  -35.7970   -4.8040   32.0030 C   0  0  0  0  0  0
  -36.1360   -3.6090   32.1360 O   0  0  0  0  0  0
  -35.6430   -5.4080   30.6580 C   0  0  0  0  0  0
  -35.8570   -4.6970   29.5300 N   0  0  0  0  0  0
  -35.7110   -5.2720   28.3150 C   0  0  0  0  0  0
  -35.9440   -4.5200   27.1700 C   0  0  0  0  0  0
  -35.7980   -5.0990   25.9150 C   0  0  0  0  0  0
  -36.0510   -4.2780   24.6790 C   0  0  0  0  0  0
  -35.3920   -6.5250   25.7950 C   0  0  0  0  0  0
  -35.2360   -7.1480   24.4330 C   0  0  0  0  0  0
  -35.1590   -7.2810   26.9380 C   0  0  0  0  0  0
  -35.3050   -6.7030   28.1950 C   0  0  0  0  0  0
  -35.0840   -7.4670   29.3610 N   0  0  0  0  0  0
  -35.2380   -6.8320   30.6100 C   0  0  0  0  0  0
  -34.6690   -8.8730   29.2640 C   0  0  0  0  0  0
  -35.7470   -9.8610   29.6930 C   0  0  2  0  0  0
  -35.9740   -9.7340   31.0990 O   0  0  0  0  0  0
  -35.2930  -11.2850   29.3900 C   0  0  2  0  0  0
  -34.5770  -11.3130   28.1480 O   0  0  0  0  0  0
  -36.4680  -12.2570   29.3280 C   0  0  2  0  0  0
  -37.6760  -11.5440   29.0390 O   0  0  0  0  0  0
  -36.6340  -13.0040   30.6450 C   0  0  0  0  0  0
  -35.4940  -13.8430   30.8640 O   0  0  0  0  0  0
  -35.6912   -5.1102   34.0666 H   0  0  0  0  0  0
  -36.2416   -3.4750   27.2562 H   0  0  0  0  0  0
  -36.3387   -3.2569   24.9697 H   0  0  0  0  0  0
  -36.8630   -4.7355   24.0948 H   0  0  0  0  0  0
  -35.1361   -4.2417   24.0693 H   0  0  0  0  0  0
  -35.4612   -6.3992   23.6593 H   0  0  0  0  0  0
  -35.9302   -7.9957   24.3359 H   0  0  0  0  0  0
  -34.2027   -7.5041   24.3089 H   0  0  0  0  0  0
  -34.8621   -8.3260   26.8495 H   0  0  0  0  0  0
  -34.4068   -9.1068   28.2216 H   0  0  0  0  0  0
  -33.7942   -9.0425   29.9090 H   0  0  0  0  0  0
  -36.7034   -9.6345   29.1990 H   0  0  0  0  0  0
  -36.3092   -8.7735   31.5175 H   0  0  0  0  0  0
  -34.5856  -11.6135   30.1656 H   0  0  0  0  0  0
  -33.6936  -10.6727   28.0079 H   0  0  0  0  0  0
  -36.3172  -12.9677   28.5021 H   0  0  0  0  0  0
  -37.7523  -10.9398   28.1230 H   0  0  0  0  0  0
  -36.7206  -12.2801   31.4687 H   0  0  0  0  0  0
  -37.5425  -13.6227   30.6036 H   0  0  0  0  0  0
  -35.4339  -14.4637   31.7702 H   0  0  0  0  0  0
  1  2  1  0  0  0
  1 18  2  0  0  0
  2  3  2  0  0  0
  2  4  1  0  0  0
  4  5  1  0  0  0
  4 28  1  0  0  0
  5  6  2  0  0  0
  5  7  1  0  0  0
  7  8  2  0  0  0
  7 18  1  0  0  0
  8  9  1  0  0  0
  9 10  2  0  0  0
  9 16  1  0  0  0
 10 11  1  0  0  0
 10 29  1  0  0  0
 11 12  1  0  0  0
 11 13  2  0  0  0
 12 30  1  0  0  0
 12 31  1  0  0  0
 12 32  1  0  0  0
 13 14  1  0  0  0
 13 15  1  0  0  0
 14 33  1  0  0  0
 14 34  1  0  0  0
 14 35  1  0  0  0
 15 16  2  0  0  0
 15 36  1  0  0  0
 16 17  1  0  0  0
 17 18  1  0  0  0
 17 19  1  0  0  0
 19 20  1  0  0  0
 19 37  1  0  0  0
 19 38  1  0  0  0
 20 21  1  0  0  0
 20 22  1  0  0  0
 20 39  1  0  0  0
 21 40  1  0  0  0
 22 23  1  0  0  0
 22 24  1  0  0  0
 22 41  1  0  0  0
 23 42  1  0  0  0
 24 25  1  0  0  0
 24 26  1  0  0  0
 24 43  1  0  0  0
 25 44  1  0  0  0
 26 27  1  0  0  0
 26 45  1  0  0  0
 26 46  1  0  0  0
 27 47  1  0  0  0
M  END
> <s_m_source_file>
../4d1y_ligand.sdf

> <i_m_source_file_index>
1

> <s_epik_input>
Tz1jMVtuSF1jKD1PKW5jKGMxMiluKGMzYyhuMilbY0hdYyhbQ0gzXSljKFtDSDNdKVtjSF0zKVtDSDJdW0NASF0oW09IXSlbQ0BIXShbT0hdKVtDQEhdKFtPSF0pW0NIMl1bT0hd

> <s_epik_cmdline>
J2VwaWtfYXBwJywgJy1pbWFlJywgJ2xpZ2FuZF9wcm8ubWFlJywgJy1vbWFlJywgJ2xpZ2FuZF9wcmVwLm1hZScsICctbXMnLCAnMScsICctcGgnLCAnNycsICctcGh0JywgJzAuNScsICctbnQn

> <r_lp_tautomer_probability>
1

> <r_epik_Ionization_Penalty>
  0.0006

> <r_epik_Ionization_Penalty_Charging>
  0.0006

> <r_epik_Ionization_Penalty_Neutral>
  0.0000

> <r_epik_State_Penalty>
 -0.0000

> <r_epik_Charging_Adjusted_Penalty>
0.000566488079864488

> <i_epik_Tot_Q>
0

> <i_epik_Tot_abs_Q>
0

$$$$
