4d2d_ligand
                    3D
 Schrodinger Suite 2020-3.
 33 32  0  0  1  0            999 V2000
  -22.7220  -18.7470   -6.1930 N   0  3  0  0  0  0
  -23.2590  -19.1760   -4.9080 C   0  0  2  0  0  0
  -22.4650  -18.5710   -3.7570 C   0  0  0  0  0  0
  -21.4250  -17.9470   -3.9700 O   0  0  0  0  0  0
  -23.2590  -20.6930   -4.8110 C   0  0  0  0  0  0
  -22.9640  -18.7600   -2.5400 N   0  0  0  0  0  0
  -22.2980  -18.2420   -1.3500 C   0  0  2  0  0  0
  -22.7870  -18.9350   -0.0810 C   0  0  0  0  0  0
  -22.3080  -20.0100    0.2690 O   0  0  0  0  0  0
  -22.5020  -16.7350   -1.2390 C   0  0  0  0  0  0
  -23.7510  -18.3190    0.5940 N   0  0  0  0  0  0
  -24.1710  -18.7520    1.9250 C   0  0  2  0  0  0
  -22.9650  -18.8450    2.8520 C   0  0  0  0  0  0
  -22.3530  -17.8280    3.1770 O   0  0  0  0  0  0
  -24.9070  -20.0860    1.8630 C   0  0  0  0  0  0
  -22.5700  -19.9280    3.2840 O   0  5  0  0  0  0
  -22.7297  -17.6483   -6.2452 H   0  0  0  0  0  0
  -23.3412  -19.1570   -7.0045 H   0  0  0  0  0  0
  -21.6897  -19.1119   -6.2992 H   0  0  0  0  0  0
  -24.2927  -18.8009   -4.8793 H   0  0  0  0  0  0
  -23.8355  -21.1139   -5.6479 H   0  0  0  0  0  0
  -23.7173  -20.9995   -3.8592 H   0  0  0  0  0  0
  -22.2242  -21.0633   -4.8557 H   0  0  0  0  0  0
  -23.9039  -19.3233   -2.4430 H   0  0  0  0  0  0
  -21.2331  -18.4739   -1.4989 H   0  0  0  0  0  0
  -22.1460  -16.2481   -2.1589 H   0  0  0  0  0  0
  -21.9356  -16.3508   -0.3779 H   0  0  0  0  0  0
  -23.5716  -16.5190   -1.1002 H   0  0  0  0  0  0
  -24.2377  -17.4552    0.1176 H   0  0  0  0  0  0
  -24.8637  -17.9783    2.2877 H   0  0  0  0  0  0
  -25.7722  -19.9964    1.1897 H   0  0  0  0  0  0
  -25.2531  -20.3609    2.8703 H   0  0  0  0  0  0
  -24.2265  -20.8629    1.4843 H   0  0  0  0  0  0
  1  2  1  0  0  0
  1 17  1  0  0  0
  1 18  1  0  0  0
  1 19  1  0  0  0
  2  3  1  0  0  0
  2  5  1  0  0  0
  2 20  1  0  0  0
  3  4  2  0  0  0
  3  6  1  0  0  0
  5 21  1  0  0  0
  5 22  1  0  0  0
  5 23  1  0  0  0
  6  7  1  0  0  0
  6 24  1  0  0  0
  7  8  1  0  0  0
  7 10  1  0  0  0
  7 25  1  0  0  0
  8  9  2  0  0  0
  8 11  1  0  0  0
 10 26  1  0  0  0
 10 27  1  0  0  0
 10 28  1  0  0  0
 11 12  1  0  0  0
 11 29  1  0  0  0
 12 13  1  0  0  0
 12 15  1  0  0  0
 12 30  1  0  0  0
 13 14  2  0  0  0
 13 16  1  0  0  0
 15 31  1  0  0  0
 15 32  1  0  0  0
 15 33  1  0  0  0
M  CHG  2   1   1  16  -1
M  END
> <s_m_source_file>
../4d2d_ligand.sdf

> <i_m_source_file_index>
1

> <s_epik_input>
W05IMytdW0NAQEhdKFtDSDNdKUMoPU8pW05IXVtDQEBIXShbQ0gzXSlDKD1PKVtOSF1bQ0BASF0oW0NIM10pQyg9TylbT0hd

> <s_epik_cmdline>
J2VwaWtfYXBwJywgJy1pbWFlJywgJ2xpZ2FuZF9wcm8ubWFlJywgJy1vbWFlJywgJ2xpZ2FuZF9wcmVwLm1hZScsICctbXMnLCAnMScsICctcGgnLCAnNycsICctcGh0JywgJzAuNScsICctbnQn

> <r_epik_Ionization_Penalty>
  0.1221

> <r_epik_Ionization_Penalty_Charging>
  0.1221

> <r_epik_Ionization_Penalty_Neutral>
  0.0000

> <r_epik_State_Penalty>
  0.1115

> <r_epik_Charging_Adjusted_Penalty>
0.233601829544968

> <i_epik_Tot_Q>
0

> <i_epik_Tot_abs_Q>
2

$$$$
