4d2p_ligand
                    3D
 Schrodinger Suite 2020-3.
 53 56  0  0  1  0            999 V2000
   -8.1870  -34.0530  -12.7340 C   0  0  0  0  0  0
   -8.5420  -35.0510  -13.6880 O   0  0  0  0  0  0
   -9.1320  -34.6430  -14.8540 C   0  0  0  0  0  0
   -9.3430  -33.3520  -15.3020 C   0  0  0  0  0  0
   -9.9890  -33.1350  -16.5090 C   0  0  0  0  0  0
  -10.1750  -31.8690  -16.9770 O   0  0  0  0  0  0
  -10.4430  -34.2110  -17.2570 C   0  0  0  0  0  0
  -10.2400  -35.5160  -16.8130 C   0  0  0  0  0  0
  -10.7130  -36.5850  -17.6120 N   0  0  0  0  0  0
  -10.3660  -37.9560  -17.7290 C   0  0  0  0  0  0
   -9.2760  -38.5400  -17.0870 C   0  0  0  0  0  0
   -9.0080  -39.8890  -17.2460 C   0  0  0  0  0  0
   -9.8240  -40.6850  -18.0460 C   0  0  0  0  0  0
  -10.9080  -40.1010  -18.6930 C   0  0  0  0  0  0
  -11.1740  -38.7510  -18.5380 C   0  0  0  0  0  0
   -9.5040  -42.1410  -18.2100 C   0  0  0  0  0  0
   -8.4160  -42.5880  -17.8500 O   0  0  0  0  0  0
  -10.4700  -42.9220  -18.7650 N   0  0  0  0  0  0
  -10.3490  -44.2140  -19.3420 C   0  0  0  0  0  0
   -9.1390  -44.8910  -19.4720 C   0  0  0  0  0  0
   -9.0970  -46.1460  -20.0490 C   0  0  0  0  0  0
  -10.2560  -46.7520  -20.5200 C   0  0  0  0  0  0
  -10.1350  -48.1150  -21.1550 C   0  0  0  0  0  0
  -11.4620  -48.6870  -21.6420 C   0  0  0  0  0  0
  -12.3820  -47.5960  -22.0600 N   0  3  0  0  0  0
  -12.7380  -46.7180  -20.9130 C   0  0  0  0  0  0
  -11.4740  -46.0820  -20.3960 C   0  0  0  0  0  0
  -11.5090  -44.8160  -19.8110 C   0  0  0  0  0  0
   -9.5900  -35.7150  -15.5980 C   0  0  0  0  0  0
   -7.7267  -34.5314  -11.8569 H   0  0  0  0  0  0
   -9.0892  -33.5064  -12.4223 H   0  0  0  0  0  0
   -7.4711  -33.3512  -13.1867 H   0  0  0  0  0  0
   -9.0015  -32.5054  -14.7063 H   0  0  0  0  0  0
   -9.8188  -31.0084  -16.3917 H   0  0  0  0  0  0
  -10.9623  -34.0345  -18.1989 H   0  0  0  0  0  0
  -11.5273  -36.4152  -18.3317 H   0  0  0  0  0  0
   -8.6298  -37.9306  -16.4552 H   0  0  0  0  0  0
   -8.1502  -40.3322  -16.7402 H   0  0  0  0  0  0
  -11.5526  -40.7103  -19.3265 H   0  0  0  0  0  0
  -12.0245  -38.3060  -19.0545 H   0  0  0  0  0  0
  -11.5098  -42.5653  -18.8054 H   0  0  0  0  0  0
   -8.2187  -44.4278  -19.1162 H   0  0  0  0  0  0
   -8.1435  -46.6670  -20.1358 H   0  0  0  0  0  0
   -9.4658  -48.0556  -22.0260 H   0  0  0  0  0  0
   -9.7223  -48.8251  -20.4233 H   0  0  0  0  0  0
  -11.2823  -49.3497  -22.5014 H   0  0  0  0  0  0
  -11.9346  -49.2594  -20.8302 H   0  0  0  0  0  0
  -11.8956  -46.9819  -22.8322 H   0  0  0  0  0  0
  -13.3066  -48.0317  -22.4666 H   0  0  0  0  0  0
  -13.4410  -45.9419  -21.2498 H   0  0  0  0  0  0
  -13.2085  -47.3206  -20.1221 H   0  0  0  0  0  0
  -12.4605  -44.2920  -19.7208 H   0  0  0  0  0  0
   -9.4401  -36.7293  -15.2282 H   0  0  0  0  0  0
  1  2  1  0  0  0
  1 30  1  0  0  0
  1 31  1  0  0  0
  1 32  1  0  0  0
  2  3  1  0  0  0
  3  4  2  0  0  0
  3 29  1  0  0  0
  4  5  1  0  0  0
  4 33  1  0  0  0
  5  6  1  0  0  0
  5  7  2  0  0  0
  6 34  1  0  0  0
  7  8  1  0  0  0
  7 35  1  0  0  0
  8  9  1  0  0  0
  8 29  2  0  0  0
  9 10  1  0  0  0
  9 36  1  0  0  0
 10 11  2  0  0  0
 10 15  1  0  0  0
 11 12  1  0  0  0
 11 37  1  0  0  0
 12 13  2  0  0  0
 12 38  1  0  0  0
 13 14  1  0  0  0
 13 16  1  0  0  0
 14 15  2  0  0  0
 14 39  1  0  0  0
 15 40  1  0  0  0
 16 17  2  0  0  0
 16 18  1  0  0  0
 18 19  1  0  0  0
 18 41  1  0  0  0
 19 20  2  0  0  0
 19 28  1  0  0  0
 20 21  1  0  0  0
 20 42  1  0  0  0
 21 22  2  0  0  0
 21 43  1  0  0  0
 22 23  1  0  0  0
 22 27  1  0  0  0
 23 24  1  0  0  0
 23 44  1  0  0  0
 23 45  1  0  0  0
 24 25  1  0  0  0
 24 46  1  0  0  0
 24 47  1  0  0  0
 25 26  1  0  0  0
 25 48  1  0  0  0
 25 49  1  0  0  0
 26 27  1  0  0  0
 26 50  1  0  0  0
 26 51  1  0  0  0
 27 28  2  0  0  0
 28 52  1  0  0  0
 29 53  1  0  0  0
M  CHG  1  25   1
M  END
> <s_m_source_file>
../4d2p_ligand.sdf

> <i_m_source_file_index>
1

> <s_epik_input>
W0NIM11PYzFbY0hdYyhbT0hdKVtjSF1jKFtjSF0xKVtOSF1jMltjSF1bY0hdYyhbY0hdW2NIXTIpQyg9TylbTkhdYyhbY0hdW2NIXTMpW2NIXWMoYzM0KVtDSDJdW05IMitdW0NIMl1bQ0gyXTQ=

> <s_epik_cmdline>
J2VwaWtfYXBwJywgJy1pbWFlJywgJ2xpZ2FuZF9wcm8ubWFlJywgJy1vbWFlJywgJ2xpZ2FuZF9wcmVwLm1hZScsICctbXMnLCAnMScsICctcGgnLCAnNycsICctcGh0JywgJzAuNScsICctbnQn

> <r_epik_Ionization_Penalty>
  0.0125

> <r_epik_Ionization_Penalty_Charging>
  0.0118

> <r_epik_Ionization_Penalty_Neutral>
  0.0007

> <r_epik_State_Penalty>
  0.0091

> <r_epik_Charging_Adjusted_Penalty>
0.0208697790184652

> <i_epik_Tot_Q>
1

> <i_epik_Tot_abs_Q>
1

$$$$
