4d2r_ligand
                    3D
 Schrodinger Suite 2020-3.
 58 62  0  0  1  0            999 V2000
    1.5100   -3.9800   53.1740 C   0  0  0  0  0  0
    2.6870   -3.8130   52.3120 N   0  3  1  0  0  0
    6.2150   -4.7410   52.6610 O   0  0  0  0  0  0
    3.6950   -2.9800   52.9710 C   0  0  0  0  0  0
   10.6190   -2.4560   55.2000 N   0  0  0  0  0  0
    8.3600   -3.0100   56.5320 O   0  0  0  0  0  0
    4.8950   -2.7270   52.0490 C   0  0  0  0  0  0
   12.6720   -1.4290   55.5940 N   0  0  0  0  0  0
    5.4910   -4.0420   51.5790 C   0  0  2  0  0  0
   12.4610   -3.3250   54.1240 N   0  0  0  0  0  0
    4.4360   -4.9590   50.9950 C   0  0  0  0  0  0
   15.7300   -5.4660   51.6780 N   0  0  0  0  0  0
    3.2660   -5.1130   51.9710 C   0  0  0  0  0  0
   12.7640   -7.4830   50.6990 N   0  0  0  0  0  0
    7.3560   -4.1680   53.1860 C   0  0  0  0  0  0
    8.5440   -3.9600   52.4970 C   0  0  0  0  0  0
    9.6250   -3.3810   53.1430 C   0  0  0  0  0  0
    9.5530   -3.0690   54.5000 C   0  0  0  0  0  0
    8.3340   -3.3100   55.1970 C   0  0  0  0  0  0
    7.2550   -3.8830   54.5410 C   0  0  0  0  0  0
    7.2150   -3.3580   57.3240 C   0  0  0  0  0  0
   11.9650   -2.3960   54.9630 C   0  0  0  0  0  0
   13.9870   -1.4190   55.3340 C   0  0  0  0  0  0
   14.6030   -2.3220   54.4860 C   0  0  0  0  0  0
   13.7830   -3.2760   53.8910 C   0  0  0  0  0  0
   14.3220   -4.2770   52.9690 C   0  0  0  0  0  0
   15.6230   -4.4180   52.5540 C   0  0  0  0  0  0
   14.4890   -6.0350   51.4910 C   0  0  0  0  0  0
   13.5640   -5.3210   52.2780 C   0  0  0  0  0  0
   12.2260   -5.7130   52.2580 C   0  0  0  0  0  0
   11.8910   -6.7930   51.4530 C   0  0  0  0  0  0
   14.0500   -7.1070   50.7150 C   0  0  0  0  0  0
    1.0911   -2.9926   53.4179 H   0  0  0  0  0  0
    1.8046   -4.4926   54.1016 H   0  0  0  0  0  0
    0.7526   -4.5799   52.6482 H   0  0  0  0  0  0
    2.3651   -3.3152   51.3854 H   0  0  0  0  0  0
    3.2500   -2.0111   53.2415 H   0  0  0  0  0  0
    4.0517   -3.4863   53.8801 H   0  0  0  0  0  0
   10.4195   -1.8972   56.1263 H   0  0  0  0  0  0
    4.5681   -2.1491   51.1720 H   0  0  0  0  0  0
    5.6641   -2.1610   52.5951 H   0  0  0  0  0  0
    6.2333   -3.8010   50.8038 H   0  0  0  0  0  0
    4.0628   -4.5344   50.0514 H   0  0  0  0  0  0
    4.8760   -5.9487   50.8030 H   0  0  0  0  0  0
    3.6336   -5.6018   52.8853 H   0  0  0  0  0  0
    2.4978   -5.7447   51.5011 H   0  0  0  0  0  0
    8.6260   -4.2516   51.4499 H   0  0  0  0  0  0
   10.5376   -3.1681   52.5863 H   0  0  0  0  0  0
    6.3368   -4.1074   55.0838 H   0  0  0  0  0  0
    7.3855   -3.0554   58.3677 H   0  0  0  0  0  0
    7.0548   -4.4453   57.2789 H   0  0  0  0  0  0
    6.3271   -2.8400   56.9324 H   0  0  0  0  0  0
   14.6031   -0.6598   55.8158 H   0  0  0  0  0  0
   15.6754   -2.2880   54.2938 H   0  0  0  0  0  0
   16.5148   -3.8330   52.8233 H   0  0  0  0  0  0
   11.4736   -5.1924   52.8505 H   0  0  0  0  0  0
   10.8275   -7.0738   51.4590 H   0  0  0  0  0  0
   14.7659   -7.6672   50.0956 H   0  0  0  0  0  0
  1  2  1  0  0  0
  1 33  1  0  0  0
  1 34  1  0  0  0
  1 35  1  0  0  0
  2  4  1  0  0  0
  2 13  1  0  0  0
  2 36  1  0  0  0
  3  9  1  0  0  0
  3 15  1  0  0  0
  4  7  1  0  0  0
  4 37  1  0  0  0
  4 38  1  0  0  0
  5 18  1  0  0  0
  5 22  1  0  0  0
  5 39  1  0  0  0
  6 19  1  0  0  0
  6 21  1  0  0  0
  7  9  1  0  0  0
  7 40  1  0  0  0
  7 41  1  0  0  0
  8 22  2  0  0  0
  8 23  1  0  0  0
  9 11  1  0  0  0
  9 42  1  0  0  0
 10 22  1  0  0  0
 10 25  2  0  0  0
 11 13  1  0  0  0
 11 43  1  0  0  0
 11 44  1  0  0  0
 12 27  2  0  0  0
 12 28  1  0  0  0
 13 45  1  0  0  0
 13 46  1  0  0  0
 14 31  2  0  0  0
 14 32  1  0  0  0
 15 16  2  0  0  0
 15 20  1  0  0  0
 16 17  1  0  0  0
 16 47  1  0  0  0
 17 18  2  0  0  0
 17 48  1  0  0  0
 18 19  1  0  0  0
 19 20  2  0  0  0
 20 49  1  0  0  0
 21 50  1  0  0  0
 21 51  1  0  0  0
 21 52  1  0  0  0
 23 24  2  0  0  0
 23 53  1  0  0  0
 24 25  1  0  0  0
 24 54  1  0  0  0
 25 26  1  0  0  0
 26 27  1  0  0  0
 26 29  2  0  0  0
 27 55  1  0  0  0
 28 29  1  0  0  0
 28 32  2  0  0  0
 29 30  1  0  0  0
 30 31  1  0  0  0
 30 56  1  0  0  0
 31 57  1  0  0  0
 32 58  1  0  0  0
M  CHG  1   2   1
M  END
> <s_m_source_file>
../4d2r_ligand.sdf

> <i_m_source_file_index>
1

> <s_epik_input>
W0NIM11bTkBIK10xW0NIMl1bQ0gyXVtDQEhdKFtDSDJdW0NIMl0xKU9jMltjSF1bY0hdYyhjKFtjSF0yKU9bQ0gzXSlbTkhdYzNuW2NIXVtjSF1jKG4zKUMoW0NIXT1ONCk9QyhDND01KVtDSDJdW0NIXT1OW0NIXTU=

> <s_epik_cmdline>
J2VwaWtfYXBwJywgJy1pbWFlJywgJ2xpZ2FuZF9wcm8ubWFlJywgJy1vbWFlJywgJ2xpZ2FuZF9wcmVwLm1hZScsICctbXMnLCAnMScsICctcGgnLCAnNycsICctcGh0JywgJzAuNScsICctbnQn

> <r_epik_Ionization_Penalty>
  0.0103

> <r_epik_Ionization_Penalty_Charging>
  0.0103

> <r_epik_Ionization_Penalty_Neutral>
  0.0000

> <r_epik_State_Penalty>
  0.0079

> <r_epik_Charging_Adjusted_Penalty>
0.018243965059867

> <i_epik_Tot_Q>
1

> <i_epik_Tot_abs_Q>
1

> <s_epik_Chemistry_Notes>
This compound has an imine and may undergo hydrolysis.

$$$$
