4d2s_ligand
                    3D
 Schrodinger Suite 2020-3.
 58 62  0  0  1  0            999 V2000
   -3.6250   14.3810    1.2300 C   0  0  0  0  0  0
   -3.5830   15.5740    0.3900 N   0  3  1  0  0  0
   -3.7270   19.1780    1.0780 O   0  0  0  0  0  0
   -4.7970   16.3690    0.5630 C   0  0  0  0  0  0
   -6.1420   24.1570    0.3580 N   0  0  0  0  0  0
   -3.4780   23.9600    0.4260 O   0  0  0  0  0  0
   -4.8100   17.5660   -0.3870 C   0  0  0  0  0  0
   -7.7080   25.7100   -0.4360 N   0  0  0  0  0  0
   -3.5740   18.4200   -0.1810 C   0  0  2  0  0  0
   -7.8520   23.3630   -0.9290 N   0  0  0  0  0  0
   -2.3040   17.5950   -0.2340 C   0  0  0  0  0  0
   -9.9230   20.2860   -2.9340 N   0  0  0  0  0  0
   -2.4110   16.3910    0.7080 C   0  0  0  0  0  0
  -13.1200   21.5040   -4.3950 N   0  0  0  0  0  0
   -4.3280   20.4080    0.9070 C   0  0  0  0  0  0
   -5.7160   20.4980    0.8890 C   0  0  0  0  0  0
   -6.3270   21.7270    0.7200 C   0  0  0  0  0  0
   -5.5580   22.8790    0.5390 C   0  0  0  0  0  0
   -4.1460   22.7740    0.5750 C   0  0  0  0  0  0
   -3.5370   21.5420    0.7770 C   0  0  0  0  0  0
   -2.0610   23.9640    0.6140 C   0  0  0  0  0  0
   -7.2740   24.4360   -0.3550 C   0  0  0  0  0  0
   -8.8210   25.8930   -1.1710 C   0  0  0  0  0  0
   -9.4950   24.8620   -1.7990 C   0  0  0  0  0  0
   -8.9610   23.5880   -1.6490 C   0  0  0  0  0  0
   -9.5840   22.4070   -2.2650 C   0  0  0  0  0  0
   -9.0710   21.1330   -2.2780 C   0  0  0  0  0  0
  -11.0250   20.9910   -3.3680 C   0  0  0  0  0  0
  -10.8600   22.3340   -2.9760 C   0  0  0  0  0  0
  -11.8520   23.2520   -3.3100 C   0  0  0  0  0  0
  -12.9500   22.7820   -4.0190 C   0  0  0  0  0  0
  -12.1640   20.6180   -4.0760 C   0  0  0  0  0  0
   -4.5123   13.7834    0.9740 H   0  0  0  0  0  0
   -3.6763   14.6789    2.2877 H   0  0  0  0  0  0
   -2.7181   13.7817    1.0614 H   0  0  0  0  0  0
   -3.5169   15.2443   -0.6573 H   0  0  0  0  0  0
   -5.6776   15.7439    0.3537 H   0  0  0  0  0  0
   -4.8481   16.7399    1.5973 H   0  0  0  0  0  0
   -5.6780   25.0435    0.8151 H   0  0  0  0  0  0
   -4.8283   17.2084   -1.4271 H   0  0  0  0  0  0
   -5.7036   18.1777   -0.1938 H   0  0  0  0  0  0
   -3.4781   19.1624   -0.9870 H   0  0  0  0  0  0
   -2.1438   17.2341   -1.2607 H   0  0  0  0  0  0
   -1.4500   18.2163    0.0736 H   0  0  0  0  0  0
   -2.4904   16.7595    1.7414 H   0  0  0  0  0  0
   -1.5007   15.7822    0.6047 H   0  0  0  0  0  0
   -6.3220   19.5998    1.0081 H   0  0  0  0  0  0
   -7.4147   21.7972    0.7281 H   0  0  0  0  0  0
   -2.4511   21.4662    0.8328 H   0  0  0  0  0  0
   -1.6738   24.9822    0.4613 H   0  0  0  0  0  0
   -1.5931   23.2812   -0.1105 H   0  0  0  0  0  0
   -1.8258   23.6317    1.6359 H   0  0  0  0  0  0
   -9.2106   26.9055   -1.2764 H   0  0  0  0  0  0
  -10.3988   25.0395   -2.3818 H   0  0  0  0  0  0
   -8.1307   20.7489   -1.8556 H   0  0  0  0  0  0
  -11.7700   24.3010   -3.0255 H   0  0  0  0  0  0
  -13.7105   23.5355   -4.2717 H   0  0  0  0  0  0
  -12.2988   19.5723   -4.3897 H   0  0  0  0  0  0
  1  2  1  0  0  0
  1 33  1  0  0  0
  1 34  1  0  0  0
  1 35  1  0  0  0
  2  4  1  0  0  0
  2 13  1  0  0  0
  2 36  1  0  0  0
  3  9  1  0  0  0
  3 15  1  0  0  0
  4  7  1  0  0  0
  4 37  1  0  0  0
  4 38  1  0  0  0
  5 18  1  0  0  0
  5 22  1  0  0  0
  5 39  1  0  0  0
  6 19  1  0  0  0
  6 21  1  0  0  0
  7  9  1  0  0  0
  7 40  1  0  0  0
  7 41  1  0  0  0
  8 22  2  0  0  0
  8 23  1  0  0  0
  9 11  1  0  0  0
  9 42  1  0  0  0
 10 22  1  0  0  0
 10 25  2  0  0  0
 11 13  1  0  0  0
 11 43  1  0  0  0
 11 44  1  0  0  0
 12 27  2  0  0  0
 12 28  1  0  0  0
 13 45  1  0  0  0
 13 46  1  0  0  0
 14 31  2  0  0  0
 14 32  1  0  0  0
 15 16  2  0  0  0
 15 20  1  0  0  0
 16 17  1  0  0  0
 16 47  1  0  0  0
 17 18  2  0  0  0
 17 48  1  0  0  0
 18 19  1  0  0  0
 19 20  2  0  0  0
 20 49  1  0  0  0
 21 50  1  0  0  0
 21 51  1  0  0  0
 21 52  1  0  0  0
 23 24  2  0  0  0
 23 53  1  0  0  0
 24 25  1  0  0  0
 24 54  1  0  0  0
 25 26  1  0  0  0
 26 27  1  0  0  0
 26 29  2  0  0  0
 27 55  1  0  0  0
 28 29  1  0  0  0
 28 32  2  0  0  0
 29 30  1  0  0  0
 30 31  1  0  0  0
 30 56  1  0  0  0
 31 57  1  0  0  0
 32 58  1  0  0  0
M  CHG  1   2   1
M  END
> <s_m_source_file>
../4d2s_ligand.sdf

> <i_m_source_file_index>
1

> <s_epik_input>
W0NIM11bTkBIK10xW0NIMl1bQ0gyXVtDQEhdKFtDSDJdW0NIMl0xKU9jMltjSF1bY0hdYyhjKFtjSF0yKU9bQ0gzXSlbTkhdYzNuW2NIXVtjSF1jKG4zKUMoW0NIXT1ONCk9QyhDND01KVtDSDJdW0NIXT1OW0NIXTU=

> <s_epik_cmdline>
J2VwaWtfYXBwJywgJy1pbWFlJywgJ2xpZ2FuZF9wcm8ubWFlJywgJy1vbWFlJywgJ2xpZ2FuZF9wcmVwLm1hZScsICctbXMnLCAnMScsICctcGgnLCAnNycsICctcGh0JywgJzAuNScsICctbnQn

> <r_epik_Ionization_Penalty>
  0.0103

> <r_epik_Ionization_Penalty_Charging>
  0.0103

> <r_epik_Ionization_Penalty_Neutral>
  0.0000

> <r_epik_State_Penalty>
  0.0079

> <r_epik_Charging_Adjusted_Penalty>
0.018243965059867

> <i_epik_Tot_Q>
1

> <i_epik_Tot_abs_Q>
1

> <s_epik_Chemistry_Notes>
This compound has an imine and may undergo hydrolysis.

$$$$
