4d2t_ligand
                    3D
 Schrodinger Suite 2020-3.
 46 48  0  0  1  0            999 V2000
   -0.2340    2.7800  -11.3690 N   0  3  0  0  0  0
   -0.8290    1.6010  -10.6890 C   0  0  0  0  0  0
   -0.3870    0.2900  -11.3330 C   0  0  0  0  0  0
   -0.7620   -0.9550  -10.5300 C   0  0  0  0  0  0
    0.3750   -1.8240  -10.4100 O   0  0  0  0  0  0
    1.2180   -1.6960   -9.3070 C   0  0  0  0  0  0
    1.5770   -0.4470   -8.8330 C   0  0  0  0  0  0
    2.4170   -0.3000   -7.7360 C   0  0  0  0  0  0
    2.8760   -1.4500   -7.1010 C   0  0  0  0  0  0
    2.5290   -2.7040   -7.5640 C   0  0  0  0  0  0
    1.6940   -2.8520   -8.6720 C   0  0  0  0  0  0
    1.3750   -4.2640   -9.0750 C   0  0  0  0  0  0
    2.0790   -5.1970   -8.6980 O   0  0  0  0  0  0
    0.2800   -4.4550   -9.8530 N   0  0  0  0  0  0
   -0.1280   -5.6640  -10.4650 C   0  0  0  0  0  0
    0.7850   -6.6100  -10.9160 C   0  0  0  0  0  0
    0.3400   -7.7750  -11.5100 C   0  0  0  0  0  0
   -1.0080   -8.0030  -11.6660 C   0  0  0  0  0  0
   -1.9230   -7.0710  -11.2270 C   0  0  0  0  0  0
   -1.4880   -5.9030  -10.6270 C   0  0  0  0  0  0
    2.7550    1.0400   -7.2190 C   0  0  0  0  0  0
    3.2170    1.3520   -5.9640 C   0  0  0  0  0  0
    3.3990    2.6580   -5.8200 N   0  3  0  0  0  0
    3.0380    3.1910   -7.0070 N   0  0  0  0  0  0
    2.6380    2.2510   -7.8700 C   0  0  0  0  0  0
   -0.5777    3.7005  -10.8745 H   0  0  0  0  0  0
   -0.5467    2.7915  -12.4236 H   0  0  0  0  0  0
    0.8630    2.7210  -11.3124 H   0  0  0  0  0  0
   -0.5163    1.5895   -9.6344 H   0  0  0  0  0  0
   -1.9260    1.6600  -10.7455 H   0  0  0  0  0  0
   -0.8565    0.1912  -12.3229 H   0  0  0  0  0  0
    0.7074    0.2868  -11.4443 H   0  0  0  0  0  0
   -1.0965   -0.6564   -9.5255 H   0  0  0  0  0  0
   -1.5743   -1.4911  -11.0426 H   0  0  0  0  0  0
    1.1920    0.4425   -9.3317 H   0  0  0  0  0  0
    3.5188   -1.3597   -6.2254 H   0  0  0  0  0  0
    2.9124   -3.5896   -7.0573 H   0  0  0  0  0  0
   -0.3983   -3.6151  -10.0637 H   0  0  0  0  0  0
    1.8542   -6.4322  -10.8007 H   0  0  0  0  0  0
    1.0596   -8.5167  -11.8566 H   0  0  0  0  0  0
   -1.3528   -8.9230  -12.1380 H   0  0  0  0  0  0
   -2.9901   -7.2542  -11.3526 H   0  0  0  0  0  0
   -2.2139   -5.1676  -10.2801 H   0  0  0  0  0  0
    3.3887    0.5537   -5.2269 H   0  0  0  0  0  0
    2.3038    2.5365   -8.8784 H   0  0  0  0  0  0
    3.7489    3.3115   -5.0073 H   0  0  0  0  0  0
  1  2  1  0  0  0
  1 26  1  0  0  0
  1 27  1  0  0  0
  1 28  1  0  0  0
  2  3  1  0  0  0
  2 29  1  0  0  0
  2 30  1  0  0  0
  3  4  1  0  0  0
  3 31  1  0  0  0
  3 32  1  0  0  0
  4  5  1  0  0  0
  4 33  1  0  0  0
  4 34  1  0  0  0
  5  6  1  0  0  0
  6  7  2  0  0  0
  6 11  1  0  0  0
  7  8  1  0  0  0
  7 35  1  0  0  0
  8  9  2  0  0  0
  8 21  1  0  0  0
  9 10  1  0  0  0
  9 36  1  0  0  0
 10 11  2  0  0  0
 10 37  1  0  0  0
 11 12  1  0  0  0
 12 13  2  0  0  0
 12 14  1  0  0  0
 14 15  1  0  0  0
 14 38  1  0  0  0
 15 16  2  0  0  0
 15 20  1  0  0  0
 16 17  1  0  0  0
 16 39  1  0  0  0
 17 18  2  0  0  0
 17 40  1  0  0  0
 18 19  1  0  0  0
 18 41  1  0  0  0
 19 20  2  0  0  0
 19 42  1  0  0  0
 20 43  1  0  0  0
 21 22  2  0  0  0
 21 25  1  0  0  0
 22 23  1  0  0  0
 22 44  1  0  0  0
 23 24  1  0  0  0
 23 46  1  0  0  0
 24 25  2  0  0  0
 25 45  1  0  0  0
M  CHG  2   1   1  23   1
M  END
> <s_m_source_file>
../4d2t_ligand.sdf

> <i_m_source_file_index>
1

> <s_epik_input>
W05IMytdW0NIMl1bQ0gyXVtDSDJdT2MxW2NIXWMoLWMyW2NIXVtuSF1uW2NIXTIpW2NIXVtjSF1jMUMoPU8pW05IXWMzW2NIXVtjSF1bY0hdW2NIXVtjSF0z

> <s_epik_cmdline>
J2VwaWtfYXBwJywgJy1pbWFlJywgJ2xpZ2FuZF9wcm8ubWFlJywgJy1vbWFlJywgJ2xpZ2FuZF9wcmVwLm1hZScsICctbXMnLCAnMScsICctcGgnLCAnNycsICctcGh0JywgJzAuNScsICctbnQn

> <r_epik_Ionization_Penalty>
  0.0013

> <r_epik_Ionization_Penalty_Charging>
  0.0013

> <r_epik_Ionization_Penalty_Neutral>
  0.0000

> <r_epik_State_Penalty>
  0.4107

> <r_epik_Charging_Adjusted_Penalty>
0.411969140367996

> <i_epik_Tot_Q>
2

> <i_epik_Tot_abs_Q>
2

> <s_epik_Chemistry_Notes>
This compound has an imine and may undergo hydrolysis.

$$$$
