4d2v_ligand
                    3D
 Schrodinger Suite 2020-3.
 50 53  0  0  1  0            999 V2000
  -12.4890  -40.7660  -20.9420 C   0  0  0  0  0  0
  -11.6200  -40.6800  -19.8160 O   0  0  0  0  0  0
  -10.8020  -41.7450  -19.5420 C   0  0  0  0  0  0
  -10.9400  -43.0060  -20.1150 C   0  0  0  0  0  0
  -10.0790  -44.0490  -19.7900 C   0  0  0  0  0  0
   -9.0740  -43.8060  -18.8580 C   0  0  0  0  0  0
   -8.9230  -42.5660  -18.2760 C   0  0  0  0  0  0
   -9.7680  -41.5060  -18.6070 C   0  0  0  0  0  0
   -9.4670  -40.2170  -17.8840 C   0  0  0  0  0  0
   -8.7180  -40.1900  -16.9110 O   0  0  0  0  0  0
  -10.0500  -39.1000  -18.3580 N   0  0  0  0  0  0
  -10.1970  -37.8410  -17.7410 C   0  0  0  0  0  0
   -9.4030  -37.3130  -16.7370 C   0  0  0  0  0  0
   -9.6530  -36.0410  -16.2480 C   0  0  0  0  0  0
  -10.6920  -35.2670  -16.7650 C   0  0  0  0  0  0
  -10.9400  -33.9060  -16.1610 C   0  0  0  0  0  0
  -10.9580  -32.7050  -17.0930 C   0  0  0  0  0  0
  -12.1640  -32.6220  -17.9710 N   0  3  0  0  0  0
  -12.3390  -33.7130  -18.9790 C   0  0  0  0  0  0
  -12.6830  -35.0610  -18.3600 C   0  0  0  0  0  0
  -11.5080  -35.8030  -17.7700 C   0  0  0  0  0  0
  -11.2390  -37.0810  -18.2510 C   0  0  0  0  0  0
  -10.2540  -45.3950  -20.3750 C   0  0  0  0  0  0
  -11.3150  -45.8600  -21.1480 C   0  0  0  0  0  0
  -11.1420  -47.1340  -21.4850 N   0  3  0  0  0  0
   -9.9700  -47.4930  -20.9150 N   0  0  0  0  0  0
   -9.4110  -46.4820  -20.2420 C   0  0  0  0  0  0
  -13.0746  -39.8385  -21.0249 H   0  0  0  0  0  0
  -13.1707  -41.6199  -20.8147 H   0  0  0  0  0  0
  -11.8926  -40.9060  -21.8556 H   0  0  0  0  0  0
  -11.7404  -43.1800  -20.8342 H   0  0  0  0  0  0
   -8.3935  -44.6119  -18.5833 H   0  0  0  0  0  0
   -8.1299  -42.4106  -17.5446 H   0  0  0  0  0  0
  -10.4965  -39.0968  -19.3633 H   0  0  0  0  0  0
   -8.5792  -37.8996  -16.3303 H   0  0  0  0  0  0
   -9.0297  -35.6398  -15.4489 H   0  0  0  0  0  0
  -11.9220  -33.8982  -15.6654 H   0  0  0  0  0  0
  -10.1551  -33.6837  -15.4231 H   0  0  0  0  0  0
  -10.9298  -31.7796  -16.4991 H   0  0  0  0  0  0
  -10.0810  -32.7421  -17.7559 H   0  0  0  0  0  0
  -13.0717  -32.6415  -17.3500 H   0  0  0  0  0  0
  -12.1342  -31.6856  -18.5474 H   0  0  0  0  0  0
  -13.1551  -33.4486  -19.6676 H   0  0  0  0  0  0
  -11.4060  -33.8399  -19.5477 H   0  0  0  0  0  0
  -13.4086  -34.9162  -17.5460 H   0  0  0  0  0  0
  -13.1195  -35.7165  -19.1280 H   0  0  0  0  0  0
  -11.8607  -37.4935  -19.0457 H   0  0  0  0  0  0
  -12.1485  -45.1876  -21.3993 H   0  0  0  0  0  0
   -8.4523  -46.6300  -19.7233 H   0  0  0  0  0  0
  -11.7133  -47.8654  -22.0755 H   0  0  0  0  0  0
  1  2  1  0  0  0
  1 28  1  0  0  0
  1 29  1  0  0  0
  1 30  1  0  0  0
  2  3  1  0  0  0
  3  4  2  0  0  0
  3  8  1  0  0  0
  4  5  1  0  0  0
  4 31  1  0  0  0
  5  6  2  0  0  0
  5 23  1  0  0  0
  6  7  1  0  0  0
  6 32  1  0  0  0
  7  8  2  0  0  0
  7 33  1  0  0  0
  8  9  1  0  0  0
  9 10  2  0  0  0
  9 11  1  0  0  0
 11 12  1  0  0  0
 11 34  1  0  0  0
 12 13  2  0  0  0
 12 22  1  0  0  0
 13 14  1  0  0  0
 13 35  1  0  0  0
 14 15  2  0  0  0
 14 36  1  0  0  0
 15 16  1  0  0  0
 15 21  1  0  0  0
 16 17  1  0  0  0
 16 37  1  0  0  0
 16 38  1  0  0  0
 17 18  1  0  0  0
 17 39  1  0  0  0
 17 40  1  0  0  0
 18 19  1  0  0  0
 18 41  1  0  0  0
 18 42  1  0  0  0
 19 20  1  0  0  0
 19 43  1  0  0  0
 19 44  1  0  0  0
 20 21  1  0  0  0
 20 45  1  0  0  0
 20 46  1  0  0  0
 21 22  2  0  0  0
 22 47  1  0  0  0
 23 24  2  0  0  0
 23 27  1  0  0  0
 24 25  1  0  0  0
 24 48  1  0  0  0
 25 26  1  0  0  0
 25 50  1  0  0  0
 26 27  2  0  0  0
 27 49  1  0  0  0
M  CHG  2  18   1  25   1
M  END
> <s_m_source_file>
../4d2v_ligand.sdf

> <i_m_source_file_index>
1

> <s_epik_input>
W2NIXTFuW25IXVtjSF1jMS1jKFtjSF1jMk9bQ0gzXSlbY0hdW2NIXWMyQyg9TylbTkhdYyhbY0hdW2NIXTMpW2NIXWMoYzM0KVtDSDJdW0NIMl1bTkgyK11bQ0gyXVtDSDJdNA==

> <s_epik_cmdline>
J2VwaWtfYXBwJywgJy1pbWFlJywgJ2xpZ2FuZF9wcm8ubWFlJywgJy1vbWFlJywgJ2xpZ2FuZF9wcmVwLm1hZScsICctbXMnLCAnMScsICctcGgnLCAnNycsICctcGh0JywgJzAuNScsICctbnQn

> <r_epik_Ionization_Penalty>
  0.0021

> <r_epik_Ionization_Penalty_Charging>
  0.0021

> <r_epik_Ionization_Penalty_Neutral>
  0.0000

> <r_epik_State_Penalty>
  0.4107

> <r_epik_Charging_Adjusted_Penalty>
0.412801617498433

> <i_epik_Tot_Q>
2

> <i_epik_Tot_abs_Q>
2

> <s_epik_Chemistry_Notes>
This compound has an imine and may undergo hydrolysis.

$$$$
