4d2w_ligand
                    3D
 Schrodinger Suite 2020-3.
 39 41  0  0  1  0            999 V2000
    1.6220    0.0700   -8.4270 Br  0  0  0  0  0  0
    1.0170   -1.5960   -9.0700 C   0  0  0  0  0  0
    1.4830   -2.7610   -8.4670 C   0  0  0  0  0  0
    1.0160   -3.9750   -8.9320 C   0  0  0  0  0  0
    0.1130   -4.0300   -9.9860 C   0  0  0  0  0  0
   -0.3500   -2.8530  -10.5760 C   0  0  0  0  0  0
    0.1100   -1.6330  -10.1250 C   0  0  0  0  0  0
   -0.3810   -5.3570  -10.4510 C   0  0  0  0  0  0
    0.3090   -6.3640  -10.3630 O   0  0  0  0  0  0
   -1.6330   -5.3450  -10.9490 N   0  0  0  0  0  0
   -2.3440   -6.3240  -11.6700 C   0  0  0  0  0  0
   -1.7840   -7.4640  -12.2340 C   0  0  0  0  0  0
   -2.5800   -8.3440  -12.9400 C   0  0  0  0  0  0
   -3.9450   -8.1030  -13.1000 C   0  0  0  0  0  0
   -4.7700   -9.0990  -13.8790 C   0  0  0  0  0  0
   -5.9060   -9.7170  -13.0780 C   0  0  0  0  0  0
   -7.0860   -8.8640  -12.9020 N   0  3  0  0  0  0
   -6.8890   -7.6890  -12.0490 C   0  0  0  0  0  0
   -5.9830   -6.6170  -12.6450 C   0  0  0  0  0  0
   -4.5150   -6.9570  -12.5270 C   0  0  0  0  0  0
   -3.6990   -6.0800  -11.8270 C   0  0  0  0  0  0
    2.1997   -2.7163   -7.6470 H   0  0  0  0  0  0
    1.3596   -4.8991   -8.4671 H   0  0  0  0  0  0
   -1.0728   -2.8975  -11.3906 H   0  0  0  0  0  0
   -0.2330   -0.7086  -10.5897 H   0  0  0  0  0  0
   -2.2710   -4.4595  -10.8119 H   0  0  0  0  0  0
   -0.7185   -7.6631  -12.1193 H   0  0  0  0  0  0
   -2.1365   -9.2382  -13.3779 H   0  0  0  0  0  0
   -5.2192   -8.6008  -14.7508 H   0  0  0  0  0  0
   -4.1253   -9.9227  -14.2193 H   0  0  0  0  0  0
   -6.2542  -10.6312  -13.5809 H   0  0  0  0  0  0
   -5.5488   -9.9674  -12.0682 H   0  0  0  0  0  0
   -7.4149   -8.4865  -13.8814 H   0  0  0  0  0  0
   -7.8966   -9.4495  -12.4437 H   0  0  0  0  0  0
   -7.8604   -7.2121  -11.8518 H   0  0  0  0  0  0
   -6.4329   -7.9991  -11.0973 H   0  0  0  0  0  0
   -6.2140   -6.4942  -13.7134 H   0  0  0  0  0  0
   -6.1496   -5.6638  -12.1219 H   0  0  0  0  0  0
   -4.1330   -5.1800  -11.3913 H   0  0  0  0  0  0
  1  2  1  0  0  0
  2  3  2  0  0  0
  2  7  1  0  0  0
  3  4  1  0  0  0
  3 22  1  0  0  0
  4  5  2  0  0  0
  4 23  1  0  0  0
  5  6  1  0  0  0
  5  8  1  0  0  0
  6  7  2  0  0  0
  6 24  1  0  0  0
  7 25  1  0  0  0
  8  9  2  0  0  0
  8 10  1  0  0  0
 10 11  1  0  0  0
 10 26  1  0  0  0
 11 12  2  0  0  0
 11 21  1  0  0  0
 12 13  1  0  0  0
 12 27  1  0  0  0
 13 14  2  0  0  0
 13 28  1  0  0  0
 14 15  1  0  0  0
 14 20  1  0  0  0
 15 16  1  0  0  0
 15 29  1  0  0  0
 15 30  1  0  0  0
 16 17  1  0  0  0
 16 31  1  0  0  0
 16 32  1  0  0  0
 17 18  1  0  0  0
 17 33  1  0  0  0
 17 34  1  0  0  0
 18 19  1  0  0  0
 18 35  1  0  0  0
 18 36  1  0  0  0
 19 20  1  0  0  0
 19 37  1  0  0  0
 19 38  1  0  0  0
 20 21  2  0  0  0
 21 39  1  0  0  0
M  CHG  1  17   1
M  END
> <s_m_source_file>
../4d2w_ligand.sdf

> <i_m_source_file_index>
1

> <s_epik_input>
QnJjMVtjSF1bY0hdYyhbY0hdW2NIXTEpQyg9TylbTkhdYyhbY0hdW2NIXTIpW2NIXWMoYzIzKVtDSDJdW0NIMl1bTkgyK11bQ0gyXVtDSDJdMw==

> <s_epik_cmdline>
J2VwaWtfYXBwJywgJy1pbWFlJywgJ2xpZ2FuZF9wcm8ubWFlJywgJy1vbWFlJywgJ2xpZ2FuZF9wcmVwLm1hZScsICctbXMnLCAnMScsICctcGgnLCAnNycsICctcGh0JywgJzAuNScsICctbnQn

> <r_lp_tautomer_probability>
1

> <r_epik_Ionization_Penalty>
  0.0021

> <r_epik_Ionization_Penalty_Charging>
  0.0021

> <r_epik_Ionization_Penalty_Neutral>
  0.0000

> <r_epik_State_Penalty>
 -0.0000

> <r_epik_Charging_Adjusted_Penalty>
0.00212177854582909

> <i_epik_Tot_Q>
1

> <i_epik_Tot_abs_Q>
1

$$$$
