4d3h_ligand
                    3D
 Schrodinger Suite 2020-3.
 66 72  0  0  1  0            999 V2000
   -8.6740   -7.6270   -9.5220 P   0  0  1  0  0  0
   -7.8660   -8.4380   -8.5460 O   0  5  0  0  0  0
   -8.5830   -6.1760   -9.7150 O   0  0  0  0  0  0
   -8.1640   -8.2510  -10.9730 O   0  0  0  0  0  0
   -8.4350   -7.5750  -12.2030 C   0  0  0  0  0  0
   -7.8470   -8.4650  -13.3070 C   0  0  1  0  0  0
   -6.4110   -8.4720  -13.1270 O   0  0  0  0  0  0
   -8.2110   -9.9330  -13.2410 C   0  0  1  0  0  0
   -9.4360  -10.3220  -13.8800 O   0  0  0  0  0  0
   -6.9920  -10.6000  -13.8320 C   0  0  1  0  0  0
   -7.0400  -10.6410  -15.2680 O   0  0  0  0  0  0
   -5.8410   -9.7280  -13.4090 C   0  0  2  0  0  0
   -5.0680  -10.2110  -12.2020 N   0  0  0  0  0  0
   -5.2540   -9.8470  -10.8760 C   0  0  0  0  0  0
   -4.3550  -10.4400  -10.0480 N   0  0  0  0  0  0
   -3.6010  -11.2030  -10.8770 C   0  0  0  0  0  0
   -2.5000  -12.1310  -10.6650 C   0  0  0  0  0  0
   -2.0310  -12.3240   -9.4380 N   0  0  0  0  0  0
   -1.9730  -12.7500  -11.7450 N   0  0  0  0  0  0
   -2.4590  -12.5860  -12.9790 C   0  0  0  0  0  0
   -3.4740  -11.7790  -13.2530 N   0  0  0  0  0  0
   -4.0810  -11.0920  -12.2430 C   0  0  0  0  0  0
  -10.3120  -11.5040  -13.2780 P   0  0  2  0  0  0
   -9.5060  -12.7830  -13.0940 O   0  5  0  0  0  0
  -11.4380  -11.6380  -14.2240 O   0  0  0  0  0  0
  -10.6840  -10.9230  -11.8010 O   0  0  0  0  0  0
  -11.5540   -9.8000  -11.6600 C   0  0  0  0  0  0
  -11.8580   -9.5300  -10.2050 C   0  0  1  0  0  0
  -12.5020  -10.7040   -9.6760 O   0  0  0  0  0  0
  -10.6220   -9.3750   -9.3460 C   0  0  1  0  0  0
  -10.2070   -8.0590   -9.4850 O   0  0  0  0  0  0
  -11.1410   -9.7290   -7.9690 C   0  0  1  0  0  0
  -11.8060   -8.5990   -7.3300 O   0  0  0  0  0  0
  -12.1430  -10.8260   -8.2880 C   0  0  2  0  0  0
  -11.6240  -12.2080   -8.1860 N   0  0  0  0  0  0
  -10.7810  -12.8180   -9.0560 C   0  0  0  0  0  0
  -10.5030  -14.0960   -8.6860 N   0  0  0  0  0  0
  -11.1830  -14.3080   -7.5750 C   0  0  0  0  0  0
  -11.3520  -15.4460   -6.6350 C   0  0  0  0  0  0
  -10.7300  -16.6180   -6.8420 N   0  0  0  0  0  0
  -12.1310  -15.2420   -5.5580 N   0  0  0  0  0  0
  -12.7850  -14.0850   -5.3250 C   0  0  0  0  0  0
  -12.6950  -13.0260   -6.1450 N   0  0  0  0  0  0
  -11.9220  -13.0730   -7.2560 C   0  0  0  0  0  0
   -9.5217   -7.4547  -12.3236 H   0  0  0  0  0  0
   -7.9557   -6.5850  -12.1906 H   0  0  0  0  0  0
   -8.1907   -8.0495  -14.2658 H   0  0  0  0  0  0
   -8.4910  -10.2553  -12.2272 H   0  0  0  0  0  0
   -6.9102  -11.6559  -13.5346 H   0  0  0  0  0  0
   -7.8175  -11.2307  -15.7757 H   0  0  0  0  0  0
   -5.1118   -9.6518  -14.2290 H   0  0  0  0  0  0
   -6.0325   -9.1634  -10.5374 H   0  0  0  0  0  0
   -2.4886  -11.8005   -8.5856 H   0  0  0  0  0  0
   -1.1848  -13.0074   -9.2738 H   0  0  0  0  0  0
   -1.9999  -13.1410  -13.7971 H   0  0  0  0  0  0
  -11.0751   -8.9087  -12.0916 H   0  0  0  0  0  0
  -12.4989   -9.9998  -12.1866 H   0  0  0  0  0  0
  -12.4853   -8.6276  -10.1581 H   0  0  0  0  0  0
   -9.7062   -9.9265   -9.6050 H   0  0  0  0  0  0
  -10.3556   -9.9938   -7.2458 H   0  0  0  0  0  0
  -11.2234   -7.7149   -7.0318 H   0  0  0  0  0  0
  -12.9836  -10.7081   -7.5884 H   0  0  0  0  0  0
  -10.3743  -12.3396   -9.9470 H   0  0  0  0  0  0
  -10.0988  -16.7560   -7.7323 H   0  0  0  0  0  0
  -10.8517  -17.4400   -6.1213 H   0  0  0  0  0  0
  -13.4110  -14.0072   -4.4361 H   0  0  0  0  0  0
  1  2  1  0  0  0
  1  3  2  0  0  0
  1  4  1  0  0  0
  1 31  1  0  0  0
  4  5  1  0  0  0
  5  6  1  0  0  0
  5 45  1  0  0  0
  5 46  1  0  0  0
  6  7  1  0  0  0
  6  8  1  0  0  0
  6 47  1  0  0  0
  7 12  1  0  0  0
  8  9  1  0  0  0
  8 10  1  0  0  0
  8 48  1  0  0  0
  9 23  1  0  0  0
 10 11  1  0  0  0
 10 12  1  0  0  0
 10 49  1  0  0  0
 11 50  1  0  0  0
 12 13  1  0  0  0
 12 51  1  0  0  0
 13 14  1  0  0  0
 13 22  1  0  0  0
 14 15  2  0  0  0
 14 52  1  0  0  0
 15 16  1  0  0  0
 16 17  2  0  0  0
 16 22  1  0  0  0
 17 18  1  0  0  0
 17 19  1  0  0  0
 18 53  1  0  0  0
 18 54  1  0  0  0
 19 20  2  0  0  0
 20 21  1  0  0  0
 20 55  1  0  0  0
 21 22  2  0  0  0
 23 24  1  0  0  0
 23 25  2  0  0  0
 23 26  1  0  0  0
 26 27  1  0  0  0
 27 28  1  0  0  0
 27 56  1  0  0  0
 27 57  1  0  0  0
 28 29  1  0  0  0
 28 30  1  0  0  0
 28 58  1  0  0  0
 29 34  1  0  0  0
 30 31  1  0  0  0
 30 32  1  0  0  0
 30 59  1  0  0  0
 32 33  1  0  0  0
 32 34  1  0  0  0
 32 60  1  0  0  0
 33 61  1  0  0  0
 34 35  1  0  0  0
 34 62  1  0  0  0
 35 36  1  0  0  0
 35 44  1  0  0  0
 36 37  2  0  0  0
 36 63  1  0  0  0
 37 38  1  0  0  0
 38 39  2  0  0  0
 38 44  1  0  0  0
 39 40  1  0  0  0
 39 41  1  0  0  0
 40 64  1  0  0  0
 40 65  1  0  0  0
 41 42  2  0  0  0
 42 43  1  0  0  0
 42 66  1  0  0  0
 43 44  2  0  0  0
M  CHG  2   2  -1  24  -1
M  END
> <s_m_source_file>
../4d3h_ligand.sdf

> <i_m_source_file_index>
1

> <s_epik_input>
W05IMl1jMW5bY0hdbmMoYzEyKW4oW2NIXW4yKVtDQEhdKE8zKVtDQEhdKFtPSF0pW0NASF0oT1tQQEBdKD1PKShbT0hdKU9bQ0gyXTQpW0NASF0zW0NIMl1PW1BAXSg9TykoW09IXSlPW0NASF0oW0NAQEhdNDUpW0NAQEhdKFtPSF0pW0NAQEhdKE81KW4oW2NIXW42KWMoYzY3KW5bY0hdbmM3W05IMl0=

> <s_epik_cmdline>
J2VwaWtfYXBwJywgJy1pbWFlJywgJ2xpZ2FuZF9wcm8ubWFlJywgJy1vbWFlJywgJ2xpZ2FuZF9wcmVwLm1hZScsICctbXMnLCAnMScsICctcGgnLCAnNycsICctcGh0JywgJzAuNScsICctbnQn

> <r_lp_tautomer_probability>
1

> <r_epik_Ionization_Penalty>
  0.0014

> <r_epik_Ionization_Penalty_Charging>
  0.0004

> <r_epik_Ionization_Penalty_Neutral>
  0.0010

> <r_epik_State_Penalty>
 -0.0000

> <r_epik_Charging_Adjusted_Penalty>
0.000413092635651292

> <i_epik_Tot_Q>
-2

> <i_epik_Tot_abs_Q>
2

> <s_epik_Chemistry_Notes>
This compound contains an acetal/aminal-like group ( X-CH(R)-Y where X, Y are N, S, or O) that may be acid/base labile, releasing an aldehyde.

$$$$
