4d4d_ligand
                    3D
 Schrodinger Suite 2020-3.
 45 46  0  0  1  0            999 V2000
    2.5750  -14.3460    7.8460 O   0  0  0  0  0  0
    2.2000  -13.2670    8.6720 C   0  0  1  0  0  0
    1.1920  -13.7120    9.7460 C   0  0  2  0  0  0
   -0.1710  -13.4810    9.3230 O   0  0  0  0  0  0
    1.4620  -13.0420   11.1020 C   0  0  0  0  0  0
    1.8910  -11.6600   11.0060 N   0  3  0  0  0  0
    3.0440  -11.3860   10.1340 C   0  0  0  0  0  0
    3.4510  -12.6030    9.2900 C   0  0  2  0  0  0
    4.4140  -12.1910    8.2280 C   0  0  0  0  0  0
    3.7290  -11.4330    7.2410 O   0  0  0  0  0  0
    4.5610  -10.9180    6.1960 C   0  0  2  0  0  0
    3.5840  -10.2460    5.2290 C   0  0  2  0  0  0
    2.6710  -11.2890    4.5720 C   0  0  2  0  0  0
    3.5040  -12.4100    3.9530 C   0  0  1  0  0  0
    4.5510  -12.9650    4.9460 C   0  0  1  0  0  0
    5.4960  -13.9560    4.3020 C   0  0  0  0  0  0
    4.3070   -9.5570    4.2050 O   0  0  0  0  0  0
    1.7400  -10.7180    3.6670 O   0  0  0  0  0  0
    2.7180  -13.4670    3.4310 O   0  0  0  0  0  0
    5.3000  -11.9070    5.5380 O   0  0  0  0  0  0
    6.2080  -13.3900    3.2490 O   0  0  0  0  0  0
    1.8047  -14.9330    7.3245 H   0  0  0  0  0  0
    1.7031  -12.5755    7.9757 H   0  0  0  0  0  0
    1.2610  -14.8039    9.8604 H   0  0  0  0  0  0
   -0.5283  -13.8950    8.3686 H   0  0  0  0  0  0
    0.5429  -13.0538   11.7063 H   0  0  0  0  0  0
    2.2554  -13.5907   11.6306 H   0  0  0  0  0  0
    1.0666  -11.0466   10.6133 H   0  0  0  0  0  0
    2.1769  -11.2947   12.0034 H   0  0  0  0  0  0
    2.7955  -10.5657    9.4446 H   0  0  0  0  0  0
    3.9091  -11.0983   10.7495 H   0  0  0  0  0  0
    3.9769  -13.3332    9.9226 H   0  0  0  0  0  0
    5.2119  -11.5791    8.6740 H   0  0  0  0  0  0
    4.8541  -13.0864    7.7647 H   0  0  0  0  0  0
    5.3594  -10.2972    6.6288 H   0  0  0  0  0  0
    2.9979   -9.4819    5.7607 H   0  0  0  0  0  0
    1.9750  -11.7100    5.3124 H   0  0  0  0  0  0
    3.9788  -12.0025    3.0483 H   0  0  0  0  0  0
    4.0343  -13.4617    5.7805 H   0  0  0  0  0  0
    6.2178  -14.3142    5.0508 H   0  0  0  0  0  0
    4.9219  -14.8081    3.9091 H   0  0  0  0  0  0
    5.0202   -8.7639    4.4739 H   0  0  0  0  0  0
    1.0823   -9.9005    3.9974 H   0  0  0  0  0  0
    1.9196  -13.2522    2.7054 H   0  0  0  0  0  0
    6.9339  -13.9962    2.6872 H   0  0  0  0  0  0
  1  2  1  0  0  0
  1 22  1  0  0  0
  2  3  1  0  0  0
  2  8  1  0  0  0
  2 23  1  0  0  0
  3  4  1  0  0  0
  3  5  1  0  0  0
  3 24  1  0  0  0
  4 25  1  0  0  0
  5  6  1  0  0  0
  5 26  1  0  0  0
  5 27  1  0  0  0
  6  7  1  0  0  0
  6 28  1  0  0  0
  6 29  1  0  0  0
  7  8  1  0  0  0
  7 30  1  0  0  0
  7 31  1  0  0  0
  8  9  1  0  0  0
  8 32  1  0  0  0
  9 10  1  0  0  0
  9 33  1  0  0  0
  9 34  1  0  0  0
 10 11  1  0  0  0
 11 12  1  0  0  0
 11 20  1  0  0  0
 11 35  1  0  0  0
 12 13  1  0  0  0
 12 17  1  0  0  0
 12 36  1  0  0  0
 13 14  1  0  0  0
 13 18  1  0  0  0
 13 37  1  0  0  0
 14 15  1  0  0  0
 14 19  1  0  0  0
 14 38  1  0  0  0
 15 16  1  0  0  0
 15 20  1  0  0  0
 15 39  1  0  0  0
 16 21  1  0  0  0
 16 40  1  0  0  0
 16 41  1  0  0  0
 17 42  1  0  0  0
 18 43  1  0  0  0
 19 44  1  0  0  0
 21 45  1  0  0  0
M  CHG  1   6   1
M  END
> <s_m_source_file>
../4d4d_ligand.sdf

> <i_m_source_file_index>
1

> <s_epik_input>
W09IXVtDQEhdMVtDQEhdKFtPSF0pW0NIMl1bTkgyK11bQ0gyXVtDQEBIXTFbQ0gyXU9bQ0BASF0yW0NAQEhdKFtPSF0pW0NAQEhdKFtPSF0pW0NASF0oW09IXSlbQ0BIXShPMilbQ0gyXVtPSF0=

> <s_epik_cmdline>
J2VwaWtfYXBwJywgJy1pbWFlJywgJ2xpZ2FuZF9wcm8ubWFlJywgJy1vbWFlJywgJ2xpZ2FuZF9wcmVwLm1hZScsICctbXMnLCAnMScsICctcGgnLCAnNycsICctcGh0JywgJzAuNScsICctbnQn

> <r_lp_tautomer_probability>
1

> <r_epik_Ionization_Penalty>
  0.0059

> <r_epik_Ionization_Penalty_Charging>
  0.0059

> <r_epik_Ionization_Penalty_Neutral>
  0.0000

> <r_epik_State_Penalty>
 -0.0000

> <r_epik_Charging_Adjusted_Penalty>
0.00588311445979507

> <i_epik_Tot_Q>
1

> <i_epik_Tot_abs_Q>
1

> <s_epik_Chemistry_Notes>
This compound contains an acetal/aminal-like group ( X-CH(R)-Y where X, Y are N, S, or O) that may be acid/base labile, releasing an aldehyde.

$$$$
