4d62_ligand
                    3D
 Schrodinger Suite 2020-3.
 39 39  0  0  1  0            999 V2000
   47.4450   12.0130   31.7510 C   0  0  0  0  0  0
   46.8400   12.0380   33.1780 C   0  0  2  0  0  0
   46.3850   13.4660   33.5370 C   0  0  0  0  0  0
   45.1110   13.8400   32.7630 C   0  0  1  0  0  0
   44.0670   12.7520   33.0320 C   0  0  2  0  0  0
   44.5890   11.3970   32.4930 C   0  0  2  0  0  0
   43.6720   10.1830   32.6870 C   0  0  1  0  0  0
   44.3710    8.7850   32.7830 C   0  0  1  0  0  0
   44.2840    8.1430   34.1860 C   0  0  0  0  0  0
   41.6760   13.3160   33.2240 C   0  0  0  0  0  0
   40.4340   13.8940   32.5950 C   0  0  0  0  0  0
   42.7960   13.2220   32.4870 N   0  0  0  0  0  0
   47.7020   13.0870   31.1410 O   0  5  0  0  0  0
   47.6590   10.9070   31.1840 O   0  0  0  0  0  0
   47.6830   11.5070   34.2460 O   0  0  0  0  0  0
   44.5840   15.1550   33.0890 O   0  0  0  0  0  0
   45.7660   11.1030   33.2290 O   0  0  0  0  0  0
   42.9410   10.4760   33.8830 O   0  0  0  0  0  0
   43.8330    7.8220   31.8460 O   0  0  0  0  0  0
   45.4120    7.2900   34.4600 O   0  0  0  0  0  0
   41.6410   12.9420   34.3780 O   0  0  0  0  0  0
   46.1761   13.5240   34.6154 H   0  0  0  0  0  0
   47.1808   14.1802   33.2788 H   0  0  0  0  0  0
   45.3429   13.9548   31.6939 H   0  0  0  0  0  0
   43.8351   12.5925   34.0954 H   0  0  0  0  0  0
   44.7811   11.5092   31.4157 H   0  0  0  0  0  0
   42.9838   10.0982   31.8331 H   0  0  0  0  0  0
   45.4186    8.9488   32.4902 H   0  0  0  0  0  0
   44.2578    8.9339   34.9501 H   0  0  0  0  0  0
   43.3694    7.5358   34.2553 H   0  0  0  0  0  0
   40.6481   14.1773   31.5539 H   0  0  0  0  0  0
   40.1172   14.7835   33.1593 H   0  0  0  0  0  0
   39.6305   13.1430   32.6129 H   0  0  0  0  0  0
   42.7267   13.5179   31.4298 H   0  0  0  0  0  0
   48.6341   12.0013   34.4932 H   0  0  0  0  0  0
   45.2111   16.0483   32.9519 H   0  0  0  0  0  0
   42.3918   11.4248   33.9734 H   0  0  0  0  0  0
   43.7921    8.0620   30.7733 H   0  0  0  0  0  0
   45.4835    6.7654   35.4242 H   0  0  0  0  0  0
  1  2  1  0  0  0
  1 13  1  0  0  0
  1 14  2  0  0  0
  2  3  1  0  0  0
  2 15  1  0  0  0
  2 17  1  0  0  0
  3  4  1  0  0  0
  3 22  1  0  0  0
  3 23  1  0  0  0
  4  5  1  0  0  0
  4 16  1  0  0  0
  4 24  1  0  0  0
  5  6  1  0  0  0
  5 12  1  0  0  0
  5 25  1  0  0  0
  6  7  1  0  0  0
  6 17  1  0  0  0
  6 26  1  0  0  0
  7  8  1  0  0  0
  7 18  1  0  0  0
  7 27  1  0  0  0
  8  9  1  0  0  0
  8 19  1  0  0  0
  8 28  1  0  0  0
  9 20  1  0  0  0
  9 29  1  0  0  0
  9 30  1  0  0  0
 10 11  1  0  0  0
 10 12  1  0  0  0
 10 21  2  0  0  0
 11 31  1  0  0  0
 11 32  1  0  0  0
 11 33  1  0  0  0
 12 34  1  0  0  0
 15 35  1  0  0  0
 16 36  1  0  0  0
 18 37  1  0  0  0
 19 38  1  0  0  0
 20 39  1  0  0  0
M  CHG  1  13  -1
M  END
> <s_m_source_file>
../4d62_ligand.sdf

> <i_m_source_file_index>
1

> <s_epik_input>
W09IXUMoPU8pW0NAQF0xKFtPSF0pW0NIMl1bQ0BIXShbT0hdKVtDQEBIXShbTkhdQyg9TylbQ0gzXSlbQ0BASF0oTzEpW0NASF0oW09IXSlbQ0BIXShbT0hdKVtDSDJdW09IXQ==

> <s_epik_cmdline>
J2VwaWtfYXBwJywgJy1pbWFlJywgJ2xpZ2FuZF9wcm8ubWFlJywgJy1vbWFlJywgJ2xpZ2FuZF9wcmVwLm1hZScsICctbXMnLCAnMScsICctcGgnLCAnNycsICctcGh0JywgJzAuNScsICctbnQn

> <r_lp_tautomer_probability>
1

> <r_epik_Ionization_Penalty>
  0.0000

> <r_epik_Ionization_Penalty_Charging>
  0.0000

> <r_epik_Ionization_Penalty_Neutral>
  0.0000

> <r_epik_State_Penalty>
 -0.0000

> <r_epik_Charging_Adjusted_Penalty>
2.59170082529691e-05

> <i_epik_Tot_Q>
-1

> <i_epik_Tot_abs_Q>
1

$$$$
