4d63_ligand
                    3D
 Schrodinger Suite 2020-3.
 39 39  0  0  1  0            999 V2000
   47.6050   12.2140   31.6170 C   0  0  0  0  0  0
   46.9600   12.2940   32.9960 C   0  0  2  0  0  0
   46.4460   13.7170   33.2950 C   0  0  0  0  0  0
   45.1310   14.0370   32.5710 C   0  0  1  0  0  0
   44.1130   12.9680   32.9380 C   0  0  2  0  0  0
   44.6570   11.6070   32.4740 C   0  0  2  0  0  0
   43.7520   10.4200   32.8060 C   0  0  1  0  0  0
   44.4580    9.0580   32.6560 C   0  0  1  0  0  0
   44.5140    8.2660   33.9670 C   0  0  0  0  0  0
   41.7090   13.4310   33.1230 C   0  0  0  0  0  0
   40.4520   13.9670   32.4740 C   0  0  0  0  0  0
   42.8190   13.3500   32.3860 N   0  0  0  0  0  0
   47.9130   13.2850   31.0420 O   0  0  0  0  0  0
   47.8340   11.0890   31.1030 O   0  5  0  0  0  0
   47.9310   11.8730   33.9820 O   0  0  0  0  0  0
   44.5990   15.3370   32.9160 O   0  0  0  0  0  0
   45.8870   11.3620   33.1570 O   0  0  0  0  0  0
   43.2870   10.5960   34.1570 O   0  0  0  0  0  0
   43.8120    8.2240   31.6880 O   0  0  0  0  0  0
   45.4880    7.2190   33.8560 O   0  0  0  0  0  0
   41.6990   13.0970   34.2850 O   0  0  0  0  0  0
   46.2699   13.8237   34.3756 H   0  0  0  0  0  0
   47.1963   14.4534   32.9713 H   0  0  0  0  0  0
   45.3083   14.1042   31.4875 H   0  0  0  0  0  0
   43.9042   12.8979   34.0157 H   0  0  0  0  0  0
   44.8179   11.6592   31.3871 H   0  0  0  0  0  0
   42.8755   10.4192   32.1414 H   0  0  0  0  0  0
   45.4680    9.2637   32.2718 H   0  0  0  0  0  0
   44.7938    8.9394   34.7905 H   0  0  0  0  0  0
   43.5268    7.8263   34.1722 H   0  0  0  0  0  0
   40.6592   14.2144   31.4224 H   0  0  0  0  0  0
   40.1222   14.8718   33.0055 H   0  0  0  0  0  0
   39.6607   13.2044   32.5222 H   0  0  0  0  0  0
   42.7259   13.5874   31.3160 H   0  0  0  0  0  0
   48.8797   12.4196   34.0880 H   0  0  0  0  0  0
   45.1932   16.2428   32.7250 H   0  0  0  0  0  0
   42.7580   11.5177   34.4409 H   0  0  0  0  0  0
   43.6595    8.5892   30.6616 H   0  0  0  0  0  0
   45.6678    6.5428   34.7048 H   0  0  0  0  0  0
  1  2  1  0  0  0
  1 13  2  0  0  0
  1 14  1  0  0  0
  2  3  1  0  0  0
  2 15  1  0  0  0
  2 17  1  0  0  0
  3  4  1  0  0  0
  3 22  1  0  0  0
  3 23  1  0  0  0
  4  5  1  0  0  0
  4 16  1  0  0  0
  4 24  1  0  0  0
  5  6  1  0  0  0
  5 12  1  0  0  0
  5 25  1  0  0  0
  6  7  1  0  0  0
  6 17  1  0  0  0
  6 26  1  0  0  0
  7  8  1  0  0  0
  7 18  1  0  0  0
  7 27  1  0  0  0
  8  9  1  0  0  0
  8 19  1  0  0  0
  8 28  1  0  0  0
  9 20  1  0  0  0
  9 29  1  0  0  0
  9 30  1  0  0  0
 10 11  1  0  0  0
 10 12  1  0  0  0
 10 21  2  0  0  0
 11 31  1  0  0  0
 11 32  1  0  0  0
 11 33  1  0  0  0
 12 34  1  0  0  0
 15 35  1  0  0  0
 16 36  1  0  0  0
 18 37  1  0  0  0
 19 38  1  0  0  0
 20 39  1  0  0  0
M  CHG  1  14  -1
M  END
> <s_m_source_file>
../4d63_ligand.sdf

> <i_m_source_file_index>
1

> <s_epik_input>
Tz1DKFtPSF0pW0NAQF0xKFtPSF0pW0NIMl1bQ0BIXShbT0hdKVtDQEBIXShbTkhdQyg9TylbQ0gzXSlbQ0BASF0oTzEpW0NASF0oW09IXSlbQ0BIXShbT0hdKVtDSDJdW09IXQ==

> <s_epik_cmdline>
J2VwaWtfYXBwJywgJy1pbWFlJywgJ2xpZ2FuZF9wcm8ubWFlJywgJy1vbWFlJywgJ2xpZ2FuZF9wcmVwLm1hZScsICctbXMnLCAnMScsICctcGgnLCAnNycsICctcGh0JywgJzAuNScsICctbnQn

> <r_lp_tautomer_probability>
1

> <r_epik_Ionization_Penalty>
  0.0000

> <r_epik_Ionization_Penalty_Charging>
  0.0000

> <r_epik_Ionization_Penalty_Neutral>
  0.0000

> <r_epik_State_Penalty>
 -0.0000

> <r_epik_Charging_Adjusted_Penalty>
2.59170082529691e-05

> <i_epik_Tot_Q>
-1

> <i_epik_Tot_abs_Q>
1

$$$$
