4d83_ligand
                    3D
 Schrodinger Suite 2020-3.
 70 73  0  0  1  0            999 V2000
   30.0710    7.6790   21.4130 F   0  0  0  0  0  0
   29.6720    8.4240   20.3420 C   0  0  0  0  0  0
   28.3860    8.8350   20.5070 F   0  0  0  0  0  0
   30.5910    9.6570   20.2080 C   0  0  0  0  0  0
   30.5790   10.2250   18.8130 C   0  0  0  0  0  0
   30.1620   11.4460   18.4390 C   0  0  0  0  0  0
   30.3130   11.5990   17.1490 N   0  3  0  0  0  0
   30.8340   10.4970   16.5820 C   0  0  0  0  0  0
   31.0440    9.5270   17.5630 C   0  0  0  0  0  0
   31.5710    8.2580   17.2510 C   0  0  0  0  0  0
   31.8940    7.9870   15.8940 C   0  0  0  0  0  0
   31.6890    8.9820   14.8930 C   0  0  0  0  0  0
   31.1550   10.2540   15.2260 C   0  0  0  0  0  0
   32.4570    6.6020   15.5210 C   0  0  0  0  0  0
   31.4310    5.7570   14.6870 C   0  0  1  0  0  0
   32.0150    4.3680   14.2720 C   0  0  1  0  0  0
   31.0670    3.5180   13.3760 C   0  0  2  0  0  0
   29.6510    3.2520   13.9670 C   0  0  0  0  0  0
   28.8670    4.8320   14.3210 S   0  0  0  0  0  0
   30.0710    5.5740   15.4280 C   0  0  0  0  0  0
   28.8020    5.6370   13.1200 O   0  0  0  0  0  0
   27.6540    4.5940   15.0650 O   0  0  0  0  0  0
   31.7430    2.2830   12.8850 N   0  3  0  0  0  0
   31.1390    1.4650   11.8010 C   0  0  0  0  0  0
   30.9620    2.3210   10.5280 C   0  0  0  0  0  0
   32.1030    2.7990    9.8390 C   0  0  0  0  0  0
   32.0120    3.5950    8.6650 C   0  0  0  0  0  0
   30.7000    3.8970    8.1930 C   0  0  0  0  0  0
   29.5420    3.4320    8.8630 C   0  0  0  0  0  0
   29.6670    2.6380   10.0330 C   0  0  0  0  0  0
   33.3380    4.0690    7.9820 C   0  0  0  0  0  0
   33.1210    4.7000    6.5630 C   0  0  0  0  0  0
   34.1410    5.1230    8.8190 C   0  0  0  0  0  0
   34.2710    2.8320    7.7880 C   0  0  0  0  0  0
   33.2190    4.5660   13.5190 O   0  0  0  0  0  0
   29.6473    7.7288   19.4899 H   0  0  0  0  0  0
   30.2538   10.4426   20.9002 H   0  0  0  0  0  0
   31.6249    9.3720   20.4525 H   0  0  0  0  0  0
   29.7653   12.1455   19.1895 H   0  0  0  0  0  0
   31.7261    7.5077   18.0263 H   0  0  0  0  0  0
   31.9463    8.7622   13.8569 H   0  0  0  0  0  0
   30.9977   11.0170   14.4636 H   0  0  0  0  0  0
   33.3692    6.7270   14.9192 H   0  0  0  0  0  0
   32.6965    6.0443   16.4384 H   0  0  0  0  0  0
   31.2334    6.3317   13.7701 H   0  0  0  0  0  0
   32.2597    3.8181   15.1927 H   0  0  0  0  0  0
   30.8776    4.1108   12.4690 H   0  0  0  0  0  0
   29.0485    2.6913   13.2372 H   0  0  0  0  0  0
   29.7444    2.6656   14.8930 H   0  0  0  0  0  0
   30.2139    4.9192   16.3002 H   0  0  0  0  0  0
   29.7007    6.5544   15.7623 H   0  0  0  0  0  0
   32.7366    2.5412   12.4900 H   0  0  0  0  0  0
   31.8525    1.5701   13.7155 H   0  0  0  0  0  0
   31.7967    0.6127   11.5750 H   0  0  0  0  0  0
   30.1561    1.0934   12.1263 H   0  0  0  0  0  0
   33.0908    2.5464   10.2244 H   0  0  0  0  0  0
   30.5858    4.5014    7.2932 H   0  0  0  0  0  0
   28.5533    3.6842    8.4796 H   0  0  0  0  0  0
   28.7777    2.2743   10.5478 H   0  0  0  0  0  0
   32.4663    5.5797    6.6492 H   0  0  0  0  0  0
   32.6528    3.9580    5.8995 H   0  0  0  0  0  0
   34.0917    5.0049    6.1450 H   0  0  0  0  0  0
   33.5179    6.0151    8.9799 H   0  0  0  0  0  0
   35.0532    5.4063    8.2735 H   0  0  0  0  0  0
   34.4154    4.6872    9.7910 H   0  0  0  0  0  0
   33.7444    2.0638    7.2026 H   0  0  0  0  0  0
   34.5440    2.4209    8.7711 H   0  0  0  0  0  0
   35.1818    3.1400    7.2536 H   0  0  0  0  0  0
   34.0485    5.1454   13.9505 H   0  0  0  0  0  0
   30.0231   12.5457   16.6698 H   0  0  0  0  0  0
  1  2  1  0  0  0
  2  3  1  0  0  0
  2  4  1  0  0  0
  2 36  1  0  0  0
  4  5  1  0  0  0
  4 37  1  0  0  0
  4 38  1  0  0  0
  5  6  2  0  0  0
  5  9  1  0  0  0
  6  7  1  0  0  0
  6 39  1  0  0  0
  7  8  1  0  0  0
  7 70  1  0  0  0
  8  9  2  0  0  0
  8 13  1  0  0  0
  9 10  1  0  0  0
 10 11  2  0  0  0
 10 40  1  0  0  0
 11 12  1  0  0  0
 11 14  1  0  0  0
 12 13  2  0  0  0
 12 41  1  0  0  0
 13 42  1  0  0  0
 14 15  1  0  0  0
 14 43  1  0  0  0
 14 44  1  0  0  0
 15 16  1  0  0  0
 15 20  1  0  0  0
 15 45  1  0  0  0
 16 17  1  0  0  0
 16 35  1  0  0  0
 16 46  1  0  0  0
 17 18  1  0  0  0
 17 23  1  0  0  0
 17 47  1  0  0  0
 18 19  1  0  0  0
 18 48  1  0  0  0
 18 49  1  0  0  0
 19 20  1  0  0  0
 19 21  2  0  0  0
 19 22  2  0  0  0
 20 50  1  0  0  0
 20 51  1  0  0  0
 23 24  1  0  0  0
 23 52  1  0  0  0
 23 53  1  0  0  0
 24 25  1  0  0  0
 24 54  1  0  0  0
 24 55  1  0  0  0
 25 26  2  0  0  0
 25 30  1  0  0  0
 26 27  1  0  0  0
 26 56  1  0  0  0
 27 28  2  0  0  0
 27 31  1  0  0  0
 28 29  1  0  0  0
 28 57  1  0  0  0
 29 30  2  0  0  0
 29 58  1  0  0  0
 30 59  1  0  0  0
 31 32  1  0  0  0
 31 33  1  0  0  0
 31 34  1  0  0  0
 32 60  1  0  0  0
 32 61  1  0  0  0
 32 62  1  0  0  0
 33 63  1  0  0  0
 33 64  1  0  0  0
 33 65  1  0  0  0
 34 66  1  0  0  0
 34 67  1  0  0  0
 34 68  1  0  0  0
 35 69  1  0  0  0
M  CHG  2   7   1  23   1
M  END
> <s_m_source_file>
../4d83_ligand.sdf

> <i_m_source_file_index>
1

> <s_epik_input>
RltDSF0oRilbQ0gyXWMoW2NIXVtuSF0xKWMoYzEyKVtjSF1jKFtjSF1bY0hdMilbQ0gyXVtDQEhdKFtDSDJdMylbQ0BIXShbT0hdKVtDQEhdKFtDSDJdUzMoPU8pPU8pW05IMitdW0NIMl1jNFtjSF1jKEMoW0NIM10pKFtDSDNdKVtDSDNdKVtjSF1bY0hdW2NIXTQ=

> <s_epik_cmdline>
J2VwaWtfYXBwJywgJy1pbWFlJywgJ2xpZ2FuZF9wcm8ubWFlJywgJy1vbWFlJywgJ2xpZ2FuZF9wcmVwLm1hZScsICctbXMnLCAnMScsICctcGgnLCAnNycsICctcGh0JywgJzAuNScsICctbnQn

> <r_epik_Ionization_Penalty>
  0.1218

> <r_epik_Ionization_Penalty_Charging>
  0.1217

> <r_epik_Ionization_Penalty_Neutral>
  0.0001

> <r_epik_State_Penalty>
  0.1112

> <r_epik_Charging_Adjusted_Penalty>
0.232908908413904

> <i_epik_Tot_Q>
2

> <i_epik_Tot_abs_Q>
2

$$$$
