4d85_ligand
                    3D
 Schrodinger Suite 2020-3.
 79 83  0  0  1  0            999 V2000
   27.3370   39.5900   60.0990 F   0  0  0  0  0  0
   26.6610   40.4600   60.8950 C   0  0  0  0  0  0
   25.1650   39.9840   60.9320 C   0  0  0  0  0  0
   24.3280   40.4850   62.1530 C   0  0  0  0  0  0
   25.0840   40.5540   63.5290 C   0  0  0  0  0  0
   24.2730   41.4390   64.5610 C   0  0  0  0  0  0
   24.3930   40.7190   65.8180 N   0  0  0  0  0  0
   24.7480   39.4400   65.6250 C   0  0  0  0  0  0
   25.1590   39.2100   64.3040 C   0  0  0  0  0  0
   25.5500   37.9000   63.9350 C   0  0  0  0  0  0
   25.5390   36.8460   64.8900 C   0  0  0  0  0  0
   25.1260   37.1120   66.2280 C   0  0  0  0  0  0
   24.7260   38.4210   66.6050 C   0  0  0  0  0  0
   24.3390   38.6950   67.8530 F   0  0  0  0  0  0
   25.9860   35.4280   64.4730 C   0  0  0  0  0  0
   27.4260   35.0540   64.9600 C   0  0  1  0  0  0
   27.9910   33.6600   64.5370 C   0  0  1  0  0  0
   29.3660   33.3620   65.2080 C   0  0  2  0  0  0
   30.4830   34.3830   64.8910 C   0  0  0  0  0  0
   29.9280   35.9790   65.4920 S   0  0  0  0  0  0
   28.4460   36.1380   64.4970 C   0  0  0  0  0  0
   29.5530   35.9290   66.8870 O   0  0  0  0  0  0
   30.8950   36.9560   65.0790 O   0  0  0  0  0  0
   29.8360   31.9770   64.9730 N   0  3  0  0  0  0
   30.9330   31.3630   65.7720 C   0  0  0  0  0  0
   30.4690   31.3160   67.2450 C   0  0  0  0  0  0
   29.3870   30.4940   67.6390 C   0  0  0  0  0  0
   28.9330   30.4260   68.9860 C   0  0  0  0  0  0
   29.6260   31.2430   69.9260 C   0  0  0  0  0  0
   30.7100   32.0720   69.5560 C   0  0  0  0  0  0
   31.1300   32.1070   68.2120 C   0  0  0  0  0  0
   27.7380   29.5030   69.4100 C   0  0  0  0  0  0
   28.0960   28.0420   68.9960 C   0  0  0  0  0  0
   27.4400   29.5100   70.9450 C   0  0  0  0  0  0
   26.3900   29.9260   68.7410 C   0  0  0  0  0  0
   27.1910   32.5450   64.9600 O   0  0  0  0  0  0
   26.5120   41.1790   63.3590 C   0  0  0  0  0  0
   27.3860   40.4940   62.2750 C   0  0  0  0  0  0
   26.7640   41.7040   60.3330 F   0  0  0  0  0  0
   24.6440   40.3419   60.0317 H   0  0  0  0  0  0
   25.1305   38.8850   60.9631 H   0  0  0  0  0  0
   23.9640   41.5039   61.9547 H   0  0  0  0  0  0
   23.4710   39.8136   62.3103 H   0  0  0  0  0  0
   24.7209   42.4422   64.6151 H   0  0  0  0  0  0
   23.2271   41.5218   64.2305 H   0  0  0  0  0  0
   24.1983   41.2364   66.7690 H   0  0  0  0  0  0
   25.8621   37.6976   62.9104 H   0  0  0  0  0  0
   25.1172   36.3080   66.9640 H   0  0  0  0  0  0
   25.2937   34.6858   64.8970 H   0  0  0  0  0  0
   25.9806   35.3496   63.3758 H   0  0  0  0  0  0
   27.3106   35.0031   66.0527 H   0  0  0  0  0  0
   27.9838   33.6738   63.4371 H   0  0  0  0  0  0
   29.1784   33.4204   66.2903 H   0  0  0  0  0  0
   31.4112   34.0800   65.3976 H   0  0  0  0  0  0
   30.6522   34.4159   63.8046 H   0  0  0  0  0  0
   28.6870   35.9848   63.4347 H   0  0  0  0  0  0
   28.0062   37.1371   64.6328 H   0  0  0  0  0  0
   29.0024   31.2759   65.1264 H   0  0  0  0  0  0
   30.2068   31.8857   63.9414 H   0  0  0  0  0  0
   31.1328   30.3471   65.4006 H   0  0  0  0  0  0
   31.8427   31.9739   65.6761 H   0  0  0  0  0  0
   28.8830   29.8911   66.8836 H   0  0  0  0  0  0
   29.3086   31.2282   70.9687 H   0  0  0  0  0  0
   31.2170   32.6797   70.3055 H   0  0  0  0  0  0
   31.9643   32.7438   67.9178 H   0  0  0  0  0  0
   29.0449   27.7490   69.4690 H   0  0  0  0  0  0
   28.1987   27.9856   67.9023 H   0  0  0  0  0  0
   27.2968   27.3615   69.3249 H   0  0  0  0  0  0
   28.3469   29.2202   71.4959 H   0  0  0  0  0  0
   26.6332   28.7954   71.1651 H   0  0  0  0  0  0
   27.1302   30.5193   71.2537 H   0  0  0  0  0  0
   26.5136   29.9465   67.6482 H   0  0  0  0  0  0
   26.1024   30.9265   69.0964 H   0  0  0  0  0  0
   25.6054   29.2026   69.0077 H   0  0  0  0  0  0
   26.1414   32.4683   64.6399 H   0  0  0  0  0  0
   26.4175   42.2371   63.0737 H   0  0  0  0  0  0
   27.0610   41.1031   64.3092 H   0  0  0  0  0  0
   27.6028   39.4659   62.6007 H   0  0  0  0  0  0
   28.3275   41.0550   62.1809 H   0  0  0  0  0  0
  1  2  1  0  0  0
  2  3  1  0  0  0
  2 38  1  0  0  0
  2 39  1  0  0  0
  3  4  1  0  0  0
  3 40  1  0  0  0
  3 41  1  0  0  0
  4  5  1  0  0  0
  4 42  1  0  0  0
  4 43  1  0  0  0
  5  6  1  0  0  0
  5  9  1  0  0  0
  5 37  1  0  0  0
  6  7  1  0  0  0
  6 44  1  0  0  0
  6 45  1  0  0  0
  7  8  1  0  0  0
  7 46  1  0  0  0
  8  9  2  0  0  0
  8 13  1  0  0  0
  9 10  1  0  0  0
 10 11  2  0  0  0
 10 47  1  0  0  0
 11 12  1  0  0  0
 11 15  1  0  0  0
 12 13  2  0  0  0
 12 48  1  0  0  0
 13 14  1  0  0  0
 15 16  1  0  0  0
 15 49  1  0  0  0
 15 50  1  0  0  0
 16 17  1  0  0  0
 16 21  1  0  0  0
 16 51  1  0  0  0
 17 18  1  0  0  0
 17 36  1  0  0  0
 17 52  1  0  0  0
 18 19  1  0  0  0
 18 24  1  0  0  0
 18 53  1  0  0  0
 19 20  1  0  0  0
 19 54  1  0  0  0
 19 55  1  0  0  0
 20 21  1  0  0  0
 20 22  2  0  0  0
 20 23  2  0  0  0
 21 56  1  0  0  0
 21 57  1  0  0  0
 24 25  1  0  0  0
 24 58  1  0  0  0
 24 59  1  0  0  0
 25 26  1  0  0  0
 25 60  1  0  0  0
 25 61  1  0  0  0
 26 27  2  0  0  0
 26 31  1  0  0  0
 27 28  1  0  0  0
 27 62  1  0  0  0
 28 29  2  0  0  0
 28 32  1  0  0  0
 29 30  1  0  0  0
 29 63  1  0  0  0
 30 31  2  0  0  0
 30 64  1  0  0  0
 31 65  1  0  0  0
 32 33  1  0  0  0
 32 34  1  0  0  0
 32 35  1  0  0  0
 33 66  1  0  0  0
 33 67  1  0  0  0
 33 68  1  0  0  0
 34 69  1  0  0  0
 34 70  1  0  0  0
 34 71  1  0  0  0
 35 72  1  0  0  0
 35 73  1  0  0  0
 35 74  1  0  0  0
 36 75  1  0  0  0
 37 38  1  0  0  0
 37 76  1  0  0  0
 37 77  1  0  0  0
 38 78  1  0  0  0
 38 79  1  0  0  0
M  CHG  1  24   1
M  END
> <s_m_source_file>
../4d85_ligand.sdf

> <i_m_source_file_index>
1

> <s_epik_input>
W0NIMl0xW0NIMl1DKEYpKEYpW0NIMl1bQ0gyXUMxMmMzYyhbTkhdW0NIMl0yKWMoRilbY0hdYyhbY0hdMylbQ0gyXVtDQEhdKFtDSDJdNClbQ0BIXShbT0hdKVtDQEhdKFtDSDJdUzQoPU8pPU8pW05IMitdW0NIMl1jNVtjSF1jKEMoW0NIM10pKFtDSDNdKVtDSDNdKVtjSF1bY0hdW2NIXTU=

> <s_epik_cmdline>
J2VwaWtfYXBwJywgJy1pbWFlJywgJ2xpZ2FuZF9wcm8ubWFlJywgJy1vbWFlJywgJ2xpZ2FuZF9wcmVwLm1hZScsICctbXMnLCAnMScsICctcGgnLCAnNycsICctcGh0JywgJzAuNScsICctbnQn

> <r_epik_Ionization_Penalty>
  0.1255

> <r_epik_Ionization_Penalty_Charging>
  0.1217

> <r_epik_Ionization_Penalty_Neutral>
  0.0038

> <r_epik_State_Penalty>
  0.1112

> <r_epik_Charging_Adjusted_Penalty>
0.232908908413904

> <i_epik_Tot_Q>
1

> <i_epik_Tot_abs_Q>
1

$$$$
