4d88_ligand
                    3D
 Schrodinger Suite 2020-3.
 72 74  0  0  1  0            999 V2000
   29.0640   80.8110   18.1980 F   0  0  0  0  0  0
   28.5910   79.5940   17.8150 C   0  0  0  0  0  0
   27.3220   79.4180   18.2750 F   0  0  0  0  0  0
   28.5830   79.5160   16.4550 F   0  0  0  0  0  0
   29.5250   78.5160   18.4130 C   0  0  1  0  0  0
   30.8450   78.6240   17.8490 O   0  0  0  0  0  0
   29.6010   78.5940   19.9710 C   0  0  0  0  0  0
   30.2470   77.3110   20.5180 C   0  0  0  0  0  0
   31.5150   77.2620   21.1700 C   0  0  0  0  0  0
   32.0060   76.0090   21.6250 C   0  0  0  0  0  0
   31.2590   74.8210   21.4370 C   0  0  0  0  0  0
   30.0010   74.8730   20.7860 C   0  0  0  0  0  0
   29.5080   76.1180   20.3410 C   0  0  0  0  0  0
   29.1650   73.6040   20.5330 C   0  0  0  0  0  0
   29.7450   72.7480   19.3490 C   0  0  1  0  0  0
   28.8260   71.5860   18.8540 C   0  0  1  0  0  0
   29.5570   70.6590   17.8250 C   0  0  2  0  0  0
   30.0630   71.3840   16.5420 C   0  0  0  0  0  0
   31.1990   72.6990   17.0110 S   0  0  0  0  0  0
   30.1480   73.6390   18.1190 C   0  0  0  0  0  0
   32.3190   72.1540   17.7510 O   0  0  0  0  0  0
   31.5050   73.5140   15.8490 O   0  0  0  0  0  0
   28.7500   69.4540   17.4970 N   0  3  0  0  0  0
   29.3550   68.2500   16.8560 C   0  0  0  0  0  0
   30.5030   67.7500   17.7520 C   0  0  0  0  0  0
   30.2190   67.1640   19.0090 C   0  0  0  0  0  0
   31.2380   66.6850   19.8890 C   0  0  0  0  0  0
   32.5820   66.8300   19.4260 C   0  0  0  0  0  0
   32.8900   67.4110   18.1720 C   0  0  0  0  0  0
   31.8490   67.8720   17.3320 C   0  0  0  0  0  0
   30.8540   66.0460   21.2790 C   0  0  0  0  0  0
   32.0500   65.2740   21.9210 C   0  0  0  0  0  0
   30.4080   67.1460   22.2980 C   0  0  0  0  0  0
   29.6560   65.0400   21.1850 C   0  0  0  0  0  0
   28.4280   70.6980   19.9140 O   0  0  0  0  0  0
   33.1890   75.9430   22.2350 F   0  0  0  0  0  0
   32.2850   78.3620   21.3780 N   0  0  0  0  0  0
   29.1627   77.5249   18.1025 H   0  0  0  0  0  0
   30.9816   78.5886   16.7581 H   0  0  0  0  0  0
   30.2069   79.4636   20.2654 H   0  0  0  0  0  0
   28.5863   78.6977   20.3829 H   0  0  0  0  0  0
   31.6507   73.8679   21.7923 H   0  0  0  0  0  0
   28.5359   76.1614   19.8498 H   0  0  0  0  0  0
   29.1609   72.9809   21.4395 H   0  0  0  0  0  0
   28.1333   73.8891   20.2794 H   0  0  0  0  0  0
   30.6347   72.2731   19.7882 H   0  0  0  0  0  0
   27.9120   72.0627   18.4700 H   0  0  0  0  0  0
   30.4535   70.2707   18.3306 H   0  0  0  0  0  0
   30.5821   70.6626   15.8938 H   0  0  0  0  0  0
   29.2065   71.8127   16.0011 H   0  0  0  0  0  0
   29.2413   73.9543   17.5819 H   0  0  0  0  0  0
   30.6924   74.5272   18.4723 H   0  0  0  0  0  0
   28.3081   69.0468   18.4183 H   0  0  0  0  0  0
   27.9480   69.7294   16.7963 H   0  0  0  0  0  0
   28.5898   67.4667   16.7515 H   0  0  0  0  0  0
   29.7422   68.5192   15.8622 H   0  0  0  0  0  0
   29.1779   67.0743   19.3191 H   0  0  0  0  0  0
   33.3977   66.4816   20.0595 H   0  0  0  0  0  0
   33.9285   67.5030   17.8540 H   0  0  0  0  0  0
   32.0826   68.3191   16.3658 H   0  0  0  0  0  0
   32.9167   65.9460   22.0062 H   0  0  0  0  0  0
   32.3136   64.4141   21.2877 H   0  0  0  0  0  0
   31.7621   64.9182   22.9213 H   0  0  0  0  0  0
   31.2112   67.8892   22.4102 H   0  0  0  0  0  0
   30.2006   66.6803   23.2727 H   0  0  0  0  0  0
   29.4987   67.6419   21.9276 H   0  0  0  0  0  0
   29.9076   64.2353   20.4785 H   0  0  0  0  0  0
   28.7589   65.5701   20.8327 H   0  0  0  0  0  0
   29.4608   64.6086   22.1778 H   0  0  0  0  0  0
   27.8843   71.0910   20.7857 H   0  0  0  0  0  0
   31.9370   79.3490   21.0392 H   0  0  0  0  0  0
   33.2563   78.2655   21.8852 H   0  0  0  0  0  0
  1  2  1  0  0  0
  2  3  1  0  0  0
  2  4  1  0  0  0
  2  5  1  0  0  0
  5  6  1  0  0  0
  5  7  1  0  0  0
  5 38  1  0  0  0
  6 39  1  0  0  0
  7  8  1  0  0  0
  7 40  1  0  0  0
  7 41  1  0  0  0
  8  9  2  0  0  0
  8 13  1  0  0  0
  9 10  1  0  0  0
  9 37  1  0  0  0
 10 11  2  0  0  0
 10 36  1  0  0  0
 11 12  1  0  0  0
 11 42  1  0  0  0
 12 13  2  0  0  0
 12 14  1  0  0  0
 13 43  1  0  0  0
 14 15  1  0  0  0
 14 44  1  0  0  0
 14 45  1  0  0  0
 15 16  1  0  0  0
 15 20  1  0  0  0
 15 46  1  0  0  0
 16 17  1  0  0  0
 16 35  1  0  0  0
 16 47  1  0  0  0
 17 18  1  0  0  0
 17 23  1  0  0  0
 17 48  1  0  0  0
 18 19  1  0  0  0
 18 49  1  0  0  0
 18 50  1  0  0  0
 19 20  1  0  0  0
 19 21  2  0  0  0
 19 22  2  0  0  0
 20 51  1  0  0  0
 20 52  1  0  0  0
 23 24  1  0  0  0
 23 53  1  0  0  0
 23 54  1  0  0  0
 24 25  1  0  0  0
 24 55  1  0  0  0
 24 56  1  0  0  0
 25 26  2  0  0  0
 25 30  1  0  0  0
 26 27  1  0  0  0
 26 57  1  0  0  0
 27 28  2  0  0  0
 27 31  1  0  0  0
 28 29  1  0  0  0
 28 58  1  0  0  0
 29 30  2  0  0  0
 29 59  1  0  0  0
 30 60  1  0  0  0
 31 32  1  0  0  0
 31 33  1  0  0  0
 31 34  1  0  0  0
 32 61  1  0  0  0
 32 62  1  0  0  0
 32 63  1  0  0  0
 33 64  1  0  0  0
 33 65  1  0  0  0
 33 66  1  0  0  0
 34 67  1  0  0  0
 34 68  1  0  0  0
 34 69  1  0  0  0
 35 70  1  0  0  0
 37 71  1  0  0  0
 37 72  1  0  0  0
M  CHG  1  23   1
M  END
> <s_m_source_file>
../4d88_ligand.sdf

> <i_m_source_file_index>
1

> <s_epik_input>
RkMoRikoRilbQ0BASF0oW09IXSlbQ0gyXWMxYyhbTkgyXSljKEYpW2NIXWMoW2NIXTEpW0NIMl1bQ0BIXShbQ0gyXTIpW0NASF0oW09IXSlbQ0BIXShbQ0gyXVMyKD1PKT1PKVtOSDIrXVtDSDJdYzNbY0hdYyhDKFtDSDNdKShbQ0gzXSlbQ0gzXSlbY0hdW2NIXVtjSF0z

> <s_epik_cmdline>
J2VwaWtfYXBwJywgJy1pbWFlJywgJ2xpZ2FuZF9wcm8ubWFlJywgJy1vbWFlJywgJ2xpZ2FuZF9wcmVwLm1hZScsICctbXMnLCAnMScsICctcGgnLCAnNycsICctcGh0JywgJzAuNScsICctbnQn

> <r_epik_Ionization_Penalty>
  0.1233

> <r_epik_Ionization_Penalty_Charging>
  0.1217

> <r_epik_Ionization_Penalty_Neutral>
  0.0016

> <r_epik_State_Penalty>
  0.1112

> <r_epik_Charging_Adjusted_Penalty>
0.232908908413904

> <i_epik_Tot_Q>
1

> <i_epik_Tot_abs_Q>
1

$$$$
