4d89_ligand
                    3D
 Schrodinger Suite 2020-3.
 79 81  0  0  1  0            999 V2000
   27.6690   79.6480   18.6750 F   0  0  0  0  0  0
   27.4650   78.4900   17.9980 C   0  0  0  0  0  0
   26.7450   77.6650   18.8020 F   0  0  0  0  0  0
   26.7580   78.7170   16.8580 F   0  0  0  0  0  0
   28.8370   77.8370   17.7010 C   0  0  2  0  0  0
   29.4310   77.6620   19.0060 O   0  0  0  0  0  0
   29.7380   76.3890   19.4990 C   0  0  0  0  0  0
   30.9170   76.2430   20.2650 C   0  0  0  0  0  0
   31.2690   74.9710   20.7750 C   0  0  0  0  0  0
   30.4460   73.8460   20.5280 C   0  0  0  0  0  0
   29.2610   73.9900   19.7600 C   0  0  0  0  0  0
   28.9140   75.2630   19.2520 C   0  0  0  0  0  0
   28.3460   72.7940   19.4480 C   0  0  0  0  0  0
   28.9600   71.8270   18.3780 C   0  0  1  0  0  0
   28.0610   70.6010   18.0200 C   0  0  1  0  0  0
   28.7920   69.5670   17.1040 C   0  0  2  0  0  0
   29.3610   70.1570   15.7750 C   0  0  0  0  0  0
   30.4570   71.5420   16.1090 S   0  0  0  0  0  0
   29.3700   72.5900   17.0750 C   0  0  0  0  0  0
   30.7420   72.1990   14.8430 O   0  0  0  0  0  0
   31.5760   71.0990   16.9150 O   0  0  0  0  0  0
   27.9650   68.3520   16.8500 N   0  3  0  0  0  0
   28.5550   67.1190   16.2530 C   0  0  0  0  0  0
   29.7600   66.6350   17.0790 C   0  0  0  0  0  0
   29.5340   66.1300   18.3810 C   0  0  0  0  0  0
   30.5910   65.6670   19.2200 C   0  0  0  0  0  0
   31.9080   65.7370   18.6770 C   0  0  0  0  0  0
   32.1590   66.2370   17.3760 C   0  0  0  0  0  0
   31.0840   66.6870   16.5750 C   0  0  0  0  0  0
   30.2920   65.1190   20.6620 C   0  0  0  0  0  0
   29.1740   64.0390   20.5720 C   0  0  0  0  0  0
   31.5130   64.4610   21.3870 C   0  0  0  0  0  0
   29.8140   66.2690   21.6120 C   0  0  0  0  0  0
   27.6960   69.8560   19.1940 O   0  0  0  0  0  0
   32.3840   74.8390   21.4850 F   0  0  0  0  0  0
   31.7010   77.3250   20.5020 N   0  0  0  0  0  0
   29.7390   78.7500   16.8170 C   0  0  0  0  0  0
   30.7930   77.9750   16.2020 O   0  0  0  0  0  0
   32.0740   78.0920   16.8680 C   0  0  0  0  0  0
   33.0780   77.0870   16.2440 C   0  0  0  0  0  0
   28.7501   76.8626   17.1980 H   0  0  0  0  0  0
   30.7220   72.8700   20.9272 H   0  0  0  0  0  0
   28.0034   75.3794   18.6644 H   0  0  0  0  0  0
   28.1738   72.2145   20.3670 H   0  0  0  0  0  0
   27.3841   73.1598   19.0596 H   0  0  0  0  0  0
   29.8594   71.4160   18.8599 H   0  0  0  0  0  0
   27.1406   71.0034   17.5718 H   0  0  0  0  0  0
   29.6547   69.2102   17.6858 H   0  0  0  0  0  0
   29.9257   69.3789   15.2406 H   0  0  0  0  0  0
   28.5306   70.5062   15.1437 H   0  0  0  0  0  0
   28.4688   72.8301   16.4917 H   0  0  0  0  0  0
   29.8915   73.5205   17.3437 H   0  0  0  0  0  0
   27.5403   67.9926   17.7989 H   0  0  0  0  0  0
   27.1500   68.6019   16.1548 H   0  0  0  0  0  0
   27.7965   66.3226   16.2321 H   0  0  0  0  0  0
   28.8907   67.3326   15.2275 H   0  0  0  0  0  0
   28.5120   66.0932   18.7581 H   0  0  0  0  0  0
   32.7475   65.3950   19.2823 H   0  0  0  0  0  0
   33.1787   66.2749   16.9928 H   0  0  0  0  0  0
   31.2728   67.0727   15.5731 H   0  0  0  0  0  0
   29.5015   63.2269   19.9063 H   0  0  0  0  0  0
   28.2561   64.4940   20.1714 H   0  0  0  0  0  0
   28.9746   63.6332   21.5748 H   0  0  0  0  0  0
   31.9043   63.6372   20.7719 H   0  0  0  0  0  0
   31.1920   64.0691   22.3634 H   0  0  0  0  0  0
   32.3009   65.2142   21.5352 H   0  0  0  0  0  0
   28.9501   66.7805   21.1626 H   0  0  0  0  0  0
   30.6326   66.9895   21.7562 H   0  0  0  0  0  0
   29.5237   65.8445   22.5844 H   0  0  0  0  0  0
   27.1593   70.3526   20.0158 H   0  0  0  0  0  0
   31.4168   78.3087   20.1002 H   0  0  0  0  0  0
   32.6207   77.2183   21.0959 H   0  0  0  0  0  0
   29.1292   79.2143   16.0280 H   0  0  0  0  0  0
   30.1900   79.5351   17.4416 H   0  0  0  0  0  0
   32.4581   79.1156   16.7468 H   0  0  0  0  0  0
   31.9523   77.8704   17.9385 H   0  0  0  0  0  0
   34.0500   77.1773   16.7509 H   0  0  0  0  0  0
   33.2008   77.3083   15.1735 H   0  0  0  0  0  0
   32.6949   76.0630   16.3652 H   0  0  0  0  0  0
  1  2  1  0  0  0
  2  3  1  0  0  0
  2  4  1  0  0  0
  2  5  1  0  0  0
  5  6  1  0  0  0
  5 37  1  0  0  0
  5 41  1  0  0  0
  6  7  1  0  0  0
  7  8  2  0  0  0
  7 12  1  0  0  0
  8  9  1  0  0  0
  8 36  1  0  0  0
  9 10  2  0  0  0
  9 35  1  0  0  0
 10 11  1  0  0  0
 10 42  1  0  0  0
 11 12  2  0  0  0
 11 13  1  0  0  0
 12 43  1  0  0  0
 13 14  1  0  0  0
 13 44  1  0  0  0
 13 45  1  0  0  0
 14 15  1  0  0  0
 14 19  1  0  0  0
 14 46  1  0  0  0
 15 16  1  0  0  0
 15 34  1  0  0  0
 15 47  1  0  0  0
 16 17  1  0  0  0
 16 22  1  0  0  0
 16 48  1  0  0  0
 17 18  1  0  0  0
 17 49  1  0  0  0
 17 50  1  0  0  0
 18 19  1  0  0  0
 18 20  2  0  0  0
 18 21  2  0  0  0
 19 51  1  0  0  0
 19 52  1  0  0  0
 22 23  1  0  0  0
 22 53  1  0  0  0
 22 54  1  0  0  0
 23 24  1  0  0  0
 23 55  1  0  0  0
 23 56  1  0  0  0
 24 25  2  0  0  0
 24 29  1  0  0  0
 25 26  1  0  0  0
 25 57  1  0  0  0
 26 27  2  0  0  0
 26 30  1  0  0  0
 27 28  1  0  0  0
 27 58  1  0  0  0
 28 29  2  0  0  0
 28 59  1  0  0  0
 29 60  1  0  0  0
 30 31  1  0  0  0
 30 32  1  0  0  0
 30 33  1  0  0  0
 31 61  1  0  0  0
 31 62  1  0  0  0
 31 63  1  0  0  0
 32 64  1  0  0  0
 32 65  1  0  0  0
 32 66  1  0  0  0
 33 67  1  0  0  0
 33 68  1  0  0  0
 33 69  1  0  0  0
 34 70  1  0  0  0
 36 71  1  0  0  0
 36 72  1  0  0  0
 37 38  1  0  0  0
 37 73  1  0  0  0
 37 74  1  0  0  0
 38 39  1  0  0  0
 39 40  1  0  0  0
 39 75  1  0  0  0
 39 76  1  0  0  0
 40 77  1  0  0  0
 40 78  1  0  0  0
 40 79  1  0  0  0
M  CHG  1  22   1
M  END
> <s_m_source_file>
../4d89_ligand.sdf

> <i_m_source_file_index>
1

> <s_epik_input>
W0NIM11bQ0gyXU9bQ0gyXVtDQEhdKEMoRikoRilGKU9jMWMoW05IMl0pYyhGKVtjSF1jKFtjSF0xKVtDSDJdW0NASF0oW0NIMl0yKVtDQEhdKFtPSF0pW0NASF0oW0NIMl1TMig9Tyk9TylbTkgyK11bQ0gyXWMzW2NIXWMoQyhbQ0gzXSkoW0NIM10pW0NIM10pW2NIXVtjSF1bY0hdMw==

> <s_epik_cmdline>
J2VwaWtfYXBwJywgJy1pbWFlJywgJ2xpZ2FuZF9wcm8ubWFlJywgJy1vbWFlJywgJ2xpZ2FuZF9wcmVwLm1hZScsICctbXMnLCAnMScsICctcGgnLCAnNycsICctcGh0JywgJzAuNScsICctbnQn

> <r_epik_Ionization_Penalty>
  0.1239

> <r_epik_Ionization_Penalty_Charging>
  0.1217

> <r_epik_Ionization_Penalty_Neutral>
  0.0022

> <r_epik_State_Penalty>
  0.1112

> <r_epik_Charging_Adjusted_Penalty>
0.232908908413904

> <i_epik_Tot_Q>
1

> <i_epik_Tot_abs_Q>
1

$$$$
