4d8a_ligand
                    3D
 Schrodinger Suite 2020-3.
 33 34  0  0  1  0            999 V2000
  -14.2120   27.6740    3.7010 O   0  0  0  0  0  0
  -16.4860   23.5280    2.3500 N   0  0  0  0  0  0
  -13.8390   25.6050    4.9930 C   0  0  0  0  0  0
  -14.4760   26.3390    3.9190 C   0  0  0  0  0  0
  -14.9770   23.5860    4.2890 N   0  0  0  0  0  0
  -12.9030   25.9910    9.8740 C   0  0  0  0  0  0
  -12.6230   24.0530    7.0810 N   0  0  0  0  0  0
  -12.3030   25.3060    7.0470 C   0  0  0  0  0  0
  -14.5660   26.4130   11.3410 C   0  0  0  0  0  0
  -14.1310   24.2690    5.1140 C   0  0  0  0  0  0
  -12.8770   26.1780    5.9970 C   0  0  0  0  0  0
  -11.7320   26.6120    9.1810 C   0  0  0  0  0  0
  -13.4850   23.5590    6.1710 N   0  0  0  0  0  0
  -15.6220   24.2370    3.2310 C   0  0  0  0  0  0
  -10.2870   24.7770    8.3770 C   0  0  0  0  0  0
  -15.3570   25.6700    3.0510 N   0  0  0  0  0  0
  -12.8070   24.8560   10.4170 O   0  0  0  0  0  0
  -13.8330   26.7520   10.2280 O   0  0  0  0  0  0
  -11.2380   25.8660    7.9740 C   0  0  1  0  0  0
  -12.5680   27.5110    6.0010 O   0  0  0  0  0  0
  -16.6692   22.4545    2.5051 H   0  0  0  0  0  0
  -16.9706   24.0535    1.5139 H   0  0  0  0  0  0
  -15.3380   27.1763   11.5180 H   0  0  0  0  0  0
  -13.9003   26.3552   12.2148 H   0  0  0  0  0  0
  -15.0459   25.4363   11.1804 H   0  0  0  0  0  0
  -12.0021   27.6216    8.8379 H   0  0  0  0  0  0
  -10.8846   26.6766    9.8794 H   0  0  0  0  0  0
   -9.9381   24.2444    7.4800 H   0  0  0  0  0  0
  -10.8005   24.0709    9.0462 H   0  0  0  0  0  0
   -9.4255   25.2176    8.9002 H   0  0  0  0  0  0
  -15.8490   26.2202    2.2354 H   0  0  0  0  0  0
  -10.7176   26.6389    7.3894 H   0  0  0  0  0  0
  -12.9849   28.1745    5.2290 H   0  0  0  0  0  0
  1  4  2  0  0  0
  2 14  1  0  0  0
  2 21  1  0  0  0
  2 22  1  0  0  0
  3  4  1  0  0  0
  3 10  2  0  0  0
  3 11  1  0  0  0
  4 16  1  0  0  0
  5 10  1  0  0  0
  5 14  2  0  0  0
  6 12  1  0  0  0
  6 17  2  0  0  0
  6 18  1  0  0  0
  7  8  1  0  0  0
  7 13  2  0  0  0
  8 11  2  0  0  0
  8 19  1  0  0  0
  9 18  1  0  0  0
  9 23  1  0  0  0
  9 24  1  0  0  0
  9 25  1  0  0  0
 10 13  1  0  0  0
 11 20  1  0  0  0
 12 19  1  0  0  0
 12 26  1  0  0  0
 12 27  1  0  0  0
 14 16  1  0  0  0
 15 19  1  0  0  0
 15 28  1  0  0  0
 15 29  1  0  0  0
 15 30  1  0  0  0
 16 31  1  0  0  0
 19 32  1  0  0  0
 20 33  1  0  0  0
M  END
> <s_m_source_file>
../4d8a_ligand.sdf

> <i_m_source_file_index>
1

> <s_epik_input>
Tz1jMVtuSF1jKFtOSDJdKW5jKGMxMilubmMoYzJbT0hdKVtDQEhdKFtDSDNdKVtDSDJdQyg9TylPW0NIM10=

> <s_epik_cmdline>
J2VwaWtfYXBwJywgJy1pbWFlJywgJ2xpZ2FuZF9wcm8ubWFlJywgJy1vbWFlJywgJ2xpZ2FuZF9wcmVwLm1hZScsICctbXMnLCAnMScsICctcGgnLCAnNycsICctcGh0JywgJzAuNScsICctbnQn

> <r_epik_Ionization_Penalty>
  0.2247

> <r_epik_Ionization_Penalty_Charging>
  0.0059

> <r_epik_Ionization_Penalty_Neutral>
  0.2188

> <r_epik_State_Penalty>
  0.2090

> <r_epik_Charging_Adjusted_Penalty>
0.214923544323167

> <i_epik_Tot_Q>
0

> <i_epik_Tot_abs_Q>
0

> <s_epik_Chemistry_Notes>
This compound has an ester and may undergo hydrolysis at high or low pH.

$$$$
