4d8c_ligand
                    3D
 Schrodinger Suite 2020-3.
 79 81  0  0  1  0            999 V2000
   30.8100    9.4900   21.3900 F   0  0  0  0  0  0
   30.7100    8.3100   20.7360 C   0  0  0  0  0  0
   31.9360    8.0010   20.2650 F   0  0  0  0  0  0
   30.3210    7.3190   21.5810 F   0  0  0  0  0  0
   29.7320    8.4610   19.5350 C   0  0  2  0  0  0
   30.2460    9.5590   18.7400 O   0  0  0  0  0  0
   30.6030    9.3650   17.4090 C   0  0  0  0  0  0
   30.2620   10.3590   16.4560 C   0  0  0  0  0  0
   30.6220   10.1750   15.0960 C   0  0  0  0  0  0
   31.2870    8.9990   14.6820 C   0  0  0  0  0  0
   31.6170    8.0040   15.6380 C   0  0  0  0  0  0
   31.2700    8.1920   16.9910 C   0  0  0  0  0  0
   32.3220    6.7020   15.2260 C   0  0  0  0  0  0
   31.3450    5.6920   14.5220 C   0  0  1  0  0  0
   31.9840    4.3080   14.1880 C   0  0  1  0  0  0
   31.0420    3.3910   13.3440 C   0  0  2  0  0  0
   29.6270    3.1280   13.9520 C   0  0  0  0  0  0
   28.7850    4.6730   14.3140 S   0  0  0  0  0  0
   30.0260    5.4710   15.3380 C   0  0  0  0  0  0
   27.6140    4.3840   15.1100 O   0  0  0  0  0  0
   28.6100    5.4540   13.0990 O   0  0  0  0  0  0
   31.7050    2.1270   12.9120 N   0  3  0  0  0  0
   31.1160    1.2670   11.8480 C   0  0  0  0  0  0
   30.9020    2.0840   10.5580 C   0  0  0  0  0  0
   32.0370    2.5480    9.8600 C   0  0  0  0  0  0
   31.9510    3.3110    8.6580 C   0  0  0  0  0  0
   30.6310    3.5820    8.1880 C   0  0  0  0  0  0
   29.4770    3.1280    8.8690 C   0  0  0  0  0  0
   29.6040    2.3730   10.0600 C   0  0  0  0  0  0
   33.2470    3.8000    7.9250 C   0  0  0  0  0  0
   34.2140    2.5960    7.7180 C   0  0  0  0  0  0
   33.0210    4.4330    6.5070 C   0  0  0  0  0  0
   33.9910    4.8900    8.7680 C   0  0  0  0  0  0
   33.1790    4.4790   13.4060 O   0  0  0  0  0  0
   30.3120   11.0990   14.1910 F   0  0  0  0  0  0
   29.6240   11.4870   16.8540 N   0  0  0  0  0  0
   28.2780    8.7570   19.9990 C   0  0  0  0  0  0
   27.4550    8.8720   18.8220 O   0  0  0  0  0  0
   26.0210    8.8840   19.0730 C   0  0  0  0  0  0
   25.5520   10.3750   19.0670 C   0  0  0  0  0  0
   29.7045    7.5601   18.9044 H   0  0  0  0  0  0
   31.5453    8.8569   13.6326 H   0  0  0  0  0  0
   31.5191    7.4237   17.7230 H   0  0  0  0  0  0
   33.1372    6.9326   14.5244 H   0  0  0  0  0  0
   32.7350    6.2102   16.1191 H   0  0  0  0  0  0
   31.1047    6.1734   13.5625 H   0  0  0  0  0  0
   32.2686    3.8375   15.1407 H   0  0  0  0  0  0
   30.8684    3.9485   12.4118 H   0  0  0  0  0  0
   29.0205    2.5552   13.2350 H   0  0  0  0  0  0
   29.7297    2.5550   14.8854 H   0  0  0  0  0  0
   30.2364    4.8334   16.2093 H   0  0  0  0  0  0
   29.6389    6.4424   15.6794 H   0  0  0  0  0  0
   32.7096    2.3535   12.5255 H   0  0  0  0  0  0
   31.7878    1.4444   13.7706 H   0  0  0  0  0  0
   31.7969    0.4299   11.6344 H   0  0  0  0  0  0
   30.1470    0.8736   12.1891 H   0  0  0  0  0  0
   33.0243    2.3127   10.2574 H   0  0  0  0  0  0
   30.5075    4.1593    7.2717 H   0  0  0  0  0  0
   28.4873    3.3601    8.4756 H   0  0  0  0  0  0
   28.7181    2.0187   10.5871 H   0  0  0  0  0  0
   33.7092    1.8178    7.1268 H   0  0  0  0  0  0
   34.5016    2.1843    8.6967 H   0  0  0  0  0  0
   35.1138    2.9360    7.1844 H   0  0  0  0  0  0
   32.4984    3.7110    5.8623 H   0  0  0  0  0  0
   33.9933    4.6873    6.0598 H   0  0  0  0  0  0
   32.4129    5.3444    6.6050 H   0  0  0  0  0  0
   34.1801    4.5045    9.7807 H   0  0  0  0  0  0
   33.3675    5.7941    8.8303 H   0  0  0  0  0  0
   34.9480    5.1370    8.2851 H   0  0  0  0  0  0
   34.0056    5.0937   13.7919 H   0  0  0  0  0  0
   29.3493   11.6198   17.9108 H   0  0  0  0  0  0
   29.3810   12.2695   16.1201 H   0  0  0  0  0  0
   27.9213    7.9335   20.6352 H   0  0  0  0  0  0
   28.2597    9.6965   20.5709 H   0  0  0  0  0  0
   25.5058    8.3171   18.2836 H   0  0  0  0  0  0
   25.8158    8.4217   20.0498 H   0  0  0  0  0  0
   24.4690   10.4195   19.2545 H   0  0  0  0  0  0
   25.7735   10.8251   18.0880 H   0  0  0  0  0  0
   26.0835   10.9297   19.8543 H   0  0  0  0  0  0
  1  2  1  0  0  0
  2  3  1  0  0  0
  2  4  1  0  0  0
  2  5  1  0  0  0
  5  6  1  0  0  0
  5 37  1  0  0  0
  5 41  1  0  0  0
  6  7  1  0  0  0
  7  8  2  0  0  0
  7 12  1  0  0  0
  8  9  1  0  0  0
  8 36  1  0  0  0
  9 10  2  0  0  0
  9 35  1  0  0  0
 10 11  1  0  0  0
 10 42  1  0  0  0
 11 12  2  0  0  0
 11 13  1  0  0  0
 12 43  1  0  0  0
 13 14  1  0  0  0
 13 44  1  0  0  0
 13 45  1  0  0  0
 14 15  1  0  0  0
 14 19  1  0  0  0
 14 46  1  0  0  0
 15 16  1  0  0  0
 15 34  1  0  0  0
 15 47  1  0  0  0
 16 17  1  0  0  0
 16 22  1  0  0  0
 16 48  1  0  0  0
 17 18  1  0  0  0
 17 49  1  0  0  0
 17 50  1  0  0  0
 18 19  1  0  0  0
 18 20  2  0  0  0
 18 21  2  0  0  0
 19 51  1  0  0  0
 19 52  1  0  0  0
 22 23  1  0  0  0
 22 53  1  0  0  0
 22 54  1  0  0  0
 23 24  1  0  0  0
 23 55  1  0  0  0
 23 56  1  0  0  0
 24 25  2  0  0  0
 24 29  1  0  0  0
 25 26  1  0  0  0
 25 57  1  0  0  0
 26 27  2  0  0  0
 26 30  1  0  0  0
 27 28  1  0  0  0
 27 58  1  0  0  0
 28 29  2  0  0  0
 28 59  1  0  0  0
 29 60  1  0  0  0
 30 31  1  0  0  0
 30 32  1  0  0  0
 30 33  1  0  0  0
 31 61  1  0  0  0
 31 62  1  0  0  0
 31 63  1  0  0  0
 32 64  1  0  0  0
 32 65  1  0  0  0
 32 66  1  0  0  0
 33 67  1  0  0  0
 33 68  1  0  0  0
 33 69  1  0  0  0
 34 70  1  0  0  0
 36 71  1  0  0  0
 36 72  1  0  0  0
 37 38  1  0  0  0
 37 73  1  0  0  0
 37 74  1  0  0  0
 38 39  1  0  0  0
 39 40  1  0  0  0
 39 75  1  0  0  0
 39 76  1  0  0  0
 40 77  1  0  0  0
 40 78  1  0  0  0
 40 79  1  0  0  0
M  CHG  1  22   1
M  END
> <s_m_source_file>
../4d8c_ligand.sdf

> <i_m_source_file_index>
1

> <s_epik_input>
W0NIM11bQ0gyXU9bQ0gyXVtDQEhdKEMoRikoRilGKU9jMWMoW05IMl0pYyhGKVtjSF1jKFtjSF0xKVtDSDJdW0NASF0oW0NIMl0yKVtDQEhdKFtPSF0pW0NASF0oW0NIMl1TMig9Tyk9TylbTkgyK11bQ0gyXWMzW2NIXWMoQyhbQ0gzXSkoW0NIM10pW0NIM10pW2NIXVtjSF1bY0hdMw==

> <s_epik_cmdline>
J2VwaWtfYXBwJywgJy1pbWFlJywgJ2xpZ2FuZF9wcm8ubWFlJywgJy1vbWFlJywgJ2xpZ2FuZF9wcmVwLm1hZScsICctbXMnLCAnMScsICctcGgnLCAnNycsICctcGh0JywgJzAuNScsICctbnQn

> <r_epik_Ionization_Penalty>
  0.1239

> <r_epik_Ionization_Penalty_Charging>
  0.1217

> <r_epik_Ionization_Penalty_Neutral>
  0.0022

> <r_epik_State_Penalty>
  0.1112

> <r_epik_Charging_Adjusted_Penalty>
0.232908908413904

> <i_epik_Tot_Q>
1

> <i_epik_Tot_abs_Q>
1

$$$$
