4d8e_ligand
                    3D
 Schrodinger Suite 2020-3.
 54 53  0  0  1  0            999 V2000
  -17.3590   11.6880   -4.7270 C   0  0  0  0  0  0
  -17.6250   12.8560   -4.2560 O   0  5  0  0  0  0
  -18.2960   10.9420   -5.1210 O   0  0  0  0  0  0
  -15.9630   11.1890   -4.8610 C   0  0  0  0  0  0
  -15.0640   12.2980   -5.2090 C   0  0  2  0  0  0
  -15.4000   12.4930   -6.5950 O   0  0  0  0  0  0
  -13.6210   11.9170   -5.1800 C   0  0  0  0  0  0
  -12.8790   12.0810   -4.1740 O   0  0  0  0  0  0
  -12.9870   11.3280   -6.2910 N   0  0  0  0  0  0
  -11.5430   11.0020   -6.2220 C   0  0  1  0  0  0
  -11.2710    9.5750   -6.6270 C   0  0  0  0  0  0
  -11.9130    8.5280   -5.7200 C   0  0  0  0  0  0
  -11.5420    7.1150   -6.0880 C   0  0  0  0  0  0
  -11.5210    8.7670   -4.2490 C   0  0  0  0  0  0
  -10.7360   12.0110   -7.0420 C   0  0  0  0  0  0
  -11.1720   13.1450   -7.2730 O   0  0  0  0  0  0
   -9.4480   11.6790   -7.5310 N   0  0  0  0  0  0
   -8.6650   12.6830   -8.3030 C   0  0  0  0  0  0
   -7.8610   13.7080   -7.5010 C   0  0  0  0  0  0
   -8.7170   14.7520   -6.7690 C   0  0  0  0  0  0
   -8.1430   16.0660   -6.2490 C   0  0  0  0  0  0
   -7.1500   16.0210   -5.1780 N   0  0  0  0  0  0
   -6.0740   17.0420   -5.1460 C   0  0  0  0  0  0
   -6.0560   17.9850   -6.0930 N   0  0  0  0  0  0
   -5.1550   17.0080   -4.2030 N   0  3  0  0  0  0
  -15.6389   10.7460   -3.9077 H   0  0  0  0  0  0
  -15.9205   10.4266   -5.6528 H   0  0  0  0  0  0
  -15.2023   13.1588   -4.5383 H   0  0  0  0  0  0
  -16.4227   12.7832   -6.8774 H   0  0  0  0  0  0
  -13.5570   11.1098   -7.2062 H   0  0  0  0  0  0
  -11.2451   11.0771   -5.1658 H   0  0  0  0  0  0
  -11.6591    9.4015   -7.6415 H   0  0  0  0  0  0
  -10.1868    9.3900   -6.6126 H   0  0  0  0  0  0
  -12.9981    8.6261   -5.8714 H   0  0  0  0  0  0
  -11.8148    6.9256   -7.1367 H   0  0  0  0  0  0
  -12.0818    6.4125   -5.4360 H   0  0  0  0  0  0
  -10.4584    6.9753   -5.9600 H   0  0  0  0  0  0
  -11.7848    9.7955   -3.9617 H   0  0  0  0  0  0
  -10.4375    8.6194   -4.1297 H   0  0  0  0  0  0
  -12.0609    8.0567   -3.6056 H   0  0  0  0  0  0
   -9.0266   10.6809   -7.3408 H   0  0  0  0  0  0
   -7.9312   12.1658   -8.9386 H   0  0  0  0  0  0
   -9.3461   13.2724   -8.9345 H   0  0  0  0  0  0
   -7.2642   13.1889   -6.7366 H   0  0  0  0  0  0
   -7.1911   14.2591   -8.1774 H   0  0  0  0  0  0
   -9.5282   15.0901   -7.4306 H   0  0  0  0  0  0
   -9.1470   14.3027   -5.8617 H   0  0  0  0  0  0
   -7.6431   16.5987   -7.0714 H   0  0  0  0  0  0
   -8.9568   16.6891   -5.8496 H   0  0  0  0  0  0
   -7.2061   15.2369   -4.4086 H   0  0  0  0  0  0
   -6.8323   17.9968   -6.8723 H   0  0  0  0  0  0
   -5.2649   18.7493   -6.0931 H   0  0  0  0  0  0
   -5.1867   16.2239   -3.4321 H   0  0  0  0  0  0
   -4.3558   17.7637   -4.1863 H   0  0  0  0  0  0
  1  2  1  0  0  0
  1  3  2  0  0  0
  1  4  1  0  0  0
  4  5  1  0  0  0
  4 26  1  0  0  0
  4 27  1  0  0  0
  5  6  1  0  0  0
  5  7  1  0  0  0
  5 28  1  0  0  0
  6 29  1  0  0  0
  7  8  2  0  0  0
  7  9  1  0  0  0
  9 10  1  0  0  0
  9 30  1  0  0  0
 10 11  1  0  0  0
 10 15  1  0  0  0
 10 31  1  0  0  0
 11 12  1  0  0  0
 11 32  1  0  0  0
 11 33  1  0  0  0
 12 13  1  0  0  0
 12 14  1  0  0  0
 12 34  1  0  0  0
 13 35  1  0  0  0
 13 36  1  0  0  0
 13 37  1  0  0  0
 14 38  1  0  0  0
 14 39  1  0  0  0
 14 40  1  0  0  0
 15 16  2  0  0  0
 15 17  1  0  0  0
 17 18  1  0  0  0
 17 41  1  0  0  0
 18 19  1  0  0  0
 18 42  1  0  0  0
 18 43  1  0  0  0
 19 20  1  0  0  0
 19 44  1  0  0  0
 19 45  1  0  0  0
 20 21  1  0  0  0
 20 46  1  0  0  0
 20 47  1  0  0  0
 21 22  1  0  0  0
 21 48  1  0  0  0
 21 49  1  0  0  0
 22 23  1  0  0  0
 22 50  1  0  0  0
 23 24  1  0  0  0
 23 25  2  0  0  0
 24 51  1  0  0  0
 24 52  1  0  0  0
 25 53  1  0  0  0
 25 54  1  0  0  0
M  CHG  2   2  -1  25   1
M  END
> <s_m_source_file>
../4d8e_ligand.sdf

> <i_m_source_file_index>
1

> <s_epik_input>
W09IXUMoPU8pW0NIMl1bQ0BIXShbT0hdKUMoPU8pW05IXVtDQEBIXShbQ0gyXVtDSF0oW0NIM10pW0NIM10pQyg9TylbTkhdW0NIMl1bQ0gyXVtDSDJdW0NIMl1bTkhdL0MoW05IMl0pPU5cW0hd

> <s_epik_cmdline>
J2VwaWtfYXBwJywgJy1pbWFlJywgJ2xpZ2FuZF9wcm8ubWFlJywgJy1vbWFlJywgJ2xpZ2FuZF9wcmVwLm1hZScsICctbXMnLCAnMScsICctcGgnLCAnNycsICctcGh0JywgJzAuNScsICctbnQn

> <r_lp_tautomer_probability>
1

> <r_epik_Ionization_Penalty>
  0.0056

> <r_epik_Ionization_Penalty_Charging>
  0.0056

> <r_epik_Ionization_Penalty_Neutral>
  0.0000

> <r_epik_State_Penalty>
 -0.0000

> <r_epik_Charging_Adjusted_Penalty>
0.00563603758834137

> <i_epik_Tot_Q>
0

> <i_epik_Tot_abs_Q>
2

> <s_epik_Chemistry_Notes>
This compound has an imine and may undergo hydrolysis.

$$$$
