4d8i_ligand
                    3D
 Schrodinger Suite 2020-3.
 75 74  0  0  1  0            999 V2000
    5.9090  -13.2860   -7.9480 C   0  0  0  0  0  0
    5.4340  -12.9720   -6.8490 O   0  0  0  0  0  0
    5.0900  -13.1540   -9.2080 C   0  0  0  0  0  0
    6.9770  -14.0550   -8.0490 N   0  0  0  0  0  0
    7.9640  -14.1980   -6.9800 C   0  0  2  0  0  0
    9.3170  -13.8050   -7.5130 C   0  0  0  0  0  0
   10.2680  -14.6240   -7.5470 O   0  0  0  0  0  0
    8.0080  -15.6460   -6.4150 C   0  0  0  0  0  0
    9.4260  -12.5380   -7.9120 N   0  0  0  0  0  0
   10.5740  -12.1090   -8.7090 C   0  0  2  0  0  0
   11.5170  -11.1910   -7.9810 C   0  0  0  0  0  0
   12.4850  -10.6810   -8.5720 O   0  0  0  0  0  0
   10.1350  -11.4820  -10.0370 C   0  0  0  0  0  0
    9.2320  -12.3710  -10.8650 C   0  0  0  0  0  0
    9.9020  -13.6710  -11.2950 C   0  0  0  0  0  0
   11.1620  -13.7340  -11.3410 O   0  5  0  0  0  0
    9.1590  -14.6460  -11.5750 O   0  0  0  0  0  0
   11.2880  -10.9940   -6.6820 N   0  0  0  0  0  0
   12.2070  -10.1740   -5.8840 C   0  0  2  0  0  0
   13.2230  -11.1140   -5.3090 C   0  0  0  0  0  0
   12.8740  -11.9550   -4.4770 O   0  0  0  0  0  0
   11.4430   -9.3830   -4.7740 C   0  0  2  0  0  0
   10.2260   -8.6190   -5.3320 C   0  0  0  0  0  0
   12.3950   -8.4370   -4.0250 C   0  0  0  0  0  0
   10.5940   -7.5920   -6.4790 C   0  0  0  0  0  0
   16.6460  -11.4390   -4.5950 C   0  0  0  0  0  0
   14.4720  -10.9980   -5.7300 N   0  0  0  0  0  0
   17.4880  -12.3500   -4.2270 O   0  0  0  0  0  0
   15.4650  -11.9640   -5.3370 C   0  0  1  0  0  0
   16.0490  -12.6260   -6.6080 C   0  0  0  0  0  0
   15.4990  -14.1130   -8.6600 C   0  0  0  0  0  0
   14.4370  -14.7830   -9.4830 C   0  0  0  0  0  0
   14.9970  -13.2870   -7.4740 C   0  0  0  0  0  0
   14.8720  -15.8550  -10.3350 N   0  3  0  0  0  0
    4.2286  -12.4967   -9.0182 H   0  0  0  0  0  0
    4.7323  -14.1468   -9.5185 H   0  0  0  0  0  0
    5.7119  -12.7222  -10.0060 H   0  0  0  0  0  0
    7.1061  -14.6034   -8.9938 H   0  0  0  0  0  0
    7.6509  -13.5016   -6.1882 H   0  0  0  0  0  0
    7.0147  -15.9196   -6.0297 H   0  0  0  0  0  0
    8.7449  -15.6993   -5.6001 H   0  0  0  0  0  0
    8.2955  -16.3434   -7.2156 H   0  0  0  0  0  0
    8.6451  -11.8134   -7.6379 H   0  0  0  0  0  0
   11.1175  -13.0508   -8.8752 H   0  0  0  0  0  0
    9.5831  -10.5514   -9.8384 H   0  0  0  0  0  0
   11.0220  -11.2589  -10.6481 H   0  0  0  0  0  0
    8.3394  -12.6347  -10.2787 H   0  0  0  0  0  0
    8.9270  -11.8364  -11.7767 H   0  0  0  0  0  0
   10.4054  -11.4494   -6.2091 H   0  0  0  0  0  0
   12.7050   -9.4505   -6.5463 H   0  0  0  0  0  0
   11.0487  -10.1091   -4.0479 H   0  0  0  0  0  0
    9.5043   -9.3353   -5.7517 H   0  0  0  0  0  0
    9.7479   -8.0490   -4.5218 H   0  0  0  0  0  0
   13.2517   -9.0090   -3.6391 H   0  0  0  0  0  0
   11.8602   -7.9671   -3.1864 H   0  0  0  0  0  0
   12.7544   -7.6579   -4.7134 H   0  0  0  0  0  0
    9.6804   -7.0871   -6.8261 H   0  0  0  0  0  0
   11.0568   -8.1308   -7.3189 H   0  0  0  0  0  0
   11.3005   -6.8445   -6.0890 H   0  0  0  0  0  0
   16.2628  -10.9140   -3.7076 H   0  0  0  0  0  0
   17.1501  -10.7198   -5.2573 H   0  0  0  0  0  0
   14.7502  -10.1581   -6.3836 H   0  0  0  0  0  0
   18.3952  -12.0686   -3.6723 H   0  0  0  0  0  0
   14.8836  -12.5883   -4.6426 H   0  0  0  0  0  0
   16.5520  -11.8633   -7.2206 H   0  0  0  0  0  0
   16.7746  -13.4002   -6.3178 H   0  0  0  0  0  0
   16.1736  -14.8745   -8.2417 H   0  0  0  0  0  0
   16.0740  -13.4228   -9.2949 H   0  0  0  0  0  0
   13.6761  -15.2163   -8.8172 H   0  0  0  0  0  0
   13.9654  -14.0427  -10.1460 H   0  0  0  0  0  0
   14.3995  -13.9784   -6.8616 H   0  0  0  0  0  0
   14.3398  -12.5171   -7.9046 H   0  0  0  0  0  0
   14.0088  -16.2618  -10.8822 H   0  0  0  0  0  0
   15.3254  -16.6487   -9.7231 H   0  0  0  0  0  0
   15.6148  -15.4752  -11.0519 H   0  0  0  0  0  0
  1  2  2  0  0  0
  1  3  1  0  0  0
  1  4  1  0  0  0
  3 35  1  0  0  0
  3 36  1  0  0  0
  3 37  1  0  0  0
  4  5  1  0  0  0
  4 38  1  0  0  0
  5  6  1  0  0  0
  5  8  1  0  0  0
  5 39  1  0  0  0
  6  7  2  0  0  0
  6  9  1  0  0  0
  8 40  1  0  0  0
  8 41  1  0  0  0
  8 42  1  0  0  0
  9 10  1  0  0  0
  9 43  1  0  0  0
 10 11  1  0  0  0
 10 13  1  0  0  0
 10 44  1  0  0  0
 11 12  2  0  0  0
 11 18  1  0  0  0
 13 14  1  0  0  0
 13 45  1  0  0  0
 13 46  1  0  0  0
 14 15  1  0  0  0
 14 47  1  0  0  0
 14 48  1  0  0  0
 15 16  1  0  0  0
 15 17  2  0  0  0
 18 19  1  0  0  0
 18 49  1  0  0  0
 19 20  1  0  0  0
 19 22  1  0  0  0
 19 50  1  0  0  0
 20 21  2  0  0  0
 20 27  1  0  0  0
 22 23  1  0  0  0
 22 24  1  0  0  0
 22 51  1  0  0  0
 23 25  1  0  0  0
 23 52  1  0  0  0
 23 53  1  0  0  0
 24 54  1  0  0  0
 24 55  1  0  0  0
 24 56  1  0  0  0
 25 57  1  0  0  0
 25 58  1  0  0  0
 25 59  1  0  0  0
 26 28  1  0  0  0
 26 29  1  0  0  0
 26 60  1  0  0  0
 26 61  1  0  0  0
 27 29  1  0  0  0
 27 62  1  0  0  0
 28 63  1  0  0  0
 29 30  1  0  0  0
 29 64  1  0  0  0
 30 33  1  0  0  0
 30 65  1  0  0  0
 30 66  1  0  0  0
 31 32  1  0  0  0
 31 33  1  0  0  0
 31 67  1  0  0  0
 31 68  1  0  0  0
 32 34  1  0  0  0
 32 69  1  0  0  0
 32 70  1  0  0  0
 33 71  1  0  0  0
 33 72  1  0  0  0
 34 73  1  0  0  0
 34 74  1  0  0  0
 34 75  1  0  0  0
M  CHG  2  16  -1  34   1
M  END
> <s_m_source_file>
../4d8i_ligand.sdf

> <i_m_source_file_index>
1

> <s_epik_input>
Tz1DKFtDSDNdKVtOSF1bQ0BASF0oW0NIM10pQyg9TylbTkhdW0NAQEhdKFtDSDJdW0NIMl1DKD1PKVtPSF0pQyg9TylbTkhdW0NAQEhdKFtDQEBIXShbQ0gzXSlbQ0gyXVtDSDNdKUMoPU8pW05IXVtDQEhdKFtDSDJdW09IXSlbQ0gyXVtDSDJdW0NIMl1bQ0gyXVtOSDMrXQ==

> <s_epik_cmdline>
J2VwaWtfYXBwJywgJy1pbWFlJywgJ2xpZ2FuZF9wcm8ubWFlJywgJy1vbWFlJywgJ2xpZ2FuZF9wcmVwLm1hZScsICctbXMnLCAnMScsICctcGgnLCAnNycsICctcGh0JywgJzAuNScsICctbnQn

> <r_lp_tautomer_probability>
1

> <r_epik_Ionization_Penalty>
  0.0022

> <r_epik_Ionization_Penalty_Charging>
  0.0022

> <r_epik_Ionization_Penalty_Neutral>
  0.0000

> <r_epik_State_Penalty>
 -0.0000

> <r_epik_Charging_Adjusted_Penalty>
0.00216141483327987

> <i_epik_Tot_Q>
0

> <i_epik_Tot_abs_Q>
2

$$$$
