4d8n_ligand
                    3D
 Schrodinger Suite 2020-3.
 58 61  0  0  1  0            999 V2000
   25.5300   10.9030   35.8850 C   0  0  0  0  0  0
   25.6900   12.2830   35.7850 C   0  0  0  0  0  0
   25.6770   12.8960   34.5360 C   0  0  0  0  0  0
   25.5060   12.1280   33.3870 C   0  0  0  0  0  0
   25.3480   10.7510   33.4870 C   0  0  0  0  0  0
   25.3570   10.1350   34.7380 C   0  0  0  0  0  0
   25.1490    8.6250   34.8600 C   0  0  0  0  0  0
   25.5970    7.9310   33.6370 N   0  0  0  0  0  0
   24.8420    7.7530   32.5620 C   0  0  0  0  0  0
   25.5950    7.1170   31.6680 C   0  0  0  0  0  0
   26.7960    6.9110   32.2060 N   0  3  0  0  0  0
   26.8040    7.4150   33.4340 C   0  0  0  0  0  0
   27.9930    7.3870   34.4060 C   0  0  0  0  0  0
   27.9750    6.1730   35.2520 N   0  0  0  0  0  0
   28.1990    4.9170   34.6670 C   0  0  0  0  0  0
   28.1630    3.7690   35.4450 C   0  0  0  0  0  0
   27.9020    3.8700   36.8120 C   0  0  0  0  0  0
   27.6810    5.1080   37.4010 C   0  0  0  0  0  0
   27.4060    5.1730   38.7350 O   0  0  0  0  0  0
   27.7220    6.2660   36.6340 C   0  0  1  0  0  0
   27.5930    7.6370   37.3010 C   0  0  0  0  0  0
   28.4160    8.5240   37.0580 O   0  0  0  0  0  0
   26.5640    7.7660   38.1320 N   0  0  0  0  0  0
   26.2340    8.8960   38.7660 C   0  0  0  0  0  0
   24.9530    9.0070   39.2900 C   0  0  0  0  0  0
   24.5410   10.1910   39.9060 C   0  0  0  0  0  0
   27.1090    9.9730   38.8620 C   0  0  0  0  0  0
   26.7010   11.1570   39.4790 C   0  0  0  0  0  0
   25.4180   11.2640   39.9980 C   0  0  0  0  0  0
   24.9750   12.5780   40.6570 C   0  0  0  0  0  0
   23.7750   12.3630   41.4760 N   0  3  0  0  0  0
   25.5404   10.4238   36.8640 H   0  0  0  0  0  0
   25.8254   12.8827   36.6851 H   0  0  0  0  0  0
   25.8005   13.9761   34.4570 H   0  0  0  0  0  0
   25.4961   12.6075   32.4082 H   0  0  0  0  0  0
   25.2168   10.1515   32.5862 H   0  0  0  0  0  0
   25.7265    8.2432   35.7148 H   0  0  0  0  0  0
   24.0808    8.4134   35.0154 H   0  0  0  0  0  0
   23.8058    8.0666   32.4351 H   0  0  0  0  0  0
   25.2828    6.8164   30.6679 H   0  0  0  0  0  0
   28.9334    7.3992   33.8354 H   0  0  0  0  0  0
   27.9509    8.2687   35.0623 H   0  0  0  0  0  0
   28.4035    4.8444   33.5886 H   0  0  0  0  0  0
   28.3397    2.7862   34.9836 H   0  0  0  0  0  0
   27.8722    2.9565   37.4241 H   0  0  0  0  0  0
   27.3753    4.2520   39.3357 H   0  0  0  0  0  0
   27.1326    5.4138   36.2647 H   0  0  0  0  0  0
   25.9129    6.9039   38.3392 H   0  0  0  0  0  0
   24.2645    8.1649   39.2202 H   0  0  0  0  0  0
   23.5334   10.2727   40.3136 H   0  0  0  0  0  0
   28.1166    9.8923   38.4541 H   0  0  0  0  0  0
   27.3904   11.9980   39.5533 H   0  0  0  0  0  0
   25.7834   12.9566   41.2998 H   0  0  0  0  0  0
   24.7478   13.3206   39.8779 H   0  0  0  0  0  0
   23.4724   13.3135   41.9397 H   0  0  0  0  0  0
   23.9947   11.6253   42.2618 H   0  0  0  0  0  0
   22.9591   11.9892   40.8399 H   0  0  0  0  0  0
   27.5763    6.3943   31.6280 H   0  0  0  0  0  0
  1  2  2  0  0  0
  1  6  1  0  0  0
  1 32  1  0  0  0
  2  3  1  0  0  0
  2 33  1  0  0  0
  3  4  2  0  0  0
  3 34  1  0  0  0
  4  5  1  0  0  0
  4 35  1  0  0  0
  5  6  2  0  0  0
  5 36  1  0  0  0
  6  7  1  0  0  0
  7  8  1  0  0  0
  7 37  1  0  0  0
  7 38  1  0  0  0
  8  9  1  0  0  0
  8 12  1  0  0  0
  9 10  2  0  0  0
  9 39  1  0  0  0
 10 11  1  0  0  0
 10 40  1  0  0  0
 11 12  2  0  0  0
 11 58  1  0  0  0
 12 13  1  0  0  0
 13 14  1  0  0  0
 13 41  1  0  0  0
 13 42  1  0  0  0
 14 15  1  0  0  0
 14 20  1  0  0  0
 15 16  2  0  0  0
 15 43  1  0  0  0
 16 17  1  0  0  0
 16 44  1  0  0  0
 17 18  2  0  0  0
 17 45  1  0  0  0
 18 19  1  0  0  0
 18 20  1  0  0  0
 19 46  1  0  0  0
 20 21  1  0  0  0
 20 47  1  0  0  0
 21 22  2  0  0  0
 21 23  1  0  0  0
 23 24  1  0  0  0
 23 48  1  0  0  0
 24 25  2  0  0  0
 24 27  1  0  0  0
 25 26  1  0  0  0
 25 49  1  0  0  0
 26 29  2  0  0  0
 26 50  1  0  0  0
 27 28  2  0  0  0
 27 51  1  0  0  0
 28 29  1  0  0  0
 28 52  1  0  0  0
 29 30  1  0  0  0
 30 31  1  0  0  0
 30 53  1  0  0  0
 30 54  1  0  0  0
 31 55  1  0  0  0
 31 56  1  0  0  0
 31 57  1  0  0  0
M  CHG  2  11   1  31   1
M  END
> <s_m_source_file>
../4d8n_ligand.sdf

> <i_m_source_file_index>
1

> <s_epik_input>
W2NIXTFbY0hdW2NIXVtjSF1bY0hdYzFbQ0gyXW4yW2NIXVtjSF1uYzJbQ0gyXU4zW0NIXT1bQ0hdW0NIXT1DKFtPSF0pW0NASF0zQyg9TylbTkhdYzRbY0hdW2NIXWMoW2NIXVtjSF00KVtDSDJdW05IMytd

> <s_epik_cmdline>
J2VwaWtfYXBwJywgJy1pbWFlJywgJ2xpZ2FuZF9wcm8ubWFlJywgJy1vbWFlJywgJ2xpZ2FuZF9wcmVwLm1hZScsICctbXMnLCAnMScsICctcGgnLCAnNycsICctcGh0JywgJzAuNScsICctbnQn

> <r_lp_tautomer_probability>
1

> <r_epik_Ionization_Penalty>
  0.2684

> <r_epik_Ionization_Penalty_Charging>
  0.0260

> <r_epik_Ionization_Penalty_Neutral>
  0.2424

> <r_epik_State_Penalty>
 -0.0000

> <r_epik_Charging_Adjusted_Penalty>
0.026023327847928

> <i_epik_Tot_Q>
2

> <i_epik_Tot_abs_Q>
2

$$$$
