4d8s_ligand
                    3D
 Schrodinger Suite 2020-3.
 40 40  0  0  1  0            999 V2000
  -26.6740  -22.0990  -11.4440 C   0  0  0  0  0  0
  -26.1270  -23.1890  -10.5210 C   0  0  0  0  0  0
  -24.0740  -19.8010  -11.9140 C   0  0  2  0  0  0
  -23.7740  -18.3310  -11.6670 C   0  0  1  0  0  0
  -22.2770  -20.4560  -10.5560 C   0  0  0  0  0  0
  -21.5810  -21.6300   -9.8620 C   0  0  0  0  0  0
  -21.5920  -19.2800  -10.8400 C   0  0  0  0  0  0
  -22.2610  -18.1200  -11.5780 C   0  0  2  0  0  0
  -25.2450  -16.6420  -12.7420 C   0  0  0  0  0  0
  -25.5530  -15.9500  -14.0680 C   0  0  0  0  0  0
  -24.2660  -17.5440  -12.8040 N   0  0  0  0  0  0
  -25.5600  -21.4390  -12.2420 C   0  0  0  0  0  0
  -26.1520  -23.0370  -14.0550 C   0  0  0  0  0  0
  -25.8430  -21.5720  -13.7400 C   0  0  0  0  0  0
  -25.4680  -20.0680  -11.8920 O   0  0  0  0  0  0
  -23.5940  -20.5990  -10.8520 O   0  0  0  0  0  0
  -20.4540  -21.4680   -9.3560 O   0  5  0  0  0  0
  -22.1930  -22.7150   -9.8380 O   0  0  0  0  0  0
  -21.9460  -16.8870  -10.9260 O   0  0  0  0  0  0
  -25.8760  -16.3660  -11.7290 O   0  0  0  0  0  0
  -27.3934  -22.5420  -12.1484 H   0  0  0  0  0  0
  -27.1773  -21.3277  -10.8425 H   0  0  0  0  0  0
  -26.9563  -23.6447   -9.9601 H   0  0  0  0  0  0
  -25.4076  -22.7460   -9.8166 H   0  0  0  0  0  0
  -25.6237  -23.9603  -11.1225 H   0  0  0  0  0  0
  -23.6299  -20.0940  -12.8768 H   0  0  0  0  0  0
  -24.2839  -17.9972  -10.7512 H   0  0  0  0  0  0
  -20.5420  -19.1670  -10.5322 H   0  0  0  0  0  0
  -21.8487  -18.0124  -12.5921 H   0  0  0  0  0  0
  -24.8803  -16.3361  -14.8480 H   0  0  0  0  0  0
  -25.4039  -14.8656  -13.9590 H   0  0  0  0  0  0
  -26.5967  -16.1499  -14.3521 H   0  0  0  0  0  0
  -23.8197  -17.6787  -13.8003 H   0  0  0  0  0  0
  -24.5832  -21.8716  -11.9800 H   0  0  0  0  0  0
  -26.3574  -23.1454  -15.1302 H   0  0  0  0  0  0
  -27.0326  -23.3580  -13.4793 H   0  0  0  0  0  0
  -25.2881  -23.6608  -13.7820 H   0  0  0  0  0  0
  -26.7051  -20.9433  -14.0075 H   0  0  0  0  0  0
  -24.9606  -21.2462  -14.3102 H   0  0  0  0  0  0
  -22.3430  -15.9396  -11.3196 H   0  0  0  0  0  0
  1  2  1  0  0  0
  1 12  1  0  0  0
  1 21  1  0  0  0
  1 22  1  0  0  0
  2 23  1  0  0  0
  2 24  1  0  0  0
  2 25  1  0  0  0
  3  4  1  0  0  0
  3 15  1  0  0  0
  3 16  1  0  0  0
  3 26  1  0  0  0
  4  8  1  0  0  0
  4 11  1  0  0  0
  4 27  1  0  0  0
  5  6  1  0  0  0
  5  7  2  0  0  0
  5 16  1  0  0  0
  6 17  1  0  0  0
  6 18  2  0  0  0
  7  8  1  0  0  0
  7 28  1  0  0  0
  8 19  1  0  0  0
  8 29  1  0  0  0
  9 10  1  0  0  0
  9 11  1  0  0  0
  9 20  2  0  0  0
 10 30  1  0  0  0
 10 31  1  0  0  0
 10 32  1  0  0  0
 11 33  1  0  0  0
 12 14  1  0  0  0
 12 15  1  0  0  0
 12 34  1  0  0  0
 13 14  1  0  0  0
 13 35  1  0  0  0
 13 36  1  0  0  0
 13 37  1  0  0  0
 14 38  1  0  0  0
 14 39  1  0  0  0
 19 40  1  0  0  0
M  CHG  1  17  -1
M  END
> <s_m_source_file>
../4d8s_ligand.sdf

> <i_m_source_file_index>
1

> <s_epik_input>
W0NIM11bQ0gyXVtDSF0oW0NIMl1bQ0gzXSlPW0NASF0xW0NASF0oW05IXUMoPU8pW0NIM10pW0NAQEhdKFtPSF0pW0NIXT1DKE8xKUMoPU8pW09IXQ==

> <s_epik_cmdline>
J2VwaWtfYXBwJywgJy1pbWFlJywgJ2xpZ2FuZF9wcm8ubWFlJywgJy1vbWFlJywgJ2xpZ2FuZF9wcmVwLm1hZScsICctbXMnLCAnMScsICctcGgnLCAnNycsICctcGh0JywgJzAuNScsICctbnQn

> <r_lp_tautomer_probability>
1

> <r_epik_Ionization_Penalty>
  0.0002

> <r_epik_Ionization_Penalty_Charging>
  0.0002

> <r_epik_Ionization_Penalty_Neutral>
  0.0000

> <r_epik_State_Penalty>
 -0.0000

> <r_epik_Charging_Adjusted_Penalty>
0.000216807625236332

> <i_epik_Tot_Q>
-1

> <i_epik_Tot_abs_Q>
1

> <s_epik_Chemistry_Notes>
This compound contains an acetal/aminal-like group ( X-CH(R)-Y where X, Y are N, S, or O) that may be acid/base labile, releasing an aldehyde.

$$$$
