4d9p_ligand
                    3D
 Schrodinger Suite 2020-3.
 34 35  0  0  1  0            999 V2000
  -11.8640   26.7250    9.5380 C   0  0  0  0  0  0
  -13.2480   26.6130   10.1000 C   0  0  0  0  0  0
  -13.2860   27.2900    5.9880 C   0  0  0  0  0  0
  -16.6900   24.3970    2.3710 N   0  0  0  0  0  0
  -15.5880   26.5570    3.0140 N   0  0  0  0  0  0
  -14.1450   23.2880    6.5820 C   0  0  0  0  0  0
  -12.7260   26.5460    7.1400 C   0  0  0  0  0  0
  -10.3880   27.0790    7.6910 C   0  0  0  0  0  0
  -12.9960   28.6130    5.8320 O   0  0  0  0  0  0
  -13.0380   25.2870    7.2560 N   0  0  0  0  0  0
  -13.6240   25.4770   10.5140 O   0  0  0  0  0  0
  -15.8560   25.1520    3.2490 C   0  0  0  0  0  0
  -14.5190   28.5930    3.6090 O   0  0  0  0  0  0
  -15.2800   24.5620    4.3600 N   0  0  0  0  0  0
  -14.0190   27.6220   10.1270 O   0  5  0  0  0  0
  -14.4650   25.2800    5.2040 C   0  0  0  0  0  0
  -14.1750   26.6140    5.0040 C   0  0  0  0  0  0
  -13.8570   24.6730    6.3600 N   0  3  1  0  0  0
  -14.7590   27.2720    3.8670 C   0  0  0  0  0  0
  -11.8140   27.2400    8.1270 C   0  0  2  0  0  0
  -11.2722   27.4164   10.1559 H   0  0  0  0  0  0
  -11.3870   25.7338    9.5376 H   0  0  0  0  0  0
  -17.1414   24.8791    1.4913 H   0  0  0  0  0  0
  -16.8814   23.3330    2.5739 H   0  0  0  0  0  0
  -16.0434   27.0672    2.1525 H   0  0  0  0  0  0
  -13.6250   22.9462    7.4891 H   0  0  0  0  0  0
  -13.8017   22.6992    5.7186 H   0  0  0  0  0  0
  -15.2295   23.1548    6.7088 H   0  0  0  0  0  0
   -9.7257   27.5841    8.4095 H   0  0  0  0  0  0
  -10.2566   27.5258    6.6944 H   0  0  0  0  0  0
  -10.1359   26.0091    7.6493 H   0  0  0  0  0  0
  -12.3400   29.1211    6.5541 H   0  0  0  0  0  0
  -12.1669   28.2818    8.1361 H   0  0  0  0  0  0
  -14.7306   24.9520    6.9674 H   0  0  0  0  0  0
  1  2  1  0  0  0
  1 20  1  0  0  0
  1 21  1  0  0  0
  1 22  1  0  0  0
  2 11  2  0  0  0
  2 15  1  0  0  0
  3  7  2  0  0  0
  3  9  1  0  0  0
  3 17  1  0  0  0
  4 12  1  0  0  0
  4 23  1  0  0  0
  4 24  1  0  0  0
  5 12  1  0  0  0
  5 19  1  0  0  0
  5 25  1  0  0  0
  6 18  1  0  0  0
  6 26  1  0  0  0
  6 27  1  0  0  0
  6 28  1  0  0  0
  7 10  1  0  0  0
  7 20  1  0  0  0
  8 20  1  0  0  0
  8 29  1  0  0  0
  8 30  1  0  0  0
  8 31  1  0  0  0
  9 32  1  0  0  0
 10 18  1  0  0  0
 12 14  2  0  0  0
 13 19  2  0  0  0
 14 16  1  0  0  0
 16 17  2  0  0  0
 16 18  1  0  0  0
 17 19  1  0  0  0
 18 34  1  0  0  0
 20 33  1  0  0  0
M  CHG  2  15  -1  18   1
M  END
> <s_m_source_file>
../4d9p_ligand.sdf

> <i_m_source_file_index>
1

> <s_epik_input>
Tz1DKFtPSF0pW0NIMl1bQ0BASF0oW0NIM10pQyhbTkhdTjFbQ0gzXSk9QyhbT0hdKWMoYzEyKWMoPU8pW25IXWMobjIpW05IMl0=

> <s_epik_cmdline>
J2VwaWtfYXBwJywgJy1pbWFlJywgJ2xpZ2FuZF9wcm8ubWFlJywgJy1vbWFlJywgJ2xpZ2FuZF9wcmVwLm1hZScsICctbXMnLCAnMScsICctcGgnLCAnNycsICctcGh0JywgJzAuNScsICctbnQn

> <r_epik_Ionization_Penalty>
  0.0811

> <r_epik_Ionization_Penalty_Charging>
  0.0097

> <r_epik_Ionization_Penalty_Neutral>
  0.0714

> <r_epik_State_Penalty>
  0.0208

> <r_epik_Charging_Adjusted_Penalty>
0.0305008442580031

> <i_epik_Tot_Q>
0

> <i_epik_Tot_abs_Q>
2

$$$$
