4da5_ligand
                    3D
 Schrodinger Suite 2020-3.
 40 43  0  0  1  0            999 V2000
  -10.2100  -12.7890    7.1080 O   0  0  0  0  0  0
  -10.8920  -13.9480    6.6050 C   0  0  0  0  0  0
  -10.8120  -14.0220    5.0430 C   0  0  1  0  0  0
  -11.2320  -12.6860    4.4020 C   0  0  0  0  0  0
  -10.1060  -12.1440    3.6070 N   0  3  1  0  0  0
   -8.9150  -11.9230    4.4600 C   0  0  0  0  0  0
   -8.3790  -13.2850    4.9510 C   0  0  0  0  0  0
   -9.3740  -14.3930    4.5360 C   0  0  2  0  0  0
   -9.3990  -14.4350    2.9930 C   0  0  0  0  0  0
   -9.7750  -13.0310    2.4680 C   0  0  0  0  0  0
  -10.3080  -15.1820    7.1840 C   0  0  0  0  0  0
  -10.5590  -16.4160    6.7440 C   0  0  0  0  0  0
   -9.9680  -17.4180    7.4730 C   0  0  0  0  0  0
   -9.3000  -17.0010    8.5380 C   0  0  0  0  0  0
   -8.4790  -18.0310    9.6440 Cl  0  0  0  0  0  0
   -9.3540  -15.2490    8.6460 S   0  0  0  0  0  0
  -12.3220  -13.9020    7.1000 C   0  0  0  0  0  0
  -12.7100  -13.4440    8.2990 C   0  0  0  0  0  0
  -14.0670  -13.5230    8.5470 C   0  0  0  0  0  0
  -14.7770  -14.1210    7.5830 C   0  0  0  0  0  0
  -16.5060  -14.3680    7.5850 Cl  0  0  0  0  0  0
  -13.7050  -14.5880    6.2740 S   0  0  0  0  0  0
   -9.1498  -12.6258    6.8645 H   0  0  0  0  0  0
  -11.5189  -14.8050    4.7310 H   0  0  0  0  0  0
  -12.0987  -12.8510    3.7450 H   0  0  0  0  0  0
  -11.5017  -11.9692    5.1916 H   0  0  0  0  0  0
  -10.4241  -11.1736    3.1981 H   0  0  0  0  0  0
   -8.1364  -11.4096    3.8767 H   0  0  0  0  0  0
   -9.1935  -11.3034    5.3252 H   0  0  0  0  0  0
   -7.3963  -13.4779    4.4959 H   0  0  0  0  0  0
   -8.2786  -13.2663    6.0462 H   0  0  0  0  0  0
   -9.0589  -15.3604    4.9541 H   0  0  0  0  0  0
   -8.4054  -14.7215    2.6179 H   0  0  0  0  0  0
  -10.1438  -15.1720    2.6583 H   0  0  0  0  0  0
  -10.6462  -13.1123    1.8014 H   0  0  0  0  0  0
   -8.9249  -12.6105    1.9107 H   0  0  0  0  0  0
  -11.1846  -16.6134    5.8735 H   0  0  0  0  0  0
  -10.0424  -18.4701    7.1980 H   0  0  0  0  0  0
  -12.0058  -13.0386    9.0256 H   0  0  0  0  0  0
  -14.5229  -13.1296    9.4555 H   0  0  0  0  0  0
  1  2  1  0  0  0
  1 23  1  0  0  0
  2  3  1  0  0  0
  2 11  1  0  0  0
  2 17  1  0  0  0
  3  4  1  0  0  0
  3  8  1  0  0  0
  3 24  1  0  0  0
  4  5  1  0  0  0
  4 25  1  0  0  0
  4 26  1  0  0  0
  5  6  1  0  0  0
  5 10  1  0  0  0
  5 27  1  0  0  0
  6  7  1  0  0  0
  6 28  1  0  0  0
  6 29  1  0  0  0
  7  8  1  0  0  0
  7 30  1  0  0  0
  7 31  1  0  0  0
  8  9  1  0  0  0
  8 32  1  0  0  0
  9 10  1  0  0  0
  9 33  1  0  0  0
  9 34  1  0  0  0
 10 35  1  0  0  0
 10 36  1  0  0  0
 11 12  2  0  0  0
 11 16  1  0  0  0
 12 13  1  0  0  0
 12 37  1  0  0  0
 13 14  2  0  0  0
 13 38  1  0  0  0
 14 15  1  0  0  0
 14 16  1  0  0  0
 17 18  2  0  0  0
 17 22  1  0  0  0
 18 19  1  0  0  0
 18 39  1  0  0  0
 19 20  2  0  0  0
 19 40  1  0  0  0
 20 21  1  0  0  0
 20 22  1  0  0  0
M  CHG  1   5   1
M  END
> <s_m_source_file>
../4da5_ligand.sdf

> <i_m_source_file_index>
1

> <s_epik_input>
Q2xjKHMxKVtjSF1bY0hdYzFDKFtPSF0pKFtDQEBIXShbQ0gyXVtOQEBIK10yMylbQ0BIXShbQ0gyXVtDSDJdMilbQ0gyXVtDSDJdMyljNFtjSF1bY0hdYyhDbClzNA==

> <s_epik_cmdline>
J2VwaWtfYXBwJywgJy1pbWFlJywgJ2xpZ2FuZF9wcm8ubWFlJywgJy1vbWFlJywgJ2xpZ2FuZF9wcmVwLm1hZScsICctbXMnLCAnMScsICctcGgnLCAnNycsICctcGh0JywgJzAuNScsICctbnQn

> <r_lp_tautomer_probability>
1

> <r_epik_Ionization_Penalty>
  0.0013

> <r_epik_Ionization_Penalty_Charging>
  0.0012

> <r_epik_Ionization_Penalty_Neutral>
  0.0000

> <r_epik_State_Penalty>
 -0.0000

> <r_epik_Charging_Adjusted_Penalty>
0.00124910469905514

> <i_epik_Tot_Q>
1

> <i_epik_Tot_abs_Q>
1

$$$$
