4dai_ligand
                    3D
 Schrodinger Suite 2020-3.
 21 22  0  0  1  0            999 V2000
  -13.5680   26.8550    9.8480 O   0  5  0  0  0  0
  -12.5280   27.1500    9.1940 C   0  0  0  0  0  0
  -12.0430   28.3130    9.1790 O   0  0  0  0  0  0
  -11.8480   26.0540    8.3760 C   0  0  0  0  0  0
  -12.7390   25.5090    7.2640 C   0  0  0  0  0  0
  -13.2400   26.3780    6.1400 C   0  0  0  0  0  0
  -12.9430   27.5880    6.0800 O   0  0  0  0  0  0
  -14.1170   25.7200    5.0980 C   0  0  0  0  0  0
  -14.7190   26.4000    3.8960 C   0  0  0  0  0  0
  -14.5280   27.6080    3.6670 O   0  5  0  0  0  0
  -13.0970   24.1850    7.2800 N   0  0  0  0  0  0
  -13.9260   23.5680    6.2950 N   0  0  0  0  0  0
  -14.4290   24.2500    5.2480 C   0  0  0  0  0  0
  -15.2260   23.6410    4.3120 N   0  0  0  0  0  0
  -15.7420   24.3210    3.2440 C   0  0  0  0  0  0
  -16.5200   23.6480    2.3640 N   0  0  0  0  0  0
  -15.4960   25.6590    3.0430 N   0  0  0  0  0  0
  -10.9365   26.4564    7.9100 H   0  0  0  0  0  0
  -11.5826   25.2150    9.0361 H   0  0  0  0  0  0
  -16.7228   22.5776    2.5158 H   0  0  0  0  0  0
  -16.9494   24.1716    1.4971 H   0  0  0  0  0  0
  1  2  1  0  0  0
  2  3  2  0  0  0
  2  4  1  0  0  0
  4  5  1  0  0  0
  4 18  1  0  0  0
  4 19  1  0  0  0
  5  6  1  0  0  0
  5 11  2  0  0  0
  6  7  2  0  0  0
  6  8  1  0  0  0
  8  9  2  0  0  0
  8 13  1  0  0  0
  9 10  1  0  0  0
  9 17  1  0  0  0
 11 12  1  0  0  0
 12 13  2  0  0  0
 13 14  1  0  0  0
 14 15  2  0  0  0
 15 16  1  0  0  0
 15 17  1  0  0  0
 16 20  1  0  0  0
 16 21  1  0  0  0
M  CHG  2   1  -1  10  -1
M  END
> <s_m_source_file>
../4dai_ligand.sdf

> <i_m_source_file_index>
1

> <s_epik_input>
W09IXUMoPU8pW0NIMl1DKEMxPU8pPU5OPUMoW0NIXTEyKVtOSF0vQyg9Ti9bSF0pW05IXUMyPU8=

> <s_epik_cmdline>
J2VwaWtfYXBwJywgJy1pbWFlJywgJ2xpZ2FuZF9wcm8ubWFlJywgJy1vbWFlJywgJ2xpZ2FuZF9wcmVwLm1hZScsICctbXMnLCAnMScsICctcGgnLCAnNycsICctcGh0JywgJzAuNScsICctbnQn

> <r_epik_Ionization_Penalty>
  2.1202

> <r_epik_Ionization_Penalty_Charging>
  0.0237

> <r_epik_Ionization_Penalty_Neutral>
  2.0965

> <r_epik_State_Penalty>
  0.1610

> <r_epik_Charging_Adjusted_Penalty>
0.184702958759626

> <i_epik_Tot_Q>
-2

> <i_epik_Tot_abs_Q>
2

> <s_epik_Chemistry_Notes>
This compound has an imine and may undergo hydrolysis.

$$$$
