4daw_ligand
                    3D
 Schrodinger Suite 2020-3.
 49 55  0  0  1  0            999 V2000
   16.8000   35.7470  -12.7020 O   0  0  0  0  0  0
   15.6160   35.2540  -12.6970 C   0  0  0  0  0  0
   14.9010   35.0320  -13.8700 C   0  0  0  0  0  0
   14.9590   34.9210  -11.5580 N   0  0  0  0  0  0
   13.7890   34.4720  -12.0600 C   0  0  0  0  0  0
   12.6570   33.9570  -11.2710 O   0  0  0  0  0  0
   13.7010   34.5100  -13.4300 C   0  0  0  0  0  0
   12.6940   34.1320  -14.2910 C   0  0  0  0  0  0
   12.9560   34.3400  -15.6340 C   0  0  0  0  0  0
   14.1650   34.8500  -16.1340 C   0  0  0  0  0  0
   15.1680   35.2190  -15.2270 C   0  0  0  0  0  0
   14.3230   35.0010  -17.6320 C   0  0  0  0  0  0
   13.3070   34.6290  -18.4480 N   0  0  0  0  0  0
   13.3870   34.7270  -19.7910 C   0  0  0  0  0  0
   14.5430   35.2450  -20.3860 C   0  0  0  0  0  0
   15.6060   35.6450  -19.5800 C   0  0  0  0  0  0
   15.4980   35.5180  -18.1910 C   0  0  0  0  0  0
   10.4900   35.6220  -17.5660 N   0  0  0  0  0  0
    9.4380   36.4910  -17.7030 C   0  0  0  0  0  0
    8.1920   37.4490  -17.8240 S   0  0  0  0  0  0
   10.4220   33.0110  -19.2480 S   0  0  0  0  0  0
    9.1920   32.1460  -18.5110 C   0  0  0  0  0  0
    8.6390   32.8360  -17.2670 C   0  0  0  0  0  0
    9.8540   32.8170  -15.9890 S   0  0  0  0  0  0
   10.4160   31.1350  -15.9310 C   0  0  0  0  0  0
   11.9420   31.0080  -15.8990 C   0  0  0  0  0  0
   12.7770   31.6850  -17.3020 S   0  0  0  0  0  0
   11.9730   30.9120  -18.6720 C   0  0  0  0  0  0
   11.6250   31.9570  -19.7340 C   0  0  0  0  0  0
   11.5940   33.7930  -17.3700 Ru  0  0  0  0  0  0
   15.4445   35.0636  -10.5813 H   0  0  0  0  0  0
   11.7572   33.6997  -13.9393 H   0  0  0  0  0  0
   16.1165   35.6345  -15.5672 H   0  0  0  0  0  0
   12.5446   34.4002  -20.4184 H   0  0  0  0  0  0
   14.6060   35.3331  -21.4807 H   0  0  0  0  0  0
   16.5127   36.0528  -20.0268 H   0  0  0  0  0  0
   16.3300   35.8218  -17.5387 H   0  0  0  0  0  0
    8.3598   32.0166  -19.2186 H   0  0  0  0  0  0
    9.5699   31.1593  -18.2051 H   0  0  0  0  0  0
    8.3806   33.8773  -17.5096 H   0  0  0  0  0  0
    7.7389   32.3055  -16.9230 H   0  0  0  0  0  0
   10.0237   30.6483  -15.0259 H   0  0  0  0  0  0
   10.0571   30.5976  -16.8211 H   0  0  0  0  0  0
   12.3351   31.5319  -15.0152 H   0  0  0  0  0  0
   12.2205   29.9450  -15.8491 H   0  0  0  0  0  0
   12.6424   30.1583  -19.1123 H   0  0  0  0  0  0
   11.0487   30.4251  -18.3277 H   0  0  0  0  0  0
   11.2986   31.4190  -20.6362 H   0  0  0  0  0  0
   12.5412   32.5237  -19.9564 H   0  0  0  0  0  0
  1  2  2  0  0  0
  2  3  1  0  0  0
  2  4  1  0  0  0
  3  7  2  0  0  0
  3 11  1  0  0  0
  4  5  1  0  0  0
  4 31  1  0  0  0
  5  6  2  0  0  0
  5  7  1  0  0  0
  7  8  1  0  0  0
  8  9  2  0  0  0
  8 32  1  0  0  0
  9 10  1  0  0  0
  9 30  1  0  0  0
 10 11  2  0  0  0
 10 12  1  0  0  0
 11 33  1  0  0  0
 12 13  1  0  0  0
 12 17  2  0  0  0
 13 14  1  0  0  0
 13 30  1  0  0  0
 14 15  2  0  0  0
 14 34  1  0  0  0
 15 16  1  0  0  0
 15 35  1  0  0  0
 16 17  1  0  0  0
 16 36  1  0  0  0
 17 37  1  0  0  0
 18 19  2  0  0  0
 18 30  1  0  0  0
 19 20  2  0  0  0
 21 22  1  0  0  0
 21 29  1  0  0  0
 21 30  1  0  0  0
 22 23  1  0  0  0
 22 38  1  0  0  0
 22 39  1  0  0  0
 23 24  1  0  0  0
 23 40  1  0  0  0
 23 41  1  0  0  0
 24 25  1  0  0  0
 24 30  1  0  0  0
 25 26  1  0  0  0
 25 42  1  0  0  0
 25 43  1  0  0  0
 26 27  1  0  0  0
 26 44  1  0  0  0
 26 45  1  0  0  0
 27 28  1  0  0  0
 27 30  1  0  0  0
 28 29  1  0  0  0
 28 46  1  0  0  0
 28 47  1  0  0  0
 29 48  1  0  0  0
 29 49  1  0  0  0
M  END
> <s_m_source_file>
../4daw_ligand.sdf

> <i_m_source_file_index>
1

> <s_epik_input>
Tz1DMVtOSF1DKD1PKWMoW2NIXTIpYzFbY0hdYyhDPTNONFtDSF09W0NIXVtDSDJdW0NIXTMpYzJbUnVdNDU2KE49Qz1TKVtTSF03W0NIMl1bQ0gyXVtTSF01W0NIMl1bQ0gyXVtTSF02W0NIMl1bQ0gyXTc=

> <s_epik_cmdline>
J2VwaWtfYXBwJywgJy1pbWFlJywgJ2xpZ2FuZF9wcm8ubWFlJywgJy1vbWFlJywgJ2xpZ2FuZF9wcmVwLm1hZScsICctbXMnLCAnMScsICctcGgnLCAnNycsICctcGh0JywgJzAuNScsICctbnQn

> <r_epik_Ionization_Penalty>
  0.0181

> <r_epik_Ionization_Penalty_Charging>
  0.0000

> <r_epik_Ionization_Penalty_Neutral>
  0.0181

> <r_epik_State_Penalty>
  0.0144

> <r_epik_Charging_Adjusted_Penalty>
0.0144243653341423

> <i_epik_Tot_Q>
0

> <i_epik_Tot_abs_Q>
0

> <s_epik_Chemistry_Notes>
This compound has an imine and may undergo hydrolysis.

$$$$
