4db7_ligand
                    3D
 Schrodinger Suite 2020-3.
 25 26  0  0  1  0            999 V2000
  -14.2740   28.5950    9.4070 O   0  5  0  0  0  0
  -13.1090   28.1590    9.7350 C   0  0  0  0  0  0
  -12.1650   29.0210    9.8450 O   0  0  0  0  0  0
  -12.7590   26.6870    9.5810 C   0  0  0  0  0  0
  -12.0800   26.3060    8.2930 C   0  0  0  0  0  0
  -12.9500   25.7920    7.1560 C   0  0  0  0  0  0
  -13.4960   26.6180    6.1350 C   0  0  0  0  0  0
  -13.2260   27.9720    6.1200 O   0  0  0  0  0  0
  -14.3710   25.9900    5.1530 C   0  0  0  0  0  0
  -14.9930   26.6730    4.0930 C   0  0  0  0  0  0
  -14.7480   28.0100    3.9190 O   0  5  0  0  0  0
  -13.2850   24.4970    7.1560 N   0  0  0  0  0  0
  -14.1050   23.9170    6.2660 N   0  0  0  0  0  0
  -14.6830   24.6070    5.2790 C   0  0  0  0  0  0
  -15.4970   23.9780    4.3800 N   0  0  0  0  0  0
  -16.0200   24.6750    3.3550 C   0  0  0  0  0  0
  -16.8770   23.9900    2.4510 N   0  0  0  0  0  0
  -15.8270   26.0160    3.2330 N   0  0  0  0  0  0
  -12.0759   26.3861   10.3890 H   0  0  0  0  0  0
  -13.6776   26.0842    9.6339 H   0  0  0  0  0  0
  -11.5571   27.1818    7.8812 H   0  0  0  0  0  0
  -11.3540   25.5023    8.4850 H   0  0  0  0  0  0
  -17.0303   22.9055    2.5532 H   0  0  0  0  0  0
  -17.3868   24.5444    1.6493 H   0  0  0  0  0  0
  -16.3457   26.5715    2.4378 H   0  0  0  0  0  0
  1  2  1  0  0  0
  2  3  2  0  0  0
  2  4  1  0  0  0
  4  5  1  0  0  0
  4 19  1  0  0  0
  4 20  1  0  0  0
  5  6  1  0  0  0
  5 21  1  0  0  0
  5 22  1  0  0  0
  6  7  1  0  0  0
  6 12  2  0  0  0
  7  8  2  0  0  0
  7  9  1  0  0  0
  9 10  2  0  0  0
  9 14  1  0  0  0
 10 11  1  0  0  0
 10 18  1  0  0  0
 12 13  1  0  0  0
 13 14  2  0  0  0
 14 15  1  0  0  0
 15 16  2  0  0  0
 16 17  1  0  0  0
 16 18  1  0  0  0
 17 23  1  0  0  0
 17 24  1  0  0  0
 18 25  1  0  0  0
M  CHG  2   1  -1  11  -1
M  END
> <s_m_source_file>
../4db7_ligand.sdf

> <i_m_source_file_index>
1

> <s_epik_input>
W09IXUMoPU8pW0NIMl1bQ0gyXWMoYzFbT0hdKW5uYyhjMTIpbmMoW05IMl0pW25IXWMyPU8=

> <s_epik_cmdline>
J2VwaWtfYXBwJywgJy1pbWFlJywgJ2xpZ2FuZF9wcm8ubWFlJywgJy1vbWFlJywgJ2xpZ2FuZF9wcmVwLm1hZScsICctbXMnLCAnMScsICctcGgnLCAnNycsICctcGh0JywgJzAuNScsICctbnQn

> <r_lp_tautomer_probability>
1

> <r_epik_Ionization_Penalty>
  0.0362

> <r_epik_Ionization_Penalty_Charging>
  0.0347

> <r_epik_Ionization_Penalty_Neutral>
  0.0015

> <r_epik_State_Penalty>
 -0.0000

> <r_epik_Charging_Adjusted_Penalty>
0.0347023745389014

> <i_epik_Tot_Q>
-2

> <i_epik_Tot_abs_Q>
2

$$$$
