4dbm_ligand
                    3D
 Schrodinger Suite 2020-3.
 55 59  0  0  1  0            999 V2000
  -25.2160   22.1490   -9.3570 C   0  0  0  0  0  0
  -25.4770   22.4260   -6.8170 C   0  0  1  0  0  0
  -25.9870   24.7180   -5.8880 C   0  0  2  0  0  0
  -26.6730   22.8920   -4.6530 C   0  0  1  0  0  0
  -26.4060   21.8900   -5.7140 C   0  0  0  0  0  0
  -27.5150   25.0130   -4.1410 C   0  0  0  0  0  0
  -21.8110   24.6070  -13.0760 C   0  0  0  0  0  0
  -21.6390   25.7430  -13.4920 O   0  0  0  0  0  0
  -20.6640   23.7910  -12.7260 N   0  0  0  0  0  0
  -19.3580   24.3280  -12.8780 C   0  0  0  0  0  0
  -23.2130   24.0450  -12.9240 C   0  0  0  0  0  0
  -23.4360   22.6870  -12.4240 C   0  0  0  0  0  0
  -22.2450   21.8520  -12.0680 C   0  0  0  0  0  0
  -22.3810   20.4330  -11.5460 C   0  0  0  0  0  0
  -21.1740   19.6180  -11.1940 C   0  0  0  0  0  0
  -19.8030   20.1840  -11.3530 C   0  0  0  0  0  0
  -19.6680   21.6170  -11.8740 C   0  0  0  0  0  0
  -20.8640   22.4270  -12.2260 C   0  0  0  0  0  0
  -24.7740   22.2750  -12.3150 O   0  0  0  0  0  0
  -25.2380   21.0230  -11.8350 C   0  0  0  0  0  0
  -25.4630   21.0270  -10.3240 C   0  0  0  0  0  0
  -25.9450   19.9420   -9.5310 N   0  0  0  0  0  0
  -26.0040   20.3620   -8.2070 N   0  0  0  0  0  0
  -25.5940   21.6070   -8.0490 N   0  0  0  0  0  0
  -25.4610   23.3810   -4.0960 C   0  0  0  0  0  0
  -24.9980   24.4210   -4.8840 C   0  0  0  0  0  0
  -27.0500   24.1220   -5.2050 N   0  3  0  0  0  0
  -28.2540   24.0040   -6.0230 C   0  0  0  0  0  0
  -25.6410   23.9730   -7.1010 C   0  0  0  0  0  0
  -24.8385   23.1471   -9.5791 H   0  0  0  0  0  0
  -24.4475   22.2626   -6.4656 H   0  0  0  0  0  0
  -26.1603   25.7615   -6.1900 H   0  0  0  0  0  0
  -27.3918   22.4243   -3.9642 H   0  0  0  0  0  0
  -27.3713   21.6018   -6.1557 H   0  0  0  0  0  0
  -25.9433   21.0121   -5.2394 H   0  0  0  0  0  0
  -26.6945   25.1965   -3.4317 H   0  0  0  0  0  0
  -28.3584   24.5443   -3.6128 H   0  0  0  0  0  0
  -27.8415   25.9678   -4.5789 H   0  0  0  0  0  0
  -19.4268   25.3562  -13.2629 H   0  0  0  0  0  0
  -18.7871   23.7090  -13.5857 H   0  0  0  0  0  0
  -18.8486   24.3348  -11.9031 H   0  0  0  0  0  0
  -24.0694   24.6638  -13.1920 H   0  0  0  0  0  0
  -23.3738   19.9996  -11.4252 H   0  0  0  0  0  0
  -21.2988   18.6024  -10.8184 H   0  0  0  0  0  0
  -18.9212   19.5932  -11.1049 H   0  0  0  0  0  0
  -18.6753   22.0522  -11.9892 H   0  0  0  0  0  0
  -26.1936   20.7755  -12.3204 H   0  0  0  0  0  0
  -24.4966   20.2440  -12.0663 H   0  0  0  0  0  0
  -24.8948   23.0718   -3.2051 H   0  0  0  0  0  0
  -24.0148   24.8700   -4.6800 H   0  0  0  0  0  0
  -28.0509   23.3474   -6.8818 H   0  0  0  0  0  0
  -28.5505   24.9996   -6.3847 H   0  0  0  0  0  0
  -29.0674   23.5762   -5.4186 H   0  0  0  0  0  0
  -24.6960   24.3757   -7.4945 H   0  0  0  0  0  0
  -26.4412   24.1274   -7.8398 H   0  0  0  0  0  0
  1 21  2  0  0  0
  1 24  1  0  0  0
  1 30  1  0  0  0
  2  5  1  0  0  0
  2 24  1  0  0  0
  2 29  1  0  0  0
  2 31  1  0  0  0
  3 26  1  0  0  0
  3 27  1  0  0  0
  3 29  1  0  0  0
  3 32  1  0  0  0
  4  5  1  0  0  0
  4 25  1  0  0  0
  4 27  1  0  0  0
  4 33  1  0  0  0
  5 34  1  0  0  0
  5 35  1  0  0  0
  6 27  1  0  0  0
  6 36  1  0  0  0
  6 37  1  0  0  0
  6 38  1  0  0  0
  7  8  2  0  0  0
  7  9  1  0  0  0
  7 11  1  0  0  0
  9 10  1  0  0  0
  9 18  1  0  0  0
 10 39  1  0  0  0
 10 40  1  0  0  0
 10 41  1  0  0  0
 11 12  2  0  0  0
 11 42  1  0  0  0
 12 13  1  0  0  0
 12 19  1  0  0  0
 13 14  2  0  0  0
 13 18  1  0  0  0
 14 15  1  0  0  0
 14 43  1  0  0  0
 15 16  2  0  0  0
 15 44  1  0  0  0
 16 17  1  0  0  0
 16 45  1  0  0  0
 17 18  2  0  0  0
 17 46  1  0  0  0
 19 20  1  0  0  0
 20 21  1  0  0  0
 20 47  1  0  0  0
 20 48  1  0  0  0
 21 22  1  0  0  0
 22 23  2  0  0  0
 23 24  1  0  0  0
 25 26  2  0  0  0
 25 49  1  0  0  0
 26 50  1  0  0  0
 27 28  1  0  0  0
 28 51  1  0  0  0
 28 52  1  0  0  0
 28 53  1  0  0  0
 29 54  1  0  0  0
 29 55  1  0  0  0
M  CHG  1  27   1
M  END
> <s_m_source_file>
../4dbm_ligand.sdf

> <i_m_source_file_index>
1

> <s_epik_input>
W0NAQEhdMTJbQ0hdPVtDSF1bQ0BASF0oW04rXTEoW0NIM10pW0NIM10pW0NIMl1bQ0BIXShbQ0gyXTIpbihubjMpW2NIXWMzW0NIMl1PYzRbY0hdYyg9TyluKFtDSDNdKWMoYzQ1KVtjSF1bY0hdW2NIXVtjSF01

> <s_epik_cmdline>
J2VwaWtfYXBwJywgJy1pbWFlJywgJ2xpZ2FuZF9wcm8ubWFlJywgJy1vbWFlJywgJ2xpZ2FuZF9wcmVwLm1hZScsICctbXMnLCAnMScsICctcGgnLCAnNycsICctcGh0JywgJzAuNScsICctbnQn

> <r_lp_tautomer_probability>
1

> <r_epik_Ionization_Penalty>
  0.0000

> <r_epik_Ionization_Penalty_Charging>
  0.0000

> <r_epik_Ionization_Penalty_Neutral>
  0.0000

> <r_epik_State_Penalty>
 -0.0000

> <r_epik_Charging_Adjusted_Penalty>
3.9582436797776e-07

> <i_epik_Tot_Q>
1

> <i_epik_Tot_abs_Q>
1

$$$$
