4dcd_ligand
                    3D
 Schrodinger Suite 2020-3.
 60 61  0  0  1  0            999 V2000
    8.3580    8.9300   32.8330 C   0  0  0  0  0  0
    9.5160    9.6110   32.3290 O   0  0  0  0  0  0
    9.7440    9.6310   30.9030 C   0  0  0  0  0  0
    8.8820    9.2600   30.1120 O   0  0  0  0  0  0
    7.3630    9.9550   33.3240 C   0  0  0  0  0  0
    6.7390   10.7680   32.3970 C   0  0  0  0  0  0
    5.8070   11.7100   32.8180 C   0  0  0  0  0  0
    5.5330   11.8480   34.1740 C   0  0  0  0  0  0
    6.1710   11.0450   35.1070 C   0  0  0  0  0  0
    7.0900   10.0890   34.6820 C   0  0  0  0  0  0
   10.9600   10.1030   30.5080 N   0  0  0  0  0  0
   11.5580    9.8310   29.2040 C   0  0  2  0  0  0
   11.4120    8.4740   28.5740 C   0  0  0  0  0  0
   11.7510    7.4950   29.2320 O   0  0  0  0  0  0
   12.8660   10.5580   28.8820 C   0  0  0  0  0  0
   12.9150   11.9880   29.4130 C   0  0  0  0  0  0
   14.3590   12.4210   29.6240 C   0  0  0  0  0  0
   12.2040   12.9390   28.4730 C   0  0  0  0  0  0
   10.9900    8.3640   27.2770 N   0  0  0  0  0  0
   10.8250    7.0390   26.6400 C   0  0  2  0  0  0
   11.4550    6.9850   25.2520 C   0  0  0  0  0  0
   12.8680    7.1640   25.3480 O   0  0  0  0  0  0
    9.3380    6.7400   26.4790 C   0  0  0  0  0  0
    8.6370    6.6300   27.8090 C   0  0  2  0  0  0
    9.1520    5.5270   28.7220 C   0  0  0  0  0  0
    7.9130    5.0260   29.4520 C   0  0  0  0  0  0
    6.7920    5.3270   28.5580 N   0  0  0  0  0  0
    7.2240    6.2170   27.6280 C   0  0  0  0  0  0
    6.4860    6.5880   26.7230 O   0  0  0  0  0  0
    7.9072    8.3293   32.0293 H   0  0  0  0  0  0
    8.6526    8.2705   33.6626 H   0  0  0  0  0  0
    6.9770   10.6710   31.3377 H   0  0  0  0  0  0
    5.2939   12.3370   32.0888 H   0  0  0  0  0  0
    4.8107   12.5936   34.5064 H   0  0  0  0  0  0
    5.9541   11.1615   36.1688 H   0  0  0  0  0  0
    7.5922    9.4499   35.4082 H   0  0  0  0  0  0
   11.4969   10.7234   31.2407 H   0  0  0  0  0  0
   10.7364   10.3525   28.6912 H   0  0  0  0  0  0
   13.7091   10.0116   29.3300 H   0  0  0  0  0  0
   12.9992   10.6073   27.7912 H   0  0  0  0  0  0
   12.3905   12.0233   30.3792 H   0  0  0  0  0  0
   14.8563   11.7181   30.3086 H   0  0  0  0  0  0
   14.3791   13.4316   30.0579 H   0  0  0  0  0  0
   14.8851   12.4262   28.6580 H   0  0  0  0  0  0
   11.1640   12.6084   28.3345 H   0  0  0  0  0  0
   12.7188   12.9469   27.5009 H   0  0  0  0  0  0
   12.2128   13.9523   28.9009 H   0  0  0  0  0  0
   10.7725    9.2792   26.7069 H   0  0  0  0  0  0
   11.3319    6.3271   27.3080 H   0  0  0  0  0  0
   11.2451    6.0082   24.7918 H   0  0  0  0  0  0
   11.0314    7.7840   24.6257 H   0  0  0  0  0  0
   13.4868    7.1534   24.4386 H   0  0  0  0  0  0
    8.8614    7.5486   25.9054 H   0  0  0  0  0  0
    9.2114    5.7872   25.9441 H   0  0  0  0  0  0
    8.7777    7.6339   28.2360 H   0  0  0  0  0  0
    9.6181    4.7366   28.1153 H   0  0  0  0  0  0
    9.8966    5.9435   29.4163 H   0  0  0  0  0  0
    8.0063    3.9451   29.6334 H   0  0  0  0  0  0
    7.8159    5.5520   30.4132 H   0  0  0  0  0  0
    5.8155    4.8470   28.7195 H   0  0  0  0  0  0
  1  2  1  0  0  0
  1  5  1  0  0  0
  1 30  1  0  0  0
  1 31  1  0  0  0
  2  3  1  0  0  0
  3  4  2  0  0  0
  3 11  1  0  0  0
  5  6  2  0  0  0
  5 10  1  0  0  0
  6  7  1  0  0  0
  6 32  1  0  0  0
  7  8  2  0  0  0
  7 33  1  0  0  0
  8  9  1  0  0  0
  8 34  1  0  0  0
  9 10  2  0  0  0
  9 35  1  0  0  0
 10 36  1  0  0  0
 11 12  1  0  0  0
 11 37  1  0  0  0
 12 13  1  0  0  0
 12 15  1  0  0  0
 12 38  1  0  0  0
 13 14  2  0  0  0
 13 19  1  0  0  0
 15 16  1  0  0  0
 15 39  1  0  0  0
 15 40  1  0  0  0
 16 17  1  0  0  0
 16 18  1  0  0  0
 16 41  1  0  0  0
 17 42  1  0  0  0
 17 43  1  0  0  0
 17 44  1  0  0  0
 18 45  1  0  0  0
 18 46  1  0  0  0
 18 47  1  0  0  0
 19 20  1  0  0  0
 19 48  1  0  0  0
 20 21  1  0  0  0
 20 23  1  0  0  0
 20 49  1  0  0  0
 21 22  1  0  0  0
 21 50  1  0  0  0
 21 51  1  0  0  0
 22 52  1  0  0  0
 23 24  1  0  0  0
 23 53  1  0  0  0
 23 54  1  0  0  0
 24 25  1  0  0  0
 24 28  1  0  0  0
 24 55  1  0  0  0
 25 26  1  0  0  0
 25 56  1  0  0  0
 25 57  1  0  0  0
 26 27  1  0  0  0
 26 58  1  0  0  0
 26 59  1  0  0  0
 27 28  1  0  0  0
 27 60  1  0  0  0
 28 29  2  0  0  0
M  END
> <s_m_source_file>
../4dcd_ligand.sdf

> <i_m_source_file_index>
1

> <s_epik_input>
W2NIXTFbY0hdW2NIXVtjSF1bY0hdYzFbQ0gyXU9DKD1PKVtOSF1bQ0BASF0oW0NIMl1bQ0hdKFtDSDNdKVtDSDNdKUMoPU8pW05IXVtDQEhdKFtDSDJdW09IXSlbQ0gyXVtDQEBIXTJbQ0gyXVtDSDJdW05IXUMyPU8=

> <s_epik_cmdline>
J2VwaWtfYXBwJywgJy1pbWFlJywgJ2xpZ2FuZF9wcm8ubWFlJywgJy1vbWFlJywgJ2xpZ2FuZF9wcmVwLm1hZScsICctbXMnLCAnMScsICctcGgnLCAnNycsICctcGh0JywgJzAuNScsICctbnQn

> <r_lp_tautomer_probability>
1

> <r_epik_Ionization_Penalty>
  0.0000

> <r_epik_Ionization_Penalty_Charging>
  0.0000

> <r_epik_Ionization_Penalty_Neutral>
  0.0000

> <r_epik_State_Penalty>
 -0.0000

> <r_epik_Charging_Adjusted_Penalty>
0

> <i_epik_Tot_Q>
0

> <i_epik_Tot_abs_Q>
0

> <s_epik_Chemistry_Notes>
This compound has an ester and may undergo hydrolysis at high or low pH.

$$$$
