4dce_ligand
                    3D
 Schrodinger Suite 2020-3.
 69 72  0  0  1  0            999 V2000
    5.7780   20.0630   37.4190 C   0  0  0  0  0  0
    6.7920   20.2780   36.4240 O   0  0  0  0  0  0
    8.0910   19.9970   36.7930 C   0  0  0  0  0  0
    8.4030   19.1410   37.8670 C   0  0  0  0  0  0
    9.1290   20.5870   36.0580 C   0  0  0  0  0  0
    8.8370   21.4130   35.0050 O   0  0  0  0  0  0
    8.9520   22.8190   35.3160 C   0  0  0  0  0  0
   10.4600   20.3150   36.3880 C   0  0  0  0  0  0
   11.4790   20.8840   35.6780 O   0  0  0  0  0  0
   12.2860   19.9240   35.0050 C   0  0  0  0  0  0
   10.7500   19.4770   37.4630 C   0  0  0  0  0  0
    9.7370   18.8850   38.2110 C   0  0  0  0  0  0
   10.1260   18.0740   39.2170 N   0  0  0  0  0  0
    9.5180   17.8520   40.3880 C   0  0  0  0  0  0
    8.3640   18.4550   40.6980 N   0  0  0  0  0  0
   10.0820   16.9970   41.2680 N   0  0  0  0  0  0
    9.5190   16.7260   42.4390 C   0  0  0  0  0  0
    8.3260   17.3460   42.7860 C   0  0  0  0  0  0
    7.7610   18.2350   41.8740 C   0  0  0  0  0  0
    6.5550   18.8740   42.1530 N   0  0  0  0  0  0
    5.8990   18.6890   43.4560 C   0  0  0  0  0  0
    5.8290   19.6840   41.1440 C   0  0  0  0  0  0
    4.5050   18.9450   40.8470 C   0  0  0  0  0  0
    3.7670   18.5090   42.1330 C   0  0  0  0  0  0
    4.6800   17.8110   43.1630 C   0  0  2  0  0  0
    3.9550   17.5690   44.4730 C   0  0  0  0  0  0
    3.5330   18.5180   45.1350 O   0  0  0  0  0  0
    3.8510   16.2840   44.8220 N   0  0  0  0  0  0
    3.1940   15.8620   46.0700 C   0  0  0  0  0  0
    3.0010   14.3550   46.0190 C   0  0  0  0  0  0
    1.7090   13.8350   45.9450 C   0  0  0  0  0  0
    1.5250   12.4520   45.8880 C   0  0  0  0  0  0
    2.6290   11.6060   45.9060 C   0  0  0  0  0  0
    2.4250   10.0930   45.8450 C   0  0  0  0  0  0
    3.9140   12.1350   45.9830 C   0  0  0  0  0  0
    4.1060   13.5130   46.0400 C   0  0  0  0  0  0
    4.7939   20.3225   37.0016 H   0  0  0  0  0  0
    5.9835   20.6962   38.2947 H   0  0  0  0  0  0
    5.7804   19.0057   37.7224 H   0  0  0  0  0  0
    7.5994   18.6734   38.4358 H   0  0  0  0  0  0
    8.7029   23.4133   34.4245 H   0  0  0  0  0  0
    9.9826   23.0421   35.6293 H   0  0  0  0  0  0
    8.2580   23.0722   36.1311 H   0  0  0  0  0  0
   13.0858   20.4396   34.4532 H   0  0  0  0  0  0
   11.6645   19.3518   34.3005 H   0  0  0  0  0  0
   12.7314   19.2387   35.7412 H   0  0  0  0  0  0
   11.7904   19.2815   37.7229 H   0  0  0  0  0  0
   11.0546   17.4914   39.1260 H   0  0  0  0  0  0
    9.9902   16.0211   43.1240 H   0  0  0  0  0  0
    7.8458   17.1433   43.7433 H   0  0  0  0  0  0
    6.5960   18.1979   44.1510 H   0  0  0  0  0  0
    5.6063   19.6687   43.8615 H   0  0  0  0  0  0
    5.6335   20.6871   41.5508 H   0  0  0  0  0  0
    6.4407   19.7702   40.2339 H   0  0  0  0  0  0
    3.8342   19.6078   40.2807 H   0  0  0  0  0  0
    4.7140   18.0420   40.2547 H   0  0  0  0  0  0
    3.3333   19.3925   42.6242 H   0  0  0  0  0  0
    2.9646   17.8027   41.8737 H   0  0  0  0  0  0
    4.9850   16.8399   42.7459 H   0  0  0  0  0  0
    4.2760   15.5308   44.1423 H   0  0  0  0  0  0
    3.8272   16.1332   46.9276 H   0  0  0  0  0  0
    2.2199   16.3651   46.1599 H   0  0  0  0  0  0
    0.8484   14.5039   45.9317 H   0  0  0  0  0  0
    0.5190   12.0365   45.8296 H   0  0  0  0  0  0
    1.3493    9.8701   45.7880 H   0  0  0  0  0  0
    2.8483    9.6293   46.7482 H   0  0  0  0  0  0
    2.9305    9.6905   44.9548 H   0  0  0  0  0  0
    4.7750   11.4668   45.9988 H   0  0  0  0  0  0
    5.1126   13.9268   46.1005 H   0  0  0  0  0  0
  1  2  1  0  0  0
  1 37  1  0  0  0
  1 38  1  0  0  0
  1 39  1  0  0  0
  2  3  1  0  0  0
  3  4  2  0  0  0
  3  5  1  0  0  0
  4 12  1  0  0  0
  4 40  1  0  0  0
  5  6  1  0  0  0
  5  8  2  0  0  0
  6  7  1  0  0  0
  7 41  1  0  0  0
  7 42  1  0  0  0
  7 43  1  0  0  0
  8  9  1  0  0  0
  8 11  1  0  0  0
  9 10  1  0  0  0
 10 44  1  0  0  0
 10 45  1  0  0  0
 10 46  1  0  0  0
 11 12  2  0  0  0
 11 47  1  0  0  0
 12 13  1  0  0  0
 13 14  1  0  0  0
 13 48  1  0  0  0
 14 15  2  0  0  0
 14 16  1  0  0  0
 15 19  1  0  0  0
 16 17  2  0  0  0
 17 18  1  0  0  0
 17 49  1  0  0  0
 18 19  2  0  0  0
 18 50  1  0  0  0
 19 20  1  0  0  0
 20 21  1  0  0  0
 20 22  1  0  0  0
 21 25  1  0  0  0
 21 51  1  0  0  0
 21 52  1  0  0  0
 22 23  1  0  0  0
 22 53  1  0  0  0
 22 54  1  0  0  0
 23 24  1  0  0  0
 23 55  1  0  0  0
 23 56  1  0  0  0
 24 25  1  0  0  0
 24 57  1  0  0  0
 24 58  1  0  0  0
 25 26  1  0  0  0
 25 59  1  0  0  0
 26 27  2  0  0  0
 26 28  1  0  0  0
 28 29  1  0  0  0
 28 60  1  0  0  0
 29 30  1  0  0  0
 29 61  1  0  0  0
 29 62  1  0  0  0
 30 31  2  0  0  0
 30 36  1  0  0  0
 31 32  1  0  0  0
 31 63  1  0  0  0
 32 33  2  0  0  0
 32 64  1  0  0  0
 33 34  1  0  0  0
 33 35  1  0  0  0
 34 65  1  0  0  0
 34 66  1  0  0  0
 34 67  1  0  0  0
 35 36  2  0  0  0
 35 68  1  0  0  0
 36 69  1  0  0  0
M  END
> <s_m_source_file>
../4dce_ligand.sdf

> <i_m_source_file_index>
1

> <s_epik_input>
W0NIM11PYzFjKE9bQ0gzXSlbY0hdYyhbY0hdYzFPW0NIM10pW05IXWMybmMoW2NIXVtjSF1uMilOM1tDSDJdW0NASF0oW0NIMl1bQ0gyXVtDSDJdMylDKD1PKVtOSF1bQ0gyXWM0W2NIXVtjSF1jKFtDSDNdKVtjSF1bY0hdNA==

> <s_epik_cmdline>
J2VwaWtfYXBwJywgJy1pbWFlJywgJ2xpZ2FuZF9wcm8ubWFlJywgJy1vbWFlJywgJ2xpZ2FuZF9wcmVwLm1hZScsICctbXMnLCAnMScsICctcGgnLCAnNycsICctcGh0JywgJzAuNScsICctbnQn

> <r_lp_tautomer_probability>
1

> <r_epik_Ionization_Penalty>
  0.0006

> <r_epik_Ionization_Penalty_Charging>
  0.0000

> <r_epik_Ionization_Penalty_Neutral>
  0.0006

> <r_epik_State_Penalty>
 -0.0000

> <r_epik_Charging_Adjusted_Penalty>
0

> <i_epik_Tot_Q>
0

> <i_epik_Tot_abs_Q>
0

$$$$
