4dcv_ligand
                    3D
 Schrodinger Suite 2020-3.
 47 49  0  0  1  0            999 V2000
  -14.4520   -6.9930  -32.8920 P   0  0  0  0  0  0
  -13.7440   -6.6470  -34.1920 O   0  5  0  0  0  0
  -13.5410   -7.5580  -31.8150 O   0  0  0  0  0  0
  -15.3480   -5.8940  -32.3530 O   0  0  0  0  0  0
  -15.5870   -8.3570  -33.3090 C   0  0  0  0  0  0
  -14.7540   -9.9460  -33.6170 P   0  0  1  0  0  0
  -13.5470   -9.6980  -34.4780 O   0  0  0  0  0  0
  -14.5950  -10.7120  -32.3130 O   0  5  0  0  0  0
  -15.7750  -10.8190  -34.4910 O   0  0  0  0  0  0
  -17.0930  -11.4150  -33.7770 P   0  0  1  0  0  0
  -16.7030  -12.6250  -32.9650 O   0  5  0  0  0  0
  -17.7730  -10.2480  -33.1140 O   0  0  0  0  0  0
  -17.9400  -11.8430  -35.0700 O   0  0  0  0  0  0
  -18.2080  -10.8740  -36.0880 C   0  0  0  0  0  0
  -19.3340  -11.3690  -36.9860 C   0  0  1  0  0  0
  -18.8900  -12.4730  -37.7900 O   0  0  0  0  0  0
  -20.5290  -11.8840  -36.2190 C   0  0  1  0  0  0
  -21.6780  -11.5210  -36.9930 O   0  0  0  0  0  0
  -20.3650  -13.3930  -36.2550 C   0  0  1  0  0  0
  -21.6200  -14.0620  -36.1760 O   0  0  0  0  0  0
  -19.7070  -13.6330  -37.6010 C   0  0  2  0  0  0
  -18.8490  -14.8340  -37.5840 N   0  0  0  0  0  0
  -17.9010  -15.0980  -36.6600 C   0  0  0  0  0  0
  -17.2730  -16.2720  -36.9190 N   0  0  0  0  0  0
  -17.8200  -16.7820  -38.0400 C   0  0  0  0  0  0
  -17.6230  -17.9970  -38.8770 C   0  0  0  0  0  0
  -16.7750  -18.8650  -38.5930 O   0  0  0  0  0  0
  -18.3810  -18.1600  -39.9630 N   0  3  0  0  0  0
  -19.3130  -17.2600  -40.3230 C   0  0  0  0  0  0
  -20.0200  -17.5270  -41.4500 N   0  0  0  0  0  0
  -19.5520  -16.1210  -39.6050 N   0  0  0  0  0  0
  -18.8540  -15.8260  -38.4810 C   0  0  0  0  0  0
  -12.7495   -6.9306  -31.3794 H   0  0  0  0  0  0
  -16.2908   -8.5152  -32.4785 H   0  0  0  0  0  0
  -16.1471   -8.1022  -34.2208 H   0  0  0  0  0  0
  -18.5060   -9.9239  -35.6205 H   0  0  0  0  0  0
  -17.3024  -10.7171  -36.6924 H   0  0  0  0  0  0
  -19.6156  -10.5249  -37.6326 H   0  0  0  0  0  0
  -20.6640  -11.4784  -35.2054 H   0  0  0  0  0  0
  -21.9648  -10.4634  -37.0890 H   0  0  0  0  0  0
  -19.8307  -13.8143  -35.3907 H   0  0  0  0  0  0
  -22.2261  -13.9880  -35.2610 H   0  0  0  0  0  0
  -20.4214  -13.7728  -38.4257 H   0  0  0  0  0  0
  -17.6698  -14.4506  -35.8141 H   0  0  0  0  0  0
  -19.8197  -18.4462  -42.0201 H   0  0  0  0  0  0
  -20.7934  -16.8243  -41.7935 H   0  0  0  0  0  0
  -18.2530  -19.0517  -40.5943 H   0  0  0  0  0  0
  1  2  1  0  0  0
  1  3  1  0  0  0
  1  4  2  0  0  0
  1  5  1  0  0  0
  3 33  1  0  0  0
  5  6  1  0  0  0
  5 34  1  0  0  0
  5 35  1  0  0  0
  6  7  2  0  0  0
  6  8  1  0  0  0
  6  9  1  0  0  0
  9 10  1  0  0  0
 10 11  1  0  0  0
 10 12  2  0  0  0
 10 13  1  0  0  0
 13 14  1  0  0  0
 14 15  1  0  0  0
 14 36  1  0  0  0
 14 37  1  0  0  0
 15 16  1  0  0  0
 15 17  1  0  0  0
 15 38  1  0  0  0
 16 21  1  0  0  0
 17 18  1  0  0  0
 17 19  1  0  0  0
 17 39  1  0  0  0
 18 40  1  0  0  0
 19 20  1  0  0  0
 19 21  1  0  0  0
 19 41  1  0  0  0
 20 42  1  0  0  0
 21 22  1  0  0  0
 21 43  1  0  0  0
 22 23  1  0  0  0
 22 32  1  0  0  0
 23 24  2  0  0  0
 23 44  1  0  0  0
 24 25  1  0  0  0
 25 26  1  0  0  0
 25 32  2  0  0  0
 26 27  2  0  0  0
 26 28  1  0  0  0
 28 29  1  0  0  0
 28 47  1  0  0  0
 29 30  1  0  0  0
 29 31  2  0  0  0
 30 45  1  0  0  0
 30 46  1  0  0  0
 31 32  1  0  0  0
M  CHG  4   2  -1   8  -1  11  -1  28   1
M  END
> <s_m_source_file>
../4dcv_ligand.sdf

> <i_m_source_file_index>
1

> <s_epik_input>
W09IXVAoPU8pKFtPSF0pW0NIMl1bUEBAXSg9TykoW09IXSlPW1BAXSg9TykoW09IXSlPW0NIMl1bQ0BIXTFPW0NASF0oW0NASF0oW09IXSlbQ0BASF0xW09IXSluKFtjSF1uMiljKGMyMylbbkhdYyg9TlxbSF0pXFtuSF1jMz1P

> <s_epik_cmdline>
J2VwaWtfYXBwJywgJy1pbWFlJywgJ2xpZ2FuZF9wcm8ubWFlJywgJy1vbWFlJywgJ2xpZ2FuZF9wcmVwLm1hZScsICctbXMnLCAnMScsICctcGgnLCAnNycsICctcGh0JywgJzAuNScsICctbnQn

> <r_lp_tautomer_probability>
1

> <r_epik_Ionization_Penalty>
  2.5588

> <r_epik_Ionization_Penalty_Charging>
  2.3888

> <r_epik_Ionization_Penalty_Neutral>
  0.1700

> <r_epik_State_Penalty>
 -0.0000

> <r_epik_Charging_Adjusted_Penalty>
2.3888014777589

> <i_epik_Tot_Q>
-2

> <i_epik_Tot_abs_Q>
4

> <s_epik_Chemistry_Notes>
This compound has an imine and may undergo hydrolysis. This compound contains an acetal/aminal-like group ( X-CH(R)-Y where X, Y are N, S, or O) that may be acid/base labile, releasing an aldehyde.

$$$$
