4dcx_ligand
                    3D
 Schrodinger Suite 2020-3.
 57 64  0  0  1  0            999 V2000
   -1.3840   -6.6840  -31.3440 C   0  0  0  0  0  0
   -0.5720   -7.7260  -31.7520 C   0  0  0  0  0  0
   -0.1740   -7.8160  -33.0790 C   0  0  0  0  0  0
   -0.5990   -6.8570  -33.9810 C   0  0  0  0  0  0
   -1.3790   -5.8800  -33.5650 N   0  0  0  0  0  0
   -1.7970   -5.7640  -32.2930 C   0  0  3  0  0  0
   -2.6870   -4.5710  -31.9350 C   0  0  0  0  0  0
   -2.9330   -4.0310  -33.2480 N   0  0  1  0  0  0
   -3.9520   -4.9310  -33.8780 C   0  0  0  0  0  0
   -3.9600   -4.9290  -35.4390 C   0  0  0  0  0  0
   -2.9160   -4.5690  -36.0500 O   0  0  0  0  0  0
   -4.9700   -5.4200  -36.0020 O   0  0  0  0  0  0
   -3.2740   -2.6070  -33.0640 C   0  0  2  0  0  0
   -4.7160   -2.4640  -32.5510 C   0  0  0  0  0  0
   -5.0150   -0.9800  -32.3880 C   0  0  0  0  0  0
   -4.8610   -0.2580  -33.7410 C   0  0  0  0  0  0
   -3.4230   -0.4580  -34.2370 C   0  0  0  0  0  0
   -3.1640   -1.9570  -34.3990 C   0  0  1  0  0  0
   -1.7650   -2.1450  -34.8670 N   0  0  2  0  0  0
   -0.8770   -1.3420  -33.9950 C   0  0  0  0  0  0
    0.2490   -2.1910  -33.3720 C   0  0  0  0  0  0
    0.1410   -3.4400  -33.3810 O   0  0  0  0  0  0
    1.1950   -1.5670  -32.8540 O   0  0  0  0  0  0
   -1.5930   -1.6750  -36.2530 C   0  0  0  0  0  0
   -0.3010   -2.3190  -36.7450 C   0  0  0  0  0  0
    0.5750   -1.6580  -37.5960 C   0  0  0  0  0  0
    1.7300   -2.3140  -38.0020 C   0  0  0  0  0  0
    1.9610   -3.6150  -37.5620 C   0  0  0  0  0  0
    1.0390   -4.2280  -36.7250 C   0  0  0  0  0  0
   -0.0440   -3.5690  -36.3490 N   0  0  0  0  0  0
   -1.3600   -4.1340  -34.6760 Fe  0  0  0  0  0  0
   -1.6853   -6.6020  -30.2892 H   0  0  0  0  0  0
   -0.2418   -8.4830  -31.0254 H   0  0  0  0  0  0
    0.4729   -8.6395  -33.4158 H   0  0  0  0  0  0
   -0.2855   -6.9149  -35.0338 H   0  0  0  0  0  0
   -3.5930   -4.9296  -31.4245 H   0  0  0  0  0  0
   -2.1366   -3.8896  -31.2696 H   0  0  0  0  0  0
   -3.7672   -5.9694  -33.5656 H   0  0  0  0  0  0
   -4.9590   -4.6255  -33.5578 H   0  0  0  0  0  0
   -2.5692   -2.1582  -32.3485 H   0  0  0  0  0  0
   -5.4097   -2.9129  -33.2772 H   0  0  0  0  0  0
   -4.8139   -2.9788  -31.5838 H   0  0  0  0  0  0
   -6.0454   -0.8513  -32.0250 H   0  0  0  0  0  0
   -4.3134   -0.5421  -31.6628 H   0  0  0  0  0  0
   -5.5712   -0.6824  -34.4660 H   0  0  0  0  0  0
   -5.0677    0.8144  -33.6100 H   0  0  0  0  0  0
   -3.2948    0.0500  -35.2042 H   0  0  0  0  0  0
   -2.7202   -0.0345  -33.5044 H   0  0  0  0  0  0
   -3.8726   -2.4117  -35.1069 H   0  0  0  0  0  0
   -0.4126   -0.5383  -34.5853 H   0  0  0  0  0  0
   -1.4664   -0.9024  -33.1768 H   0  0  0  0  0  0
   -2.4554   -1.9925  -36.8575 H   0  0  0  0  0  0
   -1.5232   -0.5773  -36.2619 H   0  0  0  0  0  0
    0.3474   -0.6364  -37.9343 H   0  0  0  0  0  0
    2.4576   -1.8194  -38.6623 H   0  0  0  0  0  0
    2.8691   -4.1494  -37.8780 H   0  0  0  0  0  0
    1.2069   -5.2480  -36.3792 H   0  0  0  0  0  0
  1  2  2  0  0  0
  1  6  1  0  0  0
  1 32  1  0  0  0
  2  3  1  0  0  0
  2 33  1  0  0  0
  3  4  2  0  0  0
  3 34  1  0  0  0
  4  5  1  0  0  0
  4 35  1  0  0  0
  5  6  1  0  0  0
  5 31  1  0  0  0
  6  7  1  0  0  0
  7  8  1  0  0  0
  7 36  1  0  0  0
  7 37  1  0  0  0
  8  9  1  0  0  0
  8 13  1  0  0  0
  8 31  1  0  0  0
  9 10  1  0  0  0
  9 38  1  0  0  0
  9 39  1  0  0  0
 10 11  1  0  0  0
 10 12  2  0  0  0
 11 31  1  0  0  0
 13 14  1  0  0  0
 13 18  1  0  0  0
 13 40  1  0  0  0
 14 15  1  0  0  0
 14 41  1  0  0  0
 14 42  1  0  0  0
 15 16  1  0  0  0
 15 43  1  0  0  0
 15 44  1  0  0  0
 16 17  1  0  0  0
 16 45  1  0  0  0
 16 46  1  0  0  0
 17 18  1  0  0  0
 17 47  1  0  0  0
 17 48  1  0  0  0
 18 19  1  0  0  0
 18 49  1  0  0  0
 19 20  1  0  0  0
 19 24  1  0  0  0
 19 31  1  0  0  0
 20 21  1  0  0  0
 20 50  1  0  0  0
 20 51  1  0  0  0
 21 22  1  0  0  0
 21 23  2  0  0  0
 22 31  1  0  0  0
 24 25  1  0  0  0
 24 52  1  0  0  0
 24 53  1  0  0  0
 25 26  2  0  0  0
 25 30  1  0  0  0
 26 27  1  0  0  0
 26 54  1  0  0  0
 27 28  2  0  0  0
 27 55  1  0  0  0
 28 29  1  0  0  0
 28 56  1  0  0  0
 29 30  1  0  0  0
 29 57  1  0  0  0
 30 31  1  0  0  0
M  END
> <s_m_source_file>
../4dcx_ligand.sdf

> <i_m_source_file_index>
1

> <s_epik_input>
W0NIXTE9W0NIXVtDSF09W0NIXU4yW0NIXTFbQ0gyXVtOQEArXShbRmVdMjM0NTYpKFtDSDJdQyhPMyk9TylbQ0BIXTdbQ0BASF0oW0NIMl1bQ0gyXVtDSDJdW0NIMl03KVtOQCtdNChbQ0gyXUMoTzUpPU8pW0NIMl1DPThONltDSDJdW0NIXT1bQ0hdW0NIXTg=

> <s_epik_cmdline>
J2VwaWtfYXBwJywgJy1pbWFlJywgJ2xpZ2FuZF9wcm8ubWFlJywgJy1vbWFlJywgJ2xpZ2FuZF9wcmVwLm1hZScsICctbXMnLCAnMScsICctcGgnLCAnNycsICctcGh0JywgJzAuNScsICctbnQn

> <r_lp_tautomer_probability>
1

> <r_epik_Ionization_Penalty>
  0.0000

> <r_epik_Ionization_Penalty_Charging>
  0.0000

> <r_epik_Ionization_Penalty_Neutral>
  0.0000

> <r_epik_State_Penalty>
 -0.0000

> <r_epik_Charging_Adjusted_Penalty>
0

> <i_epik_Tot_Q>
0

> <i_epik_Tot_abs_Q>
0

$$$$
