4dcy_ligand
                    3D
 Schrodinger Suite 2020-3.
 55 61  0  0  1  0            999 V2000
   -1.9630   -2.1130  -34.4620 N   0  0  2  0  0  0
   -0.8160   -1.2310  -34.1780 C   0  0  0  0  0  0
   -5.1130   -6.0280  -36.0780 O   0  0  0  0  0  0
   -3.1330   -5.0570  -36.0260 O   0  0  0  0  0  0
    1.0390   -2.1200  -38.2670 C   0  0  0  0  0  0
   -0.2520   -8.0800  -32.9490 C   0  0  0  0  0  0
    0.1720   -1.0450  -38.4070 C   0  0  0  0  0  0
   -0.7500   -7.9380  -31.6610 C   0  0  0  0  0  0
    0.7460   -3.1130  -37.3370 C   0  0  0  0  0  0
   -0.5730   -7.1240  -33.9090 C   0  0  0  0  0  0
   -0.9650   -0.9870  -37.6180 C   0  0  0  0  0  0
   -1.5590   -6.8530  -31.3660 C   0  0  0  0  0  0
   -4.7440   -0.4410  -32.6250 C   0  0  0  0  0  0
   -5.7520   -1.5460  -32.6820 C   0  0  0  0  0  0
   -3.6750   -0.6340  -33.6860 C   0  0  0  0  0  0
   -5.0740   -2.8920  -32.4480 C   0  0  0  0  0  0
   -4.1170   -5.5280  -33.9240 C   0  0  0  0  0  0
   -2.4460   -1.9460  -35.8370 C   0  0  0  0  0  0
   -2.7220   -4.6980  -32.0920 C   0  0  0  0  0  0
   -0.3460   -3.0370  -36.5930 N   0  0  0  0  0  0
   -1.3430   -6.0940  -33.5980 N   0  0  0  0  0  0
   -4.1390   -5.5110  -35.4690 C   0  0  0  0  0  0
   -1.2070   -2.0130  -36.7180 C   0  0  0  0  0  0
   -1.8520   -5.9330  -32.3660 C   0  0  0  0  0  0
   -2.9890   -1.9670  -33.4320 C   0  0  1  0  0  0
   -4.0240   -3.0910  -33.5380 C   0  0  1  0  0  0
   -3.3450   -4.3820  -33.3640 N   0  0  2  0  0  0
   -1.5610   -4.0540  -34.7650 Fe  0  0  0  0  0  0
   -1.1729   -0.2007  -34.0329 H   0  0  0  0  0  0
   -0.1130   -1.2600  -35.0236 H   0  0  0  0  0  0
   -0.3065   -1.5744  -33.2656 H   0  0  0  0  0  0
    1.9454   -2.1799  -38.8873 H   0  0  0  0  0  0
    0.3872   -8.9394  -33.1999 H   0  0  0  0  0  0
    0.3918   -0.2527  -39.1377 H   0  0  0  0  0  0
   -0.5009   -8.6818  -30.8899 H   0  0  0  0  0  0
    1.4215   -3.9605  -37.2203 H   0  0  0  0  0  0
   -0.1874   -7.2248  -34.9235 H   0  0  0  0  0  0
   -1.6700   -0.1463  -37.6962 H   0  0  0  0  0  0
   -1.9683   -6.7148  -30.3544 H   0  0  0  0  0  0
   -5.2460    0.5225  -32.7975 H   0  0  0  0  0  0
   -4.2647   -0.4326  -31.6350 H   0  0  0  0  0  0
   -6.5142   -1.3875  -31.9048 H   0  0  0  0  0  0
   -6.2330   -1.5529  -33.6712 H   0  0  0  0  0  0
   -4.1423   -0.6330  -34.6818 H   0  0  0  0  0  0
   -2.9439    0.1855  -33.6233 H   0  0  0  0  0  0
   -4.5964   -2.8946  -31.4571 H   0  0  0  0  0  0
   -5.8253   -3.6941  -32.4950 H   0  0  0  0  0  0
   -5.1468   -5.4679  -33.5420 H   0  0  0  0  0  0
   -3.6500   -6.4605  -33.5742 H   0  0  0  0  0  0
   -3.1529   -2.7536  -36.0779 H   0  0  0  0  0  0
   -2.9530   -0.9745  -35.9321 H   0  0  0  0  0  0
   -3.4712   -4.9404  -31.3239 H   0  0  0  0  0  0
   -2.0866   -3.8733  -31.7370 H   0  0  0  0  0  0
   -2.4975   -2.0116  -32.4489 H   0  0  0  0  0  0
   -4.5037   -3.1141  -34.5276 H   0  0  0  0  0  0
  1  2  1  0  0  0
  1 18  1  0  0  0
  1 25  1  0  0  0
  1 28  1  0  0  0
  2 29  1  0  0  0
  2 30  1  0  0  0
  2 31  1  0  0  0
  3 22  2  0  0  0
  4 22  1  0  0  0
  4 28  1  0  0  0
  5  7  2  0  0  0
  5  9  1  0  0  0
  5 32  1  0  0  0
  6  8  2  0  0  0
  6 10  1  0  0  0
  6 33  1  0  0  0
  7 11  1  0  0  0
  7 34  1  0  0  0
  8 12  1  0  0  0
  8 35  1  0  0  0
  9 20  1  0  0  0
  9 36  1  0  0  0
 10 21  1  0  0  0
 10 37  1  0  0  0
 11 23  2  0  0  0
 11 38  1  0  0  0
 12 24  2  0  0  0
 12 39  1  0  0  0
 13 14  1  0  0  0
 13 15  1  0  0  0
 13 40  1  0  0  0
 13 41  1  0  0  0
 14 16  1  0  0  0
 14 42  1  0  0  0
 14 43  1  0  0  0
 15 25  1  0  0  0
 15 44  1  0  0  0
 15 45  1  0  0  0
 16 26  1  0  0  0
 16 46  1  0  0  0
 16 47  1  0  0  0
 17 22  1  0  0  0
 17 27  1  0  0  0
 17 48  1  0  0  0
 17 49  1  0  0  0
 18 23  1  0  0  0
 18 50  1  0  0  0
 18 51  1  0  0  0
 19 24  1  0  0  0
 19 27  1  0  0  0
 19 52  1  0  0  0
 19 53  1  0  0  0
 20 23  1  0  0  0
 20 28  1  0  0  0
 21 24  1  0  0  0
 21 28  1  0  0  0
 25 26  1  0  0  0
 25 54  1  0  0  0
 26 27  1  0  0  0
 26 55  1  0  0  0
 27 28  1  0  0  0
M  END
> <s_m_source_file>
../4dcy_ligand.sdf

> <i_m_source_file_index>
1

> <s_epik_input>
W0NIXT0xW0NIXT1bQ0hdW0NIMl1OMkMxW0NIMl1bTkBAK10zKFtDSDNdKVtDQEBIXShbQ0gyXVtDSDJdW0NIMl1bQ0gyXTQpW0NASF00W05AK10oW0ZlXTIzNTYpKFtDSDJdQyg9TylPNSlbQ0gyXUM3TjZbQ0gyXVtDSF09W0NIXVtDSF09Nw==

> <s_epik_cmdline>
J2VwaWtfYXBwJywgJy1pbWFlJywgJ2xpZ2FuZF9wcm8ubWFlJywgJy1vbWFlJywgJ2xpZ2FuZF9wcmVwLm1hZScsICctbXMnLCAnMScsICctcGgnLCAnNycsICctcGh0JywgJzAuNScsICctbnQn

> <r_lp_tautomer_probability>
1

> <r_epik_Ionization_Penalty>
  0.0000

> <r_epik_Ionization_Penalty_Charging>
  0.0000

> <r_epik_Ionization_Penalty_Neutral>
  0.0000

> <r_epik_State_Penalty>
 -0.0000

> <r_epik_Charging_Adjusted_Penalty>
0

> <i_epik_Tot_Q>
0

> <i_epik_Tot_abs_Q>
0

$$$$
