4ddl_ligand
                    3D
 Schrodinger Suite 2020-3.
 61 64  0  0  1  0            999 V2000
   13.9930   85.8360   36.8520 C   0  0  0  0  0  0
   14.0270   86.5200   38.1130 O   0  0  0  0  0  0
   13.1380   87.4590   38.3380 C   0  0  0  0  0  0
   12.2280   87.8650   37.4010 C   0  0  0  0  0  0
   13.1810   88.0670   39.5590 C   0  0  0  0  0  0
   14.1010   87.6500   40.4190 O   0  0  0  0  0  0
   13.9110   88.1760   41.7460 C   0  0  0  0  0  0
   12.3080   89.0760   39.8570 C   0  0  0  0  0  0
   11.3440   89.4310   38.9490 C   0  0  0  0  0  0
   11.3520   88.8840   37.6970 C   0  0  0  0  0  0
   10.4740   89.2930   36.8020 N   0  0  0  0  0  0
    9.7030   90.1800   37.0580 N   0  0  0  0  0  0
    9.6660   90.7980   38.2020 C   0  0  0  0  0  0
   10.5840   90.5290   39.1750 C   0  0  0  0  0  0
   10.5120   91.1180   40.4100 C   0  0  0  0  0  0
   10.2510   90.4350   41.5520 C   0  0  0  0  0  0
   10.0980   91.1000   42.7380 C   0  0  0  0  0  0
    9.9010   90.3180   44.0250 C   0  0  0  0  0  0
   10.3680   92.4530   40.4940 C   0  0  0  0  0  0
   10.3120   93.0790   41.6180 N   0  0  0  0  0  0
   10.1100   92.4650   42.7470 C   0  0  0  0  0  0
   10.0090   93.2130   43.8970 N   0  0  0  0  0  0
    9.6660   94.6040   43.8560 C   0  0  0  0  0  0
    9.4430   95.2150   45.2330 C   0  0  0  0  0  0
   10.7570   92.7470   45.0370 C   0  0  0  0  0  0
   10.4160   93.4030   46.3550 C   0  0  0  0  0  0
   10.5700   94.8770   46.1980 C   0  0  0  0  0  0
   10.4340   95.6790   47.5010 C   0  0  0  0  0  0
   11.2050   95.1190   48.6510 C   0  0  0  0  0  0
    8.9970   95.8000   47.9260 C   0  0  0  0  0  0
   10.8170   96.9940   47.1790 O   0  0  0  0  0  0
   14.7962   85.0850   36.8205 H   0  0  0  0  0  0
   14.1369   86.5612   36.0375 H   0  0  0  0  0  0
   13.0199   85.3374   36.7314 H   0  0  0  0  0  0
   12.1969   87.3833   36.4237 H   0  0  0  0  0  0
   14.7022   87.7948   42.4083 H   0  0  0  0  0  0
   12.9291   87.8604   42.1284 H   0  0  0  0  0  0
   13.9566   89.2746   41.7149 H   0  0  0  0  0  0
   12.3781   89.5960   40.8124 H   0  0  0  0  0  0
    8.8905   91.5415   38.3860 H   0  0  0  0  0  0
   10.1625   89.3489   41.5250 H   0  0  0  0  0  0
    9.9227   89.2402   43.8061 H   0  0  0  0  0  0
    8.9303   90.5824   44.4697 H   0  0  0  0  0  0
   10.7074   90.5650   44.7312 H   0  0  0  0  0  0
   10.2957   93.0292   39.5716 H   0  0  0  0  0  0
   10.4777   95.1677   43.3730 H   0  0  0  0  0  0
    8.7365   94.7357   43.2827 H   0  0  0  0  0  0
    9.3853   96.3098   45.1434 H   0  0  0  0  0  0
    8.5028   94.8318   45.6563 H   0  0  0  0  0  0
   10.5831   91.6695   45.1740 H   0  0  0  0  0  0
   11.8293   92.9271   44.8705 H   0  0  0  0  0  0
    9.3788   93.1592   46.6284 H   0  0  0  0  0  0
   11.0974   93.0337   47.1356 H   0  0  0  0  0  0
   11.5837   95.1159   45.8439 H   0  0  0  0  0  0
   10.8641   94.0935   48.8563 H   0  0  0  0  0  0
   11.0422   95.7447   49.5410 H   0  0  0  0  0  0
   12.2765   95.1064   48.4026 H   0  0  0  0  0  0
    8.6106   94.8070   48.1992 H   0  0  0  0  0  0
    8.4024   96.2092   47.0960 H   0  0  0  0  0  0
    8.9267   96.4723   48.7938 H   0  0  0  0  0  0
   11.8402   97.1993   46.8312 H   0  0  0  0  0  0
  1  2  1  0  0  0
  1 32  1  0  0  0
  1 33  1  0  0  0
  1 34  1  0  0  0
  2  3  1  0  0  0
  3  4  2  0  0  0
  3  5  1  0  0  0
  4 10  1  0  0  0
  4 35  1  0  0  0
  5  6  1  0  0  0
  5  8  2  0  0  0
  6  7  1  0  0  0
  7 36  1  0  0  0
  7 37  1  0  0  0
  7 38  1  0  0  0
  8  9  1  0  0  0
  8 39  1  0  0  0
  9 10  2  0  0  0
  9 14  1  0  0  0
 10 11  1  0  0  0
 11 12  2  0  0  0
 12 13  1  0  0  0
 13 14  2  0  0  0
 13 40  1  0  0  0
 14 15  1  0  0  0
 15 16  2  0  0  0
 15 19  1  0  0  0
 16 17  1  0  0  0
 16 41  1  0  0  0
 17 18  1  0  0  0
 17 21  2  0  0  0
 18 42  1  0  0  0
 18 43  1  0  0  0
 18 44  1  0  0  0
 19 20  2  0  0  0
 19 45  1  0  0  0
 20 21  1  0  0  0
 21 22  1  0  0  0
 22 23  1  0  0  0
 22 25  1  0  0  0
 23 24  1  0  0  0
 23 46  1  0  0  0
 23 47  1  0  0  0
 24 27  1  0  0  0
 24 48  1  0  0  0
 24 49  1  0  0  0
 25 26  1  0  0  0
 25 50  1  0  0  0
 25 51  1  0  0  0
 26 27  1  0  0  0
 26 52  1  0  0  0
 26 53  1  0  0  0
 27 28  1  0  0  0
 27 54  1  0  0  0
 28 29  1  0  0  0
 28 30  1  0  0  0
 28 31  1  0  0  0
 29 55  1  0  0  0
 29 56  1  0  0  0
 29 57  1  0  0  0
 30 58  1  0  0  0
 30 59  1  0  0  0
 30 60  1  0  0  0
 31 61  1  0  0  0
M  END
> <s_m_source_file>
../4ddl_ligand.sdf

> <i_m_source_file_index>
1

> <s_epik_input>
W0NIM11PYyhbY0hdMSljKE9bQ0gzXSlbY0hdYyhjMTIpbm5bY0hdYzItYzNbY0hdYyhbQ0gzXSljKG5bY0hdMylONFtDSDJdW0NIMl1bQ0hdKFtDSDJdW0NIMl00KUMoW0NIM10pKFtDSDNdKVtPSF0=

> <s_epik_cmdline>
J2VwaWtfYXBwJywgJy1pbWFlJywgJ2xpZ2FuZF9wcm8ubWFlJywgJy1vbWFlJywgJ2xpZ2FuZF9wcmVwLm1hZScsICctbXMnLCAnMScsICctcGgnLCAnNycsICctcGh0JywgJzAuNScsICctbnQn

> <r_lp_tautomer_probability>
1

> <r_epik_Ionization_Penalty>
  0.4211

> <r_epik_Ionization_Penalty_Charging>
  0.0000

> <r_epik_Ionization_Penalty_Neutral>
  0.4211

> <r_epik_State_Penalty>
  0.4011

> <r_epik_Charging_Adjusted_Penalty>
0.40112024914712

> <i_epik_Tot_Q>
0

> <i_epik_Tot_abs_Q>
0

$$$$
