4ddm_ligand
                    3D
 Schrodinger Suite 2020-3.
 15 16  0  0  1  0            999 V2000
   15.4630   11.4810    2.0480 O   0  5  0  0  0  0
   15.1360   11.7620    3.2270 C   0  0  0  0  0  0
   15.2630   12.9170    3.6320 O   0  0  0  0  0  0
   14.7450   10.7480    4.1030 C   0  0  0  0  0  0
   14.4470   11.0470    5.4150 C   0  0  0  0  0  0
   14.1300   10.1160    6.2960 C   0  0  0  0  0  0
   13.8090   10.3290    7.5720 N   0  0  0  0  0  0
   13.5130    8.8480    8.2560 S   0  0  0  0  0  0
   13.7650    7.9700    6.9130 N   0  0  0  0  0  0
   14.0920    8.8160    5.9140 C   0  0  0  0  0  0
   14.4050    8.4840    4.6680 C   0  0  0  0  0  0
   14.7420    9.4220    3.7010 C   0  0  0  0  0  0
   14.4739   12.0882    5.7365 H   0  0  0  0  0  0
   14.3973    7.4297    4.3916 H   0  0  0  0  0  0
   14.9908    9.1308    2.6805 H   0  0  0  0  0  0
  1  2  1  0  0  0
  2  3  2  0  0  0
  2  4  1  0  0  0
  4  5  2  0  0  0
  4 12  1  0  0  0
  5  6  1  0  0  0
  5 13  1  0  0  0
  6  7  2  0  0  0
  6 10  1  0  0  0
  7  8  1  0  0  0
  8  9  1  0  0  0
  9 10  2  0  0  0
 10 11  1  0  0  0
 11 12  2  0  0  0
 11 14  1  0  0  0
 12 15  1  0  0  0
M  CHG  1   1  -1
M  END
> <s_m_source_file>
../4ddm_ligand.sdf

> <i_m_source_file_index>
1

> <s_epik_input>
W09IXUMoPU8pYyhbY0hdMSlbY0hdW2NIXWMoYzEyKW5zbjI=

> <s_epik_cmdline>
J2VwaWtfYXBwJywgJy1pbWFlJywgJ2xpZ2FuZF9wcm8ubWFlJywgJy1vbWFlJywgJ2xpZ2FuZF9wcmVwLm1hZScsICctbXMnLCAnMScsICctcGgnLCAnNycsICctcGh0JywgJzAuNScsICctbnQn

> <r_lp_tautomer_probability>
1

> <r_epik_Ionization_Penalty>
  0.0000

> <r_epik_Ionization_Penalty_Charging>
  0.0000

> <r_epik_Ionization_Penalty_Neutral>
  0.0000

> <r_epik_State_Penalty>
 -0.0000

> <r_epik_Charging_Adjusted_Penalty>
4.91652350295022e-05

> <i_epik_Tot_Q>
-1

> <i_epik_Tot_abs_Q>
1

$$$$
