4dds_ligand
                    3D
 Schrodinger Suite 2020-3.
 40 43  0  0  1  0            999 V2000
   -9.2330   55.6610   13.5100 O   0  0  0  0  0  0
   -8.7990   55.8140   12.3560 C   0  0  0  0  0  0
   -7.7420   55.1140   11.9120 N   0  0  0  0  0  0
   -6.9370   54.2790   12.7340 C   0  0  0  0  0  0
   -5.5800   54.1940   12.3660 C   0  0  0  0  0  0
   -7.4130   53.5870   13.8670 C   0  0  0  0  0  0
   -6.4720   52.8850   14.6180 C   0  0  0  0  0  0
   -5.1060   52.8230   14.2610 C   0  0  0  0  0  0
   -4.6530   53.4540   13.1030 C   0  0  0  0  0  0
   -3.2170   53.4210   12.6940 C   0  0  0  0  0  0
   -2.1730   53.0750   13.4960 N   0  0  0  0  0  0
   -0.9840   53.1370   12.7530 N   0  3  0  0  0  0
   -1.3510   53.4880   11.4480 N   0  0  0  0  0  0
   -2.7300   53.6020   11.4300 N   0  3  0  0  0  0
   -9.5620   56.7340   11.4250 C   0  0  0  0  0  0
   -9.1970   56.9220   10.1020 C   0  0  0  0  0  0
   -9.9310   57.7660    9.2680 C   0  0  0  0  0  0
  -11.0320   58.4690    9.7450 C   0  0  0  0  0  0
  -11.3930   58.3110   11.0700 C   0  0  0  0  0  0
  -10.6620   57.4550   11.9070 C   0  0  0  0  0  0
  -12.6070   59.0070   11.6010 C   0  0  0  0  0  0
  -13.1660   60.0330   10.9160 N   0  0  0  0  0  0
  -14.2560   60.6510   11.3520 C   0  0  0  0  0  0
  -14.8090   60.2420   12.5420 C   0  0  0  0  0  0
  -14.2490   59.1930   13.2380 C   0  0  0  0  0  0
  -13.1520   58.5890   12.7630 N   0  0  0  0  0  0
   -7.4532   55.1670   10.8519 H   0  0  0  0  0  0
   -5.2419   54.7239   11.4755 H   0  0  0  0  0  0
   -8.4675   53.6006   14.1424 H   0  0  0  0  0  0
   -6.8026   52.3632   15.5161 H   0  0  0  0  0  0
   -4.4038   52.2798   14.8934 H   0  0  0  0  0  0
   -8.3237   56.4031    9.7068 H   0  0  0  0  0  0
   -9.6363   57.8763    8.2244 H   0  0  0  0  0  0
  -11.5979   59.1300    9.0885 H   0  0  0  0  0  0
  -10.9553   57.3490   12.9514 H   0  0  0  0  0  0
  -14.7026   61.4642   10.7798 H   0  0  0  0  0  0
  -15.6909   60.7477   12.9352 H   0  0  0  0  0  0
  -14.6975   58.8557   14.1725 H   0  0  0  0  0  0
   -0.1078   52.9441   13.1946 H   0  0  0  0  0  0
   -3.2525   53.8087   10.4843 H   0  0  0  0  0  0
  1  2  2  0  0  0
  2  3  1  0  0  0
  2 15  1  0  0  0
  3  4  1  0  0  0
  3 27  1  0  0  0
  4  5  2  0  0  0
  4  6  1  0  0  0
  5  9  1  0  0  0
  5 28  1  0  0  0
  6  7  2  0  0  0
  6 29  1  0  0  0
  7  8  1  0  0  0
  7 30  1  0  0  0
  8  9  2  0  0  0
  8 31  1  0  0  0
  9 10  1  0  0  0
 10 11  2  0  0  0
 10 14  1  0  0  0
 11 12  1  0  0  0
 12 13  1  0  0  0
 12 39  1  0  0  0
 13 14  2  0  0  0
 14 40  1  0  0  0
 15 16  2  0  0  0
 15 20  1  0  0  0
 16 17  1  0  0  0
 16 32  1  0  0  0
 17 18  2  0  0  0
 17 33  1  0  0  0
 18 19  1  0  0  0
 18 34  1  0  0  0
 19 20  2  0  0  0
 19 21  1  0  0  0
 20 35  1  0  0  0
 21 22  2  0  0  0
 21 26  1  0  0  0
 22 23  1  0  0  0
 23 24  2  0  0  0
 23 36  1  0  0  0
 24 25  1  0  0  0
 24 37  1  0  0  0
 25 26  2  0  0  0
 25 38  1  0  0  0
M  CHG  2  12   1  14   1
M  END
> <s_m_source_file>
../4dds_ligand.sdf

> <i_m_source_file_index>
1

> <s_epik_input>
bjFuW25IXW5jMS1jKFtjSF1bY0hdW2NIXTIpW2NIXWMyW05IXUMoPU8pYzNbY0hdW2NIXVtjSF1jKFtjSF0zKS1jNG5bY0hdW2NIXVtjSF1uNA==

> <s_epik_cmdline>
J2VwaWtfYXBwJywgJy1pbWFlJywgJ2xpZ2FuZF9wcm8ubWFlJywgJy1vbWFlJywgJ2xpZ2FuZF9wcmVwLm1hZScsICctbXMnLCAnMScsICctcGgnLCAnNycsICctcGh0JywgJzAuNScsICctbnQn

> <r_epik_Ionization_Penalty>
 10.5112

> <r_epik_Ionization_Penalty_Charging>
 10.5111

> <r_epik_Ionization_Penalty_Neutral>
  0.0000

> <r_epik_State_Penalty>
  0.0112

> <r_epik_Charging_Adjusted_Penalty>
10.5223709335897

> <i_epik_Tot_Q>
2

> <i_epik_Tot_abs_Q>
2

> <s_epik_Chemistry_Notes>
This compound has an imine and may undergo hydrolysis.

$$$$
