4de5_ligand
                    3D
 Schrodinger Suite 2020-3.
 20 21  0  0  1  0            999 V2000
   15.2280   12.9710    3.6940 O   0  0  0  0  0  0
   15.3800   11.8060    3.3390 C   0  0  0  0  0  0
   15.8230   11.4450    2.2320 O   0  5  0  0  0  0
   15.0580   10.7040    4.3430 C   0  0  1  0  0  0
   14.2590   11.1700    5.4440 O   0  0  0  0  0  0
   14.0760   10.1990    6.3820 C   0  0  0  0  0  0
   13.8250   10.5260    7.7170 C   0  0  0  0  0  0
   13.6270    9.5360    8.6710 C   0  0  0  0  0  0
   13.6890    8.2210    8.2310 C   0  0  0  0  0  0
   13.9110    7.8690    6.9060 C   0  0  0  0  0  0
   14.1070    8.8650    5.9650 C   0  0  0  0  0  0
   14.3430    8.5640    4.6360 O   0  0  0  0  0  0
   14.2560    9.6310    3.7000 C   0  0  0  0  0  0
   16.0111   10.3351    4.7499 H   0  0  0  0  0  0
   13.7839   11.5738    8.0144 H   0  0  0  0  0  0
   13.4322    9.7801    9.7153 H   0  0  0  0  0  0
   13.5567    7.4240    8.9627 H   0  0  0  0  0  0
   13.9307    6.8200    6.6104 H   0  0  0  0  0  0
   13.2240    9.9824    3.5535 H   0  0  0  0  0  0
   14.6984    9.3764    2.7256 H   0  0  0  0  0  0
  1  2  2  0  0  0
  2  3  1  0  0  0
  2  4  1  0  0  0
  4  5  1  0  0  0
  4 13  1  0  0  0
  4 14  1  0  0  0
  5  6  1  0  0  0
  6  7  2  0  0  0
  6 11  1  0  0  0
  7  8  1  0  0  0
  7 15  1  0  0  0
  8  9  2  0  0  0
  8 16  1  0  0  0
  9 10  1  0  0  0
  9 17  1  0  0  0
 10 11  2  0  0  0
 10 18  1  0  0  0
 11 12  1  0  0  0
 12 13  1  0  0  0
 13 19  1  0  0  0
 13 20  1  0  0  0
M  CHG  1   3  -1
M  END
> <s_m_source_file>
../4de5_ligand.sdf

> <i_m_source_file_index>
1

> <s_epik_input>
Tz1DKFtPSF0pW0NAQEhdKE8xKVtDSDJdT2MoYzEyKVtjSF1bY0hdW2NIXVtjSF0y

> <s_epik_cmdline>
J2VwaWtfYXBwJywgJy1pbWFlJywgJ2xpZ2FuZF9wcm8ubWFlJywgJy1vbWFlJywgJ2xpZ2FuZF9wcmVwLm1hZScsICctbXMnLCAnMScsICctcGgnLCAnNycsICctcGh0JywgJzAuNScsICctbnQn

> <r_lp_tautomer_probability>
1

> <r_epik_Ionization_Penalty>
  0.0000

> <r_epik_Ionization_Penalty_Charging>
  0.0000

> <r_epik_Ionization_Penalty_Neutral>
  0.0000

> <r_epik_State_Penalty>
 -0.0000

> <r_epik_Charging_Adjusted_Penalty>
3.41963150127083e-05

> <i_epik_Tot_Q>
-1

> <i_epik_Tot_abs_Q>
1

$$$$
