4ded_ligand
                    3D
 Schrodinger Suite 2020-3.
 42 44  0  0  1  0            999 V2000
   -3.0620  -32.8350    6.8240 N   0  0  0  0  0  0
   -3.7940  -30.6670    6.5190 N   0  0  0  0  0  0
   -3.4210  -31.6380    8.6900 N   0  0  0  0  0  0
   -4.5370  -28.4380    6.4130 N   0  0  0  0  0  0
   -0.7470  -34.0730    4.2970 C   0  0  0  0  0  0
   -7.2560  -25.7670    5.7640 N   0  0  0  0  0  0
   -1.3420  -33.5730    3.0920 C   0  0  0  0  0  0
   -0.6230  -32.7370    0.8990 N   0  0  0  0  0  0
   -2.5330  -32.8090    3.1730 C   0  0  0  0  0  0
   -3.1240  -32.5500    4.4390 C   0  0  0  0  0  0
   -2.5310  -33.0470    5.6490 C   0  0  0  0  0  0
   -1.3400  -33.8110    5.5630 C   0  0  0  0  0  0
   -0.7710  -33.8240    1.8670 C   0  0  0  0  0  0
   -3.4270  -31.6990    7.3370 C   0  0  0  0  0  0
   -4.1810  -29.4860    7.1310 C   0  0  0  0  0  0
   -4.2060  -29.3330    8.5200 C   0  0  0  0  0  0
   -3.8120  -30.4540    9.2480 C   0  0  0  0  0  0
   -4.9690  -28.4320    5.1660 C   0  0  0  0  0  0
   -4.1990  -29.0240    4.1030 C   0  0  0  0  0  0
   -4.6680  -29.0110    2.7620 C   0  0  0  0  0  0
   -5.9100  -28.4050    2.4500 C   0  0  0  0  0  0
   -6.6930  -27.8060    3.4780 C   0  0  0  0  0  0
   -6.2430  -27.8090    4.8380 C   0  0  0  0  0  0
   -7.0280  -27.2160    5.8010 C   0  0  0  0  0  0
   -7.5470  -27.8770    6.6760 O   0  0  0  0  0  0
   -0.3850  -34.9370    1.5690 O   0  0  0  0  0  0
   -3.2462  -33.6792    7.5047 H   0  0  0  0  0  0
   -4.4893  -27.4298    6.8503 H   0  0  0  0  0  0
    0.1697  -34.6602    4.2422 H   0  0  0  0  0  0
   -6.7909  -25.1570    4.9756 H   0  0  0  0  0  0
   -7.8920  -25.2907    6.5247 H   0  0  0  0  0  0
   -0.9673  -31.7236    1.1531 H   0  0  0  0  0  0
   -0.1675  -32.9331   -0.0829 H   0  0  0  0  0  0
   -2.9950  -32.4206    2.2654 H   0  0  0  0  0  0
   -4.0420  -31.9648    4.4927 H   0  0  0  0  0  0
   -0.8770  -34.1990    6.4703 H   0  0  0  0  0  0
   -4.5119  -28.4032    8.9996 H   0  0  0  0  0  0
   -3.8161  -30.3812   10.3356 H   0  0  0  0  0  0
   -3.2403  -29.4899    4.3310 H   0  0  0  0  0  0
   -4.0716  -29.4678    1.9723 H   0  0  0  0  0  0
   -6.2674  -28.3971    1.4203 H   0  0  0  0  0  0
   -7.6458  -27.3399    3.2269 H   0  0  0  0  0  0
  1 11  1  0  0  0
  1 14  1  0  0  0
  1 27  1  0  0  0
  2 14  2  0  0  0
  2 15  1  0  0  0
  3 14  1  0  0  0
  3 17  2  0  0  0
  4 15  1  0  0  0
  4 18  1  0  0  0
  4 28  1  0  0  0
  5  7  2  0  0  0
  5 12  1  0  0  0
  5 29  1  0  0  0
  6 24  1  0  0  0
  6 30  1  0  0  0
  6 31  1  0  0  0
  7  9  1  0  0  0
  7 13  1  0  0  0
  8 13  1  0  0  0
  8 32  1  0  0  0
  8 33  1  0  0  0
  9 10  2  0  0  0
  9 34  1  0  0  0
 10 11  1  0  0  0
 10 35  1  0  0  0
 11 12  2  0  0  0
 12 36  1  0  0  0
 13 26  2  0  0  0
 15 16  2  0  0  0
 16 17  1  0  0  0
 16 37  1  0  0  0
 17 38  1  0  0  0
 18 19  2  0  0  0
 18 23  1  0  0  0
 19 20  1  0  0  0
 19 39  1  0  0  0
 20 21  2  0  0  0
 20 40  1  0  0  0
 21 22  1  0  0  0
 21 41  1  0  0  0
 22 23  2  0  0  0
 22 42  1  0  0  0
 23 24  1  0  0  0
 24 25  2  0  0  0
M  END
> <s_m_source_file>
../4ded_ligand.sdf

> <i_m_source_file_index>
1

> <s_epik_input>
W05IMl1DKD1PKWMxW2NIXVtjSF1jKFtjSF1bY0hdMSlbTkhdYzJuYyhbY0hdW2NIXW4yKVtOSF1jM1tjSF1bY0hdW2NIXVtjSF1jM0MoPU8pW05IMl0=

> <s_epik_cmdline>
J2VwaWtfYXBwJywgJy1pbWFlJywgJ2xpZ2FuZF9wcm8ubWFlJywgJy1vbWFlJywgJ2xpZ2FuZF9wcmVwLm1hZScsICctbXMnLCAnMScsICctcGgnLCAnNycsICctcGh0JywgJzAuNScsICctbnQn

> <r_lp_tautomer_probability>
1

> <r_epik_Ionization_Penalty>
  0.0269

> <r_epik_Ionization_Penalty_Charging>
  0.0000

> <r_epik_Ionization_Penalty_Neutral>
  0.0269

> <r_epik_State_Penalty>
 -0.0000

> <r_epik_Charging_Adjusted_Penalty>
0

> <i_epik_Tot_Q>
0

> <i_epik_Tot_abs_Q>
0

$$$$
