4deg_ligand
                    3D
 Schrodinger Suite 2020-3.
 45 49  0  0  1  0            999 V2000
   14.0840   11.3520   60.3370 C   0  0  0  0  0  0
   15.3310   11.3790   59.4520 C   0  0  0  0  0  0
   16.0790   12.4930   59.3000 C   0  0  0  0  0  0
   15.7410   10.2850   58.7950 N   0  0  0  0  0  0
   17.1070   10.7170   57.9590 S   0  0  0  0  0  0
   17.1360   12.3230   58.4940 C   0  0  0  0  0  0
   18.1040   13.2370   58.0870 C   0  0  0  0  0  0
   18.1340   14.5230   58.6330 C   0  0  0  0  0  0
   19.1030   15.4120   58.1880 C   0  0  0  0  0  0
   18.9980   12.8780   57.1400 N   0  0  0  0  0  0
   19.8710   13.6580   56.7320 N   0  0  0  0  0  0
   19.9880   14.9600   57.2140 C   0  0  0  0  0  0
   21.0150   15.5230   56.5780 N   0  0  0  0  0  0
   21.5370   14.7360   55.7710 N   0  0  0  0  0  0
   20.8970   13.5640   55.7960 C   0  0  0  0  0  0
   21.1820   12.2970   54.9790 C   0  0  0  0  0  0
   21.1230   11.0950   55.8350 N   0  0  0  0  0  0
   22.1260   10.7110   56.6400 C   0  0  0  0  0  0
   23.3650   11.3590   56.6590 C   0  0  0  0  0  0
   24.3600   10.9030   57.5270 C   0  0  0  0  0  0
   24.1480    9.8630   58.3260 N   0  0  0  0  0  0
   22.9710    9.2100   58.3310 C   0  0  0  0  0  0
   22.7660    8.1230   59.1830 C   0  0  0  0  0  0
   21.9360    9.6240   57.4880 C   0  0  0  0  0  0
   20.7580    8.9810   57.4960 N   0  0  0  0  0  0
   20.5420    7.9440   58.2950 C   0  0  0  0  0  0
   21.5290    7.4750   59.1650 C   0  0  0  0  0  0
   21.2300    6.3920   59.9540 O   0  0  0  0  0  0
   22.0430    6.1810   61.1190 C   0  0  0  0  0  0
   13.9270   12.3467   60.7797 H   0  0  0  0  0  0
   14.2193   10.6111   61.1387 H   0  0  0  0  0  0
   13.2088   11.0789   59.7291 H   0  0  0  0  0  0
   15.8453   13.4400   59.7865 H   0  0  0  0  0  0
   17.4116   14.8219   59.3925 H   0  0  0  0  0  0
   19.1680   16.4246   58.5861 H   0  0  0  0  0  0
   20.4324   12.1997   54.1799 H   0  0  0  0  0  0
   22.1856   12.3657   54.5339 H   0  0  0  0  0  0
   20.2231   10.4624   55.8336 H   0  0  0  0  0  0
   23.5522   12.2100   56.0041 H   0  0  0  0  0  0
   25.3255   11.4084   57.5491 H   0  0  0  0  0  0
   23.5584    7.7857   59.8512 H   0  0  0  0  0  0
   19.5723    7.4468   58.2720 H   0  0  0  0  0  0
   21.6932    5.2851   61.6528 H   0  0  0  0  0  0
   21.9678    7.0556   61.7819 H   0  0  0  0  0  0
   23.0907    6.0408   60.8145 H   0  0  0  0  0  0
  1  2  1  0  0  0
  1 30  1  0  0  0
  1 31  1  0  0  0
  1 32  1  0  0  0
  2  3  1  0  0  0
  2  4  2  0  0  0
  3  6  2  0  0  0
  3 33  1  0  0  0
  4  5  1  0  0  0
  5  6  1  0  0  0
  6  7  1  0  0  0
  7  8  1  0  0  0
  7 10  2  0  0  0
  8  9  2  0  0  0
  8 34  1  0  0  0
  9 12  1  0  0  0
  9 35  1  0  0  0
 10 11  1  0  0  0
 11 12  1  0  0  0
 11 15  1  0  0  0
 12 13  2  0  0  0
 13 14  1  0  0  0
 14 15  2  0  0  0
 15 16  1  0  0  0
 16 17  1  0  0  0
 16 36  1  0  0  0
 16 37  1  0  0  0
 17 18  1  0  0  0
 17 38  1  0  0  0
 18 19  2  0  0  0
 18 24  1  0  0  0
 19 20  1  0  0  0
 19 39  1  0  0  0
 20 21  2  0  0  0
 20 40  1  0  0  0
 21 22  1  0  0  0
 22 23  1  0  0  0
 22 24  2  0  0  0
 23 27  2  0  0  0
 23 41  1  0  0  0
 24 25  1  0  0  0
 25 26  2  0  0  0
 26 27  1  0  0  0
 26 42  1  0  0  0
 27 28  1  0  0  0
 28 29  1  0  0  0
 29 43  1  0  0  0
 29 44  1  0  0  0
 29 45  1  0  0  0
M  END
> <s_m_source_file>
../4deg_ligand.sdf

> <i_m_source_file_index>
1

> <s_epik_input>
W0NIM11jMVtjSF1jKHNuMSktYyhuMilbY0hdW2NIXWMobjIzKW5uYzNbQ0gyXVtOSF1jKFtjSF1bY0hdbjQpYyhjNDUpbltjSF1jKFtjSF01KU9bQ0gzXQ==

> <s_epik_cmdline>
J2VwaWtfYXBwJywgJy1pbWFlJywgJ2xpZ2FuZF9wcm8ubWFlJywgJy1vbWFlJywgJ2xpZ2FuZF9wcmVwLm1hZScsICctbXMnLCAnMScsICctcGgnLCAnNycsICctcGh0JywgJzAuNScsICctbnQn

> <r_epik_Ionization_Penalty>
  0.0269

> <r_epik_Ionization_Penalty_Charging>
  0.0000

> <r_epik_Ionization_Penalty_Neutral>
  0.0269

> <r_epik_State_Penalty>
  0.0220

> <r_epik_Charging_Adjusted_Penalty>
0.0219600572178786

> <i_epik_Tot_Q>
0

> <i_epik_Tot_abs_Q>
0

$$$$
