4dem_ligand
                    3D
 Schrodinger Suite 2020-3.
 44 45  0  0  1  0            999 V2000
   14.8450   36.5870   -7.9400 O   0  5  0  0  0  0
   15.0580   35.3280   -7.0830 P   0  0  0  0  0  0
   16.4400   35.4000   -6.4240 O   0  5  0  0  0  0
   14.0780   35.1500   -5.9180 O   0  0  0  0  0  0
   14.9310   33.8420   -8.1510 C   0  0  1  0  0  0
   16.1540   33.8550   -9.4970 P   0  0  0  0  0  0
   17.5570   33.7080   -8.7730 O   0  5  0  0  0  0
   15.9720   32.5800  -10.3420 O   0  0  0  0  0  0
   16.0610   35.0730  -10.3990 O   0  0  0  0  0  0
   15.1780   32.6830   -7.2530 N   0  0  0  0  0  0
   14.8940   31.3970   -7.5640 C   0  0  0  0  0  0
   15.6940   30.3400   -7.0720 C   0  0  0  0  0  0
   13.9000   31.1470   -8.4950 N   0  3  0  0  0  0
   13.6390   29.8680   -8.8930 C   0  0  0  0  0  0
   14.3890   28.8360   -8.3600 C   0  0  0  0  0  0
   15.4330   29.0410   -7.4610 C   0  0  0  0  0  0
   16.2020   27.8970   -6.9680 C   0  0  0  0  0  0
   16.1980   26.7360   -7.6190 C   0  0  0  0  0  0
   16.9220   25.6470   -7.0950 C   0  0  0  0  0  0
   16.9600   28.0090   -5.7980 C   0  0  0  0  0  0
   17.7000   26.9200   -5.2450 C   0  0  0  0  0  0
   17.6300   25.7040   -5.9010 C   0  0  0  0  0  0
   18.2850   24.5190   -5.4980 O   0  0  0  0  0  0
   19.1730   24.6200   -4.4830 C   0  0  0  0  0  0
   20.4070   25.3410   -4.9510 C   0  0  0  0  0  0
   19.6270   23.1530   -4.3230 C   0  0  0  0  0  0
   13.9252   33.6279   -8.5415 H   0  0  0  0  0  0
   16.0083   31.5915   -9.8609 H   0  0  0  0  0  0
   15.6211   32.8421   -6.2588 H   0  0  0  0  0  0
   16.5153   30.5502   -6.3869 H   0  0  0  0  0  0
   12.8522   29.6634   -9.6191 H   0  0  0  0  0  0
   14.1523   27.8144   -8.6572 H   0  0  0  0  0  0
   15.6397   26.6288   -8.5490 H   0  0  0  0  0  0
   16.9269   24.7119   -7.6550 H   0  0  0  0  0  0
   16.9871   28.9705   -5.2853 H   0  0  0  0  0  0
   18.2968   27.0421   -4.3411 H   0  0  0  0  0  0
   18.6738   25.1485   -3.6575 H   0  0  0  0  0  0
   20.1767   26.4071   -5.0939 H   0  0  0  0  0  0
   20.7454   24.9080   -5.9039 H   0  0  0  0  0  0
   21.2014   25.2352   -4.1975 H   0  0  0  0  0  0
   18.7792   22.5422   -3.9793 H   0  0  0  0  0  0
   20.4406   23.0994   -3.5847 H   0  0  0  0  0  0
   19.9847   22.7722   -5.2910 H   0  0  0  0  0  0
   13.3184   31.9804   -8.9158 H   0  0  0  0  0  0
  1  2  1  0  0  0
  2  3  1  0  0  0
  2  4  2  0  0  0
  2  5  1  0  0  0
  5  6  1  0  0  0
  5 10  1  0  0  0
  5 27  1  0  0  0
  6  7  1  0  0  0
  6  8  1  0  0  0
  6  9  2  0  0  0
  8 28  1  0  0  0
 10 11  1  0  0  0
 10 29  1  0  0  0
 11 12  2  0  0  0
 11 13  1  0  0  0
 12 16  1  0  0  0
 12 30  1  0  0  0
 13 14  2  0  0  0
 13 44  1  0  0  0
 14 15  1  0  0  0
 14 31  1  0  0  0
 15 16  2  0  0  0
 15 32  1  0  0  0
 16 17  1  0  0  0
 17 18  2  0  0  0
 17 20  1  0  0  0
 18 19  1  0  0  0
 18 33  1  0  0  0
 19 22  2  0  0  0
 19 34  1  0  0  0
 20 21  2  0  0  0
 20 35  1  0  0  0
 21 22  1  0  0  0
 21 36  1  0  0  0
 22 23  1  0  0  0
 23 24  1  0  0  0
 24 25  1  0  0  0
 24 26  1  0  0  0
 24 37  1  0  0  0
 25 38  1  0  0  0
 25 39  1  0  0  0
 25 40  1  0  0  0
 26 41  1  0  0  0
 26 42  1  0  0  0
 26 43  1  0  0  0
M  CHG  4   1  -1   3  -1   7  -1  13   1
M  END
> <s_m_source_file>
../4dem_ligand.sdf

> <i_m_source_file_index>
1

> <s_epik_input>
W09IXVAoPU8pKFtPSF0pW0NIXShQKD1PKShbT0hdKVtPSF0pW05IXWMxW2NIXWMoW2NIXVtjSF1uMSktYzJbY0hdW2NIXWMoW2NIXVtjSF0yKU9bQ0hdKFtDSDNdKVtDSDNd

> <s_epik_cmdline>
J2VwaWtfYXBwJywgJy1pbWFlJywgJ2xpZ2FuZF9wcm8ubWFlJywgJy1vbWFlJywgJ2xpZ2FuZF9wcmVwLm1hZScsICctbXMnLCAnMScsICctcGgnLCAnNycsICctcGh0JywgJzAuNScsICctbnQn

> <r_lp_tautomer_probability>
0.999993852037798

> <r_epik_Ionization_Penalty>
  0.4686

> <r_epik_Ionization_Penalty_Charging>
  0.4686

> <r_epik_Ionization_Penalty_Neutral>
  0.0000

> <r_epik_State_Penalty>
  0.3302

> <r_epik_Charging_Adjusted_Penalty>
0.798846926630724

> <i_epik_Tot_Q>
-2

> <i_epik_Tot_abs_Q>
4

$$$$
