4deu_ligand
                    3D
 Schrodinger Suite 2020-3.
 32 34  0  0  1  0            999 V2000
   20.8430   41.9850   37.6050 C   0  0  0  0  0  0
   20.9420   42.0050   36.2720 C   0  0  0  0  0  0
   21.9860   42.6280   35.6500 C   0  0  0  0  0  0
   22.9510   43.2380   36.4080 C   0  0  0  0  0  0
   22.8850   43.2270   37.7440 C   0  0  0  0  0  0
   21.8250   42.5930   38.3440 C   0  0  0  0  0  0
   23.8440   43.7720   38.6060 C   0  0  0  0  0  0
   23.7880   43.3480   40.0740 C   0  0  0  0  0  0
   22.7970   42.1410   40.1750 C   0  0  2  0  0  0
   21.7150   42.6000   39.6610 O   0  0  0  0  0  0
   24.7880   44.4600   38.2560 O   0  0  0  0  0  0
   22.2000   41.6800   41.5160 C   0  0  0  0  0  0
   21.7220   42.6140   42.3560 C   0  0  0  0  0  0
   21.1600   42.1210   43.5310 C   0  0  0  0  0  0
   21.0040   40.7720   43.8510 C   0  0  0  0  0  0
   21.4520   39.7780   43.0220 C   0  0  0  0  0  0
   22.0310   40.1730   41.7990 C   0  0  0  0  0  0
   20.4310   40.4820   45.0250 O   0  0  0  0  0  0
   19.9810   41.3970   35.5760 O   0  0  0  0  0  0
   23.9760   43.8550   35.8400 O   0  0  0  0  0  0
   20.0002   41.4961   38.0937 H   0  0  0  0  0  0
   22.0510   42.6399   34.5620 H   0  0  0  0  0  0
   24.7928   43.0504   40.4083 H   0  0  0  0  0  0
   23.4327   44.1904   40.6857 H   0  0  0  0  0  0
   23.2803   41.2946   39.6650 H   0  0  0  0  0  0
   21.7707   43.6800   42.1337 H   0  0  0  0  0  0
   20.8127   42.8507   44.2624 H   0  0  0  0  0  0
   21.3646   38.7267   43.2962 H   0  0  0  0  0  0
   22.3523   39.4298   41.0692 H   0  0  0  0  0  0
   20.0766   41.2923   45.6791 H   0  0  0  0  0  0
   19.1506   40.9023   36.1011 H   0  0  0  0  0  0
   24.0620   43.8836   34.7437 H   0  0  0  0  0  0
  1  2  2  0  0  0
  1  6  1  0  0  0
  1 21  1  0  0  0
  2  3  1  0  0  0
  2 19  1  0  0  0
  3  4  2  0  0  0
  3 22  1  0  0  0
  4  5  1  0  0  0
  4 20  1  0  0  0
  5  6  2  0  0  0
  5  7  1  0  0  0
  6 10  1  0  0  0
  7  8  1  0  0  0
  7 11  2  0  0  0
  8  9  1  0  0  0
  8 23  1  0  0  0
  8 24  1  0  0  0
  9 10  1  0  0  0
  9 12  1  0  0  0
  9 25  1  0  0  0
 12 13  2  0  0  0
 12 17  1  0  0  0
 13 14  1  0  0  0
 13 26  1  0  0  0
 14 15  2  0  0  0
 14 27  1  0  0  0
 15 16  1  0  0  0
 15 18  1  0  0  0
 16 17  2  0  0  0
 16 28  1  0  0  0
 17 29  1  0  0  0
 18 30  1  0  0  0
 19 31  1  0  0  0
 20 32  1  0  0  0
M  END
> <s_m_source_file>
../4deu_ligand.sdf

> <i_m_source_file_index>
1

> <s_epik_input>
W09IXWMxW2NIXWMoW09IXSlbY0hdYyhjMTIpT1tDQEBIXShbQ0gyXUMyPU8pYzNbY0hdW2NIXWMoW09IXSlbY0hdW2NIXTM=

> <s_epik_cmdline>
J2VwaWtfYXBwJywgJy1pbWFlJywgJ2xpZ2FuZF9wcm8ubWFlJywgJy1vbWFlJywgJ2xpZ2FuZF9wcmVwLm1hZScsICctbXMnLCAnMScsICctcGgnLCAnNycsICctcGh0JywgJzAuNScsICctbnQn

> <r_lp_tautomer_probability>
0.999949999997365

> <r_epik_Ionization_Penalty>
  0.0250

> <r_epik_Ionization_Penalty_Charging>
  0.0000

> <r_epik_Ionization_Penalty_Neutral>
  0.0250

> <r_epik_State_Penalty>
  0.0118

> <r_epik_Charging_Adjusted_Penalty>
0.0118056278605975

> <i_epik_Tot_Q>
0

> <i_epik_Tot_abs_Q>
0

$$$$
