4dfb_ligand
                    3D
 Schrodinger Suite 2020-3.
 73 75  0  0  1  0            999 V2000
    2.6330   59.6750   42.2150 C   0  0  2  0  0  0
    1.8000   58.7240   43.0750 C   0  0  1  0  0  0
    1.9270   59.1400   44.5370 C   0  0  2  0  0  0
    3.4070   59.1030   44.9040 C   0  0  1  0  0  0
    4.1870   60.0600   44.0130 C   0  0  1  0  0  0
    5.6850   60.0210   44.3120 C   0  0  0  0  0  0
    2.5480   64.5370   39.8250 C   0  0  1  0  0  0
    3.5440   63.3990   39.5770 C   0  0  1  0  0  0
    2.9470   62.1220   40.2180 C   0  0  2  0  0  0
    2.6350   62.2250   41.7320 C   0  0  1  0  0  0
    1.6640   63.3870   41.9290 C   0  0  2  0  0  0
    2.2610   64.6500   41.3210 C   0  0  0  0  0  0
    4.9320   62.4540   37.6410 C   0  0  1  0  0  0
    5.0750   62.7220   36.1350 C   0  0  1  0  0  0
    3.8410   62.2840   35.3700 C   0  0  2  0  0  0
    3.6640   60.8000   35.6230 C   0  0  1  0  0  0
    3.4920   60.5480   37.1030 C   0  0  1  0  0  0
    3.3950   59.0430   37.3360 C   0  0  0  0  0  0
    6.3880   60.9550   43.4240 N   0  3  0  0  0  0
    1.4330   63.5990   43.3650 N   0  3  0  0  0  0
    3.1080   65.8000   39.3280 N   0  3  0  0  0  0
    4.0270   62.5270   33.9360 N   0  3  0  0  0  0
    4.0150   59.6580   42.6390 O   0  0  0  0  0  0
    0.4430   58.7210   42.6160 O   0  0  0  0  0  0
    1.1900   58.2350   45.3650 O   0  0  0  0  0  0
    3.5720   59.4740   46.2740 O   0  0  0  0  0  0
    2.0570   61.0030   42.3300 O   0  0  0  0  0  0
    3.9200   61.0930   40.0550 O   0  0  0  0  0  0
    3.8360   63.2900   38.1250 O   0  0  0  0  0  0
    4.6720   61.0290   37.8100 O   0  0  0  0  0  0
    5.3560   64.1150   35.9750 O   0  0  0  0  0  0
    2.5170   60.3210   34.9140 O   0  0  0  0  0  0
    4.5810   58.4170   36.8360 O   0  0  0  0  0  0
    2.6536   59.4009   41.1499 H   0  0  0  0  0  0
    2.1059   57.6731   42.9648 H   0  0  0  0  0  0
    1.4797   60.1261   44.7309 H   0  0  0  0  0  0
    3.8072   58.0818   44.8202 H   0  0  0  0  0  0
    3.7898   61.0770   44.1469 H   0  0  0  0  0  0
    5.8576   60.3114   45.3589 H   0  0  0  0  0  0
    6.0655   59.0023   44.1466 H   0  0  0  0  0  0
    1.6134   64.3617   39.2719 H   0  0  0  0  0  0
    4.5384   63.5886   40.0073 H   0  0  0  0  0  0
    2.0161   61.8623   39.6926 H   0  0  0  0  0  0
    3.5799   62.3495   42.2812 H   0  0  0  0  0  0
    0.6908   63.1592   41.4697 H   0  0  0  0  0  0
    3.1970   64.8607   41.8590 H   0  0  0  0  0  0
    1.5454   65.4668   41.4964 H   0  0  0  0  0  0
    5.8114   62.6867   38.2594 H   0  0  0  0  0  0
    5.9252   62.1891   35.6843 H   0  0  0  0  0  0
    2.9515   62.8586   35.6677 H   0  0  0  0  0  0
    4.5228   60.2337   35.2334 H   0  0  0  0  0  0
    2.6123   61.0891   37.4815 H   0  0  0  0  0  0
    3.2966   58.8444   38.4134 H   0  0  0  0  0  0
    2.5153   58.6462   36.8082 H   0  0  0  0  0  0
    7.4661   60.9257   43.6405 H   0  0  0  0  0  0
    6.0084   61.9741   43.5892 H   0  0  0  0  0  0
    6.2163   60.6650   42.3769 H   0  0  0  0  0  0
    1.0019   62.6879   43.8055 H   0  0  0  0  0  0
    0.7362   64.4387   43.5042 H   0  0  0  0  0  0
    2.3880   63.8291   43.8599 H   0  0  0  0  0  0
    3.3122   65.7118   38.2507 H   0  0  0  0  0  0
    4.0440   66.0212   39.8618 H   0  0  0  0  0  0
    2.3873   66.6132   39.4992 H   0  0  0  0  0  0
    4.1547   63.6054   33.7604 H   0  0  0  0  0  0
    3.1448   62.1678   33.3858 H   0  0  0  0  0  0
    4.9210   61.9901   33.5861 H   0  0  0  0  0  0
    0.2142   58.4390   41.5777 H   0  0  0  0  0  0
    0.1023   58.1334   45.2363 H   0  0  0  0  0  0
    3.0772   58.8914   47.0650 H   0  0  0  0  0  0
    4.2939   60.8437   39.0510 H   0  0  0  0  0  0
    6.2259   64.5620   36.4785 H   0  0  0  0  0  0
    2.4658   60.4203   33.8197 H   0  0  0  0  0  0
    4.7011   57.3262   36.9122 H   0  0  0  0  0  0
  1  2  1  0  0  0
  1 23  1  0  0  0
  1 27  1  0  0  0
  1 34  1  0  0  0
  2  3  1  0  0  0
  2 24  1  0  0  0
  2 35  1  0  0  0
  3  4  1  0  0  0
  3 25  1  0  0  0
  3 36  1  0  0  0
  4  5  1  0  0  0
  4 26  1  0  0  0
  4 37  1  0  0  0
  5  6  1  0  0  0
  5 23  1  0  0  0
  5 38  1  0  0  0
  6 19  1  0  0  0
  6 39  1  0  0  0
  6 40  1  0  0  0
  7  8  1  0  0  0
  7 12  1  0  0  0
  7 21  1  0  0  0
  7 41  1  0  0  0
  8  9  1  0  0  0
  8 29  1  0  0  0
  8 42  1  0  0  0
  9 10  1  0  0  0
  9 28  1  0  0  0
  9 43  1  0  0  0
 10 11  1  0  0  0
 10 27  1  0  0  0
 10 44  1  0  0  0
 11 12  1  0  0  0
 11 20  1  0  0  0
 11 45  1  0  0  0
 12 46  1  0  0  0
 12 47  1  0  0  0
 13 14  1  0  0  0
 13 29  1  0  0  0
 13 30  1  0  0  0
 13 48  1  0  0  0
 14 15  1  0  0  0
 14 31  1  0  0  0
 14 49  1  0  0  0
 15 16  1  0  0  0
 15 22  1  0  0  0
 15 50  1  0  0  0
 16 17  1  0  0  0
 16 32  1  0  0  0
 16 51  1  0  0  0
 17 18  1  0  0  0
 17 30  1  0  0  0
 17 52  1  0  0  0
 18 33  1  0  0  0
 18 53  1  0  0  0
 18 54  1  0  0  0
 19 55  1  0  0  0
 19 56  1  0  0  0
 19 57  1  0  0  0
 20 58  1  0  0  0
 20 59  1  0  0  0
 20 60  1  0  0  0
 21 61  1  0  0  0
 21 62  1  0  0  0
 21 63  1  0  0  0
 22 64  1  0  0  0
 22 65  1  0  0  0
 22 66  1  0  0  0
 24 67  1  0  0  0
 25 68  1  0  0  0
 26 69  1  0  0  0
 28 70  1  0  0  0
 31 71  1  0  0  0
 32 72  1  0  0  0
 33 73  1  0  0  0
M  CHG  4  19   1  20   1  21   1  22   1
M  END
> <s_m_source_file>
../4dfb_ligand.sdf

> <i_m_source_file_index>
1

> <s_epik_input>
W05IMytdW0NIMl1bQ0BASF0oTzEpW0NAQEhdKFtPSF0pW0NASF0oW09IXSlbQ0BASF0oW09IXSlbQ0BIXTFPW0NASF0oW0NASF0oW0NIMl0yKVtOSDMrXSlbQ0BIXShbT0hdKVtDQEhdKFtDQEBIXTJbTkgzK10pT1tDQEBIXTNbQ0BIXShbT0hdKVtDQEBIXShbTkgzK10pW0NASF0oW09IXSlbQ0BIXShPMylbQ0gyXVtPSF0=

> <s_epik_cmdline>
J2VwaWtfYXBwJywgJy1pbWFlJywgJ2xpZ2FuZF9wcm8ubWFlJywgJy1vbWFlJywgJ2xpZ2FuZF9wcmVwLm1hZScsICctbXMnLCAnMScsICctcGgnLCAnNycsICctcGh0JywgJzAuNScsICctbnQn

> <r_lp_tautomer_probability>
1

> <r_epik_Ionization_Penalty>
  0.1910

> <r_epik_Ionization_Penalty_Charging>
  0.1907

> <r_epik_Ionization_Penalty_Neutral>
  0.0003

> <r_epik_State_Penalty>
 -0.0000

> <r_epik_Charging_Adjusted_Penalty>
0.190702142906852

> <i_epik_Tot_Q>
4

> <i_epik_Tot_abs_Q>
4

> <s_epik_Chemistry_Notes>
This compound contains an acetal/aminal-like group ( X-CH(R)-Y where X, Y are N, S, or O) that may be acid/base labile, releasing an aldehyde.

$$$$
