4dfl_ligand
                    3D
 Schrodinger Suite 2020-3.
 53 55  0  0  1  0            999 V2000
    0.6800   -1.0190   14.5190 C   0  0  0  0  0  0
    0.1780   -0.2040   13.5150 C   0  0  0  0  0  0
   -0.1410   -1.9360   15.1640 C   0  0  0  0  0  0
   -1.1500   -0.3160   13.1280 C   0  0  0  0  0  0
   -1.4630   -2.0350   14.7880 C   0  0  0  0  0  0
   -1.9670   -1.2290   13.7860 C   0  0  0  0  0  0
    2.0800   -0.8490   14.8630 C   0  0  0  0  0  0
    2.7550   -1.6360   15.7810 C   0  0  0  0  0  0
    4.0770   -1.3830   16.0350 N   0  0  0  0  0  0
    4.0730    0.4120   14.4360 C   0  0  0  0  0  0
    4.7410   -0.3550   15.3710 C   0  0  0  0  0  0
    5.7620    1.9600   13.9340 O   0  0  0  0  0  0
    4.1950    3.3130   11.9700 C   0  0  0  0  0  0
    2.9890    4.2530   12.0310 C   0  0  0  0  0  0
    2.8270    4.8460   13.4450 C   0  0  0  0  0  0
    3.1330    5.4050   11.0290 C   0  0  0  0  0  0
    1.8000    6.1630   11.0190 C   0  0  0  0  0  0
    1.4660    6.6540   12.3710 N   0  3  0  0  0  0
    0.4130    1.6000   11.2630 O   0  0  0  0  0  0
   -1.3290    3.1870   12.5510 C   0  0  0  0  0  0
   -1.6070    2.0940   10.1510 O   0  0  0  0  0  0
   -1.0030    1.8100   11.4370 S   0  0  0  0  0  0
   -1.7250    0.5080   12.1270 N   0  0  0  0  0  0
    2.7420    0.1530   14.2040 N   0  0  0  0  0  0
    6.0840   -0.1510   15.6830 N   0  0  0  0  0  0
    4.6450    1.5490   13.6920 C   0  0  0  0  0  0
    3.8220    2.1360   12.7660 N   0  0  0  0  0  0
    1.5450    5.6930   13.4980 C   0  0  0  0  0  0
    0.8271    0.5249   13.0297 H   0  0  0  0  0  0
    0.2558   -2.5692   15.9576 H   0  0  0  0  0  0
   -2.1150   -2.7538   15.2844 H   0  0  0  0  0  0
   -3.0178   -1.3095   13.5076 H   0  0  0  0  0  0
    2.2402   -2.4474   16.2955 H   0  0  0  0  0  0
    4.3952    3.0409   10.9232 H   0  0  0  0  0  0
    5.0759    3.8188   12.3923 H   0  0  0  0  0  0
    2.1044    3.6536   11.7697 H   0  0  0  0  0  0
    2.7593    4.0298   14.1793 H   0  0  0  0  0  0
    3.6959    5.4787   13.6791 H   0  0  0  0  0  0
    3.9529    6.0663   11.3460 H   0  0  0  0  0  0
    3.3551    4.9978   10.0316 H   0  0  0  0  0  0
    1.8725    7.0232   10.3372 H   0  0  0  0  0  0
    0.9987    5.4911   10.6777 H   0  0  0  0  0  0
    2.1495    7.4718   12.6433 H   0  0  0  0  0  0
    0.4299    7.0233   12.3814 H   0  0  0  0  0  0
   -0.8699    4.1016   12.1476 H   0  0  0  0  0  0
   -0.9011    2.9675   13.5403 H   0  0  0  0  0  0
   -2.4152    3.3329   12.6455 H   0  0  0  0  0  0
   -2.7388    0.2133   11.8181 H   0  0  0  0  0  0
    6.5766   -0.7856   16.4344 H   0  0  0  0  0  0
    6.6513    0.6446   15.1778 H   0  0  0  0  0  0
    2.8319    1.6749   12.6353 H   0  0  0  0  0  0
    0.6668    5.0325   13.4479 H   0  0  0  0  0  0
    1.5213    6.2638   14.4380 H   0  0  0  0  0  0
  1  2  2  0  0  0
  1  3  1  0  0  0
  1  7  1  0  0  0
  2  4  1  0  0  0
  2 29  1  0  0  0
  3  5  2  0  0  0
  3 30  1  0  0  0
  4  6  2  0  0  0
  4 23  1  0  0  0
  5  6  1  0  0  0
  5 31  1  0  0  0
  6 32  1  0  0  0
  7  8  2  0  0  0
  7 24  1  0  0  0
  8  9  1  0  0  0
  8 33  1  0  0  0
  9 11  2  0  0  0
 10 11  1  0  0  0
 10 24  2  0  0  0
 10 26  1  0  0  0
 11 25  1  0  0  0
 12 26  2  0  0  0
 13 14  1  0  0  0
 13 27  1  0  0  0
 13 34  1  0  0  0
 13 35  1  0  0  0
 14 15  1  0  0  0
 14 16  1  0  0  0
 14 36  1  0  0  0
 15 28  1  0  0  0
 15 37  1  0  0  0
 15 38  1  0  0  0
 16 17  1  0  0  0
 16 39  1  0  0  0
 16 40  1  0  0  0
 17 18  1  0  0  0
 17 41  1  0  0  0
 17 42  1  0  0  0
 18 28  1  0  0  0
 18 43  1  0  0  0
 18 44  1  0  0  0
 19 22  2  0  0  0
 20 22  1  0  0  0
 20 45  1  0  0  0
 20 46  1  0  0  0
 20 47  1  0  0  0
 21 22  2  0  0  0
 22 23  1  0  0  0
 23 48  1  0  0  0
 25 49  1  0  0  0
 25 50  1  0  0  0
 26 27  1  0  0  0
 27 51  1  0  0  0
 28 52  1  0  0  0
 28 53  1  0  0  0
M  CHG  1  18   1
M  END
> <s_m_source_file>
../4dfl_ligand.sdf

> <i_m_source_file_index>
1

> <s_epik_input>
W2NIXTFbY0hdW2NIXWMoW05IXVMoPU8pKD1PKVtDSDNdKVtjSF1jMS1jMltjSF1uYyhbTkgyXSljKG4yKUMoPU8pW05IXVtDSDJdW0NIXTNbQ0gyXVtDSDJdW05IMitdW0NIMl1bQ0gyXTM=

> <s_epik_cmdline>
J2VwaWtfYXBwJywgJy1pbWFlJywgJ2xpZ2FuZF9wcm8ubWFlJywgJy1vbWFlJywgJ2xpZ2FuZF9wcmVwLm1hZScsICctbXMnLCAnMScsICctcGgnLCAnNycsICctcGh0JywgJzAuNScsICctbnQn

> <r_lp_tautomer_probability>
0.999999901280008

> <r_epik_Ionization_Penalty>
  0.0246

> <r_epik_Ionization_Penalty_Charging>
  0.0004

> <r_epik_Ionization_Penalty_Neutral>
  0.0242

> <r_epik_State_Penalty>
  0.0196

> <r_epik_Charging_Adjusted_Penalty>
0.0200120276726751

> <i_epik_Tot_Q>
1

> <i_epik_Tot_abs_Q>
1

$$$$
