4dfn_ligand
                    3D
 Schrodinger Suite 2020-3.
 61 66  0  0  1  0            999 V2000
    0.7110   -1.1710   14.4680 C   0  0  0  0  0  0
   -0.0170   -0.2230   13.7530 C   0  0  0  0  0  0
    0.0500   -2.3280   14.8850 C   0  0  0  0  0  0
   -1.3630   -0.4290   13.4370 C   0  0  0  0  0  0
   -1.2850   -2.5360   14.5780 C   0  0  0  0  0  0
   -1.9960   -1.5910   13.8590 C   0  0  0  0  0  0
    4.8310   -0.2720   15.3800 C   0  0  0  0  0  0
    4.1200    0.5070   14.4820 C   0  0  0  0  0  0
    2.7940    0.1920   14.2170 N   0  0  0  0  0  0
    2.8950   -1.6720   15.6890 C   0  0  0  0  0  0
    2.1560   -0.8990   14.7960 C   0  0  0  0  0  0
    6.1690    0.0200   15.6840 N   0  0  0  0  0  0
   -2.1220    0.5950   12.6830 C   0  0  0  0  0  0
   -1.6260    1.6600   11.9790 C   0  0  0  0  0  0
   -3.4860    0.7130   12.5600 C   0  0  0  0  0  0
    4.1350    3.6590   12.1810 C   0  0  2  0  0  0
    3.6870    4.8710   13.0200 C   0  0  2  0  0  0
    3.3290    3.6560   10.8480 C   0  0  2  0  0  0
    1.3770    4.7410   12.0270 C   0  0  1  0  0  0
    3.1420    6.1690   10.9290 C   0  0  2  0  0  0
    1.6360    6.0570   11.2630 C   0  0  0  0  0  0
    5.8460    2.0550   14.0550 O   0  0  0  0  0  0
    4.7170    1.7030   13.8300 C   0  0  0  0  0  0
    3.9080    2.4270   12.9790 N   0  0  0  0  0  0
    3.6130    4.9690   10.0870 C   0  0  0  0  0  0
   -0.0010    4.5960   12.3520 O   0  0  0  0  0  0
    1.8170    3.5830   11.1060 C   0  0  0  0  0  0
    2.1860    4.7650   13.3350 C   0  0  0  0  0  0
    3.9230    6.1780   12.2420 C   0  0  0  0  0  0
    4.2150   -1.3560   15.9790 N   0  0  0  0  0  0
   -3.7580    1.7910   11.7990 N   0  0  0  0  0  0
   -2.6720    2.3350   11.4750 N   0  0  0  0  0  0
   -2.5610    3.5420   10.6510 C   0  0  0  0  0  0
    0.4722    0.6972   13.4337 H   0  0  0  0  0  0
    0.5921   -3.0785   15.4604 H   0  0  0  0  0  0
   -1.7790   -3.4508   14.9052 H   0  0  0  0  0  0
   -3.0475   -1.7579   13.6251 H   0  0  0  0  0  0
    2.4309   -2.5354   16.1657 H   0  0  0  0  0  0
    6.6652    0.8805   15.2114 H   0  0  0  0  0  0
    6.7219   -0.6115   16.3950 H   0  0  0  0  0  0
   -0.5737    1.9136   11.8510 H   0  0  0  0  0  0
   -4.2245    0.0456   13.0042 H   0  0  0  0  0  0
    5.2124    3.6757   11.9598 H   0  0  0  0  0  0
    4.2717    4.8789   13.9517 H   0  0  0  0  0  0
    3.6279    2.7756   10.2601 H   0  0  0  0  0  0
    3.3220    7.0922   10.3586 H   0  0  0  0  0  0
    1.0517    6.0610   10.3310 H   0  0  0  0  0  0
    1.3340    6.9098   11.8887 H   0  0  0  0  0  0
    2.9307    1.9231   12.9468 H   0  0  0  0  0  0
    4.6931    5.0573    9.8985 H   0  0  0  0  0  0
    3.0730    4.9616    9.1287 H   0  0  0  0  0  0
   -0.7538    4.5567   11.5509 H   0  0  0  0  0  0
    1.2779    3.6584   10.1501 H   0  0  0  0  0  0
    1.5734    2.6256   11.5898 H   0  0  0  0  0  0
    1.9939    3.8394   13.8975 H   0  0  0  0  0  0
    1.8757    5.6313   13.9376 H   0  0  0  0  0  0
    3.5893    7.0319   12.8499 H   0  0  0  0  0  0
    4.9950    6.2835   12.0189 H   0  0  0  0  0  0
   -1.4999    3.8012   10.5215 H   0  0  0  0  0  0
   -3.0838    4.3735   11.1464 H   0  0  0  0  0  0
   -3.0161    3.3571    9.6668 H   0  0  0  0  0  0
  1  2  2  0  0  0
  1  3  1  0  0  0
  1 11  1  0  0  0
  2  4  1  0  0  0
  2 34  1  0  0  0
  3  5  2  0  0  0
  3 35  1  0  0  0
  4  6  2  0  0  0
  4 13  1  0  0  0
  5  6  1  0  0  0
  5 36  1  0  0  0
  6 37  1  0  0  0
  7  8  2  0  0  0
  7 12  1  0  0  0
  7 30  1  0  0  0
  8  9  1  0  0  0
  8 23  1  0  0  0
  9 11  2  0  0  0
 10 11  1  0  0  0
 10 30  2  0  0  0
 10 38  1  0  0  0
 12 39  1  0  0  0
 12 40  1  0  0  0
 13 14  2  0  0  0
 13 15  1  0  0  0
 14 32  1  0  0  0
 14 41  1  0  0  0
 15 31  2  0  0  0
 15 42  1  0  0  0
 16 17  1  0  0  0
 16 18  1  0  0  0
 16 24  1  0  0  0
 16 43  1  0  0  0
 17 28  1  0  0  0
 17 29  1  0  0  0
 17 44  1  0  0  0
 18 25  1  0  0  0
 18 27  1  0  0  0
 18 45  1  0  0  0
 19 21  1  0  0  0
 19 26  1  0  0  0
 19 27  1  0  0  0
 19 28  1  0  0  0
 20 21  1  0  0  0
 20 25  1  0  0  0
 20 29  1  0  0  0
 20 46  1  0  0  0
 21 47  1  0  0  0
 21 48  1  0  0  0
 22 23  2  0  0  0
 23 24  1  0  0  0
 24 49  1  0  0  0
 25 50  1  0  0  0
 25 51  1  0  0  0
 26 52  1  0  0  0
 27 53  1  0  0  0
 27 54  1  0  0  0
 28 55  1  0  0  0
 28 56  1  0  0  0
 29 57  1  0  0  0
 29 58  1  0  0  0
 31 32  1  0  0  0
 32 33  1  0  0  0
 33 59  1  0  0  0
 33 60  1  0  0  0
 33 61  1  0  0  0
M  END
> <s_m_source_file>
../4dfn_ligand.sdf

> <i_m_source_file_index>
1

> <s_epik_input>
W2NIXTFubihbQ0gzXSlbY0hdYzEtYyhbY0hdW2NIXVtjSF0yKVtjSF1jMi1jKFtjSF1uMyluYyhjM1tOSDJdKUMoPU8pW05IXVtDQEhdKFtDQEhdKFtDSDJdNClbQ0gyXTUpW0NAQEhdKFtDSDJdNilbQ0gyXVtDQEhdNVtDSDJdW0NAXTQ2W09IXQ==

> <s_epik_cmdline>
J2VwaWtfYXBwJywgJy1pbWFlJywgJ2xpZ2FuZF9wcm8ubWFlJywgJy1vbWFlJywgJ2xpZ2FuZF9wcmVwLm1hZScsICctbXMnLCAnMScsICctcGgnLCAnNycsICctcGh0JywgJzAuNScsICctbnQn

> <r_lp_tautomer_probability>
1

> <r_epik_Ionization_Penalty>
  0.0001

> <r_epik_Ionization_Penalty_Charging>
  0.0000

> <r_epik_Ionization_Penalty_Neutral>
  0.0001

> <r_epik_State_Penalty>
 -0.0000

> <r_epik_Charging_Adjusted_Penalty>
0

> <i_epik_Tot_Q>
0

> <i_epik_Tot_abs_Q>
0

$$$$
