4dfw_ligand
                    3D
 Schrodinger Suite 2020-3.
109111  0  0  1  0            999 V2000
  -23.4620   -5.3990   25.4210 C   0  0  0  0  0  0
  -23.3230   -4.2810   24.9950 O   0  0  0  0  0  0
  -24.5710   -5.7650   26.3780 C   0  0  0  0  0  0
  -22.4030   -6.2410   25.2890 N   0  0  0  0  0  0
  -21.2690   -5.9470   24.4180 C   0  0  2  0  0  0
  -21.8260   -5.6390   23.0500 C   0  0  0  0  0  0
  -22.7940   -6.2130   22.5750 O   0  0  0  0  0  0
  -22.2830   -7.5840   25.8580 C   0  0  0  0  0  0
  -21.4070   -8.2890   24.8450 C   0  0  1  0  0  0
  -20.3840   -7.2050   24.4260 C   0  0  0  0  0  0
  -20.8450   -9.4260   25.4530 O   0  0  0  0  0  0
  -19.9390  -10.1860   24.6780 C   0  0  0  0  0  0
  -19.5470  -11.4510   25.4240 C   0  0  0  0  0  0
  -18.4840  -12.2080   24.5980 C   0  0  0  0  0  0
  -18.2240  -13.5900   25.1880 C   0  0  0  0  0  0
  -17.4250  -13.4530   26.4280 C   0  0  0  0  0  0
  -18.0220  -13.6300   27.6810 C   0  0  0  0  0  0
  -17.2210  -13.4580   28.8270 C   0  0  0  0  0  0
  -15.8770  -13.1490   28.6810 C   0  0  0  0  0  0
  -15.3170  -12.9890   27.4190 C   0  0  0  0  0  0
  -16.0750  -13.1460   26.2870 C   0  0  0  0  0  0
  -21.1600   -4.7580   22.2680 N   0  0  0  0  0  0
  -21.6390   -4.5200   20.9300 C   0  0  2  0  0  0
  -21.0040   -5.5590   20.0350 C   0  0  0  0  0  0
  -20.0330   -6.2150   20.4070 O   0  0  0  0  0  0
  -21.1020   -3.1550   20.5030 C   0  0  0  0  0  0
  -21.5780   -2.0380   21.4220 C   0  0  0  0  0  0
  -20.7880   -0.7770   21.1280 C   0  0  0  0  0  0
  -23.0530   -1.7620   21.1680 C   0  0  0  0  0  0
  -21.6220   -5.8380   18.8660 N   0  0  0  0  0  0
  -21.1210   -6.8970   18.0190 C   0  0  2  0  0  0
  -21.6340   -6.7170   16.6070 C   0  0  0  0  0  0
  -22.4670   -5.8740   16.2860 O   0  0  0  0  0  0
  -21.5290   -8.2990   18.5580 C   0  0  0  0  0  0
  -23.0350   -8.4020   18.7210 C   0  0  0  0  0  0
  -23.8980   -8.4420   17.6600 N   0  0  0  0  0  0
  -23.7270   -8.4680   19.9060 C   0  0  0  0  0  0
  -25.1180   -8.5440   18.1650 C   0  0  0  0  0  0
  -25.0490   -8.5660   19.5130 N   0  0  0  0  0  0
  -20.9980   -7.4670   15.6960 N   0  0  0  0  0  0
  -21.3830   -7.5020   14.2990 C   0  0  2  0  0  0
  -22.7570   -8.1220   14.0700 C   0  0  0  0  0  0
  -23.4900   -8.5030   14.9660 O   0  0  0  0  0  0
  -20.3070   -8.2410   13.5160 C   0  0  0  0  0  0
  -20.1640   -9.5790   13.9510 O   0  0  0  0  0  0
  -23.1960   -8.1470   12.8180 N   0  0  0  0  0  0
  -24.5480   -8.5600   12.5610 C   0  0  1  0  0  0
  -24.7400   -8.3550   11.0460 C   0  0  1  0  0  0
  -26.1840   -8.7300   10.6620 C   0  0  0  0  0  0
  -24.5660   -7.0190   10.7410 O   0  0  0  0  0  0
  -23.2990   -6.5870    9.8260 P   0  0  0  0  0  0
  -23.4450   -7.3050    8.4190 O   0  5  0  0  0  0
  -23.4430   -5.1090    9.7580 O   0  0  0  0  0  0
  -21.9770   -7.0160   10.5470 O   0  5  0  0  0  0
  -24.7670  -10.0140   12.8810 C   0  0  0  0  0  0
  -23.9830  -10.9150   12.5870 O   0  0  0  0  0  0
  -25.9930  -10.3580   13.3810 N   0  0  0  0  0  0
  -25.3425   -4.9811   26.3623 H   0  0  0  0  0  0
  -24.1622   -5.8568   27.3951 H   0  0  0  0  0  0
  -25.0162   -6.7238   26.0738 H   0  0  0  0  0  0
  -20.7010   -5.0703   24.7626 H   0  0  0  0  0  0
  -21.8195   -7.5203   26.8536 H   0  0  0  0  0  0
  -23.2823   -8.0352   25.9470 H   0  0  0  0  0  0
  -21.9133   -8.7546   23.9866 H   0  0  0  0  0  0
  -19.9641   -7.3643   23.4218 H   0  0  0  0  0  0
  -19.5655   -7.0729   25.1489 H   0  0  0  0  0  0
  -20.4135  -10.4615   23.7246 H   0  0  0  0  0  0
  -19.0363   -9.5896   24.4794 H   0  0  0  0  0  0
  -19.1332  -11.1834   26.4075 H   0  0  0  0  0  0
  -20.4346  -12.0863   25.5602 H   0  0  0  0  0  0
  -18.8386  -12.3249   23.5633 H   0  0  0  0  0  0
  -17.5431  -11.6382   24.6010 H   0  0  0  0  0  0
  -19.1831  -14.0757   25.4207 H   0  0  0  0  0  0
  -17.6706  -14.2013   24.4600 H   0  0  0  0  0  0
  -19.0761  -13.8933   27.7679 H   0  0  0  0  0  0
  -17.6544  -13.5670   29.8212 H   0  0  0  0  0  0
  -15.2524  -13.0302   29.5664 H   0  0  0  0  0  0
  -14.2609  -12.7353   27.3278 H   0  0  0  0  0  0
  -15.6299  -13.0328   25.2985 H   0  0  0  0  0  0
  -20.2691   -4.2279   22.6357 H   0  0  0  0  0  0
  -22.7374   -4.5785   20.9194 H   0  0  0  0  0  0
  -20.0023   -3.1705   20.5245 H   0  0  0  0  0  0
  -21.4456   -2.9285   19.4829 H   0  0  0  0  0  0
  -21.4287   -2.3380   22.4697 H   0  0  0  0  0  0
  -19.7190   -0.9637   21.3080 H   0  0  0  0  0  0
  -21.1343    0.0342   21.7853 H   0  0  0  0  0  0
  -20.9378   -0.4871   20.0775 H   0  0  0  0  0  0
  -23.6374   -2.6700   21.3779 H   0  0  0  0  0  0
  -23.1956   -1.4689   20.1174 H   0  0  0  0  0  0
  -23.3921   -0.9476   21.8251 H   0  0  0  0  0  0
  -22.5059   -5.2597   18.5589 H   0  0  0  0  0  0
  -20.0283   -6.7718   18.0390 H   0  0  0  0  0  0
  -20.8883   -9.1560   18.8131 H   0  0  0  0  0  0
  -23.4704   -8.4595   20.9756 H   0  0  0  0  0  0
  -26.0370   -8.6014   17.5816 H   0  0  0  0  0  0
  -20.1505   -8.0733   16.0483 H   0  0  0  0  0  0
  -21.4523   -6.4478   13.9925 H   0  0  0  0  0  0
  -20.5727   -8.2522   12.4486 H   0  0  0  0  0  0
  -19.3416   -7.7306   13.6482 H   0  0  0  0  0  0
  -19.4214  -10.2359   13.4745 H   0  0  0  0  0  0
  -22.5412   -7.8574   11.9829 H   0  0  0  0  0  0
  -25.2074   -7.9742   13.2183 H   0  0  0  0  0  0
  -23.9771   -8.8900   10.4614 H   0  0  0  0  0  0
  -26.3606   -9.7912   10.8914 H   0  0  0  0  0  0
  -26.3338   -8.5576    9.5860 H   0  0  0  0  0  0
  -26.8887   -8.1090   11.2345 H   0  0  0  0  0  0
  -26.7156   -9.5745   13.6530 H   0  0  0  0  0  0
  -26.2562  -11.4181   13.5110 H   0  0  0  0  0  0
  -23.5090   -8.3898   16.6324 H   0  0  0  0  0  0
  1  2  2  0  0  0
  1  3  1  0  0  0
  1  4  1  0  0  0
  3 58  1  0  0  0
  3 59  1  0  0  0
  3 60  1  0  0  0
  4  5  1  0  0  0
  4  8  1  0  0  0
  5  6  1  0  0  0
  5 10  1  0  0  0
  5 61  1  0  0  0
  6  7  2  0  0  0
  6 22  1  0  0  0
  8  9  1  0  0  0
  8 62  1  0  0  0
  8 63  1  0  0  0
  9 10  1  0  0  0
  9 11  1  0  0  0
  9 64  1  0  0  0
 10 65  1  0  0  0
 10 66  1  0  0  0
 11 12  1  0  0  0
 12 13  1  0  0  0
 12 67  1  0  0  0
 12 68  1  0  0  0
 13 14  1  0  0  0
 13 69  1  0  0  0
 13 70  1  0  0  0
 14 15  1  0  0  0
 14 71  1  0  0  0
 14 72  1  0  0  0
 15 16  1  0  0  0
 15 73  1  0  0  0
 15 74  1  0  0  0
 16 17  2  0  0  0
 16 21  1  0  0  0
 17 18  1  0  0  0
 17 75  1  0  0  0
 18 19  2  0  0  0
 18 76  1  0  0  0
 19 20  1  0  0  0
 19 77  1  0  0  0
 20 21  2  0  0  0
 20 78  1  0  0  0
 21 79  1  0  0  0
 22 23  1  0  0  0
 22 80  1  0  0  0
 23 24  1  0  0  0
 23 26  1  0  0  0
 23 81  1  0  0  0
 24 25  2  0  0  0
 24 30  1  0  0  0
 26 27  1  0  0  0
 26 82  1  0  0  0
 26 83  1  0  0  0
 27 28  1  0  0  0
 27 29  1  0  0  0
 27 84  1  0  0  0
 28 85  1  0  0  0
 28 86  1  0  0  0
 28 87  1  0  0  0
 29 88  1  0  0  0
 29 89  1  0  0  0
 29 90  1  0  0  0
 30 31  1  0  0  0
 30 91  1  0  0  0
 31 32  1  0  0  0
 31 34  1  0  0  0
 31 92  1  0  0  0
 32 33  2  0  0  0
 32 40  1  0  0  0
 34 35  2  0  0  0
 34 93  1  0  0  0
 35 36  1  0  0  0
 35 37  1  0  0  0
 36 38  1  0  0  0
 36109  1  0  0  0
 37 39  2  0  0  0
 37 94  1  0  0  0
 38 39  1  0  0  0
 38 95  1  0  0  0
 40 41  1  0  0  0
 40 96  1  0  0  0
 41 42  1  0  0  0
 41 44  1  0  0  0
 41 97  1  0  0  0
 42 43  2  0  0  0
 42 46  1  0  0  0
 44 45  1  0  0  0
 44 98  1  0  0  0
 44 99  1  0  0  0
 45100  1  0  0  0
 46 47  1  0  0  0
 46101  1  0  0  0
 47 48  1  0  0  0
 47 55  1  0  0  0
 47102  1  0  0  0
 48 49  1  0  0  0
 48 50  1  0  0  0
 48103  1  0  0  0
 49104  1  0  0  0
 49105  1  0  0  0
 49106  1  0  0  0
 50 51  1  0  0  0
 51 52  1  0  0  0
 51 53  2  0  0  0
 51 54  1  0  0  0
 55 56  2  0  0  0
 55 57  1  0  0  0
 57107  1  0  0  0
 57108  1  0  0  0
M  CHG  2  52  -1  54  -1
M  END
> <s_m_source_file>
../4dfw_ligand.sdf

> <i_m_source_file_index>
1

> <s_epik_input>
W2NIXTFbY0hdW2NIXVtjSF1bY0hdYzFbQ0gyXVtDSDJdW0NIMl1bQ0gyXU9bQ0BASF0oW0NIMl0yKVtDSDJdW0NASF0oTjJDKD1PKVtDSDNdKUMoPU8pW05IXVtDQEBIXShbQ0gyXVtDSF0oW0NIM10pW0NIM10pQyg9TylbTkhdW0NAQEhdKFtDSDJdQzM9TltDSDJdTj1bQ0hdMylDKD1PKVtOSF1bQ0BASF0oW0NIMl1bT0hdKUMoPU8pW05IXVtDQEhdKEMoPU8pW05IMl0pW0NAQEhdKFtDSDNdKU9QKD1PKShbT0hdKVtPSF0=

> <s_epik_cmdline>
J2VwaWtfYXBwJywgJy1pbWFlJywgJ2xpZ2FuZF9wcm8ubWFlJywgJy1vbWFlJywgJ2xpZ2FuZF9wcmVwLm1hZScsICctbXMnLCAnMScsICctcGgnLCAnNycsICctcGh0JywgJzAuNScsICctbnQn

> <r_epik_Ionization_Penalty>
  0.0862

> <r_epik_Ionization_Penalty_Charging>
  0.0862

> <r_epik_Ionization_Penalty_Neutral>
  0.0000

> <r_epik_State_Penalty>
  0.0767

> <r_epik_Charging_Adjusted_Penalty>
0.162909582853209

> <i_epik_Tot_Q>
-2

> <i_epik_Tot_abs_Q>
2

> <s_epik_Chemistry_Notes>
This compound has an imine and may undergo hydrolysis.

$$$$
