4dgb_ligand
                    3D
 Schrodinger Suite 2020-3.
 81 83  0  0  1  0            999 V2000
   10.7800    7.8380   19.6210 N   0  3  0  0  0  0
   12.2280    7.9670   19.3940 C   0  0  2  0  0  0
   12.8270    7.1180   18.2600 C   0  0  0  0  0  0
   13.8470    7.5190   17.7040 O   0  0  0  0  0  0
   12.8490    7.5650   20.7450 C   0  0  0  0  0  0
   11.7050    7.1010   21.6160 C   0  0  0  0  0  0
   10.4590    7.7100   21.0520 C   0  0  0  0  0  0
   12.2340    5.9670   17.9300 N   0  0  0  0  0  0
   12.7640    5.1060   16.8500 C   0  0  0  0  0  0
   13.8780    4.1850   17.3350 C   0  0  0  0  0  0
   14.3890    4.3920   18.4400 O   0  0  0  0  0  0
   14.2710    3.1660   16.5180 N   0  0  0  0  0  0
   15.3210    2.2630   17.0050 C   0  0  2  0  0  0
   16.5340    3.0310   17.5150 C   0  0  0  0  0  0
   16.8910    4.0730   16.9520 O   0  0  0  0  0  0
   15.6820    1.4140   15.7680 C   0  0  0  0  0  0
   15.0980    2.1500   14.5950 C   0  0  0  0  0  0
   13.8620    2.8060   15.1490 C   0  0  0  0  0  0
   17.1380    2.5260   18.5860 N   0  0  0  0  0  0
   18.2760    3.1910   19.2050 C   0  0  2  0  0  0
   19.4930    3.1150   18.2830 C   0  0  0  0  0  0
   19.6990    2.1050   17.6160 O   0  0  0  0  0  0
   18.6170    2.5480   20.5520 C   0  0  0  0  0  0
   17.5450    2.5610   21.6450 C   0  0  0  0  0  0
   18.0070    1.6850   22.8070 C   0  0  0  0  0  0
   17.2420    3.9920   22.0940 C   0  0  0  0  0  0
   20.3060    4.1830   18.2510 N   0  0  0  0  0  0
   21.5020    4.2140   17.3870 C   0  0  2  0  0  0
   22.6970    3.4110   17.9210 C   0  0  0  0  0  0
   23.7030    3.2920   17.2200 O   0  0  0  0  0  0
   21.8400    5.7010   17.3270 C   0  0  0  0  0  0
   21.3590    6.2370   18.6370 C   0  0  0  0  0  0
   20.1020    5.4710   18.9470 C   0  0  0  0  0  0
   22.5860    2.8700   19.1380 N   0  0  0  0  0  0
   23.6370    2.0200   19.7230 C   0  0  2  0  0  0
   23.0390    1.0060   20.7030 C   0  0  0  0  0  0
   21.8990    1.1740   21.1500 O   0  0  0  0  0  0
   24.7070    2.8840   20.4240 C   0  0  0  0  0  0
   23.6710   -0.0050   21.0530 O   0  5  0  0  0  0
   10.2669    8.7294   19.2309 H   0  0  0  0  0  0
   10.4058    6.9431   19.1023 H   0  0  0  0  0  0
   12.3989    9.0014   19.0612 H   0  0  0  0  0  0
   13.5783    6.7567   20.5873 H   0  0  0  0  0  0
   13.3558    8.4346   21.1889 H   0  0  0  0  0  0
   11.6485    6.0027   21.5927 H   0  0  0  0  0  0
   11.8713    7.4377   22.6499 H   0  0  0  0  0  0
   10.2450    8.7047   21.4702 H   0  0  0  0  0  0
    9.5772    7.0637   21.1736 H   0  0  0  0  0  0
   11.3318    5.6644   18.4819 H   0  0  0  0  0  0
   11.9538    4.4781   16.4507 H   0  0  0  0  0  0
   13.1704    5.7359   16.0450 H   0  0  0  0  0  0
   14.9508    1.6822   17.8627 H   0  0  0  0  0  0
   16.7758    1.3306   15.6870 H   0  0  0  0  0  0
   15.2445    0.4101   15.8719 H   0  0  0  0  0  0
   15.8260    2.8870   14.2252 H   0  0  0  0  0  0
   14.8616    1.4343   13.7938 H   0  0  0  0  0  0
   13.0009    2.1228   15.1913 H   0  0  0  0  0  0
   13.5811    3.7162   14.5989 H   0  0  0  0  0  0
   16.7583    1.5821   19.0042 H   0  0  0  0  0  0
   17.9594    4.2343   19.3512 H   0  0  0  0  0  0
   18.8585    1.4856   20.4005 H   0  0  0  0  0  0
   19.4833    3.0614   20.9946 H   0  0  0  0  0  0
   16.6055    2.1474   21.2497 H   0  0  0  0  0  0
   18.2131    0.6685   22.4405 H   0  0  0  0  0  0
   17.2183    1.6458   23.5728 H   0  0  0  0  0  0
   18.9225    2.1096   23.2448 H   0  0  0  0  0  0
   16.9137    4.5861   21.2284 H   0  0  0  0  0  0
   18.1493    4.4412   22.5242 H   0  0  0  0  0  0
   16.4451    3.9774   22.8522 H   0  0  0  0  0  0
   21.2592    3.7434   16.4228 H   0  0  0  0  0  0
   22.9259    5.8255   17.2028 H   0  0  0  0  0  0
   21.3184    6.1615   16.4751 H   0  0  0  0  0  0
   22.1292    6.0733   19.4052 H   0  0  0  0  0  0
   21.1597    7.3146   18.5414 H   0  0  0  0  0  0
   19.2019    5.9635   18.5505 H   0  0  0  0  0  0
   19.9761    5.2896   20.0246 H   0  0  0  0  0  0
   21.6682    3.0797   19.7069 H   0  0  0  0  0  0
   24.0844    1.4791   18.8761 H   0  0  0  0  0  0
   25.1244    3.6050   19.7057 H   0  0  0  0  0  0
   25.5113    2.2360   20.8024 H   0  0  0  0  0  0
   24.2478    3.4267   21.2634 H   0  0  0  0  0  0
  1  2  1  0  0  0
  1  7  1  0  0  0
  1 40  1  0  0  0
  1 41  1  0  0  0
  2  3  1  0  0  0
  2  5  1  0  0  0
  2 42  1  0  0  0
  3  4  2  0  0  0
  3  8  1  0  0  0
  5  6  1  0  0  0
  5 43  1  0  0  0
  5 44  1  0  0  0
  6  7  1  0  0  0
  6 45  1  0  0  0
  6 46  1  0  0  0
  7 47  1  0  0  0
  7 48  1  0  0  0
  8  9  1  0  0  0
  8 49  1  0  0  0
  9 10  1  0  0  0
  9 50  1  0  0  0
  9 51  1  0  0  0
 10 11  2  0  0  0
 10 12  1  0  0  0
 12 13  1  0  0  0
 12 18  1  0  0  0
 13 14  1  0  0  0
 13 16  1  0  0  0
 13 52  1  0  0  0
 14 15  2  0  0  0
 14 19  1  0  0  0
 16 17  1  0  0  0
 16 53  1  0  0  0
 16 54  1  0  0  0
 17 18  1  0  0  0
 17 55  1  0  0  0
 17 56  1  0  0  0
 18 57  1  0  0  0
 18 58  1  0  0  0
 19 20  1  0  0  0
 19 59  1  0  0  0
 20 21  1  0  0  0
 20 23  1  0  0  0
 20 60  1  0  0  0
 21 22  2  0  0  0
 21 27  1  0  0  0
 23 24  1  0  0  0
 23 61  1  0  0  0
 23 62  1  0  0  0
 24 25  1  0  0  0
 24 26  1  0  0  0
 24 63  1  0  0  0
 25 64  1  0  0  0
 25 65  1  0  0  0
 25 66  1  0  0  0
 26 67  1  0  0  0
 26 68  1  0  0  0
 26 69  1  0  0  0
 27 28  1  0  0  0
 27 33  1  0  0  0
 28 29  1  0  0  0
 28 31  1  0  0  0
 28 70  1  0  0  0
 29 30  2  0  0  0
 29 34  1  0  0  0
 31 32  1  0  0  0
 31 71  1  0  0  0
 31 72  1  0  0  0
 32 33  1  0  0  0
 32 73  1  0  0  0
 32 74  1  0  0  0
 33 75  1  0  0  0
 33 76  1  0  0  0
 34 35  1  0  0  0
 34 77  1  0  0  0
 35 36  1  0  0  0
 35 38  1  0  0  0
 35 78  1  0  0  0
 36 37  2  0  0  0
 36 39  1  0  0  0
 38 79  1  0  0  0
 38 80  1  0  0  0
 38 81  1  0  0  0
M  CHG  2   1   1  39  -1
M  END
> <s_m_source_file>
../4dgb_ligand.sdf

> <i_m_source_file_index>
1

> <s_epik_input>
W0NIMl0xW0NIMl1bQ0gyXVtOSDIrXVtDQEBIXTFDKD1PKVtOSF1bQ0gyXUMoPU8pTjJbQ0BASF0oW0NIMl1bQ0gyXVtDSDJdMilDKD1PKVtOSF1bQ0BASF0oW0NIMl1bQ0hdKFtDSDNdKVtDSDNdKUMoPU8pTjNbQ0BASF0oW0NIMl1bQ0gyXVtDSDJdMylDKD1PKVtOSF1bQ0BASF0oW0NIM10pQyg9TylbT0hd

> <s_epik_cmdline>
J2VwaWtfYXBwJywgJy1pbWFlJywgJ2xpZ2FuZF9wcm8ubWFlJywgJy1vbWFlJywgJ2xpZ2FuZF9wcmVwLm1hZScsICctbXMnLCAnMScsICctcGgnLCAnNycsICctcGh0JywgJzAuNScsICctbnQn

> <r_epik_Ionization_Penalty>
  0.0407

> <r_epik_Ionization_Penalty_Charging>
  0.0407

> <r_epik_Ionization_Penalty_Neutral>
  0.0000

> <r_epik_State_Penalty>
  0.0341

> <r_epik_Charging_Adjusted_Penalty>
0.0747491616006566

> <i_epik_Tot_Q>
0

> <i_epik_Tot_abs_Q>
2

$$$$
