4dgm_ligand
                    3D
 Schrodinger Suite 2020-3.
 30 32  0  0  1  0            999 V2000
   22.4350    8.7470   16.2250 C   0  0  0  0  0  0
   23.0090    8.4750   14.9890 C   0  0  0  0  0  0
   23.8300    7.3580   14.8570 C   0  0  0  0  0  0
   24.3540    7.1430   13.6440 O   0  0  0  0  0  0
   24.1560    6.5310   15.9420 C   0  0  0  0  0  0
   23.5850    6.7990   17.1760 C   0  0  0  0  0  0
   22.7540    7.9170   17.2850 C   0  0  0  0  0  0
   22.0970    8.1410   18.5790 C   0  0  0  0  0  0
   22.3050    7.1490   19.4640 O   0  0  0  0  0  0
   21.1960    9.1870   18.8090 C   0  0  0  0  0  0
   20.5660    9.2340   20.0440 C   0  0  0  0  0  0
   19.8050   10.1800   20.3150 O   0  0  0  0  0  0
   20.8620    8.1760   21.0560 C   0  0  0  0  0  0
   21.7160    7.1530   20.6940 C   0  0  0  0  0  0
   21.9980    6.1030   21.5730 C   0  0  0  0  0  0
   21.4150    6.0860   22.8330 C   0  0  0  0  0  0
   21.6790    5.0730   23.7160 O   0  0  0  0  0  0
   20.5550    7.0980   23.1980 C   0  0  0  0  0  0
   20.2790    8.1360   22.3260 C   0  0  0  0  0  0
   19.4350    9.0870   22.7710 O   0  0  0  0  0  0
   21.7544    9.5884   16.3554 H   0  0  0  0  0  0
   22.8194    9.1262   14.1357 H   0  0  0  0  0  0
   24.0868    7.8020   12.8048 H   0  0  0  0  0  0
   24.8441    5.6949   15.8172 H   0  0  0  0  0  0
   23.7783    6.1571   18.0355 H   0  0  0  0  0  0
   20.9964    9.9381   18.0448 H   0  0  0  0  0  0
   22.6722    5.3017   21.2706 H   0  0  0  0  0  0
   22.3647    4.2609   23.4324 H   0  0  0  0  0  0
   20.0877    7.0809   24.1826 H   0  0  0  0  0  0
   19.1758    9.9385   22.1247 H   0  0  0  0  0  0
  1  2  2  0  0  0
  1  7  1  0  0  0
  1 21  1  0  0  0
  2  3  1  0  0  0
  2 22  1  0  0  0
  3  4  1  0  0  0
  3  5  2  0  0  0
  4 23  1  0  0  0
  5  6  1  0  0  0
  5 24  1  0  0  0
  6  7  2  0  0  0
  6 25  1  0  0  0
  7  8  1  0  0  0
  8  9  1  0  0  0
  8 10  2  0  0  0
  9 14  1  0  0  0
 10 11  1  0  0  0
 10 26  1  0  0  0
 11 12  2  0  0  0
 11 13  1  0  0  0
 13 14  2  0  0  0
 13 19  1  0  0  0
 14 15  1  0  0  0
 15 16  2  0  0  0
 15 27  1  0  0  0
 16 17  1  0  0  0
 16 18  1  0  0  0
 17 28  1  0  0  0
 18 19  2  0  0  0
 18 29  1  0  0  0
 19 20  1  0  0  0
 20 30  1  0  0  0
M  END
> <s_m_source_file>
../4dgm_ligand.sdf

> <i_m_source_file_index>
1

> <s_epik_input>
W09IXWMxW2NIXVtjSF1jKFtjSF1bY0hdMSktYyhbY0hdYzI9TylvYyhjMjMpW2NIXWMoW09IXSlbY0hdYzNbT0hd

> <s_epik_cmdline>
J2VwaWtfYXBwJywgJy1pbWFlJywgJ2xpZ2FuZF9wcm8ubWFlJywgJy1vbWFlJywgJ2xpZ2FuZF9wcmVwLm1hZScsICctbXMnLCAnMScsICctcGgnLCAnNycsICctcGh0JywgJzAuNScsICctbnQn

> <r_lp_tautomer_probability>
0.999999999997365

> <r_epik_Ionization_Penalty>
  0.0493

> <r_epik_Ionization_Penalty_Charging>
  0.0000

> <r_epik_Ionization_Penalty_Neutral>
  0.0493

> <r_epik_State_Penalty>
  0.0342

> <r_epik_Charging_Adjusted_Penalty>
0.034216159069907

> <i_epik_Tot_Q>
0

> <i_epik_Tot_abs_Q>
0

$$$$
