4dgn_ligand
                    3D
 Schrodinger Suite 2020-3.
 31 33  0  0  1  0            999 V2000
   22.0320    6.1610   21.4750 C   0  0  0  0  0  0
   21.7400    5.1570   23.6370 O   0  0  0  0  0  0
   21.4640    6.1600   22.7530 C   0  0  0  0  0  0
   19.4520    9.1480   22.6590 O   0  0  0  0  0  0
   20.6010    7.1740   23.1280 C   0  0  0  0  0  0
   19.7350   10.2230   20.2790 O   0  0  0  0  0  0
   20.2870    8.1850   22.2350 C   0  0  0  0  0  0
   22.2710    7.2150   19.3280 O   0  0  0  0  0  0
   20.8580    8.2300   20.9580 C   0  0  0  0  0  0
   24.8460    5.4670   15.8420 O   0  0  0  0  0  0
   21.7280    7.2070   20.5930 C   0  0  0  0  0  0
   24.3840    7.1870   13.6790 O   0  0  0  0  0  0
   20.5150    9.2920   19.9610 C   0  0  0  0  0  0
   21.1090    9.2730   18.6940 C   0  0  0  0  0  0
   21.9920    8.2330   18.4590 C   0  0  0  0  0  0
   22.6490    8.0010   17.2010 C   0  0  0  0  0  0
   23.4460    6.8450   17.1660 C   0  0  0  0  0  0
   24.0510    6.5640   15.9470 C   0  0  0  0  0  0
   23.8190    7.4030   14.8780 C   0  0  0  0  0  0
   23.0260    8.5390   14.9430 C   0  0  0  0  0  0
   22.4110    8.8520   16.1410 C   0  0  0  0  0  0
   22.7028    5.3583   21.1687 H   0  0  0  0  0  0
   22.4246    4.3448   23.3511 H   0  0  0  0  0  0
   19.0147    9.0923   23.6668 H   0  0  0  0  0  0
   20.1674    7.1773   24.1280 H   0  0  0  0  0  0
   25.0086    4.8199   16.7165 H   0  0  0  0  0  0
   25.0315    6.3110   13.5259 H   0  0  0  0  0  0
   20.8903   10.0291   17.9400 H   0  0  0  0  0  0
   23.5815    6.2082   18.0402 H   0  0  0  0  0  0
   22.8903    9.1727   14.0666 H   0  0  0  0  0  0
   21.7699    9.7276   16.2432 H   0  0  0  0  0  0
  1  3  2  0  0  0
  1 11  1  0  0  0
  1 22  1  0  0  0
  2  3  1  0  0  0
  2 23  1  0  0  0
  3  5  1  0  0  0
  4  7  1  0  0  0
  4 24  1  0  0  0
  5  7  2  0  0  0
  5 25  1  0  0  0
  6 13  2  0  0  0
  7  9  1  0  0  0
  8 11  1  0  0  0
  8 15  1  0  0  0
  9 11  2  0  0  0
  9 13  1  0  0  0
 10 18  1  0  0  0
 10 26  1  0  0  0
 12 19  1  0  0  0
 12 27  1  0  0  0
 13 14  1  0  0  0
 14 15  2  0  0  0
 14 28  1  0  0  0
 15 16  1  0  0  0
 16 17  2  0  0  0
 16 21  1  0  0  0
 17 18  1  0  0  0
 17 29  1  0  0  0
 18 19  2  0  0  0
 19 20  1  0  0  0
 20 21  2  0  0  0
 20 30  1  0  0  0
 21 31  1  0  0  0
M  END
> <s_m_source_file>
../4dgn_ligand.sdf

> <i_m_source_file_index>
1

> <s_epik_input>
W09IXWMxW2NIXWMoW09IXSlbY0hdYyhjMTIpb2MoW2NIXWMyPU8pLWMzW2NIXWMoW09IXSljKFtPSF0pW2NIXVtjSF0z

> <s_epik_cmdline>
J2VwaWtfYXBwJywgJy1pbWFlJywgJ2xpZ2FuZF9wcm8ubWFlJywgJy1vbWFlJywgJ2xpZ2FuZF9wcmVwLm1hZScsICctbXMnLCAnMScsICctcGgnLCAnNycsICctcGh0JywgJzAuNScsICctbnQn

> <r_lp_tautomer_probability>
0.999999999999776

> <r_epik_Ionization_Penalty>
  0.0508

> <r_epik_Ionization_Penalty_Charging>
  0.0000

> <r_epik_Ionization_Penalty_Neutral>
  0.0508

> <r_epik_State_Penalty>
  0.0342

> <r_epik_Charging_Adjusted_Penalty>
0.0342161590699067

> <i_epik_Tot_Q>
0

> <i_epik_Tot_abs_Q>
0

$$$$
