4dgr_ligand
                    3D
 Schrodinger Suite 2020-3.
 57 58  0  0  1  0            999 V2000
   23.7010   19.9380   64.9440 C   0  0  0  0  0  0
   22.5420   19.8300   65.4290 O   0  0  0  0  0  0
   24.2600   18.7720   64.2340 C   0  0  0  0  0  0
   24.4110   20.9880   65.0310 O   0  5  0  0  0  0
   25.5240   18.8450   63.6840 C   0  0  0  0  0  0
   26.0260   17.7330   63.0080 C   0  0  0  0  0  0
   25.2220   16.5930   62.9260 C   0  0  0  0  0  0
   25.7720   15.4360   62.1820 N   0  0  0  0  0  0
   23.9580   16.5300   63.4710 C   0  0  0  0  0  0
   23.4730   17.6350   64.1360 C   0  0  0  0  0  0
   27.4040   17.7960   62.4030 C   0  0  0  0  0  0
   28.5330   17.4890   63.3000 N   0  3  0  0  0  0
   29.8090   17.6250   62.5680 C   0  0  0  0  0  0
   30.9880   16.8420   63.0740 C   0  0  0  0  0  0
   32.2470   16.9050   62.2260 C   0  0  0  0  0  0
   28.5580   18.3760   64.4700 C   0  0  0  0  0  0
   29.1320   19.7950   64.3170 C   0  0  0  0  0  0
   28.6590   20.8450   65.3120 C   0  0  0  0  0  0
   26.7970   14.4890   62.3830 C   0  0  0  0  0  0
   27.5610   14.5270   63.3760 O   0  0  0  0  0  0
   26.9020   13.5810   61.2450 C   0  0  0  0  0  0
   26.1010   14.2620   60.1560 C   0  0  0  0  0  0
   25.1130   15.1150   60.8940 C   0  0  0  0  0  0
   23.8440   14.3200   61.1120 C   0  0  0  0  0  0
   23.9850   13.2210   61.9490 O   0  0  0  0  0  0
   24.6930   16.3600   60.1870 C   0  0  0  0  0  0
   25.6720   17.2620   59.8730 O   0  0  0  0  0  0
   26.1183   19.7541   63.7762 H   0  0  0  0  0  0
   23.3554   15.6265   63.3781 H   0  0  0  0  0  0
   22.4784   17.6153   64.5815 H   0  0  0  0  0  0
   27.4743   17.0750   61.5752 H   0  0  0  0  0  0
   27.5912   18.8108   62.0222 H   0  0  0  0  0  0
   28.3995   16.4569   63.6562 H   0  0  0  0  0  0
   29.6705   17.3000   61.5263 H   0  0  0  0  0  0
   30.1308   18.6768   62.5843 H   0  0  0  0  0  0
   31.2735   17.2116   64.0699 H   0  0  0  0  0  0
   30.7196   15.7774   63.1411 H   0  0  0  0  0  0
   33.0353   16.2973   62.6943 H   0  0  0  0  0  0
   32.5856   17.9488   62.1493 H   0  0  0  0  0  0
   32.0317   16.5145   61.2204 H   0  0  0  0  0  0
   27.5318   18.5311   64.8345 H   0  0  0  0  0  0
   29.1641   17.9172   65.2651 H   0  0  0  0  0  0
   30.2264   19.7611   64.4223 H   0  0  0  0  0  0
   28.8712   20.1910   63.3244 H   0  0  0  0  0  0
   29.1446   21.8065   65.0890 H   0  0  0  0  0  0
   28.9229   20.5288   66.3320 H   0  0  0  0  0  0
   27.5677   20.9586   65.2341 H   0  0  0  0  0  0
   27.9597   13.4615   60.9676 H   0  0  0  0  0  0
   26.4815   12.6017   61.5173 H   0  0  0  0  0  0
   26.7740   14.8640   59.5278 H   0  0  0  0  0  0
   25.6038   13.5012   59.5363 H   0  0  0  0  0  0
   23.0785   14.9679   61.5639 H   0  0  0  0  0  0
   23.4791   13.9398   60.1465 H   0  0  0  0  0  0
   23.1173   12.5813   62.1677 H   0  0  0  0  0  0
   24.2194   16.0961   59.2299 H   0  0  0  0  0  0
   23.9751   16.9119   60.8115 H   0  0  0  0  0  0
   25.4132   18.1954   59.3516 H   0  0  0  0  0  0
  1  2  2  0  0  0
  1  3  1  0  0  0
  1  4  1  0  0  0
  3  5  2  0  0  0
  3 10  1  0  0  0
  5  6  1  0  0  0
  5 28  1  0  0  0
  6  7  2  0  0  0
  6 11  1  0  0  0
  7  8  1  0  0  0
  7  9  1  0  0  0
  8 19  1  0  0  0
  8 23  1  0  0  0
  9 10  2  0  0  0
  9 29  1  0  0  0
 10 30  1  0  0  0
 11 12  1  0  0  0
 11 31  1  0  0  0
 11 32  1  0  0  0
 12 13  1  0  0  0
 12 16  1  0  0  0
 12 33  1  0  0  0
 13 14  1  0  0  0
 13 34  1  0  0  0
 13 35  1  0  0  0
 14 15  1  0  0  0
 14 36  1  0  0  0
 14 37  1  0  0  0
 15 38  1  0  0  0
 15 39  1  0  0  0
 15 40  1  0  0  0
 16 17  1  0  0  0
 16 41  1  0  0  0
 16 42  1  0  0  0
 17 18  1  0  0  0
 17 43  1  0  0  0
 17 44  1  0  0  0
 18 45  1  0  0  0
 18 46  1  0  0  0
 18 47  1  0  0  0
 19 20  2  0  0  0
 19 21  1  0  0  0
 21 22  1  0  0  0
 21 48  1  0  0  0
 21 49  1  0  0  0
 22 23  1  0  0  0
 22 50  1  0  0  0
 22 51  1  0  0  0
 23 24  1  0  0  0
 23 26  1  0  0  0
 24 25  1  0  0  0
 24 52  1  0  0  0
 24 53  1  0  0  0
 25 54  1  0  0  0
 26 27  1  0  0  0
 26 55  1  0  0  0
 26 56  1  0  0  0
 27 57  1  0  0  0
M  CHG  2   4  -1  12   1
M  END
> <s_m_source_file>
../4dgr_ligand.sdf

> <i_m_source_file_index>
1

> <s_epik_input>
W0NIMl0xW0NIMl1DKD1PKU4oQzEoW0NIMl1bT0hdKVtDSDJdW09IXSljKFtjSF1bY0hdMiljKFtjSF1jMkMoPU8pW09IXSlbQ0gyXVtOSCtdKFtDSDJdW0NIMl1bQ0gzXSlbQ0gyXVtDSDJdW0NIM10=

> <s_epik_cmdline>
J2VwaWtfYXBwJywgJy1pbWFlJywgJ2xpZ2FuZF9wcm8ubWFlJywgJy1vbWFlJywgJ2xpZ2FuZF9wcmVwLm1hZScsICctbXMnLCAnMScsICctcGgnLCAnNycsICctcGh0JywgJzAuNScsICctbnQn

> <r_epik_Ionization_Penalty>
  0.0163

> <r_epik_Ionization_Penalty_Charging>
  0.0163

> <r_epik_Ionization_Penalty_Neutral>
  0.0000

> <r_epik_State_Penalty>
  0.0126

> <r_epik_Charging_Adjusted_Penalty>
0.0288864670672174

> <i_epik_Tot_Q>
0

> <i_epik_Tot_abs_Q>
2

$$$$
