4dh6_ligand
                    3D
 Schrodinger Suite 2020-3.
 84 88  0  0  1  0            999 V2000
   62.9460   44.3320    9.4040 C   0  0  0  0  0  0
   61.4210   44.4750    9.2920 C   0  0  0  0  0  0
   61.5390   45.9820    9.5360 C   0  0  0  0  0  0
   63.0780   45.8550    9.5440 C   0  0  0  0  0  0
   63.7480   46.4820    8.3090 C   0  0  0  0  0  0
   63.7120   46.2250   10.7860 O   0  0  0  0  0  0
   63.9570   47.5610   10.9730 C   0  0  0  0  0  0
   64.1600   47.9840   12.2390 N   0  0  0  0  0  0
   64.4100   49.2540   12.5300 C   0  0  0  0  0  0
   64.4720   50.2100   11.5160 C   0  0  0  0  0  0
   64.7580   51.6820   11.8590 C   0  0  0  0  0  0
   63.5280   52.4430   12.3770 C   0  0  0  0  0  0
   63.9750   53.7740   12.9780 C   0  0  0  0  0  0
   62.7770   51.6490   13.4510 C   0  0  0  0  0  0
   62.5700   52.7390   11.2180 C   0  0  0  0  0  0
   64.2750   49.8120   10.1910 C   0  0  0  0  0  0
   64.0190   48.4710    9.9050 C   0  0  0  0  0  0
   63.7940   48.0160    8.4360 C   0  0  1  0  0  0
   64.8160   48.5710    7.5120 N   0  3  0  0  0  0
   66.2250   48.3060    7.8900 C   0  0  0  0  0  0
   67.1260   49.2910    7.1440 C   0  0  1  0  0  0
   66.7410   50.6170    7.5050 O   0  0  0  0  0  0
   68.6200   49.1030    7.4450 C   0  0  1  0  0  0
   69.1080   47.7600    7.1050 N   0  0  0  0  0  0
   69.3860   46.8360    8.0230 C   0  0  0  0  0  0
   69.1660   46.9620    9.2290 O   0  0  0  0  0  0
   69.9270   45.5080    7.5160 C   0  0  1  0  0  0
   71.4500   45.5930    7.3670 C   0  0  0  0  0  0
   69.5050   44.5010    8.4450 O   0  0  0  0  0  0
   68.3020   43.8770    7.9600 C   0  0  0  0  0  0
   69.5120   50.0720    6.6550 C   0  0  0  0  0  0
   70.9470   49.8950    7.1390 C   0  0  0  0  0  0
   71.9800   49.5490    6.2720 C   0  0  0  0  0  0
   73.2680   49.4030    6.7970 C   0  0  0  0  0  0
   74.4520   49.0810    6.2020 O   0  0  0  0  0  0
   75.2830   48.6350    7.3060 C   0  0  0  0  0  0
   74.8300   49.3930    8.4360 O   0  0  0  0  0  0
   73.5140   49.5940    8.1670 C   0  0  0  0  0  0
   72.4800   49.9320    9.0150 C   0  0  0  0  0  0
   71.2030   50.0810    8.4930 C   0  0  0  0  0  0
   63.1927   43.7077   10.2754 H   0  0  0  0  0  0
   63.3380   43.8591    8.4915 H   0  0  0  0  0  0
   61.0930   44.1360    8.2983 H   0  0  0  0  0  0
   60.9373   43.8619   10.0667 H   0  0  0  0  0  0
   61.0667   46.5261    8.7048 H   0  0  0  0  0  0
   61.0340   46.2416   10.4781 H   0  0  0  0  0  0
   64.7760   46.1016    8.2168 H   0  0  0  0  0  0
   63.1765   46.2165    7.4074 H   0  0  0  0  0  0
   64.5677   49.5519   13.5666 H   0  0  0  0  0  0
   65.5293   51.7329   12.6416 H   0  0  0  0  0  0
   65.1134   52.2058   10.9594 H   0  0  0  0  0  0
   64.6650   53.5856   13.8137 H   0  0  0  0  0  0
   63.0960   54.3242   13.3450 H   0  0  0  0  0  0
   64.4859   54.3708   12.2081 H   0  0  0  0  0  0
   63.4565   51.4312   14.2882 H   0  0  0  0  0  0
   62.4112   50.7051   13.0205 H   0  0  0  0  0  0
   61.9242   52.2407   13.8152 H   0  0  0  0  0  0
   63.0999   53.3093   10.4408 H   0  0  0  0  0  0
   61.7178   53.3279   11.5880 H   0  0  0  0  0  0
   62.2048   51.7923   10.7933 H   0  0  0  0  0  0
   64.3211   50.5452    9.3857 H   0  0  0  0  0  0
   62.8335   48.4351    8.1017 H   0  0  0  0  0  0
   64.6763   48.1405    6.5094 H   0  0  0  0  0  0
   64.7079   49.6644    7.4598 H   0  0  0  0  0  0
   66.3445   48.4385    8.9754 H   0  0  0  0  0  0
   66.4906   47.2746    7.6151 H   0  0  0  0  0  0
   66.9662   49.1734    6.0620 H   0  0  0  0  0  0
   65.7008   50.9455    7.3633 H   0  0  0  0  0  0
   68.7066   49.2443    8.5324 H   0  0  0  0  0  0
   69.2590   47.4799    6.0520 H   0  0  0  0  0  0
   69.5054   45.2023    6.5471 H   0  0  0  0  0  0
   71.7042   46.3814    6.6433 H   0  0  0  0  0  0
   71.8378   44.6279    7.0091 H   0  0  0  0  0  0
   71.9011   45.8307    8.3417 H   0  0  0  0  0  0
   67.9772   43.1040    8.6721 H   0  0  0  0  0  0
   68.4977   43.4149    6.9811 H   0  0  0  0  0  0
   67.5119   44.6352    7.8562 H   0  0  0  0  0  0
   69.4426   49.8418    5.5816 H   0  0  0  0  0  0
   69.1771   51.1049    6.8309 H   0  0  0  0  0  0
   71.7895   49.3956    5.2098 H   0  0  0  0  0  0
   75.1426   47.5546    7.4574 H   0  0  0  0  0  0
   76.3391   48.8388    7.0756 H   0  0  0  0  0  0
   72.6633   50.0798   10.0793 H   0  0  0  0  0  0
   70.3828   50.3497    9.1587 H   0  0  0  0  0  0
  1  2  1  0  0  0
  1  4  1  0  0  0
  1 41  1  0  0  0
  1 42  1  0  0  0
  2  3  1  0  0  0
  2 43  1  0  0  0
  2 44  1  0  0  0
  3  4  1  0  0  0
  3 45  1  0  0  0
  3 46  1  0  0  0
  4  5  1  0  0  0
  4  6  1  0  0  0
  5 18  1  0  0  0
  5 47  1  0  0  0
  5 48  1  0  0  0
  6  7  1  0  0  0
  7  8  2  0  0  0
  7 17  1  0  0  0
  8  9  1  0  0  0
  9 10  2  0  0  0
  9 49  1  0  0  0
 10 11  1  0  0  0
 10 16  1  0  0  0
 11 12  1  0  0  0
 11 50  1  0  0  0
 11 51  1  0  0  0
 12 13  1  0  0  0
 12 14  1  0  0  0
 12 15  1  0  0  0
 13 52  1  0  0  0
 13 53  1  0  0  0
 13 54  1  0  0  0
 14 55  1  0  0  0
 14 56  1  0  0  0
 14 57  1  0  0  0
 15 58  1  0  0  0
 15 59  1  0  0  0
 15 60  1  0  0  0
 16 17  2  0  0  0
 16 61  1  0  0  0
 17 18  1  0  0  0
 18 19  1  0  0  0
 18 62  1  0  0  0
 19 20  1  0  0  0
 19 63  1  0  0  0
 19 64  1  0  0  0
 20 21  1  0  0  0
 20 65  1  0  0  0
 20 66  1  0  0  0
 21 22  1  0  0  0
 21 23  1  0  0  0
 21 67  1  0  0  0
 22 68  1  0  0  0
 23 24  1  0  0  0
 23 31  1  0  0  0
 23 69  1  0  0  0
 24 25  1  0  0  0
 24 70  1  0  0  0
 25 26  2  0  0  0
 25 27  1  0  0  0
 27 28  1  0  0  0
 27 29  1  0  0  0
 27 71  1  0  0  0
 28 72  1  0  0  0
 28 73  1  0  0  0
 28 74  1  0  0  0
 29 30  1  0  0  0
 30 75  1  0  0  0
 30 76  1  0  0  0
 30 77  1  0  0  0
 31 32  1  0  0  0
 31 78  1  0  0  0
 31 79  1  0  0  0
 32 33  2  0  0  0
 32 40  1  0  0  0
 33 34  1  0  0  0
 33 80  1  0  0  0
 34 35  1  0  0  0
 34 38  2  0  0  0
 35 36  1  0  0  0
 36 37  1  0  0  0
 36 81  1  0  0  0
 36 82  1  0  0  0
 37 38  1  0  0  0
 38 39  1  0  0  0
 39 40  2  0  0  0
 39 83  1  0  0  0
 40 84  1  0  0  0
M  CHG  1  19   1
M  END
> <s_m_source_file>
../4dh6_ligand.sdf

> <i_m_source_file_index>
1

> <s_epik_input>
W0NIM11DKFtDSDNdKShbQ0gzXSlbQ0gyXWMoW2NIXTEpW2NIXW5jKE8yKWMxW0NASF0oW0NIMl1DMjNbQ0gyXVtDSDJdW0NIMl0zKVtOSDIrXVtDSDJdW0NAQEhdKFtPSF0pW0NAQEhdKFtOSF1DKD1PKVtDQEBIXShbQ0gzXSlPW0NIM10pW0NIMl1jKFtjSF00KVtjSF1bY0hdYyhjNDUpT1tDSDJdTzU=

> <s_epik_cmdline>
J2VwaWtfYXBwJywgJy1pbWFlJywgJ2xpZ2FuZF9wcm8ubWFlJywgJy1vbWFlJywgJ2xpZ2FuZF9wcmVwLm1hZScsICctbXMnLCAnMScsICctcGgnLCAnNycsICctcGh0JywgJzAuNScsICctbnQn

> <r_lp_tautomer_probability>
1

> <r_epik_Ionization_Penalty>
  0.0458

> <r_epik_Ionization_Penalty_Charging>
  0.0457

> <r_epik_Ionization_Penalty_Neutral>
  0.0001

> <r_epik_State_Penalty>
  0.0388

> <r_epik_Charging_Adjusted_Penalty>
0.084495992535178

> <i_epik_Tot_Q>
1

> <i_epik_Tot_abs_Q>
1

> <s_epik_Chemistry_Notes>
This compound contains an acetal/aminal-like group ( X-CH(R)-Y where X, Y are N, S, or O) that may be acid/base labile, releasing an aldehyde.

$$$$
