4dhf_ligand
                    3D
 Schrodinger Suite 2020-3.
 63 67  0  0  1  0            999 V2000
  -19.4400   21.0070    0.5950 O   0  0  0  0  0  0
  -19.8610   20.1160   -0.1450 C   0  0  0  0  0  0
  -19.0770   19.4500   -1.0090 N   0  0  0  0  0  0
  -21.3170   19.7990   -0.0680 C   0  0  0  0  0  0
  -22.1190   19.6520   -1.1350 N   0  0  0  0  0  0
  -21.5950   19.7840   -2.5160 C   0  0  0  0  0  0
  -21.8660   18.6090   -3.4270 C   0  0  0  0  0  0
  -21.7210   19.2210   -4.8120 C   0  0  0  0  0  0
  -22.1190   20.6780   -4.7110 C   0  0  0  0  0  0
  -22.1620   21.0040   -3.2330 C   0  0  0  0  0  0
  -22.0280   19.6270    1.1250 C   0  0  0  0  0  0
  -23.3330   19.3700    0.6580 C   0  0  0  0  0  0
  -23.3700   19.3790   -0.7270 C   0  0  0  0  0  0
  -24.5370   19.1450   -1.3660 N   0  0  0  0  0  0
  -24.4700   19.1350    1.4120 C   0  0  0  0  0  0
  -25.6010   18.9050    0.7250 N   0  0  0  0  0  0
  -25.6530   18.9120   -0.6400 C   0  0  0  0  0  0
  -26.8440   18.6960   -1.2630 N   0  0  0  0  0  0
  -27.0320   18.5610   -2.5950 C   0  0  0  0  0  0
  -26.1330   18.8120   -3.6100 C   0  0  0  0  0  0
  -26.7140   18.5130   -4.7860 N   0  0  0  0  0  0
  -26.0320   18.6660   -6.1040 C   0  0  0  0  0  0
  -28.1950   18.1070   -3.1950 C   0  0  0  0  0  0
  -27.9890   18.1070   -4.5700 C   0  0  0  0  0  0
  -28.9520   17.6340   -5.6190 C   0  0  0  0  0  0
  -28.4830   16.7320   -6.2830 O   0  0  0  0  0  0
  -30.2220   18.0400   -5.8430 N   0  0  0  0  0  0
  -30.9520   18.8370   -4.8400 C   0  0  0  0  0  0
  -31.9330   19.8060   -5.5170 C   0  0  0  0  0  0
  -32.6960   18.9950   -6.4510 N   0  0  0  0  0  0
  -34.0870   18.6140   -6.1470 C   0  0  0  0  0  0
  -31.9550   18.5900   -7.6350 C   0  0  0  0  0  0
  -30.9180   17.5970   -7.0850 C   0  0  0  0  0  0
  -18.0032   19.6814   -1.0682 H   0  0  0  0  0  0
  -19.5088   18.6733   -1.6573 H   0  0  0  0  0  0
  -20.5148   19.8530   -2.3201 H   0  0  0  0  0  0
  -21.1284   17.8165   -3.2325 H   0  0  0  0  0  0
  -22.8781   18.2228   -3.2361 H   0  0  0  0  0  0
  -20.6766   19.1305   -5.1453 H   0  0  0  0  0  0
  -22.3782   18.6915   -5.5175 H   0  0  0  0  0  0
  -21.3743   21.2984   -5.2311 H   0  0  0  0  0  0
  -23.1053   20.8218   -5.1763 H   0  0  0  0  0  0
  -23.1938   21.1811   -2.8953 H   0  0  0  0  0  0
  -21.5445   21.8847   -3.0025 H   0  0  0  0  0  0
  -21.6657   19.6785    2.1517 H   0  0  0  0  0  0
  -24.4486   19.1365    2.5018 H   0  0  0  0  0  0
  -27.7678   18.6164   -0.6712 H   0  0  0  0  0  0
  -25.1189   19.1903   -3.4808 H   0  0  0  0  0  0
  -25.0002   19.0124   -5.9449 H   0  0  0  0  0  0
  -26.5757   19.4017   -6.7149 H   0  0  0  0  0  0
  -26.0173   17.6968   -6.6239 H   0  0  0  0  0  0
  -29.1076   17.8042   -2.6815 H   0  0  0  0  0  0
  -31.5189   18.1646   -4.1793 H   0  0  0  0  0  0
  -30.2355   19.4198   -4.2425 H   0  0  0  0  0  0
  -32.5832   20.2611   -4.7553 H   0  0  0  0  0  0
  -31.3694   20.5948   -6.0367 H   0  0  0  0  0  0
  -34.3888   19.0621   -5.1888 H   0  0  0  0  0  0
  -34.1606   17.5186   -6.0789 H   0  0  0  0  0  0
  -34.7497   18.9770   -6.9464 H   0  0  0  0  0  0
  -32.6422   18.1224   -8.3555 H   0  0  0  0  0  0
  -31.4871   19.4731   -8.0947 H   0  0  0  0  0  0
  -30.1780   17.4383   -7.8833 H   0  0  0  0  0  0
  -31.4538   16.6564   -6.8895 H   0  0  0  0  0  0
  1  2  2  0  0  0
  2  3  1  0  0  0
  2  4  1  0  0  0
  3 34  1  0  0  0
  3 35  1  0  0  0
  4  5  1  0  0  0
  4 11  2  0  0  0
  5  6  1  0  0  0
  5 13  1  0  0  0
  6  7  1  0  0  0
  6 10  1  0  0  0
  6 36  1  0  0  0
  7  8  1  0  0  0
  7 37  1  0  0  0
  7 38  1  0  0  0
  8  9  1  0  0  0
  8 39  1  0  0  0
  8 40  1  0  0  0
  9 10  1  0  0  0
  9 41  1  0  0  0
  9 42  1  0  0  0
 10 43  1  0  0  0
 10 44  1  0  0  0
 11 12  1  0  0  0
 11 45  1  0  0  0
 12 13  2  0  0  0
 12 15  1  0  0  0
 13 14  1  0  0  0
 14 17  2  0  0  0
 15 16  2  0  0  0
 15 46  1  0  0  0
 16 17  1  0  0  0
 17 18  1  0  0  0
 18 19  1  0  0  0
 18 47  1  0  0  0
 19 20  2  0  0  0
 19 23  1  0  0  0
 20 21  1  0  0  0
 20 48  1  0  0  0
 21 22  1  0  0  0
 21 24  1  0  0  0
 22 49  1  0  0  0
 22 50  1  0  0  0
 22 51  1  0  0  0
 23 24  2  0  0  0
 23 52  1  0  0  0
 24 25  1  0  0  0
 25 26  2  0  0  0
 25 27  1  0  0  0
 27 28  1  0  0  0
 27 33  1  0  0  0
 28 29  1  0  0  0
 28 53  1  0  0  0
 28 54  1  0  0  0
 29 30  1  0  0  0
 29 55  1  0  0  0
 29 56  1  0  0  0
 30 31  1  0  0  0
 30 32  1  0  0  0
 31 57  1  0  0  0
 31 58  1  0  0  0
 31 59  1  0  0  0
 32 33  1  0  0  0
 32 60  1  0  0  0
 32 61  1  0  0  0
 33 62  1  0  0  0
 33 63  1  0  0  0
M  END
> <s_m_source_file>
../4dhf_ligand.sdf

> <i_m_source_file_index>
1

> <s_epik_input>
W0NIMl0xW0NIMl1bQ0gyXVtDSDJdW0NIXTFuKGMoW2NIXTIpQyg9TylbTkgyXSljKGMyMyluYyhuW2NIXTMpW05IXWM0W2NIXW4oW0NIM10pYyhbY0hdNClDKD1PKU41W0NIMl1bQ0gyXVtOSCtdKFtDSDNdKVtDSDJdW0NIMl01

> <s_epik_cmdline>
J2VwaWtfYXBwJywgJy1pbWFlJywgJ2xpZ2FuZF9wcm8ubWFlJywgJy1vbWFlJywgJ2xpZ2FuZF9wcmVwLm1hZScsICctbXMnLCAnMScsICctcGgnLCAnNycsICctcGh0JywgJzAuNScsICctbnQn

> <r_lp_tautomer_probability>
0.999992697323056

> <r_epik_Ionization_Penalty>
  0.3076

> <r_epik_Ionization_Penalty_Charging>
  0.0000

> <r_epik_Ionization_Penalty_Neutral>
  0.3076

> <r_epik_State_Penalty>
  0.3014

> <r_epik_Charging_Adjusted_Penalty>
0.301414518709488

> <i_epik_Tot_Q>
0

> <i_epik_Tot_abs_Q>
0

$$$$
