4dhl_ligand
                    3D
 Schrodinger Suite 2020-3.
 23 24  0  0  1  0            999 V2000
  -70.1390   33.3710  -45.7470 C   0  0  0  0  0  0
  -70.3560   33.4110  -47.1200 C   0  0  0  0  0  0
  -71.4880   34.0300  -47.6350 C   0  0  0  0  0  0
  -71.7080   34.0720  -49.1120 C   0  0  0  0  0  0
  -72.4140   34.6060  -46.7700 C   0  0  0  0  0  0
  -72.2020   34.5610  -45.3950 C   0  0  0  0  0  0
  -71.0630   33.9440  -44.8780 C   0  0  0  0  0  0
  -70.8420   33.8910  -43.3970 C   0  0  0  0  0  0
  -70.2050   32.9090  -42.7110 N   0  0  0  0  0  0
  -71.3740   35.0350  -42.2650 S   0  0  0  0  0  0
  -70.7660   34.2740  -40.8750 C   0  0  0  0  0  0
  -70.1530   33.1020  -41.3500 C   0  0  0  0  0  0
  -69.4860   32.1530  -40.4240 C   0  0  0  0  0  0
  -69.9130   32.0250  -39.2660 O   0  0  0  0  0  0
  -68.4800   31.5020  -40.7720 O   0  5  0  0  0  0
  -69.2444   32.8904  -45.3509 H   0  0  0  0  0  0
  -69.6335   32.9539  -47.7962 H   0  0  0  0  0  0
  -70.8734   33.5681  -49.6215 H   0  0  0  0  0  0
  -71.7624   35.1190  -49.4450 H   0  0  0  0  0  0
  -72.6501   33.5598  -49.3571 H   0  0  0  0  0  0
  -73.3044   35.0919  -47.1690 H   0  0  0  0  0  0
  -72.9297   35.0101  -44.7191 H   0  0  0  0  0  0
  -70.8356   34.6180  -39.8430 H   0  0  0  0  0  0
  1  2  2  0  0  0
  1  7  1  0  0  0
  1 16  1  0  0  0
  2  3  1  0  0  0
  2 17  1  0  0  0
  3  4  1  0  0  0
  3  5  2  0  0  0
  4 18  1  0  0  0
  4 19  1  0  0  0
  4 20  1  0  0  0
  5  6  1  0  0  0
  5 21  1  0  0  0
  6  7  2  0  0  0
  6 22  1  0  0  0
  7  8  1  0  0  0
  8  9  2  0  0  0
  8 10  1  0  0  0
  9 12  1  0  0  0
 10 11  1  0  0  0
 11 12  2  0  0  0
 11 23  1  0  0  0
 12 13  1  0  0  0
 13 14  2  0  0  0
 13 15  1  0  0  0
M  CHG  1  15  -1
M  END
> <s_m_source_file>
../4dhl_ligand.sdf

> <i_m_source_file_index>
1

> <s_epik_input>
W0NIM11jMVtjSF1bY0hdYyhbY0hdW2NIXTEpLWMybmMoW2NIXXMyKUMoPU8pW09IXQ==

> <s_epik_cmdline>
J2VwaWtfYXBwJywgJy1pbWFlJywgJ2xpZ2FuZF9wcm8ubWFlJywgJy1vbWFlJywgJ2xpZ2FuZF9wcmVwLm1hZScsICctbXMnLCAnMScsICctcGgnLCAnNycsICctcGh0JywgJzAuNScsICctbnQn

> <r_lp_tautomer_probability>
1

> <r_epik_Ionization_Penalty>
  0.0009

> <r_epik_Ionization_Penalty_Charging>
  0.0009

> <r_epik_Ionization_Penalty_Neutral>
  0.0000

> <r_epik_State_Penalty>
 -0.0000

> <r_epik_Charging_Adjusted_Penalty>
0.000898769817172312

> <i_epik_Tot_Q>
-1

> <i_epik_Tot_abs_Q>
1

$$$$
