4dhm_ligand
                    3D
 Schrodinger Suite 2020-3.
 37 38  0  0  1  0            999 V2000
   20.9030   14.7030   -9.7870 O   0  5  0  0  0  0
   21.9380   13.6540  -10.3520 P   0  0  0  0  0  0
   21.6940   13.1780  -11.8190 O   0  0  0  0  0  0
   21.9420   12.5000   -9.3650 O   0  0  0  0  0  0
   23.5700   14.4750  -10.3600 C   0  0  0  0  0  0
   23.6610   15.8380  -10.0700 C   0  0  0  0  0  0
   24.9740   16.4260  -10.0960 C   0  0  0  0  0  0
   26.1190   15.6950  -10.4080 C   0  0  0  0  0  0
   25.9870   14.3270  -10.7140 C   0  0  0  0  0  0
   24.7040   13.7470  -10.7140 C   0  0  0  0  0  0
   24.5340   12.4050  -11.0080 O   0  0  0  0  0  0
   25.6220   11.4480  -10.8170 C   0  0  0  0  0  0
   24.9900   10.0360  -10.5610 C   0  0  0  0  0  0
   25.6960    9.0270  -10.6210 O   0  0  0  0  0  0
   23.6530   10.0670  -10.2750 N   0  0  0  0  0  0
   22.9550    8.9570   -9.9680 C   0  0  0  0  0  0
   23.0020    7.7760  -10.7050 C   0  0  0  0  0  0
   22.2330    6.6560  -10.2970 C   0  0  0  0  0  0
   22.3040    5.4510  -11.0140 C   0  0  0  0  0  0
   22.3700    4.3640  -10.2150 F   0  0  0  0  0  0
   23.5250    5.3430  -11.7280 F   0  0  0  0  0  0
   21.1890    5.3960  -11.8170 F   0  0  0  0  0  0
   21.3850    6.7580   -9.1830 C   0  0  0  0  0  0
   21.3440    7.9250   -8.4490 C   0  0  0  0  0  0
   22.1230    9.0230   -8.8480 C   0  0  0  0  0  0
   20.7657   12.6476  -12.0779 H   0  0  0  0  0  0
   22.7767   16.4301   -9.8344 H   0  0  0  0  0  0
   25.0774   17.4856   -9.8623 H   0  0  0  0  0  0
   27.0984   16.1735  -10.4150 H   0  0  0  0  0  0
   26.8655   13.7255  -10.9476 H   0  0  0  0  0  0
   26.2513   11.4235  -11.7189 H   0  0  0  0  0  0
   26.2310   11.7528   -9.9531 H   0  0  0  0  0  0
   23.1092   11.0231  -10.2908 H   0  0  0  0  0  0
   23.6290    7.7125  -11.5943 H   0  0  0  0  0  0
   20.7578    5.9134   -8.8976 H   0  0  0  0  0  0
   20.7107    7.9945   -7.5646 H   0  0  0  0  0  0
   22.0775    9.9468   -8.2713 H   0  0  0  0  0  0
  1  2  1  0  0  0
  2  3  1  0  0  0
  2  4  2  0  0  0
  2  5  1  0  0  0
  3 26  1  0  0  0
  5  6  2  0  0  0
  5 10  1  0  0  0
  6  7  1  0  0  0
  6 27  1  0  0  0
  7  8  2  0  0  0
  7 28  1  0  0  0
  8  9  1  0  0  0
  8 29  1  0  0  0
  9 10  2  0  0  0
  9 30  1  0  0  0
 10 11  1  0  0  0
 11 12  1  0  0  0
 12 13  1  0  0  0
 12 31  1  0  0  0
 12 32  1  0  0  0
 13 14  2  0  0  0
 13 15  1  0  0  0
 15 16  1  0  0  0
 15 33  1  0  0  0
 16 17  2  0  0  0
 16 25  1  0  0  0
 17 18  1  0  0  0
 17 34  1  0  0  0
 18 19  1  0  0  0
 18 23  2  0  0  0
 19 20  1  0  0  0
 19 21  1  0  0  0
 19 22  1  0  0  0
 23 24  1  0  0  0
 23 35  1  0  0  0
 24 25  2  0  0  0
 24 36  1  0  0  0
 25 37  1  0  0  0
M  CHG  1   1  -1
M  END
> <s_m_source_file>
../4dhm_ligand.sdf

> <i_m_source_file_index>
1

> <s_epik_input>
W09IXVAoPU8pKFtPSF0pYzFbY0hdW2NIXVtjSF1bY0hdYzFPW0NIMl1DKD1PKVtOSF1jMltjSF1jKEMoRikoRilGKVtjSF1bY0hdW2NIXTI=

> <s_epik_cmdline>
J2VwaWtfYXBwJywgJy1pbWFlJywgJ2xpZ2FuZF9wcm8ubWFlJywgJy1vbWFlJywgJ2xpZ2FuZF9wcmVwLm1hZScsICctbXMnLCAnMScsICctcGgnLCAnNycsICctcGh0JywgJzAuNScsICctbnQn

> <r_epik_Ionization_Penalty>
  0.2794

> <r_epik_Ionization_Penalty_Charging>
  0.0000

> <r_epik_Ionization_Penalty_Neutral>
  0.2794

> <r_epik_State_Penalty>
  0.2719

> <r_epik_Charging_Adjusted_Penalty>
0.271945680581061

> <i_epik_Tot_Q>
-1

> <i_epik_Tot_abs_Q>
1

$$$$
