4dhn_ligand
                    3D
 Schrodinger Suite 2020-3.
 37 38  0  0  1  0            999 V2000
   22.0450    8.2410   -8.9050 C   0  0  0  0  0  0
   20.9120    7.2950   -9.3110 C   0  0  0  0  0  0
   20.9890    7.1440  -10.8120 C   0  0  0  0  0  0
   22.1530    7.9790  -11.3180 C   0  0  0  0  0  0
   23.0020    8.2550  -10.1070 C   0  0  0  0  0  0
   23.6070    9.6000  -10.2700 N   0  0  0  0  0  0
   24.9270    9.7320  -10.4890 C   0  0  0  0  0  0
   25.6890    8.7700  -10.6380 O   0  0  0  0  0  0
   25.5820   11.1120  -10.6200 C   0  0  0  0  0  0
   24.4700   12.0250  -10.8160 O   0  0  0  0  0  0
   24.6680   13.3690  -10.6060 C   0  0  0  0  0  0
   25.9430   13.9550  -10.5830 C   0  0  0  0  0  0
   26.0320   15.3580  -10.3670 C   0  0  0  0  0  0
   24.8760   16.1250  -10.1810 C   0  0  0  0  0  0
   23.6020   15.5170  -10.2100 C   0  0  0  0  0  0
   23.5280   14.1350  -10.4250 C   0  0  0  0  0  0
   21.8300   13.4050  -10.4070 P   0  0  0  0  0  0
   21.8300   12.1700   -9.4600 O   0  5  0  0  0  0
   21.6210   12.9540  -11.8810 O   0  0  0  0  0  0
   20.8330   14.4520   -9.9030 O   0  0  0  0  0  0
   21.6331    9.2407   -8.7025 H   0  0  0  0  0  0
   22.5367    7.8567   -7.9992 H   0  0  0  0  0  0
   21.0488    6.3240   -8.8126 H   0  0  0  0  0  0
   19.9468    7.7286   -9.0104 H   0  0  0  0  0  0
   21.1462    6.0854  -11.0664 H   0  0  0  0  0  0
   20.0495    7.4942  -11.2644 H   0  0  0  0  0  0
   22.7086    7.4107  -12.0785 H   0  0  0  0  0  0
   21.7707    8.9097  -11.7625 H   0  0  0  0  0  0
   23.8237    7.5332   -9.9893 H   0  0  0  0  0  0
   22.9747   10.4982  -10.2120 H   0  0  0  0  0  0
   26.1432   11.3401   -9.7018 H   0  0  0  0  0  0
   26.2690   11.1118  -11.4791 H   0  0  0  0  0  0
   26.8396   13.3520  -10.7266 H   0  0  0  0  0  0
   27.0093   15.8403  -10.3461 H   0  0  0  0  0  0
   24.9598   17.1987  -10.0127 H   0  0  0  0  0  0
   22.6978   16.1090  -10.0685 H   0  0  0  0  0  0
   22.2913   12.2046  -12.3272 H   0  0  0  0  0  0
  1  2  1  0  0  0
  1  5  1  0  0  0
  1 21  1  0  0  0
  1 22  1  0  0  0
  2  3  1  0  0  0
  2 23  1  0  0  0
  2 24  1  0  0  0
  3  4  1  0  0  0
  3 25  1  0  0  0
  3 26  1  0  0  0
  4  5  1  0  0  0
  4 27  1  0  0  0
  4 28  1  0  0  0
  5  6  1  0  0  0
  5 29  1  0  0  0
  6  7  1  0  0  0
  6 30  1  0  0  0
  7  8  2  0  0  0
  7  9  1  0  0  0
  9 10  1  0  0  0
  9 31  1  0  0  0
  9 32  1  0  0  0
 10 11  1  0  0  0
 11 12  2  0  0  0
 11 16  1  0  0  0
 12 13  1  0  0  0
 12 33  1  0  0  0
 13 14  2  0  0  0
 13 34  1  0  0  0
 14 15  1  0  0  0
 14 35  1  0  0  0
 15 16  2  0  0  0
 15 36  1  0  0  0
 16 17  1  0  0  0
 17 18  1  0  0  0
 17 19  1  0  0  0
 17 20  2  0  0  0
 19 37  1  0  0  0
M  CHG  1  18  -1
M  END
> <s_m_source_file>
../4dhn_ligand.sdf

> <i_m_source_file_index>
1

> <s_epik_input>
W0NIMl0xW0NIMl1bQ0gyXVtDSDJdW0NIXTFbTkhdQyg9TylbQ0gyXU9jMltjSF1bY0hdW2NIXVtjSF1jMlAoPU8pKFtPSF0pW09IXQ==

> <s_epik_cmdline>
J2VwaWtfYXBwJywgJy1pbWFlJywgJ2xpZ2FuZF9wcm8ubWFlJywgJy1vbWFlJywgJ2xpZ2FuZF9wcmVwLm1hZScsICctbXMnLCAnMScsICctcGgnLCAnNycsICctcGh0JywgJzAuNScsICctbnQn

> <r_epik_Ionization_Penalty>
  0.2524

> <r_epik_Ionization_Penalty_Charging>
  0.0000

> <r_epik_Ionization_Penalty_Neutral>
  0.2524

> <r_epik_State_Penalty>
  0.2438

> <r_epik_Charging_Adjusted_Penalty>
0.24380826051757

> <i_epik_Tot_Q>
-1

> <i_epik_Tot_abs_Q>
1

$$$$
