4dhp_ligand
                    3D
 Schrodinger Suite 2020-3.
 37 38  0  0  1  0            999 V2000
   21.5250   13.1490  -11.8130 O   0  5  0  0  0  0
   21.8430   13.6180  -10.3440 P   0  0  0  0  0  0
   20.8240   14.7780   -9.9020 O   0  0  0  0  0  0
   21.7470   12.5100   -9.3320 O   0  0  0  0  0  0
   23.4970   14.3880  -10.3950 C   0  0  0  0  0  0
   23.6140   15.7680  -10.2120 C   0  0  0  0  0  0
   24.8940   16.3370  -10.2560 C   0  0  0  0  0  0
   26.0270   15.5330  -10.4850 C   0  0  0  0  0  0
   25.8910   14.1440  -10.6830 C   0  0  0  0  0  0
   24.6000   13.5800  -10.6310 C   0  0  0  0  0  0
   24.3740   12.2360  -10.8260 O   0  0  0  0  0  0
   25.2480   11.2500  -10.2140 C   0  0  0  0  0  0
   24.4740   10.0440   -9.6160 C   0  0  0  0  0  0
   25.1150    9.0180   -9.3970 O   0  0  0  0  0  0
   23.1640   10.1320   -9.3620 N   0  0  0  0  0  0
   22.4860    9.1360   -8.7540 C   0  0  0  0  0  0
   22.4140    9.1630   -7.3640 C   0  0  0  0  0  0
   21.7310    8.1840   -6.6480 C   0  0  0  0  0  0
   21.6870    8.2640   -5.1110 C   0  0  0  0  0  0
   21.1080    7.1910   -4.5740 F   0  0  0  0  0  0
   20.9830    9.3300   -4.7680 F   0  0  0  0  0  0
   22.9190    8.4000   -4.6410 F   0  0  0  0  0  0
   21.1110    7.1500   -7.3350 C   0  0  0  0  0  0
   21.1570    7.1170   -8.7260 C   0  0  0  0  0  0
   21.8420    8.1010   -9.4320 C   0  0  0  0  0  0
   21.8780    8.0110  -11.1540 Cl  0  0  0  0  0  0
   19.7512   14.5578   -9.7988 H   0  0  0  0  0  0
   22.7329   16.3860  -10.0395 H   0  0  0  0  0  0
   25.0134   17.4108  -10.1118 H   0  0  0  0  0  0
   27.0171   15.9883  -10.5094 H   0  0  0  0  0  0
   26.7645   13.5200  -10.8721 H   0  0  0  0  0  0
   25.9453   10.8589  -10.9695 H   0  0  0  0  0  0
   25.8170   11.7203   -9.3985 H   0  0  0  0  0  0
   22.6073   11.0358   -9.6505 H   0  0  0  0  0  0
   22.9051    9.9715   -6.8224 H   0  0  0  0  0  0
   20.5892    6.3655   -6.7869 H   0  0  0  0  0  0
   20.6531    6.3151   -9.2655 H   0  0  0  0  0  0
  1  2  1  0  0  0
  2  3  1  0  0  0
  2  4  2  0  0  0
  2  5  1  0  0  0
  3 27  1  0  0  0
  5  6  2  0  0  0
  5 10  1  0  0  0
  6  7  1  0  0  0
  6 28  1  0  0  0
  7  8  2  0  0  0
  7 29  1  0  0  0
  8  9  1  0  0  0
  8 30  1  0  0  0
  9 10  2  0  0  0
  9 31  1  0  0  0
 10 11  1  0  0  0
 11 12  1  0  0  0
 12 13  1  0  0  0
 12 32  1  0  0  0
 12 33  1  0  0  0
 13 14  2  0  0  0
 13 15  1  0  0  0
 15 16  1  0  0  0
 15 34  1  0  0  0
 16 17  2  0  0  0
 16 25  1  0  0  0
 17 18  1  0  0  0
 17 35  1  0  0  0
 18 19  1  0  0  0
 18 23  2  0  0  0
 19 20  1  0  0  0
 19 21  1  0  0  0
 19 22  1  0  0  0
 23 24  1  0  0  0
 23 36  1  0  0  0
 24 25  2  0  0  0
 24 37  1  0  0  0
 25 26  1  0  0  0
M  CHG  1   1  -1
M  END
> <s_m_source_file>
../4dhp_ligand.sdf

> <i_m_source_file_index>
1

> <s_epik_input>
W09IXVAoPU8pKFtPSF0pYzFbY0hdW2NIXVtjSF1bY0hdYzFPW0NIMl1DKD1PKVtOSF1jMltjSF1jKEMoRikoRilGKVtjSF1bY0hdYzJDbA==

> <s_epik_cmdline>
J2VwaWtfYXBwJywgJy1pbWFlJywgJ2xpZ2FuZF9wcm8ubWFlJywgJy1vbWFlJywgJ2xpZ2FuZF9wcmVwLm1hZScsICctbXMnLCAnMScsICctcGgnLCAnNycsICctcGh0JywgJzAuNScsICctbnQn

> <r_epik_Ionization_Penalty>
  0.2794

> <r_epik_Ionization_Penalty_Charging>
  0.0000

> <r_epik_Ionization_Penalty_Neutral>
  0.2794

> <r_epik_State_Penalty>
  0.2719

> <r_epik_Charging_Adjusted_Penalty>
0.271945680581061

> <i_epik_Tot_Q>
-1

> <i_epik_Tot_abs_Q>
1

$$$$
