4dhq_ligand
                    3D
 Schrodinger Suite 2020-3.
 34 35  0  0  1  0            999 V2000
   20.9610   14.7690   -9.8220 O   0  5  0  0  0  0
   21.9600   13.7000  -10.3810 P   0  0  0  0  0  0
   21.6140   13.2410  -11.8060 O   0  0  0  0  0  0
   21.9340   12.5530   -9.4000 O   0  0  0  0  0  0
   23.6490   14.4890  -10.4240 C   0  0  0  0  0  0
   23.7830   15.8450  -10.0880 C   0  0  0  0  0  0
   25.0940   16.3860  -10.1360 C   0  0  0  0  0  0
   26.2160   15.6100  -10.4840 C   0  0  0  0  0  0
   26.0530   14.2350  -10.8010 C   0  0  0  0  0  0
   24.7460   13.7140  -10.7630 C   0  0  0  0  0  0
   24.4900   12.3950  -11.0790 O   0  0  0  0  0  0
   25.5200   11.4080  -10.8830 C   0  0  0  0  0  0
   24.8370   10.0390  -10.6410 C   0  0  0  0  0  0
   25.4990    9.0020  -10.7330 O   0  0  0  0  0  0
   23.5260   10.1160  -10.2880 N   0  0  0  0  0  0
   22.7790    9.0400   -9.9700 C   0  0  0  0  0  0
   22.5000    8.0160  -10.8770 C   0  0  0  0  0  0
   21.6630    6.9760  -10.4280 C   0  0  0  0  0  0
   21.3610    5.7100  -11.5090 Cl  0  0  0  0  0  0
   21.0910    6.9110   -9.1520 C   0  0  0  0  0  0
   21.3640    7.9350   -8.2710 C   0  0  0  0  0  0
   22.1980    8.9870   -8.6970 C   0  0  0  0  0  0
   20.6526   12.7453  -12.0060 H   0  0  0  0  0  0
   22.9233   16.4521   -9.8044 H   0  0  0  0  0  0
   25.2374   17.4393   -9.8950 H   0  0  0  0  0  0
   27.2070   16.0631  -10.5101 H   0  0  0  0  0  0
   26.9057   13.6086  -11.0631 H   0  0  0  0  0  0
   26.1571   11.3601  -11.7785 H   0  0  0  0  0  0
   26.1321   11.6848  -10.0120 H   0  0  0  0  0  0
   23.0228   11.0934  -10.2514 H   0  0  0  0  0  0
   22.9111    8.0211  -11.8865 H   0  0  0  0  0  0
   20.4503    6.0773   -8.8645 H   0  0  0  0  0  0
   20.9433    7.9308   -7.2655 H   0  0  0  0  0  0
   22.4014    9.8007   -8.0009 H   0  0  0  0  0  0
  1  2  1  0  0  0
  2  3  1  0  0  0
  2  4  2  0  0  0
  2  5  1  0  0  0
  3 23  1  0  0  0
  5  6  2  0  0  0
  5 10  1  0  0  0
  6  7  1  0  0  0
  6 24  1  0  0  0
  7  8  2  0  0  0
  7 25  1  0  0  0
  8  9  1  0  0  0
  8 26  1  0  0  0
  9 10  2  0  0  0
  9 27  1  0  0  0
 10 11  1  0  0  0
 11 12  1  0  0  0
 12 13  1  0  0  0
 12 28  1  0  0  0
 12 29  1  0  0  0
 13 14  2  0  0  0
 13 15  1  0  0  0
 15 16  1  0  0  0
 15 30  1  0  0  0
 16 17  2  0  0  0
 16 22  1  0  0  0
 17 18  1  0  0  0
 17 31  1  0  0  0
 18 19  1  0  0  0
 18 20  2  0  0  0
 20 21  1  0  0  0
 20 32  1  0  0  0
 21 22  2  0  0  0
 21 33  1  0  0  0
 22 34  1  0  0  0
M  CHG  1   1  -1
M  END
> <s_m_source_file>
../4dhq_ligand.sdf

> <i_m_source_file_index>
1

> <s_epik_input>
W09IXVAoPU8pKFtPSF0pYzFbY0hdW2NIXVtjSF1bY0hdYzFPW0NIMl1DKD1PKVtOSF1jMltjSF1jKENsKVtjSF1bY0hdW2NIXTI=

> <s_epik_cmdline>
J2VwaWtfYXBwJywgJy1pbWFlJywgJ2xpZ2FuZF9wcm8ubWFlJywgJy1vbWFlJywgJ2xpZ2FuZF9wcmVwLm1hZScsICctbXMnLCAnMScsICctcGgnLCAnNycsICctcGh0JywgJzAuNScsICctbnQn

> <r_epik_Ionization_Penalty>
  0.2794

> <r_epik_Ionization_Penalty_Charging>
  0.0000

> <r_epik_Ionization_Penalty_Neutral>
  0.2794

> <r_epik_State_Penalty>
  0.2719

> <r_epik_Charging_Adjusted_Penalty>
0.27194568058106

> <i_epik_Tot_Q>
-1

> <i_epik_Tot_abs_Q>
1

$$$$
