4dhr_ligand
                    3D
 Schrodinger Suite 2020-3.
 34 35  0  0  1  0            999 V2000
   21.7050   13.2550  -11.6490 O   0  0  0  0  0  0
   21.8760   13.7000  -10.2320 P   0  0  0  0  0  0
   21.9420   12.5040   -9.2750 O   0  5  0  0  0  0
   20.8670   14.7550   -9.7410 O   0  0  0  0  0  0
   23.5740   14.5030  -10.2870 C   0  0  0  0  0  0
   23.6850   15.8970  -10.0240 C   0  0  0  0  0  0
   25.0010   16.4570  -10.0520 C   0  0  0  0  0  0
   26.1440   15.7210  -10.3900 C   0  0  0  0  0  0
   26.0310   14.3240  -10.6320 C   0  0  0  0  0  0
   24.7270   13.7770  -10.5840 C   0  0  0  0  0  0
   24.4690   12.4470  -10.8570 O   0  0  0  0  0  0
   25.5110   11.4320  -10.6740 C   0  0  0  0  0  0
   24.8060   10.0600  -10.4340 C   0  0  0  0  0  0
   25.4700    9.0270  -10.6130 O   0  0  0  0  0  0
   23.5000   10.1030  -10.0410 N   0  0  0  0  0  0
   22.7510    8.9540   -9.9330 C   0  0  0  0  0  0
   22.2130    8.6230   -8.6820 C   0  0  0  0  0  0
   22.5870    9.5550   -7.2860 Cl  0  0  0  0  0  0
   21.3710    7.5350   -8.5190 C   0  0  0  0  0  0
   20.9570    6.8750   -9.6170 C   0  0  0  0  0  0
   21.4450    7.1650  -10.8480 C   0  0  0  0  0  0
   22.3120    8.2420  -11.0180 C   0  0  0  0  0  0
   19.8042   14.4921   -9.6349 H   0  0  0  0  0  0
   22.8086   16.5092   -9.8112 H   0  0  0  0  0  0
   25.1205   17.5101   -9.7974 H   0  0  0  0  0  0
   27.1125   16.2151  -10.4669 H   0  0  0  0  0  0
   26.9040   13.7066  -10.8435 H   0  0  0  0  0  0
   26.1394   11.3850  -11.5756 H   0  0  0  0  0  0
   26.1333   11.6976   -9.8067 H   0  0  0  0  0  0
   23.0284   11.0681   -9.8041 H   0  0  0  0  0  0
   21.0513    7.2208   -7.5254 H   0  0  0  0  0  0
   20.2105    6.0875   -9.5135 H   0  0  0  0  0  0
   21.1589    6.5553  -11.7050 H   0  0  0  0  0  0
   22.6426    8.5195  -12.0189 H   0  0  0  0  0  0
  1  2  2  0  0  0
  2  3  1  0  0  0
  2  4  1  0  0  0
  2  5  1  0  0  0
  4 23  1  0  0  0
  5  6  2  0  0  0
  5 10  1  0  0  0
  6  7  1  0  0  0
  6 24  1  0  0  0
  7  8  2  0  0  0
  7 25  1  0  0  0
  8  9  1  0  0  0
  8 26  1  0  0  0
  9 10  2  0  0  0
  9 27  1  0  0  0
 10 11  1  0  0  0
 11 12  1  0  0  0
 12 13  1  0  0  0
 12 28  1  0  0  0
 12 29  1  0  0  0
 13 14  2  0  0  0
 13 15  1  0  0  0
 15 16  1  0  0  0
 15 30  1  0  0  0
 16 17  2  0  0  0
 16 22  1  0  0  0
 17 18  1  0  0  0
 17 19  1  0  0  0
 19 20  2  0  0  0
 19 31  1  0  0  0
 20 21  1  0  0  0
 20 32  1  0  0  0
 21 22  2  0  0  0
 21 33  1  0  0  0
 22 34  1  0  0  0
M  CHG  1   3  -1
M  END
> <s_m_source_file>
../4dhr_ligand.sdf

> <i_m_source_file_index>
1

> <s_epik_input>
Tz1QKFtPSF0pKFtPSF0pYzFbY0hdW2NIXVtjSF1bY0hdYzFPW0NIMl1DKD1PKVtOSF1jMmMoQ2wpW2NIXVtjSF1bY0hdW2NIXTI=

> <s_epik_cmdline>
J2VwaWtfYXBwJywgJy1pbWFlJywgJ2xpZ2FuZF9wcm8ubWFlJywgJy1vbWFlJywgJ2xpZ2FuZF9wcmVwLm1hZScsICctbXMnLCAnMScsICctcGgnLCAnNycsICctcGh0JywgJzAuNScsICctbnQn

> <r_epik_Ionization_Penalty>
  0.2794

> <r_epik_Ionization_Penalty_Charging>
  0.0000

> <r_epik_Ionization_Penalty_Neutral>
  0.2794

> <r_epik_State_Penalty>
  0.2719

> <r_epik_Charging_Adjusted_Penalty>
0.27194568058106

> <i_epik_Tot_Q>
-1

> <i_epik_Tot_abs_Q>
1

$$$$
