4dht_ligand
                    3D
 Schrodinger Suite 2020-3.
 40 41  0  0  1  0            999 V2000
   22.3510    8.3200  -11.2230 C   0  0  0  0  0  0
   21.6940    6.9350  -10.9340 C   0  0  0  0  0  0
   20.8750    7.0270   -9.6370 C   0  0  0  0  0  0
   21.7360    7.3840   -8.4430 C   0  0  0  0  0  0
   22.6100    8.6270   -8.7490 C   0  0  0  0  0  0
   23.3240    8.5940  -10.0960 C   0  0  0  0  0  0
   23.9530    9.9030  -10.3440 N   0  0  0  0  0  0
   25.2280   10.0350  -10.6780 C   0  0  0  0  0  0
   26.0030    9.0800  -10.8200 O   0  0  0  0  0  0
   25.8040   11.4770  -10.8250 C   0  0  0  0  0  0
   24.6200   12.3280  -11.0130 O   0  0  0  0  0  0
   24.7390   13.6840  -10.7360 C   0  0  0  0  0  0
   26.0130   14.2580  -10.7210 C   0  0  0  0  0  0
   26.1190   15.6330  -10.4230 C   0  0  0  0  0  0
   24.9610   16.3590  -10.1380 C   0  0  0  0  0  0
   23.6690   15.7720  -10.1180 C   0  0  0  0  0  0
   23.6160   14.4040  -10.3670 C   0  0  0  0  0  0
   21.9790   13.5290  -10.4290 P   0  0  0  0  0  0
   20.9160   14.5970   -9.9100 O   0  5  0  0  0  0
   22.0190   12.2940   -9.4660 O   0  0  0  0  0  0
   21.6890   13.1150  -11.8330 O   0  0  0  0  0  0
   22.8763    8.2822  -12.1887 H   0  0  0  0  0  0
   21.5714    9.0952  -11.2598 H   0  0  0  0  0  0
   21.0334    6.6610  -11.7698 H   0  0  0  0  0  0
   22.4792    6.1728  -10.8222 H   0  0  0  0  0  0
   20.1020    7.8020   -9.7457 H   0  0  0  0  0  0
   20.3962    6.0573   -9.4361 H   0  0  0  0  0  0
   21.0916    7.6066   -7.5798 H   0  0  0  0  0  0
   22.3950    6.5375   -8.1999 H   0  0  0  0  0  0
   21.9791    9.5281   -8.7478 H   0  0  0  0  0  0
   23.3904    8.7248   -7.9800 H   0  0  0  0  0  0
   24.0980    7.8127  -10.0755 H   0  0  0  0  0  0
   23.3590   10.8245  -10.2542 H   0  0  0  0  0  0
   26.3610   11.7439   -9.9148 H   0  0  0  0  0  0
   26.4792   11.5155  -11.6926 H   0  0  0  0  0  0
   26.8995   13.6605  -10.9335 H   0  0  0  0  0  0
   27.0929   16.1224  -10.4154 H   0  0  0  0  0  0
   25.0533   17.4233   -9.9214 H   0  0  0  0  0  0
   22.7716   16.3579   -9.9194 H   0  0  0  0  0  0
   22.2223   12.4383   -8.3946 H   0  0  0  0  0  0
  1  2  1  0  0  0
  1  6  1  0  0  0
  1 22  1  0  0  0
  1 23  1  0  0  0
  2  3  1  0  0  0
  2 24  1  0  0  0
  2 25  1  0  0  0
  3  4  1  0  0  0
  3 26  1  0  0  0
  3 27  1  0  0  0
  4  5  1  0  0  0
  4 28  1  0  0  0
  4 29  1  0  0  0
  5  6  1  0  0  0
  5 30  1  0  0  0
  5 31  1  0  0  0
  6  7  1  0  0  0
  6 32  1  0  0  0
  7  8  1  0  0  0
  7 33  1  0  0  0
  8  9  2  0  0  0
  8 10  1  0  0  0
 10 11  1  0  0  0
 10 34  1  0  0  0
 10 35  1  0  0  0
 11 12  1  0  0  0
 12 13  2  0  0  0
 12 17  1  0  0  0
 13 14  1  0  0  0
 13 36  1  0  0  0
 14 15  2  0  0  0
 14 37  1  0  0  0
 15 16  1  0  0  0
 15 38  1  0  0  0
 16 17  2  0  0  0
 16 39  1  0  0  0
 17 18  1  0  0  0
 18 19  1  0  0  0
 18 20  1  0  0  0
 18 21  2  0  0  0
 20 40  1  0  0  0
M  CHG  1  19  -1
M  END
> <s_m_source_file>
../4dht_ligand.sdf

> <i_m_source_file_index>
1

> <s_epik_input>
W0NIMl0xW0NIMl1bQ0gyXVtDSDJdW0NIMl1bQ0hdMVtOSF1DKD1PKVtDSDJdT2MyW2NIXVtjSF1bY0hdW2NIXWMyUCg9TykoW09IXSlbT0hd

> <s_epik_cmdline>
J2VwaWtfYXBwJywgJy1pbWFlJywgJ2xpZ2FuZF9wcm8ubWFlJywgJy1vbWFlJywgJ2xpZ2FuZF9wcmVwLm1hZScsICctbXMnLCAnMScsICctcGgnLCAnNycsICctcGh0JywgJzAuNScsICctbnQn

> <r_epik_Ionization_Penalty>
  0.2524

> <r_epik_Ionization_Penalty_Charging>
  0.0000

> <r_epik_Ionization_Penalty_Neutral>
  0.2524

> <r_epik_State_Penalty>
  0.2438

> <r_epik_Charging_Adjusted_Penalty>
0.24380826051757

> <i_epik_Tot_Q>
-1

> <i_epik_Tot_abs_Q>
1

$$$$
