4di2_ligand
                    3D
 Schrodinger Suite 2020-3.
 87 91  0  0  1  0            999 V2000
   27.5020    0.2960   11.6700 C   0  0  0  0  0  0
   28.0810   -1.0320   11.1450 C   0  0  0  0  0  0
   29.2960   -0.2830   10.5860 C   0  0  0  0  0  0
   28.7770    1.0150   11.2310 C   0  0  0  0  0  0
   29.6360    1.4710   12.4240 C   0  0  0  0  0  0
   28.4980    2.0840   10.3030 O   0  0  0  0  0  0
   29.5780    2.8130    9.9040 C   0  0  0  0  0  0
   29.4230    3.5570    8.7930 N   0  0  0  0  0  0
   30.4070    4.3020    8.3130 C   0  0  0  0  0  0
   31.6490    4.3450    8.9440 C   0  0  0  0  0  0
   32.7720    5.2070    8.3370 C   0  0  0  0  0  0
   33.5630    4.4350    7.2380 C   0  0  0  0  0  0
   32.6220    3.7560    6.2300 C   0  0  0  0  0  0
   34.4850    3.3860    7.8570 C   0  0  0  0  0  0
   34.4350    5.4190    6.4540 C   0  0  0  0  0  0
   31.8550    3.5890   10.1020 C   0  0  0  0  0  0
   30.8030    2.8160   10.6060 C   0  0  0  0  0  0
   30.9990    1.9730   11.8970 C   0  0  1  0  0  0
   31.7140    2.7350   12.9620 N   0  3  0  0  0  0
   31.0660    4.0210   13.3300 C   0  0  0  0  0  0
   32.1010    4.9720   13.9810 C   0  0  1  0  0  0
   33.2450    5.0620   13.1410 O   0  0  0  0  0  0
   31.5700    6.4040   14.2400 C   0  0  1  0  0  0
   30.2940    6.3690   14.9830 N   0  0  0  0  0  0
   29.1130    6.5630   14.3880 C   0  0  0  0  0  0
   28.9900    6.7860   13.1830 O   0  0  0  0  0  0
   27.8340    6.5140   15.2230 C   0  0  1  0  0  0
   27.2390    5.1100   15.1770 C   0  0  0  0  0  0
   28.1260    6.8720   16.5750 O   0  0  0  0  0  0
   27.8590    8.2570   16.7610 C   0  0  0  0  0  0
   32.6220    7.2620   14.9790 C   0  0  0  0  0  0
   32.0680    8.5880   15.5200 C   0  0  0  0  0  0
   31.5920    8.6330   16.8270 C   0  0  0  0  0  0
   32.0380    9.7420   14.7370 C   0  0  0  0  0  0
   31.5230   10.9300   15.2700 C   0  0  0  0  0  0
   31.0440   10.9650   16.5860 C   0  0  0  0  0  0
   31.0880    9.8050   17.3710 C   0  0  0  0  0  0
   30.5850    9.7720   18.6730 C   0  0  0  0  0  0
   29.5530   10.4620   19.1700 N   0  0  0  0  0  0
   29.2560   10.1980   20.4580 C   0  0  0  0  0  0
   30.0150    9.2690   21.0590 C   0  0  0  0  0  0
   31.1360    8.7330   19.9090 S   0  0  0  0  0  0
   26.5664    0.5237   11.1382 H   0  0  0  0  0  0
   27.2990    0.2070   12.7474 H   0  0  0  0  0  0
   28.2397   -1.7213   11.9874 H   0  0  0  0  0  0
   27.3762   -1.4824   10.4306 H   0  0  0  0  0  0
   30.2182   -0.7309   10.9847 H   0  0  0  0  0  0
   29.2982   -0.3552    9.4884 H   0  0  0  0  0  0
   29.1212    2.2840   12.9569 H   0  0  0  0  0  0
   29.7913    0.6244   13.1089 H   0  0  0  0  0  0
   30.2431    4.8907    7.4104 H   0  0  0  0  0  0
   32.3365    6.1082    7.8808 H   0  0  0  0  0  0
   33.4772    5.5009    9.1284 H   0  0  0  0  0  0
   31.9762    3.0383    6.7572 H   0  0  0  0  0  0
   33.2175    3.2256    5.4723 H   0  0  0  0  0  0
   31.9989    4.5181    5.7392 H   0  0  0  0  0  0
   33.8854    2.6624    8.4287 H   0  0  0  0  0  0
   35.2028    3.8794    8.5288 H   0  0  0  0  0  0
   35.0307    2.8609    7.0592 H   0  0  0  0  0  0
   33.7973    6.1889    5.9951 H   0  0  0  0  0  0
   34.9811    4.8783    5.6669 H   0  0  0  0  0  0
   35.1532    5.8968    7.1366 H   0  0  0  0  0  0
   32.8218    3.6016   10.6053 H   0  0  0  0  0  0
   31.6523    1.1192   11.6640 H   0  0  0  0  0  0
   31.7656    2.1261   13.8767 H   0  0  0  0  0  0
   32.7327    2.9726   12.6218 H   0  0  0  0  0  0
   30.6568    4.4970   12.4267 H   0  0  0  0  0  0
   30.2519    3.8301   14.0447 H   0  0  0  0  0  0
   32.4275    4.5303   14.9341 H   0  0  0  0  0  0
   33.7764    4.1485   12.8357 H   0  0  0  0  0  0
   31.3288    6.8824   13.2793 H   0  0  0  0  0  0
   30.2934    6.1778   16.0663 H   0  0  0  0  0  0
   27.1049    7.2588   14.8712 H   0  0  0  0  0  0
   27.0164    4.8401   14.1341 H   0  0  0  0  0  0
   26.3117    5.0852   15.7681 H   0  0  0  0  0  0
   27.9600    4.3924   15.5956 H   0  0  0  0  0  0
   28.0825    8.5371   17.8010 H   0  0  0  0  0  0
   26.7989    8.4580   16.5469 H   0  0  0  0  0  0
   28.4891    8.8467   16.0789 H   0  0  0  0  0  0
   33.0178    6.6984   15.8368 H   0  0  0  0  0  0
   33.4442    7.5074   14.2907 H   0  0  0  0  0  0
   31.6158    7.7289   17.4354 H   0  0  0  0  0  0
   32.4140    9.7191   13.7142 H   0  0  0  0  0  0
   31.4947   11.8317   14.6582 H   0  0  0  0  0  0
   30.6392   11.8897   16.9972 H   0  0  0  0  0  0
   28.4472   10.7089   20.9804 H   0  0  0  0  0  0
   29.9268    8.9254   22.0897 H   0  0  0  0  0  0
  1  2  1  0  0  0
  1  4  1  0  0  0
  1 43  1  0  0  0
  1 44  1  0  0  0
  2  3  1  0  0  0
  2 45  1  0  0  0
  2 46  1  0  0  0
  3  4  1  0  0  0
  3 47  1  0  0  0
  3 48  1  0  0  0
  4  5  1  0  0  0
  4  6  1  0  0  0
  5 18  1  0  0  0
  5 49  1  0  0  0
  5 50  1  0  0  0
  6  7  1  0  0  0
  7  8  2  0  0  0
  7 17  1  0  0  0
  8  9  1  0  0  0
  9 10  2  0  0  0
  9 51  1  0  0  0
 10 11  1  0  0  0
 10 16  1  0  0  0
 11 12  1  0  0  0
 11 52  1  0  0  0
 11 53  1  0  0  0
 12 13  1  0  0  0
 12 14  1  0  0  0
 12 15  1  0  0  0
 13 54  1  0  0  0
 13 55  1  0  0  0
 13 56  1  0  0  0
 14 57  1  0  0  0
 14 58  1  0  0  0
 14 59  1  0  0  0
 15 60  1  0  0  0
 15 61  1  0  0  0
 15 62  1  0  0  0
 16 17  2  0  0  0
 16 63  1  0  0  0
 17 18  1  0  0  0
 18 19  1  0  0  0
 18 64  1  0  0  0
 19 20  1  0  0  0
 19 65  1  0  0  0
 19 66  1  0  0  0
 20 21  1  0  0  0
 20 67  1  0  0  0
 20 68  1  0  0  0
 21 22  1  0  0  0
 21 23  1  0  0  0
 21 69  1  0  0  0
 22 70  1  0  0  0
 23 24  1  0  0  0
 23 31  1  0  0  0
 23 71  1  0  0  0
 24 25  1  0  0  0
 24 72  1  0  0  0
 25 26  2  0  0  0
 25 27  1  0  0  0
 27 28  1  0  0  0
 27 29  1  0  0  0
 27 73  1  0  0  0
 28 74  1  0  0  0
 28 75  1  0  0  0
 28 76  1  0  0  0
 29 30  1  0  0  0
 30 77  1  0  0  0
 30 78  1  0  0  0
 30 79  1  0  0  0
 31 32  1  0  0  0
 31 80  1  0  0  0
 31 81  1  0  0  0
 32 33  2  0  0  0
 32 34  1  0  0  0
 33 37  1  0  0  0
 33 82  1  0  0  0
 34 35  2  0  0  0
 34 83  1  0  0  0
 35 36  1  0  0  0
 35 84  1  0  0  0
 36 37  2  0  0  0
 36 85  1  0  0  0
 37 38  1  0  0  0
 38 39  2  0  0  0
 38 42  1  0  0  0
 39 40  1  0  0  0
 40 41  2  0  0  0
 40 86  1  0  0  0
 41 42  1  0  0  0
 41 87  1  0  0  0
M  CHG  1  19   1
M  END
> <s_m_source_file>
../4di2_ligand.sdf

> <i_m_source_file_index>
1

> <s_epik_input>
W0NIM11DKFtDSDNdKShbQ0gzXSlbQ0gyXWMoW2NIXTEpW2NIXW5jKE8yKWMxW0NASF0oW0NIMl1DMjNbQ0gyXVtDSDJdW0NIMl0zKVtOSDIrXVtDSDJdW0NAQEhdKFtPSF0pW0NAQEhdKFtOSF1DKD1PKVtDQEBIXShbQ0gzXSlPW0NIM10pW0NIMl1jNFtjSF1jKFtjSF1bY0hdW2NIXTQpLWM1bltjSF1bY0hdczU=

> <s_epik_cmdline>
J2VwaWtfYXBwJywgJy1pbWFlJywgJ2xpZ2FuZF9wcm8ubWFlJywgJy1vbWFlJywgJ2xpZ2FuZF9wcmVwLm1hZScsICctbXMnLCAnMScsICctcGgnLCAnNycsICctcGh0JywgJzAuNScsICctbnQn

> <r_lp_tautomer_probability>
1

> <r_epik_Ionization_Penalty>
  0.0459

> <r_epik_Ionization_Penalty_Charging>
  0.0457

> <r_epik_Ionization_Penalty_Neutral>
  0.0002

> <r_epik_State_Penalty>
  0.0388

> <r_epik_Charging_Adjusted_Penalty>
0.084495992535178

> <i_epik_Tot_Q>
1

> <i_epik_Tot_abs_Q>
1

$$$$
