4dij_ligand
                    3D
 Schrodinger Suite 2020-3.
 68 73  0  0  1  0            999 V2000
   12.7090   -9.0750   18.8870 Cl  0  0  0  0  0  0
   12.0520   -7.6310   18.1510 C   0  0  0  0  0  0
    8.7670   -6.0910   22.2560 Cl  0  0  0  0  0  0
   12.7340   -6.4230   18.3160 C   0  0  0  0  0  0
   12.1610   -5.3010   17.7070 C   0  0  0  0  0  0
   12.5870   -4.0290   17.7100 N   0  0  0  0  0  0
   11.7800   -3.2440   17.0240 C   0  0  3  0  0  0
   10.7620   -3.9760   16.5050 C   0  0  0  0  0  0
   10.9960   -5.3890   16.9740 C   0  0  0  0  0  0
   10.3070   -6.5850   16.7980 C   0  0  0  0  0  0
   10.8650   -7.7180   17.4000 C   0  0  0  0  0  0
    9.5420   -3.6910   15.7060 C   0  0  0  0  0  0
    8.4990   -3.0080   16.1850 N   0  0  0  0  0  0
    7.5430   -2.9440   15.2960 C   0  0  0  0  0  0
    7.8920   -3.5820   14.2700 N   0  0  0  0  0  0
    9.2090   -4.1250   14.4630 C   0  0  0  0  0  0
    9.9100   -4.9320   13.3980 C   0  0  0  0  0  0
   11.3070   -4.9210   13.3500 C   0  0  0  0  0  0
   11.9860   -5.6430   12.3550 C   0  0  0  0  0  0
   11.2530   -6.3720   11.4080 C   0  0  0  0  0  0
    9.8570   -6.3800   11.4430 C   0  0  0  0  0  0
    9.1840   -5.6520   12.4330 C   0  0  0  0  0  0
    8.4020   -2.3500   17.4820 C   0  0  0  0  0  0
    8.4870   -3.3210   18.6600 C   0  0  0  0  0  0
    7.8890   -4.5910   18.6150 C   0  0  0  0  0  0
    7.9810   -5.4480   19.7210 C   0  0  0  0  0  0
    8.6630   -5.0230   20.8690 C   0  0  0  0  0  0
    9.2600   -3.7520   20.9160 C   0  0  0  0  0  0
    9.1770   -2.8980   19.8040 C   0  0  0  0  0  0
   12.0350   -1.8030   16.8540 C   0  0  0  0  0  0
   12.9800   -1.3500   17.4920 O   0  0  0  0  0  0
   11.2970   -1.0570   16.0050 N   0  0  0  0  0  0
   11.5740    0.3650   15.8210 C   0  0  0  0  0  0
   11.4420    0.7060   14.3170 C   0  0  0  0  0  0
   10.0940    0.3220   13.8200 N   0  0  0  0  0  0
   10.0240    0.0680   12.3590 C   0  0  0  0  0  0
    8.6370   -0.5130   11.9940 C   0  0  0  0  0  0
    7.5890    0.3420   12.4850 O   0  0  0  0  0  0
    7.6240    0.5300   13.9140 C   0  0  0  0  0  0
    8.9770    1.1740   14.3090 C   0  0  0  0  0  0
   13.6666   -6.3930   18.8986 H   0  0  0  0  0  0
    9.3728   -6.6711   16.2237 H   0  0  0  0  0  0
   10.3752   -8.6968   17.2901 H   0  0  0  0  0  0
    6.5950   -2.4213   15.4235 H   0  0  0  0  0  0
   11.8713   -4.3501   14.0874 H   0  0  0  0  0  0
   13.0754   -5.6366   12.3193 H   0  0  0  0  0  0
   11.7773   -6.9375   10.6377 H   0  0  0  0  0  0
    9.2938   -6.9497   10.7039 H   0  0  0  0  0  0
    8.0943   -5.6438   12.4551 H   0  0  0  0  0  0
    9.2240   -1.6268   17.5886 H   0  0  0  0  0  0
    7.4388   -1.8237   17.5551 H   0  0  0  0  0  0
    7.3537   -4.9103   17.7208 H   0  0  0  0  0  0
    7.5253   -6.4376   19.6880 H   0  0  0  0  0  0
    9.7867   -3.4292   21.8140 H   0  0  0  0  0  0
    9.6455   -1.9142   19.8306 H   0  0  0  0  0  0
   10.4774   -1.5343   15.4478 H   0  0  0  0  0  0
   10.8527    0.9574   16.4030 H   0  0  0  0  0  0
   12.5944    0.5875   16.1663 H   0  0  0  0  0  0
   11.5847    1.7871   14.1723 H   0  0  0  0  0  0
   12.2058    0.1559   13.7479 H   0  0  0  0  0  0
   10.1777    1.0116   11.8150 H   0  0  0  0  0  0
   10.8061   -0.6511   12.0739 H   0  0  0  0  0  0
    8.5497   -0.5942   10.9005 H   0  0  0  0  0  0
    8.5266   -1.5099   12.4457 H   0  0  0  0  0  0
    6.7980    1.1901   14.2173 H   0  0  0  0  0  0
    7.5180   -0.4437   14.4147 H   0  0  0  0  0  0
    9.0352    1.2619   15.4039 H   0  0  0  0  0  0
    9.0530    2.1737   13.8563 H   0  0  0  0  0  0
  1  2  1  0  0  0
  2  4  2  0  0  0
  2 11  1  0  0  0
  3 27  1  0  0  0
  4  5  1  0  0  0
  4 41  1  0  0  0
  5  6  2  0  0  0
  5  9  1  0  0  0
  6  7  1  0  0  0
  7  8  1  0  0  0
  7 30  1  0  0  0
  8  9  2  0  0  0
  8 12  1  0  0  0
  9 10  1  0  0  0
 10 11  2  0  0  0
 10 42  1  0  0  0
 11 43  1  0  0  0
 12 13  1  0  0  0
 12 16  2  0  0  0
 13 14  1  0  0  0
 13 23  1  0  0  0
 14 15  2  0  0  0
 14 44  1  0  0  0
 15 16  1  0  0  0
 16 17  1  0  0  0
 17 18  2  0  0  0
 17 22  1  0  0  0
 18 19  1  0  0  0
 18 45  1  0  0  0
 19 20  2  0  0  0
 19 46  1  0  0  0
 20 21  1  0  0  0
 20 47  1  0  0  0
 21 22  2  0  0  0
 21 48  1  0  0  0
 22 49  1  0  0  0
 23 24  1  0  0  0
 23 50  1  0  0  0
 23 51  1  0  0  0
 24 25  2  0  0  0
 24 29  1  0  0  0
 25 26  1  0  0  0
 25 52  1  0  0  0
 26 27  2  0  0  0
 26 53  1  0  0  0
 27 28  1  0  0  0
 28 29  2  0  0  0
 28 54  1  0  0  0
 29 55  1  0  0  0
 30 31  2  0  0  0
 30 32  1  0  0  0
 32 33  1  0  0  0
 32 56  1  0  0  0
 33 34  1  0  0  0
 33 57  1  0  0  0
 33 58  1  0  0  0
 34 35  1  0  0  0
 34 59  1  0  0  0
 34 60  1  0  0  0
 35 36  1  0  0  0
 35 40  1  0  0  0
 36 37  1  0  0  0
 36 61  1  0  0  0
 36 62  1  0  0  0
 37 38  1  0  0  0
 37 63  1  0  0  0
 37 64  1  0  0  0
 38 39  1  0  0  0
 39 40  1  0  0  0
 39 65  1  0  0  0
 39 66  1  0  0  0
 40 67  1  0  0  0
 40 68  1  0  0  0
M  END
> <s_m_source_file>
../4dij_ligand.sdf

> <i_m_source_file_index>
1

> <s_epik_input>
W0NIMl0xW0NIMl1PW0NIMl1bQ0gyXVtOSCtdMVtDSDJdW0NIMl1bTkhdQyg9TylbQ0hdKE4yKUMoPWMoYz0yMylbY0hdW2NIXWMoQ2wpW2NIXTMpYzRuKFtDSDJdYzVbY0hdW2NIXWMoQ2wpW2NIXVtjSF01KVtjSF1uYzQtYzZbY0hdW2NIXVtjSF1bY0hdW2NIXTY=

> <s_epik_cmdline>
J2VwaWtfYXBwJywgJy1pbWFlJywgJ2xpZ2FuZF9wcm8ubWFlJywgJy1vbWFlJywgJ2xpZ2FuZF9wcmVwLm1hZScsICctbXMnLCAnMScsICctcGgnLCAnNycsICctcGh0JywgJzAuNScsICctbnQn

> <r_lp_tautomer_probability>
1

> <r_epik_Ionization_Penalty>
  0.2710

> <r_epik_Ionization_Penalty_Charging>
  0.0001

> <r_epik_Ionization_Penalty_Neutral>
  0.2709

> <r_epik_State_Penalty>
 -0.0000

> <r_epik_Charging_Adjusted_Penalty>
5.76067351899219e-05

> <i_epik_Tot_Q>
0

> <i_epik_Tot_abs_Q>
0

> <s_epik_Chemistry_Notes>
This compound has an imine and may undergo hydrolysis.

$$$$
