4dj7_ligand
                    3D
 Schrodinger Suite 2020-3.
 87 89  0  0  1  0            999 V2000
   56.7560  -19.8760   85.2120 C   0  0  0  0  0  0
   56.4630  -20.0570   86.6880 C   0  0  1  0  0  0
   57.7060  -19.4430   87.3420 C   0  0  0  0  0  0
   57.8280  -18.0120   86.8180 C   0  0  1  0  0  0
   56.6230  -17.2300   87.3210 C   0  0  2  0  0  0
   55.4440  -17.8800   86.6040 C   0  0  2  0  0  0
   54.1520  -17.0820   86.7270 C   0  0  1  0  0  0
   52.9380  -17.7810   86.1200 C   0  0  1  0  0  0
   51.7520  -16.8270   86.0490 C   0  0  0  0  0  0
   56.1850  -14.8650   87.7850 C   0  0  0  0  0  0
   55.5080  -15.3010   89.0520 C   0  0  0  0  0  0
   56.7210  -15.8150   87.0170 N   0  0  0  0  0  0
   55.9670  -19.1710   84.5350 O   0  0  0  0  0  0
   57.8260  -20.3570   84.7430 O   0  5  0  0  0  0
   59.0860  -17.4010   87.1040 O   0  0  0  0  0  0
   55.3270  -19.2380   87.0470 O   0  0  0  0  0  0
   53.8850  -16.7930   88.0950 O   0  0  0  0  0  0
   53.2450  -18.2490   84.8050 O   0  0  0  0  0  0
   50.5800  -17.5850   85.7600 O   0  0  0  0  0  0
   56.2490  -13.6820   87.4950 O   0  0  0  0  0  0
   54.5870  -27.7960   91.4350 C   0  0  2  0  0  0
   54.1530  -26.9420   92.6190 C   0  0  1  0  0  0
   54.6220  -25.5000   92.4210 C   0  0  2  0  0  0
   55.6520  -25.3380   91.2910 C   0  0  1  0  0  0
   56.6060  -26.5330   91.1340 C   0  0  1  0  0  0
   57.8530  -26.3930   92.0130 C   0  0  0  0  0  0
   52.0940  -26.9820   93.9570 C   0  0  0  0  0  0
   50.5940  -27.0370   93.9380 C   0  0  0  0  0  0
   52.7070  -27.0000   92.7720 N   0  0  0  0  0  0
   54.1000  -29.1120   91.6000 O   0  0  0  0  0  0
   55.1680  -25.0180   93.6310 O   0  0  0  0  0  0
   55.0400  -25.0340   90.0450 O   0  0  0  0  0  0
   56.0000  -27.7990   91.3660 O   0  0  0  0  0  0
   58.1800  -25.0250   92.1750 O   0  0  0  0  0  0
   52.6960  -26.9140   95.0260 O   0  0  0  0  0  0
   54.9650  -23.6040   89.8270 C   0  0  1  0  0  0
   55.7380  -23.1910   88.5650 C   0  0  1  0  0  0
   55.5590  -21.7070   88.2190 C   0  0  2  0  0  0
   54.0780  -21.3470   88.2910 C   0  0  2  0  0  0
   53.5360  -21.7590   89.6500 C   0  0  1  0  0  0
   52.1060  -21.2740   89.8660 C   0  0  0  0  0  0
   57.1110  -23.4990   88.6970 O   0  0  0  0  0  0
   56.0670  -21.4420   86.9180 O   0  0  0  0  0  0
   53.3900  -22.0780   87.3020 O   0  0  0  0  0  0
   53.6220  -23.1650   89.7350 O   0  0  0  0  0  0
   51.3690  -22.2350   90.5920 O   0  0  0  0  0  0
   57.5849  -19.4470   88.4353 H   0  0  0  0  0  0
   58.5933  -20.0332   87.0692 H   0  0  0  0  0  0
   57.8857  -17.9802   85.7200 H   0  0  0  0  0  0
   56.5338  -17.2178   88.4173 H   0  0  0  0  0  0
   55.6376  -17.9558   85.5238 H   0  0  0  0  0  0
   54.3027  -16.1185   86.2181 H   0  0  0  0  0  0
   52.6851  -18.6756   86.7081 H   0  0  0  0  0  0
   51.6378  -16.3116   87.0140 H   0  0  0  0  0  0
   51.9251  -16.0852   85.2554 H   0  0  0  0  0  0
   55.5539  -16.3970   89.1338 H   0  0  0  0  0  0
   54.4565  -14.9783   89.0357 H   0  0  0  0  0  0
   56.0175  -14.8472   89.9148 H   0  0  0  0  0  0
   57.2574  -15.4818   86.1163 H   0  0  0  0  0  0
   60.0191  -17.8868   86.7826 H   0  0  0  0  0  0
   54.6447  -16.2867   88.7086 H   0  0  0  0  0  0
   54.0771  -18.9520   84.6517 H   0  0  0  0  0  0
   49.6074  -17.0797   85.6661 H   0  0  0  0  0  0
   54.2132  -27.4428   90.4626 H   0  0  0  0  0  0
   54.5665  -27.3456   93.5550 H   0  0  0  0  0  0
   53.7476  -24.8697   92.2014 H   0  0  0  0  0  0
   56.2400  -24.4381   91.5243 H   0  0  0  0  0  0
   56.8693  -26.5910   90.0675 H   0  0  0  0  0  0
   57.6577  -26.8378   92.9999 H   0  0  0  0  0  0
   58.6974  -26.9131   91.5371 H   0  0  0  0  0  0
   50.2424  -27.0947   92.8973 H   0  0  0  0  0  0
   50.1879  -26.1316   94.4126 H   0  0  0  0  0  0
   50.2526  -27.9250   94.4902 H   0  0  0  0  0  0
   52.0619  -27.0623   91.8832 H   0  0  0  0  0  0
   53.0174  -29.2928   91.6725 H   0  0  0  0  0  0
   54.5726  -25.0523   94.5553 H   0  0  0  0  0  0
   59.0521  -24.7359   92.7799 H   0  0  0  0  0  0
   55.3632  -23.1390   90.7409 H   0  0  0  0  0  0
   55.3982  -23.8068   87.7192 H   0  0  0  0  0  0
   56.1549  -21.0623   88.8817 H   0  0  0  0  0  0
   53.9002  -20.2822   88.0799 H   0  0  0  0  0  0
   54.1565  -21.3652   90.4685 H   0  0  0  0  0  0
   52.1203  -20.3299   90.4304 H   0  0  0  0  0  0
   51.6229  -21.1111   88.8913 H   0  0  0  0  0  0
   57.4234  -24.5243   88.9445 H   0  0  0  0  0  0
   53.6323  -21.9287   86.2394 H   0  0  0  0  0  0
   50.3134  -22.0476   90.8381 H   0  0  0  0  0  0
  1  2  1  0  0  0
  1 13  2  0  0  0
  1 14  1  0  0  0
  2  3  1  0  0  0
  2 16  1  0  0  0
  2 43  1  0  0  0
  3  4  1  0  0  0
  3 47  1  0  0  0
  3 48  1  0  0  0
  4  5  1  0  0  0
  4 15  1  0  0  0
  4 49  1  0  0  0
  5  6  1  0  0  0
  5 12  1  0  0  0
  5 50  1  0  0  0
  6  7  1  0  0  0
  6 16  1  0  0  0
  6 51  1  0  0  0
  7  8  1  0  0  0
  7 17  1  0  0  0
  7 52  1  0  0  0
  8  9  1  0  0  0
  8 18  1  0  0  0
  8 53  1  0  0  0
  9 19  1  0  0  0
  9 54  1  0  0  0
  9 55  1  0  0  0
 10 11  1  0  0  0
 10 12  1  0  0  0
 10 20  2  0  0  0
 11 56  1  0  0  0
 11 57  1  0  0  0
 11 58  1  0  0  0
 12 59  1  0  0  0
 15 60  1  0  0  0
 17 61  1  0  0  0
 18 62  1  0  0  0
 19 63  1  0  0  0
 21 22  1  0  0  0
 21 30  1  0  0  0
 21 33  1  0  0  0
 21 64  1  0  0  0
 22 23  1  0  0  0
 22 29  1  0  0  0
 22 65  1  0  0  0
 23 24  1  0  0  0
 23 31  1  0  0  0
 23 66  1  0  0  0
 24 25  1  0  0  0
 24 32  1  0  0  0
 24 67  1  0  0  0
 25 26  1  0  0  0
 25 33  1  0  0  0
 25 68  1  0  0  0
 26 34  1  0  0  0
 26 69  1  0  0  0
 26 70  1  0  0  0
 27 28  1  0  0  0
 27 29  1  0  0  0
 27 35  2  0  0  0
 28 71  1  0  0  0
 28 72  1  0  0  0
 28 73  1  0  0  0
 29 74  1  0  0  0
 30 75  1  0  0  0
 31 76  1  0  0  0
 32 36  1  0  0  0
 34 77  1  0  0  0
 36 37  1  0  0  0
 36 45  1  0  0  0
 36 78  1  0  0  0
 37 38  1  0  0  0
 37 42  1  0  0  0
 37 79  1  0  0  0
 38 39  1  0  0  0
 38 43  1  0  0  0
 38 80  1  0  0  0
 39 40  1  0  0  0
 39 44  1  0  0  0
 39 81  1  0  0  0
 40 41  1  0  0  0
 40 45  1  0  0  0
 40 82  1  0  0  0
 41 46  1  0  0  0
 41 83  1  0  0  0
 41 84  1  0  0  0
 42 85  1  0  0  0
 44 86  1  0  0  0
 46 87  1  0  0  0
M  CHG  1  14  -1
M  END
> <s_m_source_file>
../4dj7_ligand.sdf

> <i_m_source_file_index>
1

> <s_epik_input>
W09IXVtDSDJdW0NAQEhdKFtPSF0pW0NAQEhdKFtPSF0pW0NASF0oTzEpW0NASF0oW05IXUMoPU8pW0NIM10pW0NAQEhdKFtPSF0pW0NIMl1bQ0BAXTEoQyg9TylbT0hdKU9bQ0BASF0oW0NAQEhdKFtPSF0pW0NASF0oTzIpW0NIMl1bT0hdKVtDQEBIXShbT0hdKVtDQEBIXTJPW0NASF0oW0NASF0oTzMpW0NIMl1bT0hdKVtDQEhdKFtPSF0pW0NASF0oW0NAQEhdM1tPSF0pW05IXUMoPU8pW0NIM10=

> <s_epik_cmdline>
J2VwaWtfYXBwJywgJy1pbWFlJywgJ2xpZ2FuZF9wcm8ubWFlJywgJy1vbWFlJywgJ2xpZ2FuZF9wcmVwLm1hZScsICctbXMnLCAnMScsICctcGgnLCAnNycsICctcGh0JywgJzAuNScsICctbnQn

> <r_lp_tautomer_probability>
1

> <r_epik_Ionization_Penalty>
  0.0000

> <r_epik_Ionization_Penalty_Charging>
  0.0000

> <r_epik_Ionization_Penalty_Neutral>
  0.0000

> <r_epik_State_Penalty>
 -0.0000

> <r_epik_Charging_Adjusted_Penalty>
9.89303033913939e-06

> <i_epik_Tot_Q>
-1

> <i_epik_Tot_abs_Q>
1

> <s_epik_Chemistry_Notes>
This compound contains an acetal/aminal-like group ( X-CH(R)-Y where X, Y are N, S, or O) that may be acid/base labile, releasing an aldehyde.

$$$$
