4djh_ligand
                    3D
 Schrodinger Suite 2020-3.
 74 77  0  0  1  0            999 V2000
    3.2120  -20.4100   59.6680 C   0  0  0  0  0  0
    2.9250  -21.7880   59.5580 N   0  0  1  0  0  0
    2.2000  -22.0810   58.3660 C   0  0  2  0  0  0
    0.8340  -21.4170   58.3950 C   0  0  0  0  0  0
    0.9410  -19.9830   58.8450 C   0  0  0  0  0  0
   -0.1620  -19.0560   58.6390 C   0  0  0  0  0  0
   -0.0500  -17.7050   59.0610 C   0  0  0  0  0  0
    1.1110  -17.2580   59.6700 C   0  0  0  0  0  0
    1.2310  -15.9780   60.0740 O   0  0  0  0  0  0
    2.1660  -18.1470   59.8630 C   0  0  0  0  0  0
    2.0500  -19.5400   59.4310 C   0  0  0  0  0  0
    2.1110  -23.5980   58.1900 C   0  0  0  0  0  0
    1.7270  -24.3180   59.1200 O   0  0  0  0  0  0
    2.5030  -24.1780   56.9210 N   0  0  0  0  0  0
    2.4450  -25.5850   56.7110 C   0  0  1  0  0  0
    1.6140  -25.7430   55.4290 C   0  0  0  0  0  0
    0.1930  -25.0530   55.5450 C   0  0  0  0  0  0
    1.5760  -27.1070   54.8640 C   0  0  0  0  0  0
    3.8110  -26.2230   56.5650 C   0  0  0  0  0  0
    4.6780  -26.2930   57.8350 N   0  3  1  0  0  0
    4.0430  -27.0360   58.9030 C   0  0  0  0  0  0
    4.6790  -26.8460   60.2290 C   0  0  2  0  0  0
    4.3120  -25.4010   60.7390 C   0  0  0  0  0  0
    6.1290  -27.0320   60.2020 C   0  0  2  0  0  0
    6.7520  -26.2720   59.1520 C   0  0  0  0  0  0
    6.1150  -26.4610   57.8180 C   0  0  0  0  0  0
    6.4230  -28.4780   59.8440 C   0  0  0  0  0  0
    6.7210  -26.8030   61.5930 C   0  0  0  0  0  0
    6.1110  -27.3820   62.7090 C   0  0  0  0  0  0
    6.6580  -27.1750   63.9920 C   0  0  0  0  0  0
    6.0210  -27.7740   65.1510 O   0  0  0  0  0  0
    7.8390  -26.3720   64.1480 C   0  0  0  0  0  0
    8.4410  -25.8010   63.0380 C   0  0  0  0  0  0
    7.8990  -26.0050   61.7540 C   0  0  0  0  0  0
    3.5813  -20.1921   60.6810 H   0  0  0  0  0  0
    3.9807  -20.1355   58.9306 H   0  0  0  0  0  0
    3.8655  -22.3582   59.5406 H   0  0  0  0  0  0
    2.7767  -21.6386   57.5404 H   0  0  0  0  0  0
    0.3943  -21.4388   57.3869 H   0  0  0  0  0  0
    0.1781  -21.9580   59.0929 H   0  0  0  0  0  0
   -1.0779  -19.4004   58.1587 H   0  0  0  0  0  0
   -0.8809  -17.0169   58.9051 H   0  0  0  0  0  0
    0.3999  -15.2734   59.9231 H   0  0  0  0  0  0
    3.0840  -17.8025   60.3390 H   0  0  0  0  0  0
    2.8489  -23.5153   56.1141 H   0  0  0  0  0  0
    2.0061  -26.0373   57.6126 H   0  0  0  0  0  0
    2.2076  -25.2553   54.6417 H   0  0  0  0  0  0
    0.3082  -24.0460   55.9724 H   0  0  0  0  0  0
   -0.4554  -25.6563   56.1974 H   0  0  0  0  0  0
   -0.2606  -24.9776   54.5457 H   0  0  0  0  0  0
    2.5972  -27.5132   54.8175 H   0  0  0  0  0  0
    1.1486  -27.0725   53.8510 H   0  0  0  0  0  0
    0.9539  -27.7512   55.5027 H   0  0  0  0  0  0
    3.6957  -27.2622   56.2233 H   0  0  0  0  0  0
    4.4026  -25.6586   55.8291 H   0  0  0  0  0  0
    4.7600  -25.2315   58.1114 H   0  0  0  0  0  0
    2.9940  -26.7187   58.9971 H   0  0  0  0  0  0
    4.0817  -28.1114   58.6749 H   0  0  0  0  0  0
    4.3359  -27.6666   60.8761 H   0  0  0  0  0  0
    3.2184  -25.2833   60.7512 H   0  0  0  0  0  0
    4.7540  -24.6514   60.0661 H   0  0  0  0  0  0
    4.7074  -25.2596   61.7557 H   0  0  0  0  0  0
    6.6966  -25.2001   59.3928 H   0  0  0  0  0  0
    7.8059  -26.5726   59.0575 H   0  0  0  0  0  0
    6.3613  -27.4773   57.4768 H   0  0  0  0  0  0
    6.5621  -25.7258   57.1328 H   0  0  0  0  0  0
    6.0164  -28.6986   58.8460 H   0  0  0  0  0  0
    5.9548  -29.1418   60.5857 H   0  0  0  0  0  0
    7.5108  -28.6411   59.8410 H   0  0  0  0  0  0
    5.2155  -27.9915   62.5881 H   0  0  0  0  0  0
    5.1169  -28.3879   65.0258 H   0  0  0  0  0  0
    8.2617  -26.2118   65.1398 H   0  0  0  0  0  0
    9.3369  -25.1920   63.1590 H   0  0  0  0  0  0
    8.3762  -25.5555   60.8832 H   0  0  0  0  0  0
  1  2  1  0  0  0
  1 11  1  0  0  0
  1 35  1  0  0  0
  1 36  1  0  0  0
  2  3  1  0  0  0
  2 37  1  0  0  0
  3  4  1  0  0  0
  3 12  1  0  0  0
  3 38  1  0  0  0
  4  5  1  0  0  0
  4 39  1  0  0  0
  4 40  1  0  0  0
  5  6  2  0  0  0
  5 11  1  0  0  0
  6  7  1  0  0  0
  6 41  1  0  0  0
  7  8  2  0  0  0
  7 42  1  0  0  0
  8  9  1  0  0  0
  8 10  1  0  0  0
  9 43  1  0  0  0
 10 11  2  0  0  0
 10 44  1  0  0  0
 12 13  2  0  0  0
 12 14  1  0  0  0
 14 15  1  0  0  0
 14 45  1  0  0  0
 15 16  1  0  0  0
 15 19  1  0  0  0
 15 46  1  0  0  0
 16 17  1  0  0  0
 16 18  1  0  0  0
 16 47  1  0  0  0
 17 48  1  0  0  0
 17 49  1  0  0  0
 17 50  1  0  0  0
 18 51  1  0  0  0
 18 52  1  0  0  0
 18 53  1  0  0  0
 19 20  1  0  0  0
 19 54  1  0  0  0
 19 55  1  0  0  0
 20 21  1  0  0  0
 20 26  1  0  0  0
 20 56  1  0  0  0
 21 22  1  0  0  0
 21 57  1  0  0  0
 21 58  1  0  0  0
 22 23  1  0  0  0
 22 24  1  0  0  0
 22 59  1  0  0  0
 23 60  1  0  0  0
 23 61  1  0  0  0
 23 62  1  0  0  0
 24 25  1  0  0  0
 24 27  1  0  0  0
 24 28  1  0  0  0
 25 26  1  0  0  0
 25 63  1  0  0  0
 25 64  1  0  0  0
 26 65  1  0  0  0
 26 66  1  0  0  0
 27 67  1  0  0  0
 27 68  1  0  0  0
 27 69  1  0  0  0
 28 29  2  0  0  0
 28 34  1  0  0  0
 29 30  1  0  0  0
 29 70  1  0  0  0
 30 31  1  0  0  0
 30 32  2  0  0  0
 31 71  1  0  0  0
 32 33  1  0  0  0
 32 72  1  0  0  0
 33 34  2  0  0  0
 33 73  1  0  0  0
 34 74  1  0  0  0
M  CHG  1  20   1
M  END
> <s_m_source_file>
../4djh_ligand.sdf

> <i_m_source_file_index>
1

> <s_epik_input>
W2NIXTFbY0hdYyhbT0hdKVtjSF1jKGMxMilbQ0gyXVtOSDIrXVtDQEhdKFtDSDJdMilDKD1PKVtOSF1bQ0BASF0oW0NIXShbQ0gzXSlbQ0gzXSlbQ0gyXVtOQEgrXShbQ0gyXVtDSDJdMylbQ0gyXVtDQEhdKFtDSDNdKVtDQF0zKFtDSDNdKWM0W2NIXWMoW09IXSlbY0hdW2NIXVtjSF00

> <s_epik_cmdline>
J2VwaWtfYXBwJywgJy1pbWFlJywgJ2xpZ2FuZF9wcm8ubWFlJywgJy1vbWFlJywgJ2xpZ2FuZF9wcmVwLm1hZScsICctbXMnLCAnMScsICctcGgnLCAnNycsICctcGh0JywgJzAuNScsICctbnQn

> <r_lp_tautomer_probability>
1

> <r_epik_Ionization_Penalty>
  0.1695

> <r_epik_Ionization_Penalty_Charging>
  0.0041

> <r_epik_Ionization_Penalty_Neutral>
  0.1653

> <r_epik_State_Penalty>
 -0.0000

> <r_epik_Charging_Adjusted_Penalty>
0.00413131583063727

> <i_epik_Tot_Q>
1

> <i_epik_Tot_abs_Q>
1

$$$$
