4djo_ligand
                    3D
 Schrodinger Suite 2020-3.
 77 78  0  0  1  0            999 V2000
   15.4990   36.9610   18.7020 C   0  0  0  0  0  0
   14.9390   35.6570   18.4960 O   0  0  0  0  0  0
   15.6860   34.9120   17.6260 C   0  0  0  0  0  0
   15.4380   33.5480   17.5110 C   0  0  0  0  0  0
   16.1810   32.7710   16.6290 C   0  0  0  0  0  0
   16.6780   35.5010   16.8480 C   0  0  0  0  0  0
   17.4200   34.7230   15.9670 C   0  0  0  0  0  0
   17.1750   33.3580   15.8560 C   0  0  0  0  0  0
   18.1290   32.3780   14.7510 S   0  0  0  0  0  0
   18.6630   33.2640   13.6630 O   0  0  0  0  0  0
   17.2930   31.2880   14.1890 O   0  0  0  0  0  0
   19.4210   31.7040   15.5600 N   0  0  1  0  0  0
   20.0250   32.6110   16.5580 C   0  0  0  0  0  0
   21.3270   33.2380   16.0490 C   0  0  1  0  0  0
   22.1270   33.9280   17.1690 C   0  0  0  0  0  0
   22.1890   32.2090   15.3220 C   0  0  0  0  0  0
   22.9720   32.8770   14.1990 C   0  0  0  0  0  0
   19.0270   30.4390   16.2090 C   0  0  0  0  0  0
   19.9660   29.3410   15.6850 C   0  0  1  0  0  0
   19.9210   28.1890   16.5220 O   0  0  0  0  0  0
   19.6160   28.9540   14.2480 C   0  0  2  0  0  0
   18.2850   28.1880   14.1640 C   0  0  0  0  0  0
   17.9740   27.8330   12.7060 C   0  0  0  0  0  0
   18.1990   26.5400   12.2500 C   0  0  0  0  0  0
   17.9340   26.2050   10.9290 C   0  0  0  0  0  0
   17.4370   27.1690   10.0580 C   0  0  0  0  0  0
   17.2140   28.4640   10.5090 C   0  0  0  0  0  0
   17.4770   28.7910   11.8350 C   0  0  0  0  0  0
   20.6860   28.1170   13.6950 N   0  0  0  0  0  0
   21.6280   28.5490   12.8660 C   0  0  0  0  0  0
   21.7200   29.7060   12.4640 O   0  0  0  0  0  0
   22.5370   27.6300   12.4370 O   0  0  0  0  0  0
   23.5610   28.3010   11.7000 C   0  0  0  0  0  0
   24.3070   27.2780   10.8440 C   0  0  0  0  0  0
   23.3420   26.4320   10.1300 N   0  0  0  0  0  0
   23.2430   25.1370   10.3960 C   0  0  0  0  0  0
   23.9140   24.5800   11.2640 O   0  0  0  0  0  0
   22.2100   24.3460    9.5840 C   0  0  0  0  0  0
   21.5060   25.2740    8.2100 Cl  0  0  0  0  0  0
   20.9000   23.9090   10.7100 Cl  0  0  0  0  0  0
   14.8684   37.5238   19.4060 H   0  0  0  0  0  0
   15.5447   37.4962   17.7421 H   0  0  0  0  0  0
   16.5134   36.8632   19.1159 H   0  0  0  0  0  0
   14.6573   33.0860   18.1153 H   0  0  0  0  0  0
   15.9837   31.7024   16.5442 H   0  0  0  0  0  0
   16.8728   36.5704   16.9293 H   0  0  0  0  0  0
   18.1983   35.1850   15.3596 H   0  0  0  0  0  0
   19.3200   33.4230   16.7895 H   0  0  0  0  0  0
   20.2504   32.0483   17.4759 H   0  0  0  0  0  0
   21.0379   34.0137   15.3247 H   0  0  0  0  0  0
   21.4864   34.6636   17.6775 H   0  0  0  0  0  0
   22.9991   34.4391   16.7352 H   0  0  0  0  0  0
   22.4670   33.1743   17.8945 H   0  0  0  0  0  0
   22.8954   31.7549   16.0325 H   0  0  0  0  0  0
   21.5444   31.4265   14.8952 H   0  0  0  0  0  0
   23.5881   32.1252   13.6841 H   0  0  0  0  0  0
   23.6222   33.6582   14.6197 H   0  0  0  0  0  0
   22.2711   33.3299   13.4824 H   0  0  0  0  0  0
   19.1246   30.5407   17.2999 H   0  0  0  0  0  0
   17.9825   30.2061   15.9545 H   0  0  0  0  0  0
   21.0089   29.6858   15.7444 H   0  0  0  0  0  0
   20.1465   28.2795   17.5948 H   0  0  0  0  0  0
   19.5489   29.8712   13.6445 H   0  0  0  0  0  0
   18.3568   27.2623   14.7539 H   0  0  0  0  0  0
   17.4749   28.8156   14.5638 H   0  0  0  0  0  0
   18.5859   25.7841   12.9335 H   0  0  0  0  0  0
   18.1148   25.1899   10.5755 H   0  0  0  0  0  0
   17.2225   26.9084    9.0216 H   0  0  0  0  0  0
   16.8336   29.2225    9.8248 H   0  0  0  0  0  0
   17.2917   29.8044   12.1911 H   0  0  0  0  0  0
   20.7450   27.0517   13.9628 H   0  0  0  0  0  0
   23.1061   29.0656   11.0532 H   0  0  0  0  0  0
   24.2611   28.7816   12.3992 H   0  0  0  0  0  0
   24.9412   27.8031   10.1146 H   0  0  0  0  0  0
   24.9359   26.6481   11.4902 H   0  0  0  0  0  0
   22.6882   26.8711    9.3620 H   0  0  0  0  0  0
   22.8411   23.5213    9.2212 H   0  0  0  0  0  0
  1  2  1  0  0  0
  1 41  1  0  0  0
  1 42  1  0  0  0
  1 43  1  0  0  0
  2  3  1  0  0  0
  3  4  2  0  0  0
  3  6  1  0  0  0
  4  5  1  0  0  0
  4 44  1  0  0  0
  5  8  2  0  0  0
  5 45  1  0  0  0
  6  7  2  0  0  0
  6 46  1  0  0  0
  7  8  1  0  0  0
  7 47  1  0  0  0
  8  9  1  0  0  0
  9 10  2  0  0  0
  9 11  2  0  0  0
  9 12  1  0  0  0
 12 13  1  0  0  0
 12 18  1  0  0  0
 13 14  1  0  0  0
 13 48  1  0  0  0
 13 49  1  0  0  0
 14 15  1  0  0  0
 14 16  1  0  0  0
 14 50  1  0  0  0
 15 51  1  0  0  0
 15 52  1  0  0  0
 15 53  1  0  0  0
 16 17  1  0  0  0
 16 54  1  0  0  0
 16 55  1  0  0  0
 17 56  1  0  0  0
 17 57  1  0  0  0
 17 58  1  0  0  0
 18 19  1  0  0  0
 18 59  1  0  0  0
 18 60  1  0  0  0
 19 20  1  0  0  0
 19 21  1  0  0  0
 19 61  1  0  0  0
 20 62  1  0  0  0
 21 22  1  0  0  0
 21 29  1  0  0  0
 21 63  1  0  0  0
 22 23  1  0  0  0
 22 64  1  0  0  0
 22 65  1  0  0  0
 23 24  2  0  0  0
 23 28  1  0  0  0
 24 25  1  0  0  0
 24 66  1  0  0  0
 25 26  2  0  0  0
 25 67  1  0  0  0
 26 27  1  0  0  0
 26 68  1  0  0  0
 27 28  2  0  0  0
 27 69  1  0  0  0
 28 70  1  0  0  0
 29 30  1  0  0  0
 29 71  1  0  0  0
 30 31  2  0  0  0
 30 32  1  0  0  0
 32 33  1  0  0  0
 33 34  1  0  0  0
 33 72  1  0  0  0
 33 73  1  0  0  0
 34 35  1  0  0  0
 34 74  1  0  0  0
 34 75  1  0  0  0
 35 36  1  0  0  0
 35 76  1  0  0  0
 36 37  2  0  0  0
 36 38  1  0  0  0
 38 39  1  0  0  0
 38 40  1  0  0  0
 38 77  1  0  0  0
M  END
> <s_m_source_file>
../4djo_ligand.sdf

> <i_m_source_file_index>
1

> <s_epik_input>
W0NIM11PYzFbY0hdW2NIXWMoW2NIXVtjSF0xKVMoPU8pKD1PKU4oW0NIMl1bQ0BASF0oW0NIM10pW0NIMl1bQ0gzXSlbQ0gyXVtDQEBIXShbT0hdKVtDQEhdKFtDSDJdYzJbY0hdW2NIXVtjSF1bY0hdW2NIXTIpW05IXUMoPU8pT1tDSDJdW0NIMl1bTkhdQyg9TylbQ0hdKENsKUNs

> <s_epik_cmdline>
J2VwaWtfYXBwJywgJy1pbWFlJywgJ2xpZ2FuZF9wcm8ubWFlJywgJy1vbWFlJywgJ2xpZ2FuZF9wcmVwLm1hZScsICctbXMnLCAnMScsICctcGgnLCAnNycsICctcGh0JywgJzAuNScsICctbnQn

> <r_lp_tautomer_probability>
1

> <r_epik_Ionization_Penalty>
  0.0000

> <r_epik_Ionization_Penalty_Charging>
  0.0000

> <r_epik_Ionization_Penalty_Neutral>
  0.0000

> <r_epik_State_Penalty>
 -0.0000

> <r_epik_Charging_Adjusted_Penalty>
0

> <i_epik_Tot_Q>
0

> <i_epik_Tot_abs_Q>
0

> <s_epik_Chemistry_Notes>
This compound has an ester and may undergo hydrolysis at high or low pH.

$$$$
