4djp_ligand
                    3D
 Schrodinger Suite 2020-3.
 79 80  0  0  1  0            999 V2000
   20.8290   29.5300   11.8510 O   0  0  0  0  0  0
   21.0400   28.5350   12.5210 C   0  0  0  0  0  0
   21.7910   27.4770   11.9620 O   0  0  0  0  0  0
   22.0280   27.5610   10.5510 C   0  0  0  0  0  0
   22.7890   26.3110   10.1390 C   0  0  2  0  0  0
   21.9370   25.0630   10.2850 C   0  0  0  0  0  0
   24.0200   26.2660   10.9700 C   0  0  0  0  0  0
   24.3350   25.3320   11.6870 O   0  0  0  0  0  0
   24.8710   27.3890   10.9130 O   0  0  0  0  0  0
   26.0620   27.4600   11.7110 C   0  0  0  0  0  0
   20.5700   28.2480   13.7160 N   0  0  0  0  0  0
   19.4860   29.0290   14.3020 C   0  0  1  0  0  0
   18.1920   28.1990   14.2110 C   0  0  0  0  0  0
   17.9070   27.8950   12.7510 C   0  0  0  0  0  0
   17.3260   28.8620   11.9470 C   0  0  0  0  0  0
   17.1310   28.6110   10.5950 C   0  0  0  0  0  0
   17.4910   27.3790   10.0540 C   0  0  0  0  0  0
   18.0610   26.4000   10.8520 C   0  0  0  0  0  0
   18.2660   26.6600   12.2000 C   0  0  0  0  0  0
   19.8820   29.4910   15.7060 C   0  0  2  0  0  0
   19.8470   28.3480   16.5930 O   0  0  0  0  0  0
   18.9640   30.5750   16.3000 C   0  0  0  0  0  0
   19.1430   31.8060   15.5050 N   0  0  2  0  0  0
   19.9520   32.8370   16.2060 C   0  0  0  0  0  0
   21.4550   32.5400   16.1410 C   0  0  1  0  0  0
   21.9510   32.4930   14.6970 C   0  0  0  0  0  0
   22.2050   33.5590   17.0110 C   0  0  0  0  0  0
   22.0170   34.9940   16.5720 C   0  0  0  0  0  0
   17.8340   32.3970   14.7510 S   0  0  0  0  0  0
   18.3480   33.2390   13.6900 O   0  0  0  0  0  0
   17.0480   31.2990   14.3430 O   0  0  0  0  0  0
   16.9430   33.3280   15.7780 C   0  0  0  0  0  0
   17.1450   34.7210   15.9140 C   0  0  0  0  0  0
   16.4470   35.5010   16.8360 C   0  0  0  0  0  0
   15.9830   32.7550   16.6240 C   0  0  0  0  0  0
   15.2980   33.5280   17.5740 C   0  0  0  0  0  0
   15.5220   34.8950   17.6760 C   0  0  0  0  0  0
   14.8160   35.6090   18.6190 O   0  0  0  0  0  0
   15.1220   36.9940   18.8160 C   0  0  0  0  0  0
   21.0661   27.6173   10.0204 H   0  0  0  0  0  0
   22.6209   28.4612   10.3317 H   0  0  0  0  0  0
   23.0806   26.3438    9.0789 H   0  0  0  0  0  0
   21.0435   25.1527    9.6497 H   0  0  0  0  0  0
   21.6303   24.9493   11.3352 H   0  0  0  0  0  0
   22.5199   24.1829    9.9759 H   0  0  0  0  0  0
   26.5771   28.4124   11.5170 H   0  0  0  0  0  0
   26.7276   26.6236   11.4514 H   0  0  0  0  0  0
   25.7939   27.3984   12.7761 H   0  0  0  0  0  0
   21.0056   27.4063   14.2744 H   0  0  0  0  0  0
   19.3369   29.9500   13.7193 H   0  0  0  0  0  0
   18.3188   27.2597   14.7693 H   0  0  0  0  0  0
   17.3578   28.7720   14.6420 H   0  0  0  0  0  0
   17.0226   29.8177   12.3745 H   0  0  0  0  0  0
   16.6955   29.3794    9.9562 H   0  0  0  0  0  0
   17.3231   27.1835    8.9949 H   0  0  0  0  0  0
   18.3449   25.4375   10.4264 H   0  0  0  0  0  0
   18.7111   25.8945   12.8356 H   0  0  0  0  0  0
   20.9067   29.8867   15.6475 H   0  0  0  0  0  0
   20.4375   27.4504   16.3571 H   0  0  0  0  0  0
   17.9182   30.2377   16.2497 H   0  0  0  0  0  0
   19.2409   30.7555   17.3492 H   0  0  0  0  0  0
   19.7781   33.8184   15.7406 H   0  0  0  0  0  0
   19.6579   32.8762   17.2652 H   0  0  0  0  0  0
   21.6582   31.5366   16.5435 H   0  0  0  0  0  0
   21.3722   31.7455   14.1347 H   0  0  0  0  0  0
   23.0159   32.2178   14.6839 H   0  0  0  0  0  0
   21.8220   33.4818   14.2327 H   0  0  0  0  0  0
   21.8494   33.4866   18.0494 H   0  0  0  0  0  0
   23.2837   33.3465   16.9772 H   0  0  0  0  0  0
   22.5823   35.6592   17.2412 H   0  0  0  0  0  0
   20.9488   35.2533   16.6139 H   0  0  0  0  0  0
   22.3831   35.1131   15.5416 H   0  0  0  0  0  0
   17.8783   35.2065   15.2701 H   0  0  0  0  0  0
   16.6257   36.5746   16.8965 H   0  0  0  0  0  0
   15.7648   31.6902   16.5424 H   0  0  0  0  0  0
   14.5807   33.0493   18.2407 H   0  0  0  0  0  0
   14.4689   37.4059   19.5995 H   0  0  0  0  0  0
   14.9589   37.5427   17.8767 H   0  0  0  0  0  0
   16.1732   37.0972   19.1232 H   0  0  0  0  0  0
  1  2  2  0  0  0
  2  3  1  0  0  0
  2 11  1  0  0  0
  3  4  1  0  0  0
  4  5  1  0  0  0
  4 40  1  0  0  0
  4 41  1  0  0  0
  5  6  1  0  0  0
  5  7  1  0  0  0
  5 42  1  0  0  0
  6 43  1  0  0  0
  6 44  1  0  0  0
  6 45  1  0  0  0
  7  8  2  0  0  0
  7  9  1  0  0  0
  9 10  1  0  0  0
 10 46  1  0  0  0
 10 47  1  0  0  0
 10 48  1  0  0  0
 11 12  1  0  0  0
 11 49  1  0  0  0
 12 13  1  0  0  0
 12 20  1  0  0  0
 12 50  1  0  0  0
 13 14  1  0  0  0
 13 51  1  0  0  0
 13 52  1  0  0  0
 14 15  2  0  0  0
 14 19  1  0  0  0
 15 16  1  0  0  0
 15 53  1  0  0  0
 16 17  2  0  0  0
 16 54  1  0  0  0
 17 18  1  0  0  0
 17 55  1  0  0  0
 18 19  2  0  0  0
 18 56  1  0  0  0
 19 57  1  0  0  0
 20 21  1  0  0  0
 20 22  1  0  0  0
 20 58  1  0  0  0
 21 59  1  0  0  0
 22 23  1  0  0  0
 22 60  1  0  0  0
 22 61  1  0  0  0
 23 24  1  0  0  0
 23 29  1  0  0  0
 24 25  1  0  0  0
 24 62  1  0  0  0
 24 63  1  0  0  0
 25 26  1  0  0  0
 25 27  1  0  0  0
 25 64  1  0  0  0
 26 65  1  0  0  0
 26 66  1  0  0  0
 26 67  1  0  0  0
 27 28  1  0  0  0
 27 68  1  0  0  0
 27 69  1  0  0  0
 28 70  1  0  0  0
 28 71  1  0  0  0
 28 72  1  0  0  0
 29 30  2  0  0  0
 29 31  2  0  0  0
 29 32  1  0  0  0
 32 33  2  0  0  0
 32 35  1  0  0  0
 33 34  1  0  0  0
 33 73  1  0  0  0
 34 37  2  0  0  0
 34 74  1  0  0  0
 35 36  2  0  0  0
 35 75  1  0  0  0
 36 37  1  0  0  0
 36 76  1  0  0  0
 37 38  1  0  0  0
 38 39  1  0  0  0
 39 77  1  0  0  0
 39 78  1  0  0  0
 39 79  1  0  0  0
M  END
> <s_m_source_file>
../4djp_ligand.sdf

> <i_m_source_file_index>
1

> <s_epik_input>
W0NIM11PQyg9TylbQ0BASF0oW0NIM10pW0NIMl1PQyg9TylbTkhdW0NAQEhdKFtDSDJdYzFbY0hdW2NIXVtjSF1bY0hdW2NIXTEpW0NASF0oW09IXSlbQ0gyXU4oW0NIMl1bQ0BASF0oW0NIM10pW0NIMl1bQ0gzXSlTKD1PKSg9TyljMltjSF1bY0hdYyhbY0hdW2NIXTIpT1tDSDNd

> <s_epik_cmdline>
J2VwaWtfYXBwJywgJy1pbWFlJywgJ2xpZ2FuZF9wcm8ubWFlJywgJy1vbWFlJywgJ2xpZ2FuZF9wcmVwLm1hZScsICctbXMnLCAnMScsICctcGgnLCAnNycsICctcGh0JywgJzAuNScsICctbnQn

> <r_lp_tautomer_probability>
1

> <r_epik_Ionization_Penalty>
  0.0000

> <r_epik_Ionization_Penalty_Charging>
  0.0000

> <r_epik_Ionization_Penalty_Neutral>
  0.0000

> <r_epik_State_Penalty>
 -0.0000

> <r_epik_Charging_Adjusted_Penalty>
0

> <i_epik_Tot_Q>
0

> <i_epik_Tot_abs_Q>
0

> <s_epik_Chemistry_Notes>
This compound has an ester and may undergo hydrolysis at high or low pH.

$$$$
