4djq_ligand
                    3D
 Schrodinger Suite 2020-3.
 80 82  0  0  1  0            999 V2000
   -8.1590   -2.3030  -14.1170 O   0  0  0  0  0  0
   -7.3710   -3.3730  -14.6280 S   0  0  0  0  0  0
   -6.7960   -4.2250  -13.6000 O   0  0  0  0  0  0
   -8.2690   -4.2950  -15.6490 C   0  0  0  0  0  0
   -9.2550   -3.7150  -16.4510 C   0  0  0  0  0  0
   -9.9880   -4.4930  -17.3600 C   0  0  0  0  0  0
   -8.0450   -5.6690  -15.7850 C   0  0  0  0  0  0
   -8.7710   -6.4470  -16.6910 C   0  0  0  0  0  0
   -9.7520   -5.8520  -17.4840 C   0  0  0  0  0  0
  -10.4760   -6.5740  -18.4060 O   0  0  0  0  0  0
  -10.0910   -7.9340  -18.6570 C   0  0  0  0  0  0
   -6.0830   -2.7400  -15.3950 N   0  0  1  0  0  0
   -5.3110   -3.7560  -16.1620 C   0  0  0  0  0  0
   -3.8070   -3.4620  -16.1810 C   0  0  1  0  0  0
   -3.1840   -3.4540  -14.7870 C   0  0  0  0  0  0
   -3.0910   -4.4400  -17.1290 C   0  0  0  0  0  0
   -3.2490   -5.8830  -16.7340 C   0  0  0  0  0  0
   -6.3600   -1.5050  -16.1660 C   0  0  0  0  0  0
   -5.4540   -0.3950  -15.6030 C   0  0  1  0  0  0
   -5.5240    0.7600  -16.4640 O   0  0  0  0  0  0
   -5.8100    0.0360  -14.1730 C   0  0  2  0  0  0
   -7.1370    0.8010  -14.0470 C   0  0  0  0  0  0
   -7.4020    1.1200  -12.5850 C   0  0  0  0  0  0
   -7.8910    0.1330  -11.7350 C   0  0  0  0  0  0
   -8.1300    0.4240  -10.3920 C   0  0  0  0  0  0
   -7.8780    1.6950   -9.8910 C   0  0  0  0  0  0
   -7.3870    2.6800  -10.7380 C   0  0  0  0  0  0
   -7.1550    2.3960  -12.0810 C   0  0  0  0  0  0
   -4.7520    0.8960  -13.6600 N   0  0  0  0  0  0
   -3.8710    0.5570  -12.7310 C   0  0  0  0  0  0
   -3.7370   -0.5290  -12.2020 O   0  0  0  0  0  0
   -3.0190    1.6460  -12.3160 O   0  0  0  0  0  0
   -2.0510    1.4940  -11.2680 C   0  0  0  0  0  0
   -1.7670    2.8880  -10.7090 C   0  0  0  0  0  0
   -2.9900    3.3650  -10.0260 N   0  0  0  0  0  0
   -2.8470    3.6220   -8.5750 C   0  0  0  0  0  0
   -3.7300    4.4840  -10.5130 C   0  0  0  0  0  0
   -3.7090    4.9140  -11.6540 O   0  0  0  0  0  0
   -4.4530    5.0010   -9.5320 N   0  0  0  0  0  0
   -4.1350    4.3900   -8.2590 C   0  0  0  0  0  0
   -9.4570   -2.6470  -16.3697 H   0  0  0  0  0  0
  -10.7532   -4.0215  -17.9767 H   0  0  0  0  0  0
   -7.2836   -6.1458  -15.1677 H   0  0  0  0  0  0
   -8.5713   -7.5150  -16.7776 H   0  0  0  0  0  0
  -10.7609   -8.3713  -19.4120 H   0  0  0  0  0  0
  -10.1618   -8.5132  -17.7245 H   0  0  0  0  0  0
   -9.0553   -7.9596  -19.0268 H   0  0  0  0  0  0
   -5.4558   -4.7469  -15.7068 H   0  0  0  0  0  0
   -5.6645   -3.7757  -17.2035 H   0  0  0  0  0  0
   -3.6732   -2.4373  -16.5580 H   0  0  0  0  0  0
   -3.7268   -2.7430  -14.1469 H   0  0  0  0  0  0
   -2.1289   -3.1513  -14.8587 H   0  0  0  0  0  0
   -3.2475   -4.4620  -14.3513 H   0  0  0  0  0  0
   -3.4983   -4.3303  -18.1449 H   0  0  0  0  0  0
   -2.0137   -4.2177  -17.1399 H   0  0  0  0  0  0
   -2.7138   -6.5207  -17.4530 H   0  0  0  0  0  0
   -4.3166   -6.1480  -16.7326 H   0  0  0  0  0  0
   -2.8321   -6.0354  -15.7275 H   0  0  0  0  0  0
   -6.1388   -1.6793  -17.2294 H   0  0  0  0  0  0
   -7.4193   -1.2313  -16.0519 H   0  0  0  0  0  0
   -4.4182   -0.7652  -15.6077 H   0  0  0  0  0  0
   -5.3019    0.6606  -17.5368 H   0  0  0  0  0  0
   -5.8767   -0.8793  -13.5666 H   0  0  0  0  0  0
   -7.0764    1.7373  -14.6211 H   0  0  0  0  0  0
   -7.9562    0.1816  -14.4411 H   0  0  0  0  0  0
   -8.0874   -0.8681  -12.1188 H   0  0  0  0  0  0
   -8.5172   -0.3513   -9.7309 H   0  0  0  0  0  0
   -8.0644    1.9176   -8.8404 H   0  0  0  0  0  0
   -7.1828    3.6780  -10.3503 H   0  0  0  0  0  0
   -6.7780    3.1761  -12.7424 H   0  0  0  0  0  0
   -4.6384    1.9192  -14.0476 H   0  0  0  0  0  0
   -2.4589    0.8387  -10.4843 H   0  0  0  0  0  0
   -1.1333    1.0474  -11.6784 H   0  0  0  0  0  0
   -0.9307    2.8339   -9.9965 H   0  0  0  0  0  0
   -1.5031    3.5669  -11.5333 H   0  0  0  0  0  0
   -2.7735    2.6645   -8.0386 H   0  0  0  0  0  0
   -1.9373    4.2137   -8.3953 H   0  0  0  0  0  0
   -5.2157    5.7917   -9.5873 H   0  0  0  0  0  0
   -4.9077    3.6853   -7.9179 H   0  0  0  0  0  0
   -3.9370    5.1282   -7.4679 H   0  0  0  0  0  0
  1  2  2  0  0  0
  2  3  2  0  0  0
  2  4  1  0  0  0
  2 12  1  0  0  0
  4  5  2  0  0  0
  4  7  1  0  0  0
  5  6  1  0  0  0
  5 41  1  0  0  0
  6  9  2  0  0  0
  6 42  1  0  0  0
  7  8  2  0  0  0
  7 43  1  0  0  0
  8  9  1  0  0  0
  8 44  1  0  0  0
  9 10  1  0  0  0
 10 11  1  0  0  0
 11 45  1  0  0  0
 11 46  1  0  0  0
 11 47  1  0  0  0
 12 13  1  0  0  0
 12 18  1  0  0  0
 13 14  1  0  0  0
 13 48  1  0  0  0
 13 49  1  0  0  0
 14 15  1  0  0  0
 14 16  1  0  0  0
 14 50  1  0  0  0
 15 51  1  0  0  0
 15 52  1  0  0  0
 15 53  1  0  0  0
 16 17  1  0  0  0
 16 54  1  0  0  0
 16 55  1  0  0  0
 17 56  1  0  0  0
 17 57  1  0  0  0
 17 58  1  0  0  0
 18 19  1  0  0  0
 18 59  1  0  0  0
 18 60  1  0  0  0
 19 20  1  0  0  0
 19 21  1  0  0  0
 19 61  1  0  0  0
 20 62  1  0  0  0
 21 22  1  0  0  0
 21 29  1  0  0  0
 21 63  1  0  0  0
 22 23  1  0  0  0
 22 64  1  0  0  0
 22 65  1  0  0  0
 23 24  2  0  0  0
 23 28  1  0  0  0
 24 25  1  0  0  0
 24 66  1  0  0  0
 25 26  2  0  0  0
 25 67  1  0  0  0
 26 27  1  0  0  0
 26 68  1  0  0  0
 27 28  2  0  0  0
 27 69  1  0  0  0
 28 70  1  0  0  0
 29 30  1  0  0  0
 29 71  1  0  0  0
 30 31  2  0  0  0
 30 32  1  0  0  0
 32 33  1  0  0  0
 33 34  1  0  0  0
 33 72  1  0  0  0
 33 73  1  0  0  0
 34 35  1  0  0  0
 34 74  1  0  0  0
 34 75  1  0  0  0
 35 36  1  0  0  0
 35 37  1  0  0  0
 36 40  1  0  0  0
 36 76  1  0  0  0
 36 77  1  0  0  0
 37 38  2  0  0  0
 37 39  1  0  0  0
 39 40  1  0  0  0
 39 78  1  0  0  0
 40 79  1  0  0  0
 40 80  1  0  0  0
M  END
> <s_m_source_file>
../4djq_ligand.sdf

> <i_m_source_file_index>
1

> <s_epik_input>
W2NIXTFbY0hdYyhPW0NIM10pW2NIXVtjSF1jMVMoPU8pKD1PKU4oW0NIMl1bQ0BASF0oW0NIM10pW0NIMl1bQ0gzXSlbQ0gyXVtDQEBIXShbT0hdKVtDQEhdKFtDSDJdYzJbY0hdW2NIXVtjSF1bY0hdW2NIXTIpW05IXUMoPU8pT1tDSDJdW0NIMl1OM1tDSDJdW0NIMl1bTkhdQzM9Tw==

> <s_epik_cmdline>
J2VwaWtfYXBwJywgJy1pbWFlJywgJ2xpZ2FuZF9wcm8ubWFlJywgJy1vbWFlJywgJ2xpZ2FuZF9wcmVwLm1hZScsICctbXMnLCAnMScsICctcGgnLCAnNycsICctcGh0JywgJzAuNScsICctbnQn

> <r_lp_tautomer_probability>
1

> <r_epik_Ionization_Penalty>
  0.0001

> <r_epik_Ionization_Penalty_Charging>
  0.0000

> <r_epik_Ionization_Penalty_Neutral>
  0.0001

> <r_epik_State_Penalty>
 -0.0000

> <r_epik_Charging_Adjusted_Penalty>
0

> <i_epik_Tot_Q>
0

> <i_epik_Tot_abs_Q>
0

> <s_epik_Chemistry_Notes>
This compound has an ester and may undergo hydrolysis at high or low pH.

$$$$
