4djs_ligand
                    3D
 Schrodinger Suite 2020-3.
287293  0  0  1  0            999 V2000
  -25.6920   -0.5290  -67.7040 N   0  3  0  0  0  0
  -24.5440   -0.0180  -66.9660 C   0  0  2  0  0  0
  -23.9590    1.2140  -67.6480 C   0  0  0  0  0  0
  -22.8070    1.2070  -68.0820 O   0  0  0  0  0  0
  -23.4750   -1.1030  -66.8250 C   0  0  0  0  0  0
  -23.7690   -2.3670  -67.6180 C   0  0  0  0  0  0
  -22.6190   -3.3560  -67.5280 C   0  0  0  0  0  0
  -21.4020   -2.8330  -68.1410 N   0  0  0  0  0  0
  -20.2400   -3.4770  -68.1670 C   0  0  0  0  0  0
  -19.1850   -2.9220  -68.7490 N   0  0  0  0  0  0
  -20.1290   -4.6750  -67.6100 N   0  0  0  0  0  0
  -24.7600    2.2710  -67.7380 N   0  0  0  0  0  0
  -24.3300    3.5070  -68.3840 C   0  0  2  0  0  0
  -24.7860    4.7380  -67.6050 C   0  0  0  0  0  0
  -25.9080    4.7800  -67.1000 O   0  0  0  0  0  0
  -24.8550    3.5720  -69.8210 C   0  0  0  0  0  0
  -24.5690    4.8740  -70.5070 C   0  0  0  0  0  0
  -25.3750    5.9760  -70.5430 C   0  0  0  0  0  0
  -23.3930    5.2130  -71.2540 C   0  0  0  0  0  0
  -24.7740    6.9780  -71.2650 N   0  0  0  0  0  0
  -23.5570    6.5360  -71.7130 C   0  0  0  0  0  0
  -22.2180    4.5270  -71.5790 C   0  0  0  0  0  0
  -22.5910    7.1860  -72.4800 C   0  0  0  0  0  0
  -21.2600    5.1750  -72.3410 C   0  0  0  0  0  0
  -21.4530    6.4910  -72.7830 C   0  0  0  0  0  0
  -23.9120    5.7520  -67.5120 N   0  0  0  0  0  0
  -22.5620    5.7410  -68.0830 C   0  0  2  0  0  0
  -21.5640    5.1280  -67.1100 C   0  0  0  0  0  0
  -20.3620    5.3590  -67.2250 O   0  0  0  0  0  0
  -22.2460    7.2340  -68.2670 C   0  0  0  0  0  0
  -23.5070    7.9850  -67.8690 C   0  0  0  0  0  0
  -24.2490    7.0700  -66.9590 C   0  0  0  0  0  0
  -22.0700    4.3490  -66.1610 N   0  0  0  0  0  0
  -21.2480    3.7930  -65.0950 C   0  0  2  0  0  0
  -20.0380    3.0330  -65.6280 C   0  0  0  0  0  0
  -19.0680    2.8180  -64.8960 O   0  0  0  0  0  0
  -22.0940    2.8830  -64.2020 C   0  0  0  0  0  0
  -23.5580    3.2950  -64.1080 C   0  0  0  0  0  0
  -23.7350    4.7440  -63.7010 C   0  0  0  0  0  0
  -22.8600    5.3340  -63.0670 O   0  0  0  0  0  0
  -24.8690    5.3280  -64.0710 N   0  0  0  0  0  0
  -18.0070    2.3070  -67.5250 C   0  0  0  0  0  0
  -20.2840    2.5590  -66.8880 N   0  0  0  0  0  0
  -17.0420    1.4760  -67.0160 O   0  0  0  0  0  0
  -19.3680    1.7290  -67.6370 C   0  0  1  0  0  0
  -19.7790    1.6770  -69.0820 C   0  0  0  0  0  0
  -17.6770    1.0010  -70.4470 C   0  0  0  0  0  0
  -16.8500   -0.1220  -70.9860 C   0  0  0  0  0  0
  -19.0870    0.7360  -70.0180 C   0  0  0  0  0  0
  -19.3340    0.3520  -67.0460 C   0  0  0  0  0  0
  -18.0260    3.5810  -67.7900 N   0  0  0  0  0  0
  -16.8080    4.3570  -67.9630 C   0  0  2  0  0  0
  -15.9100    4.2550  -66.7360 C   0  0  0  0  0  0
  -14.6880    4.1590  -66.8530 O   0  0  0  0  0  0
  -17.1200    5.8300  -68.2200 C   0  0  2  0  0  0
  -17.9470    5.9810  -69.4990 C   0  0  0  0  0  0
  -15.8320    6.6300  -68.3260 C   0  0  0  0  0  0
  -18.3630    7.3990  -69.7950 C   0  0  0  0  0  0
  -16.5240    4.2940  -65.5590 N   0  0  0  0  0  0
  -15.7830    4.2280  -64.3060 C   0  0  2  0  0  0
  -15.3060    2.8090  -64.0220 C   0  0  0  0  0  0
  -14.1930    2.5990  -63.5370 O   0  0  0  0  0  0
  -16.6530    4.7230  -63.1490 C   0  0  0  0  0  0
  -17.2180    6.1390  -63.2780 C   0  0  0  0  0  0
  -18.2670    6.4190  -62.2110 C   0  0  0  0  0  0
  -16.1030    7.1700  -63.2210 C   0  0  0  0  0  0
  -16.1620    1.8400  -64.3240 N   0  0  0  0  0  0
  -15.8650    0.4410  -64.0700 C   0  0  2  0  0  0
  -14.6810   -0.0240  -64.8930 C   0  0  0  0  0  0
  -13.7120   -0.5310  -64.3350 O   0  0  0  0  0  0
  -17.0830   -0.4250  -64.3720 C   0  0  0  0  0  0
  -18.2280   -0.1580  -63.4260 C   0  0  0  0  0  0
  -18.3460    0.9890  -62.9450 O   0  0  0  0  0  0
  -19.0040   -1.0990  -63.1580 O   0  0  0  0  0  0
  -12.2930    0.5370  -66.5500 C   0  0  0  0  0  0
  -14.6180    0.1530  -66.2200 N   0  0  0  0  0  0
  -11.0690    0.1720  -67.0370 O   0  0  0  0  0  0
  -13.4660   -0.2530  -66.9820 C   0  0  1  0  0  0
  -13.6970   -0.0540  -68.4420 C   0  0  0  0  0  0
  -14.5460    1.0600  -70.4680 C   0  0  0  0  0  0
  -15.4680    0.0960  -71.1230 C   0  0  0  0  0  0
  -14.5430    1.0450  -68.9830 C   0  0  0  0  0  0
  -13.1840   -1.6870  -66.7040 C   0  0  0  0  0  0
  -12.3740    1.6860  -66.0390 N   0  0  0  0  0  0
  -11.2270    2.4470  -65.5860 C   0  0  2  0  0  0
  -10.6620    1.8660  -64.2900 C   0  0  0  0  0  0
   -9.4500    1.6820  -64.1530 O   0  0  0  0  0  0
  -11.6460    3.9020  -65.3950 C   0  0  0  0  0  0
  -10.6040    4.7480  -64.7410 C   0  0  0  0  0  0
   -9.3630    4.9640  -65.3010 N   0  0  0  0  0  0
  -10.6120    5.4270  -63.5700 C   0  0  0  0  0  0
   -8.6510    5.7380  -64.5020 C   0  0  0  0  0  0
   -9.3840    6.0320  -63.4440 N   0  0  0  0  0  0
  -11.5480    1.5940  -63.3370 N   0  0  0  0  0  0
  -11.1520    0.9920  -62.0730 C   0  0  2  0  0  0
  -10.3270   -0.2640  -62.3260 C   0  0  0  0  0  0
   -9.2600   -0.4420  -61.7420 O   0  0  0  0  0  0
  -12.3750    0.6340  -61.2060 C   0  0  0  0  0  0
  -11.9440   -0.1660  -59.9880 C   0  0  0  0  0  0
  -13.1160    1.8950  -60.7880 C   0  0  0  0  0  0
  -10.8230   -1.1270  -63.2060 N   0  0  0  0  0  0
  -10.1150   -2.3520  -63.5520 C   0  0  2  0  0  0
   -8.7090   -2.0350  -64.0510 C   0  0  0  0  0  0
   -7.7450   -2.6990  -63.6770 O   0  0  0  0  0  0
  -10.8850   -3.1310  -64.6190 C   0  0  0  0  0  0
  -12.3090   -3.4940  -64.2260 C   0  0  0  0  0  0
  -12.3610   -4.6480  -63.2430 C   0  0  0  0  0  0
  -13.7400   -5.0040  -62.9190 N   0  0  0  0  0  0
  -14.4920   -5.8190  -63.6500 C   0  0  0  0  0  0
  -14.0000   -6.3680  -64.7520 N   0  0  0  0  0  0
  -15.7380   -6.0850  -63.2810 N   0  0  0  0  0  0
   -8.6030   -1.0120  -64.8950 N   0  0  0  0  0  0
   -7.3200   -0.5980  -65.4560 C   0  0  2  0  0  0
   -6.3120   -0.2080  -64.3760 C   0  0  0  0  0  0
   -5.1100   -0.4230  -64.5300 O   0  0  0  0  0  0
   -7.5180    0.5710  -66.4270 C   0  0  0  0  0  0
   -8.0260    0.1730  -67.8090 C   0  0  0  0  0  0
   -8.8260    1.3010  -68.4580 C   0  0  0  0  0  0
   -8.1800    2.6040  -68.3250 N   0  0  0  0  0  0
   -8.7780    3.7640  -68.5880 C   0  0  0  0  0  0
  -10.0400    3.7840  -68.9950 N   0  0  0  0  0  0
   -8.1160    4.9040  -68.4390 N   0  0  0  0  0  0
   -6.8070    0.3640  -63.2830 N   0  0  0  0  0  0
   -5.9370    0.8990  -62.2400 C   0  0  2  0  0  0
   -5.9190    0.0390  -60.9780 C   0  0  0  0  0  0
   -4.9190   -0.6090  -60.6740 O   0  0  0  0  0  0
   -6.3420    2.3340  -61.8600 C   0  0  0  0  0  0
   -5.4430    2.8620  -60.7560 C   0  0  0  0  0  0
   -6.2880    3.2370  -63.0810 C   0  0  0  0  0  0
   -7.0240    0.0470  -60.2420 N   0  0  0  0  0  0
   -7.1190   -0.7160  -59.0030 C   0  0  2  0  0  0
   -7.2280   -2.2110  -59.2830 C   0  0  0  0  0  0
   -6.9424   -3.0596  -58.3965 O   0  0  0  0  0  0
   -8.3120   -0.2440  -58.1670 C   0  0  0  0  0  0
   -8.3310    1.2350  -57.9390 C   0  0  0  0  0  0
   -9.3600    2.0930  -58.1970 C   0  0  0  0  0  0
   -7.2610    2.0350  -57.4230 C   0  0  0  0  0  0
   -9.0010    3.3770  -57.8640 N   0  0  0  0  0  0
   -7.7170    3.3680  -57.3880 C   0  0  0  0  0  0
   -5.9640    1.7530  -56.9850 C   0  0  0  0  0  0
   -6.9210    4.4160  -56.9320 C   0  0  0  0  0  0
   -5.1760    2.7940  -56.5330 C   0  0  0  0  0  0
   -5.6560    4.1090  -56.5110 C   0  0  0  0  0  0
   -7.6094   -2.6036  -60.4179 O   0  0  0  0  0  0
  -26.4503    0.2625  -67.7964 H   0  0  0  0  0  0
  -26.1213   -1.3871  -67.1661 H   0  0  0  0  0  0
  -25.3709   -0.8480  -68.7066 H   0  0  0  0  0  0
  -24.9352    0.2634  -65.9772 H   0  0  0  0  0  0
  -22.5090   -0.7143  -67.1797 H   0  0  0  0  0  0
  -23.3867   -1.3957  -65.7683 H   0  0  0  0  0  0
  -24.6751   -2.8472  -67.2199 H   0  0  0  0  0  0
  -23.9257   -2.1083  -68.6756 H   0  0  0  0  0  0
  -22.4057   -3.5751  -66.4714 H   0  0  0  0  0  0
  -22.8938   -4.2861  -68.0470 H   0  0  0  0  0  0
  -21.4099   -1.8440  -68.6225 H   0  0  0  0  0  0
  -19.2719   -1.9282  -69.2125 H   0  0  0  0  0  0
  -18.2233   -3.4556  -68.7681 H   0  0  0  0  0  0
  -21.0009   -5.1395  -67.1262 H   0  0  0  0  0  0
  -25.7705    2.1970  -67.3097 H   0  0  0  0  0  0
  -23.2310    3.4603  -68.3747 H   0  0  0  0  0  0
  -24.3865    2.7763  -70.4188 H   0  0  0  0  0  0
  -25.9464    3.4349  -69.8192 H   0  0  0  0  0  0
  -26.3532    6.0496  -70.0678 H   0  0  0  0  0  0
  -22.0596    3.5034  -71.2395 H   0  0  0  0  0  0
  -22.7374    8.2095  -72.8251 H   0  0  0  0  0  0
  -20.3397    4.6523  -72.6016 H   0  0  0  0  0  0
  -20.6788    6.9711  -73.3815 H   0  0  0  0  0  0
  -22.5376    5.1383  -69.0029 H   0  0  0  0  0  0
  -21.3992    7.5117  -67.6222 H   0  0  0  0  0  0
  -21.9851    7.4268  -69.3181 H   0  0  0  0  0  0
  -23.2314    8.9200  -67.3592 H   0  0  0  0  0  0
  -24.0947    8.2177  -68.7692 H   0  0  0  0  0  0
  -25.3387    7.2153  -66.9958 H   0  0  0  0  0  0
  -23.9064    7.1283  -65.9154 H   0  0  0  0  0  0
  -23.1468    4.1275  -66.1976 H   0  0  0  0  0  0
  -20.8871    4.6707  -64.5388 H   0  0  0  0  0  0
  -22.0702    1.8567  -64.5971 H   0  0  0  0  0  0
  -21.6878    2.8919  -63.1798 H   0  0  0  0  0  0
  -24.0406    3.1596  -65.0872 H   0  0  0  0  0  0
  -24.0672    2.6709  -63.3589 H   0  0  0  0  0  0
  -25.6215    4.7591  -64.6368 H   0  0  0  0  0  0
  -25.0557    6.3805  -63.8116 H   0  0  0  0  0  0
  -21.2500    2.8477  -67.3280 H   0  0  0  0  0  0
  -20.8394    1.3929  -69.1516 H   0  0  0  0  0  0
  -19.6337    2.6663  -69.5404 H   0  0  0  0  0  0
  -17.1933    1.4147  -69.5498 H   0  0  0  0  0  0
  -17.7686    1.7880  -71.2101 H   0  0  0  0  0  0
  -17.2848   -1.0913  -71.2713 H   0  0  0  0  0  0
  -19.0407   -0.2648  -69.5639 H   0  0  0  0  0  0
  -19.6451    0.6837  -70.9645 H   0  0  0  0  0  0
  -19.0314    0.4135  -65.9902 H   0  0  0  0  0  0
  -18.6118   -0.2666  -67.5990 H   0  0  0  0  0  0
  -20.3338   -0.1014  -67.1151 H   0  0  0  0  0  0
  -19.0072    4.0696  -67.8824 H   0  0  0  0  0  0
  -16.3236    3.9010  -68.8390 H   0  0  0  0  0  0
  -17.7009    6.2223  -67.3723 H   0  0  0  0  0  0
  -17.3593    5.6284  -70.3594 H   0  0  0  0  0  0
  -18.8667    5.3836  -69.4137 H   0  0  0  0  0  0
  -15.2495    6.5114  -67.4004 H   0  0  0  0  0  0
  -16.0719    7.6932  -68.4746 H   0  0  0  0  0  0
  -15.2425    6.2643  -69.1796 H   0  0  0  0  0  0
  -18.9502    7.4223  -70.7249 H   0  0  0  0  0  0
  -17.4675    8.0272  -69.9110 H   0  0  0  0  0  0
  -18.9749    7.7824  -68.9652 H   0  0  0  0  0  0
  -17.6207    4.3785  -65.5456 H   0  0  0  0  0  0
  -14.9134    4.8860  -64.4502 H   0  0  0  0  0  0
  -17.5240    4.0608  -63.0358 H   0  0  0  0  0  0
  -16.0649    4.7174  -62.2195 H   0  0  0  0  0  0
  -17.7114    6.2211  -64.2577 H   0  0  0  0  0  0
  -19.0625    5.6616  -62.2712 H   0  0  0  0  0  0
  -18.6984    7.4177  -62.3741 H   0  0  0  0  0  0
  -17.7981    6.3800  -61.2167 H   0  0  0  0  0  0
  -15.3582    6.9480  -63.9994 H   0  0  0  0  0  0
  -15.6218    7.1353  -62.2325 H   0  0  0  0  0  0
  -16.5220    8.1729  -63.3899 H   0  0  0  0  0  0
  -17.1216    2.1245  -64.7804 H   0  0  0  0  0  0
  -15.6086    0.3883  -63.0016 H   0  0  0  0  0  0
  -17.4331   -0.2214  -65.3947 H   0  0  0  0  0  0
  -16.8093   -1.4867  -64.2826 H   0  0  0  0  0  0
  -19.1709    1.2129  -62.2526 H   0  0  0  0  0  0
  -15.4750    0.6213  -66.7261 H   0  0  0  0  0  0
  -13.2107   -0.7626  -69.1285 H   0  0  0  0  0  0
  -13.5125    0.8483  -70.7794 H   0  0  0  0  0  0
  -14.8156    2.0845  -70.7643 H   0  0  0  0  0  0
  -14.8814   -0.5162  -71.8238 H   0  0  0  0  0  0
  -15.0704    1.7225  -68.2954 H   0  0  0  0  0  0
  -13.0149   -1.8251  -65.6259 H   0  0  0  0  0  0
  -12.2866   -1.9984  -67.2588 H   0  0  0  0  0  0
  -14.0419   -2.2977  -67.0218 H   0  0  0  0  0  0
  -13.3857    2.1076  -65.9452 H   0  0  0  0  0  0
  -10.4642    2.3609  -66.3739 H   0  0  0  0  0  0
  -11.8646    4.3522  -66.3746 H   0  0  0  0  0  0
  -12.5453    3.9447  -64.7629 H   0  0  0  0  0  0
  -11.3717    5.5557  -62.7849 H   0  0  0  0  0  0
   -7.6312    6.0766  -64.6850 H   0  0  0  0  0  0
  -12.6046    1.8362  -63.5237 H   0  0  0  0  0  0
  -10.5460    1.7644  -61.5769 H   0  0  0  0  0  0
  -13.0687    0.0117  -61.7903 H   0  0  0  0  0  0
  -11.4112   -1.0715  -60.3138 H   0  0  0  0  0  0
  -12.8315   -0.4526  -59.4048 H   0  0  0  0  0  0
  -11.2773    0.4471  -59.3638 H   0  0  0  0  0  0
  -13.4177    2.4570  -61.6841 H   0  0  0  0  0  0
  -12.4559    2.5197  -60.1683 H   0  0  0  0  0  0
  -14.0101    1.6200  -60.2093 H   0  0  0  0  0  0
  -11.7908   -0.8995  -63.6766 H   0  0  0  0  0  0
  -10.0600   -2.9345  -62.6205 H   0  0  0  0  0  0
  -10.9490   -2.5293  -65.5376 H   0  0  0  0  0  0
  -10.3611   -4.0740  -64.8341 H   0  0  0  0  0  0
  -12.7924   -2.6250  -63.7556 H   0  0  0  0  0  0
  -12.8738   -3.7865  -65.1234 H   0  0  0  0  0  0
  -11.8658   -5.5265  -63.6823 H   0  0  0  0  0  0
  -11.8449   -4.3623  -62.3145 H   0  0  0  0  0  0
  -14.2183   -4.5891  -62.0195 H   0  0  0  0  0  0
  -12.9672   -6.1498  -65.0613 H   0  0  0  0  0  0
  -16.1498   -5.6314  -62.3674 H   0  0  0  0  0  0
  -16.3595   -6.7591  -63.8886 H   0  0  0  0  0  0
   -9.5221   -0.4726  -65.1675 H   0  0  0  0  0  0
   -6.9506   -1.4923  -65.9793 H   0  0  0  0  0  0
   -8.2529    1.2746  -66.0088 H   0  0  0  0  0  0
   -6.5593    1.0888  -66.5778 H   0  0  0  0  0  0
   -7.1714   -0.0661  -68.4589 H   0  0  0  0  0  0
   -8.6772   -0.7091  -67.7203 H   0  0  0  0  0  0
   -8.9464    1.0944  -69.5317 H   0  0  0  0  0  0
   -9.8165    1.3678  -67.9841 H   0  0  0  0  0  0
   -7.1346    2.6678  -67.9889 H   0  0  0  0  0  0
  -10.5926    2.8411  -69.1199 H   0  0  0  0  0  0
   -7.0691    4.8920  -68.1016 H   0  0  0  0  0  0
   -8.6140    5.8612  -68.6528 H   0  0  0  0  0  0
   -7.8997    0.4291  -63.1747 H   0  0  0  0  0  0
   -4.9444    0.8674  -62.7130 H   0  0  0  0  0  0
   -7.3750    2.3370  -61.4819 H   0  0  0  0  0  0
   -5.4997    2.1923  -59.8852 H   0  0  0  0  0  0
   -5.7730    3.8702  -60.4652 H   0  0  0  0  0  0
   -4.4052    2.9060  -61.1179 H   0  0  0  0  0  0
   -6.9462    2.8337  -63.8647 H   0  0  0  0  0  0
   -5.2554    3.2833  -63.4574 H   0  0  0  0  0  0
   -6.6233    4.2476  -62.8047 H   0  0  0  0  0  0
   -7.8798    0.6466  -60.5856 H   0  0  0  0  0  0
   -6.1780   -0.5133  -58.4705 H   0  0  0  0  0  0
   -9.2477   -0.5108  -58.6801 H   0  0  0  0  0  0
   -8.2835   -0.7296  -57.1804 H   0  0  0  0  0  0
  -10.3268    1.8021  -58.6078 H   0  0  0  0  0  0
   -5.5819    0.7323  -56.9997 H   0  0  0  0  0  0
   -7.2915    5.4409  -56.9114 H   0  0  0  0  0  0
   -4.1630    2.5879  -56.1875 H   0  0  0  0  0  0
   -5.0068    4.9067  -56.1501 H   0  0  0  0  0  0
   -7.6909   -3.6801  -60.6287 H   0  0  0  0  0  0
  1  2  1  0  0  0
  1145  1  0  0  0
  1146  1  0  0  0
  1147  1  0  0  0
  2  3  1  0  0  0
  2  5  1  0  0  0
  2148  1  0  0  0
  3  4  2  0  0  0
  3 12  1  0  0  0
  5  6  1  0  0  0
  5149  1  0  0  0
  5150  1  0  0  0
  6  7  1  0  0  0
  6151  1  0  0  0
  6152  1  0  0  0
  7  8  1  0  0  0
  7153  1  0  0  0
  7154  1  0  0  0
  8  9  1  0  0  0
  8155  1  0  0  0
  9 10  1  0  0  0
  9 11  2  0  0  0
 10156  1  0  0  0
 10157  1  0  0  0
 11158  1  0  0  0
 12 13  1  0  0  0
 12159  1  0  0  0
 13 14  1  0  0  0
 13 16  1  0  0  0
 13160  1  0  0  0
 14 15  2  0  0  0
 14 26  1  0  0  0
 16 17  1  0  0  0
 16161  1  0  0  0
 16162  1  0  0  0
 17 18  2  0  0  0
 17 19  1  0  0  0
 18 20  1  0  0  0
 18163  1  0  0  0
 19 21  2  0  0  0
 19 22  1  0  0  0
 20 21  1  0  0  0
 21 23  1  0  0  0
 22 24  2  0  0  0
 22164  1  0  0  0
 23 25  2  0  0  0
 23165  1  0  0  0
 24 25  1  0  0  0
 24166  1  0  0  0
 25167  1  0  0  0
 26 27  1  0  0  0
 26 32  1  0  0  0
 27 28  1  0  0  0
 27 30  1  0  0  0
 27168  1  0  0  0
 28 29  2  0  0  0
 28 33  1  0  0  0
 30 31  1  0  0  0
 30169  1  0  0  0
 30170  1  0  0  0
 31 32  1  0  0  0
 31171  1  0  0  0
 31172  1  0  0  0
 32173  1  0  0  0
 32174  1  0  0  0
 33 34  1  0  0  0
 33175  1  0  0  0
 34 35  1  0  0  0
 34 37  1  0  0  0
 34176  1  0  0  0
 35 36  2  0  0  0
 35 43  1  0  0  0
 37 38  1  0  0  0
 37177  1  0  0  0
 37178  1  0  0  0
 38 39  1  0  0  0
 38179  1  0  0  0
 38180  1  0  0  0
 39 40  2  0  0  0
 39 41  1  0  0  0
 41181  1  0  0  0
 41182  1  0  0  0
 42 44  2  0  0  0
 42 45  1  0  0  0
 42 51  1  0  0  0
 43 45  1  0  0  0
 43183  1  0  0  0
 45 46  1  0  0  0
 45 50  1  0  0  0
 46 49  1  0  0  0
 46184  1  0  0  0
 46185  1  0  0  0
 47 48  1  0  0  0
 47 49  1  0  0  0
 47186  1  0  0  0
 47187  1  0  0  0
 48 81  2  0  0  0
 48188  1  0  0  0
 49189  1  0  0  0
 49190  1  0  0  0
 50191  1  0  0  0
 50192  1  0  0  0
 50193  1  0  0  0
 51 52  1  0  0  0
 51194  1  0  0  0
 52 53  1  0  0  0
 52 55  1  0  0  0
 52195  1  0  0  0
 53 54  2  0  0  0
 53 59  1  0  0  0
 55 56  1  0  0  0
 55 57  1  0  0  0
 55196  1  0  0  0
 56 58  1  0  0  0
 56197  1  0  0  0
 56198  1  0  0  0
 57199  1  0  0  0
 57200  1  0  0  0
 57201  1  0  0  0
 58202  1  0  0  0
 58203  1  0  0  0
 58204  1  0  0  0
 59 60  1  0  0  0
 59205  1  0  0  0
 60 61  1  0  0  0
 60 63  1  0  0  0
 60206  1  0  0  0
 61 62  2  0  0  0
 61 67  1  0  0  0
 63 64  1  0  0  0
 63207  1  0  0  0
 63208  1  0  0  0
 64 65  1  0  0  0
 64 66  1  0  0  0
 64209  1  0  0  0
 65210  1  0  0  0
 65211  1  0  0  0
 65212  1  0  0  0
 66213  1  0  0  0
 66214  1  0  0  0
 66215  1  0  0  0
 67 68  1  0  0  0
 67216  1  0  0  0
 68 69  1  0  0  0
 68 71  1  0  0  0
 68217  1  0  0  0
 69 70  2  0  0  0
 69 76  1  0  0  0
 71 72  1  0  0  0
 71218  1  0  0  0
 71219  1  0  0  0
 72 73  1  0  0  0
 72 74  2  0  0  0
 73220  1  0  0  0
 75 77  2  0  0  0
 75 78  1  0  0  0
 75 84  1  0  0  0
 76 78  1  0  0  0
 76221  1  0  0  0
 78 79  1  0  0  0
 78 83  1  0  0  0
 79 82  2  0  0  0
 79222  1  0  0  0
 80 81  1  0  0  0
 80 82  1  0  0  0
 80223  1  0  0  0
 80224  1  0  0  0
 81225  1  0  0  0
 82226  1  0  0  0
 83227  1  0  0  0
 83228  1  0  0  0
 83229  1  0  0  0
 84 85  1  0  0  0
 84230  1  0  0  0
 85 86  1  0  0  0
 85 88  1  0  0  0
 85231  1  0  0  0
 86 87  2  0  0  0
 86 94  1  0  0  0
 88 89  1  0  0  0
 88232  1  0  0  0
 88233  1  0  0  0
 89 90  2  0  0  0
 89 91  1  0  0  0
 90 92  1  0  0  0
 91 93  2  0  0  0
 91234  1  0  0  0
 92 93  1  0  0  0
 92235  1  0  0  0
 94 95  1  0  0  0
 94236  1  0  0  0
 95 96  1  0  0  0
 95 98  1  0  0  0
 95237  1  0  0  0
 96 97  2  0  0  0
 96101  1  0  0  0
 98 99  1  0  0  0
 98100  1  0  0  0
 98238  1  0  0  0
 99239  1  0  0  0
 99240  1  0  0  0
 99241  1  0  0  0
100242  1  0  0  0
100243  1  0  0  0
100244  1  0  0  0
101102  1  0  0  0
101245  1  0  0  0
102103  1  0  0  0
102105  1  0  0  0
102246  1  0  0  0
103104  2  0  0  0
103112  1  0  0  0
105106  1  0  0  0
105247  1  0  0  0
105248  1  0  0  0
106107  1  0  0  0
106249  1  0  0  0
106250  1  0  0  0
107108  1  0  0  0
107251  1  0  0  0
107252  1  0  0  0
108109  1  0  0  0
108253  1  0  0  0
109110  2  0  0  0
109111  1  0  0  0
110254  1  0  0  0
111255  1  0  0  0
111256  1  0  0  0
112113  1  0  0  0
112257  1  0  0  0
113114  1  0  0  0
113116  1  0  0  0
113258  1  0  0  0
114115  2  0  0  0
114123  1  0  0  0
116117  1  0  0  0
116259  1  0  0  0
116260  1  0  0  0
117118  1  0  0  0
117261  1  0  0  0
117262  1  0  0  0
118119  1  0  0  0
118263  1  0  0  0
118264  1  0  0  0
119120  1  0  0  0
119265  1  0  0  0
120121  2  0  0  0
120122  1  0  0  0
121266  1  0  0  0
122267  1  0  0  0
122268  1  0  0  0
123124  1  0  0  0
123269  1  0  0  0
124125  1  0  0  0
124127  1  0  0  0
124270  1  0  0  0
125126  2  0  0  0
125130  1  0  0  0
127128  1  0  0  0
127129  1  0  0  0
127271  1  0  0  0
128272  1  0  0  0
128273  1  0  0  0
128274  1  0  0  0
129275  1  0  0  0
129276  1  0  0  0
129277  1  0  0  0
130131  1  0  0  0
130278  1  0  0  0
131132  1  0  0  0
131134  1  0  0  0
131279  1  0  0  0
132133  2  0  0  0
132144  1  0  0  0
134135  1  0  0  0
134280  1  0  0  0
134281  1  0  0  0
135136  2  0  0  0
135137  1  0  0  0
136138  1  0  0  0
136282  1  0  0  0
137139  2  0  0  0
137140  1  0  0  0
138139  1  0  0  0
139141  1  0  0  0
140142  2  0  0  0
140283  1  0  0  0
141143  2  0  0  0
141284  1  0  0  0
142143  1  0  0  0
142285  1  0  0  0
143286  1  0  0  0
144287  1  0  0  0
M  CHG  1   1   1
M  END
> <s_m_source_file>
../4djs_ligand.sdf

> <i_m_source_file_index>
1

> <s_epik_input>
W0hdL049QyhbTkgyXSlcW05IXVtDSDJdW0NIMl1bQ0gyXVtDQEhdKFtOSDMrXSlDKD1PKVtOSF1bQ0BASF0oW0NIMl1jMVtjSF1bbkhdYyhjMTIpW2NIXVtjSF1bY0hdW2NIXTIpQyg9TylOM1tDQEBIXShbQ0gyXVtDSDJdW0NIMl0zKUMoPU8pW05IXVtDQEBIXShbQ0gyXVtDSDJdQyg9TylbTkgyXSlDKD1PKVtOSF1bQ0BdNChbQ0gzXSlDKD1PKVtOSF1bQ0BASF0oW0NAQEhdKFtDSDNdKVtDSDJdW0NIM10pQyg9TylbTkhdW0NAQEhdKFtDSDJdW0NIXShbQ0gzXSlbQ0gzXSlDKD1PKVtOSF1bQ0BASF0oW0NIMl1DKD1PKVtPSF0pQyg9TylbTkhdW0NAQF0oW0NIM10pKC9bQ0hdPVtDSF0vW0NIMl0vW0NIXT1bQ0hdXFtDSDJdW0NIMl1bQ0gyXTQpQyg9TylbTkhdW0NAQEhdKFtDSDJdQzU9TltDSDJdTj1bQ0hdNSlDKD1PKVtOSF1bQ0BASF0oW0NIXShbQ0gzXSlbQ0gzXSlDKD1PKVtOSF1bQ0BASF0oW0NIMl1bQ0gyXVtDSDJdW05IXS9DKD1OXFtIXSlbTkgyXSlDKD1PKVtOSF1bQ0BASF0oW0NIMl1bQ0gyXVtDSDJdW05IXS9DKD1OXFtIXSlbTkgyXSlDKD1PKVtOSF1bQ0BASF0oW0NIXShbQ0gzXSlbQ0gzXSlDKD1PKVtOSF1bQ0BIXShDKD1PKVtPSF0pW0NIMl1jNltjSF1bbkhdYyhjNjcpW2NIXVtjSF1bY0hdW2NIXTc=

> <s_epik_cmdline>
J2VwaWtfYXBwJywgJy1pbWFlJywgJ2xpZ2FuZF9wcm8ubWFlJywgJy1vbWFlJywgJ2xpZ2FuZF9wcmVwLm1hZScsICctbXMnLCAnMScsICctcGgnLCAnNycsICctcGh0JywgJzAuNScsICctbnQn

> <s_epik_pKa_notes>
Molecule size exceeds maximum supported for generating protonation states

> <s_epik_Chemistry_Notes>
This compound has an imine and may undergo hydrolysis.

$$$$
