4djw_ligand
                    3D
 Schrodinger Suite 2020-3.
 44 47  0  0  1  0            999 V2000
   22.3600   13.0630   22.3480 O   0  0  0  0  0  0
   22.4950   11.8750   22.5810 C   0  0  0  0  0  0
   22.3390   10.6680   21.5610 C   0  0  1  0  0  0
   22.5380    9.4930   22.4640 N   0  0  0  0  0  0
   22.7800    9.9140   23.7010 C   0  0  0  0  0  0
   22.7860   11.3350   23.8120 N   0  0  0  0  0  0
   22.9970    9.1110   24.7490 N   0  0  0  0  0  0
   23.0220   12.1410   25.0180 C   0  0  0  0  0  0
   20.9020   10.6270   21.0050 C   0  0  0  0  0  0
   20.2720    9.4140   20.7470 C   0  0  0  0  0  0
   18.9690    9.3760   20.2600 C   0  0  0  0  0  0
   18.2800   10.5440   20.0210 C   0  0  0  0  0  0
   18.8920   11.7530   20.2590 C   0  0  0  0  0  0
   20.1950   11.7970   20.7440 C   0  0  0  0  0  0
   23.4880   10.6920   20.5300 C   0  0  0  0  0  0
   23.2110   10.7890   19.1730 C   0  0  0  0  0  0
   24.2350   10.8650   18.2430 C   0  0  0  0  0  0
   25.5500   10.8410   18.6560 C   0  0  0  0  0  0
   25.8710   10.7460   20.0070 C   0  0  0  0  0  0
   24.8260   10.6610   20.9430 C   0  0  0  0  0  0
   29.8540   10.9130   21.4510 C   0  0  0  0  0  0
   29.1260    9.8230   21.7090 N   0  0  0  0  0  0
   27.8830    9.7800   21.2080 C   0  0  0  0  0  0
   27.3000   10.8010   20.4650 C   0  0  0  0  0  0
   28.0930   11.9190   20.2200 C   0  0  0  0  0  0
   29.3850   11.9780   20.7130 C   0  0  0  0  0  0
   22.4724    8.4718   22.0604 H   0  0  0  0  0  0
   22.9577   13.2092   24.7635 H   0  0  0  0  0  0
   24.0225   11.9188   25.4175 H   0  0  0  0  0  0
   22.2624   11.8982   25.7757 H   0  0  0  0  0  0
   20.8058    8.4812   20.9286 H   0  0  0  0  0  0
   18.4908    8.4158   20.0665 H   0  0  0  0  0  0
   17.2571   10.5110   19.6459 H   0  0  0  0  0  0
   18.3533   12.6808   20.0666 H   0  0  0  0  0  0
   20.6693   12.7621   20.9223 H   0  0  0  0  0  0
   22.1748   10.8056   18.8351 H   0  0  0  0  0  0
   24.0002   10.9440   17.1815 H   0  0  0  0  0  0
   26.3480   10.8971   17.9156 H   0  0  0  0  0  0
   25.0598   10.5698   22.0037 H   0  0  0  0  0  0
   30.8696   10.9624   21.8438 H   0  0  0  0  0  0
   27.2898    8.8850   21.3956 H   0  0  0  0  0  0
   27.6951   12.7504   19.6381 H   0  0  0  0  0  0
   30.0162   12.8459   20.5221 H   0  0  0  0  0  0
   22.9832    8.0190   24.6173 H   0  0  0  0  0  0
  1  2  2  0  0  0
  2  3  1  0  0  0
  2  6  1  0  0  0
  3  4  1  0  0  0
  3  9  1  0  0  0
  3 15  1  0  0  0
  4  5  1  0  0  0
  4 27  1  0  0  0
  5  6  1  0  0  0
  5  7  2  0  0  0
  6  8  1  0  0  0
  7 44  1  0  0  0
  8 28  1  0  0  0
  8 29  1  0  0  0
  8 30  1  0  0  0
  9 10  2  0  0  0
  9 14  1  0  0  0
 10 11  1  0  0  0
 10 31  1  0  0  0
 11 12  2  0  0  0
 11 32  1  0  0  0
 12 13  1  0  0  0
 12 33  1  0  0  0
 13 14  2  0  0  0
 13 34  1  0  0  0
 14 35  1  0  0  0
 15 16  2  0  0  0
 15 20  1  0  0  0
 16 17  1  0  0  0
 16 36  1  0  0  0
 17 18  2  0  0  0
 17 37  1  0  0  0
 18 19  1  0  0  0
 18 38  1  0  0  0
 19 20  2  0  0  0
 19 24  1  0  0  0
 20 39  1  0  0  0
 21 22  2  0  0  0
 21 26  1  0  0  0
 21 40  1  0  0  0
 22 23  1  0  0  0
 23 24  2  0  0  0
 23 41  1  0  0  0
 24 25  1  0  0  0
 25 26  2  0  0  0
 25 42  1  0  0  0
 26 43  1  0  0  0
M  END
> <s_m_source_file>
../4djw_ligand.sdf

> <i_m_source_file_index>
1

> <s_epik_input>
W2NIXTFbY0hdW2NIXVtjSF1bY0hdYzFbQ0BdMihDKD1PKU4oW0NIM10pQyhcW05IXTIpPU4vW0hdKWMzW2NIXVtjSF1bY0hdYyhbY0hdMyktYzRbY0hdbltjSF1bY0hdW2NIXTQ=

> <s_epik_cmdline>
J2VwaWtfYXBwJywgJy1pbWFlJywgJ2xpZ2FuZF9wcm8ubWFlJywgJy1vbWFlJywgJ2xpZ2FuZF9wcmVwLm1hZScsICctbXMnLCAnMScsICctcGgnLCAnNycsICctcGh0JywgJzAuNScsICctbnQn

> <r_lp_tautomer_probability>
1

> <r_epik_Ionization_Penalty>
  0.4321

> <r_epik_Ionization_Penalty_Charging>
  0.0000

> <r_epik_Ionization_Penalty_Neutral>
  0.4321

> <r_epik_State_Penalty>
 -0.0000

> <r_epik_Charging_Adjusted_Penalty>
0

> <i_epik_Tot_Q>
0

> <i_epik_Tot_abs_Q>
0

> <s_epik_Chemistry_Notes>
This compound has an imine and may undergo hydrolysis.

$$$$
