4djy_ligand
                    3D
 Schrodinger Suite 2020-3.
 47 50  0  0  1  0            999 V2000
   22.3990   10.6480   21.7870 C   0  0  2  0  0  0
   22.6830    9.4330   22.6490 N   0  3  0  0  0  0
   22.8520    9.8470   23.9060 C   0  0  0  0  0  0
   22.8900   11.2620   24.0190 N   0  0  0  0  0  0
   22.6100   11.8220   22.7940 C   0  0  0  0  0  0
   20.9080   10.7270   21.3440 C   0  0  0  0  0  0
   22.5650   13.0160   22.5590 O   0  0  0  0  0  0
   23.4290   10.7860   20.6630 C   0  0  0  0  0  0
   24.7930   10.7570   20.9620 C   0  0  0  0  0  0
   25.7480   10.9310   19.9540 C   0  0  0  0  0  0
   25.3090   11.1160   18.6380 C   0  0  0  0  0  0
   23.9590   11.1550   18.3400 C   0  0  0  0  0  0
   23.0220   10.9930   19.3450 C   0  0  0  0  0  0
   23.0560    9.0720   24.9750 N   0  0  0  0  0  0
   23.1460   12.0470   25.2320 C   0  0  0  0  0  0
   19.7850   10.2290   22.2140 C   0  0  0  0  0  0
   20.1580    9.4850   20.9650 C   0  0  0  0  0  0
   27.2010   11.0000   20.3020 C   0  0  0  0  0  0
   27.7290   10.1920   21.3140 C   0  0  0  0  0  0
   29.0780   10.3030   21.6500 C   0  0  0  0  0  0
   29.8540   11.2290   20.9470 C   0  0  0  0  0  0
   28.0710   11.8820   19.6670 C   0  0  0  0  0  0
   29.6450    9.4810   22.6860 C   0  0  0  0  0  0
   29.3690   12.0030   19.9720 N   0  0  0  0  0  0
   30.1780    8.8420   23.5350 C   0  0  0  0  0  0
   30.8660    8.0790   24.5790 C   0  0  0  0  0  0
   22.7616    8.3628   22.4071 H   0  0  0  0  0  0
   21.1100   11.6889   20.8501 H   0  0  0  0  0  0
   25.1168   10.5973   21.9905 H   0  0  0  0  0  0
   26.0403   11.2308   17.8379 H   0  0  0  0  0  0
   23.6328   11.3136   17.3121 H   0  0  0  0  0  0
   21.9592   11.0273   19.1053 H   0  0  0  0  0  0
   23.0240    7.9771   24.8747 H   0  0  0  0  0  0
   23.3431   11.3671   26.0739 H   0  0  0  0  0  0
   22.2666   12.6673   25.4597 H   0  0  0  0  0  0
   24.0202   12.6951   25.0716 H   0  0  0  0  0  0
   20.1707   10.0090   23.2204 H   0  0  0  0  0  0
   19.0036   11.0003   22.2814 H   0  0  0  0  0  0
   19.6879    9.6266   19.9806 H   0  0  0  0  0  0
   20.8550    8.6352   20.9197 H   0  0  0  0  0  0
   27.0903    9.4801   21.8368 H   0  0  0  0  0  0
   30.9081   11.3244   21.2074 H   0  0  0  0  0  0
   27.6710   12.5126   18.8730 H   0  0  0  0  0  0
   30.2273    7.2447   24.9046 H   0  0  0  0  0  0
   31.0756    8.7364   25.4357 H   0  0  0  0  0  0
   31.8118    7.6829   24.1807 H   0  0  0  0  0  0
   23.2559    9.5289   25.9555 H   0  0  0  0  0  0
  1  2  1  0  0  0
  1  5  1  0  0  0
  1  6  1  0  0  0
  1  8  1  0  0  0
  2  3  2  0  0  0
  2 27  1  0  0  0
  3  4  1  0  0  0
  3 14  1  0  0  0
  4  5  1  0  0  0
  4 15  1  0  0  0
  5  7  2  0  0  0
  6 16  1  0  0  0
  6 17  1  0  0  0
  6 28  1  0  0  0
  8  9  2  0  0  0
  8 13  1  0  0  0
  9 10  1  0  0  0
  9 29  1  0  0  0
 10 11  2  0  0  0
 10 18  1  0  0  0
 11 12  1  0  0  0
 11 30  1  0  0  0
 12 13  2  0  0  0
 12 31  1  0  0  0
 13 32  1  0  0  0
 14 33  1  0  0  0
 14 47  1  0  0  0
 15 34  1  0  0  0
 15 35  1  0  0  0
 15 36  1  0  0  0
 16 17  1  0  0  0
 16 37  1  0  0  0
 16 38  1  0  0  0
 17 39  1  0  0  0
 17 40  1  0  0  0
 18 19  2  0  0  0
 18 22  1  0  0  0
 19 20  1  0  0  0
 19 41  1  0  0  0
 20 21  2  0  0  0
 20 23  1  0  0  0
 21 24  1  0  0  0
 21 42  1  0  0  0
 22 24  2  0  0  0
 22 43  1  0  0  0
 23 25  3  0  0  0
 25 26  1  0  0  0
 26 44  1  0  0  0
 26 45  1  0  0  0
 26 46  1  0  0  0
M  CHG  1   2   1
M  END
> <s_m_source_file>
../4djy_ligand.sdf

> <i_m_source_file_index>
1

> <s_epik_input>
Tz1DMU4oW0NIM10pQyg9Ti9bSF0pXFtOSF1bQ0BdMShbQ0hdMltDSDJdW0NIMl0yKWMzW2NIXWMoW2NIXVtjSF1bY0hdMyktYzRbY0hdYyhbY0hdbltjSF00KUMjQ1tDSDNd

> <s_epik_cmdline>
J2VwaWtfYXBwJywgJy1pbWFlJywgJ2xpZ2FuZF9wcm8ubWFlJywgJy1vbWFlJywgJ2xpZ2FuZF9wcmVwLm1hZScsICctbXMnLCAnMScsICctcGgnLCAnNycsICctcGh0JywgJzAuNScsICctbnQn

> <r_lp_tautomer_probability>
1

> <r_epik_Ionization_Penalty>
  0.2282

> <r_epik_Ionization_Penalty_Charging>
  0.2266

> <r_epik_Ionization_Penalty_Neutral>
  0.0016

> <r_epik_State_Penalty>
 -0.0000

> <r_epik_Charging_Adjusted_Penalty>
0.226639564568949

> <i_epik_Tot_Q>
1

> <i_epik_Tot_abs_Q>
1

> <s_epik_Chemistry_Notes>
This compound has an imine and may undergo hydrolysis.

$$$$
