4dk5_ligand
                    3D
 Schrodinger Suite 2020-3.
 61 64  0  0  1  0            999 V2000
   28.8560   11.6840   20.6950 C   0  0  0  0  0  0
   27.9590   12.3380   19.7860 O   0  0  0  0  0  0
   26.8160   12.7730   20.3880 C   0  0  0  0  0  0
   25.8730   13.4540   19.6180 C   0  0  0  0  0  0
   24.6990   13.8920   20.2200 C   0  0  0  0  0  0
   26.5930   12.5470   21.6990 N   0  0  0  0  0  0
   25.4880   12.9610   22.2990 C   0  0  0  0  0  0
   24.5090   13.6480   21.5850 C   0  0  0  0  0  0
   23.4060   14.0430   22.2200 N   0  0  0  0  0  0
   22.8560   15.2520   22.0660 C   0  0  0  0  0  0
   23.4940   16.2190   21.3690 N   0  0  0  0  0  0
   22.9770   17.4220   21.1890 C   0  0  0  0  0  0
   21.7360   17.7290   21.7440 C   0  0  0  0  0  0
   21.1430   19.1230   21.5430 C   0  0  0  0  0  0
   20.4110   19.1080   20.2730 N   0  0  0  0  0  0
   20.8160   20.2310   19.4090 C   0  0  0  0  0  0
   20.1100   20.0580   18.0590 C   0  0  0  0  0  0
   18.9620   19.1440   20.5410 C   0  0  0  0  0  0
   18.2580   18.8820   19.2120 C   0  0  0  0  0  0
   18.6450   19.9420   18.2570 N   0  0  2  0  0  0
   17.9230   19.6880   16.8060 S   0  0  0  0  0  0
   16.9950   21.1470   16.3680 C   0  0  0  0  0  0
   16.9860   18.5030   16.8520 O   0  0  0  0  0  0
   18.9830   19.4420   15.7710 O   0  0  0  0  0  0
   21.0410   16.7620   22.4750 C   0  0  0  0  0  0
   21.6070   15.5010   22.6310 C   0  0  0  0  0  0
   20.9620   14.5150   23.3740 C   0  0  0  0  0  0
   19.6700   14.6190   23.7270 N   0  0  0  0  0  0
   21.6660   13.4480   23.7830 N   0  0  0  0  0  0
   21.0850   12.4900   24.5150 C   0  0  0  0  0  0
   21.9120   11.2920   24.9580 C   0  0  0  0  0  0
   19.7920   12.5920   24.8550 N   0  0  0  0  0  0
   19.0870   13.6600   24.4660 C   0  0  0  0  0  0
   17.8080   13.7610   24.8110 N   0  0  0  0  0  0
   29.7551   11.3576   20.1517 H   0  0  0  0  0  0
   28.3568   10.8091   21.1369 H   0  0  0  0  0  0
   29.1438   12.3839   21.4933 H   0  0  0  0  0  0
   26.0541   13.6400   18.5594 H   0  0  0  0  0  0
   23.9400   14.4161   19.6393 H   0  0  0  0  0  0
   25.3430   12.7626   23.3609 H   0  0  0  0  0  0
   22.8972   13.3594   22.9156 H   0  0  0  0  0  0
   23.5183   18.1700   20.6096 H   0  0  0  0  0  0
   20.4642   19.3563   22.3765 H   0  0  0  0  0  0
   21.9540   19.8655   21.5118 H   0  0  0  0  0  0
   20.5179   21.1804   19.8779 H   0  0  0  0  0  0
   21.9077   20.2152   19.2748 H   0  0  0  0  0  0
   20.3188   20.9299   17.4217 H   0  0  0  0  0  0
   20.4795   19.1467   17.5661 H   0  0  0  0  0  0
   18.7059   18.3678   21.2771 H   0  0  0  0  0  0
   18.6872   20.1319   20.9392 H   0  0  0  0  0  0
   18.5619   17.8987   18.8237 H   0  0  0  0  0  0
   17.1688   18.8951   19.3652 H   0  0  0  0  0  0
   16.2181   21.3285   17.1253 H   0  0  0  0  0  0
   16.5223   20.9997   15.3857 H   0  0  0  0  0  0
   17.6724   22.0125   16.3229 H   0  0  0  0  0  0
   20.0710   16.9921   22.9158 H   0  0  0  0  0  0
   22.9397   11.3959   24.5799 H   0  0  0  0  0  0
   21.4654   10.3699   24.5575 H   0  0  0  0  0  0
   21.9286   11.2441   26.0568 H   0  0  0  0  0  0
   17.2207   14.6359   24.4954 H   0  0  0  0  0  0
   17.3364   12.9697   25.4122 H   0  0  0  0  0  0
  1  2  1  0  0  0
  1 35  1  0  0  0
  1 36  1  0  0  0
  1 37  1  0  0  0
  2  3  1  0  0  0
  3  4  2  0  0  0
  3  6  1  0  0  0
  4  5  1  0  0  0
  4 38  1  0  0  0
  5  8  2  0  0  0
  5 39  1  0  0  0
  6  7  2  0  0  0
  7  8  1  0  0  0
  7 40  1  0  0  0
  8  9  1  0  0  0
  9 10  1  0  0  0
  9 41  1  0  0  0
 10 11  2  0  0  0
 10 26  1  0  0  0
 11 12  1  0  0  0
 12 13  2  0  0  0
 12 42  1  0  0  0
 13 14  1  0  0  0
 13 25  1  0  0  0
 14 15  1  0  0  0
 14 43  1  0  0  0
 14 44  1  0  0  0
 15 16  1  0  0  0
 15 18  1  0  0  0
 16 17  1  0  0  0
 16 45  1  0  0  0
 16 46  1  0  0  0
 17 20  1  0  0  0
 17 47  1  0  0  0
 17 48  1  0  0  0
 18 19  1  0  0  0
 18 49  1  0  0  0
 18 50  1  0  0  0
 19 20  1  0  0  0
 19 51  1  0  0  0
 19 52  1  0  0  0
 20 21  1  0  0  0
 21 22  1  0  0  0
 21 23  2  0  0  0
 21 24  2  0  0  0
 22 53  1  0  0  0
 22 54  1  0  0  0
 22 55  1  0  0  0
 25 26  2  0  0  0
 25 56  1  0  0  0
 26 27  1  0  0  0
 27 28  2  0  0  0
 27 29  1  0  0  0
 28 33  1  0  0  0
 29 30  2  0  0  0
 30 31  1  0  0  0
 30 32  1  0  0  0
 31 57  1  0  0  0
 31 58  1  0  0  0
 31 59  1  0  0  0
 32 33  2  0  0  0
 33 34  1  0  0  0
 34 60  1  0  0  0
 34 61  1  0  0  0
M  END
> <s_m_source_file>
../4dk5_ligand.sdf

> <i_m_source_file_index>
1

> <s_epik_input>
W0NIM11PYzFbY0hdW2NIXWMoW2NIXW4xKVtOSF1jMm5bY0hdYyhbQ0gyXVtOSCtdM1tDSDJdW0NIMl1OKFtDSDJdW0NIMl0zKVMoPU8pKD1PKVtDSDNdKVtjSF1jMi1jNG5jKFtOSDJdKW5jKG40KVtDSDNd

> <s_epik_cmdline>
J2VwaWtfYXBwJywgJy1pbWFlJywgJ2xpZ2FuZF9wcm8ubWFlJywgJy1vbWFlJywgJ2xpZ2FuZF9wcmVwLm1hZScsICctbXMnLCAnMScsICctcGgnLCAnNycsICctcGh0JywgJzAuNScsICctbnQn

> <r_lp_tautomer_probability>
1

> <r_epik_Ionization_Penalty>
  0.2257

> <r_epik_Ionization_Penalty_Charging>
  0.0000

> <r_epik_Ionization_Penalty_Neutral>
  0.2257

> <r_epik_State_Penalty>
 -0.0000

> <r_epik_Charging_Adjusted_Penalty>
0

> <i_epik_Tot_Q>
0

> <i_epik_Tot_abs_Q>
0

$$$$
