4dk8_ligand
                    3D
 Schrodinger Suite 2020-3.
 55 57  0  0  1  0            999 V2000
   39.7500   66.6120   40.6160 C   0  0  0  0  0  0
   40.3300   67.6170   39.7780 C   0  0  0  0  0  0
   40.3160   66.4070   41.8860 C   0  0  0  0  0  0
   41.4400   68.3570   40.1960 C   0  0  0  0  0  0
   41.4160   67.1440   42.3030 C   0  0  0  0  0  0
   41.9980   68.1270   41.4680 C   0  0  0  0  0  0
   43.1560   68.8610   41.8240 N   0  0  0  0  0  0
   44.6620   67.9600   42.2360 S   0  0  0  0  0  0
   45.6370   68.9900   42.4930 O   0  0  0  0  0  0
   44.9010   67.0860   41.0990 O   0  0  0  0  0  0
   44.5620   66.9670   43.7150 C   0  0  0  0  0  0
   44.0600   65.6450   43.6590 C   0  0  0  0  0  0
   44.9920   67.5230   44.9450 C   0  0  0  0  0  0
   44.9180   66.7550   46.1280 C   0  0  0  0  0  0
   43.9850   64.8780   44.8450 C   0  0  0  0  0  0
   44.4130   65.4330   46.0800 C   0  0  0  0  0  0
   42.7030   69.8220   42.8590 C   0  0  0  0  0  0
   38.5660   65.7660   40.1740 C   0  0  2  0  0  0
   38.9420   65.0480   38.8500 C   0  0  0  0  0  0
   37.2750   66.6600   40.0470 C   0  0  0  0  0  0
   36.2290   65.9220   39.6680 F   0  0  0  0  0  0
   37.4060   67.6240   39.1410 F   0  0  0  0  0  0
   37.0090   67.2440   41.2140 F   0  0  0  0  0  0
   38.2230   64.8110   41.1770 O   0  0  0  0  0  0
   38.3660   65.2280   37.5690 C   0  0  0  0  0  0
   39.9370   64.1040   38.7280 N   0  0  0  0  0  0
   39.9770   63.7130   37.4250 C   0  0  0  0  0  0
   39.0160   64.3930   36.6890 C   0  0  0  0  0  0
   40.8640   63.5380   39.7500 C   0  0  0  0  0  0
   40.4650   62.1210   40.1620 C   0  0  0  0  0  0
   39.0870   62.0010   40.4670 O   0  0  0  0  0  0
   38.8170   60.8850   41.2930 C   0  0  0  0  0  0
   39.8982   67.8089   38.7957 H   0  0  0  0  0  0
   39.8856   65.6594   42.5523 H   0  0  0  0  0  0
   41.8727   69.1108   39.5382 H   0  0  0  0  0  0
   41.8389   66.9623   43.2911 H   0  0  0  0  0  0
   43.7337   65.2212   42.7093 H   0  0  0  0  0  0
   45.3792   68.5414   44.9783 H   0  0  0  0  0  0
   45.2490   67.1791   47.0760 H   0  0  0  0  0  0
   43.5981   63.8595   44.8110 H   0  0  0  0  0  0
   44.3527   64.8403   46.9927 H   0  0  0  0  0  0
   41.7829   70.3201   42.5193 H   0  0  0  0  0  0
   43.4867   70.5752   43.0281 H   0  0  0  0  0  0
   42.5035   69.2834   43.7972 H   0  0  0  0  0  0
   38.9513   64.0434   41.4775 H   0  0  0  0  0  0
   37.5508   65.9085   37.3230 H   0  0  0  0  0  0
   40.6649   62.9721   37.0176 H   0  0  0  0  0  0
   38.8156   64.2864   35.6229 H   0  0  0  0  0  0
   41.8841   63.5023   39.3400 H   0  0  0  0  0  0
   40.8518   64.1732   40.6480 H   0  0  0  0  0  0
   40.6874   61.4240   39.3406 H   0  0  0  0  0  0
   41.0323   61.8259   41.0570 H   0  0  0  0  0  0
   37.7380   60.8352   41.5008 H   0  0  0  0  0  0
   39.3684   60.9873   42.2393 H   0  0  0  0  0  0
   39.1347   59.9646   40.7812 H   0  0  0  0  0  0
  1  2  2  0  0  0
  1  3  1  0  0  0
  1 18  1  0  0  0
  2  4  1  0  0  0
  2 33  1  0  0  0
  3  5  2  0  0  0
  3 34  1  0  0  0
  4  6  2  0  0  0
  4 35  1  0  0  0
  5  6  1  0  0  0
  5 36  1  0  0  0
  6  7  1  0  0  0
  7  8  1  0  0  0
  7 17  1  0  0  0
  8  9  2  0  0  0
  8 10  2  0  0  0
  8 11  1  0  0  0
 11 12  2  0  0  0
 11 13  1  0  0  0
 12 15  1  0  0  0
 12 37  1  0  0  0
 13 14  2  0  0  0
 13 38  1  0  0  0
 14 16  1  0  0  0
 14 39  1  0  0  0
 15 16  2  0  0  0
 15 40  1  0  0  0
 16 41  1  0  0  0
 17 42  1  0  0  0
 17 43  1  0  0  0
 17 44  1  0  0  0
 18 19  1  0  0  0
 18 20  1  0  0  0
 18 24  1  0  0  0
 19 25  2  0  0  0
 19 26  1  0  0  0
 20 21  1  0  0  0
 20 22  1  0  0  0
 20 23  1  0  0  0
 24 45  1  0  0  0
 25 28  1  0  0  0
 25 46  1  0  0  0
 26 27  1  0  0  0
 26 29  1  0  0  0
 27 28  2  0  0  0
 27 47  1  0  0  0
 28 48  1  0  0  0
 29 30  1  0  0  0
 29 49  1  0  0  0
 29 50  1  0  0  0
 30 31  1  0  0  0
 30 51  1  0  0  0
 30 52  1  0  0  0
 31 32  1  0  0  0
 32 53  1  0  0  0
 32 54  1  0  0  0
 32 55  1  0  0  0
M  END
> <s_m_source_file>
../4dk8_ligand.sdf

> <i_m_source_file_index>
1

> <s_epik_input>
W0NIM11PW0NIMl1bQ0gyXW4xW2NIXVtjSF1bY0hdYzFbQ0BAXShDKEYpKEYpRikoW09IXSljMltjSF1bY0hdYyhbY0hdW2NIXTIpTihbQ0gzXSlTKD1PKSg9TyljM1tjSF1bY0hdW2NIXVtjSF1bY0hdMw==

> <s_epik_cmdline>
J2VwaWtfYXBwJywgJy1pbWFlJywgJ2xpZ2FuZF9wcm8ubWFlJywgJy1vbWFlJywgJ2xpZ2FuZF9wcmVwLm1hZScsICctbXMnLCAnMScsICctcGgnLCAnNycsICctcGh0JywgJzAuNScsICctbnQn

> <r_lp_tautomer_probability>
1

> <r_epik_Ionization_Penalty>
  0.0004

> <r_epik_Ionization_Penalty_Charging>
  0.0000

> <r_epik_Ionization_Penalty_Neutral>
  0.0004

> <r_epik_State_Penalty>
 -0.0000

> <r_epik_Charging_Adjusted_Penalty>
0

> <i_epik_Tot_Q>
0

> <i_epik_Tot_abs_Q>
0

$$$$
