4dkt_ligand
                    3D
 Schrodinger Suite 2020-3.
 42 41  0  0  1  0            999 V2000
  -25.4890   17.8900  -24.4720 N   0  3  0  0  0  0
  -25.8420   18.2610  -23.1150 C   0  0  2  0  0  0
  -25.2240   17.3340  -22.1110 C   0  0  0  0  0  0
  -24.8870   17.7470  -21.0130 O   0  0  0  0  0  0
  -27.3570   18.2520  -22.9490 C   0  0  0  0  0  0
  -27.7620   19.3150  -21.9560 C   0  0  0  0  0  0
  -27.0800   20.3610  -21.8910 O   0  5  0  0  0  0
  -28.7630   19.1090  -21.2370 O   0  0  0  0  0  0
  -25.0710   16.0680  -22.4860 N   0  0  0  0  0  0
  -24.4610   15.0860  -21.6110 C   0  0  2  0  0  0
  -22.9960   15.3480  -21.4240 C   0  0  0  0  0  0
  -22.5300   15.3950  -20.2970 O   0  0  0  0  0  0
  -24.6580   13.6860  -22.1790 C   0  0  0  0  0  0
  -23.8000   12.6690  -21.4370 C   0  0  0  0  0  0
  -24.6560   11.5420  -20.8710 C   0  0  0  0  0  0
  -23.8590   10.3880  -20.5020 N   0  0  0  0  0  0
  -24.1640    9.1670  -20.9320 C   0  0  0  0  0  0
  -25.3940    8.9810  -21.7690 C   0  0  0  0  0  0
  -23.4550    8.1610  -20.6610 N   0  3  0  0  0  0
  -22.1750   15.5370  -22.5670 N   0  0  0  0  0  0
  -24.3945   17.8994  -24.5817 H   0  0  0  0  0  0
  -25.9343   18.6083  -25.1761 H   0  0  0  0  0  0
  -25.8705   16.8810  -24.6873 H   0  0  0  0  0  0
  -25.4229   19.2678  -22.9710 H   0  0  0  0  0  0
  -27.8334   18.4565  -23.9192 H   0  0  0  0  0  0
  -27.6799   17.2664  -22.5825 H   0  0  0  0  0  0
  -25.4198   15.7720  -23.4863 H   0  0  0  0  0  0
  -24.9684   15.2063  -20.6425 H   0  0  0  0  0  0
  -25.7142   13.3953  -22.0796 H   0  0  0  0  0  0
  -24.3740   13.6781  -23.2417 H   0  0  0  0  0  0
  -23.0616   12.2378  -22.1290 H   0  0  0  0  0  0
  -23.2775   13.1664  -20.6066 H   0  0  0  0  0  0
  -25.1828   11.8972  -19.9730 H   0  0  0  0  0  0
  -25.3908   11.2251  -21.6258 H   0  0  0  0  0  0
  -22.9799   10.5117  -19.8524 H   0  0  0  0  0  0
  -25.8922    9.9516  -21.9093 H   0  0  0  0  0  0
  -26.0804    8.2863  -21.2628 H   0  0  0  0  0  0
  -25.1117    8.5686  -22.7489 H   0  0  0  0  0  0
  -22.5486    8.2758  -20.0484 H   0  0  0  0  0  0
  -22.6151   15.4907  -23.5740 H   0  0  0  0  0  0
  -21.0989   15.7298  -22.4454 H   0  0  0  0  0  0
  -23.7425    7.1681  -21.0370 H   0  0  0  0  0  0
  1  2  1  0  0  0
  1 21  1  0  0  0
  1 22  1  0  0  0
  1 23  1  0  0  0
  2  3  1  0  0  0
  2  5  1  0  0  0
  2 24  1  0  0  0
  3  4  2  0  0  0
  3  9  1  0  0  0
  5  6  1  0  0  0
  5 25  1  0  0  0
  5 26  1  0  0  0
  6  7  1  0  0  0
  6  8  2  0  0  0
  9 10  1  0  0  0
  9 27  1  0  0  0
 10 11  1  0  0  0
 10 13  1  0  0  0
 10 28  1  0  0  0
 11 12  2  0  0  0
 11 20  1  0  0  0
 13 14  1  0  0  0
 13 29  1  0  0  0
 13 30  1  0  0  0
 14 15  1  0  0  0
 14 31  1  0  0  0
 14 32  1  0  0  0
 15 16  1  0  0  0
 15 33  1  0  0  0
 15 34  1  0  0  0
 16 17  1  0  0  0
 16 35  1  0  0  0
 17 18  1  0  0  0
 17 19  2  0  0  0
 18 36  1  0  0  0
 18 37  1  0  0  0
 18 38  1  0  0  0
 19 39  1  0  0  0
 19 42  1  0  0  0
 20 40  1  0  0  0
 20 41  1  0  0  0
M  CHG  3   1   1   7  -1  19   1
M  END
> <s_m_source_file>
../4dkt_ligand.sdf

> <i_m_source_file_index>
1

> <s_epik_input>
W09IXUMoPU8pW0NIMl1bQ0BIXShbTkgzK10pQyg9TylbTkhdW0NASF0oQyg9TylbTkgyXSlbQ0gyXVtDSDJdW0NIMl1bTkhdL0MoW0NIM10pPU5cW0hd

> <s_epik_cmdline>
J2VwaWtfYXBwJywgJy1pbWFlJywgJ2xpZ2FuZF9wcm8ubWFlJywgJy1vbWFlJywgJ2xpZ2FuZF9wcmVwLm1hZScsICctbXMnLCAnMScsICctcGgnLCAnNycsICctcGh0JywgJzAuNScsICctbnQn

> <r_epik_Ionization_Penalty>
  0.0238

> <r_epik_Ionization_Penalty_Charging>
  0.0238

> <r_epik_Ionization_Penalty_Neutral>
  0.0000

> <r_epik_State_Penalty>
  0.0160

> <r_epik_Charging_Adjusted_Penalty>
0.0397821548441505

> <i_epik_Tot_Q>
1

> <i_epik_Tot_abs_Q>
3

> <s_epik_Chemistry_Notes>
This compound has an imine and may undergo hydrolysis.

$$$$
