4dlj_ligand
                    3D
 Schrodinger Suite 2020-3.
 47 50  0  0  1  0            999 V2000
   23.8750  -16.6430  -11.0000 N   0  0  0  0  0  0
   23.8420  -17.3970   -9.8840 C   0  0  0  0  0  0
   24.2590  -16.9060   -8.7020 N   0  3  0  0  0  0
   24.7330  -15.6440   -8.6280 C   0  0  0  0  0  0
   24.7970  -14.8650   -9.7920 C   0  0  0  0  0  0
   24.3690  -15.3920  -11.0050 C   0  0  0  0  0  0
   26.1130  -13.2400   -6.2330 N   0  0  0  0  0  0
   26.6110  -17.4210  -17.4640 C   0  0  0  0  0  0
   22.0940  -21.2090  -10.0330 C   0  0  0  0  0  0
   25.2160  -17.4690  -17.4860 C   0  0  0  0  0  0
   27.2430  -16.9350  -16.3100 C   0  0  0  0  0  0
   22.5340  -20.6980   -8.8190 C   0  0  0  0  0  0
   22.2620  -20.4520  -11.1800 C   0  0  0  0  0  0
   24.4900  -17.0320  -16.3550 C   0  0  0  0  0  0
   26.5140  -16.5030  -15.1880 C   0  0  0  0  0  0
   23.1210  -19.4240   -8.7730 C   0  0  0  0  0  0
   22.8610  -19.1860  -11.1490 C   0  0  0  0  0  0
   25.7420  -13.0290   -8.5430 C   0  0  0  0  0  0
   25.2890  -13.5540   -9.7470 C   0  0  0  0  0  0
   25.1860  -15.1140   -7.4160 C   0  0  0  0  0  0
   24.9550  -14.8920  -13.4060 C   0  0  0  0  0  0
   24.3150  -16.1110  -14.0150 C   0  0  0  0  0  0
   24.3730  -14.5990  -12.1070 N   0  0  0  0  0  0
   25.6810  -13.8000   -7.3730 C   0  0  0  0  0  0
   25.1290  -16.5520  -15.2070 C   0  0  0  0  0  0
   23.3020  -18.6740   -9.9410 C   0  0  0  0  0  0
   26.4942  -12.2082   -6.2371 H   0  0  0  0  0  0
   26.0860  -13.8127   -5.2942 H   0  0  0  0  0  0
   27.1947  -17.7530  -18.3225 H   0  0  0  0  0  0
   21.6236  -22.1910  -10.0821 H   0  0  0  0  0  0
   24.6919  -17.8399  -18.3668 H   0  0  0  0  0  0
   28.3318  -16.8909  -16.2822 H   0  0  0  0  0  0
   22.4240  -21.2835   -7.9062 H   0  0  0  0  0  0
   21.9186  -20.8523  -12.1339 H   0  0  0  0  0  0
   23.4009  -17.0701  -16.3779 H   0  0  0  0  0  0
   27.0361  -16.1309  -14.3065 H   0  0  0  0  0  0
   23.4402  -19.0132   -7.8152 H   0  0  0  0  0  0
   22.9786  -18.6100  -12.0669 H   0  0  0  0  0  0
   26.1452  -12.0169   -8.5077 H   0  0  0  0  0  0
   25.3163  -12.9484  -10.6528 H   0  0  0  0  0  0
   25.1552  -15.7175   -6.5088 H   0  0  0  0  0  0
   26.0334  -15.0683  -13.2800 H   0  0  0  0  0  0
   24.7997  -14.0271  -14.0676 H   0  0  0  0  0  0
   24.2824  -16.9192  -13.2695 H   0  0  0  0  0  0
   23.2916  -15.8664  -14.3356 H   0  0  0  0  0  0
   23.8634  -13.6392  -11.9365 H   0  0  0  0  0  0
   24.2131  -17.5327   -7.7991 H   0  0  0  0  0  0
  1  2  2  0  0  0
  1  6  1  0  0  0
  2  3  1  0  0  0
  2 26  1  0  0  0
  3  4  2  0  0  0
  3 47  1  0  0  0
  4  5  1  0  0  0
  4 20  1  0  0  0
  5  6  2  0  0  0
  5 19  1  0  0  0
  6 23  1  0  0  0
  7 24  1  0  0  0
  7 27  1  0  0  0
  7 28  1  0  0  0
  8 10  2  0  0  0
  8 11  1  0  0  0
  8 29  1  0  0  0
  9 12  2  0  0  0
  9 13  1  0  0  0
  9 30  1  0  0  0
 10 14  1  0  0  0
 10 31  1  0  0  0
 11 15  2  0  0  0
 11 32  1  0  0  0
 12 16  1  0  0  0
 12 33  1  0  0  0
 13 17  2  0  0  0
 13 34  1  0  0  0
 14 25  2  0  0  0
 14 35  1  0  0  0
 15 25  1  0  0  0
 15 36  1  0  0  0
 16 26  2  0  0  0
 16 37  1  0  0  0
 17 26  1  0  0  0
 17 38  1  0  0  0
 18 19  2  0  0  0
 18 24  1  0  0  0
 18 39  1  0  0  0
 19 40  1  0  0  0
 20 24  2  0  0  0
 20 41  1  0  0  0
 21 22  1  0  0  0
 21 23  1  0  0  0
 21 42  1  0  0  0
 21 43  1  0  0  0
 22 25  1  0  0  0
 22 44  1  0  0  0
 22 45  1  0  0  0
 23 46  1  0  0  0
M  CHG  1   3   1
M  END
> <s_m_source_file>
../4dlj_ligand.sdf

> <i_m_source_file_index>
1

> <s_epik_input>
W2NIXTFbY0hdW2NIXVtjSF1bY0hdYzEtYyhuMiluYyhjKGMyMylbY0hdW2NIXWMoW05IMl0pW2NIXTMpW05IXVtDSDJdW0NIMl1jNFtjSF1bY0hdW2NIXVtjSF1bY0hdNA==

> <s_epik_cmdline>
J2VwaWtfYXBwJywgJy1pbWFlJywgJ2xpZ2FuZF9wcm8ubWFlJywgJy1vbWFlJywgJ2xpZ2FuZF9wcmVwLm1hZScsICctbXMnLCAnMScsICctcGgnLCAnNycsICctcGh0JywgJzAuNScsICctbnQn

> <r_epik_Ionization_Penalty>
  0.0594

> <r_epik_Ionization_Penalty_Charging>
  0.0594

> <r_epik_Ionization_Penalty_Neutral>
  0.0000

> <r_epik_State_Penalty>
  0.0514

> <r_epik_Charging_Adjusted_Penalty>
0.110782381166985

> <i_epik_Tot_Q>
1

> <i_epik_Tot_abs_Q>
1

$$$$
