4dma_ligand
                    3D
 Schrodinger Suite 2020-3.
197198  0  0  1  0            999 V2000
   11.6010  -24.8590   -4.3070 N   0  3  0  0  0  0
   12.1720  -24.5190   -5.6060 C   0  0  2  0  0  0
   11.5100  -23.2830   -6.2140 C   0  0  0  0  0  0
   11.0160  -23.3120   -7.3430 O   0  0  0  0  0  0
   12.0470  -25.7110   -6.5660 C   0  0  0  0  0  0
   10.7450  -26.4410   -6.4570 C   0  0  0  0  0  0
    9.5260  -25.8240   -6.6390 N   0  0  0  0  0  0
   10.4710  -27.7360   -6.1620 C   0  0  0  0  0  0
    8.5580  -26.7050   -6.4580 C   0  0  0  0  0  0
    9.1040  -27.8720   -6.1680 N   0  0  0  0  0  0
   11.5090  -22.1910   -5.4620 N   0  0  0  0  0  0
   10.9230  -20.9580   -5.9560 C   0  0  2  0  0  0
   11.7960  -20.3750   -7.0620 C   0  0  0  0  0  0
   12.9230  -20.8200   -7.2670 O   0  0  0  0  0  0
   10.7880  -19.9300   -4.8240 C   0  0  0  0  0  0
    9.5310  -20.0780   -3.9760 C   0  0  0  0  0  0
    9.7510  -20.9700   -2.7670 C   0  0  0  0  0  0
   10.5890  -20.2750   -1.7030 C   0  0  0  0  0  0
   10.6750  -21.0720   -0.4450 N   0  3  0  0  0  0
   11.2650  -19.3900   -7.7770 N   0  0  0  0  0  0
   12.0080  -18.7290   -8.8340 C   0  0  2  0  0  0
   13.2130  -18.0200   -8.2070 C   0  0  0  0  0  0
   14.3080  -18.0220   -8.7640 O   0  0  0  0  0  0
   11.1300  -17.6760   -9.5580 C   0  0  2  0  0  0
    9.9820  -18.3540  -10.2950 C   0  0  0  0  0  0
   11.9700  -16.8730  -10.5360 C   0  0  0  0  0  0
    9.1060  -17.3840  -11.0760 C   0  0  0  0  0  0
   12.9870  -17.4250   -7.0380 N   0  0  0  0  0  0
   14.0200  -16.7040   -6.3030 C   0  0  2  0  0  0
   15.1520  -17.6520   -5.9540 C   0  0  0  0  0  0
   16.3330  -17.3160   -6.0820 O   0  0  0  0  0  0
   13.4240  -16.1070   -5.0220 C   0  0  0  0  0  0
   14.3370  -15.3790   -4.0280 C   0  0  0  0  0  0
   15.0390  -14.2160   -4.6980 C   0  0  0  0  0  0
   13.4970  -14.8910   -2.8630 C   0  0  0  0  0  0
   14.7730  -18.8470   -5.5180 N   0  0  0  0  0  0
   15.7350  -19.8730   -5.1460 C   0  0  2  0  0  0
   16.6730  -20.1550   -6.3150 C   0  0  0  0  0  0
   17.8980  -20.1660   -6.1680 O   0  0  0  0  0  0
   14.9900  -21.1500   -4.7440 C   0  0  0  0  0  0
   15.8880  -22.2620   -4.3000 C   0  0  0  0  0  0
   16.6870  -22.9680   -5.1730 N   0  0  0  0  0  0
   16.1240  -22.7800   -3.0710 C   0  0  0  0  0  0
   17.3770  -23.8730   -4.5030 C   0  0  0  0  0  0
   17.0540  -23.7800   -3.2250 N   0  0  0  0  0  0
   16.0770  -20.3640   -7.4830 N   0  0  0  0  0  0
   16.8210  -20.6560   -8.6990 C   0  0  2  0  0  0
   17.7390  -19.5090   -9.1130 C   0  0  0  0  0  0
   18.9250  -19.7240   -9.3770 O   0  0  0  0  0  0
   15.8470  -20.9660   -9.8300 C   0  0  0  0  0  0
   16.4760  -21.5980  -11.0570 C   0  0  0  0  0  0
   15.4970  -21.5260  -12.2190 C   0  0  0  0  0  0
   15.3960  -20.1610  -12.7250 N   0  0  0  0  0  0
   14.2780  -19.6040  -13.1740 C   0  0  0  0  0  0
   13.1440  -20.2910  -13.1790 N   0  0  0  0  0  0
   14.2960  -18.3590  -13.6240 N   0  0  0  0  0  0
   17.1920  -18.2980   -9.1760 N   0  0  0  0  0  0
   17.9870  -17.1330   -9.5630 C   0  0  2  0  0  0
   19.1240  -16.8800   -8.5780 C   0  0  0  0  0  0
   20.1470  -16.2990   -8.9330 O   0  0  0  0  0  0
   17.0950  -15.8900   -9.6760 C   0  0  0  0  0  0
   15.9730  -15.9660  -10.7230 C   0  0  0  0  0  0
   15.2280  -14.6340  -10.7780 C   0  0  0  0  0  0
   16.5610  -16.3020  -12.0950 C   0  0  0  0  0  0
   18.9420  -17.3190   -7.3390 N   0  0  0  0  0  0
   19.9670  -17.1520   -6.3220 C   0  0  2  0  0  0
   21.0810  -18.1770   -6.5210 C   0  0  0  0  0  0
   22.2580  -17.8630   -6.3380 O   0  0  0  0  0  0
   19.3540  -17.3080   -4.9320 C   0  0  0  0  0  0
   18.7220  -16.0450   -4.3570 C   0  0  0  0  0  0
   17.9570  -16.3670   -3.0870 C   0  0  0  0  0  0
   19.8220  -15.0360   -4.0890 C   0  0  0  0  0  0
   20.6980  -19.3960   -6.8970 N   0  0  0  0  0  0
   21.6450  -20.4800   -7.1130 C   0  0  2  0  0  0
   22.4960  -20.2790   -8.3470 C   0  0  0  0  0  0
   23.7270  -20.3120   -8.2790 O   0  0  0  0  0  0
   20.9060  -21.8130   -7.2450 C   0  0  0  0  0  0
   21.0310  -22.7360   -6.0400 C   0  0  0  0  0  0
   20.3310  -24.0700   -6.2490 C   0  0  0  0  0  0
   20.3460  -24.9340   -5.3710 O   0  0  0  0  0  0
   19.7110  -24.2420   -7.4080 N   0  0  0  0  0  0
   21.8350  -20.0870   -9.4810 N   0  0  0  0  0  0
   22.5400  -19.8980  -10.7400 C   0  0  2  0  0  0
   23.7390  -18.9510  -10.5940 C   0  0  0  0  0  0
   23.6410  -17.9000   -9.9630 O   0  0  0  0  0  0
   21.5880  -19.3430  -11.8100 C   0  0  0  0  0  0
   21.4130  -17.8280  -11.8250 C   0  0  0  0  0  0
   20.6690  -17.3630  -13.0710 C   0  0  0  0  0  0
   19.4400  -17.5890  -13.1390 O   0  0  0  0  0  0
   21.3120  -16.7880  -13.9850 O   0  0  0  0  0  0
   24.8570  -19.3280  -11.2050 N   0  0  0  0  0  0
   26.0510  -18.5140  -11.1470 C   0  0  0  0  0  0
   25.8690  -17.2050  -11.8770 C   0  0  0  0  0  0
   26.2653  -16.1192  -11.3755 O   0  0  0  0  0  0
   25.3114  -17.1983  -13.0069 O   0  0  0  0  0  0
   11.6960  -23.9986   -3.6282 H   0  0  0  0  0  0
   12.1386  -25.7206   -3.8844 H   0  0  0  0  0  0
   10.5380  -25.1140   -4.4292 H   0  0  0  0  0  0
   13.2272  -24.2890   -5.3970 H   0  0  0  0  0  0
   12.1368  -25.3571   -7.6036 H   0  0  0  0  0  0
   12.8465  -26.4366   -6.3557 H   0  0  0  0  0  0
   11.1091  -28.6044   -5.9415 H   0  0  0  0  0  0
    7.4897  -26.5028   -6.5350 H   0  0  0  0  0  0
   11.9562  -22.2236   -4.4575 H   0  0  0  0  0  0
    9.9335  -21.2405   -6.3446 H   0  0  0  0  0  0
   11.6451  -20.0224   -4.1407 H   0  0  0  0  0  0
   10.7664  -18.9161   -5.2501 H   0  0  0  0  0  0
    9.2136  -19.0885   -3.6151 H   0  0  0  0  0  0
    8.7286  -20.5213   -4.5840 H   0  0  0  0  0  0
    8.7791  -21.2350   -2.3252 H   0  0  0  0  0  0
   10.2746  -21.8862   -3.0777 H   0  0  0  0  0  0
   11.6104  -20.1232   -2.0821 H   0  0  0  0  0  0
   10.1393  -19.3008   -1.4605 H   0  0  0  0  0  0
   11.2882  -20.5309    0.2906 H   0  0  0  0  0  0
   11.1357  -22.0475   -0.6598 H   0  0  0  0  0  0
    9.6645  -21.2252   -0.0382 H   0  0  0  0  0  0
   10.2347  -19.0779   -7.5509 H   0  0  0  0  0  0
   12.3093  -19.5264   -9.5293 H   0  0  0  0  0  0
   10.7042  -16.9827   -8.8177 H   0  0  0  0  0  0
   10.3866  -19.0834  -11.0121 H   0  0  0  0  0  0
    9.3360  -18.8716   -9.5706 H   0  0  0  0  0  0
   12.7962  -16.3868   -9.9966 H   0  0  0  0  0  0
   11.3430  -16.1062  -11.0144 H   0  0  0  0  0  0
   12.3791  -17.5444  -11.3053 H   0  0  0  0  0  0
    8.3021  -17.9404  -11.5801 H   0  0  0  0  0  0
    9.7168  -16.8614  -11.8268 H   0  0  0  0  0  0
    8.6662  -16.6495  -10.3853 H   0  0  0  0  0  0
   11.9681  -17.4944   -6.6293 H   0  0  0  0  0  0
   14.3888  -15.9085   -6.9672 H   0  0  0  0  0  0
   12.6625  -15.3584   -5.2862 H   0  0  0  0  0  0
   12.9605  -16.9068   -4.4258 H   0  0  0  0  0  0
   15.1155  -16.0627   -3.6584 H   0  0  0  0  0  0
   15.6426  -14.5875   -5.5392 H   0  0  0  0  0  0
   15.6937  -13.7144   -3.9702 H   0  0  0  0  0  0
   14.2904  -13.5016   -5.0712 H   0  0  0  0  0  0
   12.9951  -15.7473   -2.3888 H   0  0  0  0  0  0
   12.7417  -14.1795   -3.2282 H   0  0  0  0  0  0
   14.1450  -14.3923   -2.1272 H   0  0  0  0  0  0
   13.6947  -19.0506   -5.4419 H   0  0  0  0  0  0
   16.3089  -19.4752   -4.2960 H   0  0  0  0  0  0
   14.3082  -20.9294   -3.9095 H   0  0  0  0  0  0
   14.4109  -21.5222   -5.6020 H   0  0  0  0  0  0
   15.7268  -22.5474   -2.0719 H   0  0  0  0  0  0
   18.0910  -24.5766   -4.9311 H   0  0  0  0  0  0
   14.9787  -20.3097   -7.5099 H   0  0  0  0  0  0
   17.4397  -21.5292   -8.4445 H   0  0  0  0  0  0
   15.0794  -21.6673   -9.4709 H   0  0  0  0  0  0
   15.3656  -20.0353  -10.1648 H   0  0  0  0  0  0
   17.3967  -21.0555  -11.3177 H   0  0  0  0  0  0
   16.7179  -22.6498  -10.8445 H   0  0  0  0  0  0
   15.8436  -22.1815  -13.0316 H   0  0  0  0  0  0
   14.5028  -21.8544  -11.8818 H   0  0  0  0  0  0
   16.2875  -19.5171  -12.7522 H   0  0  0  0  0  0
   13.1261  -21.3256  -12.8057 H   0  0  0  0  0  0
   12.2211  -19.8264  -13.5564 H   0  0  0  0  0  0
   15.2354  -17.7866  -13.6211 H   0  0  0  0  0  0
   16.1259  -18.1799   -8.9320 H   0  0  0  0  0  0
   18.4151  -17.3906  -10.5430 H   0  0  0  0  0  0
   16.6025  -15.7031   -8.7103 H   0  0  0  0  0  0
   17.7110  -15.0201   -9.9478 H   0  0  0  0  0  0
   15.2613  -16.7566  -10.4428 H   0  0  0  0  0  0
   14.8112  -14.4058   -9.7859 H   0  0  0  0  0  0
   14.4116  -14.7006  -11.5122 H   0  0  0  0  0  0
   15.9246  -13.8363  -11.0755 H   0  0  0  0  0  0
   17.0940  -17.2627  -12.0402 H   0  0  0  0  0  0
   17.2624  -15.5103  -12.3972 H   0  0  0  0  0  0
   15.7494  -16.3745  -12.8339 H   0  0  0  0  0  0
   17.9940  -17.8171   -7.0878 H   0  0  0  0  0  0
   20.3627  -16.1341   -6.4534 H   0  0  0  0  0  0
   18.5603  -18.0689   -4.9646 H   0  0  0  0  0  0
   20.1327  -17.6207   -4.2208 H   0  0  0  0  0  0
   18.0039  -15.6173   -5.0721 H   0  0  0  0  0  0
   17.1673  -17.0994   -3.3104 H   0  0  0  0  0  0
   17.5025  -15.4475   -2.6896 H   0  0  0  0  0  0
   18.6466  -16.7875   -2.3402 H   0  0  0  0  0  0
   20.3589  -14.8216   -5.0249 H   0  0  0  0  0  0
   20.5245  -15.4473   -3.3492 H   0  0  0  0  0  0
   19.3804  -14.1072   -3.6986 H   0  0  0  0  0  0
   19.6216  -19.5685   -7.0442 H   0  0  0  0  0  0
   22.2909  -20.4429   -6.2234 H   0  0  0  0  0  0
   19.8319  -21.6241   -7.3889 H   0  0  0  0  0  0
   21.3000  -22.3666   -8.1100 H   0  0  0  0  0  0
   22.0938  -22.9399   -5.8430 H   0  0  0  0  0  0
   20.5811  -22.2531   -5.1600 H   0  0  0  0  0  0
   19.7242  -23.4420   -8.1629 H   0  0  0  0  0  0
   19.1833  -25.1847   -7.6149 H   0  0  0  0  0  0
   20.7353  -20.0721   -9.4588 H   0  0  0  0  0  0
   22.8922  -20.9077  -10.9976 H   0  0  0  0  0  0
   21.9582  -19.6184  -12.8085 H   0  0  0  0  0  0
   20.5834  -19.7659  -11.6619 H   0  0  0  0  0  0
   20.8383  -17.5165  -10.9403 H   0  0  0  0  0  0
   22.4010  -17.3446  -11.8092 H   0  0  0  0  0  0
   20.7918  -16.4454  -14.8917 H   0  0  0  0  0  0
   24.8646  -20.2767  -11.7617 H   0  0  0  0  0  0
   26.2944  -18.2944  -10.0970 H   0  0  0  0  0  0
   26.8876  -19.0565  -11.6115 H   0  0  0  0  0  0
   25.1741  -16.2498  -13.5468 H   0  0  0  0  0  0
  1  2  1  0  0  0
  1 96  1  0  0  0
  1 97  1  0  0  0
  1 98  1  0  0  0
  2  3  1  0  0  0
  2  5  1  0  0  0
  2 99  1  0  0  0
  3  4  2  0  0  0
  3 11  1  0  0  0
  5  6  1  0  0  0
  5100  1  0  0  0
  5101  1  0  0  0
  6  7  2  0  0  0
  6  8  1  0  0  0
  7  9  1  0  0  0
  8 10  2  0  0  0
  8102  1  0  0  0
  9 10  1  0  0  0
  9103  1  0  0  0
 11 12  1  0  0  0
 11104  1  0  0  0
 12 13  1  0  0  0
 12 15  1  0  0  0
 12105  1  0  0  0
 13 14  2  0  0  0
 13 20  1  0  0  0
 15 16  1  0  0  0
 15106  1  0  0  0
 15107  1  0  0  0
 16 17  1  0  0  0
 16108  1  0  0  0
 16109  1  0  0  0
 17 18  1  0  0  0
 17110  1  0  0  0
 17111  1  0  0  0
 18 19  1  0  0  0
 18112  1  0  0  0
 18113  1  0  0  0
 19114  1  0  0  0
 19115  1  0  0  0
 19116  1  0  0  0
 20 21  1  0  0  0
 20117  1  0  0  0
 21 22  1  0  0  0
 21 24  1  0  0  0
 21118  1  0  0  0
 22 23  2  0  0  0
 22 28  1  0  0  0
 24 25  1  0  0  0
 24 26  1  0  0  0
 24119  1  0  0  0
 25 27  1  0  0  0
 25120  1  0  0  0
 25121  1  0  0  0
 26122  1  0  0  0
 26123  1  0  0  0
 26124  1  0  0  0
 27125  1  0  0  0
 27126  1  0  0  0
 27127  1  0  0  0
 28 29  1  0  0  0
 28128  1  0  0  0
 29 30  1  0  0  0
 29 32  1  0  0  0
 29129  1  0  0  0
 30 31  2  0  0  0
 30 36  1  0  0  0
 32 33  1  0  0  0
 32130  1  0  0  0
 32131  1  0  0  0
 33 34  1  0  0  0
 33 35  1  0  0  0
 33132  1  0  0  0
 34133  1  0  0  0
 34134  1  0  0  0
 34135  1  0  0  0
 35136  1  0  0  0
 35137  1  0  0  0
 35138  1  0  0  0
 36 37  1  0  0  0
 36139  1  0  0  0
 37 38  1  0  0  0
 37 40  1  0  0  0
 37140  1  0  0  0
 38 39  2  0  0  0
 38 46  1  0  0  0
 40 41  1  0  0  0
 40141  1  0  0  0
 40142  1  0  0  0
 41 42  2  0  0  0
 41 43  1  0  0  0
 42 44  1  0  0  0
 43 45  2  0  0  0
 43143  1  0  0  0
 44 45  1  0  0  0
 44144  1  0  0  0
 46 47  1  0  0  0
 46145  1  0  0  0
 47 48  1  0  0  0
 47 50  1  0  0  0
 47146  1  0  0  0
 48 49  2  0  0  0
 48 57  1  0  0  0
 50 51  1  0  0  0
 50147  1  0  0  0
 50148  1  0  0  0
 51 52  1  0  0  0
 51149  1  0  0  0
 51150  1  0  0  0
 52 53  1  0  0  0
 52151  1  0  0  0
 52152  1  0  0  0
 53 54  1  0  0  0
 53153  1  0  0  0
 54 55  1  0  0  0
 54 56  2  0  0  0
 55154  1  0  0  0
 55155  1  0  0  0
 56156  1  0  0  0
 57 58  1  0  0  0
 57157  1  0  0  0
 58 59  1  0  0  0
 58 61  1  0  0  0
 58158  1  0  0  0
 59 60  2  0  0  0
 59 65  1  0  0  0
 61 62  1  0  0  0
 61159  1  0  0  0
 61160  1  0  0  0
 62 63  1  0  0  0
 62 64  1  0  0  0
 62161  1  0  0  0
 63162  1  0  0  0
 63163  1  0  0  0
 63164  1  0  0  0
 64165  1  0  0  0
 64166  1  0  0  0
 64167  1  0  0  0
 65 66  1  0  0  0
 65168  1  0  0  0
 66 67  1  0  0  0
 66 69  1  0  0  0
 66169  1  0  0  0
 67 68  2  0  0  0
 67 73  1  0  0  0
 69 70  1  0  0  0
 69170  1  0  0  0
 69171  1  0  0  0
 70 71  1  0  0  0
 70 72  1  0  0  0
 70172  1  0  0  0
 71173  1  0  0  0
 71174  1  0  0  0
 71175  1  0  0  0
 72176  1  0  0  0
 72177  1  0  0  0
 72178  1  0  0  0
 73 74  1  0  0  0
 73179  1  0  0  0
 74 75  1  0  0  0
 74 77  1  0  0  0
 74180  1  0  0  0
 75 76  2  0  0  0
 75 82  1  0  0  0
 77 78  1  0  0  0
 77181  1  0  0  0
 77182  1  0  0  0
 78 79  1  0  0  0
 78183  1  0  0  0
 78184  1  0  0  0
 79 80  2  0  0  0
 79 81  1  0  0  0
 81185  1  0  0  0
 81186  1  0  0  0
 82 83  1  0  0  0
 82187  1  0  0  0
 83 84  1  0  0  0
 83 86  1  0  0  0
 83188  1  0  0  0
 84 85  2  0  0  0
 84 91  1  0  0  0
 86 87  1  0  0  0
 86189  1  0  0  0
 86190  1  0  0  0
 87 88  1  0  0  0
 87191  1  0  0  0
 87192  1  0  0  0
 88 89  2  0  0  0
 88 90  1  0  0  0
 90193  1  0  0  0
 91 92  1  0  0  0
 91194  1  0  0  0
 92 93  1  0  0  0
 92195  1  0  0  0
 92196  1  0  0  0
 93 94  2  0  0  0
 93 95  1  0  0  0
 95197  1  0  0  0
M  CHG  2   1   1  19   1
M  END
> <s_m_source_file>
../4dma_ligand.sdf

> <i_m_source_file_index>
1

> <s_epik_input>
W0NIXTE9TltDSDJdTj1DMVtDSDJdW0NASF0oW05IMytdKUMoPU8pW05IXVtDQEBIXShbQ0gyXVtDSDJdW0NIMl1bQ0gyXVtOSDMrXSlDKD1PKVtOSF1bQ0BASF0oW0NAQEhdKFtDSDNdKVtDSDJdW0NIM10pQyg9TylbTkhdW0NAQEhdKFtDSDJdW0NIXShbQ0gzXSlbQ0gzXSlDKD1PKVtOSF1bQ0BASF0oW0NIMl1DMj1OW0NIMl1OPVtDSF0yKUMoPU8pW05IXVtDQEBIXShbQ0gyXVtDSDJdW0NIMl1bTkhdL0MoW05IMl0pPU5cW0hdKUMoPU8pW05IXVtDQEBIXShbQ0gyXVtDSF0oW0NIM10pW0NIM10pQyg9TylbTkhdW0NAQEhdKFtDSDJdW0NIXShbQ0gzXSlbQ0gzXSlDKD1PKVtOSF1bQ0BASF0oW0NIMl1bQ0gyXUMoPU8pW05IMl0pQyg9TylbTkhdW0NAQEhdKFtDSDJdW0NIMl1DKD1PKVtPSF0pQyg9TylbTkhdW0NIMl1DKD1PKVtPSF0=

> <s_epik_cmdline>
J2VwaWtfYXBwJywgJy1pbWFlJywgJ2xpZ2FuZF9wcm8ubWFlJywgJy1vbWFlJywgJ2xpZ2FuZF9wcmVwLm1hZScsICctbXMnLCAnMScsICctcGgnLCAnNycsICctcGh0JywgJzAuNScsICctbnQn

> <s_epik_pKa_notes>
Molecule size exceeds maximum supported for generating protonation states

> <s_epik_Chemistry_Notes>
This compound has an imine and may undergo hydrolysis.

$$$$
