4dn0_ligand
                    3D
 Schrodinger Suite 2020-3.
 68 74  0  0  1  0            999 V2000
    7.2170    6.4960   -8.2110 P   0  0  1  0  0  0
    5.9200    7.0830   -7.7960 O   0  0  0  0  0  0
    7.8900    7.5550   -9.0700 O   0  5  0  0  0  0
    8.2700    6.2540   -7.0580 O   0  0  0  0  0  0
    9.4280    5.6120   -7.3080 C   0  0  0  0  0  0
   10.1050    5.0990   -6.1480 C   0  0  1  0  0  0
   10.0840    6.0770   -5.1570 O   0  0  0  0  0  0
    9.3220    3.9570   -5.5380 C   0  0  1  0  0  0
    9.7050    2.7050   -6.0630 O   0  0  0  0  0  0
    9.6340    4.0140   -4.2030 C   0  0  1  0  0  0
   10.8500    3.3100   -3.8860 O   0  0  0  0  0  0
    9.8140    5.4250   -3.9410 C   0  0  2  0  0  0
    8.6110    6.0240   -3.4000 N   0  0  0  0  0  0
    7.7420    6.8230   -4.0300 C   0  0  0  0  0  0
    6.7560    7.1510   -3.1740 N   0  0  0  0  0  0
    7.0070    6.5510   -1.9930 C   0  0  0  0  0  0
    6.3750    6.5140   -0.7530 C   0  0  0  0  0  0
    5.2420    7.1910   -0.5420 O   0  0  0  0  0  0
    6.9190    5.7990    0.2330 N   0  0  0  0  0  0
    8.0530    5.1220    0.0390 C   0  0  0  0  0  0
    8.5900    4.3700    1.1500 N   0  0  0  0  0  0
    8.7030    5.1150   -1.1350 N   0  0  0  0  0  0
    8.1830    5.8260   -2.1480 C   0  0  0  0  0  0
    8.5960    1.5680   -6.0800 P   0  0  2  0  0  0
    8.1830    1.0590   -4.7230 O   0  5  0  0  0  0
    9.2760    0.4260   -6.7130 O   0  0  0  0  0  0
    7.3760    1.9690   -6.9870 O   0  0  0  0  0  0
    7.6460    2.3050   -8.3540 C   0  0  0  0  0  0
    6.6070    2.9200   -9.1050 C   0  0  1  0  0  0
    5.3500    2.1290   -8.9880 O   0  0  0  0  0  0
    6.2640    4.2330   -8.5330 C   0  0  1  0  0  0
    7.0380    5.2320   -9.0670 O   0  0  0  0  0  0
    4.8730    4.4120   -8.9550 C   0  0  1  0  0  0
    4.8240    4.8700  -10.2500 O   0  0  0  0  0  0
    4.2980    3.0430   -8.8630 C   0  0  2  0  0  0
    3.5650    2.7910   -7.5780 N   0  0  0  0  0  0
    3.9710    2.0240   -6.5690 C   0  0  0  0  0  0
    3.0450    2.0690   -5.5810 N   0  0  0  0  0  0
    2.0560    2.8750   -5.9690 C   0  0  0  0  0  0
    0.8610    3.3000   -5.4010 C   0  0  0  0  0  0
    0.4670    2.8400   -4.0900 O   0  0  0  0  0  0
    0.0830    4.1460   -6.0890 N   0  0  0  0  0  0
    0.4330    4.5740   -7.3070 C   0  0  0  0  0  0
   -0.3890    5.4450   -8.0010 N   0  0  0  0  0  0
    1.5730    4.1730   -7.8770 N   0  0  0  0  0  0
    2.3890    3.3370   -7.2380 C   0  0  0  0  0  0
    9.2355    4.7511   -7.9650 H   0  0  0  0  0  0
   10.1297    6.3003   -7.8018 H   0  0  0  0  0  0
   11.1334    4.8567   -6.4542 H   0  0  0  0  0  0
    8.2326    3.9961   -5.6854 H   0  0  0  0  0  0
    8.8244    3.5285   -3.6384 H   0  0  0  0  0  0
   10.9057    2.2198   -4.0216 H   0  0  0  0  0  0
   10.6505    5.5452   -3.2368 H   0  0  0  0  0  0
    7.8196    7.1538   -5.0657 H   0  0  0  0  0  0
    6.4328    5.7628    1.2190 H   0  0  0  0  0  0
    8.0662    4.3681    2.1173 H   0  0  0  0  0  0
    9.5226    3.7995    1.0285 H   0  0  0  0  0  0
    8.4887    3.0106   -8.3986 H   0  0  0  0  0  0
    7.9021    1.3924   -8.9122 H   0  0  0  0  0  0
    7.0056    2.9861  -10.1281 H   0  0  0  0  0  0
    6.4574    4.3283   -7.4543 H   0  0  0  0  0  0
    4.3268    5.1882   -8.3989 H   0  0  0  0  0  0
    5.2104    5.8705  -10.4945 H   0  0  0  0  0  0
    3.5993    2.8843   -9.6977 H   0  0  0  0  0  0
    4.8985    1.4521   -6.5419 H   0  0  0  0  0  0
   -0.8627    4.5012   -5.6537 H   0  0  0  0  0  0
   -1.3321    5.7879   -7.5505 H   0  0  0  0  0  0
   -0.0991    5.7943   -9.0030 H   0  0  0  0  0  0
  1  2  2  0  0  0
  1  3  1  0  0  0
  1  4  1  0  0  0
  1 32  1  0  0  0
  4  5  1  0  0  0
  5  6  1  0  0  0
  5 47  1  0  0  0
  5 48  1  0  0  0
  6  7  1  0  0  0
  6  8  1  0  0  0
  6 49  1  0  0  0
  7 12  1  0  0  0
  8  9  1  0  0  0
  8 10  1  0  0  0
  8 50  1  0  0  0
  9 24  1  0  0  0
 10 11  1  0  0  0
 10 12  1  0  0  0
 10 51  1  0  0  0
 11 52  1  0  0  0
 12 13  1  0  0  0
 12 53  1  0  0  0
 13 14  1  0  0  0
 13 23  1  0  0  0
 14 15  2  0  0  0
 14 54  1  0  0  0
 15 16  1  0  0  0
 16 17  1  0  0  0
 16 23  2  0  0  0
 17 18  2  0  0  0
 17 19  1  0  0  0
 19 20  1  0  0  0
 19 55  1  0  0  0
 20 21  1  0  0  0
 20 22  2  0  0  0
 21 56  1  0  0  0
 21 57  1  0  0  0
 22 23  1  0  0  0
 24 25  1  0  0  0
 24 26  2  0  0  0
 24 27  1  0  0  0
 27 28  1  0  0  0
 28 29  1  0  0  0
 28 58  1  0  0  0
 28 59  1  0  0  0
 29 30  1  0  0  0
 29 31  1  0  0  0
 29 60  1  0  0  0
 30 35  1  0  0  0
 31 32  1  0  0  0
 31 33  1  0  0  0
 31 61  1  0  0  0
 33 34  1  0  0  0
 33 35  1  0  0  0
 33 62  1  0  0  0
 34 63  1  0  0  0
 35 36  1  0  0  0
 35 64  1  0  0  0
 36 37  1  0  0  0
 36 46  1  0  0  0
 37 38  2  0  0  0
 37 65  1  0  0  0
 38 39  1  0  0  0
 39 40  1  0  0  0
 39 46  2  0  0  0
 40 41  2  0  0  0
 40 42  1  0  0  0
 42 43  1  0  0  0
 42 66  1  0  0  0
 43 44  1  0  0  0
 43 45  2  0  0  0
 44 67  1  0  0  0
 44 68  1  0  0  0
 45 46  1  0  0  0
M  CHG  2   3  -1  25  -1
M  END
> <s_m_source_file>
../4dn0_ligand.sdf

> <i_m_source_file_index>
1

> <s_epik_input>
Tz1jMVtuSF1jKFtOSDJdKW5jKGMxMiluKFtjSF1uMilbQ0BIXShPMylbQ0BIXShbT0hdKVtDQEhdKE9bUEBdKD1PKShbT0hdKU9bQ0gyXTQpW0NASF0zW0NIMl1PW1BAXSg9TykoW09IXSlPW0NASF0oW0NAQEhdNDUpW0NAQEhdKFtPSF0pW0NAQEhdKE81KW4oW2NIXW42KWMoYzY3KW5jKFtOSDJdKVtuSF1jNz1P

> <s_epik_cmdline>
J2VwaWtfYXBwJywgJy1pbWFlJywgJ2xpZ2FuZF9wcm8ubWFlJywgJy1vbWFlJywgJ2xpZ2FuZF9wcmVwLm1hZScsICctbXMnLCAnMScsICctcGgnLCAnNycsICctcGh0JywgJzAuNScsICctbnQn

> <r_lp_tautomer_probability>
1

> <r_epik_Ionization_Penalty>
  0.0042

> <r_epik_Ionization_Penalty_Charging>
  0.0040

> <r_epik_Ionization_Penalty_Neutral>
  0.0002

> <r_epik_State_Penalty>
 -0.0000

> <r_epik_Charging_Adjusted_Penalty>
0.00400193045734951

> <i_epik_Tot_Q>
-2

> <i_epik_Tot_abs_Q>
2

> <s_epik_Chemistry_Notes>
This compound contains an acetal/aminal-like group ( X-CH(R)-Y where X, Y are N, S, or O) that may be acid/base labile, releasing an aldehyde.

$$$$
