4do4_ligand
                    3D
 Schrodinger Suite 2020-3.
 31 31  0  0  1  0            999 V2000
   58.0300   -1.9300   18.0920 O   0  0  0  0  0  0
   57.3240   -2.5520   18.8880 C   0  0  0  0  0  0
   56.4130   -1.8710   19.8950 C   0  0  0  0  0  0
   57.3220   -3.8880   18.8960 N   0  0  0  0  0  0
   58.2610   -4.6800   18.1140 C   0  0  2  0  0  0
   57.6440   -5.5760   17.0750 C   0  0  1  0  0  0
   56.7370   -4.8760   16.2140 O   0  0  0  0  0  0
   58.7910   -6.1900   16.2720 C   0  0  1  0  0  0
   59.5020   -5.1490   15.5950 O   0  0  0  0  0  0
   59.7340   -6.9340   17.2110 C   0  0  1  0  0  0
   60.9630   -7.4480   16.4340 C   0  0  0  0  0  0
   61.8690   -8.1030   17.3410 O   0  0  0  0  0  0
   60.1930   -6.2030   18.3970 N   0  3  0  0  0  0
   59.0680   -5.5520   19.0820 C   0  0  0  0  0  0
   56.5025   -0.7796   19.7910 H   0  0  0  0  0  0
   56.7053   -2.1676   20.9131 H   0  0  0  0  0  0
   55.3715   -2.1728   19.7100 H   0  0  0  0  0  0
   56.5719   -4.3883   19.5261 H   0  0  0  0  0  0
   58.8408   -3.9244   17.5636 H   0  0  0  0  0  0
   56.9918   -6.3233   17.5506 H   0  0  0  0  0  0
   55.8535   -4.3750   16.6365 H   0  0  0  0  0  0
   58.4168   -6.8624   15.4860 H   0  0  0  0  0  0
   58.9784   -4.5045   14.8736 H   0  0  0  0  0  0
   59.1162   -7.7309   17.6505 H   0  0  0  0  0  0
   60.6372   -8.1624   15.6636 H   0  0  0  0  0  0
   61.4748   -6.6003   15.9550 H   0  0  0  0  0  0
   62.8074   -8.5358   16.9641 H   0  0  0  0  0  0
   60.6741   -6.9031   19.0958 H   0  0  0  0  0  0
   60.9164   -5.4313   18.0949 H   0  0  0  0  0  0
   59.4660   -4.9262   19.8944 H   0  0  0  0  0  0
   58.4160   -6.3306   19.5047 H   0  0  0  0  0  0
  1  2  2  0  0  0
  2  3  1  0  0  0
  2  4  1  0  0  0
  3 15  1  0  0  0
  3 16  1  0  0  0
  3 17  1  0  0  0
  4  5  1  0  0  0
  4 18  1  0  0  0
  5  6  1  0  0  0
  5 14  1  0  0  0
  5 19  1  0  0  0
  6  7  1  0  0  0
  6  8  1  0  0  0
  6 20  1  0  0  0
  7 21  1  0  0  0
  8  9  1  0  0  0
  8 10  1  0  0  0
  8 22  1  0  0  0
  9 23  1  0  0  0
 10 11  1  0  0  0
 10 13  1  0  0  0
 10 24  1  0  0  0
 11 12  1  0  0  0
 11 25  1  0  0  0
 11 26  1  0  0  0
 12 27  1  0  0  0
 13 14  1  0  0  0
 13 28  1  0  0  0
 13 29  1  0  0  0
 14 30  1  0  0  0
 14 31  1  0  0  0
M  CHG  1  13   1
M  END
> <s_m_source_file>
../4do4_ligand.sdf

> <i_m_source_file_index>
1

> <s_epik_input>
Tz1DKFtDSDNdKVtOSF1bQ0BASF0xW0NAQEhdKFtPSF0pW0NAQEhdKFtPSF0pW0NAQEhdKFtDSDJdW09IXSlbTkgyK11bQ0gyXTE=

> <s_epik_cmdline>
J2VwaWtfYXBwJywgJy1pbWFlJywgJ2xpZ2FuZF9wcm8ubWFlJywgJy1vbWFlJywgJ2xpZ2FuZF9wcmVwLm1hZScsICctbXMnLCAnMScsICctcGgnLCAnNycsICctcGh0JywgJzAuNScsICctbnQn

> <r_epik_Ionization_Penalty>
  0.0688

> <r_epik_Ionization_Penalty_Charging>
  0.0688

> <r_epik_Ionization_Penalty_Neutral>
  0.0000

> <r_epik_State_Penalty>
  0.0602

> <r_epik_Charging_Adjusted_Penalty>
0.128983508538903

> <i_epik_Tot_Q>
1

> <i_epik_Tot_abs_Q>
1

$$$$
