4dow_ligand
                    3D
 Schrodinger Suite 2020-3.
218218  0  0  1  0            999 V2000
  -10.6730   -1.2280  -22.1760 N   0  3  0  0  0  0
   -9.9310   -2.4640  -22.3590 C   0  0  0  0  0  0
   -8.4510   -2.3120  -22.0460 C   0  0  0  0  0  0
   -7.8170   -1.3410  -22.4620 O   0  0  0  0  0  0
   -7.8950   -3.2660  -21.3010 N   0  0  0  0  0  0
   -6.4960   -3.1680  -20.8830 C   0  0  2  0  0  0
   -5.5630   -3.4840  -22.0470 C   0  0  0  0  0  0
   -5.7480   -4.4870  -22.7310 O   0  0  0  0  0  0
   -6.2050   -4.1040  -19.7070 C   0  0  0  0  0  0
   -4.5650   -2.6350  -22.2690 N   0  0  0  0  0  0
   -3.5800   -2.9230  -23.2920 C   0  0  2  0  0  0
   -2.7280   -4.1130  -22.8850 C   0  0  0  0  0  0
   -2.5850   -4.4190  -21.6970 O   0  0  0  0  0  0
   -2.6840   -1.7200  -23.5500 C   0  0  0  0  0  0
   -3.4160   -0.4750  -24.0250 C   0  0  0  0  0  0
   -2.4710    0.4160  -24.8200 C   0  0  0  0  0  0
   -3.1470    1.7070  -25.2830 C   0  0  0  0  0  0
   -2.3000    2.4280  -26.2850 N   0  3  0  0  0  0
   -2.1400   -4.7630  -23.8810 N   0  0  0  0  0  0
   -1.3810   -5.9780  -23.6650 C   0  0  2  0  0  0
    0.0580   -5.6530  -23.3080 C   0  0  0  0  0  0
    0.7270   -4.8560  -23.9870 O   0  0  0  0  0  0
   -1.4090   -6.8460  -24.9180 C   0  0  0  0  0  0
   -0.1400   -7.6380  -25.1100 C   0  0  0  0  0  0
   -0.3640   -8.8860  -25.9390 C   0  0  0  0  0  0
    0.7910   -9.7820  -25.8020 N   0  0  0  0  0  0
    0.8380  -11.0320  -26.2360 C   0  0  0  0  0  0
    1.9400  -11.7370  -26.0550 N   0  0  0  0  0  0
   -0.2110  -11.5750  -26.8460 N   0  0  0  0  0  0
    0.5380   -6.2660  -22.2320 N   0  0  0  0  0  0
    1.9390   -6.1430  -21.8870 C   0  0  2  0  0  0
    2.6700   -7.3500  -22.3930 C   0  0  0  0  0  0
    2.2810   -8.4960  -22.1040 O   0  0  0  0  0  0
    2.1600   -6.0780  -20.3710 C   0  0  0  0  0  0
    3.6110   -6.0630  -19.9940 C   0  0  0  0  0  0
    4.4180   -4.9770  -20.2180 N   0  0  0  0  0  0
    4.4060   -7.0300  -19.4780 C   0  0  0  0  0  0
    5.6490   -5.2510  -19.8110 C   0  0  0  0  0  0
    5.6660   -6.4870  -19.3640 N   0  0  0  0  0  0
    3.7750   -7.1120  -23.0900 N   0  0  0  0  0  0
    4.6070   -8.2110  -23.5550 C   0  0  2  0  0  0
    5.8420   -8.2350  -22.6650 C   0  0  0  0  0  0
    6.5970   -7.2670  -22.6380 O   0  0  0  0  0  0
    4.9650   -7.9560  -25.0300 C   0  0  0  0  0  0
    5.1930   -9.2050  -25.8760 C   0  0  0  0  0  0
    5.1310   -8.8650  -27.3860 C   0  0  0  0  0  0
    3.9140   -9.4020  -28.0030 N   0  0  0  0  0  0
    3.3440   -8.9280  -29.1090 C   0  0  0  0  0  0
    3.8640   -7.8850  -29.7500 N   0  0  0  0  0  0
    2.2380   -9.4970  -29.5720 N   0  0  0  0  0  0
    6.0370   -9.3060  -21.8790 N   0  0  0  0  0  0
    7.2450   -9.3900  -21.0620 C   0  0  1  0  0  0
    7.2380  -10.6350  -20.1690 C   0  0  0  0  0  0
    6.4500  -10.4810  -18.9140 C   0  0  0  0  0  0
    6.7120  -11.7060  -18.0570 C   0  0  0  0  0  0
    5.8430  -11.7500  -16.8730 C   0  0  0  0  0  0
    6.1220  -13.0470  -16.1760 N   0  3  0  0  0  0
    7.5210  -12.9430  -15.7040 C   0  0  0  0  0  0
    5.2270  -13.0100  -15.0220 C   0  0  0  0  0  0
    8.4750   -9.4370  -21.9640 C   0  0  0  0  0  0
    8.4690  -10.2290  -22.9050 O   0  0  0  0  0  0
    9.5600   -8.7860  -21.5460 N   0  0  0  0  0  0
   10.7720   -8.7390  -22.3590 C   0  0  2  0  0  0
   11.9480   -8.9020  -21.4290 C   0  0  0  0  0  0
   11.8390   -8.5990  -20.2460 O   0  0  0  0  0  0
   10.9320   -7.3920  -23.0960 C   0  0  0  0  0  0
    9.9220   -7.2810  -24.2290 C   0  0  0  0  0  0
   10.7910   -6.2130  -22.0920 C   0  0  0  0  0  0
   13.0730   -9.3680  -21.9620 N   0  0  0  0  0  0
   14.2240   -9.7500  -21.1450 C   0  0  2  0  0  0
   15.1210   -8.5880  -20.7590 C   0  0  0  0  0  0
   14.8130   -7.4330  -21.0050 O   0  0  0  0  0  0
   15.0840  -10.8210  -21.8540 C   0  0  0  0  0  0
   14.7890  -12.3060  -21.6120 C   0  0  0  0  0  0
   13.8570  -12.8260  -22.6930 C   0  0  0  0  0  0
   16.0800  -13.1300  -21.6040 C   0  0  0  0  0  0
   16.2850   -8.9550  -20.2370 N   0  0  0  0  0  0
   17.3300   -8.0420  -19.7780 C   0  0  2  0  0  0
   16.8220   -7.0980  -18.7140 C   0  0  0  0  0  0
   15.9920   -7.4670  -17.8920 O   0  0  0  0  0  0
   17.9080   -7.2280  -20.9470 C   0  0  0  0  0  0
   18.5160   -8.0600  -22.0880 C   0  0  0  0  0  0
   17.4330   -8.4570  -23.1010 C   0  0  0  0  0  0
   17.8750   -9.4030  -24.1310 N   0  0  0  0  0  0
   18.1440   -9.0600  -25.3890 C   0  0  0  0  0  0
   18.5290   -9.9830  -26.2700 N   0  0  0  0  0  0
   18.0240   -7.7840  -25.7630 N   0  0  0  0  0  0
   17.3050   -5.8620  -18.7470 N   0  0  0  0  0  0
   16.8550   -4.8580  -17.7890 C   0  0  2  0  0  0
   16.8040   -5.4290  -16.3530 C   0  0  0  0  0  0
   15.7990   -5.2860  -15.6410 O   0  0  0  0  0  0
   15.4890   -4.3120  -18.2250 C   0  0  0  0  0  0
   15.4210   -4.0160  -19.7300 C   0  0  0  0  0  0
   14.6200   -4.6780  -20.4340 O   0  0  0  0  0  0
   16.1490   -3.1200  -20.2160 O   0  0  0  0  0  0
   17.8910   -6.0800  -15.9400 N   0  0  0  0  0  0
   18.0110   -6.6110  -14.5820 C   0  0  2  0  0  0
   18.2830   -5.5240  -13.5400 C   0  0  0  0  0  0
   18.1084   -5.7477  -12.3124 O   0  0  0  0  0  0
   19.0920   -7.7010  -14.5150 C   0  0  0  0  0  0
   20.4730   -7.1940  -14.9090 C   0  0  0  0  0  0
   21.2490   -6.7400  -14.0610 O   0  0  0  0  0  0
   20.7910   -7.2790  -16.2010 N   0  0  0  0  0  0
   18.6868   -4.3907  -13.9144 O   0  0  0  0  0  0
  -11.7330   -1.3977  -22.4159 H   0  0  0  0  0  0
  -10.2656   -0.4536  -22.8426 H   0  0  0  0  0  0
  -10.5820   -0.8971  -21.1309 H   0  0  0  0  0  0
  -10.3384   -3.2384  -21.6924 H   0  0  0  0  0  0
  -10.0220   -2.7950  -23.4041 H   0  0  0  0  0  0
   -8.4994   -4.1344  -21.0000 H   0  0  0  0  0  0
   -6.3605   -2.1226  -20.5686 H   0  0  0  0  0  0
   -6.8830   -3.8675  -18.8737 H   0  0  0  0  0  0
   -5.1629   -3.9703  -19.3811 H   0  0  0  0  0  0
   -6.3600   -5.1467  -20.0212 H   0  0  0  0  0  0
   -4.4873   -1.7125  -21.6748 H   0  0  0  0  0  0
   -4.1667   -3.1545  -24.1932 H   0  0  0  0  0  0
   -2.1604   -1.4471  -22.6219 H   0  0  0  0  0  0
   -1.9467   -1.9718  -24.3265 H   0  0  0  0  0  0
   -4.2605   -0.7683  -24.6659 H   0  0  0  0  0  0
   -3.7925    0.0833  -23.1552 H   0  0  0  0  0  0
   -1.6089    0.6876  -24.1931 H   0  0  0  0  0  0
   -2.1203   -0.1247  -25.7114 H   0  0  0  0  0  0
   -4.1152    1.4678  -25.7472 H   0  0  0  0  0  0
   -3.3082    2.3671  -24.4180 H   0  0  0  0  0  0
   -2.8097    3.3506  -26.5998 H   0  0  0  0  0  0
   -2.1375    1.7819  -27.1603 H   0  0  0  0  0  0
   -1.3305    2.6812  -25.8311 H   0  0  0  0  0  0
   -2.2427   -4.3518  -24.8961 H   0  0  0  0  0  0
   -1.8744   -6.4865  -22.8236 H   0  0  0  0  0  0
   -2.2432   -7.5599  -24.8509 H   0  0  0  0  0  0
   -1.5432   -6.2074  -25.8035 H   0  0  0  0  0  0
    0.6064   -7.0153  -25.6249 H   0  0  0  0  0  0
    0.2524   -7.9452  -24.1294 H   0  0  0  0  0  0
   -1.2702   -9.4015  -25.5881 H   0  0  0  0  0  0
   -0.4869   -8.6070  -26.9959 H   0  0  0  0  0  0
    1.7070   -9.4268  -25.3073 H   0  0  0  0  0  0
    2.8059  -11.2842  -25.5498 H   0  0  0  0  0  0
   -1.1271  -10.9846  -26.9949 H   0  0  0  0  0  0
   -0.1629  -12.6147  -27.2018 H   0  0  0  0  0  0
   -0.1327   -6.8688  -21.6020 H   0  0  0  0  0  0
    2.2687   -5.2141  -22.3753 H   0  0  0  0  0  0
    1.7005   -5.1615  -19.9725 H   0  0  0  0  0  0
    1.6989   -6.9561  -19.8952 H   0  0  0  0  0  0
    4.2251   -8.0699  -19.1682 H   0  0  0  0  0  0
    6.4995   -4.5699  -19.8416 H   0  0  0  0  0  0
    4.0593   -6.0735  -23.3151 H   0  0  0  0  0  0
    4.0624   -9.1628  -23.4691 H   0  0  0  0  0  0
    4.1498   -7.3981  -25.5140 H   0  0  0  0  0  0
    5.8941   -7.3697  -25.0858 H   0  0  0  0  0  0
    6.1830   -9.6268  -25.6477 H   0  0  0  0  0  0
    4.4159   -9.9493  -25.6478 H   0  0  0  0  0  0
    5.1370   -7.7728  -27.5164 H   0  0  0  0  0  0
    6.0032   -9.2999  -27.8959 H   0  0  0  0  0  0
    3.4009  -10.2626  -27.5490 H   0  0  0  0  0  0
    4.7805   -7.4083  -29.3721 H   0  0  0  0  0  0
    3.3776   -7.4991  -30.6580 H   0  0  0  0  0  0
    1.8022  -10.3599  -29.0471 H   0  0  0  0  0  0
    5.2944  -10.1169  -21.8477 H   0  0  0  0  0  0
    7.2337   -8.4820  -20.4412 H   0  0  0  0  0  0
    6.8027  -11.4804  -20.7220 H   0  0  0  0  0  0
    8.2690  -10.8811  -19.8749 H   0  0  0  0  0  0
    6.7709   -9.5691  -18.3891 H   0  0  0  0  0  0
    5.3804  -10.4055  -19.1595 H   0  0  0  0  0  0
    6.5286  -12.6142  -18.6498 H   0  0  0  0  0  0
    7.7571  -11.6969  -17.7140 H   0  0  0  0  0  0
    6.0737  -10.8977  -16.2170 H   0  0  0  0  0  0
    4.7906  -11.6957  -17.1884 H   0  0  0  0  0  0
    5.9787  -13.9631  -16.7678 H   0  0  0  0  0  0
    8.2022  -12.9701  -16.5673 H   0  0  0  0  0  0
    7.7453  -13.7856  -15.0334 H   0  0  0  0  0  0
    7.6552  -11.9960  -15.1606 H   0  0  0  0  0  0
    4.1844  -13.0868  -15.3640 H   0  0  0  0  0  0
    5.3663  -12.0629  -14.4802 H   0  0  0  0  0  0
    5.4564  -13.8524  -14.3529 H   0  0  0  0  0  0
    9.5321   -8.2786  -20.5704 H   0  0  0  0  0  0
   10.6825   -9.5601  -23.0855 H   0  0  0  0  0  0
   11.9291   -7.3486  -23.5584 H   0  0  0  0  0  0
   10.0497   -8.1286  -24.9184 H   0  0  0  0  0  0
   10.0832   -6.3385  -24.7728 H   0  0  0  0  0  0
    8.9031   -7.2956  -23.8147 H   0  0  0  0  0  0
   11.5340   -6.3247  -21.2886 H   0  0  0  0  0  0
    9.7796   -6.2187  -21.6595 H   0  0  0  0  0  0
   10.9597   -5.2616  -22.6177 H   0  0  0  0  0  0
   13.1202   -9.4622  -23.0569 H   0  0  0  0  0  0
   13.7392  -10.1284  -20.2330 H   0  0  0  0  0  0
   14.9944  -10.7007  -22.9437 H   0  0  0  0  0  0
   16.1365  -10.7016  -21.5572 H   0  0  0  0  0  0
   14.3014  -12.4111  -20.6316 H   0  0  0  0  0  0
   12.9312  -12.2320  -22.6958 H   0  0  0  0  0  0
   13.6156  -13.8804  -22.4929 H   0  0  0  0  0  0
   14.3494  -12.7422  -23.6731 H   0  0  0  0  0  0
   16.7522  -12.7507  -20.8202 H   0  0  0  0  0  0
   16.5744  -13.0464  -22.5831 H   0  0  0  0  0  0
   15.8406  -14.1846  -21.4029 H   0  0  0  0  0  0
   16.4331  -10.0424  -20.1625 H   0  0  0  0  0  0
   18.0917   -8.7021  -19.3374 H   0  0  0  0  0  0
   17.1122   -6.6157  -21.3962 H   0  0  0  0  0  0
   18.7099   -6.5726  -20.5763 H   0  0  0  0  0  0
   19.2868   -7.4679  -22.6030 H   0  0  0  0  0  0
   18.9700   -8.9727  -21.6746 H   0  0  0  0  0  0
   16.5930   -8.9316  -22.5726 H   0  0  0  0  0  0
   17.0754   -7.5591  -23.6262 H   0  0  0  0  0  0
   18.0019  -10.4670  -23.8825 H   0  0  0  0  0  0
   18.6269  -11.0335  -25.9587 H   0  0  0  0  0  0
   17.7060   -7.0246  -25.0335 H   0  0  0  0  0  0
   18.2431   -7.4921  -26.8007 H   0  0  0  0  0  0
   18.0535   -5.5987  -19.5089 H   0  0  0  0  0  0
   17.6080   -4.0568  -17.8217 H   0  0  0  0  0  0
   14.7076   -5.0502  -17.9916 H   0  0  0  0  0  0
   15.2803   -3.3750  -17.6880 H   0  0  0  0  0  0
   14.5504   -4.4870  -21.5150 H   0  0  0  0  0  0
   18.7144   -6.2128  -16.6572 H   0  0  0  0  0  0
   17.0168   -7.0367  -14.3812 H   0  0  0  0  0  0
   19.1588   -8.0885  -13.4877 H   0  0  0  0  0  0
   18.8291   -8.5208  -15.1997 H   0  0  0  0  0  0
   20.0670   -7.6906  -16.9197 H   0  0  0  0  0  0
   21.7773   -6.9376  -16.5483 H   0  0  0  0  0  0
   18.8845   -3.6042  -13.1713 H   0  0  0  0  0  0
  1  2  1  0  0  0
  1105  1  0  0  0
  1106  1  0  0  0
  1107  1  0  0  0
  2  3  1  0  0  0
  2108  1  0  0  0
  2109  1  0  0  0
  3  4  2  0  0  0
  3  5  1  0  0  0
  5  6  1  0  0  0
  5110  1  0  0  0
  6  7  1  0  0  0
  6  9  1  0  0  0
  6111  1  0  0  0
  7  8  2  0  0  0
  7 10  1  0  0  0
  9112  1  0  0  0
  9113  1  0  0  0
  9114  1  0  0  0
 10 11  1  0  0  0
 10115  1  0  0  0
 11 12  1  0  0  0
 11 14  1  0  0  0
 11116  1  0  0  0
 12 13  2  0  0  0
 12 19  1  0  0  0
 14 15  1  0  0  0
 14117  1  0  0  0
 14118  1  0  0  0
 15 16  1  0  0  0
 15119  1  0  0  0
 15120  1  0  0  0
 16 17  1  0  0  0
 16121  1  0  0  0
 16122  1  0  0  0
 17 18  1  0  0  0
 17123  1  0  0  0
 17124  1  0  0  0
 18125  1  0  0  0
 18126  1  0  0  0
 18127  1  0  0  0
 19 20  1  0  0  0
 19128  1  0  0  0
 20 21  1  0  0  0
 20 23  1  0  0  0
 20129  1  0  0  0
 21 22  2  0  0  0
 21 30  1  0  0  0
 23 24  1  0  0  0
 23130  1  0  0  0
 23131  1  0  0  0
 24 25  1  0  0  0
 24132  1  0  0  0
 24133  1  0  0  0
 25 26  1  0  0  0
 25134  1  0  0  0
 25135  1  0  0  0
 26 27  1  0  0  0
 26136  1  0  0  0
 27 28  2  0  0  0
 27 29  1  0  0  0
 28137  1  0  0  0
 29138  1  0  0  0
 29139  1  0  0  0
 30 31  1  0  0  0
 30140  1  0  0  0
 31 32  1  0  0  0
 31 34  1  0  0  0
 31141  1  0  0  0
 32 33  2  0  0  0
 32 40  1  0  0  0
 34 35  1  0  0  0
 34142  1  0  0  0
 34143  1  0  0  0
 35 36  2  0  0  0
 35 37  1  0  0  0
 36 38  1  0  0  0
 37 39  2  0  0  0
 37144  1  0  0  0
 38 39  1  0  0  0
 38145  1  0  0  0
 40 41  1  0  0  0
 40146  1  0  0  0
 41 42  1  0  0  0
 41 44  1  0  0  0
 41147  1  0  0  0
 42 43  2  0  0  0
 42 51  1  0  0  0
 44 45  1  0  0  0
 44148  1  0  0  0
 44149  1  0  0  0
 45 46  1  0  0  0
 45150  1  0  0  0
 45151  1  0  0  0
 46 47  1  0  0  0
 46152  1  0  0  0
 46153  1  0  0  0
 47 48  1  0  0  0
 47154  1  0  0  0
 48 49  1  0  0  0
 48 50  2  0  0  0
 49155  1  0  0  0
 49156  1  0  0  0
 50157  1  0  0  0
 51 52  1  0  0  0
 51158  1  0  0  0
 52 53  1  0  0  0
 52 60  1  0  0  0
 52159  1  0  0  0
 53 54  1  0  0  0
 53160  1  0  0  0
 53161  1  0  0  0
 54 55  1  0  0  0
 54162  1  0  0  0
 54163  1  0  0  0
 55 56  1  0  0  0
 55164  1  0  0  0
 55165  1  0  0  0
 56 57  1  0  0  0
 56166  1  0  0  0
 56167  1  0  0  0
 57 58  1  0  0  0
 57 59  1  0  0  0
 57168  1  0  0  0
 58169  1  0  0  0
 58170  1  0  0  0
 58171  1  0  0  0
 59172  1  0  0  0
 59173  1  0  0  0
 59174  1  0  0  0
 60 61  2  0  0  0
 60 62  1  0  0  0
 62 63  1  0  0  0
 62175  1  0  0  0
 63 64  1  0  0  0
 63 66  1  0  0  0
 63176  1  0  0  0
 64 65  2  0  0  0
 64 69  1  0  0  0
 66 67  1  0  0  0
 66 68  1  0  0  0
 66177  1  0  0  0
 67178  1  0  0  0
 67179  1  0  0  0
 67180  1  0  0  0
 68181  1  0  0  0
 68182  1  0  0  0
 68183  1  0  0  0
 69 70  1  0  0  0
 69184  1  0  0  0
 70 71  1  0  0  0
 70 73  1  0  0  0
 70185  1  0  0  0
 71 72  2  0  0  0
 71 77  1  0  0  0
 73 74  1  0  0  0
 73186  1  0  0  0
 73187  1  0  0  0
 74 75  1  0  0  0
 74 76  1  0  0  0
 74188  1  0  0  0
 75189  1  0  0  0
 75190  1  0  0  0
 75191  1  0  0  0
 76192  1  0  0  0
 76193  1  0  0  0
 76194  1  0  0  0
 77 78  1  0  0  0
 77195  1  0  0  0
 78 79  1  0  0  0
 78 81  1  0  0  0
 78196  1  0  0  0
 79 80  2  0  0  0
 79 88  1  0  0  0
 81 82  1  0  0  0
 81197  1  0  0  0
 81198  1  0  0  0
 82 83  1  0  0  0
 82199  1  0  0  0
 82200  1  0  0  0
 83 84  1  0  0  0
 83201  1  0  0  0
 83202  1  0  0  0
 84 85  1  0  0  0
 84203  1  0  0  0
 85 86  2  0  0  0
 85 87  1  0  0  0
 86204  1  0  0  0
 87205  1  0  0  0
 87206  1  0  0  0
 88 89  1  0  0  0
 88207  1  0  0  0
 89 90  1  0  0  0
 89 92  1  0  0  0
 89208  1  0  0  0
 90 91  2  0  0  0
 90 96  1  0  0  0
 92 93  1  0  0  0
 92209  1  0  0  0
 92210  1  0  0  0
 93 94  1  0  0  0
 93 95  2  0  0  0
 94211  1  0  0  0
 96 97  1  0  0  0
 96212  1  0  0  0
 97 98  1  0  0  0
 97100  1  0  0  0
 97213  1  0  0  0
 98 99  2  0  0  0
 98104  1  0  0  0
100101  1  0  0  0
100214  1  0  0  0
100215  1  0  0  0
101102  2  0  0  0
101103  1  0  0  0
103216  1  0  0  0
103217  1  0  0  0
104218  1  0  0  0
M  CHG  3   1   1  18   1  57   1
M  END
> <s_m_source_file>
../4dow_ligand.sdf

> <i_m_source_file_index>
1

> <s_epik_input>
W05IMytdW0NIMl1DKD1PKVtOSF1bQ0BASF0oW0NIM10pQyg9TylbTkhdW0NAQEhdKFtDSDJdW0NIMl1bQ0gyXVtDSDJdW05IMytdKUMoPU8pW05IXVtDQEBIXShbQ0gyXVtDSDJdW0NIMl1bTkhdL0MoPU5cW0hdKVtOSDJdKUMoPU8pW05IXVtDQEBIXShbQ0gyXUMxPU5bQ0gyXU49W0NIXTEpQyg9TylbTkhdW0NAQEhdKFtDSDJdW0NIMl1bQ0gyXVtOSF0vQyhbTkgyXSk9TlxbSF0pQyg9TylbTkhdW0NAQEhdKFtDSDJdW0NIMl1bQ0gyXVtDSDJdW05IK10oW0NIM10pW0NIM10pQyg9TylbTkhdW0NAQEhdKFtDSF0oW0NIM10pW0NIM10pQyg9TylbTkhdW0NAQEhdKFtDSDJdW0NIXShbQ0gzXSlbQ0gzXSlDKD1PKVtOSF1bQ0BASF0oW0NIMl1bQ0gyXVtDSDJdW05IXS9DKD1OXFtIXSlbTkgyXSlDKD1PKVtOSF1bQ0BASF0oW0NIMl1DKD1PKVtPSF0pQyg9TylbTkhdW0NASF0oQyg9TylbT0hdKVtDSDJdQyg9TylbTkgyXQ==

> <s_epik_cmdline>
J2VwaWtfYXBwJywgJy1pbWFlJywgJ2xpZ2FuZF9wcm8ubWFlJywgJy1vbWFlJywgJ2xpZ2FuZF9wcmVwLm1hZScsICctbXMnLCAnMScsICctcGgnLCAnNycsICctcGh0JywgJzAuNScsICctbnQn

> <s_epik_pKa_notes>
Molecule size exceeds maximum supported for generating protonation states

> <s_epik_Chemistry_Notes>
This compound has an imine and may undergo hydrolysis.

$$$$
