4dpf_ligand
                    3D
 Schrodinger Suite 2020-3.
 91 94  0  0  1  0            999 V2000
    7.5780   -0.4430  -10.6280 O   0  0  0  0  0  0
    7.3040   -1.1830  -11.7790 S   0  0  0  0  0  0
    5.9760   -1.6610  -11.7930 O   0  0  0  0  0  0
    8.4810   -2.4350  -11.8480 C   0  0  0  0  0  0
    7.5460   -0.1170  -13.0160 N   0  0  0  0  0  0
    8.8770    0.5160  -13.0700 C   0  0  0  0  0  0
    6.9980   -0.4060  -14.3180 C   0  0  0  0  0  0
    6.4810   -1.6510  -14.6830 C   0  0  0  0  0  0
    5.9540   -1.8230  -15.9310 C   0  0  0  0  0  0
    6.9870    0.6680  -15.2270 C   0  0  0  0  0  0
    6.4310    0.4680  -16.4850 C   0  0  0  0  0  0
    5.9280   -0.7750  -16.8360 C   0  0  0  0  0  0
    6.3730    1.5850  -17.4780 C   0  0  0  0  0  0
    7.2760    2.3960  -17.5970 O   0  0  0  0  0  0
    5.2450    1.5860  -18.1650 N   0  0  0  0  0  0
    4.8980    2.4830  -19.2910 C   0  0  2  0  0  0
    3.9740    3.6200  -18.7920 C   0  0  1  0  0  0
    4.6910    4.5020  -17.7770 C   0  0  0  0  0  0
    3.9380    5.6950  -17.4350 N   0  3  0  0  0  0
    4.6560    6.8050  -16.8220 C   0  0  0  0  0  0
    5.7220    7.3850  -17.7290 C   0  0  0  0  0  0
    5.3590    7.9170  -18.9450 C   0  0  0  0  0  0
    6.2920    8.4520  -19.8100 C   0  0  0  0  0  0
    5.7980    8.9570  -21.1210 C   0  0  0  0  0  0
    5.0330   10.2400  -20.9540 C   0  0  0  0  0  0
    6.9320    9.1060  -22.1170 C   0  0  0  0  0  0
    7.6410    8.4400  -19.4490 C   0  0  0  0  0  0
    8.0050    7.8980  -18.2150 C   0  0  0  0  0  0
    7.0720    7.3800  -17.3280 C   0  0  0  0  0  0
    3.5880    4.4510  -19.9130 O   0  0  0  0  0  0
    4.1810    1.6140  -20.3580 C   0  0  0  0  0  0
    4.8280    0.3110  -20.5180 O   0  0  0  0  0  0
    3.9460   -0.7780  -20.9130 C   0  0  0  0  0  0
    4.5040   -2.1700  -20.5860 C   0  0  0  0  0  0
    3.9550   -3.0700  -19.7950 C   0  0  0  0  0  0
    4.7130   -4.3800  -19.6330 C   0  0  0  0  0  0
    4.8420   -4.7240  -18.1370 C   0  0  2  0  0  0
    5.5020   -3.5510  -17.5570 N   0  0  0  0  0  0
    5.3080   -3.1100  -16.3360 C   0  0  0  0  0  0
    4.5210   -3.6290  -15.5340 O   0  0  0  0  0  0
    5.5670   -5.9990  -17.9190 C   0  0  0  0  0  0
    6.9250   -6.1660  -18.1940 C   0  0  0  0  0  0
    7.4990   -7.3960  -17.9330 C   0  0  0  0  0  0
    6.7320   -8.4550  -17.4050 C   0  0  0  0  0  0
    5.3740   -8.3040  -17.1460 C   0  0  0  0  0  0
    4.8030   -7.0630  -17.4030 C   0  0  0  0  0  0
    8.3139   -3.1413  -11.0214 H   0  0  0  0  0  0
    9.4866   -1.9981  -11.7594 H   0  0  0  0  0  0
    8.3953   -2.9664  -12.8073 H   0  0  0  0  0  0
    9.2335    0.7078  -12.0472 H   0  0  0  0  0  0
    8.8088    1.4668  -13.6189 H   0  0  0  0  0  0
    9.5813   -0.1545  -13.5842 H   0  0  0  0  0  0
    6.4980   -2.4804  -13.9760 H   0  0  0  0  0  0
    7.4054    1.6358  -14.9506 H   0  0  0  0  0  0
    5.5093   -0.9286  -17.8306 H   0  0  0  0  0  0
    4.5263    0.8253  -17.8262 H   0  0  0  0  0  0
    5.8204    2.9314  -19.6887 H   0  0  0  0  0  0
    3.0583    3.1997  -18.3506 H   0  0  0  0  0  0
    4.8577    3.9334  -16.8502 H   0  0  0  0  0  0
    5.6590    4.8231  -18.1892 H   0  0  0  0  0  0
    3.4845    6.1156  -18.3446 H   0  0  0  0  0  0
    3.1462    5.4355  -16.7168 H   0  0  0  0  0  0
    3.9472    7.6101  -16.5780 H   0  0  0  0  0  0
    5.1490    6.4591  -15.9015 H   0  0  0  0  0  0
    4.3076    7.9159  -19.2325 H   0  0  0  0  0  0
    5.0975    8.2045  -21.5122 H   0  0  0  0  0  0
    4.2218   10.0911  -20.2261 H   0  0  0  0  0  0
    4.6063   10.5411  -21.9221 H   0  0  0  0  0  0
    5.7111   11.0267  -20.5916 H   0  0  0  0  0  0
    7.4657    8.1487  -22.2108 H   0  0  0  0  0  0
    7.6288    9.8814  -21.7660 H   0  0  0  0  0  0
    6.5239    9.3959  -23.0965 H   0  0  0  0  0  0
    8.3975    8.8472  -20.1198 H   0  0  0  0  0  0
    9.0592    7.8811  -17.9385 H   0  0  0  0  0  0
    7.3726    6.9843  -16.3578 H   0  0  0  0  0  0
    3.0526    4.0093  -20.7664 H   0  0  0  0  0  0
    3.1371    1.4474  -20.0540 H   0  0  0  0  0  0
    4.2021    2.1326  -21.3278 H   0  0  0  0  0  0
    2.9837   -0.6786  -20.3895 H   0  0  0  0  0  0
    3.7782   -0.7383  -21.9994 H   0  0  0  0  0  0
    5.4586   -2.3876  -21.0874 H   0  0  0  0  0  0
    2.9997   -2.8530  -19.2947 H   0  0  0  0  0  0
    4.1673   -5.1853  -20.1465 H   0  0  0  0  0  0
    5.7167   -4.2796  -20.0718 H   0  0  0  0  0  0
    3.8939   -4.9067  -17.6101 H   0  0  0  0  0  0
    6.2191   -2.9709  -18.1564 H   0  0  0  0  0  0
    7.5174   -5.3480  -18.6038 H   0  0  0  0  0  0
    8.5585   -7.5494  -18.1380 H   0  0  0  0  0  0
    7.2129   -9.4106  -17.1958 H   0  0  0  0  0  0
    4.7787   -9.1293  -16.7554 H   0  0  0  0  0  0
    3.7428   -6.9106  -17.2010 H   0  0  0  0  0  0
  1  2  2  0  0  0
  2  3  2  0  0  0
  2  4  1  0  0  0
  2  5  1  0  0  0
  4 47  1  0  0  0
  4 48  1  0  0  0
  4 49  1  0  0  0
  5  6  1  0  0  0
  5  7  1  0  0  0
  6 50  1  0  0  0
  6 51  1  0  0  0
  6 52  1  0  0  0
  7  8  2  0  0  0
  7 10  1  0  0  0
  8  9  1  0  0  0
  8 53  1  0  0  0
  9 12  2  0  0  0
  9 39  1  0  0  0
 10 11  2  0  0  0
 10 54  1  0  0  0
 11 12  1  0  0  0
 11 13  1  0  0  0
 12 55  1  0  0  0
 13 14  2  0  0  0
 13 15  1  0  0  0
 15 16  1  0  0  0
 15 56  1  0  0  0
 16 17  1  0  0  0
 16 31  1  0  0  0
 16 57  1  0  0  0
 17 18  1  0  0  0
 17 30  1  0  0  0
 17 58  1  0  0  0
 18 19  1  0  0  0
 18 59  1  0  0  0
 18 60  1  0  0  0
 19 20  1  0  0  0
 19 61  1  0  0  0
 19 62  1  0  0  0
 20 21  1  0  0  0
 20 63  1  0  0  0
 20 64  1  0  0  0
 21 22  2  0  0  0
 21 29  1  0  0  0
 22 23  1  0  0  0
 22 65  1  0  0  0
 23 24  1  0  0  0
 23 27  2  0  0  0
 24 25  1  0  0  0
 24 26  1  0  0  0
 24 66  1  0  0  0
 25 67  1  0  0  0
 25 68  1  0  0  0
 25 69  1  0  0  0
 26 70  1  0  0  0
 26 71  1  0  0  0
 26 72  1  0  0  0
 27 28  1  0  0  0
 27 73  1  0  0  0
 28 29  2  0  0  0
 28 74  1  0  0  0
 29 75  1  0  0  0
 30 76  1  0  0  0
 31 32  1  0  0  0
 31 77  1  0  0  0
 31 78  1  0  0  0
 32 33  1  0  0  0
 33 34  1  0  0  0
 33 79  1  0  0  0
 33 80  1  0  0  0
 34 35  2  0  0  0
 34 81  1  0  0  0
 35 36  1  0  0  0
 35 82  1  0  0  0
 36 37  1  0  0  0
 36 83  1  0  0  0
 36 84  1  0  0  0
 37 38  1  0  0  0
 37 41  1  0  0  0
 37 85  1  0  0  0
 38 39  1  0  0  0
 38 86  1  0  0  0
 39 40  2  0  0  0
 41 42  2  0  0  0
 41 46  1  0  0  0
 42 43  1  0  0  0
 42 87  1  0  0  0
 43 44  2  0  0  0
 43 88  1  0  0  0
 44 45  1  0  0  0
 44 89  1  0  0  0
 45 46  2  0  0  0
 45 90  1  0  0  0
 46 91  1  0  0  0
M  CHG  1  19   1
M  END
> <s_m_source_file>
../4dpf_ligand.sdf

> <i_m_source_file_index>
1

> <s_epik_input>
W2NIXTFbY0hdW2NIXWMoW0NIXShbQ0gzXSlbQ0gzXSlbY0hdYzFbQ0gyXVtOSDIrXVtDSDJdW0NAQEhdKFtPSF0pW0NAQEhdKFtOSF1DKD1PKWMoW2NIXTIpW2NIXWMoW2NIXWMyMylOKFtDSDNdKVMoPU8pKD1PKVtDSDNdKVtDSDJdT1tDSDJdL1tDSF09W0NIXS9bQ0gyXVtDQEhdKFtOSF1DMz1PKWM0W2NIXVtjSF1bY0hdW2NIXVtjSF00

> <s_epik_cmdline>
J2VwaWtfYXBwJywgJy1pbWFlJywgJ2xpZ2FuZF9wcm8ubWFlJywgJy1vbWFlJywgJ2xpZ2FuZF9wcmVwLm1hZScsICctbXMnLCAnMScsICctcGgnLCAnNycsICctcGh0JywgJzAuNScsICctbnQn

> <r_epik_Ionization_Penalty>
  0.0217

> <r_epik_Ionization_Penalty_Charging>
  0.0217

> <r_epik_Ionization_Penalty_Neutral>
  0.0000

> <r_epik_State_Penalty>
  0.0175

> <r_epik_Charging_Adjusted_Penalty>
0.0391974128755065

> <i_epik_Tot_Q>
1

> <i_epik_Tot_abs_Q>
1

$$$$
