4dpi_ligand
                    3D
 Schrodinger Suite 2020-3.
 85 88  0  0  1  0            999 V2000
   -2.5530   -4.2850   17.3670 C   0  0  0  0  0  0
   -7.2900   -1.5900   15.3580 C   0  0  0  0  0  0
   -7.8740   -0.3620   15.0450 C   0  0  0  0  0  0
   -7.5710    0.8070   15.7960 C   0  0  0  0  0  0
   -6.3920   -1.6900   16.4540 C   0  0  0  0  0  0
   -6.1650   -0.5570   17.2340 C   0  0  0  0  0  0
   -6.7020    0.6800   16.8830 C   0  0  0  0  0  0
   -5.7040   -2.9470   16.8500 C   0  0  2  0  0  0
   -2.2010   -5.5540   16.8760 C   0  0  0  0  0  0
   -3.8310   -3.9130   19.6080 C   0  0  0  0  0  0
   -3.6130   -2.4890   20.0920 C   0  0  0  0  0  0
   -5.5210    8.1460   19.1550 C   0  0  0  0  0  0
   -5.8240    9.0420   21.3870 C   0  0  0  0  0  0
   -5.2670   10.4460   21.2630 C   0  0  0  0  0  0
   -6.6680    8.8170   22.6390 C   0  0  0  0  0  0
   -4.2620    1.8610   20.4580 C   0  0  0  0  0  0
   -7.7760    8.6230   19.7660 C   0  0  0  0  0  0
   -6.4400    8.6080   20.0920 C   0  0  0  0  0  0
   -7.2850    7.6800   17.5910 C   0  0  0  0  0  0
   -6.4460    1.8840   17.7320 C   0  0  0  0  0  0
   -4.1610    3.9310   19.0150 C   0  0  2  0  0  0
   -4.8840    4.7840   17.9550 C   0  0  0  0  0  0
   -4.8810    7.1310   16.9430 C   0  0  0  0  0  0
   -5.9300    7.6610   17.9220 C   0  0  0  0  0  0
   -7.3940    2.7290   17.8780 O   0  0  0  0  0  0
   -5.2480    1.9280   18.3100 N   0  0  0  0  0  0
   -4.9970    2.7420   19.4720 C   0  0  1  0  0  0
   -4.1300    5.9700   17.5270 N   0  3  0  0  0  0
   -8.2010    8.1320   18.5330 C   0  0  0  0  0  0
   -3.7460    4.7230   20.1540 O   0  0  0  0  0  0
   -4.9760    0.6120   20.6100 O   0  0  0  0  0  0
   -4.1540   -0.4140   21.2310 C   0  0  0  0  0  0
   -4.5270   -1.8210   20.8140 C   0  0  0  0  0  0
   -3.8820   -4.0720   18.0850 C   0  0  1  0  0  0
   -0.9920   -5.7390   16.1720 C   0  0  0  0  0  0
   -0.1510   -4.6340   15.9610 C   0  0  0  0  0  0
   -0.5010   -3.3610   16.4140 C   0  0  0  0  0  0
   -1.7190   -3.2030   17.0700 C   0  0  0  0  0  0
   -4.5550   -2.9050   17.5850 N   0  3  0  0  0  0
   -6.1840   -4.0010   16.0000 O   0  5  0  0  0  0
   -8.8380   -0.2240   13.8750 C   0  0  0  0  0  0
   -7.5228   -2.4722   14.7617 H   0  0  0  0  0  0
   -8.0032    1.7722   15.5319 H   0  0  0  0  0  0
   -5.5566   -0.6403   18.1345 H   0  0  0  0  0  0
   -5.6671   -3.4223   17.8413 H   0  0  0  0  0  0
   -2.8666   -6.4014   17.0402 H   0  0  0  0  0  0
   -3.0104   -4.5518   19.9666 H   0  0  0  0  0  0
   -4.7873   -4.2908   19.9988 H   0  0  0  0  0  0
   -2.6605   -2.0061   19.8282 H   0  0  0  0  0  0
   -4.4579    8.1657   19.3951 H   0  0  0  0  0  0
   -4.9840    8.3490   21.5423 H   0  0  0  0  0  0
   -4.8191   10.7487   22.2210 H   0  0  0  0  0  0
   -6.0789   11.1408   21.0020 H   0  0  0  0  0  0
   -4.4988   10.4675   20.4760 H   0  0  0  0  0  0
   -6.1161    9.1719   23.5219 H   0  0  0  0  0  0
   -6.8832    7.7438   22.7481 H   0  0  0  0  0  0
   -7.6128    9.3732   22.5491 H   0  0  0  0  0  0
   -3.2467    1.6611   20.0850 H   0  0  0  0  0  0
   -4.2015    2.3707   21.4309 H   0  0  0  0  0  0
   -8.5040    9.0198   20.4736 H   0  0  0  0  0  0
   -7.6199    7.3456   16.6091 H   0  0  0  0  0  0
   -3.2241    3.5575   18.5760 H   0  0  0  0  0  0
   -5.0682    4.1750   17.0576 H   0  0  0  0  0  0
   -5.8431    5.1380   18.3610 H   0  0  0  0  0  0
   -5.3767    6.7988   16.0189 H   0  0  0  0  0  0
   -4.1628    7.9301   16.7070 H   0  0  0  0  0  0
   -4.4383    1.3216   17.8779 H   0  0  0  0  0  0
   -5.9344    3.1013   19.9215 H   0  0  0  0  0  0
   -3.5908    6.3921   18.3879 H   0  0  0  0  0  0
   -3.4089    5.6843   16.7470 H   0  0  0  0  0  0
   -9.2664    8.1021   18.3045 H   0  0  0  0  0  0
   -3.1322    5.6233   20.0035 H   0  0  0  0  0  0
   -3.1009   -0.2570   20.9549 H   0  0  0  0  0  0
   -4.2589   -0.3559   22.3244 H   0  0  0  0  0  0
   -5.4832   -2.3006   21.0700 H   0  0  0  0  0  0
   -4.4566   -4.9766   17.8371 H   0  0  0  0  0  0
   -0.7150   -6.7245   15.7976 H   0  0  0  0  0  0
    0.7927   -4.7732   15.4336 H   0  0  0  0  0  0
    0.1632   -2.5110   16.2580 H   0  0  0  0  0  0
   -2.0331   -2.2009   17.3621 H   0  0  0  0  0  0
   -3.7615   -2.4201   16.9975 H   0  0  0  0  0  0
   -4.7305   -2.3320   18.5074 H   0  0  0  0  0  0
   -8.9738   -1.2040   13.3943 H   0  0  0  0  0  0
   -8.4283    0.4891   13.1445 H   0  0  0  0  0  0
   -9.8085    0.1426   14.2408 H   0  0  0  0  0  0
  1  9  2  0  0  0
  1 34  1  0  0  0
  1 38  1  0  0  0
  2  3  2  0  0  0
  2  5  1  0  0  0
  2 42  1  0  0  0
  3  4  1  0  0  0
  3 41  1  0  0  0
  4  7  2  0  0  0
  4 43  1  0  0  0
  5  6  2  0  0  0
  5  8  1  0  0  0
  6  7  1  0  0  0
  6 44  1  0  0  0
  7 20  1  0  0  0
  8 39  1  0  0  0
  8 40  1  0  0  0
  8 45  1  0  0  0
  9 35  1  0  0  0
  9 46  1  0  0  0
 10 11  1  0  0  0
 10 34  1  0  0  0
 10 47  1  0  0  0
 10 48  1  0  0  0
 11 33  2  0  0  0
 11 49  1  0  0  0
 12 18  2  0  0  0
 12 24  1  0  0  0
 12 50  1  0  0  0
 13 14  1  0  0  0
 13 15  1  0  0  0
 13 18  1  0  0  0
 13 51  1  0  0  0
 14 52  1  0  0  0
 14 53  1  0  0  0
 14 54  1  0  0  0
 15 55  1  0  0  0
 15 56  1  0  0  0
 15 57  1  0  0  0
 16 27  1  0  0  0
 16 31  1  0  0  0
 16 58  1  0  0  0
 16 59  1  0  0  0
 17 18  1  0  0  0
 17 29  2  0  0  0
 17 60  1  0  0  0
 19 24  2  0  0  0
 19 29  1  0  0  0
 19 61  1  0  0  0
 20 25  2  0  0  0
 20 26  1  0  0  0
 21 22  1  0  0  0
 21 27  1  0  0  0
 21 30  1  0  0  0
 21 62  1  0  0  0
 22 28  1  0  0  0
 22 63  1  0  0  0
 22 64  1  0  0  0
 23 24  1  0  0  0
 23 28  1  0  0  0
 23 65  1  0  0  0
 23 66  1  0  0  0
 26 27  1  0  0  0
 26 67  1  0  0  0
 27 68  1  0  0  0
 28 69  1  0  0  0
 28 70  1  0  0  0
 29 71  1  0  0  0
 30 72  1  0  0  0
 31 32  1  0  0  0
 32 33  1  0  0  0
 32 73  1  0  0  0
 32 74  1  0  0  0
 33 75  1  0  0  0
 34 39  1  0  0  0
 34 76  1  0  0  0
 35 36  2  0  0  0
 35 77  1  0  0  0
 36 37  1  0  0  0
 36 78  1  0  0  0
 37 38  2  0  0  0
 37 79  1  0  0  0
 38 80  1  0  0  0
 39 81  1  0  0  0
 39 82  1  0  0  0
 41 83  1  0  0  0
 41 84  1  0  0  0
 41 85  1  0  0  0
M  CHG  3  28   1  39   1  40  -1
M  END
> <s_m_source_file>
../4dpi_ligand.sdf

> <i_m_source_file_index>
1

> <s_epik_input>
W2NIXTFbY0hdW2NIXVtjSF1bY0hdYzFbQ0BIXShbTkgyK11bQ0BASF0yW09IXSlbQ0gyXS9bQ0hdPVtDSF0vW0NIMl1PW0NIMl1bQ0BIXShbTkhdQyg9TyljKFtjSF0zKVtjSF1jKFtjSF1jMjMpW0NIM10pW0NASF0oW09IXSlbQ0gyXVtOSDIrXVtDSDJdYyhbY0hdW2NIXVtjSF00KVtjSF1jNFtDSF0oW0NIM10pW0NIM10=

> <s_epik_cmdline>
J2VwaWtfYXBwJywgJy1pbWFlJywgJ2xpZ2FuZF9wcm8ubWFlJywgJy1vbWFlJywgJ2xpZ2FuZF9wcmVwLm1hZScsICctbXMnLCAnMScsICctcGgnLCAnNycsICctcGh0JywgJzAuNScsICctbnQn

> <r_lp_tautomer_probability>
1

> <r_epik_Ionization_Penalty>
  0.2772

> <r_epik_Ionization_Penalty_Charging>
  0.2772

> <r_epik_Ionization_Penalty_Neutral>
  0.0000

> <r_epik_State_Penalty>
 -0.0000

> <r_epik_Charging_Adjusted_Penalty>
0.277207720858345

> <i_epik_Tot_Q>
1

> <i_epik_Tot_abs_Q>
3

> <s_epik_Chemistry_Notes>
This compound contains an acetal/aminal-like group ( X-CH(R)-Y where X, Y are N, S, or O) that may be acid/base labile, releasing an aldehyde.

$$$$
