4dpt_ligand
                    3D
 Schrodinger Suite 2020-3.
 28 27  0  0  1  0            999 V2000
    4.1010   18.7850   21.5170 O   0  5  0  0  0  0
   12.1100   18.1940   22.2060 O   0  0  0  0  0  0
    8.7630   17.5150   21.1060 O   0  5  0  0  0  0
    3.9930   19.2690   23.6470 O   0  0  0  0  0  0
    4.4570   20.6900   19.7330 O   0  0  0  0  0  0
   12.9150   19.6540   20.4200 O   0  5  0  0  0  0
   11.7990   17.5660   19.8360 O   0  5  0  0  0  0
    9.6400   18.2250   18.9370 O   0  0  0  0  0  0
    4.7360   23.3690   19.3160 F   0  0  0  0  0  0
    4.2810   22.8180   20.4380 C   0  0  0  0  0  0
    7.1300   20.2010   21.0520 C   0  0  0  0  0  0
    6.3580   21.4970   20.8110 C   0  0  0  0  0  0
    4.2940   21.1120   22.1520 C   0  0  0  0  0  0
    7.9350   19.7080   20.0380 O   0  0  0  0  0  0
   10.4250   19.4130   20.8630 O   0  0  0  0  0  0
    4.1190   19.6480   22.4550 C   0  0  0  0  0  0
    4.8480   21.5000   20.7870 C   0  0  2  0  0  0
   11.8210   18.7090   20.8290 P   0  0  0  0  0  0
    9.1590   18.7130   20.2750 P   0  0  1  0  0  0
    4.8136   20.9025   18.7143 H   0  0  0  0  0  0
    4.5020   23.4806   21.2877 H   0  0  0  0  0  0
    3.1935   22.6721   20.3601 H   0  0  0  0  0  0
    7.8085   20.3321   21.9079 H   0  0  0  0  0  0
    6.4220   19.3870   21.2667 H   0  0  0  0  0  0
    6.6064   22.2236   21.5986 H   0  0  0  0  0  0
    6.6338   21.9111   19.8300 H   0  0  0  0  0  0
    3.3203   21.6193   22.2192 H   0  0  0  0  0  0
    4.9898   21.5563   22.8789 H   0  0  0  0  0  0
  1 16  1  0  0  0
  2 18  2  0  0  0
  3 19  1  0  0  0
  4 16  2  0  0  0
  5 17  1  0  0  0
  5 20  1  0  0  0
  6 18  1  0  0  0
  7 18  1  0  0  0
  8 19  2  0  0  0
  9 10  1  0  0  0
 10 17  1  0  0  0
 10 21  1  0  0  0
 10 22  1  0  0  0
 11 12  1  0  0  0
 11 14  1  0  0  0
 11 23  1  0  0  0
 11 24  1  0  0  0
 12 17  1  0  0  0
 12 25  1  0  0  0
 12 26  1  0  0  0
 13 16  1  0  0  0
 13 17  1  0  0  0
 13 27  1  0  0  0
 13 28  1  0  0  0
 14 19  1  0  0  0
 15 18  1  0  0  0
 15 19  1  0  0  0
M  CHG  4   1  -1   3  -1   6  -1   7  -1
M  END
> <s_m_source_file>
../4dpt_ligand.sdf

> <i_m_source_file_index>
1

> <s_epik_input>
W09IXUMoPU8pW0NIMl1bQ0BAXShbT0hdKShbQ0gyXUYpW0NIMl1bQ0gyXU9bUEBdKD1PKShbT0hdKU9QKD1PKShbT0hdKVtPSF0=

> <s_epik_cmdline>
J2VwaWtfYXBwJywgJy1pbWFlJywgJ2xpZ2FuZF9wcm8ubWFlJywgJy1vbWFlJywgJ2xpZ2FuZF9wcmVwLm1hZScsICctbXMnLCAnMScsICctcGgnLCAnNycsICctcGh0JywgJzAuNScsICctbnQn

> <r_epik_Ionization_Penalty>
  0.0883

> <r_epik_Ionization_Penalty_Charging>
  0.0883

> <r_epik_Ionization_Penalty_Neutral>
  0.0000

> <r_epik_State_Penalty>
  0.0757

> <r_epik_Charging_Adjusted_Penalty>
0.163990899422427

> <i_epik_Tot_Q>
-4

> <i_epik_Tot_abs_Q>
4

$$$$
