4dpu_ligand
                    3D
 Schrodinger Suite 2020-3.
 28 27  0  0  1  0            999 V2000
   17.0420  -24.2340  -18.7000 O   0  5  0  0  0  0
   17.5580  -16.6470  -18.9670 O   0  5  0  0  0  0
   18.0470  -19.1080  -19.6760 O   0  0  0  0  0  0
   16.1790  -24.2440  -16.6830 O   0  0  0  0  0  0
   15.4250  -24.0090  -20.8040 O   0  0  0  0  0  0
   16.3260  -15.2800  -20.5980 O   0  0  0  0  0  0
   18.3500  -16.4970  -21.3020 O   0  5  0  0  0  0
   17.2160  -19.7850  -21.9050 O   0  5  0  0  0  0
   12.6390  -23.5170  -21.4900 F   0  0  0  0  0  0
   13.1720  -24.1890  -20.4720 C   0  0  0  0  0  0
   15.6510  -21.4220  -20.2150 C   0  0  0  0  0  0
   14.4180  -22.1840  -19.7770 C   0  0  0  0  0  0
   14.6390  -24.2970  -18.5220 C   0  0  0  0  0  0
   15.7330  -20.0890  -19.8790 O   0  0  0  0  0  0
   16.2620  -17.7600  -20.7820 O   0  0  0  0  0  0
   16.0260  -24.2560  -17.9340 C   0  0  0  0  0  0
   14.4360  -23.6790  -19.8970 C   0  0  2  0  0  0
   17.1260  -16.5380  -20.4100 P   0  0  0  0  0  0
   16.8280  -19.1840  -20.5650 P   0  0  1  0  0  0
   15.3816  -23.6184  -21.8314 H   0  0  0  0  0  0
   12.4608  -24.2086  -19.6331 H   0  0  0  0  0  0
   13.3940  -25.2188  -20.7885 H   0  0  0  0  0  0
   16.5451  -21.8864  -19.7735 H   0  0  0  0  0  0
   15.7279  -21.4483  -21.3120 H   0  0  0  0  0  0
   14.2224  -21.9846  -18.7130 H   0  0  0  0  0  0
   13.5543  -21.8592  -20.3757 H   0  0  0  0  0  0
   14.3151  -25.3432  -18.6248 H   0  0  0  0  0  0
   13.9437  -23.7614  -17.8590 H   0  0  0  0  0  0
  1 16  1  0  0  0
  2 18  1  0  0  0
  3 19  2  0  0  0
  4 16  2  0  0  0
  5 17  1  0  0  0
  5 20  1  0  0  0
  6 18  2  0  0  0
  7 18  1  0  0  0
  8 19  1  0  0  0
  9 10  1  0  0  0
 10 17  1  0  0  0
 10 21  1  0  0  0
 10 22  1  0  0  0
 11 12  1  0  0  0
 11 14  1  0  0  0
 11 23  1  0  0  0
 11 24  1  0  0  0
 12 17  1  0  0  0
 12 25  1  0  0  0
 12 26  1  0  0  0
 13 16  1  0  0  0
 13 17  1  0  0  0
 13 27  1  0  0  0
 13 28  1  0  0  0
 14 19  1  0  0  0
 15 18  1  0  0  0
 15 19  1  0  0  0
M  CHG  4   1  -1   2  -1   7  -1   8  -1
M  END
> <s_m_source_file>
../4dpu_ligand.sdf

> <i_m_source_file_index>
1

> <s_epik_input>
W09IXUMoPU8pW0NIMl1bQ0BAXShbT0hdKShbQ0gyXUYpW0NIMl1bQ0gyXU9bUEBAXSg9TykoW09IXSlPUCg9TykoW09IXSlbT0hd

> <s_epik_cmdline>
J2VwaWtfYXBwJywgJy1pbWFlJywgJ2xpZ2FuZF9wcm8ubWFlJywgJy1vbWFlJywgJ2xpZ2FuZF9wcmVwLm1hZScsICctbXMnLCAnMScsICctcGgnLCAnNycsICctcGh0JywgJzAuNScsICctbnQn

> <r_epik_Ionization_Penalty>
  0.0883

> <r_epik_Ionization_Penalty_Charging>
  0.0883

> <r_epik_Ionization_Penalty_Neutral>
  0.0000

> <r_epik_State_Penalty>
  0.0757

> <r_epik_Charging_Adjusted_Penalty>
0.163990899422427

> <i_epik_Tot_Q>
-4

> <i_epik_Tot_abs_Q>
4

$$$$
