4dpy_ligand
                    3D
 Schrodinger Suite 2020-3.
 29 29  0  0  1  0            999 V2000
  -15.9740  -27.4680  -18.1890 C   0  0  0  0  0  0
  -14.4210  -28.0620  -20.0300 N   0  0  0  0  0  0
  -16.3070  -27.3750  -16.9450 O   0  5  0  0  0  0
  -14.5360  -27.8650  -18.5930 C   0  0  1  0  0  0
  -13.5500  -26.8410  -18.1960 C   0  0  0  0  0  0
  -13.6730  -26.9580  -20.5800 C   0  0  0  0  0  0
  -12.8260  -26.4270  -19.4530 C   0  0  0  0  0  0
  -14.7860  -29.2100  -22.0180 O   0  0  0  0  0  0
  -17.4520  -34.8890  -18.4740 O   0  5  0  0  0  0
  -18.0110  -32.6750  -22.1720 O   0  5  0  0  0  0
  -15.9250  -35.9850  -20.0520 O   0  0  0  0  0  0
  -18.1860  -35.2930  -20.8280 O   0  5  0  0  0  0
  -18.2510  -31.9100  -19.7870 O   0  0  0  0  0  0
  -15.7160  -30.2730  -20.1640 C   0  0  0  0  0  0
  -16.3210  -31.0950  -21.1950 O   0  0  0  0  0  0
  -16.4060  -33.5550  -20.4020 O   0  0  0  0  0  0
  -14.9630  -29.1850  -20.8100 C   0  0  0  0  0  0
  -17.0040  -34.9460  -19.9320 P   0  0  0  0  0  0
  -17.2790  -32.3280  -20.8740 P   0  0  2  0  0  0
  -16.8650  -27.2190  -19.0730 O   0  0  0  0  0  0
  -14.2749  -28.8132  -18.1003 H   0  0  0  0  0  0
  -14.0723  -25.9845  -17.7449 H   0  0  0  0  0  0
  -12.8499  -27.2703  -17.4642 H   0  0  0  0  0  0
  -13.0484  -27.3164  -21.4115 H   0  0  0  0  0  0
  -14.3696  -26.1907  -20.9489 H   0  0  0  0  0  0
  -12.7460  -25.3304  -19.4858 H   0  0  0  0  0  0
  -11.8185  -26.8684  -19.4581 H   0  0  0  0  0  0
  -16.5035  -29.8524  -19.5213 H   0  0  0  0  0  0
  -15.0364  -30.8884  -19.5561 H   0  0  0  0  0  0
  1  3  1  0  0  0
  1  4  1  0  0  0
  1 20  2  0  0  0
  2  4  1  0  0  0
  2  6  1  0  0  0
  2 17  1  0  0  0
  4  5  1  0  0  0
  4 21  1  0  0  0
  5  7  1  0  0  0
  5 22  1  0  0  0
  5 23  1  0  0  0
  6  7  1  0  0  0
  6 24  1  0  0  0
  6 25  1  0  0  0
  7 26  1  0  0  0
  7 27  1  0  0  0
  8 17  2  0  0  0
  9 18  1  0  0  0
 10 19  1  0  0  0
 11 18  2  0  0  0
 12 18  1  0  0  0
 13 19  2  0  0  0
 14 15  1  0  0  0
 14 17  1  0  0  0
 14 28  1  0  0  0
 14 29  1  0  0  0
 15 19  1  0  0  0
 16 18  1  0  0  0
 16 19  1  0  0  0
M  CHG  4   3  -1   9  -1  10  -1  12  -1
M  END
> <s_m_source_file>
../4dpy_ligand.sdf

> <i_m_source_file_index>
1

> <s_epik_input>
W0NIMl0xW0NIMl1bQ0gyXVtDQEBIXShDKD1PKVtPSF0pTjFDKD1PKVtDSDJdT1tQQEBdKD1PKShbT0hdKU9QKD1PKShbT0hdKVtPSF0=

> <s_epik_cmdline>
J2VwaWtfYXBwJywgJy1pbWFlJywgJ2xpZ2FuZF9wcm8ubWFlJywgJy1vbWFlJywgJ2xpZ2FuZF9wcmVwLm1hZScsICctbXMnLCAnMScsICctcGgnLCAnNycsICctcGh0JywgJzAuNScsICctbnQn

> <r_epik_Ionization_Penalty>
  0.0821

> <r_epik_Ionization_Penalty_Charging>
  0.0821

> <r_epik_Ionization_Penalty_Neutral>
  0.0000

> <r_epik_State_Penalty>
  0.0714

> <r_epik_Charging_Adjusted_Penalty>
0.153509210739151

> <i_epik_Tot_Q>
-4

> <i_epik_Tot_abs_Q>
4

$$$$
