4dr9_ligand
                    3D
 Schrodinger Suite 2020-3.
 62 62  0  0  1  0            999 V2000
   36.2650   51.8780    4.4090 C   0  0  0  0  0  0
   35.4980   53.1490    4.6880 C   0  0  0  0  0  0
   34.5060   53.2580    5.3860 O   0  0  0  0  0  0
   35.8890   54.1890    4.0480 N   0  0  0  0  0  0
   35.1970   55.3280    4.3480 O   0  0  0  0  0  0
   35.5840   51.1860    3.2220 C   0  0  2  0  0  0
   35.9210   49.7340    3.2970 C   0  0  0  0  0  0
   37.0670   49.3540    3.2870 O   0  0  0  0  0  0
   36.0260   51.7780    1.8890 C   0  0  0  0  0  0
   35.5440   51.0470    0.6130 C   0  0  0  0  0  0
   34.0370   51.0680    0.4650 C   0  0  0  0  0  0
   33.6260   50.7650   -0.9840 C   0  0  0  0  0  0
   33.4270   49.2690   -1.1700 C   0  0  0  0  0  0
   34.8850   48.8980    3.3610 N   0  0  0  0  0  0
   34.9840   47.4520    3.3090 C   0  0  1  0  0  0
   34.5580   46.8490    4.6600 C   0  0  0  0  0  0
   35.0510   45.4250    4.8090 C   0  0  0  0  0  0
   35.1120   47.6630    5.8280 C   0  0  0  0  0  0
   34.1090   46.9480    2.1830 C   0  0  0  0  0  0
   32.9120   47.1520    2.2360 O   0  0  0  0  0  0
   34.5880   46.3080    1.1450 N   0  0  0  0  0  0
   33.6580   45.7500    0.1650 C   0  0  1  0  0  0
   35.9920   46.1150    0.8230 C   0  0  0  0  0  0
   35.9370   45.6390   -0.6180 C   0  0  0  0  0  0
   34.5490   45.1230   -0.9010 C   0  0  0  0  0  0
   32.7100   44.7040    0.7590 C   0  0  0  0  0  0
   33.4340   43.5300    1.1420 O   0  0  0  0  0  0
   37.3086   52.1256    4.1648 H   0  0  0  0  0  0
   36.2401   51.2318    5.2989 H   0  0  0  0  0  0
   36.7048   54.2192    3.3107 H   0  0  0  0  0  0
   35.4555   56.2753    3.8523 H   0  0  0  0  0  0
   34.4925   51.3116    3.2751 H   0  0  0  0  0  0
   35.6516   52.8088    1.8034 H   0  0  0  0  0  0
   37.1247   51.7814    1.8356 H   0  0  0  0  0  0
   35.9775   51.5327   -0.2737 H   0  0  0  0  0  0
   35.8655   49.9956    0.6492 H   0  0  0  0  0  0
   33.5931   50.3084    1.1253 H   0  0  0  0  0  0
   33.6553   52.0620    0.7410 H   0  0  0  0  0  0
   32.6847   51.2854   -1.2146 H   0  0  0  0  0  0
   34.4139   51.1118   -1.6688 H   0  0  0  0  0  0
   33.1333   49.0647   -2.2102 H   0  0  0  0  0  0
   32.6373   48.9168   -0.4901 H   0  0  0  0  0  0
   34.3665   48.7433   -0.9443 H   0  0  0  0  0  0
   33.9006   49.3787    3.4602 H   0  0  0  0  0  0
   36.0339   47.1978    3.1013 H   0  0  0  0  0  0
   33.4583   46.8542    4.6854 H   0  0  0  0  0  0
   34.6659   44.8149    3.9787 H   0  0  0  0  0  0
   34.6944   45.0116    5.7640 H   0  0  0  0  0  0
   36.1508   45.4142    4.7926 H   0  0  0  0  0  0
   34.7684   48.7046    5.7446 H   0  0  0  0  0  0
   36.2114   47.6365    5.8045 H   0  0  0  0  0  0
   34.7550   47.2339    6.7759 H   0  0  0  0  0  0
   33.0197   46.5652   -0.2064 H   0  0  0  0  0  0
   36.5288   47.0683    0.9373 H   0  0  0  0  0  0
   36.4247   45.3667    1.5033 H   0  0  0  0  0  0
   36.1691   46.4781   -1.2904 H   0  0  0  0  0  0
   36.6731   44.8353   -0.7670 H   0  0  0  0  0  0
   34.5028   44.0270   -0.8192 H   0  0  0  0  0  0
   34.2007   45.4313   -1.8978 H   0  0  0  0  0  0
   32.2126   45.1220    1.6466 H   0  0  0  0  0  0
   31.9529   44.4281    0.0102 H   0  0  0  0  0  0
   32.9020   42.6769    1.5882 H   0  0  0  0  0  0
  1  2  1  0  0  0
  1  6  1  0  0  0
  1 28  1  0  0  0
  1 29  1  0  0  0
  2  3  2  0  0  0
  2  4  1  0  0  0
  4  5  1  0  0  0
  4 30  1  0  0  0
  5 31  1  0  0  0
  6  7  1  0  0  0
  6  9  1  0  0  0
  6 32  1  0  0  0
  7  8  2  0  0  0
  7 14  1  0  0  0
  9 10  1  0  0  0
  9 33  1  0  0  0
  9 34  1  0  0  0
 10 11  1  0  0  0
 10 35  1  0  0  0
 10 36  1  0  0  0
 11 12  1  0  0  0
 11 37  1  0  0  0
 11 38  1  0  0  0
 12 13  1  0  0  0
 12 39  1  0  0  0
 12 40  1  0  0  0
 13 41  1  0  0  0
 13 42  1  0  0  0
 13 43  1  0  0  0
 14 15  1  0  0  0
 14 44  1  0  0  0
 15 16  1  0  0  0
 15 19  1  0  0  0
 15 45  1  0  0  0
 16 17  1  0  0  0
 16 18  1  0  0  0
 16 46  1  0  0  0
 17 47  1  0  0  0
 17 48  1  0  0  0
 17 49  1  0  0  0
 18 50  1  0  0  0
 18 51  1  0  0  0
 18 52  1  0  0  0
 19 20  2  0  0  0
 19 21  1  0  0  0
 21 22  1  0  0  0
 21 23  1  0  0  0
 22 25  1  0  0  0
 22 26  1  0  0  0
 22 53  1  0  0  0
 23 24  1  0  0  0
 23 54  1  0  0  0
 23 55  1  0  0  0
 24 25  1  0  0  0
 24 56  1  0  0  0
 24 57  1  0  0  0
 25 58  1  0  0  0
 25 59  1  0  0  0
 26 27  1  0  0  0
 26 60  1  0  0  0
 26 61  1  0  0  0
 27 62  1  0  0  0
M  END
> <s_m_source_file>
../4dr9_ligand.sdf

> <i_m_source_file_index>
1

> <s_epik_input>
W0NIM11bQ0gyXVtDSDJdW0NIMl1bQ0gyXVtDQEhdKFtDSDJdQyg9TylbTkhdW09IXSlDKD1PKVtOSF1bQ0BASF0oW0NIXShbQ0gzXSlbQ0gzXSlDKD1PKU4xW0NASF0oW0NIMl1bT0hdKVtDSDJdW0NIMl1bQ0gyXTE=

> <s_epik_cmdline>
J2VwaWtfYXBwJywgJy1pbWFlJywgJ2xpZ2FuZF9wcm8ubWFlJywgJy1vbWFlJywgJ2xpZ2FuZF9wcmVwLm1hZScsICctbXMnLCAnMScsICctcGgnLCAnNycsICctcGh0JywgJzAuNScsICctbnQn

> <r_lp_tautomer_probability>
1

> <r_epik_Ionization_Penalty>
  0.0055

> <r_epik_Ionization_Penalty_Charging>
  0.0000

> <r_epik_Ionization_Penalty_Neutral>
  0.0055

> <r_epik_State_Penalty>
 -0.0000

> <r_epik_Charging_Adjusted_Penalty>
0

> <i_epik_Tot_Q>
0

> <i_epik_Tot_abs_Q>
0

> <s_epik_Chemistry_Notes>
This compound has a N-S or N-O group and may undergo hydrolysis at high or low pH.

$$$$
