4drm_ligand
                    3D
 Schrodinger Suite 2020-3.
 90 93  0  0  1  0            999 V2000
   26.5360   16.0350  -22.4370 C   0  0  0  0  0  0
   27.7260   15.7860  -21.4930 C   0  0  0  0  0  0
   28.4180   14.4040  -21.6720 C   0  0  2  0  0  0
   28.6010   13.9760  -23.1480 C   0  0  0  0  0  0
   29.4660   12.6940  -23.2320 C   0  0  0  0  0  0
   28.8480   11.5260  -22.4280 C   0  0  0  0  0  0
   28.5710   11.9180  -20.9600 C   0  0  0  0  0  0
   27.7810   13.2500  -20.8290 C   0  0  2  0  0  0
   26.4500   13.0000  -21.2620 O   0  0  0  0  0  0
   27.7830   13.6320  -19.3380 C   0  0  0  0  0  0
   26.7620   13.6290  -18.6570 O   0  0  0  0  0  0
   29.0490   14.1080  -18.6270 C   0  0  0  0  0  0
   29.3210   15.3190  -18.7340 O   0  0  0  0  0  0
   29.7800   13.2670  -17.8810 N   0  0  0  0  0  0
   29.4110   11.7890  -17.7400 C   0  0  0  0  0  0
   29.4020   11.3940  -16.2520 C   0  0  0  0  0  0
   30.7330   11.8090  -15.5660 C   0  0  0  0  0  0
   30.9690   13.3270  -15.7400 C   0  0  0  0  0  0
   30.9930   13.7590  -17.2200 C   0  0  1  0  0  0
   32.2510   13.2290  -17.9100 C   0  0  0  0  0  0
   33.3590   13.3900  -17.4090 O   0  0  0  0  0  0
   32.1020   12.6040  -19.0770 O   0  0  0  0  0  0
   33.2870   12.1460  -19.7830 C   0  0  2  0  0  0
   33.5020   13.0620  -20.9810 C   0  0  0  0  0  0
   34.9240   12.8360  -21.5870 C   0  0  0  0  0  0
   36.1080   13.4320  -20.7540 C   0  0  0  0  0  0
   36.3280   14.8170  -20.7830 C   0  0  0  0  0  0
   36.9390   12.6300  -19.9900 C   0  0  0  0  0  0
   37.9940   13.1740  -19.2410 C   0  0  0  0  0  0
   38.2100   14.5640  -19.2820 C   0  0  0  0  0  0
   39.2250   15.2090  -18.5920 O   0  0  0  0  0  0
   40.2000   14.3580  -17.9450 C   0  0  0  0  0  0
   37.3740   15.3770  -20.0380 C   0  0  0  0  0  0
   37.6550   16.7170  -20.0090 O   0  0  0  0  0  0
   36.9080   17.6200  -20.8600 C   0  0  0  0  0  0
   33.0090   10.6510  -20.0300 C   0  0  0  0  0  0
   33.7240    9.7330  -19.2740 C   0  0  0  0  0  0
   32.0650   10.2190  -20.9830 C   0  0  0  0  0  0
   31.8710    8.8430  -21.1410 C   0  0  0  0  0  0
   32.5850    7.9230  -20.3680 C   0  0  0  0  0  0
   33.5220    8.3650  -19.4120 C   0  0  0  0  0  0
   34.2820    7.5430  -18.5720 O   0  0  0  0  0  0
   33.9340    6.1270  -18.4460 C   0  0  0  0  0  0
   34.4220    5.4240  -19.7240 C   0  0  0  0  0  0
   35.3470    5.9640  -20.3840 O   0  5  0  0  0  0
   33.8520    4.3570  -20.0500 O   0  0  0  0  0  0
   26.1129   17.0308  -22.2388 H   0  0  0  0  0  0
   25.7657   15.2686  -22.2659 H   0  0  0  0  0  0
   26.8791   15.9835  -23.4809 H   0  0  0  0  0  0
   28.4963   16.5524  -21.6641 H   0  0  0  0  0  0
   27.3830   15.8375  -20.4491 H   0  0  0  0  0  0
   29.4275   14.5802  -21.2721 H   0  0  0  0  0  0
   27.6167   13.7753  -23.5963 H   0  0  0  0  0  0
   29.0998   14.7831  -23.7047 H   0  0  0  0  0  0
   29.5545   12.3796  -24.2824 H   0  0  0  0  0  0
   30.4671   12.8998  -22.8252 H   0  0  0  0  0  0
   27.8954   11.2268  -22.8895 H   0  0  0  0  0  0
   29.5410   10.6718  -22.4308 H   0  0  0  0  0  0
   27.9788   11.1280  -20.4750 H   0  0  0  0  0  0
   29.5253   12.0405  -20.4268 H   0  0  0  0  0  0
   26.2561   12.7124  -22.3059 H   0  0  0  0  0  0
   28.4122   11.6180  -18.1679 H   0  0  0  0  0  0
   30.1494   11.1740  -18.2753 H   0  0  0  0  0  0
   28.5674   11.8990  -15.7437 H   0  0  0  0  0  0
   29.2805   10.3044  -16.1626 H   0  0  0  0  0  0
   30.6819   11.5721  -14.4930 H   0  0  0  0  0  0
   31.5684   11.2588  -16.0236 H   0  0  0  0  0  0
   30.1627   13.8832  -15.2395 H   0  0  0  0  0  0
   31.9359   13.6014  -15.2930 H   0  0  0  0  0  0
   30.9772   14.8546  -17.3172 H   0  0  0  0  0  0
   34.2302   12.2375  -19.2245 H   0  0  0  0  0  0
   32.7453   12.8446  -21.7492 H   0  0  0  0  0  0
   33.4099   14.1107  -20.6620 H   0  0  0  0  0  0
   35.1171   11.7568  -21.6765 H   0  0  0  0  0  0
   34.9767   13.3016  -22.5822 H   0  0  0  0  0  0
   35.6846   15.4581  -21.3856 H   0  0  0  0  0  0
   36.7702   11.5533  -19.9699 H   0  0  0  0  0  0
   38.6350   12.5309  -18.6379 H   0  0  0  0  0  0
   40.9490   14.9810  -17.4343 H   0  0  0  0  0  0
   40.6976   13.7310  -18.6995 H   0  0  0  0  0  0
   39.6947   13.7150  -17.2093 H   0  0  0  0  0  0
   37.2654   18.6489  -20.7060 H   0  0  0  0  0  0
   35.8389   17.5616  -20.6076 H   0  0  0  0  0  0
   37.0523   17.3354  -21.9127 H   0  0  0  0  0  0
   34.4606   10.0930  -18.5558 H   0  0  0  0  0  0
   31.5022   10.9367  -21.5799 H   0  0  0  0  0  0
   31.1527    8.4829  -21.8775 H   0  0  0  0  0  0
   32.4159    6.8550  -20.5055 H   0  0  0  0  0  0
   34.4292    5.7053  -17.5589 H   0  0  0  0  0  0
   32.8438    6.0253  -18.3404 H   0  0  0  0  0  0
  1  2  1  0  0  0
  1 47  1  0  0  0
  1 48  1  0  0  0
  1 49  1  0  0  0
  2  3  1  0  0  0
  2 50  1  0  0  0
  2 51  1  0  0  0
  3  4  1  0  0  0
  3  8  1  0  0  0
  3 52  1  0  0  0
  4  5  1  0  0  0
  4 53  1  0  0  0
  4 54  1  0  0  0
  5  6  1  0  0  0
  5 55  1  0  0  0
  5 56  1  0  0  0
  6  7  1  0  0  0
  6 57  1  0  0  0
  6 58  1  0  0  0
  7  8  1  0  0  0
  7 59  1  0  0  0
  7 60  1  0  0  0
  8  9  1  0  0  0
  8 10  1  0  0  0
  9 61  1  0  0  0
 10 11  2  0  0  0
 10 12  1  0  0  0
 12 13  2  0  0  0
 12 14  1  0  0  0
 14 15  1  0  0  0
 14 19  1  0  0  0
 15 16  1  0  0  0
 15 62  1  0  0  0
 15 63  1  0  0  0
 16 17  1  0  0  0
 16 64  1  0  0  0
 16 65  1  0  0  0
 17 18  1  0  0  0
 17 66  1  0  0  0
 17 67  1  0  0  0
 18 19  1  0  0  0
 18 68  1  0  0  0
 18 69  1  0  0  0
 19 20  1  0  0  0
 19 70  1  0  0  0
 20 21  2  0  0  0
 20 22  1  0  0  0
 22 23  1  0  0  0
 23 24  1  0  0  0
 23 36  1  0  0  0
 23 71  1  0  0  0
 24 25  1  0  0  0
 24 72  1  0  0  0
 24 73  1  0  0  0
 25 26  1  0  0  0
 25 74  1  0  0  0
 25 75  1  0  0  0
 26 27  2  0  0  0
 26 28  1  0  0  0
 27 33  1  0  0  0
 27 76  1  0  0  0
 28 29  2  0  0  0
 28 77  1  0  0  0
 29 30  1  0  0  0
 29 78  1  0  0  0
 30 31  1  0  0  0
 30 33  2  0  0  0
 31 32  1  0  0  0
 32 79  1  0  0  0
 32 80  1  0  0  0
 32 81  1  0  0  0
 33 34  1  0  0  0
 34 35  1  0  0  0
 35 82  1  0  0  0
 35 83  1  0  0  0
 35 84  1  0  0  0
 36 37  2  0  0  0
 36 38  1  0  0  0
 37 41  1  0  0  0
 37 85  1  0  0  0
 38 39  2  0  0  0
 38 86  1  0  0  0
 39 40  1  0  0  0
 39 87  1  0  0  0
 40 41  2  0  0  0
 40 88  1  0  0  0
 41 42  1  0  0  0
 42 43  1  0  0  0
 43 44  1  0  0  0
 43 89  1  0  0  0
 43 90  1  0  0  0
 44 45  1  0  0  0
 44 46  2  0  0  0
M  CHG  1  45  -1
M  END
> <s_m_source_file>
../4drm_ligand.sdf

> <i_m_source_file_index>
1

> <s_epik_input>
W0NIMl0xW0NIMl1bQ0gyXVtDSDJdW0NAQEhdKFtDSDJdW0NIM10pW0NAXTEoW09IXSlDKD1PKUMoPU8pTjJbQ0gyXVtDSDJdW0NIMl1bQ0gyXVtDQEhdMkMoPU8pT1tDQEBIXShjM1tjSF1jKFtjSF1bY0hdW2NIXTMpT1tDSDJdQyg9TylbT0hdKVtDSDJdW0NIMl1jNFtjSF1jKE9bQ0gzXSljKFtjSF1bY0hdNClPW0NIM10=

> <s_epik_cmdline>
J2VwaWtfYXBwJywgJy1pbWFlJywgJ2xpZ2FuZF9wcm8ubWFlJywgJy1vbWFlJywgJ2xpZ2FuZF9wcmVwLm1hZScsICctbXMnLCAnMScsICctcGgnLCAnNycsICctcGh0JywgJzAuNScsICctbnQn

> <r_lp_tautomer_probability>
1

> <r_epik_Ionization_Penalty>
  0.0001

> <r_epik_Ionization_Penalty_Charging>
  0.0001

> <r_epik_Ionization_Penalty_Neutral>
  0.0000

> <r_epik_State_Penalty>
 -0.0000

> <r_epik_Charging_Adjusted_Penalty>
8.28261391569692e-05

> <i_epik_Tot_Q>
-1

> <i_epik_Tot_abs_Q>
1

> <s_epik_Chemistry_Notes>
This compound has an ester and may undergo hydrolysis at high or low pH.

$$$$
