4drn_ligand
                    3D
 Schrodinger Suite 2020-3.
 90 93  0  0  1  0            999 V2000
    5.9180    3.3580   -8.5660 C   0  0  0  0  0  0
    5.3800    1.9420   -8.4980 C   0  0  0  0  0  0
    6.0830    1.0530   -9.4980 C   0  0  2  0  0  0
    5.8530    1.6830  -10.8990 C   0  0  0  0  0  0
    6.4490    0.7800  -12.0010 C   0  0  0  0  0  0
    5.8110   -0.6050  -11.9460 C   0  0  0  0  0  0
    6.0220   -1.2270  -10.5690 C   0  0  0  0  0  0
    5.4670   -0.3380   -9.4450 C   0  0  2  0  0  0
    4.0360   -0.2250   -9.5680 O   0  0  0  0  0  0
    5.7960   -1.0600   -8.1270 C   0  0  0  0  0  0
    4.9270   -1.5760   -7.4130 O   0  0  0  0  0  0
    7.2130   -1.1940   -7.6250 C   0  0  0  0  0  0
    7.6730   -0.2400   -6.9960 O   0  0  0  0  0  0
    7.8930   -2.3270   -7.8090 N   0  0  0  0  0  0
    7.3630   -3.4770   -8.5690 C   0  0  0  0  0  0
    7.5210   -4.7840   -7.7920 C   0  0  0  0  0  0
    8.9670   -4.9340   -7.3480 C   0  0  0  0  0  0
    9.3640   -3.7870   -6.4610 C   0  0  0  0  0  0
    9.2400   -2.4430   -7.2180 C   0  0  1  0  0  0
   10.3430   -2.3530   -8.2480 C   0  0  0  0  0  0
   11.4840   -2.6490   -7.9810 O   0  0  0  0  0  0
    9.9570   -1.8950   -9.4410 O   0  0  0  0  0  0
   10.9870   -1.8150  -10.4700 C   0  0  2  0  0  0
   11.1690   -0.3600  -10.8540 C   0  0  0  0  0  0
   12.4220   -0.1540  -11.6970 C   0  0  0  0  0  0
   13.7150   -0.3270  -10.9020 C   0  0  0  0  0  0
   14.1230    0.6500  -10.0000 C   0  0  0  0  0  0
   14.5590   -1.4280  -11.1040 C   0  0  0  0  0  0
   15.7580   -1.5840  -10.3890 C   0  0  0  0  0  0
   16.1390   -0.5900   -9.4880 C   0  0  0  0  0  0
   17.2860   -0.6150   -8.7650 O   0  0  0  0  0  0
   18.2760   -1.6540   -9.0200 C   0  0  0  0  0  0
   15.3220    0.5250   -9.2830 C   0  0  0  0  0  0
   15.7840    1.4300   -8.3790 O   0  0  0  0  0  0
   15.0400    2.6390   -8.1960 C   0  0  0  0  0  0
   10.5620   -2.7220  -11.5950 C   0  0  0  0  0  0
    9.4700   -2.4610  -12.3710 C   0  0  0  0  0  0
   11.2840   -3.8880  -11.7660 C   0  0  0  0  0  0
   10.9970   -4.8130  -12.7370 C   0  0  0  0  0  0
    9.9200   -4.5250  -13.5370 C   0  0  0  0  0  0
    9.1610   -3.3830  -13.3640 C   0  0  0  0  0  0
    8.1570   -3.0810  -14.1830 O   0  0  0  0  0  0
    7.9210   -3.9680  -15.2570 C   0  0  0  0  0  0
    8.9430   -4.0250  -16.4020 C   0  0  0  0  0  0
    8.7710   -4.9890  -17.1860 O   0  0  0  0  0  0
    9.8760   -3.1730  -16.5290 O   0  5  0  0  0  0
    5.3927    3.9855   -7.8310 H   0  0  0  0  0  0
    5.7570    3.7633   -9.5759 H   0  0  0  0  0  0
    6.9946    3.3524   -8.3405 H   0  0  0  0  0  0
    5.5410    1.5367   -7.4881 H   0  0  0  0  0  0
    4.3034    1.9476   -8.7235 H   0  0  0  0  0  0
    7.1528    0.9646   -9.2577 H   0  0  0  0  0  0
    4.7736    1.7988  -11.0762 H   0  0  0  0  0  0
    6.3394    2.6687  -10.9422 H   0  0  0  0  0  0
    6.2550    1.2279  -12.9868 H   0  0  0  0  0  0
    7.5342    0.6838  -11.8491 H   0  0  0  0  0  0
    4.7319   -0.5196  -12.1413 H   0  0  0  0  0  0
    6.2714   -1.2513  -12.7077 H   0  0  0  0  0  0
    5.5091   -2.1990  -10.5233 H   0  0  0  0  0  0
    7.0981   -1.3717  -10.3930 H   0  0  0  0  0  0
    3.5967    0.2650  -10.4494 H   0  0  0  0  0  0
    6.2934   -3.3205   -8.7724 H   0  0  0  0  0  0
    7.9073   -3.5700   -9.5204 H   0  0  0  0  0  0
    6.8650   -4.7673   -6.9092 H   0  0  0  0  0  0
    7.2449   -5.6304   -8.4381 H   0  0  0  0  0  0
    9.0837   -5.8751   -6.7906 H   0  0  0  0  0  0
    9.6223   -4.9474   -8.2314 H   0  0  0  0  0  0
    8.7067   -3.7608   -5.5794 H   0  0  0  0  0  0
   10.4070   -3.9180   -6.1370 H   0  0  0  0  0  0
    9.3321   -1.5700   -6.5552 H   0  0  0  0  0  0
   11.9603   -2.1728  -10.1030 H   0  0  0  0  0  0
   10.2993   -0.0232  -11.4372 H   0  0  0  0  0  0
   11.2590    0.2510   -9.9437 H   0  0  0  0  0  0
   12.4357   -0.8856  -12.5183 H   0  0  0  0  0  0
   12.4207    0.8643  -12.1131 H   0  0  0  0  0  0
   13.4986    1.5303   -9.8473 H   0  0  0  0  0  0
   14.2769   -2.1843  -11.8365 H   0  0  0  0  0  0
   16.3800   -2.4669  -10.5359 H   0  0  0  0  0  0
   19.1336   -1.5169   -8.3449 H   0  0  0  0  0  0
   18.6167   -1.5875  -10.0638 H   0  0  0  0  0  0
   17.8248   -2.6416   -8.8438 H   0  0  0  0  0  0
   15.5361    3.2637   -7.4386 H   0  0  0  0  0  0
   14.0212    2.3953   -7.8603 H   0  0  0  0  0  0
   14.9909    3.1871   -9.1485 H   0  0  0  0  0  0
    8.8655   -1.5669  -12.2184 H   0  0  0  0  0  0
   12.1222   -4.0818  -11.0967 H   0  0  0  0  0  0
   11.5875   -5.7202  -12.8652 H   0  0  0  0  0  0
    9.6546   -5.2191  -14.3344 H   0  0  0  0  0  0
    7.8695   -4.9988  -14.8766 H   0  0  0  0  0  0
    6.9694   -3.7090  -15.7442 H   0  0  0  0  0  0
  1  2  1  0  0  0
  1 47  1  0  0  0
  1 48  1  0  0  0
  1 49  1  0  0  0
  2  3  1  0  0  0
  2 50  1  0  0  0
  2 51  1  0  0  0
  3  4  1  0  0  0
  3  8  1  0  0  0
  3 52  1  0  0  0
  4  5  1  0  0  0
  4 53  1  0  0  0
  4 54  1  0  0  0
  5  6  1  0  0  0
  5 55  1  0  0  0
  5 56  1  0  0  0
  6  7  1  0  0  0
  6 57  1  0  0  0
  6 58  1  0  0  0
  7  8  1  0  0  0
  7 59  1  0  0  0
  7 60  1  0  0  0
  8  9  1  0  0  0
  8 10  1  0  0  0
  9 61  1  0  0  0
 10 11  2  0  0  0
 10 12  1  0  0  0
 12 13  2  0  0  0
 12 14  1  0  0  0
 14 15  1  0  0  0
 14 19  1  0  0  0
 15 16  1  0  0  0
 15 62  1  0  0  0
 15 63  1  0  0  0
 16 17  1  0  0  0
 16 64  1  0  0  0
 16 65  1  0  0  0
 17 18  1  0  0  0
 17 66  1  0  0  0
 17 67  1  0  0  0
 18 19  1  0  0  0
 18 68  1  0  0  0
 18 69  1  0  0  0
 19 20  1  0  0  0
 19 70  1  0  0  0
 20 21  2  0  0  0
 20 22  1  0  0  0
 22 23  1  0  0  0
 23 24  1  0  0  0
 23 36  1  0  0  0
 23 71  1  0  0  0
 24 25  1  0  0  0
 24 72  1  0  0  0
 24 73  1  0  0  0
 25 26  1  0  0  0
 25 74  1  0  0  0
 25 75  1  0  0  0
 26 27  2  0  0  0
 26 28  1  0  0  0
 27 33  1  0  0  0
 27 76  1  0  0  0
 28 29  2  0  0  0
 28 77  1  0  0  0
 29 30  1  0  0  0
 29 78  1  0  0  0
 30 31  1  0  0  0
 30 33  2  0  0  0
 31 32  1  0  0  0
 32 79  1  0  0  0
 32 80  1  0  0  0
 32 81  1  0  0  0
 33 34  1  0  0  0
 34 35  1  0  0  0
 35 82  1  0  0  0
 35 83  1  0  0  0
 35 84  1  0  0  0
 36 37  2  0  0  0
 36 38  1  0  0  0
 37 41  1  0  0  0
 37 85  1  0  0  0
 38 39  2  0  0  0
 38 86  1  0  0  0
 39 40  1  0  0  0
 39 87  1  0  0  0
 40 41  2  0  0  0
 40 88  1  0  0  0
 41 42  1  0  0  0
 42 43  1  0  0  0
 43 44  1  0  0  0
 43 89  1  0  0  0
 43 90  1  0  0  0
 44 45  2  0  0  0
 44 46  1  0  0  0
M  CHG  1  46  -1
M  END
> <s_m_source_file>
../4drn_ligand.sdf

> <i_m_source_file_index>
1

> <s_epik_input>
W0NIMl0xW0NIMl1bQ0gyXVtDSDJdW0NAQEhdKFtDSDJdW0NIM10pW0NAXTEoW09IXSlDKD1PKUMoPU8pTjJbQ0gyXVtDSDJdW0NIMl1bQ0gyXVtDQEhdMkMoPU8pT1tDQEBIXShjM1tjSF1jKFtjSF1bY0hdW2NIXTMpT1tDSDJdQyg9TylbT0hdKVtDSDJdW0NIMl1jNFtjSF1jKE9bQ0gzXSljKFtjSF1bY0hdNClPW0NIM10=

> <s_epik_cmdline>
J2VwaWtfYXBwJywgJy1pbWFlJywgJ2xpZ2FuZF9wcm8ubWFlJywgJy1vbWFlJywgJ2xpZ2FuZF9wcmVwLm1hZScsICctbXMnLCAnMScsICctcGgnLCAnNycsICctcGh0JywgJzAuNScsICctbnQn

> <r_lp_tautomer_probability>
1

> <r_epik_Ionization_Penalty>
  0.0001

> <r_epik_Ionization_Penalty_Charging>
  0.0001

> <r_epik_Ionization_Penalty_Neutral>
  0.0000

> <r_epik_State_Penalty>
 -0.0000

> <r_epik_Charging_Adjusted_Penalty>
8.28261391569692e-05

> <i_epik_Tot_Q>
-1

> <i_epik_Tot_abs_Q>
1

> <s_epik_Chemistry_Notes>
This compound has an ester and may undergo hydrolysis at high or low pH.

$$$$
