4dro_ligand
                    3D
 Schrodinger Suite 2020-3.
 84 87  0  0  1  0            999 V2000
   26.3140   15.9000  -22.6000 C   0  0  0  0  0  0
   27.3960   15.1500  -21.8090 C   0  0  0  0  0  0
   27.1120   13.6370  -21.8030 C   0  0  1  0  0  0
   27.2430   13.0080  -23.2020 C   0  0  0  0  0  0
   26.8060   11.5470  -23.1380 C   0  0  0  0  0  0
   27.7130   10.7510  -22.1750 C   0  0  0  0  0  0
   27.7590   11.3930  -20.7800 C   0  0  0  0  0  0
   28.0580   12.9190  -20.8130 C   0  0  1  0  0  0
   29.4600   13.0420  -21.1970 O   0  0  0  0  0  0
   27.8790   13.5230  -19.3750 C   0  0  0  0  0  0
   26.8110   13.5340  -18.7790 O   0  0  0  0  0  0
   29.0860   14.0900  -18.6340 C   0  0  0  0  0  0
   29.3010   15.2920  -18.7890 O   0  0  0  0  0  0
   29.8190   13.2880  -17.8540 N   0  0  0  0  0  0
   29.4750   11.8370  -17.6730 C   0  0  0  0  0  0
   29.4830   11.4810  -16.1910 C   0  0  0  0  0  0
   30.7930   11.9140  -15.5360 C   0  0  0  0  0  0
   31.0140   13.4050  -15.6880 C   0  0  0  0  0  0
   31.0070   13.8190  -17.1570 C   0  0  1  0  0  0
   32.2910   13.3600  -17.7990 C   0  0  0  0  0  0
   33.3680   13.5940  -17.2980 O   0  0  0  0  0  0
   32.1590   12.6910  -18.9450 O   0  0  0  0  0  0
   33.3540   12.2380  -19.6040 C   0  0  2  0  0  0
   33.6660   13.1700  -20.7760 C   0  0  0  0  0  0
   35.0620   12.9040  -21.3490 C   0  0  0  0  0  0
   36.1960   13.5400  -20.5460 C   0  0  0  0  0  0
   36.3960   14.9240  -20.5470 C   0  0  0  0  0  0
   37.0330   12.7480  -19.7720 C   0  0  0  0  0  0
   38.0850   13.3090  -19.0310 C   0  0  0  0  0  0
   38.2940   14.6780  -19.0500 C   0  0  0  0  0  0
   39.2910   15.3170  -18.3720 O   0  0  0  0  0  0
   40.2610   14.4640  -17.7570 C   0  0  0  0  0  0
   37.4290   15.4940  -19.8080 C   0  0  0  0  0  0
   37.7170   16.8300  -19.7650 O   0  0  0  0  0  0
   36.9920   17.6960  -20.6870 C   0  0  0  0  0  0
   33.0640   10.7900  -19.9910 C   0  0  0  0  0  0
   31.9550   10.4950  -20.7810 C   0  0  0  0  0  0
   33.8890    9.7630  -19.5520 C   0  0  0  0  0  0
   33.5860    8.4660  -19.9190 C   0  0  0  0  0  0
   32.4980    8.1640  -20.7080 C   0  0  0  0  0  0
   31.6720    9.1860  -21.1480 C   0  0  0  0  0  0
   26.5349   16.9776  -22.5923 H   0  0  0  0  0  0
   25.3323   15.7236  -22.1363 H   0  0  0  0  0  0
   26.3000   15.5360  -23.6379 H   0  0  0  0  0  0
   28.3777   15.3264  -22.2727 H   0  0  0  0  0  0
   27.4100   15.5140  -20.7711 H   0  0  0  0  0  0
   26.0669   13.5095  -21.4843 H   0  0  0  0  0  0
   26.6032   13.5541  -23.9109 H   0  0  0  0  0  0
   28.2902   13.0660  -23.5335 H   0  0  0  0  0  0
   25.7678   11.4902  -22.7788 H   0  0  0  0  0  0
   26.8719   11.1003  -24.1410 H   0  0  0  0  0  0
   27.3283    9.7256  -22.0725 H   0  0  0  0  0  0
   28.7366   10.7202  -22.5767 H   0  0  0  0  0  0
   26.7879   11.2570  -20.2816 H   0  0  0  0  0  0
   28.5483   10.9142  -20.1819 H   0  0  0  0  0  0
   29.7958   12.6748  -22.1780 H   0  0  0  0  0  0
   28.4743   11.6431  -18.0866 H   0  0  0  0  0  0
   30.2156   11.2162  -18.1985 H   0  0  0  0  0  0
   28.6490   11.9912  -15.6869 H   0  0  0  0  0  0
   29.3712   10.3929  -16.0747 H   0  0  0  0  0  0
   30.7647   11.6707  -14.4636 H   0  0  0  0  0  0
   31.6326   11.3844  -16.0100 H   0  0  0  0  0  0
   30.2127   13.9494  -15.1669 H   0  0  0  0  0  0
   31.9863   13.6779  -15.2519 H   0  0  0  0  0  0
   30.9269   14.9114  -17.2581 H   0  0  0  0  0  0
   34.2259   12.2848  -18.9350 H   0  0  0  0  0  0
   32.9263   13.0144  -21.5752 H   0  0  0  0  0  0
   33.6230   14.2149  -20.4350 H   0  0  0  0  0  0
   35.2487   11.8202  -21.3714 H   0  0  0  0  0  0
   35.1221   13.3076  -22.3705 H   0  0  0  0  0  0
   35.7358   15.5636  -21.1328 H   0  0  0  0  0  0
   36.8704   11.6707  -19.7390 H   0  0  0  0  0  0
   38.7380   12.6666  -18.4401 H   0  0  0  0  0  0
   41.0141   15.0776  -17.2409 H   0  0  0  0  0  0
   40.7523   13.8520  -18.5278 H   0  0  0  0  0  0
   39.7624   13.8066  -17.0295 H   0  0  0  0  0  0
   37.3191   18.7368  -20.5464 H   0  0  0  0  0  0
   35.9127   17.6209  -20.4886 H   0  0  0  0  0  0
   37.1973   17.3837  -21.7216 H   0  0  0  0  0  0
   31.3018   11.3012  -21.1149 H   0  0  0  0  0  0
   34.7585    9.9759  -18.9301 H   0  0  0  0  0  0
   34.2282    7.6560  -19.5733 H   0  0  0  0  0  0
   32.2887    7.1304  -20.9838 H   0  0  0  0  0  0
   30.8089    8.9646  -21.7758 H   0  0  0  0  0  0
  1  2  1  0  0  0
  1 42  1  0  0  0
  1 43  1  0  0  0
  1 44  1  0  0  0
  2  3  1  0  0  0
  2 45  1  0  0  0
  2 46  1  0  0  0
  3  4  1  0  0  0
  3  8  1  0  0  0
  3 47  1  0  0  0
  4  5  1  0  0  0
  4 48  1  0  0  0
  4 49  1  0  0  0
  5  6  1  0  0  0
  5 50  1  0  0  0
  5 51  1  0  0  0
  6  7  1  0  0  0
  6 52  1  0  0  0
  6 53  1  0  0  0
  7  8  1  0  0  0
  7 54  1  0  0  0
  7 55  1  0  0  0
  8  9  1  0  0  0
  8 10  1  0  0  0
  9 56  1  0  0  0
 10 11  2  0  0  0
 10 12  1  0  0  0
 12 13  2  0  0  0
 12 14  1  0  0  0
 14 15  1  0  0  0
 14 19  1  0  0  0
 15 16  1  0  0  0
 15 57  1  0  0  0
 15 58  1  0  0  0
 16 17  1  0  0  0
 16 59  1  0  0  0
 16 60  1  0  0  0
 17 18  1  0  0  0
 17 61  1  0  0  0
 17 62  1  0  0  0
 18 19  1  0  0  0
 18 63  1  0  0  0
 18 64  1  0  0  0
 19 20  1  0  0  0
 19 65  1  0  0  0
 20 21  2  0  0  0
 20 22  1  0  0  0
 22 23  1  0  0  0
 23 24  1  0  0  0
 23 36  1  0  0  0
 23 66  1  0  0  0
 24 25  1  0  0  0
 24 67  1  0  0  0
 24 68  1  0  0  0
 25 26  1  0  0  0
 25 69  1  0  0  0
 25 70  1  0  0  0
 26 27  2  0  0  0
 26 28  1  0  0  0
 27 33  1  0  0  0
 27 71  1  0  0  0
 28 29  2  0  0  0
 28 72  1  0  0  0
 29 30  1  0  0  0
 29 73  1  0  0  0
 30 31  1  0  0  0
 30 33  2  0  0  0
 31 32  1  0  0  0
 32 74  1  0  0  0
 32 75  1  0  0  0
 32 76  1  0  0  0
 33 34  1  0  0  0
 34 35  1  0  0  0
 35 77  1  0  0  0
 35 78  1  0  0  0
 35 79  1  0  0  0
 36 37  2  0  0  0
 36 38  1  0  0  0
 37 41  1  0  0  0
 37 80  1  0  0  0
 38 39  2  0  0  0
 38 81  1  0  0  0
 39 40  1  0  0  0
 39 82  1  0  0  0
 40 41  2  0  0  0
 40 83  1  0  0  0
 41 84  1  0  0  0
M  END
> <s_m_source_file>
../4dro_ligand.sdf

> <i_m_source_file_index>
1

> <s_epik_input>
W0NIMl0xW0NIMl1bQ0gyXVtDSDJdW0NASF0oW0NIMl1bQ0gzXSlbQ0BAXTEoW09IXSlDKD1PKUMoPU8pTjJbQ0gyXVtDSDJdW0NIMl1bQ0gyXVtDQEhdMkMoPU8pT1tDQEBIXShjM1tjSF1bY0hdW2NIXVtjSF1bY0hdMylbQ0gyXVtDSDJdYzRbY0hdYyhPW0NIM10pYyhbY0hdW2NIXTQpT1tDSDNd

> <s_epik_cmdline>
J2VwaWtfYXBwJywgJy1pbWFlJywgJ2xpZ2FuZF9wcm8ubWFlJywgJy1vbWFlJywgJ2xpZ2FuZF9wcmVwLm1hZScsICctbXMnLCAnMScsICctcGgnLCAnNycsICctcGh0JywgJzAuNScsICctbnQn

> <r_lp_tautomer_probability>
1

> <r_epik_Ionization_Penalty>
  0.0000

> <r_epik_Ionization_Penalty_Charging>
  0.0000

> <r_epik_Ionization_Penalty_Neutral>
  0.0000

> <r_epik_State_Penalty>
 -0.0000

> <r_epik_Charging_Adjusted_Penalty>
0

> <i_epik_Tot_Q>
0

> <i_epik_Tot_abs_Q>
0

> <s_epik_Chemistry_Notes>
This compound has an ester and may undergo hydrolysis at high or low pH.

$$$$
