4drp_ligand
                    3D
 Schrodinger Suite 2020-3.
 90 93  0  0  1  0            999 V2000
    6.3080    4.3020   15.4620 C   0  0  0  0  0  0
    5.3530    4.1490   14.2620 C   0  0  0  0  0  0
    5.9440    3.2750   13.1380 C   0  0  1  0  0  0
    6.1540    1.8100   13.6210 C   0  0  0  0  0  0
    6.6890    0.9120   12.4910 C   0  0  0  0  0  0
    5.7800    0.9530   11.2550 C   0  0  0  0  0  0
    5.5870    2.3990   10.7570 C   0  0  0  0  0  0
    5.0600    3.3290   11.8740 C   0  0  1  0  0  0
    3.7330    2.8820   12.1960 O   0  0  0  0  0  0
    5.0320    4.8060   11.3710 C   0  0  0  0  0  0
    6.0720    5.4170   11.1010 O   0  0  0  0  0  0
    3.6820    5.5450   11.3210 C   0  0  0  0  0  0
    3.3220    6.1830   12.3170 O   0  0  0  0  0  0
    2.9060    5.4950   10.2220 N   0  0  0  0  0  0
    3.3910    4.7100    9.0390 C   0  0  0  0  0  0
    3.2580    5.5740    7.7900 C   0  0  0  0  0  0
    1.8190    6.1090    7.6720 C   0  0  0  0  0  0
    1.4280    6.9690    8.8860 C   0  0  0  0  0  0
    1.5690    6.1600   10.1880 C   0  0  1  0  0  0
    0.4370    5.1090   10.2630 C   0  0  0  0  0  0
   -0.7510    5.4370   10.1040 O   0  0  0  0  0  0
    0.7870    3.8100   10.5320 O   0  0  0  0  0  0
   -0.2630    2.7900   10.5760 C   0  0  2  0  0  0
   -0.4830    2.5070   12.0410 C   0  0  0  0  0  0
   -1.7880    1.7490   12.2510 C   0  0  0  0  0  0
   -3.0640    2.6270   12.2000 C   0  0  0  0  0  0
   -3.3830    3.5220   13.2340 C   0  0  0  0  0  0
   -3.9250    2.4910   11.1140 C   0  0  0  0  0  0
   -5.1070    3.2530   11.0490 C   0  0  0  0  0  0
   -5.4050    4.1600   12.0930 C   0  0  0  0  0  0
   -6.5350    4.9260   12.0650 O   0  0  0  0  0  0
   -7.6430    4.4320   11.2500 C   0  0  0  0  0  0
   -4.5460    4.3050   13.1950 C   0  0  0  0  0  0
   -4.9100    5.2160   14.1820 O   0  0  0  0  0  0
   -4.1870    5.2120   15.4400 C   0  0  0  0  0  0
    0.2790    1.5810    9.7950 C   0  0  0  0  0  0
    1.4600    0.9720   10.2170 C   0  0  0  0  0  0
   -0.4060    1.0900    8.6810 C   0  0  0  0  0  0
    0.1190    0.0050    7.9790 C   0  0  0  0  0  0
    1.3080   -0.5920    8.4000 C   0  0  0  0  0  0
    1.9840   -0.1160    9.5260 C   0  0  0  0  0  0
    3.1440   -0.6580   10.0010 O   0  0  0  0  0  0
    3.6990   -1.7450    9.2130 C   0  0  0  0  0  0
    3.0620   -3.1170    9.4090 C   0  0  0  0  0  0
    3.4590   -4.0270    8.6540 O   0  0  0  0  0  0
    2.1650   -3.2610   10.2780 O   0  5  0  0  0  0
    5.8349    4.9328   16.2290 H   0  0  0  0  0  0
    7.2447    4.7718   15.1275 H   0  0  0  0  0  0
    6.5260    3.3106   15.8858 H   0  0  0  0  0  0
    4.4163    3.6792   14.5965 H   0  0  0  0  0  0
    5.1350    5.1404   13.8381 H   0  0  0  0  0  0
    6.9264    3.6920   12.8716 H   0  0  0  0  0  0
    6.8795    1.7970   14.4478 H   0  0  0  0  0  0
    5.1952    1.3973   13.9680 H   0  0  0  0  0  0
    7.6918    1.2536   12.1948 H   0  0  0  0  0  0
    6.7456   -0.1280   12.8448 H   0  0  0  0  0  0
    6.2329    0.3598   10.4469 H   0  0  0  0  0  0
    4.7954    0.5340   11.5099 H   0  0  0  0  0  0
    6.5499    2.7968   10.4039 H   0  0  0  0  0  0
    4.8612    2.4084    9.9305 H   0  0  0  0  0  0
    3.5721    1.8591   12.5673 H   0  0  0  0  0  0
    4.4445    4.4322    9.1903 H   0  0  0  0  0  0
    2.7838    3.7993    8.9293 H   0  0  0  0  0  0
    3.9556    6.4220    7.8548 H   0  0  0  0  0  0
    3.4947    4.9716    6.9005 H   0  0  0  0  0  0
    1.7312    6.7285    6.7673 H   0  0  0  0  0  0
    1.1178    5.2640    7.6072 H   0  0  0  0  0  0
    2.0860    7.8489    8.9392 H   0  0  0  0  0  0
    0.3836    7.2980    8.7812 H   0  0  0  0  0  0
    1.5221    6.8251   11.0629 H   0  0  0  0  0  0
   -1.2147    3.1174   10.1321 H   0  0  0  0  0  0
    0.3485    1.8982   12.4257 H   0  0  0  0  0  0
   -0.5293    3.4562   12.5949 H   0  0  0  0  0  0
   -1.8977    0.9840   11.4682 H   0  0  0  0  0  0
   -1.7757    1.2642   13.2383 H   0  0  0  0  0  0
   -2.7107    3.6103   14.0874 H   0  0  0  0  0  0
   -3.6832    1.7930   10.3125 H   0  0  0  0  0  0
   -5.7857    3.1452   10.2029 H   0  0  0  0  0  0
   -8.4863    5.1355   11.3125 H   0  0  0  0  0  0
   -7.9598    3.4460   11.6208 H   0  0  0  0  0  0
   -7.3168    4.3426   10.2033 H   0  0  0  0  0  0
   -4.5990    5.9878   16.1021 H   0  0  0  0  0  0
   -3.1229    5.4176   15.2520 H   0  0  0  0  0  0
   -4.2911    4.2275   15.9196 H   0  0  0  0  0  0
    1.9782    1.3522   11.0974 H   0  0  0  0  0  0
   -1.3416    1.5502    8.3634 H   0  0  0  0  0  0
   -0.4003   -0.3772    7.1002 H   0  0  0  0  0  0
    1.7132   -1.4380    7.8448 H   0  0  0  0  0  0
    3.5935   -1.5132    8.1429 H   0  0  0  0  0  0
    4.7642   -1.8688    9.4580 H   0  0  0  0  0  0
  1  2  1  0  0  0
  1 47  1  0  0  0
  1 48  1  0  0  0
  1 49  1  0  0  0
  2  3  1  0  0  0
  2 50  1  0  0  0
  2 51  1  0  0  0
  3  4  1  0  0  0
  3  8  1  0  0  0
  3 52  1  0  0  0
  4  5  1  0  0  0
  4 53  1  0  0  0
  4 54  1  0  0  0
  5  6  1  0  0  0
  5 55  1  0  0  0
  5 56  1  0  0  0
  6  7  1  0  0  0
  6 57  1  0  0  0
  6 58  1  0  0  0
  7  8  1  0  0  0
  7 59  1  0  0  0
  7 60  1  0  0  0
  8  9  1  0  0  0
  8 10  1  0  0  0
  9 61  1  0  0  0
 10 11  2  0  0  0
 10 12  1  0  0  0
 12 13  2  0  0  0
 12 14  1  0  0  0
 14 15  1  0  0  0
 14 19  1  0  0  0
 15 16  1  0  0  0
 15 62  1  0  0  0
 15 63  1  0  0  0
 16 17  1  0  0  0
 16 64  1  0  0  0
 16 65  1  0  0  0
 17 18  1  0  0  0
 17 66  1  0  0  0
 17 67  1  0  0  0
 18 19  1  0  0  0
 18 68  1  0  0  0
 18 69  1  0  0  0
 19 20  1  0  0  0
 19 70  1  0  0  0
 20 21  2  0  0  0
 20 22  1  0  0  0
 22 23  1  0  0  0
 23 24  1  0  0  0
 23 36  1  0  0  0
 23 71  1  0  0  0
 24 25  1  0  0  0
 24 72  1  0  0  0
 24 73  1  0  0  0
 25 26  1  0  0  0
 25 74  1  0  0  0
 25 75  1  0  0  0
 26 27  2  0  0  0
 26 28  1  0  0  0
 27 33  1  0  0  0
 27 76  1  0  0  0
 28 29  2  0  0  0
 28 77  1  0  0  0
 29 30  1  0  0  0
 29 78  1  0  0  0
 30 31  1  0  0  0
 30 33  2  0  0  0
 31 32  1  0  0  0
 32 79  1  0  0  0
 32 80  1  0  0  0
 32 81  1  0  0  0
 33 34  1  0  0  0
 34 35  1  0  0  0
 35 82  1  0  0  0
 35 83  1  0  0  0
 35 84  1  0  0  0
 36 37  2  0  0  0
 36 38  1  0  0  0
 37 41  1  0  0  0
 37 85  1  0  0  0
 38 39  2  0  0  0
 38 86  1  0  0  0
 39 40  1  0  0  0
 39 87  1  0  0  0
 40 41  2  0  0  0
 40 88  1  0  0  0
 41 42  1  0  0  0
 42 43  1  0  0  0
 43 44  1  0  0  0
 43 89  1  0  0  0
 43 90  1  0  0  0
 44 45  2  0  0  0
 44 46  1  0  0  0
M  CHG  1  46  -1
M  END
> <s_m_source_file>
../4drp_ligand.sdf

> <i_m_source_file_index>
1

> <s_epik_input>
W0NIMl0xW0NIMl1bQ0gyXVtDSDJdW0NASF0oW0NIMl1bQ0gzXSlbQ0BAXTEoW09IXSlDKD1PKUMoPU8pTjJbQ0gyXVtDSDJdW0NIMl1bQ0gyXVtDQEhdMkMoPU8pT1tDQEBIXShjM1tjSF1jKFtjSF1bY0hdW2NIXTMpT1tDSDJdQyg9TylbT0hdKVtDSDJdW0NIMl1jNFtjSF1jKE9bQ0gzXSljKFtjSF1bY0hdNClPW0NIM10=

> <s_epik_cmdline>
J2VwaWtfYXBwJywgJy1pbWFlJywgJ2xpZ2FuZF9wcm8ubWFlJywgJy1vbWFlJywgJ2xpZ2FuZF9wcmVwLm1hZScsICctbXMnLCAnMScsICctcGgnLCAnNycsICctcGh0JywgJzAuNScsICctbnQn

> <r_lp_tautomer_probability>
1

> <r_epik_Ionization_Penalty>
  0.0001

> <r_epik_Ionization_Penalty_Charging>
  0.0001

> <r_epik_Ionization_Penalty_Neutral>
  0.0000

> <r_epik_State_Penalty>
 -0.0000

> <r_epik_Charging_Adjusted_Penalty>
8.28261391569692e-05

> <i_epik_Tot_Q>
-1

> <i_epik_Tot_abs_Q>
1

> <s_epik_Chemistry_Notes>
This compound has an ester and may undergo hydrolysis at high or low pH.

$$$$
