4dru_ligand
                    3D
 Schrodinger Suite 2020-3.
 79 84  0  0  1  0            999 V2000
   75.7040  -13.1060  -33.2770 O   0  0  0  0  0  0
   76.7090  -13.6060  -32.8130 C   0  0  0  0  0  0
   77.6450  -14.1250  -33.7190 N   0  0  0  0  0  0
   77.3150  -14.0600  -35.1670 C   0  0  0  0  0  0
   78.9330  -14.7780  -33.3580 C   0  0  0  0  0  0
   80.0160  -15.0020  -34.4400 C   0  0  0  0  0  0
   79.8710  -16.3910  -35.0930 C   0  0  0  0  0  0
   81.0820  -17.3130  -34.8420 C   0  0  0  0  0  0
   80.6580  -18.7450  -34.8510 N   0  0  1  0  0  0
   81.3640  -19.5690  -35.8630 C   0  0  0  0  0  0
   80.7850  -19.4550  -33.3560 S   0  0  0  0  0  0
   79.7200  -20.4090  -33.1900 O   0  0  0  0  0  0
   82.0540  -20.1160  -33.2170 O   0  0  0  0  0  0
   80.5960  -18.3200  -32.2050 N   0  0  0  0  0  0
   81.6270  -17.7600  -31.4830 C   0  0  0  0  0  0
   82.7840  -18.0480  -31.6740 O   0  5  0  0  0  0
   81.2610  -16.7070  -30.5490 C   0  0  0  0  0  0
   76.8290  -13.5680  -31.3290 C   0  0  0  0  0  0
   77.1860  -14.8220  -30.5130 C   0  0  0  0  0  0
   78.3900  -14.5830  -29.7250 N   0  0  0  0  0  0
   79.5740  -15.1870  -29.8240 C   0  0  0  0  0  0
   79.9640  -16.2170  -30.6450 C   0  0  0  0  0  0
   76.6490  -12.3220  -30.8100 C   0  0  0  0  0  0
   76.5800  -12.0780  -29.3600 C   0  0  0  0  0  0
   75.5480  -11.2460  -28.9520 C   0  0  0  0  0  0
   75.2900  -11.0380  -27.6040 C   0  0  0  0  0  0
   74.2880  -10.1920  -27.2110 O   0  0  0  0  0  0
   73.0470  -10.7040  -26.7200 C   0  0  0  0  0  0
   76.0570  -11.6890  -26.6510 C   0  0  0  0  0  0
   77.0680  -12.5440  -27.0550 C   0  0  0  0  0  0
   77.3440  -12.7540  -28.4040 C   0  0  0  0  0  0
   78.4620  -13.6560  -28.7760 C   0  0  0  0  0  0
   79.7620  -13.6610  -28.2550 C   0  0  0  0  0  0
   80.4460  -14.6430  -28.9320 C   0  0  0  0  0  0
   81.7530  -15.1010  -28.8270 C   0  0  0  0  0  0
   82.1670  -16.1400  -29.6530 C   0  0  0  0  0  0
   80.3400  -12.7490  -27.1740 C   0  0  0  0  0  0
   81.0140  -13.4900  -26.0090 C   0  0  0  0  0  0
   81.5200  -12.4360  -25.0060 C   0  0  0  0  0  0
   82.5460  -11.5200  -25.6900 C   0  0  0  0  0  0
   81.8600  -10.7740  -26.8440 C   0  0  0  0  0  0
   81.3410  -11.7980  -27.8570 C   0  0  0  0  0  0
   76.3453  -13.5579  -35.2999 H   0  0  0  0  0  0
   77.2592  -15.0794  -35.5765 H   0  0  0  0  0  0
   78.0963  -13.4946  -35.6961 H   0  0  0  0  0  0
   79.4445  -14.1800  -32.5894 H   0  0  0  0  0  0
   78.7356  -15.7868  -32.9664 H   0  0  0  0  0  0
   79.9176  -14.2343  -35.2217 H   0  0  0  0  0  0
   81.0131  -14.9320  -33.9808 H   0  0  0  0  0  0
   78.9813  -16.8954  -34.6881 H   0  0  0  0  0  0
   79.7632  -16.2750  -36.1815 H   0  0  0  0  0  0
   81.8317  -17.1568  -35.6317 H   0  0  0  0  0  0
   81.5257  -17.0773  -33.8634 H   0  0  0  0  0  0
   81.2755  -19.0924  -36.8504 H   0  0  0  0  0  0
   80.9135  -20.5719  -35.8982 H   0  0  0  0  0  0
   82.4264  -19.6535  -35.5906 H   0  0  0  0  0  0
   76.3548  -15.0676  -29.8357 H   0  0  0  0  0  0
   77.3639  -15.6656  -31.1961 H   0  0  0  0  0  0
   79.2646  -16.6449  -31.3632 H   0  0  0  0  0  0
   76.5497  -11.4559  -31.4808 H   0  0  0  0  0  0
   74.9310  -10.7485  -29.7003 H   0  0  0  0  0  0
   72.3822   -9.8670  -26.4600 H   0  0  0  0  0  0
   73.2315  -11.3172  -25.8256 H   0  0  0  0  0  0
   72.5723  -11.3217  -27.4966 H   0  0  0  0  0  0
   75.8655  -11.5289  -25.5900 H   0  0  0  0  0  0
   77.6603  -13.0636  -26.3018 H   0  0  0  0  0  0
   82.4417  -14.6540  -28.1101 H   0  0  0  0  0  0
   83.1915  -16.5085  -29.6007 H   0  0  0  0  0  0
   79.4982  -12.2103  -26.7144 H   0  0  0  0  0  0
   80.2832  -14.1552  -25.5258 H   0  0  0  0  0  0
   81.8556  -14.0862  -26.3915 H   0  0  0  0  0  0
   80.6724  -11.8319  -24.6501 H   0  0  0  0  0  0
   81.9947  -12.9409  -24.1517 H   0  0  0  0  0  0
   82.9351  -10.7955  -24.9595 H   0  0  0  0  0  0
   83.3755  -12.1269  -26.0820 H   0  0  0  0  0  0
   81.0207  -10.1819  -26.4503 H   0  0  0  0  0  0
   82.5848  -10.1044  -27.3301 H   0  0  0  0  0  0
   82.1874  -12.3789  -28.2522 H   0  0  0  0  0  0
   80.8409  -11.2706  -28.6827 H   0  0  0  0  0  0
  1  2  2  0  0  0
  2  3  1  0  0  0
  2 18  1  0  0  0
  3  4  1  0  0  0
  3  5  1  0  0  0
  4 43  1  0  0  0
  4 44  1  0  0  0
  4 45  1  0  0  0
  5  6  1  0  0  0
  5 46  1  0  0  0
  5 47  1  0  0  0
  6  7  1  0  0  0
  6 48  1  0  0  0
  6 49  1  0  0  0
  7  8  1  0  0  0
  7 50  1  0  0  0
  7 51  1  0  0  0
  8  9  1  0  0  0
  8 52  1  0  0  0
  8 53  1  0  0  0
  9 10  1  0  0  0
  9 11  1  0  0  0
 10 54  1  0  0  0
 10 55  1  0  0  0
 10 56  1  0  0  0
 11 12  2  0  0  0
 11 13  2  0  0  0
 11 14  1  0  0  0
 14 15  2  0  0  0
 15 16  1  0  0  0
 15 17  1  0  0  0
 17 22  2  0  0  0
 17 36  1  0  0  0
 18 19  1  0  0  0
 18 23  2  0  0  0
 19 20  1  0  0  0
 19 57  1  0  0  0
 19 58  1  0  0  0
 20 21  1  0  0  0
 20 32  1  0  0  0
 21 22  1  0  0  0
 21 34  2  0  0  0
 22 59  1  0  0  0
 23 24  1  0  0  0
 23 60  1  0  0  0
 24 25  2  0  0  0
 24 31  1  0  0  0
 25 26  1  0  0  0
 25 61  1  0  0  0
 26 27  1  0  0  0
 26 29  2  0  0  0
 27 28  1  0  0  0
 28 62  1  0  0  0
 28 63  1  0  0  0
 28 64  1  0  0  0
 29 30  1  0  0  0
 29 65  1  0  0  0
 30 31  2  0  0  0
 30 66  1  0  0  0
 31 32  1  0  0  0
 32 33  2  0  0  0
 33 34  1  0  0  0
 33 37  1  0  0  0
 34 35  1  0  0  0
 35 36  2  0  0  0
 35 67  1  0  0  0
 36 68  1  0  0  0
 37 38  1  0  0  0
 37 42  1  0  0  0
 37 69  1  0  0  0
 38 39  1  0  0  0
 38 70  1  0  0  0
 38 71  1  0  0  0
 39 40  1  0  0  0
 39 72  1  0  0  0
 39 73  1  0  0  0
 40 41  1  0  0  0
 40 74  1  0  0  0
 40 75  1  0  0  0
 41 42  1  0  0  0
 41 76  1  0  0  0
 41 77  1  0  0  0
 42 78  1  0  0  0
 42 79  1  0  0  0
M  CHG  1  16  -1
M  END
> <s_m_source_file>
../4dru_ligand.sdf

> <i_m_source_file_index>
1

> <s_epik_input>
Tz1DMVtOSF1TKD1PKSg9TylOKFtDSDNdKVtDSDJdW0NIMl1bQ0gyXVtDSDJdTihbQ0gzXSlDKD1PKUMoW0NIMl0yKT1bQ0hdYyhbY0hdYyhPW0NIM10pW2NIXVtjSF0zKWMzYyhuMmM0W2NIXWMxNSljKGM0W2NIXVtjSF01KVtDSF02W0NIMl1bQ0gyXVtDSDJdW0NIMl1bQ0gyXTY=

> <s_epik_cmdline>
J2VwaWtfYXBwJywgJy1pbWFlJywgJ2xpZ2FuZF9wcm8ubWFlJywgJy1vbWFlJywgJ2xpZ2FuZF9wcmVwLm1hZScsICctbXMnLCAnMScsICctcGgnLCAnNycsICctcGh0JywgJzAuNScsICctbnQn

> <r_epik_Ionization_Penalty>
  0.0494

> <r_epik_Ionization_Penalty_Charging>
  0.0494

> <r_epik_Ionization_Penalty_Neutral>
  0.0000

> <r_epik_State_Penalty>
  0.0422

> <r_epik_Charging_Adjusted_Penalty>
0.0915219855122561

> <i_epik_Tot_Q>
-1

> <i_epik_Tot_abs_Q>
1

$$$$
