4ds1_ligand
                    3D
 Schrodinger Suite 2020-3.
151151  0  0  1  0            999 V2000
   -1.3180   15.6500   60.5330 N   0  3  0  0  0  0
    0.1090   15.4890   60.8200 C   0  0  2  0  0  0
    0.9330   15.4970   59.5340 C   0  0  0  0  0  0
    0.4380   15.1290   58.4640 O   0  0  0  0  0  0
    0.3720   14.1860   61.5830 C   0  0  0  0  0  0
    0.1240   14.2380   63.0810 C   0  0  0  0  0  0
   -0.2880   15.4100   63.7100 C   0  0  0  0  0  0
    0.3300   13.1100   63.8680 C   0  0  0  0  0  0
   -0.5070   15.4480   65.0910 C   0  0  0  0  0  0
    0.1120   13.1350   65.2380 C   0  0  0  0  0  0
   -0.3030   14.3070   65.8440 C   0  0  0  0  0  0
   -0.5200   14.3230   67.2040 O   0  0  0  0  0  0
    2.1880   15.9210   59.6460 N   0  0  0  0  0  0
    3.1150   15.9560   58.5170 C   0  0  2  0  0  0
    4.4870   15.5630   59.0580 C   0  0  0  0  0  0
    4.7370   15.7060   60.2590 O   0  0  0  0  0  0
    3.1590   17.3400   57.9160 C   0  0  0  0  0  0
    5.3590   15.0540   58.1950 N   0  0  0  0  0  0
    6.6640   14.5630   58.6340 C   0  0  2  0  0  0
    7.7590   15.5820   58.3400 C   0  0  0  0  0  0
    7.6640   16.3520   57.3790 O   0  0  0  0  0  0
    6.9820   13.1810   58.0210 C   0  0  0  0  0  0
    6.0110   12.0810   58.5220 C   0  0  0  0  0  0
    6.3460   10.6680   58.0550 C   0  0  0  0  0  0
    7.3500   10.4700   57.3410 O   0  0  0  0  0  0
    5.5920    9.7430   58.4250 O   0  0  0  0  0  0
    8.7740   15.5990   59.2030 N   0  0  0  0  0  0
    9.9090   16.4990   59.0700 C   0  0  2  0  0  0
   11.1790   15.7550   59.4440 C   0  0  0  0  0  0
   11.3080   15.2580   60.5690 O   0  0  0  0  0  0
    9.7550   17.7100   59.9960 C   0  0  0  0  0  0
    8.6920   18.5470   59.5780 O   0  0  0  0  0  0
   12.1090   15.6720   58.4990 N   0  0  0  0  0  0
   13.4480   15.1790   58.7840 C   0  0  0  0  0  0
   14.4220   16.3430   58.7260 C   0  0  0  0  0  0
   14.3530   17.1670   57.8170 O   0  0  0  0  0  0
   15.3280   16.4230   59.6960 N   0  0  0  0  0  0
   16.2920   17.5200   59.7370 C   0  0  2  0  0  0
   17.6710   17.0110   60.1410 C   0  0  0  0  0  0
   17.8040   15.9460   60.7530 O   0  0  0  0  0  0
   15.8490   18.6490   60.7100 C   0  0  2  0  0  0
   15.8850   18.1600   62.1620 C   0  0  0  0  0  0
   14.4400   19.1690   60.3630 C   0  0  0  0  0  0
   17.2480   18.3260   62.8420 C   0  0  0  0  0  0
   18.6960   17.7820   59.7990 N   0  0  0  0  0  0
   20.0780   17.4410   60.1120 C   0  0  2  0  0  0
   20.8420   18.7200   60.4150 C   0  0  0  0  0  0
   20.8460   19.6430   59.5960 O   0  0  0  0  0  0
   20.7270   16.7670   58.9090 C   0  0  0  0  0  0
   22.2010   16.4490   59.1060 C   0  0  0  0  0  0
   22.4220   15.4920   60.2570 C   0  0  0  0  0  0
   21.8080   14.4240   60.3140 O   0  0  0  0  0  0
   23.2890   15.8760   61.1910 N   0  0  0  0  0  0
   21.4840   18.7920   61.5780 N   0  0  0  0  0  0
   22.2710   19.9780   61.9170 C   0  0  2  0  0  0
   23.4180   20.1540   60.9320 C   0  0  0  0  0  0
   23.8880   19.1720   60.3560 O   0  0  0  0  0  0
   22.8690   19.8830   63.3350 C   0  0  2  0  0  0
   23.5410   18.6260   63.4800 O   0  0  0  0  0  0
   21.7720   20.0110   64.3960 C   0  0  0  0  0  0
   23.8690   21.3990   60.7520 N   0  0  0  0  0  0
   25.0130   21.7210   59.8820 C   0  0  2  0  0  0
   26.3030   21.1010   60.3900 C   0  0  0  0  0  0
   27.1550   20.6880   59.6070 O   0  0  0  0  0  0
   25.2320   23.2370   59.8050 C   0  0  0  0  0  0
   24.0810   23.9660   59.1420 C   0  0  0  0  0  0
   23.2740   23.3090   58.4500 O   0  0  0  0  0  0
   23.9950   25.2040   59.3070 O   0  0  0  0  0  0
   26.4590   21.0820   61.7110 N   0  0  0  0  0  0
   27.6180   20.4590   62.3430 C   0  0  2  0  0  0
   27.1620   19.3480   63.2770 C   0  0  0  0  0  0
   26.1150   18.7210   63.0520 O   0  0  0  0  0  0
   28.4300   21.4870   63.1370 C   0  0  0  0  0  0
   29.0760   22.6560   62.4000 C   0  0  0  0  0  0
   29.8470   23.5160   63.3960 C   0  0  0  0  0  0
   29.9930   22.1550   61.2910 C   0  0  0  0  0  0
   27.8360   19.0730   64.2810 O   0  0  0  0  0  0
   -1.4781   16.5909   59.9861 H   0  0  0  0  0  0
   -1.8815   15.6743   61.4774 H   0  0  0  0  0  0
   -1.6662   14.8057   59.9199 H   0  0  0  0  0  0
    0.3697   16.3586   61.4411 H   0  0  0  0  0  0
   -0.2808   13.3927   61.1899 H   0  0  0  0  0  0
    1.4242   13.8920   61.4548 H   0  0  0  0  0  0
   -0.4422   16.3116   63.1172 H   0  0  0  0  0  0
    0.6699   12.1868   63.3986 H   0  0  0  0  0  0
   -0.8360   16.3703   65.5697 H   0  0  0  0  0  0
    0.2670   12.2355   65.8338 H   0  0  0  0  0  0
   -0.8502   15.2490   67.6974 H   0  0  0  0  0  0
    2.5195   16.2545   60.6404 H   0  0  0  0  0  0
    2.7600   15.2620   57.7409 H   0  0  0  0  0  0
    2.1627   17.6049   57.5322 H   0  0  0  0  0  0
    3.8866   17.3586   57.0912 H   0  0  0  0  0  0
    3.4598   18.0650   58.6867 H   0  0  0  0  0  0
    5.0827   15.0061   57.1313 H   0  0  0  0  0  0
    6.5764   14.4592   59.7256 H   0  0  0  0  0  0
    6.8983   13.2377   56.9257 H   0  0  0  0  0  0
    8.0051   12.8847   58.2957 H   0  0  0  0  0  0
    6.0166   12.0602   59.6218 H   0  0  0  0  0  0
    4.9938   12.2993   58.1646 H   0  0  0  0  0  0
    5.7960    8.7085   58.1117 H   0  0  0  0  0  0
    8.7284   14.8920   60.0444 H   0  0  0  0  0  0
    9.9230   16.8171   58.0171 H   0  0  0  0  0  0
    9.5462   17.3648   61.0194 H   0  0  0  0  0  0
   10.6852   18.2971   59.9897 H   0  0  0  0  0  0
    8.4560   19.4603   60.1438 H   0  0  0  0  0  0
   11.8448   15.9880   57.4790 H   0  0  0  0  0  0
   13.4667   14.7275   59.7869 H   0  0  0  0  0  0
   13.7271   14.4223   58.0360 H   0  0  0  0  0  0
   15.3445   15.6469   60.4753 H   0  0  0  0  0  0
   16.3137   17.8898   58.7013 H   0  0  0  0  0  0
   16.5570   19.4849   60.6095 H   0  0  0  0  0  0
   15.1540   18.7262   62.7578 H   0  0  0  0  0  0
   15.6342   17.0895   62.1947 H   0  0  0  0  0  0
   14.4244   19.5174   59.3197 H   0  0  0  0  0  0
   14.1820   20.0031   61.0321 H   0  0  0  0  0  0
   13.7082   18.3575   60.4896 H   0  0  0  0  0  0
   17.1900   17.9534   63.8754 H   0  0  0  0  0  0
   17.5261   19.3902   62.8510 H   0  0  0  0  0  0
   18.0064   17.7535   62.2878 H   0  0  0  0  0  0
   18.4681   18.7119   59.2575 H   0  0  0  0  0  0
   20.0558   16.7647   60.9792 H   0  0  0  0  0  0
   20.2130   15.8174   58.6992 H   0  0  0  0  0  0
   20.6494   17.4273   58.0326 H   0  0  0  0  0  0
   22.6018   15.9870   58.1917 H   0  0  0  0  0  0
   22.7511   17.3774   59.3191 H   0  0  0  0  0  0
   23.8116   16.8390   61.0937 H   0  0  0  0  0  0
   23.4829   15.2303   62.0602 H   0  0  0  0  0  0
   21.4206   17.9530   62.2866 H   0  0  0  0  0  0
   21.5519   20.8074   61.8464 H   0  0  0  0  0  0
   23.6346   20.6568   63.4936 H   0  0  0  0  0  0
   24.3632   18.3602   62.7994 H   0  0  0  0  0  0
   21.2601   20.9776   64.2794 H   0  0  0  0  0  0
   22.2224   19.9531   65.3979 H   0  0  0  0  0  0
   21.0456   19.1942   64.2727 H   0  0  0  0  0  0
   23.3439   22.2021   61.2899 H   0  0  0  0  0  0
   24.7395   21.2909   58.9072 H   0  0  0  0  0  0
   25.3451   23.6432   60.8210 H   0  0  0  0  0  0
   26.1414   23.4470   59.2229 H   0  0  0  0  0  0
   23.1721   25.7652   58.8402 H   0  0  0  0  0  0
   25.6823   21.5542   62.3305 H   0  0  0  0  0  0
   28.2221   20.0527   61.5184 H   0  0  0  0  0  0
   25.7961   17.9198   63.7350 H   0  0  0  0  0  0
   27.7840   21.9619   63.8901 H   0  0  0  0  0  0
   29.2690   20.9830   63.6390 H   0  0  0  0  0  0
   28.2909   23.2663   61.9298 H   0  0  0  0  0  0
   29.1643   23.8646   64.1849 H   0  0  0  0  0  0
   30.2783   24.3833   62.8747 H   0  0  0  0  0  0
   30.6545   22.9203   63.8467 H   0  0  0  0  0  0
   29.4144   21.5386   60.5872 H   0  0  0  0  0  0
   30.8014   21.5509   61.7286 H   0  0  0  0  0  0
   30.4252   23.0139   60.7566 H   0  0  0  0  0  0
  1  2  1  0  0  0
  1 78  1  0  0  0
  1 79  1  0  0  0
  1 80  1  0  0  0
  2  3  1  0  0  0
  2  5  1  0  0  0
  2 81  1  0  0  0
  3  4  2  0  0  0
  3 13  1  0  0  0
  5  6  1  0  0  0
  5 82  1  0  0  0
  5 83  1  0  0  0
  6  7  2  0  0  0
  6  8  1  0  0  0
  7  9  1  0  0  0
  7 84  1  0  0  0
  8 10  2  0  0  0
  8 85  1  0  0  0
  9 11  2  0  0  0
  9 86  1  0  0  0
 10 11  1  0  0  0
 10 87  1  0  0  0
 11 12  1  0  0  0
 12 88  1  0  0  0
 13 14  1  0  0  0
 13 89  1  0  0  0
 14 15  1  0  0  0
 14 17  1  0  0  0
 14 90  1  0  0  0
 15 16  2  0  0  0
 15 18  1  0  0  0
 17 91  1  0  0  0
 17 92  1  0  0  0
 17 93  1  0  0  0
 18 19  1  0  0  0
 18 94  1  0  0  0
 19 20  1  0  0  0
 19 22  1  0  0  0
 19 95  1  0  0  0
 20 21  2  0  0  0
 20 27  1  0  0  0
 22 23  1  0  0  0
 22 96  1  0  0  0
 22 97  1  0  0  0
 23 24  1  0  0  0
 23 98  1  0  0  0
 23 99  1  0  0  0
 24 25  2  0  0  0
 24 26  1  0  0  0
 26100  1  0  0  0
 27 28  1  0  0  0
 27101  1  0  0  0
 28 29  1  0  0  0
 28 31  1  0  0  0
 28102  1  0  0  0
 29 30  2  0  0  0
 29 33  1  0  0  0
 31 32  1  0  0  0
 31103  1  0  0  0
 31104  1  0  0  0
 32105  1  0  0  0
 33 34  1  0  0  0
 33106  1  0  0  0
 34 35  1  0  0  0
 34107  1  0  0  0
 34108  1  0  0  0
 35 36  2  0  0  0
 35 37  1  0  0  0
 37 38  1  0  0  0
 37109  1  0  0  0
 38 39  1  0  0  0
 38 41  1  0  0  0
 38110  1  0  0  0
 39 40  2  0  0  0
 39 45  1  0  0  0
 41 42  1  0  0  0
 41 43  1  0  0  0
 41111  1  0  0  0
 42 44  1  0  0  0
 42112  1  0  0  0
 42113  1  0  0  0
 43114  1  0  0  0
 43115  1  0  0  0
 43116  1  0  0  0
 44117  1  0  0  0
 44118  1  0  0  0
 44119  1  0  0  0
 45 46  1  0  0  0
 45120  1  0  0  0
 46 47  1  0  0  0
 46 49  1  0  0  0
 46121  1  0  0  0
 47 48  2  0  0  0
 47 54  1  0  0  0
 49 50  1  0  0  0
 49122  1  0  0  0
 49123  1  0  0  0
 50 51  1  0  0  0
 50124  1  0  0  0
 50125  1  0  0  0
 51 52  2  0  0  0
 51 53  1  0  0  0
 53126  1  0  0  0
 53127  1  0  0  0
 54 55  1  0  0  0
 54128  1  0  0  0
 55 56  1  0  0  0
 55 58  1  0  0  0
 55129  1  0  0  0
 56 57  2  0  0  0
 56 61  1  0  0  0
 58 59  1  0  0  0
 58 60  1  0  0  0
 58130  1  0  0  0
 59131  1  0  0  0
 60132  1  0  0  0
 60133  1  0  0  0
 60134  1  0  0  0
 61 62  1  0  0  0
 61135  1  0  0  0
 62 63  1  0  0  0
 62 65  1  0  0  0
 62136  1  0  0  0
 63 64  2  0  0  0
 63 69  1  0  0  0
 65 66  1  0  0  0
 65137  1  0  0  0
 65138  1  0  0  0
 66 67  2  0  0  0
 66 68  1  0  0  0
 68139  1  0  0  0
 69 70  1  0  0  0
 69140  1  0  0  0
 70 71  1  0  0  0
 70 73  1  0  0  0
 70141  1  0  0  0
 71 72  1  0  0  0
 71 77  2  0  0  0
 72142  1  0  0  0
 73 74  1  0  0  0
 73143  1  0  0  0
 73144  1  0  0  0
 74 75  1  0  0  0
 74 76  1  0  0  0
 74145  1  0  0  0
 75146  1  0  0  0
 75147  1  0  0  0
 75148  1  0  0  0
 76149  1  0  0  0
 76150  1  0  0  0
 76151  1  0  0  0
M  CHG  1   1   1
M  END
> <s_m_source_file>
../4ds1_ligand.sdf

> <i_m_source_file_index>
1

> <s_epik_input>
W2NIXTFbY0hdYyhbT0hdKVtjSF1bY0hdYzFbQ0gyXVtDQEhdKFtOSDMrXSlDKD1PKVtOSF1bQ0BASF0oW0NIM10pQyg9TylbTkhdW0NAQEhdKFtDSDJdW0NIMl1DKD1PKVtPSF0pQyg9TylbTkhdW0NAQEhdKFtDSDJdW09IXSlDKD1PKVtOSF1bQ0gyXUMoPU8pW05IXVtDQEBIXShbQ0BASF0oW0NIM10pW0NIMl1bQ0gzXSlDKD1PKVtOSF1bQ0BASF0oW0NIMl1bQ0gyXUMoPU8pW05IMl0pQyg9TylbTkhdW0NAQEhdKFtDQEhdKFtPSF0pW0NIM10pQyg9TylbTkhdW0NAQEhdKFtDSDJdQyg9TylbT0hdKUMoPU8pW05IXVtDQEhdKEMoPU8pW09IXSlbQ0gyXVtDSF0oW0NIM10pW0NIM10=

> <s_epik_cmdline>
J2VwaWtfYXBwJywgJy1pbWFlJywgJ2xpZ2FuZF9wcm8ubWFlJywgJy1vbWFlJywgJ2xpZ2FuZF9wcmVwLm1hZScsICctbXMnLCAnMScsICctcGgnLCAnNycsICctcGh0JywgJzAuNScsICctbnQn

> <s_epik_pKa_notes>
Molecule size exceeds maximum supported for generating protonation states

$$$$
