4dt2_ligand
                    3D
 Schrodinger Suite 2020-3.
 27 28  0  0  1  0            999 V2000
  -69.5250   33.1940  -43.7540 C   0  0  0  0  0  0
  -70.4460   34.2930  -44.1210 C   0  0  0  0  0  0
  -71.2910   33.9520  -45.3250 C   0  0  0  0  0  0
  -69.6110   35.5670  -44.3900 C   0  0  0  0  0  0
  -71.2780   34.4920  -42.9920 O   0  0  0  0  0  0
  -70.8050   33.6530  -41.9410 C   0  0  0  0  0  0
  -69.7760   32.8770  -42.3660 C   0  0  0  0  0  0
  -69.1560   31.9480  -41.4450 C   0  0  0  0  0  0
  -69.5840   31.8230  -40.1290 C   0  0  0  0  0  0
  -70.6360   32.6230  -39.7080 C   0  0  0  0  0  0
  -71.2370   33.5410  -40.6140 C   0  0  0  0  0  0
  -72.3650   34.4160  -40.2380 C   0  0  0  0  0  0
  -73.5060   34.2500  -40.9660 O   0  0  0  0  0  0
  -69.7224   32.3211  -44.3936 H   0  0  0  0  0  0
  -68.4853   33.5243  -43.8951 H   0  0  0  0  0  0
  -70.6400   33.7986  -46.1983 H   0  0  0  0  0  0
  -71.9892   34.7773  -45.5286 H   0  0  0  0  0  0
  -71.8594   33.0317  -45.1252 H   0  0  0  0  0  0
  -68.9677   35.4053  -45.2675 H   0  0  0  0  0  0
  -68.9855   35.7875  -43.5124 H   0  0  0  0  0  0
  -70.2860   36.4142  -44.5813 H   0  0  0  0  0  0
  -68.3296   31.3287  -41.7939 H   0  0  0  0  0  0
  -69.1075   31.1177  -39.4481 H   0  0  0  0  0  0
  -71.0020   32.5485  -38.6840 H   0  0  0  0  0  0
  -72.6377   34.2319  -39.1884 H   0  0  0  0  0  0
  -72.0695   35.4684  -40.3609 H   0  0  0  0  0  0
  -74.3920   34.8643  -40.7476 H   0  0  0  0  0  0
  1  2  1  0  0  0
  1  7  1  0  0  0
  1 14  1  0  0  0
  1 15  1  0  0  0
  2  3  1  0  0  0
  2  4  1  0  0  0
  2  5  1  0  0  0
  3 16  1  0  0  0
  3 17  1  0  0  0
  3 18  1  0  0  0
  4 19  1  0  0  0
  4 20  1  0  0  0
  4 21  1  0  0  0
  5  6  1  0  0  0
  6  7  2  0  0  0
  6 11  1  0  0  0
  7  8  1  0  0  0
  8  9  2  0  0  0
  8 22  1  0  0  0
  9 10  1  0  0  0
  9 23  1  0  0  0
 10 11  2  0  0  0
 10 24  1  0  0  0
 11 12  1  0  0  0
 12 13  1  0  0  0
 12 25  1  0  0  0
 12 26  1  0  0  0
 13 27  1  0  0  0
M  END
> <s_m_source_file>
../4dt2_ligand.sdf

> <i_m_source_file_index>
1

> <s_epik_input>
W0NIM11DKE8xKShbQ0gzXSlbQ0gyXWMoYzEyKVtjSF1bY0hdW2NIXWMyW0NIMl1bT0hd

> <s_epik_cmdline>
J2VwaWtfYXBwJywgJy1pbWFlJywgJ2xpZ2FuZF9wcm8ubWFlJywgJy1vbWFlJywgJ2xpZ2FuZF9wcmVwLm1hZScsICctbXMnLCAnMScsICctcGgnLCAnNycsICctcGh0JywgJzAuNScsICctbnQn

> <r_lp_tautomer_probability>
1

> <r_epik_Ionization_Penalty>
  0.0000

> <r_epik_Ionization_Penalty_Charging>
  0.0000

> <r_epik_Ionization_Penalty_Neutral>
  0.0000

> <r_epik_State_Penalty>
 -0.0000

> <r_epik_Charging_Adjusted_Penalty>
0

> <i_epik_Tot_Q>
0

> <i_epik_Tot_abs_Q>
0

$$$$
