4dt6_ligand
                    3D
 Schrodinger Suite 2020-3.
 53 56  0  0  1  0            999 V2000
    2.2320   -0.7330  -24.5820 C   0  0  2  0  0  0
    1.2540    0.4130  -24.4980 N   0  3  0  0  0  0
    3.4820   -0.3840  -23.8860 O   0  0  0  0  0  0
    5.8690    3.0290  -23.9540 P   0  0  0  0  0  0
    0.3330    4.9030  -15.9230 Cl  0  0  0  0  0  0
    4.5690   -0.5290  -24.8490 C   0  0  1  0  0  0
    0.4000    2.3720  -24.1940 N   0  0  0  0  0  0
    2.9990   -2.3210  -26.2690 O   0  0  0  0  0  0
    3.8680   -0.0840  -26.1390 C   0  0  1  0  0  0
   -2.7320    0.6820  -25.2930 N   0  0  0  0  0  0
    4.6720   -0.4400  -27.2750 O   0  0  0  0  0  0
    2.6350   -0.9440  -26.0500 C   0  0  2  0  0  0
   -0.7640   -0.7370  -25.2120 N   0  0  0  0  0  0
    5.0630    1.6550  -24.2670 O   0  0  0  0  0  0
    5.6830    0.4210  -24.4600 C   0  0  0  0  0  0
   -2.8170   -1.6110  -25.8790 N   0  0  0  0  0  0
   -2.4360    2.8840  -24.6910 O   0  0  0  0  0  0
   -0.5780    1.5780  -24.6330 C   0  0  0  0  0  0
    0.9740    4.0330  -21.6670 O   0  0  0  0  0  0
   -0.0280    0.3150  -24.8060 C   0  0  0  0  0  0
    7.2220    2.9360  -24.6220 O   0  0  0  0  0  0
    1.5280    1.6750  -24.1350 C   0  0  0  0  0  0
    5.7970    3.2090  -22.3350 O   0  5  0  0  0  0
   -2.0930   -0.5700  -25.4620 C   0  0  0  0  0  0
    4.8800    4.2290  -24.4810 O   0  5  0  0  0  0
   -1.9410    1.7690  -24.8670 C   0  0  0  0  0  0
    0.3070    3.8310  -23.9170 C   0  0  0  0  0  0
   -0.1710    4.1700  -22.5240 C   0  0  0  0  0  0
    0.7480    4.2660  -20.3320 C   0  0  0  0  0  0
   -0.4530    4.7860  -19.8360 C   0  0  0  0  0  0
   -0.6000    4.9830  -18.4720 C   0  0  0  0  0  0
    0.4510    4.6490  -17.6230 C   0  0  0  0  0  0
    1.6370    4.1590  -18.1040 C   0  0  0  0  0  0
    1.7800    3.9610  -19.4510 C   0  0  0  0  0  0
    1.7695   -1.6127  -24.1106 H   0  0  0  0  0  0
    5.0097   -1.5360  -24.8895 H   0  0  0  0  0  0
    2.2276   -3.1047  -26.2424 H   0  0  0  0  0  0
    3.6921    0.9904  -26.2962 H   0  0  0  0  0  0
    5.6091    0.0998  -27.4765 H   0  0  0  0  0  0
    1.8590   -0.7451  -26.8039 H   0  0  0  0  0  0
    6.1650    0.0630  -23.5383 H   0  0  0  0  0  0
    6.4266    0.4651  -25.2694 H   0  0  0  0  0  0
   -3.8907   -1.4875  -26.0838 H   0  0  0  0  0  0
    2.5050    2.0602  -23.8430 H   0  0  0  0  0  0
    1.2988    4.2911  -24.0378 H   0  0  0  0  0  0
   -0.4000    4.2936  -24.6214 H   0  0  0  0  0  0
   -0.9599    3.4774  -22.1954 H   0  0  0  0  0  0
   -0.5456    5.2030  -22.4732 H   0  0  0  0  0  0
   -1.2667    5.0342  -20.5174 H   0  0  0  0  0  0
   -1.5260    5.3939  -18.0697 H   0  0  0  0  0  0
    2.4563    3.9298  -17.4225 H   0  0  0  0  0  0
    2.7159    3.5586  -19.8385 H   0  0  0  0  0  0
   -2.3399   -2.5924  -26.0178 H   0  0  0  0  0  0
  1  2  1  0  0  0
  1  3  1  0  0  0
  1 12  1  0  0  0
  1 35  1  0  0  0
  2 20  1  0  0  0
  2 22  2  0  0  0
  3  6  1  0  0  0
  4 14  1  0  0  0
  4 21  2  0  0  0
  4 23  1  0  0  0
  4 25  1  0  0  0
  5 32  1  0  0  0
  6  9  1  0  0  0
  6 15  1  0  0  0
  6 36  1  0  0  0
  7 18  1  0  0  0
  7 22  1  0  0  0
  7 27  1  0  0  0
  8 12  1  0  0  0
  8 37  1  0  0  0
  9 11  1  0  0  0
  9 12  1  0  0  0
  9 38  1  0  0  0
 10 24  1  0  0  0
 10 26  1  0  0  0
 11 39  1  0  0  0
 12 40  1  0  0  0
 13 20  1  0  0  0
 13 24  2  0  0  0
 14 15  1  0  0  0
 15 41  1  0  0  0
 15 42  1  0  0  0
 16 24  1  0  0  0
 16 43  1  0  0  0
 16 53  1  0  0  0
 17 26  2  0  0  0
 18 20  2  0  0  0
 18 26  1  0  0  0
 19 28  1  0  0  0
 19 29  1  0  0  0
 22 44  1  0  0  0
 27 28  1  0  0  0
 27 45  1  0  0  0
 27 46  1  0  0  0
 28 47  1  0  0  0
 28 48  1  0  0  0
 29 30  2  0  0  0
 29 34  1  0  0  0
 30 31  1  0  0  0
 30 49  1  0  0  0
 31 32  2  0  0  0
 31 50  1  0  0  0
 32 33  1  0  0  0
 33 34  2  0  0  0
 33 51  1  0  0  0
 34 52  1  0  0  0
M  CHG  3   2   1  23  -1  25  -1
M  END
> <s_m_source_file>
../4dt6_ligand.sdf

> <i_m_source_file_index>
1

> <s_epik_input>
Tz1QKFtPSF0pKFtPSF0pT1tDSDJdW0NASF0oW0NAQEhdKFtPSF0pW0NASF0xW09IXSlPW0NASF0xW24rXShjKGMyMylbbkhdYyg9TlxbSF0pXFtuSF1jMz1PKVtjSF1uMltDSDJdW0NIMl1PYzRbY0hdW2NIXWMoQ2wpW2NIXVtjSF00

> <s_epik_cmdline>
J2VwaWtfYXBwJywgJy1pbWFlJywgJ2xpZ2FuZF9wcm8ubWFlJywgJy1vbWFlJywgJ2xpZ2FuZF9wcmVwLm1hZScsICctbXMnLCAnMScsICctcGgnLCAnNycsICctcGh0JywgJzAuNScsICctbnQn

> <r_lp_tautomer_probability>
1

> <r_epik_Ionization_Penalty>
  0.1011

> <r_epik_Ionization_Penalty_Charging>
  0.1008

> <r_epik_Ionization_Penalty_Neutral>
  0.0002

> <r_epik_State_Penalty>
  0.0908

> <r_epik_Charging_Adjusted_Penalty>
0.191655665426964

> <i_epik_Tot_Q>
-1

> <i_epik_Tot_abs_Q>
3

> <s_epik_Chemistry_Notes>
This compound has an imine and may undergo hydrolysis. This compound contains an acetal/aminal-like group ( X-CH(R)-Y where X, Y are N, S, or O) that may be acid/base labile, releasing an aldehyde.

$$$$
