4dtk_ligand
                    3D
 Schrodinger Suite 2020-3.
 48 50  0  0  1  0            999 V2000
   22.7970  -40.1530   -3.7150 C   0  0  0  0  0  0
   19.3330  -37.1640   -2.5370 N   0  0  0  0  0  0
   20.7330  -39.4530   -2.9090 O   0  0  0  0  0  0
   17.7840  -36.8070    2.6510 S   0  0  0  0  0  0
   21.4650  -40.6490   -3.2770 C   0  0  0  0  0  0
   16.3110  -37.3160   -4.7420 N   0  3  0  0  0  0
   17.0340  -33.9390    0.2010 O   0  5  0  0  0  0
   20.6960  -41.2920   -4.3840 C   0  0  0  0  0  0
   16.2780  -34.7590    2.2280 N   0  0  0  0  0  0
   15.8050  -35.8970    4.1670 O   0  0  0  0  0  0
   20.6300  -39.0260   -1.5980 C   0  0  0  0  0  0
   21.1810  -39.7010   -0.5130 C   0  0  0  0  0  0
   20.9850  -39.2170    0.7690 C   0  0  0  0  0  0
   20.2470  -38.0650    0.9710 C   0  0  0  0  0  0
   19.7010  -37.3590   -0.1090 C   0  0  0  0  0  0
   19.8990  -37.8450   -1.4110 C   0  0  0  0  0  0
   20.1400  -36.2080   -3.3070 C   0  0  0  0  0  0
   19.3510  -35.1490   -4.0470 C   0  0  0  0  0  0
   18.2330  -35.7860   -4.8610 C   0  0  0  0  0  0
   17.3690  -36.6510   -3.9580 C   0  0  2  0  0  0
   18.1700  -37.7150   -3.2430 C   0  0  0  0  0  0
   18.7610  -36.2570    0.1020 C   0  0  0  0  0  0
   18.0230  -35.9230    1.1730 C   0  0  0  0  0  0
   17.0940  -34.7720    1.1100 C   0  0  0  0  0  0
   16.4670  -35.7360    3.1610 C   0  0  0  0  0  0
   23.3152  -39.6915   -2.8615 H   0  0  0  0  0  0
   22.6662  -39.4062   -4.5120 H   0  0  0  0  0  0
   23.3946  -40.9945   -4.0954 H   0  0  0  0  0  0
   21.5822  -41.3767   -2.4605 H   0  0  0  0  0  0
   15.7153  -36.5577   -5.2712 H   0  0  0  0  0  0
   15.6588  -37.8886   -4.0661 H   0  0  0  0  0  0
   16.7700  -37.9976   -5.4732 H   0  0  0  0  0  0
   21.2110  -42.2101   -4.7031 H   0  0  0  0  0  0
   20.6257  -40.5968   -5.2336 H   0  0  0  0  0  0
   19.6849  -41.5427   -4.0306 H   0  0  0  0  0  0
   21.7648  -40.6076   -0.6720 H   0  0  0  0  0  0
   21.4132  -39.7450    1.6210 H   0  0  0  0  0  0
   20.0877  -37.7007    1.9859 H   0  0  0  0  0  0
   20.8220  -35.6741   -2.6289 H   0  0  0  0  0  0
   20.7257  -36.7492   -4.0647 H   0  0  0  0  0  0
   18.9102  -34.4476   -3.3233 H   0  0  0  0  0  0
   20.0201  -34.6016   -4.7272 H   0  0  0  0  0  0
   17.6128  -34.9974   -5.3120 H   0  0  0  0  0  0
   18.6678  -36.4100   -5.6557 H   0  0  0  0  0  0
   16.9038  -35.9888   -3.2130 H   0  0  0  0  0  0
   18.5084  -38.4451   -3.9929 H   0  0  0  0  0  0
   17.5047  -38.2120   -2.5216 H   0  0  0  0  0  0
   18.7075  -35.6500   -0.8138 H   0  0  0  0  0  0
  1  5  1  0  0  0
  1 26  1  0  0  0
  1 27  1  0  0  0
  1 28  1  0  0  0
  2 16  1  0  0  0
  2 17  1  0  0  0
  2 21  1  0  0  0
  3  5  1  0  0  0
  3 11  1  0  0  0
  4 23  1  0  0  0
  4 25  1  0  0  0
  5  8  1  0  0  0
  5 29  1  0  0  0
  6 20  1  0  0  0
  6 30  1  0  0  0
  6 31  1  0  0  0
  6 32  1  0  0  0
  7 24  1  0  0  0
  8 33  1  0  0  0
  8 34  1  0  0  0
  8 35  1  0  0  0
  9 24  2  0  0  0
  9 25  1  0  0  0
 10 25  2  0  0  0
 11 12  2  0  0  0
 11 16  1  0  0  0
 12 13  1  0  0  0
 12 36  1  0  0  0
 13 14  2  0  0  0
 13 37  1  0  0  0
 14 15  1  0  0  0
 14 38  1  0  0  0
 15 16  2  0  0  0
 15 22  1  0  0  0
 17 18  1  0  0  0
 17 39  1  0  0  0
 17 40  1  0  0  0
 18 19  1  0  0  0
 18 41  1  0  0  0
 18 42  1  0  0  0
 19 20  1  0  0  0
 19 43  1  0  0  0
 19 44  1  0  0  0
 20 21  1  0  0  0
 20 45  1  0  0  0
 21 46  1  0  0  0
 21 47  1  0  0  0
 22 23  2  0  0  0
 22 48  1  0  0  0
 23 24  1  0  0  0
M  CHG  2   6   1   7  -1
M  END
> <s_m_source_file>
../4dtk_ligand.sdf

> <i_m_source_file_index>
1

> <s_epik_input>
W0NIM11bQ0hdKFtDSDNdKU9jMVtjSF1bY0hdW2NIXWMoL1tDSF09QzJcU0MoPU8pW05IXUMyPU8pYzFOM1tDSDJdW0NIMl1bQ0gyXVtDQEBIXShbTkgzK10pW0NIMl0z

> <s_epik_cmdline>
J2VwaWtfYXBwJywgJy1pbWFlJywgJ2xpZ2FuZF9wcm8ubWFlJywgJy1vbWFlJywgJ2xpZ2FuZF9wcmVwLm1hZScsICctbXMnLCAnMScsICctcGgnLCAnNycsICctcGh0JywgJzAuNScsICctbnQn

> <r_epik_Ionization_Penalty>
  0.0639

> <r_epik_Ionization_Penalty_Charging>
  0.0638

> <r_epik_Ionization_Penalty_Neutral>
  0.0001

> <r_epik_State_Penalty>
  0.0548

> <r_epik_Charging_Adjusted_Penalty>
0.118600423915796

> <i_epik_Tot_Q>
0

> <i_epik_Tot_abs_Q>
2

$$$$
