4dtt_ligand
                    3D
 Schrodinger Suite 2020-3.
 49 50  0  0  1  0            999 V2000
   85.5110  -67.0810    5.5240 O   0  0  0  0  0  0
   84.3500  -67.4840    5.5240 C   0  0  0  0  0  0
   83.3140  -66.5280    5.9380 O   0  0  0  0  0  0
   83.2530  -65.2350    5.3210 C   0  0  0  0  0  0
   84.0040  -68.8760    4.9850 C   0  0  2  0  0  0
   83.8320  -70.1870    5.8310 C   0  0  0  0  0  0
   83.8860  -70.2770    7.3630 C   0  0  0  0  0  0
   83.3690  -71.3630    8.0870 C   0  0  0  0  0  0
   83.5740  -71.2140    9.4250 N   0  3  0  0  0  0
   84.2780  -69.9530    9.6210 C   0  0  0  0  0  0
   84.4450  -69.4140    8.2670 N   0  3  0  0  0  0
   84.8690  -69.1520    3.8020 N   0  0  0  0  0  0
   86.1660  -69.4890    3.5640 C   0  0  0  0  0  0
   87.0380  -69.6700    4.3960 O   0  0  0  0  0  0
   86.5200  -69.5970    2.0800 C   0  0  0  0  0  0
   86.9760  -70.8910    1.5200 N   0  0  1  0  0  0
   85.8850  -71.4960    0.6760 C   0  0  0  0  0  0
   84.5700  -72.0690    1.2660 C   0  0  0  0  0  0
   83.6350  -72.3020    0.4810 O   0  0  0  0  0  0
   84.3800  -72.3270    2.4760 O   0  5  0  0  0  0
   88.1100  -70.4570    0.6490 C   0  0  0  0  0  0
   89.3540  -71.3280    0.4760 C   0  0  0  0  0  0
   89.9020  -71.4540   -0.8190 C   0  0  0  0  0  0
   91.0980  -72.2650   -1.1200 C   0  0  0  0  0  0
   91.6680  -72.9150    0.0730 C   0  0  0  0  0  0
   91.1090  -72.7620    1.3550 C   0  0  0  0  0  0
   89.9630  -71.9760    1.5620 C   0  0  0  0  0  0
   82.4207  -64.6609    5.7542 H   0  0  0  0  0  0
   83.0936  -65.3522    4.2389 H   0  0  0  0  0  0
   84.1980  -64.7000    5.4966 H   0  0  0  0  0  0
   82.9421  -68.6767    4.7785 H   0  0  0  0  0  0
   82.8426  -70.6246    5.6320 H   0  0  0  0  0  0
   84.6146  -70.9082    5.5529 H   0  0  0  0  0  0
   82.8741  -72.1909    7.5582 H   0  0  0  0  0  0
   84.6626  -69.3940   10.4868 H   0  0  0  0  0  0
   84.4473  -69.0971    2.7875 H   0  0  0  0  0  0
   85.6391  -69.3402    1.4733 H   0  0  0  0  0  0
   87.3406  -68.9024    1.8473 H   0  0  0  0  0  0
   85.5119  -70.7441   -0.0350 H   0  0  0  0  0  0
   86.2853  -72.3578    0.1218 H   0  0  0  0  0  0
   87.7498  -70.3218   -0.3815 H   0  0  0  0  0  0
   88.5165  -69.5058    1.0231 H   0  0  0  0  0  0
   89.4167  -70.9249   -1.6391 H   0  0  0  0  0  0
   91.5161  -72.3719   -2.1209 H   0  0  0  0  0  0
   92.5555  -73.5373   -0.0418 H   0  0  0  0  0  0
   91.5740  -73.2630    2.2041 H   0  0  0  0  0  0
   89.5476  -71.8696    2.5641 H   0  0  0  0  0  0
   84.9580  -68.4525    8.1172 H   0  0  0  0  0  0
   83.2195  -71.9850   10.1249 H   0  0  0  0  0  0
  1  2  2  0  0  0
  2  3  1  0  0  0
  2  5  1  0  0  0
  3  4  1  0  0  0
  4 28  1  0  0  0
  4 29  1  0  0  0
  4 30  1  0  0  0
  5  6  1  0  0  0
  5 12  1  0  0  0
  5 31  1  0  0  0
  6  7  1  0  0  0
  6 32  1  0  0  0
  6 33  1  0  0  0
  7  8  2  0  0  0
  7 11  1  0  0  0
  8  9  1  0  0  0
  8 34  1  0  0  0
  9 10  1  0  0  0
  9 49  1  0  0  0
 10 11  2  0  0  0
 10 35  1  0  0  0
 11 48  1  0  0  0
 12 13  1  0  0  0
 12 36  1  0  0  0
 13 14  2  0  0  0
 13 15  1  0  0  0
 15 16  1  0  0  0
 15 37  1  0  0  0
 15 38  1  0  0  0
 16 17  1  0  0  0
 16 21  1  0  0  0
 17 18  1  0  0  0
 17 39  1  0  0  0
 17 40  1  0  0  0
 18 19  2  0  0  0
 18 20  1  0  0  0
 21 22  1  0  0  0
 21 41  1  0  0  0
 21 42  1  0  0  0
 22 23  2  0  0  0
 22 27  1  0  0  0
 23 24  1  0  0  0
 23 43  1  0  0  0
 24 25  2  0  0  0
 24 44  1  0  0  0
 25 26  1  0  0  0
 25 45  1  0  0  0
 26 27  2  0  0  0
 26 46  1  0  0  0
 27 47  1  0  0  0
M  CHG  3   9   1  11   1  20  -1
M  END
> <s_m_source_file>
../4dtt_ligand.sdf

> <i_m_source_file_index>
1

> <s_epik_input>
bjFbY0hdW25IXVtjSF1jMVtDSDJdW0NAQEhdKEMoPU8pT1tDSDNdKVtOSF1DKD1PKVtDSDJdW05AQEgrXShbQ0gyXUMoPU8pW09IXSlbQ0gyXWMyW2NIXVtjSF1bY0hdW2NIXVtjSF0y

> <s_epik_cmdline>
J2VwaWtfYXBwJywgJy1pbWFlJywgJ2xpZ2FuZF9wcm8ubWFlJywgJy1vbWFlJywgJ2xpZ2FuZF9wcmVwLm1hZScsICctbXMnLCAnMScsICctcGgnLCAnNycsICctcGh0JywgJzAuNScsICctbnQn

> <r_lp_tautomer_probability>
1

> <r_epik_Ionization_Penalty>
 18.5841

> <r_epik_Ionization_Penalty_Charging>
 18.5206

> <r_epik_Ionization_Penalty_Neutral>
  0.0635

> <r_epik_State_Penalty>
 -0.0000

> <r_epik_Charging_Adjusted_Penalty>
18.5206410364852

> <i_epik_Tot_Q>
1

> <i_epik_Tot_abs_Q>
3

> <s_epik_Chemistry_Notes>
This compound has an ester and may undergo hydrolysis at high or low pH. This compound has an imine and may undergo hydrolysis.

$$$$
