4du8_ligand
                    3D
 Schrodinger Suite 2020-3.
 29 29  0  0  1  0            999 V2000
   16.1060   23.4840   18.0520 C   0  0  0  0  0  0
   14.3540   22.9130   19.7640 N   0  0  0  0  0  0
   16.9510   23.6540   18.9920 O   0  0  0  0  0  0
   14.6290   23.1600   18.3480 C   0  0  1  0  0  0
   13.7570   24.2550   17.8930 C   0  0  0  0  0  0
   13.6020   24.0240   20.2760 C   0  0  0  0  0  0
   12.9460   24.6710   19.0880 C   0  0  0  0  0  0
   14.4330   21.6840   21.7350 O   0  0  0  0  0  0
   18.2660   15.8720   20.7160 O   0  5  0  0  0  0
   18.1360   19.0450   19.6890 O   0  0  0  0  0  0
   16.0250   14.9250   20.1310 O   0  0  0  0  0  0
   17.3810   16.1370   18.4210 O   0  5  0  0  0  0
   17.9020   18.3550   22.0810 O   0  5  0  0  0  0
   15.5200   20.6230   19.9730 C   0  0  0  0  0  0
   16.1690   19.8990   21.0450 O   0  0  0  0  0  0
   16.3000   17.4130   20.3560 O   0  0  0  0  0  0
   14.7500   21.7350   20.5580 C   0  0  0  0  0  0
   16.9900   16.0640   19.9090 P   0  0  0  0  0  0
   17.1470   18.6750   20.7770 P   0  0  1  0  0  0
   16.5040   23.6000   16.8360 O   0  5  0  0  0  0
   14.3673   22.2307   17.8207 H   0  0  0  0  0  0
   14.3751   25.0874   17.5256 H   0  0  0  0  0  0
   13.1083   23.8940   17.0813 H   0  0  0  0  0  0
   12.8511   23.6595   20.9924 H   0  0  0  0  0  0
   14.2820   24.7248   20.7824 H   0  0  0  0  0  0
   12.9571   25.7675   19.1749 H   0  0  0  0  0  0
   11.9095   24.3232   18.9668 H   0  0  0  0  0  0
   16.2810   21.0159   19.2827 H   0  0  0  0  0  0
   14.8459   19.9455   19.4285 H   0  0  0  0  0  0
  1  3  2  0  0  0
  1  4  1  0  0  0
  1 20  1  0  0  0
  2  4  1  0  0  0
  2  6  1  0  0  0
  2 17  1  0  0  0
  4  5  1  0  0  0
  4 21  1  0  0  0
  5  7  1  0  0  0
  5 22  1  0  0  0
  5 23  1  0  0  0
  6  7  1  0  0  0
  6 24  1  0  0  0
  6 25  1  0  0  0
  7 26  1  0  0  0
  7 27  1  0  0  0
  8 17  2  0  0  0
  9 18  1  0  0  0
 10 19  2  0  0  0
 11 18  2  0  0  0
 12 18  1  0  0  0
 13 19  1  0  0  0
 14 15  1  0  0  0
 14 17  1  0  0  0
 14 28  1  0  0  0
 14 29  1  0  0  0
 15 19  1  0  0  0
 16 18  1  0  0  0
 16 19  1  0  0  0
M  CHG  4   9  -1  12  -1  13  -1  20  -1
M  END
> <s_m_source_file>
../4du8_ligand.sdf

> <i_m_source_file_index>
1

> <s_epik_input>
W0NIMl0xW0NIMl1bQ0gyXVtDQEBIXShDKD1PKVtPSF0pTjFDKD1PKVtDSDJdT1tQQEBdKD1PKShbT0hdKU9QKD1PKShbT0hdKVtPSF0=

> <s_epik_cmdline>
J2VwaWtfYXBwJywgJy1pbWFlJywgJ2xpZ2FuZF9wcm8ubWFlJywgJy1vbWFlJywgJ2xpZ2FuZF9wcmVwLm1hZScsICctbXMnLCAnMScsICctcGgnLCAnNycsICctcGh0JywgJzAuNScsICctbnQn

> <r_epik_Ionization_Penalty>
  0.0821

> <r_epik_Ionization_Penalty_Charging>
  0.0821

> <r_epik_Ionization_Penalty_Neutral>
  0.0000

> <r_epik_State_Penalty>
  0.0714

> <r_epik_Charging_Adjusted_Penalty>
0.153509210739151

> <i_epik_Tot_Q>
-4

> <i_epik_Tot_abs_Q>
4

$$$$
