4dum_ligand
                    3D
 Schrodinger Suite 2020-3.
 50 53  0  0  1  0            999 V2000
   -0.7240    4.2280  -23.1750 C   0  0  0  0  0  0
    0.5040    0.4000  -25.0040 N   0  0  0  0  0  0
   -3.0750    2.9530  -24.8790 O   0  0  0  0  0  0
    6.4800    3.3990  -24.4070 P   0  0  0  0  0  0
   -0.1510    4.9350  -16.5750 Cl  0  0  0  0  0  0
   -1.3040    1.5810  -24.9480 C   0  0  0  0  0  0
   -0.2710    2.3890  -24.7800 N   0  0  0  0  0  0
    6.7670    4.7860  -23.9700 O   0  0  0  0  0  0
   -0.8060    0.3030  -25.0880 C   0  0  0  0  0  0
   -3.5070    0.6960  -25.1880 N   0  0  0  0  0  0
    7.1170    3.2800  -25.8450 O   0  5  0  0  0  0
    0.8480    1.6630  -24.8150 C   0  0  0  0  0  0
   -1.6080   -0.7520  -25.2650 N   0  0  0  0  0  0
    7.2840    2.3050  -23.4910 O   0  0  0  0  0  0
   -2.9520   -0.6040  -25.3240 C   0  0  0  0  0  0
   -3.7470   -1.6810  -25.5120 N   0  0  0  0  0  0
    0.4600    4.0380  -22.3970 O   0  0  0  0  0  0
   -2.6590    1.8010  -24.9970 C   0  0  0  0  0  0
    2.1630    2.0770  -24.7050 C   0  0  0  0  0  0
   -0.3840    3.8590  -24.6110 C   0  0  0  0  0  0
    3.0860    1.2580  -24.0500 C   0  0  0  0  0  0
    4.4200    1.6670  -23.9560 C   0  0  0  0  0  0
    4.8020    2.8770  -24.5280 C   0  0  0  0  0  0
    3.9000    3.7020  -25.1960 C   0  0  0  0  0  0
    2.5720    3.2850  -25.2950 C   0  0  0  0  0  0
   -3.7650   -2.3710  -26.8260 C   0  0  0  0  0  0
    0.2940    4.2490  -21.0580 C   0  0  0  0  0  0
   -0.8430    4.8810  -20.5490 C   0  0  0  0  0  0
   -0.9800    5.0900  -19.1750 C   0  0  0  0  0  0
    0.0180    4.6660  -18.2900 C   0  0  0  0  0  0
    1.1560    4.0380  -18.8050 C   0  0  0  0  0  0
    1.2970    3.8340  -20.1790 C   0  0  0  0  0  0
   -1.5245    3.5801  -22.7886 H   0  0  0  0  0  0
   -1.0402    5.2796  -23.1106 H   0  0  0  0  0  0
    8.3564    2.4404  -23.2872 H   0  0  0  0  0  0
   -4.3809   -2.0460  -24.6904 H   0  0  0  0  0  0
   -1.1745    4.2277  -25.2813 H   0  0  0  0  0  0
    0.5764    4.3172  -24.8898 H   0  0  0  0  0  0
    2.7694    0.3094  -23.6164 H   0  0  0  0  0  0
    5.1522    1.0453  -23.4407 H   0  0  0  0  0  0
    4.2230    4.6483  -25.6299 H   0  0  0  0  0  0
    1.8490    3.8988  -25.8322 H   0  0  0  0  0  0
   -4.4668   -3.2171  -26.7862 H   0  0  0  0  0  0
   -2.7561   -2.7420  -27.0591 H   0  0  0  0  0  0
   -4.0855   -1.6652  -27.6064 H   0  0  0  0  0  0
   -1.6281    5.2131  -21.2284 H   0  0  0  0  0  0
   -1.8702    5.5867  -18.7892 H   0  0  0  0  0  0
    1.9413    3.7042  -18.1268 H   0  0  0  0  0  0
    2.1928    3.3492  -20.5670 H   0  0  0  0  0  0
   -4.5972    0.8360  -25.2322 H   0  0  0  0  0  0
  1 17  1  0  0  0
  1 20  1  0  0  0
  1 33  1  0  0  0
  1 34  1  0  0  0
  2  9  1  0  0  0
  2 12  2  0  0  0
  3 18  2  0  0  0
  4  8  2  0  0  0
  4 11  1  0  0  0
  4 14  1  0  0  0
  4 23  1  0  0  0
  5 30  1  0  0  0
  6  7  1  0  0  0
  6  9  2  0  0  0
  6 18  1  0  0  0
  7 12  1  0  0  0
  7 20  1  0  0  0
  9 13  1  0  0  0
 10 15  1  0  0  0
 10 18  1  0  0  0
 10 50  1  0  0  0
 12 19  1  0  0  0
 13 15  2  0  0  0
 14 35  1  0  0  0
 15 16  1  0  0  0
 16 26  1  0  0  0
 16 36  1  0  0  0
 17 27  1  0  0  0
 19 21  2  0  0  0
 19 25  1  0  0  0
 20 37  1  0  0  0
 20 38  1  0  0  0
 21 22  1  0  0  0
 21 39  1  0  0  0
 22 23  2  0  0  0
 22 40  1  0  0  0
 23 24  1  0  0  0
 24 25  2  0  0  0
 24 41  1  0  0  0
 25 42  1  0  0  0
 26 43  1  0  0  0
 26 44  1  0  0  0
 26 45  1  0  0  0
 27 28  2  0  0  0
 27 32  1  0  0  0
 28 29  1  0  0  0
 28 46  1  0  0  0
 29 30  2  0  0  0
 29 47  1  0  0  0
 30 31  1  0  0  0
 31 32  2  0  0  0
 31 48  1  0  0  0
 32 49  1  0  0  0
M  CHG  1  11  -1
M  END
> <s_m_source_file>
../4dum_ligand.sdf

> <i_m_source_file_index>
1

> <s_epik_input>
W2NIXTFbY0hdYyhDbClbY0hdW2NIXWMxT1tDSDJdW0NIMl1uMmMobmMoYzIzKVtuSF1jKG5jMz1PKVtOSF1bQ0gzXSktYzRbY0hdW2NIXWMoUCg9TykoW09IXSlbT0hdKVtjSF1bY0hdNA==

> <s_epik_cmdline>
J2VwaWtfYXBwJywgJy1pbWFlJywgJ2xpZ2FuZF9wcm8ubWFlJywgJy1vbWFlJywgJ2xpZ2FuZF9wcmVwLm1hZScsICctbXMnLCAnMScsICctcGgnLCAnNycsICctcGh0JywgJzAuNScsICctbnQn

> <r_lp_tautomer_probability>
0.98883901632216

> <r_epik_Ionization_Penalty>
  0.3481

> <r_epik_Ionization_Penalty_Charging>
  0.0013

> <r_epik_Ionization_Penalty_Neutral>
  0.3467

> <r_epik_State_Penalty>
  0.3424

> <r_epik_Charging_Adjusted_Penalty>
0.343685701692448

> <i_epik_Tot_Q>
-1

> <i_epik_Tot_abs_Q>
1

$$$$
