4dus_ligand
                    3D
 Schrodinger Suite 2020-3.
 74 77  0  0  1  0            999 V2000
   61.0590   45.4090    9.3810 C   0  0  0  0  0  0
   60.7700   43.9410    9.0450 C   0  0  0  0  0  0
   62.2680   43.6110    9.1040 C   0  0  0  0  0  0
   62.5710   45.1050    9.3310 C   0  0  0  0  0  0
   63.3010   45.7280    8.1240 C   0  0  0  0  0  0
   63.2430   45.3710   10.5610 O   0  0  0  0  0  0
   63.4680   46.7020   10.8150 C   0  0  0  0  0  0
   63.6200   47.0760   12.1050 N   0  0  0  0  0  0
   63.8590   48.3380   12.4470 C   0  0  0  0  0  0
   63.9540   49.3280   11.4670 C   0  0  0  0  0  0
   64.2250   50.7730   11.8800 C   0  0  0  0  0  0
   62.9740   51.5320   12.3000 C   0  0  0  0  0  0
   62.2020   50.6880   13.3150 C   0  0  0  0  0  0
   62.0810   51.8760   11.0900 C   0  0  0  0  0  0
   63.4210   52.8470   12.9560 C   0  0  0  0  0  0
   63.8060   48.9850   10.1160 C   0  0  0  0  0  0
   63.5700   47.6550    9.7860 C   0  0  0  0  0  0
   63.3910   47.2520    8.3060 C   0  0  1  0  0  0
   64.4460   47.8080    7.4400 N   0  3  0  0  0  0
   65.8280   47.4400    7.7990 C   0  0  0  0  0  0
   66.7610   48.4800    7.1570 C   0  0  1  0  0  0
   66.3080   49.7980    7.4780 O   0  0  0  0  0  0
   68.2040   48.3230    7.6240 C   0  0  1  0  0  0
   68.7530   47.0330    7.1570 N   0  0  0  0  0  0
   68.8890   46.0150    8.0050 C   0  0  0  0  0  0
   69.4430   44.7150    7.4030 C   0  0  0  0  0  0
   68.5640   46.0780    9.1900 O   0  0  0  0  0  0
   69.0620   49.5030    7.1410 C   0  0  0  0  0  0
   70.5520   49.2200    7.3590 C   0  0  0  0  0  0
   71.3970   49.0440    6.2770 C   0  0  0  0  0  0
   72.7410   48.7720    6.5020 C   0  0  0  0  0  0
   73.2280   48.6870    7.8030 C   0  0  0  0  0  0
   74.5290   48.4340    8.0340 F   0  0  0  0  0  0
   72.3830   48.8490    8.8800 C   0  0  0  0  0  0
   71.0400   49.1130    8.6480 C   0  0  0  0  0  0
   60.6298   46.0550    8.6010 H   0  0  0  0  0  0
   60.6080   45.6584   10.3528 H   0  0  0  0  0  0
   60.1181   43.5092    9.8187 H   0  0  0  0  0  0
   60.2688   43.8803    8.0677 H   0  0  0  0  0  0
   62.4564   42.9084    9.9291 H   0  0  0  0  0  0
   62.5803   43.1530    8.1539 H   0  0  0  0  0  0
   64.3151   45.3080    8.0521 H   0  0  0  0  0  0
   62.7445   45.5022    7.2024 H   0  0  0  0  0  0
   63.9814   48.6013   13.4976 H   0  0  0  0  0  0
   64.9191   50.7864   12.7333 H   0  0  0  0  0  0
   64.6717   51.3181   11.0354 H   0  0  0  0  0  0
   61.8832   49.7471   12.8426 H   0  0  0  0  0  0
   61.3171   51.2447   13.6573 H   0  0  0  0  0  0
   62.8504   50.4651   14.1752 H   0  0  0  0  0  0
   61.7486   50.9470   10.6038 H   0  0  0  0  0  0
   62.6538   52.4811   10.3718 H   0  0  0  0  0  0
   61.2039   52.4452   11.4317 H   0  0  0  0  0  0
   64.0604   52.6253   13.8232 H   0  0  0  0  0  0
   62.5364   53.4107   13.2872 H   0  0  0  0  0  0
   63.9863   53.4466   12.2274 H   0  0  0  0  0  0
   63.8746   49.7463    9.3389 H   0  0  0  0  0  0
   62.4568   47.7134    7.9532 H   0  0  0  0  0  0
   64.2931   47.4614    6.4073 H   0  0  0  0  0  0
   64.4024   48.9068    7.4683 H   0  0  0  0  0  0
   65.9369   47.4478    8.8936 H   0  0  0  0  0  0
   66.0508   46.4333    7.4156 H   0  0  0  0  0  0
   66.7173   48.3873    6.0618 H   0  0  0  0  0  0
   65.2842   50.1060    7.2191 H   0  0  0  0  0  0
   68.2319   48.2865    8.7230 H   0  0  0  0  0  0
   69.0512   46.9106    6.1053 H   0  0  0  0  0  0
   69.6697   44.8715    6.3381 H   0  0  0  0  0  0
   68.6943   43.9156    7.5049 H   0  0  0  0  0  0
   70.3617   44.4270    7.9350 H   0  0  0  0  0  0
   68.8866   49.6687    6.0678 H   0  0  0  0  0  0
   68.7882   50.4091    7.7015 H   0  0  0  0  0  0
   71.0125   49.1179    5.2598 H   0  0  0  0  0  0
   73.4150   48.6250    5.6581 H   0  0  0  0  0  0
   72.7636   48.7710    9.8984 H   0  0  0  0  0  0
   70.3621   49.2374    9.4924 H   0  0  0  0  0  0
  1  2  1  0  0  0
  1  4  1  0  0  0
  1 36  1  0  0  0
  1 37  1  0  0  0
  2  3  1  0  0  0
  2 38  1  0  0  0
  2 39  1  0  0  0
  3  4  1  0  0  0
  3 40  1  0  0  0
  3 41  1  0  0  0
  4  5  1  0  0  0
  4  6  1  0  0  0
  5 18  1  0  0  0
  5 42  1  0  0  0
  5 43  1  0  0  0
  6  7  1  0  0  0
  7  8  2  0  0  0
  7 17  1  0  0  0
  8  9  1  0  0  0
  9 10  2  0  0  0
  9 44  1  0  0  0
 10 11  1  0  0  0
 10 16  1  0  0  0
 11 12  1  0  0  0
 11 45  1  0  0  0
 11 46  1  0  0  0
 12 13  1  0  0  0
 12 14  1  0  0  0
 12 15  1  0  0  0
 13 47  1  0  0  0
 13 48  1  0  0  0
 13 49  1  0  0  0
 14 50  1  0  0  0
 14 51  1  0  0  0
 14 52  1  0  0  0
 15 53  1  0  0  0
 15 54  1  0  0  0
 15 55  1  0  0  0
 16 17  2  0  0  0
 16 56  1  0  0  0
 17 18  1  0  0  0
 18 19  1  0  0  0
 18 57  1  0  0  0
 19 20  1  0  0  0
 19 58  1  0  0  0
 19 59  1  0  0  0
 20 21  1  0  0  0
 20 60  1  0  0  0
 20 61  1  0  0  0
 21 22  1  0  0  0
 21 23  1  0  0  0
 21 62  1  0  0  0
 22 63  1  0  0  0
 23 24  1  0  0  0
 23 28  1  0  0  0
 23 64  1  0  0  0
 24 25  1  0  0  0
 24 65  1  0  0  0
 25 26  1  0  0  0
 25 27  2  0  0  0
 26 66  1  0  0  0
 26 67  1  0  0  0
 26 68  1  0  0  0
 28 29  1  0  0  0
 28 69  1  0  0  0
 28 70  1  0  0  0
 29 30  2  0  0  0
 29 35  1  0  0  0
 30 31  1  0  0  0
 30 71  1  0  0  0
 31 32  2  0  0  0
 31 72  1  0  0  0
 32 33  1  0  0  0
 32 34  1  0  0  0
 34 35  2  0  0  0
 34 73  1  0  0  0
 35 74  1  0  0  0
M  CHG  1  19   1
M  END
> <s_m_source_file>
../4dus_ligand.sdf

> <i_m_source_file_index>
1

> <s_epik_input>
W0NIM11DKFtDSDNdKShbQ0gzXSlbQ0gyXWMoW2NIXTEpW2NIXW5jKE8yKWMxW0NASF0oW0NIMl1DMjNbQ0gyXVtDSDJdW0NIMl0zKVtOSDIrXVtDSDJdW0NAQEhdKFtPSF0pW0NAQEhdKFtOSF1DKD1PKVtDSDNdKVtDSDJdYzRbY0hdW2NIXWMoRilbY0hdW2NIXTQ=

> <s_epik_cmdline>
J2VwaWtfYXBwJywgJy1pbWFlJywgJ2xpZ2FuZF9wcm8ubWFlJywgJy1vbWFlJywgJ2xpZ2FuZF9wcmVwLm1hZScsICctbXMnLCAnMScsICctcGgnLCAnNycsICctcGh0JywgJzAuNScsICctbnQn

> <r_lp_tautomer_probability>
1

> <r_epik_Ionization_Penalty>
  0.0436

> <r_epik_Ionization_Penalty_Charging>
  0.0435

> <r_epik_Ionization_Penalty_Neutral>
  0.0001

> <r_epik_State_Penalty>
  0.0368

> <r_epik_Charging_Adjusted_Penalty>
0.0802534544094391

> <i_epik_Tot_Q>
1

> <i_epik_Tot_abs_Q>
1

$$$$
