4dv8_ligand
                    3D
 Schrodinger Suite 2020-3.
 58 59  0  0  1  0            999 V2000
   16.5120   19.8430   28.6200 O   0  0  0  0  0  0
   16.3440   19.0920   27.6880 C   0  0  0  0  0  0
   15.4190   18.0210   27.7830 N   0  0  0  0  0  0
   14.6090   17.9380   28.8370 O   0  0  0  0  0  0
   17.2100   19.2400   26.4830 C   0  0  1  0  0  0
   17.0150   20.5510   25.8350 C   0  0  0  0  0  0
   15.5920   20.6730   25.2650 C   0  0  0  0  0  0
   15.0220   22.0530   25.4850 C   0  0  0  0  0  0
   13.5050   22.1210   25.2210 C   0  0  0  0  0  0
   12.7720   22.6290   26.4160 N   0  3  0  0  0  0
   11.4890   23.1770   26.0530 C   0  0  0  0  0  0
   10.6000   22.1900   25.4050 C   0  0  0  0  0  0
   10.0420   21.1160   26.1290 C   0  0  0  0  0  0
    9.1950   20.1840   25.4860 C   0  0  0  0  0  0
    8.9110   20.3360   24.1280 C   0  0  0  0  0  0
    9.4650   21.4110   23.4020 C   0  0  0  0  0  0
   10.3020   22.3380   24.0450 C   0  0  0  0  0  0
    8.1330   19.4760   23.4930 F   0  0  0  0  0  0
   18.6900   19.0180   26.9290 C   0  0  0  0  0  0
   18.8660   17.7350   27.7100 C   0  0  1  0  0  0
   18.7740   16.6030   26.9350 O   0  0  0  0  0  0
   18.8620   15.3600   27.5460 C   0  0  0  0  0  0
   20.2400   17.7390   28.3490 C   0  0  0  0  0  0
   20.3300   17.7300   29.7380 C   0  0  0  0  0  0
   21.5580   17.7720   30.3630 C   0  0  0  0  0  0
   22.7300   17.8360   29.5860 C   0  0  0  0  0  0
   22.6570   17.8400   28.2000 C   0  0  0  0  0  0
   21.4080   17.8010   27.5660 C   0  0  0  0  0  0
   23.9070   17.8910   30.2100 F   0  0  0  0  0  0
   15.3692   17.2605   26.9898 H   0  0  0  0  0  0
   13.8902   17.1089   28.9143 H   0  0  0  0  0  0
   16.8894   18.5200   25.7156 H   0  0  0  0  0  0
   17.1708   21.3516   26.5731 H   0  0  0  0  0  0
   17.7369   20.6647   25.0129 H   0  0  0  0  0  0
   15.6120   20.4740   24.1833 H   0  0  0  0  0  0
   14.9348   19.9429   25.7601 H   0  0  0  0  0  0
   15.1960   22.3597   26.5269 H   0  0  0  0  0  0
   15.5137   22.7653   24.8061 H   0  0  0  0  0  0
   13.3099   22.7975   24.3759 H   0  0  0  0  0  0
   13.1293   21.1156   24.9801 H   0  0  0  0  0  0
   12.6108   21.8039   27.1254 H   0  0  0  0  0  0
   13.3642   23.4190   26.9009 H   0  0  0  0  0  0
   10.9783   23.5437   26.9556 H   0  0  0  0  0  0
   11.6320   24.0098   25.3488 H   0  0  0  0  0  0
   10.2649   21.0037   27.1901 H   0  0  0  0  0  0
    8.7671   19.3530   26.0468 H   0  0  0  0  0  0
    9.2434   21.5226   22.3406 H   0  0  0  0  0  0
   10.7202   23.1739   23.4842 H   0  0  0  0  0  0
   19.3371   18.9683   26.0408 H   0  0  0  0  0  0
   19.0094   19.8537   27.5691 H   0  0  0  0  0  0
   18.0241   17.6170   28.4080 H   0  0  0  0  0  0
   18.7694   14.5704   26.7858 H   0  0  0  0  0  0
   18.0524   15.2558   28.2834 H   0  0  0  0  0  0
   19.8339   15.2687   28.0531 H   0  0  0  0  0  0
   19.4205   17.6893   30.3374 H   0  0  0  0  0  0
   21.6210   17.7558   31.4511 H   0  0  0  0  0  0
   23.5700   17.8734   27.6055 H   0  0  0  0  0  0
   21.3416   17.8185   26.4782 H   0  0  0  0  0  0
  1  2  2  0  0  0
  2  3  1  0  0  0
  2  5  1  0  0  0
  3  4  1  0  0  0
  3 30  1  0  0  0
  4 31  1  0  0  0
  5  6  1  0  0  0
  5 19  1  0  0  0
  5 32  1  0  0  0
  6  7  1  0  0  0
  6 33  1  0  0  0
  6 34  1  0  0  0
  7  8  1  0  0  0
  7 35  1  0  0  0
  7 36  1  0  0  0
  8  9  1  0  0  0
  8 37  1  0  0  0
  8 38  1  0  0  0
  9 10  1  0  0  0
  9 39  1  0  0  0
  9 40  1  0  0  0
 10 11  1  0  0  0
 10 41  1  0  0  0
 10 42  1  0  0  0
 11 12  1  0  0  0
 11 43  1  0  0  0
 11 44  1  0  0  0
 12 13  2  0  0  0
 12 17  1  0  0  0
 13 14  1  0  0  0
 13 45  1  0  0  0
 14 15  2  0  0  0
 14 46  1  0  0  0
 15 16  1  0  0  0
 15 18  1  0  0  0
 16 17  2  0  0  0
 16 47  1  0  0  0
 17 48  1  0  0  0
 19 20  1  0  0  0
 19 49  1  0  0  0
 19 50  1  0  0  0
 20 21  1  0  0  0
 20 23  1  0  0  0
 20 51  1  0  0  0
 21 22  1  0  0  0
 22 52  1  0  0  0
 22 53  1  0  0  0
 22 54  1  0  0  0
 23 24  2  0  0  0
 23 28  1  0  0  0
 24 25  1  0  0  0
 24 55  1  0  0  0
 25 26  2  0  0  0
 25 56  1  0  0  0
 26 27  1  0  0  0
 26 29  1  0  0  0
 27 28  2  0  0  0
 27 57  1  0  0  0
 28 58  1  0  0  0
M  CHG  1  10   1
M  END
> <s_m_source_file>
../4dv8_ligand.sdf

> <i_m_source_file_index>
1

> <s_epik_input>
W2NIXTFbY0hdYyhGKVtjSF1bY0hdYzFbQ0BIXShPW0NIM10pW0NIMl1bQ0BASF0oQyg9TylbTkhdW09IXSlbQ0gyXVtDSDJdW0NIMl1bQ0gyXVtOSDIrXVtDSDJdYzJbY0hdW2NIXWMoRilbY0hdW2NIXTI=

> <s_epik_cmdline>
J2VwaWtfYXBwJywgJy1pbWFlJywgJ2xpZ2FuZF9wcm8ubWFlJywgJy1vbWFlJywgJ2xpZ2FuZF9wcmVwLm1hZScsICctbXMnLCAnMScsICctcGgnLCAnNycsICctcGh0JywgJzAuNScsICctbnQn

> <r_epik_Ionization_Penalty>
  0.0164

> <r_epik_Ionization_Penalty_Charging>
  0.0117

> <r_epik_Ionization_Penalty_Neutral>
  0.0047

> <r_epik_State_Penalty>
  0.0090

> <r_epik_Charging_Adjusted_Penalty>
0.0207455424293664

> <i_epik_Tot_Q>
1

> <i_epik_Tot_abs_Q>
1

> <s_epik_Chemistry_Notes>
This compound has a N-S or N-O group and may undergo hydrolysis at high or low pH.

$$$$
