4dv9_ligand
                    3D
 Schrodinger Suite 2020-3.
144146  0  0  1  0            999 V2000
  -21.8360  -16.9370    1.2160 C   0  0  0  0  0  0
  -21.7650  -17.3620    0.0710 O   0  0  0  0  0  0
  -21.5600  -14.5610    0.7190 C   0  0  0  0  0  0
  -22.3540  -15.2810    2.8280 O   0  0  0  0  0  0
  -22.3930  -15.5680    1.4810 C   0  0  2  0  0  0
  -21.3630  -17.7770    2.2940 N   0  0  0  0  0  0
  -20.8320  -19.0720    1.9280 C   0  0  2  0  0  0
  -21.9640  -20.0910    1.8530 C   0  0  0  0  0  0
  -22.9370  -19.9970    2.5950 O   0  0  0  0  0  0
  -19.6990  -19.5530    2.8460 C   0  0  0  0  0  0
  -18.4010  -18.8790    2.4220 C   0  0  0  0  0  0
  -19.9800  -19.2250    4.2820 C   0  0  0  0  0  0
  -20.7010  -21.2700   -0.0030 C   0  0  0  0  0  0
  -26.0340  -20.7310   -2.2600 N   0  0  0  0  0  0
  -27.2340  -21.6620   -0.5460 O   0  0  0  0  0  0
  -22.3500  -24.3100   -0.2390 O   0  0  0  0  0  0
  -25.0260  -21.0340    0.0780 C   0  0  0  0  0  0
  -23.8470  -21.8530   -0.4100 C   0  0  0  0  0  0
  -26.1780  -21.1690   -0.9080 C   0  0  0  0  0  0
  -22.3120  -23.6160    0.7620 C   0  0  0  0  0  0
  -22.9330  -22.1920    0.7780 C   0  0  1  0  0  0
  -21.8540  -21.1860    0.8760 N   0  0  0  0  0  0
  -21.6500  -24.1040    1.9920 N   0  0  0  0  0  0
  -21.0420  -25.4380    2.0270 C   0  0  1  0  0  0
  -19.6510  -25.2810    2.5840 C   0  0  0  0  0  0
  -18.7840  -24.2670    1.8020 C   0  0  0  0  0  0
  -17.9700  -23.2500    2.5420 C   0  0  0  0  0  0
  -18.7390  -24.2860    0.3120 C   0  0  0  0  0  0
  -17.1080  -22.2640    1.8080 C   0  0  0  0  0  0
  -17.8860  -23.3090   -0.4470 C   0  0  0  0  0  0
  -17.0740  -22.2910    0.3020 C   0  0  0  0  0  0
  -21.8700  -26.3840    2.9120 C   0  0  1  0  0  0
  -21.7470  -26.1810    4.2820 O   0  0  0  0  0  0
  -23.2040  -26.9140    2.4030 C   0  0  0  0  0  0
  -22.9090  -27.9620    1.3220 C   0  0  0  0  0  0
  -22.8140  -27.6380    0.1570 O   0  0  0  0  0  0
  -22.7180  -29.3630    1.7340 N   0  0  0  0  0  0
  -22.4150  -30.4020    0.7200 C   0  0  2  0  0  0
  -23.6430  -30.5840   -0.1830 C   0  0  0  0  0  0
  -24.7760  -30.6230    0.2770 O   0  0  0  0  0  0
  -21.9500  -31.6910    1.3950 C   0  0  0  0  0  0
  -21.8060  -32.8560    0.3930 C   0  0  0  0  0  0
  -20.4510  -32.7750   -0.2710 C   0  0  0  0  0  0
  -21.8830  -34.1520    1.1880 C   0  0  0  0  0  0
  -23.4060  -30.7130   -1.6130 N   0  0  0  0  0  0
  -24.5500  -30.9000   -2.5150 C   0  0  2  0  0  0
  -24.6730  -32.3670   -2.9180 C   0  0  0  0  0  0
  -23.6600  -33.0440   -2.8830 O   0  0  0  0  0  0
  -24.3230  -30.0400   -3.7280 C   0  0  0  0  0  0
  -25.9710  -32.9560   -3.3740 N   0  0  0  0  0  0
  -26.0370  -34.3710   -3.7830 C   0  0  1  0  0  0
  -25.7560  -34.6390   -5.2650 C   0  0  0  0  0  0
  -26.3140  -35.6100   -5.7950 O   0  0  0  0  0  0
  -25.0890  -35.2830   -3.0090 C   0  0  0  0  0  0
  -25.7140  -35.7210   -1.6730 C   0  0  0  0  0  0
  -27.1880  -35.6700   -1.4890 C   0  0  0  0  0  0
  -24.8240  -36.2000   -0.5620 C   0  0  0  0  0  0
  -27.8010  -36.1020   -0.1880 C   0  0  0  0  0  0
  -25.4210  -36.6360    0.7400 C   0  0  0  0  0  0
  -26.9130  -36.5840    0.9120 C   0  0  0  0  0  0
  -27.1810  -32.1460   -3.4250 C   0  0  0  0  0  0
  -21.3560  -33.8280   -8.7990 C   0  0  0  0  0  0
  -23.0630  -35.8050   -6.9940 O   0  0  0  0  0  0
  -23.7170  -31.8550   -7.0140 C   0  0  0  0  0  0
  -24.3380  -32.6430   -8.1140 C   0  0  0  0  0  0
  -24.0560  -32.6220   -5.7320 C   0  0  0  0  0  0
  -22.4820  -34.6650   -8.8460 O   0  0  0  0  0  0
  -23.2790  -34.8500   -7.7330 C   0  0  0  0  0  0
  -24.5240  -34.0190   -7.5110 C   0  0  1  0  0  0
  -24.8350  -33.8130   -6.1100 N   0  0  0  0  0  0
  -21.5945  -14.7946   -0.3554 H   0  0  0  0  0  0
  -20.5187  -14.6055    1.0706 H   0  0  0  0  0  0
  -21.9611  -13.5507    0.8877 H   0  0  0  0  0  0
  -22.9055  -15.9116    3.5409 H   0  0  0  0  0  0
  -23.4650  -15.5117    1.2409 H   0  0  0  0  0  0
  -21.3926  -17.4734    3.3509 H   0  0  0  0  0  0
  -20.3956  -18.9032    0.9325 H   0  0  0  0  0  0
  -19.6134  -20.6475    2.7766 H   0  0  0  0  0  0
  -18.1912  -19.1172    1.3688 H   0  0  0  0  0  0
  -17.5760  -19.2433    3.0517 H   0  0  0  0  0  0
  -18.4983  -17.7896    2.5392 H   0  0  0  0  0  0
  -20.9172  -19.7102    4.5923 H   0  0  0  0  0  0
  -20.0756  -18.1352    4.3972 H   0  0  0  0  0  0
  -19.1533  -19.5890    4.9098 H   0  0  0  0  0  0
  -20.0113  -20.4418    0.2168 H   0  0  0  0  0  0
  -21.0324  -21.2033   -1.0498 H   0  0  0  0  0  0
  -20.1861  -22.2286    0.1582 H   0  0  0  0  0  0
  -26.8732  -20.8335   -2.9637 H   0  0  0  0  0  0
  -25.0839  -20.2912   -2.5974 H   0  0  0  0  0  0
  -25.3430  -21.4001    1.0657 H   0  0  0  0  0  0
  -24.7311  -19.9771    0.1560 H   0  0  0  0  0  0
  -24.2120  -22.7835   -0.8694 H   0  0  0  0  0  0
  -23.2813  -21.2738   -1.1546 H   0  0  0  0  0  0
  -23.5691  -22.1281    1.6731 H   0  0  0  0  0  0
  -21.6154  -23.4603    2.8833 H   0  0  0  0  0  0
  -21.0092  -25.8351    1.0017 H   0  0  0  0  0  0
  -19.7103  -24.9297    3.6247 H   0  0  0  0  0  0
  -19.1321  -26.2504    2.5532 H   0  0  0  0  0  0
  -18.0042  -23.2255    3.6312 H   0  0  0  0  0  0
  -19.3330  -25.0186   -0.2344 H   0  0  0  0  0  0
  -16.5128  -21.5359    2.3591 H   0  0  0  0  0  0
  -17.8566  -23.3389   -1.5362 H   0  0  0  0  0  0
  -16.4612  -21.5731   -0.2432 H   0  0  0  0  0  0
  -21.2915  -27.3189    2.9482 H   0  0  0  0  0  0
  -20.8033  -25.7994    4.6989 H   0  0  0  0  0  0
  -23.7592  -27.3700    3.2359 H   0  0  0  0  0  0
  -23.7912  -26.0849    1.9813 H   0  0  0  0  0  0
  -22.8004  -29.6382    2.7958 H   0  0  0  0  0  0
  -21.5733  -30.0609    0.0994 H   0  0  0  0  0  0
  -20.9708  -31.5247    1.8679 H   0  0  0  0  0  0
  -22.6813  -31.9882    2.1610 H   0  0  0  0  0  0
  -22.5838  -32.8217   -0.3841 H   0  0  0  0  0  0
  -20.3815  -31.8421   -0.8497 H   0  0  0  0  0  0
  -20.3208  -33.6349   -0.9445 H   0  0  0  0  0  0
  -19.6645  -32.7891    0.4979 H   0  0  0  0  0  0
  -22.8655  -34.2241    1.6773 H   0  0  0  0  0  0
  -21.0914  -34.1612    1.9517 H   0  0  0  0  0  0
  -21.7477  -35.0070    0.5093 H   0  0  0  0  0  0
  -22.3852  -30.6719   -2.0207 H   0  0  0  0  0  0
  -25.4665  -30.5916   -1.9907 H   0  0  0  0  0  0
  -24.2367  -28.9875   -3.4203 H   0  0  0  0  0  0
  -25.1706  -30.1514   -4.4202 H   0  0  0  0  0  0
  -23.3957  -30.3523   -4.2305 H   0  0  0  0  0  0
  -27.0924  -34.5625   -3.5393 H   0  0  0  0  0  0
  -24.8724  -36.1798   -3.6080 H   0  0  0  0  0  0
  -24.1519  -34.7459   -2.8009 H   0  0  0  0  0  0
  -27.8254  -35.3182   -2.3002 H   0  0  0  0  0  0
  -23.7437  -36.2302   -0.7036 H   0  0  0  0  0  0
  -28.8813  -36.0643   -0.0480 H   0  0  0  0  0  0
  -24.7827  -36.9860    1.5513 H   0  0  0  0  0  0
  -27.3548  -36.9036    1.8558 H   0  0  0  0  0  0
  -26.9525  -31.1240   -3.0883 H   0  0  0  0  0  0
  -27.9451  -32.5865   -2.7676 H   0  0  0  0  0  0
  -27.5589  -32.1160   -4.4576 H   0  0  0  0  0  0
  -20.8642  -33.8194   -9.7829 H   0  0  0  0  0  0
  -20.6525  -34.2021   -8.0406 H   0  0  0  0  0  0
  -21.6691  -32.8066   -8.5366 H   0  0  0  0  0  0
  -22.6304  -31.7947   -7.1744 H   0  0  0  0  0  0
  -24.1430  -30.8409   -7.0037 H   0  0  0  0  0  0
  -25.2943  -32.1814   -8.4010 H   0  0  0  0  0  0
  -23.6624  -32.6566   -8.9820 H   0  0  0  0  0  0
  -23.1258  -32.9201   -5.2263 H   0  0  0  0  0  0
  -24.6460  -31.9772   -5.0641 H   0  0  0  0  0  0
  -25.3642  -34.5824   -7.9431 H   0  0  0  0  0  0
  1  2  2  0  0  0
  1  5  1  0  0  0
  1  6  1  0  0  0
  3  5  1  0  0  0
  3 71  1  0  0  0
  3 72  1  0  0  0
  3 73  1  0  0  0
  4  5  1  0  0  0
  4 74  1  0  0  0
  5 75  1  0  0  0
  6  7  1  0  0  0
  6 76  1  0  0  0
  7  8  1  0  0  0
  7 10  1  0  0  0
  7 77  1  0  0  0
  8  9  2  0  0  0
  8 22  1  0  0  0
 10 11  1  0  0  0
 10 12  1  0  0  0
 10 78  1  0  0  0
 11 79  1  0  0  0
 11 80  1  0  0  0
 11 81  1  0  0  0
 12 82  1  0  0  0
 12 83  1  0  0  0
 12 84  1  0  0  0
 13 22  1  0  0  0
 13 85  1  0  0  0
 13 86  1  0  0  0
 13 87  1  0  0  0
 14 19  1  0  0  0
 14 88  1  0  0  0
 14 89  1  0  0  0
 15 19  2  0  0  0
 16 20  2  0  0  0
 17 18  1  0  0  0
 17 19  1  0  0  0
 17 90  1  0  0  0
 17 91  1  0  0  0
 18 21  1  0  0  0
 18 92  1  0  0  0
 18 93  1  0  0  0
 20 21  1  0  0  0
 20 23  1  0  0  0
 21 22  1  0  0  0
 21 94  1  0  0  0
 23 24  1  0  0  0
 23 95  1  0  0  0
 24 25  1  0  0  0
 24 32  1  0  0  0
 24 96  1  0  0  0
 25 26  1  0  0  0
 25 97  1  0  0  0
 25 98  1  0  0  0
 26 27  2  0  0  0
 26 28  1  0  0  0
 27 29  1  0  0  0
 27 99  1  0  0  0
 28 30  2  0  0  0
 28100  1  0  0  0
 29 31  2  0  0  0
 29101  1  0  0  0
 30 31  1  0  0  0
 30102  1  0  0  0
 31103  1  0  0  0
 32 33  1  0  0  0
 32 34  1  0  0  0
 32104  1  0  0  0
 33105  1  0  0  0
 34 35  1  0  0  0
 34106  1  0  0  0
 34107  1  0  0  0
 35 36  2  0  0  0
 35 37  1  0  0  0
 37 38  1  0  0  0
 37108  1  0  0  0
 38 39  1  0  0  0
 38 41  1  0  0  0
 38109  1  0  0  0
 39 40  2  0  0  0
 39 45  1  0  0  0
 41 42  1  0  0  0
 41110  1  0  0  0
 41111  1  0  0  0
 42 43  1  0  0  0
 42 44  1  0  0  0
 42112  1  0  0  0
 43113  1  0  0  0
 43114  1  0  0  0
 43115  1  0  0  0
 44116  1  0  0  0
 44117  1  0  0  0
 44118  1  0  0  0
 45 46  1  0  0  0
 45119  1  0  0  0
 46 47  1  0  0  0
 46 49  1  0  0  0
 46120  1  0  0  0
 47 48  2  0  0  0
 47 50  1  0  0  0
 49121  1  0  0  0
 49122  1  0  0  0
 49123  1  0  0  0
 50 51  1  0  0  0
 50 61  1  0  0  0
 51 52  1  0  0  0
 51 54  1  0  0  0
 51124  1  0  0  0
 52 53  2  0  0  0
 52 70  1  0  0  0
 54 55  1  0  0  0
 54125  1  0  0  0
 54126  1  0  0  0
 55 56  2  0  0  0
 55 57  1  0  0  0
 56 58  1  0  0  0
 56127  1  0  0  0
 57 59  2  0  0  0
 57128  1  0  0  0
 58 60  2  0  0  0
 58129  1  0  0  0
 59 60  1  0  0  0
 59130  1  0  0  0
 60131  1  0  0  0
 61132  1  0  0  0
 61133  1  0  0  0
 61134  1  0  0  0
 62 67  1  0  0  0
 62135  1  0  0  0
 62136  1  0  0  0
 62137  1  0  0  0
 63 68  2  0  0  0
 64 65  1  0  0  0
 64 66  1  0  0  0
 64138  1  0  0  0
 64139  1  0  0  0
 65 69  1  0  0  0
 65140  1  0  0  0
 65141  1  0  0  0
 66 70  1  0  0  0
 66142  1  0  0  0
 66143  1  0  0  0
 67 68  1  0  0  0
 68 69  1  0  0  0
 69 70  1  0  0  0
 69144  1  0  0  0
M  END
> <s_m_source_file>
../4dv9_ligand.sdf

> <i_m_source_file_index>
1

> <s_epik_input>
W0NIM11bQ0BIXShbT0hdKUMoPU8pW05IXVtDQEBIXShbQ0hdKFtDSDNdKVtDSDNdKUMoPU8pTihbQ0gzXSlbQ0BASF0oW0NIMl1bQ0gyXUMoPU8pW05IMl0pQyg9TylbTkhdW0NAQEhdKFtDSDJdYzFbY0hdW2NIXVtjSF1bY0hdW2NIXTEpW0NAQEhdKFtPSF0pW0NIMl1DKD1PKVtOSF1bQ0BASF0oW0NIMl1bQ0hdKFtDSDNdKVtDSDNdKUMoPU8pW05IXVtDQEBIXShbQ0gzXSlDKD1PKU4oW0NIM10pW0NASF0oW0NIMl1jMltjSF1bY0hdW2NIXVtjSF1bY0hdMilDKD1PKU4zW0NIMl1bQ0gyXVtDSDJdW0NASF0zQyg9TylPW0NIM10=

> <s_epik_cmdline>
J2VwaWtfYXBwJywgJy1pbWFlJywgJ2xpZ2FuZF9wcm8ubWFlJywgJy1vbWFlJywgJ2xpZ2FuZF9wcmVwLm1hZScsICctbXMnLCAnMScsICctcGgnLCAnNycsICctcGh0JywgJzAuNScsICctbnQn

> <r_lp_tautomer_probability>
1

> <r_epik_Ionization_Penalty>
  0.0000

> <r_epik_Ionization_Penalty_Charging>
  0.0000

> <r_epik_Ionization_Penalty_Neutral>
  0.0000

> <r_epik_State_Penalty>
 -0.0000

> <r_epik_Charging_Adjusted_Penalty>
0

> <i_epik_Tot_Q>
0

> <i_epik_Tot_abs_Q>
0

> <s_epik_Chemistry_Notes>
This compound has an ester and may undergo hydrolysis at high or low pH.

$$$$
