4dve_ligand
                    3D
 Schrodinger Suite 2020-3.
 31 32  0  0  1  0            999 V2000
   45.3660  -46.2240   63.2600 C   0  0  0  0  0  0
   45.2590  -45.0340   62.8850 O   0  5  0  0  0  0
   45.9500  -47.0480   62.5420 O   0  0  0  0  0  0
   44.7640  -46.6990   64.5960 C   0  0  0  0  0  0
   45.6590  -46.4040   65.8020 C   0  0  0  0  0  0
   45.0270  -46.9660   67.0970 C   0  0  0  0  0  0
   45.7390  -46.4230   68.3460 C   0  0  0  0  0  0
   45.1230  -46.9240   69.6400 C   0  0  2  0  0  0
   43.4690  -46.2490   69.8720 S   0  0  0  0  0  0
   43.5130  -46.6550   71.6040 C   0  0  0  0  0  0
   44.9700  -46.4720   72.0970 C   0  0  2  0  0  0
   45.1850  -45.1340   72.5840 N   0  0  0  0  0  0
   46.0450  -44.4420   71.8420 C   0  0  0  0  0  0
   46.4030  -43.2820   72.0520 O   0  0  0  0  0  0
   46.4670  -45.2340   70.8410 N   0  0  0  0  0  0
   45.9090  -46.5620   70.8930 C   0  0  2  0  0  0
   43.8023  -46.1927   64.7654 H   0  0  0  0  0  0
   44.6043  -47.7868   64.5601 H   0  0  0  0  0  0
   46.6426  -46.8731   65.6521 H   0  0  0  0  0  0
   45.7839  -45.3163   65.9086 H   0  0  0  0  0  0
   43.9672  -46.6753   67.1439 H   0  0  0  0  0  0
   45.1066  -48.0631   67.0977 H   0  0  0  0  0  0
   46.7932  -46.7368   68.3326 H   0  0  0  0  0  0
   45.6835  -45.3244   68.3512 H   0  0  0  0  0  0
   45.2995  -48.0015   69.5062 H   0  0  0  0  0  0
   42.8369  -45.9847   72.1550 H   0  0  0  0  0  0
   43.1908  -47.6973   71.7446 H   0  0  0  0  0  0
   45.1732  -47.1863   72.9085 H   0  0  0  0  0  0
   44.6583  -44.7852   73.4845 H   0  0  0  0  0  0
   47.1636  -44.9613   70.0345 H   0  0  0  0  0  0
   46.7230  -47.2985   70.9634 H   0  0  0  0  0  0
  1  2  1  0  0  0
  1  3  2  0  0  0
  1  4  1  0  0  0
  4  5  1  0  0  0
  4 17  1  0  0  0
  4 18  1  0  0  0
  5  6  1  0  0  0
  5 19  1  0  0  0
  5 20  1  0  0  0
  6  7  1  0  0  0
  6 21  1  0  0  0
  6 22  1  0  0  0
  7  8  1  0  0  0
  7 23  1  0  0  0
  7 24  1  0  0  0
  8  9  1  0  0  0
  8 16  1  0  0  0
  8 25  1  0  0  0
  9 10  1  0  0  0
 10 11  1  0  0  0
 10 26  1  0  0  0
 10 27  1  0  0  0
 11 12  1  0  0  0
 11 16  1  0  0  0
 11 28  1  0  0  0
 12 13  1  0  0  0
 12 29  1  0  0  0
 13 14  2  0  0  0
 13 15  1  0  0  0
 15 16  1  0  0  0
 15 30  1  0  0  0
 16 31  1  0  0  0
M  CHG  1   2  -1
M  END
> <s_m_source_file>
../4dve_ligand.sdf

> <i_m_source_file_index>
1

> <s_epik_input>
W09IXUMoPU8pW0NIMl1bQ0gyXVtDSDJdW0NIMl1bQ0BIXShTW0NIMl0xKVtDQEhdKFtDQEhdMTIpW05IXUMoPU8pW05IXTI=

> <s_epik_cmdline>
J2VwaWtfYXBwJywgJy1pbWFlJywgJ2xpZ2FuZF9wcm8ubWFlJywgJy1vbWFlJywgJ2xpZ2FuZF9wcmVwLm1hZScsICctbXMnLCAnMScsICctcGgnLCAnNycsICctcGh0JywgJzAuNScsICctbnQn

> <r_lp_tautomer_probability>
1

> <r_epik_Ionization_Penalty>
  0.0045

> <r_epik_Ionization_Penalty_Charging>
  0.0044

> <r_epik_Ionization_Penalty_Neutral>
  0.0000

> <r_epik_State_Penalty>
 -0.0000

> <r_epik_Charging_Adjusted_Penalty>
0.00443833021372702

> <i_epik_Tot_Q>
-1

> <i_epik_Tot_abs_Q>
1

$$$$
