4dvf_ligand
                    3D
 Schrodinger Suite 2020-3.
142145  0  0  1  0            999 V2000
    2.8420    2.1540    2.7620 C   0  0  0  0  0  0
   -1.9700    4.0420    3.1460 C   0  0  0  0  0  0
   -1.1620    4.0100    1.8860 C   0  0  0  0  0  0
   -1.3360    3.8880    4.4800 C   0  0  0  0  0  0
    0.3210    3.8240    1.9720 C   0  0  0  0  0  0
    0.1400    3.7010    4.5670 C   0  0  0  0  0  0
    3.0230    4.5980    2.6120 N   0  0  0  0  0  0
    0.9550    3.6610    3.3050 C   0  0  0  0  0  0
    2.4590    3.4790    3.3690 C   0  0  1  0  0  0
    3.9370   11.0650    4.8800 C   0  0  0  0  0  0
    3.8330    5.7070    4.5150 O   0  0  0  0  0  0
    7.2410    7.5100   -1.2060 O   0  0  0  0  0  0
    2.2160   10.4920    2.9690 O   0  0  0  0  0  0
    3.3300   12.6780    2.8470 O   0  0  0  0  0  0
    4.1070    8.2530    2.8270 C   0  0  0  0  0  0
    5.3690    8.9510    0.6140 C   0  0  0  0  0  0
    4.8910    6.4360    1.1600 C   0  0  0  0  0  0
    4.6000   10.7100    2.1950 N   0  0  0  0  0  0
    3.6770    5.6780    3.3000 C   0  0  0  0  0  0
    6.1420    7.0420   -0.9560 C   0  0  0  0  0  0
    4.6660    9.3000    1.8940 C   0  0  0  0  0  0
    4.2230    6.8090    2.4430 C   0  0  0  0  0  0
    5.4420    7.5190    0.2840 C   0  0  0  0  0  0
    3.4280   11.2500    3.1630 S   0  0  0  0  0  0
    5.4720    5.9930   -1.7050 N   0  0  0  0  0  0
    6.1120    5.4100   -2.8630 C   0  0  1  0  0  0
    6.0740    3.9190   -2.6280 C   0  0  0  0  0  0
    6.4650    3.5610   -1.1960 C   0  0  0  0  0  0
    7.5960    4.2170   -0.4610 C   0  0  0  0  0  0
    5.7360    2.4760   -0.4920 C   0  0  0  0  0  0
    7.9440    3.7830    0.9240 C   0  0  0  0  0  0
    6.0760    2.0480    0.8840 C   0  0  0  0  0  0
    7.1940    2.6970    1.6060 C   0  0  0  0  0  0
    5.3430    5.8410   -4.1140 C   0  0  1  0  0  0
    4.0060    5.4800   -4.0920 O   0  0  0  0  0  0
    5.6780    7.2610   -4.6130 C   0  0  0  0  0  0
    7.1340    7.3690   -5.1030 C   0  0  0  0  0  0
    8.0570    7.8180   -4.4200 O   0  0  0  0  0  0
    7.3460    6.8920   -6.4750 N   0  0  0  0  0  0
    8.6630    6.9680   -7.0390 C   0  0  2  0  0  0
    9.0690    8.4050   -7.0190 C   0  0  0  0  0  0
    8.2980    9.2880   -7.3210 O   0  0  0  0  0  0
    8.5870    6.5020   -8.4910 C   0  0  0  0  0  0
    9.9410    6.6290   -9.1920 C   0  0  0  0  0  0
   10.8580    5.5450   -8.7050 C   0  0  0  0  0  0
    9.6890    6.4540  -10.6810 C   0  0  0  0  0  0
   10.4410    8.7140   -6.6810 N   0  0  0  0  0  0
   10.9180   10.0650   -6.7100 C   0  0  2  0  0  0
   11.8420   10.2450   -7.9140 C   0  0  0  0  0  0
   12.4820    9.2940   -8.3220 O   0  0  0  0  0  0
   11.7770   10.2920   -5.4860 C   0  0  0  0  0  0
   11.9910   11.5360   -8.5540 N   0  0  0  0  0  0
   12.9300   11.6660   -9.6540 C   0  0  1  0  0  0
   12.3350   12.2820  -10.8750 C   0  0  0  0  0  0
   12.6190   13.4060  -11.2250 O   0  0  0  0  0  0
   14.1120   12.5330   -9.2390 C   0  0  0  0  0  0
   14.7960   11.9350   -8.0030 C   0  0  0  0  0  0
   14.6060   12.5710   -6.6610 C   0  0  0  0  0  0
   16.3260   10.1450   -6.9230 C   0  0  0  0  0  0
   15.2870   11.9790   -5.4590 C   0  0  0  0  0  0
   16.1400   10.7670   -5.5870 C   0  0  0  0  0  0
   11.2440   12.6830   -8.1000 C   0  0  0  0  0  0
    9.8950   15.6100  -13.6360 C   0  0  0  0  0  0
    9.4890   13.7130  -11.7700 O   0  0  0  0  0  0
   10.2760    9.7030  -12.6070 C   0  0  0  0  0  0
    9.7740   10.9700  -13.2510 C   0  0  0  0  0  0
   10.9700   10.1490  -11.3400 C   0  0  0  0  0  0
   10.4550   14.3270  -13.7160 O   0  0  0  0  0  0
   10.1370   13.3710  -12.7620 C   0  0  0  0  0  0
   10.7630   11.9970  -12.8700 C   0  0  1  0  0  0
   11.3940   11.5050  -11.6430 N   0  0  0  0  0  0
    3.9338    2.0296    2.8122 H   0  0  0  0  0  0
    2.5175    2.1245    1.7114 H   0  0  0  0  0  0
    2.3542    1.3407    3.3194 H   0  0  0  0  0  0
   -3.0492    4.1816    3.0827 H   0  0  0  0  0  0
   -1.6481    4.1209    0.9167 H   0  0  0  0  0  0
   -1.9431    3.9115    5.3850 H   0  0  0  0  0  0
    0.9282    3.8084    1.0669 H   0  0  0  0  0  0
    0.6242    3.5942    5.5377 H   0  0  0  0  0  0
    2.9469    4.6136    1.5147 H   0  0  0  0  0  0
    2.8587    3.4962    4.3937 H   0  0  0  0  0  0
    3.1384   11.4330    5.5409 H   0  0  0  0  0  0
    4.8546   11.6459    5.0550 H   0  0  0  0  0  0
    4.1291   10.0031    5.0931 H   0  0  0  0  0  0
    3.6280    8.5419    3.7625 H   0  0  0  0  0  0
    5.8004    9.7145   -0.0334 H   0  0  0  0  0  0
    4.9763    5.3901    0.8653 H   0  0  0  0  0  0
    5.3340   11.4133    1.7748 H   0  0  0  0  0  0
    4.4778    5.6422   -1.3912 H   0  0  0  0  0  0
    7.1522    5.7529   -2.9651 H   0  0  0  0  0  0
    5.0562    3.5446   -2.8121 H   0  0  0  0  0  0
    6.7769    3.4218   -3.3126 H   0  0  0  0  0  0
    8.1657    5.0134   -0.9399 H   0  0  0  0  0  0
    4.9178    1.9745   -1.0088 H   0  0  0  0  0  0
    8.7657    4.2732    1.4461 H   0  0  0  0  0  0
    5.5034    1.2553    1.3654 H   0  0  0  0  0  0
    7.4609    2.3848    2.6157 H   0  0  0  0  0  0
    5.5934    5.1661   -4.9458 H   0  0  0  0  0  0
    3.7124    4.4784   -3.7448 H   0  0  0  0  0  0
    5.0129    7.5221   -5.4493 H   0  0  0  0  0  0
    5.5362    7.9807   -3.7933 H   0  0  0  0  0  0
    6.5161    6.4816   -7.0690 H   0  0  0  0  0  0
    9.3458    6.3489   -6.4386 H   0  0  0  0  0  0
    8.2766    5.4472   -8.5218 H   0  0  0  0  0  0
    7.8542    7.1159   -9.0352 H   0  0  0  0  0  0
   10.4217    7.5959   -8.9820 H   0  0  0  0  0  0
   11.0386    5.6741   -7.6276 H   0  0  0  0  0  0
   11.8138    5.6026   -9.2465 H   0  0  0  0  0  0
   10.3936    4.5640   -8.8841 H   0  0  0  0  0  0
    9.0169    7.2495  -11.0351 H   0  0  0  0  0  0
    9.2238    5.4737  -10.8614 H   0  0  0  0  0  0
   10.6440    6.5122  -11.2238 H   0  0  0  0  0  0
   11.1210    7.8966   -6.3991 H   0  0  0  0  0  0
   10.0269   10.7091   -6.7434 H   0  0  0  0  0  0
   11.1633   10.1751   -4.5806 H   0  0  0  0  0  0
   12.1966   11.3084   -5.5159 H   0  0  0  0  0  0
   12.5958    9.5576   -5.4713 H   0  0  0  0  0  0
   13.2010   10.6242   -9.8804 H   0  0  0  0  0  0
   14.8375   12.5832  -10.0643 H   0  0  0  0  0  0
   13.7574   13.5466   -9.0004 H   0  0  0  0  0  0
   14.4516   10.9004   -7.8579 H   0  0  0  0  0  0
   15.8864   11.9415   -8.1482 H   0  0  0  0  0  0
   14.9671   13.6095   -6.6930 H   0  0  0  0  0  0
   13.5377   12.5622   -6.3990 H   0  0  0  0  0  0
   16.9812    9.2663   -6.8303 H   0  0  0  0  0  0
   16.7853   10.8745   -7.6063 H   0  0  0  0  0  0
   15.3492    9.8337   -7.3217 H   0  0  0  0  0  0
   15.1486   12.4528   -4.4760 H   0  0  0  0  0  0
   16.6258   10.3399   -4.6973 H   0  0  0  0  0  0
   10.5905   12.3882   -7.2657 H   0  0  0  0  0  0
   10.6308   13.0717   -8.9264 H   0  0  0  0  0  0
   11.9409   13.4639   -7.7617 H   0  0  0  0  0  0
   10.2619   16.2230  -14.4724 H   0  0  0  0  0  0
   10.1850   16.0779  -12.6836 H   0  0  0  0  0  0
    8.7988   15.5356  -13.6892 H   0  0  0  0  0  0
    9.4254    9.0402  -12.3897 H   0  0  0  0  0  0
   10.9715    9.1947  -13.2910 H   0  0  0  0  0  0
    9.7253   10.8327  -14.3413 H   0  0  0  0  0  0
    8.7707   11.2045  -12.8658 H   0  0  0  0  0  0
   10.2605   10.1106  -10.5003 H   0  0  0  0  0  0
   11.8196    9.4817  -11.1329 H   0  0  0  0  0  0
   11.5484   12.1127  -13.6314 H   0  0  0  0  0  0
  1  9  1  0  0  0
  1 72  1  0  0  0
  1 73  1  0  0  0
  1 74  1  0  0  0
  2  3  2  0  0  0
  2  4  1  0  0  0
  2 75  1  0  0  0
  3  5  1  0  0  0
  3 76  1  0  0  0
  4  6  2  0  0  0
  4 77  1  0  0  0
  5  8  2  0  0  0
  5 78  1  0  0  0
  6  8  1  0  0  0
  6 79  1  0  0  0
  7  9  1  0  0  0
  7 19  1  0  0  0
  7 80  1  0  0  0
  8  9  1  0  0  0
  9 81  1  0  0  0
 10 24  1  0  0  0
 10 82  1  0  0  0
 10 83  1  0  0  0
 10 84  1  0  0  0
 11 19  2  0  0  0
 12 20  2  0  0  0
 13 24  2  0  0  0
 14 24  2  0  0  0
 15 21  2  0  0  0
 15 22  1  0  0  0
 15 85  1  0  0  0
 16 21  1  0  0  0
 16 23  2  0  0  0
 16 86  1  0  0  0
 17 22  2  0  0  0
 17 23  1  0  0  0
 17 87  1  0  0  0
 18 21  1  0  0  0
 18 24  1  0  0  0
 18 88  1  0  0  0
 19 22  1  0  0  0
 20 23  1  0  0  0
 20 25  1  0  0  0
 25 26  1  0  0  0
 25 89  1  0  0  0
 26 27  1  0  0  0
 26 34  1  0  0  0
 26 90  1  0  0  0
 27 28  1  0  0  0
 27 91  1  0  0  0
 27 92  1  0  0  0
 28 29  2  0  0  0
 28 30  1  0  0  0
 29 31  1  0  0  0
 29 93  1  0  0  0
 30 32  2  0  0  0
 30 94  1  0  0  0
 31 33  2  0  0  0
 31 95  1  0  0  0
 32 33  1  0  0  0
 32 96  1  0  0  0
 33 97  1  0  0  0
 34 35  1  0  0  0
 34 36  1  0  0  0
 34 98  1  0  0  0
 35 99  1  0  0  0
 36 37  1  0  0  0
 36100  1  0  0  0
 36101  1  0  0  0
 37 38  2  0  0  0
 37 39  1  0  0  0
 39 40  1  0  0  0
 39102  1  0  0  0
 40 41  1  0  0  0
 40 43  1  0  0  0
 40103  1  0  0  0
 41 42  2  0  0  0
 41 47  1  0  0  0
 43 44  1  0  0  0
 43104  1  0  0  0
 43105  1  0  0  0
 44 45  1  0  0  0
 44 46  1  0  0  0
 44106  1  0  0  0
 45107  1  0  0  0
 45108  1  0  0  0
 45109  1  0  0  0
 46110  1  0  0  0
 46111  1  0  0  0
 46112  1  0  0  0
 47 48  1  0  0  0
 47113  1  0  0  0
 48 49  1  0  0  0
 48 51  1  0  0  0
 48114  1  0  0  0
 49 50  2  0  0  0
 49 52  1  0  0  0
 51115  1  0  0  0
 51116  1  0  0  0
 51117  1  0  0  0
 52 53  1  0  0  0
 52 62  1  0  0  0
 53 54  1  0  0  0
 53 56  1  0  0  0
 53118  1  0  0  0
 54 55  2  0  0  0
 54 71  1  0  0  0
 56 57  1  0  0  0
 56119  1  0  0  0
 56120  1  0  0  0
 57 58  1  0  0  0
 57121  1  0  0  0
 57122  1  0  0  0
 58 60  1  0  0  0
 58123  1  0  0  0
 58124  1  0  0  0
 59 61  1  0  0  0
 59125  1  0  0  0
 59126  1  0  0  0
 59127  1  0  0  0
 60 61  2  0  0  0
 60128  1  0  0  0
 61129  1  0  0  0
 62130  1  0  0  0
 62131  1  0  0  0
 62132  1  0  0  0
 63 68  1  0  0  0
 63133  1  0  0  0
 63134  1  0  0  0
 63135  1  0  0  0
 64 69  2  0  0  0
 65 66  1  0  0  0
 65 67  1  0  0  0
 65136  1  0  0  0
 65137  1  0  0  0
 66 70  1  0  0  0
 66138  1  0  0  0
 66139  1  0  0  0
 67 71  1  0  0  0
 67140  1  0  0  0
 67141  1  0  0  0
 68 69  1  0  0  0
 69 70  1  0  0  0
 70 71  1  0  0  0
 70142  1  0  0  0
M  END
> <s_m_source_file>
../4dvf_ligand.sdf

> <i_m_source_file_index>
1

> <s_epik_input>
W2NIXTFbY0hdW2NIXVtjSF1bY0hdYzFbQ0BASF0oW0NIM10pW05IXUMoPU8pYyhbY0hdYzJbTkhdUyg9TykoPU8pW0NIM10pW2NIXWMoW2NIXTIpQyg9TylbTkhdW0NAQEhdKFtDSDJdYzNbY0hdW2NIXVtjSF1bY0hdW2NIXTMpW0NAQEhdKFtPSF0pW0NIMl1DKD1PKVtOSF1bQ0BASF0oW0NIMl1bQ0hdKFtDSDNdKVtDSDNdKUMoPU8pW05IXVtDQEBIXShbQ0gzXSlDKD1PKU4oW0NIM10pW0NASF0oW0NIMl1bQ0gyXVtDSDJdL1tDSF09W0NIXVxbQ0gzXSlDKD1PKU40W0NIMl1bQ0gyXVtDSDJdW0NASF00Qyg9TylPW0NIM10=

> <s_epik_cmdline>
J2VwaWtfYXBwJywgJy1pbWFlJywgJ2xpZ2FuZF9wcm8ubWFlJywgJy1vbWFlJywgJ2xpZ2FuZF9wcmVwLm1hZScsICctbXMnLCAnMScsICctcGgnLCAnNycsICctcGh0JywgJzAuNScsICctbnQn

> <r_epik_Ionization_Penalty>
  0.2842

> <r_epik_Ionization_Penalty_Charging>
  0.0000

> <r_epik_Ionization_Penalty_Neutral>
  0.2842

> <r_epik_State_Penalty>
  0.2769

> <r_epik_Charging_Adjusted_Penalty>
0.276928978637327

> <i_epik_Tot_Q>
0

> <i_epik_Tot_abs_Q>
0

> <s_epik_Chemistry_Notes>
This compound has an ester and may undergo hydrolysis at high or low pH.

$$$$
