4dvi_ligand
                    3D
 Schrodinger Suite 2020-3.
 53 58  0  0  1  0            999 V2000
   -4.0410   44.6030   26.7270 C   0  0  2  0  0  0
   -6.0050   43.3070   26.9170 N   0  0  0  0  0  0
   -3.9120   42.1870   26.8600 O   0  0  0  0  0  0
   -3.3630   45.1160   28.0730 C   0  0  2  0  0  0
  -13.0290   40.0250   29.3460 N   0  0  0  0  0  0
   -7.6070   45.0120   27.0530 O   0  0  0  0  0  0
   -5.2680   45.5440   26.8410 C   0  0  1  0  0  0
  -10.5210   39.0580   28.0520 N   0  0  0  0  0  0
   -9.1860   37.8050   26.6530 O   0  0  0  0  0  0
   -4.6250   43.1880   26.8460 C   0  0  0  0  0  0
   -6.4600   44.6020   26.9500 C   0  0  0  0  0  0
   -5.1390   46.4670   28.1660 C   0  0  2  0  0  0
   -4.1390   44.5380   29.2590 C   0  0  0  0  0  0
   -3.6140   46.5880   28.1720 C   0  0  0  0  0  0
   -5.1400   45.4630   29.3620 C   0  0  0  0  0  0
  -11.5650   38.1740   28.2460 C   0  0  0  0  0  0
   -9.4050   38.8610   27.2580 C   0  0  0  0  0  0
  -15.3130   39.5990   30.1570 C   0  0  0  0  0  0
  -15.1940   38.2200   29.7200 C   0  0  0  0  0  0
  -13.9770   37.7040   29.0700 C   0  0  0  0  0  0
  -12.8080   38.6700   28.8810 C   0  0  0  0  0  0
  -14.1910   40.5100   29.9650 C   0  0  0  0  0  0
  -13.7680   36.3300   28.6290 C   0  0  0  0  0  0
  -12.5340   35.8550   28.0140 C   0  0  0  0  0  0
  -11.4400   36.7710   27.8310 C   0  0  0  0  0  0
  -16.3850   37.3710   29.9340 C   0  0  0  0  0  0
   -7.9910   40.5720   28.4090 C   0  0  0  0  0  0
   -7.1310   41.7170   28.2900 C   0  0  0  0  0  0
   -6.8200   42.2350   26.9700 C   0  0  0  0  0  0
   -7.3270   41.6750   25.7380 C   0  0  0  0  0  0
   -8.1920   40.5260   25.8480 C   0  0  0  0  0  0
   -8.4980   40.0150   27.1790 C   0  0  0  0  0  0
   -3.3998   44.5809   25.8335 H   0  0  0  0  0  0
   -2.2901   44.8763   28.1114 H   0  0  0  0  0  0
   -5.3780   46.1877   25.9558 H   0  0  0  0  0  0
  -10.5265   40.0350   28.5573 H   0  0  0  0  0  0
   -5.8105   47.3363   28.2252 H   0  0  0  0  0  0
   -4.1033   43.6865   29.9544 H   0  0  0  0  0  0
   -3.1631   46.9754   29.0975 H   0  0  0  0  0  0
   -3.1655   47.0956   27.3053 H   0  0  0  0  0  0
   -5.8274   45.4363   30.2204 H   0  0  0  0  0  0
  -16.2329   39.9503   30.6245 H   0  0  0  0  0  0
  -14.2536   41.5468   30.2956 H   0  0  0  0  0  0
  -14.5808   35.6170   28.7669 H   0  0  0  0  0  0
  -12.4415   34.8165   27.6962 H   0  0  0  0  0  0
  -10.5111   36.4209   27.3808 H   0  0  0  0  0  0
  -17.1696   37.9590   30.4327 H   0  0  0  0  0  0
  -16.1141   36.5116   30.5648 H   0  0  0  0  0  0
  -16.7576   37.0107   28.9637 H   0  0  0  0  0  0
   -8.2471   40.1462   29.3792 H   0  0  0  0  0  0
   -6.7172   42.1909   29.1801 H   0  0  0  0  0  0
   -7.0674   42.1017   24.7692 H   0  0  0  0  0  0
   -8.6065   40.0516   24.9585 H   0  0  0  0  0  0
  1  4  1  0  0  0
  1  7  1  0  0  0
  1 10  1  0  0  0
  1 33  1  0  0  0
  2 10  1  0  0  0
  2 11  1  0  0  0
  2 29  1  0  0  0
  3 10  2  0  0  0
  4 13  1  0  0  0
  4 14  1  0  0  0
  4 34  1  0  0  0
  5 21  2  0  0  0
  5 22  1  0  0  0
  6 11  2  0  0  0
  7 11  1  0  0  0
  7 12  1  0  0  0
  7 35  1  0  0  0
  8 16  1  0  0  0
  8 17  1  0  0  0
  8 36  1  0  0  0
  9 17  2  0  0  0
 12 14  1  0  0  0
 12 15  1  0  0  0
 12 37  1  0  0  0
 13 15  2  0  0  0
 13 38  1  0  0  0
 14 39  1  0  0  0
 14 40  1  0  0  0
 15 41  1  0  0  0
 16 21  1  0  0  0
 16 25  2  0  0  0
 17 32  1  0  0  0
 18 19  1  0  0  0
 18 22  2  0  0  0
 18 42  1  0  0  0
 19 20  2  0  0  0
 19 26  1  0  0  0
 20 21  1  0  0  0
 20 23  1  0  0  0
 22 43  1  0  0  0
 23 24  2  0  0  0
 23 44  1  0  0  0
 24 25  1  0  0  0
 24 45  1  0  0  0
 25 46  1  0  0  0
 26 47  1  0  0  0
 26 48  1  0  0  0
 26 49  1  0  0  0
 27 28  2  0  0  0
 27 32  1  0  0  0
 27 50  1  0  0  0
 28 29  1  0  0  0
 28 51  1  0  0  0
 29 30  2  0  0  0
 30 31  1  0  0  0
 30 52  1  0  0  0
 31 32  2  0  0  0
 31 53  1  0  0  0
M  END
> <s_m_source_file>
../4dvi_ligand.sdf

> <i_m_source_file_index>
1

> <s_epik_input>
W0NAQEhdMTJbQ0BASF0zW0NIXT1bQ0hdW0NAQEhdKFtDSDJdMylbQ0BASF0xQyg9TylOKEMyPU8pYzRbY0hdW2NIXWMoW2NIXVtjSF00KUMoPU8pW05IXWMoW2NIXVtjSF1bY0hdNSljKGM1NiluW2NIXVtjSF1jNltDSDNd

> <s_epik_cmdline>
J2VwaWtfYXBwJywgJy1pbWFlJywgJ2xpZ2FuZF9wcm8ubWFlJywgJy1vbWFlJywgJ2xpZ2FuZF9wcmVwLm1hZScsICctbXMnLCAnMScsICctcGgnLCAnNycsICctcGh0JywgJzAuNScsICctbnQn

> <r_lp_tautomer_probability>
1

> <r_epik_Ionization_Penalty>
  0.0040

> <r_epik_Ionization_Penalty_Charging>
  0.0000

> <r_epik_Ionization_Penalty_Neutral>
  0.0040

> <r_epik_State_Penalty>
 -0.0000

> <r_epik_Charging_Adjusted_Penalty>
0

> <i_epik_Tot_Q>
0

> <i_epik_Tot_abs_Q>
0

$$$$
