4dwb_ligand
                    3D
 Schrodinger Suite 2020-3.
 33 32  0  0  1  0            999 V2000
   13.1500   13.2480  177.6410 O   0  0  0  0  0  0
   12.8000   14.0940  176.4560 P   0  0  0  0  0  0
   13.9690   14.3150  175.4870 O   0  5  0  0  0  0
   11.5200   13.6490  175.8060 O   0  5  0  0  0  0
   12.3270   15.7180  177.0850 C   0  0  1  0  0  0
   13.6660   16.5560  177.9900 P   0  0  0  0  0  0
   14.0210   15.5500  179.0580 O   0  5  0  0  0  0
   14.7090   16.7620  176.9020 O   0  0  0  0  0  0
   13.1300   17.8490  178.4860 O   0  0  0  0  0  0
   11.9670   16.5080  175.8390 C   0  0  0  0  0  0
   10.7570   17.2520  176.1600 N   0  3  0  0  0  0
   10.2870   18.2640  175.2400 C   0  0  0  0  0  0
   11.3190   19.3850  175.1320 C   0  0  0  0  0  0
   11.2510   20.0400  173.7650 C   0  0  0  0  0  0
   10.4080   21.2840  173.8490 C   0  0  0  0  0  0
    8.9970   20.9520  173.3720 C   0  0  0  0  0  0
   11.4123   15.7155  177.6960 H   0  0  0  0  0  0
   15.1971   15.8931  176.4364 H   0  0  0  0  0  0
   12.7928   17.1890  175.5853 H   0  0  0  0  0  0
   11.7933   15.8148  175.0028 H   0  0  0  0  0  0
    9.9119   16.5543  176.2551 H   0  0  0  0  0  0
   10.8978   17.7890  177.1097 H   0  0  0  0  0  0
   10.1332   17.8146  174.2479 H   0  0  0  0  0  0
    9.3363   18.6791  175.6059 H   0  0  0  0  0  0
   11.1178   20.1440  175.9023 H   0  0  0  0  0  0
   12.3272   18.9707  175.2800 H   0  0  0  0  0  0
   12.2661   20.3054  173.4347 H   0  0  0  0  0  0
   10.8024   19.3399  173.0448 H   0  0  0  0  0  0
   10.3771   21.6363  174.8906 H   0  0  0  0  0  0
   10.8440   22.0662  173.2102 H   0  0  0  0  0  0
    8.3693   21.8536  173.4282 H   0  0  0  0  0  0
    8.5688   20.1666  174.0122 H   0  0  0  0  0  0
    9.0358   20.5965  172.3318 H   0  0  0  0  0  0
  1  2  2  0  0  0
  2  3  1  0  0  0
  2  4  1  0  0  0
  2  5  1  0  0  0
  5  6  1  0  0  0
  5 10  1  0  0  0
  5 17  1  0  0  0
  6  7  1  0  0  0
  6  8  1  0  0  0
  6  9  2  0  0  0
  8 18  1  0  0  0
 10 11  1  0  0  0
 10 19  1  0  0  0
 10 20  1  0  0  0
 11 12  1  0  0  0
 11 21  1  0  0  0
 11 22  1  0  0  0
 12 13  1  0  0  0
 12 23  1  0  0  0
 12 24  1  0  0  0
 13 14  1  0  0  0
 13 25  1  0  0  0
 13 26  1  0  0  0
 14 15  1  0  0  0
 14 27  1  0  0  0
 14 28  1  0  0  0
 15 16  1  0  0  0
 15 29  1  0  0  0
 15 30  1  0  0  0
 16 31  1  0  0  0
 16 32  1  0  0  0
 16 33  1  0  0  0
M  CHG  4   3  -1   4  -1   7  -1  11   1
M  END
> <s_m_source_file>
../4dwb_ligand.sdf

> <i_m_source_file_index>
1

> <s_epik_input>
Tz1QKFtPSF0pKFtPSF0pW0NIXShQKD1PKShbT0hdKVtPSF0pW0NIMl1bTkgyK11bQ0gyXVtDSDJdW0NIMl1bQ0gyXVtDSDNd

> <s_epik_cmdline>
J2VwaWtfYXBwJywgJy1pbWFlJywgJ2xpZ2FuZF9wcm8ubWFlJywgJy1vbWFlJywgJ2xpZ2FuZF9wcmVwLm1hZScsICctbXMnLCAnMScsICctcGgnLCAnNycsICctcGh0JywgJzAuNScsICctbnQn

> <r_epik_Ionization_Penalty>
  0.0963

> <r_epik_Ionization_Penalty_Charging>
  0.0962

> <r_epik_Ionization_Penalty_Neutral>
  0.0001

> <r_epik_State_Penalty>
  0.0862

> <r_epik_Charging_Adjusted_Penalty>
0.182376432593458

> <i_epik_Tot_Q>
-2

> <i_epik_Tot_abs_Q>
4

$$$$
