4dwg_ligand
                    3D
 Schrodinger Suite 2020-3.
 39 38  0  0  1  0            999 V2000
   11.0810   14.1310  175.5230 O   0  5  0  0  0  0
   12.4360   14.6220  175.9920 P   0  0  0  0  0  0
   13.5350   14.5040  175.0030 O   0  0  0  0  0  0
   12.7710   14.1420  177.4000 O   0  5  0  0  0  0
   12.3670   16.4370  175.9770 C   0  0  2  0  0  0
   13.4480   17.1260  177.2950 P   0  0  0  0  0  0
   14.5950   17.1090  176.3180 O   0  5  0  0  0  0
   13.7070   16.2610  178.5000 O   0  0  0  0  0  0
   13.0130   18.5030  177.7630 O   0  0  0  0  0  0
   11.0050   17.1250  175.8130 C   0  0  0  0  0  0
   11.2440   18.5640  175.7210 N   0  3  0  0  0  0
   11.0330   19.3740  174.5500 C   0  0  0  0  0  0
   10.8510   20.8640  174.9590 C   0  0  0  0  0  0
   10.4370   21.7200  173.7430 C   0  0  0  0  0  0
   11.5680   21.7790  172.7050 C   0  0  0  0  0  0
   11.5700   23.0730  171.8960 C   0  0  0  0  0  0
   12.4650   23.0120  170.6520 C   0  0  0  0  0  0
   12.4430   24.3110  169.8460 C   0  0  0  0  0  0
   12.5512   16.8175  174.9615 H   0  0  0  0  0  0
   12.7756   19.2847  177.0264 H   0  0  0  0  0  0
   10.5169   16.7584  174.8979 H   0  0  0  0  0  0
   10.3717   16.8967  176.6830 H   0  0  0  0  0  0
   10.6130   19.0881  176.4539 H   0  0  0  0  0  0
   12.3029   18.7741  175.9322 H   0  0  0  0  0  0
   11.9023   19.2859  173.8817 H   0  0  0  0  0  0
   10.1300   19.0303  174.0242 H   0  0  0  0  0  0
   10.0688   20.9400  175.7287 H   0  0  0  0  0  0
   11.7988   21.2526  175.3598 H   0  0  0  0  0  0
    9.5461   21.2800  173.2712 H   0  0  0  0  0  0
   10.2081   22.7432  174.0757 H   0  0  0  0  0  0
   12.5391   21.7038  173.2162 H   0  0  0  0  0  0
   11.4604   20.9436  171.9976 H   0  0  0  0  0  0
   10.5474   23.2949  171.5567 H   0  0  0  0  0  0
   11.9347   23.8983  172.5252 H   0  0  0  0  0  0
   13.5046   22.8221  170.9572 H   0  0  0  0  0  0
   12.1223   22.2005  169.9931 H   0  0  0  0  0  0
   13.0998   24.2098  168.9695 H   0  0  0  0  0  0
   12.7979   25.1397  170.4764 H   0  0  0  0  0  0
   11.4155   24.5181  169.5123 H   0  0  0  0  0  0
  1  2  1  0  0  0
  2  3  2  0  0  0
  2  4  1  0  0  0
  2  5  1  0  0  0
  5  6  1  0  0  0
  5 10  1  0  0  0
  5 19  1  0  0  0
  6  7  1  0  0  0
  6  8  2  0  0  0
  6  9  1  0  0  0
  9 20  1  0  0  0
 10 11  1  0  0  0
 10 21  1  0  0  0
 10 22  1  0  0  0
 11 12  1  0  0  0
 11 23  1  0  0  0
 11 24  1  0  0  0
 12 13  1  0  0  0
 12 25  1  0  0  0
 12 26  1  0  0  0
 13 14  1  0  0  0
 13 27  1  0  0  0
 13 28  1  0  0  0
 14 15  1  0  0  0
 14 29  1  0  0  0
 14 30  1  0  0  0
 15 16  1  0  0  0
 15 31  1  0  0  0
 15 32  1  0  0  0
 16 17  1  0  0  0
 16 33  1  0  0  0
 16 34  1  0  0  0
 17 18  1  0  0  0
 17 35  1  0  0  0
 17 36  1  0  0  0
 18 37  1  0  0  0
 18 38  1  0  0  0
 18 39  1  0  0  0
M  CHG  4   1  -1   4  -1   7  -1  11   1
M  END
> <s_m_source_file>
../4dwg_ligand.sdf

> <i_m_source_file_index>
1

> <s_epik_input>
W09IXVAoPU8pKFtPSF0pW0NIXShQKD1PKShbT0hdKVtPSF0pW0NIMl1bTkgyK11bQ0gyXVtDSDJdW0NIMl1bQ0gyXVtDSDJdW0NIMl1bQ0gzXQ==

> <s_epik_cmdline>
J2VwaWtfYXBwJywgJy1pbWFlJywgJ2xpZ2FuZF9wcm8ubWFlJywgJy1vbWFlJywgJ2xpZ2FuZF9wcmVwLm1hZScsICctbXMnLCAnMScsICctcGgnLCAnNycsICctcGh0JywgJzAuNScsICctbnQn

> <r_epik_Ionization_Penalty>
  0.0963

> <r_epik_Ionization_Penalty_Charging>
  0.0962

> <r_epik_Ionization_Penalty_Neutral>
  0.0001

> <r_epik_State_Penalty>
  0.0862

> <r_epik_Charging_Adjusted_Penalty>
0.182406133146502

> <i_epik_Tot_Q>
-2

> <i_epik_Tot_abs_Q>
4

$$$$
