4dwk_ligand
                    3D
 Schrodinger Suite 2020-3.
 55 56  0  0  1  0            999 V2000
  108.1710  -64.8070   -9.1130 C   0  0  0  0  0  0
  106.0670  -69.2490   -8.4640 N   0  0  0  0  0  0
  104.8140  -69.7400   -8.5730 C   0  0  0  0  0  0
  104.3000  -70.4070   -9.8520 C   0  0  0  0  0  0
  101.8420  -70.2150   -9.4490 C   0  0  0  0  0  0
   98.1380  -69.8500   -9.7310 C   0  0  0  0  0  0
   96.9470  -70.1150   -9.0210 C   0  0  0  0  0  0
   95.8210  -69.2810   -9.1730 C   0  0  0  0  0  0
   97.0530  -67.8980  -10.7540 C   0  0  0  0  0  0
  103.0260  -72.3560   -8.8870 C   0  0  0  0  0  0
  102.6080  -72.0410   -6.4890 O   0  5  0  0  0  0
  103.4380  -72.3350   -7.3990 C   0  0  0  0  0  0
  104.6190  -72.6520   -7.1120 O   0  0  0  0  0  0
  102.9890  -71.1150   -9.7500 N   0  3  2  0  0  0
  100.6150  -70.4740  -10.3260 C   0  0  0  0  0  0
   99.3380  -70.7900   -9.5220 C   0  0  0  0  0  0
   98.1740  -68.7280  -10.5980 C   0  0  0  0  0  0
   95.8750  -68.1750  -10.0390 C   0  0  0  0  0  0
  104.0550  -69.6480   -7.6300 O   0  0  0  0  0  0
  107.1540  -69.5720   -9.3700 C   0  0  2  0  0  0
  108.1910  -70.5000   -8.7680 C   0  0  0  0  0  0
  108.9700  -70.0020   -7.9820 O   0  0  0  0  0  0
  108.2890  -71.9390   -9.1230 O   0  0  0  0  0  0
  108.5190  -73.0070   -8.1970 C   0  0  0  0  0  0
  107.7770  -68.3250  -10.0440 C   0  0  0  0  0  0
  107.7910  -66.9640   -9.3760 C   0  0  3  0  0  0
  108.2890  -65.8510   -9.9580 N   0  0  0  0  0  0
  107.5710  -65.2500   -7.9810 N   0  3  0  0  0  0
  107.3370  -66.5790   -8.1180 C   0  0  0  0  0  0
  108.5391  -63.8141   -9.4107 H   0  0  0  0  0  0
  106.2385  -68.5625   -7.6218 H   0  0  0  0  0  0
  104.1720  -69.6463  -10.6362 H   0  0  0  0  0  0
  105.0254  -71.1622  -10.1887 H   0  0  0  0  0  0
  101.5330  -70.3524   -8.4023 H   0  0  0  0  0  0
  102.1448  -69.1695   -9.6076 H   0  0  0  0  0  0
   96.8978  -70.9721   -8.3494 H   0  0  0  0  0  0
   94.9071  -69.4939   -8.6183 H   0  0  0  0  0  0
   97.0958  -67.0418  -11.4271 H   0  0  0  0  0  0
  103.7091  -73.0113   -9.4474 H   0  0  0  0  0  0
  101.9975  -72.7354   -8.9774 H   0  0  0  0  0  0
  102.7953  -71.4687  -10.7734 H   0  0  0  0  0  0
  100.4066  -69.5835  -10.9372 H   0  0  0  0  0  0
  100.8098  -71.3333  -10.9846 H   0  0  0  0  0  0
   99.6392  -70.7704   -8.4642 H   0  0  0  0  0  0
   99.0544  -71.8148   -9.8036 H   0  0  0  0  0  0
   99.0865  -68.5069  -11.1517 H   0  0  0  0  0  0
   95.0028  -67.5318  -10.1561 H   0  0  0  0  0  0
  106.6280  -70.1613  -10.1356 H   0  0  0  0  0  0
  108.5436  -73.9636   -8.7394 H   0  0  0  0  0  0
  107.7090  -73.0280   -7.4530 H   0  0  0  0  0  0
  109.4810  -72.8496   -7.6873 H   0  0  0  0  0  0
  108.8435  -68.5090  -10.2409 H   0  0  0  0  0  0
  107.2584  -68.1235  -10.9929 H   0  0  0  0  0  0
  106.8629  -67.1412   -7.3000 H   0  0  0  0  0  0
  107.2761  -64.7320   -7.0565 H   0  0  0  0  0  0
  1 27  2  0  0  0
  1 28  1  0  0  0
  1 30  1  0  0  0
  2  3  1  0  0  0
  2 20  1  0  0  0
  2 31  1  0  0  0
  3  4  1  0  0  0
  3 19  2  0  0  0
  4 14  1  0  0  0
  4 32  1  0  0  0
  4 33  1  0  0  0
  5 14  1  0  0  0
  5 15  1  0  0  0
  5 34  1  0  0  0
  5 35  1  0  0  0
  6  7  2  0  0  0
  6 16  1  0  0  0
  6 17  1  0  0  0
  7  8  1  0  0  0
  7 36  1  0  0  0
  8 18  2  0  0  0
  8 37  1  0  0  0
  9 17  2  0  0  0
  9 18  1  0  0  0
  9 38  1  0  0  0
 10 12  1  0  0  0
 10 14  1  0  0  0
 10 39  1  0  0  0
 10 40  1  0  0  0
 11 12  1  0  0  0
 12 13  2  0  0  0
 14 41  1  0  0  0
 15 16  1  0  0  0
 15 42  1  0  0  0
 15 43  1  0  0  0
 16 44  1  0  0  0
 16 45  1  0  0  0
 17 46  1  0  0  0
 18 47  1  0  0  0
 20 21  1  0  0  0
 20 25  1  0  0  0
 20 48  1  0  0  0
 21 22  2  0  0  0
 21 23  1  0  0  0
 23 24  1  0  0  0
 24 49  1  0  0  0
 24 50  1  0  0  0
 24 51  1  0  0  0
 25 26  1  0  0  0
 25 52  1  0  0  0
 25 53  1  0  0  0
 26 27  1  0  0  0
 26 29  1  0  0  0
 28 29  2  0  0  0
 28 55  1  0  0  0
 29 54  1  0  0  0
M  CHG  3  11  -1  14   1  28   1
M  END
> <s_m_source_file>
../4dwk_ligand.sdf

> <i_m_source_file_index>
1

> <s_epik_input>
W0NIXTE9TltDSF09TltDSF0xW0NIMl1bQ0BASF0oQyg9TylPW0NIM10pW05IXUMoPU8pW0NIMl1bTkBASCtdKFtDSDJdQyg9TylbT0hdKVtDSDJdW0NIMl1bQ0gyXWMyW2NIXVtjSF1bY0hdW2NIXVtjSF0y

> <s_epik_cmdline>
J2VwaWtfYXBwJywgJy1pbWFlJywgJ2xpZ2FuZF9wcm8ubWFlJywgJy1vbWFlJywgJ2xpZ2FuZF9wcmVwLm1hZScsICctbXMnLCAnMScsICctcGgnLCAnNycsICctcGh0JywgJzAuNScsICctbnQn

> <r_lp_tautomer_probability>
1

> <r_epik_Ionization_Penalty>
  0.3142

> <r_epik_Ionization_Penalty_Charging>
  0.3136

> <r_epik_Ionization_Penalty_Neutral>
  0.0006

> <r_epik_State_Penalty>
 -0.0000

> <r_epik_Charging_Adjusted_Penalty>
0.313605790259946

> <i_epik_Tot_Q>
1

> <i_epik_Tot_abs_Q>
3

> <s_epik_Chemistry_Notes>
This compound has an ester and may undergo hydrolysis at high or low pH. This compound has an imine and may undergo hydrolysis.

$$$$
