4dx9_ligand
                    3D
 Schrodinger Suite 2020-3.
151151  0  0  1  0            999 V2000
   18.0480   71.1390  -76.0850 N   0  3  0  0  0  0
   18.4770   72.0870  -77.1530 C   0  0  2  0  0  0
   18.6790   73.5070  -76.6270 C   0  0  0  0  0  0
   18.2480   73.8390  -75.5210 O   0  0  0  0  0  0
   17.4870   72.0700  -78.3190 C   0  0  0  0  0  0
   17.6340   70.8640  -79.2380 C   0  0  0  0  0  0
   16.5140   70.7880  -80.2670 C   0  0  0  0  0  0
   15.1800   70.4300  -79.6220 C   0  0  0  0  0  0
   14.1350   70.1110  -80.6310 N   0  3  0  0  0  0
   19.3290   74.3320  -77.4490 N   0  0  0  0  0  0
   19.8490   75.6500  -77.0640 C   0  0  2  0  0  0
   18.7960   76.7080  -76.7220 C   0  0  0  0  0  0
   17.6120   76.5470  -77.0250 O   0  0  0  0  0  0
   20.7570   76.1790  -78.1780 C   0  0  0  0  0  0
   20.0490   76.2760  -79.4040 O   0  0  0  0  0  0
   19.2530   77.7890  -76.0900 N   0  0  0  0  0  0
   18.4200   78.9510  -75.7810 C   0  0  2  0  0  0
   19.2140   80.2560  -75.9010 C   0  0  0  0  0  0
   18.6920   81.2590  -76.3920 O   0  0  0  0  0  0
   17.8110   78.8220  -74.3920 C   0  0  0  0  0  0
   20.4680   80.2310  -75.4470 N   0  0  0  0  0  0
   21.3780   81.3800  -75.5300 C   0  0  2  0  0  0
   22.7440   80.9390  -76.0770 C   0  0  0  0  0  0
   23.4210   80.1080  -75.4680 O   0  0  0  0  0  0
   21.5670   82.0530  -74.1500 C   0  0  0  0  0  0
   22.5130   83.2430  -74.2450 C   0  0  0  0  0  0
   20.2300   82.4840  -73.5660 C   0  0  0  0  0  0
   23.1470   81.4970  -77.2180 N   0  0  0  0  0  0
   24.4100   81.1060  -77.8680 C   0  0  2  0  0  0
   25.4690   82.2140  -77.8690 C   0  0  0  0  0  0
   25.1410   83.4050  -77.8890 O   0  0  0  0  0  0
   24.1950   80.6270  -79.3210 C   0  0  2  0  0  0
   23.6960   81.7080  -80.1150 O   0  0  0  0  0  0
   23.2170   79.4620  -79.3750 C   0  0  0  0  0  0
   26.7380   81.8010  -77.8650 N   0  0  0  0  0  0
   27.8760   82.7270  -77.8230 C   0  0  2  0  0  0
   29.0980   82.2210  -78.5990 C   0  0  0  0  0  0
   29.1970   81.0320  -78.9150 O   0  0  0  0  0  0
   28.2860   83.0630  -76.3680 C   0  0  2  0  0  0
   29.3730   83.9990  -76.3750 O   0  0  0  0  0  0
   28.7070   81.8080  -75.6040 C   0  0  0  0  0  0
   30.0140   83.1430  -78.9020 N   0  0  0  0  0  0
   31.3030   82.8290  -79.5300 C   0  0  2  0  0  0
   32.4080   83.6710  -78.8790 C   0  0  0  0  0  0
   32.3160   84.9030  -78.8370 O   0  0  0  0  0  0
   31.2810   83.0750  -81.0610 C   0  0  0  0  0  0
   32.6850   83.0010  -81.6480 C   0  0  0  0  0  0
   30.3680   82.0800  -81.7640 C   0  0  0  0  0  0
   33.4460   83.0030  -78.3760 N   0  0  0  0  0  0
   34.5670   83.6840  -77.7140 C   0  0  2  0  0  0
   35.7910   83.8690  -78.6150 C   0  0  0  0  0  0
   36.1060   83.0090  -79.4440 O   0  0  0  0  0  0
   34.9920   82.9790  -76.4030 C   0  0  0  0  0  0
   33.9520   83.2040  -75.3190 C   0  0  0  0  0  0
   35.2360   81.4890  -76.6240 C   0  0  0  0  0  0
   36.4730   85.0000  -78.4360 N   0  0  0  0  0  0
   37.6670   85.3320  -79.2110 C   0  0  2  0  0  0
   38.8980   84.5900  -78.6950 C   0  0  0  0  0  0
   39.2150   84.6650  -77.5060 O   0  0  0  0  0  0
   37.9110   86.8490  -79.2100 C   0  0  0  0  0  0
   38.8950   87.2920  -80.2840 C   0  0  0  0  0  0
   38.5050   87.8880  -81.2860 O   0  0  0  0  0  0
   40.1770   87.0060  -80.0770 N   0  0  0  0  0  0
   39.5950   83.8680  -79.5910 N   0  0  0  0  0  0
   40.8240   83.1820  -79.2210 C   0  0  2  0  0  0
   42.0530   84.0650  -79.4320 C   0  0  0  0  0  0
   42.0581   85.2488  -79.0006 O   0  0  0  0  0  0
   40.8520   81.9830  -80.1740 C   0  0  0  0  0  0
   40.0170   82.3860  -81.3510 C   0  0  0  0  0  0
   39.2440   83.6290  -81.0020 C   0  0  0  0  0  0
   43.0603   83.6098  -80.0368 O   0  0  0  0  0  0
   18.7723   71.1667  -75.2576 H   0  0  0  0  0  0
   18.0004   70.1201  -76.4967 H   0  0  0  0  0  0
   17.0548   71.4309  -75.7129 H   0  0  0  0  0  0
   19.4556   71.7211  -77.4972 H   0  0  0  0  0  0
   16.4592   72.0566  -77.9272 H   0  0  0  0  0  0
   17.6323   72.9687  -78.9365 H   0  0  0  0  0  0
   18.5907   70.9283  -79.7771 H   0  0  0  0  0  0
   17.6120   69.9417  -78.6390 H   0  0  0  0  0  0
   16.4073   71.7628  -80.7654 H   0  0  0  0  0  0
   16.7548   70.0182  -81.0149 H   0  0  0  0  0  0
   15.3100   69.5498  -78.9752 H   0  0  0  0  0  0
   14.8247   71.2787  -79.0192 H   0  0  0  0  0  0
   13.1947   69.8601  -80.1183 H   0  0  0  0  0  0
   14.4614   69.2540  -81.2385 H   0  0  0  0  0  0
   13.9761   70.9829  -81.2825 H   0  0  0  0  0  0
   19.4657   73.9657  -78.4772 H   0  0  0  0  0  0
   20.3863   75.4326  -76.1291 H   0  0  0  0  0  0
   21.1294   77.1772  -77.9045 H   0  0  0  0  0  0
   21.6076   75.4948  -78.3137 H   0  0  0  0  0  0
   20.5603   76.6409  -80.3070 H   0  0  0  0  0  0
   20.3135   77.7792  -75.7980 H   0  0  0  0  0  0
   17.6198   78.9400  -76.5356 H   0  0  0  0  0  0
   17.2459   77.8806  -74.3254 H   0  0  0  0  0  0
   17.1344   79.6696  -74.2081 H   0  0  0  0  0  0
   18.6126   78.8226  -73.6387 H   0  0  0  0  0  0
   20.8107   79.2897  -74.9927 H   0  0  0  0  0  0
   20.8879   82.0767  -76.2260 H   0  0  0  0  0  0
   22.0149   81.3209  -73.4619 H   0  0  0  0  0  0
   23.4737   82.9148  -74.6686 H   0  0  0  0  0  0
   22.6785   83.6608  -73.2410 H   0  0  0  0  0  0
   22.0699   84.0127  -74.8940 H   0  0  0  0  0  0
   19.5594   81.6142  -73.5042 H   0  0  0  0  0  0
   19.7777   83.2506  -74.2123 H   0  0  0  0  0  0
   20.3863   82.8988  -72.5592 H   0  0  0  0  0  0
   22.5093   82.2683  -77.6745 H   0  0  0  0  0  0
   24.7477   80.2838  -77.2199 H   0  0  0  0  0  0
   25.1496   80.3282  -79.7786 H   0  0  0  0  0  0
   24.2716   82.6418  -80.1967 H   0  0  0  0  0  0
   23.6016   78.6318  -78.7644 H   0  0  0  0  0  0
   23.1016   79.1282  -80.4167 H   0  0  0  0  0  0
   22.2410   79.7841  -78.9829 H   0  0  0  0  0  0
   26.9131   80.7154  -77.8949 H   0  0  0  0  0  0
   27.4766   83.6131  -78.3380 H   0  0  0  0  0  0
   27.4568   83.5576  -75.8409 H   0  0  0  0  0  0
   29.2599   84.9694  -76.8804 H   0  0  0  0  0  0
   27.8759   81.0874  -75.5963 H   0  0  0  0  0  0
   28.9676   82.0783  -74.5701 H   0  0  0  0  0  0
   29.5805   81.3551  -76.0958 H   0  0  0  0  0  0
   29.7613   84.1850  -78.6562 H   0  0  0  0  0  0
   31.4604   81.7575  -79.3374 H   0  0  0  0  0  0
   30.8869   84.0852  -81.2461 H   0  0  0  0  0  0
   33.3360   83.7232  -81.1335 H   0  0  0  0  0  0
   32.6470   83.2410  -82.7208 H   0  0  0  0  0  0
   33.0856   81.9854  -81.5134 H   0  0  0  0  0  0
   29.3578   82.1415  -81.3331 H   0  0  0  0  0  0
   30.7626   81.0620  -81.6297 H   0  0  0  0  0  0
   30.3240   82.3176  -82.8371 H   0  0  0  0  0  0
   33.4459   81.9069  -78.4689 H   0  0  0  0  0  0
   34.1322   84.6729  -77.5065 H   0  0  0  0  0  0
   35.9405   83.4140  -76.0550 H   0  0  0  0  0  0
   33.7952   84.2838  -75.1798 H   0  0  0  0  0  0
   34.3034   82.7599  -74.3760 H   0  0  0  0  0  0
   33.0043   82.7312  -75.6163 H   0  0  0  0  0  0
   35.9915   81.3541  -77.4121 H   0  0  0  0  0  0
   34.2967   81.0050  -76.9298 H   0  0  0  0  0  0
   35.5957   81.0338  -75.6894 H   0  0  0  0  0  0
   36.1040   85.6966  -77.6688 H   0  0  0  0  0  0
   37.4453   84.9825  -80.2302 H   0  0  0  0  0  0
   36.9608   87.3733  -79.3897 H   0  0  0  0  0  0
   38.3195   87.1541  -78.2353 H   0  0  0  0  0  0
   40.4808   86.4707  -79.1654 H   0  0  0  0  0  0
   40.9337   87.3048  -80.8174 H   0  0  0  0  0  0
   40.8045   82.9241  -78.1518 H   0  0  0  0  0  0
   41.8905   81.7750  -80.4711 H   0  0  0  0  0  0
   40.4321   81.1017  -79.6670 H   0  0  0  0  0  0
   40.6705   82.5858  -82.2130 H   0  0  0  0  0  0
   39.3189   81.5734  -81.6008 H   0  0  0  0  0  0
   38.1571   83.4844  -81.0900 H   0  0  0  0  0  0
   39.5489   84.4953  -81.6075 H   0  0  0  0  0  0
   43.9448   84.2460  -80.1884 H   0  0  0  0  0  0
  1  2  1  0  0  0
  1 72  1  0  0  0
  1 73  1  0  0  0
  1 74  1  0  0  0
  2  3  1  0  0  0
  2  5  1  0  0  0
  2 75  1  0  0  0
  3  4  2  0  0  0
  3 10  1  0  0  0
  5  6  1  0  0  0
  5 76  1  0  0  0
  5 77  1  0  0  0
  6  7  1  0  0  0
  6 78  1  0  0  0
  6 79  1  0  0  0
  7  8  1  0  0  0
  7 80  1  0  0  0
  7 81  1  0  0  0
  8  9  1  0  0  0
  8 82  1  0  0  0
  8 83  1  0  0  0
  9 84  1  0  0  0
  9 85  1  0  0  0
  9 86  1  0  0  0
 10 11  1  0  0  0
 10 87  1  0  0  0
 11 12  1  0  0  0
 11 14  1  0  0  0
 11 88  1  0  0  0
 12 13  2  0  0  0
 12 16  1  0  0  0
 14 15  1  0  0  0
 14 89  1  0  0  0
 14 90  1  0  0  0
 15 91  1  0  0  0
 16 17  1  0  0  0
 16 92  1  0  0  0
 17 18  1  0  0  0
 17 20  1  0  0  0
 17 93  1  0  0  0
 18 19  2  0  0  0
 18 21  1  0  0  0
 20 94  1  0  0  0
 20 95  1  0  0  0
 20 96  1  0  0  0
 21 22  1  0  0  0
 21 97  1  0  0  0
 22 23  1  0  0  0
 22 25  1  0  0  0
 22 98  1  0  0  0
 23 24  2  0  0  0
 23 28  1  0  0  0
 25 26  1  0  0  0
 25 27  1  0  0  0
 25 99  1  0  0  0
 26100  1  0  0  0
 26101  1  0  0  0
 26102  1  0  0  0
 27103  1  0  0  0
 27104  1  0  0  0
 27105  1  0  0  0
 28 29  1  0  0  0
 28106  1  0  0  0
 29 30  1  0  0  0
 29 32  1  0  0  0
 29107  1  0  0  0
 30 31  2  0  0  0
 30 35  1  0  0  0
 32 33  1  0  0  0
 32 34  1  0  0  0
 32108  1  0  0  0
 33109  1  0  0  0
 34110  1  0  0  0
 34111  1  0  0  0
 34112  1  0  0  0
 35 36  1  0  0  0
 35113  1  0  0  0
 36 37  1  0  0  0
 36 39  1  0  0  0
 36114  1  0  0  0
 37 38  2  0  0  0
 37 42  1  0  0  0
 39 40  1  0  0  0
 39 41  1  0  0  0
 39115  1  0  0  0
 40116  1  0  0  0
 41117  1  0  0  0
 41118  1  0  0  0
 41119  1  0  0  0
 42 43  1  0  0  0
 42120  1  0  0  0
 43 44  1  0  0  0
 43 46  1  0  0  0
 43121  1  0  0  0
 44 45  2  0  0  0
 44 49  1  0  0  0
 46 47  1  0  0  0
 46 48  1  0  0  0
 46122  1  0  0  0
 47123  1  0  0  0
 47124  1  0  0  0
 47125  1  0  0  0
 48126  1  0  0  0
 48127  1  0  0  0
 48128  1  0  0  0
 49 50  1  0  0  0
 49129  1  0  0  0
 50 51  1  0  0  0
 50 53  1  0  0  0
 50130  1  0  0  0
 51 52  2  0  0  0
 51 56  1  0  0  0
 53 54  1  0  0  0
 53 55  1  0  0  0
 53131  1  0  0  0
 54132  1  0  0  0
 54133  1  0  0  0
 54134  1  0  0  0
 55135  1  0  0  0
 55136  1  0  0  0
 55137  1  0  0  0
 56 57  1  0  0  0
 56138  1  0  0  0
 57 58  1  0  0  0
 57 60  1  0  0  0
 57139  1  0  0  0
 58 59  2  0  0  0
 58 64  1  0  0  0
 60 61  1  0  0  0
 60140  1  0  0  0
 60141  1  0  0  0
 61 62  2  0  0  0
 61 63  1  0  0  0
 63142  1  0  0  0
 63143  1  0  0  0
 64 65  1  0  0  0
 64 70  1  0  0  0
 65 66  1  0  0  0
 65 68  1  0  0  0
 65144  1  0  0  0
 66 67  2  0  0  0
 66 71  1  0  0  0
 68 69  1  0  0  0
 68145  1  0  0  0
 68146  1  0  0  0
 69 70  1  0  0  0
 69147  1  0  0  0
 69148  1  0  0  0
 70149  1  0  0  0
 70150  1  0  0  0
 71151  1  0  0  0
M  CHG  2   1   1   9   1
M  END
> <s_m_source_file>
../4dx9_ligand.sdf

> <i_m_source_file_index>
1

> <s_epik_input>
W05IMytdW0NIMl1bQ0gyXVtDSDJdW0NIMl1bQ0BIXShbTkgzK10pQyg9TylbTkhdW0NAQEhdKFtDSDJdW09IXSlDKD1PKVtOSF1bQ0BASF0oW0NIM10pQyg9TylbTkhdW0NAQEhdKFtDSF0oW0NIM10pW0NIM10pQyg9TylbTkhdW0NAQEhdKFtDQEhdKFtPSF0pW0NIM10pQyg9TylbTkhdW0NAQEhdKFtDQEhdKFtPSF0pW0NIM10pQyg9TylbTkhdW0NAQEhdKFtDSF0oW0NIM10pW0NIM10pQyg9TylbTkhdW0NAQEhdKFtDSF0oW0NIM10pW0NIM10pQyg9TylbTkhdW0NAQEhdKFtDSDJdQyg9TylbTkgyXSlDKD1PKU4xW0NASF0oQyg9TylbT0hdKVtDSDJdW0NIMl1bQ0gyXTE=

> <s_epik_cmdline>
J2VwaWtfYXBwJywgJy1pbWFlJywgJ2xpZ2FuZF9wcm8ubWFlJywgJy1vbWFlJywgJ2xpZ2FuZF9wcmVwLm1hZScsICctbXMnLCAnMScsICctcGgnLCAnNycsICctcGh0JywgJzAuNScsICctbnQn

> <s_epik_pKa_notes>
Molecule size exceeds maximum supported for generating protonation states

$$$$
