4dxg_ligand
                    3D
 Schrodinger Suite 2020-3.
107110  0  0  1  0            999 V2000
  -12.2810  -23.6900   22.7400 C   0  0  0  0  0  0
  -13.3160  -24.5740   23.4700 C   0  0  1  0  0  0
  -12.8440  -26.0370   23.4110 C   0  0  0  0  0  0
  -11.6560  -26.3200   24.3400 C   0  0  1  0  0  0
  -11.8650  -25.7830   25.7670 C   0  0  2  0  0  0
  -12.3390  -24.3310   25.6730 C   0  0  2  0  0  0
  -12.6660  -23.6710   27.0150 C   0  0  1  0  0  0
  -13.2410  -22.2800   26.7960 C   0  0  1  0  0  0
  -13.3040  -21.4520   28.0920 C   0  0  0  0  0  0
  -10.3170  -26.5690   27.5640 C   0  0  0  0  0  0
   -8.9070  -26.4770   28.0370 C   0  0  0  0  0  0
  -10.5720  -25.8630   26.4550 N   0  0  0  0  0  0
  -11.7570  -24.1400   21.6750 O   0  5  0  0  0  0
  -12.0170  -22.5440   23.2050 O   0  0  0  0  0  0
  -11.3680  -27.7270   24.4740 O   0  0  0  0  0  0
  -13.5240  -24.2720   24.8540 O   0  0  0  0  0  0
  -13.6800  -24.4290   27.6390 O   0  0  0  0  0  0
  -12.4300  -21.6490   25.7830 O   0  0  0  0  0  0
  -13.7700  -20.1240   27.7720 O   0  0  0  0  0  0
  -11.1520  -27.2280   28.1770 O   0  0  0  0  0  0
  -21.0410  -19.7200   26.3370 C   0  0  2  0  0  0
  -21.1000  -19.4770   24.8300 C   0  0  1  0  0  0
  -20.4020  -20.6080   24.0200 C   0  0  2  0  0  0
  -19.0030  -20.9610   24.5390 C   0  0  1  0  0  0
  -19.0740  -21.2000   26.0460 C   0  0  1  0  0  0
  -17.6740  -21.5840   26.5520 C   0  0  0  0  0  0
  -22.9400  -18.0630   23.9170 C   0  0  0  0  0  0
  -24.3410  -18.0270   23.3250 C   0  0  0  0  0  0
  -19.7070  -20.1180   26.7490 O   0  0  0  0  0  0
  -20.1620  -20.2100   22.6870 O   0  0  0  0  0  0
  -18.4960  -22.1270   23.8570 O   0  0  0  0  0  0
  -17.5320  -21.3400   27.9260 O   0  0  0  0  0  0
  -22.3420  -16.9960   24.0740 O   0  0  0  0  0  0
  -22.4380  -19.2550   24.2830 N   0  0  0  0  0  0
  -21.9490  -20.7370   26.6980 O   0  0  0  0  0  0
  -17.1260  -21.8970   23.4290 C   0  0  1  0  0  0
  -16.5200  -23.2770   23.2890 C   0  0  1  0  0  0
  -15.0980  -23.1870   22.8180 C   0  0  2  0  0  0
  -15.0410  -22.4230   21.4820 C   0  0  2  0  0  0
  -15.6720  -21.0430   21.6940 C   0  0  1  0  0  0
  -15.7800  -20.3680   20.3500 C   0  0  0  0  0  0
  -16.5070  -23.8710   24.5450 O   0  0  0  0  0  0
  -14.5830  -24.4960   22.7590 O   0  0  0  0  0  0
  -15.7310  -23.1090   20.4240 O   0  0  0  0  0  0
  -16.9890  -21.1600   22.2200 O   0  0  0  0  0  0
  -16.3050  -19.0670   20.5350 O   0  0  0  0  0  0
  -21.1040  -20.7100   21.7360 C   0  0  1  0  0  0
  -21.0070  -19.8270   20.5000 C   0  0  2  0  0  0
  -19.7900  -20.1120   19.6870 C   0  0  1  0  0  0
  -19.7480  -21.5700   19.3470 C   0  0  1  0  0  0
  -19.7800  -22.3830   20.6550 C   0  0  2  0  0  0
  -19.7640  -23.8920   20.5170 C   0  0  0  0  0  0
  -20.8780  -18.4670   20.8370 O   0  0  0  0  0  0
  -19.9490  -19.3360   18.5200 O   0  0  0  0  0  0
  -20.8630  -21.7420   18.4540 O   0  0  0  0  0  0
  -20.9460  -22.0850   21.3980 O   0  0  0  0  0  0
  -13.6685  -26.7006   23.7105 H   0  0  0  0  0  0
  -12.5317  -26.2804   22.3847 H   0  0  0  0  0  0
  -10.7877  -25.8604   23.8452 H   0  0  0  0  0  0
  -12.5878  -26.3701   26.3527 H   0  0  0  0  0  0
  -11.5307  -23.7602   25.1925 H   0  0  0  0  0  0
  -11.7829  -23.6521   27.6706 H   0  0  0  0  0  0
  -14.2683  -22.3328   26.4062 H   0  0  0  0  0  0
  -13.9974  -21.9304   28.7994 H   0  0  0  0  0  0
  -12.3015  -21.3975   28.5414 H   0  0  0  0  0  0
   -8.3300  -25.8423   27.3484 H   0  0  0  0  0  0
   -8.4638  -27.4833   28.0665 H   0  0  0  0  0  0
   -8.8864  -26.0375   29.0452 H   0  0  0  0  0  0
   -9.7051  -25.3112   26.0625 H   0  0  0  0  0  0
  -11.1791  -28.3375   23.5786 H   0  0  0  0  0  0
  -13.4975  -25.4817   27.9008 H   0  0  0  0  0  0
  -12.2979  -22.1328   24.8040 H   0  0  0  0  0  0
  -13.8843  -19.3744   28.5688 H   0  0  0  0  0  0
  -21.3232  -18.8189   26.9013 H   0  0  0  0  0  0
  -20.6080  -18.5014   24.7030 H   0  0  0  0  0  0
  -21.0893  -21.4669   24.0229 H   0  0  0  0  0  0
  -18.2768  -20.1677   24.3082 H   0  0  0  0  0  0
  -19.7875  -21.9978   26.2997 H   0  0  0  0  0  0
  -17.4999  -22.6550   26.3716 H   0  0  0  0  0  0
  -16.9158  -20.9940   26.0162 H   0  0  0  0  0  0
  -24.6079  -16.9889   23.0776 H   0  0  0  0  0  0
  -25.0587  -18.4257   24.0571 H   0  0  0  0  0  0
  -24.3692  -18.6403   22.4123 H   0  0  0  0  0  0
  -16.5806  -21.5668   28.4294 H   0  0  0  0  0  0
  -23.1227  -20.1044   24.1427 H   0  0  0  0  0  0
  -23.0194  -20.6248   26.4706 H   0  0  0  0  0  0
  -16.6387  -21.2186   24.1447 H   0  0  0  0  0  0
  -17.1200  -23.9110   22.6196 H   0  0  0  0  0  0
  -14.4334  -22.6905   23.5404 H   0  0  0  0  0  0
  -14.0058  -22.3704   21.1139 H   0  0  0  0  0  0
  -15.1043  -20.4553   22.4304 H   0  0  0  0  0  0
  -14.7829  -20.3060   19.8897 H   0  0  0  0  0  0
  -16.4485  -20.9511   19.6995 H   0  0  0  0  0  0
  -17.4511  -24.0377   25.0844 H   0  0  0  0  0  0
  -15.4167  -24.1207   20.1278 H   0  0  0  0  0  0
  -16.4611  -18.4084   19.6679 H   0  0  0  0  0  0
  -22.0797  -20.7165   22.2438 H   0  0  0  0  0  0
  -21.9387  -19.9702   19.9331 H   0  0  0  0  0  0
  -18.8465  -19.8312   20.1779 H   0  0  0  0  0  0
  -18.8677  -21.9202   18.7880 H   0  0  0  0  0  0
  -18.8884  -22.0656   21.2156 H   0  0  0  0  0  0
  -18.8761  -24.1984   19.9445 H   0  0  0  0  0  0
  -20.6717  -24.2217   19.9903 H   0  0  0  0  0  0
  -19.7326  -24.3512   21.5161 H   0  0  0  0  0  0
  -21.6503  -17.9760   21.4473 H   0  0  0  0  0  0
  -19.9993  -18.2395   18.5913 H   0  0  0  0  0  0
  -20.8974  -21.1884   17.5041 H   0  0  0  0  0  0
  1  2  1  0  0  0
  1 13  1  0  0  0
  1 14  2  0  0  0
  2  3  1  0  0  0
  2 16  1  0  0  0
  2 43  1  0  0  0
  3  4  1  0  0  0
  3 57  1  0  0  0
  3 58  1  0  0  0
  4  5  1  0  0  0
  4 15  1  0  0  0
  4 59  1  0  0  0
  5  6  1  0  0  0
  5 12  1  0  0  0
  5 60  1  0  0  0
  6  7  1  0  0  0
  6 16  1  0  0  0
  6 61  1  0  0  0
  7  8  1  0  0  0
  7 17  1  0  0  0
  7 62  1  0  0  0
  8  9  1  0  0  0
  8 18  1  0  0  0
  8 63  1  0  0  0
  9 19  1  0  0  0
  9 64  1  0  0  0
  9 65  1  0  0  0
 10 11  1  0  0  0
 10 12  1  0  0  0
 10 20  2  0  0  0
 11 66  1  0  0  0
 11 67  1  0  0  0
 11 68  1  0  0  0
 12 69  1  0  0  0
 15 70  1  0  0  0
 17 71  1  0  0  0
 18 72  1  0  0  0
 19 73  1  0  0  0
 21 22  1  0  0  0
 21 29  1  0  0  0
 21 35  1  0  0  0
 21 74  1  0  0  0
 22 23  1  0  0  0
 22 34  1  0  0  0
 22 75  1  0  0  0
 23 24  1  0  0  0
 23 30  1  0  0  0
 23 76  1  0  0  0
 24 25  1  0  0  0
 24 31  1  0  0  0
 24 77  1  0  0  0
 25 26  1  0  0  0
 25 29  1  0  0  0
 25 78  1  0  0  0
 26 32  1  0  0  0
 26 79  1  0  0  0
 26 80  1  0  0  0
 27 28  1  0  0  0
 27 33  2  0  0  0
 27 34  1  0  0  0
 28 81  1  0  0  0
 28 82  1  0  0  0
 28 83  1  0  0  0
 30 47  1  0  0  0
 31 36  1  0  0  0
 32 84  1  0  0  0
 34 85  1  0  0  0
 35 86  1  0  0  0
 36 37  1  0  0  0
 36 45  1  0  0  0
 36 87  1  0  0  0
 37 38  1  0  0  0
 37 42  1  0  0  0
 37 88  1  0  0  0
 38 39  1  0  0  0
 38 43  1  0  0  0
 38 89  1  0  0  0
 39 40  1  0  0  0
 39 44  1  0  0  0
 39 90  1  0  0  0
 40 41  1  0  0  0
 40 45  1  0  0  0
 40 91  1  0  0  0
 41 46  1  0  0  0
 41 92  1  0  0  0
 41 93  1  0  0  0
 42 94  1  0  0  0
 44 95  1  0  0  0
 46 96  1  0  0  0
 47 48  1  0  0  0
 47 56  1  0  0  0
 47 97  1  0  0  0
 48 49  1  0  0  0
 48 53  1  0  0  0
 48 98  1  0  0  0
 49 50  1  0  0  0
 49 54  1  0  0  0
 49 99  1  0  0  0
 50 51  1  0  0  0
 50 55  1  0  0  0
 50100  1  0  0  0
 51 52  1  0  0  0
 51 56  1  0  0  0
 51101  1  0  0  0
 52102  1  0  0  0
 52103  1  0  0  0
 52104  1  0  0  0
 53105  1  0  0  0
 54106  1  0  0  0
 55107  1  0  0  0
M  CHG  1  13  -1
M  END
> <s_m_source_file>
../4dxg_ligand.sdf

> <i_m_source_file_index>
1

> <s_epik_input>
W09IXVtDSDJdW0NAQEhdKFtPSF0pW0NAQEhdKFtPSF0pW0NASF0oTzEpW0NASF0oW05IXUMoPU8pW0NIM10pW0NAQEhdKFtPSF0pW0NIMl1bQ0BAXTEoQyg9TylbT0hdKU9bQ0BASF0oW0NAQEhdKFtPSF0pW0NASF0oTzIpW0NIMl1bT0hdKVtDQEBIXShbT0hdKVtDQEBIXTJPW0NASF0oW0NASF0oTzMpW0NIMl1bT0hdKVtDQEBIXShbQ0BIXShbQ0BIXTNbT0hdKVtOSF1DKD1PKVtDSDNdKU9bQ0BIXTRbQ0BASF0oW09IXSlbQ0BIXShbT0hdKVtDQEhdKFtPSF0pW0NAQEhdKE80KVtDSDNd

> <s_epik_cmdline>
J2VwaWtfYXBwJywgJy1pbWFlJywgJ2xpZ2FuZF9wcm8ubWFlJywgJy1vbWFlJywgJ2xpZ2FuZF9wcmVwLm1hZScsICctbXMnLCAnMScsICctcGgnLCAnNycsICctcGh0JywgJzAuNScsICctbnQn

> <r_lp_tautomer_probability>
1

> <r_epik_Ionization_Penalty>
  0.0000

> <r_epik_Ionization_Penalty_Charging>
  0.0000

> <r_epik_Ionization_Penalty_Neutral>
  0.0000

> <r_epik_State_Penalty>
 -0.0000

> <r_epik_Charging_Adjusted_Penalty>
9.9005982968009e-06

> <i_epik_Tot_Q>
-1

> <i_epik_Tot_abs_Q>
1

> <s_epik_Chemistry_Notes>
This compound contains an acetal/aminal-like group ( X-CH(R)-Y where X, Y are N, S, or O) that may be acid/base labile, releasing an aldehyde.

$$$$
