4dxj_ligand
                    3D
 Schrodinger Suite 2020-3.
 27 26  0  0  1  0            999 V2000
   48.2890   47.3460  204.0600 O   0  5  0  0  0  0
   49.3070   48.3620  204.5060 P   0  0  0  0  0  0
   49.9070   48.0410  205.8550 O   0  5  0  0  0  0
   50.3420   48.6620  203.4550 O   0  0  0  0  0  0
   48.4800   49.9900  204.6040 C   0  0  2  0  0  0
   49.1440   51.0860  205.9120 P   0  0  0  0  0  0
   48.0300   52.0390  206.2950 O   0  5  0  0  0  0
   49.6170   50.2070  207.0530 O   0  0  0  0  0  0
   50.2180   51.7710  205.1060 O   0  0  0  0  0  0
   46.9630   50.0830  204.7380 C   0  0  0  0  0  0
   46.5820   51.3090  204.0700 N   0  3  0  0  0  0
   45.1930   51.5970  203.8350 C   0  0  0  0  0  0
   45.0690   52.8950  203.0590 C   0  0  0  0  0  0
   43.9570   53.7070  203.6470 C   0  0  0  0  0  0
   48.5002   50.3315  203.5585 H   0  0  0  0  0  0
   48.8842   49.6785  207.6804 H   0  0  0  0  0  0
   46.4984   49.2077  204.2605 H   0  0  0  0  0  0
   46.6898   50.1077  205.8032 H   0  0  0  0  0  0
   46.9373   52.1706  204.6543 H   0  0  0  0  0  0
   47.0327   51.3354  203.0669 H   0  0  0  0  0  0
   44.7420   50.7786  203.2546 H   0  0  0  0  0  0
   44.6707   51.6946  204.7982 H   0  0  0  0  0  0
   46.0138   53.4542  203.1265 H   0  0  0  0  0  0
   44.8494   52.6722  202.0044 H   0  0  0  0  0  0
   43.8587   54.6510  203.0910 H   0  0  0  0  0  0
   44.1799   53.9243  204.7020 H   0  0  0  0  0  0
   43.0155   53.1422  203.5799 H   0  0  0  0  0  0
  1  2  1  0  0  0
  2  3  1  0  0  0
  2  4  2  0  0  0
  2  5  1  0  0  0
  5  6  1  0  0  0
  5 10  1  0  0  0
  5 15  1  0  0  0
  6  7  1  0  0  0
  6  8  1  0  0  0
  6  9  2  0  0  0
  8 16  1  0  0  0
 10 11  1  0  0  0
 10 17  1  0  0  0
 10 18  1  0  0  0
 11 12  1  0  0  0
 11 19  1  0  0  0
 11 20  1  0  0  0
 12 13  1  0  0  0
 12 21  1  0  0  0
 12 22  1  0  0  0
 13 14  1  0  0  0
 13 23  1  0  0  0
 13 24  1  0  0  0
 14 25  1  0  0  0
 14 26  1  0  0  0
 14 27  1  0  0  0
M  CHG  4   1  -1   3  -1   7  -1  11   1
M  END
> <s_m_source_file>
../4dxj_ligand.sdf

> <i_m_source_file_index>
1

> <s_epik_input>
W09IXVAoPU8pKFtPSF0pW0NIXShQKD1PKShbT0hdKVtPSF0pW0NIMl1bTkgyK11bQ0gyXVtDSDJdW0NIM10=

> <s_epik_cmdline>
J2VwaWtfYXBwJywgJy1pbWFlJywgJ2xpZ2FuZF9wcm8ubWFlJywgJy1vbWFlJywgJ2xpZ2FuZF9wcmVwLm1hZScsICctbXMnLCAnMScsICctcGgnLCAnNycsICctcGh0JywgJzAuNScsICctbnQn

> <r_epik_Ionization_Penalty>
  0.0962

> <r_epik_Ionization_Penalty_Charging>
  0.0961

> <r_epik_Ionization_Penalty_Neutral>
  0.0001

> <r_epik_State_Penalty>
  0.0861

> <r_epik_Charging_Adjusted_Penalty>
0.182218516546924

> <i_epik_Tot_Q>
-2

> <i_epik_Tot_abs_Q>
4

$$$$
