4dzw_ligand
                    3D
 Schrodinger Suite 2020-3.
 34 34  0  0  1  0            999 V2000
  -15.1070  -14.8370  -16.3970 O   0  5  0  0  0  0
  -15.5830  -15.6840  -17.5510 P   0  0  0  0  0  0
  -15.5820  -17.1840  -17.4160 O   0  0  0  0  0  0
  -17.0930  -15.2480  -17.8900 O   0  5  0  0  0  0
  -14.5450  -15.2570  -18.9730 C   0  0  2  0  0  0
  -14.8160  -13.5100  -19.4030 P   0  0  0  0  0  0
  -15.8380  -13.3990  -20.5110 O   0  5  0  0  0  0
  -15.4400  -12.7880  -18.0990 O   0  0  0  0  0  0
  -13.4490  -12.9260  -19.6540 O   0  0  0  0  0  0
  -14.8900  -16.1740  -20.1360 C   0  0  0  0  0  0
  -14.3160  -17.4760  -19.8710 N   0  3  0  0  0  0
  -13.6580  -18.2090  -20.9370 C   0  0  0  0  0  0
  -12.2890  -17.6080  -21.2700 C   0  0  0  0  0  0
  -11.5860  -18.3930  -22.3760 C   0  0  0  0  0  0
  -11.5190  -19.8930  -22.0730 C   0  0  0  0  0  0
  -12.8690  -20.4830  -21.6660 C   0  0  0  0  0  0
  -13.4880  -19.6720  -20.5290 C   0  0  0  0  0  0
  -13.4816  -15.5161  -18.8631 H   0  0  0  0  0  0
  -16.4408  -13.0701  -17.7402 H   0  0  0  0  0  0
  -15.9832  -16.2544  -20.2277 H   0  0  0  0  0  0
  -14.4735  -15.7594  -21.0659 H   0  0  0  0  0  0
  -13.5425  -17.3845  -19.0943 H   0  0  0  0  0  0
  -15.1042  -18.1606  -19.5246 H   0  0  0  0  0  0
  -14.3276  -18.1110  -21.8042 H   0  0  0  0  0  0
  -12.4171  -16.5692  -21.6084 H   0  0  0  0  0  0
  -11.6528  -17.6255  -20.3728 H   0  0  0  0  0  0
  -12.1309  -18.2611  -23.3224 H   0  0  0  0  0  0
  -10.5566  -18.0228  -22.4909 H   0  0  0  0  0  0
  -11.1755  -20.4328  -22.9678 H   0  0  0  0  0  0
  -10.8154  -20.0690  -21.2460 H   0  0  0  0  0  0
  -13.5514  -20.4665  -22.5286 H   0  0  0  0  0  0
  -12.7290  -21.5207  -21.3290 H   0  0  0  0  0  0
  -12.8295  -19.7334  -19.6500 H   0  0  0  0  0  0
  -14.4706  -20.1003  -20.2817 H   0  0  0  0  0  0
  1  2  1  0  0  0
  2  3  2  0  0  0
  2  4  1  0  0  0
  2  5  1  0  0  0
  5  6  1  0  0  0
  5 10  1  0  0  0
  5 18  1  0  0  0
  6  7  1  0  0  0
  6  8  1  0  0  0
  6  9  2  0  0  0
  8 19  1  0  0  0
 10 11  1  0  0  0
 10 20  1  0  0  0
 10 21  1  0  0  0
 11 12  1  0  0  0
 11 22  1  0  0  0
 11 23  1  0  0  0
 12 13  1  0  0  0
 12 17  1  0  0  0
 12 24  1  0  0  0
 13 14  1  0  0  0
 13 25  1  0  0  0
 13 26  1  0  0  0
 14 15  1  0  0  0
 14 27  1  0  0  0
 14 28  1  0  0  0
 15 16  1  0  0  0
 15 29  1  0  0  0
 15 30  1  0  0  0
 16 17  1  0  0  0
 16 31  1  0  0  0
 16 32  1  0  0  0
 17 33  1  0  0  0
 17 34  1  0  0  0
M  CHG  4   1  -1   4  -1   7  -1  11   1
M  END
> <s_m_source_file>
../4dzw_ligand.sdf

> <i_m_source_file_index>
1

> <s_epik_input>
W09IXVAoPU8pKFtPSF0pW0NIXShQKD1PKShbT0hdKVtPSF0pW0NIMl1bTkgyK11bQ0hdMVtDSDJdW0NIMl1bQ0gyXVtDSDJdW0NIMl0x

> <s_epik_cmdline>
J2VwaWtfYXBwJywgJy1pbWFlJywgJ2xpZ2FuZF9wcm8ubWFlJywgJy1vbWFlJywgJ2xpZ2FuZF9wcmVwLm1hZScsICctbXMnLCAnMScsICctcGgnLCAnNycsICctcGh0JywgJzAuNScsICctbnQn

> <r_epik_Ionization_Penalty>
  0.0969

> <r_epik_Ionization_Penalty_Charging>
  0.0968

> <r_epik_Ionization_Penalty_Neutral>
  0.0001

> <r_epik_State_Penalty>
  0.0868

> <r_epik_Charging_Adjusted_Penalty>
0.183619034362828

> <i_epik_Tot_Q>
-2

> <i_epik_Tot_abs_Q>
4

$$$$
