4dzy_ligand
                    3D
 Schrodinger Suite 2020-3.
 20 20  0  0  1  0            999 V2000
   -6.9060  -32.7550   13.4570 O   0  0  0  0  0  0
   -7.6960  -31.8640   13.6720 C   0  0  0  0  0  0
   -8.3340  -31.3040   12.6360 O   0  5  0  0  0  0
   -7.9540  -31.4330   15.0790 C   0  0  1  0  0  0
   -8.3260  -29.6840   15.0330 Cl  0  0  0  0  0  0
   -9.1130  -32.2520   15.6920 C   0  0  0  0  0  0
   -9.0450  -32.1140   17.1980 C   0  0  0  0  0  0
   -9.8720  -31.2100   17.8500 C   0  0  0  0  0  0
   -8.1450  -32.8780   17.9340 C   0  0  0  0  0  0
   -8.0660  -32.7250   19.3160 C   0  0  0  0  0  0
   -8.8890  -31.8140   19.9750 C   0  0  0  0  0  0
   -9.7910  -31.0580   19.2350 C   0  0  0  0  0  0
   -7.0814  -31.7751   15.6548 H   0  0  0  0  0  0
  -10.0728  -31.8643   15.3199 H   0  0  0  0  0  0
   -9.0079  -33.3084   15.4041 H   0  0  0  0  0  0
  -10.5866  -30.6172   17.2789 H   0  0  0  0  0  0
   -7.5008  -33.5973   17.4283 H   0  0  0  0  0  0
   -7.3549  -33.3225   19.8865 H   0  0  0  0  0  0
   -8.8264  -31.6956   21.0567 H   0  0  0  0  0  0
  -10.4393  -30.3418   19.7398 H   0  0  0  0  0  0
  1  2  2  0  0  0
  2  3  1  0  0  0
  2  4  1  0  0  0
  4  5  1  0  0  0
  4  6  1  0  0  0
  4 13  1  0  0  0
  6  7  1  0  0  0
  6 14  1  0  0  0
  6 15  1  0  0  0
  7  8  2  0  0  0
  7  9  1  0  0  0
  8 12  1  0  0  0
  8 16  1  0  0  0
  9 10  2  0  0  0
  9 17  1  0  0  0
 10 11  1  0  0  0
 10 18  1  0  0  0
 11 12  2  0  0  0
 11 19  1  0  0  0
 12 20  1  0  0  0
M  CHG  1   3  -1
M  END
> <s_m_source_file>
../4dzy_ligand.sdf

> <i_m_source_file_index>
1

> <s_epik_input>
Tz1DKFtPSF0pW0NAQEhdKENsKVtDSDJdYzFbY0hdW2NIXVtjSF1bY0hdW2NIXTE=

> <s_epik_cmdline>
J2VwaWtfYXBwJywgJy1pbWFlJywgJ2xpZ2FuZF9wcm8ubWFlJywgJy1vbWFlJywgJ2xpZ2FuZF9wcmVwLm1hZScsICctbXMnLCAnMScsICctcGgnLCAnNycsICctcGh0JywgJzAuNScsICctbnQn

> <r_lp_tautomer_probability>
1

> <r_epik_Ionization_Penalty>
  0.0000

> <r_epik_Ionization_Penalty_Charging>
  0.0000

> <r_epik_Ionization_Penalty_Neutral>
  0.0000

> <r_epik_State_Penalty>
 -0.0000

> <r_epik_Charging_Adjusted_Penalty>
4.74526565239697e-05

> <i_epik_Tot_Q>
-1

> <i_epik_Tot_abs_Q>
1

$$$$
