4e0w_ligand
                    3D
 Schrodinger Suite 2020-3.
 29 29  0  0  1  0            999 V2000
   -4.3820   30.2990  -14.0720 N   0  3  0  0  0  0
   -4.8380   30.5280  -15.4770 C   0  0  0  0  0  0
   -2.8190   29.2150  -18.6510 C   0  0  0  0  0  0
   -5.2580   29.4440  -18.2750 C   0  0  0  0  0  0
   -2.9540   29.7370  -14.1270 C   0  0  1  0  0  0
   -2.9180   29.0570  -15.5050 C   0  0  1  0  0  0
   -3.6150   27.6820  -15.4730 C   0  0  0  0  0  0
   -3.6760   30.0870  -16.3860 C   0  0  1  0  0  0
   -2.8200   26.5310  -14.8680 C   0  0  0  0  0  0
   -4.0090   29.5850  -17.7900 C   0  0  0  0  0  0
   -1.8590   30.8510  -13.9620 C   0  0  0  0  0  0
   -2.3120   31.9300  -13.4680 O   0  5  0  0  0  0
   -3.5350   25.5870  -14.4050 O   0  5  0  0  0  0
   -1.5550   26.6120  -14.8650 O   0  0  0  0  0  0
   -0.6780   30.6080  -14.3200 O   0  0  0  0  0  0
   -4.3961   31.2516  -13.5221 H   0  0  0  0  0  0
   -5.0555   29.5817  -13.5802 H   0  0  0  0  0  0
   -5.7404   29.9299  -15.6717 H   0  0  0  0  0  0
   -5.0673   31.5944  -15.6189 H   0  0  0  0  0  0
   -3.1711   28.8689  -19.6339 H   0  0  0  0  0  0
   -2.2484   28.4116  -18.1621 H   0  0  0  0  0  0
   -2.1733   30.0959  -18.7821 H   0  0  0  0  0  0
   -5.4117   29.0750  -19.2998 H   0  0  0  0  0  0
   -6.1241   29.6979  -17.6462 H   0  0  0  0  0  0
   -2.7440   29.0329  -13.3084 H   0  0  0  0  0  0
   -1.9038   28.8291  -15.8648 H   0  0  0  0  0  0
   -4.5392   27.7531  -14.8807 H   0  0  0  0  0  0
   -3.8603   27.3712  -16.4993 H   0  0  0  0  0  0
   -3.0851   30.9617  -16.6955 H   0  0  0  0  0  0
  1  2  1  0  0  0
  1  5  1  0  0  0
  1 16  1  0  0  0
  1 17  1  0  0  0
  2  8  1  0  0  0
  2 18  1  0  0  0
  2 19  1  0  0  0
  3 10  1  0  0  0
  3 20  1  0  0  0
  3 21  1  0  0  0
  3 22  1  0  0  0
  4 10  2  0  0  0
  4 23  1  0  0  0
  4 24  1  0  0  0
  5  6  1  0  0  0
  5 11  1  0  0  0
  5 25  1  0  0  0
  6  7  1  0  0  0
  6  8  1  0  0  0
  6 26  1  0  0  0
  7  9  1  0  0  0
  7 27  1  0  0  0
  7 28  1  0  0  0
  8 10  1  0  0  0
  8 29  1  0  0  0
  9 13  1  0  0  0
  9 14  2  0  0  0
 11 12  1  0  0  0
 11 15  2  0  0  0
M  CHG  3   1   1  12  -1  13  -1
M  END
> <s_m_source_file>
../4e0w_ligand.sdf

> <i_m_source_file_index>
1

> <s_epik_input>
W09IXUMoPU8pW0NASF0xW05IMitdW0NIMl1bQ0BIXShDKFtDSDNdKT1bQ0gyXSlbQ0BASF0xW0NIMl1DKD1PKVtPSF0=

> <s_epik_cmdline>
J2VwaWtfYXBwJywgJy1pbWFlJywgJ2xpZ2FuZF9wcm8ubWFlJywgJy1vbWFlJywgJ2xpZ2FuZF9wcmVwLm1hZScsICctbXMnLCAnMScsICctcGgnLCAnNycsICctcGh0JywgJzAuNScsICctbnQn

> <r_lp_tautomer_probability>
1

> <r_epik_Ionization_Penalty>
  0.0030

> <r_epik_Ionization_Penalty_Charging>
  0.0030

> <r_epik_Ionization_Penalty_Neutral>
  0.0000

> <r_epik_State_Penalty>
 -0.0000

> <r_epik_Charging_Adjusted_Penalty>
0.00304691195441348

> <i_epik_Tot_Q>
-1

> <i_epik_Tot_abs_Q>
3

$$$$
