4e0x_ligand
                    3D
 Schrodinger Suite 2020-3.
 29 29  0  0  1  0            999 V2000
   -1.0010   33.9300  105.1160 N   0  3  0  0  0  0
   -0.2730   33.4800  103.8940 C   0  0  0  0  0  0
   -0.8970   34.9250  100.2650 C   0  0  0  0  0  0
    1.1020   33.8750  101.3370 C   0  0  0  0  0  0
   -2.0260   34.9940  104.7060 C   0  0  1  0  0  0
   -1.5320   35.4610  103.3190 C   0  0  1  0  0  0
   -0.4430   36.5550  103.4010 C   0  0  0  0  0  0
   -0.9960   34.1370  102.7120 C   0  0  1  0  0  0
   -0.9270   37.9700  103.7000 C   0  0  0  0  0  0
   -0.1820   34.2810  101.4390 C   0  0  0  0  0  0
   -3.4730   34.3790  104.6920 C   0  0  0  0  0  0
   -3.5340   33.2340  105.2410 O   0  5  0  0  0  0
   -0.0120   38.7730  104.0680 O   0  5  0  0  0  0
   -2.1640   38.2200  103.5730 O   0  0  0  0  0  0
   -4.4110   35.0340  104.1600 O   0  0  0  0  0  0
   -1.5134   33.0714  105.5745 H   0  0  0  0  0  0
   -0.2844   34.3554  105.8340 H   0  0  0  0  0  0
    0.7761   33.8058  103.9514 H   0  0  0  0  0  0
   -0.3130   32.3828  103.8265 H   0  0  0  0  0  0
   -0.2147   34.9766   99.4037 H   0  0  0  0  0  0
   -1.2153   35.9409  100.5420 H   0  0  0  0  0  0
   -1.7791   34.3242   99.9986 H   0  0  0  0  0  0
    1.6458   34.0034  100.3895 H   0  0  0  0  0  0
    1.6040   33.4159  102.2014 H   0  0  0  0  0  0
   -2.0765   35.8447  105.4016 H   0  0  0  0  0  0
   -2.3176   35.9451  102.7203 H   0  0  0  0  0  0
    0.2694   36.3040  104.2007 H   0  0  0  0  0  0
    0.0900   36.6146  102.4406 H   0  0  0  0  0  0
   -1.7894   33.4942  102.3030 H   0  0  0  0  0  0
  1  2  1  0  0  0
  1  5  1  0  0  0
  1 16  1  0  0  0
  1 17  1  0  0  0
  2  8  1  0  0  0
  2 18  1  0  0  0
  2 19  1  0  0  0
  3 10  1  0  0  0
  3 20  1  0  0  0
  3 21  1  0  0  0
  3 22  1  0  0  0
  4 10  2  0  0  0
  4 23  1  0  0  0
  4 24  1  0  0  0
  5  6  1  0  0  0
  5 11  1  0  0  0
  5 25  1  0  0  0
  6  7  1  0  0  0
  6  8  1  0  0  0
  6 26  1  0  0  0
  7  9  1  0  0  0
  7 27  1  0  0  0
  7 28  1  0  0  0
  8 10  1  0  0  0
  8 29  1  0  0  0
  9 13  1  0  0  0
  9 14  2  0  0  0
 11 12  1  0  0  0
 11 15  2  0  0  0
M  CHG  3   1   1  12  -1  13  -1
M  END
> <s_m_source_file>
../4e0x_ligand.sdf

> <i_m_source_file_index>
1

> <s_epik_input>
W09IXUMoPU8pW0NASF0xW05IMitdW0NIMl1bQ0BIXShDKFtDSDNdKT1bQ0gyXSlbQ0BASF0xW0NIMl1DKD1PKVtPSF0=

> <s_epik_cmdline>
J2VwaWtfYXBwJywgJy1pbWFlJywgJ2xpZ2FuZF9wcm8ubWFlJywgJy1vbWFlJywgJ2xpZ2FuZF9wcmVwLm1hZScsICctbXMnLCAnMScsICctcGgnLCAnNycsICctcGh0JywgJzAuNScsICctbnQn

> <r_lp_tautomer_probability>
1

> <r_epik_Ionization_Penalty>
  0.0030

> <r_epik_Ionization_Penalty_Charging>
  0.0030

> <r_epik_Ionization_Penalty_Neutral>
  0.0000

> <r_epik_State_Penalty>
 -0.0000

> <r_epik_Charging_Adjusted_Penalty>
0.00304691195441348

> <i_epik_Tot_Q>
-1

> <i_epik_Tot_abs_Q>
3

$$$$
