4e1e_ligand
                    3D
 Schrodinger Suite 2020-3.
 36 35  0  0  1  0            999 V2000
  -14.6310  -14.4680  -21.0800 O   0  5  0  0  0  0
  -13.4190  -14.7250  -20.2120 P   0  0  0  0  0  0
  -13.5930  -14.2890  -18.7760 O   0  5  0  0  0  0
  -12.1350  -14.2480  -20.8480 O   0  0  0  0  0  0
  -13.3180  -16.5370  -20.2180 C   0  0  2  0  0  0
  -14.3050  -17.1600  -18.8170 P   0  0  0  0  0  0
  -13.9540  -16.3400  -17.6190 O   0  0  0  0  0  0
  -15.6960  -16.9050  -19.3320 O   0  5  0  0  0  0
  -13.9430  -18.6090  -18.6220 O   0  0  0  0  0  0
  -11.8620  -17.0010  -20.2220 C   0  0  0  0  0  0
  -11.7030  -18.4570  -20.0460 N   0  3  0  0  0  0
  -11.5560  -19.1380  -21.3420 C   0  0  0  0  0  0
  -12.3340  -20.4480  -21.2840 C   0  0  0  0  0  0
  -11.6880  -21.5400  -22.1300 C   0  0  0  0  0  0
  -12.4300  -21.6140  -23.4540 C   0  0  0  0  0  0
  -12.3870  -23.0030  -24.0760 C   0  0  0  0  0  0
  -13.2720  -23.0310  -25.3020 C   0  0  0  0  0  0
  -13.5676  -17.0288  -21.1697 H   0  0  0  0  0  0
  -12.9448  -18.8811  -18.2485 H   0  0  0  0  0  0
  -11.3948  -16.7343  -21.1815 H   0  0  0  0  0  0
  -11.3186  -16.5107  -19.4008 H   0  0  0  0  0  0
  -10.8063  -18.6574  -19.4412 H   0  0  0  0  0  0
  -12.5883  -18.8634  -19.5351 H   0  0  0  0  0  0
  -11.9560  -18.4963  -22.1408 H   0  0  0  0  0  0
  -10.4913  -19.3392  -21.5319 H   0  0  0  0  0  0
  -12.3775  -20.8028  -20.2437 H   0  0  0  0  0  0
  -13.3552  -20.2849  -21.6588 H   0  0  0  0  0  0
  -10.6301  -21.2928  -22.3022 H   0  0  0  0  0  0
  -11.7584  -22.5026  -21.6023 H   0  0  0  0  0  0
  -13.4858  -21.3477  -23.2980 H   0  0  0  0  0  0
  -11.9763  -20.9112  -24.1684 H   0  0  0  0  0  0
  -11.3530  -23.2442  -24.3634 H   0  0  0  0  0  0
  -12.7467  -23.7430  -23.3459 H   0  0  0  0  0  0
  -13.2422  -24.0339  -25.7529 H   0  0  0  0  0  0
  -12.9118  -22.2903  -26.0312 H   0  0  0  0  0  0
  -14.3056  -22.7891  -25.0137 H   0  0  0  0  0  0
  1  2  1  0  0  0
  2  3  1  0  0  0
  2  4  2  0  0  0
  2  5  1  0  0  0
  5  6  1  0  0  0
  5 10  1  0  0  0
  5 18  1  0  0  0
  6  7  2  0  0  0
  6  8  1  0  0  0
  6  9  1  0  0  0
  9 19  1  0  0  0
 10 11  1  0  0  0
 10 20  1  0  0  0
 10 21  1  0  0  0
 11 12  1  0  0  0
 11 22  1  0  0  0
 11 23  1  0  0  0
 12 13  1  0  0  0
 12 24  1  0  0  0
 12 25  1  0  0  0
 13 14  1  0  0  0
 13 26  1  0  0  0
 13 27  1  0  0  0
 14 15  1  0  0  0
 14 28  1  0  0  0
 14 29  1  0  0  0
 15 16  1  0  0  0
 15 30  1  0  0  0
 15 31  1  0  0  0
 16 17  1  0  0  0
 16 32  1  0  0  0
 16 33  1  0  0  0
 17 34  1  0  0  0
 17 35  1  0  0  0
 17 36  1  0  0  0
M  CHG  4   1  -1   3  -1   8  -1  11   1
M  END
> <s_m_source_file>
../4e1e_ligand.sdf

> <i_m_source_file_index>
1

> <s_epik_input>
W09IXVAoPU8pKFtPSF0pW0NIXShQKD1PKShbT0hdKVtPSF0pW0NIMl1bTkgyK11bQ0gyXVtDSDJdW0NIMl1bQ0gyXVtDSDJdW0NIM10=

> <s_epik_cmdline>
J2VwaWtfYXBwJywgJy1pbWFlJywgJ2xpZ2FuZF9wcm8ubWFlJywgJy1vbWFlJywgJ2xpZ2FuZF9wcmVwLm1hZScsICctbXMnLCAnMScsICctcGgnLCAnNycsICctcGh0JywgJzAuNScsICctbnQn

> <r_epik_Ionization_Penalty>
  0.0963

> <r_epik_Ionization_Penalty_Charging>
  0.0962

> <r_epik_Ionization_Penalty_Neutral>
  0.0001

> <r_epik_State_Penalty>
  0.0862

> <r_epik_Charging_Adjusted_Penalty>
0.182406762862161

> <i_epik_Tot_Q>
-2

> <i_epik_Tot_abs_Q>
4

$$$$
