4e1m_ligand
                    3D
 Schrodinger Suite 2020-3.
 54 56  0  0  1  0            999 V2000
   24.3160   17.7770   -5.7660 C   0  0  0  0  0  0
   24.8490   16.5400   -5.3740 C   0  0  0  0  0  0
   26.2250   16.4280   -5.1080 C   0  0  0  0  0  0
   27.0240   17.5950   -5.2590 C   0  0  0  0  0  0
   26.4830   18.8210   -5.6570 C   0  0  0  0  0  0
   25.1200   18.9070   -5.9140 C   0  0  0  0  0  0
   24.0120   15.5040   -5.2550 N   0  0  0  0  0  0
   24.4680   14.2850   -4.8770 C   0  0  0  0  0  0
   25.8220   14.0390   -4.5800 C   0  0  0  0  0  0
   26.7160   15.1400   -4.7000 C   0  0  0  0  0  0
   23.3720   13.2580   -4.8090 C   0  0  0  0  0  0
   28.1540   14.9390   -4.4010 C   0  0  0  0  0  0
   26.3460   12.6600   -4.1730 C   0  0  2  0  0  0
   25.8530   11.6870   -5.0990 O   0  0  0  0  0  0
   29.1240   14.9430   -5.4090 C   0  0  0  0  0  0
   30.4720   14.7290   -5.0960 C   0  0  0  0  0  0
   30.8780   14.5200   -3.7740 C   0  0  0  0  0  0
   29.9180   14.5100   -2.7510 C   0  0  0  0  0  0
   28.5670   14.7190   -3.0710 C   0  0  0  0  0  0
   32.3380   14.3120   -3.4720 C   0  0  0  0  0  0
   30.3120   14.2910   -1.3150 C   0  0  0  0  0  0
   26.5200   11.3790   -6.3330 C   0  0  0  0  0  0
   26.1620   12.5080   -7.3080 C   0  0  0  0  0  0
   28.0520   11.3200   -6.1600 C   0  0  0  0  0  0
   25.9840   10.0680   -6.9210 C   0  0  0  0  0  0
   25.8850   12.2250   -2.7940 C   0  0  0  0  0  0
   25.6970   11.0670   -2.4530 O   0  0  0  0  0  0
   25.6930   13.2790   -1.9720 O   0  5  0  0  0  0
   23.2464   17.8571   -5.9598 H   0  0  0  0  0  0
   28.0934   17.5313   -5.0578 H   0  0  0  0  0  0
   27.1217   19.6977   -5.7643 H   0  0  0  0  0  0
   24.6812   19.8535   -6.2299 H   0  0  0  0  0  0
   22.4160   13.7228   -5.0919 H   0  0  0  0  0  0
   23.3000   12.8660   -3.7837 H   0  0  0  0  0  0
   23.5983   12.4339   -5.5016 H   0  0  0  0  0  0
   27.4453   12.6816   -4.2072 H   0  0  0  0  0  0
   28.8287   15.1137   -6.4443 H   0  0  0  0  0  0
   31.2150   14.7253   -5.8935 H   0  0  0  0  0  0
   27.8223   14.7110   -2.2751 H   0  0  0  0  0  0
   32.9158   14.3564   -4.4070 H   0  0  0  0  0  0
   32.4783   13.3281   -3.0006 H   0  0  0  0  0  0
   32.6867   15.0995   -2.7878 H   0  0  0  0  0  0
   31.4005   14.1455   -1.2516 H   0  0  0  0  0  0
   29.7995   13.3987   -0.9262 H   0  0  0  0  0  0
   30.0240   15.1687   -0.7178 H   0  0  0  0  0  0
   26.5341   13.4650   -6.9134 H   0  0  0  0  0  0
   25.0694   12.5593   -7.4243 H   0  0  0  0  0  0
   26.6258   12.3092   -8.2854 H   0  0  0  0  0  0
   28.4102   12.2704   -5.7376 H   0  0  0  0  0  0
   28.5253   11.1522   -7.1387 H   0  0  0  0  0  0
   28.3127   10.4953   -5.4804 H   0  0  0  0  0  0
   24.8919   10.1363   -7.0339 H   0  0  0  0  0  0
   26.2315    9.2353   -6.2462 H   0  0  0  0  0  0
   26.4441    9.8922   -7.9046 H   0  0  0  0  0  0
  1  2  2  0  0  0
  1  6  1  0  0  0
  1 29  1  0  0  0
  2  3  1  0  0  0
  2  7  1  0  0  0
  3  4  2  0  0  0
  3 10  1  0  0  0
  4  5  1  0  0  0
  4 30  1  0  0  0
  5  6  2  0  0  0
  5 31  1  0  0  0
  6 32  1  0  0  0
  7  8  2  0  0  0
  8  9  1  0  0  0
  8 11  1  0  0  0
  9 10  2  0  0  0
  9 13  1  0  0  0
 10 12  1  0  0  0
 11 33  1  0  0  0
 11 34  1  0  0  0
 11 35  1  0  0  0
 12 15  2  0  0  0
 12 19  1  0  0  0
 13 14  1  0  0  0
 13 26  1  0  0  0
 13 36  1  0  0  0
 14 22  1  0  0  0
 15 16  1  0  0  0
 15 37  1  0  0  0
 16 17  2  0  0  0
 16 38  1  0  0  0
 17 18  1  0  0  0
 17 20  1  0  0  0
 18 19  2  0  0  0
 18 21  1  0  0  0
 19 39  1  0  0  0
 20 40  1  0  0  0
 20 41  1  0  0  0
 20 42  1  0  0  0
 21 43  1  0  0  0
 21 44  1  0  0  0
 21 45  1  0  0  0
 22 23  1  0  0  0
 22 24  1  0  0  0
 22 25  1  0  0  0
 23 46  1  0  0  0
 23 47  1  0  0  0
 23 48  1  0  0  0
 24 49  1  0  0  0
 24 50  1  0  0  0
 24 51  1  0  0  0
 25 52  1  0  0  0
 25 53  1  0  0  0
 25 54  1  0  0  0
 26 27  2  0  0  0
 26 28  1  0  0  0
M  CHG  1  28  -1
M  END
> <s_m_source_file>
../4e1m_ligand.sdf

> <i_m_source_file_index>
1

> <s_epik_input>
W2NIXTFbY0hdW2NIXVtjSF1jKGMxMiljKGMoYyhuMilbQ0gzXSlbQ0BASF0oQyg9TylbT0hdKU9DKFtDSDNdKShbQ0gzXSlbQ0gzXSktYzNbY0hdW2NIXWMoW0NIM10pYyhbY0hdMylbQ0gzXQ==

> <s_epik_cmdline>
J2VwaWtfYXBwJywgJy1pbWFlJywgJ2xpZ2FuZF9wcm8ubWFlJywgJy1vbWFlJywgJ2xpZ2FuZF9wcmVwLm1hZScsICctbXMnLCAnMScsICctcGgnLCAnNycsICctcGh0JywgJzAuNScsICctbnQn

> <r_epik_Ionization_Penalty>
  0.1999

> <r_epik_Ionization_Penalty_Charging>
  0.0001

> <r_epik_Ionization_Penalty_Neutral>
  0.1998

> <r_epik_State_Penalty>
  0.1897

> <r_epik_Charging_Adjusted_Penalty>
0.189741438472086

> <i_epik_Tot_Q>
-1

> <i_epik_Tot_abs_Q>
1

$$$$
