4e1n_ligand
                    3D
 Schrodinger Suite 2020-3.
 59 62  0  0  1  0            999 V2000
   -8.5250   50.1080  -16.6170 C   0  0  0  0  0  0
   -9.3210   49.0140  -16.2390 C   0  0  0  0  0  0
   -8.7280   47.7440  -16.0610 C   0  0  0  0  0  0
   -7.3300   47.6190  -16.2840 C   0  0  0  0  0  0
   -6.5440   48.7200  -16.6590 C   0  0  0  0  0  0
   -7.1490   49.9690  -16.8240 C   0  0  0  0  0  0
  -10.6360   49.2210  -16.0570 N   0  0  0  0  0  0
  -11.4500   48.2000  -15.6880 C   0  0  0  0  0  0
  -10.9700   46.8880  -15.4940 C   0  0  0  0  0  0
   -9.5830   46.6660  -15.6750 C   0  0  0  0  0  0
  -12.8940   48.6110  -15.5220 C   0  0  0  0  0  0
   -9.0530   45.2890  -15.4710 C   0  0  0  0  0  0
  -11.8590   45.7220  -15.0730 C   0  0  2  0  0  0
  -13.0520   45.6110  -15.8470 O   0  0  0  0  0  0
   -9.0260   44.3960  -16.5610 C   0  0  0  0  0  0
   -8.5480   43.1060  -16.3960 C   0  0  0  0  0  0
   -8.1010   42.6550  -15.1590 C   0  0  0  0  0  0
   -8.1170   43.5090  -14.0520 C   0  0  0  0  0  0
   -8.5990   44.8400  -14.2000 C   0  0  0  0  0  0
   -7.6580   41.3550  -15.1360 O   0  0  0  0  0  0
   -7.1870   40.7780  -13.9050 C   0  0  0  0  0  0
   -7.5620   41.4810  -12.6160 C   0  0  0  0  0  0
   -7.6150   43.0040  -12.7210 C   0  0  0  0  0  0
   -8.6230   45.7770  -13.0100 C   0  0  0  0  0  0
  -13.0760   44.9140  -17.1010 C   0  0  0  0  0  0
  -14.5780   44.7940  -17.4420 C   0  0  0  0  0  0
  -12.3760   45.7110  -18.1990 C   0  0  0  0  0  0
  -12.4950   43.4900  -17.0000 C   0  0  0  0  0  0
   -8.5320   42.2830  -17.4600 F   0  0  0  0  0  0
  -12.2920   45.9840  -13.6320 C   0  0  0  0  0  0
  -11.6800   46.6580  -12.8070 O   0  0  0  0  0  0
  -13.4760   45.3940  -13.3380 O   0  5  0  0  0  0
   -8.9893   51.0849  -16.7517 H   0  0  0  0  0  0
   -6.8567   46.6449  -16.1609 H   0  0  0  0  0  0
   -5.4724   48.6019  -16.8199 H   0  0  0  0  0  0
   -6.5499   50.8324  -17.1133 H   0  0  0  0  0  0
  -12.9957   49.6860  -15.7321 H   0  0  0  0  0  0
  -13.2171   48.4068  -14.4905 H   0  0  0  0  0  0
  -13.5207   48.0396  -16.2225 H   0  0  0  0  0  0
  -11.3288   44.7746  -15.2500 H   0  0  0  0  0  0
   -9.3827   44.7216  -17.5381 H   0  0  0  0  0  0
   -7.5811   39.7559  -13.8047 H   0  0  0  0  0  0
   -6.0874   40.7480  -13.9112 H   0  0  0  0  0  0
   -8.5588   41.1466  -12.2926 H   0  0  0  0  0  0
   -6.8235   41.2384  -11.8377 H   0  0  0  0  0  0
   -6.5949   43.3776  -12.5482 H   0  0  0  0  0  0
   -8.2775   43.3624  -11.9193 H   0  0  0  0  0  0
   -9.0254   46.7528  -13.3197 H   0  0  0  0  0  0
   -7.6007   45.9073  -12.6253 H   0  0  0  0  0  0
   -9.2603   45.3513  -12.2209 H   0  0  0  0  0  0
  -15.0177   45.7993  -17.5200 H   0  0  0  0  0  0
  -15.0902   44.2302  -16.6484 H   0  0  0  0  0  0
  -14.6954   44.2671  -18.4004 H   0  0  0  0  0  0
  -12.8079   46.7214  -18.2507 H   0  0  0  0  0  0
  -12.5138   45.2034  -19.1651 H   0  0  0  0  0  0
  -11.3020   45.7824  -17.9722 H   0  0  0  0  0  0
  -13.0150   42.9375  -16.2035 H   0  0  0  0  0  0
  -11.4218   43.5477  -16.7658 H   0  0  0  0  0  0
  -12.6336   42.9686  -17.9586 H   0  0  0  0  0  0
  1  2  2  0  0  0
  1  6  1  0  0  0
  1 33  1  0  0  0
  2  3  1  0  0  0
  2  7  1  0  0  0
  3  4  2  0  0  0
  3 10  1  0  0  0
  4  5  1  0  0  0
  4 34  1  0  0  0
  5  6  2  0  0  0
  5 35  1  0  0  0
  6 36  1  0  0  0
  7  8  2  0  0  0
  8  9  1  0  0  0
  8 11  1  0  0  0
  9 10  2  0  0  0
  9 13  1  0  0  0
 10 12  1  0  0  0
 11 37  1  0  0  0
 11 38  1  0  0  0
 11 39  1  0  0  0
 12 15  2  0  0  0
 12 19  1  0  0  0
 13 14  1  0  0  0
 13 30  1  0  0  0
 13 40  1  0  0  0
 14 25  1  0  0  0
 15 16  1  0  0  0
 15 41  1  0  0  0
 16 17  2  0  0  0
 16 29  1  0  0  0
 17 18  1  0  0  0
 17 20  1  0  0  0
 18 19  2  0  0  0
 18 23  1  0  0  0
 19 24  1  0  0  0
 20 21  1  0  0  0
 21 22  1  0  0  0
 21 42  1  0  0  0
 21 43  1  0  0  0
 22 23  1  0  0  0
 22 44  1  0  0  0
 22 45  1  0  0  0
 23 46  1  0  0  0
 23 47  1  0  0  0
 24 48  1  0  0  0
 24 49  1  0  0  0
 24 50  1  0  0  0
 25 26  1  0  0  0
 25 27  1  0  0  0
 25 28  1  0  0  0
 26 51  1  0  0  0
 26 52  1  0  0  0
 26 53  1  0  0  0
 27 54  1  0  0  0
 27 55  1  0  0  0
 27 56  1  0  0  0
 28 57  1  0  0  0
 28 58  1  0  0  0
 28 59  1  0  0  0
 30 31  2  0  0  0
 30 32  1  0  0  0
M  CHG  1  32  -1
M  END
> <s_m_source_file>
../4e1n_ligand.sdf

> <i_m_source_file_index>
1

> <s_epik_input>
W2NIXTFbY0hdW2NIXVtjSF1jKGMxMiljKGMoYyhuMilbQ0gzXSlbQ0BASF0oQyg9TylbT0hdKU9DKFtDSDNdKShbQ0gzXSlbQ0gzXSktYyhbY0hdYzNGKWMoW0NIM10pYyhjMzQpW0NIMl1bQ0gyXVtDSDJdTzQ=

> <s_epik_cmdline>
J2VwaWtfYXBwJywgJy1pbWFlJywgJ2xpZ2FuZF9wcm8ubWFlJywgJy1vbWFlJywgJ2xpZ2FuZF9wcmVwLm1hZScsICctbXMnLCAnMScsICctcGgnLCAnNycsICctcGh0JywgJzAuNScsICctbnQn

> <r_lp_tautomer_probability>
1

> <r_epik_Ionization_Penalty>
  0.3387

> <r_epik_Ionization_Penalty_Charging>
  0.0001

> <r_epik_Ionization_Penalty_Neutral>
  0.3386

> <r_epik_State_Penalty>
  0.3342

> <r_epik_Charging_Adjusted_Penalty>
0.334214301817796

> <i_epik_Tot_Q>
-1

> <i_epik_Tot_abs_Q>
1

$$$$
