4e26_ligand
                    3D
 Schrodinger Suite 2020-3.
 40 43  0  0  1  0            999 V2000
   11.1030  -14.3780   -3.8870 C   0  0  0  0  0  0
    9.3710  -19.0730   -0.8940 C   0  0  0  0  0  0
    8.1430  -18.6520   -1.4750 C   0  0  0  0  0  0
    7.2540  -19.6360   -2.0230 C   0  0  0  0  0  0
    7.5850  -21.0190   -1.9940 C   0  0  0  0  0  0
    6.3090  -16.9090   -1.3940 C   0  0  0  0  0  0
    8.8240  -21.4300   -1.4070 C   0  0  0  0  0  0
    9.2090  -22.7930   -1.3490 C   0  0  0  0  0  0
   10.4420  -23.1490   -0.7630 C   0  0  0  0  0  0
   11.2780  -22.1420   -0.2390 C   0  0  0  0  0  0
   11.7390  -14.0960   -2.6580 C   0  0  0  0  0  0
    9.7130  -20.4450   -0.8580 C   0  0  0  0  0  0
    7.8060  -17.1680   -1.5040 C   0  0  2  0  0  0
   11.2190  -14.6590   -1.4720 C   0  0  0  0  0  0
    9.4700  -15.7610   -2.7060 C   0  0  0  0  0  0
    9.9590  -15.2170   -3.9150 C   0  0  0  0  0  0
    5.6420  -16.3680   -0.5310 C   0  0  0  0  0  0
    4.5370  -16.2840   -0.6570 C   0  0  0  0  0  0
    3.9200  -16.7050   -1.6280 C   0  0  0  0  0  0
    8.3620  -16.5750   -2.7270 N   0  0  0  0  0  0
   10.1140  -15.4660   -1.5180 N   0  3  0  0  0  0
   10.9070  -20.8370   -0.2950 N   0  0  0  0  0  0
    5.1610  -17.2320   -2.3180 O   0  0  0  0  0  0
   10.2340  -18.1590   -0.3690 O   0  0  0  0  0  0
    6.4270  -22.2160   -2.7030 Cl  0  0  0  0  0  0
   11.4903  -13.9519   -4.8125 H   0  0  0  0  0  0
    6.3109  -19.3189   -2.4682 H   0  0  0  0  0  0
    8.5544  -23.5637   -1.7559 H   0  0  0  0  0  0
   10.7459  -24.1947   -0.7158 H   0  0  0  0  0  0
   12.2309  -22.4135    0.2153 H   0  0  0  0  0  0
   12.6186  -13.4530   -2.6254 H   0  0  0  0  0  0
    8.2831  -16.6688   -0.6478 H   0  0  0  0  0  0
   11.6993  -14.4503   -0.5160 H   0  0  0  0  0  0
    9.4625  -15.4396   -4.8595 H   0  0  0  0  0  0
    6.1229  -15.9673    0.3613 H   0  0  0  0  0  0
    3.9693  -15.7957    0.1351 H   0  0  0  0  0  0
    2.8637  -16.7016   -1.8971 H   0  0  0  0  0  0
    7.8903  -16.7773   -3.6999 H   0  0  0  0  0  0
    9.9813  -17.0886   -0.3900 H   0  0  0  0  0  0
    9.7123  -15.9018   -0.5914 H   0  0  0  0  0  0
  1 11  2  0  0  0
  1 16  1  0  0  0
  1 26  1  0  0  0
  2  3  2  0  0  0
  2 12  1  0  0  0
  2 24  1  0  0  0
  3  4  1  0  0  0
  3 13  1  0  0  0
  4  5  2  0  0  0
  4 27  1  0  0  0
  5  7  1  0  0  0
  5 25  1  0  0  0
  6 13  1  0  0  0
  6 17  2  0  0  0
  6 23  1  0  0  0
  7  8  1  0  0  0
  7 12  2  0  0  0
  8  9  2  0  0  0
  8 28  1  0  0  0
  9 10  1  0  0  0
  9 29  1  0  0  0
 10 22  2  0  0  0
 10 30  1  0  0  0
 11 14  1  0  0  0
 11 31  1  0  0  0
 12 22  1  0  0  0
 13 20  1  0  0  0
 13 32  1  0  0  0
 14 21  2  0  0  0
 14 33  1  0  0  0
 15 16  2  0  0  0
 15 20  1  0  0  0
 15 21  1  0  0  0
 16 34  1  0  0  0
 17 18  1  0  0  0
 17 35  1  0  0  0
 18 19  2  0  0  0
 18 36  1  0  0  0
 19 23  1  0  0  0
 19 37  1  0  0  0
 20 38  1  0  0  0
 21 40  1  0  0  0
 24 39  1  0  0  0
M  CHG  1  21   1
M  END
> <s_m_source_file>
../4e26_ligand.sdf

> <i_m_source_file_index>
1

> <s_epik_input>
bjFbY0hdW2NIXVtjSF1bY0hdYzFbTkhdW0NAQEhdKGMyW2NIXVtjSF1bY0hdbzIpYyhbY0hdYzNDbCljKFtPSF0pYyhjMzQpbltjSF1bY0hdW2NIXTQ=

> <s_epik_cmdline>
J2VwaWtfYXBwJywgJy1pbWFlJywgJ2xpZ2FuZF9wcm8ubWFlJywgJy1vbWFlJywgJ2xpZ2FuZF9wcmVwLm1hZScsICctbXMnLCAnMScsICctcGgnLCAnNycsICctcGh0JywgJzAuNScsICctbnQn

> <r_lp_tautomer_probability>
0.999993852037798

> <r_epik_Ionization_Penalty>
  0.3505

> <r_epik_Ionization_Penalty_Charging>
  0.3383

> <r_epik_Ionization_Penalty_Neutral>
  0.0122

> <r_epik_State_Penalty>
  0.3338

> <r_epik_Charging_Adjusted_Penalty>
0.67212816924642

> <i_epik_Tot_Q>
1

> <i_epik_Tot_abs_Q>
1

$$$$
