4e34_ligand
                    3D
 Schrodinger Suite 2020-3.
162164  0  0  1  0            999 V2000
   26.3420   18.2500   15.0640 N   0  3  0  0  0  0
   25.8810   19.1950   14.0510 C   0  0  2  0  0  0
   25.7220   20.6030   14.6230 C   0  0  0  0  0  0
   25.8880   20.8200   15.8270 O   0  0  0  0  0  0
   24.5680   18.7170   13.4440 C   0  0  0  0  0  0
   25.4020   21.5560   13.7520 N   0  0  0  0  0  0
   25.1990   22.9410   14.1650 C   0  0  2  0  0  0
   23.9620   23.0920   15.0470 C   0  0  0  0  0  0
   22.9460   22.4320   14.8240 O   0  0  0  0  0  0
   25.0950   23.8560   12.9400 C   0  0  0  0  0  0
   25.0210   25.3270   13.3130 C   0  0  0  0  0  0
   23.9370   25.8730   13.5200 O   0  0  0  0  0  0
   26.1780   25.9770   13.3940 N   0  0  0  0  0  0
   24.0520   23.9600   16.0490 N   0  0  0  0  0  0
   22.9510   24.1560   16.9860 C   0  0  2  0  0  0
   22.5510   25.6270   17.1070 C   0  0  0  0  0  0
   22.3160   26.1240   18.2070 O   0  0  0  0  0  0
   23.3220   23.5970   18.3630 C   0  0  0  0  0  0
   24.4630   24.2530   18.8930 O   0  0  0  0  0  0
   22.4630   26.3170   15.9740 N   0  0  0  0  0  0
   22.1470   27.7430   15.9750 C   0  0  2  0  0  0
   20.6470   28.0180   16.1060 C   0  0  0  0  0  0
   20.2470   29.0390   16.6760 O   0  0  0  0  0  0
   22.7190   28.4240   14.7300 C   0  0  0  0  0  0
   22.6620   29.9400   14.7700 C   0  0  0  0  0  0
   21.7090   30.4550   13.7190 C   0  0  0  0  0  0
   22.1230   30.0480   12.3810 N   0  0  0  0  0  0
   22.6970   30.8590   11.5020 C   0  0  0  0  0  0
   23.0430   30.4040   10.3050 N   0  0  0  0  0  0
   22.9160   32.1280   11.8170 N   0  0  0  0  0  0
   19.8200   27.1130   15.5790 N   0  0  0  0  0  0
   18.3760   27.1830   15.8040 C   0  0  2  0  0  0
   18.0360   26.4000   17.0620 C   0  0  0  0  0  0
   18.7300   25.4450   17.4080 O   0  0  0  0  0  0
   17.5800   26.5660   14.6540 C   0  0  0  0  0  0
   17.8090   27.1420   13.2980 C   0  0  0  0  0  0
   18.3510   28.3600   12.9880 C   0  0  0  0  0  0
   17.5140   26.5050   12.0520 C   0  0  0  0  0  0
   18.4040   28.5160   11.6210 N   0  0  0  0  0  0
   17.9010   27.3890   11.0250 C   0  0  0  0  0  0
   16.9640   25.2660   11.7050 C   0  0  0  0  0  0
   17.7480   27.0760    9.6750 C   0  0  0  0  0  0
   16.8150   24.9540   10.3640 C   0  0  0  0  0  0
   17.2050   25.8570    9.3670 C   0  0  0  0  0  0
   16.9630   26.7980   17.7490 N   0  0  0  0  0  0
   16.4930   26.0360   18.9070 C   0  0  2  0  0  0
   15.7560   24.7650   18.4880 C   0  0  0  0  0  0
   15.1910   24.6890   17.3900 O   0  0  0  0  0  0
   15.5180   27.0020   19.5790 C   0  0  0  0  0  0
   14.9920   27.8200   18.4620 C   0  0  0  0  0  0
   16.1660   28.0180   17.5380 C   0  0  0  0  0  0
   15.7840   23.7760   19.3660 N   0  0  0  0  0  0
   14.9980   22.5670   19.1790 C   0  0  2  0  0  0
   14.1670   22.3770   20.4270 C   0  0  0  0  0  0
   14.6830   22.5270   21.5410 O   0  0  0  0  0  0
   15.9020   21.3550   18.9980 C   0  0  2  0  0  0
   16.6270   21.5050   17.7770 O   0  0  0  0  0  0
   15.0790   20.0770   18.9360 C   0  0  0  0  0  0
   12.8810   22.0700   20.2550 N   0  0  0  0  0  0
   12.0220   21.7700   21.3960 C   0  0  2  0  0  0
   11.4140   20.3940   21.2100 C   0  0  0  0  0  0
   10.9730   20.0490   20.1090 O   0  0  0  0  0  0
   10.9010   22.7980   21.5180 C   0  0  0  0  0  0
   11.4050   24.0940   21.7920 O   0  0  0  0  0  0
   11.4100   19.6100   22.2830 N   0  0  0  0  0  0
   10.7460   18.3140   22.3320 C   0  0  2  0  0  0
    9.3240   18.5500   22.8080 C   0  0  0  0  0  0
    9.1190   19.1700   23.8660 O   0  0  0  0  0  0
   11.4470   17.3990   23.3580 C   0  0  2  0  0  0
   12.9320   17.2310   23.0260 C   0  0  0  0  0  0
   10.7580   16.0550   23.4300 C   0  0  0  0  0  0
   13.7450   16.6520   24.1810 C   0  0  0  0  0  0
    8.3430   18.0780   22.0390 N   0  0  0  0  0  0
    6.9420   18.3730   22.3160 C   0  0  2  0  0  0
    6.0410   17.1710   22.0690 C   0  0  0  0  0  0
    6.4750   16.1340   21.5440 O   0  0  0  0  0  0
    6.4230   19.5580   21.4600 C   0  0  2  0  0  0
    6.4310   19.2220   19.9660 C   0  0  0  0  0  0
    7.2350   20.8230   21.7120 C   0  0  0  0  0  0
    5.7750   20.2960   19.0860 C   0  0  0  0  0  0
    4.8540   17.2520   22.3870 O   0  0  0  0  0  0
   27.2897   18.6066   15.4938 H   0  0  0  0  0  0
   26.4970   17.2638   14.6020 H   0  0  0  0  0  0
   25.5866   18.1677   15.8594 H   0  0  0  0  0  0
   26.6716   19.2067   13.2862 H   0  0  0  0  0  0
   24.6996   17.7034   13.0374 H   0  0  0  0  0  0
   24.2675   19.4001   12.6359 H   0  0  0  0  0  0
   23.7890   18.7024   14.2205 H   0  0  0  0  0  0
   25.2910   21.2756   12.6941 H   0  0  0  0  0  0
   26.0912   23.1911   14.7577 H   0  0  0  0  0  0
   25.9786   23.7142   12.3004 H   0  0  0  0  0  0
   24.1870   23.6060   12.3716 H   0  0  0  0  0  0
   27.1218   25.4462   13.2002 H   0  0  0  0  0  0
   26.1915   27.0455   13.6548 H   0  0  0  0  0  0
   24.9814   24.5371   16.1640 H   0  0  0  0  0  0
   22.1122   23.5958   16.5471 H   0  0  0  0  0  0
   22.4805   23.7419   19.0564 H   0  0  0  0  0  0
   23.5440   22.5232   18.2752 H   0  0  0  0  0  0
   24.8554   23.9634   19.8790 H   0  0  0  0  0  0
   22.6338   25.7922   15.0225 H   0  0  0  0  0  0
   22.6435   28.1243   16.8795 H   0  0  0  0  0  0
   23.7760   28.1434   14.6115 H   0  0  0  0  0  0
   22.1527   28.1026   13.8434 H   0  0  0  0  0  0
   22.3155   30.2678   15.7612 H   0  0  0  0  0  0
   23.6646   30.3498   14.5780 H   0  0  0  0  0  0
   20.7020   30.0554   13.9097 H   0  0  0  0  0  0
   21.6806   31.5540   13.7567 H   0  0  0  0  0  0
   21.9644   29.0118   12.0476 H   0  0  0  0  0  0
   22.8615   29.3511   10.0432 H   0  0  0  0  0  0
   23.5115   31.0796    9.5741 H   0  0  0  0  0  0
   22.6292   32.5057   12.8095 H   0  0  0  0  0  0
   20.2425   26.3035   14.9656 H   0  0  0  0  0  0
   18.1511   28.2564   15.8894 H   0  0  0  0  0  0
   17.8254   25.4970   14.5703 H   0  0  0  0  0  0
   16.5037   26.6808   14.8499 H   0  0  0  0  0  0
   18.6904   29.0973   13.7155 H   0  0  0  0  0  0
   16.6583   24.5591   12.4763 H   0  0  0  0  0  0
   18.0491   27.7748    8.8945 H   0  0  0  0  0  0
   16.3881   23.9920   10.0804 H   0  0  0  0  0  0
   17.0731   25.5829    8.3203 H   0  0  0  0  0  0
   17.3451   25.7225   19.5279 H   0  0  0  0  0  0
   14.7242   26.4306   20.0825 H   0  0  0  0  0  0
   16.0572   27.6112   20.3194 H   0  0  0  0  0  0
   14.1717   27.2799   17.9666 H   0  0  0  0  0  0
   14.6171   28.7772   18.8533 H   0  0  0  0  0  0
   16.7682   28.8997   17.8025 H   0  0  0  0  0  0
   15.8664   28.0821   16.4815 H   0  0  0  0  0  0
   16.4225   23.8849   20.2551 H   0  0  0  0  0  0
   14.3813   22.7056   18.2787 H   0  0  0  0  0  0
   16.6408   21.2931   19.8106 H   0  0  0  0  0  0
   17.2838   22.3752   17.6307 H   0  0  0  0  0  0
   14.5181   19.9562   19.8745 H   0  0  0  0  0  0
   15.7490   19.2159   18.7958 H   0  0  0  0  0  0
   14.3749   20.1349   18.0928 H   0  0  0  0  0  0
   12.4696   22.0447   19.2352 H   0  0  0  0  0  0
   12.6656   21.8055   22.2874 H   0  0  0  0  0  0
   10.3365   22.8386   20.5747 H   0  0  0  0  0  0
   10.2260   22.5090   22.3371 H   0  0  0  0  0  0
   10.7122   24.9406   21.9069 H   0  0  0  0  0  0
   11.9456   19.9873   23.1666 H   0  0  0  0  0  0
   10.7857   17.8843   21.3202 H   0  0  0  0  0  0
   11.3735   17.8611   24.3535 H   0  0  0  0  0  0
   13.0413   16.5502   22.1689 H   0  0  0  0  0  0
   13.3644   18.2105   22.7738 H   0  0  0  0  0  0
    9.6943   16.2007   23.6693 H   0  0  0  0  0  0
   11.2295   15.4428   24.2129 H   0  0  0  0  0  0
   10.8491   15.5439   22.4602 H   0  0  0  0  0  0
   14.7980   16.5578   23.8772 H   0  0  0  0  0  0
   13.3499   15.6604   24.4466 H   0  0  0  0  0  0
   13.6729   17.3206   25.0515 H   0  0  0  0  0  0
    8.6129   17.4510   21.1765 H   0  0  0  0  0  0
    6.9568   18.6156   23.3888 H   0  0  0  0  0  0
    5.8029   15.2795   21.3765 H   0  0  0  0  0  0
    5.3834   19.7568   21.7597 H   0  0  0  0  0  0
    7.4694   19.1071   19.6216 H   0  0  0  0  0  0
    5.8831   18.2830   19.7984 H   0  0  0  0  0  0
    7.2244   21.0575   22.7867 H   0  0  0  0  0  0
    6.7944   21.6596   21.1498 H   0  0  0  0  0  0
    8.2722   20.6649   21.3814 H   0  0  0  0  0  0
    5.8196   19.9840   18.0321 H   0  0  0  0  0  0
    6.3109   21.2487   19.2094 H   0  0  0  0  0  0
    4.7246   20.4246   19.3862 H   0  0  0  0  0  0
  1  2  1  0  0  0
  1 82  1  0  0  0
  1 83  1  0  0  0
  1 84  1  0  0  0
  2  3  1  0  0  0
  2  5  1  0  0  0
  2 85  1  0  0  0
  3  4  2  0  0  0
  3  6  1  0  0  0
  5 86  1  0  0  0
  5 87  1  0  0  0
  5 88  1  0  0  0
  6  7  1  0  0  0
  6 89  1  0  0  0
  7  8  1  0  0  0
  7 10  1  0  0  0
  7 90  1  0  0  0
  8  9  2  0  0  0
  8 14  1  0  0  0
 10 11  1  0  0  0
 10 91  1  0  0  0
 10 92  1  0  0  0
 11 12  2  0  0  0
 11 13  1  0  0  0
 13 93  1  0  0  0
 13 94  1  0  0  0
 14 15  1  0  0  0
 14 95  1  0  0  0
 15 16  1  0  0  0
 15 18  1  0  0  0
 15 96  1  0  0  0
 16 17  2  0  0  0
 16 20  1  0  0  0
 18 19  1  0  0  0
 18 97  1  0  0  0
 18 98  1  0  0  0
 19 99  1  0  0  0
 20 21  1  0  0  0
 20100  1  0  0  0
 21 22  1  0  0  0
 21 24  1  0  0  0
 21101  1  0  0  0
 22 23  2  0  0  0
 22 31  1  0  0  0
 24 25  1  0  0  0
 24102  1  0  0  0
 24103  1  0  0  0
 25 26  1  0  0  0
 25104  1  0  0  0
 25105  1  0  0  0
 26 27  1  0  0  0
 26106  1  0  0  0
 26107  1  0  0  0
 27 28  1  0  0  0
 27108  1  0  0  0
 28 29  1  0  0  0
 28 30  2  0  0  0
 29109  1  0  0  0
 29110  1  0  0  0
 30111  1  0  0  0
 31 32  1  0  0  0
 31112  1  0  0  0
 32 33  1  0  0  0
 32 35  1  0  0  0
 32113  1  0  0  0
 33 34  2  0  0  0
 33 45  1  0  0  0
 35 36  1  0  0  0
 35114  1  0  0  0
 35115  1  0  0  0
 36 37  2  0  0  0
 36 38  1  0  0  0
 37 39  1  0  0  0
 37116  1  0  0  0
 38 40  2  0  0  0
 38 41  1  0  0  0
 39 40  1  0  0  0
 40 42  1  0  0  0
 41 43  2  0  0  0
 41117  1  0  0  0
 42 44  2  0  0  0
 42118  1  0  0  0
 43 44  1  0  0  0
 43119  1  0  0  0
 44120  1  0  0  0
 45 46  1  0  0  0
 45 51  1  0  0  0
 46 47  1  0  0  0
 46 49  1  0  0  0
 46121  1  0  0  0
 47 48  2  0  0  0
 47 52  1  0  0  0
 49 50  1  0  0  0
 49122  1  0  0  0
 49123  1  0  0  0
 50 51  1  0  0  0
 50124  1  0  0  0
 50125  1  0  0  0
 51126  1  0  0  0
 51127  1  0  0  0
 52 53  1  0  0  0
 52128  1  0  0  0
 53 54  1  0  0  0
 53 56  1  0  0  0
 53129  1  0  0  0
 54 55  2  0  0  0
 54 59  1  0  0  0
 56 57  1  0  0  0
 56 58  1  0  0  0
 56130  1  0  0  0
 57131  1  0  0  0
 58132  1  0  0  0
 58133  1  0  0  0
 58134  1  0  0  0
 59 60  1  0  0  0
 59135  1  0  0  0
 60 61  1  0  0  0
 60 63  1  0  0  0
 60136  1  0  0  0
 61 62  2  0  0  0
 61 65  1  0  0  0
 63 64  1  0  0  0
 63137  1  0  0  0
 63138  1  0  0  0
 64139  1  0  0  0
 65 66  1  0  0  0
 65140  1  0  0  0
 66 67  1  0  0  0
 66 69  1  0  0  0
 66141  1  0  0  0
 67 68  2  0  0  0
 67 73  1  0  0  0
 69 70  1  0  0  0
 69 71  1  0  0  0
 69142  1  0  0  0
 70 72  1  0  0  0
 70143  1  0  0  0
 70144  1  0  0  0
 71145  1  0  0  0
 71146  1  0  0  0
 71147  1  0  0  0
 72148  1  0  0  0
 72149  1  0  0  0
 72150  1  0  0  0
 73 74  1  0  0  0
 73151  1  0  0  0
 74 75  1  0  0  0
 74 77  1  0  0  0
 74152  1  0  0  0
 75 76  1  0  0  0
 75 81  2  0  0  0
 76153  1  0  0  0
 77 78  1  0  0  0
 77 79  1  0  0  0
 77154  1  0  0  0
 78 80  1  0  0  0
 78155  1  0  0  0
 78156  1  0  0  0
 79157  1  0  0  0
 79158  1  0  0  0
 79159  1  0  0  0
 80160  1  0  0  0
 80161  1  0  0  0
 80162  1  0  0  0
M  CHG  1   1   1
M  END
> <s_m_source_file>
../4e34_ligand.sdf

> <i_m_source_file_index>
1

> <s_epik_input>
W05IMytdW0NAQEhdKFtDSDNdKUMoPU8pW05IXVtDQEBIXShbQ0gyXUMoPU8pW05IMl0pQyg9TylbTkhdW0NAQEhdKFtDSDJdW09IXSlDKD1PKVtOSF1bQ0BASF0oW0NIMl1bQ0gyXVtDSDJdW05IXS9DKFtOSDJdKT1OXFtIXSlDKD1PKVtOSF1bQ0BASF0oW0NIMl1jMVtjSF1bbkhdYyhjMTIpW2NIXVtjSF1bY0hdW2NIXTIpQyg9TylOM1tDQEBIXShbQ0gyXVtDSDJdW0NIMl0zKUMoPU8pW05IXVtDQEBIXShbQ0BIXShbT0hdKVtDSDNdKUMoPU8pW05IXVtDQEBIXShbQ0gyXVtPSF0pQyg9TylbTkhdW0NAQEhdKFtDQEBIXShbQ0gzXSlbQ0gyXVtDSDNdKUMoPU8pW05IXVtDQEhdKEMoPU8pW09IXSlbQ0BASF0oW0NIM10pW0NIMl1bQ0gzXQ==

> <s_epik_cmdline>
J2VwaWtfYXBwJywgJy1pbWFlJywgJ2xpZ2FuZF9wcm8ubWFlJywgJy1vbWFlJywgJ2xpZ2FuZF9wcmVwLm1hZScsICctbXMnLCAnMScsICctcGgnLCAnNycsICctcGh0JywgJzAuNScsICctbnQn

> <s_epik_pKa_notes>
Molecule size exceeds maximum supported for generating protonation states

> <s_epik_Chemistry_Notes>
This compound has an imine and may undergo hydrolysis.

$$$$
