4e35_ligand
                    3D
 Schrodinger Suite 2020-3.
128130  0  0  1  0            999 V2000
   40.6910   18.7210   34.1440 N   0  3  0  0  0  0
   40.1540   19.9510   33.5680 C   0  0  2  0  0  0
   38.7300   19.7680   33.0520 C   0  0  0  0  0  0
   38.4370   18.8230   32.3110 O   0  0  0  0  0  0
   41.0580   20.4610   32.4430 C   0  0  0  0  0  0
   40.4780   21.6310   31.6610 C   0  0  0  0  0  0
   41.4760   22.7710   31.5610 C   0  0  0  0  0  0
   41.7510   23.3580   32.8690 N   0  0  0  0  0  0
   42.7720   24.1690   33.1260 C   0  0  0  0  0  0
   42.9420   24.6570   34.3470 N   0  3  0  0  0  0
   43.6270   24.4880   32.1630 N   0  0  0  0  0  0
   37.8520   20.6880   33.4450 N   0  0  0  0  0  0
   36.4470   20.6320   33.0600 C   0  0  2  0  0  0
   36.2080   21.4270   31.7810 C   0  0  0  0  0  0
   36.9550   22.3480   31.4590 O   0  0  0  0  0  0
   35.5470   21.1990   34.1630 C   0  0  0  0  0  0
   35.7830   20.6230   35.5280 C   0  0  0  0  0  0
   36.3340   19.4070   35.8300 C   0  0  0  0  0  0
   35.4750   21.2470   36.7790 C   0  0  0  0  0  0
   36.3850   19.2410   37.1950 N   0  3  0  0  0  0
   35.8690   20.3550   37.8000 C   0  0  0  0  0  0
   34.9110   22.4740   37.1380 C   0  0  0  0  0  0
   35.7080   20.6540   39.1530 C   0  0  0  0  0  0
   34.7550   22.7700   38.4780 C   0  0  0  0  0  0
   35.1520   21.8630   39.4700 C   0  0  0  0  0  0
   35.1580   21.0650   31.0460 N   0  0  0  0  0  0
   34.7300   21.8360   29.8820 C   0  0  2  0  0  0
   33.9360   23.0750   30.3010 C   0  0  0  0  0  0
   33.3460   23.1230   31.3910 O   0  0  0  0  0  0
   33.8020   20.8610   29.1550 C   0  0  0  0  0  0
   33.1920   20.0750   30.2580 C   0  0  0  0  0  0
   34.3250   19.8640   31.2370 C   0  0  0  0  0  0
   33.9350   24.0680   29.4230 N   0  0  0  0  0  0
   33.1060   25.2450   29.5840 C   0  0  2  0  0  0
   32.2780   25.4200   28.3260 C   0  0  0  0  0  0
   32.7880   25.2470   27.2210 O   0  0  0  0  0  0
   33.9710   26.4860   29.7720 C   0  0  2  0  0  0
   34.6990   26.3640   30.9960 O   0  0  0  0  0  0
   33.1040   27.7450   29.8120 C   0  0  0  0  0  0
   31.0010   25.7620   28.4900 N   0  0  0  0  0  0
   30.1430   26.0870   27.3570 C   0  0  2  0  0  0
   29.5330   27.4690   27.5570 C   0  0  0  0  0  0
   29.1110   27.8160   28.6630 O   0  0  0  0  0  0
   29.0080   25.0660   27.2100 C   0  0  0  0  0  0
   29.5050   23.7710   26.9050 O   0  0  0  0  0  0
   29.5000   28.2590   26.4920 N   0  0  0  0  0  0
   28.8160   29.5450   26.4890 C   0  0  2  0  0  0
   27.3810   29.3090   26.0160 C   0  0  0  0  0  0
   27.1660   28.6190   25.0160 O   0  0  0  0  0  0
   29.5450   30.5530   25.5640 C   0  0  2  0  0  0
   30.9860   30.7680   26.0320 C   0  0  0  0  0  0
   28.8010   31.8750   25.5120 C   0  0  0  0  0  0
   31.8610   31.4480   24.9900 C   0  0  0  0  0  0
   26.4100   29.8950   26.7130 N   0  0  0  0  0  0
   24.9880   29.5860   26.5350 C   0  0  2  0  0  0
   24.1470   30.8260   26.6020 C   0  0  0  0  0  0
   24.5810   31.8470   27.1320 O   0  5  0  0  0  0
   24.4610   28.7180   27.6890 C   0  0  0  0  0  0
   25.0850   27.3920   28.0680 C   0  0  0  0  0  0
   24.3400   26.8010   29.2660 C   0  0  0  0  0  0
   25.0170   26.4570   26.8660 C   0  0  0  0  0  0
   22.9920   30.7760   26.1890 O   0  0  0  0  0  0
   40.0271   18.3727   34.9489 H   0  0  0  0  0  0
   41.6933   18.9150   34.5536 H   0  0  0  0  0  0
   40.7571   17.9489   33.3633 H   0  0  0  0  0  0
   40.1406   20.6623   34.4069 H   0  0  0  0  0  0
   42.0157   20.7980   32.8665 H   0  0  0  0  0  0
   41.2407   19.6496   31.7231 H   0  0  0  0  0  0
   40.2192   21.3002   30.6443 H   0  0  0  0  0  0
   39.5739   21.9988   32.1682 H   0  0  0  0  0  0
   42.4213   22.3951   31.1426 H   0  0  0  0  0  0
   41.0714   23.5561   30.9054 H   0  0  0  0  0  0
   41.0912   23.1367   33.7209 H   0  0  0  0  0  0
   42.2349   24.3944   35.1476 H   0  0  0  0  0  0
   43.4887   24.0848   31.1489 H   0  0  0  0  0  0
   44.4742   25.1557   32.3786 H   0  0  0  0  0  0
   38.2160   21.5092   34.0799 H   0  0  0  0  0  0
   36.2463   19.5620   32.9023 H   0  0  0  0  0  0
   35.7075   22.2841   34.2455 H   0  0  0  0  0  0
   34.4938   21.0020   33.9143 H   0  0  0  0  0  0
   36.6569   18.7337   35.0223 H   0  0  0  0  0  0
   34.5994   23.1856   36.3734 H   0  0  0  0  0  0
   36.0136   19.9511   39.9280 H   0  0  0  0  0  0
   34.3160   23.7244   38.7687 H   0  0  0  0  0  0
   35.0145   22.1271   40.5185 H   0  0  0  0  0  0
   35.6021   22.1777   29.3051 H   0  0  0  0  0  0
   33.0537   21.4265   28.5803 H   0  0  0  0  0  0
   34.3924   20.2338   28.4708 H   0  0  0  0  0  0
   32.3648   20.6478   30.7025 H   0  0  0  0  0  0
   32.8077   19.1237   29.8614 H   0  0  0  0  0  0
   34.9184   18.9662   31.0092 H   0  0  0  0  0  0
   33.9790   19.8198   32.2802 H   0  0  0  0  0  0
   34.5946   23.9754   28.5476 H   0  0  0  0  0  0
   32.4809   25.0725   30.4725 H   0  0  0  0  0  0
   34.7196   26.5635   28.9697 H   0  0  0  0  0  0
   35.3793   25.5132   31.1489 H   0  0  0  0  0  0
   32.5454   27.8356   28.8687 H   0  0  0  0  0  0
   33.7461   28.6283   29.9442 H   0  0  0  0  0  0
   32.3969   27.6767   30.6518 H   0  0  0  0  0  0
   30.5976   25.7957   29.5128 H   0  0  0  0  0  0
   30.8016   26.0603   26.4764 H   0  0  0  0  0  0
   28.4430   25.0077   28.1520 H   0  0  0  0  0  0
   28.3356   25.3796   26.3979 H   0  0  0  0  0  0
   28.8069   22.9317   26.7698 H   0  0  0  0  0  0
   30.0165   27.9087   25.5862 H   0  0  0  0  0  0
   28.8323   29.9253   27.5211 H   0  0  0  0  0  0
   29.5694   30.1494   24.5410 H   0  0  0  0  0  0
   30.9888   31.4011   26.9315 H   0  0  0  0  0  0
   31.4443   29.7959   26.2665 H   0  0  0  0  0  0
   27.7686   31.7017   25.1742 H   0  0  0  0  0  0
   29.3076   32.5534   24.8098 H   0  0  0  0  0  0
   28.7876   32.3279   26.5144 H   0  0  0  0  0  0
   32.8784   31.5712   25.3895 H   0  0  0  0  0  0
   31.4409   32.4349   24.7460 H   0  0  0  0  0  0
   31.8964   30.8296   24.0810 H   0  0  0  0  0  0
   26.7211   30.6461   27.4540 H   0  0  0  0  0  0
   24.9498   29.1048   25.5465 H   0  0  0  0  0  0
   24.5181   29.2850   28.6299 H   0  0  0  0  0  0
   23.4152   28.4404   27.4911 H   0  0  0  0  0  0
   26.1384   27.5386   28.3488 H   0  0  0  0  0  0
   24.4052   27.4949   30.1170 H   0  0  0  0  0  0
   24.7950   25.8383   29.5422 H   0  0  0  0  0  0
   23.2841   26.6447   29.0004 H   0  0  0  0  0  0
   25.5596   26.9060   26.0211 H   0  0  0  0  0  0
   23.9657   26.2983   26.5839 H   0  0  0  0  0  0
   25.4766   25.4920   27.1257 H   0  0  0  0  0  0
   36.7975   18.3147   37.6214 H   0  0  0  0  0  0
   43.7902   25.3244   34.5594 H   0  0  0  0  0  0
  1  2  1  0  0  0
  1 63  1  0  0  0
  1 64  1  0  0  0
  1 65  1  0  0  0
  2  3  1  0  0  0
  2  5  1  0  0  0
  2 66  1  0  0  0
  3  4  2  0  0  0
  3 12  1  0  0  0
  5  6  1  0  0  0
  5 67  1  0  0  0
  5 68  1  0  0  0
  6  7  1  0  0  0
  6 69  1  0  0  0
  6 70  1  0  0  0
  7  8  1  0  0  0
  7 71  1  0  0  0
  7 72  1  0  0  0
  8  9  1  0  0  0
  8 73  1  0  0  0
  9 10  2  0  0  0
  9 11  1  0  0  0
 10 74  1  0  0  0
 10128  1  0  0  0
 11 75  1  0  0  0
 11 76  1  0  0  0
 12 13  1  0  0  0
 12 77  1  0  0  0
 13 14  1  0  0  0
 13 16  1  0  0  0
 13 78  1  0  0  0
 14 15  2  0  0  0
 14 26  1  0  0  0
 16 17  1  0  0  0
 16 79  1  0  0  0
 16 80  1  0  0  0
 17 18  2  0  0  0
 17 19  1  0  0  0
 18 20  1  0  0  0
 18 81  1  0  0  0
 19 21  2  0  0  0
 19 22  1  0  0  0
 20 21  1  0  0  0
 20127  1  0  0  0
 21 23  1  0  0  0
 22 24  2  0  0  0
 22 82  1  0  0  0
 23 25  2  0  0  0
 23 83  1  0  0  0
 24 25  1  0  0  0
 24 84  1  0  0  0
 25 85  1  0  0  0
 26 27  1  0  0  0
 26 32  1  0  0  0
 27 28  1  0  0  0
 27 30  1  0  0  0
 27 86  1  0  0  0
 28 29  2  0  0  0
 28 33  1  0  0  0
 30 31  1  0  0  0
 30 87  1  0  0  0
 30 88  1  0  0  0
 31 32  1  0  0  0
 31 89  1  0  0  0
 31 90  1  0  0  0
 32 91  1  0  0  0
 32 92  1  0  0  0
 33 34  1  0  0  0
 33 93  1  0  0  0
 34 35  1  0  0  0
 34 37  1  0  0  0
 34 94  1  0  0  0
 35 36  2  0  0  0
 35 40  1  0  0  0
 37 38  1  0  0  0
 37 39  1  0  0  0
 37 95  1  0  0  0
 38 96  1  0  0  0
 39 97  1  0  0  0
 39 98  1  0  0  0
 39 99  1  0  0  0
 40 41  1  0  0  0
 40100  1  0  0  0
 41 42  1  0  0  0
 41 44  1  0  0  0
 41101  1  0  0  0
 42 43  2  0  0  0
 42 46  1  0  0  0
 44 45  1  0  0  0
 44102  1  0  0  0
 44103  1  0  0  0
 45104  1  0  0  0
 46 47  1  0  0  0
 46105  1  0  0  0
 47 48  1  0  0  0
 47 50  1  0  0  0
 47106  1  0  0  0
 48 49  2  0  0  0
 48 54  1  0  0  0
 50 51  1  0  0  0
 50 52  1  0  0  0
 50107  1  0  0  0
 51 53  1  0  0  0
 51108  1  0  0  0
 51109  1  0  0  0
 52110  1  0  0  0
 52111  1  0  0  0
 52112  1  0  0  0
 53113  1  0  0  0
 53114  1  0  0  0
 53115  1  0  0  0
 54 55  1  0  0  0
 54116  1  0  0  0
 55 56  1  0  0  0
 55 58  1  0  0  0
 55117  1  0  0  0
 56 57  1  0  0  0
 56 62  2  0  0  0
 58 59  1  0  0  0
 58118  1  0  0  0
 58119  1  0  0  0
 59 60  1  0  0  0
 59 61  1  0  0  0
 59120  1  0  0  0
 60121  1  0  0  0
 60122  1  0  0  0
 60123  1  0  0  0
 61124  1  0  0  0
 61125  1  0  0  0
 61126  1  0  0  0
M  CHG  4   1   1  10   1  20   1  57  -1
M  END
> <s_m_source_file>
../4e35_ligand.sdf

> <i_m_source_file_index>
1

> <s_epik_input>
W0hdL049QyhbTkgyXSlcW05IXVtDSDJdW0NIMl1bQ0gyXVtDQEhdKFtOSDMrXSlDKD1PKVtOSF1bQ0BASF0oW0NIMl1jMVtjSF1bbkhdYyhjMTIpW2NIXVtjSF1bY0hdW2NIXTIpQyg9TylOM1tDQEBIXShbQ0gyXVtDSDJdW0NIMl0zKUMoPU8pW05IXVtDQEBIXShbQ0BIXShbT0hdKVtDSDNdKUMoPU8pW05IXVtDQEBIXShbQ0gyXVtPSF0pQyg9TylbTkhdW0NAQEhdKFtDQEBIXShbQ0gzXSlbQ0gyXVtDSDNdKUMoPU8pW05IXVtDQEhdKEMoPU8pW09IXSlbQ0gyXVtDSF0oW0NIM10pW0NIM10=

> <s_epik_cmdline>
J2VwaWtfYXBwJywgJy1pbWFlJywgJ2xpZ2FuZF9wcm8ubWFlJywgJy1vbWFlJywgJ2xpZ2FuZF9wcmVwLm1hZScsICctbXMnLCAnMScsICctcGgnLCAnNycsICctcGh0JywgJzAuNScsICctbnQn

> <r_epik_Ionization_Penalty>
  0.1413

> <r_epik_Ionization_Penalty_Charging>
  0.1413

> <r_epik_Ionization_Penalty_Neutral>
  0.0000

> <r_epik_State_Penalty>
  0.1304

> <r_epik_Charging_Adjusted_Penalty>
0.271782843450344

> <i_epik_Tot_Q>
2

> <i_epik_Tot_abs_Q>
4

> <s_epik_Chemistry_Notes>
This compound has an imine and may undergo hydrolysis.

$$$$
