4e3b_ligand
                    3D
 Schrodinger Suite 2020-3.
139141  0  0  1  0            999 V2000
   -5.2820   18.1630   44.5300 N   0  3  0  0  0  0
   -5.9890   18.7800   45.6500 C   0  0  2  0  0  0
   -5.1280   19.8480   46.3160 C   0  0  0  0  0  0
   -5.4970   21.0190   46.3800 O   0  0  0  0  0  0
   -6.4000   17.7110   46.6680 C   0  0  0  0  0  0
   -7.1500   18.2720   47.7330 O   0  0  0  0  0  0
   -3.9730   19.4270   46.8110 N   0  0  0  0  0  0
   -3.0110   20.3340   47.4200 C   0  0  2  0  0  0
   -1.8580   20.5750   46.4460 C   0  0  0  0  0  0
   -0.8110   21.1020   46.8150 O   0  0  0  0  0  0
   -2.4740   19.7540   48.7290 C   0  0  0  0  0  0
   -3.1690   18.4730   49.1930 C   0  0  0  0  0  0
   -2.6420   17.2350   48.4650 C   0  0  0  0  0  0
   -3.2460   17.0500   47.1470 N   0  0  0  0  0  0
   -2.6330   16.4770   46.1160 C   0  0  0  0  0  0
   -3.2630   16.3490   44.9540 N   0  0  0  0  0  0
   -1.3870   16.0380   46.2450 N   0  3  0  0  0  0
   -2.0600   20.1730   45.1970 N   0  0  0  0  0  0
   -1.0420   20.3280   44.1680 C   0  0  2  0  0  0
   -1.7360   20.5200   42.8290 C   0  0  0  0  0  0
   -2.0160   19.5530   42.1260 O   0  0  0  0  0  0
   -0.1390   19.1000   44.1210 C   0  0  0  0  0  0
    1.2050   19.3480   43.4960 C   0  0  0  0  0  0
    2.1820   20.1630   43.9740 C   0  0  0  0  0  0
    1.7240   18.7540   42.2920 C   0  0  0  0  0  0
    3.2870   20.1150   43.1480 N   0  3  0  0  0  0
    3.0300   19.2570   42.1140 C   0  0  0  0  0  0
    1.2210   17.8380   41.3600 C   0  0  0  0  0  0
    3.8320   18.8940   41.0240 C   0  0  0  0  0  0
    2.0230   17.4760   40.2790 C   0  0  0  0  0  0
    3.3150   17.9990   40.1280 C   0  0  0  0  0  0
   -2.0230   21.7740   42.4850 N   0  0  0  0  0  0
   -2.7780   22.0530   41.2620 C   0  0  2  0  0  0
   -1.9870   21.7080   40.0030 C   0  0  0  0  0  0
   -0.7530   21.8000   39.9700 O   0  0  0  0  0  0
   -3.0040   23.5640   41.3380 C   0  0  0  0  0  0
   -1.8460   24.0680   42.1190 C   0  0  0  0  0  0
   -1.5710   23.0070   43.1500 C   0  0  0  0  0  0
   -2.7120   21.3040   38.9700 N   0  0  0  0  0  0
   -2.1300   21.1870   37.6420 C   0  0  2  0  0  0
   -2.8960   22.0750   36.6790 C   0  0  0  0  0  0
   -4.0660   22.4120   36.9140 O   0  0  0  0  0  0
   -2.0650   19.7310   37.1430 C   0  0  2  0  0  0
   -3.3850   19.2160   36.9380 O   0  0  0  0  0  0
   -1.3090   18.8540   38.1340 C   0  0  0  0  0  0
   -2.2330   22.4750   35.6020 N   0  0  0  0  0  0
   -2.8430   23.3490   34.6140 C   0  0  2  0  0  0
   -2.7460   22.7430   33.2330 C   0  0  0  0  0  0
   -1.6890   22.2410   32.8320 O   0  0  0  0  0  0
   -2.1690   24.7190   34.6090 C   0  0  0  0  0  0
   -2.3430   25.3720   35.8460 O   0  0  0  0  0  0
   -3.8500   22.8250   32.4930 N   0  0  0  0  0  0
   -3.9120   22.3530   31.1110 C   0  0  2  0  0  0
   -3.4510   23.4420   30.1570 C   0  0  0  0  0  0
   -3.9220   24.5800   30.2300 O   0  0  0  0  0  0
   -5.3600   21.9570   30.7410 C   0  0  2  0  0  0
   -5.8390   20.8190   31.6510 C   0  0  0  0  0  0
   -5.4220   21.5870   29.2770 C   0  0  0  0  0  0
   -7.3700   20.6330   31.6690 C   0  0  0  0  0  0
   -2.5160   23.0940   29.2710 N   0  0  0  0  0  0
   -1.9090   24.0530   28.3530 C   0  0  2  0  0  0
   -2.0720   23.5940   26.9230 C   0  0  0  0  0  0
   -2.1490   22.3920   26.6370 O   0  5  0  0  0  0
   -0.4050   24.1610   28.6180 C   0  0  0  0  0  0
    0.0860   24.2730   30.0530 C   0  0  0  0  0  0
    1.6230   24.2230   30.0660 C   0  0  0  0  0  0
   -0.4160   25.5500   30.7030 C   0  0  0  0  0  0
   -2.0920   24.4420   26.0270 O   0  0  0  0  0  0
   -4.9924   18.9395   43.8067 H   0  0  0  0  0  0
   -5.9407   17.4317   44.0388 H   0  0  0  0  0  0
   -4.3807   17.6533   44.9014 H   0  0  0  0  0  0
   -6.8804   19.2561   45.2155 H   0  0  0  0  0  0
   -7.0171   16.9486   46.1701 H   0  0  0  0  0  0
   -5.4995   17.2378   47.0866 H   0  0  0  0  0  0
   -7.5179   17.6282   48.5455 H   0  0  0  0  0  0
   -3.7522   18.3511   46.7499 H   0  0  0  0  0  0
   -3.5562   21.2671   47.6252 H   0  0  0  0  0  0
   -1.4071   19.5126   48.6127 H   0  0  0  0  0  0
   -2.5971   20.4924   49.5350 H   0  0  0  0  0  0
   -2.9998   18.3339   50.2710 H   0  0  0  0  0  0
   -4.2489   18.5506   48.9984 H   0  0  0  0  0  0
   -1.5548   17.3269   48.3253 H   0  0  0  0  0  0
   -2.8603   16.3376   49.0625 H   0  0  0  0  0  0
   -4.2735   17.3952   46.9595 H   0  0  0  0  0  0
   -4.2956   16.7122   44.8453 H   0  0  0  0  0  0
   -2.7523   15.8797   44.1002 H   0  0  0  0  0  0
   -0.8636   16.1432   47.2068 H   0  0  0  0  0  0
   -3.0275   19.7124   44.9485 H   0  0  0  0  0  0
   -0.4421   21.2112   44.4327 H   0  0  0  0  0  0
    0.0423   18.7388   45.1441 H   0  0  0  0  0  0
   -0.6271   18.3082   43.5338 H   0  0  0  0  0  0
    2.0162   20.7374   44.8973 H   0  0  0  0  0  0
    0.2226   17.4166   41.4775 H   0  0  0  0  0  0
    4.8313   19.3096   40.8947 H   0  0  0  0  0  0
    1.6392   16.7743   39.5384 H   0  0  0  0  0  0
    3.9209   17.6855   39.2779 H   0  0  0  0  0  0
   -3.6907   21.4397   41.2343 H   0  0  0  0  0  0
   -3.0290   23.9826   40.3211 H   0  0  0  0  0  0
   -3.9607   23.7668   41.8416 H   0  0  0  0  0  0
   -0.9860   24.2116   41.4483 H   0  0  0  0  0  0
   -2.1096   25.0276   42.5878 H   0  0  0  0  0  0
   -2.1470   23.1570   44.0750 H   0  0  0  0  0  0
   -0.5018   22.9214   43.3937 H   0  0  0  0  0  0
   -3.7715   21.0552   39.1301 H   0  0  0  0  0  0
   -1.0973   21.5500   37.7499 H   0  0  0  0  0  0
   -1.5819   19.6818   36.1560 H   0  0  0  0  0  0
   -4.0740   19.7272   36.2496 H   0  0  0  0  0  0
   -0.2971   19.2585   38.2839 H   0  0  0  0  0  0
   -1.2396   17.8299   37.7386 H   0  0  0  0  0  0
   -1.8446   18.8407   39.0947 H   0  0  0  0  0  0
   -1.1976   22.1294   35.4660 H   0  0  0  0  0  0
   -3.8969   23.4329   34.9177 H   0  0  0  0  0  0
   -1.0917   24.5970   34.4230 H   0  0  0  0  0  0
   -2.6097   25.3416   33.8164 H   0  0  0  0  0  0
   -1.9153   26.3730   36.0045 H   0  0  0  0  0  0
   -4.7396   23.2701   32.9626 H   0  0  0  0  0  0
   -3.2285   21.4922   31.0681 H   0  0  0  0  0  0
   -6.0496   22.8025   30.8809 H   0  0  0  0  0  0
   -5.4004   19.8690   31.3118 H   0  0  0  0  0  0
   -5.5240   21.0196   32.6857 H   0  0  0  0  0  0
   -5.0694   22.4336   28.6696 H   0  0  0  0  0  0
   -6.4599   21.3465   29.0033 H   0  0  0  0  0  0
   -4.7819   20.7116   29.0926 H   0  0  0  0  0  0
   -7.6305   19.8023   32.3413 H   0  0  0  0  0  0
   -7.7238   20.4067   30.6523 H   0  0  0  0  0  0
   -7.8475   21.5574   32.0262 H   0  0  0  0  0  0
   -2.2056   22.0389   29.2487 H   0  0  0  0  0  0
   -2.4396   24.9999   28.5315 H   0  0  0  0  0  0
    0.1020   23.2685   28.2225 H   0  0  0  0  0  0
   -0.0085   25.0585   28.1206 H   0  0  0  0  0  0
   -0.3235   23.4336   30.6342 H   0  0  0  0  0  0
    1.9636   23.2911   29.5910 H   0  0  0  0  0  0
    1.9822   24.2574   31.1051 H   0  0  0  0  0  0
    2.0226   25.0847   29.5112 H   0  0  0  0  0  0
   -1.5157   25.5641   30.6824 H   0  0  0  0  0  0
   -0.0278   26.4191   30.1517 H   0  0  0  0  0  0
   -0.0682   25.5919   31.7457 H   0  0  0  0  0  0
    4.1773   20.7160   43.3849 H   0  0  0  0  0  0
   -0.8778   15.5690   45.3901 H   0  0  0  0  0  0
  1  2  1  0  0  0
  1 69  1  0  0  0
  1 70  1  0  0  0
  1 71  1  0  0  0
  2  3  1  0  0  0
  2  5  1  0  0  0
  2 72  1  0  0  0
  3  4  2  0  0  0
  3  7  1  0  0  0
  5  6  1  0  0  0
  5 73  1  0  0  0
  5 74  1  0  0  0
  6 75  1  0  0  0
  7  8  1  0  0  0
  7 76  1  0  0  0
  8  9  1  0  0  0
  8 11  1  0  0  0
  8 77  1  0  0  0
  9 10  2  0  0  0
  9 18  1  0  0  0
 11 12  1  0  0  0
 11 78  1  0  0  0
 11 79  1  0  0  0
 12 13  1  0  0  0
 12 80  1  0  0  0
 12 81  1  0  0  0
 13 14  1  0  0  0
 13 82  1  0  0  0
 13 83  1  0  0  0
 14 15  1  0  0  0
 14 84  1  0  0  0
 15 16  1  0  0  0
 15 17  2  0  0  0
 16 85  1  0  0  0
 16 86  1  0  0  0
 17 87  1  0  0  0
 17139  1  0  0  0
 18 19  1  0  0  0
 18 88  1  0  0  0
 19 20  1  0  0  0
 19 22  1  0  0  0
 19 89  1  0  0  0
 20 21  2  0  0  0
 20 32  1  0  0  0
 22 23  1  0  0  0
 22 90  1  0  0  0
 22 91  1  0  0  0
 23 24  2  0  0  0
 23 25  1  0  0  0
 24 26  1  0  0  0
 24 92  1  0  0  0
 25 27  2  0  0  0
 25 28  1  0  0  0
 26 27  1  0  0  0
 26138  1  0  0  0
 27 29  1  0  0  0
 28 30  2  0  0  0
 28 93  1  0  0  0
 29 31  2  0  0  0
 29 94  1  0  0  0
 30 31  1  0  0  0
 30 95  1  0  0  0
 31 96  1  0  0  0
 32 33  1  0  0  0
 32 38  1  0  0  0
 33 34  1  0  0  0
 33 36  1  0  0  0
 33 97  1  0  0  0
 34 35  2  0  0  0
 34 39  1  0  0  0
 36 37  1  0  0  0
 36 98  1  0  0  0
 36 99  1  0  0  0
 37 38  1  0  0  0
 37100  1  0  0  0
 37101  1  0  0  0
 38102  1  0  0  0
 38103  1  0  0  0
 39 40  1  0  0  0
 39104  1  0  0  0
 40 41  1  0  0  0
 40 43  1  0  0  0
 40105  1  0  0  0
 41 42  2  0  0  0
 41 46  1  0  0  0
 43 44  1  0  0  0
 43 45  1  0  0  0
 43106  1  0  0  0
 44107  1  0  0  0
 45108  1  0  0  0
 45109  1  0  0  0
 45110  1  0  0  0
 46 47  1  0  0  0
 46111  1  0  0  0
 47 48  1  0  0  0
 47 50  1  0  0  0
 47112  1  0  0  0
 48 49  2  0  0  0
 48 52  1  0  0  0
 50 51  1  0  0  0
 50113  1  0  0  0
 50114  1  0  0  0
 51115  1  0  0  0
 52 53  1  0  0  0
 52116  1  0  0  0
 53 54  1  0  0  0
 53 56  1  0  0  0
 53117  1  0  0  0
 54 55  2  0  0  0
 54 60  1  0  0  0
 56 57  1  0  0  0
 56 58  1  0  0  0
 56118  1  0  0  0
 57 59  1  0  0  0
 57119  1  0  0  0
 57120  1  0  0  0
 58121  1  0  0  0
 58122  1  0  0  0
 58123  1  0  0  0
 59124  1  0  0  0
 59125  1  0  0  0
 59126  1  0  0  0
 60 61  1  0  0  0
 60127  1  0  0  0
 61 62  1  0  0  0
 61 64  1  0  0  0
 61128  1  0  0  0
 62 63  1  0  0  0
 62 68  2  0  0  0
 64 65  1  0  0  0
 64129  1  0  0  0
 64130  1  0  0  0
 65 66  1  0  0  0
 65 67  1  0  0  0
 65131  1  0  0  0
 66132  1  0  0  0
 66133  1  0  0  0
 66134  1  0  0  0
 67135  1  0  0  0
 67136  1  0  0  0
 67137  1  0  0  0
M  CHG  4   1   1  17   1  26   1  63  -1
M  END
> <s_m_source_file>
../4e3b_ligand.sdf

> <i_m_source_file_index>
1

> <s_epik_input>
W0hdL049QyhbTkgyXSlcW05IXVtDSDJdW0NIMl1bQ0gyXVtDQEhdKFtOSF1DKD1PKVtDQEBIXShbTkgzK10pW0NIMl1bT0hdKUMoPU8pW05IXVtDQEBIXShbQ0gyXWMxW2NIXVtuSF1jKGMxMilbY0hdW2NIXVtjSF1bY0hdMilDKD1PKU4zW0NAQEhdKFtDSDJdW0NIMl1bQ0gyXTMpQyg9TylbTkhdW0NAQEhdKFtDQEhdKFtPSF0pW0NIM10pQyg9TylbTkhdW0NAQEhdKFtDSDJdW09IXSlDKD1PKVtOSF1bQ0BASF0oW0NAQEhdKFtDSDNdKVtDSDJdW0NIM10pQyg9TylbTkhdW0NASF0oQyg9TylbT0hdKVtDSDJdW0NIXShbQ0gzXSlbQ0gzXQ==

> <s_epik_cmdline>
J2VwaWtfYXBwJywgJy1pbWFlJywgJ2xpZ2FuZF9wcm8ubWFlJywgJy1vbWFlJywgJ2xpZ2FuZF9wcmVwLm1hZScsICctbXMnLCAnMScsICctcGgnLCAnNycsICctcGh0JywgJzAuNScsICctbnQn

> <r_epik_Ionization_Penalty>
  0.1518

> <r_epik_Ionization_Penalty_Charging>
  0.1518

> <r_epik_Ionization_Penalty_Neutral>
  0.0000

> <r_epik_State_Penalty>
  0.1409

> <r_epik_Charging_Adjusted_Penalty>
0.292645212011716

> <i_epik_Tot_Q>
2

> <i_epik_Tot_abs_Q>
4

> <s_epik_Chemistry_Notes>
This compound has an imine and may undergo hydrolysis.

$$$$
