4e3d_ligand
                    3D
 Schrodinger Suite 2020-3.
 16 16  0  0  1  0            999 V2000
   15.3500    2.1830   15.9970 O   0  5  0  0  0  0
   17.5870    1.8570   15.9730 O   0  0  0  0  0  0
   19.3590    5.9540   13.6850 O   0  0  0  0  0  0
   14.4120    4.0670   14.8440 O   0  0  0  0  0  0
   17.0170    6.2110   13.5670 C   0  0  0  0  0  0
   15.7570    5.7290   13.9080 C   0  0  0  0  0  0
   18.0000    4.2460   14.5570 C   0  0  0  0  0  0
   16.5510    2.4600   15.6140 C   0  0  0  0  0  0
   18.1060    5.4670   13.9090 C   0  0  0  0  0  0
   15.6430    4.5300   14.5160 C   0  0  0  0  0  0
   16.7380    3.7470   14.8820 C   0  0  0  0  0  0
   19.4907    6.9192   13.1741 H   0  0  0  0  0  0
   13.5168    4.6480   14.5773 H   0  0  0  0  0  0
   17.1298    7.1586   13.0403 H   0  0  0  0  0  0
   14.8667    6.3170   13.6851 H   0  0  0  0  0  0
   18.8961    3.6798   14.8108 H   0  0  0  0  0  0
  1  8  1  0  0  0
  2  8  2  0  0  0
  3  9  1  0  0  0
  3 12  1  0  0  0
  4 10  1  0  0  0
  4 13  1  0  0  0
  5  6  2  0  0  0
  5  9  1  0  0  0
  5 14  1  0  0  0
  6 10  1  0  0  0
  6 15  1  0  0  0
  7  9  2  0  0  0
  7 11  1  0  0  0
  7 16  1  0  0  0
  8 11  1  0  0  0
 10 11  2  0  0  0
M  CHG  1   1  -1
M  END
> <s_m_source_file>
../4e3d_ligand.sdf

> <i_m_source_file_index>
1

> <s_epik_input>
W09IXUMoPU8pYyhbY0hdMSljKFtPSF0pW2NIXVtjSF1jMVtPSF0=

> <s_epik_cmdline>
J2VwaWtfYXBwJywgJy1pbWFlJywgJ2xpZ2FuZF9wcm8ubWFlJywgJy1vbWFlJywgJ2xpZ2FuZF9wcmVwLm1hZScsICctbXMnLCAnMScsICctcGgnLCAnNycsICctcGh0JywgJzAuNScsICctbnQn

> <r_lp_tautomer_probability>
1

> <r_epik_Ionization_Penalty>
  0.0006

> <r_epik_Ionization_Penalty_Charging>
  0.0000

> <r_epik_Ionization_Penalty_Neutral>
  0.0005

> <r_epik_State_Penalty>
 -0.0000

> <r_epik_Charging_Adjusted_Penalty>
4.56206219586118e-05

> <i_epik_Tot_Q>
-1

> <i_epik_Tot_abs_Q>
1

$$$$
