4e3f_ligand
                    3D
 Schrodinger Suite 2020-3.
 16 16  0  0  1  0            999 V2000
   16.8350    2.2560   16.0540 C   0  0  0  0  0  0
   17.9450    1.7340   16.0400 O   0  0  0  0  0  0
   15.9630    1.8420   16.8640 O   0  5  0  0  0  0
   16.5880    3.3400   15.1800 C   0  0  0  0  0  0
   15.2980    3.8710   15.1100 C   0  0  0  0  0  0
   15.0440    5.0110   14.3740 C   0  0  0  0  0  0
   15.9890    5.5990   13.5570 C   0  0  0  0  0  0
   17.3010    5.0710   13.6010 C   0  0  0  0  0  0
   17.5730    3.9560   14.4010 C   0  0  0  0  0  0
   14.3640    3.2860   15.9020 O   0  0  0  0  0  0
   18.8660    3.4670   14.4620 O   0  0  0  0  0  0
   14.0558    5.4661   14.4407 H   0  0  0  0  0  0
   15.7350    6.4350   12.9053 H   0  0  0  0  0  0
   18.0962    5.5309   13.0142 H   0  0  0  0  0  0
   14.6149    2.3777   16.4695 H   0  0  0  0  0  0
   19.0938    2.5910   15.0871 H   0  0  0  0  0  0
  1  2  2  0  0  0
  1  3  1  0  0  0
  1  4  1  0  0  0
  4  5  2  0  0  0
  4  9  1  0  0  0
  5  6  1  0  0  0
  5 10  1  0  0  0
  6  7  2  0  0  0
  6 12  1  0  0  0
  7  8  1  0  0  0
  7 13  1  0  0  0
  8  9  2  0  0  0
  8 14  1  0  0  0
  9 11  1  0  0  0
 10 15  1  0  0  0
 11 16  1  0  0  0
M  CHG  1   3  -1
M  END
> <s_m_source_file>
../4e3f_ligand.sdf

> <i_m_source_file_index>
1

> <s_epik_input>
Tz1DKFtPSF0pYzFjKFtPSF0pW2NIXVtjSF1bY0hdYzFbT0hd

> <s_epik_cmdline>
J2VwaWtfYXBwJywgJy1pbWFlJywgJ2xpZ2FuZF9wcm8ubWFlJywgJy1vbWFlJywgJ2xpZ2FuZF9wcmVwLm1hZScsICctbXMnLCAnMScsICctcGgnLCAnNycsICctcGh0JywgJzAuNScsICctbnQn

> <r_lp_tautomer_probability>
1

> <r_epik_Ionization_Penalty>
  0.0000

> <r_epik_Ionization_Penalty_Charging>
  0.0000

> <r_epik_Ionization_Penalty_Neutral>
  0.0000

> <r_epik_State_Penalty>
 -0.0000

> <r_epik_Charging_Adjusted_Penalty>
2.82928622458514e-06

> <i_epik_Tot_Q>
-1

> <i_epik_Tot_abs_Q>
1

$$$$
