4e3g_ligand
                    3D
 Schrodinger Suite 2020-3.
 15 15  0  0  1  0            999 V2000
   16.4400    2.1870   15.2350 C   0  0  0  0  0  0
   15.2530    1.8470   15.5410 O   0  5  0  0  0  0
   17.3410    1.4040   15.6300 O   0  0  0  0  0  0
   16.7060    3.4620   14.6760 C   0  0  0  0  0  0
   18.0480    3.9210   14.6600 C   0  0  0  0  0  0
   18.4420    5.2100   14.1920 C   0  0  0  0  0  0
   17.3440    5.9500   13.6530 C   0  0  0  0  0  0
   16.0150    5.4960   13.6580 C   0  0  0  0  0  0
   15.6810    4.2780   14.2290 C   0  0  0  0  0  0
   17.5460    7.2150   13.0840 O   0  0  0  0  0  0
   18.8241    3.2493   15.0269 H   0  0  0  0  0  0
   19.4635    5.5874   14.2400 H   0  0  0  0  0  0
   15.2355    6.1099   13.2067 H   0  0  0  0  0  0
   14.6394    3.9710   14.3235 H   0  0  0  0  0  0
   18.5582    7.6434   13.0409 H   0  0  0  0  0  0
  1  2  1  0  0  0
  1  3  2  0  0  0
  1  4  1  0  0  0
  4  5  2  0  0  0
  4  9  1  0  0  0
  5  6  1  0  0  0
  5 11  1  0  0  0
  6  7  2  0  0  0
  6 12  1  0  0  0
  7  8  1  0  0  0
  7 10  1  0  0  0
  8  9  2  0  0  0
  8 13  1  0  0  0
  9 14  1  0  0  0
 10 15  1  0  0  0
M  CHG  1   2  -1
M  END
> <s_m_source_file>
../4e3g_ligand.sdf

> <i_m_source_file_index>
1

> <s_epik_input>
W09IXUMoPU8pYzFbY0hdW2NIXWMoW09IXSlbY0hdW2NIXTE=

> <s_epik_cmdline>
J2VwaWtfYXBwJywgJy1pbWFlJywgJ2xpZ2FuZF9wcm8ubWFlJywgJy1vbWFlJywgJ2xpZ2FuZF9wcmVwLm1hZScsICctbXMnLCAnMScsICctcGgnLCAnNycsICctcGh0JywgJzAuNScsICctbnQn

> <r_lp_tautomer_probability>
1

> <r_epik_Ionization_Penalty>
  0.0029

> <r_epik_Ionization_Penalty_Charging>
  0.0020

> <r_epik_Ionization_Penalty_Neutral>
  0.0009

> <r_epik_State_Penalty>
 -0.0000

> <r_epik_Charging_Adjusted_Penalty>
0.00195866367851461

> <i_epik_Tot_Q>
-1

> <i_epik_Tot_abs_Q>
1

$$$$
