4e3h_ligand
                    3D
 Schrodinger Suite 2020-3.
 14 14  0  0  1  0            999 V2000
   14.6240    4.4170   17.5990 C   0  0  0  0  0  0
   14.8040    3.1160   18.1840 C   0  0  0  0  0  0
   15.3400    2.1050   17.3950 C   0  0  0  0  0  0
   15.4900    0.8050   17.9200 O   0  0  0  0  0  0
   15.6690    2.3990   16.0370 C   0  0  0  0  0  0
   15.5180    3.6700   15.4700 C   0  0  0  0  0  0
   15.0070    4.6970   16.2810 C   0  0  0  0  0  0
   14.8730    6.0060   15.7680 O   0  0  0  0  0  0
   14.1761    5.2091   18.1990 H   0  0  0  0  0  0
   14.5268    2.9271   19.2211 H   0  0  0  0  0  0
   15.2300    0.6023   18.9694 H   0  0  0  0  0  0
   16.0565    1.5948   15.4115 H   0  0  0  0  0  0
   15.7887    3.8571   14.4309 H   0  0  0  0  0  0
   14.4726    6.8082   16.4053 H   0  0  0  0  0  0
  1  2  2  0  0  0
  1  7  1  0  0  0
  1  9  1  0  0  0
  2  3  1  0  0  0
  2 10  1  0  0  0
  3  4  1  0  0  0
  3  5  2  0  0  0
  4 11  1  0  0  0
  5  6  1  0  0  0
  5 12  1  0  0  0
  6  7  2  0  0  0
  6 13  1  0  0  0
  7  8  1  0  0  0
  8 14  1  0  0  0
M  END
> <s_m_source_file>
../4e3h_ligand.sdf

> <i_m_source_file_index>
1

> <s_epik_input>
W2NIXTFbY0hdYyhbT0hdKVtjSF1bY0hdYzFbT0hd

> <s_epik_cmdline>
J2VwaWtfYXBwJywgJy1pbWFlJywgJ2xpZ2FuZF9wcm8ubWFlJywgJy1vbWFlJywgJ2xpZ2FuZF9wcmVwLm1hZScsICctbXMnLCAnMScsICctcGgnLCAnNycsICctcGh0JywgJzAuNScsICctbnQn

> <r_lp_tautomer_probability>
1

> <r_epik_Ionization_Penalty>
  0.0007

> <r_epik_Ionization_Penalty_Charging>
  0.0000

> <r_epik_Ionization_Penalty_Neutral>
  0.0007

> <r_epik_State_Penalty>
 -0.0000

> <r_epik_Charging_Adjusted_Penalty>
0

> <i_epik_Tot_Q>
0

> <i_epik_Tot_abs_Q>
0

$$$$
