4e3i_ligand
                    3D
 Schrodinger Suite 2020-3.
 29 29  0  0  1  0            999 V2000
   26.3100    4.9640   16.2970 B   0  0  0  0  0  0
   25.3410    4.0700   16.9300 O   0  0  0  0  0  0
   26.5000    6.0890   17.2250 O   0  0  0  0  0  0
   25.7200    5.4320   14.9170 C   0  0  0  0  0  0
   24.2580    5.5550   14.8780 N   0  0  3  0  0  0
   23.4720    6.0060   13.5450 S   0  0  0  0  0  0
   24.0950    7.1940   13.0020 O   0  0  0  0  0  0
   22.1280    6.3050   13.8760 O   0  0  0  0  0  0
   23.5280    4.7580   12.3710 C   0  0  0  0  0  0
   22.7380    4.9900   11.1100 C   0  0  0  0  0  0
   23.2060    5.8990   10.1580 C   0  0  0  0  0  0
   22.4530    6.0820    8.9920 C   0  0  0  0  0  0
   21.2670    5.3920    8.7560 C   0  0  0  0  0  0
   20.8390    4.5030    9.7250 C   0  0  0  0  0  0
   19.5560    3.7030    9.5130 C   0  0  0  0  0  0
   19.0990    3.0300   10.4600 O   0  0  0  0  0  0
   18.9940    3.7040    8.3850 O   0  5  0  0  0  0
   21.5720    4.3010   10.8820 C   0  0  0  0  0  0
   25.5612    3.6273   17.9126 H   0  0  0  0  0  0
   26.9069    5.9094   18.2311 H   0  0  0  0  0  0
   26.1266    6.4215   14.6610 H   0  0  0  0  0  0
   25.9965    4.7087   14.1357 H   0  0  0  0  0  0
   23.6521    5.1823   15.7170 H   0  0  0  0  0  0
   24.5688    4.6023   12.0507 H   0  0  0  0  0  0
   23.1352    3.8272   12.8062 H   0  0  0  0  0  0
   24.1322    6.4508   10.3186 H   0  0  0  0  0  0
   22.8077    6.7896    8.2426 H   0  0  0  0  0  0
   20.6963    5.5469    7.8404 H   0  0  0  0  0  0
   21.2184    3.5843   11.6232 H   0  0  0  0  0  0
  1  2  1  0  0  0
  1  3  1  0  0  0
  1  4  1  0  0  0
  2 19  1  0  0  0
  3 20  1  0  0  0
  4  5  1  0  0  0
  4 21  1  0  0  0
  4 22  1  0  0  0
  5  6  1  0  0  0
  5 23  1  0  0  0
  6  7  2  0  0  0
  6  8  2  0  0  0
  6  9  1  0  0  0
  9 10  1  0  0  0
  9 24  1  0  0  0
  9 25  1  0  0  0
 10 11  2  0  0  0
 10 18  1  0  0  0
 11 12  1  0  0  0
 11 26  1  0  0  0
 12 13  2  0  0  0
 12 27  1  0  0  0
 13 14  1  0  0  0
 13 28  1  0  0  0
 14 15  1  0  0  0
 14 18  2  0  0  0
 15 16  2  0  0  0
 15 17  1  0  0  0
 18 29  1  0  0  0
M  CHG  1  17  -1
M  END
> <s_m_source_file>
../4e3i_ligand.sdf

> <i_m_source_file_index>
1

> <s_epik_input>
W09IXUIoW09IXSlbQ0gyXVtOSF1TKD1PKSg9TylbQ0gyXWMxW2NIXVtjSF1bY0hdYyhbY0hdMSlDKD1PKVtPSF0=

> <s_epik_cmdline>
J2VwaWtfYXBwJywgJy1pbWFlJywgJ2xpZ2FuZF9wcm8ubWFlJywgJy1vbWFlJywgJ2xpZ2FuZF9wcmVwLm1hZScsICctbXMnLCAnMScsICctcGgnLCAnNycsICctcGh0JywgJzAuNScsICctbnQn

> <r_lp_tautomer_probability>
1

> <r_epik_Ionization_Penalty>
  0.0007

> <r_epik_Ionization_Penalty_Charging>
  0.0006

> <r_epik_Ionization_Penalty_Neutral>
  0.0001

> <r_epik_State_Penalty>
 -0.0000

> <r_epik_Charging_Adjusted_Penalty>
0.000626711455634909

> <i_epik_Tot_Q>
-1

> <i_epik_Tot_abs_Q>
1

> <s_epik_Chemistry_Notes>
This compound contains a Lewis acid (boronic acid) which adds nucleophiles to form tetrahedral complexes, lowering the experimental pKa

$$$$
