4e3j_ligand
                    3D
 Schrodinger Suite 2020-3.
 30 31  0  0  1  0            999 V2000
   26.0310    5.0940   16.2120 B   0  0  0  0  0  0
   26.1850    5.9040   17.4140 O   0  0  0  0  0  0
   24.9950    4.0830   16.4540 O   0  0  0  0  0  0
   25.7080    6.0270   14.9760 C   0  0  0  0  0  0
   24.5610    6.9110   15.1320 N   0  0  3  0  0  0
   23.9410    7.7430   13.9000 S   0  0  0  0  0  0
   23.0800    8.7320   14.4500 O   0  0  0  0  0  0
   24.9260    8.4090   13.1270 O   0  0  0  0  0  0
   22.9660    6.7580   12.8230 C   0  0  0  0  0  0
   23.4480    6.3290   11.5750 C   0  0  0  0  0  0
   22.6160    5.5650   10.7060 C   0  0  0  0  0  0
   21.3230    5.2330   11.1020 C   0  0  0  0  0  0
   20.5090    4.5020   10.2580 C   0  0  0  0  0  0
   20.6800    4.3510    8.8920 N   0  0  0  0  0  0
   19.6490    3.6200    8.4430 N   0  3  0  0  0  0
   18.8280    3.3160    9.5500 N   0  0  0  0  0  0
   19.3910    3.8690   10.6450 N   0  3  0  0  0  0
   20.8240    5.6810   12.3430 C   0  0  0  0  0  0
   21.6470    6.4470   13.1990 C   0  0  0  0  0  0
   26.4136    5.4224   18.3762 H   0  0  0  0  0  0
   25.1037    3.3725   17.2866 H   0  0  0  0  0  0
   26.5716    6.6771   14.7718 H   0  0  0  0  0  0
   25.4995    5.4059   14.0924 H   0  0  0  0  0  0
   23.9860    6.9057   16.0697 H   0  0  0  0  0  0
   24.4634    6.5818   11.2699 H   0  0  0  0  0  0
   22.9905    5.2417    9.7348 H   0  0  0  0  0  0
   19.8045    5.4365   12.6414 H   0  0  0  0  0  0
   21.2579    6.7983   14.1547 H   0  0  0  0  0  0
   19.5822    3.3937    7.4712 H   0  0  0  0  0  0
   18.9145    3.7480   11.6290 H   0  0  0  0  0  0
  1  2  1  0  0  0
  1  3  1  0  0  0
  1  4  1  0  0  0
  2 20  1  0  0  0
  3 21  1  0  0  0
  4  5  1  0  0  0
  4 22  1  0  0  0
  4 23  1  0  0  0
  5  6  1  0  0  0
  5 24  1  0  0  0
  6  7  2  0  0  0
  6  8  2  0  0  0
  6  9  1  0  0  0
  9 10  2  0  0  0
  9 19  1  0  0  0
 10 11  1  0  0  0
 10 25  1  0  0  0
 11 12  2  0  0  0
 11 26  1  0  0  0
 12 13  1  0  0  0
 12 18  1  0  0  0
 13 14  2  0  0  0
 13 17  1  0  0  0
 14 15  1  0  0  0
 15 16  1  0  0  0
 15 29  1  0  0  0
 16 17  2  0  0  0
 17 30  1  0  0  0
 18 19  2  0  0  0
 18 27  1  0  0  0
 19 28  1  0  0  0
M  CHG  2  15   1  17   1
M  END
> <s_m_source_file>
../4e3j_ligand.sdf

> <i_m_source_file_index>
1

> <s_epik_input>
W09IXUIoW09IXSlbQ0gyXVtOSF1TKD1PKSg9TyljMVtjSF1bY0hdYyhbY0hdW2NIXTEpLWMybltuSF1ubjI=

> <s_epik_cmdline>
J2VwaWtfYXBwJywgJy1pbWFlJywgJ2xpZ2FuZF9wcm8ubWFlJywgJy1vbWFlJywgJ2xpZ2FuZF9wcmVwLm1hZScsICctbXMnLCAnMScsICctcGgnLCAnNycsICctcGh0JywgJzAuNScsICctbnQn

> <r_epik_Ionization_Penalty>
 10.5112

> <r_epik_Ionization_Penalty_Charging>
 10.5111

> <r_epik_Ionization_Penalty_Neutral>
  0.0001

> <r_epik_State_Penalty>
  0.0112

> <r_epik_Charging_Adjusted_Penalty>
10.5223709335897

> <i_epik_Tot_Q>
2

> <i_epik_Tot_abs_Q>
2

> <s_epik_Chemistry_Notes>
This compound has an imine and may undergo hydrolysis. This compound contains a Lewis acid (boronic acid) which adds nucleophiles to form tetrahedral complexes, lowering the experimental pKa

$$$$
