4e3k_ligand
                    3D
 Schrodinger Suite 2020-3.
 29 30  0  0  1  0            999 V2000
   26.5540    4.7160   16.2300 B   0  0  0  0  0  0
   26.7600    5.5300   17.4320 O   0  0  0  0  0  0
   25.5060    3.7350   16.5030 O   0  0  0  0  0  0
   26.1530    5.6210   15.0050 C   0  0  0  0  0  0
   24.9120    6.3570   15.1640 N   0  0  3  0  0  0
   24.3360    7.2720   13.9560 S   0  0  0  0  0  0
   23.4190    8.2390   14.5170 O   0  0  0  0  0  0
   25.3610    7.9820   13.2630 O   0  0  0  0  0  0
   23.4490    6.3050   12.8050 C   0  0  0  0  0  0
   23.9530    5.9910   11.5520 C   0  0  0  0  0  0
   23.1530    5.2290   10.7060 C   0  0  0  0  0  0
   21.8940    4.8210   11.1370 C   0  0  0  0  0  0
   21.0500    4.0940   10.3190 C   0  0  0  0  0  0
   21.1330    3.9260    8.9840 N   0  0  0  0  0  0
   20.0620    3.1690    8.6080 N   0  3  0  0  0  0
   19.3110    2.9080    9.7210 N   0  0  0  0  0  0
   19.9200    3.5240   10.7610 N   0  3  0  0  0  0
   21.4280    5.1700   12.3510 N   0  0  0  0  0  0
   22.1880    5.8910   13.1740 C   0  0  0  0  0  0
   27.0459    5.0495   18.3793 H   0  0  0  0  0  0
   25.6243    3.0195   17.3301 H   0  0  0  0  0  0
   26.9408    6.3679   14.8275 H   0  0  0  0  0  0
   26.0339    4.9938   14.1092 H   0  0  0  0  0  0
   24.2710    6.1719   16.0386 H   0  0  0  0  0  0
   24.9413    6.3292   11.2406 H   0  0  0  0  0  0
   23.5096    4.9537    9.7134 H   0  0  0  0  0  0
   21.8046    6.1586   14.1586 H   0  0  0  0  0  0
   19.9464    2.9074    7.6498 H   0  0  0  0  0  0
   19.4646    3.4930   11.7618 H   0  0  0  0  0  0
  1  2  1  0  0  0
  1  3  1  0  0  0
  1  4  1  0  0  0
  2 20  1  0  0  0
  3 21  1  0  0  0
  4  5  1  0  0  0
  4 22  1  0  0  0
  4 23  1  0  0  0
  5  6  1  0  0  0
  5 24  1  0  0  0
  6  7  2  0  0  0
  6  8  2  0  0  0
  6  9  1  0  0  0
  9 10  2  0  0  0
  9 19  1  0  0  0
 10 11  1  0  0  0
 10 25  1  0  0  0
 11 12  2  0  0  0
 11 26  1  0  0  0
 12 13  1  0  0  0
 12 18  1  0  0  0
 13 14  2  0  0  0
 13 17  1  0  0  0
 14 15  1  0  0  0
 15 16  1  0  0  0
 15 28  1  0  0  0
 16 17  2  0  0  0
 17 29  1  0  0  0
 18 19  2  0  0  0
 19 27  1  0  0  0
M  CHG  2  15   1  17   1
M  END
> <s_m_source_file>
../4e3k_ligand.sdf

> <i_m_source_file_index>
1

> <s_epik_input>
W09IXUIoW09IXSlbQ0gyXVtOSF1TKD1PKSg9TyljMVtjSF1bY0hdYyhuW2NIXTEpLWMybltuSF1ubjI=

> <s_epik_cmdline>
J2VwaWtfYXBwJywgJy1pbWFlJywgJ2xpZ2FuZF9wcm8ubWFlJywgJy1vbWFlJywgJ2xpZ2FuZF9wcmVwLm1hZScsICctbXMnLCAnMScsICctcGgnLCAnNycsICctcGh0JywgJzAuNScsICctbnQn

> <r_epik_Ionization_Penalty>
 13.3950

> <r_epik_Ionization_Penalty_Charging>
 13.1754

> <r_epik_Ionization_Penalty_Neutral>
  0.2196

> <r_epik_State_Penalty>
  0.0112

> <r_epik_Charging_Adjusted_Penalty>
13.1866838808088

> <i_epik_Tot_Q>
2

> <i_epik_Tot_abs_Q>
2

> <s_epik_Chemistry_Notes>
This compound has an imine and may undergo hydrolysis. This compound contains a Lewis acid (boronic acid) which adds nucleophiles to form tetrahedral complexes, lowering the experimental pKa

$$$$
