4e4a_ligand
                    3D
 Schrodinger Suite 2020-3.
 15 15  0  0  1  0            999 V2000
   15.0270    4.4040   14.0040 S   0  0  0  0  0  0
   16.7260    2.3700   15.2740 C   0  0  0  0  0  0
   17.4480    3.4770   14.5920 C   0  0  0  0  0  0
   17.4330    5.4910   13.3220 C   0  0  0  0  0  0
   15.4710    2.1550   15.1570 O   0  5  0  0  0  0
   19.4930    4.6050   13.9610 C   0  0  0  0  0  0
   17.4000    1.7780   16.0980 O   0  0  0  0  0  0
   16.7520    4.4780   13.9840 C   0  0  0  0  0  0
   18.8470    3.5410   14.6110 C   0  0  0  0  0  0
   18.7810    5.5910   13.3150 C   0  0  0  0  0  0
   14.5176    3.5882   14.5378 H   0  0  0  0  0  0
   16.8536    6.2405   12.7829 H   0  0  0  0  0  0
   20.5820    4.6515   13.9679 H   0  0  0  0  0  0
   19.4273    2.7742   15.1241 H   0  0  0  0  0  0
   19.2848    6.4197   12.8175 H   0  0  0  0  0  0
  1  8  1  0  0  0
  1 11  1  0  0  0
  2  3  1  0  0  0
  2  5  1  0  0  0
  2  7  2  0  0  0
  3  8  2  0  0  0
  3  9  1  0  0  0
  4  8  1  0  0  0
  4 10  2  0  0  0
  4 12  1  0  0  0
  6  9  2  0  0  0
  6 10  1  0  0  0
  6 13  1  0  0  0
  9 14  1  0  0  0
 10 15  1  0  0  0
M  CHG  1   5  -1
M  END
> <s_m_source_file>
../4e4a_ligand.sdf

> <i_m_source_file_index>
1

> <s_epik_input>
W09IXUMoPU8pYzFjKFtTSF0pW2NIXVtjSF1bY0hdW2NIXTE=

> <s_epik_cmdline>
J2VwaWtfYXBwJywgJy1pbWFlJywgJ2xpZ2FuZF9wcm8ubWFlJywgJy1vbWFlJywgJ2xpZ2FuZF9wcmVwLm1hZScsICctbXMnLCAnMScsICctcGgnLCAnNycsICctcGh0JywgJzAuNScsICctbnQn

> <r_lp_tautomer_probability>
1

> <r_epik_Ionization_Penalty>
  0.0143

> <r_epik_Ionization_Penalty_Charging>
  0.0003

> <r_epik_Ionization_Penalty_Neutral>
  0.0140

> <r_epik_State_Penalty>
 -0.0000

> <r_epik_Charging_Adjusted_Penalty>
0.000264594580093997

> <i_epik_Tot_Q>
-1

> <i_epik_Tot_abs_Q>
1

$$$$
