4e4l_ligand
                    3D
 Schrodinger Suite 2020-3.
 41 44  0  0  1  0            999 V2000
  -14.7900   29.4150   -2.9370 C   0  0  0  0  0  0
  -14.4500   29.8380   -1.4630 C   0  0  0  0  0  0
  -13.3210   30.8720   -1.4940 C   0  0  0  0  0  0
  -13.7340   32.2480   -2.0370 C   0  0  0  0  0  0
  -15.0920   32.6590   -1.6540 N   0  0  3  0  0  0
  -16.1700   31.6770   -1.3680 C   0  0  0  0  0  0
  -15.6690   30.3740   -0.7370 C   0  0  0  0  0  0
  -15.4580   34.2610   -1.7090 S   0  0  0  0  0  0
  -16.4580   34.5080   -0.7220 O   0  0  0  0  0  0
  -14.2310   34.9970   -1.6310 O   0  0  0  0  0  0
  -16.1520   34.5190   -3.3760 C   0  0  0  0  0  0
  -13.9060   28.6540   -0.7500 N   0  0  0  0  0  0
  -12.6240   28.5700   -0.2450 C   0  0  0  0  0  0
  -12.4460   27.3780    0.2460 N   0  0  0  0  0  0
  -13.5620   26.6170    0.0930 C   0  0  0  0  0  0
  -14.5110   27.4270   -0.5570 C   0  0  0  0  0  0
  -15.7690   26.8570   -0.8470 C   0  0  0  0  0  0
  -17.0070   27.3460   -1.4840 C   0  0  0  0  0  0
  -17.8560   26.3220   -1.4920 C   0  0  0  0  0  0
  -17.2670   25.2280   -0.9140 N   0  0  0  0  0  0
  -16.0040   25.5160   -0.4990 C   0  0  0  0  0  0
  -15.0720   24.7740    0.1140 N   0  0  0  0  0  0
  -13.8910   25.3000    0.4320 C   0  0  0  0  0  0
  -15.1951   30.2801   -3.4825 H   0  0  0  0  0  0
  -15.5368   28.6074   -2.9237 H   0  0  0  0  0  0
  -13.8763   29.0613   -3.4370 H   0  0  0  0  0  0
  -12.9413   31.0310   -0.4739 H   0  0  0  0  0  0
  -12.5060   30.5059   -2.1357 H   0  0  0  0  0  0
  -13.0434   33.0148   -1.6562 H   0  0  0  0  0  0
  -13.6969   32.2346   -3.1363 H   0  0  0  0  0  0
  -16.8941   32.1207   -0.6688 H   0  0  0  0  0  0
  -16.6811   31.4103   -2.3048 H   0  0  0  0  0  0
  -16.4790   29.6311   -0.7825 H   0  0  0  0  0  0
  -15.4121   30.5723    0.3140 H   0  0  0  0  0  0
  -17.0979   33.9653   -3.4691 H   0  0  0  0  0  0
  -15.4387   34.1557   -4.1304 H   0  0  0  0  0  0
  -16.3379   35.5916   -3.5338 H   0  0  0  0  0  0
  -11.8834   29.3697   -0.2557 H   0  0  0  0  0  0
  -17.0703   28.3860   -1.8368 H   0  0  0  0  0  0
  -18.8675   26.3490   -1.8972 H   0  0  0  0  0  0
  -13.1479   24.6963    0.9736 H   0  0  0  0  0  0
  1  2  1  0  0  0
  1 24  1  0  0  0
  1 25  1  0  0  0
  1 26  1  0  0  0
  2  3  1  0  0  0
  2  7  1  0  0  0
  2 12  1  0  0  0
  3  4  1  0  0  0
  3 27  1  0  0  0
  3 28  1  0  0  0
  4  5  1  0  0  0
  4 29  1  0  0  0
  4 30  1  0  0  0
  5  6  1  0  0  0
  5  8  1  0  0  0
  6  7  1  0  0  0
  6 31  1  0  0  0
  6 32  1  0  0  0
  7 33  1  0  0  0
  7 34  1  0  0  0
  8  9  2  0  0  0
  8 10  2  0  0  0
  8 11  1  0  0  0
 11 35  1  0  0  0
 11 36  1  0  0  0
 11 37  1  0  0  0
 12 13  1  0  0  0
 12 16  1  0  0  0
 13 14  2  0  0  0
 13 38  1  0  0  0
 14 15  1  0  0  0
 15 16  2  0  0  0
 15 23  1  0  0  0
 16 17  1  0  0  0
 17 18  2  0  0  0
 17 21  1  0  0  0
 18 19  1  0  0  0
 18 39  1  0  0  0
 19 20  1  0  0  0
 19 40  1  0  0  0
 20 21  2  0  0  0
 21 22  1  0  0  0
 22 23  2  0  0  0
 23 41  1  0  0  0
M  END
> <s_m_source_file>
../4e4l_ligand.sdf

> <i_m_source_file_index>
1

> <s_epik_input>
W0NIMl0xW0NIMl1OKFMoPU8pKD1PKVtDSDNdKVtDSDJdW0NIMl1DMShbQ0gzXSluKFtjSF1uMiljKGMyMyljPTRjKG5bY0hdMyk9TltDSDJdW0NIXTQ=

> <s_epik_cmdline>
J2VwaWtfYXBwJywgJy1pbWFlJywgJ2xpZ2FuZF9wcm8ubWFlJywgJy1vbWFlJywgJ2xpZ2FuZF9wcmVwLm1hZScsICctbXMnLCAnMScsICctcGgnLCAnNycsICctcGh0JywgJzAuNScsICctbnQn

> <r_lp_tautomer_probability>
1

> <r_epik_Ionization_Penalty>
  0.0112

> <r_epik_Ionization_Penalty_Charging>
  0.0000

> <r_epik_Ionization_Penalty_Neutral>
  0.0112

> <r_epik_State_Penalty>
 -0.0000

> <r_epik_Charging_Adjusted_Penalty>
1.23450199898373e-05

> <i_epik_Tot_Q>
0

> <i_epik_Tot_abs_Q>
0

> <s_epik_Chemistry_Notes>
This compound has an imine and may undergo hydrolysis.

$$$$
