4e4n_ligand
                    3D
 Schrodinger Suite 2020-3.
 47 50  0  0  1  0            999 V2000
    3.8640   49.8290   -0.5440 C   0  0  0  0  0  0
    4.0870   49.7010    0.9560 C   0  0  0  0  0  0
    2.7790   49.1970    1.5660 C   0  0  0  0  0  0
    5.2050   48.7000    1.2780 C   0  0  0  0  0  0
    4.3510   51.0220    1.5170 O   0  0  0  0  0  0
    5.4870   51.7330    1.3720 C   0  0  0  0  0  0
    6.3550   51.4420    0.5600 O   0  0  0  0  0  0
    5.6140   52.8240    2.1640 N   0  0  0  0  0  0
    6.8280   53.6530    2.1250 C   0  0  2  0  0  0
    6.7780   54.5890    3.3560 C   0  0  0  0  0  0
    7.0860   55.9980    2.8010 C   0  0  0  0  0  0
    6.6160   55.9510    1.3280 C   0  0  2  0  0  0
    6.9670   54.5290    0.8590 C   0  0  0  0  0  0
    7.3400   57.0570    0.6780 N   0  0  0  0  0  0
    8.5820   57.0540    0.0880 C   0  0  0  0  0  0
    8.8670   58.2640   -0.3340 N   0  0  0  0  0  0
    7.8440   59.1030   -0.0240 C   0  0  0  0  0  0
    6.8570   58.3330    0.6360 C   0  0  0  0  0  0
    5.6730   58.9630    1.0720 C   0  0  0  0  0  0
    4.4520   58.5190    1.7730 C   0  0  0  0  0  0
    3.6790   59.6060    1.8970 C   0  0  0  0  0  0
    4.3060   60.7040    1.3450 N   0  0  0  0  0  0
    5.5220   60.3420    0.8250 C   0  0  0  0  0  0
    6.4920   61.0380    0.2030 N   0  0  0  0  0  0
    7.6060   60.4750   -0.2120 C   0  0  0  0  0  0
    3.6646   48.8351   -0.9712 H   0  0  0  0  0  0
    4.7626   50.2562   -1.0131 H   0  0  0  0  0  0
    3.0037   50.4882   -0.7318 H   0  0  0  0  0  0
    2.5475   48.1995    1.1643 H   0  0  0  0  0  0
    1.9648   49.8921    1.3132 H   0  0  0  0  0  0
    2.8836   49.1368    2.6594 H   0  0  0  0  0  0
    4.9610   47.7230    0.8354 H   0  0  0  0  0  0
    5.3001   48.5950    2.3688 H   0  0  0  0  0  0
    6.1551   49.0647    0.8605 H   0  0  0  0  0  0
    4.7904   53.0864    2.8443 H   0  0  0  0  0  0
    7.6563   52.9292    2.1221 H   0  0  0  0  0  0
    5.7780   54.5422    3.8118 H   0  0  0  0  0  0
    7.5313   54.2689    4.0909 H   0  0  0  0  0  0
    6.5328   56.7501    3.3826 H   0  0  0  0  0  0
    8.1654   56.1951    2.8794 H   0  0  0  0  0  0
    5.5589   56.1351    1.0858 H   0  0  0  0  0  0
    7.9982   54.4663    0.4811 H   0  0  0  0  0  0
    6.2710   54.1701    0.0865 H   0  0  0  0  0  0
    9.2291   56.1827   -0.0135 H   0  0  0  0  0  0
    4.3419   57.4664    2.0729 H   0  0  0  0  0  0
    2.6955   59.6209    2.3667 H   0  0  0  0  0  0
    8.3731   61.0802   -0.7172 H   0  0  0  0  0  0
  1  2  1  0  0  0
  1 26  1  0  0  0
  1 27  1  0  0  0
  1 28  1  0  0  0
  2  3  1  0  0  0
  2  4  1  0  0  0
  2  5  1  0  0  0
  3 29  1  0  0  0
  3 30  1  0  0  0
  3 31  1  0  0  0
  4 32  1  0  0  0
  4 33  1  0  0  0
  4 34  1  0  0  0
  5  6  1  0  0  0
  6  7  2  0  0  0
  6  8  1  0  0  0
  8  9  1  0  0  0
  8 35  1  0  0  0
  9 10  1  0  0  0
  9 13  1  0  0  0
  9 36  1  0  0  0
 10 11  1  0  0  0
 10 37  1  0  0  0
 10 38  1  0  0  0
 11 12  1  0  0  0
 11 39  1  0  0  0
 11 40  1  0  0  0
 12 13  1  0  0  0
 12 14  1  0  0  0
 12 41  1  0  0  0
 13 42  1  0  0  0
 13 43  1  0  0  0
 14 15  1  0  0  0
 14 18  1  0  0  0
 15 16  2  0  0  0
 15 44  1  0  0  0
 16 17  1  0  0  0
 17 18  2  0  0  0
 17 25  1  0  0  0
 18 19  1  0  0  0
 19 20  2  0  0  0
 19 23  1  0  0  0
 20 21  1  0  0  0
 20 45  1  0  0  0
 21 22  1  0  0  0
 21 46  1  0  0  0
 22 23  2  0  0  0
 23 24  1  0  0  0
 24 25  2  0  0  0
 25 47  1  0  0  0
M  END
> <s_m_source_file>
../4e4n_ligand.sdf

> <i_m_source_file_index>
1

> <s_epik_input>
W0NIM11DKFtDSDNdKShbQ0gzXSlPQyg9TylbTkhdW0NAQEhdMVtDSDJdW0NIMl1bQ0BIXShbQ0gyXTEpbihbY0hdbjIpYyhjMjMpYz00YyhuW2NIXTMpPU5bQ0gyXVtDSF00

> <s_epik_cmdline>
J2VwaWtfYXBwJywgJy1pbWFlJywgJ2xpZ2FuZF9wcm8ubWFlJywgJy1vbWFlJywgJ2xpZ2FuZF9wcmVwLm1hZScsICctbXMnLCAnMScsICctcGgnLCAnNycsICctcGh0JywgJzAuNScsICctbnQn

> <r_lp_tautomer_probability>
1

> <r_epik_Ionization_Penalty>
  0.0112

> <r_epik_Ionization_Penalty_Charging>
  0.0000

> <r_epik_Ionization_Penalty_Neutral>
  0.0112

> <r_epik_State_Penalty>
 -0.0000

> <r_epik_Charging_Adjusted_Penalty>
7.52214725721877e-06

> <i_epik_Tot_Q>
0

> <i_epik_Tot_abs_Q>
0

> <s_epik_Chemistry_Notes>
This compound has an ester and may undergo hydrolysis at high or low pH. This compound has an imine and may undergo hydrolysis.

$$$$
