4e4x_ligand
                    3D
 Schrodinger Suite 2020-3.
 55 57  0  0  1  0            999 V2000
   19.2610  -25.1770   -1.6080 N   0  0  0  0  0  0
   18.6650  -23.9740   -1.6470 C   0  0  0  0  0  0
   17.3620  -23.7350   -1.8970 N   0  0  0  0  0  0
   16.5700  -24.8030   -2.1240 C   0  0  0  0  0  0
   17.1170  -26.0880   -2.1010 C   0  0  0  0  0  0
   18.4890  -26.2520   -1.8320 C   0  0  0  0  0  0
   15.1670  -24.6770   -2.4030 N   0  0  0  0  0  0
   14.3290  -25.7420   -2.6450 C   0  0  0  0  0  0
   14.8850  -27.0450   -2.6190 C   0  0  0  0  0  0
   16.2570  -27.2330   -2.3510 C   0  0  0  0  0  0
   14.6090  -23.3150   -2.4250 C   0  0  0  0  0  0
   13.1320  -25.5660   -2.8790 O   0  0  0  0  0  0
   14.0370  -28.2120   -2.8720 C   0  0  0  0  0  0
   13.6360  -28.5170   -4.1810 C   0  0  0  0  0  0
   12.8300  -29.6410   -4.4340 C   0  0  0  0  0  0
   12.4210  -30.4630   -3.3670 C   0  0  0  0  0  0
   12.8170  -30.1580   -2.0530 C   0  0  0  0  0  0
   13.6260  -29.0330   -1.8080 C   0  0  0  0  0  0
   14.0100  -28.7400   -0.5440 F   0  0  0  0  0  0
   14.0290  -27.7280   -5.2060 F   0  0  0  0  0  0
   12.4530  -29.9340   -5.6980 N   0  0  0  0  0  0
   19.4610  -22.8870   -1.4190 N   0  0  0  0  0  0
   11.5470  -31.1830   -6.1770 S   0  0  0  0  0  0
   12.7350  -32.5770   -5.9850 C   0  0  0  0  0  0
   10.4400  -31.4630   -5.2510 O   0  0  0  0  0  0
   11.2220  -31.1270   -7.6090 O   0  0  0  0  0  0
   13.5690  -32.8040   -7.2490 C   0  0  0  0  0  0
   14.5930  -33.9330   -7.0960 C   0  0  0  0  0  0
   19.0530  -21.4890   -1.4110 C   0  0  0  0  0  0
   18.2210  -21.1260   -2.6550 C   0  0  0  0  0  0
   17.9450  -19.6160   -2.7790 C   0  0  0  0  0  0
   16.7840  -19.3940   -3.5530 O   0  0  0  0  0  0
   18.9241  -27.2511   -1.8056 H   0  0  0  0  0  0
   16.6737  -28.2400   -2.3313 H   0  0  0  0  0  0
   15.4073  -22.5883   -2.2138 H   0  0  0  0  0  0
   13.8227  -23.2285   -1.6606 H   0  0  0  0  0  0
   14.1800  -23.1105   -3.4170 H   0  0  0  0  0  0
   11.7973  -31.3359   -3.5595 H   0  0  0  0  0  0
   12.4980  -30.7918   -1.2256 H   0  0  0  0  0  0
   12.8309  -29.2130   -6.4378 H   0  0  0  0  0  0
   20.5105  -23.1548   -1.2270 H   0  0  0  0  0  0
   13.4239  -32.3600   -5.1554 H   0  0  0  0  0  0
   12.1819  -33.5031   -5.7696 H   0  0  0  0  0  0
   12.9039  -33.0673   -8.0847 H   0  0  0  0  0  0
   14.1201  -31.8843   -7.4948 H   0  0  0  0  0  0
   15.1574  -34.0457   -8.0335 H   0  0  0  0  0  0
   14.0704  -34.8735   -6.8673 H   0  0  0  0  0  0
   15.2865  -33.6905   -6.2774 H   0  0  0  0  0  0
   18.4419  -21.2905   -0.5182 H   0  0  0  0  0  0
   19.9457  -20.8466   -1.3945 H   0  0  0  0  0  0
   18.7593  -21.4413   -3.5609 H   0  0  0  0  0  0
   17.2491  -21.6392   -2.6087 H   0  0  0  0  0  0
   17.7972  -19.1868   -1.7770 H   0  0  0  0  0  0
   18.8011  -19.1255   -3.2653 H   0  0  0  0  0  0
   16.4383  -18.3673   -3.7439 H   0  0  0  0  0  0
  1  2  1  0  0  0
  1  6  2  0  0  0
  2  3  2  0  0  0
  2 22  1  0  0  0
  3  4  1  0  0  0
  4  5  2  0  0  0
  4  7  1  0  0  0
  5  6  1  0  0  0
  5 10  1  0  0  0
  6 33  1  0  0  0
  7  8  1  0  0  0
  7 11  1  0  0  0
  8  9  1  0  0  0
  8 12  2  0  0  0
  9 10  2  0  0  0
  9 13  1  0  0  0
 10 34  1  0  0  0
 11 35  1  0  0  0
 11 36  1  0  0  0
 11 37  1  0  0  0
 13 14  2  0  0  0
 13 18  1  0  0  0
 14 15  1  0  0  0
 14 20  1  0  0  0
 15 16  2  0  0  0
 15 21  1  0  0  0
 16 17  1  0  0  0
 16 38  1  0  0  0
 17 18  2  0  0  0
 17 39  1  0  0  0
 18 19  1  0  0  0
 21 23  1  0  0  0
 21 40  1  0  0  0
 22 29  1  0  0  0
 22 41  1  0  0  0
 23 24  1  0  0  0
 23 25  2  0  0  0
 23 26  2  0  0  0
 24 27  1  0  0  0
 24 42  1  0  0  0
 24 43  1  0  0  0
 27 28  1  0  0  0
 27 44  1  0  0  0
 27 45  1  0  0  0
 28 46  1  0  0  0
 28 47  1  0  0  0
 28 48  1  0  0  0
 29 30  1  0  0  0
 29 49  1  0  0  0
 29 50  1  0  0  0
 30 31  1  0  0  0
 30 51  1  0  0  0
 30 52  1  0  0  0
 31 32  1  0  0  0
 31 53  1  0  0  0
 31 54  1  0  0  0
 32 55  1  0  0  0
M  END
> <s_m_source_file>
../4e4x_ligand.sdf

> <i_m_source_file_index>
1

> <s_epik_input>
W09IXVtDSDJdW0NIMl1bQ0gyXVtOSF1jKG4xKW5bY0hdYyhjMTIpW2NIXWMoYyg9TyluMltDSDNdKS1jM2MoRiljKFtjSF1bY0hdYzNGKVtOSF1TKD1PKSg9TylbQ0gyXVtDSDJdW0NIM10=

> <s_epik_cmdline>
J2VwaWtfYXBwJywgJy1pbWFlJywgJ2xpZ2FuZF9wcm8ubWFlJywgJy1vbWFlJywgJ2xpZ2FuZF9wcmVwLm1hZScsICctbXMnLCAnMScsICctcGgnLCAnNycsICctcGh0JywgJzAuNScsICctbnQn

> <r_epik_Ionization_Penalty>
  0.2804

> <r_epik_Ionization_Penalty_Charging>
  0.0000

> <r_epik_Ionization_Penalty_Neutral>
  0.2804

> <r_epik_State_Penalty>
  0.2729

> <r_epik_Charging_Adjusted_Penalty>
0.272946098743159

> <i_epik_Tot_Q>
0

> <i_epik_Tot_abs_Q>
0

> <s_epik_Chemistry_Notes>
This compound has an imine and may undergo hydrolysis.

$$$$
