4e5f_ligand
                    3D
 Schrodinger Suite 2020-3.
 19 20  0  0  1  0            999 V2000
  -14.3240  -19.1740  -24.5220 O   0  0  0  0  0  0
  -13.3700  -18.3580  -24.5190 C   0  0  0  0  0  0
  -12.7390  -18.0390  -23.3040 N   0  3  0  0  0  0
  -13.1410  -18.5760  -22.2640 O   0  0  0  0  0  0
  -11.6550  -17.1240  -23.2640 C   0  0  0  0  0  0
  -11.1160  -16.8650  -22.1690 O   0  0  0  0  0  0
  -11.1080  -16.4340  -24.4950 C   0  0  0  0  0  0
  -11.7970  -16.7940  -25.7320 C   0  0  0  0  0  0
  -12.8710  -17.7040  -25.7730 C   0  0  0  0  0  0
  -13.4770  -17.9940  -26.9990 C   0  0  0  0  0  0
  -13.0260  -17.3870  -28.1790 C   0  0  0  0  0  0
  -11.9560  -16.4840  -28.1360 C   0  0  0  0  0  0
  -11.3460  -16.1920  -26.9120 C   0  0  0  0  0  0
  -11.2010  -15.3444  -24.3763 H   0  0  0  0  0  0
  -10.0484  -16.6997  -24.6239 H   0  0  0  0  0  0
  -14.3078  -18.6986  -27.0375 H   0  0  0  0  0  0
  -13.5075  -17.6174  -29.1294 H   0  0  0  0  0  0
  -11.6007  -16.0114  -29.0517 H   0  0  0  0  0  0
  -10.5128  -15.4901  -26.8768 H   0  0  0  0  0  0
  1  2  2  0  0  0
  2  3  1  0  0  0
  2  9  1  0  0  0
  3  4  2  0  0  0
  3  5  1  0  0  0
  5  6  2  0  0  0
  5  7  1  0  0  0
  7  8  1  0  0  0
  7 14  1  0  0  0
  7 15  1  0  0  0
  8  9  2  0  0  0
  8 13  1  0  0  0
  9 10  1  0  0  0
 10 11  2  0  0  0
 10 16  1  0  0  0
 11 12  1  0  0  0
 11 17  1  0  0  0
 12 13  2  0  0  0
 12 18  1  0  0  0
 13 19  1  0  0  0
M  CHG  1   3   1
M  END
> <s_m_source_file>
../4e5f_ligand.sdf

> <i_m_source_file_index>
1

> <s_epik_input>
Tz1DKFtDSDJdMSlbTitdKD1PKUMoPU8pYyhjMTIpW2NIXVtjSF1bY0hdW2NIXTI=

> <s_epik_cmdline>
J2VwaWtfYXBwJywgJy1pbWFlJywgJ2xpZ2FuZF9wcm8ubWFlJywgJy1vbWFlJywgJ2xpZ2FuZF9wcmVwLm1hZScsICctbXMnLCAnMScsICctcGgnLCAnNycsICctcGh0JywgJzAuNScsICctbnQn

> <r_lp_tautomer_probability>
1

> <r_epik_Ionization_Penalty>
  0.0000

> <r_epik_Ionization_Penalty_Charging>
  0.0000

> <r_epik_Ionization_Penalty_Neutral>
  0.0000

> <r_epik_State_Penalty>
 -0.0000

> <r_epik_Charging_Adjusted_Penalty>
0

> <i_epik_Tot_Q>
1

> <i_epik_Tot_abs_Q>
1

$$$$
