4e5g_ligand
                    3D
 Schrodinger Suite 2020-3.
 21 21  0  0  1  0            999 V2000
  -13.0550  -18.3250  -22.6650 O   0  0  0  0  0  0
  -12.8910  -18.0560  -23.9550 C   0  0  0  0  0  0
  -13.7900  -18.6560  -24.9240 C   0  0  0  0  0  0
  -14.6860  -19.4090  -24.4950 O   0  0  0  0  0  0
  -13.6390  -18.4010  -26.1400 O   0  5  0  0  0  0
  -11.9240  -17.2480  -24.3980 C   0  0  0  0  0  0
  -10.9600  -16.5860  -23.5090 C   0  0  0  0  0  0
   -9.9120  -15.6960  -24.1160 C   0  0  0  0  0  0
   -8.9810  -15.0470  -23.2950 C   0  0  0  0  0  0
   -8.0100  -14.2240  -23.8690 C   0  0  0  0  0  0
   -7.9760  -14.0490  -25.2560 C   0  0  0  0  0  0
   -8.9070  -14.6960  -26.0790 C   0  0  0  0  0  0
   -9.8720  -15.5180  -25.5080 C   0  0  0  0  0  0
  -11.0060  -16.7600  -22.3050 O   0  0  0  0  0  0
  -11.2667  -17.8040  -25.0827 H   0  0  0  0  0  0
   -9.0143  -15.1837  -22.2141 H   0  0  0  0  0  0
   -7.2797  -13.7187  -23.2370 H   0  0  0  0  0  0
   -7.2185  -13.4036  -25.7007 H   0  0  0  0  0  0
   -8.8750  -14.5559  -27.1595 H   0  0  0  0  0  0
  -10.5989  -16.0252  -26.1423 H   0  0  0  0  0  0
  -12.3729  -16.3969  -24.9310 H   0  0  0  0  0  0
  1  2  2  0  0  0
  2  3  1  0  0  0
  2  6  1  0  0  0
  3  4  2  0  0  0
  3  5  1  0  0  0
  6  7  1  0  0  0
  6 15  1  0  0  0
  6 21  1  0  0  0
  7  8  1  0  0  0
  7 14  2  0  0  0
  8  9  2  0  0  0
  8 13  1  0  0  0
  9 10  1  0  0  0
  9 16  1  0  0  0
 10 11  2  0  0  0
 10 17  1  0  0  0
 11 12  1  0  0  0
 11 18  1  0  0  0
 12 13  2  0  0  0
 12 19  1  0  0  0
 13 20  1  0  0  0
M  CHG  1   5  -1
M  END
> <s_m_source_file>
../4e5g_ligand.sdf

> <i_m_source_file_index>
1

> <s_epik_input>
Tz1DKFtPSF0pQyhcW09IXSk9W0NIXVxDKD1PKWMxW2NIXVtjSF1bY0hdW2NIXVtjSF0x

> <s_epik_cmdline>
J2VwaWtfYXBwJywgJy1pbWFlJywgJ2xpZ2FuZF9wcm8ubWFlJywgJy1vbWFlJywgJ2xpZ2FuZF9wcmVwLm1hZScsICctbXMnLCAnMScsICctcGgnLCAnNycsICctcGh0JywgJzAuNScsICctbnQn

> <r_lp_tautomer_probability>
1

> <r_epik_Ionization_Penalty>
  0.0012

> <r_epik_Ionization_Penalty_Charging>
  0.0000

> <r_epik_Ionization_Penalty_Neutral>
  0.0012

> <r_epik_State_Penalty>
 -0.0000

> <r_epik_Charging_Adjusted_Penalty>
2.94508292767046e-05

> <i_epik_Tot_Q>
-1

> <i_epik_Tot_abs_Q>
1

$$$$
