4e5h_ligand
                    3D
 Schrodinger Suite 2020-3.
 53 55  0  0  1  0            999 V2000
  -49.3350   -9.9390   27.9780 Cl  0  0  0  0  0  0
  -50.0660  -11.1180   26.8350 C   0  0  0  0  0  0
  -49.2650  -11.8530   25.9700 C   0  0  0  0  0  0
  -49.8410  -12.7630   25.0890 C   0  0  0  0  0  0
  -51.4430  -11.2970   26.8140 C   0  0  0  0  0  0
  -52.0180  -12.2060   25.9330 C   0  0  0  0  0  0
  -51.2190  -12.9450   25.0730 C   0  0  0  0  0  0
  -51.8590  -13.9210   24.1110 C   0  0  0  0  0  0
  -51.5860  -15.3760   24.4710 C   0  0  2  0  0  0
  -51.9140  -15.6400   25.9310 C   0  0  0  0  0  0
  -53.3250  -15.1620   26.2270 C   0  0  0  0  0  0
  -50.1490  -15.7170   24.2040 C   0  0  0  0  0  0
  -49.7960  -15.7750   23.0370 O   0  0  0  0  0  0
  -49.2020  -15.9960   25.3580 C   0  0  0  0  0  0
  -48.2510  -16.8710   24.9990 C   0  0  0  0  0  0
  -48.0340  -17.0940   23.7170 O   0  0  0  0  0  0
  -47.4350  -17.5820   25.9830 C   0  0  0  0  0  0
  -47.6260  -17.3760   27.1970 O   0  0  0  0  0  0
  -46.5580  -18.3810   25.5820 O   0  5  0  0  0  0
  -52.4130  -16.2720   23.5620 C   0  0  0  0  0  0
  -53.7620  -16.5720   24.1870 C   0  0  0  0  0  0
  -54.0600  -15.4050   24.9960 N   0  3  1  0  0  0
  -55.1090  -14.4960   24.5790 C   0  0  0  0  0  0
  -56.2120  -15.3470   24.0080 C   0  0  0  0  0  0
  -57.4970  -15.2710   24.5300 C   0  0  0  0  0  0
  -58.5090  -16.0610   23.9990 C   0  0  0  0  0  0
  -58.2240  -16.9250   22.9520 C   0  0  0  0  0  0
  -56.9350  -16.9980   22.4360 C   0  0  0  0  0  0
  -55.9240  -16.2110   22.9650 C   0  0  0  0  0  0
  -48.1836  -11.7166   25.9815 H   0  0  0  0  0  0
  -49.2096  -13.3350   24.4092 H   0  0  0  0  0  0
  -52.0755  -10.7226   27.4909 H   0  0  0  0  0  0
  -53.0998  -12.3383   25.9181 H   0  0  0  0  0  0
  -52.9493  -13.7752   24.1120 H   0  0  0  0  0  0
  -51.4668  -13.7479   23.0980 H   0  0  0  0  0  0
  -51.8421  -16.7188   26.1337 H   0  0  0  0  0  0
  -51.2015  -15.0985   26.5706 H   0  0  0  0  0  0
  -53.7372  -15.7359   27.0701 H   0  0  0  0  0  0
  -53.3032  -14.0933   26.4867 H   0  0  0  0  0  0
  -48.7188  -15.0586   25.6706 H   0  0  0  0  0  0
  -49.7673  -16.4165   26.2028 H   0  0  0  0  0  0
  -52.5726  -15.7683   22.5972 H   0  0  0  0  0  0
  -51.8793  -17.2196   23.3970 H   0  0  0  0  0  0
  -54.5089  -16.7207   23.3933 H   0  0  0  0  0  0
  -53.6887  -17.4844   24.7971 H   0  0  0  0  0  0
  -53.3122  -14.8252   24.4351 H   0  0  0  0  0  0
  -55.4648  -13.9233   25.4482 H   0  0  0  0  0  0
  -54.7144  -13.8039   23.8205 H   0  0  0  0  0  0
  -57.7112  -14.5922   25.3555 H   0  0  0  0  0  0
  -59.5199  -16.0022   24.4024 H   0  0  0  0  0  0
  -59.0132  -17.5488   22.5324 H   0  0  0  0  0  0
  -56.7185  -17.6773   21.6116 H   0  0  0  0  0  0
  -54.9123  -16.2717   22.5639 H   0  0  0  0  0  0
  1  2  1  0  0  0
  2  3  2  0  0  0
  2  5  1  0  0  0
  3  4  1  0  0  0
  3 30  1  0  0  0
  4  7  2  0  0  0
  4 31  1  0  0  0
  5  6  2  0  0  0
  5 32  1  0  0  0
  6  7  1  0  0  0
  6 33  1  0  0  0
  7  8  1  0  0  0
  8  9  1  0  0  0
  8 34  1  0  0  0
  8 35  1  0  0  0
  9 10  1  0  0  0
  9 12  1  0  0  0
  9 20  1  0  0  0
 10 11  1  0  0  0
 10 36  1  0  0  0
 10 37  1  0  0  0
 11 22  1  0  0  0
 11 38  1  0  0  0
 11 39  1  0  0  0
 12 13  2  0  0  0
 12 14  1  0  0  0
 14 15  1  0  0  0
 14 40  1  0  0  0
 14 41  1  0  0  0
 15 16  2  0  0  0
 15 17  1  0  0  0
 17 18  2  0  0  0
 17 19  1  0  0  0
 20 21  1  0  0  0
 20 42  1  0  0  0
 20 43  1  0  0  0
 21 22  1  0  0  0
 21 44  1  0  0  0
 21 45  1  0  0  0
 22 23  1  0  0  0
 22 46  1  0  0  0
 23 24  1  0  0  0
 23 47  1  0  0  0
 23 48  1  0  0  0
 24 25  2  0  0  0
 24 29  1  0  0  0
 25 26  1  0  0  0
 25 49  1  0  0  0
 26 27  2  0  0  0
 26 50  1  0  0  0
 27 28  1  0  0  0
 27 51  1  0  0  0
 28 29  2  0  0  0
 28 52  1  0  0  0
 29 53  1  0  0  0
M  CHG  2  19  -1  22   1
M  END
> <s_m_source_file>
../4e5h_ligand.sdf

> <i_m_source_file_index>
1

> <s_epik_input>
Q2xjMVtjSF1bY0hdYyhbY0hdW2NIXTEpW0NIMl1bQ0BAXTIoQyg9TylbQ0gyXUMoPU8pQyg9TylbT0hdKVtDSDJdW0NIMl1bTkBASCtdKFtDSDJdW0NIMl0yKVtDSDJdYzNbY0hdW2NIXVtjSF1bY0hdW2NIXTM=

> <s_epik_cmdline>
J2VwaWtfYXBwJywgJy1pbWFlJywgJ2xpZ2FuZF9wcm8ubWFlJywgJy1vbWFlJywgJ2xpZ2FuZF9wcmVwLm1hZScsICctbXMnLCAnMScsICctcGgnLCAnNycsICctcGh0JywgJzAuNScsICctbnQn

> <r_epik_Ionization_Penalty>
  0.0116

> <r_epik_Ionization_Penalty_Charging>
  0.0109

> <r_epik_Ionization_Penalty_Neutral>
  0.0007

> <r_epik_State_Penalty>
  0.0083

> <r_epik_Charging_Adjusted_Penalty>
0.0191893633153376

> <i_epik_Tot_Q>
0

> <i_epik_Tot_abs_Q>
2

$$$$
