4e5i_ligand
                    3D
 Schrodinger Suite 2020-3.
 25 26  0  0  1  0            999 V2000
  -11.2720  -16.2040  -22.9060 O   0  0  0  0  0  0
  -11.2890  -15.7930  -24.0890 C   0  0  0  0  0  0
  -10.5540  -14.8570  -24.4860 O   0  5  0  0  0  0
  -12.2340  -16.4340  -25.0630 C   0  0  0  0  0  0
  -13.3610  -17.2710  -24.5870 C   0  0  0  0  0  0
  -13.5750  -17.4930  -23.2620 O   0  0  0  0  0  0
  -12.0820  -16.2630  -26.3970 N   0  0  0  0  0  0
  -12.9350  -16.8260  -27.2930 C   0  0  0  0  0  0
  -13.9720  -17.5960  -26.9130 N   0  0  0  0  0  0
  -14.2430  -17.8520  -25.6240 C   0  0  0  0  0  0
  -15.2210  -18.5630  -25.3000 O   0  0  0  0  0  0
  -12.7010  -16.6100  -28.7490 C   0  0  0  0  0  0
  -13.2970  -15.7150  -29.5610 N   0  3  0  0  0  0
  -12.7780  -15.8830  -30.7990 C   0  0  0  0  0  0
  -11.8700  -16.8700  -30.7680 N   0  0  0  0  0  0
  -11.0700  -17.3700  -31.9160 C   0  0  0  0  0  0
  -11.8040  -17.3350  -29.5180 C   0  0  0  0  0  0
  -12.9024  -17.0478  -22.5141 H   0  0  0  0  0  0
  -13.0541  -15.3072  -31.6824 H   0  0  0  0  0  0
  -11.3325  -16.8021  -32.8208 H   0  0  0  0  0  0
  -11.2863  -18.4365  -32.0768 H   0  0  0  0  0  0
   -9.9991  -17.2415  -31.7002 H   0  0  0  0  0  0
  -11.1600  -18.1406  -29.1654 H   0  0  0  0  0  0
  -14.0555  -15.0272  -29.1589 H   0  0  0  0  0  0
  -14.6334  -18.0410  -27.6710 H   0  0  0  0  0  0
  1  2  2  0  0  0
  2  3  1  0  0  0
  2  4  1  0  0  0
  4  5  2  0  0  0
  4  7  1  0  0  0
  5  6  1  0  0  0
  5 10  1  0  0  0
  6 18  1  0  0  0
  7  8  2  0  0  0
  8  9  1  0  0  0
  8 12  1  0  0  0
  9 10  1  0  0  0
  9 25  1  0  0  0
 10 11  2  0  0  0
 12 13  1  0  0  0
 12 17  2  0  0  0
 13 14  2  0  0  0
 13 24  1  0  0  0
 14 15  1  0  0  0
 14 19  1  0  0  0
 15 16  1  0  0  0
 15 17  1  0  0  0
 16 20  1  0  0  0
 16 21  1  0  0  0
 16 22  1  0  0  0
 17 23  1  0  0  0
M  CHG  2   3  -1  13   1
M  END
> <s_m_source_file>
../4e5i_ligand.sdf

> <i_m_source_file_index>
1

> <s_epik_input>
Tz1DKFtPSF0pYzFjKFtPSF0pYyg9TyluYyhbbkhdMSktYzJuW2NIXW4oW0NIM10pW2NIXTI=

> <s_epik_cmdline>
J2VwaWtfYXBwJywgJy1pbWFlJywgJ2xpZ2FuZF9wcm8ubWFlJywgJy1vbWFlJywgJ2xpZ2FuZF9wcmVwLm1hZScsICctbXMnLCAnMScsICctcGgnLCAnNycsICctcGh0JywgJzAuNScsICctbnQn

> <r_lp_tautomer_probability>
1

> <r_epik_Ionization_Penalty>
  0.7271

> <r_epik_Ionization_Penalty_Charging>
  0.3778

> <r_epik_Ionization_Penalty_Neutral>
  0.3493

> <r_epik_State_Penalty>
  0.5832

> <r_epik_Charging_Adjusted_Penalty>
0.960945100348955

> <i_epik_Tot_Q>
0

> <i_epik_Tot_abs_Q>
2

$$$$
