4e67_ligand
                    3D
 Schrodinger Suite 2020-3.
109111  0  0  1  0            999 V2000
  -10.6410   26.7510   -7.1080 C   0  0  0  0  0  0
  -11.0560   27.0370   -8.2330 O   0  0  0  0  0  0
  -11.4390   25.8070   -6.2090 C   0  0  0  0  0  0
  -12.5560   25.1060   -6.9900 C   0  0  0  0  0  0
  -13.5770   24.4320   -6.1120 C   0  0  0  0  0  0
  -14.8590   24.9530   -5.9900 C   0  0  0  0  0  0
  -15.8040   24.3360   -5.1790 C   0  0  0  0  0  0
  -15.4730   23.1750   -4.4840 C   0  0  0  0  0  0
  -14.1940   22.6420   -4.5980 C   0  0  0  0  0  0
  -13.2540   23.2720   -5.4090 C   0  0  0  0  0  0
   -9.4850   27.2370   -6.6100 N   0  0  0  0  0  0
   -8.6210   28.1920   -7.3230 C   0  0  2  0  0  0
   -8.3150   27.7750   -8.7640 C   0  0  0  0  0  0
   -8.1120   28.6370   -9.6200 O   0  0  0  0  0  0
   -7.3500   28.2180   -6.4680 C   0  0  0  0  0  0
   -7.8550   27.9550   -5.0810 C   0  0  0  0  0  0
   -8.9720   26.9470   -5.2560 C   0  0  0  0  0  0
   -8.2720   26.4680   -9.0200 N   0  0  0  0  0  0
   -8.3690   25.9510  -10.3860 C   0  0  2  0  0  0
   -9.0010   24.5620  -10.4590 C   0  0  0  0  0  0
   -8.9920   23.8060   -9.4890 O   0  0  0  0  0  0
   -7.0400   26.0190  -11.1470 C   0  0  0  0  0  0
   -5.8030   25.2400  -10.7250 C   0  0  0  0  0  0
   -5.0210   24.9620  -11.9880 C   0  0  0  0  0  0
   -4.9560   26.0460   -9.7480 C   0  0  0  0  0  0
   -9.5580   24.2540  -11.6240 N   0  0  0  0  0  0
  -10.4250   23.1010  -11.8150 C   0  0  2  0  0  0
  -10.3760   22.6820  -13.2790 C   0  0  0  0  0  0
   -9.8240   23.3920  -14.1160 O   0  0  0  0  0  0
  -11.8670   23.4480  -11.4070 C   0  0  0  0  0  0
  -12.3730   24.7240  -12.0090 C   0  0  0  0  0  0
  -12.8320   24.8040  -13.3080 N   0  0  0  0  0  0
  -12.4820   25.9720  -11.4960 C   0  0  0  0  0  0
  -13.1970   26.0460  -13.5690 C   0  0  0  0  0  0
  -12.9980   26.7750  -12.4850 N   0  0  0  0  0  0
  -10.9500   21.5210  -13.5790 N   0  0  0  0  0  0
  -11.0550   21.0490  -14.9530 C   0  0  2  0  0  0
  -12.0610   21.9070  -15.7340 C   0  0  0  0  0  0
  -12.6750   22.8210  -15.1770 O   0  0  0  0  0  0
  -11.4540   19.5730  -14.9710 C   0  0  0  0  0  0
  -12.6570   19.3690  -14.2430 O   0  0  0  0  0  0
  -12.2180   21.6070  -17.0190 N   0  0  0  0  0  0
  -13.0820   22.3760  -17.9180 C   0  0  1  0  0  0
  -13.0110   21.7590  -19.3170 C   0  0  1  0  0  0
  -13.8110   22.5620  -20.3420 C   0  0  0  0  0  0
  -11.6440   21.7380  -19.7270 O   0  0  0  0  0  0
  -10.7750   20.3890  -19.8850 P   0  0  0  0  0  0
  -11.5000   19.6020  -20.9460 O   0  0  0  0  0  0
  -10.7690   19.7540  -18.5080 O   0  5  0  0  0  0
   -9.4250   20.8890  -20.3350 O   0  5  0  0  0  0
  -14.5040   22.4860  -17.4240 C   0  0  0  0  0  0
  -15.1310   21.4810  -17.0670 O   0  0  0  0  0  0
  -15.0140   23.7170  -17.3990 N   0  0  0  0  0  0
  -16.3760   24.0050  -16.9370 C   0  0  2  0  0  0
  -17.4110   23.4850  -17.9210 C   0  0  0  0  0  0
  -17.1120   23.2970  -19.0950 O   0  0  0  0  0  0
  -16.5650   25.5110  -16.7150 C   0  0  0  0  0  0
  -18.5740   23.1270  -17.5830 N   0  0  0  0  0  0
  -10.7676   25.0405   -5.7945 H   0  0  0  0  0  0
  -11.8931   26.3799   -5.3871 H   0  0  0  0  0  0
  -13.0903   25.8433   -7.6071 H   0  0  0  0  0  0
  -12.1199   24.3321   -7.6387 H   0  0  0  0  0  0
  -15.1270   25.8569   -6.5371 H   0  0  0  0  0  0
  -16.8038   24.7604   -5.0868 H   0  0  0  0  0  0
  -16.2147   22.6858   -3.8526 H   0  0  0  0  0  0
  -13.9284   21.7350   -4.0549 H   0  0  0  0  0  0
  -12.2516   22.8526   -5.4956 H   0  0  0  0  0  0
   -9.1341   29.1607   -7.4144 H   0  0  0  0  0  0
   -6.6578   27.4373   -6.8163 H   0  0  0  0  0  0
   -6.8676   29.2025   -6.5580 H   0  0  0  0  0  0
   -7.0382   27.5532   -4.4635 H   0  0  0  0  0  0
   -8.2205   28.8939   -4.6397 H   0  0  0  0  0  0
   -9.7791   27.0833   -4.5212 H   0  0  0  0  0  0
   -8.6106   25.9089   -5.2154 H   0  0  0  0  0  0
   -8.1607   25.7723   -8.1752 H   0  0  0  0  0  0
   -9.0683   26.6591  -10.8546 H   0  0  0  0  0  0
   -7.1919   25.6771  -12.1814 H   0  0  0  0  0  0
   -6.6740   27.0563  -11.1537 H   0  0  0  0  0  0
   -6.0835   24.3048  -10.2184 H   0  0  0  0  0  0
   -5.6432   24.3802  -12.6839 H   0  0  0  0  0  0
   -4.1151   24.3895  -11.7398 H   0  0  0  0  0  0
   -4.7355   25.9139  -12.4595 H   0  0  0  0  0  0
   -5.5363   26.2412   -8.8342 H   0  0  0  0  0  0
   -4.6703   27.0015  -10.2121 H   0  0  0  0  0  0
   -4.0499   25.4771   -9.4924 H   0  0  0  0  0  0
   -9.3357   24.9211  -12.4699 H   0  0  0  0  0  0
  -10.0343   22.2981  -11.1725 H   0  0  0  0  0  0
  -12.5154   22.8585  -10.7422 H   0  0  0  0  0  0
  -12.2449   26.3976  -10.5098 H   0  0  0  0  0  0
  -13.5947   26.4081  -14.5171 H   0  0  0  0  0  0
  -11.3517   20.9117  -12.7559 H   0  0  0  0  0  0
  -10.0543   21.1614  -15.3956 H   0  0  0  0  0  0
  -11.6080   19.2475  -16.0104 H   0  0  0  0  0  0
  -10.6550   18.9715  -14.5129 H   0  0  0  0  0  0
  -13.0836   18.3587  -14.1576 H   0  0  0  0  0  0
  -11.6630   20.7372  -17.4002 H   0  0  0  0  0  0
  -12.6898   23.4037  -17.9132 H   0  0  0  0  0  0
  -13.3785   20.7225  -19.2903 H   0  0  0  0  0  0
  -14.8689   22.5890  -20.0418 H   0  0  0  0  0  0
  -13.7222   22.0869  -21.3301 H   0  0  0  0  0  0
  -13.4177   23.5881  -20.3918 H   0  0  0  0  0  0
  -14.3659   24.5357  -17.7448 H   0  0  0  0  0  0
  -16.4832   23.4627  -15.9860 H   0  0  0  0  0  0
  -15.8104   25.8740  -16.0017 H   0  0  0  0  0  0
  -17.5711   25.6988  -16.3118 H   0  0  0  0  0  0
  -16.4490   26.0401  -17.6724 H   0  0  0  0  0  0
  -18.9121   23.2649  -16.5454 H   0  0  0  0  0  0
  -19.2488   22.6773  -18.3262 H   0  0  0  0  0  0
  -12.8474   23.9054  -13.9422 H   0  0  0  0  0  0
  1  2  2  0  0  0
  1  3  1  0  0  0
  1 11  1  0  0  0
  3  4  1  0  0  0
  3 59  1  0  0  0
  3 60  1  0  0  0
  4  5  1  0  0  0
  4 61  1  0  0  0
  4 62  1  0  0  0
  5  6  2  0  0  0
  5 10  1  0  0  0
  6  7  1  0  0  0
  6 63  1  0  0  0
  7  8  2  0  0  0
  7 64  1  0  0  0
  8  9  1  0  0  0
  8 65  1  0  0  0
  9 10  2  0  0  0
  9 66  1  0  0  0
 10 67  1  0  0  0
 11 12  1  0  0  0
 11 17  1  0  0  0
 12 13  1  0  0  0
 12 15  1  0  0  0
 12 68  1  0  0  0
 13 14  2  0  0  0
 13 18  1  0  0  0
 15 16  1  0  0  0
 15 69  1  0  0  0
 15 70  1  0  0  0
 16 17  1  0  0  0
 16 71  1  0  0  0
 16 72  1  0  0  0
 17 73  1  0  0  0
 17 74  1  0  0  0
 18 19  1  0  0  0
 18 75  1  0  0  0
 19 20  1  0  0  0
 19 22  1  0  0  0
 19 76  1  0  0  0
 20 21  2  0  0  0
 20 26  1  0  0  0
 22 23  1  0  0  0
 22 77  1  0  0  0
 22 78  1  0  0  0
 23 24  1  0  0  0
 23 25  1  0  0  0
 23 79  1  0  0  0
 24 80  1  0  0  0
 24 81  1  0  0  0
 24 82  1  0  0  0
 25 83  1  0  0  0
 25 84  1  0  0  0
 25 85  1  0  0  0
 26 27  1  0  0  0
 26 86  1  0  0  0
 27 28  1  0  0  0
 27 30  1  0  0  0
 27 87  1  0  0  0
 28 29  2  0  0  0
 28 36  1  0  0  0
 30 31  2  0  0  0
 30 88  1  0  0  0
 31 32  1  0  0  0
 31 33  1  0  0  0
 32 34  1  0  0  0
 32109  1  0  0  0
 33 35  2  0  0  0
 33 89  1  0  0  0
 34 35  1  0  0  0
 34 90  1  0  0  0
 36 37  1  0  0  0
 36 91  1  0  0  0
 37 38  1  0  0  0
 37 40  1  0  0  0
 37 92  1  0  0  0
 38 39  2  0  0  0
 38 42  1  0  0  0
 40 41  1  0  0  0
 40 93  1  0  0  0
 40 94  1  0  0  0
 41 95  1  0  0  0
 42 43  1  0  0  0
 42 96  1  0  0  0
 43 44  1  0  0  0
 43 51  1  0  0  0
 43 97  1  0  0  0
 44 45  1  0  0  0
 44 46  1  0  0  0
 44 98  1  0  0  0
 45 99  1  0  0  0
 45100  1  0  0  0
 45101  1  0  0  0
 46 47  1  0  0  0
 47 48  2  0  0  0
 47 49  1  0  0  0
 47 50  1  0  0  0
 51 52  2  0  0  0
 51 53  1  0  0  0
 53 54  1  0  0  0
 53102  1  0  0  0
 54 55  1  0  0  0
 54 57  1  0  0  0
 54103  1  0  0  0
 55 56  2  0  0  0
 55 58  1  0  0  0
 57104  1  0  0  0
 57105  1  0  0  0
 57106  1  0  0  0
 58107  1  0  0  0
 58108  1  0  0  0
M  CHG  2  49  -1  50  -1
M  END
> <s_m_source_file>
../4e67_ligand.sdf

> <i_m_source_file_index>
1

> <s_epik_input>
W2NIXTFbY0hdW2NIXVtjSF1bY0hdYzFbQ0gyXVtDSDJdQyg9TylOMltDQEBIXShbQ0gyXVtDSDJdW0NIMl0yKUMoPU8pW05IXVtDQEBIXShbQ0gyXVtDSF0oW0NIM10pW0NIM10pQyg9TylbTkhdW0NAQEhdKFtDSDJdQzM9TltDSDJdTj1bQ0hdMylDKD1PKVtOSF1bQ0BASF0oW0NIMl1bT0hdKUMoPU8pW05IXVtDQEBIXShbQ0BASF0oW0NIM10pT1AoPU8pKFtPSF0pW09IXSlDKD1PKVtOSF1bQ0BASF0oW0NIM10pQyg9TylbTkgyXQ==

> <s_epik_cmdline>
J2VwaWtfYXBwJywgJy1pbWFlJywgJ2xpZ2FuZF9wcm8ubWFlJywgJy1vbWFlJywgJ2xpZ2FuZF9wcmVwLm1hZScsICctbXMnLCAnMScsICctcGgnLCAnNycsICctcGh0JywgJzAuNScsICctbnQn

> <r_epik_Ionization_Penalty>
  0.0871

> <r_epik_Ionization_Penalty_Charging>
  0.0871

> <r_epik_Ionization_Penalty_Neutral>
  0.0000

> <r_epik_State_Penalty>
  0.0776

> <r_epik_Charging_Adjusted_Penalty>
0.164661221240518

> <i_epik_Tot_Q>
-2

> <i_epik_Tot_abs_Q>
2

> <s_epik_Chemistry_Notes>
This compound has an imine and may undergo hydrolysis.

$$$$
