4e6c_ligand
                    3D
 Schrodinger Suite 2020-3.
 38 38  0  0  1  0            999 V2000
    3.9740    6.7320    2.6720 C   0  0  0  0  0  0
    3.5510    5.5890    3.5660 C   0  0  0  0  0  0
    2.1750    5.7430    4.2000 C   0  0  0  0  0  0
    1.5210    6.4380    1.8760 C   0  0  0  0  0  0
    2.8530    7.1760    1.7240 C   0  0  0  0  0  0
    0.6250    7.5740    3.8990 C   0  0  0  0  0  0
    0.0110    5.2550    3.3080 C   0  0  0  0  0  0
    5.9840    4.3260   -1.5170 C   0  0  0  0  0  0
    7.0370    4.4620   -2.6240 C   0  0  0  0  0  0
    7.2490    3.0530   -3.1570 C   0  0  0  0  0  0
    4.9720    3.7010    1.1490 O   0  5  0  0  0  0
    4.7980    5.1540    0.6560 P   0  0  2  0  0  0
    3.4630    5.5960    0.0440 O   0  0  0  0  0  0
    5.7860    5.4360   -0.6280 O   0  0  0  0  0  0
    5.0360    6.1930    1.9170 O   0  0  0  0  0  0
    1.0970    6.2690    3.3070 N   0  3  0  0  0  0
    4.3149    7.6075    3.2441 H   0  0  0  0  0  0
    3.5264    4.6568    2.9825 H   0  0  0  0  0  0
    4.2690    5.4851    4.3929 H   0  0  0  0  0  0
    1.8244    4.7636    4.5577 H   0  0  0  0  0  0
    2.2377    6.4418    5.0472 H   0  0  0  0  0  0
    0.7292    7.0004    1.3595 H   0  0  0  0  0  0
    1.6055    5.4342    1.4342 H   0  0  0  0  0  0
    2.6345    8.2415    1.8882 H   0  0  0  0  0  0
    3.1718    7.0234    0.6823 H   0  0  0  0  0  0
    1.4490    8.3025    3.8844 H   0  0  0  0  0  0
    0.2994    7.4094    4.9367 H   0  0  0  0  0  0
   -0.2176    7.9615    3.3075 H   0  0  0  0  0  0
    0.3848    4.3170    2.8715 H   0  0  0  0  0  0
   -0.8364    5.6247    2.7120 H   0  0  0  0  0  0
   -0.3194    5.0726    4.3412 H   0  0  0  0  0  0
    4.9977    4.1457   -1.9694 H   0  0  0  0  0  0
    6.2470    3.4820   -0.8624 H   0  0  0  0  0  0
    6.6603    5.1359   -3.4076 H   0  0  0  0  0  0
    7.9639    4.8751   -2.1996 H   0  0  0  0  0  0
    7.9988    3.0743   -3.9616 H   0  0  0  0  0  0
    6.2989    2.6634   -3.5514 H   0  0  0  0  0  0
    7.6025    2.4026   -2.3434 H   0  0  0  0  0  0
  1  2  1  0  0  0
  1  5  1  0  0  0
  1 15  1  0  0  0
  1 17  1  0  0  0
  2  3  1  0  0  0
  2 18  1  0  0  0
  2 19  1  0  0  0
  3 16  1  0  0  0
  3 20  1  0  0  0
  3 21  1  0  0  0
  4  5  1  0  0  0
  4 16  1  0  0  0
  4 22  1  0  0  0
  4 23  1  0  0  0
  5 24  1  0  0  0
  5 25  1  0  0  0
  6 16  1  0  0  0
  6 26  1  0  0  0
  6 27  1  0  0  0
  6 28  1  0  0  0
  7 16  1  0  0  0
  7 29  1  0  0  0
  7 30  1  0  0  0
  7 31  1  0  0  0
  8  9  1  0  0  0
  8 14  1  0  0  0
  8 32  1  0  0  0
  8 33  1  0  0  0
  9 10  1  0  0  0
  9 34  1  0  0  0
  9 35  1  0  0  0
 10 36  1  0  0  0
 10 37  1  0  0  0
 10 38  1  0  0  0
 11 12  1  0  0  0
 12 13  2  0  0  0
 12 14  1  0  0  0
 12 15  1  0  0  0
M  CHG  2  11  -1  16   1
M  END
> <s_m_source_file>
../4e6c_ligand.sdf

> <i_m_source_file_index>
1

> <s_epik_input>
W0NIM11bTitdMShbQ0gzXSlbQ0gyXVtDSDJdW0NIXShbQ0gyXVtDSDJdMSlPW1BAXSg9TykoW09IXSlPW0NIMl1bQ0gyXVtDSDNd

> <s_epik_cmdline>
J2VwaWtfYXBwJywgJy1pbWFlJywgJ2xpZ2FuZF9wcm8ubWFlJywgJy1vbWFlJywgJ2xpZ2FuZF9wcmVwLm1hZScsICctbXMnLCAnMScsICctcGgnLCAnNycsICctcGh0JywgJzAuNScsICctbnQn

> <r_lp_tautomer_probability>
1

> <r_epik_Ionization_Penalty>
  0.0003

> <r_epik_Ionization_Penalty_Charging>
  0.0003

> <r_epik_Ionization_Penalty_Neutral>
  0.0000

> <r_epik_State_Penalty>
 -0.0000

> <r_epik_Charging_Adjusted_Penalty>
0.000292530197704158

> <i_epik_Tot_Q>
0

> <i_epik_Tot_abs_Q>
2

$$$$
