4e70_ligand
                    3D
 Schrodinger Suite 2020-3.
 25 25  0  0  1  0            999 V2000
   12.3290  -19.4400  -42.2950 C   0  0  0  0  0  0
   14.0470  -17.7590  -46.9590 O   0  0  0  0  0  0
   15.8750  -16.6120  -40.0650 C   0  0  0  0  0  0
   12.9040  -18.9510  -38.6840 O   0  0  0  0  0  0
   12.1560  -19.5850  -40.9210 C   0  0  0  0  0  0
   14.7620  -17.3980  -39.6310 O   0  0  0  0  0  0
   13.0020  -18.8750  -40.0190 C   0  0  0  0  0  0
   14.0290  -18.0140  -40.5620 C   0  0  0  0  0  0
   14.1710  -17.8830  -41.9340 C   0  0  0  0  0  0
   13.3340  -18.6050  -42.8310 C   0  0  0  0  0  0
   13.5290  -18.4040  -44.3020 C   0  0  0  0  0  0
   13.0880  -19.1810  -45.2690 C   0  0  0  0  0  0
   13.2890  -18.9100  -46.7580 C   0  0  0  0  0  0
   11.6725  -19.9844  -42.9737 H   0  0  0  0  0  0
   14.2812  -17.4262  -47.9809 H   0  0  0  0  0  0
   16.3761  -16.1716  -39.1904 H   0  0  0  0  0  0
   15.5204  -15.8087  -40.7275 H   0  0  0  0  0  0
   16.5846  -17.2511  -40.6109 H   0  0  0  0  0  0
   12.1380  -19.5929  -38.2244 H   0  0  0  0  0  0
   11.3750  -20.2403  -40.5354 H   0  0  0  0  0  0
   14.9357  -17.2165  -42.3329 H   0  0  0  0  0  0
   14.1066  -17.4995  -44.5434 H   0  0  0  0  0  0
   12.5315  -20.0984  -45.0269 H   0  0  0  0  0  0
   12.3030  -18.7867  -47.2299 H   0  0  0  0  0  0
   13.8049  -19.7718  -47.2064 H   0  0  0  0  0  0
  1  5  2  0  0  0
  1 10  1  0  0  0
  1 14  1  0  0  0
  2 13  1  0  0  0
  2 15  1  0  0  0
  3  6  1  0  0  0
  3 16  1  0  0  0
  3 17  1  0  0  0
  3 18  1  0  0  0
  4  7  1  0  0  0
  4 19  1  0  0  0
  5  7  1  0  0  0
  5 20  1  0  0  0
  6  8  1  0  0  0
  7  8  2  0  0  0
  8  9  1  0  0  0
  9 10  2  0  0  0
  9 21  1  0  0  0
 10 11  1  0  0  0
 11 12  2  0  0  0
 11 22  1  0  0  0
 12 13  1  0  0  0
 12 23  1  0  0  0
 13 24  1  0  0  0
 13 25  1  0  0  0
M  END
> <s_m_source_file>
../4e70_ligand.sdf

> <i_m_source_file_index>
1

> <s_epik_input>
W0NIM11PYzFbY0hdYyhbY0hdW2NIXWMxW09IXSkvW0NIXT1bQ0hdL1tDSDJdW09IXQ==

> <s_epik_cmdline>
J2VwaWtfYXBwJywgJy1pbWFlJywgJ2xpZ2FuZF9wcm8ubWFlJywgJy1vbWFlJywgJ2xpZ2FuZF9wcmVwLm1hZScsICctbXMnLCAnMScsICctcGgnLCAnNycsICctcGh0JywgJzAuNScsICctbnQn

> <r_lp_tautomer_probability>
1

> <r_epik_Ionization_Penalty>
  0.0007

> <r_epik_Ionization_Penalty_Charging>
  0.0000

> <r_epik_Ionization_Penalty_Neutral>
  0.0007

> <r_epik_State_Penalty>
 -0.0000

> <r_epik_Charging_Adjusted_Penalty>
0

> <i_epik_Tot_Q>
0

> <i_epik_Tot_abs_Q>
0

$$$$
