4e7r_ligand
                    3D
 Schrodinger Suite 2020-3.
 75 78  0  0  1  0            999 V2000
   16.2890    2.4740   21.1970 C   0  0  0  0  0  0
   15.7060    1.8320   22.2850 C   0  0  0  0  0  0
   16.0880    0.5420   22.6000 C   0  0  0  0  0  0
   18.6720   -0.2010   19.9120 C   0  0  0  0  0  0
   20.0910    0.0560   20.4450 C   0  0  1  0  0  0
   20.2890    1.4880   20.8790 C   0  0  0  0  0  0
   20.7310    3.8030   20.4640 C   0  0  0  0  0  0
   21.9650    4.4410   19.8260 C   0  0  0  0  0  0
   21.9270    4.3060   18.3170 C   0  0  0  0  0  0
   22.0020    2.8160   18.0350 C   0  0  0  0  0  0
   20.7340    2.1530   18.5540 C   0  0  0  0  0  0
   25.0800    0.2470   20.6660 C   0  0  0  0  0  0
   25.0990    1.3140   21.5690 C   0  0  0  0  0  0
   24.0790    1.4380   22.5000 C   0  0  0  0  0  0
   23.0350    0.5070   22.4760 C   0  0  0  0  0  0
   24.0150    2.5720   23.4740 C   0  0  0  0  0  0
   23.7530    2.3680   24.8210 C   0  0  0  0  0  0
   15.4550   -0.1500   23.7620 C   0  0  0  0  0  0
   14.5580    0.4850   24.5020 N   0  0  0  0  0  0
   15.7530   -1.3410   24.0230 N   0  3  0  0  0  0
   17.0370   -0.1100   21.8320 C   0  0  0  0  0  0
   17.6220    0.5240   20.7430 C   0  0  0  0  0  0
   20.3940   -0.8420   21.5500 N   0  0  3  0  0  0
   21.8030   -1.6230   21.5890 S   0  0  0  0  0  0
   23.0090   -0.5620   21.5790 C   0  0  0  0  0  0
   24.1650    3.8760   23.0190 C   0  0  0  0  0  0
   24.0780    4.9480   23.9090 C   0  0  0  0  0  0
   23.8230    4.7210   25.2510 C   0  0  0  0  0  0
   23.6790    6.0560   26.4370 Cl  0  0  0  0  0  0
   23.6600    3.4310   25.7050 C   0  0  0  0  0  0
   23.5460    0.7340   25.5120 Cl  0  0  0  0  0  0
   24.0510   -0.6890   20.6680 C   0  0  0  0  0  0
   21.8470   -2.4310   22.7860 O   0  0  0  0  0  0
   21.8700   -2.4570   20.4310 O   0  0  0  0  0  0
   20.5910    2.4260   19.9900 N   0  0  0  0  0  0
   23.1240    5.0240   17.7040 C   0  0  0  0  0  0
   22.7240    5.9590   16.5640 C   0  0  0  0  0  0
   22.5560    5.2200   15.3270 N   0  3  0  0  0  0
   20.1520    1.7890   22.0510 O   0  0  0  0  0  0
   17.2380    1.8230   20.4230 C   0  0  0  0  0  0
   15.9980    3.4953   20.9513 H   0  0  0  0  0  0
   14.9530    2.3432   22.8848 H   0  0  0  0  0  0
   18.6002    0.1553   18.8738 H   0  0  0  0  0  0
   18.4575   -1.2794   19.9452 H   0  0  0  0  0  0
   20.8176   -0.1632   19.6488 H   0  0  0  0  0  0
   20.8423    3.8037   21.5584 H   0  0  0  0  0  0
   19.8356    4.3784   20.1861 H   0  0  0  0  0  0
   21.9999    5.5098   20.0839 H   0  0  0  0  0  0
   22.8710    3.9433   20.2021 H   0  0  0  0  0  0
   21.0154    4.7493   17.8897 H   0  0  0  0  0  0
   22.0910    2.6520   16.9509 H   0  0  0  0  0  0
   22.8796    2.3903   18.5434 H   0  0  0  0  0  0
   19.8632    2.5555   18.0158 H   0  0  0  0  0  0
   20.7954    1.0668   18.3917 H   0  0  0  0  0  0
   25.8901    0.1462   19.9438 H   0  0  0  0  0  0
   25.9092    2.0427   21.5414 H   0  0  0  0  0  0
   22.2129    0.6205   23.1827 H   0  0  0  0  0  0
   14.2963    1.5288   24.2739 H   0  0  0  0  0  0
   14.0750   -0.0316   25.3445 H   0  0  0  0  0  0
   16.4976   -1.8688   23.4091 H   0  0  0  0  0  0
   17.3280   -1.1298   22.0838 H   0  0  0  0  0  0
   19.7416   -0.8642   22.4354 H   0  0  0  0  0  0
   24.3516    4.0631   21.9615 H   0  0  0  0  0  0
   24.2113    5.9672   23.5463 H   0  0  0  0  0  0
   23.4578    3.2462   26.7600 H   0  0  0  0  0  0
   24.0618   -1.5171   19.9593 H   0  0  0  0  0  0
   23.6251    5.6263   18.4761 H   0  0  0  0  0  0
   23.8300    4.2824   17.3020 H   0  0  0  0  0  0
   21.7742    6.4549   16.8127 H   0  0  0  0  0  0
   23.5072    6.7179   16.4202 H   0  0  0  0  0  0
   22.2687    5.9127   14.5222 H   0  0  0  0  0  0
   21.7694    4.4620   15.4567 H   0  0  0  0  0  0
   23.5025    4.7250   15.0642 H   0  0  0  0  0  0
   17.6825    2.3279   19.5653 H   0  0  0  0  0  0
   15.2695   -1.8569   24.8657 H   0  0  0  0  0  0
  1  2  2  0  0  0
  1 40  1  0  0  0
  1 41  1  0  0  0
  2  3  1  0  0  0
  2 42  1  0  0  0
  3 18  1  0  0  0
  3 21  2  0  0  0
  4  5  1  0  0  0
  4 22  1  0  0  0
  4 43  1  0  0  0
  4 44  1  0  0  0
  5  6  1  0  0  0
  5 23  1  0  0  0
  5 45  1  0  0  0
  6 35  1  0  0  0
  6 39  2  0  0  0
  7  8  1  0  0  0
  7 35  1  0  0  0
  7 46  1  0  0  0
  7 47  1  0  0  0
  8  9  1  0  0  0
  8 48  1  0  0  0
  8 49  1  0  0  0
  9 10  1  0  0  0
  9 36  1  0  0  0
  9 50  1  0  0  0
 10 11  1  0  0  0
 10 51  1  0  0  0
 10 52  1  0  0  0
 11 35  1  0  0  0
 11 53  1  0  0  0
 11 54  1  0  0  0
 12 13  2  0  0  0
 12 32  1  0  0  0
 12 55  1  0  0  0
 13 14  1  0  0  0
 13 56  1  0  0  0
 14 15  2  0  0  0
 14 16  1  0  0  0
 15 25  1  0  0  0
 15 57  1  0  0  0
 16 17  2  0  0  0
 16 26  1  0  0  0
 17 30  1  0  0  0
 17 31  1  0  0  0
 18 19  1  0  0  0
 18 20  2  0  0  0
 19 58  1  0  0  0
 19 59  1  0  0  0
 20 60  1  0  0  0
 20 75  1  0  0  0
 21 22  1  0  0  0
 21 61  1  0  0  0
 22 40  2  0  0  0
 23 24  1  0  0  0
 23 62  1  0  0  0
 24 25  1  0  0  0
 24 33  2  0  0  0
 24 34  2  0  0  0
 25 32  2  0  0  0
 26 27  2  0  0  0
 26 63  1  0  0  0
 27 28  1  0  0  0
 27 64  1  0  0  0
 28 29  1  0  0  0
 28 30  2  0  0  0
 30 65  1  0  0  0
 32 66  1  0  0  0
 36 37  1  0  0  0
 36 67  1  0  0  0
 36 68  1  0  0  0
 37 38  1  0  0  0
 37 69  1  0  0  0
 37 70  1  0  0  0
 38 71  1  0  0  0
 38 72  1  0  0  0
 38 73  1  0  0  0
 40 74  1  0  0  0
M  CHG  2  20   1  38   1
M  END
> <s_m_source_file>
../4e7r_ligand.sdf

> <i_m_source_file_index>
1

> <s_epik_input>
W0hdXE49QyhbTkgyXSlcYzFbY0hdW2NIXVtjSF1jKFtjSF0xKVtDSDJdW0NAQEhdKEMoPU8pTihbQ0gyXVtDSDJdMilbQ0gyXVtDSDJdW0NIXTJbQ0gyXVtDSDJdW05IMytdKVtOSF1TKD1PKSg9TyljKFtjSF0zKVtjSF1bY0hdW2NIXWMzLWM0YyhDbClbY0hdYyhDbClbY0hdW2NIXTQ=

> <s_epik_cmdline>
J2VwaWtfYXBwJywgJy1pbWFlJywgJ2xpZ2FuZF9wcm8ubWFlJywgJy1vbWFlJywgJ2xpZ2FuZF9wcmVwLm1hZScsICctbXMnLCAnMScsICctcGgnLCAnNycsICctcGh0JywgJzAuNScsICctbnQn

> <r_lp_tautomer_probability>
1

> <r_epik_Ionization_Penalty>
  0.0021

> <r_epik_Ionization_Penalty_Charging>
  0.0005

> <r_epik_Ionization_Penalty_Neutral>
  0.0016

> <r_epik_State_Penalty>
 -0.0000

> <r_epik_Charging_Adjusted_Penalty>
0.000539642115396563

> <i_epik_Tot_Q>
2

> <i_epik_Tot_abs_Q>
2

> <s_epik_Chemistry_Notes>
This compound has an imine and may undergo hydrolysis.

$$$$
