4e81_ligand
                    3D
 Schrodinger Suite 2020-3.
151154  0  0  1  0            999 V2000
   24.6920    5.1680   19.8210 N   0  3  0  0  0  0
   25.1560    5.4080   18.4270 C   0  0  2  0  0  0
   25.2090    6.9250   17.9680 C   0  0  0  0  0  0
   24.2020    7.4650   17.5300 O   0  0  0  0  0  0
   24.2740    4.5890   17.4960 C   0  0  0  0  0  0
   24.7660    4.5530   16.0720 C   0  0  0  0  0  0
   24.1920    3.3390   15.3680 C   0  0  0  0  0  0
   25.2790    2.6640   14.6640 N   0  0  0  0  0  0
   25.2480    1.4120   14.2020 C   0  0  0  0  0  0
   26.3270    0.9060   13.5780 N   0  0  0  0  0  0
   24.1580    0.6720   14.3780 N   0  3  0  0  0  0
   26.3860    7.6040   18.0750 N   0  0  0  0  0  0
   26.4320    9.0450   17.7250 C   0  0  2  0  0  0
   26.1000    9.2520   16.2450 C   0  0  0  0  0  0
   26.3300    8.3360   15.4600 O   0  0  0  0  0  0
   27.8910    9.4320   18.0010 C   0  0  0  0  0  0
   28.6590    8.1530   17.8920 C   0  0  0  0  0  0
   27.7310    7.0950   18.4260 C   0  0  0  0  0  0
   25.5570   10.4250   15.8780 N   0  0  0  0  0  0
   25.1000   10.6400   14.4930 C   0  0  2  0  0  0
   25.8190   11.8480   13.8960 C   0  0  0  0  0  0
   26.2990   12.7110   14.5940 O   0  0  0  0  0  0
   23.5360   10.7330   14.3480 C   0  0  0  0  0  0
   23.1200   10.3160   12.9350 C   0  0  0  0  0  0
   22.7820    9.8570   15.3510 C   0  0  0  0  0  0
   25.9100   11.9090   12.5890 N   0  0  0  0  0  0
   26.7070   12.9250   11.9380 C   0  0  2  0  0  0
   25.9710   13.5550   10.7830 C   0  0  0  0  0  0
   25.1280   12.9310   10.0920 O   0  0  0  0  0  0
   27.9710   12.2530   11.3680 C   0  0  0  0  0  0
   28.5690   11.1920   12.2520 C   0  0  0  0  0  0
   29.4770   11.5420   13.2720 C   0  0  0  0  0  0
   28.2250    9.8150   12.0880 C   0  0  0  0  0  0
   30.0290   10.5560   14.1070 C   0  0  0  0  0  0
   28.7700    8.8250   12.9190 C   0  0  0  0  0  0
   29.6680    9.2040   13.9260 C   0  0  0  0  0  0
   30.2070    8.2610   14.7650 O   0  0  0  0  0  0
   26.2790   14.7930   10.5150 N   0  0  0  0  0  0
   25.5730   15.4720    9.4350 C   0  0  2  0  0  0
   26.4350   15.3370    8.1810 C   0  0  0  0  0  0
   27.6420   15.2650    8.3370 O   0  0  0  0  0  0
   25.5030   16.9520    9.7150 C   0  0  2  0  0  0
   25.1100   17.1770   11.1390 C   0  0  0  0  0  0
   24.5330   17.6420    8.7340 C   0  0  0  0  0  0
   23.7200   16.6650   11.3670 C   0  0  0  0  0  0
   25.8510   15.2840    6.9650 N   0  0  0  0  0  0
   26.8440   15.0100    5.9180 C   0  0  2  0  0  0
   27.6190   16.2590    5.5510 C   0  0  0  0  0  0
   27.1820   17.3850    5.8580 O   0  0  0  0  0  0
   26.0050   14.5070    4.7290 C   0  0  0  0  0  0
   24.5630   14.6480    5.1090 C   0  0  0  0  0  0
   24.4760   15.3840    6.4130 C   0  0  0  0  0  0
   28.7650   16.0710    4.9020 N   0  0  0  0  0  0
   29.4590   17.2280    4.3430 C   0  0  2  0  0  0
   28.5400   17.8970    3.3100 C   0  0  0  0  0  0
   27.8740   17.2270    2.5070 O   0  0  0  0  0  0
   30.8250   16.8500    3.7500 C   0  0  0  0  0  0
   31.5880   17.9400    2.9870 C   0  0  0  0  0  0
   32.4310   17.3120    1.8650 C   0  0  0  0  0  0
   31.7130   17.1430    0.5890 N   0  0  0  0  0  0
   30.7040   16.2960    0.3470 C   0  0  0  0  0  0
   30.1530   16.2690   -0.8560 N   0  3  0  0  0  0
   30.2250   15.4900    1.2840 N   0  0  0  0  0  0
   28.4800   19.2300    3.3450 N   0  0  0  0  0  0
   27.7840   19.8600    2.2470 C   0  0  2  0  0  0
   28.5190   19.5530    0.9030 C   0  0  0  0  0  0
   29.7420   19.7960    0.7680 O   0  0  0  0  0  0
   27.8280   21.3400    2.6370 C   0  0  0  0  0  0
   29.1030   21.4870    3.4210 C   0  0  0  0  0  0
   29.2220   20.1980    4.1770 C   0  0  0  0  0  0
   27.7890   18.9660   -0.0620 N   0  0  0  0  0  0
   25.3127    5.7488   20.5191 H   0  0  0  0  0  0
   24.7786    4.0971   20.0570 H   0  0  0  0  0  0
   23.6418    5.4808   19.9168 H   0  0  0  0  0  0
   26.1929    5.0407   18.4238 H   0  0  0  0  0  0
   24.2292    3.5497   17.8535 H   0  0  0  0  0  0
   23.2603    5.0158   17.4816 H   0  0  0  0  0  0
   24.4436    5.4657   15.5495 H   0  0  0  0  0  0
   25.8645    4.4951   16.0649 H   0  0  0  0  0  0
   23.7445    2.6621   16.1106 H   0  0  0  0  0  0
   23.4204    3.6605   14.6530 H   0  0  0  0  0  0
   26.2245    3.1936   14.4751 H   0  0  0  0  0  0
   27.2235    1.5279   13.4381 H   0  0  0  0  0  0
   26.3128   -0.1297   13.2077 H   0  0  0  0  0  0
   23.2817    1.0966   14.8897 H   0  0  0  0  0  0
   25.6967    9.6211   18.3059 H   0  0  0  0  0  0
   28.2223   10.1690   17.2546 H   0  0  0  0  0  0
   27.9705    9.8684   19.0076 H   0  0  0  0  0  0
   28.9198    7.9705   16.8391 H   0  0  0  0  0  0
   29.5792    8.2257   18.4904 H   0  0  0  0  0  0
   27.8076    6.9839   19.5177 H   0  0  0  0  0  0
   27.8902    6.1181   17.9460 H   0  0  0  0  0  0
   25.4549   11.2289   16.6219 H   0  0  0  0  0  0
   25.4232    9.7353   13.9573 H   0  0  0  0  0  0
   23.2402   11.7736   14.5470 H   0  0  0  0  0  0
   23.6524   10.9355   12.1982 H   0  0  0  0  0  0
   22.0354   10.4554   12.8160 H   0  0  0  0  0  0
   23.3733    9.2575   12.7756 H   0  0  0  0  0  0
   23.0680   10.1419   16.3742 H   0  0  0  0  0  0
   23.0370    8.8008   15.1796 H   0  0  0  0  0  0
   21.6991    9.9987   15.2200 H   0  0  0  0  0  0
   25.3650   11.1675   11.9863 H   0  0  0  0  0  0
   26.9002   13.6850   12.7094 H   0  0  0  0  0  0
   27.7292   11.7705   10.4095 H   0  0  0  0  0  0
   28.7505   13.0128   11.2096 H   0  0  0  0  0  0
   29.7533   12.5868   13.4141 H   0  0  0  0  0  0
   27.5259    9.5284   11.3024 H   0  0  0  0  0  0
   30.7331   10.8343   14.8912 H   0  0  0  0  0  0
   28.4994    7.7778   12.7837 H   0  0  0  0  0  0
   30.9113    8.5646   15.5535 H   0  0  0  0  0  0
   27.0544   15.3254   11.0854 H   0  0  0  0  0  0
   24.5700   15.0261    9.3640 H   0  0  0  0  0  0
   26.5043   17.3895    9.5888 H   0  0  0  0  0  0
   25.8080   16.6433   11.8007 H   0  0  0  0  0  0
   25.1431   18.2535   11.3628 H   0  0  0  0  0  0
   24.8589   17.4510    7.7009 H   0  0  0  0  0  0
   24.5296   18.7256    8.9230 H   0  0  0  0  0  0
   23.5188   17.2414    8.8786 H   0  0  0  0  0  0
   23.4350   16.8326   12.4161 H   0  0  0  0  0  0
   23.6849   15.5882   11.1451 H   0  0  0  0  0  0
   23.0200   17.1984   10.7071 H   0  0  0  0  0  0
   27.5919   14.2883    6.2782 H   0  0  0  0  0  0
   26.2304   15.1128    3.8389 H   0  0  0  0  0  0
   26.2495   13.4537    4.5272 H   0  0  0  0  0  0
   24.0312   15.2105    4.3275 H   0  0  0  0  0  0
   24.1121   13.6501    5.2136 H   0  0  0  0  0  0
   23.7660   14.9150    7.1102 H   0  0  0  0  0  0
   24.2114   16.4431    6.2774 H   0  0  0  0  0  0
   29.1910   15.0638    4.7832 H   0  0  0  0  0  0
   29.6536   17.9103    5.1836 H   0  0  0  0  0  0
   31.5002   16.5320    4.5581 H   0  0  0  0  0  0
   30.6980   16.0258    3.0327 H   0  0  0  0  0  0
   30.8716   18.6483    2.5455 H   0  0  0  0  0  0
   32.2532   18.4756    3.6803 H   0  0  0  0  0  0
   33.3036   17.9500    1.6611 H   0  0  0  0  0  0
   32.7716   16.3137    2.1772 H   0  0  0  0  0  0
   31.9943   17.7490   -0.2848 H   0  0  0  0  0  0
   30.5332   16.9286   -1.6500 H   0  0  0  0  0  0
   30.6665   15.4944    2.2915 H   0  0  0  0  0  0
   29.3860   14.8167    1.0541 H   0  0  0  0  0  0
   26.7560   19.4816    2.1466 H   0  0  0  0  0  0
   27.8327   21.9588    1.7276 H   0  0  0  0  0  0
   26.9437   21.5859    3.2432 H   0  0  0  0  0  0
   29.9440   21.6379    2.7283 H   0  0  0  0  0  0
   29.0220   22.3536    4.0937 H   0  0  0  0  0  0
   28.7588   20.2561    5.1730 H   0  0  0  0  0  0
   30.2672   19.8700    4.2772 H   0  0  0  0  0  0
   26.7184   18.7716    0.0996 H   0  0  0  0  0  0
   28.2625   18.6802   -1.0129 H   0  0  0  0  0  0
   29.3149   15.5870   -1.0619 H   0  0  0  0  0  0
   24.1322   -0.3650   14.0119 H   0  0  0  0  0  0
  1  2  1  0  0  0
  1 72  1  0  0  0
  1 73  1  0  0  0
  1 74  1  0  0  0
  2  3  1  0  0  0
  2  5  1  0  0  0
  2 75  1  0  0  0
  3  4  2  0  0  0
  3 12  1  0  0  0
  5  6  1  0  0  0
  5 76  1  0  0  0
  5 77  1  0  0  0
  6  7  1  0  0  0
  6 78  1  0  0  0
  6 79  1  0  0  0
  7  8  1  0  0  0
  7 80  1  0  0  0
  7 81  1  0  0  0
  8  9  1  0  0  0
  8 82  1  0  0  0
  9 10  1  0  0  0
  9 11  2  0  0  0
 10 83  1  0  0  0
 10 84  1  0  0  0
 11 85  1  0  0  0
 11151  1  0  0  0
 12 13  1  0  0  0
 12 18  1  0  0  0
 13 14  1  0  0  0
 13 16  1  0  0  0
 13 86  1  0  0  0
 14 15  2  0  0  0
 14 19  1  0  0  0
 16 17  1  0  0  0
 16 87  1  0  0  0
 16 88  1  0  0  0
 17 18  1  0  0  0
 17 89  1  0  0  0
 17 90  1  0  0  0
 18 91  1  0  0  0
 18 92  1  0  0  0
 19 20  1  0  0  0
 19 93  1  0  0  0
 20 21  1  0  0  0
 20 23  1  0  0  0
 20 94  1  0  0  0
 21 22  2  0  0  0
 21 26  1  0  0  0
 23 24  1  0  0  0
 23 25  1  0  0  0
 23 95  1  0  0  0
 24 96  1  0  0  0
 24 97  1  0  0  0
 24 98  1  0  0  0
 25 99  1  0  0  0
 25100  1  0  0  0
 25101  1  0  0  0
 26 27  1  0  0  0
 26102  1  0  0  0
 27 28  1  0  0  0
 27 30  1  0  0  0
 27103  1  0  0  0
 28 29  2  0  0  0
 28 38  1  0  0  0
 30 31  1  0  0  0
 30104  1  0  0  0
 30105  1  0  0  0
 31 32  2  0  0  0
 31 33  1  0  0  0
 32 34  1  0  0  0
 32106  1  0  0  0
 33 35  2  0  0  0
 33107  1  0  0  0
 34 36  2  0  0  0
 34108  1  0  0  0
 35 36  1  0  0  0
 35109  1  0  0  0
 36 37  1  0  0  0
 37110  1  0  0  0
 38 39  1  0  0  0
 38111  1  0  0  0
 39 40  1  0  0  0
 39 42  1  0  0  0
 39112  1  0  0  0
 40 41  2  0  0  0
 40 46  1  0  0  0
 42 43  1  0  0  0
 42 44  1  0  0  0
 42113  1  0  0  0
 43 45  1  0  0  0
 43114  1  0  0  0
 43115  1  0  0  0
 44116  1  0  0  0
 44117  1  0  0  0
 44118  1  0  0  0
 45119  1  0  0  0
 45120  1  0  0  0
 45121  1  0  0  0
 46 47  1  0  0  0
 46 52  1  0  0  0
 47 48  1  0  0  0
 47 50  1  0  0  0
 47122  1  0  0  0
 48 49  2  0  0  0
 48 53  1  0  0  0
 50 51  1  0  0  0
 50123  1  0  0  0
 50124  1  0  0  0
 51 52  1  0  0  0
 51125  1  0  0  0
 51126  1  0  0  0
 52127  1  0  0  0
 52128  1  0  0  0
 53 54  1  0  0  0
 53129  1  0  0  0
 54 55  1  0  0  0
 54 57  1  0  0  0
 54130  1  0  0  0
 55 56  2  0  0  0
 55 64  1  0  0  0
 57 58  1  0  0  0
 57131  1  0  0  0
 57132  1  0  0  0
 58 59  1  0  0  0
 58133  1  0  0  0
 58134  1  0  0  0
 59 60  1  0  0  0
 59135  1  0  0  0
 59136  1  0  0  0
 60 61  1  0  0  0
 60137  1  0  0  0
 61 62  2  0  0  0
 61 63  1  0  0  0
 62138  1  0  0  0
 62150  1  0  0  0
 63139  1  0  0  0
 63140  1  0  0  0
 64 65  1  0  0  0
 64 70  1  0  0  0
 65 66  1  0  0  0
 65 68  1  0  0  0
 65141  1  0  0  0
 66 67  2  0  0  0
 66 71  1  0  0  0
 68 69  1  0  0  0
 68142  1  0  0  0
 68143  1  0  0  0
 69 70  1  0  0  0
 69144  1  0  0  0
 69145  1  0  0  0
 70146  1  0  0  0
 70147  1  0  0  0
 71148  1  0  0  0
 71149  1  0  0  0
M  CHG  3   1   1  11   1  62   1
M  END
> <s_m_source_file>
../4e81_ligand.sdf

> <i_m_source_file_index>
1

> <s_epik_input>
W0hdL049QyhbTkgyXSlcW05IXVtDSDJdW0NIMl1bQ0gyXVtDQEhdKFtOSDMrXSlDKD1PKU4xW0NAQEhdKFtDSDJdW0NIMl1bQ0gyXTEpQyg9TylbTkhdW0NAQEhdKFtDSF0oW0NIM10pW0NIM10pQyg9TylbTkhdW0NAQEhdKFtDSDJdYzJbY0hdW2NIXWMoW09IXSlbY0hdW2NIXTIpQyg9TylbTkhdW0NAQEhdKFtDQEBIXShbQ0gzXSlbQ0gyXVtDSDNdKUMoPU8pTjNbQ0BASF0oW0NIMl1bQ0gyXVtDSDJdMylDKD1PKVtOSF1bQ0BIXShDKD1PKU40W0NASF0oQyg9TylbTkgyXSlbQ0gyXVtDSDJdW0NIMl00KVtDSDJdW0NIMl1bQ0gyXVtOSF0vQyg9TlxbSF0pW05IMl0=

> <s_epik_cmdline>
J2VwaWtfYXBwJywgJy1pbWFlJywgJ2xpZ2FuZF9wcm8ubWFlJywgJy1vbWFlJywgJ2xpZ2FuZF9wcmVwLm1hZScsICctbXMnLCAnMScsICctcGgnLCAnNycsICctcGh0JywgJzAuNScsICctbnQn

> <r_lp_tautomer_probability>
0.999999999997365

> <r_epik_Ionization_Penalty>
  0.1282

> <r_epik_Ionization_Penalty_Charging>
  0.1273

> <r_epik_Ionization_Penalty_Neutral>
  0.0009

> <r_epik_State_Penalty>
  0.1167

> <r_epik_Charging_Adjusted_Penalty>
0.243979599713105

> <i_epik_Tot_Q>
3

> <i_epik_Tot_abs_Q>
3

> <s_epik_Chemistry_Notes>
This compound has an imine and may undergo hydrolysis.

$$$$
