4e8w_ligand
                    3D
 Schrodinger Suite 2020-3.
 50 53  0  0  1  0            999 V2000
   13.1860  -41.6630  -22.5900 O   0  5  0  0  0  0
   13.4870  -40.5200  -23.0010 C   0  0  0  0  0  0
   12.6570  -39.5930  -23.1230 O   0  0  0  0  0  0
   14.9190  -40.2340  -23.3820 C   0  0  0  0  0  0
   15.0940  -38.8210  -23.4080 O   0  0  0  0  0  0
   16.1970  -38.2720  -23.9930 C   0  0  0  0  0  0
   17.0250  -39.0580  -24.7900 C   0  0  0  0  0  0
   16.4660  -36.9250  -23.7860 C   0  0  0  0  0  0
   17.5810  -36.3520  -24.3730 C   0  0  0  0  0  0
   18.3970  -37.1510  -25.1610 C   0  0  0  0  0  0
   18.1470  -38.4970  -25.3880 C   0  0  0  0  0  0
   19.1210  -39.0220  -26.2040 N   0  0  0  0  0  0
   19.7210  -36.6040  -25.9050 S   0  0  0  0  0  0
   20.0620  -38.1020  -26.5690 C   0  0  0  0  0  0
   21.3090  -38.1320  -27.4240 C   0  0  0  0  0  0
   22.2430  -39.1050  -26.8930 N   0  0  0  0  0  0
   22.6150  -39.0190  -25.6010 C   0  0  0  0  0  0
   23.5630  -38.1520  -25.1970 N   0  0  0  0  0  0
   23.9200  -38.0940  -23.8470 N   0  0  0  0  0  0
   23.3240  -38.9030  -22.9590 C   0  0  0  0  0  0
   22.0210  -39.8330  -24.7110 N   0  0  0  0  0  0
   22.3500  -39.7910  -23.4080 C   0  0  0  0  0  0
   21.6390  -40.7080  -22.4900 C   0  0  0  0  0  0
   22.1900  -41.9300  -22.1770 C   0  0  0  0  0  0
   23.4030  -42.2820  -22.7360 O   0  0  0  0  0  0
   24.4970  -42.7410  -21.9200 C   0  0  0  0  0  0
   20.4240  -40.3380  -21.9630 C   0  0  0  0  0  0
   19.9000  -39.1140  -22.2900 O   0  0  0  0  0  0
   18.7490  -38.6060  -21.6020 C   0  0  0  0  0  0
   19.7460  -41.1980  -21.1080 C   0  0  0  0  0  0
   20.2950  -42.4340  -20.7880 C   0  0  0  0  0  0
   21.5180  -42.8050  -21.3290 C   0  0  0  0  0  0
   15.5932  -40.6866  -22.6400 H   0  0  0  0  0  0
   15.1266  -40.6607  -24.3744 H   0  0  0  0  0  0
   16.7935  -40.1118  -24.9447 H   0  0  0  0  0  0
   15.8029  -36.3227  -23.1649 H   0  0  0  0  0  0
   17.8125  -35.2979  -24.2198 H   0  0  0  0  0  0
   21.0406  -38.4090  -28.4542 H   0  0  0  0  0  0
   21.7788  -37.1374  -27.4223 H   0  0  0  0  0  0
   22.6381  -39.8998  -27.5428 H   0  0  0  0  0  0
   23.5972  -38.8661  -21.9044 H   0  0  0  0  0  0
   25.3626  -42.9663  -22.5603 H   0  0  0  0  0  0
   24.1947  -43.6498  -21.3789 H   0  0  0  0  0  0
   24.7694  -41.9576  -21.1975 H   0  0  0  0  0  0
   18.4861  -37.6178  -22.0073 H   0  0  0  0  0  0
   18.9740  -38.5143  -20.5292 H   0  0  0  0  0  0
   17.9040  -39.2963  -21.7418 H   0  0  0  0  0  0
   18.7841  -40.9035  -20.6884 H   0  0  0  0  0  0
   19.7671  -43.1094  -20.1147 H   0  0  0  0  0  0
   21.9500  -43.7770  -21.0908 H   0  0  0  0  0  0
  1  2  1  0  0  0
  2  3  2  0  0  0
  2  4  1  0  0  0
  4  5  1  0  0  0
  4 33  1  0  0  0
  4 34  1  0  0  0
  5  6  1  0  0  0
  6  7  1  0  0  0
  6  8  2  0  0  0
  7 11  2  0  0  0
  7 35  1  0  0  0
  8  9  1  0  0  0
  8 36  1  0  0  0
  9 10  2  0  0  0
  9 37  1  0  0  0
 10 11  1  0  0  0
 10 13  1  0  0  0
 11 12  1  0  0  0
 12 14  2  0  0  0
 13 14  1  0  0  0
 14 15  1  0  0  0
 15 16  1  0  0  0
 15 38  1  0  0  0
 15 39  1  0  0  0
 16 17  1  0  0  0
 16 40  1  0  0  0
 17 18  2  0  0  0
 17 21  1  0  0  0
 18 19  1  0  0  0
 19 20  2  0  0  0
 20 22  1  0  0  0
 20 41  1  0  0  0
 21 22  2  0  0  0
 22 23  1  0  0  0
 23 24  2  0  0  0
 23 27  1  0  0  0
 24 25  1  0  0  0
 24 32  1  0  0  0
 25 26  1  0  0  0
 26 42  1  0  0  0
 26 43  1  0  0  0
 26 44  1  0  0  0
 27 28  1  0  0  0
 27 30  2  0  0  0
 28 29  1  0  0  0
 29 45  1  0  0  0
 29 46  1  0  0  0
 29 47  1  0  0  0
 30 31  1  0  0  0
 30 48  1  0  0  0
 31 32  2  0  0  0
 31 49  1  0  0  0
 32 50  1  0  0  0
M  CHG  1   1  -1
M  END
> <s_m_source_file>
../4e8w_ligand.sdf

> <i_m_source_file_index>
1

> <s_epik_input>
W09IXUMoPU8pW0NIMl1PYyhbY0hdW2NIXTEpW2NIXWMoYzEyKW5jKHMyKVtDSDJdW05IXWMzbm5bY0hdYyhuMyktYzRjKE9bQ0gzXSlbY0hdW2NIXVtjSF1jNE9bQ0gzXQ==

> <s_epik_cmdline>
J2VwaWtfYXBwJywgJy1pbWFlJywgJ2xpZ2FuZF9wcm8ubWFlJywgJy1vbWFlJywgJ2xpZ2FuZF9wcmVwLm1hZScsICctbXMnLCAnMScsICctcGgnLCAnNycsICctcGh0JywgJzAuNScsICctbnQn

> <r_lp_tautomer_probability>
0.999999252196394

> <r_epik_Ionization_Penalty>
  0.0136

> <r_epik_Ionization_Penalty_Charging>
  0.0001

> <r_epik_Ionization_Penalty_Neutral>
  0.0135

> <r_epik_State_Penalty>
  0.0105

> <r_epik_Charging_Adjusted_Penalty>
0.0105225123976248

> <i_epik_Tot_Q>
-1

> <i_epik_Tot_abs_Q>
1

$$$$
