4e8z_ligand
                    3D
 Schrodinger Suite 2020-3.
 42 45  0  0  1  0            999 V2000
  -14.0570    3.0480   21.2320 Cl  0  0  0  0  0  0
  -10.5330    7.1430   22.4250 Cl  0  0  0  0  0  0
  -20.9930    3.9970   21.3160 C   0  0  0  0  0  0
  -11.6760    2.3050   25.5540 N   0  0  0  0  0  0
  -20.7160    5.1800   21.4200 O   0  0  0  0  0  0
  -20.0690    2.9590   21.9050 C   0  0  0  0  0  0
  -10.0280    2.4890   23.9110 N   0  0  0  0  0  0
  -22.1070    3.6450   20.6790 O   0  5  0  0  0  0
  -18.1430    3.0380   23.3790 C   0  0  0  0  0  0
   -9.5520    3.0210   22.7060 N   0  0  0  0  0  0
  -19.3230    3.5830   22.9480 O   0  0  0  0  0  0
  -17.8090    1.7460   22.9850 C   0  0  0  0  0  0
  -12.0000    3.7190   23.6710 N   0  0  0  0  0  0
  -16.6140    1.1830   23.4140 C   0  0  0  0  0  0
  -15.0800    3.7090   25.4300 N   0  0  0  0  0  0
  -15.7720    1.9300   24.2270 C   0  0  0  0  0  0
  -14.0550    2.8250   25.6090 C   0  0  0  0  0  0
  -12.7450    2.8740   26.3650 C   0  0  0  0  0  0
  -11.2420    2.8480   24.3840 C   0  0  0  0  0  0
  -10.3050    3.8830   22.0160 C   0  0  0  0  0  0
  -11.5530    4.2500   22.5070 C   0  0  0  0  0  0
  -12.4010    5.2080   21.7390 C   0  0  0  0  0  0
  -13.5600    4.7690   21.1130 C   0  0  0  0  0  0
  -14.3480    5.6610   20.3920 C   0  0  0  0  0  0
  -13.9790    6.9950   20.2890 C   0  0  0  0  0  0
  -12.8170    7.4320   20.9120 C   0  0  0  0  0  0
  -12.0270    6.5410   21.6300 C   0  0  0  0  0  0
  -16.0850    3.2220   24.6310 C   0  0  0  0  0  0
  -17.2870    3.7760   24.1960 C   0  0  0  0  0  0
  -14.3540    1.3940   24.7940 S   0  0  0  0  0  0
  -11.1702    1.3837   25.8786 H   0  0  0  0  0  0
  -20.6631    2.1248   22.3065 H   0  0  0  0  0  0
  -19.3925    2.5842   21.1228 H   0  0  0  0  0  0
  -18.4821    1.1783   22.3426 H   0  0  0  0  0  0
  -16.3413    0.1703   23.1170 H   0  0  0  0  0  0
  -12.8446    2.2979   27.2968 H   0  0  0  0  0  0
  -12.5060    3.9206   26.6048 H   0  0  0  0  0  0
   -9.9431    4.2957   21.0743 H   0  0  0  0  0  0
  -15.2587    5.3106   19.9062 H   0  0  0  0  0  0
  -14.5959    7.6938   19.7240 H   0  0  0  0  0  0
  -12.5229    8.4789   20.8377 H   0  0  0  0  0  0
  -17.5589    4.7883   24.4948 H   0  0  0  0  0  0
  1 23  1  0  0  0
  2 27  1  0  0  0
  3  5  2  0  0  0
  3  6  1  0  0  0
  3  8  1  0  0  0
  4 18  1  0  0  0
  4 19  1  0  0  0
  4 31  1  0  0  0
  6 11  1  0  0  0
  6 32  1  0  0  0
  6 33  1  0  0  0
  7 10  2  0  0  0
  7 19  1  0  0  0
  9 11  1  0  0  0
  9 12  1  0  0  0
  9 29  2  0  0  0
 10 20  1  0  0  0
 12 14  2  0  0  0
 12 34  1  0  0  0
 13 19  2  0  0  0
 13 21  1  0  0  0
 14 16  1  0  0  0
 14 35  1  0  0  0
 15 17  2  0  0  0
 15 28  1  0  0  0
 16 28  2  0  0  0
 16 30  1  0  0  0
 17 18  1  0  0  0
 17 30  1  0  0  0
 18 36  1  0  0  0
 18 37  1  0  0  0
 20 21  2  0  0  0
 20 38  1  0  0  0
 21 22  1  0  0  0
 22 23  2  0  0  0
 22 27  1  0  0  0
 23 24  1  0  0  0
 24 25  2  0  0  0
 24 39  1  0  0  0
 25 26  1  0  0  0
 25 40  1  0  0  0
 26 27  2  0  0  0
 26 41  1  0  0  0
 28 29  1  0  0  0
 29 42  1  0  0  0
M  CHG  1   8  -1
M  END
> <s_m_source_file>
../4e8z_ligand.sdf

> <i_m_source_file_index>
1

> <s_epik_input>
Q2xjMVtjSF1bY0hdW2NIXWMoQ2wpYzEtYyhuMilbY0hdbm5jMltOSF1bQ0gyXWMoczMpbmMoYzM0KVtjSF1jKFtjSF1bY0hdNClPW0NIMl1DKD1PKVtPSF0=

> <s_epik_cmdline>
J2VwaWtfYXBwJywgJy1pbWFlJywgJ2xpZ2FuZF9wcm8ubWFlJywgJy1vbWFlJywgJ2xpZ2FuZF9wcmVwLm1hZScsICctbXMnLCAnMScsICctcGgnLCAnNycsICctcGh0JywgJzAuNScsICctbnQn

> <r_lp_tautomer_probability>
0.999999252196394

> <r_epik_Ionization_Penalty>
  0.0135

> <r_epik_Ionization_Penalty_Charging>
  0.0001

> <r_epik_Ionization_Penalty_Neutral>
  0.0135

> <r_epik_State_Penalty>
  0.0105

> <r_epik_Charging_Adjusted_Penalty>
0.0105225123976248

> <i_epik_Tot_Q>
-1

> <i_epik_Tot_abs_Q>
1

$$$$
