4e90_ligand
                    3D
 Schrodinger Suite 2020-3.
 55 59  0  0  1  0            999 V2000
   77.8500   51.0390   42.1990 N   0  0  0  0  0  0
   78.4570   50.5020   43.3420 N   0  0  0  0  0  0
   77.7490   50.8010   44.3920 C   0  0  0  0  0  0
   76.6640   51.6000   43.9900 C   0  0  0  0  0  0
   75.5540   52.2770   44.6750 C   0  0  0  0  0  0
   75.4030   52.2170   45.8860 O   0  0  0  0  0  0
   74.7020   52.9970   43.8970 N   0  0  0  0  0  0
   74.8650   53.0910   42.5430 C   0  0  0  0  0  0
   75.8420   52.4850   41.9220 N   0  0  0  0  0  0
   76.7510   51.7340   42.5880 C   0  0  0  0  0  0
   73.8980   53.9560   41.7640 C   0  0  2  0  0  0
   73.1960   53.1980   40.6220 C   0  0  0  0  0  0
   73.5670   53.9320   39.4020 N   0  3  2  0  0  0
   73.7970   55.3320   39.7850 C   0  0  0  0  0  0
   74.6070   55.1690   41.0880 C   0  0  1  0  0  0
   72.4070   53.9170   38.5100 C   0  0  0  0  0  0
   72.5040   52.7440   37.5750 C   0  0  0  0  0  0
   73.6950   52.3270   37.1540 N   0  0  0  0  0  0
   73.7930   51.3100   36.2990 C   0  0  0  0  0  0
   72.6310   50.6640   35.8630 C   0  0  0  0  0  0
   71.4000   51.1250   36.3420 C   0  0  0  0  0  0
   71.3780   52.1510   37.1930 N   0  0  0  0  0  0
   78.3460   50.9970   40.8290 C   0  0  0  0  0  0
   77.9510   49.7090   40.0900 C   0  0  0  0  0  0
   78.5560   49.7750   38.6720 C   0  0  0  0  0  0
   79.9850   49.9280   38.7610 O   0  0  0  0  0  0
   80.3390   51.2120   39.2990 C   0  0  0  0  0  0
   79.8470   51.3380   40.7490 C   0  0  0  0  0  0
   74.5240   56.4260   41.9530 C   0  0  0  0  0  0
   77.9616   50.4847   45.4132 H   0  0  0  0  0  0
   73.1751   54.2603   42.5352 H   0  0  0  0  0  0
   73.5541   52.1582   40.5976 H   0  0  0  0  0  0
   72.1089   53.2075   40.7895 H   0  0  0  0  0  0
   74.4508   53.4898   38.9190 H   0  0  0  0  0  0
   74.3562   55.8432   38.9875 H   0  0  0  0  0  0
   72.8302   55.8347   39.9350 H   0  0  0  0  0  0
   75.6863   55.0295   40.9277 H   0  0  0  0  0  0
   71.4867   53.8333   39.1067 H   0  0  0  0  0  0
   72.3817   54.8487   37.9257 H   0  0  0  0  0  0
   74.7700   50.9840   35.9422 H   0  0  0  0  0  0
   72.6834   49.8248   35.1694 H   0  0  0  0  0  0
   70.4712   50.6516   36.0236 H   0  0  0  0  0  0
   77.7972   51.8113   40.3332 H   0  0  0  0  0  0
   78.3464   48.8384   40.6337 H   0  0  0  0  0  0
   76.8546   49.6396   40.0345 H   0  0  0  0  0  0
   78.3216   48.8471   38.1298 H   0  0  0  0  0  0
   78.1303   50.6331   38.1313 H   0  0  0  0  0  0
   81.4326   51.3286   39.2800 H   0  0  0  0  0  0
   79.8752   52.0041   38.6928 H   0  0  0  0  0  0
   80.0078   52.3690   41.0970 H   0  0  0  0  0  0
   80.4152   50.6435   41.3852 H   0  0  0  0  0  0
   75.1102   56.2781   42.8719 H   0  0  0  0  0  0
   73.4739   56.6217   42.2155 H   0  0  0  0  0  0
   74.9281   57.2830   41.3942 H   0  0  0  0  0  0
   73.8523   53.5248   44.3546 H   0  0  0  0  0  0
  1  2  1  0  0  0
  1 10  1  0  0  0
  1 23  1  0  0  0
  2  3  2  0  0  0
  3  4  1  0  0  0
  3 30  1  0  0  0
  4  5  1  0  0  0
  4 10  2  0  0  0
  5  6  2  0  0  0
  5  7  1  0  0  0
  7  8  1  0  0  0
  7 55  1  0  0  0
  8  9  2  0  0  0
  8 11  1  0  0  0
  9 10  1  0  0  0
 11 12  1  0  0  0
 11 15  1  0  0  0
 11 31  1  0  0  0
 12 13  1  0  0  0
 12 32  1  0  0  0
 12 33  1  0  0  0
 13 14  1  0  0  0
 13 16  1  0  0  0
 13 34  1  0  0  0
 14 15  1  0  0  0
 14 35  1  0  0  0
 14 36  1  0  0  0
 15 29  1  0  0  0
 15 37  1  0  0  0
 16 17  1  0  0  0
 16 38  1  0  0  0
 16 39  1  0  0  0
 17 18  2  0  0  0
 17 22  1  0  0  0
 18 19  1  0  0  0
 19 20  2  0  0  0
 19 40  1  0  0  0
 20 21  1  0  0  0
 20 41  1  0  0  0
 21 22  2  0  0  0
 21 42  1  0  0  0
 23 24  1  0  0  0
 23 28  1  0  0  0
 23 43  1  0  0  0
 24 25  1  0  0  0
 24 44  1  0  0  0
 24 45  1  0  0  0
 25 26  1  0  0  0
 25 46  1  0  0  0
 25 47  1  0  0  0
 26 27  1  0  0  0
 27 28  1  0  0  0
 27 48  1  0  0  0
 27 49  1  0  0  0
 28 50  1  0  0  0
 28 51  1  0  0  0
 29 52  1  0  0  0
 29 53  1  0  0  0
 29 54  1  0  0  0
M  CHG  1  13   1
M  END
> <s_m_source_file>
../4e90_ligand.sdf

> <i_m_source_file_index>
1

> <s_epik_input>
W0NIMl0xW0NIMl1PW0NIMl1bQ0gyXVtDSF0xbihuW2NIXTIpYyhjMjMpW25IXWMobmMzPU8pW0NAQEhdNFtDSDJdW05ASCtdKFtDSDJdW0NASF00W0NIM10pW0NIMl1jNW5bY0hdW2NIXVtjSF1uNQ==

> <s_epik_cmdline>
J2VwaWtfYXBwJywgJy1pbWFlJywgJ2xpZ2FuZF9wcm8ubWFlJywgJy1vbWFlJywgJ2xpZ2FuZF9wcmVwLm1hZScsICctbXMnLCAnMScsICctcGgnLCAnNycsICctcGh0JywgJzAuNScsICctbnQn

> <r_lp_tautomer_probability>
1

> <r_epik_Ionization_Penalty>
  0.1925

> <r_epik_Ionization_Penalty_Charging>
  0.1925

> <r_epik_Ionization_Penalty_Neutral>
  0.0000

> <r_epik_State_Penalty>
 -0.0000

> <r_epik_Charging_Adjusted_Penalty>
0.192546132763601

> <i_epik_Tot_Q>
1

> <i_epik_Tot_abs_Q>
1

> <s_epik_Chemistry_Notes>
This compound contains an electron-poor aromatic ring that is susceptible to covalent hydrolysis at low pH, typically resulting in measured values for nitrogen ring protonation that are around two units higher than predicted values.

$$$$
