4e93_ligand
                    3D
 Schrodinger Suite 2020-3.
 83 87  0  0  1  0            999 V2000
    2.0770   14.3910   23.7010 C   0  0  0  0  0  0
    2.4490   15.5000   24.4940 C   0  0  0  0  0  0
    1.4880   16.1830   25.1490 N   0  0  0  0  0  0
    0.2280   15.7720   25.1410 C   0  0  0  0  0  0
   -0.1570   14.6940   24.3790 N   0  0  0  0  0  0
    0.7450   13.9990   23.7120 C   0  0  0  0  0  0
   -0.7070   16.4230   25.7820 N   0  0  0  0  0  0
   -0.5960   17.4730   26.6370 C   0  0  0  0  0  0
    0.5700   17.7530   27.3490 C   0  0  0  0  0  0
    0.6150   18.8670   28.1920 C   0  0  0  0  0  0
   -0.4880   19.7080   28.3160 C   0  0  0  0  0  0
   -1.6480   19.4670   27.5600 C   0  0  0  0  0  0
   -1.6740   18.3280   26.7390 C   0  0  0  0  0  0
   -2.7730   18.0310   26.0150 O   0  0  0  0  0  0
   -3.8470   18.9800   26.1190 C   0  0  0  0  0  0
   -0.3650   20.8640   29.1480 N   0  0  0  0  0  0
    0.6370   20.8540   30.2660 C   0  0  0  0  0  0
    0.5260   22.0410   31.2410 C   0  0  0  0  0  0
    0.2780   23.4090   30.5840 C   0  0  0  0  0  0
   -0.9500   23.3420   29.6250 C   0  0  0  0  0  0
   -0.9390   22.1430   28.6030 C   0  0  0  0  0  0
   -0.0180   24.5080   31.6190 N   0  3  1  0  0  0
    1.1370   24.8190   32.4080 C   0  0  0  0  0  0
    0.7630   26.0320   33.3340 C   0  0  0  0  0  0
   -0.2830   26.9140   32.7550 N   0  0  2  0  0  0
   -0.4620   26.9390   31.3120 C   0  0  0  0  0  0
   -0.5180   25.5350   30.7440 C   0  0  0  0  0  0
   -0.0670   28.3130   33.1810 C   0  0  0  0  0  0
    3.7340   15.8670   24.5110 N   0  0  0  0  0  0
    4.2700   16.9410   25.1510 C   0  0  0  0  0  0
    5.6360   16.9570   25.4930 C   0  0  0  0  0  0
    6.1360   18.1020   26.1670 C   0  0  0  0  0  0
    5.3470   19.2160   26.4420 C   0  0  0  0  0  0
    3.9940   19.2060   26.1160 C   0  0  0  0  0  0
    3.5020   18.0460   25.4850 C   0  0  0  0  0  0
    6.7120   15.6950   25.2160 S   0  0  0  0  0  0
    6.7930   14.6930   26.7270 C   0  0  0  0  0  0
    5.4070   14.0960   26.9570 C   0  0  0  0  0  0
    7.2060   15.5250   27.9370 C   0  0  0  0  0  0
    8.1260   16.1550   24.9640 O   0  0  0  0  0  0
    6.2780   14.8260   24.0870 O   0  0  0  0  0  0
    3.2470   13.4590   22.8500 Cl  0  0  0  0  0  0
    0.4410   13.1074   23.1636 H   0  0  0  0  0  0
   -1.7612   16.1338   25.6596 H   0  0  0  0  0  0
    1.4418   17.1064   27.2486 H   0  0  0  0  0  0
    1.5221   19.0795   28.7578 H   0  0  0  0  0  0
   -2.5013   20.1434   27.6094 H   0  0  0  0  0  0
   -4.6906   18.6488   25.4956 H   0  0  0  0  0  0
   -3.5005   19.9652   25.7736 H   0  0  0  0  0  0
   -4.1720   19.0525   27.1674 H   0  0  0  0  0  0
    0.5105   19.9392   30.8635 H   0  0  0  0  0  0
    1.6539   20.8808   29.8473 H   0  0  0  0  0  0
   -0.3120   21.8701   31.9328 H   0  0  0  0  0  0
    1.4608   22.1341   31.8133 H   0  0  0  0  0  0
    1.2079   23.6539   30.0498 H   0  0  0  0  0  0
   -1.8719   23.2406   30.2164 H   0  0  0  0  0  0
   -0.9981   24.2633   29.0260 H   0  0  0  0  0  0
   -0.3485   22.4689   27.7340 H   0  0  0  0  0  0
   -1.9818   21.9753   28.2956 H   0  0  0  0  0  0
   -0.7204   24.3315   32.4469 H   0  0  0  0  0  0
    1.4137   23.9436   33.0139 H   0  0  0  0  0  0
    1.9733   25.0850   31.7448 H   0  0  0  0  0  0
    0.3835   25.6559   34.2955 H   0  0  0  0  0  0
    1.6566   26.6492   33.5087 H   0  0  0  0  0  0
   -1.4025   27.4546   31.0681 H   0  0  0  0  0  0
    0.3800   27.4729   30.8472 H   0  0  0  0  0  0
    0.0724   25.5454   29.8159 H   0  0  0  0  0  0
   -1.5725   25.3321   30.5054 H   0  0  0  0  0  0
    0.0743   28.3466   34.2714 H   0  0  0  0  0  0
   -0.9426   28.9194   32.9059 H   0  0  0  0  0  0
    0.8279   28.7140   32.6827 H   0  0  0  0  0  0
    4.4828   15.2734   23.9660 H   0  0  0  0  0  0
    7.1795   18.1095   26.4819 H   0  0  0  0  0  0
    5.7885   20.0948   26.9120 H   0  0  0  0  0  0
    3.3464   20.0542   26.3380 H   0  0  0  0  0  0
    2.4399   18.0152   25.2417 H   0  0  0  0  0  0
    7.5057   13.8565   26.7750 H   0  0  0  0  0  0
    5.1156   13.4977   26.0812 H   0  0  0  0  0  0
    4.6787   14.9068   27.1060 H   0  0  0  0  0  0
    5.4281   13.4534   27.8495 H   0  0  0  0  0  0
    8.2050   15.9520   27.7647 H   0  0  0  0  0  0
    7.2301   14.8848   28.8312 H   0  0  0  0  0  0
    6.4807   16.3382   28.0876 H   0  0  0  0  0  0
  1  2  2  0  0  0
  1  6  1  0  0  0
  1 42  1  0  0  0
  2  3  1  0  0  0
  2 29  1  0  0  0
  3  4  2  0  0  0
  4  5  1  0  0  0
  4  7  1  0  0  0
  5  6  2  0  0  0
  6 43  1  0  0  0
  7  8  1  0  0  0
  7 44  1  0  0  0
  8  9  2  0  0  0
  8 13  1  0  0  0
  9 10  1  0  0  0
  9 45  1  0  0  0
 10 11  2  0  0  0
 10 46  1  0  0  0
 11 12  1  0  0  0
 11 16  1  0  0  0
 12 13  2  0  0  0
 12 47  1  0  0  0
 13 14  1  0  0  0
 14 15  1  0  0  0
 15 48  1  0  0  0
 15 49  1  0  0  0
 15 50  1  0  0  0
 16 17  1  0  0  0
 16 21  1  0  0  0
 17 18  1  0  0  0
 17 51  1  0  0  0
 17 52  1  0  0  0
 18 19  1  0  0  0
 18 53  1  0  0  0
 18 54  1  0  0  0
 19 20  1  0  0  0
 19 22  1  0  0  0
 19 55  1  0  0  0
 20 21  1  0  0  0
 20 56  1  0  0  0
 20 57  1  0  0  0
 21 58  1  0  0  0
 21 59  1  0  0  0
 22 23  1  0  0  0
 22 27  1  0  0  0
 22 60  1  0  0  0
 23 24  1  0  0  0
 23 61  1  0  0  0
 23 62  1  0  0  0
 24 25  1  0  0  0
 24 63  1  0  0  0
 24 64  1  0  0  0
 25 26  1  0  0  0
 25 28  1  0  0  0
 26 27  1  0  0  0
 26 65  1  0  0  0
 26 66  1  0  0  0
 27 67  1  0  0  0
 27 68  1  0  0  0
 28 69  1  0  0  0
 28 70  1  0  0  0
 28 71  1  0  0  0
 29 30  1  0  0  0
 29 72  1  0  0  0
 30 31  2  0  0  0
 30 35  1  0  0  0
 31 32  1  0  0  0
 31 36  1  0  0  0
 32 33  2  0  0  0
 32 73  1  0  0  0
 33 34  1  0  0  0
 33 74  1  0  0  0
 34 35  2  0  0  0
 34 75  1  0  0  0
 35 76  1  0  0  0
 36 37  1  0  0  0
 36 40  2  0  0  0
 36 41  2  0  0  0
 37 38  1  0  0  0
 37 39  1  0  0  0
 37 77  1  0  0  0
 38 78  1  0  0  0
 38 79  1  0  0  0
 38 80  1  0  0  0
 39 81  1  0  0  0
 39 82  1  0  0  0
 39 83  1  0  0  0
M  CHG  1  22   1
M  END
> <s_m_source_file>
../4e93_ligand.sdf

> <i_m_source_file_index>
1

> <s_epik_input>
W2NIXTFbY0hdW2NIXVtjSF1jKFMoPU8pKD1PKVtDSF0oW0NIM10pW0NIM10pYzFbTkhdYyhjMkNsKW5jKG5bY0hdMilbTkhdYzNbY0hdW2NIXWMoW2NIXWMzT1tDSDNdKU40W0NIMl1bQ0gyXVtDSF0oW0NIMl1bQ0gyXTQpW05ASCtdNVtDSDJdW0NIMl1bTkBASCtdKFtDSDNdKVtDSDJdW0NIMl01

> <s_epik_cmdline>
J2VwaWtfYXBwJywgJy1pbWFlJywgJ2xpZ2FuZF9wcm8ubWFlJywgJy1vbWFlJywgJ2xpZ2FuZF9wcmVwLm1hZScsICctbXMnLCAnMScsICctcGgnLCAnNycsICctcGh0JywgJzAuNScsICctbnQn

> <r_lp_tautomer_probability>
1

> <r_epik_Ionization_Penalty>
  0.0088

> <r_epik_Ionization_Penalty_Charging>
  0.0007

> <r_epik_Ionization_Penalty_Neutral>
  0.0082

> <r_epik_State_Penalty>
 -0.0000

> <r_epik_Charging_Adjusted_Penalty>
0.00067218097609432

> <i_epik_Tot_Q>
1

> <i_epik_Tot_abs_Q>
1

$$$$
