4e9c_ligand
                    3D
 Schrodinger Suite 2020-3.
106108  0  0  1  0            999 V2000
   15.1810  -13.0560   17.7780 N   0  3  0  0  0  0
   14.3030  -11.9500   17.4040 C   0  0  2  0  0  0
   13.0410  -12.4390   16.6750 C   0  0  0  0  0  0
   12.9530  -13.6190   16.3290 O   0  0  0  0  0  0
   15.1900  -11.0970   16.4790 C   0  0  0  0  0  0
   16.5870  -11.4460   16.8600 C   0  0  0  0  0  0
   16.5370  -12.9010   17.2240 C   0  0  0  0  0  0
   12.0540  -11.5430   16.4620 N   0  0  0  0  0  0
   10.7830  -11.9040   15.8230 C   0  0  2  0  0  0
   10.9160  -12.2720   14.3470 C   0  0  0  0  0  0
   11.8390  -11.8120   13.6730 O   0  0  0  0  0  0
    9.9450  -10.6250   15.9460 C   0  0  0  0  0  0
   10.6400   -9.7780   16.9460 C   0  0  0  0  0  0
   12.0780  -10.1300   16.8740 C   0  0  0  0  0  0
    9.9740  -13.0770   13.8620 N   0  0  0  0  0  0
    9.9620  -13.5440   12.4730 C   0  0  2  0  0  0
    9.0310  -12.7300   11.5660 C   0  0  0  0  0  0
    8.8990  -13.0280   10.3820 O   0  0  0  0  0  0
    9.5850  -15.0280   12.4240 C   0  0  0  0  0  0
   10.6970  -16.0860   12.3490 C   0  0  0  0  0  0
   12.0090  -15.6640   13.0030 C   0  0  0  0  0  0
   10.1990  -17.4130   12.9070 C   0  0  0  0  0  0
    8.3780  -11.7140   12.1240 N   0  0  0  0  0  0
    7.4810  -10.8630   11.3390 C   0  0  2  0  0  0
    7.2980   -9.4820   11.9500 C   0  0  0  0  0  0
    7.5370   -9.2830   13.1430 O   0  0  0  0  0  0
    6.1180  -11.5370   11.1020 C   0  0  0  0  0  0
    5.3910  -11.9100   12.3560 C   0  0  0  0  0  0
    4.7520  -10.9850   13.1530 N   0  0  0  0  0  0
    5.1850  -13.1150   12.9420 C   0  0  0  0  0  0
    4.1950  -11.5990   14.1820 C   0  0  0  0  0  0
    4.4420  -12.8930   14.0770 N   0  0  0  0  0  0
    6.8690   -8.5330   11.1200 N   0  0  0  0  0  0
    6.5390   -7.1860   11.5830 C   0  0  2  0  0  0
    5.3020   -7.2200   12.4790 C   0  0  0  0  0  0
    4.7280   -8.2870   12.7100 O   0  0  0  0  0  0
    6.3350   -6.2340   10.3940 C   0  0  0  0  0  0
    5.3170   -6.6810    9.5150 O   0  0  0  0  0  0
    4.9080   -6.0580   12.9930 N   0  0  0  0  0  0
    3.8150   -5.9770   13.9700 C   0  0  1  0  0  0
    3.6160   -4.5260   14.4120 C   0  0  1  0  0  0
    2.5190   -4.3920   15.4700 C   0  0  0  0  0  0
    4.8470   -4.0610   14.9590 O   0  0  0  0  0  0
    5.7650   -2.9360   14.2370 P   0  0  0  0  0  0
    4.8340   -1.7800   13.9900 O   0  0  0  0  0  0
    6.2790   -3.5640   12.9650 O   0  5  0  0  0  0
    6.8410   -2.6510   15.2580 O   0  5  0  0  0  0
    2.5320   -6.5670   13.4590 C   0  0  0  0  0  0
    2.0070   -6.1580   12.4140 O   0  0  0  0  0  0
    2.0300   -7.5530   14.2030 N   0  0  0  0  0  0
    0.7420   -8.1690   13.9110 C   0  0  2  0  0  0
   -0.3520   -7.5990   14.8090 C   0  0  0  0  0  0
   -0.0730   -6.8540   15.7530 O   0  0  0  0  0  0
    0.8270   -9.6820   14.0760 C   0  0  0  0  0  0
   -1.5550   -7.8250   14.4940 N   0  0  0  0  0  0
   15.2629  -13.1047   18.8739 H   0  0  0  0  0  0
   14.7629  -14.0003   17.3993 H   0  0  0  0  0  0
   13.9489  -11.4277   18.3050 H   0  0  0  0  0  0
   14.9783  -11.3524   15.4302 H   0  0  0  0  0  0
   14.9766  -10.0311   16.6470 H   0  0  0  0  0  0
   17.2563  -11.2634   16.0064 H   0  0  0  0  0  0
   16.9010  -10.8246   17.7116 H   0  0  0  0  0  0
   17.2790  -13.1715   17.9897 H   0  0  0  0  0  0
   16.6540  -13.5600   16.3510 H   0  0  0  0  0  0
   10.3851  -12.7983   16.3250 H   0  0  0  0  0  0
    9.8935  -10.1249   14.9676 H   0  0  0  0  0  0
    8.9291  -10.8829   16.2799 H   0  0  0  0  0  0
   10.4834   -8.7173   16.7003 H   0  0  0  0  0  0
   10.2352   -9.9860   17.9474 H   0  0  0  0  0  0
   12.5841  -10.0402   17.8465 H   0  0  0  0  0  0
   12.6207   -9.5380   16.1223 H   0  0  0  0  0  0
    9.1798  -13.3917   14.5550 H   0  0  0  0  0  0
   10.9940  -13.3824   12.1282 H   0  0  0  0  0  0
    9.0184  -15.2924   13.3290 H   0  0  0  0  0  0
    8.9663  -15.2200   11.5350 H   0  0  0  0  0  0
   10.9435  -16.2126   11.2845 H   0  0  0  0  0  0
   12.3387  -14.7046   12.5777 H   0  0  0  0  0  0
   12.7752  -16.4307   12.8158 H   0  0  0  0  0  0
   11.8591  -15.5524   14.0870 H   0  0  0  0  0  0
    9.2540  -17.6862   12.4147 H   0  0  0  0  0  0
   10.0336  -17.3163   13.9902 H   0  0  0  0  0  0
   10.9498  -18.1947   12.7190 H   0  0  0  0  0  0
    8.5224  -11.5187   13.1969 H   0  0  0  0  0  0
    8.0153  -10.7444   10.3848 H   0  0  0  0  0  0
    5.6681  -11.7506   10.1212 H   0  0  0  0  0  0
    5.4900  -14.1377   12.6756 H   0  0  0  0  0  0
    3.6287  -11.1201   14.9808 H   0  0  0  0  0  0
    6.7658   -8.7893   10.0553 H   0  0  0  0  0  0
    7.4053   -6.8515   12.1725 H   0  0  0  0  0  0
    6.0508   -5.2386   10.7659 H   0  0  0  0  0  0
    7.2706   -6.1578    9.8206 H   0  0  0  0  0  0
    5.0662   -6.0932    8.6197 H   0  0  0  0  0  0
    5.4241   -5.1426   12.6679 H   0  0  0  0  0  0
    4.1293   -6.6072   14.8151 H   0  0  0  0  0  0
    3.3684   -3.8926   13.5474 H   0  0  0  0  0  0
    1.5646   -4.7490   15.0558 H   0  0  0  0  0  0
    2.4195   -3.3365   15.7633 H   0  0  0  0  0  0
    2.7843   -4.9941   16.3515 H   0  0  0  0  0  0
    2.6232   -7.8994   15.0621 H   0  0  0  0  0  0
    0.5261   -7.9160   12.8625 H   0  0  0  0  0  0
    1.6189  -10.0781   13.4233 H   0  0  0  0  0  0
   -0.1364  -10.1356   13.8003 H   0  0  0  0  0  0
    1.0599   -9.9241   15.1235 H   0  0  0  0  0  0
   -1.7867   -8.4914   13.6501 H   0  0  0  0  0  0
   -2.3703   -7.3553   15.0638 H   0  0  0  0  0  0
    4.7665   -9.9197   12.8793 H   0  0  0  0  0  0
  1  2  1  0  0  0
  1  7  1  0  0  0
  1 56  1  0  0  0
  1 57  1  0  0  0
  2  3  1  0  0  0
  2  5  1  0  0  0
  2 58  1  0  0  0
  3  4  2  0  0  0
  3  8  1  0  0  0
  5  6  1  0  0  0
  5 59  1  0  0  0
  5 60  1  0  0  0
  6  7  1  0  0  0
  6 61  1  0  0  0
  6 62  1  0  0  0
  7 63  1  0  0  0
  7 64  1  0  0  0
  8  9  1  0  0  0
  8 14  1  0  0  0
  9 10  1  0  0  0
  9 12  1  0  0  0
  9 65  1  0  0  0
 10 11  2  0  0  0
 10 15  1  0  0  0
 12 13  1  0  0  0
 12 66  1  0  0  0
 12 67  1  0  0  0
 13 14  1  0  0  0
 13 68  1  0  0  0
 13 69  1  0  0  0
 14 70  1  0  0  0
 14 71  1  0  0  0
 15 16  1  0  0  0
 15 72  1  0  0  0
 16 17  1  0  0  0
 16 19  1  0  0  0
 16 73  1  0  0  0
 17 18  2  0  0  0
 17 23  1  0  0  0
 19 20  1  0  0  0
 19 74  1  0  0  0
 19 75  1  0  0  0
 20 21  1  0  0  0
 20 22  1  0  0  0
 20 76  1  0  0  0
 21 77  1  0  0  0
 21 78  1  0  0  0
 21 79  1  0  0  0
 22 80  1  0  0  0
 22 81  1  0  0  0
 22 82  1  0  0  0
 23 24  1  0  0  0
 23 83  1  0  0  0
 24 25  1  0  0  0
 24 27  1  0  0  0
 24 84  1  0  0  0
 25 26  2  0  0  0
 25 33  1  0  0  0
 27 28  2  0  0  0
 27 85  1  0  0  0
 28 29  1  0  0  0
 28 30  1  0  0  0
 29 31  1  0  0  0
 29106  1  0  0  0
 30 32  2  0  0  0
 30 86  1  0  0  0
 31 32  1  0  0  0
 31 87  1  0  0  0
 33 34  1  0  0  0
 33 88  1  0  0  0
 34 35  1  0  0  0
 34 37  1  0  0  0
 34 89  1  0  0  0
 35 36  2  0  0  0
 35 39  1  0  0  0
 37 38  1  0  0  0
 37 90  1  0  0  0
 37 91  1  0  0  0
 38 92  1  0  0  0
 39 40  1  0  0  0
 39 93  1  0  0  0
 40 41  1  0  0  0
 40 48  1  0  0  0
 40 94  1  0  0  0
 41 42  1  0  0  0
 41 43  1  0  0  0
 41 95  1  0  0  0
 42 96  1  0  0  0
 42 97  1  0  0  0
 42 98  1  0  0  0
 43 44  1  0  0  0
 44 45  2  0  0  0
 44 46  1  0  0  0
 44 47  1  0  0  0
 48 49  2  0  0  0
 48 50  1  0  0  0
 50 51  1  0  0  0
 50 99  1  0  0  0
 51 52  1  0  0  0
 51 54  1  0  0  0
 51100  1  0  0  0
 52 53  2  0  0  0
 52 55  1  0  0  0
 54101  1  0  0  0
 54102  1  0  0  0
 54103  1  0  0  0
 55104  1  0  0  0
 55105  1  0  0  0
M  CHG  3   1   1  46  -1  47  -1
M  END
> <s_m_source_file>
../4e9c_ligand.sdf

> <i_m_source_file_index>
1

> <s_epik_input>
W0NIMl0xW0NIMl1bQ0gyXVtOSDIrXVtDQEBIXTFDKD1PKU4yW0NAQEhdKFtDSDJdW0NIMl1bQ0gyXTIpQyg9TylbTkhdW0NAQEhdKFtDSDJdW0NIXShbQ0gzXSlbQ0gzXSlDKD1PKVtOSF1bQ0BASF0oW0NIMl1DMz1OW0NIMl1OPVtDSF0zKUMoPU8pW05IXVtDQEBIXShbQ0gyXVtPSF0pQyg9TylbTkhdW0NAQEhdKFtDQEBIXShbQ0gzXSlPUCg9TykoW09IXSlbT0hdKUMoPU8pW05IXVtDQEBIXShbQ0gzXSlDKD1PKVtOSDJd

> <s_epik_cmdline>
J2VwaWtfYXBwJywgJy1pbWFlJywgJ2xpZ2FuZF9wcm8ubWFlJywgJy1vbWFlJywgJ2xpZ2FuZF9wcmVwLm1hZScsICctbXMnLCAnMScsICctcGgnLCAnNycsICctcGh0JywgJzAuNScsICctbnQn

> <r_epik_Ionization_Penalty>
  0.1252

> <r_epik_Ionization_Penalty_Charging>
  0.1252

> <r_epik_Ionization_Penalty_Neutral>
  0.0000

> <r_epik_State_Penalty>
  0.1057

> <r_epik_Charging_Adjusted_Penalty>
0.230837517445131

> <i_epik_Tot_Q>
-1

> <i_epik_Tot_abs_Q>
3

> <s_epik_Chemistry_Notes>
This compound has an imine and may undergo hydrolysis.

$$$$
