4e9d_ligand
                    3D
 Schrodinger Suite 2020-3.
136140  0  0  1  0            999 V2000
    9.0740    7.2360  -20.8090 C   0  0  0  0  0  0
   10.1330    7.5710  -20.3510 O   0  0  0  0  0  0
    8.9750    6.1210  -21.8830 C   0  0  0  0  0  0
    9.7350    4.7920  -21.5610 C   0  0  0  0  0  0
    9.4650    4.4020  -20.1250 C   0  0  0  0  0  0
    8.5850    3.5570  -19.6630 C   0  0  0  0  0  0
   10.1880    5.0300  -18.8630 S   0  0  0  0  0  0
    8.5640    3.4520  -18.3360 C   0  0  0  0  0  0
    9.4530    4.2790  -17.7310 C   0  0  0  0  0  0
    9.5350    4.3170  -16.3680 C   0  0  0  0  0  0
    8.7340    3.5320  -15.5660 C   0  0  0  0  0  0
    7.8690    2.6930  -16.1660 C   0  0  0  0  0  0
    7.7790    2.6660  -17.5180 C   0  0  0  0  0  0
    8.0120    7.7840  -20.3100 N   0  0  0  0  0  0
    8.1550    8.7630  -19.2130 C   0  0  2  0  0  0
    6.7830    8.9940  -18.5610 C   0  0  0  0  0  0
    5.8860    9.5610  -19.1770 O   0  0  0  0  0  0
    8.7990    9.9960  -19.7850 C   0  0  0  0  0  0
    8.5850   11.2960  -19.0860 C   0  0  0  0  0  0
    8.4630   12.3050  -19.7850 O   0  5  0  0  0  0
    8.6400   11.2790  -17.8710 O   0  0  0  0  0  0
    6.5590    8.5370  -17.2880 N   0  0  0  0  0  0
    5.2810    8.4980  -16.5370 C   0  0  2  0  0  0
    4.6170    9.8120  -16.3240 C   0  0  0  0  0  0
    5.2450   10.6730  -15.7480 O   0  0  0  0  0  0
    5.6540    7.8730  -15.2240 C   0  0  0  0  0  0
    7.1050    8.1110  -15.1550 C   0  0  0  0  0  0
    7.5280    7.7660  -16.5160 C   0  0  0  0  0  0
    3.4340    9.5180  -16.5010 N   0  0  0  0  0  0
    2.5590   10.6500  -16.1950 C   0  0  2  0  0  0
    2.4490   10.9550  -14.6960 C   0  0  0  0  0  0
    2.3440   12.1250  -14.3190 O   0  0  0  0  0  0
    1.1990   10.2090  -16.7540 C   0  0  0  0  0  0
    1.2730    8.7310  -16.8290 C   0  0  0  0  0  0
    2.6960    8.4240  -17.1590 C   0  0  0  0  0  0
    2.4740    9.9160  -13.8590 N   0  0  0  0  0  0
    2.2920   10.0680  -12.4100 C   0  0  2  0  0  0
    3.1350    9.0710  -11.6080 C   0  0  0  0  0  0
    3.3750    7.9460  -12.0550 O   0  0  0  0  0  0
    0.8110    9.9190  -12.0390 C   0  0  0  0  0  0
   -0.1920   10.9100  -12.6440 C   0  0  0  0  0  0
   -1.5090   10.2250  -12.9810 C   0  0  0  0  0  0
   -0.4100   12.1120  -11.7310 C   0  0  0  0  0  0
    3.5740    9.4970  -10.4220 N   0  0  0  0  0  0
    4.3910    8.6690   -9.5190 C   0  0  2  0  0  0
    4.3170    9.1340   -8.0580 C   0  0  0  0  0  0
    3.7080   10.1630   -7.7590 O   0  0  0  0  0  0
    5.8530    8.6110   -9.9940 C   0  0  0  0  0  0
    6.4160    9.9370  -10.4100 C   0  0  0  0  0  0
    6.7880   10.9070   -9.5040 N   0  0  0  0  0  0
    6.6850   10.4460  -11.6360 C   0  0  0  0  0  0
    7.2530   11.9590  -10.1540 C   0  0  0  0  0  0
    7.2020   11.7040  -11.4490 N   0  0  0  0  0  0
    4.9380    8.3710   -7.1550 N   0  0  0  0  0  0
    4.9930    8.7300   -5.7300 C   0  0  2  0  0  0
    5.9810    9.8710   -5.4660 C   0  0  0  0  0  0
    6.6600   10.3360   -6.3870 O   0  0  0  0  0  0
    5.3330    7.5110   -4.8620 C   0  0  0  0  0  0
    6.6320    7.0210   -5.1380 O   0  0  0  0  0  0
    6.0550   10.3060   -4.2050 N   0  0  0  0  0  0
    6.8760   11.4570   -3.8030 C   0  0  1  0  0  0
    6.8620   11.6330   -2.2830 C   0  0  1  0  0  0
    7.6980   12.8190   -1.8090 C   0  0  0  0  0  0
    5.5130   11.8520   -1.8770 O   0  0  0  0  0  0
    4.8070   10.9510   -0.7440 P   0  0  0  0  0  0
    5.1000    9.5320   -1.1700 O   0  0  0  0  0  0
    5.4890   11.3570    0.5410 O   0  5  0  0  0  0
    3.3480   11.3440   -0.8280 O   0  5  0  0  0  0
    8.2730   11.3940   -4.3580 C   0  0  0  0  0  0
    8.9840   10.4000   -4.1830 O   0  0  0  0  0  0
    8.6560   12.4650   -5.0470 N   0  0  0  0  0  0
    9.9420   12.5540   -5.7200 C   0  0  2  0  0  0
   10.8820   13.5060   -4.9880 C   0  0  0  0  0  0
   11.7300   13.0750   -4.2070 O   0  5  0  0  0  0
    9.7450   12.9960   -7.1630 C   0  0  0  0  0  0
   10.8020   14.5796   -5.1583 O   0  0  0  0  0  0
    7.9204    5.8434  -22.0272 H   0  0  0  0  0  0
    9.3904    6.4888  -22.8328 H   0  0  0  0  0  0
    9.3821    3.9958  -22.2330 H   0  0  0  0  0  0
   10.8149    4.9427  -21.7064 H   0  0  0  0  0  0
    7.9213    2.9839  -20.3104 H   0  0  0  0  0  0
   10.2554    4.9881  -15.9003 H   0  0  0  0  0  0
    8.7992    3.5890  -14.4794 H   0  0  0  0  0  0
    7.2412    2.0355  -15.5646 H   0  0  0  0  0  0
    7.0550    1.9941  -17.9790 H   0  0  0  0  0  0
    7.0128    7.5289  -20.6927 H   0  0  0  0  0  0
    8.8278    8.3884  -18.4275 H   0  0  0  0  0  0
    9.8908    9.8632  -19.8061 H   0  0  0  0  0  0
    8.4300   10.1615  -20.8080 H   0  0  0  0  0  0
    4.5326    7.9460  -17.1246 H   0  0  0  0  0  0
    5.1020    8.3689  -14.4119 H   0  0  0  0  0  0
    5.3983    6.8033  -15.2413 H   0  0  0  0  0  0
    7.2920    9.1638  -14.8968 H   0  0  0  0  0  0
    7.5471    7.4607  -14.3858 H   0  0  0  0  0  0
    7.4238    6.6982  -16.7586 H   0  0  0  0  0  0
    8.5456    8.1010  -16.7655 H   0  0  0  0  0  0
    2.9847   11.5572  -16.6486 H   0  0  0  0  0  0
    0.3989   10.5406  -16.0759 H   0  0  0  0  0  0
    1.0476   10.6578  -17.7468 H   0  0  0  0  0  0
    0.9815    8.2997  -15.8600 H   0  0  0  0  0  0
    0.5902    8.3689  -17.6118 H   0  0  0  0  0  0
    2.8932    8.4475  -18.2409 H   0  0  0  0  0  0
    3.0264    7.4591  -16.7470 H   0  0  0  0  0  0
    2.6383    8.9178  -14.2910 H   0  0  0  0  0  0
    2.6495   11.0855  -12.1936 H   0  0  0  0  0  0
    0.4528    8.9270  -12.3513 H   0  0  0  0  0  0
    0.6932   10.0254  -10.9505 H   0  0  0  0  0  0
    0.2323   11.2880  -13.5859 H   0  0  0  0  0  0
   -1.3170    9.3647  -13.6390 H   0  0  0  0  0  0
   -2.1723   10.9375  -13.4932 H   0  0  0  0  0  0
   -1.9893    9.8778  -12.0543 H   0  0  0  0  0  0
    0.5586   12.5830  -11.5073 H   0  0  0  0  0  0
   -0.8814   11.7801  -10.7942 H   0  0  0  0  0  0
   -1.0644   12.8398  -12.2330 H   0  0  0  0  0  0
    3.2972   10.5207  -10.1298 H   0  0  0  0  0  0
    3.9302    7.6724   -9.5860 H   0  0  0  0  0  0
    6.4783    7.7075  -10.0453 H   0  0  0  0  0  0
    6.5648   10.0464  -12.6538 H   0  0  0  0  0  0
    7.6167   12.8804   -9.6991 H   0  0  0  0  0  0
    5.4186    7.4468   -7.5083 H   0  0  0  0  0  0
    3.9764    9.0790   -5.4960 H   0  0  0  0  0  0
    5.2867    7.7929   -3.7997 H   0  0  0  0  0  0
    4.6092    6.7067   -5.0598 H   0  0  0  0  0  0
    7.0177    6.1473   -4.5922 H   0  0  0  0  0  0
    5.4656    9.7613   -3.4527 H   0  0  0  0  0  0
    6.4033   12.3301   -4.2766 H   0  0  0  0  0  0
    7.2347   10.7151   -1.8050 H   0  0  0  0  0  0
    8.7456   12.6731   -2.1110 H   0  0  0  0  0  0
    7.6394   12.8943   -0.7131 H   0  0  0  0  0  0
    7.3114   13.7442   -2.2613 H   0  0  0  0  0  0
    7.9507   13.3077   -5.0949 H   0  0  0  0  0  0
   10.3644   11.5388   -5.6904 H   0  0  0  0  0  0
    9.0649   12.2965   -7.6711 H   0  0  0  0  0  0
   10.7160   13.0040   -7.6798 H   0  0  0  0  0  0
    9.3117   14.0069   -7.1809 H   0  0  0  0  0  0
    6.6714   10.7258   -8.4253 H   0  0  0  0  0  0
  1  2  2  0  0  0
  1  3  1  0  0  0
  1 14  1  0  0  0
  3  4  1  0  0  0
  3 77  1  0  0  0
  3 78  1  0  0  0
  4  5  1  0  0  0
  4 79  1  0  0  0
  4 80  1  0  0  0
  5  6  2  0  0  0
  5  7  1  0  0  0
  6  8  1  0  0  0
  6 81  1  0  0  0
  7  9  1  0  0  0
  8  9  2  0  0  0
  8 13  1  0  0  0
  9 10  1  0  0  0
 10 11  2  0  0  0
 10 82  1  0  0  0
 11 12  1  0  0  0
 11 83  1  0  0  0
 12 13  2  0  0  0
 12 84  1  0  0  0
 13 85  1  0  0  0
 14 15  1  0  0  0
 14 86  1  0  0  0
 15 16  1  0  0  0
 15 18  1  0  0  0
 15 87  1  0  0  0
 16 17  2  0  0  0
 16 22  1  0  0  0
 18 19  1  0  0  0
 18 88  1  0  0  0
 18 89  1  0  0  0
 19 20  1  0  0  0
 19 21  2  0  0  0
 22 23  1  0  0  0
 22 28  1  0  0  0
 23 24  1  0  0  0
 23 26  1  0  0  0
 23 90  1  0  0  0
 24 25  2  0  0  0
 24 29  1  0  0  0
 26 27  1  0  0  0
 26 91  1  0  0  0
 26 92  1  0  0  0
 27 28  1  0  0  0
 27 93  1  0  0  0
 27 94  1  0  0  0
 28 95  1  0  0  0
 28 96  1  0  0  0
 29 30  1  0  0  0
 29 35  1  0  0  0
 30 31  1  0  0  0
 30 33  1  0  0  0
 30 97  1  0  0  0
 31 32  2  0  0  0
 31 36  1  0  0  0
 33 34  1  0  0  0
 33 98  1  0  0  0
 33 99  1  0  0  0
 34 35  1  0  0  0
 34100  1  0  0  0
 34101  1  0  0  0
 35102  1  0  0  0
 35103  1  0  0  0
 36 37  1  0  0  0
 36104  1  0  0  0
 37 38  1  0  0  0
 37 40  1  0  0  0
 37105  1  0  0  0
 38 39  2  0  0  0
 38 44  1  0  0  0
 40 41  1  0  0  0
 40106  1  0  0  0
 40107  1  0  0  0
 41 42  1  0  0  0
 41 43  1  0  0  0
 41108  1  0  0  0
 42109  1  0  0  0
 42110  1  0  0  0
 42111  1  0  0  0
 43112  1  0  0  0
 43113  1  0  0  0
 43114  1  0  0  0
 44 45  1  0  0  0
 44115  1  0  0  0
 45 46  1  0  0  0
 45 48  1  0  0  0
 45116  1  0  0  0
 46 47  2  0  0  0
 46 54  1  0  0  0
 48 49  2  0  0  0
 48117  1  0  0  0
 49 50  1  0  0  0
 49 51  1  0  0  0
 50 52  1  0  0  0
 50136  1  0  0  0
 51 53  2  0  0  0
 51118  1  0  0  0
 52 53  1  0  0  0
 52119  1  0  0  0
 54 55  1  0  0  0
 54120  1  0  0  0
 55 56  1  0  0  0
 55 58  1  0  0  0
 55121  1  0  0  0
 56 57  2  0  0  0
 56 60  1  0  0  0
 58 59  1  0  0  0
 58122  1  0  0  0
 58123  1  0  0  0
 59124  1  0  0  0
 60 61  1  0  0  0
 60125  1  0  0  0
 61 62  1  0  0  0
 61 69  1  0  0  0
 61126  1  0  0  0
 62 63  1  0  0  0
 62 64  1  0  0  0
 62127  1  0  0  0
 63128  1  0  0  0
 63129  1  0  0  0
 63130  1  0  0  0
 64 65  1  0  0  0
 65 66  2  0  0  0
 65 67  1  0  0  0
 65 68  1  0  0  0
 69 70  2  0  0  0
 69 71  1  0  0  0
 71 72  1  0  0  0
 71131  1  0  0  0
 72 73  1  0  0  0
 72 75  1  0  0  0
 72132  1  0  0  0
 73 74  1  0  0  0
 73 76  2  0  0  0
 75133  1  0  0  0
 75134  1  0  0  0
 75135  1  0  0  0
M  CHG  4  20  -1  67  -1  68  -1  74  -1
M  END
> <s_m_source_file>
../4e9d_ligand.sdf

> <i_m_source_file_index>
1

> <s_epik_input>
W2NIXTFbY0hdW2NIXVtjSF1jKGMxMilzYyhbY0hdMilbQ0gyXVtDSDJdQyg9TylbTkhdW0NAQEhdKFtDSDJdQyg9TylbT0hdKUMoPU8pTjNbQ0BASF0oW0NIMl1bQ0gyXVtDSDJdMylDKD1PKU40W0NAQEhdKFtDSDJdW0NIMl1bQ0gyXTQpQyg9TylbTkhdW0NAQEhdKFtDSDJdW0NIXShbQ0gzXSlbQ0gzXSlDKD1PKVtOSF1bQ0BASF0oW0NIMl1DNT1OW0NIMl1OPVtDSF01KUMoPU8pW05IXVtDQEBIXShbQ0gyXVtPSF0pQyg9TylbTkhdW0NAQEhdKFtDQEBIXShbQ0gzXSlPUCg9TykoW09IXSlbT0hdKUMoPU8pW05IXVtDQEBIXShbQ0gzXSlDKD1PKVtPSF0=

> <s_epik_cmdline>
J2VwaWtfYXBwJywgJy1pbWFlJywgJ2xpZ2FuZF9wcm8ubWFlJywgJy1vbWFlJywgJ2xpZ2FuZF9wcmVwLm1hZScsICctbXMnLCAnMScsICctcGgnLCAnNycsICctcGh0JywgJzAuNScsICctbnQn

> <r_epik_Ionization_Penalty>
  0.0921

> <r_epik_Ionization_Penalty_Charging>
  0.0921

> <r_epik_Ionization_Penalty_Neutral>
  0.0000

> <r_epik_State_Penalty>
  0.0811

> <r_epik_Charging_Adjusted_Penalty>
0.173180850882762

> <i_epik_Tot_Q>
-4

> <i_epik_Tot_abs_Q>
4

> <s_epik_Chemistry_Notes>
This compound has an imine and may undergo hydrolysis.

$$$$
