4ea1_ligand
                    3D
 Schrodinger Suite 2020-3.
 63 65  0  0  1  0            999 V2000
    4.0360  -29.9110    8.4190 C   0  0  0  0  0  0
    2.5800  -28.7810    6.5860 C   0  0  0  0  0  0
   -1.1940  -25.9420    9.2920 C   0  0  0  0  0  0
    1.6670  -29.1260    8.7490 C   0  0  0  0  0  0
   -2.8760  -27.8610    9.1930 C   0  0  0  0  0  0
    0.5480  -28.5050    8.2640 C   0  0  0  0  0  0
   -4.0920  -27.2090    9.2230 C   0  0  0  0  0  0
   -6.3290  -27.8830    9.8950 C   0  0  0  0  0  0
   -6.9720  -29.2410   10.1490 C   0  0  0  0  0  0
   -0.5350  -28.5400    9.2800 C   0  0  0  0  0  0
  -12.5360  -28.1060   11.8350 C   0  0  0  0  0  0
  -10.7700  -29.2180   13.1560 C   0  0  0  0  0  0
  -11.2340  -29.9570   10.8890 C   0  0  0  0  0  0
  -10.4520  -26.9110   12.3410 C   0  0  0  0  0  0
  -10.8370  -27.7290   10.0390 C   0  0  0  0  0  0
   -4.9000  -27.9690   10.1810 N   0  0  1  0  0  0
   -8.4470  -29.1330   10.1390 N   0  3  0  0  0  0
    2.7440  -29.3020    7.9580 C   0  0  0  0  0  0
   -1.5590  -27.4170    9.2250 C   0  0  0  0  0  0
  -11.4560  -27.9050   12.8680 C   0  0  1  0  0  0
  -11.8970  -28.6600   10.5770 C   0  0  2  0  0  0
  -10.1110  -29.6920   11.8840 C   0  0  1  0  0  0
   -9.7970  -27.4450   11.0910 C   0  0  2  0  0  0
   -9.0790  -28.7010   11.3870 C   0  0  2  0  0  0
    4.7480  -29.9384    7.5810 H   0  0  0  0  0  0
    3.8516  -30.9346    8.7772 H   0  0  0  0  0  0
    4.4552  -29.3063    9.2367 H   0  0  0  0  0  0
    3.4999  -28.9648    6.0116 H   0  0  0  0  0  0
    2.3824  -27.6996    6.6256 H   0  0  0  0  0  0
    1.7355  -29.2905    6.0988 H   0  0  0  0  0  0
   -2.1093  -25.3347    9.2328 H   0  0  0  0  0  0
   -0.5315  -25.6897    8.4509 H   0  0  0  0  0  0
   -0.6772  -25.7349   10.2407 H   0  0  0  0  0  0
    1.6902  -29.4841    9.7888 H   0  0  0  0  0  0
   -3.0920  -28.9378    9.1315 H   0  0  0  0  0  0
    0.5533  -28.0737    7.2521 H   0  0  0  0  0  0
   -3.9426  -26.1693    9.5497 H   0  0  0  0  0  0
   -4.5372  -27.2169    8.2172 H   0  0  0  0  0  0
   -6.4790  -27.5972    8.8434 H   0  0  0  0  0  0
   -6.7923  -27.1298   10.5493 H   0  0  0  0  0  0
   -6.6625  -29.9459    9.3633 H   0  0  0  0  0  0
   -6.6507  -29.6211   11.1300 H   0  0  0  0  0  0
   -1.1083  -29.4727    9.1728 H   0  0  0  0  0  0
   -0.0947  -28.4939   10.2870 H   0  0  0  0  0  0
  -13.2846  -28.8140   12.2202 H   0  0  0  0  0  0
  -13.0201  -27.1423   11.6184 H   0  0  0  0  0  0
  -10.0148  -29.0723   13.9424 H   0  0  0  0  0  0
  -11.5142  -29.9541   13.4942 H   0  0  0  0  0  0
  -11.9694  -30.6491   11.3252 H   0  0  0  0  0  0
  -10.8249  -30.3913    9.9649 H   0  0  0  0  0  0
  -10.9617  -25.9653   12.1046 H   0  0  0  0  0  0
   -9.6797  -26.7306   13.1033 H   0  0  0  0  0  0
  -10.3475  -28.1937    9.1704 H   0  0  0  0  0  0
  -11.3028  -26.7805    9.7334 H   0  0  0  0  0  0
   -4.6097  -29.0294   10.1456 H   0  0  0  0  0  0
   -8.7560  -28.4022    9.3771 H   0  0  0  0  0  0
   -8.8849  -30.1144    9.9045 H   0  0  0  0  0  0
    2.3874  -29.9174    8.7971 H   0  0  0  0  0  0
  -11.9023  -27.5246   13.7986 H   0  0  0  0  0  0
  -12.6875  -28.7971    9.8244 H   0  0  0  0  0  0
   -9.5349  -30.6137   12.0530 H   0  0  0  0  0  0
   -9.0742  -26.7007   10.7255 H   0  0  0  0  0  0
   -8.2808  -28.5818   12.1345 H   0  0  0  0  0  0
  1 18  1  0  0  0
  1 25  1  0  0  0
  1 26  1  0  0  0
  1 27  1  0  0  0
  2 18  1  0  0  0
  2 28  1  0  0  0
  2 29  1  0  0  0
  2 30  1  0  0  0
  3 19  1  0  0  0
  3 31  1  0  0  0
  3 32  1  0  0  0
  3 33  1  0  0  0
  4  6  2  0  0  0
  4 18  1  0  0  0
  4 34  1  0  0  0
  5  7  1  0  0  0
  5 19  2  0  0  0
  5 35  1  0  0  0
  6 10  1  0  0  0
  6 36  1  0  0  0
  7 16  1  0  0  0
  7 37  1  0  0  0
  7 38  1  0  0  0
  8  9  1  0  0  0
  8 16  1  0  0  0
  8 39  1  0  0  0
  8 40  1  0  0  0
  9 17  1  0  0  0
  9 41  1  0  0  0
  9 42  1  0  0  0
 10 19  1  0  0  0
 10 43  1  0  0  0
 10 44  1  0  0  0
 11 20  1  0  0  0
 11 21  1  0  0  0
 11 45  1  0  0  0
 11 46  1  0  0  0
 12 20  1  0  0  0
 12 22  1  0  0  0
 12 47  1  0  0  0
 12 48  1  0  0  0
 13 21  1  0  0  0
 13 22  1  0  0  0
 13 49  1  0  0  0
 13 50  1  0  0  0
 14 20  1  0  0  0
 14 23  1  0  0  0
 14 51  1  0  0  0
 14 52  1  0  0  0
 15 21  1  0  0  0
 15 23  1  0  0  0
 15 53  1  0  0  0
 15 54  1  0  0  0
 16 55  1  0  0  0
 17 24  1  0  0  0
 17 56  1  0  0  0
 17 57  1  0  0  0
 18 58  1  0  0  0
 20 59  1  0  0  0
 21 60  1  0  0  0
 22 24  1  0  0  0
 22 61  1  0  0  0
 23 24  1  0  0  0
 23 62  1  0  0  0
 24 63  1  0  0  0
M  CHG  1  17   1
M  END
> <s_m_source_file>
../4ea1_ligand.sdf

> <i_m_source_file_index>
1

> <s_epik_input>
W0NIM11bQ0hdKFtDSDNdKS9bQ0hdPVtDSF0vW0NIMl1DKFxbQ0gzXSk9W0NIXVxbQ0gyXVtOSDIrXVtDSDJdW0NIMl1bTkgyK11bQ0BASF0oW0NASF0oW0NIMl0xKVtDSDJdMilbQ0BASF0oW0NIMl0zKVtDSDJdW0NASF0yW0NIMl1bQ0BIXTEz

> <s_epik_cmdline>
J2VwaWtfYXBwJywgJy1pbWFlJywgJ2xpZ2FuZF9wcm8ubWFlJywgJy1vbWFlJywgJ2xpZ2FuZF9wcmVwLm1hZScsICctbXMnLCAnMScsICctcGgnLCAnNycsICctcGh0JywgJzAuNScsICctbnQn

> <r_epik_Ionization_Penalty>
  0.4097

> <r_epik_Ionization_Penalty_Charging>
  0.0004

> <r_epik_Ionization_Penalty_Neutral>
  0.4093

> <r_epik_State_Penalty>
  0.4482

> <r_epik_Charging_Adjusted_Penalty>
0.448586402148472

> <i_epik_Tot_Q>
1

> <i_epik_Tot_abs_Q>
1

$$$$
