4ea3_ligand
                    3D
 Schrodinger Suite 2020-3.
 68 72  0  0  1  0            999 V2000
    7.9640  -52.2470   -4.4300 C   0  0  0  0  0  0
    7.1050  -52.2540   -3.2070 C   0  0  0  0  0  0
    7.6100  -52.7070   -2.0060 C   0  0  0  0  0  0
   10.7760  -59.0970    4.7240 O   0  0  0  0  0  0
    9.0350  -53.1980   -1.9250 C   0  0  0  0  0  0
   10.9150  -54.3840   -1.4420 O   0  0  0  0  0  0
   10.4950  -54.5090    2.0090 N   0  3  2  0  0  0
   10.4080  -55.5080    0.9330 C   0  0  0  0  0  0
   10.2280  -52.6930    0.3050 C   0  0  0  0  0  0
   11.0960  -53.2540    1.4660 C   0  0  0  0  0  0
   11.3050  -54.9870    3.1150 C   0  0  0  0  0  0
   10.4880  -55.8360    4.0680 C   0  0  0  0  0  0
   11.3950  -56.3960    5.1560 C   0  0  0  0  0  0
   10.3720  -58.6420    5.7750 C   0  0  0  0  0  0
    9.5890  -59.5630    6.7530 C   0  0  1  0  0  0
   10.4290  -59.9690    7.9000 C   0  0  0  0  0  0
   10.0660  -59.0180    8.9990 C   0  0  0  0  0  0
   10.6430  -57.2350    6.1080 N   0  0  0  0  0  0
    8.6070  -58.6660    8.7480 C   0  0  0  0  0  0
    7.8240  -57.8290    6.5830 C   0  0  0  0  0  0
    7.5230  -58.2130    5.1250 C   0  0  0  0  0  0
    7.5840  -57.2540    4.1460 C   0  0  0  0  0  0
    7.2910  -57.6190    2.7100 C   0  0  0  0  0  0
    6.9670  -58.9050    2.3890 C   0  0  0  0  0  0
    6.9000  -59.9590    3.4640 C   0  0  0  0  0  0
    7.1640  -59.6300    4.7700 C   0  0  0  0  0  0
    8.3820  -58.9780    7.3330 N   0  0  1  0  0  0
    9.2640  -52.6960   -4.3560 C   0  0  0  0  0  0
    9.8160  -53.1930   -3.0380 C   0  0  0  0  0  0
   11.1640  -53.7340   -2.6510 C   0  0  0  0  0  0
    9.8670  -53.7470   -0.7630 C   0  0  1  0  0  0
    9.4350  -55.0380   -0.1110 C   0  0  0  0  0  0
    7.5629  -51.8876   -5.3777 H   0  0  0  0  0  0
    6.0757  -51.8999   -3.2643 H   0  0  0  0  0  0
    6.9805  -52.7104   -1.1162 H   0  0  0  0  0  0
    9.4816  -54.3391    2.4016 H   0  0  0  0  0  0
   11.3995  -55.6417    0.4758 H   0  0  0  0  0  0
   10.0640  -56.4663    1.3493 H   0  0  0  0  0  0
    9.2839  -52.2997    0.7100 H   0  0  0  0  0  0
   10.7739  -51.8846   -0.2034 H   0  0  0  0  0  0
   11.1547  -52.5001    2.2649 H   0  0  0  0  0  0
   12.1066  -53.4657    1.0866 H   0  0  0  0  0  0
   12.1339  -55.5964    2.7258 H   0  0  0  0  0  0
   11.7104  -54.1285    3.6705 H   0  0  0  0  0  0
    9.7026  -55.2183    4.5280 H   0  0  0  0  0  0
   10.0246  -56.6659    3.5144 H   0  0  0  0  0  0
   12.1823  -57.0115    4.6962 H   0  0  0  0  0  0
   11.8560  -55.5664    5.7120 H   0  0  0  0  0  0
    9.2608  -60.4308    6.1621 H   0  0  0  0  0  0
   10.2008  -61.0103    8.1712 H   0  0  0  0  0  0
   11.4907  -59.8862    7.6245 H   0  0  0  0  0  0
   10.2031  -59.5125    9.9720 H   0  0  0  0  0  0
   10.7133  -58.1303    8.9445 H   0  0  0  0  0  0
   10.2898  -56.8075    7.0580 H   0  0  0  0  0  0
    7.9655  -59.2715    9.4051 H   0  0  0  0  0  0
    8.4456  -57.5988    8.9600 H   0  0  0  0  0  0
    8.5556  -57.0077    6.6023 H   0  0  0  0  0  0
    6.8956  -57.5047    7.0759 H   0  0  0  0  0  0
    7.8442  -56.2276    4.4047 H   0  0  0  0  0  0
    7.3383  -56.8570    1.9320 H   0  0  0  0  0  0
    6.7562  -59.1705    1.3530 H   0  0  0  0  0  0
    6.6412  -60.9853    3.2036 H   0  0  0  0  0  0
    7.1137  -60.3927    5.5471 H   0  0  0  0  0  0
    9.8940  -52.6933   -5.2455 H   0  0  0  0  0  0
   11.9065  -52.9379   -2.4931 H   0  0  0  0  0  0
   11.5522  -54.4574   -3.3831 H   0  0  0  0  0  0
    9.3443  -55.8013   -0.8978 H   0  0  0  0  0  0
    8.4517  -54.8710    0.3529 H   0  0  0  0  0  0
  1  2  2  0  0  0
  1 28  1  0  0  0
  1 33  1  0  0  0
  2  3  1  0  0  0
  2 34  1  0  0  0
  3  5  2  0  0  0
  3 35  1  0  0  0
  4 14  2  0  0  0
  5 29  1  0  0  0
  5 31  1  0  0  0
  6 30  1  0  0  0
  6 31  1  0  0  0
  7  8  1  0  0  0
  7 10  1  0  0  0
  7 11  1  0  0  0
  7 36  1  0  0  0
  8 32  1  0  0  0
  8 37  1  0  0  0
  8 38  1  0  0  0
  9 10  1  0  0  0
  9 31  1  0  0  0
  9 39  1  0  0  0
  9 40  1  0  0  0
 10 41  1  0  0  0
 10 42  1  0  0  0
 11 12  1  0  0  0
 11 43  1  0  0  0
 11 44  1  0  0  0
 12 13  1  0  0  0
 12 45  1  0  0  0
 12 46  1  0  0  0
 13 18  1  0  0  0
 13 47  1  0  0  0
 13 48  1  0  0  0
 14 15  1  0  0  0
 14 18  1  0  0  0
 15 16  1  0  0  0
 15 27  1  0  0  0
 15 49  1  0  0  0
 16 17  1  0  0  0
 16 50  1  0  0  0
 16 51  1  0  0  0
 17 19  1  0  0  0
 17 52  1  0  0  0
 17 53  1  0  0  0
 18 54  1  0  0  0
 19 27  1  0  0  0
 19 55  1  0  0  0
 19 56  1  0  0  0
 20 21  1  0  0  0
 20 27  1  0  0  0
 20 57  1  0  0  0
 20 58  1  0  0  0
 21 22  2  0  0  0
 21 26  1  0  0  0
 22 23  1  0  0  0
 22 59  1  0  0  0
 23 24  2  0  0  0
 23 60  1  0  0  0
 24 25  1  0  0  0
 24 61  1  0  0  0
 25 26  2  0  0  0
 25 62  1  0  0  0
 26 63  1  0  0  0
 28 29  2  0  0  0
 28 64  1  0  0  0
 29 30  1  0  0  0
 30 65  1  0  0  0
 30 66  1  0  0  0
 31 32  1  0  0  0
 32 67  1  0  0  0
 32 68  1  0  0  0
M  CHG  1   7   1
M  END
> <s_m_source_file>
../4ea3_ligand.sdf

> <i_m_source_file_index>
1

> <s_epik_input>
W2NIXTFbY0hdW2NIXVtjSF1jKFtDSDJdTzIpYzFbQ0BdMjNbQ0gyXVtDSDJdW05AQEgrXShbQ0gyXVtDSDJdMylbQ0gyXVtDSDJdW0NIMl1bTkhdQyg9TylbQ0BIXTRbQ0gyXVtDSDJdW0NIMl1bTkBIK100W0NIMl1jNVtjSF1bY0hdW2NIXVtjSF1bY0hdNQ==

> <s_epik_cmdline>
J2VwaWtfYXBwJywgJy1pbWFlJywgJ2xpZ2FuZF9wcm8ubWFlJywgJy1vbWFlJywgJ2xpZ2FuZF9wcmVwLm1hZScsICctbXMnLCAnMScsICctcGgnLCAnNycsICctcGh0JywgJzAuNScsICctbnQn

> <r_epik_Ionization_Penalty>
  0.2372

> <r_epik_Ionization_Penalty_Charging>
  0.0048

> <r_epik_Ionization_Penalty_Neutral>
  0.2324

> <r_epik_State_Penalty>
  0.2231

> <r_epik_Charging_Adjusted_Penalty>
0.227920646590108

> <i_epik_Tot_Q>
1

> <i_epik_Tot_abs_Q>
1

$$$$
