4ear_ligand
                    3D
 Schrodinger Suite 2020-3.
 38 40  0  0  1  0            999 V2000
  -19.8460   26.4910  -47.3730 N   0  3  0  0  0  0
  -18.9290   27.1450  -46.5310 C   0  0  0  0  0  0
  -18.4760   26.4840  -45.4810 N   0  0  0  0  0  0
  -18.6000   28.4440  -46.7570 N   0  0  0  0  0  0
  -19.1600   29.1090  -47.8200 C   0  0  0  0  0  0
  -20.0320   28.4690  -48.6590 C   0  0  0  0  0  0
  -20.3920   27.1680  -48.4520 C   0  0  0  0  0  0
  -21.1760   26.5190  -49.1820 O   0  0  0  0  0  0
  -20.3890   29.3620  -49.6030 N   0  3  0  0  0  0
  -19.7760   30.5280  -49.3530 C   0  0  0  0  0  0
  -18.9870   30.3680  -48.2820 C   0  0  0  0  0  0
  -16.6800   31.5010  -48.0870 N   0  3  1  0  0  0
  -18.1220   31.4520  -47.6210 C   0  0  0  0  0  0
  -15.9090   30.3670  -47.6320 C   0  0  0  0  0  0
  -14.5440   30.7200  -48.3060 C   0  0  2  0  0  0
  -13.8130   31.7610  -47.6080 O   0  0  0  0  0  0
  -14.9880   31.1760  -49.7040 C   0  0  1  0  0  0
  -14.8610   30.0210  -50.6510 C   0  0  0  0  0  0
  -15.5840   30.3640  -51.8460 O   0  0  0  0  0  0
  -16.5110   31.5640  -49.5310 C   0  0  0  0  0  0
  -18.7617   25.4329  -45.3275 H   0  0  0  0  0  0
  -19.8269   31.5040  -49.8577 H   0  0  0  0  0  0
  -16.2661   32.4244  -47.6558 H   0  0  0  0  0  0
  -18.5523   32.4425  -47.8302 H   0  0  0  0  0  0
  -18.0941   31.2865  -46.5339 H   0  0  0  0  0  0
  -15.8858   30.3569  -46.5323 H   0  0  0  0  0  0
  -16.3718   29.4385  -47.9975 H   0  0  0  0  0  0
  -13.7897   29.9195  -48.2878 H   0  0  0  0  0  0
  -13.4309   31.5785  -46.5928 H   0  0  0  0  0  0
  -14.3612   31.9812  -50.1148 H   0  0  0  0  0  0
  -13.7988   29.8490  -50.8792 H   0  0  0  0  0  0
  -15.2873   29.1188  -50.1882 H   0  0  0  0  0  0
  -15.6261   29.6550  -52.6860 H   0  0  0  0  0  0
  -17.1944   30.8485  -50.0117 H   0  0  0  0  0  0
  -16.7383   32.5811  -49.8828 H   0  0  0  0  0  0
  -21.0817   29.0672  -50.4050 H   0  0  0  0  0  0
  -17.8130   26.9846  -44.7600 H   0  0  0  0  0  0
  -20.1272   25.4463  -47.1739 H   0  0  0  0  0  0
  1  2  1  0  0  0
  1  7  1  0  0  0
  1 38  1  0  0  0
  2  3  1  0  0  0
  2  4  2  0  0  0
  3 21  1  0  0  0
  3 37  1  0  0  0
  4  5  1  0  0  0
  5  6  2  0  0  0
  5 11  1  0  0  0
  6  7  1  0  0  0
  6  9  1  0  0  0
  7  8  2  0  0  0
  9 10  1  0  0  0
  9 36  1  0  0  0
 10 11  2  0  0  0
 10 22  1  0  0  0
 11 13  1  0  0  0
 12 13  1  0  0  0
 12 14  1  0  0  0
 12 20  1  0  0  0
 12 23  1  0  0  0
 13 24  1  0  0  0
 13 25  1  0  0  0
 14 15  1  0  0  0
 14 26  1  0  0  0
 14 27  1  0  0  0
 15 16  1  0  0  0
 15 17  1  0  0  0
 15 28  1  0  0  0
 16 29  1  0  0  0
 17 18  1  0  0  0
 17 20  1  0  0  0
 17 30  1  0  0  0
 18 19  1  0  0  0
 18 31  1  0  0  0
 18 32  1  0  0  0
 19 33  1  0  0  0
 20 34  1  0  0  0
 20 35  1  0  0  0
M  CHG  3   1   1   9   1  12   1
M  END
> <s_m_source_file>
../4ear_ligand.sdf

> <i_m_source_file_index>
1

> <s_epik_input>
W0hdL049YyhbbkhdMSlcW25IXWMoPU8pYyhjMTIpW25IXVtjSF1jMltDSDJdW05ASCtdM1tDSDJdW0NASF0oW09IXSlbQ0BIXShbQ0gyXTMpW0NIMl1bT0hd

> <s_epik_cmdline>
J2VwaWtfYXBwJywgJy1pbWFlJywgJ2xpZ2FuZF9wcm8ubWFlJywgJy1vbWFlJywgJ2xpZ2FuZF9wcmVwLm1hZScsICctbXMnLCAnMScsICctcGgnLCAnNycsICctcGh0JywgJzAuNScsICctbnQn

> <r_lp_tautomer_probability>
1

> <r_epik_Ionization_Penalty>
 12.2808

> <r_epik_Ionization_Penalty_Charging>
  4.1108

> <r_epik_Ionization_Penalty_Neutral>
  8.1700

> <r_epik_State_Penalty>
 -0.0000

> <r_epik_Charging_Adjusted_Penalty>
4.11079660655299

> <i_epik_Tot_Q>
3

> <i_epik_Tot_abs_Q>
3

> <s_epik_Chemistry_Notes>
This compound has an imine and may undergo hydrolysis.

$$$$
