4eb9_ligand
                    3D
 Schrodinger Suite 2020-3.
176184  0  0  1  0            999 V2000
   37.9980   -9.7820    9.2550 C   0  0  0  0  0  0
   40.0560   -9.0240    8.1050 N   0  3  0  0  0  0
   37.4960  -10.3490    8.2820 O   0  0  0  0  0  0
   38.9940   -8.6330    9.0600 C   0  0  1  0  0  0
   38.2630   -7.3690    8.5560 C   0  0  0  0  0  0
   37.1850   -6.8520    9.5150 C   0  0  0  0  0  0
   23.7200  -30.3050   19.0240 C   0  0  0  0  0  0
   39.5990   -9.0670    6.6950 C   0  0  0  0  0  0
   20.7240  -27.8500   21.0690 C   0  0  0  0  0  0
   22.7280  -26.7380   19.0330 O   0  0  0  0  0  0
   34.7180  -12.1020   14.9330 O   0  0  0  0  0  0
   30.0040  -25.2860   18.5100 O   0  0  0  0  0  0
   35.9900   -9.6050   12.4890 O   0  0  0  0  0  0
   27.1990  -27.5520   18.6920 O   0  0  0  0  0  0
   39.6870  -12.2320   11.7210 O   0  0  0  0  0  0
   25.2350  -25.1020   21.9500 O   0  0  0  0  0  0
   33.5460   -6.5160   18.8770 C   0  0  0  0  0  0
   33.9070  -30.7580   18.5250 C   0  0  0  0  0  0
   34.3900   -6.7550   17.7890 C   0  0  0  0  0  0
   32.7200   -7.5360   19.3510 C   0  0  0  0  0  0
   34.6470  -29.8620   17.7530 C   0  0  0  0  0  0
   32.6730  -30.3640   19.0480 C   0  0  0  0  0  0
   34.4100   -8.0110   17.1800 C   0  0  0  0  0  0
   32.7410   -8.7890   18.7390 C   0  0  0  0  0  0
   34.1530  -28.5810   17.5020 C   0  0  0  0  0  0
   32.1830  -29.0800   18.7990 C   0  0  0  0  0  0
   33.2300  -17.7640   17.1540 C   0  0  0  0  0  0
   34.1650  -18.3780   16.3180 C   0  0  0  0  0  0
   31.4320  -18.7570   15.8860 C   0  0  0  0  0  0
   32.3650  -19.3720   15.0520 C   0  0  0  0  0  0
   32.5380  -12.1710   18.4460 C   0  0  0  0  0  0
   32.8420  -24.6220   16.5140 C   0  0  0  0  0  0
   22.5760  -29.6100   19.7660 C   0  0  0  0  0  0
   30.8350  -15.7480   17.7220 C   0  0  0  0  0  0
   35.6330  -20.9620   14.9760 C   0  0  0  0  0  0
   31.4810  -15.1150   18.9610 C   0  0  0  0  0  0
   34.8860  -21.9210   15.9240 C   0  0  0  0  0  0
   38.4020  -12.5580   12.2620 C   0  0  0  0  0  0
   26.1180  -24.5530   20.9600 C   0  0  0  0  0  0
   30.8260  -17.2780   17.8510 C   0  0  0  0  0  0
   34.7430  -19.8760   14.3280 C   0  0  0  0  0  0
   36.4460  -13.7860   11.1480 C   0  0  0  0  0  0
   25.7120  -23.3900   18.7130 C   0  0  0  0  0  0
   35.2100  -13.6980   12.0710 C   0  0  0  0  0  0
   27.0750  -23.4570   18.0010 C   0  0  0  0  0  0
   32.8470  -12.9020   12.2460 C   0  0  0  0  0  0
   28.2140  -24.1250   15.8960 C   0  0  0  0  0  0
   32.3610  -11.5520   12.7940 C   0  0  0  0  0  0
   28.7690  -25.4850   15.4920 C   0  0  0  0  0  0
   30.8500  -13.7650   19.3140 C   0  0  0  0  0  0
   33.9590  -22.8710   15.1690 C   0  0  0  0  0  0
   31.3180  -11.4570   16.8140 N   0  0  0  0  0  0
   34.4490  -26.0300   16.4700 N   0  0  0  0  0  0
   30.6690  -12.3090   17.4260 N   0  0  0  0  0  0
   34.8000  -25.0270   15.8350 N   0  0  0  0  0  0
   22.0790  -28.0130   21.6330 N   0  3  0  0  0  0
   33.4700  -10.2800   15.5100 N   0  0  0  0  0  0
   30.9870  -26.8450   17.1730 N   0  0  0  0  0  0
   37.7210  -10.0990   10.5220 N   0  0  0  0  0  0
   24.8360  -27.0460   19.7980 N   0  0  0  0  0  0
   23.5360  -27.3170   19.7580 C   0  0  0  0  0  0
   33.9990  -11.1470   14.6410 C   0  0  0  0  0  0
   29.9570  -26.0970   17.5890 C   0  0  0  0  0  0
   35.7670  -10.6750   11.9170 C   0  0  0  0  0  0
   26.7580  -26.4540   18.3470 C   0  0  0  0  0  0
   31.8610  -17.9480   16.9370 C   0  0  0  0  0  0
   33.7330  -19.1910   15.2680 C   0  0  0  0  0  0
   33.5830   -9.0300   17.6510 C   0  0  0  0  0  0
   32.9150  -28.1840   18.0170 C   0  0  0  0  0  0
   32.4960  -11.3340   17.4270 C   0  0  0  0  0  0
   33.2140  -25.8270   16.9170 C   0  0  0  0  0  0
   37.4130  -12.5570   11.0960 C   0  0  1  0  0  0
   25.3670  -24.5910   19.6370 C   0  0  1  0  0  0
   23.0910  -28.4680   20.6530 C   0  0  2  0  0  0
   34.2130  -12.6170   11.6310 C   0  0  1  0  0  0
   27.0790  -24.4690   16.8490 C   0  0  1  0  0  0
   33.6540  -10.8350   13.1860 C   0  0  1  0  0  0
   28.6720  -26.2990   16.7780 C   0  0  1  0  0  0
   33.6270  -10.4030   16.9690 C   0  0  1  0  0  0
   32.3290  -26.7750   17.7780 C   0  0  1  0  0  0
   36.7420  -11.1620   10.8350 C   0  0  2  0  0  0
   25.4030  -25.9850   18.9400 C   0  0  2  0  0  0
   34.6530  -11.3420   12.2200 N   0  0  0  0  0  0
   27.4390  -25.7800   17.4130 N   0  0  0  0  0  0
   31.3360  -12.7390   18.3790 N   0  0  0  0  0  0
   33.8970  -24.1820   15.8390 N   0  0  0  0  0  0
   40.8833   -8.3011    8.1605 H   0  0  0  0  0  0
   40.4279  -10.0271    8.3607 H   0  0  0  0  0  0
   39.4969   -8.4243   10.0158 H   0  0  0  0  0  0
   38.9907   -6.5562    8.4152 H   0  0  0  0  0  0
   37.7687   -7.5886    7.5982 H   0  0  0  0  0  0
   36.7133   -5.9551    9.0872 H   0  0  0  0  0  0
   37.6450   -6.5987   10.4815 H   0  0  0  0  0  0
   36.4231   -7.6312    9.6645 H   0  0  0  0  0  0
   23.3139  -31.1151   18.4004 H   0  0  0  0  0  0
   24.4290  -30.7239   19.7533 H   0  0  0  0  0  0
   24.2392  -29.5755   18.3850 H   0  0  0  0  0  0
   40.4369   -9.3633    6.0469 H   0  0  0  0  0  0
   39.2382   -8.0718    6.3960 H   0  0  0  0  0  0
   38.7828   -9.7978    6.5962 H   0  0  0  0  0  0
   20.0366  -27.5115   21.8583 H   0  0  0  0  0  0
   20.3757  -28.8131   20.6676 H   0  0  0  0  0  0
   20.7505  -27.1040   20.2611 H   0  0  0  0  0  0
   40.5637  -12.1737   12.3828 H   0  0  0  0  0  0
   25.5626  -25.1786   22.9973 H   0  0  0  0  0  0
   33.5330   -5.5359   19.3538 H   0  0  0  0  0  0
   34.2896  -31.7600   18.7190 H   0  0  0  0  0  0
   35.0340   -5.9590   17.4152 H   0  0  0  0  0  0
   32.0592   -7.3536   20.1985 H   0  0  0  0  0  0
   35.6121  -30.1628   17.3454 H   0  0  0  0  0  0
   32.0911  -31.0603   19.6519 H   0  0  0  0  0  0
   35.0732   -8.1954   16.3349 H   0  0  0  0  0  0
   32.0965   -9.5850   19.1120 H   0  0  0  0  0  0
   34.7367  -27.8847   16.8999 H   0  0  0  0  0  0
   31.2237  -28.7755   19.2175 H   0  0  0  0  0  0
   33.5690  -17.1383   17.9796 H   0  0  0  0  0  0
   35.2309  -18.2228   16.4849 H   0  0  0  0  0  0
   30.3661  -18.9090   15.7160 H   0  0  0  0  0  0
   32.0248  -19.9976   14.2268 H   0  0  0  0  0  0
   33.3451  -12.3503   19.1563 H   0  0  0  0  0  0
   31.8952  -24.1126   16.6936 H   0  0  0  0  0  0
   21.8670  -29.1911   19.0367 H   0  0  0  0  0  0
   22.0567  -30.3394   20.4050 H   0  0  0  0  0  0
   29.7998  -15.3891   17.6244 H   0  0  0  0  0  0
   31.4069  -15.4659   16.8257 H   0  0  0  0  0  0
   36.4227  -20.4368   15.5333 H   0  0  0  0  0  0
   36.0846  -21.5369   14.1541 H   0  0  0  0  0  0
   31.3567  -15.7869   19.8230 H   0  0  0  0  0  0
   32.5528  -14.9534   18.7736 H   0  0  0  0  0  0
   35.6152  -22.5265   16.4823 H   0  0  0  0  0  0
   34.2766  -21.3378   16.6301 H   0  0  0  0  0  0
   38.4443  -13.5502   12.7350 H   0  0  0  0  0  0
   38.1186  -11.8057   13.0128 H   0  0  0  0  0  0
   26.3782  -23.5197   21.2333 H   0  0  0  0  0  0
   27.0338  -25.1602   20.9083 H   0  0  0  0  0  0
   31.0565  -17.5598   18.8890 H   0  0  0  0  0  0
   29.8323  -17.6631   17.5785 H   0  0  0  0  0  0
   35.3786  -19.0751   13.9224 H   0  0  0  0  0  0
   34.1527  -20.3230   13.5146 H   0  0  0  0  0  0
   37.0761  -14.6324   11.4587 H   0  0  0  0  0  0
   36.1177  -13.9354   10.1088 H   0  0  0  0  0  0
   25.6747  -22.4939   19.3498 H   0  0  0  0  0  0
   24.9087  -23.3407   17.9632 H   0  0  0  0  0  0
   34.6814  -14.6627   12.0689 H   0  0  0  0  0  0
   35.5333  -13.4593   13.0950 H   0  0  0  0  0  0
   27.3215  -22.4681   17.5872 H   0  0  0  0  0  0
   27.8506  -23.7568   18.7212 H   0  0  0  0  0  0
   32.9184  -13.6277   13.0695 H   0  0  0  0  0  0
   32.1342  -13.2703   11.4935 H   0  0  0  0  0  0
   29.0049  -23.5365   16.3841 H   0  0  0  0  0  0
   27.8604  -23.5926   15.0007 H   0  0  0  0  0  0
   31.8077  -11.0155   12.0092 H   0  0  0  0  0  0
   31.7004  -11.7229   13.6568 H   0  0  0  0  0  0
   28.1557  -25.9051   14.6812 H   0  0  0  0  0  0
   29.8064  -25.3693   15.1448 H   0  0  0  0  0  0
   29.7552  -13.8412   19.2390 H   0  0  0  0  0  0
   31.1287  -13.4874   20.3412 H   0  0  0  0  0  0
   32.9464  -22.4429   15.1321 H   0  0  0  0  0  0
   34.3346  -23.0130   14.1449 H   0  0  0  0  0  0
   22.4273  -27.0499   22.0344 H   0  0  0  0  0  0
   22.0526  -28.7590   22.4409 H   0  0  0  0  0  0
   32.8942   -9.4434   15.0874 H   0  0  0  0  0  0
   30.7951  -27.5359   16.3388 H   0  0  0  0  0  0
   38.2285   -9.5615   11.3366 H   0  0  0  0  0  0
   25.4910  -27.6155   20.4738 H   0  0  0  0  0  0
   38.0242  -12.7124   10.1947 H   0  0  0  0  0  0
   24.3124  -24.4466   19.9146 H   0  0  0  0  0  0
   23.9265  -28.8263   21.2723 H   0  0  0  0  0  0
   34.1656  -12.5563   10.5337 H   0  0  0  0  0  0
   26.1001  -24.4985   16.3481 H   0  0  0  0  0  0
   33.6176   -9.7378   13.1167 H   0  0  0  0  0  0
   28.5663  -27.3880   16.6645 H   0  0  0  0  0  0
   34.6159  -10.8225   17.2058 H   0  0  0  0  0  0
   32.2234  -26.3401   18.7829 H   0  0  0  0  0  0
   36.1438  -11.2994    9.9222 H   0  0  0  0  0  0
   24.7297  -25.8632   18.0787 H   0  0  0  0  0  0
  1  3  2  0  0  0
  1  4  1  0  0  0
  1 59  1  0  0  0
  2  4  1  0  0  0
  2  8  1  0  0  0
  2 87  1  0  0  0
  2 88  1  0  0  0
  4  5  1  0  0  0
  4 89  1  0  0  0
  5  6  1  0  0  0
  5 90  1  0  0  0
  5 91  1  0  0  0
  6 92  1  0  0  0
  6 93  1  0  0  0
  6 94  1  0  0  0
  7 33  1  0  0  0
  7 95  1  0  0  0
  7 96  1  0  0  0
  7 97  1  0  0  0
  8 98  1  0  0  0
  8 99  1  0  0  0
  8100  1  0  0  0
  9 56  1  0  0  0
  9101  1  0  0  0
  9102  1  0  0  0
  9103  1  0  0  0
 10 61  2  0  0  0
 11 62  2  0  0  0
 12 63  2  0  0  0
 13 64  2  0  0  0
 14 65  2  0  0  0
 15 38  1  0  0  0
 15104  1  0  0  0
 16 39  1  0  0  0
 16105  1  0  0  0
 17 19  2  0  0  0
 17 20  1  0  0  0
 17106  1  0  0  0
 18 21  2  0  0  0
 18 22  1  0  0  0
 18107  1  0  0  0
 19 23  1  0  0  0
 19108  1  0  0  0
 20 24  2  0  0  0
 20109  1  0  0  0
 21 25  1  0  0  0
 21110  1  0  0  0
 22 26  2  0  0  0
 22111  1  0  0  0
 23 68  2  0  0  0
 23112  1  0  0  0
 24 68  1  0  0  0
 24113  1  0  0  0
 25 69  2  0  0  0
 25114  1  0  0  0
 26 69  1  0  0  0
 26115  1  0  0  0
 27 28  2  0  0  0
 27 66  1  0  0  0
 27116  1  0  0  0
 28 67  1  0  0  0
 28117  1  0  0  0
 29 30  1  0  0  0
 29 66  2  0  0  0
 29118  1  0  0  0
 30 67  2  0  0  0
 30119  1  0  0  0
 31 70  2  0  0  0
 31 85  1  0  0  0
 31120  1  0  0  0
 32 71  2  0  0  0
 32 86  1  0  0  0
 32121  1  0  0  0
 33 74  1  0  0  0
 33122  1  0  0  0
 33123  1  0  0  0
 34 36  1  0  0  0
 34 40  1  0  0  0
 34124  1  0  0  0
 34125  1  0  0  0
 35 37  1  0  0  0
 35 41  1  0  0  0
 35126  1  0  0  0
 35127  1  0  0  0
 36 50  1  0  0  0
 36128  1  0  0  0
 36129  1  0  0  0
 37 51  1  0  0  0
 37130  1  0  0  0
 37131  1  0  0  0
 38 72  1  0  0  0
 38132  1  0  0  0
 38133  1  0  0  0
 39 73  1  0  0  0
 39134  1  0  0  0
 39135  1  0  0  0
 40 66  1  0  0  0
 40136  1  0  0  0
 40137  1  0  0  0
 41 67  1  0  0  0
 41138  1  0  0  0
 41139  1  0  0  0
 42 44  1  0  0  0
 42 72  1  0  0  0
 42140  1  0  0  0
 42141  1  0  0  0
 43 45  1  0  0  0
 43 73  1  0  0  0
 43142  1  0  0  0
 43143  1  0  0  0
 44 75  1  0  0  0
 44144  1  0  0  0
 44145  1  0  0  0
 45 76  1  0  0  0
 45146  1  0  0  0
 45147  1  0  0  0
 46 48  1  0  0  0
 46 75  1  0  0  0
 46148  1  0  0  0
 46149  1  0  0  0
 47 49  1  0  0  0
 47 76  1  0  0  0
 47150  1  0  0  0
 47151  1  0  0  0
 48 77  1  0  0  0
 48152  1  0  0  0
 48153  1  0  0  0
 49 78  1  0  0  0
 49154  1  0  0  0
 49155  1  0  0  0
 50 85  1  0  0  0
 50156  1  0  0  0
 50157  1  0  0  0
 51 86  1  0  0  0
 51158  1  0  0  0
 51159  1  0  0  0
 52 54  2  0  0  0
 52 70  1  0  0  0
 53 55  2  0  0  0
 53 71  1  0  0  0
 54 85  1  0  0  0
 55 86  1  0  0  0
 56 74  1  0  0  0
 56160  1  0  0  0
 56161  1  0  0  0
 57 62  1  0  0  0
 57 79  1  0  0  0
 57162  1  0  0  0
 58 63  1  0  0  0
 58 80  1  0  0  0
 58163  1  0  0  0
 59 81  1  0  0  0
 59164  1  0  0  0
 60 61  1  0  0  0
 60 82  1  0  0  0
 60165  1  0  0  0
 61 74  1  0  0  0
 62 77  1  0  0  0
 63 78  1  0  0  0
 64 81  1  0  0  0
 64 83  1  0  0  0
 65 82  1  0  0  0
 65 84  1  0  0  0
 68 79  1  0  0  0
 69 80  1  0  0  0
 70 79  1  0  0  0
 71 80  1  0  0  0
 72 81  1  0  0  0
 72166  1  0  0  0
 73 82  1  0  0  0
 73167  1  0  0  0
 74168  1  0  0  0
 75 83  1  0  0  0
 75169  1  0  0  0
 76 84  1  0  0  0
 76170  1  0  0  0
 77 83  1  0  0  0
 77171  1  0  0  0
 78 84  1  0  0  0
 78172  1  0  0  0
 79173  1  0  0  0
 80174  1  0  0  0
 81175  1  0  0  0
 82176  1  0  0  0
M  CHG  2   2   1  56   1
M  END
> <s_m_source_file>
../4eb9_ligand.sdf

> <i_m_source_file_index>
1

> <s_epik_input>
W0NIM11bQ0gyXVtDQEhdKFtOSDIrXVtDSDNdKUMoPU8pW05IXVtDQEBIXShbQ0BASF0oW0NIMl1bT0hdKVtDSDJdW0NIMl0xKUMoPU8pTihbQ0BASF0xMilbQ0BASF0oW0NIMl1bQ0gyXTIpQyg9TylbTkhdW0NAQEhdKGMzW2NIXVtjSF1bY0hdW2NIXVtjSF0zKWM0W2NIXW4obm40KVtDSDJdW0NIMl1bQ0gyXVtDSDJdYzVbY0hdW2NIXWMoW2NIXVtjSF01KVtDSDJdW0NIMl1bQ0gyXVtDSDJdbihubjYpW2NIXWM2W0NASF0oYzdbY0hdW2NIXVtjSF1bY0hdW2NIXTcpW05IXUMoPU8pW0NASF0oW0NIMl1bQ0gyXTgpTihbQ0BIXTg5KUMoPU8pW0NASF0oW0NAQEhdKFtDSDJdW09IXSlbQ0gyXVtDSDJdOSlbTkhdQyg9TylbQ0BIXShbQ0gyXVtDSDNdKVtOSDIrXVtDSDNd

> <s_epik_cmdline>
J2VwaWtfYXBwJywgJy1pbWFlJywgJ2xpZ2FuZF9wcm8ubWFlJywgJy1vbWFlJywgJ2xpZ2FuZF9wcmVwLm1hZScsICctbXMnLCAnMScsICctcGgnLCAnNycsICctcGh0JywgJzAuNScsICctbnQn

> <s_epik_pKa_notes>
Molecule size exceeds maximum supported for generating protonation states

$$$$
