4ebv_ligand
                    3D
 Schrodinger Suite 2020-3.
 41 44  0  0  1  0            999 V2000
   -8.0970    9.4540  -19.3230 C   0  0  0  0  0  0
   -8.9670    9.6000  -18.0830 C   0  0  0  0  0  0
   -9.3760    8.2090  -17.6400 C   0  0  0  0  0  0
  -10.3520    7.5220  -18.3540 C   0  0  0  0  0  0
  -10.7710    6.2450  -17.9820 C   0  0  0  0  0  0
  -10.2040    5.6370  -16.8490 C   0  0  0  0  0  0
   -9.2010    6.3470  -16.1420 C   0  0  0  0  0  0
   -8.7830    7.6220  -16.5230 C   0  0  0  0  0  0
  -10.5810    4.2550  -16.3930 C   0  0  0  0  0  0
  -10.8130    3.2300  -17.3270 C   0  0  0  0  0  0
  -11.1100    1.9260  -16.9370 C   0  0  0  0  0  0
  -11.2050    1.5980  -15.5830 C   0  0  0  0  0  0
  -11.4870    0.2640  -15.2660 N   0  0  0  0  0  0
  -11.1960   -0.8170  -16.2160 C   0  0  0  0  0  0
  -12.1920   -0.1090  -13.8060 S   0  0  0  0  0  0
  -13.5780    0.1550  -14.0790 O   0  0  0  0  0  0
  -11.7810   -1.4270  -13.3920 O   0  0  0  0  0  0
  -11.6040    1.0990  -12.6820 C   0  0  0  0  0  0
  -11.5770    1.1150  -11.3510 C   0  0  0  0  0  0
  -11.0760    2.3020  -10.9930 N   0  3  0  0  0  0
  -10.7580    3.0430  -12.1300 N   0  0  0  0  0  0
  -11.0890    2.3260  -13.1660 C   0  0  0  0  0  0
  -10.9890    2.6250  -14.6150 C   0  0  0  0  0  0
  -10.6700    3.9310  -15.0260 C   0  0  0  0  0  0
   -7.7831   10.4495  -19.6699 H   0  0  0  0  0  0
   -8.6709    8.9532  -20.1166 H   0  0  0  0  0  0
   -7.2082    8.8537  -19.0787 H   0  0  0  0  0  0
   -8.3931   10.1008  -17.2894 H   0  0  0  0  0  0
   -9.8558   10.2003  -18.3273 H   0  0  0  0  0  0
  -10.8014    7.9943  -19.2276 H   0  0  0  0  0  0
  -11.5308    5.7236  -18.5643 H   0  0  0  0  0  0
   -8.7408    5.8806  -15.2709 H   0  0  0  0  0  0
   -8.0109    8.1471  -15.9607 H   0  0  0  0  0  0
  -10.7587    3.4631  -18.3904 H   0  0  0  0  0  0
  -11.2692    1.1573  -17.6932 H   0  0  0  0  0  0
  -10.7348   -0.3953  -17.1212 H   0  0  0  0  0  0
  -12.1311   -1.3297  -16.4857 H   0  0  0  0  0  0
  -10.5041   -1.5358  -15.7528 H   0  0  0  0  0  0
  -11.9325    0.2426  -10.7831 H   0  0  0  0  0  0
  -10.4894    4.7021  -14.2771 H   0  0  0  0  0  0
  -10.9004    2.7260   -9.9933 H   0  0  0  0  0  0
  1  2  1  0  0  0
  1 25  1  0  0  0
  1 26  1  0  0  0
  1 27  1  0  0  0
  2  3  1  0  0  0
  2 28  1  0  0  0
  2 29  1  0  0  0
  3  4  2  0  0  0
  3  8  1  0  0  0
  4  5  1  0  0  0
  4 30  1  0  0  0
  5  6  2  0  0  0
  5 31  1  0  0  0
  6  7  1  0  0  0
  6  9  1  0  0  0
  7  8  2  0  0  0
  7 32  1  0  0  0
  8 33  1  0  0  0
  9 10  2  0  0  0
  9 24  1  0  0  0
 10 11  1  0  0  0
 10 34  1  0  0  0
 11 12  2  0  0  0
 11 35  1  0  0  0
 12 13  1  0  0  0
 12 23  1  0  0  0
 13 14  1  0  0  0
 13 15  1  0  0  0
 14 36  1  0  0  0
 14 37  1  0  0  0
 14 38  1  0  0  0
 15 16  2  0  0  0
 15 17  2  0  0  0
 15 18  1  0  0  0
 18 19  2  0  0  0
 18 22  1  0  0  0
 19 20  1  0  0  0
 19 39  1  0  0  0
 20 21  1  0  0  0
 20 41  1  0  0  0
 21 22  2  0  0  0
 22 23  1  0  0  0
 23 24  2  0  0  0
 24 40  1  0  0  0
M  CHG  1  20   1
M  END
> <s_m_source_file>
../4ebv_ligand.sdf

> <i_m_source_file_index>
1

> <s_epik_input>
W0NIM11bQ0gyXWMxW2NIXVtjSF1jKFtjSF1bY0hdMSktYyhbY0hdW2NIXTIpW2NIXWMoYzIzKWM0YyhbY0hdW25IXW40KVMoPU8pKD1PKU4zW0NIM10=

> <s_epik_cmdline>
J2VwaWtfYXBwJywgJy1pbWFlJywgJ2xpZ2FuZF9wcm8ubWFlJywgJy1vbWFlJywgJ2xpZ2FuZF9wcmVwLm1hZScsICctbXMnLCAnMScsICctcGgnLCAnNycsICctcGh0JywgJzAuNScsICctbnQn

> <r_epik_Ionization_Penalty>
  0.0000

> <r_epik_Ionization_Penalty_Charging>
  0.0000

> <r_epik_Ionization_Penalty_Neutral>
  0.0000

> <r_epik_State_Penalty>
  0.2003

> <r_epik_Charging_Adjusted_Penalty>
0.200299081418672

> <i_epik_Tot_Q>
1

> <i_epik_Tot_abs_Q>
1

> <s_epik_Chemistry_Notes>
This compound has an imine and may undergo hydrolysis.

$$$$
