4ebw_ligand
                    3D
 Schrodinger Suite 2020-3.
 47 50  0  0  1  0            999 V2000
   13.0750    9.1250   18.4220 C   0  0  0  0  0  0
   11.6670    9.2370   19.0120 C   0  0  0  0  0  0
   11.1870    7.8880   19.5190 C   0  0  0  0  0  0
   10.2140    7.2080   18.7960 C   0  0  0  0  0  0
    9.7620    5.9820   19.2310 C   0  0  0  0  0  0
   10.2760    5.4250   20.4050 C   0  0  0  0  0  0
   11.2520    6.1090   21.1390 C   0  0  0  0  0  0
   11.7020    7.3330   20.6890 C   0  0  0  0  0  0
    9.7650    4.1100   20.8630 C   0  0  0  0  0  0
    9.5110    3.0820   19.9510 C   0  0  0  0  0  0
    9.0400    1.8750   20.3950 C   0  0  0  0  0  0
    8.7940    1.6500   21.7530 C   0  0  0  0  0  0
    8.2900    0.3990   22.1330 N   0  0  0  0  0  0
    7.4580   -0.4270   21.2410 C   0  0  0  0  0  0
    8.5970   -0.1750   23.6510 S   0  0  0  0  0  0
    7.4440   -0.9190   24.0180 O   0  0  0  0  0  0
    9.9230   -0.6860   23.6160 O   0  0  0  0  0  0
    8.6480    1.2580   24.6740 C   0  0  0  0  0  0
    8.5260    1.3620   26.0310 C   0  0  0  0  0  0
    8.6430    2.6320   26.3330 N   0  0  0  0  0  0
    8.8530    3.3930   25.1660 N   0  0  0  0  0  0
    9.0110    4.8620   25.1280 C   0  0  0  0  0  0
   10.4660    5.2690   25.3700 C   0  0  0  0  0  0
    8.8370    2.5150   24.1270 C   0  0  0  0  0  0
    9.0360    2.6900   22.6690 C   0  0  0  0  0  0
    9.5320    3.9070   22.2100 C   0  0  0  0  0  0
   13.4012   10.1119   18.0620 H   0  0  0  0  0  0
   13.0655    8.4134   17.5832 H   0  0  0  0  0  0
   13.7700    8.7692   19.1969 H   0  0  0  0  0  0
   11.6765    9.9486   19.8508 H   0  0  0  0  0  0
   10.9720    9.5928   18.2372 H   0  0  0  0  0  0
    9.8083    7.6455   17.8838 H   0  0  0  0  0  0
    9.0037    5.4464   18.6598 H   0  0  0  0  0  0
   11.6525    5.6789   22.0570 H   0  0  0  0  0  0
   12.4654    7.8696   21.2523 H   0  0  0  0  0  0
    9.6876    3.2407   18.8872 H   0  0  0  0  0  0
    8.8537    1.0760   19.6774 H   0  0  0  0  0  0
    7.3420    0.0817   20.2726 H   0  0  0  0  0  0
    6.4684   -0.5769   21.6973 H   0  0  0  0  0  0
    7.9424   -1.4025   21.0870 H   0  0  0  0  0  0
    8.3621    0.5426   26.7309 H   0  0  0  0  0  0
    8.7008    5.2387   24.1422 H   0  0  0  0  0  0
    8.3847    5.3185   25.9086 H   0  0  0  0  0  0
   10.5506    6.3652   25.3357 H   0  0  0  0  0  0
   11.1047    4.8273   24.5909 H   0  0  0  0  0  0
   10.7886    4.9070   26.3574 H   0  0  0  0  0  0
    9.7387    4.7078   22.9200 H   0  0  0  0  0  0
  1  2  1  0  0  0
  1 27  1  0  0  0
  1 28  1  0  0  0
  1 29  1  0  0  0
  2  3  1  0  0  0
  2 30  1  0  0  0
  2 31  1  0  0  0
  3  4  2  0  0  0
  3  8  1  0  0  0
  4  5  1  0  0  0
  4 32  1  0  0  0
  5  6  2  0  0  0
  5 33  1  0  0  0
  6  7  1  0  0  0
  6  9  1  0  0  0
  7  8  2  0  0  0
  7 34  1  0  0  0
  8 35  1  0  0  0
  9 10  2  0  0  0
  9 26  1  0  0  0
 10 11  1  0  0  0
 10 36  1  0  0  0
 11 12  2  0  0  0
 11 37  1  0  0  0
 12 13  1  0  0  0
 12 25  1  0  0  0
 13 14  1  0  0  0
 13 15  1  0  0  0
 14 38  1  0  0  0
 14 39  1  0  0  0
 14 40  1  0  0  0
 15 16  2  0  0  0
 15 17  2  0  0  0
 15 18  1  0  0  0
 18 19  1  0  0  0
 18 24  2  0  0  0
 19 20  2  0  0  0
 19 41  1  0  0  0
 20 21  1  0  0  0
 21 22  1  0  0  0
 21 24  1  0  0  0
 22 23  1  0  0  0
 22 42  1  0  0  0
 22 43  1  0  0  0
 23 44  1  0  0  0
 23 45  1  0  0  0
 23 46  1  0  0  0
 24 25  1  0  0  0
 25 26  2  0  0  0
 26 47  1  0  0  0
M  END
> <s_m_source_file>
../4ebw_ligand.sdf

> <i_m_source_file_index>
1

> <s_epik_input>
W0NIM11bQ0gyXWMxW2NIXVtjSF1jKFtjSF1bY0hdMSktYyhbY0hdW2NIXTIpW2NIXWMoYzIzKWM0YyhTKD1PKSg9TylOM1tDSDNdKVtjSF1ubjRbQ0gyXVtDSDNd

> <s_epik_cmdline>
J2VwaWtfYXBwJywgJy1pbWFlJywgJ2xpZ2FuZF9wcm8ubWFlJywgJy1vbWFlJywgJ2xpZ2FuZF9wcmVwLm1hZScsICctbXMnLCAnMScsICctcGgnLCAnNycsICctcGh0JywgJzAuNScsICctbnQn

> <r_lp_tautomer_probability>
1

> <r_epik_Ionization_Penalty>
  0.0000

> <r_epik_Ionization_Penalty_Charging>
  0.0000

> <r_epik_Ionization_Penalty_Neutral>
  0.0000

> <r_epik_State_Penalty>
 -0.0000

> <r_epik_Charging_Adjusted_Penalty>
0

> <i_epik_Tot_Q>
0

> <i_epik_Tot_abs_Q>
0

$$$$
