4ec4_ligand
                    3D
 Schrodinger Suite 2020-3.
176184  0  0  1  0            999 V2000
   12.9570    2.1640   27.1080 C   0  0  0  0  0  0
   12.9410   -0.2890   27.1290 N   0  3  0  0  0  0
   11.9180    2.1400   27.7710 O   0  0  0  0  0  0
   13.4990    0.8820   26.4390 C   0  0  1  0  0  0
   13.2370    0.7470   24.9190 C   0  0  0  0  0  0
   12.2170    1.7110   24.3280 C   0  0  0  0  0  0
   11.6520   22.7180   33.2160 C   0  0  0  0  0  0
   13.8980   -0.7100   28.1690 C   0  0  0  0  0  0
   14.2410   25.3290   29.8330 C   0  0  0  0  0  0
   11.5910   22.6450   29.8640 O   0  0  0  0  0  0
   15.0460    8.4940   26.4470 O   0  0  0  0  0  0
   14.1900   16.0420   31.4470 O   0  0  0  0  0  0
   13.9220    5.4240   25.4530 O   0  0  0  0  0  0
   12.8090   19.4070   32.2390 O   0  0  0  0  0  0
   16.3410    4.0990   29.7860 O   0  0  0  0  0  0
   16.5570   20.1760   28.4110 O   0  0  0  0  0  0
   17.2770    9.7410   20.2940 C   0  0  0  0  0  0
   14.1640   15.0420   38.0550 C   0  0  0  0  0  0
   16.9330    8.6170   21.0340 C   0  0  0  0  0  0
   17.0730   11.0110   20.8310 C   0  0  0  0  0  0
   14.5720   16.0170   37.1460 C   0  0  0  0  0  0
   13.6610   13.8270   37.5920 C   0  0  0  0  0  0
   16.3900    8.7590   22.3130 C   0  0  0  0  0  0
   16.5290   11.1490   22.1070 C   0  0  0  0  0  0
   14.4830   15.7870   35.7700 C   0  0  0  0  0  0
   13.5640   13.6020   36.2200 C   0  0  0  0  0  0
    8.8920   13.9900   27.7480 C   0  0  0  0  0  0
    8.5650   13.3680   28.9470 C   0  0  0  0  0  0
    9.1880   11.8300   26.7020 C   0  0  0  0  0  0
    8.8580   11.2060   27.9020 C   0  0  0  0  0  0
   14.0960   12.2310   24.0880 C   0  0  0  0  0  0
   12.5370   12.6570   32.4460 C   0  0  0  0  0  0
   12.1970   24.0240   32.6230 C   0  0  0  0  0  0
   10.9590   13.5600   24.8300 C   0  0  0  0  0  0
    9.2470   11.7850   31.3780 C   0  0  0  0  0  0
   12.0700   14.4100   25.4600 C   0  0  0  0  0  0
    9.9750   10.6110   32.0230 C   0  0  0  0  0  0
   15.6490    4.4050   28.5620 C   0  0  0  0  0  0
   15.5670   20.5420   29.3690 C   0  0  0  0  0  0
    9.5610   13.9470   25.3330 C   0  0  0  0  0  0
    8.2100   11.3210   30.3450 C   0  0  0  0  0  0
   14.1780    6.3380   29.1560 C   0  0  0  0  0  0
   14.5040   18.3040   29.0610 C   0  0  0  0  0  0
   12.7650    6.9330   29.2830 C   0  0  0  0  0  0
   13.3650   17.5000   28.4260 C   0  0  0  0  0  0
   12.1240    8.8610   27.7940 C   0  0  0  0  0  0
   11.6720   15.9720   29.4550 C   0  0  0  0  0  0
   11.9080    8.9840   26.2850 C   0  0  0  0  0  0
   11.0090   15.9840   30.8230 C   0  0  0  0  0  0
   13.2490   14.5380   24.4850 C   0  0  0  0  0  0
   11.4540   10.5860   31.6180 C   0  0  0  0  0  0
   15.7850   12.4130   25.4000 N   0  0  0  0  0  0
   13.5280   11.8000   34.1100 N   0  0  0  0  0  0
   15.1600   13.4780   25.4180 N   0  0  0  0  0  0
   12.9040   10.9000   33.5380 N   0  0  0  0  0  0
   12.9780   25.0390   30.5370 N   0  3  0  0  0  0
   14.3680    9.3540   24.4750 N   0  0  0  0  0  0
   12.9260   15.3180   33.2010 N   0  0  0  0  0  0
   13.7240    3.2400   26.9760 N   0  0  0  0  0  0
   13.3640   21.5170   30.7020 N   0  0  0  0  0  0
   12.5970   22.5970   30.5710 C   0  0  0  0  0  0
   14.2030    8.6160   25.5670 C   0  0  0  0  0  0
   13.1440   16.0480   32.0960 C   0  0  0  0  0  0
   13.3820    5.6520   26.5320 C   0  0  0  0  0  0
   12.7130   19.1570   31.0320 C   0  0  0  0  0  0
    9.2060   13.2240   26.6330 C   0  0  0  0  0  0
    8.5460   11.9790   29.0200 C   0  0  0  0  0  0
   16.1760   10.0220   22.8530 C   0  0  0  0  0  0
   13.9750   14.5770   35.3000 C   0  0  0  0  0  0
   15.1550   11.5970   24.5720 C   0  0  0  0  0  0
   13.3320   12.9370   33.4570 C   0  0  0  0  0  0
   14.1990    4.8390   28.8080 C   0  0  1  0  0  0
   14.2430   19.8240   29.0560 C   0  0  1  0  0  0
   13.0620   23.8230   31.3710 C   0  0  2  0  0  0
   12.1250    7.3530   27.9420 C   0  0  1  0  0  0
   12.0880   17.4330   29.2840 C   0  0  1  0  0  0
   12.8530    7.9340   25.7040 C   0  0  1  0  0  0
   11.9360   16.8890   31.6370 C   0  0  1  0  0  0
   15.5810   10.1580   24.2640 C   0  0  1  0  0  0
   13.8780   14.3470   33.7820 C   0  0  1  0  0  0
   13.3330    4.5240   27.5780 C   0  0  2  0  0  0
   13.0730   20.2530   30.0000 C   0  0  2  0  0  0
   12.8620    6.8730   26.7410 N   0  0  0  0  0  0
   12.3080   17.9320   30.6610 N   0  0  0  0  0  0
   14.1790   13.4200   24.6760 N   0  0  0  0  0  0
   12.3040   11.3570   32.5610 N   0  0  0  0  0  0
   11.9781   -0.0199   27.5878 H   0  0  0  0  0  0
   12.7874   -1.1026   26.4048 H   0  0  0  0  0  0
   14.5912    0.9012   26.5681 H   0  0  0  0  0  0
   14.1738    0.9193   24.3688 H   0  0  0  0  0  0
   12.8636   -0.2642   24.6997 H   0  0  0  0  0  0
   12.1156    1.5215   23.2492 H   0  0  0  0  0  0
   12.5544    2.7456   24.4885 H   0  0  0  0  0  0
   11.2442    1.5622   24.8194 H   0  0  0  0  0  0
   11.0456   22.9442   34.1054 H   0  0  0  0  0  0
   12.4912   22.0662   33.5004 H   0  0  0  0  0  0
   11.0286   22.2074   32.4672 H   0  0  0  0  0  0
   13.5001   -1.5874   28.6998 H   0  0  0  0  0  0
   14.0492    0.1131   28.8829 H   0  0  0  0  0  0
   14.8585   -0.9696   27.6999 H   0  0  0  0  0  0
   14.1232   26.2409   29.2292 H   0  0  0  0  0  0
   14.4968   24.4847   29.1760 H   0  0  0  0  0  0
   15.0451   25.4778   30.5688 H   0  0  0  0  0  0
   17.3914    3.7736   29.7574 H   0  0  0  0  0  0
   17.5711   20.5966   28.4799 H   0  0  0  0  0  0
   17.7047    9.6304   19.2975 H   0  0  0  0  0  0
   14.2382   15.2293   39.1262 H   0  0  0  0  0  0
   17.0871    7.6223   20.6158 H   0  0  0  0  0  0
   17.3388   11.8962   20.2532 H   0  0  0  0  0  0
   14.9636   16.9664   37.5111 H   0  0  0  0  0  0
   13.3459   13.0586   38.2979 H   0  0  0  0  0  0
   16.1320    7.8725   22.8923 H   0  0  0  0  0  0
   16.3779   12.1439   22.5258 H   0  0  0  0  0  0
   14.8102   16.5522   35.0661 H   0  0  0  0  0  0
   13.1633   12.6554   35.8573 H   0  0  0  0  0  0
    8.9020   15.0780   27.6828 H   0  0  0  0  0  0
    8.3245   13.9658   29.8261 H   0  0  0  0  0  0
    9.4307   11.2340   25.8223 H   0  0  0  0  0  0
    8.8436   10.1181   27.9674 H   0  0  0  0  0  0
   13.3461   11.8684   23.3849 H   0  0  0  0  0  0
   12.1564   13.3395   31.6862 H   0  0  0  0  0  0
   11.3578   24.6758   32.3386 H   0  0  0  0  0  0
   12.8204   24.5346   33.3717 H   0  0  0  0  0  0
   10.9725   13.6901   23.7378 H   0  0  0  0  0  0
   11.1243   12.5005   25.0751 H   0  0  0  0  0  0
    8.7240   12.3632   32.1540 H   0  0  0  0  0  0
    9.9752   12.4320   30.8670 H   0  0  0  0  0  0
   11.6793   15.4124   25.6894 H   0  0  0  0  0  0
   12.4172   13.9308   26.3872 H   0  0  0  0  0  0
    9.9122   10.6974   33.1178 H   0  0  0  0  0  0
    9.5072    9.6685   31.7022 H   0  0  0  0  0  0
   16.1672    5.2248   28.0430 H   0  0  0  0  0  0
   15.6338    3.5142   27.9168 H   0  0  0  0  0  0
   15.9062   20.2542   30.3750 H   0  0  0  0  0  0
   15.4066   21.6297   29.3333 H   0  0  0  0  0  0
    9.5253   15.0305   25.5192 H   0  0  0  0  0  0
    8.8113   13.6806   24.5734 H   0  0  0  0  0  0
    8.2532   10.2261   30.2484 H   0  0  0  0  0  0
    7.2043   11.6206   30.6750 H   0  0  0  0  0  0
   14.7267    6.8630   28.3602 H   0  0  0  0  0  0
   14.7129    6.4566   30.1098 H   0  0  0  0  0  0
   14.6351   17.9906   30.1072 H   0  0  0  0  0  0
   15.4354   18.1228   28.5045 H   0  0  0  0  0  0
   12.0940    6.1902   29.7392 H   0  0  0  0  0  0
   12.8012    7.8320   29.9159 H   0  0  0  0  0  0
   13.0855   17.9563   27.4649 H   0  0  0  0  0  0
   13.6964   16.4647   28.2577 H   0  0  0  0  0  0
   13.0774    9.3363   28.0679 H   0  0  0  0  0  0
   11.2997    9.3603   28.3243 H   0  0  0  0  0  0
   12.5277   15.2809   29.4683 H   0  0  0  0  0  0
   10.9454   15.6413   28.6982 H   0  0  0  0  0  0
   10.8542    8.7766   26.0474 H   0  0  0  0  0  0
   12.1634   10.0033   25.9599 H   0  0  0  0  0  0
    9.9902   16.3889   30.7331 H   0  0  0  0  0  0
   10.9623   14.9580   31.2169 H   0  0  0  0  0  0
   12.8731   14.5244   23.4513 H   0  0  0  0  0  0
   13.7772   15.4848   24.6706 H   0  0  0  0  0  0
   11.8129    9.5463   31.6046 H   0  0  0  0  0  0
   11.5674   11.0260   30.6162 H   0  0  0  0  0  0
   12.7222   25.8833   31.1940 H   0  0  0  0  0  0
   12.1739   24.8903   29.8013 H   0  0  0  0  0  0
   13.5695    9.3542   23.7184 H   0  0  0  0  0  0
   11.9504   15.4861   33.6806 H   0  0  0  0  0  0
   14.6625    3.1622   26.4076 H   0  0  0  0  0  0
   14.2411   21.5904   31.3617 H   0  0  0  0  0  0
   13.7768    4.2766   29.6539 H   0  0  0  0  0  0
   13.9122   20.1213   28.0500 H   0  0  0  0  0  0
   14.1150   23.6808   31.6555 H   0  0  0  0  0  0
   11.1189    6.9084   27.9478 H   0  0  0  0  0  0
   11.3276   18.0625   28.7987 H   0  0  0  0  0  0
   12.5816    7.4941   24.7330 H   0  0  0  0  0  0
   11.4982   17.3603   32.5293 H   0  0  0  0  0  0
   16.3670    9.7823   24.9356 H   0  0  0  0  0  0
   14.8767   14.4960   33.3457 H   0  0  0  0  0  0
   12.2923    4.3973   27.9111 H   0  0  0  0  0  0
   12.1954   20.4610   29.3703 H   0  0  0  0  0  0
  1  3  2  0  0  0
  1  4  1  0  0  0
  1 59  1  0  0  0
  2  4  1  0  0  0
  2  8  1  0  0  0
  2 87  1  0  0  0
  2 88  1  0  0  0
  4  5  1  0  0  0
  4 89  1  0  0  0
  5  6  1  0  0  0
  5 90  1  0  0  0
  5 91  1  0  0  0
  6 92  1  0  0  0
  6 93  1  0  0  0
  6 94  1  0  0  0
  7 33  1  0  0  0
  7 95  1  0  0  0
  7 96  1  0  0  0
  7 97  1  0  0  0
  8 98  1  0  0  0
  8 99  1  0  0  0
  8100  1  0  0  0
  9 56  1  0  0  0
  9101  1  0  0  0
  9102  1  0  0  0
  9103  1  0  0  0
 10 61  2  0  0  0
 11 62  2  0  0  0
 12 63  2  0  0  0
 13 64  2  0  0  0
 14 65  2  0  0  0
 15 38  1  0  0  0
 15104  1  0  0  0
 16 39  1  0  0  0
 16105  1  0  0  0
 17 19  2  0  0  0
 17 20  1  0  0  0
 17106  1  0  0  0
 18 21  2  0  0  0
 18 22  1  0  0  0
 18107  1  0  0  0
 19 23  1  0  0  0
 19108  1  0  0  0
 20 24  2  0  0  0
 20109  1  0  0  0
 21 25  1  0  0  0
 21110  1  0  0  0
 22 26  2  0  0  0
 22111  1  0  0  0
 23 68  2  0  0  0
 23112  1  0  0  0
 24 68  1  0  0  0
 24113  1  0  0  0
 25 69  2  0  0  0
 25114  1  0  0  0
 26 69  1  0  0  0
 26115  1  0  0  0
 27 28  2  0  0  0
 27 66  1  0  0  0
 27116  1  0  0  0
 28 67  1  0  0  0
 28117  1  0  0  0
 29 30  1  0  0  0
 29 66  2  0  0  0
 29118  1  0  0  0
 30 67  2  0  0  0
 30119  1  0  0  0
 31 70  2  0  0  0
 31 85  1  0  0  0
 31120  1  0  0  0
 32 71  2  0  0  0
 32 86  1  0  0  0
 32121  1  0  0  0
 33 74  1  0  0  0
 33122  1  0  0  0
 33123  1  0  0  0
 34 36  1  0  0  0
 34 40  1  0  0  0
 34124  1  0  0  0
 34125  1  0  0  0
 35 37  1  0  0  0
 35 41  1  0  0  0
 35126  1  0  0  0
 35127  1  0  0  0
 36 50  1  0  0  0
 36128  1  0  0  0
 36129  1  0  0  0
 37 51  1  0  0  0
 37130  1  0  0  0
 37131  1  0  0  0
 38 72  1  0  0  0
 38132  1  0  0  0
 38133  1  0  0  0
 39 73  1  0  0  0
 39134  1  0  0  0
 39135  1  0  0  0
 40 66  1  0  0  0
 40136  1  0  0  0
 40137  1  0  0  0
 41 67  1  0  0  0
 41138  1  0  0  0
 41139  1  0  0  0
 42 44  1  0  0  0
 42 72  1  0  0  0
 42140  1  0  0  0
 42141  1  0  0  0
 43 45  1  0  0  0
 43 73  1  0  0  0
 43142  1  0  0  0
 43143  1  0  0  0
 44 75  1  0  0  0
 44144  1  0  0  0
 44145  1  0  0  0
 45 76  1  0  0  0
 45146  1  0  0  0
 45147  1  0  0  0
 46 48  1  0  0  0
 46 75  1  0  0  0
 46148  1  0  0  0
 46149  1  0  0  0
 47 49  1  0  0  0
 47 76  1  0  0  0
 47150  1  0  0  0
 47151  1  0  0  0
 48 77  1  0  0  0
 48152  1  0  0  0
 48153  1  0  0  0
 49 78  1  0  0  0
 49154  1  0  0  0
 49155  1  0  0  0
 50 85  1  0  0  0
 50156  1  0  0  0
 50157  1  0  0  0
 51 86  1  0  0  0
 51158  1  0  0  0
 51159  1  0  0  0
 52 54  2  0  0  0
 52 70  1  0  0  0
 53 55  2  0  0  0
 53 71  1  0  0  0
 54 85  1  0  0  0
 55 86  1  0  0  0
 56 74  1  0  0  0
 56160  1  0  0  0
 56161  1  0  0  0
 57 62  1  0  0  0
 57 79  1  0  0  0
 57162  1  0  0  0
 58 63  1  0  0  0
 58 80  1  0  0  0
 58163  1  0  0  0
 59 81  1  0  0  0
 59164  1  0  0  0
 60 61  1  0  0  0
 60 82  1  0  0  0
 60165  1  0  0  0
 61 74  1  0  0  0
 62 77  1  0  0  0
 63 78  1  0  0  0
 64 81  1  0  0  0
 64 83  1  0  0  0
 65 82  1  0  0  0
 65 84  1  0  0  0
 68 79  1  0  0  0
 69 80  1  0  0  0
 70 79  1  0  0  0
 71 80  1  0  0  0
 72 81  1  0  0  0
 72166  1  0  0  0
 73 82  1  0  0  0
 73167  1  0  0  0
 74168  1  0  0  0
 75 83  1  0  0  0
 75169  1  0  0  0
 76 84  1  0  0  0
 76170  1  0  0  0
 77 83  1  0  0  0
 77171  1  0  0  0
 78 84  1  0  0  0
 78172  1  0  0  0
 79173  1  0  0  0
 80174  1  0  0  0
 81175  1  0  0  0
 82176  1  0  0  0
M  CHG  2   2   1  56   1
M  END
> <s_m_source_file>
../4ec4_ligand.sdf

> <i_m_source_file_index>
1

> <s_epik_input>
W0NIM11bQ0gyXVtDQEhdKFtOSDIrXVtDSDNdKUMoPU8pW05IXVtDQEBIXShbQ0BASF0oW0NIMl1bT0hdKVtDSDJdW0NIMl0xKUMoPU8pTihbQ0BASF0xMilbQ0BASF0oW0NIMl1bQ0gyXTIpQyg9TylbTkhdW0NAQEhdKGMzW2NIXVtjSF1bY0hdW2NIXVtjSF0zKWM0W2NIXW4obm40KVtDSDJdW0NIMl1bQ0gyXVtDSDJdYzVbY0hdW2NIXWMoW2NIXVtjSF01KVtDSDJdW0NIMl1bQ0gyXVtDSDJdbihubjYpW2NIXWM2W0NASF0oYzdbY0hdW2NIXVtjSF1bY0hdW2NIXTcpW05IXUMoPU8pW0NASF0oW0NIMl1bQ0gyXTgpTihbQ0BIXTg5KUMoPU8pW0NASF0oW0NAQEhdKFtDSDJdW09IXSlbQ0gyXVtDSDJdOSlbTkhdQyg9TylbQ0BIXShbQ0gyXVtDSDNdKVtOSDIrXVtDSDNd

> <s_epik_cmdline>
J2VwaWtfYXBwJywgJy1pbWFlJywgJ2xpZ2FuZF9wcm8ubWFlJywgJy1vbWFlJywgJ2xpZ2FuZF9wcmVwLm1hZScsICctbXMnLCAnMScsICctcGgnLCAnNycsICctcGh0JywgJzAuNScsICctbnQn

> <s_epik_pKa_notes>
Molecule size exceeds maximum supported for generating protonation states

$$$$
