4ede_ligand
                    3D
 Schrodinger Suite 2020-3.
 50 50  0  0  1  0            999 V2000
   -7.6490   -1.0010    7.1940 C   0  0  0  0  0  0
   -7.5430   -1.2730    5.6820 C   0  0  0  0  0  0
   -8.0690   -2.6090    5.1420 C   0  0  0  0  0  0
   -9.0030   -3.2940    6.1370 C   0  0  0  0  0  0
   -8.3230   -3.3750    7.4800 C   0  0  0  0  0  0
   -7.8930   -2.2580    8.0430 C   0  0  0  0  0  0
   -7.6960   -2.3160    9.5170 C   0  0  0  0  0  0
   -6.5380   -1.8640   10.0110 C   0  0  0  0  0  0
   -6.2690   -1.8470   11.4500 C   0  0  0  0  0  0
   -5.4150   -0.8820   11.8910 C   0  0  0  0  0  0
   -5.0510   -0.6610   13.2750 C   0  0  0  0  0  0
   -3.9390    0.0530   13.5450 C   0  0  0  0  0  0
   -3.6160    0.3170   14.9550 C   0  0  0  0  0  0
   -2.7240    1.2530   15.2180 C   0  0  0  0  0  0
   -2.4870    1.5070   16.6760 C   0  0  0  0  0  0
   -6.3660   -0.3100    7.6370 C   0  0  0  0  0  0
   -8.6720    0.1010    7.4380 C   0  0  0  0  0  0
   -8.1200   -4.6880    8.1720 C   0  0  0  0  0  0
   -6.9240   -2.8690   12.3430 C   0  0  0  0  0  0
   -4.2260   -0.4210   16.1270 C   0  0  0  0  0  0
   -8.1060   -0.5053    5.1310 H   0  0  0  0  0  0
   -6.4865   -1.2424    5.3771 H   0  0  0  0  0  0
   -8.6258   -2.4339    4.2097 H   0  0  0  0  0  0
   -7.2226   -3.2827    4.9425 H   0  0  0  0  0  0
   -9.9321   -2.7122    6.2281 H   0  0  0  0  0  0
   -9.2386   -4.3077    5.7807 H   0  0  0  0  0  0
   -8.4653   -2.7139   10.1951 H   0  0  0  0  0  0
   -5.7577   -1.4921    9.3308 H   0  0  0  0  0  0
   -4.9428   -0.1954   11.1729 H   0  0  0  0  0  0
   -5.6606   -1.0619   14.0982 H   0  0  0  0  0  0
   -3.3063    0.4177   12.7224 H   0  0  0  0  0  0
   -2.2193    1.7789   14.3941 H   0  0  0  0  0  0
   -1.7322    2.2987   16.7923 H   0  0  0  0  0  0
   -2.1276    0.5844   17.1552 H   0  0  0  0  0  0
   -3.4273    1.8243   17.1505 H   0  0  0  0  0  0
   -5.5175   -0.9995    7.5157 H   0  0  0  0  0  0
   -6.4530   -0.0179    8.6939 H   0  0  0  0  0  0
   -6.2009    0.5864    7.0212 H   0  0  0  0  0  0
   -9.6728   -0.2590    7.1571 H   0  0  0  0  0  0
   -8.4149    0.9810    6.8302 H   0  0  0  0  0  0
   -8.6670    0.3767    8.5029 H   0  0  0  0  0  0
   -8.5405   -5.4962    7.5556 H   0  0  0  0  0  0
   -8.6264   -4.6700    9.1483 H   0  0  0  0  0  0
   -7.0440   -4.8618    8.3202 H   0  0  0  0  0  0
   -7.5634   -3.5286   11.7379 H   0  0  0  0  0  0
   -7.5372   -2.3563   13.0987 H   0  0  0  0  0  0
   -6.1495   -3.4681   12.8442 H   0  0  0  0  0  0
   -4.9463   -1.1654   15.7568 H   0  0  0  0  0  0
   -4.7431    0.2953   16.7824 H   0  0  0  0  0  0
   -3.4319   -0.9293   16.6937 H   0  0  0  0  0  0
  1  2  1  0  0  0
  1  6  1  0  0  0
  1 16  1  0  0  0
  1 17  1  0  0  0
  2  3  1  0  0  0
  2 21  1  0  0  0
  2 22  1  0  0  0
  3  4  1  0  0  0
  3 23  1  0  0  0
  3 24  1  0  0  0
  4  5  1  0  0  0
  4 25  1  0  0  0
  4 26  1  0  0  0
  5  6  2  0  0  0
  5 18  1  0  0  0
  6  7  1  0  0  0
  7  8  2  0  0  0
  7 27  1  0  0  0
  8  9  1  0  0  0
  8 28  1  0  0  0
  9 10  2  0  0  0
  9 19  1  0  0  0
 10 11  1  0  0  0
 10 29  1  0  0  0
 11 12  2  0  0  0
 11 30  1  0  0  0
 12 13  1  0  0  0
 12 31  1  0  0  0
 13 14  2  0  0  0
 13 20  1  0  0  0
 14 15  1  0  0  0
 14 32  1  0  0  0
 15 33  1  0  0  0
 15 34  1  0  0  0
 15 35  1  0  0  0
 16 36  1  0  0  0
 16 37  1  0  0  0
 16 38  1  0  0  0
 17 39  1  0  0  0
 17 40  1  0  0  0
 17 41  1  0  0  0
 18 42  1  0  0  0
 18 43  1  0  0  0
 18 44  1  0  0  0
 19 45  1  0  0  0
 19 46  1  0  0  0
 19 47  1  0  0  0
 20 48  1  0  0  0
 20 49  1  0  0  0
 20 50  1  0  0  0
M  END
> <s_m_source_file>
../4ede_ligand.sdf

> <i_m_source_file_index>
1

> <s_epik_input>
W0NIM11DMShbQ0gzXSlbQ0gyXVtDSDJdW0NIMl1DKFtDSDNdKT1DMS9bQ0hdPVtDSF0vQyhbQ0gzXSk9W0NIXS9bQ0hdPVtDSF0vQyhbQ0gzXSk9W0NIXS9bQ0gzXQ==

> <s_epik_cmdline>
J2VwaWtfYXBwJywgJy1pbWFlJywgJ2xpZ2FuZF9wcm8ubWFlJywgJy1vbWFlJywgJ2xpZ2FuZF9wcmVwLm1hZScsICctbXMnLCAnMScsICctcGgnLCAnNycsICctcGh0JywgJzAuNScsICctbnQn

> <r_lp_tautomer_probability>
1

> <r_epik_Ionization_Penalty>
  0.0000

> <r_epik_Ionization_Penalty_Charging>
  0.0000

> <r_epik_Ionization_Penalty_Neutral>
  0.0000

> <r_epik_State_Penalty>
 -0.0000

> <r_epik_Charging_Adjusted_Penalty>
0

> <i_epik_Tot_Q>
0

> <i_epik_Tot_abs_Q>
0

$$$$
