4edu_ligand
                    3D
 Schrodinger Suite 2020-3.
139139  0  0  1  0            999 V2000
   41.9510  -17.0900   40.9550 N   0  3  0  0  0  0
   42.1080  -15.8410   41.7590 C   0  0  2  0  0  0
   40.9910  -15.7110   42.8120 C   0  0  0  0  0  0
   41.1650  -16.1210   43.9690 O   0  0  0  0  0  0
   42.1020  -14.5820   40.8510 C   0  0  0  0  0  0
   39.8470  -15.1640   42.3790 N   0  0  0  0  0  0
   38.7260  -14.7490   43.2620 C   0  0  2  0  0  0
   38.2040  -15.7530   44.2740 C   0  0  0  0  0  0
   38.3480  -16.9670   44.1240 O   0  0  0  0  0  0
   37.5210  -14.3300   42.4100 C   0  0  0  0  0  0
   37.4580  -12.8690   42.0990 C   0  0  0  0  0  0
   36.9180  -12.4020   40.9630 N   0  0  0  0  0  0
   37.8750  -11.7520   42.8290 C   0  0  0  0  0  0
   36.9880  -11.0560   40.9520 C   0  0  0  0  0  0
   37.5730  -10.6590   42.0960 N   0  0  0  0  0  0
   37.5820  -15.2020   45.3190 N   0  0  0  0  0  0
   36.6150  -15.8990   46.1830 C   0  0  2  0  0  0
   35.3890  -14.9730   46.2980 C   0  0  0  0  0  0
   35.4900  -13.7690   46.1030 O   0  0  0  0  0  0
   37.1990  -16.2190   47.5810 C   0  0  0  0  0  0
   37.8030  -17.6270   47.7260 C   0  0  0  0  0  0
   38.0060  -18.0470   49.1870 C   0  0  0  0  0  0
   36.7380  -18.2410   49.9060 N   0  0  0  0  0  0
   36.1410  -19.4230   50.0810 C   0  0  0  0  0  0
   36.6890  -20.5310   49.5900 N   0  3  0  0  0  0
   34.9920  -19.4970   50.7480 N   0  0  0  0  0  0
   34.2270  -15.5390   46.5840 N   0  0  0  0  0  0
   33.0240  -14.7040   46.6750 C   0  0  2  0  0  0
   33.1140  -13.7960   47.9040 C   0  0  0  0  0  0
   33.5270  -14.2360   48.9840 O   0  0  0  0  0  0
   31.7470  -15.5600   46.7420 C   0  0  0  0  0  0
   31.2390  -16.2480   45.4500 C   0  0  0  0  0  0
   30.2310  -17.3440   45.7690 C   0  0  0  0  0  0
   30.6520  -15.2310   44.4730 C   0  0  0  0  0  0
   32.7210  -12.5370   47.7330 N   0  0  0  0  0  0
   32.8200  -11.5240   48.7910 C   0  0  2  0  0  0
   31.8350  -11.7590   49.9300 C   0  0  0  0  0  0
   30.6750  -12.0880   49.6710 O   0  0  0  0  0  0
   32.5650  -10.1260   48.2000 C   0  0  0  0  0  0
   33.6730   -9.5930   47.3000 C   0  0  0  0  0  0
   33.2760   -8.2550   46.6820 C   0  0  0  0  0  0
   34.9820   -9.4930   48.0940 C   0  0  0  0  0  0
   32.2940  -11.5790   51.1850 N   0  0  0  0  0  0
   31.3860  -11.5580   52.3590 C   0  0  2  0  0  0
   30.8520  -10.1110   52.5240 C   0  0  0  0  0  0
   31.1690   -9.2730   51.7130 O   0  0  0  0  0  0
   32.0790  -12.1080   53.6420 C   0  0  0  0  0  0
   33.3280  -11.3460   54.1420 C   0  0  0  0  0  0
   33.8190  -11.8000   55.5330 C   0  0  0  0  0  0
   30.0290   -9.8430   53.5450 N   0  0  0  0  0  0
   29.6060   -8.4430   53.9080 C   0  0  1  0  0  0
   28.0860   -8.4080   54.1010 C   0  0  0  0  0  0
   27.3760   -8.7220   52.7860 C   0  0  0  0  0  0
   25.9490   -8.1790   52.6770 C   0  0  0  0  0  0
   25.8640   -7.1440   51.5670 C   0  0  0  0  0  0
   24.6010   -7.1630   50.8830 N   0  3  0  0  0  0
   24.0640   -5.9620   50.3120 C   0  0  0  0  0  0
   30.2440   -7.9350   55.2020 C   0  0  0  0  0  0
   30.0680   -8.5390   56.2640 O   0  0  0  0  0  0
   30.9540   -6.8000   55.1290 N   0  0  0  0  0  0
   31.7820   -6.3000   56.2670 C   0  0  0  0  0  0
   31.0320   -5.8520   57.5210 C   0  0  0  0  0  0
   31.5990   -5.1770   58.4070 O   0  5  0  0  0  0
   29.9843   -6.1259   57.6448 O   0  0  0  0  0  0
   41.9592  -17.9615   41.6261 H   0  0  0  0  0  0
   42.7813  -17.1714   40.2381 H   0  0  0  0  0  0
   40.9968  -17.0569   40.4087 H   0  0  0  0  0  0
   43.0814  -15.9475   42.2602 H   0  0  0  0  0  0
   42.8981  -14.6699   40.0970 H   0  0  0  0  0  0
   42.2759  -13.6862   41.4652 H   0  0  0  0  0  0
   41.1277  -14.4978   40.3474 H   0  0  0  0  0  0
   39.7687  -15.0285   41.2902 H   0  0  0  0  0  0
   39.2109  -13.9489   43.8405 H   0  0  0  0  0  0
   36.7399  -15.0067   42.0333 H   0  0  0  0  0  0
   38.3617  -11.6397   43.8090 H   0  0  0  0  0  0
   36.6325  -10.4031   40.1549 H   0  0  0  0  0  0
   37.8372  -14.1503   45.5159 H   0  0  0  0  0  0
   36.3753  -16.8600   45.7044 H   0  0  0  0  0  0
   38.0029  -15.5055   47.8146 H   0  0  0  0  0  0
   36.4048  -16.1372   48.3377 H   0  0  0  0  0  0
   37.1333  -18.3633   47.2577 H   0  0  0  0  0  0
   38.7849  -17.6576   47.2311 H   0  0  0  0  0  0
   38.5605  -18.9964   49.2219 H   0  0  0  0  0  0
   38.5765  -17.2695   49.7162 H   0  0  0  0  0  0
   36.2160  -17.3772   50.3435 H   0  0  0  0  0  0
   37.6387  -20.4767   49.0376 H   0  0  0  0  0  0
   34.5335  -18.5844   51.1566 H   0  0  0  0  0  0
   34.5007  -20.4708   50.8908 H   0  0  0  0  0  0
   34.1576  -16.6238   46.7528 H   0  0  0  0  0  0
   33.0118  -14.1047   45.7527 H   0  0  0  0  0  0
   31.8952  -16.3844   47.4550 H   0  0  0  0  0  0
   30.9041  -14.9357   47.0733 H   0  0  0  0  0  0
   32.0943  -16.7272   44.9511 H   0  0  0  0  0  0
   30.6791  -18.0607   46.4729 H   0  0  0  0  0  0
   29.9516  -17.8663   44.8421 H   0  0  0  0  0  0
   29.3342  -16.8966   46.2224 H   0  0  0  0  0  0
   31.3997  -14.4527   44.2607 H   0  0  0  0  0  0
   29.7581  -14.7692   44.9175 H   0  0  0  0  0  0
   30.3755  -15.7388   43.5372 H   0  0  0  0  0  0
   32.3080  -12.2669   46.7499 H   0  0  0  0  0  0
   33.8424  -11.6385   49.1804 H   0  0  0  0  0  0
   31.6488  -10.1467   47.5916 H   0  0  0  0  0  0
   32.4465   -9.3987   49.0167 H   0  0  0  0  0  0
   33.8249  -10.2943   46.4662 H   0  0  0  0  0  0
   32.3353   -8.3735   46.1243 H   0  0  0  0  0  0
   34.0682   -7.9179   45.9974 H   0  0  0  0  0  0
   33.1383   -7.5095   47.4790 H   0  0  0  0  0  0
   35.2285  -10.4768   48.5199 H   0  0  0  0  0  0
   34.8630   -8.7611   48.9065 H   0  0  0  0  0  0
   35.7929   -9.1695   47.4248 H   0  0  0  0  0  0
   33.3769  -11.4453   51.3247 H   0  0  0  0  0  0
   30.5521  -12.2426   52.1449 H   0  0  0  0  0  0
   31.3660  -12.0917   54.4795 H   0  0  0  0  0  0
   32.4125  -13.1411   53.4644 H   0  0  0  0  0  0
   34.1580  -11.4996   53.4366 H   0  0  0  0  0  0
   33.0993  -10.2722   54.2109 H   0  0  0  0  0  0
   34.7058  -11.2147   55.8178 H   0  0  0  0  0  0
   34.0799  -12.8681   55.4991 H   0  0  0  0  0  0
   33.0212  -11.6408   56.2734 H   0  0  0  0  0  0
   29.6588  -10.6983   54.1293 H   0  0  0  0  0  0
   29.9457   -7.8087   53.0760 H   0  0  0  0  0  0
   27.7946   -9.1558   54.8533 H   0  0  0  0  0  0
   27.7826   -7.4072   54.4422 H   0  0  0  0  0  0
   27.9436   -8.2874   51.9500 H   0  0  0  0  0  0
   27.3094   -9.8123   52.6565 H   0  0  0  0  0  0
   25.2585   -9.0052   52.4522 H   0  0  0  0  0  0
   25.6615   -7.7097   53.6294 H   0  0  0  0  0  0
   26.0006   -6.1386   51.9919 H   0  0  0  0  0  0
   26.6513   -7.3380   50.8237 H   0  0  0  0  0  0
   24.6565   -7.8550   50.0298 H   0  0  0  0  0  0
   23.8141   -7.4969   51.5753 H   0  0  0  0  0  0
   23.0971   -6.1827   49.8362 H   0  0  0  0  0  0
   24.7627   -5.5702   49.5582 H   0  0  0  0  0  0
   23.9203   -5.2120   51.1037 H   0  0  0  0  0  0
   30.9115   -6.2315   54.1883 H   0  0  0  0  0  0
   32.4675   -7.0940   56.5983 H   0  0  0  0  0  0
   32.3642   -5.4257   55.9405 H   0  0  0  0  0  0
   36.5085  -13.1023   40.2202 H   0  0  0  0  0  0
   36.1925  -21.5016   49.7363 H   0  0  0  0  0  0
  1  2  1  0  0  0
  1 65  1  0  0  0
  1 66  1  0  0  0
  1 67  1  0  0  0
  2  3  1  0  0  0
  2  5  1  0  0  0
  2 68  1  0  0  0
  3  4  2  0  0  0
  3  6  1  0  0  0
  5 69  1  0  0  0
  5 70  1  0  0  0
  5 71  1  0  0  0
  6  7  1  0  0  0
  6 72  1  0  0  0
  7  8  1  0  0  0
  7 10  1  0  0  0
  7 73  1  0  0  0
  8  9  2  0  0  0
  8 16  1  0  0  0
 10 11  2  0  0  0
 10 74  1  0  0  0
 11 12  1  0  0  0
 11 13  1  0  0  0
 12 14  1  0  0  0
 12138  1  0  0  0
 13 15  2  0  0  0
 13 75  1  0  0  0
 14 15  1  0  0  0
 14 76  1  0  0  0
 16 17  1  0  0  0
 16 77  1  0  0  0
 17 18  1  0  0  0
 17 20  1  0  0  0
 17 78  1  0  0  0
 18 19  2  0  0  0
 18 27  1  0  0  0
 20 21  1  0  0  0
 20 79  1  0  0  0
 20 80  1  0  0  0
 21 22  1  0  0  0
 21 81  1  0  0  0
 21 82  1  0  0  0
 22 23  1  0  0  0
 22 83  1  0  0  0
 22 84  1  0  0  0
 23 24  1  0  0  0
 23 85  1  0  0  0
 24 25  2  0  0  0
 24 26  1  0  0  0
 25 86  1  0  0  0
 25139  1  0  0  0
 26 87  1  0  0  0
 26 88  1  0  0  0
 27 28  1  0  0  0
 27 89  1  0  0  0
 28 29  1  0  0  0
 28 31  1  0  0  0
 28 90  1  0  0  0
 29 30  2  0  0  0
 29 35  1  0  0  0
 31 32  1  0  0  0
 31 91  1  0  0  0
 31 92  1  0  0  0
 32 33  1  0  0  0
 32 34  1  0  0  0
 32 93  1  0  0  0
 33 94  1  0  0  0
 33 95  1  0  0  0
 33 96  1  0  0  0
 34 97  1  0  0  0
 34 98  1  0  0  0
 34 99  1  0  0  0
 35 36  1  0  0  0
 35100  1  0  0  0
 36 37  1  0  0  0
 36 39  1  0  0  0
 36101  1  0  0  0
 37 38  2  0  0  0
 37 43  1  0  0  0
 39 40  1  0  0  0
 39102  1  0  0  0
 39103  1  0  0  0
 40 41  1  0  0  0
 40 42  1  0  0  0
 40104  1  0  0  0
 41105  1  0  0  0
 41106  1  0  0  0
 41107  1  0  0  0
 42108  1  0  0  0
 42109  1  0  0  0
 42110  1  0  0  0
 43 44  1  0  0  0
 43111  1  0  0  0
 44 45  1  0  0  0
 44 47  1  0  0  0
 44112  1  0  0  0
 45 46  2  0  0  0
 45 50  1  0  0  0
 47 48  1  0  0  0
 47113  1  0  0  0
 47114  1  0  0  0
 48 49  1  0  0  0
 48115  1  0  0  0
 48116  1  0  0  0
 49117  1  0  0  0
 49118  1  0  0  0
 49119  1  0  0  0
 50 51  1  0  0  0
 50120  1  0  0  0
 51 52  1  0  0  0
 51 58  1  0  0  0
 51121  1  0  0  0
 52 53  1  0  0  0
 52122  1  0  0  0
 52123  1  0  0  0
 53 54  1  0  0  0
 53124  1  0  0  0
 53125  1  0  0  0
 54 55  1  0  0  0
 54126  1  0  0  0
 54127  1  0  0  0
 55 56  1  0  0  0
 55128  1  0  0  0
 55129  1  0  0  0
 56 57  1  0  0  0
 56130  1  0  0  0
 56131  1  0  0  0
 57132  1  0  0  0
 57133  1  0  0  0
 57134  1  0  0  0
 58 59  2  0  0  0
 58 60  1  0  0  0
 60 61  1  0  0  0
 60135  1  0  0  0
 61 62  1  0  0  0
 61136  1  0  0  0
 61137  1  0  0  0
 62 63  1  0  0  0
 62 64  2  0  0  0
M  CHG  4   1   1  25   1  56   1  63  -1
M  END
> <s_m_source_file>
../4edu_ligand.sdf

> <i_m_source_file_index>
1

> <s_epik_input>
W0NIXTE9TltDSDJdTj1DMVtDSDJdW0NASF0oW05IXUMoPU8pW0NAQEhdKFtOSDMrXSlbQ0gzXSlDKD1PKVtOSF1bQ0BASF0oW0NIMl1bQ0gyXVtDSDJdW05IXS9DKD1OXFtIXSlbTkgyXSlDKD1PKVtOSF1bQ0BASF0oW0NIMl1bQ0hdKFtDSDNdKVtDSDNdKUMoPU8pW05IXVtDQEBIXShbQ0gyXVtDSF0oW0NIM10pW0NIM10pQyg9TylbTkhdW0NAQEhdKFtDSDJdW0NIMl1bQ0gzXSlDKD1PKVtOSF1bQ0BIXShDKD1PKVtOSF1bQ0gyXUMoPU8pW09IXSlbQ0gyXVtDSDJdW0NIMl1bQ0gyXVtOSDIrXVtDSDNd

> <s_epik_cmdline>
J2VwaWtfYXBwJywgJy1pbWFlJywgJ2xpZ2FuZF9wcm8ubWFlJywgJy1vbWFlJywgJ2xpZ2FuZF9wcmVwLm1hZScsICctbXMnLCAnMScsICctcGgnLCAnNycsICctcGh0JywgJzAuNScsICctbnQn

> <r_epik_Ionization_Penalty>
  0.1602

> <r_epik_Ionization_Penalty_Charging>
  0.1602

> <r_epik_Ionization_Penalty_Neutral>
  0.0000

> <r_epik_State_Penalty>
  0.1491

> <r_epik_Charging_Adjusted_Penalty>
0.309257768609967

> <i_epik_Tot_Q>
2

> <i_epik_Tot_abs_Q>
4

> <s_epik_Chemistry_Notes>
This compound has an imine and may undergo hydrolysis.

$$$$
