4edy_ligand
                    3D
 Schrodinger Suite 2020-3.
 55 58  0  0  1  0            999 V2000
   24.0240    2.7380   17.2800 O   0  0  0  0  0  0
   23.3300    1.7870   17.6050 C   0  0  0  0  0  0
   23.8550    0.6070   17.9270 N   0  0  0  0  0  0
   25.2470    0.1910   17.9610 C   0  0  0  0  0  0
   25.9300    0.8560   19.1520 C   0  0  0  0  0  0
   27.3860    0.8440   18.9200 N   0  0  0  0  0  0
   27.9410   -0.5070   19.1250 C   0  0  0  0  0  0
   29.4350   -0.4910   18.8250 C   0  0  0  0  0  0
   30.0780    0.4560   19.6770 O   0  0  0  0  0  0
   29.5570    1.7790   19.5390 C   0  0  0  0  0  0
   28.0580    1.7870   19.8280 C   0  0  0  0  0  0
   21.8330    1.9190   17.6420 C   0  0  0  0  0  0
   21.0750    0.9600   18.3050 C   0  0  0  0  0  0
   19.6930    1.0630   18.3410 C   0  0  0  0  0  0
   21.1910    2.9810   17.0090 C   0  0  0  0  0  0
   19.7990    3.0840   17.0420 C   0  0  0  0  0  0
   19.0490    2.1170   17.7010 C   0  0  0  0  0  0
   17.5650    2.1700   17.7910 C   0  0  0  0  0  0
   16.7070    1.0870   17.2300 C   0  0  0  0  0  0
   16.8860    3.2960   18.4860 C   0  0  0  0  0  0
   17.7190    4.4130   19.0790 C   0  0  0  0  0  0
   17.0100    5.0880   20.1170 O   0  0  0  0  0  0
   15.4890    3.3210   18.5790 C   0  0  0  0  0  0
   14.6860    2.3100   18.0510 C   0  0  0  0  0  0
   15.2350    1.2140   17.3930 C   0  0  0  0  0  0
   14.4070    0.2260   16.8770 C   0  0  0  0  0  0
   14.9640   -0.8630   16.2160 C   0  0  0  0  0  0
   16.3390   -0.9850   16.0590 C   0  0  0  0  0  0
   17.2160   -0.0250   16.5590 C   0  0  0  0  0  0
   23.0612   -0.1059   18.1947 H   0  0  0  0  0  0
   25.3004   -0.9029   18.0638 H   0  0  0  0  0  0
   25.7438    0.4963   17.0283 H   0  0  0  0  0  0
   25.5728    1.8920   19.2480 H   0  0  0  0  0  0
   25.6906    0.2991   20.0699 H   0  0  0  0  0  0
   27.7790   -0.8155   20.1684 H   0  0  0  0  0  0
   27.4384   -1.2161   18.4508 H   0  0  0  0  0  0
   29.8556   -1.4916   19.0037 H   0  0  0  0  0  0
   29.5950   -0.2084   17.7740 H   0  0  0  0  0  0
   30.0645    2.4488   20.2488 H   0  0  0  0  0  0
   29.7280    2.1352   18.5124 H   0  0  0  0  0  0
   27.6564    2.7986   19.6688 H   0  0  0  0  0  0
   27.8810    1.4821   20.8700 H   0  0  0  0  0  0
   21.5697    0.1235   18.7986 H   0  0  0  0  0  0
   19.1075    0.3138   18.8739 H   0  0  0  0  0  0
   21.7783    3.7353   16.4854 H   0  0  0  0  0  0
   19.3015    3.9210   16.5520 H   0  0  0  0  0  0
   18.6455    3.9956   19.5001 H   0  0  0  0  0  0
   17.9689    5.1410   18.2931 H   0  0  0  0  0  0
   17.4814    5.9273   20.6492 H   0  0  0  0  0  0
   15.0114    4.1615   19.0826 H   0  0  0  0  0  0
   13.6034    2.3803   18.1564 H   0  0  0  0  0  0
   13.3256    0.3038   16.9896 H   0  0  0  0  0  0
   14.3093   -1.6359   15.8132 H   0  0  0  0  0  0
   16.7405   -1.8511   15.5329 H   0  0  0  0  0  0
   18.2916   -0.1419   16.4269 H   0  0  0  0  0  0
  1  2  2  0  0  0
  2  3  1  0  0  0
  2 12  1  0  0  0
  3  4  1  0  0  0
  3 30  1  0  0  0
  4  5  1  0  0  0
  4 31  1  0  0  0
  4 32  1  0  0  0
  5  6  1  0  0  0
  5 33  1  0  0  0
  5 34  1  0  0  0
  6  7  1  0  0  0
  6 11  1  0  0  0
  7  8  1  0  0  0
  7 35  1  0  0  0
  7 36  1  0  0  0
  8  9  1  0  0  0
  8 37  1  0  0  0
  8 38  1  0  0  0
  9 10  1  0  0  0
 10 11  1  0  0  0
 10 39  1  0  0  0
 10 40  1  0  0  0
 11 41  1  0  0  0
 11 42  1  0  0  0
 12 13  2  0  0  0
 12 15  1  0  0  0
 13 14  1  0  0  0
 13 43  1  0  0  0
 14 17  2  0  0  0
 14 44  1  0  0  0
 15 16  2  0  0  0
 15 45  1  0  0  0
 16 17  1  0  0  0
 16 46  1  0  0  0
 17 18  1  0  0  0
 18 19  2  0  0  0
 18 20  1  0  0  0
 19 25  1  0  0  0
 19 29  1  0  0  0
 20 21  1  0  0  0
 20 23  2  0  0  0
 21 22  1  0  0  0
 21 47  1  0  0  0
 21 48  1  0  0  0
 22 49  1  0  0  0
 23 24  1  0  0  0
 23 50  1  0  0  0
 24 25  2  0  0  0
 24 51  1  0  0  0
 25 26  1  0  0  0
 26 27  2  0  0  0
 26 52  1  0  0  0
 27 28  1  0  0  0
 27 53  1  0  0  0
 28 29  2  0  0  0
 28 54  1  0  0  0
 29 55  1  0  0  0
M  END
> <s_m_source_file>
../4edy_ligand.sdf

> <i_m_source_file_index>
1

> <s_epik_input>
W0NIMl0xW0NIMl1PW0NIMl1bQ0gyXVtOSCtdMVtDSDJdW0NIMl1bTkhdQyg9TyljMltjSF1bY0hdYyhbY0hdW2NIXTIpLWMzYyhbQ0gyXVtPSF0pW2NIXVtjSF1jKGMzNClbY0hdW2NIXVtjSF1bY0hdNA==

> <s_epik_cmdline>
J2VwaWtfYXBwJywgJy1pbWFlJywgJ2xpZ2FuZF9wcm8ubWFlJywgJy1vbWFlJywgJ2xpZ2FuZF9wcmVwLm1hZScsICctbXMnLCAnMScsICctcGgnLCAnNycsICctcGh0JywgJzAuNScsICctbnQn

> <r_epik_Ionization_Penalty>
  0.2067

> <r_epik_Ionization_Penalty_Charging>
  0.0000

> <r_epik_Ionization_Penalty_Neutral>
  0.2067

> <r_epik_State_Penalty>
  0.1967

> <r_epik_Charging_Adjusted_Penalty>
0.196651266833471

> <i_epik_Tot_Q>
0

> <i_epik_Tot_abs_Q>
0

$$$$
