4edz_ligand
                    3D
 Schrodinger Suite 2020-3.
 53 56  0  0  1  0            999 V2000
   34.8260   14.9780  -25.9690 O   0  0  0  0  0  0
   34.3380   14.4470  -24.9870 C   0  0  0  0  0  0
   34.6740   14.8060  -23.7440 N   0  0  0  0  0  0
   35.6050   15.8460  -23.3320 C   0  0  0  0  0  0
   34.8330   16.6460  -22.2880 C   0  0  0  0  0  0
   35.1730   18.0820  -22.2410 N   0  0  0  0  0  0
   36.6180   18.3480  -22.1360 C   0  0  0  0  0  0
   36.7950   19.8390  -21.8480 C   0  0  0  0  0  0
   36.1470   20.6260  -22.8590 O   0  0  0  0  0  0
   34.7630   20.3140  -23.0450 C   0  0  0  0  0  0
   34.6190   18.8330  -23.3770 C   0  0  0  0  0  0
   33.3310   13.3520  -25.1920 C   0  0  0  0  0  0
   33.2630   12.6700  -26.4120 C   0  0  0  0  0  0
   32.3260   11.6580  -26.6060 C   0  0  0  0  0  0
   32.4430   13.0320  -24.1710 C   0  0  0  0  0  0
   31.5010   12.0280  -24.3720 C   0  0  0  0  0  0
   31.4550   11.3210  -25.5750 C   0  0  0  0  0  0
   30.4070   10.2760  -25.7170 C   0  0  0  0  0  0
   29.5420   10.3950  -26.7600 N   0  0  0  0  0  0
   28.5280    9.5330  -26.9770 C   0  0  0  0  0  0
   27.6180    9.7370  -28.1600 C   0  0  0  0  0  0
   30.2580    9.2200  -24.8080 C   0  0  0  0  0  0
   31.0910    9.0060  -23.7080 C   0  0  0  0  0  0
   30.8570    7.9250  -22.8660 C   0  0  0  0  0  0
   29.8040    7.0350  -23.0840 C   0  0  0  0  0  0
   28.9410    7.2070  -24.1600 C   0  0  0  0  0  0
   29.1410    8.2680  -25.0360 C   0  0  0  0  0  0
   28.3120    8.4580  -26.1230 C   0  0  0  0  0  0
   34.1496   14.2055  -22.9861 H   0  0  0  0  0  0
   36.5096   15.3826  -22.9113 H   0  0  0  0  0  0
   35.8785   16.4594  -24.2032 H   0  0  0  0  0  0
   33.7554   16.5797  -22.4984 H   0  0  0  0  0  0
   35.0371   16.2366  -21.2877 H   0  0  0  0  0  0
   37.0430   17.7469  -21.3186 H   0  0  0  0  0  0
   37.1100   18.0797  -23.0826 H   0  0  0  0  0  0
   36.3523   20.0786  -20.8699 H   0  0  0  0  0  0
   37.8670   20.0853  -21.8355 H   0  0  0  0  0  0
   34.2090   20.5394  -22.1218 H   0  0  0  0  0  0
   34.3590   20.9171  -23.8715 H   0  0  0  0  0  0
   35.1793   18.5831  -24.2900 H   0  0  0  0  0  0
   33.5604   18.5660  -23.5118 H   0  0  0  0  0  0
   33.9490   12.9330  -27.2172 H   0  0  0  0  0  0
   32.2755   11.1332  -27.5600 H   0  0  0  0  0  0
   32.4846   13.5637  -23.2204 H   0  0  0  0  0  0
   30.7902   11.7905  -23.5805 H   0  0  0  0  0  0
   27.9372   10.6292  -28.7186 H   0  0  0  0  0  0
   26.5848    9.8747  -27.8084 H   0  0  0  0  0  0
   27.6675    8.8560  -28.8168 H   0  0  0  0  0  0
   31.9214    9.6839  -23.5104 H   0  0  0  0  0  0
   31.5146    7.7678  -22.0110 H   0  0  0  0  0  0
   29.6569    6.1964  -22.4034 H   0  0  0  0  0  0
   28.1134    6.5150  -24.3159 H   0  0  0  0  0  0
   27.4903    7.7670  -26.3111 H   0  0  0  0  0  0
  1  2  2  0  0  0
  2  3  1  0  0  0
  2 12  1  0  0  0
  3  4  1  0  0  0
  3 29  1  0  0  0
  4  5  1  0  0  0
  4 30  1  0  0  0
  4 31  1  0  0  0
  5  6  1  0  0  0
  5 32  1  0  0  0
  5 33  1  0  0  0
  6  7  1  0  0  0
  6 11  1  0  0  0
  7  8  1  0  0  0
  7 34  1  0  0  0
  7 35  1  0  0  0
  8  9  1  0  0  0
  8 36  1  0  0  0
  8 37  1  0  0  0
  9 10  1  0  0  0
 10 11  1  0  0  0
 10 38  1  0  0  0
 10 39  1  0  0  0
 11 40  1  0  0  0
 11 41  1  0  0  0
 12 13  2  0  0  0
 12 15  1  0  0  0
 13 14  1  0  0  0
 13 42  1  0  0  0
 14 17  2  0  0  0
 14 43  1  0  0  0
 15 16  2  0  0  0
 15 44  1  0  0  0
 16 17  1  0  0  0
 16 45  1  0  0  0
 17 18  1  0  0  0
 18 19  2  0  0  0
 18 22  1  0  0  0
 19 20  1  0  0  0
 20 21  1  0  0  0
 20 28  2  0  0  0
 21 46  1  0  0  0
 21 47  1  0  0  0
 21 48  1  0  0  0
 22 23  2  0  0  0
 22 27  1  0  0  0
 23 24  1  0  0  0
 23 49  1  0  0  0
 24 25  2  0  0  0
 24 50  1  0  0  0
 25 26  1  0  0  0
 25 51  1  0  0  0
 26 27  2  0  0  0
 26 52  1  0  0  0
 27 28  1  0  0  0
 28 53  1  0  0  0
M  END
> <s_m_source_file>
../4edz_ligand.sdf

> <i_m_source_file_index>
1

> <s_epik_input>
W0NIMl0xW0NIMl1PW0NIMl1bQ0gyXVtOSCtdMVtDSDJdW0NIMl1bTkhdQyg9TyljMltjSF1bY0hdYyhbY0hdW2NIXTIpLWMzbmMoW0NIM10pW2NIXWMoYzM0KVtjSF1bY0hdW2NIXVtjSF00

> <s_epik_cmdline>
J2VwaWtfYXBwJywgJy1pbWFlJywgJ2xpZ2FuZF9wcm8ubWFlJywgJy1vbWFlJywgJ2xpZ2FuZF9wcmVwLm1hZScsICctbXMnLCAnMScsICctcGgnLCAnNycsICctcGh0JywgJzAuNScsICctbnQn

> <r_lp_tautomer_probability>
1

> <r_epik_Ionization_Penalty>
  0.2788

> <r_epik_Ionization_Penalty_Charging>
  0.0000

> <r_epik_Ionization_Penalty_Neutral>
  0.2788

> <r_epik_State_Penalty>
 -0.0000

> <r_epik_Charging_Adjusted_Penalty>
0

> <i_epik_Tot_Q>
0

> <i_epik_Tot_abs_Q>
0

$$$$
