4ee0_ligand
                    3D
 Schrodinger Suite 2020-3.
 50 53  0  0  1  0            999 V2000
   23.5820    2.6570   18.1010 O   0  0  0  0  0  0
   23.1250    1.5280   18.0970 C   0  0  0  0  0  0
   23.9430    0.4690   18.1140 N   0  0  0  0  0  0
   25.4070    0.5150   18.1240 C   0  0  0  0  0  0
   25.8110    0.1090   19.5400 C   0  0  0  0  0  0
   27.1380    0.6050   19.9270 N   0  0  0  0  0  0
   27.4750    0.5120   21.3470 C   0  0  0  0  0  0
   28.6170    1.4820   21.6290 C   0  0  0  0  0  0
   29.7680    1.1560   20.8430 O   0  0  0  0  0  0
   29.4920    0.6970   19.5090 C   0  0  0  0  0  0
   28.1220    1.1520   18.9950 C   0  0  0  0  0  0
   21.6270    1.3570   18.1000 C   0  0  0  0  0  0
   20.7780    2.4670   18.0230 C   0  0  0  0  0  0
   21.0600    0.0900   18.1850 C   0  0  0  0  0  0
   19.6790   -0.0580   18.1970 C   0  0  0  0  0  0
   18.8300    1.0500   18.0740 C   0  0  0  0  0  0
   19.3880    2.3200   18.0300 C   0  0  0  0  0  0
   17.3670    0.8130   18.1510 C   0  0  0  0  0  0
   16.6780    1.5780   19.0420 N   0  0  0  0  0  0
   15.3570    1.4130   19.2480 C   0  0  0  0  0  0
   16.7060   -0.1980   17.4380 C   0  0  0  0  0  0
   17.3540   -1.0120   16.5030 C   0  0  0  0  0  0
   16.6440   -1.9860   15.8190 C   0  0  0  0  0  0
   15.3390   -0.3670   17.6420 C   0  0  0  0  0  0
   14.6660    0.4330   18.5520 C   0  0  0  0  0  0
   14.6400   -1.3490   16.9550 C   0  0  0  0  0  0
   15.2940   -2.1550   16.0440 C   0  0  0  0  0  0
   23.4231   -0.5004   18.1205 H   0  0  0  0  0  0
   25.8010   -0.1869   17.3743 H   0  0  0  0  0  0
   25.7435    1.5345   17.8843 H   0  0  0  0  0  0
   25.0827    0.5123   20.2589 H   0  0  0  0  0  0
   25.8313   -0.9882   19.6152 H   0  0  0  0  0  0
   26.5949    0.7779   21.9509 H   0  0  0  0  0  0
   27.7850   -0.5165   21.5837 H   0  0  0  0  0  0
   28.2981    2.5055   21.3824 H   0  0  0  0  0  0
   28.8886    1.4291   22.6936 H   0  0  0  0  0  0
   30.2556    1.0889   18.8211 H   0  0  0  0  0  0
   29.5098   -0.4027   19.4885 H   0  0  0  0  0  0
   27.9273    0.7614   17.9853 H   0  0  0  0  0  0
   28.0466    2.2494   18.9845 H   0  0  0  0  0  0
   21.2093    3.4658   17.9563 H   0  0  0  0  0  0
   21.7013   -0.7895   18.2424 H   0  0  0  0  0  0
   19.2481   -1.0535   18.3040 H   0  0  0  0  0  0
   18.7447    3.1995   18.0010 H   0  0  0  0  0  0
   14.8321    2.0490   19.9608 H   0  0  0  0  0  0
   18.4190   -0.8800   16.3121 H   0  0  0  0  0  0
   17.1563   -2.6230   15.0980 H   0  0  0  0  0  0
   13.5982    0.2923   18.7197 H   0  0  0  0  0  0
   13.5735   -1.4845   17.1345 H   0  0  0  0  0  0
   14.7433   -2.9245   15.5030 H   0  0  0  0  0  0
  1  2  2  0  0  0
  2  3  1  0  0  0
  2 12  1  0  0  0
  3  4  1  0  0  0
  3 28  1  0  0  0
  4  5  1  0  0  0
  4 29  1  0  0  0
  4 30  1  0  0  0
  5  6  1  0  0  0
  5 31  1  0  0  0
  5 32  1  0  0  0
  6  7  1  0  0  0
  6 11  1  0  0  0
  7  8  1  0  0  0
  7 33  1  0  0  0
  7 34  1  0  0  0
  8  9  1  0  0  0
  8 35  1  0  0  0
  8 36  1  0  0  0
  9 10  1  0  0  0
 10 11  1  0  0  0
 10 37  1  0  0  0
 10 38  1  0  0  0
 11 39  1  0  0  0
 11 40  1  0  0  0
 12 13  2  0  0  0
 12 14  1  0  0  0
 13 17  1  0  0  0
 13 41  1  0  0  0
 14 15  2  0  0  0
 14 42  1  0  0  0
 15 16  1  0  0  0
 15 43  1  0  0  0
 16 17  2  0  0  0
 16 18  1  0  0  0
 17 44  1  0  0  0
 18 19  2  0  0  0
 18 21  1  0  0  0
 19 20  1  0  0  0
 20 25  2  0  0  0
 20 45  1  0  0  0
 21 22  2  0  0  0
 21 24  1  0  0  0
 22 23  1  0  0  0
 22 46  1  0  0  0
 23 27  2  0  0  0
 23 47  1  0  0  0
 24 25  1  0  0  0
 24 26  2  0  0  0
 25 48  1  0  0  0
 26 27  1  0  0  0
 26 49  1  0  0  0
 27 50  1  0  0  0
M  END
> <s_m_source_file>
../4ee0_ligand.sdf

> <i_m_source_file_index>
1

> <s_epik_input>
W0NIMl0xW0NIMl1PW0NIMl1bQ0gyXVtOSCtdMVtDSDJdW0NIMl1bTkhdQyg9TyljMltjSF1bY0hdYyhbY0hdW2NIXTIpLWMzbltjSF1bY0hdYyhjMzQpW2NIXVtjSF1bY0hdW2NIXTQ=

> <s_epik_cmdline>
J2VwaWtfYXBwJywgJy1pbWFlJywgJ2xpZ2FuZF9wcm8ubWFlJywgJy1vbWFlJywgJ2xpZ2FuZF9wcmVwLm1hZScsICctbXMnLCAnMScsICctcGgnLCAnNycsICctcGh0JywgJzAuNScsICctbnQn

> <r_lp_tautomer_probability>
1

> <r_epik_Ionization_Penalty>
  0.2213

> <r_epik_Ionization_Penalty_Charging>
  0.0000

> <r_epik_Ionization_Penalty_Neutral>
  0.2213

> <r_epik_State_Penalty>
 -0.0000

> <r_epik_Charging_Adjusted_Penalty>
0

> <i_epik_Tot_Q>
0

> <i_epik_Tot_abs_Q>
0

$$$$
