4eeh_ligand
                    3D
 Schrodinger Suite 2020-3.
 26 28  0  0  1  0            999 V2000
   64.5150   33.8730   25.2380 C   0  0  0  0  0  0
   64.0260   34.5900   24.0580 C   0  0  0  0  0  0
   63.3640   33.2990   25.8600 C   0  0  0  0  0  0
   65.7970   33.6420   25.7950 C   0  0  0  0  0  0
   64.7630   35.4940   23.1280 C   0  0  0  0  0  0
   62.7330   34.3890   24.0060 N   0  0  0  0  0  0
   62.2640   33.6840   25.1370 N   0  0  0  0  0  0
   63.5110   32.5470   27.0340 C   0  0  0  0  0  0
   65.9240   32.8590   26.9270 C   0  0  0  0  0  0
   64.0920   36.0360   22.0180 C   0  0  0  0  0  0
   66.0620   35.9500   23.4330 C   0  0  0  0  0  0
   64.7710   32.3600   27.5670 C   0  0  0  0  0  0
   64.7410   36.9450   21.1930 C   0  0  0  0  0  0
   66.7160   36.8310   22.5900 C   0  0  0  0  0  0
   64.8690   31.6640   28.7160 O   0  0  0  0  0  0
   66.0520   37.3410   21.4720 C   0  0  0  0  0  0
   66.6840   38.2270   20.6570 O   0  0  0  0  0  0
   66.6810   34.0806   25.3321 H   0  0  0  0  0  0
   62.6380   32.1136   27.5220 H   0  0  0  0  0  0
   66.9126   32.6280   27.3237 H   0  0  0  0  0  0
   63.0639   35.7432   21.8053 H   0  0  0  0  0  0
   66.5557   35.6052   24.3416 H   0  0  0  0  0  0
   64.2253   37.3519   20.3232 H   0  0  0  0  0  0
   67.7447   37.1257   22.7974 H   0  0  0  0  0  0
   66.1644   38.6309   19.7756 H   0  0  0  0  0  0
   61.2552   33.4236   25.4899 H   0  0  0  0  0  0
  1  2  2  0  0  0
  1  3  1  0  0  0
  1  4  1  0  0  0
  2  5  1  0  0  0
  2  6  1  0  0  0
  3  7  1  0  0  0
  3  8  2  0  0  0
  4  9  2  0  0  0
  4 18  1  0  0  0
  5 10  2  0  0  0
  5 11  1  0  0  0
  6  7  1  0  0  0
  7 26  1  0  0  0
  8 12  1  0  0  0
  8 19  1  0  0  0
  9 12  1  0  0  0
  9 20  1  0  0  0
 10 13  1  0  0  0
 10 21  1  0  0  0
 11 14  2  0  0  0
 11 22  1  0  0  0
 12 15  2  0  0  0
 13 16  2  0  0  0
 13 23  1  0  0  0
 14 16  1  0  0  0
 14 24  1  0  0  0
 16 17  1  0  0  0
 17 25  1  0  0  0
M  END
> <s_m_source_file>
../4eeh_ligand.sdf

> <i_m_source_file_index>
1

> <s_epik_input>
W2NIXTFbY0hdYyhbT0hdKVtjSF1jKGMxMiluW25IXWMyLWMzW2NIXVtjSF1jKFtPSF0pW2NIXVtjSF0z

> <s_epik_cmdline>
J2VwaWtfYXBwJywgJy1pbWFlJywgJ2xpZ2FuZF9wcm8ubWFlJywgJy1vbWFlJywgJ2xpZ2FuZF9wcmVwLm1hZScsICctbXMnLCAnMScsICctcGgnLCAnNycsICctcGh0JywgJzAuNScsICctbnQn

> <r_lp_tautomer_probability>
1

> <r_epik_Ionization_Penalty>
  0.0030

> <r_epik_Ionization_Penalty_Charging>
  0.0010

> <r_epik_Ionization_Penalty_Neutral>
  0.0020

> <r_epik_State_Penalty>
 -0.0000

> <r_epik_Charging_Adjusted_Penalty>
0.0010169453655141

> <i_epik_Tot_Q>
0

> <i_epik_Tot_abs_Q>
0

$$$$
