4eej_ligand
                    3D
 Schrodinger Suite 2020-3.
 50 50  0  0  1  0            999 V2000
   -7.9290   -0.3080   -7.6190 C   0  0  0  0  0  0
   -8.8400   -0.0870   -6.4560 C   0  0  0  0  0  0
   -8.5110    1.2640   -5.9100 C   0  0  0  0  0  0
   -9.0430    2.2390   -6.9140 C   0  0  0  0  0  0
   -8.3760    2.0710   -8.2230 C   0  0  0  0  0  0
   -7.8780    0.8910   -8.5790 C   0  0  0  0  0  0
   -7.2560    0.7970   -9.9160 C   0  0  0  0  0  0
   -6.5050   -0.2210  -10.3120 C   0  0  0  0  0  0
   -5.9740   -0.2080  -11.6610 C   0  0  0  0  0  0
   -5.1350   -1.1670  -12.0330 C   0  0  0  0  0  0
   -4.5460   -1.2520  -13.3660 C   0  0  0  0  0  0
   -3.8720   -2.3510  -13.6930 C   0  0  0  0  0  0
   -3.2330   -2.6370  -14.9700 C   0  0  0  0  0  0
   -2.3010   -3.5730  -15.1410 C   0  0  0  0  0  0
   -1.5950   -3.9660  -16.3350 C   0  0  0  0  0  0
   -6.5480   -0.4900   -6.9880 C   0  0  0  0  0  0
   -8.4180   -1.6030   -8.1840 C   0  0  0  0  0  0
   -8.3110    3.3280   -9.0330 C   0  0  0  0  0  0
   -6.4120    0.8790  -12.5870 C   0  0  0  0  0  0
   -3.7070   -1.8150  -16.0880 C   0  0  0  0  0  0
   -9.8853   -0.1297   -6.7958 H   0  0  0  0  0  0
   -8.6675   -0.8686   -5.7014 H   0  0  0  0  0  0
   -8.9944    1.3911   -4.9301 H   0  0  0  0  0  0
   -7.4210    1.3580   -5.7960 H   0  0  0  0  0  0
  -10.1230    2.0771   -7.0457 H   0  0  0  0  0  0
   -8.8668    3.2648   -6.5580 H   0  0  0  0  0  0
   -7.4471    1.6379  -10.5989 H   0  0  0  0  0  0
   -6.2966   -1.0519   -9.6219 H   0  0  0  0  0  0
   -4.8491   -1.9546  -11.3203 H   0  0  0  0  0  0
   -4.6494   -0.4334  -14.0934 H   0  0  0  0  0  0
   -3.7536   -3.1622  -12.9596 H   0  0  0  0  0  0
   -1.9676   -4.1798  -14.2862 H   0  0  0  0  0  0
   -0.8940   -4.7792  -16.0956 H   0  0  0  0  0  0
   -1.0364   -3.1050  -16.7308 H   0  0  0  0  0  0
   -2.3160   -4.3136  -17.0896 H   0  0  0  0  0  0
   -6.2030    0.4705   -6.5776 H   0  0  0  0  0  0
   -5.8383   -0.8380   -7.7530 H   0  0  0  0  0  0
   -6.6094   -1.2334   -6.1795 H   0  0  0  0  0  0
   -9.4110   -1.4552   -8.6335 H   0  0  0  0  0  0
   -8.4869   -2.3509   -7.3803 H   0  0  0  0  0  0
   -7.7158   -1.9556   -8.9538 H   0  0  0  0  0  0
   -8.8062    4.1432   -8.4851 H   0  0  0  0  0  0
   -8.8200    3.1708   -9.9954 H   0  0  0  0  0  0
   -7.2590    3.5937   -9.2137 H   0  0  0  0  0  0
   -7.1030    1.5533  -12.0600 H   0  0  0  0  0  0
   -6.9220    0.4372  -13.4557 H   0  0  0  0  0  0
   -5.5335    1.4469  -12.9272 H   0  0  0  0  0  0
   -4.4712   -1.1109  -15.7272 H   0  0  0  0  0  0
   -4.1428   -2.4644  -16.8616 H   0  0  0  0  0  0
   -2.8626   -1.2532  -16.5138 H   0  0  0  0  0  0
  1  2  1  0  0  0
  1  6  1  0  0  0
  1 16  1  0  0  0
  1 17  1  0  0  0
  2  3  1  0  0  0
  2 21  1  0  0  0
  2 22  1  0  0  0
  3  4  1  0  0  0
  3 23  1  0  0  0
  3 24  1  0  0  0
  4  5  1  0  0  0
  4 25  1  0  0  0
  4 26  1  0  0  0
  5  6  2  0  0  0
  5 18  1  0  0  0
  6  7  1  0  0  0
  7  8  2  0  0  0
  7 27  1  0  0  0
  8  9  1  0  0  0
  8 28  1  0  0  0
  9 10  2  0  0  0
  9 19  1  0  0  0
 10 11  1  0  0  0
 10 29  1  0  0  0
 11 12  2  0  0  0
 11 30  1  0  0  0
 12 13  1  0  0  0
 12 31  1  0  0  0
 13 14  2  0  0  0
 13 20  1  0  0  0
 14 15  1  0  0  0
 14 32  1  0  0  0
 15 33  1  0  0  0
 15 34  1  0  0  0
 15 35  1  0  0  0
 16 36  1  0  0  0
 16 37  1  0  0  0
 16 38  1  0  0  0
 17 39  1  0  0  0
 17 40  1  0  0  0
 17 41  1  0  0  0
 18 42  1  0  0  0
 18 43  1  0  0  0
 18 44  1  0  0  0
 19 45  1  0  0  0
 19 46  1  0  0  0
 19 47  1  0  0  0
 20 48  1  0  0  0
 20 49  1  0  0  0
 20 50  1  0  0  0
M  END
> <s_m_source_file>
../4eej_ligand.sdf

> <i_m_source_file_index>
1

> <s_epik_input>
W0NIM11DMShbQ0gzXSlbQ0gyXVtDSDJdW0NIMl1DKFtDSDNdKT1DMS9bQ0hdPVtDSF0vQyhbQ0gzXSk9W0NIXS9bQ0hdPVtDSF0vQyhbQ0gzXSk9W0NIXS9bQ0gzXQ==

> <s_epik_cmdline>
J2VwaWtfYXBwJywgJy1pbWFlJywgJ2xpZ2FuZF9wcm8ubWFlJywgJy1vbWFlJywgJ2xpZ2FuZF9wcmVwLm1hZScsICctbXMnLCAnMScsICctcGgnLCAnNycsICctcGh0JywgJzAuNScsICctbnQn

> <r_lp_tautomer_probability>
1

> <r_epik_Ionization_Penalty>
  0.0000

> <r_epik_Ionization_Penalty_Charging>
  0.0000

> <r_epik_Ionization_Penalty_Neutral>
  0.0000

> <r_epik_State_Penalty>
 -0.0000

> <r_epik_Charging_Adjusted_Penalty>
0

> <i_epik_Tot_Q>
0

> <i_epik_Tot_abs_Q>
0

$$$$
