4ef4_ligand
                    3D
 Schrodinger Suite 2020-3.
 68 74  0  0  1  0            999 V2000
  -10.8060   18.9340  -15.1560 P   0  0  2  0  0  0
  -10.9240   20.0180  -14.1640 O   0  0  0  0  0  0
   -9.3760   18.9510  -15.6810 O   0  5  0  0  0  0
  -11.6700   19.1510  -16.4650 O   0  0  0  0  0  0
  -13.1360   19.0850  -16.3750 C   0  0  0  0  0  0
  -13.8340   19.0840  -17.6680 C   0  0  1  0  0  0
  -13.5060   20.2500  -18.3440 O   0  0  0  0  0  0
  -13.3460   18.0170  -18.5270 C   0  0  1  0  0  0
  -14.0030   16.7810  -18.1870 O   0  0  0  0  0  0
  -13.7700   18.4570  -19.7690 C   0  0  1  0  0  0
  -15.1220   18.2130  -19.9480 O   0  0  0  0  0  0
  -13.4590   19.9250  -19.7050 C   0  0  2  0  0  0
  -12.1110   20.1310  -20.2530 N   0  0  0  0  0  0
  -10.9150   20.0190  -19.6490 C   0  0  0  0  0  0
   -9.9650   20.2600  -20.5690 N   0  0  0  0  0  0
  -10.5650   20.5140  -21.7590 C   0  0  0  0  0  0
  -10.0950   20.8320  -23.0440 C   0  0  0  0  0  0
   -8.7050   20.9280  -23.2810 O   0  0  0  0  0  0
  -10.9730   21.0470  -24.0330 N   0  0  0  0  0  0
  -12.2860   20.9590  -23.7890 C   0  0  0  0  0  0
  -13.2130   21.1880  -24.8830 N   0  0  0  0  0  0
  -12.7830   20.6540  -22.5700 N   0  0  0  0  0  0
  -11.9390   20.4280  -21.5500 C   0  0  0  0  0  0
  -13.3040   15.3530  -18.2330 P   0  0  1  0  0  0
  -14.2770   14.2460  -18.2180 O   0  0  0  0  0  0
  -12.5590   15.2610  -19.5100 O   0  5  0  0  0  0
  -12.1680   15.1670  -17.0720 O   0  0  0  0  0  0
  -12.5150   14.9390  -15.6910 C   0  0  0  0  0  0
  -11.4830   15.0870  -14.7840 C   0  0  1  0  0  0
  -10.5910   13.8930  -14.8760 O   0  0  0  0  0  0
  -10.5880   16.2200  -15.0910 C   0  0  1  0  0  0
  -11.0200   17.4310  -14.5270 O   0  0  0  0  0  0
   -9.3340   15.7970  -14.4530 C   0  0  1  0  0  0
   -9.3210   16.0870  -13.1200 O   0  0  0  0  0  0
   -9.2900   14.3370  -14.6800 C   0  0  2  0  0  0
   -8.4420   13.9860  -15.8690 N   0  0  0  0  0  0
   -8.8060   14.0140  -17.1680 C   0  0  0  0  0  0
   -7.7510   13.6370  -17.9120 N   0  0  0  0  0  0
   -6.7040   13.3610  -17.0950 C   0  0  0  0  0  0
   -5.3820   12.9370  -17.2620 C   0  0  0  0  0  0
   -4.8540   12.6860  -18.5260 O   0  0  0  0  0  0
   -4.6110   12.7660  -16.1670 N   0  0  0  0  0  0
   -5.1020   13.0010  -14.9370 C   0  0  0  0  0  0
   -4.2700   12.8160  -13.8070 N   0  0  0  0  0  0
   -6.3610   13.4130  -14.7400 N   0  0  0  0  0  0
   -7.1640   13.5950  -15.7960 C   0  0  0  0  0  0
  -13.4302   18.1611  -15.8555 H   0  0  0  0  0  0
  -13.5085   19.9552  -15.8147 H   0  0  0  0  0  0
  -14.9179   19.0124  -17.4947 H   0  0  0  0  0  0
  -12.2624   17.8298  -18.4973 H   0  0  0  0  0  0
  -13.3191   17.8840  -20.5926 H   0  0  0  0  0  0
  -15.4904   17.1785  -20.0124 H   0  0  0  0  0  0
  -14.1592   20.5877  -20.2347 H   0  0  0  0  0  0
  -10.7458   19.7760  -18.6000 H   0  0  0  0  0  0
  -10.6141   21.2952  -25.0428 H   0  0  0  0  0  0
  -12.8315   21.4376  -25.8841 H   0  0  0  0  0  0
  -14.2967   21.1119  -24.7107 H   0  0  0  0  0  0
  -13.2978   15.6497  -15.3875 H   0  0  0  0  0  0
  -12.8869   13.9107  -15.5713 H   0  0  0  0  0  0
  -12.0283   15.2380  -13.8407 H   0  0  0  0  0  0
  -10.5362   16.4649  -16.1621 H   0  0  0  0  0  0
   -8.4483   16.3498  -14.7993 H   0  0  0  0  0  0
   -9.3496   17.1342  -12.7847 H   0  0  0  0  0  0
   -8.9063   13.8236  -13.7860 H   0  0  0  0  0  0
   -9.7878   14.2944  -17.5494 H   0  0  0  0  0  0
   -3.5688   12.4310  -16.2750 H   0  0  0  0  0  0
   -3.2314   12.4783  -13.9381 H   0  0  0  0  0  0
   -4.6620   13.0099  -12.7977 H   0  0  0  0  0  0
  1  2  2  0  0  0
  1  3  1  0  0  0
  1  4  1  0  0  0
  1 32  1  0  0  0
  4  5  1  0  0  0
  5  6  1  0  0  0
  5 47  1  0  0  0
  5 48  1  0  0  0
  6  7  1  0  0  0
  6  8  1  0  0  0
  6 49  1  0  0  0
  7 12  1  0  0  0
  8  9  1  0  0  0
  8 10  1  0  0  0
  8 50  1  0  0  0
  9 24  1  0  0  0
 10 11  1  0  0  0
 10 12  1  0  0  0
 10 51  1  0  0  0
 11 52  1  0  0  0
 12 13  1  0  0  0
 12 53  1  0  0  0
 13 14  1  0  0  0
 13 23  1  0  0  0
 14 15  2  0  0  0
 14 54  1  0  0  0
 15 16  1  0  0  0
 16 17  1  0  0  0
 16 23  2  0  0  0
 17 18  2  0  0  0
 17 19  1  0  0  0
 19 20  1  0  0  0
 19 55  1  0  0  0
 20 21  1  0  0  0
 20 22  2  0  0  0
 21 56  1  0  0  0
 21 57  1  0  0  0
 22 23  1  0  0  0
 24 25  2  0  0  0
 24 26  1  0  0  0
 24 27  1  0  0  0
 27 28  1  0  0  0
 28 29  1  0  0  0
 28 58  1  0  0  0
 28 59  1  0  0  0
 29 30  1  0  0  0
 29 31  1  0  0  0
 29 60  1  0  0  0
 30 35  1  0  0  0
 31 32  1  0  0  0
 31 33  1  0  0  0
 31 61  1  0  0  0
 33 34  1  0  0  0
 33 35  1  0  0  0
 33 62  1  0  0  0
 34 63  1  0  0  0
 35 36  1  0  0  0
 35 64  1  0  0  0
 36 37  1  0  0  0
 36 46  1  0  0  0
 37 38  2  0  0  0
 37 65  1  0  0  0
 38 39  1  0  0  0
 39 40  1  0  0  0
 39 46  2  0  0  0
 40 41  2  0  0  0
 40 42  1  0  0  0
 42 43  1  0  0  0
 42 66  1  0  0  0
 43 44  1  0  0  0
 43 45  2  0  0  0
 44 67  1  0  0  0
 44 68  1  0  0  0
 45 46  1  0  0  0
M  CHG  2   3  -1  26  -1
M  END
> <s_m_source_file>
../4ef4_ligand.sdf

> <i_m_source_file_index>
1

> <s_epik_input>
Tz1jMVtuSF1jKFtOSDJdKW5jKGMxMiluKFtjSF1uMilbQ0BIXShPMylbQ0BIXShbT0hdKVtDQEhdKE9bUEBAXSg9TykoW09IXSlPW0NIMl00KVtDQEhdM1tDSDJdT1tQQF0oPU8pKFtPSF0pT1tDQEhdKFtDQEBIXTQ1KVtDQEBIXShbT0hdKVtDQEBIXShPNSluKFtjSF1uNiljKGM2NyluYyhbTkgyXSlbbkhdYzc9Tw==

> <s_epik_cmdline>
J2VwaWtfYXBwJywgJy1pbWFlJywgJ2xpZ2FuZF9wcm8ubWFlJywgJy1vbWFlJywgJ2xpZ2FuZF9wcmVwLm1hZScsICctbXMnLCAnMScsICctcGgnLCAnNycsICctcGh0JywgJzAuNScsICctbnQn

> <r_lp_tautomer_probability>
1

> <r_epik_Ionization_Penalty>
  0.0042

> <r_epik_Ionization_Penalty_Charging>
  0.0040

> <r_epik_Ionization_Penalty_Neutral>
  0.0002

> <r_epik_State_Penalty>
 -0.0000

> <r_epik_Charging_Adjusted_Penalty>
0.00400193045734951

> <i_epik_Tot_Q>
-2

> <i_epik_Tot_abs_Q>
2

> <s_epik_Chemistry_Notes>
This compound contains an acetal/aminal-like group ( X-CH(R)-Y where X, Y are N, S, or O) that may be acid/base labile, releasing an aldehyde.

$$$$
