4ef6_ligand
                    3D
 Schrodinger Suite 2020-3.
 23 24  0  0  1  0            999 V2000
   14.0110    9.9680   -3.9600 C   0  0  0  0  0  0
   15.3410   10.2550   -3.8840 C   0  0  0  0  0  0
   15.9060   10.5870   -2.6350 C   0  0  0  0  0  0
   13.2090    9.9760   -2.8380 C   0  0  0  0  0  0
   13.7160   10.2740   -1.5970 C   0  0  0  0  0  0
   15.0860   10.5630   -1.4630 C   0  0  0  0  0  0
   15.6130   10.9140   -0.1970 C   0  0  0  0  0  0
   17.0060   10.2600    0.0980 C   0  0  0  0  0  0
   18.2290   11.1310   -0.3530 C   0  0  0  0  0  0
   18.1410   12.3670   -0.4680 O   0  5  0  0  0  0
   11.8820    9.5630   -4.6270 C   0  0  0  0  0  0
   19.2480   10.5040   -0.5910 O   0  0  0  0  0  0
   13.2800    9.6100   -5.0770 O   0  0  0  0  0  0
   11.9130    9.6480   -3.1680 O   0  0  0  0  0  0
   15.9620   10.2283   -4.7794 H   0  0  0  0  0  0
   16.9589   10.8597   -2.5633 H   0  0  0  0  0  0
   13.0631   10.2864   -0.7243 H   0  0  0  0  0  0
   15.7415   12.0051   -0.1431 H   0  0  0  0  0  0
   14.9200   10.5870    0.5922 H   0  0  0  0  0  0
   17.1099   10.0909    1.1799 H   0  0  0  0  0  0
   17.0795    9.2989   -0.4320 H   0  0  0  0  0  0
   11.3292   10.4104   -5.0586 H   0  0  0  0  0  0
   11.4223    8.6195   -4.9563 H   0  0  0  0  0  0
  1  2  2  0  0  0
  1  4  1  0  0  0
  1 13  1  0  0  0
  2  3  1  0  0  0
  2 15  1  0  0  0
  3  6  2  0  0  0
  3 16  1  0  0  0
  4  5  2  0  0  0
  4 14  1  0  0  0
  5  6  1  0  0  0
  5 17  1  0  0  0
  6  7  1  0  0  0
  7  8  1  0  0  0
  7 18  1  0  0  0
  7 19  1  0  0  0
  8  9  1  0  0  0
  8 20  1  0  0  0
  8 21  1  0  0  0
  9 10  1  0  0  0
  9 12  2  0  0  0
 11 13  1  0  0  0
 11 14  1  0  0  0
 11 22  1  0  0  0
 11 23  1  0  0  0
M  CHG  1  10  -1
M  END
> <s_m_source_file>
../4ef6_ligand.sdf

> <i_m_source_file_index>
1

> <s_epik_input>
TzFbQ0gyXU9jKGMxMilbY0hdYyhbY0hdW2NIXTIpW0NIMl1bQ0gyXUMoPU8pW09IXQ==

> <s_epik_cmdline>
J2VwaWtfYXBwJywgJy1pbWFlJywgJ2xpZ2FuZF9wcm8ubWFlJywgJy1vbWFlJywgJ2xpZ2FuZF9wcmVwLm1hZScsICctbXMnLCAnMScsICctcGgnLCAnNycsICctcGh0JywgJzAuNScsICctbnQn

> <r_lp_tautomer_probability>
1

> <r_epik_Ionization_Penalty>
  0.0031

> <r_epik_Ionization_Penalty_Charging>
  0.0031

> <r_epik_Ionization_Penalty_Neutral>
  0.0000

> <r_epik_State_Penalty>
 -0.0000

> <r_epik_Charging_Adjusted_Penalty>
0.00312157630576693

> <i_epik_Tot_Q>
-1

> <i_epik_Tot_abs_Q>
1

> <s_epik_Chemistry_Notes>
This compound contains an acetal/aminal-like group ( X-CH(R)-Y where X, Y are N, S, or O) that may be acid/base labile, releasing an aldehyde.

$$$$
