4efg_ligand
                    3D
 Schrodinger Suite 2020-3.
 50 50  0  0  1  0            999 V2000
   -7.5700    1.7800   -8.2210 C   0  0  0  0  0  0
   -8.3630    1.9770   -6.9400 C   0  0  0  0  0  0
   -8.0700    3.3500   -6.3410 C   0  0  0  0  0  0
   -8.3810    4.5000   -7.2970 C   0  0  0  0  0  0
   -7.8610    4.2600   -8.7110 C   0  0  0  0  0  0
   -7.5660    3.0110   -9.1390 C   0  0  0  0  0  0
   -7.2070    2.8840  -10.5730 C   0  0  0  0  0  0
   -6.0350    2.3350  -10.9350 C   0  0  0  0  0  0
   -5.6330    2.2000  -12.3540 C   0  0  0  0  0  0
   -4.7060    1.2680  -12.6580 C   0  0  0  0  0  0
   -4.2400    1.0340  -14.0300 C   0  0  0  0  0  0
   -3.1830    0.2370  -14.1640 C   0  0  0  0  0  0
   -2.7290   -0.0390  -15.5230 C   0  0  0  0  0  0
   -1.9370   -1.0640  -15.7340 C   0  0  0  0  0  0
   -1.5470   -1.2830  -17.1630 C   0  0  0  0  0  0
   -8.0980    0.5230   -8.9170 C   0  0  0  0  0  0
   -6.1540    1.4450   -7.7700 C   0  0  0  0  0  0
   -7.6860    5.4770   -9.6070 C   0  0  0  0  0  0
   -6.2210    3.0940  -13.4200 C   0  0  0  0  0  0
   -3.1820    0.7970  -16.6840 C   0  0  0  0  0  0
   -9.4384    1.9032   -7.1595 H   0  0  0  0  0  0
   -8.0832    1.2009   -6.2125 H   0  0  0  0  0  0
   -8.6806    3.4937   -5.4374 H   0  0  0  0  0  0
   -7.0041    3.4151   -6.0773 H   0  0  0  0  0  0
   -9.4703    4.6386   -7.3617 H   0  0  0  0  0  0
   -7.9154    5.4238   -6.9231 H   0  0  0  0  0  0
   -7.9072    3.2426  -11.3419 H   0  0  0  0  0  0
   -5.3387    1.9683  -10.1664 H   0  0  0  0  0  0
   -4.2684    0.6474  -11.8621 H   0  0  0  0  0  0
   -4.7125    1.4752  -14.9200 H   0  0  0  0  0  0
   -2.6929   -0.1811  -13.2724 H   0  0  0  0  0  0
   -1.6094   -1.6888  -14.8900 H   0  0  0  0  0  0
   -0.8869   -2.1602  -17.2326 H   0  0  0  0  0  0
   -1.0176   -0.3950  -17.5388 H   0  0  0  0  0  0
   -2.4500   -1.4547  -17.7673 H   0  0  0  0  0  0
   -9.1248    0.7024   -9.2683 H   0  0  0  0  0  0
   -8.0947   -0.3177   -8.2076 H   0  0  0  0  0  0
   -7.4538    0.2811   -9.7752 H   0  0  0  0  0  0
   -5.7165    2.3152   -7.2588 H   0  0  0  0  0  0
   -5.5411    1.1883   -8.6466 H   0  0  0  0  0  0
   -6.1820    0.5896   -7.0790 H   0  0  0  0  0  0
   -7.9839    6.3824   -9.0579 H   0  0  0  0  0  0
   -8.3159    5.3670  -10.5020 H   0  0  0  0  0  0
   -6.6316    5.5615   -9.9088 H   0  0  0  0  0  0
   -6.9523    3.7771  -12.9633 H   0  0  0  0  0  0
   -6.7211    2.4770  -14.1811 H   0  0  0  0  0  0
   -5.4178    3.6790  -13.8919 H   0  0  0  0  0  0
   -3.8346    1.6049  -16.3215 H   0  0  0  0  0  0
   -3.7379    0.1674  -17.3944 H   0  0  0  0  0  0
   -2.3055    1.2315  -17.1871 H   0  0  0  0  0  0
  1  2  1  0  0  0
  1  6  1  0  0  0
  1 16  1  0  0  0
  1 17  1  0  0  0
  2  3  1  0  0  0
  2 21  1  0  0  0
  2 22  1  0  0  0
  3  4  1  0  0  0
  3 23  1  0  0  0
  3 24  1  0  0  0
  4  5  1  0  0  0
  4 25  1  0  0  0
  4 26  1  0  0  0
  5  6  2  0  0  0
  5 18  1  0  0  0
  6  7  1  0  0  0
  7  8  2  0  0  0
  7 27  1  0  0  0
  8  9  1  0  0  0
  8 28  1  0  0  0
  9 10  2  0  0  0
  9 19  1  0  0  0
 10 11  1  0  0  0
 10 29  1  0  0  0
 11 12  2  0  0  0
 11 30  1  0  0  0
 12 13  1  0  0  0
 12 31  1  0  0  0
 13 14  2  0  0  0
 13 20  1  0  0  0
 14 15  1  0  0  0
 14 32  1  0  0  0
 15 33  1  0  0  0
 15 34  1  0  0  0
 15 35  1  0  0  0
 16 36  1  0  0  0
 16 37  1  0  0  0
 16 38  1  0  0  0
 17 39  1  0  0  0
 17 40  1  0  0  0
 17 41  1  0  0  0
 18 42  1  0  0  0
 18 43  1  0  0  0
 18 44  1  0  0  0
 19 45  1  0  0  0
 19 46  1  0  0  0
 19 47  1  0  0  0
 20 48  1  0  0  0
 20 49  1  0  0  0
 20 50  1  0  0  0
M  END
> <s_m_source_file>
../4efg_ligand.sdf

> <i_m_source_file_index>
1

> <s_epik_input>
W0NIM11DMShbQ0gzXSlbQ0gyXVtDSDJdW0NIMl1DKFtDSDNdKT1DMS9bQ0hdPVtDSF0vQyhbQ0gzXSk9W0NIXS9bQ0hdPVtDSF0vQyhbQ0gzXSk9W0NIXS9bQ0gzXQ==

> <s_epik_cmdline>
J2VwaWtfYXBwJywgJy1pbWFlJywgJ2xpZ2FuZF9wcm8ubWFlJywgJy1vbWFlJywgJ2xpZ2FuZF9wcmVwLm1hZScsICctbXMnLCAnMScsICctcGgnLCAnNycsICctcGh0JywgJzAuNScsICctbnQn

> <r_lp_tautomer_probability>
1

> <r_epik_Ionization_Penalty>
  0.0000

> <r_epik_Ionization_Penalty_Charging>
  0.0000

> <r_epik_Ionization_Penalty_Neutral>
  0.0000

> <r_epik_State_Penalty>
 -0.0000

> <r_epik_Charging_Adjusted_Penalty>
0

> <i_epik_Tot_Q>
0

> <i_epik_Tot_abs_Q>
0

$$$$
