4eft_ligand
                    3D
 Schrodinger Suite 2020-3.
 38 40  0  0  1  0            999 V2000
   65.1870   34.2210   24.1670 C   0  0  0  0  0  0
   64.0520   33.9760   24.9560 C   0  0  0  0  0  0
   64.1210   33.4060   26.2170 C   0  0  0  0  0  0
   66.4230   33.9000   24.6560 C   0  0  0  0  0  0
   65.7990   32.4950   27.9210 N   0  0  0  0  0  0
   67.1820   32.4090   27.8850 N   0  0  0  0  0  0
   67.6560   32.8360   26.7330 C   0  0  3  0  0  0
   66.5350   33.3090   25.9350 C   0  0  0  0  0  0
   65.3780   33.0590   26.7340 C   0  0  0  0  0  0
   69.1110   32.9060   26.3380 C   0  0  1  0  0  0
   69.4230   32.2210   25.0000 C   0  0  0  0  0  0
   69.5200   34.3190   26.2950 C   0  0  0  0  0  0
   69.8330   35.4100   26.2960 N   0  0  0  0  0  0
   62.8460   34.2490   24.4420 O   0  0  0  0  0  0
   70.6710   31.3330   25.0240 C   0  0  0  0  0  0
   70.7330   30.6670   23.6440 C   0  0  0  0  0  0
   71.9400   29.7400   23.5150 C   0  0  0  0  0  0
   73.2480   30.5010   23.7840 C   0  0  0  0  0  0
   73.1960   31.1890   25.1620 C   0  0  0  0  0  0
   71.9740   32.1270   25.2580 C   0  0  0  0  0  0
   65.0842   34.6622   23.1756 H   0  0  0  0  0  0
   63.2149   33.2304   26.7968 H   0  0  0  0  0  0
   67.3160   34.0986   24.0633 H   0  0  0  0  0  0
   69.6901   32.3869   27.1159 H   0  0  0  0  0  0
   68.5771   31.5803   24.7101 H   0  0  0  0  0  0
   69.5862   32.9854   24.2260 H   0  0  0  0  0  0
   62.7636   34.7016   23.4428 H   0  0  0  0  0  0
   70.5882   30.6138   25.8522 H   0  0  0  0  0  0
   69.8220   30.0720   23.4828 H   0  0  0  0  0  0
   70.8077   31.4412   22.8662 H   0  0  0  0  0  0
   71.8521   28.9201   24.2430 H   0  0  0  0  0  0
   71.9760   29.3243   22.4972 H   0  0  0  0  0  0
   74.0923   29.7962   23.7673 H   0  0  0  0  0  0
   73.3936   31.2660   23.0071 H   0  0  0  0  0  0
   73.1208   30.4256   25.9504 H   0  0  0  0  0  0
   74.1110   31.7810   25.3110 H   0  0  0  0  0  0
   72.0650   32.9151   24.4960 H   0  0  0  0  0  0
   71.9499   32.5848   26.2579 H   0  0  0  0  0  0
  1  2  2  0  0  0
  1  4  1  0  0  0
  1 21  1  0  0  0
  2  3  1  0  0  0
  2 14  1  0  0  0
  3  9  2  0  0  0
  3 22  1  0  0  0
  4  8  2  0  0  0
  4 23  1  0  0  0
  5  6  2  0  0  0
  5  9  1  0  0  0
  6  7  1  0  0  0
  7  8  1  0  0  0
  7 10  1  0  0  0
  8  9  1  0  0  0
 10 11  1  0  0  0
 10 12  1  0  0  0
 10 24  1  0  0  0
 11 15  1  0  0  0
 11 25  1  0  0  0
 11 26  1  0  0  0
 12 13  3  0  0  0
 14 27  1  0  0  0
 15 16  1  0  0  0
 15 20  1  0  0  0
 15 28  1  0  0  0
 16 17  1  0  0  0
 16 29  1  0  0  0
 16 30  1  0  0  0
 17 18  1  0  0  0
 17 31  1  0  0  0
 17 32  1  0  0  0
 18 19  1  0  0  0
 18 33  1  0  0  0
 18 34  1  0  0  0
 19 20  1  0  0  0
 19 35  1  0  0  0
 19 36  1  0  0  0
 20 37  1  0  0  0
 20 38  1  0  0  0
M  END
> <s_m_source_file>
../4eft_ligand.sdf

> <i_m_source_file_index>
1

> <s_epik_input>
W2NIXTFbY0hdYyhbT0hdKVtjSF1jKGMxMilOPU5bQ0hdMltDQEhdKEMjTilbQ0gyXVtDSF0zW0NIMl1bQ0gyXVtDSDJdW0NIMl1bQ0gyXTM=

> <s_epik_cmdline>
J2VwaWtfYXBwJywgJy1pbWFlJywgJ2xpZ2FuZF9wcm8ubWFlJywgJy1vbWFlJywgJ2xpZ2FuZF9wcmVwLm1hZScsICctbXMnLCAnMScsICctcGgnLCAnNycsICctcGh0JywgJzAuNScsICctbnQn

> <r_lp_tautomer_probability>
1

> <r_epik_Ionization_Penalty>
  0.0076

> <r_epik_Ionization_Penalty_Charging>
  0.0000

> <r_epik_Ionization_Penalty_Neutral>
  0.0076

> <r_epik_State_Penalty>
 -0.0000

> <r_epik_Charging_Adjusted_Penalty>
0

> <i_epik_Tot_Q>
0

> <i_epik_Tot_abs_Q>
0

$$$$
