4efu_ligand
                    3D
 Schrodinger Suite 2020-3.
 51 54  0  0  1  0            999 V2000
   -0.8670   11.0920   25.7270 C   0  0  0  0  0  0
   -2.0350   11.4780   25.0190 C   0  0  0  0  0  0
   -1.9520   12.1840   23.8320 C   0  0  0  0  0  0
    0.4070   11.3700   25.1900 C   0  0  0  0  0  0
   -3.2590   11.2620   25.5550 O   0  0  0  0  0  0
   -0.9670   10.3650   27.0270 C   0  0  0  0  0  0
   -0.6750    9.0290   27.1470 N   0  0  0  0  0  0
   -1.2970   11.0130   28.0170 O   0  0  0  0  0  0
    0.4920   12.0110   23.9430 C   0  0  0  0  0  0
   -0.6930   12.4380   23.2730 C   0  0  0  0  0  0
   -0.3000   13.0240   22.1060 N   0  0  0  0  0  0
    1.0920   12.9610   22.0130 N   0  0  0  0  0  0
    1.6040   12.4290   23.0900 C   0  0  0  0  0  0
    3.0700   12.1190   23.2900 C   0  0  0  0  0  0
    3.7460   12.7600   24.4760 C   0  0  0  0  0  0
    4.1470   11.9790   25.5600 C   0  0  0  0  0  0
    5.1760   13.9040   26.6000 C   0  0  0  0  0  0
    4.7870   14.6690   25.5020 C   0  0  0  0  0  0
    4.8740   12.5480   26.6140 C   0  0  0  0  0  0
    4.0760   14.1130   24.4390 C   0  0  0  0  0  0
   -0.7630    8.3780   28.4660 C   0  0  0  0  0  0
   -0.3610    8.1380   26.0060 C   0  0  0  0  0  0
    1.0610    8.1090   25.5040 C   0  0  0  0  0  0
    1.2560    7.8480   24.1460 C   0  0  0  0  0  0
    3.6370    8.0370   24.4320 C   0  0  0  0  0  0
    3.4430    8.3040   25.7870 C   0  0  0  0  0  0
    2.5390    7.8170   23.6040 C   0  0  0  0  0  0
    2.1600    8.3360   26.3330 C   0  0  0  0  0  0
    5.1260   16.1190   25.4630 C   0  0  0  0  0  0
   -2.8563   12.5386   23.3374 H   0  0  0  0  0  0
    1.3102   11.0922   25.7333 H   0  0  0  0  0  0
    3.2006   11.0350   23.4236 H   0  0  0  0  0  0
    3.6385   12.4509   22.4088 H   0  0  0  0  0  0
    3.8932   10.9193   25.5873 H   0  0  0  0  0  0
    5.7082   14.3618   27.4338 H   0  0  0  0  0  0
    5.2031   11.9258   27.4462 H   0  0  0  0  0  0
    3.7820   14.7295   23.5895 H   0  0  0  0  0  0
   -0.9992    9.1315   29.2318 H   0  0  0  0  0  0
    0.1994    7.9017   28.7047 H   0  0  0  0  0  0
   -1.5549    7.6148   28.4461 H   0  0  0  0  0  0
   -0.5899    7.0974   26.2796 H   0  0  0  0  0  0
   -0.9666    8.4299   25.1353 H   0  0  0  0  0  0
    0.3948    7.6665   23.5030 H   0  0  0  0  0  0
    4.6462    8.0006   24.0217 H   0  0  0  0  0  0
    4.3051    8.4901   26.4275 H   0  0  0  0  0  0
    2.6822    7.6223   22.5411 H   0  0  0  0  0  0
    2.0176    8.5360   27.3950 H   0  0  0  0  0  0
    5.6832   16.3898   26.3720 H   0  0  0  0  0  0
    4.2002   16.7107   25.4104 H   0  0  0  0  0  0
    5.7450   16.3271   24.5778 H   0  0  0  0  0  0
    1.6005   13.3349   21.1121 H   0  0  0  0  0  0
  1  2  1  0  0  0
  1  4  2  0  0  0
  1  6  1  0  0  0
  2  3  1  0  0  0
  2  5  2  0  0  0
  3 10  2  0  0  0
  3 30  1  0  0  0
  4  9  1  0  0  0
  4 31  1  0  0  0
  6  7  1  0  0  0
  6  8  2  0  0  0
  7 21  1  0  0  0
  7 22  1  0  0  0
  9 10  1  0  0  0
  9 13  2  0  0  0
 10 11  1  0  0  0
 11 12  1  0  0  0
 12 13  1  0  0  0
 12 51  1  0  0  0
 13 14  1  0  0  0
 14 15  1  0  0  0
 14 32  1  0  0  0
 14 33  1  0  0  0
 15 16  2  0  0  0
 15 20  1  0  0  0
 16 19  1  0  0  0
 16 34  1  0  0  0
 17 18  1  0  0  0
 17 19  2  0  0  0
 17 35  1  0  0  0
 18 20  2  0  0  0
 18 29  1  0  0  0
 19 36  1  0  0  0
 20 37  1  0  0  0
 21 38  1  0  0  0
 21 39  1  0  0  0
 21 40  1  0  0  0
 22 23  1  0  0  0
 22 41  1  0  0  0
 22 42  1  0  0  0
 23 24  2  0  0  0
 23 28  1  0  0  0
 24 27  1  0  0  0
 24 43  1  0  0  0
 25 26  1  0  0  0
 25 27  2  0  0  0
 25 44  1  0  0  0
 26 28  2  0  0  0
 26 45  1  0  0  0
 27 46  1  0  0  0
 28 47  1  0  0  0
 29 48  1  0  0  0
 29 49  1  0  0  0
 29 50  1  0  0  0
M  END
> <s_m_source_file>
../4efu_ligand.sdf

> <i_m_source_file_index>
1

> <s_epik_input>
W2NIXTFbY0hdW2NIXVtjSF1bY0hdYzFbQ0gyXU4oW0NIM10pQyg9TyljKFtjSF0yKWMoW09IXSlbY0hdYyhjMjMpW25IXW5jM1tDSDJdYzRbY0hdW2NIXVtjSF1jKFtjSF00KVtDSDNd

> <s_epik_cmdline>
J2VwaWtfYXBwJywgJy1pbWFlJywgJ2xpZ2FuZF9wcm8ubWFlJywgJy1vbWFlJywgJ2xpZ2FuZF9wcmVwLm1hZScsICctbXMnLCAnMScsICctcGgnLCAnNycsICctcGh0JywgJzAuNScsICctbnQn

> <r_lp_tautomer_probability>
1

> <r_epik_Ionization_Penalty>
  0.0050

> <r_epik_Ionization_Penalty_Charging>
  0.0050

> <r_epik_Ionization_Penalty_Neutral>
  0.0000

> <r_epik_State_Penalty>
 -0.0000

> <r_epik_Charging_Adjusted_Penalty>
0.0049622776253044

> <i_epik_Tot_Q>
0

> <i_epik_Tot_abs_Q>
0

$$$$
