4eg4_ligand
                    3D
 Schrodinger Suite 2020-3.
 53 55  0  0  1  0            999 V2000
   45.3670   14.5840   -7.2000 C   0  0  0  0  0  0
   43.9460   15.1390   -7.2500 C   0  0  0  0  0  0
   42.9880   14.0710   -7.0770 O   0  0  0  0  0  0
   41.6410   14.3090   -7.0130 C   0  0  0  0  0  0
   41.0090   15.5750   -7.0380 C   0  0  0  0  0  0
   41.8360   17.3030   -7.1670 Br  0  0  0  0  0  0
   39.6280   15.6410   -6.9670 C   0  0  0  0  0  0
   38.8620   14.5070   -6.8690 C   0  0  0  0  0  0
   36.9870   14.7010   -6.7600 Br  0  0  0  0  0  0
   39.4790   13.2720   -6.8450 C   0  0  0  0  0  0
   40.8620   13.1590   -6.9260 C   0  0  0  0  0  0
   41.3880   11.7110   -6.8650 C   0  0  0  0  0  0
   42.3730   11.2670   -7.8630 N   0  3  0  0  0  0
   42.1860   11.9010   -9.1980 C   0  0  0  0  0  0
   43.0940   11.1550  -10.2080 C   0  0  0  0  0  0
   44.0640   12.0520  -11.0140 C   0  0  0  0  0  0
   43.3070   12.7290  -12.0830 N   0  0  0  0  0  0
   43.8230   13.6370  -12.9140 C   0  0  0  0  0  0
   45.1760   13.6770  -13.2680 C   0  0  0  0  0  0
   45.6530   14.6550  -14.1540 C   0  0  0  0  0  0
   46.8570   14.6900  -14.4520 O   0  0  0  0  0  0
   44.7520   15.5930  -14.6890 C   0  0  0  0  0  0
   45.1780   16.5880  -15.5690 C   0  0  0  0  0  0
   44.2660   17.5070  -16.0820 C   0  0  0  0  0  0
   42.9250   17.4480  -15.7310 C   0  0  0  0  0  0
   42.4950   16.4620  -14.8610 C   0  0  0  0  0  0
   43.4040   15.5470  -14.3380 C   0  0  0  0  0  0
   42.9500   14.5720  -13.4520 N   0  3  0  0  0  0
   46.0864   15.4055   -7.3327 H   0  0  0  0  0  0
   45.5008   13.8459   -8.0045 H   0  0  0  0  0  0
   45.5378   14.1007   -6.2268 H   0  0  0  0  0  0
   43.8122   15.8771   -6.4455 H   0  0  0  0  0  0
   43.7752   15.6224   -8.2232 H   0  0  0  0  0  0
   39.1388   16.6148   -6.9894 H   0  0  0  0  0  0
   38.8715   12.3709   -6.7612 H   0  0  0  0  0  0
   41.8809   11.5405   -5.8965 H   0  0  0  0  0  0
   40.5473   11.0105   -6.9769 H   0  0  0  0  0  0
   43.3859   11.5188   -7.5157 H   0  0  0  0  0  0
   42.2921   10.1784   -7.9990 H   0  0  0  0  0  0
   41.1313   11.8175   -9.4990 H   0  0  0  0  0  0
   42.4686   12.9626   -9.1426 H   0  0  0  0  0  0
   43.7176   10.4252   -9.6709 H   0  0  0  0  0  0
   42.4686   10.6305  -10.9454 H   0  0  0  0  0  0
   44.5137   12.7999  -10.3444 H   0  0  0  0  0  0
   44.8573   11.4306  -11.4550 H   0  0  0  0  0  0
   45.7870   13.8237  -12.3652 H   0  0  0  0  0  0
   45.4569   12.7294  -13.7508 H   0  0  0  0  0  0
   46.2279   16.6464  -15.8560 H   0  0  0  0  0  0
   44.6098   18.2818  -16.7673 H   0  0  0  0  0  0
   42.2174   18.1712  -16.1366 H   0  0  0  0  0  0
   41.4423   16.4016  -14.5846 H   0  0  0  0  0  0
   41.8843   14.5496  -13.1803 H   0  0  0  0  0  0
   42.2430   12.4956  -12.2360 H   0  0  0  0  0  0
  1  2  1  0  0  0
  1 29  1  0  0  0
  1 30  1  0  0  0
  1 31  1  0  0  0
  2  3  1  0  0  0
  2 32  1  0  0  0
  2 33  1  0  0  0
  3  4  1  0  0  0
  4  5  2  0  0  0
  4 11  1  0  0  0
  5  6  1  0  0  0
  5  7  1  0  0  0
  7  8  2  0  0  0
  7 34  1  0  0  0
  8  9  1  0  0  0
  8 10  1  0  0  0
 10 11  2  0  0  0
 10 35  1  0  0  0
 11 12  1  0  0  0
 12 13  1  0  0  0
 12 36  1  0  0  0
 12 37  1  0  0  0
 13 14  1  0  0  0
 13 38  1  0  0  0
 13 39  1  0  0  0
 14 15  1  0  0  0
 14 40  1  0  0  0
 14 41  1  0  0  0
 15 16  1  0  0  0
 15 42  1  0  0  0
 15 43  1  0  0  0
 16 17  1  0  0  0
 16 44  1  0  0  0
 16 45  1  0  0  0
 17 18  1  0  0  0
 17 53  1  0  0  0
 18 19  1  0  0  0
 18 28  2  0  0  0
 19 20  1  0  0  0
 19 46  1  0  0  0
 19 47  1  0  0  0
 20 21  2  0  0  0
 20 22  1  0  0  0
 22 23  2  0  0  0
 22 27  1  0  0  0
 23 24  1  0  0  0
 23 48  1  0  0  0
 24 25  2  0  0  0
 24 49  1  0  0  0
 25 26  1  0  0  0
 25 50  1  0  0  0
 26 27  2  0  0  0
 26 51  1  0  0  0
 27 28  1  0  0  0
 28 52  1  0  0  0
M  CHG  2  13   1  28   1
M  END
> <s_m_source_file>
../4eg4_ligand.sdf

> <i_m_source_file_index>
1

> <s_epik_input>
W0NIM11bQ0gyXU9jMWMoQnIpW2NIXWMoQnIpW2NIXWMxW0NIMl1bTkgyK11bQ0gyXVtDSDJdW0NIMl0vTj1DKFxbQ0gyXUMyPU8pW05IXWMoYzIzKVtjSF1bY0hdW2NIXVtjSF0z

> <s_epik_cmdline>
J2VwaWtfYXBwJywgJy1pbWFlJywgJ2xpZ2FuZF9wcm8ubWFlJywgJy1vbWFlJywgJ2xpZ2FuZF9wcmVwLm1hZScsICctbXMnLCAnMScsICctcGgnLCAnNycsICctcGh0JywgJzAuNScsICctbnQn

> <r_lp_tautomer_probability>
1

> <r_epik_Ionization_Penalty>
  0.1948

> <r_epik_Ionization_Penalty_Charging>
  0.1948

> <r_epik_Ionization_Penalty_Neutral>
  0.0000

> <r_epik_State_Penalty>
 -0.0000

> <r_epik_Charging_Adjusted_Penalty>
0.194786787813718

> <i_epik_Tot_Q>
2

> <i_epik_Tot_abs_Q>
2

> <s_epik_Chemistry_Notes>
This compound has an imine and may undergo hydrolysis.

$$$$
