4eg5_ligand
                    3D
 Schrodinger Suite 2020-3.
 46 48  0  0  1  0            999 V2000
   41.3830  -14.6040    7.1480 C   0  0  0  0  0  0
   40.6960  -15.8050    7.1610 C   0  0  0  0  0  0
   41.5480  -17.2920    7.1470 Cl  0  0  0  0  0  0
   39.3200  -15.8350    7.1700 C   0  0  0  0  0  0
   38.6130  -14.6460    7.1680 C   0  0  0  0  0  0
   36.8890  -14.7690    7.1780 Cl  0  0  0  0  0  0
   39.2820  -13.4210    7.1630 C   0  0  0  0  0  0
   40.6780  -13.4130    7.1360 C   0  0  0  0  0  0
   41.4680  -12.1040    7.1380 C   0  0  0  0  0  0
   41.4720  -11.6790    8.5330 N   0  3  0  0  0  0
   42.8640  -11.8240    9.0170 C   0  0  0  0  0  0
   42.9360  -11.1970   10.4210 C   0  0  0  0  0  0
   43.8160  -12.0140   11.3740 C   0  0  0  0  0  0
   43.0080  -13.0020   12.1080 N   0  0  0  0  0  0
   43.5380  -13.8750   12.9820 C   0  0  0  0  0  0
   44.9050  -13.9050   13.3040 C   0  0  0  0  0  0
   45.4030  -14.8400   14.2240 C   0  0  0  0  0  0
   46.6050  -14.8790   14.5010 O   0  0  0  0  0  0
   44.5300  -15.7530   14.8240 C   0  0  0  0  0  0
   45.0010  -16.7000   15.7360 C   0  0  0  0  0  0
   44.1120  -17.6070   16.3280 C   0  0  0  0  0  0
   42.7510  -17.5910   16.0250 C   0  0  0  0  0  0
   42.2900  -16.6430   15.1150 C   0  0  0  0  0  0
   43.1670  -15.7330   14.5140 C   0  0  0  0  0  0
   42.6750  -14.7980   13.5960 N   0  3  0  0  0  0
   42.4730  -14.5959    7.1472 H   0  0  0  0  0  0
   38.7915  -16.7882    7.1786 H   0  0  0  0  0  0
   38.7234  -12.4852    7.1799 H   0  0  0  0  0  0
   42.4856  -12.2893    6.7636 H   0  0  0  0  0  0
   40.9661  -11.3718    6.4885 H   0  0  0  0  0  0
   41.1418  -10.6318    8.5982 H   0  0  0  0  0  0
   40.7875  -12.3160    9.1124 H   0  0  0  0  0  0
   43.1281  -12.8910    9.0595 H   0  0  0  0  0  0
   43.5473  -11.3042    8.3293 H   0  0  0  0  0  0
   43.3585  -10.1839   10.3489 H   0  0  0  0  0  0
   41.9248  -11.1428   10.8507 H   0  0  0  0  0  0
   44.5881  -12.5438   10.7967 H   0  0  0  0  0  0
   44.2974  -11.3396   12.0975 H   0  0  0  0  0  0
   45.4918  -14.0990   12.3941 H   0  0  0  0  0  0
   45.2022  -12.9364   13.7324 H   0  0  0  0  0  0
   46.0611  -16.7336   15.9875 H   0  0  0  0  0  0
   44.4920  -18.3399   17.0398 H   0  0  0  0  0  0
   42.0663  -18.3015   16.4880 H   0  0  0  0  0  0
   41.2292  -16.6092   14.8669 H   0  0  0  0  0  0
   41.6014  -14.7904   13.3568 H   0  0  0  0  0  0
   41.9201  -13.0480   11.9518 H   0  0  0  0  0  0
  1  2  2  0  0  0
  1  8  1  0  0  0
  1 26  1  0  0  0
  2  3  1  0  0  0
  2  4  1  0  0  0
  4  5  2  0  0  0
  4 27  1  0  0  0
  5  6  1  0  0  0
  5  7  1  0  0  0
  7  8  2  0  0  0
  7 28  1  0  0  0
  8  9  1  0  0  0
  9 10  1  0  0  0
  9 29  1  0  0  0
  9 30  1  0  0  0
 10 11  1  0  0  0
 10 31  1  0  0  0
 10 32  1  0  0  0
 11 12  1  0  0  0
 11 33  1  0  0  0
 11 34  1  0  0  0
 12 13  1  0  0  0
 12 35  1  0  0  0
 12 36  1  0  0  0
 13 14  1  0  0  0
 13 37  1  0  0  0
 13 38  1  0  0  0
 14 15  1  0  0  0
 14 46  1  0  0  0
 15 16  1  0  0  0
 15 25  2  0  0  0
 16 17  1  0  0  0
 16 39  1  0  0  0
 16 40  1  0  0  0
 17 18  2  0  0  0
 17 19  1  0  0  0
 19 20  2  0  0  0
 19 24  1  0  0  0
 20 21  1  0  0  0
 20 41  1  0  0  0
 21 22  2  0  0  0
 21 42  1  0  0  0
 22 23  1  0  0  0
 22 43  1  0  0  0
 23 24  2  0  0  0
 23 44  1  0  0  0
 24 25  1  0  0  0
 25 45  1  0  0  0
M  CHG  2  10   1  25   1
M  END
> <s_m_source_file>
../4eg5_ligand.sdf

> <i_m_source_file_index>
1

> <s_epik_input>
Q2xjMVtjSF1jKFtjSF1jKENsKVtjSF0xKVtDSDJdW05IMitdW0NIMl1bQ0gyXVtDSDJdL049QyhcW0NIMl1DMj1PKVtOSF1jKGMyMylbY0hdW2NIXVtjSF1bY0hdMw==

> <s_epik_cmdline>
J2VwaWtfYXBwJywgJy1pbWFlJywgJ2xpZ2FuZF9wcm8ubWFlJywgJy1vbWFlJywgJ2xpZ2FuZF9wcmVwLm1hZScsICctbXMnLCAnMScsICctcGgnLCAnNycsICctcGh0JywgJzAuNScsICctbnQn

> <r_lp_tautomer_probability>
1

> <r_epik_Ionization_Penalty>
  0.1959

> <r_epik_Ionization_Penalty_Charging>
  0.1959

> <r_epik_Ionization_Penalty_Neutral>
  0.0000

> <r_epik_State_Penalty>
 -0.0000

> <r_epik_Charging_Adjusted_Penalty>
0.195947781072824

> <i_epik_Tot_Q>
2

> <i_epik_Tot_abs_Q>
2

> <s_epik_Chemistry_Notes>
This compound has an imine and may undergo hydrolysis.

$$$$
