4eg7_ligand
                    3D
 Schrodinger Suite 2020-3.
 42 44  0  0  1  0            999 V2000
  -40.0420   13.4980    6.9690 C   0  0  0  0  0  0
  -39.3970   14.7350    6.9210 C   0  0  0  0  0  0
  -37.6480   14.8490    6.9340 Cl  0  0  0  0  0  0
  -40.1700   15.8940    6.8690 C   0  0  0  0  0  0
  -41.5600   15.8210    6.8620 C   0  0  0  0  0  0
  -42.5270   17.2640    6.7900 Cl  0  0  0  0  0  0
  -42.1870   14.5880    6.9090 C   0  0  0  0  0  0
  -41.4350   13.4280    6.9530 C   0  0  0  0  0  0
  -42.1610   12.0740    6.9970 C   0  0  0  0  0  0
  -42.2140   11.6410    8.3880 N   0  3  0  0  0  0
  -43.5640   12.0190    8.8330 C   0  0  0  0  0  0
  -43.8390   11.4400   10.2210 C   0  0  0  0  0  0
  -44.6170   12.4100   11.1050 C   0  0  0  0  0  0
  -43.6830   13.1680   11.9380 N   0  0  0  0  0  0
  -44.1120   14.0690   12.7910 C   0  0  0  0  0  0
  -45.3780   14.2220   13.1500 N   0  0  0  0  0  0
  -45.4140   15.2350   14.0120 C   0  0  0  0  0  0
  -46.4550   15.8490   14.7130 C   0  0  0  0  0  0
  -46.1910   16.9150   15.5680 C   0  0  0  0  0  0
  -44.8850   17.3730   15.7170 C   0  0  0  0  0  0
  -43.8420   16.7590   15.0240 C   0  0  0  0  0  0
  -44.1100   15.6910   14.1690 C   0  0  0  0  0  0
  -43.3320   14.9440   13.3920 N   0  3  0  0  0  0
  -39.4538   12.5817    7.0193 H   0  0  0  0  0  0
  -39.6808   16.8674    6.8335 H   0  0  0  0  0  0
  -43.2755   14.5310    6.9113 H   0  0  0  0  0  0
  -43.1782   12.1901    6.5947 H   0  0  0  0  0  0
  -41.6082   11.3416    6.3904 H   0  0  0  0  0  0
  -42.0516   10.5543    8.4402 H   0  0  0  0  0  0
  -41.4306   12.1568    8.9627 H   0  0  0  0  0  0
  -43.6421   13.1154    8.8765 H   0  0  0  0  0  0
  -44.3073   11.6263    8.1236 H   0  0  0  0  0  0
  -44.4299   10.5174   10.1229 H   0  0  0  0  0  0
  -42.8849   11.2131   10.7193 H   0  0  0  0  0  0
  -45.1899   13.1039   10.4722 H   0  0  0  0  0  0
  -45.3076   11.8459   11.7490 H   0  0  0  0  0  0
  -42.6011   12.9872   11.8555 H   0  0  0  0  0  0
  -47.4875   15.4902   14.5901 H   0  0  0  0  0  0
  -47.0091   17.3953   16.1248 H   0  0  0  0  0  0
  -44.6726   18.2221   16.3832 H   0  0  0  0  0  0
  -42.8191   17.1136   15.1507 H   0  0  0  0  0  0
  -42.2489   15.1325   13.3543 H   0  0  0  0  0  0
  1  2  2  0  0  0
  1  8  1  0  0  0
  1 24  1  0  0  0
  2  3  1  0  0  0
  2  4  1  0  0  0
  4  5  2  0  0  0
  4 25  1  0  0  0
  5  6  1  0  0  0
  5  7  1  0  0  0
  7  8  2  0  0  0
  7 26  1  0  0  0
  8  9  1  0  0  0
  9 10  1  0  0  0
  9 27  1  0  0  0
  9 28  1  0  0  0
 10 11  1  0  0  0
 10 29  1  0  0  0
 10 30  1  0  0  0
 11 12  1  0  0  0
 11 31  1  0  0  0
 11 32  1  0  0  0
 12 13  1  0  0  0
 12 33  1  0  0  0
 12 34  1  0  0  0
 13 14  1  0  0  0
 13 35  1  0  0  0
 13 36  1  0  0  0
 14 15  1  0  0  0
 14 37  1  0  0  0
 15 16  2  0  0  0
 15 23  1  0  0  0
 16 17  1  0  0  0
 17 18  2  0  0  0
 17 22  1  0  0  0
 18 19  1  0  0  0
 18 38  1  0  0  0
 19 20  2  0  0  0
 19 39  1  0  0  0
 20 21  1  0  0  0
 20 40  1  0  0  0
 21 22  1  0  0  0
 21 41  1  0  0  0
 22 23  2  0  0  0
 23 42  1  0  0  0
M  CHG  2  10   1  23   1
M  END
> <s_m_source_file>
../4eg7_ligand.sdf

> <i_m_source_file_index>
1

> <s_epik_input>
Q2xjMVtjSF1jKFtjSF1jKENsKVtjSF0xKVtDSDJdW05IMitdW0NIMl1bQ0gyXVtDSDJdW05IXUMoPU4yKU49QyhDMj0zKVtDSDJdW0NIXT1bQ0hdW0NIXTM=

> <s_epik_cmdline>
J2VwaWtfYXBwJywgJy1pbWFlJywgJ2xpZ2FuZF9wcm8ubWFlJywgJy1vbWFlJywgJ2xpZ2FuZF9wcmVwLm1hZScsICctbXMnLCAnMScsICctcGgnLCAnNycsICctcGh0JywgJzAuNScsICctbnQn

> <r_epik_Ionization_Penalty>
  0.0287

> <r_epik_Ionization_Penalty_Charging>
  0.0287

> <r_epik_Ionization_Penalty_Neutral>
  0.0000

> <r_epik_State_Penalty>
  0.0236

> <r_epik_Charging_Adjusted_Penalty>
0.0522640599660237

> <i_epik_Tot_Q>
2

> <i_epik_Tot_abs_Q>
2

> <s_epik_Chemistry_Notes>
This compound has an imine and may undergo hydrolysis.

$$$$
