4ega_ligand
                    3D
 Schrodinger Suite 2020-3.
 50 52  0  0  1  0            999 V2000
  -43.5870   13.6280    6.8060 C   0  0  0  0  0  0
  -42.8120   14.7020    7.2670 O   0  0  0  0  0  0
  -41.4420   14.5470    7.1990 C   0  0  0  0  0  0
  -40.7170   15.7140    7.1110 C   0  0  0  0  0  0
  -41.6530   17.3470    7.0540 Br  0  0  0  0  0  0
  -39.3440   15.7320    7.0410 C   0  0  0  0  0  0
  -38.6320   14.5610    7.0680 C   0  0  0  0  0  0
  -36.7240   14.6920    6.9640 Br  0  0  0  0  0  0
  -39.3440   13.3660    7.1650 C   0  0  0  0  0  0
  -40.7450   13.3340    7.2160 C   0  0  0  0  0  0
  -41.4120   11.9540    7.3390 C   0  0  0  0  0  0
  -41.5450   11.7420    8.7750 N   0  3  0  0  0  0
  -42.8220   11.0950    9.0950 C   0  0  0  0  0  0
  -42.9160   11.0080   10.6220 C   0  0  0  0  0  0
  -43.7680   12.1270   11.2120 C   0  0  0  0  0  0
  -43.0110   12.8370   12.2610 N   0  0  0  0  0  0
  -43.5570   13.7190   13.0880 C   0  0  0  0  0  0
  -44.9220   13.7100   13.3690 C   0  0  0  0  0  0
  -45.4730   14.6530   14.2400 C   0  0  0  0  0  0
  -46.6870   14.6250   14.4730 O   0  0  0  0  0  0
  -44.6300   15.6050   14.8360 C   0  0  0  0  0  0
  -45.1310   16.5640   15.7110 C   0  0  0  0  0  0
  -44.2780   17.5080   16.2830 C   0  0  0  0  0  0
  -42.9160   17.5060   15.9970 C   0  0  0  0  0  0
  -42.4080   16.5480   15.1320 C   0  0  0  0  0  0
  -43.2570   15.6060   14.5570 C   0  0  0  0  0  0
  -42.7240   14.6590   13.6820 N   0  3  0  0  0  0
  -44.6540   13.8734    6.9126 H   0  0  0  0  0  0
  -43.3566   12.7293    7.3970 H   0  0  0  0  0  0
  -43.3583   13.4389    5.7468 H   0  0  0  0  0  0
  -38.8182   16.6837    6.9635 H   0  0  0  0  0  0
  -38.7935   12.4260    7.2024 H   0  0  0  0  0  0
  -42.3891   11.9727    6.8341 H   0  0  0  0  0  0
  -40.7709   11.1937    6.8690 H   0  0  0  0  0  0
  -40.7255   11.0987    9.1281 H   0  0  0  0  0  0
  -41.5006   12.7107    9.2943 H   0  0  0  0  0  0
  -43.6493   11.6964    8.6901 H   0  0  0  0  0  0
  -42.8461   10.0902    8.6480 H   0  0  0  0  0  0
  -43.3692   10.0472   10.9073 H   0  0  0  0  0  0
  -41.9080   11.0812   11.0562 H   0  0  0  0  0  0
  -44.0405   12.8379   10.4180 H   0  0  0  0  0  0
  -44.6816   11.6997   11.6510 H   0  0  0  0  0  0
  -45.4891   13.8531   12.4374 H   0  0  0  0  0  0
  -45.1969   12.7457   13.8211 H   0  0  0  0  0  0
  -46.1943   16.5776   15.9504 H   0  0  0  0  0  0
  -44.6836   18.2571   16.9630 H   0  0  0  0  0  0
  -42.2566   18.2481   16.4472 H   0  0  0  0  0  0
  -41.3426   16.5326   14.9021 H   0  0  0  0  0  0
  -41.6462   14.6558   13.4621 H   0  0  0  0  0  0
  -41.9353   12.6455   12.3880 H   0  0  0  0  0  0
  1  2  1  0  0  0
  1 28  1  0  0  0
  1 29  1  0  0  0
  1 30  1  0  0  0
  2  3  1  0  0  0
  3  4  2  0  0  0
  3 10  1  0  0  0
  4  5  1  0  0  0
  4  6  1  0  0  0
  6  7  2  0  0  0
  6 31  1  0  0  0
  7  8  1  0  0  0
  7  9  1  0  0  0
  9 10  2  0  0  0
  9 32  1  0  0  0
 10 11  1  0  0  0
 11 12  1  0  0  0
 11 33  1  0  0  0
 11 34  1  0  0  0
 12 13  1  0  0  0
 12 35  1  0  0  0
 12 36  1  0  0  0
 13 14  1  0  0  0
 13 37  1  0  0  0
 13 38  1  0  0  0
 14 15  1  0  0  0
 14 39  1  0  0  0
 14 40  1  0  0  0
 15 16  1  0  0  0
 15 41  1  0  0  0
 15 42  1  0  0  0
 16 17  1  0  0  0
 16 50  1  0  0  0
 17 18  1  0  0  0
 17 27  2  0  0  0
 18 19  1  0  0  0
 18 43  1  0  0  0
 18 44  1  0  0  0
 19 20  2  0  0  0
 19 21  1  0  0  0
 21 22  2  0  0  0
 21 26  1  0  0  0
 22 23  1  0  0  0
 22 45  1  0  0  0
 23 24  2  0  0  0
 23 46  1  0  0  0
 24 25  1  0  0  0
 24 47  1  0  0  0
 25 26  2  0  0  0
 25 48  1  0  0  0
 26 27  1  0  0  0
 27 49  1  0  0  0
M  CHG  2  12   1  27   1
M  END
> <s_m_source_file>
../4ega_ligand.sdf

> <i_m_source_file_index>
1

> <s_epik_input>
W0NIM11PYzFjKEJyKVtjSF1jKEJyKVtjSF1jMVtDSDJdW05IMitdW0NIMl1bQ0gyXVtDSDJdL049QyhcW0NIMl1DMj1PKVtOSF1jKGMyMylbY0hdW2NIXVtjSF1bY0hdMw==

> <s_epik_cmdline>
J2VwaWtfYXBwJywgJy1pbWFlJywgJ2xpZ2FuZF9wcm8ubWFlJywgJy1vbWFlJywgJ2xpZ2FuZF9wcmVwLm1hZScsICctbXMnLCAnMScsICctcGgnLCAnNycsICctcGh0JywgJzAuNScsICctbnQn

> <r_lp_tautomer_probability>
1

> <r_epik_Ionization_Penalty>
  0.1934

> <r_epik_Ionization_Penalty_Charging>
  0.1934

> <r_epik_Ionization_Penalty_Neutral>
  0.0000

> <r_epik_State_Penalty>
 -0.0000

> <r_epik_Charging_Adjusted_Penalty>
0.193439046068686

> <i_epik_Tot_Q>
2

> <i_epik_Tot_abs_Q>
2

> <s_epik_Chemistry_Notes>
This compound has an imine and may undergo hydrolysis.

$$$$
