4egh_ligand
                    3D
 Schrodinger Suite 2020-3.
 28 29  0  0  1  0            999 V2000
    2.4340   10.3740  -27.0160 O   0  0  0  0  0  0
    1.6450    9.8560  -26.1860 C   0  0  0  0  0  0
    0.9840    8.7040  -26.3730 N   0  0  0  0  0  0
    0.0820    8.0620  -25.3980 C   0  0  0  0  0  0
    0.4610    6.5910  -25.3700 C   0  0  0  0  0  0
    0.2990    6.0090  -26.6660 O   0  0  0  0  0  0
    1.3040    6.4990  -27.4980 C   0  0  0  0  0  0
    0.9830    7.9890  -27.6430 C   0  0  0  0  0  0
    1.4330   10.6070  -24.9210 C   0  0  0  0  0  0
    0.1960   11.0460  -24.4830 C   0  0  0  0  0  0
    0.0640   11.7650  -23.2700 C   0  0  0  0  0  0
    1.2060   12.0480  -22.4790 C   0  0  0  0  0  0
    1.1800   12.6790  -21.2830 O   0  0  0  0  0  0
    2.4610   11.6090  -22.9480 C   0  0  0  0  0  0
    2.5420   10.9210  -24.1600 C   0  0  0  0  0  0
    0.2216    8.5244  -24.4097 H   0  0  0  0  0  0
   -0.9611    8.1947  -25.7209 H   0  0  0  0  0  0
    1.5116    6.4889  -25.0606 H   0  0  0  0  0  0
   -0.1849    6.0595  -24.6557 H   0  0  0  0  0  0
    2.2838    6.3330  -27.0264 H   0  0  0  0  0  0
    1.2685    5.9743  -28.4641 H   0  0  0  0  0  0
   -0.0101    8.0705  -28.1089 H   0  0  0  0  0  0
    1.7386    8.4276  -28.3113 H   0  0  0  0  0  0
   -0.6907   10.8351  -25.0809 H   0  0  0  0  0  0
   -0.9197   12.1022  -22.9432 H   0  0  0  0  0  0
    0.2257   13.0409  -20.8727 H   0  0  0  0  0  0
    3.3626   11.8056  -22.3678 H   0  0  0  0  0  0
    3.5245   10.6180  -24.5220 H   0  0  0  0  0  0
  1  2  2  0  0  0
  2  3  1  0  0  0
  2  9  1  0  0  0
  3  4  1  0  0  0
  3  8  1  0  0  0
  4  5  1  0  0  0
  4 16  1  0  0  0
  4 17  1  0  0  0
  5  6  1  0  0  0
  5 18  1  0  0  0
  5 19  1  0  0  0
  6  7  1  0  0  0
  7  8  1  0  0  0
  7 20  1  0  0  0
  7 21  1  0  0  0
  8 22  1  0  0  0
  8 23  1  0  0  0
  9 10  2  0  0  0
  9 15  1  0  0  0
 10 11  1  0  0  0
 10 24  1  0  0  0
 11 12  2  0  0  0
 11 25  1  0  0  0
 12 13  1  0  0  0
 12 14  1  0  0  0
 13 26  1  0  0  0
 14 15  2  0  0  0
 14 27  1  0  0  0
 15 28  1  0  0  0
M  END
> <s_m_source_file>
../4egh_ligand.sdf

> <i_m_source_file_index>
1

> <s_epik_input>
W2NIXTFbY0hdYyhbT0hdKVtjSF1bY0hdYzFDKD1PKU4yW0NIMl1bQ0gyXU9bQ0gyXVtDSDJdMg==

> <s_epik_cmdline>
J2VwaWtfYXBwJywgJy1pbWFlJywgJ2xpZ2FuZF9wcm8ubWFlJywgJy1vbWFlJywgJ2xpZ2FuZF9wcmVwLm1hZScsICctbXMnLCAnMScsICctcGgnLCAnNycsICctcGh0JywgJzAuNScsICctbnQn

> <r_lp_tautomer_probability>
0.999999999997365

> <r_epik_Ionization_Penalty>
  0.0155

> <r_epik_Ionization_Penalty_Charging>
  0.0000

> <r_epik_Ionization_Penalty_Neutral>
  0.0155

> <r_epik_State_Penalty>
  0.0122

> <r_epik_Charging_Adjusted_Penalty>
0.0122196384710087

> <i_epik_Tot_Q>
0

> <i_epik_Tot_abs_Q>
0

$$$$
