4egi_ligand
                    3D
 Schrodinger Suite 2020-3.
 15 15  0  0  1  0            999 V2000
   10.1580   -8.2030   13.7490 S   0  0  0  0  0  0
    9.9820   -6.5920   13.2920 C   0  0  0  0  0  0
    8.7850   -6.0230   13.2880 N   0  0  0  0  0  0
   11.0460   -5.8960   12.9070 N   0  0  0  0  0  0
   10.9370   -4.5930   12.5470 C   0  0  0  0  0  0
   12.1600   -3.8220   12.0650 C   0  0  0  0  0  0
    9.7290   -4.0600   12.5350 N   0  0  0  0  0  0
    8.6420   -4.7480   12.9260 C   0  0  0  0  0  0
    7.4290   -4.2190   12.9290 N   0  0  0  0  0  0
   12.0354   -6.3757   12.8765 H   0  0  0  0  0  0
   13.0545   -4.4546   12.1636 H   0  0  0  0  0  0
   12.2842   -2.9140   12.6733 H   0  0  0  0  0  0
   12.0240   -3.5410   11.0102 H   0  0  0  0  0  0
    6.5679   -4.8196   13.2573 H   0  0  0  0  0  0
    7.2818   -3.1787   12.6032 H   0  0  0  0  0  0
  1  2  2  0  0  0
  2  3  1  0  0  0
  2  4  1  0  0  0
  3  8  2  0  0  0
  4  5  1  0  0  0
  4 10  1  0  0  0
  5  6  1  0  0  0
  5  7  2  0  0  0
  6 11  1  0  0  0
  6 12  1  0  0  0
  6 13  1  0  0  0
  7  8  1  0  0  0
  8  9  1  0  0  0
  9 14  1  0  0  0
  9 15  1  0  0  0
M  END
> <s_m_source_file>
../4egi_ligand.sdf

> <i_m_source_file_index>
1

> <s_epik_input>
Uz1jMVtuSF0vYyg9Ti9bSF0pbmMoW25IXTEpW0NIM10=

> <s_epik_cmdline>
J2VwaWtfYXBwJywgJy1pbWFlJywgJ2xpZ2FuZF9wcm8ubWFlJywgJy1vbWFlJywgJ2xpZ2FuZF9wcmVwLm1hZScsICctbXMnLCAnMScsICctcGgnLCAnNycsICctcGh0JywgJzAuNScsICctbnQn

> <r_lp_tautomer_probability>
1

> <r_epik_Ionization_Penalty>
  0.0218

> <r_epik_Ionization_Penalty_Charging>
  0.0217

> <r_epik_Ionization_Penalty_Neutral>
  0.0002

> <r_epik_State_Penalty>
 -0.0000

> <r_epik_Charging_Adjusted_Penalty>
0.0216821230208337

> <i_epik_Tot_Q>
0

> <i_epik_Tot_abs_Q>
0

$$$$
