4egk_ligand
                    3D
 Schrodinger Suite 2020-3.
 41 43  0  0  1  0            999 V2000
   10.8980   -4.6510   12.3330 C   0  0  0  0  0  0
    9.6170   -5.2340   12.7290 C   0  0  0  0  0  0
    8.4740   -4.3470   12.8230 C   0  0  0  0  0  0
    7.2530   -4.8470   13.2190 C   0  0  0  0  0  0
    7.0540   -6.1740   13.4710 C   0  0  0  0  0  0
    8.1480   -7.0920   13.3400 C   0  0  0  0  0  0
    9.4660   -6.6580   13.0120 C   0  0  0  0  0  0
   10.5340   -7.6940   12.9460 C   0  0  0  0  0  0
   10.7640   -8.6000   14.1420 C   0  0  0  0  0  0
   11.0650   -8.0570   15.4750 C   0  0  0  0  0  0
   11.0670   -6.7990   15.8270 C   0  0  0  0  0  0
   11.4570   -6.3830   17.1620 C   0  0  0  0  0  0
   11.8860   -5.1510   17.4050 C   0  0  0  0  0  0
   11.9620   -4.1170   16.3160 C   0  0  2  0  0  0
   13.3060   -4.1320   15.6500 C   0  0  1  0  0  0
   13.4970   -3.5130   14.2810 C   0  0  0  0  0  0
   13.1610   -4.4550   13.1340 C   0  0  1  0  0  0
   14.0650   -5.6600   13.1240 C   0  0  0  0  0  0
   11.8430   -4.9020   13.3370 O   0  0  0  0  0  0
   11.0890   -4.1030   11.3170 O   0  0  0  0  0  0
    8.6860   -3.0770   12.5250 O   0  0  0  0  0  0
    5.8860   -6.6580   13.8170 O   0  5  0  0  0  0
    7.8160   -8.7690   13.6470 Cl  0  0  0  0  0  0
   10.8400   -9.7440   13.9710 O   0  0  0  0  0  0
   12.9390   -3.1480   16.5840 O   0  0  0  0  0  0
    6.4159   -4.1587   13.3353 H   0  0  0  0  0  0
   10.3237   -8.3850   12.1164 H   0  0  0  0  0  0
   11.5068   -7.2078   12.7806 H   0  0  0  0  0  0
   11.3069   -8.8352   16.2138 H   0  0  0  0  0  0
   10.7682   -6.0252   15.1045 H   0  0  0  0  0  0
   11.3910   -7.1140   17.9813 H   0  0  0  0  0  0
   12.1959   -4.8670   18.4215 H   0  0  0  0  0  0
   10.9113   -4.0796   15.9926 H   0  0  0  0  0  0
   14.0551   -4.9294   15.5362 H   0  0  0  0  0  0
   12.8464   -2.6314   14.1832 H   0  0  0  0  0  0
   14.5471   -3.2090   14.1593 H   0  0  0  0  0  0
   13.2175   -3.9407   12.1633 H   0  0  0  0  0  0
   15.1047   -5.3371   12.9664 H   0  0  0  0  0  0
   13.7642   -6.3373   12.3111 H   0  0  0  0  0  0
   13.9862   -6.1855   14.0872 H   0  0  0  0  0  0
    9.6877   -2.7446   12.2152 H   0  0  0  0  0  0
  1  2  1  0  0  0
  1 19  1  0  0  0
  1 20  2  0  0  0
  2  3  2  0  0  0
  2  7  1  0  0  0
  3  4  1  0  0  0
  3 21  1  0  0  0
  4  5  2  0  0  0
  4 26  1  0  0  0
  5  6  1  0  0  0
  5 22  1  0  0  0
  6  7  2  0  0  0
  6 23  1  0  0  0
  7  8  1  0  0  0
  8  9  1  0  0  0
  8 27  1  0  0  0
  8 28  1  0  0  0
  9 10  1  0  0  0
  9 24  2  0  0  0
 10 11  2  0  0  0
 10 29  1  0  0  0
 11 12  1  0  0  0
 11 30  1  0  0  0
 12 13  2  0  0  0
 12 31  1  0  0  0
 13 14  1  0  0  0
 13 32  1  0  0  0
 14 15  1  0  0  0
 14 25  1  0  0  0
 14 33  1  0  0  0
 15 16  1  0  0  0
 15 25  1  0  0  0
 15 34  1  0  0  0
 16 17  1  0  0  0
 16 35  1  0  0  0
 16 36  1  0  0  0
 17 18  1  0  0  0
 17 19  1  0  0  0
 17 37  1  0  0  0
 18 38  1  0  0  0
 18 39  1  0  0  0
 18 40  1  0  0  0
 21 41  1  0  0  0
M  CHG  1  22  -1
M  END
> <s_m_source_file>
../4egk_ligand.sdf

> <i_m_source_file_index>
1

> <s_epik_input>
Tz1DMU9bQ0BIXShbQ0gzXSlbQ0gyXVtDQEBIXShPMilbQ0BIXTIvW0NIXT1bQ0hdXFtDSF09W0NIXVxDKD1PKVtDSDJdYyhjMTMpYyhDbCljKFtPSF0pW2NIXWMzW09IXQ==

> <s_epik_cmdline>
J2VwaWtfYXBwJywgJy1pbWFlJywgJ2xpZ2FuZF9wcm8ubWFlJywgJy1vbWFlJywgJ2xpZ2FuZF9wcmVwLm1hZScsICctbXMnLCAnMScsICctcGgnLCAnNycsICctcGh0JywgJzAuNScsICctbnQn

> <r_lp_tautomer_probability>
1

> <r_epik_Ionization_Penalty>
  0.1546

> <r_epik_Ionization_Penalty_Charging>
  0.1543

> <r_epik_Ionization_Penalty_Neutral>
  0.0003

> <r_epik_State_Penalty>
 -0.0000

> <r_epik_Charging_Adjusted_Penalty>
0.154313068608035

> <i_epik_Tot_Q>
-1

> <i_epik_Tot_abs_Q>
1

> <s_epik_Chemistry_Notes>
This compound has an ester and may undergo hydrolysis at high or low pH.

$$$$
