4eh3_ligand
                    3D
 Schrodinger Suite 2020-3.
 32 34  0  0  1  0            999 V2000
   -1.4160   -0.8740  -23.9600 C   0  0  0  0  0  0
   -0.5410   -0.3050  -24.8910 C   0  0  0  0  0  0
   -0.3640    1.0710  -24.9420 C   0  0  0  0  0  0
   -1.0660    1.8870  -24.0640 C   0  0  0  0  0  0
   -1.9490    1.3290  -23.1390 C   0  0  0  0  0  0
   -2.1220   -0.0570  -23.0780 C   0  0  0  0  0  0
   -2.6500    2.1050  -22.2170 C   0  0  0  0  0  0
   -3.0240    1.5270  -20.8530 C   0  0  0  0  0  0
   -2.6680    0.0070  -20.8360 C   0  0  2  0  0  0
   -2.9790   -0.5870  -22.1450 O   0  0  0  0  0  0
   -2.9350    3.2740  -22.4660 O   0  0  0  0  0  0
   -3.3160   -0.6500  -19.6110 C   0  0  0  0  0  0
   -4.6820   -0.4950  -19.3770 C   0  0  0  0  0  0
   -5.2710   -1.0750  -18.2600 C   0  0  0  0  0  0
   -4.4850   -1.8090  -17.3790 C   0  0  0  0  0  0
   -3.1150   -1.9670  -17.6030 C   0  0  0  0  0  0
   -2.5290   -1.3850  -18.7250 C   0  0  0  0  0  0
   -5.0680   -2.3730  -16.2930 O   0  0  0  0  0  0
    0.1530   -1.0840  -25.7620 O   0  0  0  0  0  0
   -0.8830    3.2260  -24.1220 O   0  0  0  0  0  0
   -1.5459   -1.9556  -23.9240 H   0  0  0  0  0  0
    0.3221    1.5087  -25.6671 H   0  0  0  0  0  0
   -2.4611    2.0505  -20.0661 H   0  0  0  0  0  0
   -4.1026    1.6592  -20.6820 H   0  0  0  0  0  0
   -1.5934   -0.2128  -20.7535 H   0  0  0  0  0  0
   -5.2899    0.0832  -20.0728 H   0  0  0  0  0  0
   -6.3388   -0.9556  -18.0764 H   0  0  0  0  0  0
   -2.5081   -2.5423  -16.9039 H   0  0  0  0  0  0
   -1.4612   -1.5035  -18.9093 H   0  0  0  0  0  0
   -6.1469   -2.2464  -16.1200 H   0  0  0  0  0  0
    0.0297   -2.1769  -25.7410 H   0  0  0  0  0  0
   -0.1841    3.6543  -24.8556 H   0  0  0  0  0  0
  1  2  2  0  0  0
  1  6  1  0  0  0
  1 21  1  0  0  0
  2  3  1  0  0  0
  2 19  1  0  0  0
  3  4  2  0  0  0
  3 22  1  0  0  0
  4  5  1  0  0  0
  4 20  1  0  0  0
  5  6  2  0  0  0
  5  7  1  0  0  0
  6 10  1  0  0  0
  7  8  1  0  0  0
  7 11  2  0  0  0
  8  9  1  0  0  0
  8 23  1  0  0  0
  8 24  1  0  0  0
  9 10  1  0  0  0
  9 12  1  0  0  0
  9 25  1  0  0  0
 12 13  2  0  0  0
 12 17  1  0  0  0
 13 14  1  0  0  0
 13 26  1  0  0  0
 14 15  2  0  0  0
 14 27  1  0  0  0
 15 16  1  0  0  0
 15 18  1  0  0  0
 16 17  2  0  0  0
 16 28  1  0  0  0
 17 29  1  0  0  0
 18 30  1  0  0  0
 19 31  1  0  0  0
 20 32  1  0  0  0
M  END
> <s_m_source_file>
../4eh3_ligand.sdf

> <i_m_source_file_index>
1

> <s_epik_input>
W09IXWMxW2NIXWMoW09IXSlbY0hdYyhjMTIpT1tDQEBIXShbQ0gyXUMyPU8pYzNbY0hdW2NIXWMoW09IXSlbY0hdW2NIXTM=

> <s_epik_cmdline>
J2VwaWtfYXBwJywgJy1pbWFlJywgJ2xpZ2FuZF9wcm8ubWFlJywgJy1vbWFlJywgJ2xpZ2FuZF9wcmVwLm1hZScsICctbXMnLCAnMScsICctcGgnLCAnNycsICctcGh0JywgJzAuNScsICctbnQn

> <r_lp_tautomer_probability>
0.999949999997365

> <r_epik_Ionization_Penalty>
  0.0250

> <r_epik_Ionization_Penalty_Charging>
  0.0000

> <r_epik_Ionization_Penalty_Neutral>
  0.0250

> <r_epik_State_Penalty>
  0.0118

> <r_epik_Charging_Adjusted_Penalty>
0.0118056278605974

> <i_epik_Tot_Q>
0

> <i_epik_Tot_abs_Q>
0

$$$$
