4eh4_ligand
                    3D
 Schrodinger Suite 2020-3.
 29 30  0  0  1  0            999 V2000
    2.0420   -0.4240   21.9530 C   0  0  0  0  0  0
    1.3370    0.7370   22.7150 C   0  0  0  0  0  0
    2.1730    2.0310   22.7960 C   0  0  0  0  0  0
    2.5070    2.5040   21.3730 C   0  0  0  0  0  0
    3.2540    1.4290   20.5250 C   0  0  0  0  0  0
    2.8790   -0.0170   20.7460 N   0  0  0  0  0  0
    3.3360   -1.0150   19.8870 C   0  0  0  0  0  0
    2.9850   -2.1820   20.0790 O   0  0  0  0  0  0
    4.2060   -0.7650   18.6270 C   0  0  0  0  0  0
    3.6610   -0.9630   17.3530 C   0  0  0  0  0  0
    4.4320   -0.7120   16.2050 C   0  0  0  0  0  0
    5.7540   -0.2840   16.3010 C   0  0  0  0  0  0
    6.2990   -0.1050   17.5710 C   0  0  0  0  0  0
    5.5440   -0.3560   18.7280 C   0  0  0  0  0  0
    2.7253   -0.9494   22.6364 H   0  0  0  0  0  0
    1.2855   -1.1288   21.5774 H   0  0  0  0  0  0
    0.3946    0.9899   22.2071 H   0  0  0  0  0  0
    1.1242    0.4222   23.7473 H   0  0  0  0  0  0
    1.5959    2.8083   23.3183 H   0  0  0  0  0  0
    3.1036    1.8324   23.3478 H   0  0  0  0  0  0
    1.5769    2.7565   20.8428 H   0  0  0  0  0  0
    3.1528    3.3930   21.4242 H   0  0  0  0  0  0
    3.0747    1.6158   19.4559 H   0  0  0  0  0  0
    4.3331    1.4843   20.7310 H   0  0  0  0  0  0
    2.6339   -1.3135   17.2508 H   0  0  0  0  0  0
    3.9868   -0.8551   15.2204 H   0  0  0  0  0  0
    6.3467   -0.0940   15.4062 H   0  0  0  0  0  0
    7.3298    0.2359   17.6680 H   0  0  0  0  0  0
    6.0002   -0.2323   19.7102 H   0  0  0  0  0  0
  1  2  1  0  0  0
  1  6  1  0  0  0
  1 15  1  0  0  0
  1 16  1  0  0  0
  2  3  1  0  0  0
  2 17  1  0  0  0
  2 18  1  0  0  0
  3  4  1  0  0  0
  3 19  1  0  0  0
  3 20  1  0  0  0
  4  5  1  0  0  0
  4 21  1  0  0  0
  4 22  1  0  0  0
  5  6  1  0  0  0
  5 23  1  0  0  0
  5 24  1  0  0  0
  6  7  1  0  0  0
  7  8  2  0  0  0
  7  9  1  0  0  0
  9 10  2  0  0  0
  9 14  1  0  0  0
 10 11  1  0  0  0
 10 25  1  0  0  0
 11 12  2  0  0  0
 11 26  1  0  0  0
 12 13  1  0  0  0
 12 27  1  0  0  0
 13 14  2  0  0  0
 13 28  1  0  0  0
 14 29  1  0  0  0
M  END
> <s_m_source_file>
../4eh4_ligand.sdf

> <i_m_source_file_index>
1

> <s_epik_input>
W0NIMl0xW0NIMl1bQ0gyXVtDSDJdW0NIMl1OMUMoPU8pYzJbY0hdW2NIXVtjSF1bY0hdW2NIXTI=

> <s_epik_cmdline>
J2VwaWtfYXBwJywgJy1pbWFlJywgJ2xpZ2FuZF9wcm8ubWFlJywgJy1vbWFlJywgJ2xpZ2FuZF9wcmVwLm1hZScsICctbXMnLCAnMScsICctcGgnLCAnNycsICctcGh0JywgJzAuNScsICctbnQn

> <r_lp_tautomer_probability>
1

> <r_epik_Ionization_Penalty>
  0.0000

> <r_epik_Ionization_Penalty_Charging>
  0.0000

> <r_epik_Ionization_Penalty_Neutral>
  0.0000

> <r_epik_State_Penalty>
 -0.0000

> <r_epik_Charging_Adjusted_Penalty>
0

> <i_epik_Tot_Q>
0

> <i_epik_Tot_abs_Q>
0

$$$$
