4eh6_ligand
                    3D
 Schrodinger Suite 2020-3.
 25 26  0  0  1  0            999 V2000
    3.4990   -1.3670   17.5540 C   0  0  0  0  0  0
    3.8700   -2.0740   16.4210 C   0  0  0  0  0  0
    5.2030   -2.0850   16.0340 C   0  0  0  0  0  0
    6.1590   -1.4030   16.7760 C   0  0  0  0  0  0
    5.8040   -0.7050   17.9200 C   0  0  0  0  0  0
    4.4660   -0.6880   18.3050 C   0  0  0  0  0  0
    4.1370    0.0020   19.3980 N   0  0  0  0  0  0
    3.5890   -0.5550   20.4850 C   0  0  0  0  0  0
    3.2940   -1.7520   20.5820 O   0  0  0  0  0  0
    3.3550    0.4420   21.6510 C   0  0  0  0  0  0
    3.5350    0.0260   22.9760 C   0  0  0  0  0  0
    3.3260    0.9530   23.9960 C   0  0  0  0  0  0
    2.9500    2.2590   23.6460 C   0  0  0  0  0  0
    2.7970    2.6310   22.3740 N   0  0  0  0  0  0
    2.9910    1.7720   21.3820 C   0  0  0  0  0  0
    2.4534   -1.3396   17.8606 H   0  0  0  0  0  0
    3.1232   -2.6154   15.8403 H   0  0  0  0  0  0
    5.5020   -2.6332   15.1406 H   0  0  0  0  0  0
    7.2006   -1.4168   16.4550 H   0  0  0  0  0  0
    6.5577   -0.1797   18.5067 H   0  0  0  0  0  0
    4.3135    1.0870   19.4373 H   0  0  0  0  0  0
    3.8313   -0.9978   23.2043 H   0  0  0  0  0  0
    3.4517    0.6700   25.0411 H   0  0  0  0  0  0
    2.7781    2.9902   24.4359 H   0  0  0  0  0  0
    2.8670    2.1006   20.3501 H   0  0  0  0  0  0
  1  2  2  0  0  0
  1  6  1  0  0  0
  1 16  1  0  0  0
  2  3  1  0  0  0
  2 17  1  0  0  0
  3  4  2  0  0  0
  3 18  1  0  0  0
  4  5  1  0  0  0
  4 19  1  0  0  0
  5  6  2  0  0  0
  5 20  1  0  0  0
  6  7  1  0  0  0
  7  8  1  0  0  0
  7 21  1  0  0  0
  8  9  2  0  0  0
  8 10  1  0  0  0
 10 11  2  0  0  0
 10 15  1  0  0  0
 11 12  1  0  0  0
 11 22  1  0  0  0
 12 13  2  0  0  0
 12 23  1  0  0  0
 13 14  1  0  0  0
 13 24  1  0  0  0
 14 15  2  0  0  0
 15 25  1  0  0  0
M  END
> <s_m_source_file>
../4eh6_ligand.sdf

> <i_m_source_file_index>
1

> <s_epik_input>
W2NIXTFbY0hdW2NIXVtjSF1bY0hdYzFbTkhdQyg9TyljMltjSF1bY0hdW2NIXW5bY0hdMg==

> <s_epik_cmdline>
J2VwaWtfYXBwJywgJy1pbWFlJywgJ2xpZ2FuZF9wcm8ubWFlJywgJy1vbWFlJywgJ2xpZ2FuZF9wcmVwLm1hZScsICctbXMnLCAnMScsICctcGgnLCAnNycsICctcGh0JywgJzAuNScsICctbnQn

> <r_lp_tautomer_probability>
1

> <r_epik_Ionization_Penalty>
  0.0006

> <r_epik_Ionization_Penalty_Charging>
  0.0000

> <r_epik_Ionization_Penalty_Neutral>
  0.0006

> <r_epik_State_Penalty>
 -0.0000

> <r_epik_Charging_Adjusted_Penalty>
0

> <i_epik_Tot_Q>
0

> <i_epik_Tot_abs_Q>
0

$$$$
