4eh7_ligand
                    3D
 Schrodinger Suite 2020-3.
 27 28  0  0  1  0            999 V2000
    5.3050   -0.7910   18.9530 C   0  0  0  0  0  0
    5.8460   -0.8530   17.6630 C   0  0  0  0  0  0
    5.1040   -1.4610   16.6370 C   0  0  0  0  0  0
    3.8380   -2.0030   16.8950 C   0  0  0  0  0  0
    3.3050   -1.9310   18.1850 C   0  0  0  0  0  0
    4.0260   -1.3130   19.2220 C   0  0  0  0  0  0
    3.4920   -1.2610   20.5020 O   0  0  0  0  0  0
    2.8870   -0.1280   21.0210 C   0  0  0  0  0  0
    2.2690   -0.2140   22.2770 C   0  0  0  0  0  0
    2.8680    1.0970   20.3490 C   0  0  0  0  0  0
    2.2440    2.2090   20.9190 C   0  0  0  0  0  0
    1.6310    2.1200   22.1730 C   0  0  0  0  0  0
    1.6410    0.9010   22.8560 C   0  0  0  0  0  0
    0.9700    0.7770   24.2360 C   0  0  0  0  0  0
    0.4020    2.0170   24.6780 O   0  0  0  0  0  0
    5.8807   -0.3335   19.7576 H   0  0  0  0  0  0
    6.8312   -0.4344   17.4574 H   0  0  0  0  0  0
    5.5174   -1.5117   15.6297 H   0  0  0  0  0  0
    3.2718   -2.4783   16.0940 H   0  0  0  0  0  0
    2.3227   -2.3573   18.3888 H   0  0  0  0  0  0
    2.2762   -1.1629   22.8133 H   0  0  0  0  0  0
    3.3439    1.1854   19.3724 H   0  0  0  0  0  0
    2.2347    3.1567   20.3806 H   0  0  0  0  0  0
    1.1500    2.9934   22.6134 H   0  0  0  0  0  0
    0.1629    0.0313   24.1856 H   0  0  0  0  0  0
    1.7162    0.4599   24.9794 H   0  0  0  0  0  0
   -0.1099    2.0719   25.6501 H   0  0  0  0  0  0
  1  2  2  0  0  0
  1  6  1  0  0  0
  1 16  1  0  0  0
  2  3  1  0  0  0
  2 17  1  0  0  0
  3  4  2  0  0  0
  3 18  1  0  0  0
  4  5  1  0  0  0
  4 19  1  0  0  0
  5  6  2  0  0  0
  5 20  1  0  0  0
  6  7  1  0  0  0
  7  8  1  0  0  0
  8  9  2  0  0  0
  8 10  1  0  0  0
  9 13  1  0  0  0
  9 21  1  0  0  0
 10 11  2  0  0  0
 10 22  1  0  0  0
 11 12  1  0  0  0
 11 23  1  0  0  0
 12 13  2  0  0  0
 12 24  1  0  0  0
 13 14  1  0  0  0
 14 15  1  0  0  0
 14 25  1  0  0  0
 14 26  1  0  0  0
 15 27  1  0  0  0
M  END
> <s_m_source_file>
../4eh7_ligand.sdf

> <i_m_source_file_index>
1

> <s_epik_input>
W2NIXTFbY0hdW2NIXVtjSF1bY0hdYzFPYzJbY0hdYyhbQ0gyXVtPSF0pW2NIXVtjSF1bY0hdMg==

> <s_epik_cmdline>
J2VwaWtfYXBwJywgJy1pbWFlJywgJ2xpZ2FuZF9wcm8ubWFlJywgJy1vbWFlJywgJ2xpZ2FuZF9wcmVwLm1hZScsICctbXMnLCAnMScsICctcGgnLCAnNycsICctcGh0JywgJzAuNScsICctbnQn

> <r_lp_tautomer_probability>
1

> <r_epik_Ionization_Penalty>
  0.0000

> <r_epik_Ionization_Penalty_Charging>
  0.0000

> <r_epik_Ionization_Penalty_Neutral>
  0.0000

> <r_epik_State_Penalty>
 -0.0000

> <r_epik_Charging_Adjusted_Penalty>
0

> <i_epik_Tot_Q>
0

> <i_epik_Tot_abs_Q>
0

$$$$
