4ehg_ligand
                    3D
 Schrodinger Suite 2020-3.
 49 50  0  0  1  0            999 V2000
   -5.7180   17.8930    6.7030 O   0  0  0  0  0  0
   -6.7190   18.4310    7.1620 C   0  0  0  0  0  0
   -7.8300   17.7620    7.4730 N   0  0  0  0  0  0
   -9.0700   18.2120    7.9930 C   0  0  0  0  0  0
   -9.4050   19.5060    8.1520 N   0  0  0  0  0  0
  -10.6280   19.7580    8.6530 C   0  0  0  0  0  0
  -11.5590   18.8540    9.0110 N   0  0  0  0  0  0
  -11.2520   17.5510    8.8540 C   0  0  0  0  0  0
   -9.9890   17.1950    8.3350 C   0  0  0  0  0  0
  -12.1660   16.6080    9.2010 N   0  0  0  0  0  0
   -6.7970   19.7380    7.4080 N   0  0  0  0  0  0
   -5.8080   20.7320    7.1740 C   0  0  0  0  0  0
   -5.3720   20.9370    5.8500 C   0  0  0  0  0  0
   -4.3840   21.9020    5.5610 C   0  0  0  0  0  0
   -3.8850   22.7170    6.5980 C   0  0  0  0  0  0
   -4.3060   22.5170    7.9280 C   0  0  0  0  0  0
   -5.2690   21.5290    8.2060 C   0  0  0  0  0  0
   -5.6710   21.3550    9.4760 F   0  0  0  0  0  0
   -5.8950   20.1660    4.8670 F   0  0  0  0  0  0
   -4.0400   22.1240    4.2890 N   0  0  0  0  0  0
   -3.1480   23.4450    3.6280 S   0  0  0  0  0  0
   -4.1600   24.9480    3.9550 C   0  0  0  0  0  0
   -1.9000   23.4890    4.3980 O   0  0  0  0  0  0
   -3.1230   23.2620    2.1750 O   0  0  0  0  0  0
   -5.1560   25.2070    2.8210 C   0  0  0  0  0  0
   -6.6180   25.1600    3.3400 C   0  0  0  0  0  0
  -12.5040   15.3060    8.3790 C   0  0  0  0  0  0
  -12.0110   14.1060    9.5950 C   0  0  0  0  0  0
  -13.3560   13.4130    9.7560 O   0  0  0  0  0  0
   -7.8735   16.6720    7.3315 H   0  0  0  0  0  0
  -10.8936   20.8071    8.7830 H   0  0  0  0  0  0
   -9.7252   16.1461    8.1994 H   0  0  0  0  0  0
  -12.6909   16.8139   10.1455 H   0  0  0  0  0  0
   -7.7130   20.1616    7.8455 H   0  0  0  0  0  0
   -3.1692   23.5066    6.3695 H   0  0  0  0  0  0
   -3.8898   23.1217    8.7337 H   0  0  0  0  0  0
   -4.4043   21.3219    3.6302 H   0  0  0  0  0  0
   -4.7227   24.8147    4.8907 H   0  0  0  0  0  0
   -3.4990   25.8225    4.0461 H   0  0  0  0  0  0
   -4.9682   26.2005    2.3878 H   0  0  0  0  0  0
   -5.0339   24.4389    2.0432 H   0  0  0  0  0  0
   -7.3095   25.3490    2.5057 H   0  0  0  0  0  0
   -6.7574   25.9297    4.1134 H   0  0  0  0  0  0
   -6.8231   24.1680    3.7687 H   0  0  0  0  0  0
  -13.5754   15.2974    8.1300 H   0  0  0  0  0  0
  -11.9121   15.2936    7.4519 H   0  0  0  0  0  0
  -11.2096   13.4748    9.1834 H   0  0  0  0  0  0
  -11.6448   14.6238   10.4937 H   0  0  0  0  0  0
  -13.4612   12.5727   10.4580 H   0  0  0  0  0  0
  1  2  2  0  0  0
  2  3  1  0  0  0
  2 11  1  0  0  0
  3  4  1  0  0  0
  3 30  1  0  0  0
  4  5  2  0  0  0
  4  9  1  0  0  0
  5  6  1  0  0  0
  6  7  2  0  0  0
  6 31  1  0  0  0
  7  8  1  0  0  0
  8  9  2  0  0  0
  8 10  1  0  0  0
  9 32  1  0  0  0
 10 27  1  0  0  0
 10 33  1  0  0  0
 11 12  1  0  0  0
 11 34  1  0  0  0
 12 13  2  0  0  0
 12 17  1  0  0  0
 13 14  1  0  0  0
 13 19  1  0  0  0
 14 15  2  0  0  0
 14 20  1  0  0  0
 15 16  1  0  0  0
 15 35  1  0  0  0
 16 17  2  0  0  0
 16 36  1  0  0  0
 17 18  1  0  0  0
 20 21  1  0  0  0
 20 37  1  0  0  0
 21 22  1  0  0  0
 21 23  2  0  0  0
 21 24  2  0  0  0
 22 25  1  0  0  0
 22 38  1  0  0  0
 22 39  1  0  0  0
 25 26  1  0  0  0
 25 40  1  0  0  0
 25 41  1  0  0  0
 26 42  1  0  0  0
 26 43  1  0  0  0
 26 44  1  0  0  0
 27 28  1  0  0  0
 27 45  1  0  0  0
 27 46  1  0  0  0
 28 29  1  0  0  0
 28 47  1  0  0  0
 28 48  1  0  0  0
 29 49  1  0  0  0
M  END
> <s_m_source_file>
../4ehg_ligand.sdf

> <i_m_source_file_index>
1

> <s_epik_input>
W0NIM11bQ0gyXVtDSDJdUyg9TykoPU8pW05IXWMoW2NIXVtjSF1jMUYpYyhGKWMxW05IXUMoPU8pW05IXWMybltjSF1uYyhbY0hdMilbTkhdW0NIMl1bQ0gyXVtPSF0=

> <s_epik_cmdline>
J2VwaWtfYXBwJywgJy1pbWFlJywgJ2xpZ2FuZF9wcm8ubWFlJywgJy1vbWFlJywgJ2xpZ2FuZF9wcmVwLm1hZScsICctbXMnLCAnMScsICctcGgnLCAnNycsICctcGh0JywgJzAuNScsICctbnQn

> <r_lp_tautomer_probability>
1

> <r_epik_Ionization_Penalty>
  0.0923

> <r_epik_Ionization_Penalty_Charging>
  0.0000

> <r_epik_Ionization_Penalty_Neutral>
  0.0923

> <r_epik_State_Penalty>
 -0.0000

> <r_epik_Charging_Adjusted_Penalty>
0

> <i_epik_Tot_Q>
0

> <i_epik_Tot_abs_Q>
0

$$$$
