4ehm_ligand
                    3D
 Schrodinger Suite 2020-3.
 40 42  0  0  1  0            999 V2000
    5.6010   18.7300   26.0670 C   0  0  0  0  0  0
    5.7420   20.2910   25.8900 C   0  0  0  0  0  0
    5.6300   20.8440   24.5990 C   0  0  0  0  0  0
    5.4200   19.8860   23.6480 O   0  0  0  0  0  0
    6.2680   19.9950   22.5550 C   0  0  0  0  0  0
    7.1290   18.9100   22.3100 C   0  0  0  0  0  0
    7.2080   17.6530   23.1810 C   0  0  0  0  0  0
    6.5510   16.6570   22.7930 O   0  0  0  0  0  0
    7.9410   17.6860   24.2060 O   0  5  0  0  0  0
    7.9810   18.9310   21.2060 C   0  0  0  0  0  0
    7.9970   20.0090   20.3160 C   0  0  0  0  0  0
    8.8490   20.0200   19.2470 O   0  0  0  0  0  0
    9.3310   18.7340   18.8570 C   0  0  0  0  0  0
    7.1500   21.0960   20.5540 C   0  0  0  0  0  0
    7.1440   22.3110   19.6050 C   0  0  0  0  0  0
    6.3050   21.0750   21.6700 C   0  0  0  0  0  0
    5.5320   22.1940   21.7570 O   0  0  0  0  0  0
    5.6130   22.8670   22.9470 C   0  0  0  0  0  0
    5.4880   24.0840   22.8500 O   0  0  0  0  0  0
    5.7560   22.2090   24.3480 C   0  0  0  0  0  0
    5.9990   23.0850   25.4130 C   0  0  0  0  0  0
    6.1600   24.5980   25.2810 C   0  0  0  0  0  0
    6.1240   22.5750   26.6800 C   0  0  0  0  0  0
    6.0020   21.2180   26.9200 C   0  0  0  0  0  0
    6.1350   20.8510   28.2180 O   0  0  0  0  0  0
    5.3993   18.2669   25.0898 H   0  0  0  0  0  0
    4.7702   18.5125   26.7543 H   0  0  0  0  0  0
    6.5352   18.3220   26.4803 H   0  0  0  0  0  0
    8.6496   18.0877   21.0332 H   0  0  0  0  0  0
   10.0053   18.8413   17.9946 H   0  0  0  0  0  0
    8.4814   18.0923   18.5806 H   0  0  0  0  0  0
    9.8777   18.2776   19.6954 H   0  0  0  0  0  0
    7.8678   22.1458   18.7933 H   0  0  0  0  0  0
    7.4220   23.2156   20.1657 H   0  0  0  0  0  0
    6.1379   22.4384   19.1789 H   0  0  0  0  0  0
    6.0401   24.8889   24.2270 H   0  0  0  0  0  0
    7.1605   24.8922   25.6311 H   0  0  0  0  0  0
    5.3954   25.1026   25.8899 H   0  0  0  0  0  0
    6.3229   23.2504   27.5121 H   0  0  0  0  0  0
    6.0526   19.7913   28.5011 H   0  0  0  0  0  0
  1  2  1  0  0  0
  1 26  1  0  0  0
  1 27  1  0  0  0
  1 28  1  0  0  0
  2  3  2  0  0  0
  2 24  1  0  0  0
  3  4  1  0  0  0
  3 20  1  0  0  0
  4  5  1  0  0  0
  5  6  2  0  0  0
  5 16  1  0  0  0
  6  7  1  0  0  0
  6 10  1  0  0  0
  7  8  2  0  0  0
  7  9  1  0  0  0
 10 11  2  0  0  0
 10 29  1  0  0  0
 11 12  1  0  0  0
 11 14  1  0  0  0
 12 13  1  0  0  0
 13 30  1  0  0  0
 13 31  1  0  0  0
 13 32  1  0  0  0
 14 15  1  0  0  0
 14 16  2  0  0  0
 15 33  1  0  0  0
 15 34  1  0  0  0
 15 35  1  0  0  0
 16 17  1  0  0  0
 17 18  1  0  0  0
 18 19  2  0  0  0
 18 20  1  0  0  0
 20 21  2  0  0  0
 21 22  1  0  0  0
 21 23  1  0  0  0
 22 36  1  0  0  0
 22 37  1  0  0  0
 22 38  1  0  0  0
 23 24  2  0  0  0
 23 39  1  0  0  0
 24 25  1  0  0  0
 25 40  1  0  0  0
M  CHG  1   9  -1
M  END
> <s_m_source_file>
../4ehm_ligand.sdf

> <i_m_source_file_index>
1

> <s_epik_input>
W0NIM11jMWMoW09IXSlbY0hdYyhbQ0gzXSljKGMxMilDKD1PKU9jM2MoTzIpYyhDKD1PKVtPSF0pW2NIXWMoT1tDSDNdKWMzW0NIM10=

> <s_epik_cmdline>
J2VwaWtfYXBwJywgJy1pbWFlJywgJ2xpZ2FuZF9wcm8ubWFlJywgJy1vbWFlJywgJ2xpZ2FuZF9wcmVwLm1hZScsICctbXMnLCAnMScsICctcGgnLCAnNycsICctcGh0JywgJzAuNScsICctbnQn

> <r_epik_Ionization_Penalty>
  0.0120

> <r_epik_Ionization_Penalty_Charging>
  0.0001

> <r_epik_Ionization_Penalty_Neutral>
  0.0119

> <r_epik_State_Penalty>
  0.0092

> <r_epik_Charging_Adjusted_Penalty>
0.00926874781587825

> <i_epik_Tot_Q>
-1

> <i_epik_Tot_abs_Q>
1

$$$$
