4ehr_ligand
                    3D
 Schrodinger Suite 2020-3.
 90 94  0  0  1  0            999 V2000
   12.2080   29.5750   10.3470 O   0  0  0  0  0  0
   13.1510   29.4840    9.5860 C   0  0  0  0  0  0
   13.6110   28.3000    9.1280 N   0  0  0  0  0  0
   14.9900   28.1950    8.6750 C   0  0  0  0  0  0
   14.9880   27.9420    7.1890 C   0  0  0  0  0  0
   14.1280   26.7540    6.8610 C   0  0  0  0  0  0
   14.2960   26.0990    5.6400 C   0  0  0  0  0  0
   13.4180   25.1050    5.2430 C   0  0  0  0  0  0
   12.3770   24.7330    6.0690 C   0  0  0  0  0  0
   12.2090   25.3520    7.3010 C   0  0  0  0  0  0
   13.0700   26.3640    7.7160 C   0  0  0  0  0  0
   12.8560   27.0370    9.0660 C   0  0  0  0  0  0
   13.6690   30.7450    8.9360 C   0  0  0  0  0  0
   12.9130   31.4690    7.9910 C   0  0  0  0  0  0
   11.5630   31.0640    7.5710 C   0  0  0  0  0  0
   11.2280   30.1730    6.5800 C   0  0  0  0  0  0
   12.1270   29.4700    5.6150 C   0  0  0  0  0  0
   11.8290   29.6730    4.1450 C   0  0  0  0  0  0
   12.7970   28.8970    3.2820 C   0  0  0  0  0  0
   12.6080   29.1250    1.8360 C   0  0  0  0  0  0
    9.8290   29.9810    6.6830 N   0  0  0  0  0  0
    8.9730   29.0220    6.0580 C   0  0  0  0  0  0
    7.9260   29.4440    5.2420 C   0  0  0  0  0  0
    7.1540   28.5010    4.5700 C   0  0  0  0  0  0
    7.4220   27.1510    4.7060 C   0  0  0  0  0  0
    8.4640   26.7310    5.5160 C   0  0  0  0  0  0
    9.2340   27.6560    6.2060 C   0  0  0  0  0  0
    9.3180   30.7810    7.6910 N   0  0  0  0  0  0
   10.3360   31.4180    8.2210 C   0  0  0  0  0  0
   10.1550   32.4030    9.3310 C   0  0  0  0  0  0
    9.7180   33.5750    8.6640 O   0  0  0  0  0  0
   13.4580   32.6220    7.4240 C   0  0  0  0  0  0
   14.7310   33.0500    7.7700 C   0  0  0  0  0  0
   15.4870   32.3420    8.7040 C   0  0  0  0  0  0
   14.9500   31.1970    9.2820 C   0  0  0  0  0  0
   16.8180   32.8330    9.1730 C   0  0  0  0  0  0
   17.6700   32.0730    9.6450 O   0  5  0  0  0  0
   17.0050   34.2050    9.1390 N   0  0  0  0  0  0
   18.4390   34.8220    9.6370 S   0  0  0  0  0  0
   18.3120   36.2480    9.6220 O   0  0  0  0  0  0
   18.8230   34.1660   10.8480 O   0  0  0  0  0  0
   19.4480   34.3260    8.3240 C   0  0  0  0  0  0
   20.9000   34.7070    8.6040 C   0  0  0  0  0  0
   22.1080   34.2450    7.2210 Si  0  0  0  0  0  0
   21.5670   35.0350    5.5950 C   0  0  0  0  0  0
   22.1760   32.3700    7.0230 C   0  0  0  0  0  0
   23.8220   34.8850    7.6970 C   0  0  0  0  0  0
   15.5207   29.1330    8.8952 H   0  0  0  0  0  0
   15.4850   27.3626    9.1966 H   0  0  0  0  0  0
   14.5922   28.8257    6.6671 H   0  0  0  0  0  0
   16.0155   27.7452    6.8492 H   0  0  0  0  0  0
   15.1281   26.3733    4.9916 H   0  0  0  0  0  0
   13.5490   24.6160    4.2777 H   0  0  0  0  0  0
   11.6852   23.9518    5.7540 H   0  0  0  0  0  0
   11.3918   25.0411    7.9518 H   0  0  0  0  0  0
   13.2021   26.3634    9.8638 H   0  0  0  0  0  0
   11.7839   27.2437    9.2001 H   0  0  0  0  0  0
   13.1620   29.8121    5.7622 H   0  0  0  0  0  0
   12.0717   28.3848    5.7861 H   0  0  0  0  0  0
   10.8078   29.3273    3.9268 H   0  0  0  0  0  0
   11.9152   30.7413    3.8975 H   0  0  0  0  0  0
   13.8272   29.1918    3.5304 H   0  0  0  0  0  0
   12.6695   27.8199    3.4654 H   0  0  0  0  0  0
   13.3428   28.5316    1.2721 H   0  0  0  0  0  0
   12.7490   30.1926    1.6116 H   0  0  0  0  0  0
   11.5913   28.8207    1.5467 H   0  0  0  0  0  0
    7.7125   30.5070    5.1304 H   0  0  0  0  0  0
    6.3328   28.8285    3.9324 H   0  0  0  0  0  0
    6.8136   26.4181    4.1761 H   0  0  0  0  0  0
    8.6804   25.6670    5.6119 H   0  0  0  0  0  0
   10.0384   27.3198    6.8602 H   0  0  0  0  0  0
    9.4068   32.0215   10.0414 H   0  0  0  0  0  0
   11.1131   32.5495    9.8511 H   0  0  0  0  0  0
    9.5001   34.4866    9.2397 H   0  0  0  0  0  0
   12.8761   33.1930    6.7005 H   0  0  0  0  0  0
   15.1440   33.9469    7.3083 H   0  0  0  0  0  0
   15.5345   30.6421   10.0158 H   0  0  0  0  0  0
   19.3788   33.2352    8.2002 H   0  0  0  0  0  0
   19.1169   34.8217    7.3995 H   0  0  0  0  0  0
   20.9729   35.7956    8.7443 H   0  0  0  0  0  0
   21.2440   34.1960    9.5154 H   0  0  0  0  0  0
   20.5697   34.6614    5.3198 H   0  0  0  0  0  0
   22.2866   34.7761    4.8043 H   0  0  0  0  0  0
   21.5294   36.1280    5.7131 H   0  0  0  0  0  0
   21.1800   31.9942    6.7460 H   0  0  0  0  0  0
   22.4895   31.9122    7.9728 H   0  0  0  0  0  0
   22.8981   32.1105    6.2348 H   0  0  0  0  0  0
   23.7859   35.9782    7.8133 H   0  0  0  0  0  0
   24.5430   34.6237    6.9084 H   0  0  0  0  0  0
   24.1344   34.4254    8.6463 H   0  0  0  0  0  0
  1  2  2  0  0  0
  2  3  1  0  0  0
  2 13  1  0  0  0
  3  4  1  0  0  0
  3 12  1  0  0  0
  4  5  1  0  0  0
  4 48  1  0  0  0
  4 49  1  0  0  0
  5  6  1  0  0  0
  5 50  1  0  0  0
  5 51  1  0  0  0
  6  7  2  0  0  0
  6 11  1  0  0  0
  7  8  1  0  0  0
  7 52  1  0  0  0
  8  9  2  0  0  0
  8 53  1  0  0  0
  9 10  1  0  0  0
  9 54  1  0  0  0
 10 11  2  0  0  0
 10 55  1  0  0  0
 11 12  1  0  0  0
 12 56  1  0  0  0
 12 57  1  0  0  0
 13 14  2  0  0  0
 13 35  1  0  0  0
 14 15  1  0  0  0
 14 32  1  0  0  0
 15 16  2  0  0  0
 15 29  1  0  0  0
 16 17  1  0  0  0
 16 21  1  0  0  0
 17 18  1  0  0  0
 17 58  1  0  0  0
 17 59  1  0  0  0
 18 19  1  0  0  0
 18 60  1  0  0  0
 18 61  1  0  0  0
 19 20  1  0  0  0
 19 62  1  0  0  0
 19 63  1  0  0  0
 20 64  1  0  0  0
 20 65  1  0  0  0
 20 66  1  0  0  0
 21 22  1  0  0  0
 21 28  1  0  0  0
 22 23  2  0  0  0
 22 27  1  0  0  0
 23 24  1  0  0  0
 23 67  1  0  0  0
 24 25  2  0  0  0
 24 68  1  0  0  0
 25 26  1  0  0  0
 25 69  1  0  0  0
 26 27  2  0  0  0
 26 70  1  0  0  0
 27 71  1  0  0  0
 28 29  2  0  0  0
 29 30  1  0  0  0
 30 31  1  0  0  0
 30 72  1  0  0  0
 30 73  1  0  0  0
 31 74  1  0  0  0
 32 33  2  0  0  0
 32 75  1  0  0  0
 33 34  1  0  0  0
 33 76  1  0  0  0
 34 35  2  0  0  0
 34 36  1  0  0  0
 35 77  1  0  0  0
 36 37  1  0  0  0
 36 38  2  0  0  0
 38 39  1  0  0  0
 39 40  2  0  0  0
 39 41  2  0  0  0
 39 42  1  0  0  0
 42 43  1  0  0  0
 42 78  1  0  0  0
 42 79  1  0  0  0
 43 44  1  0  0  0
 43 80  1  0  0  0
 43 81  1  0  0  0
 44 45  1  0  0  0
 44 46  1  0  0  0
 44 47  1  0  0  0
 45 82  1  0  0  0
 45 83  1  0  0  0
 45 84  1  0  0  0
 46 85  1  0  0  0
 46 86  1  0  0  0
 46 87  1  0  0  0
 47 88  1  0  0  0
 47 89  1  0  0  0
 47 90  1  0  0  0
M  CHG  1  37  -1
M  END
> <s_m_source_file>
../4ehr_ligand.sdf

> <i_m_source_file_index>
1

> <s_epik_input>
W2NIXTFbY0hdW2NIXVtjSF1jKGMxMilbQ0gyXU4oW0NIMl1bQ0gyXTIpQyg9TyljM2MoLWM0YyhbQ0gyXVtDSDJdW0NIMl1bQ0gzXSluKG5jNFtDSDJdW09IXSktYzVbY0hdW2NIXVtjSF1bY0hdW2NIXTUpW2NIXVtjSF1jKFtjSF0zKUMoPU8pW05IXVMoPU8pKD1PKVtDSDJdW0NIMl1bU2ldKFtDSDNdKShbQ0gzXSlbQ0gzXQ==

> <s_epik_cmdline>
J2VwaWtfYXBwJywgJy1pbWFlJywgJ2xpZ2FuZF9wcm8ubWFlJywgJy1vbWFlJywgJ2xpZ2FuZF9wcmVwLm1hZScsICctbXMnLCAnMScsICctcGgnLCAnNycsICctcGh0JywgJzAuNScsICctbnQn

> <r_lp_tautomer_probability>
1

> <r_epik_Ionization_Penalty>
  0.0067

> <r_epik_Ionization_Penalty_Charging>
  0.0067

> <r_epik_Ionization_Penalty_Neutral>
  0.0000

> <r_epik_State_Penalty>
 -0.0000

> <r_epik_Charging_Adjusted_Penalty>
0.00665215884609993

> <i_epik_Tot_Q>
-1

> <i_epik_Tot_abs_Q>
1

$$$$
