4ehv_ligand
                    3D
 Schrodinger Suite 2020-3.
 40 43  0  0  1  0            999 V2000
   -0.7810  -11.3950   11.9250 O   0  0  0  0  0  0
   -0.7130  -10.4360   12.7100 C   0  0  0  0  0  0
    0.4520   -9.6660   12.7670 C   0  0  0  0  0  0
    0.5230   -8.5960   13.6560 C   0  0  0  0  0  0
   -0.5740   -8.3140   14.4670 C   0  0  0  0  0  0
   -1.7290   -9.1040   14.3960 C   0  0  0  0  0  0
   -1.7690  -10.1460   13.5070 N   0  0  0  0  0  0
   -2.9550  -11.0480   13.3660 C   0  0  0  0  0  0
   -4.1840  -10.5230   14.0790 C   0  0  2  0  0  0
   -4.8260   -9.4360   13.2090 C   0  0  0  0  0  0
   -3.7580   -9.9720   15.4550 C   0  0  0  0  0  0
   -2.8240   -8.7600   15.2500 C   0  0  2  0  0  0
   -3.6680   -7.6360   14.6030 C   0  0  0  0  0  0
   -4.0870   -8.1280   13.2610 N   0  0  0  0  0  0
   -3.7520   -7.5100   12.1020 C   0  0  0  0  0  0
   -4.0760   -7.9970   11.0140 O   0  0  0  0  0  0
   -3.1100   -6.2630   12.0540 C   0  0  0  0  0  0
   -3.8990   -5.1080   12.0220 C   0  0  0  0  0  0
   -3.3230   -3.8390   11.9390 C   0  0  0  0  0  0
   -1.9340   -3.7230   11.8670 C   0  0  0  0  0  0
   -1.1950   -2.1570   11.7510 Cl  0  0  0  0  0  0
   -1.1380   -4.8700   11.8840 C   0  0  0  0  0  0
   -1.7200   -6.1400   11.9640 C   0  0  0  0  0  0
    1.2980   -9.9008   12.1211 H   0  0  0  0  0  0
    1.4252   -7.9873   13.7163 H   0  0  0  0  0  0
   -0.5336   -7.4741   15.1606 H   0  0  0  0  0  0
   -3.2074  -11.1580   12.3010 H   0  0  0  0  0  0
   -2.7178  -12.0347   13.7904 H   0  0  0  0  0  0
   -4.9175  -11.3289   14.2289 H   0  0  0  0  0  0
   -4.8431   -9.7681   12.1605 H   0  0  0  0  0  0
   -5.8548   -9.2518   13.5521 H   0  0  0  0  0  0
   -4.6504   -9.6592   16.0170 H   0  0  0  0  0  0
   -3.2277  -10.7558   16.0157 H   0  0  0  0  0  0
   -2.3321   -8.4489   16.1834 H   0  0  0  0  0  0
   -4.5452   -7.4273   15.2330 H   0  0  0  0  0  0
   -3.0575   -6.7256   14.5113 H   0  0  0  0  0  0
   -4.9843   -5.2008   12.0627 H   0  0  0  0  0  0
   -3.9513   -2.9484   11.9305 H   0  0  0  0  0  0
   -0.0533   -4.7753   11.8345 H   0  0  0  0  0  0
   -1.0918   -7.0307   11.9562 H   0  0  0  0  0  0
  1  2  2  0  0  0
  2  3  1  0  0  0
  2  7  1  0  0  0
  3  4  2  0  0  0
  3 24  1  0  0  0
  4  5  1  0  0  0
  4 25  1  0  0  0
  5  6  2  0  0  0
  5 26  1  0  0  0
  6  7  1  0  0  0
  6 12  1  0  0  0
  7  8  1  0  0  0
  8  9  1  0  0  0
  8 27  1  0  0  0
  8 28  1  0  0  0
  9 10  1  0  0  0
  9 11  1  0  0  0
  9 29  1  0  0  0
 10 14  1  0  0  0
 10 30  1  0  0  0
 10 31  1  0  0  0
 11 12  1  0  0  0
 11 32  1  0  0  0
 11 33  1  0  0  0
 12 13  1  0  0  0
 12 34  1  0  0  0
 13 14  1  0  0  0
 13 35  1  0  0  0
 13 36  1  0  0  0
 14 15  1  0  0  0
 15 16  2  0  0  0
 15 17  1  0  0  0
 17 18  2  0  0  0
 17 23  1  0  0  0
 18 19  1  0  0  0
 18 37  1  0  0  0
 19 20  2  0  0  0
 19 38  1  0  0  0
 20 21  1  0  0  0
 20 22  1  0  0  0
 22 23  2  0  0  0
 22 39  1  0  0  0
 23 40  1  0  0  0
M  END
> <s_m_source_file>
../4ehv_ligand.sdf

> <i_m_source_file_index>
1

> <s_epik_input>
W2NIXTFbY0hdW2NIXWMoPU8pbihjMTIpW0NIMl1bQ0BASF0zW0NIMl1OKFtDSDJdW0NASF0yW0NIMl0zKUMoPU8pYzRbY0hdW2NIXWMoQ2wpW2NIXVtjSF00

> <s_epik_cmdline>
J2VwaWtfYXBwJywgJy1pbWFlJywgJ2xpZ2FuZF9wcm8ubWFlJywgJy1vbWFlJywgJ2xpZ2FuZF9wcmVwLm1hZScsICctbXMnLCAnMScsICctcGgnLCAnNycsICctcGh0JywgJzAuNScsICctbnQn

> <r_lp_tautomer_probability>
1

> <r_epik_Ionization_Penalty>
  0.0000

> <r_epik_Ionization_Penalty_Charging>
  0.0000

> <r_epik_Ionization_Penalty_Neutral>
  0.0000

> <r_epik_State_Penalty>
 -0.0000

> <r_epik_Charging_Adjusted_Penalty>
1.5772488987567e-06

> <i_epik_Tot_Q>
0

> <i_epik_Tot_abs_Q>
0

$$$$
