4ehz_ligand
                    3D
 Schrodinger Suite 2020-3.
 36 39  0  0  1  0            999 V2000
    9.0250   56.7440   -0.4570 C   0  0  0  0  0  0
    7.8940   57.7420   -0.2550 C   0  0  0  0  0  0
    7.9570   58.9710   -0.6380 N   0  0  0  0  0  0
    6.8210   59.6150   -0.3260 C   0  0  0  0  0  0
    6.4120   60.9300   -0.5330 C   0  0  0  0  0  0
    5.2400   61.3230   -0.1200 N   0  0  0  0  0  0
    4.3730   60.5150    0.4950 C   0  0  0  0  0  0
    4.7130   59.1670    0.7370 C   0  0  0  0  0  0
    5.9770   58.6880    0.3220 C   0  0  0  0  0  0
    6.6890   57.4990    0.3410 N   0  0  0  0  0  0
    6.3260   56.1840    0.9120 C   0  0  0  0  0  0
    6.0470   56.3520    2.4070 C   0  0  0  0  0  0
    5.8160   54.9740    3.0270 C   0  0  0  0  0  0
    4.7110   54.2700    2.3530 N   0  3  0  0  0  0
    4.9070   54.1420    0.9070 C   0  0  0  0  0  0
    5.1090   55.5140    0.2590 C   0  0  0  0  0  0
    3.5410   58.6020    1.4130 C   0  0  0  0  0  0
    2.6230   59.5770    1.5360 C   0  0  0  0  0  0
    3.1000   60.7340    0.9940 N   0  0  0  0  0  0
    9.8643   57.2393   -0.9672 H   0  0  0  0  0  0
    8.6674   55.9038   -1.0704 H   0  0  0  0  0  0
    9.3608   56.3676    0.5205 H   0  0  0  0  0  0
    7.0732   61.6318   -1.0413 H   0  0  0  0  0  0
    7.2033   55.5545    0.7022 H   0  0  0  0  0  0
    6.9093   56.8361    2.8888 H   0  0  0  0  0  0
    5.1518   56.9761    2.5451 H   0  0  0  0  0  0
    6.7303   54.3702    2.9296 H   0  0  0  0  0  0
    5.5639   55.0885    4.0916 H   0  0  0  0  0  0
    4.6160   53.2553    2.7670 H   0  0  0  0  0  0
    3.7727   54.8210    2.5141 H   0  0  0  0  0  0
    5.7957   53.5242    0.7107 H   0  0  0  0  0  0
    4.0230   53.6658    0.4579 H   0  0  0  0  0  0
    4.2178   56.1393    0.4164 H   0  0  0  0  0  0
    5.2894   55.3977   -0.8199 H   0  0  0  0  0  0
    3.4328   57.5729    1.7555 H   0  0  0  0  0  0
    1.6187   59.5527    1.9841 H   0  0  0  0  0  0
  1  2  1  0  0  0
  1 20  1  0  0  0
  1 21  1  0  0  0
  1 22  1  0  0  0
  2  3  2  0  0  0
  2 10  1  0  0  0
  3  4  1  0  0  0
  4  5  2  0  0  0
  4  9  1  0  0  0
  5  6  1  0  0  0
  5 23  1  0  0  0
  6  7  2  0  0  0
  7  8  1  0  0  0
  7 19  1  0  0  0
  8  9  2  0  0  0
  8 17  1  0  0  0
  9 10  1  0  0  0
 10 11  1  0  0  0
 11 12  1  0  0  0
 11 16  1  0  0  0
 11 24  1  0  0  0
 12 13  1  0  0  0
 12 25  1  0  0  0
 12 26  1  0  0  0
 13 14  1  0  0  0
 13 27  1  0  0  0
 13 28  1  0  0  0
 14 15  1  0  0  0
 14 29  1  0  0  0
 14 30  1  0  0  0
 15 16  1  0  0  0
 15 31  1  0  0  0
 15 32  1  0  0  0
 16 33  1  0  0  0
 16 34  1  0  0  0
 17 18  1  0  0  0
 17 35  1  0  0  0
 18 19  2  0  0  0
 18 36  1  0  0  0
M  CHG  1  14   1
M  END
> <s_m_source_file>
../4ehz_ligand.sdf

> <i_m_source_file_index>
1

> <s_epik_input>
W0NIMl0xW0NIXT1OYyhuW2NIXTIpYzFjKGMyMyluKGMobjMpW0NIM10pW0NIXTRbQ0gyXVtDSDJdW05IMitdW0NIMl1bQ0gyXTQ=

> <s_epik_cmdline>
J2VwaWtfYXBwJywgJy1pbWFlJywgJ2xpZ2FuZF9wcm8ubWFlJywgJy1vbWFlJywgJ2xpZ2FuZF9wcmVwLm1hZScsICctbXMnLCAnMScsICctcGgnLCAnNycsICctcGh0JywgJzAuNScsICctbnQn

> <r_epik_Ionization_Penalty>
  0.0217

> <r_epik_Ionization_Penalty_Charging>
  0.0038

> <r_epik_Ionization_Penalty_Neutral>
  0.0180

> <r_epik_State_Penalty>
  0.0143

> <r_epik_Charging_Adjusted_Penalty>
0.0180479636191809

> <i_epik_Tot_Q>
1

> <i_epik_Tot_abs_Q>
1

> <s_epik_Chemistry_Notes>
This compound has an imine and may undergo hydrolysis.

$$$$
