4ei4_ligand
                    3D
 Schrodinger Suite 2020-3.
 37 40  0  0  1  0            999 V2000
   10.2940   56.7550   -0.5130 C   0  0  0  0  0  0
    9.1330   57.7010   -0.2740 C   0  0  0  0  0  0
    9.1270   58.9600   -0.6400 N   0  0  0  0  0  0
    7.9630   59.5520   -0.2730 C   0  0  0  0  0  0
    7.4540   60.8580   -0.3970 C   0  0  0  0  0  0
    6.2540   61.1740    0.0550 N   0  0  0  0  0  0
    5.4810   60.2620    0.6500 C   0  0  0  0  0  0
    5.9140   58.9270    0.8260 C   0  0  0  0  0  0
    7.1870   58.5520    0.3660 C   0  0  0  0  0  0
    7.9500   57.3840    0.3400 N   0  0  0  0  0  0
    7.5940   56.0600    0.8720 C   0  0  2  0  0  0
    6.4090   55.4710    0.0820 C   0  0  0  0  0  0
    6.1490   54.0240    0.5280 C   0  0  0  0  0  0
    5.9330   53.9530    2.0540 C   0  0  0  0  0  0
    7.0040   54.6900    2.9040 C   0  0  2  0  0  0
    7.2940   56.1100    2.3900 C   0  0  0  0  0  0
    8.2230   53.9390    2.9360 O   0  0  0  0  0  0
    4.8240   58.2190    1.5110 C   0  0  0  0  0  0
    3.8540   59.1060    1.7010 C   0  0  0  0  0  0
    4.2330   60.3310    1.1940 N   0  0  0  0  0  0
   11.1050   57.2923   -1.0265 H   0  0  0  0  0  0
    9.9588   55.9136   -1.1372 H   0  0  0  0  0  0
   10.6602   56.3730    0.4514 H   0  0  0  0  0  0
    8.0628   61.6248   -0.8761 H   0  0  0  0  0  0
    8.4881   55.4383    0.7168 H   0  0  0  0  0  0
    5.5084   56.0747    0.2676 H   0  0  0  0  0  0
    6.6430   55.4824   -0.9928 H   0  0  0  0  0  0
    5.2495   53.6410    0.0239 H   0  0  0  0  0  0
    7.0132   53.3975    0.2622 H   0  0  0  0  0  0
    4.9631   54.4053    2.3085 H   0  0  0  0  0  0
    5.9433   52.9016    2.3773 H   0  0  0  0  0  0
    6.6608   54.7433    3.9477 H   0  0  0  0  0  0
    8.1643   56.5214    2.9224 H   0  0  0  0  0  0
    6.4179   56.7504    2.5697 H   0  0  0  0  0  0
    8.2161   52.8936    3.2783 H   0  0  0  0  0  0
    4.8135   57.1697    1.8059 H   0  0  0  0  0  0
    2.8683   58.9880    2.1748 H   0  0  0  0  0  0
  1  2  1  0  0  0
  1 21  1  0  0  0
  1 22  1  0  0  0
  1 23  1  0  0  0
  2  3  2  0  0  0
  2 10  1  0  0  0
  3  4  1  0  0  0
  4  5  2  0  0  0
  4  9  1  0  0  0
  5  6  1  0  0  0
  5 24  1  0  0  0
  6  7  2  0  0  0
  7  8  1  0  0  0
  7 20  1  0  0  0
  8  9  2  0  0  0
  8 18  1  0  0  0
  9 10  1  0  0  0
 10 11  1  0  0  0
 11 12  1  0  0  0
 11 16  1  0  0  0
 11 25  1  0  0  0
 12 13  1  0  0  0
 12 26  1  0  0  0
 12 27  1  0  0  0
 13 14  1  0  0  0
 13 28  1  0  0  0
 13 29  1  0  0  0
 14 15  1  0  0  0
 14 30  1  0  0  0
 14 31  1  0  0  0
 15 16  1  0  0  0
 15 17  1  0  0  0
 15 32  1  0  0  0
 16 33  1  0  0  0
 16 34  1  0  0  0
 17 35  1  0  0  0
 18 19  1  0  0  0
 18 36  1  0  0  0
 19 20  2  0  0  0
 19 37  1  0  0  0
M  END
> <s_m_source_file>
../4ei4_ligand.sdf

> <i_m_source_file_index>
1

> <s_epik_input>
W0NIMl0xW0NIXT1OYyhuW2NIXTIpYzFjKGMyMyluKGMobjMpW0NIM10pW0NAQEhdNFtDSDJdW0NIMl1bQ0gyXVtDQEhdKFtDSDJdNClbT0hd

> <s_epik_cmdline>
J2VwaWtfYXBwJywgJy1pbWFlJywgJ2xpZ2FuZF9wcm8ubWFlJywgJy1vbWFlJywgJ2xpZ2FuZF9wcmVwLm1hZScsICctbXMnLCAnMScsICctcGgnLCAnNycsICctcGh0JywgJzAuNScsICctbnQn

> <r_epik_Ionization_Penalty>
  0.0313

> <r_epik_Ionization_Penalty_Charging>
  0.0096

> <r_epik_Ionization_Penalty_Neutral>
  0.0217

> <r_epik_State_Penalty>
  0.0175

> <r_epik_Charging_Adjusted_Penalty>
0.0270585674560656

> <i_epik_Tot_Q>
0

> <i_epik_Tot_abs_Q>
0

> <s_epik_Chemistry_Notes>
This compound has an imine and may undergo hydrolysis.

$$$$
