4ej2_ligand
                    3D
 Schrodinger Suite 2020-3.
 50 51  0  0  1  0            999 V2000
   34.0600   23.7760   28.9530 N   0  0  0  0  0  0
   33.2520   24.4370   29.8330 C   0  0  0  0  0  0
   32.0170   24.4210   29.7030 O   0  0  0  0  0  0
   33.7980   25.1930   30.9040 N   0  0  0  0  0  0
   35.1860   25.2460   31.0670 C   0  0  0  0  0  0
   35.7380   25.8740   31.9770 O   0  0  0  0  0  0
   35.9920   24.5660   30.1890 C   0  0  0  0  0  0
   35.4940   23.8150   29.1100 C   0  0  0  0  0  0
   37.3950   24.8240   30.6520 C   0  0  0  0  0  0
   38.4760   24.9740   31.0040 C   0  0  0  0  0  0
   39.8680   25.2700   31.5330 C   0  0  0  0  0  0
   33.3370   23.0080   27.8710 C   0  0  1  0  0  0
   40.6560   23.9770   31.8800 C   0  0  0  0  0  0
   42.1020   24.1790   32.3720 C   0  0  0  0  0  0
   42.9250   22.9200   32.6980 C   0  0  0  0  0  0
   44.1940   22.8200   31.8470 C   0  0  0  0  0  0
   33.8730   23.1370   26.4240 C   0  0  2  0  0  0
   34.2650   24.5200   26.1610 O   0  0  0  0  0  0
   32.7610   22.5320   25.4480 C   0  0  1  0  0  0
   33.1250   22.5360   24.0420 O   0  0  0  0  0  0
   32.4350   21.0780   25.8730 C   0  0  2  0  0  0
   31.3390   20.5260   25.0620 O   0  0  0  0  0  0
   32.1650   20.9600   27.4260 C   0  0  2  0  0  0
   33.1990   21.6020   28.2040 O   0  0  0  0  0  0
   32.1070   19.4980   27.8790 C   0  0  0  0  0  0
   33.2090   18.7620   27.3340 O   0  0  0  0  0  0
   33.1308   25.7292   31.5949 H   0  0  0  0  0  0
   36.1585   23.2879   28.4254 H   0  0  0  0  0  0
   40.4394   25.8226   30.7726 H   0  0  0  0  0  0
   39.7915   25.8771   32.4471 H   0  0  0  0  0  0
   32.3358   23.4626   27.8996 H   0  0  0  0  0  0
   40.1339   23.4334   32.6812 H   0  0  0  0  0  0
   40.7237   23.3381   30.9871 H   0  0  0  0  0  0
   42.6798   24.7125   31.6029 H   0  0  0  0  0  0
   42.0944   24.7693   33.3002 H   0  0  0  0  0  0
   43.2249   22.9418   33.7561 H   0  0  0  0  0  0
   42.3156   22.0242   32.5080 H   0  0  0  0  0  0
   44.7452   21.9071   32.1166 H   0  0  0  0  0  0
   44.8288   23.6994   32.0306 H   0  0  0  0  0  0
   43.9195   22.7818   30.7825 H   0  0  0  0  0  0
   34.8398   22.6374   26.2639 H   0  0  0  0  0  0
   35.0251   25.0055   26.7908 H   0  0  0  0  0  0
   31.8746   23.1833   25.4519 H   0  0  0  0  0  0
   33.3936   23.4804   23.5461 H   0  0  0  0  0  0
   33.2885   20.4346   25.6129 H   0  0  0  0  0  0
   31.4030   20.5465   23.9641 H   0  0  0  0  0  0
   31.2300   21.4868   27.6676 H   0  0  0  0  0  0
   32.1538   19.4523   28.9771 H   0  0  0  0  0  0
   31.1668   19.0439   27.5329 H   0  0  0  0  0  0
   33.3209   17.6913   27.5602 H   0  0  0  0  0  0
  1  2  1  0  0  0
  1  8  1  0  0  0
  1 12  1  0  0  0
  2  3  2  0  0  0
  2  4  1  0  0  0
  4  5  1  0  0  0
  4 27  1  0  0  0
  5  6  2  0  0  0
  5  7  1  0  0  0
  7  8  2  0  0  0
  7  9  1  0  0  0
  8 28  1  0  0  0
  9 10  3  0  0  0
 10 11  1  0  0  0
 11 13  1  0  0  0
 11 29  1  0  0  0
 11 30  1  0  0  0
 12 17  1  0  0  0
 12 24  1  0  0  0
 12 31  1  0  0  0
 13 14  1  0  0  0
 13 32  1  0  0  0
 13 33  1  0  0  0
 14 15  1  0  0  0
 14 34  1  0  0  0
 14 35  1  0  0  0
 15 16  1  0  0  0
 15 36  1  0  0  0
 15 37  1  0  0  0
 16 38  1  0  0  0
 16 39  1  0  0  0
 16 40  1  0  0  0
 17 18  1  0  0  0
 17 19  1  0  0  0
 17 41  1  0  0  0
 18 42  1  0  0  0
 19 20  1  0  0  0
 19 21  1  0  0  0
 19 43  1  0  0  0
 20 44  1  0  0  0
 21 22  1  0  0  0
 21 23  1  0  0  0
 21 45  1  0  0  0
 22 46  1  0  0  0
 23 24  1  0  0  0
 23 25  1  0  0  0
 23 47  1  0  0  0
 25 26  1  0  0  0
 25 48  1  0  0  0
 25 49  1  0  0  0
 26 50  1  0  0  0
M  END
> <s_m_source_file>
../4ej2_ligand.sdf

> <i_m_source_file_index>
1

> <s_epik_input>
W09IXVtDSDJdW0NAQEhdKE8xKVtDQEBIXShbT0hdKVtDQEhdKFtPSF0pW0NAQEhdKFtPSF0pW0NAQEhdMW4yYyg9TylbbkhdYyg9TyljKFtjSF0yKUMjQ1tDSDJdW0NIMl1bQ0gyXVtDSDJdW0NIM10=

> <s_epik_cmdline>
J2VwaWtfYXBwJywgJy1pbWFlJywgJ2xpZ2FuZF9wcm8ubWFlJywgJy1vbWFlJywgJ2xpZ2FuZF9wcmVwLm1hZScsICctbXMnLCAnMScsICctcGgnLCAnNycsICctcGh0JywgJzAuNScsICctbnQn

> <r_lp_tautomer_probability>
1

> <r_epik_Ionization_Penalty>
  0.0093

> <r_epik_Ionization_Penalty_Charging>
  0.0093

> <r_epik_Ionization_Penalty_Neutral>
  0.0000

> <r_epik_State_Penalty>
 -0.0000

> <r_epik_Charging_Adjusted_Penalty>
0.00929279797792774

> <i_epik_Tot_Q>
0

> <i_epik_Tot_abs_Q>
0

> <s_epik_Chemistry_Notes>
This compound contains an acetal/aminal-like group ( X-CH(R)-Y where X, Y are N, S, or O) that may be acid/base labile, releasing an aldehyde.

$$$$
