4ej8_ligand
                    3D
 Schrodinger Suite 2020-3.
 18 19  0  0  1  0            999 V2000
    9.0430   22.5950   24.5300 O   0  0  0  0  0  0
    9.5420   23.6900   24.3310 C   0  0  0  0  0  0
    8.8840   24.7720   24.7620 O   0  5  0  0  0  0
   10.8600   23.7930   23.6100 C   0  0  0  0  0  0
   11.4600   25.0400   23.4130 C   0  0  0  0  0  0
   12.6780   25.1920   22.7460 C   0  0  0  0  0  0
   13.2840   24.0240   22.2810 C   0  0  0  0  0  0
   14.4820   23.8190   21.5900 C   0  0  0  0  0  0
   14.5930   22.4480   21.3660 C   0  0  0  0  0  0
   13.5070   21.8430   21.9030 N   0  3  0  0  0  0
   12.6960   22.7730   22.4670 C   0  0  0  0  0  0
   11.4710   22.6290   23.1300 C   0  0  0  0  0  0
   10.9577   25.9288   23.7949 H   0  0  0  0  0  0
   13.1315   26.1719   22.5965 H   0  0  0  0  0  0
   15.2685   24.5001   21.2329 H   0  0  0  0  0  0
   15.4658   22.0472   20.8297 H   0  0  0  0  0  0
   11.0119   21.6499   23.2667 H   0  0  0  0  0  0
   13.3966   20.7506   21.8360 H   0  0  0  0  0  0
  1  2  2  0  0  0
  2  3  1  0  0  0
  2  4  1  0  0  0
  4  5  2  0  0  0
  4 12  1  0  0  0
  5  6  1  0  0  0
  5 13  1  0  0  0
  6  7  2  0  0  0
  6 14  1  0  0  0
  7  8  1  0  0  0
  7 11  1  0  0  0
  8  9  2  0  0  0
  8 15  1  0  0  0
  9 10  1  0  0  0
  9 16  1  0  0  0
 10 11  1  0  0  0
 10 18  1  0  0  0
 11 12  2  0  0  0
 12 17  1  0  0  0
M  CHG  2   3  -1  10   1
M  END
> <s_m_source_file>
../4ej8_ligand.sdf

> <i_m_source_file_index>
1

> <s_epik_input>
Tz1DKFtPSF0pYyhbY0hdW2NIXTEpW2NIXWMoYzEyKVtuSF1bY0hdW2NIXTI=

> <s_epik_cmdline>
J2VwaWtfYXBwJywgJy1pbWFlJywgJ2xpZ2FuZF9wcm8ubWFlJywgJy1vbWFlJywgJ2xpZ2FuZF9wcmVwLm1hZScsICctbXMnLCAnMScsICctcGgnLCAnNycsICctcGh0JywgJzAuNScsICctbnQn

> <r_lp_tautomer_probability>
1

> <r_epik_Ionization_Penalty>
  0.0017

> <r_epik_Ionization_Penalty_Charging>
  0.0017

> <r_epik_Ionization_Penalty_Neutral>
  0.0000

> <r_epik_State_Penalty>
 -0.0000

> <r_epik_Charging_Adjusted_Penalty>
0.00174430118175137

> <i_epik_Tot_Q>
0

> <i_epik_Tot_abs_Q>
2

$$$$
