4ejf_ligand
                    3D
 Schrodinger Suite 2020-3.
206208  0  0  1  0            999 V2000
   25.4200  -11.5040   10.1260 N   0  3  0  0  0  0
   26.0670  -10.8670   11.2670 C   0  0  2  0  0  0
   26.2360  -11.8360   12.4330 C   0  0  0  0  0  0
   26.0500  -13.0440   12.2810 O   0  0  0  0  0  0
   25.2800   -9.6320   11.7090 C   0  0  0  0  0  0
   23.7790   -9.8410   11.7190 C   0  0  0  0  0  0
   23.1820   -9.5830   13.0900 C   0  0  0  0  0  0
   23.3890   -8.2100   13.5380 N   0  0  0  0  0  0
   22.8200   -7.1440   12.9850 C   0  0  0  0  0  0
   22.0120   -7.2770   11.9400 N   0  0  0  0  0  0
   23.0690   -5.9400   13.4780 N   0  0  0  0  0  0
   26.5850  -11.2970   13.5960 N   0  0  0  0  0  0
   26.8770  -12.1160   14.7670 C   0  0  2  0  0  0
   25.6090  -12.6390   15.4340 C   0  0  0  0  0  0
   24.5850  -11.9560   15.4690 O   0  0  0  0  0  0
   27.7110  -11.3230   15.7750 C   0  0  0  0  0  0
   28.8920  -10.5530   15.1820 C   0  0  0  0  0  0
   28.5230   -9.0920   14.9650 C   0  0  0  0  0  0
   30.1100  -10.6660   16.0800 C   0  0  0  0  0  0
   25.6860  -13.8550   15.9640 N   0  0  0  0  0  0
   24.5440  -14.4690   16.6290 C   0  0  2  0  0  0
   24.9740  -15.3630   17.7880 C   0  0  0  0  0  0
   25.8120  -16.2480   17.6250 O   0  0  0  0  0  0
   23.7140  -15.2780   15.6290 C   0  0  0  0  0  0
   22.4220  -15.7870   16.1890 C   0  0  0  0  0  0
   22.2270  -17.1070   16.5360 N   0  0  0  0  0  0
   21.2590  -15.1510   16.4650 C   0  0  0  0  0  0
   21.0000  -17.2620   16.9990 C   0  0  0  0  0  0
   20.3910  -16.0900   16.9670 N   0  0  0  0  0  0
   24.3880  -15.1320   18.9570 N   0  0  0  0  0  0
   24.6360  -15.9910   20.1030 C   0  0  2  0  0  0
   23.7410  -17.2200   20.0100 C   0  0  0  0  0  0
   22.5330  -17.1030   19.8060 O   0  0  0  0  0  0
   24.3690  -15.2390   21.4080 C   0  0  0  0  0  0
   24.4300  -16.2720   22.8910 S   0  0  0  0  0  0
   24.3370  -18.3970   20.1600 N   0  0  0  0  0  0
   23.5840  -19.6420   20.1030 C   0  0  2  0  0  0
   23.3110  -20.1530   21.5140 C   0  0  0  0  0  0
   22.3940  -20.9570   21.7370 O   0  0  0  0  0  0
   24.3120  -20.7160   19.2900 C   0  0  0  0  0  0
   24.3950  -20.2960   17.8180 C   0  0  0  0  0  0
   25.6890  -20.9780   19.8780 C   0  0  0  0  0  0
   24.1020  -19.6710   22.4690 N   0  0  0  0  0  0
   23.9030  -20.0310   23.8660 C   0  0  2  0  0  0
   24.2520  -18.8870   24.8230 C   0  0  0  0  0  0
   25.3210  -18.2760   24.7290 O   0  0  0  0  0  0
   24.6880  -21.2940   24.2230 C   0  0  0  0  0  0
   24.3930  -21.8070   25.6200 C   0  0  0  0  0  0
   25.1210  -23.0930   25.9310 C   0  0  0  0  0  0
   26.0320  -23.4620   25.1610 O   0  0  0  0  0  0
   24.7840  -23.7350   26.9450 O   0  0  0  0  0  0
   23.3330  -18.5980   25.7380 N   0  0  0  0  0  0
   23.5590  -17.5790   26.7500 C   0  0  2  0  0  0
   23.7010  -18.2280   28.1180 C   0  0  0  0  0  0
   23.0520  -19.2330   28.4110 O   0  0  0  0  0  0
   22.3950  -16.5880   26.7860 C   0  0  0  0  0  0
   22.2660  -15.7250   25.5750 C   0  0  0  0  0  0
   21.5270  -15.9850   24.4580 C   0  0  0  0  0  0
   22.8830  -14.4510   25.3620 C   0  0  0  0  0  0
   21.6510  -14.9540   23.5590 N   0  0  0  0  0  0
   22.4780  -13.9990   24.0900 C   0  0  0  0  0  0
   23.7410  -13.6500   26.1220 C   0  0  0  0  0  0
   22.9030  -12.7820   23.5620 C   0  0  0  0  0  0
   24.1620  -12.4440   25.5960 C   0  0  0  0  0  0
   23.7430  -12.0210   24.3270 C   0  0  0  0  0  0
   24.5590  -17.6520   28.9510 N   0  0  0  0  0  0
   24.6460  -18.0520   30.3470 C   0  0  2  0  0  0
   24.3940  -16.8390   31.2250 C   0  0  0  0  0  0
   24.4470  -15.7000   30.7590 O   0  0  0  0  0  0
   26.0260  -18.6270   30.7020 C   0  0  2  0  0  0
   25.9630  -19.2570   31.9880 O   0  0  0  0  0  0
   27.0680  -17.5200   30.7410 C   0  0  0  0  0  0
   24.1120  -17.0860   32.4980 N   0  0  0  0  0  0
   23.9980  -16.0060   33.4640 C   0  0  2  0  0  0
   25.2250  -16.0040   34.3650 C   0  0  0  0  0  0
   25.4400  -16.9400   35.1320 O   0  0  0  0  0  0
   22.7280  -16.1290   34.3160 C   0  0  2  0  0  0
   21.4920  -16.1680   33.4150 C   0  0  0  0  0  0
   22.6370  -14.9690   35.2950 C   0  0  0  0  0  0
   20.1880  -16.1950   34.1720 C   0  0  0  0  0  0
   26.0290  -14.9510   34.2540 N   0  0  0  0  0  0
   27.2790  -14.8270   35.0000 C   0  0  2  0  0  0
   27.0800  -14.6530   36.4990 C   0  0  0  0  0  0
   26.0290  -14.2060   36.9530 O   0  0  0  0  0  0
   28.0750  -13.6320   34.4760 C   0  0  0  0  0  0
   29.3390  -13.8560   33.6470 C   0  0  0  0  0  0
   29.3400  -15.2200   32.9810 C   0  0  0  0  0  0
   29.4820  -12.7340   32.6230 C   0  0  0  0  0  0
   28.1050  -15.0030   37.2690 N   0  0  0  0  0  0
   28.0510  -14.8820   38.7210 C   0  0  2  0  0  0
   28.6210  -13.5500   39.2000 C   0  0  0  0  0  0
   28.2860  -13.0770   40.2850 O   0  0  0  0  0  0
   28.7990  -16.0390   39.3850 C   0  0  0  0  0  0
   27.9030  -17.1900   39.8050 C   0  0  0  0  0  0
   26.7800  -17.4380   38.8190 C   0  0  0  0  0  0
   27.0740  -17.6210   37.6200 O   0  0  0  0  0  0
   25.6060  -17.4470   39.2420 O   0  0  0  0  0  0
   29.4850  -12.9500   38.3870 N   0  0  0  0  0  0
   30.0980  -11.6740   38.7340 C   0  0  2  0  0  0
   30.5170  -10.9040   37.4870 C   0  0  0  0  0  0
   29.6533  -10.3815   36.7329 O   0  0  0  0  0  0
   31.3060  -11.8920   39.6480 C   0  0  0  0  0  0
   31.7401  -10.7887   37.2073 O   0  0  0  0  0  0
   25.9992  -12.3886    9.8229 H   0  0  0  0  0  0
   25.3711  -10.7929    9.2882 H   0  0  0  0  0  0
   24.4016  -11.8110   10.4063 H   0  0  0  0  0  0
   27.0620  -10.5752   10.8997 H   0  0  0  0  0  0
   25.5796   -9.3523   12.7298 H   0  0  0  0  0  0
   25.4910   -8.7980   11.0235 H   0  0  0  0  0  0
   23.3081   -9.1518   11.0026 H   0  0  0  0  0  0
   23.5513  -10.8786   11.4335 H   0  0  0  0  0  0
   22.0985   -9.7703   13.0592 H   0  0  0  0  0  0
   23.6493  -10.2541   13.8256 H   0  0  0  0  0  0
   24.0548   -8.0036   14.3889 H   0  0  0  0  0  0
   21.8040   -8.2760   11.5292 H   0  0  0  0  0  0
   21.5505   -6.3882   11.4850 H   0  0  0  0  0  0
   23.7382   -5.8278   14.3438 H   0  0  0  0  0  0
   26.6510  -10.2009   13.6611 H   0  0  0  0  0  0
   27.4464  -12.9701   14.3717 H   0  0  0  0  0  0
   27.0725  -10.5798   16.2750 H   0  0  0  0  0  0
   28.1304  -12.0099   16.5249 H   0  0  0  0  0  0
   29.1460  -10.9952   14.2073 H   0  0  0  0  0  0
   27.6394   -9.0300   14.3128 H   0  0  0  0  0  0
   29.3659   -8.5674   14.4914 H   0  0  0  0  0  0
   28.2971   -8.6231   15.9341 H   0  0  0  0  0  0
   30.3613  -11.7270   16.2252 H   0  0  0  0  0  0
   29.8914  -10.2043   17.0542 H   0  0  0  0  0  0
   30.9602  -10.1486   15.6115 H   0  0  0  0  0  0
   26.6390  -14.3997   15.8924 H   0  0  0  0  0  0
   23.9658  -13.6204   17.0233 H   0  0  0  0  0  0
   23.4683  -14.6476   14.7617 H   0  0  0  0  0  0
   24.2922  -16.1521   15.2949 H   0  0  0  0  0  0
   20.9365  -14.1047   16.3594 H   0  0  0  0  0  0
   20.5638  -18.1979   17.3482 H   0  0  0  0  0  0
   23.7055  -14.2744   19.0500 H   0  0  0  0  0  0
   25.6966  -16.2784   20.0534 H   0  0  0  0  0  0
   25.1229  -14.4484   21.5364 H   0  0  0  0  0  0
   23.3666  -14.7874   21.3725 H   0  0  0  0  0  0
   24.2514  -15.8252   23.8802 H   0  0  0  0  0  0
   25.4235  -18.4187   20.3304 H   0  0  0  0  0  0
   22.6453  -19.3778   19.5940 H   0  0  0  0  0  0
   23.7508  -21.6605   19.3444 H   0  0  0  0  0  0
   23.3814  -20.1162   17.4303 H   0  0  0  0  0  0
   24.8740  -21.0963   17.2348 H   0  0  0  0  0  0
   24.9891  -19.3742   17.7327 H   0  0  0  0  0  0
   25.5870  -21.2759   20.9320 H   0  0  0  0  0  0
   26.2958  -20.0628   19.8127 H   0  0  0  0  0  0
   26.1807  -21.7849   19.3148 H   0  0  0  0  0  0
   24.9180  -18.9891   22.1876 H   0  0  0  0  0  0
   22.8226  -20.2263   23.9333 H   0  0  0  0  0  0
   24.4341  -22.0961   23.5144 H   0  0  0  0  0  0
   25.7662  -21.0835   24.1675 H   0  0  0  0  0  0
   24.7040  -21.0549   26.3600 H   0  0  0  0  0  0
   23.3141  -21.9963   25.7209 H   0  0  0  0  0  0
   26.5790  -24.3947   25.3633 H   0  0  0  0  0  0
   22.3825  -19.1513   25.7173 H   0  0  0  0  0  0
   24.4910  -17.0734   26.4572 H   0  0  0  0  0  0
   21.4477  -17.1385   26.8838 H   0  0  0  0  0  0
   22.5161  -15.9112   27.6446 H   0  0  0  0  0  0
   20.9257  -16.8806   24.3018 H   0  0  0  0  0  0
   24.0711  -13.9709   27.1100 H   0  0  0  0  0  0
   22.5782  -12.4489   22.5763 H   0  0  0  0  0  0
   24.8315  -11.8104   26.1778 H   0  0  0  0  0  0
   24.0946  -11.0641   23.9414 H   0  0  0  0  0  0
   25.2130  -16.8562   28.5651 H   0  0  0  0  0  0
   23.8718  -18.8240   30.4682 H   0  0  0  0  0  0
   26.3228  -19.4057   29.9840 H   0  0  0  0  0  0
   25.2626  -20.0876   32.1598 H   0  0  0  0  0  0
   27.1215  -17.0320   29.7566 H   0  0  0  0  0  0
   28.0495  -17.9490   30.9915 H   0  0  0  0  0  0
   26.7867  -16.7783   31.5031 H   0  0  0  0  0  0
   23.9638  -18.1280   32.8179 H   0  0  0  0  0  0
   23.9437  -15.0871   32.8618 H   0  0  0  0  0  0
   22.7708  -17.0623   34.8967 H   0  0  0  0  0  0
   21.4783  -15.2752   32.7726 H   0  0  0  0  0  0
   21.5241  -17.0708   32.7874 H   0  0  0  0  0  0
   23.5327  -14.9569   35.9334 H   0  0  0  0  0  0
   21.7412  -15.0880   35.9222 H   0  0  0  0  0  0
   22.5712  -14.0230   34.7375 H   0  0  0  0  0  0
   19.3507  -16.2223   33.4591 H   0  0  0  0  0  0
   20.1082  -15.2934   34.7971 H   0  0  0  0  0  0
   20.1540  -17.0890   34.8119 H   0  0  0  0  0  0
   25.7182  -14.1520   33.5648 H   0  0  0  0  0  0
   27.7833  -15.7885   34.8232 H   0  0  0  0  0  0
   27.4341  -13.0231   33.8214 H   0  0  0  0  0  0
   28.4195  -13.0209   35.3233 H   0  0  0  0  0  0
   30.2110  -13.8420   34.3174 H   0  0  0  0  0  0
   29.2355  -16.0022   33.7473 H   0  0  0  0  0  0
   30.2862  -15.3623   32.4383 H   0  0  0  0  0  0
   28.4990  -15.2838   32.2748 H   0  0  0  0  0  0
   29.4774  -11.7630   33.1399 H   0  0  0  0  0  0
   28.6423  -12.7758   31.9137 H   0  0  0  0  0  0
   30.4294  -12.8543   32.0772 H   0  0  0  0  0  0
   29.0115  -15.3927   36.7829 H   0  0  0  0  0  0
   26.9787  -14.9242   38.9625 H   0  0  0  0  0  0
   29.5433  -16.4448   38.6840 H   0  0  0  0  0  0
   29.3077  -15.6754   40.2900 H   0  0  0  0  0  0
   28.4997  -18.1112   39.8785 H   0  0  0  0  0  0
   27.4525  -16.9659   40.7832 H   0  0  0  0  0  0
   26.2802  -17.8035   36.8807 H   0  0  0  0  0  0
   29.7342  -13.4387   37.4335 H   0  0  0  0  0  0
   29.3122  -11.1129   39.2610 H   0  0  0  0  0  0
   29.9687   -9.8284   35.8359 H   0  0  0  0  0  0
   30.9924  -12.4480   40.5438 H   0  0  0  0  0  0
   31.7198  -10.9178   39.9473 H   0  0  0  0  0  0
   32.0740  -12.4669   39.1098 H   0  0  0  0  0  0
  1  2  1  0  0  0
  1104  1  0  0  0
  1105  1  0  0  0
  1106  1  0  0  0
  2  3  1  0  0  0
  2  5  1  0  0  0
  2107  1  0  0  0
  3  4  2  0  0  0
  3 12  1  0  0  0
  5  6  1  0  0  0
  5108  1  0  0  0
  5109  1  0  0  0
  6  7  1  0  0  0
  6110  1  0  0  0
  6111  1  0  0  0
  7  8  1  0  0  0
  7112  1  0  0  0
  7113  1  0  0  0
  8  9  1  0  0  0
  8114  1  0  0  0
  9 10  1  0  0  0
  9 11  2  0  0  0
 10115  1  0  0  0
 10116  1  0  0  0
 11117  1  0  0  0
 12 13  1  0  0  0
 12118  1  0  0  0
 13 14  1  0  0  0
 13 16  1  0  0  0
 13119  1  0  0  0
 14 15  2  0  0  0
 14 20  1  0  0  0
 16 17  1  0  0  0
 16120  1  0  0  0
 16121  1  0  0  0
 17 18  1  0  0  0
 17 19  1  0  0  0
 17122  1  0  0  0
 18123  1  0  0  0
 18124  1  0  0  0
 18125  1  0  0  0
 19126  1  0  0  0
 19127  1  0  0  0
 19128  1  0  0  0
 20 21  1  0  0  0
 20129  1  0  0  0
 21 22  1  0  0  0
 21 24  1  0  0  0
 21130  1  0  0  0
 22 23  2  0  0  0
 22 30  1  0  0  0
 24 25  1  0  0  0
 24131  1  0  0  0
 24132  1  0  0  0
 25 26  2  0  0  0
 25 27  1  0  0  0
 26 28  1  0  0  0
 27 29  2  0  0  0
 27133  1  0  0  0
 28 29  1  0  0  0
 28134  1  0  0  0
 30 31  1  0  0  0
 30135  1  0  0  0
 31 32  1  0  0  0
 31 34  1  0  0  0
 31136  1  0  0  0
 32 33  2  0  0  0
 32 36  1  0  0  0
 34 35  1  0  0  0
 34137  1  0  0  0
 34138  1  0  0  0
 35139  1  0  0  0
 36 37  1  0  0  0
 36140  1  0  0  0
 37 38  1  0  0  0
 37 40  1  0  0  0
 37141  1  0  0  0
 38 39  2  0  0  0
 38 43  1  0  0  0
 40 41  1  0  0  0
 40 42  1  0  0  0
 40142  1  0  0  0
 41143  1  0  0  0
 41144  1  0  0  0
 41145  1  0  0  0
 42146  1  0  0  0
 42147  1  0  0  0
 42148  1  0  0  0
 43 44  1  0  0  0
 43149  1  0  0  0
 44 45  1  0  0  0
 44 47  1  0  0  0
 44150  1  0  0  0
 45 46  2  0  0  0
 45 52  1  0  0  0
 47 48  1  0  0  0
 47151  1  0  0  0
 47152  1  0  0  0
 48 49  1  0  0  0
 48153  1  0  0  0
 48154  1  0  0  0
 49 50  1  0  0  0
 49 51  2  0  0  0
 50155  1  0  0  0
 52 53  1  0  0  0
 52156  1  0  0  0
 53 54  1  0  0  0
 53 56  1  0  0  0
 53157  1  0  0  0
 54 55  2  0  0  0
 54 66  1  0  0  0
 56 57  1  0  0  0
 56158  1  0  0  0
 56159  1  0  0  0
 57 58  2  0  0  0
 57 59  1  0  0  0
 58 60  1  0  0  0
 58160  1  0  0  0
 59 61  2  0  0  0
 59 62  1  0  0  0
 60 61  1  0  0  0
 61 63  1  0  0  0
 62 64  2  0  0  0
 62161  1  0  0  0
 63 65  2  0  0  0
 63162  1  0  0  0
 64 65  1  0  0  0
 64163  1  0  0  0
 65164  1  0  0  0
 66 67  1  0  0  0
 66165  1  0  0  0
 67 68  1  0  0  0
 67 70  1  0  0  0
 67166  1  0  0  0
 68 69  2  0  0  0
 68 73  1  0  0  0
 70 71  1  0  0  0
 70 72  1  0  0  0
 70167  1  0  0  0
 71168  1  0  0  0
 72169  1  0  0  0
 72170  1  0  0  0
 72171  1  0  0  0
 73 74  1  0  0  0
 73172  1  0  0  0
 74 75  1  0  0  0
 74 77  1  0  0  0
 74173  1  0  0  0
 75 76  2  0  0  0
 75 81  1  0  0  0
 77 78  1  0  0  0
 77 79  1  0  0  0
 77174  1  0  0  0
 78 80  1  0  0  0
 78175  1  0  0  0
 78176  1  0  0  0
 79177  1  0  0  0
 79178  1  0  0  0
 79179  1  0  0  0
 80180  1  0  0  0
 80181  1  0  0  0
 80182  1  0  0  0
 81 82  1  0  0  0
 81183  1  0  0  0
 82 83  1  0  0  0
 82 85  1  0  0  0
 82184  1  0  0  0
 83 84  2  0  0  0
 83 89  1  0  0  0
 85 86  1  0  0  0
 85185  1  0  0  0
 85186  1  0  0  0
 86 87  1  0  0  0
 86 88  1  0  0  0
 86187  1  0  0  0
 87188  1  0  0  0
 87189  1  0  0  0
 87190  1  0  0  0
 88191  1  0  0  0
 88192  1  0  0  0
 88193  1  0  0  0
 89 90  1  0  0  0
 89194  1  0  0  0
 90 91  1  0  0  0
 90 93  1  0  0  0
 90195  1  0  0  0
 91 92  2  0  0  0
 91 98  1  0  0  0
 93 94  1  0  0  0
 93196  1  0  0  0
 93197  1  0  0  0
 94 95  1  0  0  0
 94198  1  0  0  0
 94199  1  0  0  0
 95 96  1  0  0  0
 95 97  2  0  0  0
 96200  1  0  0  0
 98 99  1  0  0  0
 98201  1  0  0  0
 99100  1  0  0  0
 99102  1  0  0  0
 99202  1  0  0  0
100101  1  0  0  0
100103  2  0  0  0
101203  1  0  0  0
102204  1  0  0  0
102205  1  0  0  0
102206  1  0  0  0
M  CHG  1   1   1
M  END
> <s_m_source_file>
../4ejf_ligand.sdf

> <i_m_source_file_index>
1

> <s_epik_input>
W0hdL049QyhbTkgyXSlcW05IXVtDSDJdW0NIMl1bQ0gyXVtDQEhdKFtOSDMrXSlDKD1PKVtOSF1bQ0BASF0oW0NIMl1bQ0hdKFtDSDNdKVtDSDNdKUMoPU8pW05IXVtDQEBIXShbQ0gyXUMxPU5bQ0gyXU49W0NIXTEpQyg9TylbTkhdW0NAQEhdKFtDSDJdW1NIXSlDKD1PKVtOSF1bQ0BASF0oW0NIXShbQ0gzXSlbQ0gzXSlDKD1PKVtOSF1bQ0BASF0oW0NIMl1bQ0gyXUMoPU8pW09IXSlDKD1PKVtOSF1bQ0BASF0oW0NIMl1jMltjSF1bbkhdYyhjMjMpW2NIXVtjSF1bY0hdW2NIXTMpQyg9TylbTkhdW0NAQEhdKFtDQEhdKFtPSF0pW0NIM10pQyg9TylbTkhdW0NAQEhdKFtDQEBIXShbQ0gzXSlbQ0gyXVtDSDNdKUMoPU8pW05IXVtDQEBIXShbQ0gyXVtDSF0oW0NIM10pW0NIM10pQyg9TylbTkhdW0NAQEhdKFtDSDJdW0NIMl1DKD1PKVtPSF0pQyg9TylbTkhdW0NAQEhdKFtDSDNdKUMoPU8pW09IXQ==

> <s_epik_cmdline>
J2VwaWtfYXBwJywgJy1pbWFlJywgJ2xpZ2FuZF9wcm8ubWFlJywgJy1vbWFlJywgJ2xpZ2FuZF9wcmVwLm1hZScsICctbXMnLCAnMScsICctcGgnLCAnNycsICctcGh0JywgJzAuNScsICctbnQn

> <s_epik_pKa_notes>
Molecule size exceeds maximum supported for generating protonation states

> <s_epik_Chemistry_Notes>
This compound has an imine and may undergo hydrolysis.

$$$$
