4ek9_ligand
                    3D
 Schrodinger Suite 2020-3.
 40 42  0  0  1  0            999 V2000
   45.8240   53.2690    9.2590 C   0  0  0  0  0  0
   44.6520   52.6310    9.8840 N   0  3  0  0  0  0
   43.5190   52.8210    8.9750 C   0  0  0  0  0  0
   44.9520   51.2040   10.1340 C   0  0  0  0  0  0
   43.9850   50.5480   11.1450 C   0  0  1  0  0  0
   44.4600   49.1890   11.2980 O   0  0  0  0  0  0
   44.0440   48.7730   12.6180 C   0  0  1  0  0  0
   44.7650   47.5500   13.0770 N   0  0  0  0  0  0
   44.2130   46.3200   13.0790 C   0  0  0  0  0  0
   42.9870   45.8890   12.7050 N   0  0  0  0  0  0
   42.6700   44.5130   12.8120 C   0  0  0  0  0  0
   43.6350   43.6230   13.3160 N   0  0  0  0  0  0
   44.8420   44.1290   13.6740 C   0  0  0  0  0  0
   45.8060   43.3100   14.1320 N   0  0  0  0  0  0
   45.1430   45.4530   13.5550 C   0  0  0  0  0  0
   46.2660   46.1750   13.8310 N   0  0  0  0  0  0
   46.0300   47.4620   13.5340 C   0  0  0  0  0  0
   44.4390   49.9320   13.4580 C   0  0  2  0  0  0
   43.6080   49.8450   14.6440 O   0  0  0  0  0  0
   44.1030   51.1420   12.5600 C   0  0  2  0  0  0
   42.8040   51.6030   12.9290 O   0  0  0  0  0  0
   45.6066   54.3307    9.0707 H   0  0  0  0  0  0
   46.0507   52.7667    8.3070 H   0  0  0  0  0  0
   46.6895   53.1858    9.9327 H   0  0  0  0  0  0
   44.3960   53.0833   10.8535 H   0  0  0  0  0  0
   43.3438   53.8969    8.8274 H   0  0  0  0  0  0
   42.6197   52.3591    9.4085 H   0  0  0  0  0  0
   43.7428   52.3496    8.0066 H   0  0  0  0  0  0
   44.8779   50.6430    9.1907 H   0  0  0  0  0  0
   45.9706   51.1088   10.5381 H   0  0  0  0  0  0
   42.9513   50.6202   10.7759 H   0  0  0  0  0  0
   42.9720   48.5267   12.6327 H   0  0  0  0  0  0
   41.6892   44.1479   12.5072 H   0  0  0  0  0  0
   45.6064   42.2341   14.2437 H   0  0  0  0  0  0
   46.7939   43.7163   14.3948 H   0  0  0  0  0  0
   46.7339   48.2871   13.6426 H   0  0  0  0  0  0
   45.4759   49.9559   13.8244 H   0  0  0  0  0  0
   43.7556   49.0230   15.3599 H   0  0  0  0  0  0
   44.7902   51.9958   12.6541 H   0  0  0  0  0  0
   42.3596   52.4665   12.4124 H   0  0  0  0  0  0
  1  2  1  0  0  0
  1 22  1  0  0  0
  1 23  1  0  0  0
  1 24  1  0  0  0
  2  3  1  0  0  0
  2  4  1  0  0  0
  2 25  1  0  0  0
  3 26  1  0  0  0
  3 27  1  0  0  0
  3 28  1  0  0  0
  4  5  1  0  0  0
  4 29  1  0  0  0
  4 30  1  0  0  0
  5  6  1  0  0  0
  5 20  1  0  0  0
  5 31  1  0  0  0
  6  7  1  0  0  0
  7  8  1  0  0  0
  7 18  1  0  0  0
  7 32  1  0  0  0
  8  9  1  0  0  0
  8 17  1  0  0  0
  9 10  1  0  0  0
  9 15  2  0  0  0
 10 11  2  0  0  0
 11 12  1  0  0  0
 11 33  1  0  0  0
 12 13  2  0  0  0
 13 14  1  0  0  0
 13 15  1  0  0  0
 14 34  1  0  0  0
 14 35  1  0  0  0
 15 16  1  0  0  0
 16 17  2  0  0  0
 17 36  1  0  0  0
 18 19  1  0  0  0
 18 20  1  0  0  0
 18 37  1  0  0  0
 19 38  1  0  0  0
 20 21  1  0  0  0
 20 39  1  0  0  0
 21 40  1  0  0  0
M  CHG  1   2   1
M  END
> <s_m_source_file>
../4ek9_ligand.sdf

> <i_m_source_file_index>
1

> <s_epik_input>
W0NIM11bTkgrXShbQ0gzXSlbQ0gyXVtDQEhdMU9bQ0BIXShbQ0BIXShbT0hdKVtDQEBIXTFbT0hdKW4yW2NIXW5jKGMyMyljKFtOSDJdKW5bY0hdbjM=

> <s_epik_cmdline>
J2VwaWtfYXBwJywgJy1pbWFlJywgJ2xpZ2FuZF9wcm8ubWFlJywgJy1vbWFlJywgJ2xpZ2FuZF9wcmVwLm1hZScsICctbXMnLCAnMScsICctcGgnLCAnNycsICctcGh0JywgJzAuNScsICctbnQn

> <r_lp_tautomer_probability>
0.999997216410988

> <r_epik_Ionization_Penalty>
  0.0226

> <r_epik_Ionization_Penalty_Charging>
  0.0222

> <r_epik_Ionization_Penalty_Neutral>
  0.0004

> <r_epik_State_Penalty>
  0.0179

> <r_epik_Charging_Adjusted_Penalty>
0.0401354616549996

> <i_epik_Tot_Q>
1

> <i_epik_Tot_abs_Q>
1

> <s_epik_Chemistry_Notes>
This compound contains an acetal/aminal-like group ( X-CH(R)-Y where X, Y are N, S, or O) that may be acid/base labile, releasing an aldehyde.

$$$$
