4eke_ligand
                    3D
 Schrodinger Suite 2020-3.
 52 54  0  0  1  0            999 V2000
   34.0200   23.6700   28.7350 N   0  0  0  0  0  0
   33.2910   24.1980   29.7450 C   0  0  0  0  0  0
   32.0630   24.1480   29.7990 O   0  0  0  0  0  0
   33.8990   24.9500   30.7170 N   0  0  0  0  0  0
   35.3310   24.8250   30.7920 C   0  0  0  0  0  0
   36.0440   24.4570   29.6610 C   0  0  0  0  0  0
   36.0380   25.7220   31.5790 O   0  0  0  0  0  0
   35.4380   23.7520   28.7040 C   0  0  0  0  0  0
   37.3090   24.7000   30.0110 C   0  0  0  0  0  0
   37.3120   25.4490   31.1540 C   0  0  0  0  0  0
   38.6270   25.9820   31.8180 C   0  0  0  0  0  0
   33.2750   22.8820   27.7560 C   0  0  1  0  0  0
   38.5290   27.5060   32.2400 C   0  0  0  0  0  0
   38.6750   27.7410   33.7750 C   0  0  0  0  0  0
   39.6980   26.7960   34.4580 C   0  0  0  0  0  0
   40.0800   27.3380   35.8490 C   0  0  0  0  0  0
   33.6900   23.0390   26.3120 C   0  0  2  0  0  0
   33.9220   24.4180   25.9970 O   0  0  0  0  0  0
   32.5590   22.4200   25.4650 C   0  0  1  0  0  0
   32.9110   22.3730   24.1090 O   0  0  0  0  0  0
   32.3220   20.9940   25.9170 C   0  0  2  0  0  0
   31.1980   20.4600   25.2050 O   0  0  0  0  0  0
   32.1250   20.8660   27.4440 C   0  0  2  0  0  0
   33.2190   21.4640   28.1430 O   0  0  0  0  0  0
   32.1580   19.4050   27.8750 C   0  0  0  0  0  0
   33.2000   18.6870   27.2470 O   0  0  0  0  0  0
   33.2944   25.5925   31.3740 H   0  0  0  0  0  0
   35.8654   22.7412   28.7785 H   0  0  0  0  0  0
   35.7579   24.2167   27.7597 H   0  0  0  0  0  0
   38.1935   24.3576   29.4738 H   0  0  0  0  0  0
   38.8439   25.3964   32.7235 H   0  0  0  0  0  0
   39.4620   25.8833   31.1088 H   0  0  0  0  0  0
   32.2660   23.3143   27.8273 H   0  0  0  0  0  0
   39.3282   28.0760   31.7436 H   0  0  0  0  0  0
   37.5504   27.9078   31.9384 H   0  0  0  0  0  0
   39.0106   28.7725   33.9577 H   0  0  0  0  0  0
   37.7034   27.5793   34.2648 H   0  0  0  0  0  0
   39.2543   25.7959   34.5715 H   0  0  0  0  0  0
   40.6041   26.7269   33.8381 H   0  0  0  0  0  0
   40.8051   26.6585   36.3208 H   0  0  0  0  0  0
   39.1789   27.4056   36.4763 H   0  0  0  0  0  0
   40.5287   28.3367   35.7428 H   0  0  0  0  0  0
   34.6713   22.5887   26.1014 H   0  0  0  0  0  0
   34.7033   24.9799   26.5297 H   0  0  0  0  0  0
   31.6523   23.0414   25.5065 H   0  0  0  0  0  0
   33.1309   23.3036   23.5653 H   0  0  0  0  0  0
   33.1892   20.3828   25.6266 H   0  0  0  0  0  0
   31.1852   20.4767   24.1052 H   0  0  0  0  0  0
   31.1947   21.3824   27.7230 H   0  0  0  0  0  0
   32.3104   19.3470   28.9628 H   0  0  0  0  0  0
   31.2045   18.9235   27.6122 H   0  0  0  0  0  0
   33.3414   17.6184   27.4662 H   0  0  0  0  0  0
  1  2  1  0  0  0
  1  8  1  0  0  0
  1 12  1  0  0  0
  2  3  2  0  0  0
  2  4  1  0  0  0
  4  5  1  0  0  0
  4 27  1  0  0  0
  5  6  2  0  0  0
  5  7  1  0  0  0
  6  8  1  0  0  0
  6  9  1  0  0  0
  7 10  1  0  0  0
  8 28  1  0  0  0
  8 29  1  0  0  0
  9 10  2  0  0  0
  9 30  1  0  0  0
 10 11  1  0  0  0
 11 13  1  0  0  0
 11 31  1  0  0  0
 11 32  1  0  0  0
 12 17  1  0  0  0
 12 24  1  0  0  0
 12 33  1  0  0  0
 13 14  1  0  0  0
 13 34  1  0  0  0
 13 35  1  0  0  0
 14 15  1  0  0  0
 14 36  1  0  0  0
 14 37  1  0  0  0
 15 16  1  0  0  0
 15 38  1  0  0  0
 15 39  1  0  0  0
 16 40  1  0  0  0
 16 41  1  0  0  0
 16 42  1  0  0  0
 17 18  1  0  0  0
 17 19  1  0  0  0
 17 43  1  0  0  0
 18 44  1  0  0  0
 19 20  1  0  0  0
 19 21  1  0  0  0
 19 45  1  0  0  0
 20 46  1  0  0  0
 21 22  1  0  0  0
 21 23  1  0  0  0
 21 47  1  0  0  0
 22 48  1  0  0  0
 23 24  1  0  0  0
 23 25  1  0  0  0
 23 49  1  0  0  0
 25 26  1  0  0  0
 25 50  1  0  0  0
 25 51  1  0  0  0
 26 52  1  0  0  0
M  END
> <s_m_source_file>
../4eke_ligand.sdf

> <i_m_source_file_index>
1

> <s_epik_input>
W09IXVtDSDJdW0NAQEhdKE8xKVtDQEBIXShbT0hdKVtDQEhdKFtPSF0pW0NAQEhdKFtPSF0pW0NAQEhdMU4oQyg9TylbTkhdMilbQ0gyXWMoYzIzKVtjSF1jKG8zKVtDSDJdW0NIMl1bQ0gyXVtDSDJdW0NIM10=

> <s_epik_cmdline>
J2VwaWtfYXBwJywgJy1pbWFlJywgJ2xpZ2FuZF9wcm8ubWFlJywgJy1vbWFlJywgJ2xpZ2FuZF9wcmVwLm1hZScsICctbXMnLCAnMScsICctcGgnLCAnNycsICctcGh0JywgJzAuNScsICctbnQn

> <r_lp_tautomer_probability>
1

> <r_epik_Ionization_Penalty>
  0.0000

> <r_epik_Ionization_Penalty_Charging>
  0.0000

> <r_epik_Ionization_Penalty_Neutral>
  0.0000

> <r_epik_State_Penalty>
 -0.0000

> <r_epik_Charging_Adjusted_Penalty>
0

> <i_epik_Tot_Q>
0

> <i_epik_Tot_abs_Q>
0

> <s_epik_Chemistry_Notes>
This compound contains an acetal/aminal-like group ( X-CH(R)-Y where X, Y are N, S, or O) that may be acid/base labile, releasing an aldehyde.

$$$$
