4ekg_ligand
                    3D
 Schrodinger Suite 2020-3.
 74 77  0  0  1  0            999 V2000
   44.0570   46.0530   13.2430 C   0  0  0  0  0  0
   45.4740   47.9780   13.1910 C   0  0  0  0  0  0
   46.5490   47.2170   13.3950 C   0  0  0  0  0  0
   46.4040   45.8920   13.5310 C   0  0  0  0  0  0
   47.2090   49.2740   13.2390 C   0  0  0  0  0  0
   48.1740   52.8370   -0.5350 C   0  0  0  0  0  0
   46.8080   53.4890   -0.6960 C   0  0  0  0  0  0
   46.0880   52.8260   -1.8690 C   0  0  0  0  0  0
   47.0140   54.9550   -1.0570 C   0  0  0  0  0  0
   46.0020   53.3370    0.4640 C   0  0  0  0  0  0
   45.3850   54.4450    1.0840 C   0  0  0  0  0  0
   44.5800   54.2750    2.2170 C   0  0  0  0  0  0
   45.7690   52.0520    0.9910 C   0  0  0  0  0  0
   44.9580   51.8820    2.1170 C   0  0  0  0  0  0
   44.3620   52.9860    2.7480 C   0  0  0  0  0  0
   43.5640   52.7540    3.8160 N   0  0  0  0  0  0
   43.4430   53.6530    4.8070 C   0  0  0  0  0  0
   44.0970   54.7040    4.8310 O   0  0  0  0  0  0
   42.5700   53.3370    5.7810 N   0  0  0  0  0  0
   42.3630   54.1560    6.9880 C   0  0  0  0  0  0
   43.7560   54.3900    7.5890 C   0  0  0  0  0  0
   43.8820   53.7920    8.9850 C   0  0  0  0  0  0
   44.9260   52.7350    9.1080 N   0  3  1  0  0  0
   45.9800   52.7020    8.0890 C   0  0  0  0  0  0
   45.5260   52.8000   10.4430 C   0  0  0  0  0  0
   44.6280   52.0010   11.4010 C   0  0  1  0  0  0
   45.2670   50.7450   11.5740 O   0  0  0  0  0  0
   44.5640   52.6290   12.7810 C   0  0  1  0  0  0
   43.1830   52.8610   13.0850 O   0  0  0  0  0  0
   45.1490   51.5400   13.6950 C   0  0  1  0  0  0
   44.4180   51.4450   14.9390 O   0  0  0  0  0  0
   44.9150   50.3200   12.8730 C   0  0  2  0  0  0
   45.8870   49.2430   13.1100 N   0  0  0  0  0  0
   47.6160   48.0230   13.4210 N   0  0  0  0  0  0
   44.2340   47.4360   13.1120 N   0  0  0  0  0  0
   45.2060   45.2880   13.4620 N   0  0  0  0  0  0
   47.5120   45.1810   13.7260 N   0  0  0  0  0  0
   43.0701   45.5950   13.1773 H   0  0  0  0  0  0
   47.8416   50.1609   13.2023 H   0  0  0  0  0  0
   48.7595   52.9805   -1.4551 H   0  0  0  0  0  0
   48.0466   51.7610   -0.3455 H   0  0  0  0  0  0
   48.7030   53.2984    0.3120 H   0  0  0  0  0  0
   46.6959   52.9321   -2.7796 H   0  0  0  0  0  0
   45.1121   53.3102   -2.0211 H   0  0  0  0  0  0
   45.9377   51.7584   -1.6508 H   0  0  0  0  0  0
   47.6414   55.0261   -1.9578 H   0  0  0  0  0  0
   47.5106   55.4718   -0.2225 H   0  0  0  0  0  0
   46.0388   55.4253   -1.2513 H   0  0  0  0  0  0
   45.5370   55.4443    0.6761 H   0  0  0  0  0  0
   44.1198   55.1421    2.6908 H   0  0  0  0  0  0
   46.2248   51.1827    0.5170 H   0  0  0  0  0  0
   44.7861   50.8800    2.5101 H   0  0  0  0  0  0
   42.9977   51.8135    3.8854 H   0  0  0  0  0  0
   41.9941   52.4105    5.6396 H   0  0  0  0  0  0
   41.8873   55.1075    6.7083 H   0  0  0  0  0  0
   41.7138   53.6144    7.6917 H   0  0  0  0  0  0
   44.5162   53.9235    6.9452 H   0  0  0  0  0  0
   43.9482   55.4708    7.6593 H   0  0  0  0  0  0
   44.1414   54.5852    9.7016 H   0  0  0  0  0  0
   42.9250   53.3341    9.2755 H   0  0  0  0  0  0
   44.3947   51.7866    8.9399 H   0  0  0  0  0  0
   45.5226   52.6533    7.0898 H   0  0  0  0  0  0
   46.6139   51.8168    8.2457 H   0  0  0  0  0  0
   46.5942   53.6112    8.1672 H   0  0  0  0  0  0
   46.5354   52.3638   10.4130 H   0  0  0  0  0  0
   45.5896   53.8497   10.7657 H   0  0  0  0  0  0
   43.6139   51.8833   10.9914 H   0  0  0  0  0  0
   45.0480   53.6110   12.8881 H   0  0  0  0  0  0
   42.6141   53.6133   12.5190 H   0  0  0  0  0  0
   46.1875   51.6914   14.0246 H   0  0  0  0  0  0
   44.4742   52.2617   15.6737 H   0  0  0  0  0  0
   43.8922   49.9471   13.0306 H   0  0  0  0  0  0
   48.4874   45.6866   13.7808 H   0  0  0  0  0  0
   47.4524   44.0878   13.8324 H   0  0  0  0  0  0
  1 35  2  0  0  0
  1 36  1  0  0  0
  1 38  1  0  0  0
  2  3  2  0  0  0
  2 33  1  0  0  0
  2 35  1  0  0  0
  3  4  1  0  0  0
  3 34  1  0  0  0
  4 36  2  0  0  0
  4 37  1  0  0  0
  5 33  1  0  0  0
  5 34  2  0  0  0
  5 39  1  0  0  0
  6  7  1  0  0  0
  6 40  1  0  0  0
  6 41  1  0  0  0
  6 42  1  0  0  0
  7  8  1  0  0  0
  7  9  1  0  0  0
  7 10  1  0  0  0
  8 43  1  0  0  0
  8 44  1  0  0  0
  8 45  1  0  0  0
  9 46  1  0  0  0
  9 47  1  0  0  0
  9 48  1  0  0  0
 10 11  2  0  0  0
 10 13  1  0  0  0
 11 12  1  0  0  0
 11 49  1  0  0  0
 12 15  2  0  0  0
 12 50  1  0  0  0
 13 14  2  0  0  0
 13 51  1  0  0  0
 14 15  1  0  0  0
 14 52  1  0  0  0
 15 16  1  0  0  0
 16 17  1  0  0  0
 16 53  1  0  0  0
 17 18  2  0  0  0
 17 19  1  0  0  0
 19 20  1  0  0  0
 19 54  1  0  0  0
 20 21  1  0  0  0
 20 55  1  0  0  0
 20 56  1  0  0  0
 21 22  1  0  0  0
 21 57  1  0  0  0
 21 58  1  0  0  0
 22 23  1  0  0  0
 22 59  1  0  0  0
 22 60  1  0  0  0
 23 24  1  0  0  0
 23 25  1  0  0  0
 23 61  1  0  0  0
 24 62  1  0  0  0
 24 63  1  0  0  0
 24 64  1  0  0  0
 25 26  1  0  0  0
 25 65  1  0  0  0
 25 66  1  0  0  0
 26 27  1  0  0  0
 26 28  1  0  0  0
 26 67  1  0  0  0
 27 32  1  0  0  0
 28 29  1  0  0  0
 28 30  1  0  0  0
 28 68  1  0  0  0
 29 69  1  0  0  0
 30 31  1  0  0  0
 30 32  1  0  0  0
 30 70  1  0  0  0
 31 71  1  0  0  0
 32 33  1  0  0  0
 32 72  1  0  0  0
 37 73  1  0  0  0
 37 74  1  0  0  0
M  CHG  1  23   1
M  END
> <s_m_source_file>
../4ekg_ligand.sdf

> <i_m_source_file_index>
1

> <s_epik_input>
bjFbY0hdbmMoW05IMl0pYyhjMTIpbltjSF1uMltDQEBIXShbQ0BIXShbT0hdKVtDQEBIXTNbT0hdKU9bQ0BASF0zW0NIMl1bTkBIK10oW0NIM10pW0NIMl1bQ0gyXVtDSDJdW05IXUMoPU8pW05IXWMoW2NIXVtjSF00KVtjSF1bY0hdYzRDKFtDSDNdKShbQ0gzXSlbQ0gzXQ==

> <s_epik_cmdline>
J2VwaWtfYXBwJywgJy1pbWFlJywgJ2xpZ2FuZF9wcm8ubWFlJywgJy1vbWFlJywgJ2xpZ2FuZF9wcmVwLm1hZScsICctbXMnLCAnMScsICctcGgnLCAnNycsICctcGh0JywgJzAuNScsICctbnQn

> <r_lp_tautomer_probability>
1

> <r_epik_Ionization_Penalty>
  0.0088

> <r_epik_Ionization_Penalty_Charging>
  0.0083

> <r_epik_Ionization_Penalty_Neutral>
  0.0005

> <r_epik_State_Penalty>
 -0.0000

> <r_epik_Charging_Adjusted_Penalty>
0.00829446520112234

> <i_epik_Tot_Q>
1

> <i_epik_Tot_abs_Q>
1

> <s_epik_Chemistry_Notes>
This compound contains an acetal/aminal-like group ( X-CH(R)-Y where X, Y are N, S, or O) that may be acid/base labile, releasing an aldehyde.

$$$$
