4eki_ligand
                    3D
 Schrodinger Suite 2020-3.
 81 84  0  0  1  0            999 V2000
   43.2670   45.3050   13.1980 C   0  0  0  0  0  0
   44.6630   47.2180   13.1130 C   0  0  0  0  0  0
   45.7520   46.4610   13.2450 C   0  0  0  0  0  0
   45.6210   45.1300   13.3640 C   0  0  0  0  0  0
   46.0590   53.9200   -1.0250 C   0  0  0  0  0  0
   46.5340   52.8090   -0.0990 C   0  0  0  0  0  0
   47.8670   53.2330    0.5290 C   0  0  0  0  0  0
   46.7260   51.5920   -0.9990 C   0  0  0  0  0  0
   45.5950   52.5780    0.9430 C   0  0  0  0  0  0
   45.3850   51.3010    1.4870 C   0  0  0  0  0  0
   44.4460   51.1370    2.5140 C   0  0  0  0  0  0
   44.8480   53.6600    1.4630 C   0  0  0  0  0  0
   43.9130   53.4830    2.4900 C   0  0  0  0  0  0
   43.7000   52.2120    3.0390 C   0  0  0  0  0  0
   42.7840   51.9780    4.0180 N   0  0  0  0  0  0
   42.6410   52.8300    5.0590 C   0  0  0  0  0  0
   43.3660   53.8380    5.1570 O   0  0  0  0  0  0
   41.6620   52.5350    5.9820 N   0  0  0  0  0  0
   41.5090   53.2900    7.2450 C   0  0  0  0  0  0
   43.0040   53.5020    7.6360 C   0  0  0  0  0  0
   43.3560   53.2100    9.0830 C   0  0  0  0  0  0
   44.3800   52.1620    9.3560 N   0  3  1  0  0  0
   45.6910   52.1550    8.6740 C   0  0  0  0  0  0
   46.4000   50.8050    8.9390 C   0  0  0  0  0  0
   46.6450   53.2880    9.1160 C   0  0  0  0  0  0
   44.6420   52.2650   10.8050 C   0  0  0  0  0  0
   43.6600   51.4040   11.5950 C   0  0  1  0  0  0
   44.2090   50.0820   11.5550 O   0  0  0  0  0  0
   43.6650   51.8500   13.0420 C   0  0  1  0  0  0
   42.3210   51.9980   13.4600 O   0  0  0  0  0  0
   44.3310   50.6990   13.7870 C   0  0  1  0  0  0
   43.6970   50.4530   15.0480 O   0  0  0  0  0  0
   44.0590   49.5500   12.8750 C   0  0  2  0  0  0
   45.0660   48.4880   13.0300 N   0  0  0  0  0  0
   46.4020   48.5390   13.0940 C   0  0  0  0  0  0
   46.8180   47.2780   13.2270 C   0  0  0  0  0  0
   43.4260   46.6820   13.0940 N   0  0  0  0  0  0
   44.4220   44.5290   13.3340 N   0  0  0  0  0  0
   46.7390   44.4080   13.4920 N   0  0  0  0  0  0
   42.2782   44.8470   13.1744 H   0  0  0  0  0  0
   46.8026   54.0776   -1.8201 H   0  0  0  0  0  0
   45.9352   54.8492   -0.4494 H   0  0  0  0  0  0
   45.0960   53.6360   -1.4745 H   0  0  0  0  0  0
   48.6051   53.4157   -0.2659 H   0  0  0  0  0  0
   48.2312   52.4335    1.1909 H   0  0  0  0  0  0
   47.7209   54.1540    1.1125 H   0  0  0  0  0  0
   47.4601   51.8282   -1.7834 H   0  0  0  0  0  0
   45.7656   51.3247   -1.4641 H   0  0  0  0  0  0
   47.0907   50.7457   -0.3984 H   0  0  0  0  0  0
   45.9472   50.4450    1.1139 H   0  0  0  0  0  0
   44.2860   50.1394    2.9230 H   0  0  0  0  0  0
   45.0041   54.6581    1.0536 H   0  0  0  0  0  0
   43.3487   54.3374    2.8637 H   0  0  0  0  0  0
   42.1448   51.0840    3.9708 H   0  0  0  0  0  0
   40.9793   51.7037    5.7520 H   0  0  0  0  0  0
   40.9662   54.2265    7.0489 H   0  0  0  0  0  0
   40.9445   52.6836    7.9686 H   0  0  0  0  0  0
   43.6395   52.8430    7.0261 H   0  0  0  0  0  0
   43.2847   54.5504    7.4570 H   0  0  0  0  0  0
   43.7476   54.1224    9.5564 H   0  0  0  0  0  0
   42.4554   52.8763    9.6193 H   0  0  0  0  0  0
   43.9365   51.2378    8.9569 H   0  0  0  0  0  0
   45.4236   52.3145    7.6190 H   0  0  0  0  0  0
   45.7416   49.9788    8.6327 H   0  0  0  0  0  0
   46.6272   50.7145   10.0115 H   0  0  0  0  0  0
   47.3350   50.7623    8.3612 H   0  0  0  0  0  0
   46.1650   54.2617    8.9383 H   0  0  0  0  0  0
   47.5784   53.2282    8.5370 H   0  0  0  0  0  0
   46.8705   53.1804   10.1872 H   0  0  0  0  0  0
   45.6653   51.9223   11.0178 H   0  0  0  0  0  0
   44.5322   53.3120   11.1240 H   0  0  0  0  0  0
   42.6393   51.4140   11.1850 H   0  0  0  0  0  0
   44.1268   52.8297   13.2340 H   0  0  0  0  0  0
   41.6919   52.7861   13.0205 H   0  0  0  0  0  0
   45.3858   50.8627   14.0527 H   0  0  0  0  0  0
   43.7822   51.1906   15.8596 H   0  0  0  0  0  0
   43.0627   49.1184   13.0514 H   0  0  0  0  0  0
   47.0254   49.4319   13.0469 H   0  0  0  0  0  0
   47.8578   46.9613   13.3081 H   0  0  0  0  0  0
   47.7178   44.9094   13.5157 H   0  0  0  0  0  0
   46.6800   43.3126   13.5737 H   0  0  0  0  0  0
  1 37  2  0  0  0
  1 38  1  0  0  0
  1 40  1  0  0  0
  2  3  2  0  0  0
  2 34  1  0  0  0
  2 37  1  0  0  0
  3  4  1  0  0  0
  3 36  1  0  0  0
  4 38  2  0  0  0
  4 39  1  0  0  0
  5  6  1  0  0  0
  5 41  1  0  0  0
  5 42  1  0  0  0
  5 43  1  0  0  0
  6  7  1  0  0  0
  6  8  1  0  0  0
  6  9  1  0  0  0
  7 44  1  0  0  0
  7 45  1  0  0  0
  7 46  1  0  0  0
  8 47  1  0  0  0
  8 48  1  0  0  0
  8 49  1  0  0  0
  9 10  2  0  0  0
  9 12  1  0  0  0
 10 11  1  0  0  0
 10 50  1  0  0  0
 11 14  2  0  0  0
 11 51  1  0  0  0
 12 13  2  0  0  0
 12 52  1  0  0  0
 13 14  1  0  0  0
 13 53  1  0  0  0
 14 15  1  0  0  0
 15 16  1  0  0  0
 15 54  1  0  0  0
 16 17  2  0  0  0
 16 18  1  0  0  0
 18 19  1  0  0  0
 18 55  1  0  0  0
 19 20  1  0  0  0
 19 56  1  0  0  0
 19 57  1  0  0  0
 20 21  1  0  0  0
 20 58  1  0  0  0
 20 59  1  0  0  0
 21 22  1  0  0  0
 21 60  1  0  0  0
 21 61  1  0  0  0
 22 23  1  0  0  0
 22 26  1  0  0  0
 22 62  1  0  0  0
 23 24  1  0  0  0
 23 25  1  0  0  0
 23 63  1  0  0  0
 24 64  1  0  0  0
 24 65  1  0  0  0
 24 66  1  0  0  0
 25 67  1  0  0  0
 25 68  1  0  0  0
 25 69  1  0  0  0
 26 27  1  0  0  0
 26 70  1  0  0  0
 26 71  1  0  0  0
 27 28  1  0  0  0
 27 29  1  0  0  0
 27 72  1  0  0  0
 28 33  1  0  0  0
 29 30  1  0  0  0
 29 31  1  0  0  0
 29 73  1  0  0  0
 30 74  1  0  0  0
 31 32  1  0  0  0
 31 33  1  0  0  0
 31 75  1  0  0  0
 32 76  1  0  0  0
 33 34  1  0  0  0
 33 77  1  0  0  0
 34 35  1  0  0  0
 35 36  2  0  0  0
 35 78  1  0  0  0
 36 79  1  0  0  0
 39 80  1  0  0  0
 39 81  1  0  0  0
M  CHG  1  22   1
M  END
> <s_m_source_file>
../4eki_ligand.sdf

> <i_m_source_file_index>
1

> <s_epik_input>
bjFbY0hdbmMoW05IMl0pYyhjMTIpW2NIXVtjSF1uMltDQEBIXShbQ0BIXShbT0hdKVtDQEBIXTNbT0hdKU9bQ0BASF0zW0NIMl1bTkBIK10oW0NIXShbQ0gzXSlbQ0gzXSlbQ0gyXVtDSDJdW0NIMl1bTkhdQyg9TylbTkhdYyhbY0hdW2NIXTQpW2NIXVtjSF1jNEMoW0NIM10pKFtDSDNdKVtDSDNd

> <s_epik_cmdline>
J2VwaWtfYXBwJywgJy1pbWFlJywgJ2xpZ2FuZF9wcm8ubWFlJywgJy1vbWFlJywgJ2xpZ2FuZF9wcmVwLm1hZScsICctbXMnLCAnMScsICctcGgnLCAnNycsICctcGh0JywgJzAuNScsICctbnQn

> <r_epik_Ionization_Penalty>
  0.0104

> <r_epik_Ionization_Penalty_Charging>
  0.0095

> <r_epik_Ionization_Penalty_Neutral>
  0.0009

> <r_epik_State_Penalty>
  0.0072

> <r_epik_Charging_Adjusted_Penalty>
0.0166385324333962

> <i_epik_Tot_Q>
1

> <i_epik_Tot_abs_Q>
1

> <s_epik_Chemistry_Notes>
This compound contains an acetal/aminal-like group ( X-CH(R)-Y where X, Y are N, S, or O) that may be acid/base labile, releasing an aldehyde.

$$$$
