4el0_ligand
                    3D
 Schrodinger Suite 2020-3.
 46 48  0  0  1  0            999 V2000
   34.1150   23.5090   28.8320 N   0  0  0  0  0  0
   33.4930   24.1610   29.8630 C   0  0  0  0  0  0
   32.2660   24.2820   29.9480 O   0  0  0  0  0  0
   34.2580   24.7410   30.8480 N   0  0  0  0  0  0
   35.5710   24.2100   30.9890 C   0  0  1  0  0  0
   36.2260   23.8810   29.7780 C   0  0  0  0  0  0
   36.3880   25.1840   31.5140 O   0  0  0  0  0  0
   35.5310   23.3600   28.7730 C   0  0  0  0  0  0
   37.5340   23.9080   30.0980 C   0  0  0  0  0  0
   37.5890   24.5380   31.2840 C   0  0  0  0  0  0
   38.9010   24.8720   31.9550 C   0  0  0  0  0  0
   33.2510   22.9110   27.7980 C   0  0  1  0  0  0
   39.5960   23.6930   32.6340 C   0  0  0  0  0  0
   41.0530   24.1780   32.9320 C   0  0  0  0  0  0
   33.7420   23.1320   26.3880 C   0  0  2  0  0  0
   34.0300   24.5130   26.1740 O   0  0  0  0  0  0
   32.6530   22.5410   25.4430 C   0  0  1  0  0  0
   33.0610   22.6080   24.1280 O   0  0  0  0  0  0
   32.3800   21.0800   25.8260 C   0  0  2  0  0  0
   31.2260   20.6490   25.0680 O   0  0  0  0  0  0
   32.1410   20.9210   27.4000 C   0  0  2  0  0  0
   33.2190   21.4700   28.1290 O   0  0  0  0  0  0
   32.1570   19.4740   27.8990 C   0  0  0  0  0  0
   33.1850   18.6820   27.2410 O   0  0  0  0  0  0
   33.9218   25.5580   31.5033 H   0  0  0  0  0  0
   35.4501   23.3157   31.6179 H   0  0  0  0  0  0
   36.0523   22.8459   27.9521 H   0  0  0  0  0  0
   38.4588   23.5503   29.6218 H   0  0  0  0  0  0
   39.6054   25.2656   31.2074 H   0  0  0  0  0  0
   38.7319   25.6299   32.7341 H   0  0  0  0  0  0
   32.2560   23.3788   27.8318 H   0  0  0  0  0  0
   39.0616   23.4365   33.5606 H   0  0  0  0  0  0
   39.5928   22.8260   31.9570 H   0  0  0  0  0  0
   41.6144   23.3708   33.4252 H   0  0  0  0  0  0
   41.0189   25.0573   33.5920 H   0  0  0  0  0  0
   41.5501   24.4469   31.9883 H   0  0  0  0  0  0
   34.7332   22.6955   26.1954 H   0  0  0  0  0  0
   34.7853   25.0196   26.7928 H   0  0  0  0  0  0
   31.7333   23.1444   25.4332 H   0  0  0  0  0  0
   33.3028   23.5813   23.6761 H   0  0  0  0  0  0
   33.2105   20.4341   25.5049 H   0  0  0  0  0  0
   31.2398   20.6988   23.9692 H   0  0  0  0  0  0
   31.2028   21.4411   27.6435 H   0  0  0  0  0  0
   32.3539   19.4615   28.9812 H   0  0  0  0  0  0
   31.1819   19.0061   27.6983 H   0  0  0  0  0  0
   33.3125   17.6208   27.5012 H   0  0  0  0  0  0
  1  2  1  0  0  0
  1  8  1  0  0  0
  1 12  1  0  0  0
  2  3  2  0  0  0
  2  4  1  0  0  0
  4  5  1  0  0  0
  4 25  1  0  0  0
  5  6  1  0  0  0
  5  7  1  0  0  0
  5 26  1  0  0  0
  6  8  2  0  0  0
  6  9  1  0  0  0
  7 10  1  0  0  0
  8 27  1  0  0  0
  9 10  2  0  0  0
  9 28  1  0  0  0
 10 11  1  0  0  0
 11 13  1  0  0  0
 11 29  1  0  0  0
 11 30  1  0  0  0
 12 15  1  0  0  0
 12 22  1  0  0  0
 12 31  1  0  0  0
 13 14  1  0  0  0
 13 32  1  0  0  0
 13 33  1  0  0  0
 14 34  1  0  0  0
 14 35  1  0  0  0
 14 36  1  0  0  0
 15 16  1  0  0  0
 15 17  1  0  0  0
 15 37  1  0  0  0
 16 38  1  0  0  0
 17 18  1  0  0  0
 17 19  1  0  0  0
 17 39  1  0  0  0
 18 40  1  0  0  0
 19 20  1  0  0  0
 19 21  1  0  0  0
 19 41  1  0  0  0
 20 42  1  0  0  0
 21 22  1  0  0  0
 21 23  1  0  0  0
 21 43  1  0  0  0
 23 24  1  0  0  0
 23 44  1  0  0  0
 23 45  1  0  0  0
 24 46  1  0  0  0
M  END
> <s_m_source_file>
../4el0_ligand.sdf

> <i_m_source_file_index>
1

> <s_epik_input>
W09IXVtDSDJdW0NAQEhdKE8xKVtDQEBIXShbT0hdKVtDQEhdKFtPSF0pW0NAQEhdKFtPSF0pW0NAQEhdMU4oQyg9TylbTkhdMilbQ0hdPUMoW0NASF0yMylbQ0hdPUMoTzMpW0NIMl1bQ0gyXVtDSDNd

> <s_epik_cmdline>
J2VwaWtfYXBwJywgJy1pbWFlJywgJ2xpZ2FuZF9wcm8ubWFlJywgJy1vbWFlJywgJ2xpZ2FuZF9wcmVwLm1hZScsICctbXMnLCAnMScsICctcGgnLCAnNycsICctcGh0JywgJzAuNScsICctbnQn

> <r_lp_tautomer_probability>
1

> <r_epik_Ionization_Penalty>
  0.0001

> <r_epik_Ionization_Penalty_Charging>
  0.0000

> <r_epik_Ionization_Penalty_Neutral>
  0.0001

> <r_epik_State_Penalty>
 -0.0000

> <r_epik_Charging_Adjusted_Penalty>
0

> <i_epik_Tot_Q>
0

> <i_epik_Tot_abs_Q>
0

> <s_epik_Chemistry_Notes>
This compound contains an acetal/aminal-like group ( X-CH(R)-Y where X, Y are N, S, or O) that may be acid/base labile, releasing an aldehyde.

$$$$
