4el9_ligand
                    3D
 Schrodinger Suite 2020-3.
 53 56  0  0  1  0            999 V2000
   31.2360    5.1950    5.1380 O   0  0  0  0  0  0
   32.0640    5.0630    6.2410 C   0  0  1  0  0  0
   33.4030    4.5390    5.8290 C   0  0  1  0  0  0
   33.8930    5.2960    4.7910 O   0  0  0  0  0  0
   32.2300    6.3950    6.8690 C   0  0  1  0  0  0
   31.0170    6.8500    7.3400 O   0  0  0  0  0  0
   33.1910    6.2720    8.0090 C   0  0  2  0  0  0
   33.3430    7.6080    8.6550 C   0  0  0  0  0  0
   34.4180    5.8120    7.5640 O   0  0  0  0  0  0
   34.3640    4.5580    6.9870 C   0  0  1  0  0  0
   33.9630    3.5480    7.8560 O   0  0  0  0  0  0
   34.6500    3.4860    9.0650 C   0  0  0  0  0  0
   36.1250    3.3520    9.0960 C   0  0  0  0  0  0
   36.8650    3.3240    7.9550 O   0  0  0  0  0  0
   33.9860    3.5180   10.2600 C   0  0  3  0  0  0
   32.5130    3.5710   10.4500 C   0  0  0  0  0  0
   31.6420    2.9720    9.4090 C   0  0  0  0  0  0
   30.2900    2.9570    9.6040 C   0  0  0  0  0  0
   29.7190    3.4950   10.8720 C   0  0  0  0  0  0
   28.3600    3.4670   11.0730 O   0  0  0  0  0  0
   30.5310    4.0010   11.8570 C   0  0  0  0  0  0
   32.0050    4.0160   11.6320 C   0  0  0  0  0  0
   34.6610    3.4200   11.4580 O   0  0  0  0  0  0
   36.0220    3.2960   11.5420 C   0  0  0  0  0  0
   36.6180    3.2140   12.8890 C   0  0  0  0  0  0
   37.9710    3.0860   13.0010 C   0  0  0  0  0  0
   38.4770    3.0230   14.2630 O   0  0  0  0  0  0
   38.8410    3.0460   11.7810 C   0  0  0  0  0  0
   38.2600    3.1330   10.5410 C   0  0  0  0  0  0
   36.7830    3.2600   10.4190 C   0  0  0  0  0  0
   39.0120    3.0890    9.4100 O   0  0  0  0  0  0
   30.9861    4.3136    4.5292 H   0  0  0  0  0  0
   31.5536    4.3543    6.9097 H   0  0  0  0  0  0
   33.3156    3.5242    5.4137 H   0  0  0  0  0  0
   33.3152    5.3923    3.8599 H   0  0  0  0  0  0
   32.5442    7.1468    6.1300 H   0  0  0  0  0  0
   30.1794    7.0039    6.6438 H   0  0  0  0  0  0
   32.8702    5.5053    8.7296 H   0  0  0  0  0  0
   32.3610    7.9607    9.0033 H   0  0  0  0  0  0
   33.7521    8.3232    7.9262 H   0  0  0  0  0  0
   34.0279    7.5252    9.5117 H   0  0  0  0  0  0
   35.4234    4.3758    6.7537 H   0  0  0  0  0  0
   36.3687    3.3929    6.9757 H   0  0  0  0  0  0
   34.5822    3.8606    9.4014 H   0  0  0  0  0  0
   32.0745    2.5500    8.5018 H   0  0  0  0  0  0
   29.6310    2.5532    8.8354 H   0  0  0  0  0  0
   27.6968    3.0646   10.2931 H   0  0  0  0  0  0
   30.1065    4.3841   12.7850 H   0  0  0  0  0  0
   32.6734    4.3820   12.4113 H   0  0  0  0  0  0
   35.9887    3.2550   13.7780 H   0  0  0  0  0  0
   37.7999    3.0558   15.1293 H   0  0  0  0  0  0
   39.9224    2.9490   11.8777 H   0  0  0  0  0  0
   40.1058    2.9953    9.4801 H   0  0  0  0  0  0
  1  2  1  0  0  0
  1 32  1  0  0  0
  2  3  1  0  0  0
  2  5  1  0  0  0
  2 33  1  0  0  0
  3  4  1  0  0  0
  3 10  1  0  0  0
  3 34  1  0  0  0
  4 35  1  0  0  0
  5  6  1  0  0  0
  5  7  1  0  0  0
  5 36  1  0  0  0
  6 37  1  0  0  0
  7  8  1  0  0  0
  7  9  1  0  0  0
  7 38  1  0  0  0
  8 39  1  0  0  0
  8 40  1  0  0  0
  8 41  1  0  0  0
  9 10  1  0  0  0
 10 11  1  0  0  0
 10 42  1  0  0  0
 11 12  1  0  0  0
 12 13  2  0  0  0
 12 15  1  0  0  0
 13 14  1  0  0  0
 13 30  1  0  0  0
 14 43  1  0  0  0
 15 16  1  0  0  0
 15 23  1  0  0  0
 15 44  1  0  0  0
 16 17  2  0  0  0
 16 22  1  0  0  0
 17 18  1  0  0  0
 17 45  1  0  0  0
 18 19  2  0  0  0
 18 46  1  0  0  0
 19 20  1  0  0  0
 19 21  1  0  0  0
 20 47  1  0  0  0
 21 22  2  0  0  0
 21 48  1  0  0  0
 22 49  1  0  0  0
 23 24  1  0  0  0
 24 25  2  0  0  0
 24 30  1  0  0  0
 25 26  1  0  0  0
 25 50  1  0  0  0
 26 27  1  0  0  0
 26 28  2  0  0  0
 27 51  1  0  0  0
 28 29  1  0  0  0
 28 52  1  0  0  0
 29 30  2  0  0  0
 29 31  1  0  0  0
 31 53  1  0  0  0
M  END
> <s_m_source_file>
../4el9_ligand.sdf

> <i_m_source_file_index>
1

> <s_epik_input>
W09IXVtDQEhdMVtDQEhdKFtDSDNdKU9bQ0BIXShbQ0BIXShbT0hdKVtDQEBIXTFbT0hdKU9DKD1DKFtPSF0pYyhjMjMpYyhbT0hdKVtjSF1jKFtjSF0zKVtPSF0pW0NIXShPMiljNFtjSF1bY0hdYyhbT0hdKVtjSF1bY0hdNA==

> <s_epik_cmdline>
J2VwaWtfYXBwJywgJy1pbWFlJywgJ2xpZ2FuZF9wcm8ubWFlJywgJy1vbWFlJywgJ2xpZ2FuZF9wcmVwLm1hZScsICctbXMnLCAnMScsICctcGgnLCAnNycsICctcGh0JywgJzAuNScsICctbnQn

> <r_lp_tautomer_probability>
5e-05

> <r_epik_Ionization_Penalty>
  0.2396

> <r_epik_Ionization_Penalty_Charging>
  0.0000

> <r_epik_Ionization_Penalty_Neutral>
  0.2396

> <r_epik_State_Penalty>
  0.2287

> <r_epik_Charging_Adjusted_Penalty>
0.228744256800243

> <i_epik_Tot_Q>
0

> <i_epik_Tot_abs_Q>
0

> <s_epik_Chemistry_Notes>
This compound contains an acetal/aminal-like group ( X-CH(R)-Y where X, Y are N, S, or O) that may be acid/base labile, releasing an aldehyde.

$$$$
