4elb_ligand
                    3D
 Schrodinger Suite 2020-3.
 70 74  0  0  1  0            999 V2000
   23.1210  -27.1500    0.0530 O   0  0  0  0  0  0
   22.5250  -27.9420   -0.6590 C   0  0  0  0  0  0
   23.2520  -28.9450   -1.3600 N   0  0  0  0  0  0
   22.5960  -29.8290   -2.1530 N   0  0  1  0  0  0
   23.3330  -30.6340   -3.0480 C   0  0  0  0  0  0
   24.7290  -30.2780   -3.3260 C   0  0  0  0  0  0
   25.3710  -30.7560   -4.5200 C   0  0  0  0  0  0
   26.6820  -30.4170   -4.7740 C   0  0  0  0  0  0
   27.3700  -29.6250   -3.8910 C   0  0  0  0  0  0
   26.7520  -29.1660   -2.7430 C   0  0  0  0  0  0
   25.3870  -29.5190   -2.4790 C   0  0  0  0  0  0
   24.7010  -29.0200   -1.2250 C   0  0  2  0  0  0
   25.0300  -29.8990   -0.0340 C   0  0  0  0  0  0
   25.5980  -31.1470   -0.2310 C   0  0  0  0  0  0
   25.8980  -31.9490    0.8620 C   0  0  0  0  0  0
   25.6280  -31.5020    2.1490 C   0  0  0  0  0  0
   25.0610  -30.2530    2.3450 C   0  0  0  0  0  0
   24.7610  -29.4510    1.2530 C   0  0  0  0  0  0
   21.0430  -27.8570   -0.7900 C   0  0  0  0  0  0
   20.3980  -28.4640   -1.8330 C   0  0  0  0  0  0
   18.9630  -28.1500   -2.1030 C   0  0  0  0  0  0
   18.3280  -27.1370   -1.3930 C   0  0  0  0  0  0
   19.0250  -26.4250   -0.4400 O   0  0  0  0  0  0
   19.0070  -26.8560    0.8790 C   0  0  0  0  0  0
   16.9930  -26.8430   -1.6430 C   0  0  0  0  0  0
   16.3660  -25.8400   -0.9410 O   0  0  0  0  0  0
   15.0790  -25.4750   -1.2890 C   0  0  0  0  0  0
   16.2920  -27.5590   -2.6000 C   0  0  0  0  0  0
   16.9230  -28.5730   -3.3100 C   0  0  0  0  0  0
   16.1640  -29.3380   -4.3400 C   0  0  0  0  0  0
   16.3590  -30.8030   -4.1420 C   0  0  0  0  0  0
   16.9280  -31.2980   -2.9680 C   0  0  0  0  0  0
   17.0870  -32.6240   -2.8290 N   0  3  0  0  0  0
   16.7110  -33.4710   -3.7900 C   0  0  0  0  0  0
   16.8950  -34.8760   -3.6100 N   0  0  0  0  0  0
   16.1640  -33.0240   -4.9210 N   0  0  0  0  0  0
   15.9740  -31.7080   -5.1300 C   0  0  0  0  0  0
   15.3920  -31.2560   -6.3360 N   0  0  0  0  0  0
   18.2580  -28.8660   -3.0620 C   0  0  0  0  0  0
   22.1637  -30.4882   -1.5057 H   0  0  0  0  0  0
   23.3780  -31.6635   -2.6632 H   0  0  0  0  0  0
   22.8422  -30.6317   -4.0325 H   0  0  0  0  0  0
   24.8226  -31.3843   -5.2218 H   0  0  0  0  0  0
   27.1727  -30.7787   -5.6776 H   0  0  0  0  0  0
   28.4066  -29.3568   -4.0949 H   0  0  0  0  0  0
   27.3001  -28.5379   -2.0407 H   0  0  0  0  0  0
   25.0451  -27.9870   -1.0680 H   0  0  0  0  0  0
   25.8088  -31.4984   -1.2411 H   0  0  0  0  0  0
   26.3461  -32.9309    0.7098 H   0  0  0  0  0  0
   25.8623  -32.1342    3.0055 H   0  0  0  0  0  0
   24.8510  -29.9011    3.3550 H   0  0  0  0  0  0
   24.3139  -28.4687    1.4053 H   0  0  0  0  0  0
   20.4671  -27.2989   -0.0371 H   0  0  0  0  0  0
   20.9363  -29.1812   -2.4701 H   0  0  0  0  0  0
   19.6112  -26.1744    1.4957 H   0  0  0  0  0  0
   19.4246  -27.8719    0.9385 H   0  0  0  0  0  0
   17.9708  -26.8633    1.2482 H   0  0  0  0  0  0
   14.7364  -24.6648   -0.6285 H   0  0  0  0  0  0
   14.4106  -26.3421   -1.1827 H   0  0  0  0  0  0
   15.0659  -25.1276   -2.3326 H   0  0  0  0  0  0
   15.2452  -27.3267   -2.7959 H   0  0  0  0  0  0
   15.0927  -29.1030   -4.2557 H   0  0  0  0  0  0
   16.5227  -29.0595   -5.3419 H   0  0  0  0  0  0
   17.2390  -30.6179   -2.1750 H   0  0  0  0  0  0
   17.3451  -35.2573   -2.6815 H   0  0  0  0  0  0
   16.5866  -35.5767   -4.3999 H   0  0  0  0  0  0
   15.2384  -30.1797   -6.5030 H   0  0  0  0  0  0
   15.0926  -31.9805   -7.1076 H   0  0  0  0  0  0
   18.7535  -29.6596   -3.6213 H   0  0  0  0  0  0
   17.5344  -33.0310   -1.9102 H   0  0  0  0  0  0
  1  2  2  0  0  0
  2  3  1  0  0  0
  2 19  1  0  0  0
  3  4  1  0  0  0
  3 12  1  0  0  0
  4  5  1  0  0  0
  4 40  1  0  0  0
  5  6  1  0  0  0
  5 41  1  0  0  0
  5 42  1  0  0  0
  6  7  2  0  0  0
  6 11  1  0  0  0
  7  8  1  0  0  0
  7 43  1  0  0  0
  8  9  2  0  0  0
  8 44  1  0  0  0
  9 10  1  0  0  0
  9 45  1  0  0  0
 10 11  2  0  0  0
 10 46  1  0  0  0
 11 12  1  0  0  0
 12 13  1  0  0  0
 12 47  1  0  0  0
 13 14  2  0  0  0
 13 18  1  0  0  0
 14 15  1  0  0  0
 14 48  1  0  0  0
 15 16  2  0  0  0
 15 49  1  0  0  0
 16 17  1  0  0  0
 16 50  1  0  0  0
 17 18  2  0  0  0
 17 51  1  0  0  0
 18 52  1  0  0  0
 19 20  2  0  0  0
 19 53  1  0  0  0
 20 21  1  0  0  0
 20 54  1  0  0  0
 21 22  2  0  0  0
 21 39  1  0  0  0
 22 23  1  0  0  0
 22 25  1  0  0  0
 23 24  1  0  0  0
 24 55  1  0  0  0
 24 56  1  0  0  0
 24 57  1  0  0  0
 25 26  1  0  0  0
 25 28  2  0  0  0
 26 27  1  0  0  0
 27 58  1  0  0  0
 27 59  1  0  0  0
 27 60  1  0  0  0
 28 29  1  0  0  0
 28 61  1  0  0  0
 29 30  1  0  0  0
 29 39  2  0  0  0
 30 31  1  0  0  0
 30 62  1  0  0  0
 30 63  1  0  0  0
 31 32  2  0  0  0
 31 37  1  0  0  0
 32 33  1  0  0  0
 32 64  1  0  0  0
 33 34  2  0  0  0
 33 70  1  0  0  0
 34 35  1  0  0  0
 34 36  1  0  0  0
 35 65  1  0  0  0
 35 66  1  0  0  0
 36 37  2  0  0  0
 37 38  1  0  0  0
 38 67  1  0  0  0
 38 68  1  0  0  0
 39 69  1  0  0  0
M  CHG  1  33   1
M  END
> <s_m_source_file>
../4elb_ligand.sdf

> <i_m_source_file_index>
1

> <s_epik_input>
W2NIXTFbY0hdW2NIXVtjSF1bY0hdYzFbQ0BASF0oYyhjMjMpW2NIXVtjSF1bY0hdW2NIXTMpTihbTkgyK11bQ0gyXTIpQyg9TykvW0NIXT1bQ0hdL2M0YyhPW0NIM10pYyhPW0NIM10pW2NIXWMoW2NIXTQpW0NIMl1jNVtjSF1uYyhbTkgyXSluYzVbTkgyXQ==

> <s_epik_cmdline>
J2VwaWtfYXBwJywgJy1pbWFlJywgJ2xpZ2FuZF9wcm8ubWFlJywgJy1vbWFlJywgJ2xpZ2FuZF9wcmVwLm1hZScsICctbXMnLCAnMScsICctcGgnLCAnNycsICctcGh0JywgJzAuNScsICctbnQn

> <r_lp_tautomer_probability>
0.575010577011949

> <r_epik_Ionization_Penalty>
  0.2380

> <r_epik_Ionization_Penalty_Charging>
  0.2380

> <r_epik_Ionization_Penalty_Neutral>
  0.0000

> <r_epik_State_Penalty>
  0.4697

> <r_epik_Charging_Adjusted_Penalty>
0.707697881122565

> <i_epik_Tot_Q>
1

> <i_epik_Tot_abs_Q>
1

$$$$
