4ele_ligand
                    3D
 Schrodinger Suite 2020-3.
 67 70  0  0  1  0            999 V2000
   22.9780  -27.6870   -0.4530 O   0  0  0  0  0  0
   22.6950  -28.5550   -1.2900 C   0  0  0  0  0  0
   23.7070  -29.6150   -1.6370 N   0  0  0  0  0  0
   23.4070  -30.5520   -2.5340 N   0  0  0  0  0  0
   24.3760  -31.2140   -3.1260 C   0  0  0  0  0  0
   25.7670  -30.6270   -3.1670 C   0  0  0  0  0  0
   26.7000  -30.8580   -4.2000 C   0  0  0  0  0  0
   27.9760  -30.2620   -4.1450 C   0  0  0  0  0  0
   28.3230  -29.4360   -3.0620 C   0  0  0  0  0  0
   27.3930  -29.2030   -2.0260 C   0  0  0  0  0  0
   26.1100  -29.7980   -2.0790 C   0  0  0  0  0  0
   24.9980  -29.6240   -1.0020 C   0  0  2  0  0  0
   25.0850  -30.7130    0.0430 C   0  0  0  0  0  0
   25.6640  -31.9500   -0.5800 C   0  0  0  0  0  0
   25.9840  -30.2630    1.1810 C   0  0  0  0  0  0
   21.3010  -28.5490   -1.9760 C   0  0  0  0  0  0
   20.1410  -28.5840   -1.1940 C   0  0  0  0  0  0
   18.7700  -28.3040   -1.8070 C   0  0  0  0  0  0
   18.0050  -27.2550   -1.3120 C   0  0  0  0  0  0
   18.4880  -26.4850   -0.2920 O   0  0  0  0  0  0
   17.8700  -25.3120    0.0060 C   0  0  0  0  0  0
   16.7430  -26.9830   -1.8570 C   0  0  0  0  0  0
   15.9790  -25.9250   -1.3560 O   0  0  0  0  0  0
   14.6550  -25.7590   -1.7760 C   0  0  0  0  0  0
   16.2500  -27.7800   -2.9080 C   0  0  0  0  0  0
   17.0120  -28.8360   -3.4020 C   0  0  0  0  0  0
   16.4510  -29.6870   -4.5550 C   0  0  0  0  0  0
   16.5010  -31.2050   -4.2600 C   0  0  0  0  0  0
   16.8520  -31.6600   -3.0330 C   0  0  0  0  0  0
   16.8920  -32.9930   -2.7900 N   0  3  0  0  0  0
   16.5730  -33.8930   -3.7950 C   0  0  0  0  0  0
   16.6130  -35.3160   -3.5470 N   0  0  0  0  0  0
   16.2230  -33.4380   -5.0220 N   0  0  0  0  0  0
   16.1800  -32.1210   -5.2690 C   0  0  0  0  0  0
   15.8090  -31.6820   -6.5590 N   0  0  0  0  0  0
   18.2750  -29.1030   -2.8580 C   0  0  0  0  0  0
   24.1720  -32.1909   -3.5887 H   0  0  0  0  0  0
   26.4337  -31.4979   -5.0412 H   0  0  0  0  0  0
   28.6952  -30.4420   -4.9440 H   0  0  0  0  0  0
   29.3101  -28.9754   -3.0221 H   0  0  0  0  0  0
   27.6631  -28.5646   -1.1848 H   0  0  0  0  0  0
   25.0691  -28.6549   -0.4865 H   0  0  0  0  0  0
   24.0776  -30.9317    0.4268 H   0  0  0  0  0  0
   25.0174  -32.2818   -1.4057 H   0  0  0  0  0  0
   25.7294  -32.7455    0.1769 H   0  0  0  0  0  0
   26.6695  -31.7291   -0.9676 H   0  0  0  0  0  0
   25.5654  -29.3564    1.6424 H   0  0  0  0  0  0
   26.9889  -30.0451    0.7902 H   0  0  0  0  0  0
   26.0489  -31.0615    1.9347 H   0  0  0  0  0  0
   21.2241  -28.5174   -3.0729 H   0  0  0  0  0  0
   20.2080  -28.8158   -0.1208 H   0  0  0  0  0  0
   18.3884  -24.8277    0.8466 H   0  0  0  0  0  0
   16.8242  -25.5090    0.2846 H   0  0  0  0  0  0
   17.8971  -24.6499   -0.8720 H   0  0  0  0  0  0
   14.2196  -24.8804   -1.2775 H   0  0  0  0  0  0
   14.0725  -26.6548   -1.5150 H   0  0  0  0  0  0
   14.6318  -25.6113   -2.8658 H   0  0  0  0  0  0
   15.2698  -27.5700   -3.3359 H   0  0  0  0  0  0
   15.4006  -29.4143   -4.7345 H   0  0  0  0  0  0
   17.0386  -29.5026   -5.4664 H   0  0  0  0  0  0
   17.1023  -30.9540   -2.2411 H   0  0  0  0  0  0
   16.8962  -35.6934   -2.5533 H   0  0  0  0  0  0
   16.3602  -36.0219   -4.3519 H   0  0  0  0  0  0
   15.7673  -30.6058   -6.7829 H   0  0  0  0  0  0
   15.5617  -32.4162   -7.3399 H   0  0  0  0  0  0
   18.8739  -29.9268   -3.2464 H   0  0  0  0  0  0
   17.1779  -33.3622   -1.7940 H   0  0  0  0  0  0
  1  2  2  0  0  0
  2  3  1  0  0  0
  2 16  1  0  0  0
  3  4  1  0  0  0
  3 12  1  0  0  0
  4  5  2  0  0  0
  5  6  1  0  0  0
  5 37  1  0  0  0
  6  7  2  0  0  0
  6 11  1  0  0  0
  7  8  1  0  0  0
  7 38  1  0  0  0
  8  9  2  0  0  0
  8 39  1  0  0  0
  9 10  1  0  0  0
  9 40  1  0  0  0
 10 11  2  0  0  0
 10 41  1  0  0  0
 11 12  1  0  0  0
 12 13  1  0  0  0
 12 42  1  0  0  0
 13 14  1  0  0  0
 13 15  1  0  0  0
 13 43  1  0  0  0
 14 44  1  0  0  0
 14 45  1  0  0  0
 14 46  1  0  0  0
 15 47  1  0  0  0
 15 48  1  0  0  0
 15 49  1  0  0  0
 16 17  2  0  0  0
 16 50  1  0  0  0
 17 18  1  0  0  0
 17 51  1  0  0  0
 18 19  2  0  0  0
 18 36  1  0  0  0
 19 20  1  0  0  0
 19 22  1  0  0  0
 20 21  1  0  0  0
 21 52  1  0  0  0
 21 53  1  0  0  0
 21 54  1  0  0  0
 22 23  1  0  0  0
 22 25  2  0  0  0
 23 24  1  0  0  0
 24 55  1  0  0  0
 24 56  1  0  0  0
 24 57  1  0  0  0
 25 26  1  0  0  0
 25 58  1  0  0  0
 26 27  1  0  0  0
 26 36  2  0  0  0
 27 28  1  0  0  0
 27 59  1  0  0  0
 27 60  1  0  0  0
 28 29  2  0  0  0
 28 34  1  0  0  0
 29 30  1  0  0  0
 29 61  1  0  0  0
 30 31  2  0  0  0
 30 67  1  0  0  0
 31 32  1  0  0  0
 31 33  1  0  0  0
 32 62  1  0  0  0
 32 63  1  0  0  0
 33 34  2  0  0  0
 34 35  1  0  0  0
 35 64  1  0  0  0
 35 65  1  0  0  0
 36 66  1  0  0  0
M  CHG  1  30   1
M  END
> <s_m_source_file>
../4ele_ligand.sdf

> <i_m_source_file_index>
1

> <s_epik_input>
W2NIXTFbY0hdW2NIXVtjSF1jKGMxMilbQ0BIXShbQ0hdKFtDSDNdKVtDSDNdKU4oTj1bQ0hdMilDKD1PKS9bQ0hdPVtDSF0vYzNjKE9bQ0gzXSljKE9bQ0gzXSlbY0hdYyhbY0hdMylbQ0gyXWM0W2NIXW5jKFtOSDJdKW5jNFtOSDJd

> <s_epik_cmdline>
J2VwaWtfYXBwJywgJy1pbWFlJywgJ2xpZ2FuZF9wcm8ubWFlJywgJy1vbWFlJywgJ2xpZ2FuZF9wcmVwLm1hZScsICctbXMnLCAnMScsICctcGgnLCAnNycsICctcGh0JywgJzAuNScsICctbnQn

> <r_lp_tautomer_probability>
0.575010577011949

> <r_epik_Ionization_Penalty>
  0.2380

> <r_epik_Ionization_Penalty_Charging>
  0.2380

> <r_epik_Ionization_Penalty_Neutral>
  0.0000

> <r_epik_State_Penalty>
  0.4697

> <r_epik_Charging_Adjusted_Penalty>
0.707697881122565

> <i_epik_Tot_Q>
1

> <i_epik_Tot_abs_Q>
1

> <s_epik_Chemistry_Notes>
This compound has an imine and may undergo hydrolysis.

$$$$
