4elf_ligand
                    3D
 Schrodinger Suite 2020-3.
 69 72  0  0  1  0            999 V2000
   23.2270  -28.2740   -0.6260 O   0  0  0  0  0  0
   22.8000  -29.0390   -1.4580 C   0  0  0  0  0  0
   23.6710  -29.9550   -2.1110 N   0  0  0  0  0  0
   23.1480  -30.8060   -3.0350 N   0  0  1  0  0  0
   24.0010  -31.4500   -3.9580 C   0  0  0  0  0  0
   25.4080  -31.0170   -4.0250 C   0  0  0  0  0  0
   26.2050  -31.3270   -5.1930 C   0  0  0  0  0  0
   27.5180  -30.9130   -5.2350 C   0  0  0  0  0  0
   28.0680  -30.2150   -4.1760 C   0  0  0  0  0  0
   27.2930  -29.9140   -3.0430 C   0  0  0  0  0  0
   25.9420  -30.3360   -3.0020 C   0  0  0  0  0  0
   25.0900  -30.0270   -1.7900 C   0  0  2  0  0  0
   25.3430  -31.1450   -0.7670 C   0  0  0  0  0  0
   26.5700  -31.0400    0.1180 C   0  0  0  0  0  0
   26.5410  -31.6420    1.5120 C   0  0  0  0  0  0
   27.1340  -32.8450    1.4340 F   0  0  0  0  0  0
   25.2870  -31.7820    1.9770 F   0  0  0  0  0  0
   27.2200  -30.8160    2.3330 F   0  0  0  0  0  0
   21.3270  -29.0580   -1.8570 C   0  0  0  0  0  0
   20.4530  -28.1010   -1.3570 C   0  0  0  0  0  0
   18.9760  -27.9780   -1.8170 C   0  0  0  0  0  0
   18.2080  -26.9800   -1.2680 C   0  0  0  0  0  0
   18.7400  -26.1270   -0.2900 O   0  0  0  0  0  0
   18.6430  -26.5200    1.0550 C   0  0  0  0  0  0
   16.8680  -26.8180   -1.6520 C   0  0  0  0  0  0
   16.1070  -25.8160   -1.0810 O   0  0  0  0  0  0
   14.8780  -25.5130   -1.6230 C   0  0  0  0  0  0
   16.3070  -27.6760   -2.6110 C   0  0  0  0  0  0
   17.0570  -28.6930   -3.1770 C   0  0  0  0  0  0
   16.3660  -29.6020   -4.2500 C   0  0  0  0  0  0
   16.4370  -31.1080   -4.0120 C   0  0  0  0  0  0
   16.9020  -31.6640   -2.8120 C   0  0  0  0  0  0
   16.9430  -33.0140   -2.6760 N   0  3  0  0  0  0
   16.5340  -33.8430   -3.6800 C   0  0  0  0  0  0
   16.6010  -35.2510   -3.5030 N   0  0  0  0  0  0
   16.0860  -33.3350   -4.8470 N   0  0  0  0  0  0
   16.0140  -32.0020   -5.0410 C   0  0  0  0  0  0
   15.5150  -31.4860   -6.2820 N   0  0  0  0  0  0
   18.4160  -28.8420   -2.7860 C   0  0  0  0  0  0
   22.7447  -31.5649   -2.4856 H   0  0  0  0  0  0
   24.0454  -32.5248   -3.7280 H   0  0  0  0  0  0
   23.6118  -31.3089   -4.9771 H   0  0  0  0  0  0
   25.7725  -31.8799   -6.0269 H   0  0  0  0  0  0
   28.1281  -31.1374   -6.1099 H   0  0  0  0  0  0
   29.1094  -29.8961   -4.2201 H   0  0  0  0  0  0
   27.7257  -29.3635   -2.2077 H   0  0  0  0  0  0
   25.3231  -29.0209   -1.4113 H   0  0  0  0  0  0
   24.4938  -31.2034   -0.0702 H   0  0  0  0  0  0
   25.4527  -32.1050   -1.2926 H   0  0  0  0  0  0
   27.4200  -31.5361   -0.3733 H   0  0  0  0  0  0
   26.8113  -29.9800    0.2860 H   0  0  0  0  0  0
   20.9584  -29.8342   -2.5438 H   0  0  0  0  0  0
   20.7984  -27.3838   -0.5979 H   0  0  0  0  0  0
   19.1020  -25.7523    1.6953 H   0  0  0  0  0  0
   19.1673  -27.4767    1.1962 H   0  0  0  0  0  0
   17.5837  -26.6388    1.3268 H   0  0  0  0  0  0
   14.4144  -24.6982   -1.0476 H   0  0  0  0  0  0
   14.2315  -26.4022   -1.5857 H   0  0  0  0  0  0
   15.0064  -25.1966   -2.6687 H   0  0  0  0  0  0
   15.2687  -27.5400   -2.9136 H   0  0  0  0  0  0
   15.2953  -29.3559   -4.3044 H   0  0  0  0  0  0
   16.8321  -29.4299   -5.2314 H   0  0  0  0  0  0
   17.2274  -31.0186   -1.9962 H   0  0  0  0  0  0
   16.9656  -35.6692   -2.5532 H   0  0  0  0  0  0
   16.2883  -35.9230   -4.3158 H   0  0  0  0  0  0
   15.4557  -30.3993   -6.4417 H   0  0  0  0  0  0
   15.1914  -32.1768   -7.0745 H   0  0  0  0  0  0
   19.0278  -29.6246   -3.2346 H   0  0  0  0  0  0
   17.3117  -33.4617   -1.7413 H   0  0  0  0  0  0
  1  2  2  0  0  0
  2  3  1  0  0  0
  2 19  1  0  0  0
  3  4  1  0  0  0
  3 12  1  0  0  0
  4  5  1  0  0  0
  4 40  1  0  0  0
  5  6  1  0  0  0
  5 41  1  0  0  0
  5 42  1  0  0  0
  6  7  2  0  0  0
  6 11  1  0  0  0
  7  8  1  0  0  0
  7 43  1  0  0  0
  8  9  2  0  0  0
  8 44  1  0  0  0
  9 10  1  0  0  0
  9 45  1  0  0  0
 10 11  2  0  0  0
 10 46  1  0  0  0
 11 12  1  0  0  0
 12 13  1  0  0  0
 12 47  1  0  0  0
 13 14  1  0  0  0
 13 48  1  0  0  0
 13 49  1  0  0  0
 14 15  1  0  0  0
 14 50  1  0  0  0
 14 51  1  0  0  0
 15 16  1  0  0  0
 15 17  1  0  0  0
 15 18  1  0  0  0
 19 20  2  0  0  0
 19 52  1  0  0  0
 20 21  1  0  0  0
 20 53  1  0  0  0
 21 22  2  0  0  0
 21 39  1  0  0  0
 22 23  1  0  0  0
 22 25  1  0  0  0
 23 24  1  0  0  0
 24 54  1  0  0  0
 24 55  1  0  0  0
 24 56  1  0  0  0
 25 26  1  0  0  0
 25 28  2  0  0  0
 26 27  1  0  0  0
 27 57  1  0  0  0
 27 58  1  0  0  0
 27 59  1  0  0  0
 28 29  1  0  0  0
 28 60  1  0  0  0
 29 30  1  0  0  0
 29 39  2  0  0  0
 30 31  1  0  0  0
 30 61  1  0  0  0
 30 62  1  0  0  0
 31 32  2  0  0  0
 31 37  1  0  0  0
 32 33  1  0  0  0
 32 63  1  0  0  0
 33 34  2  0  0  0
 33 69  1  0  0  0
 34 35  1  0  0  0
 34 36  1  0  0  0
 35 64  1  0  0  0
 35 65  1  0  0  0
 36 37  2  0  0  0
 37 38  1  0  0  0
 38 66  1  0  0  0
 38 67  1  0  0  0
 39 68  1  0  0  0
M  CHG  1  33   1
M  END
> <s_m_source_file>
../4elf_ligand.sdf

> <i_m_source_file_index>
1

> <s_epik_input>
W2NIXTFbY0hdW2NIXVtjSF1jKGMxMilbQ0BIXShbQ0gyXVtDSDJdQyhGKShGKUYpTihbTkgyK11bQ0gyXTIpQyg9TykvW0NIXT1bQ0hdL2MzYyhPW0NIM10pYyhPW0NIM10pW2NIXWMoW2NIXTMpW0NIMl1jNFtjSF1uYyhbTkgyXSluYzRbTkgyXQ==

> <s_epik_cmdline>
J2VwaWtfYXBwJywgJy1pbWFlJywgJ2xpZ2FuZF9wcm8ubWFlJywgJy1vbWFlJywgJ2xpZ2FuZF9wcmVwLm1hZScsICctbXMnLCAnMScsICctcGgnLCAnNycsICctcGh0JywgJzAuNScsICctbnQn

> <r_lp_tautomer_probability>
0.575010577011949

> <r_epik_Ionization_Penalty>
  0.2380

> <r_epik_Ionization_Penalty_Charging>
  0.2380

> <r_epik_Ionization_Penalty_Neutral>
  0.0000

> <r_epik_State_Penalty>
  0.4697

> <r_epik_Charging_Adjusted_Penalty>
0.707697881122564

> <i_epik_Tot_Q>
1

> <i_epik_Tot_abs_Q>
1

$$$$
