4elg_ligand
                    3D
 Schrodinger Suite 2020-3.
 72 75  0  0  1  0            999 V2000
   15.2950  -31.4430   -6.4220 N   0  0  0  0  0  0
   15.7020  -31.9100   -5.0520 C   0  0  0  0  0  0
   15.9830  -30.9750   -4.0540 C   0  0  0  0  0  0
   15.8760  -29.5210   -4.3530 C   0  0  0  0  0  0
   16.5530  -28.6570   -3.2320 C   0  0  0  0  0  0
   15.8450  -27.5350   -2.6840 C   0  0  0  0  0  0
   16.4330  -26.7480   -1.6850 C   0  0  0  0  0  0
   15.7490  -25.6850   -1.1690 O   0  0  0  0  0  0
   14.3230  -25.6180   -1.3360 C   0  0  0  0  0  0
   17.7190  -27.0530   -1.2170 C   0  0  0  0  0  0
   18.2970  -26.2730   -0.2290 O   0  0  0  0  0  0
   18.4240  -26.7910    1.0960 C   0  0  0  0  0  0
   18.4210  -28.1520   -1.7530 C   0  0  0  0  0  0
   22.6790  -28.1570   -0.8110 O   0  0  0  0  0  0
   17.8140  -28.9600   -2.7800 C   0  0  0  0  0  0
   16.3700  -31.4550   -2.7470 C   0  0  0  0  0  0
   16.4490  -32.8000   -2.5370 N   0  3  0  0  0  0
   16.1700  -33.6630   -3.5300 C   0  0  0  0  0  0
   16.2620  -35.0790   -3.2800 N   0  0  0  0  0  0
   15.7970  -33.2330   -4.7880 N   0  0  0  0  0  0
   19.8500  -28.4900   -1.2310 C   0  0  0  0  0  0
   20.8800  -28.8180   -2.1310 C   0  0  0  0  0  0
   22.2880  -28.9090   -1.6470 C   0  0  0  0  0  0
   23.1740  -29.8990   -2.1840 N   0  0  0  0  0  0
   22.7540  -30.7600   -3.1300 N   0  0  1  0  0  0
   23.5440  -30.7190   -4.3280 C   0  0  0  0  0  0
   24.5240  -29.9840   -1.7210 C   0  0  1  0  0  0
   24.6470  -31.1550   -0.7480 C   0  0  0  0  0  0
   25.9790  -31.2800    0.0740 C   0  0  0  0  0  0
   26.0720  -30.3060    1.2180 C   0  0  0  0  0  0
   25.4770  -30.1780   -2.8510 C   0  0  0  0  0  0
   25.0010  -30.5310   -4.0970 C   0  0  0  0  0  0
   25.9030  -30.7170   -5.1780 C   0  0  0  0  0  0
   27.2890  -30.5420   -4.9800 C   0  0  0  0  0  0
   27.7630  -30.1920   -3.7400 C   0  0  0  0  0  0
   26.8500  -30.0050   -2.6510 C   0  0  0  0  0  0
   26.3490  -32.7890    0.4760 C   0  0  0  0  0  0
   15.2180  -30.3667   -6.6359 H   0  0  0  0  0  0
   15.0743  -32.1776   -7.2104 H   0  0  0  0  0  0
   16.3746  -29.3057   -5.3096 H   0  0  0  0  0  0
   14.8153  -29.2376   -4.4204 H   0  0  0  0  0  0
   14.8457  -27.2942   -3.0466 H   0  0  0  0  0  0
   13.9409  -24.7021   -0.8615 H   0  0  0  0  0  0
   13.8571  -26.4964   -0.8656 H   0  0  0  0  0  0
   14.0797  -25.6042   -2.4087 H   0  0  0  0  0  0
   18.9021  -26.0380    1.7398 H   0  0  0  0  0  0
   19.0410  -27.7014    1.0762 H   0  0  0  0  0  0
   17.4267  -27.0325    1.4924 H   0  0  0  0  0  0
   18.3543  -29.8097   -3.1972 H   0  0  0  0  0  0
   16.5948  -30.7541   -1.9431 H   0  0  0  0  0  0
   16.5573  -35.4438   -2.2852 H   0  0  0  0  0  0
   16.0369  -35.7952   -4.0840 H   0  0  0  0  0  0
   20.0501  -28.4707   -0.1495 H   0  0  0  0  0  0
   20.6463  -29.0068   -3.1892 H   0  0  0  0  0  0
   22.8283  -31.7013   -2.7443 H   0  0  0  0  0  0
   23.4258  -31.6644   -4.8777 H   0  0  0  0  0  0
   23.2089  -29.8832   -4.9598 H   0  0  0  0  0  0
   24.7321  -29.0119   -1.2501 H   0  0  0  0  0  0
   23.8468  -31.0923    0.0042 H   0  0  0  0  0  0
   24.5573  -32.1019   -1.3006 H   0  0  0  0  0  0
   26.7735  -30.9051   -0.5880 H   0  0  0  0  0  0
   25.8050  -29.2990    0.8648 H   0  0  0  0  0  0
   27.1001  -30.2968    1.6091 H   0  0  0  0  0  0
   25.3788  -30.6105    2.0160 H   0  0  0  0  0  0
   25.5243  -30.9952   -6.1615 H   0  0  0  0  0  0
   27.9817  -30.6843   -5.8095 H   0  0  0  0  0  0
   28.8332  -30.0564   -3.5837 H   0  0  0  0  0  0
   27.2263  -29.7277   -1.6663 H   0  0  0  0  0  0
   26.2580  -33.4368   -0.4083 H   0  0  0  0  0  0
   25.6607  -33.1390    1.2594 H   0  0  0  0  0  0
   27.3819  -32.8254    0.8524 H   0  0  0  0  0  0
   16.7427  -33.1862   -1.5498 H   0  0  0  0  0  0
  1  2  1  0  0  0
  1 38  1  0  0  0
  1 39  1  0  0  0
  2  3  2  0  0  0
  2 20  1  0  0  0
  3  4  1  0  0  0
  3 16  1  0  0  0
  4  5  1  0  0  0
  4 40  1  0  0  0
  4 41  1  0  0  0
  5  6  2  0  0  0
  5 15  1  0  0  0
  6  7  1  0  0  0
  6 42  1  0  0  0
  7  8  1  0  0  0
  7 10  2  0  0  0
  8  9  1  0  0  0
  9 43  1  0  0  0
  9 44  1  0  0  0
  9 45  1  0  0  0
 10 11  1  0  0  0
 10 13  1  0  0  0
 11 12  1  0  0  0
 12 46  1  0  0  0
 12 47  1  0  0  0
 12 48  1  0  0  0
 13 15  2  0  0  0
 13 21  1  0  0  0
 14 23  2  0  0  0
 15 49  1  0  0  0
 16 17  2  0  0  0
 16 50  1  0  0  0
 17 18  1  0  0  0
 17 72  1  0  0  0
 18 19  1  0  0  0
 18 20  2  0  0  0
 19 51  1  0  0  0
 19 52  1  0  0  0
 21 22  2  0  0  0
 21 53  1  0  0  0
 22 23  1  0  0  0
 22 54  1  0  0  0
 23 24  1  0  0  0
 24 25  1  0  0  0
 24 27  1  0  0  0
 25 26  1  0  0  0
 25 55  1  0  0  0
 26 32  1  0  0  0
 26 56  1  0  0  0
 26 57  1  0  0  0
 27 28  1  0  0  0
 27 31  1  0  0  0
 27 58  1  0  0  0
 28 29  1  0  0  0
 28 59  1  0  0  0
 28 60  1  0  0  0
 29 30  1  0  0  0
 29 37  1  0  0  0
 29 61  1  0  0  0
 30 62  1  0  0  0
 30 63  1  0  0  0
 30 64  1  0  0  0
 31 32  2  0  0  0
 31 36  1  0  0  0
 32 33  1  0  0  0
 33 34  2  0  0  0
 33 65  1  0  0  0
 34 35  1  0  0  0
 34 66  1  0  0  0
 35 36  2  0  0  0
 35 67  1  0  0  0
 36 68  1  0  0  0
 37 69  1  0  0  0
 37 70  1  0  0  0
 37 71  1  0  0  0
M  CHG  1  17   1
M  END
> <s_m_source_file>
../4elg_ligand.sdf

> <i_m_source_file_index>
1

> <s_epik_input>
W05IMl1jKG4xKW5bY0hdYyhjMVtOSDJdKVtDSDJdYzJbY0hdYyhPW0NIM10pYyhPW0NIM10pYyhbY0hdMikvW0NIXT1bQ0hdL0MoPU8pTihbQ0BIXTNbQ0gyXVtDSF0oW0NIM10pW0NIM10pW05IMitdW0NIMl1jKGMzNClbY0hdW2NIXVtjSF1bY0hdNA==

> <s_epik_cmdline>
J2VwaWtfYXBwJywgJy1pbWFlJywgJ2xpZ2FuZF9wcm8ubWFlJywgJy1vbWFlJywgJ2xpZ2FuZF9wcmVwLm1hZScsICctbXMnLCAnMScsICctcGgnLCAnNycsICctcGh0JywgJzAuNScsICctbnQn

> <r_lp_tautomer_probability>
0.575010577011949

> <r_epik_Ionization_Penalty>
  0.2381

> <r_epik_Ionization_Penalty_Charging>
  0.2380

> <r_epik_Ionization_Penalty_Neutral>
  0.0001

> <r_epik_State_Penalty>
  0.4697

> <r_epik_Charging_Adjusted_Penalty>
0.707697881122565

> <i_epik_Tot_Q>
1

> <i_epik_Tot_abs_Q>
1

$$$$
