4elh_ligand
                    3D
 Schrodinger Suite 2020-3.
 72 75  0  0  1  0            999 V2000
   21.7780  -26.2860    0.7110 O   0  0  0  0  0  0
   21.5530  -26.9550   -0.3260 C   0  0  0  0  0  0
   22.5600  -27.9280   -0.7920 N   0  0  0  0  0  0
   22.3380  -28.6820   -1.9090 N   0  0  1  0  0  0
   23.3590  -29.5490   -2.3760 C   0  0  0  0  0  0
   24.3170  -30.0680   -1.3890 C   0  0  0  0  0  0
   25.0190  -31.3040   -1.6220 C   0  0  0  0  0  0
   25.9290  -31.7920   -0.6500 C   0  0  0  0  0  0
   26.1490  -31.0900    0.5150 C   0  0  0  0  0  0
   25.4670  -29.8950    0.7440 C   0  0  0  0  0  0
   24.5270  -29.3880   -0.2610 C   0  0  0  0  0  0
   23.7850  -28.0870   -0.0010 C   0  0  1  0  0  0
   24.7550  -26.9260   -0.1140 C   0  0  0  0  0  0
   24.7470  -25.9260   -1.0460 C   0  0  0  0  0  0
   24.6210  -24.4680   -0.6000 C   0  0  0  0  0  0
   25.5550  -26.1650   -2.3260 C   0  0  0  0  0  0
   20.2190  -26.7350   -1.0880 C   0  0  0  0  0  0
   19.5120  -27.8360   -1.5070 C   0  0  0  0  0  0
   18.0880  -27.7500   -1.9420 C   0  0  0  0  0  0
   17.2030  -26.7650   -1.4690 C   0  0  0  0  0  0
   17.6330  -25.7980   -0.5310 O   0  0  0  0  0  0
   17.2350  -24.4800   -0.6250 C   0  0  0  0  0  0
   15.8850  -26.7550   -1.9170 C   0  0  0  0  0  0
   14.9590  -25.7930   -1.4710 O   0  0  0  0  0  0
   13.6120  -25.8290   -1.9380 C   0  0  0  0  0  0
   15.4490  -27.7420   -2.8530 C   0  0  0  0  0  0
   16.3320  -28.7280   -3.3200 C   0  0  0  0  0  0
   15.8280  -29.7440   -4.3180 C   0  0  0  0  0  0
   16.0930  -31.2070   -4.0490 C   0  0  0  0  0  0
   16.5600  -31.7680   -2.8320 C   0  0  0  0  0  0
   16.7380  -33.1480   -2.7640 N   0  3  0  0  0  0
   16.4650  -33.9390   -3.8140 C   0  0  0  0  0  0
   16.6500  -35.3570   -3.7720 N   0  0  0  0  0  0
   16.0290  -33.4120   -4.9770 N   0  0  0  0  0  0
   15.8310  -32.0740   -5.1140 C   0  0  0  0  0  0
   15.3520  -31.5480   -6.3540 N   0  0  0  0  0  0
   17.6400  -28.7370   -2.8830 C   0  0  0  0  0  0
   21.5669  -29.3001   -1.6567 H   0  0  0  0  0  0
   22.9031  -30.4397   -2.8329 H   0  0  0  0  0  0
   23.9707  -29.0251   -3.1252 H   0  0  0  0  0  0
   24.8512  -31.8626   -2.5428 H   0  0  0  0  0  0
   26.4580  -32.7287   -0.8257 H   0  0  0  0  0  0
   26.8540  -31.4674    1.2556 H   0  0  0  0  0  0
   25.6322  -29.3396    1.6672 H   0  0  0  0  0  0
   23.3605  -28.1036    1.0136 H   0  0  0  0  0  0
   24.7184  -26.3266    0.8076 H   0  0  0  0  0  0
   25.7744  -27.3127   -0.2596 H   0  0  0  0  0  0
   23.7080  -26.2558   -1.1936 H   0  0  0  0  0  0
   24.0247  -24.4171    0.3229 H   0  0  0  0  0  0
   24.1250  -23.8846   -1.3897 H   0  0  0  0  0  0
   25.6228  -24.0540   -0.4126 H   0  0  0  0  0  0
   25.5786  -27.2419   -2.5490 H   0  0  0  0  0  0
   26.5820  -25.7970   -2.1853 H   0  0  0  0  0  0
   25.0843  -25.6276   -3.1624 H   0  0  0  0  0  0
   19.8366  -25.7245   -1.2946 H   0  0  0  0  0  0
   19.9951  -28.8240   -1.5296 H   0  0  0  0  0  0
   17.6807  -23.9028    0.1985 H   0  0  0  0  0  0
   16.1383  -24.4227   -0.5614 H   0  0  0  0  0  0
   17.5687  -24.0639   -1.5870 H   0  0  0  0  0  0
   13.0438  -25.0046   -1.4824 H   0  0  0  0  0  0
   13.1528  -26.7889   -1.6592 H   0  0  0  0  0  0
   13.6005  -25.7212   -3.0326 H   0  0  0  0  0  0
   14.4187  -27.7293   -3.2087 H   0  0  0  0  0  0
   14.7338  -29.6659   -4.4000 H   0  0  0  0  0  0
   16.2840  -29.5506   -5.3002 H   0  0  0  0  0  0
   16.7742  -31.1345   -1.9713 H   0  0  0  0  0  0
   17.0039  -35.8384   -2.8484 H   0  0  0  0  0  0
   16.4384  -35.9659   -4.6633 H   0  0  0  0  0  0
   15.1912  -30.4657   -6.4668 H   0  0  0  0  0  0
   15.1443  -32.2256   -7.1953 H   0  0  0  0  0  0
   18.3331  -29.4931   -3.2519 H   0  0  0  0  0  0
   17.1089  -33.6097   -1.8371 H   0  0  0  0  0  0
  1  2  2  0  0  0
  2  3  1  0  0  0
  2 17  1  0  0  0
  3  4  1  0  0  0
  3 12  1  0  0  0
  4  5  1  0  0  0
  4 38  1  0  0  0
  5  6  1  0  0  0
  5 39  1  0  0  0
  5 40  1  0  0  0
  6  7  2  0  0  0
  6 11  1  0  0  0
  7  8  1  0  0  0
  7 41  1  0  0  0
  8  9  2  0  0  0
  8 42  1  0  0  0
  9 10  1  0  0  0
  9 43  1  0  0  0
 10 11  2  0  0  0
 10 44  1  0  0  0
 11 12  1  0  0  0
 12 13  1  0  0  0
 12 45  1  0  0  0
 13 14  1  0  0  0
 13 46  1  0  0  0
 13 47  1  0  0  0
 14 15  1  0  0  0
 14 16  1  0  0  0
 14 48  1  0  0  0
 15 49  1  0  0  0
 15 50  1  0  0  0
 15 51  1  0  0  0
 16 52  1  0  0  0
 16 53  1  0  0  0
 16 54  1  0  0  0
 17 18  2  0  0  0
 17 55  1  0  0  0
 18 19  1  0  0  0
 18 56  1  0  0  0
 19 20  2  0  0  0
 19 37  1  0  0  0
 20 21  1  0  0  0
 20 23  1  0  0  0
 21 22  1  0  0  0
 22 57  1  0  0  0
 22 58  1  0  0  0
 22 59  1  0  0  0
 23 24  1  0  0  0
 23 26  2  0  0  0
 24 25  1  0  0  0
 25 60  1  0  0  0
 25 61  1  0  0  0
 25 62  1  0  0  0
 26 27  1  0  0  0
 26 63  1  0  0  0
 27 28  1  0  0  0
 27 37  2  0  0  0
 28 29  1  0  0  0
 28 64  1  0  0  0
 28 65  1  0  0  0
 29 30  2  0  0  0
 29 35  1  0  0  0
 30 31  1  0  0  0
 30 66  1  0  0  0
 31 32  2  0  0  0
 31 72  1  0  0  0
 32 33  1  0  0  0
 32 34  1  0  0  0
 33 67  1  0  0  0
 33 68  1  0  0  0
 34 35  2  0  0  0
 35 36  1  0  0  0
 36 69  1  0  0  0
 36 70  1  0  0  0
 37 71  1  0  0  0
M  CHG  1  31   1
M  END
> <s_m_source_file>
../4elh_ligand.sdf

> <i_m_source_file_index>
1

> <s_epik_input>
W2NIXTFbY0hdW2NIXVtjSF1jKGMxMilbQ0BASF0oW0NIMl1bQ0hdKFtDSDNdKVtDSDNdKU4oW05IMitdW0NIMl0yKUMoPU8pL1tDSF09W0NIXS9jM2MoT1tDSDNdKWMoT1tDSDNdKVtjSF1jKFtjSF0zKVtDSDJdYzRbY0hdbmMoW05IMl0pbmM0W05IMl0=

> <s_epik_cmdline>
J2VwaWtfYXBwJywgJy1pbWFlJywgJ2xpZ2FuZF9wcm8ubWFlJywgJy1vbWFlJywgJ2xpZ2FuZF9wcmVwLm1hZScsICctbXMnLCAnMScsICctcGgnLCAnNycsICctcGh0JywgJzAuNScsICctbnQn

> <r_lp_tautomer_probability>
0.575010577011949

> <r_epik_Ionization_Penalty>
  0.2381

> <r_epik_Ionization_Penalty_Charging>
  0.2380

> <r_epik_Ionization_Penalty_Neutral>
  0.0001

> <r_epik_State_Penalty>
  0.4697

> <r_epik_Charging_Adjusted_Penalty>
0.707697881122565

> <i_epik_Tot_Q>
1

> <i_epik_Tot_abs_Q>
1

$$$$
