4em7_ligand
                    3D
 Schrodinger Suite 2020-3.
 31 33  0  0  1  0            999 V2000
   12.1830   27.0230    8.3150 C   0  0  0  0  0  0
   11.6610   27.6750    9.4080 C   0  0  0  0  0  0
   11.9550   29.0040    9.6230 C   0  0  0  0  0  0
   12.7720   29.6770    8.7380 C   0  0  0  0  0  0
   13.3050   29.0350    7.6380 C   0  0  0  0  0  0
   12.9980   27.7050    7.4400 C   0  0  0  0  0  0
   14.1520   29.7240    6.6900 C   0  0  0  0  0  0
   15.1430   29.0550    6.0000 C   0  0  0  0  0  0
   15.8770   29.8020    5.0930 C   0  0  0  0  0  0
   16.9480   29.5280    4.2050 C   0  0  0  0  0  0
   17.2660   30.6980    3.5480 C   0  0  0  0  0  0
   16.4250   31.6680    4.0070 N   0  3  0  0  0  0
   15.5810   31.1410    4.9430 C   0  0  0  0  0  0
   14.6440   31.8290    5.5890 N   0  0  0  0  0  0
   13.9620   31.0650    6.4450 C   0  0  0  0  0  0
   11.3960   29.6880   10.7810 C   0  0  0  0  0  0
   10.0870   29.5430   11.0140 C   0  0  0  0  0  0
    9.6050   30.2860   12.2350 C   0  0  0  0  0  0
    9.9430   31.4990   12.3150 O   0  5  0  0  0  0
    8.9040   29.5960   13.0250 O   0  0  0  0  0  0
   11.9525   25.9717    8.1426 H   0  0  0  0  0  0
   11.0147   27.1403   10.1041 H   0  0  0  0  0  0
   12.9996   30.7291    8.9095 H   0  0  0  0  0  0
   13.4083   27.1843    6.5747 H   0  0  0  0  0  0
   15.3149   27.9843    6.1846 H   0  0  0  0  0  0
   17.3659   28.5123    4.1442 H   0  0  0  0  0  0
   18.0472   30.8243    2.7984 H   0  0  0  0  0  0
   13.1501   31.5014    7.0453 H   0  0  0  0  0  0
   12.0091   30.3064   11.4531 H   0  0  0  0  0  0
    9.4735   28.9262   10.3408 H   0  0  0  0  0  0
   16.3515   32.7318    3.7370 H   0  0  0  0  0  0
  1  2  2  0  0  0
  1  6  1  0  0  0
  1 21  1  0  0  0
  2  3  1  0  0  0
  2 22  1  0  0  0
  3  4  2  0  0  0
  3 16  1  0  0  0
  4  5  1  0  0  0
  4 23  1  0  0  0
  5  6  2  0  0  0
  5  7  1  0  0  0
  6 24  1  0  0  0
  7  8  2  0  0  0
  7 15  1  0  0  0
  8  9  1  0  0  0
  8 25  1  0  0  0
  9 10  2  0  0  0
  9 13  1  0  0  0
 10 11  1  0  0  0
 10 26  1  0  0  0
 11 12  1  0  0  0
 11 27  1  0  0  0
 12 13  2  0  0  0
 12 31  1  0  0  0
 13 14  1  0  0  0
 14 15  2  0  0  0
 15 28  1  0  0  0
 16 17  2  0  0  0
 16 29  1  0  0  0
 17 18  1  0  0  0
 17 30  1  0  0  0
 18 19  1  0  0  0
 18 20  2  0  0  0
M  CHG  2  12   1  19  -1
M  END
> <s_m_source_file>
../4em7_ligand.sdf

> <i_m_source_file_index>
1

> <s_epik_input>
W09IXUMoPU8pXFtDSF09W0NIXVxjMVtjSF1bY0hdW2NIXWMoW2NIXTEpLWMoW2NIXTIpW2NIXW5jKGMyPTMpPU5bQ0gyXVtDSF0z

> <s_epik_cmdline>
J2VwaWtfYXBwJywgJy1pbWFlJywgJ2xpZ2FuZF9wcm8ubWFlJywgJy1vbWFlJywgJ2xpZ2FuZF9wcmVwLm1hZScsICctbXMnLCAnMScsICctcGgnLCAnNycsICctcGh0JywgJzAuNScsICctbnQn

> <r_epik_Ionization_Penalty>
  0.1914

> <r_epik_Ionization_Penalty_Charging>
  0.1914

> <r_epik_Ionization_Penalty_Neutral>
  0.0000

> <r_epik_State_Penalty>
  0.3043

> <r_epik_Charging_Adjusted_Penalty>
0.495623866514788

> <i_epik_Tot_Q>
0

> <i_epik_Tot_abs_Q>
2

> <s_epik_Chemistry_Notes>
This compound has an imine and may undergo hydrolysis.

$$$$
