4emr_ligand
                    3D
 Schrodinger Suite 2020-3.
 47 49  0  0  1  0            999 V2000
  -15.5330  -16.1350   -5.0460 P   0  0  2  0  0  0
  -15.4690  -17.6200   -4.7220 O   0  5  0  0  0  0
  -14.8290  -15.0580   -4.3620 O   0  0  0  0  0  0
  -17.0570  -15.6620   -5.0840 O   0  0  0  0  0  0
  -15.0760  -15.8790   -6.5540 O   0  0  0  0  0  0
  -18.0860  -15.3040   -3.9230 P   0  0  1  0  0  0
  -17.5510  -15.2160   -2.5060 O   0  5  0  0  0  0
  -18.7950  -14.0690   -4.4180 O   0  0  0  0  0  0
  -18.9640  -16.6540   -3.9980 O   0  0  0  0  0  0
  -20.5000  -16.9010   -4.5510 P   0  0  0  0  0  0
  -20.6030  -18.3800   -4.2180 O   0  0  0  0  0  0
  -20.4230  -16.7570   -6.0790 O   0  5  0  0  0  0
  -21.6160  -16.1230   -3.7680 O   0  5  0  0  0  0
  -15.3230  -14.6970   -7.4000 C   0  0  0  0  0  0
  -16.1700  -14.8600   -8.6490 C   0  0  1  0  0  0
  -15.8090  -16.0990   -9.3170 O   0  0  0  0  0  0
  -17.6740  -14.8040   -8.2940 C   0  0  1  0  0  0
  -18.4940  -14.3670   -9.4330 O   0  0  0  0  0  0
  -17.9630  -16.2550   -8.0890 C   0  0  1  0  0  0
  -19.3470  -16.5730   -8.3570 O   0  0  0  0  0  0
  -16.9960  -16.8840   -9.0870 C   0  0  2  0  0  0
  -16.3930  -18.0950   -8.5170 N   0  3  0  0  0  0
  -16.6260  -18.7650   -7.3800 C   0  0  0  0  0  0
  -15.7650  -19.8260   -7.2980 N   0  0  0  0  0  0
  -15.7540  -20.7990   -6.1450 C   0  0  0  0  0  0
  -14.9900  -19.7500   -8.4000 C   0  0  0  0  0  0
  -13.9170  -20.5760   -8.9370 C   0  0  0  0  0  0
  -13.5400  -21.5660   -8.2890 O   0  0  0  0  0  0
  -13.3780  -20.2250  -10.1240 N   0  0  0  0  0  0
  -13.8000  -19.1300  -10.8500 C   0  0  0  0  0  0
  -13.2090  -18.8580  -12.0240 N   0  0  0  0  0  0
  -14.8190  -18.3420  -10.4320 N   0  0  0  0  0  0
  -15.4060  -18.6190   -9.2140 C   0  0  0  0  0  0
  -15.8404  -13.9258   -6.8104 H   0  0  0  0  0  0
  -14.3639  -14.2990   -7.7630 H   0  0  0  0  0  0
  -15.9400  -14.0674   -9.3763 H   0  0  0  0  0  0
  -17.9264  -14.1202   -7.4702 H   0  0  0  0  0  0
  -18.4490  -13.3223   -9.7743 H   0  0  0  0  0  0
  -17.8728  -16.6103   -7.0519 H   0  0  0  0  0  0
  -20.1388  -16.1763   -7.7046 H   0  0  0  0  0  0
  -17.5676  -17.0250  -10.0162 H   0  0  0  0  0  0
  -17.3814  -18.5061   -6.6381 H   0  0  0  0  0  0
  -16.5473  -20.5311   -5.4316 H   0  0  0  0  0  0
  -14.7776  -20.7581   -5.6400 H   0  0  0  0  0  0
  -15.9290  -21.8172   -6.5228 H   0  0  0  0  0  0
  -12.3796  -19.4863  -12.3809 H   0  0  0  0  0  0
  -13.5540  -18.0068  -12.6293 H   0  0  0  0  0  0
  1  2  1  0  0  0
  1  3  2  0  0  0
  1  4  1  0  0  0
  1  5  1  0  0  0
  4  6  1  0  0  0
  5 14  1  0  0  0
  6  7  1  0  0  0
  6  8  2  0  0  0
  6  9  1  0  0  0
  9 10  1  0  0  0
 10 11  2  0  0  0
 10 12  1  0  0  0
 10 13  1  0  0  0
 14 15  1  0  0  0
 14 34  1  0  0  0
 14 35  1  0  0  0
 15 16  1  0  0  0
 15 17  1  0  0  0
 15 36  1  0  0  0
 16 21  1  0  0  0
 17 18  1  0  0  0
 17 19  1  0  0  0
 17 37  1  0  0  0
 18 38  1  0  0  0
 19 20  1  0  0  0
 19 21  1  0  0  0
 19 39  1  0  0  0
 20 40  1  0  0  0
 21 22  1  0  0  0
 21 41  1  0  0  0
 22 23  2  0  0  0
 22 33  1  0  0  0
 23 24  1  0  0  0
 23 42  1  0  0  0
 24 25  1  0  0  0
 24 26  1  0  0  0
 25 43  1  0  0  0
 25 44  1  0  0  0
 25 45  1  0  0  0
 26 27  1  0  0  0
 26 33  2  0  0  0
 27 28  2  0  0  0
 27 29  1  0  0  0
 29 30  1  0  0  0
 30 31  1  0  0  0
 30 32  2  0  0  0
 31 46  1  0  0  0
 31 47  1  0  0  0
 32 33  1  0  0  0
M  CHG  5   2  -1   7  -1  12  -1  13  -1  22   1
M  END
> <s_m_source_file>
../4emr_ligand.sdf

> <i_m_source_file_index>
1

> <s_epik_input>
Tz1QKFtPSF0pKFtPSF0pT1tQQEBdKD1PKShbT0hdKU9bUEBAXSg9TykoW09IXSlPW0NIMl1bQ0BIXTFPW0NASF0oW0NASF0oW09IXSlbQ0BASF0xW09IXSlbbitdKFtjSF1uMltDSDNdKWMoYzIzKVtuSF1jKD1OXFtIXSlcW25IXWMzPU8=

> <s_epik_cmdline>
J2VwaWtfYXBwJywgJy1pbWFlJywgJ2xpZ2FuZF9wcm8ubWFlJywgJy1vbWFlJywgJ2xpZ2FuZF9wcmVwLm1hZScsICctbXMnLCAnMScsICctcGgnLCAnNycsICctcGh0JywgJzAuNScsICctbnQn

> <r_epik_Ionization_Penalty>
  0.0815

> <r_epik_Ionization_Penalty_Charging>
  0.0814

> <r_epik_Ionization_Penalty_Neutral>
  0.0002

> <r_epik_State_Penalty>
  0.0708

> <r_epik_Charging_Adjusted_Penalty>
0.152188980951194

> <i_epik_Tot_Q>
-3

> <i_epik_Tot_abs_Q>
5

> <s_epik_Chemistry_Notes>
This compound has an imine and may undergo hydrolysis. This compound contains an acetal/aminal-like group ( X-CH(R)-Y where X, Y are N, S, or O) that may be acid/base labile, releasing an aldehyde.

$$$$
