4emt_ligand
                    3D
 Schrodinger Suite 2020-3.
 68 74  0  0  1  0            999 V2000
   54.4070   16.8200   76.6630 P   0  0  2  0  0  0
   55.7250   17.6500   76.8540 O   0  5  0  0  0  0
   54.7330   15.3540   76.4060 O   0  0  0  0  0  0
   53.6820   17.4840   75.4520 O   0  0  0  0  0  0
   53.2490   18.8080   75.5500 C   0  0  0  0  0  0
   52.3350   19.2720   74.5340 C   0  0  1  0  0  0
   52.9910   19.2280   73.1670 O   0  0  0  0  0  0
   51.1520   18.4060   74.4030 C   0  0  1  0  0  0
   50.1980   18.8080   75.3300 O   0  0  0  0  0  0
   50.7350   18.6470   73.0270 C   0  0  1  0  0  0
   50.0610   19.8750   72.9400 O   0  0  0  0  0  0
   52.0240   18.7300   72.2940 C   0  0  2  0  0  0
   52.4090   17.3980   71.6920 N   0  0  0  0  0  0
   52.9980   16.3730   72.3370 C   0  0  0  0  0  0
   53.1980   15.3570   71.4860 N   0  0  0  0  0  0
   52.7140   15.7280   70.2780 C   0  0  0  0  0  0
   52.6290   15.1370   69.0150 C   0  0  0  0  0  0
   53.0740   13.8950   68.7780 O   0  0  0  0  0  0
   52.0760   15.8180   68.0090 N   0  0  0  0  0  0
   51.6200   17.0670   68.1900 C   0  0  0  0  0  0
   51.0530   17.7430   67.1080 N   0  0  0  0  0  0
   51.6850   17.6660   69.3770 N   0  0  0  0  0  0
   52.2270   17.0220   70.4160 C   0  0  0  0  0  0
   49.2220   17.6990   75.9800 P   0  0  1  0  0  0
   48.1010   18.4490   76.6470 O   0  5  0  0  0  0
   48.7260   16.7040   75.0090 O   0  0  0  0  0  0
   49.9880   16.9250   77.1150 O   0  0  0  0  0  0
   50.6030   17.6780   78.1970 C   0  0  0  0  0  0
   51.5170   16.8800   79.1150 C   0  0  1  0  0  0
   50.7610   15.8920   79.7400 O   0  0  0  0  0  0
   52.4910   16.1540   78.3560 C   0  0  1  0  0  0
   53.5960   17.0510   78.0030 O   0  0  0  0  0  0
   52.8650   15.1610   79.2480 C   0  0  1  0  0  0
   53.6950   15.6710   80.2480 O   0  0  0  0  0  0
   51.5450   14.7610   79.8210 C   0  0  2  0  0  0
   50.9530   13.6400   79.0890 N   0  0  0  0  0  0
   50.2750   13.6730   77.9250 C   0  0  0  0  0  0
   49.9310   12.4290   77.5740 N   0  0  0  0  0  0
   50.3940   11.5840   78.5240 C   0  0  0  0  0  0
   50.3550   10.2050   78.7190 C   0  0  0  0  0  0
   49.7390    9.3560   77.8350 O   0  0  0  0  0  0
   50.9470    9.6920   79.8020 N   0  0  0  0  0  0
   51.5510   10.5010   80.6870 C   0  0  0  0  0  0
   52.1640    9.8940   81.8290 N   0  0  0  0  0  0
   51.6280   11.8160   80.5510 N   0  0  0  0  0  0
   51.0540   12.3560   79.4730 C   0  0  0  0  0  0
   52.7273   18.9532   76.5075 H   0  0  0  0  0  0
   54.1166   19.4823   75.4992 H   0  0  0  0  0  0
   52.0525   20.2752   74.8859 H   0  0  0  0  0  0
   51.2851   17.3376   74.6282 H   0  0  0  0  0  0
   50.0198   17.9054   72.6417 H   0  0  0  0  0  0
   49.0825   20.0010   73.4265 H   0  0  0  0  0  0
   51.9731   19.4710   71.4827 H   0  0  0  0  0  0
   53.2710   16.3701   73.3923 H   0  0  0  0  0  0
   51.9890   15.3562   67.0144 H   0  0  0  0  0  0
   50.9954   17.2552   66.1238 H   0  0  0  0  0  0
   50.6639   18.7634   67.2398 H   0  0  0  0  0  0
   51.2168   18.4884   77.7770 H   0  0  0  0  0  0
   49.8183   18.1067   78.8376 H   0  0  0  0  0  0
   52.0081   17.5264   79.8573 H   0  0  0  0  0  0
   52.1276   15.7007   77.4220 H   0  0  0  0  0  0
   53.4751   14.3822   78.7671 H   0  0  0  0  0  0
   54.7097   16.0147   79.9984 H   0  0  0  0  0  0
   51.5876   14.4492   80.8750 H   0  0  0  0  0  0
   50.0428   14.5740   77.3573 H   0  0  0  0  0  0
   50.9400    8.6049   79.9697 H   0  0  0  0  0  0
   52.1143    8.8036   81.9654 H   0  0  0  0  0  0
   52.6848   10.5179   82.5703 H   0  0  0  0  0  0
  1  2  1  0  0  0
  1  3  2  0  0  0
  1  4  1  0  0  0
  1 32  1  0  0  0
  4  5  1  0  0  0
  5  6  1  0  0  0
  5 47  1  0  0  0
  5 48  1  0  0  0
  6  7  1  0  0  0
  6  8  1  0  0  0
  6 49  1  0  0  0
  7 12  1  0  0  0
  8  9  1  0  0  0
  8 10  1  0  0  0
  8 50  1  0  0  0
  9 24  1  0  0  0
 10 11  1  0  0  0
 10 12  1  0  0  0
 10 51  1  0  0  0
 11 52  1  0  0  0
 12 13  1  0  0  0
 12 53  1  0  0  0
 13 14  1  0  0  0
 13 23  1  0  0  0
 14 15  2  0  0  0
 14 54  1  0  0  0
 15 16  1  0  0  0
 16 17  1  0  0  0
 16 23  2  0  0  0
 17 18  2  0  0  0
 17 19  1  0  0  0
 19 20  1  0  0  0
 19 55  1  0  0  0
 20 21  1  0  0  0
 20 22  2  0  0  0
 21 56  1  0  0  0
 21 57  1  0  0  0
 22 23  1  0  0  0
 24 25  1  0  0  0
 24 26  2  0  0  0
 24 27  1  0  0  0
 27 28  1  0  0  0
 28 29  1  0  0  0
 28 58  1  0  0  0
 28 59  1  0  0  0
 29 30  1  0  0  0
 29 31  1  0  0  0
 29 60  1  0  0  0
 30 35  1  0  0  0
 31 32  1  0  0  0
 31 33  1  0  0  0
 31 61  1  0  0  0
 33 34  1  0  0  0
 33 35  1  0  0  0
 33 62  1  0  0  0
 34 63  1  0  0  0
 35 36  1  0  0  0
 35 64  1  0  0  0
 36 37  1  0  0  0
 36 46  1  0  0  0
 37 38  2  0  0  0
 37 65  1  0  0  0
 38 39  1  0  0  0
 39 40  1  0  0  0
 39 46  2  0  0  0
 40 41  2  0  0  0
 40 42  1  0  0  0
 42 43  1  0  0  0
 42 66  1  0  0  0
 43 44  1  0  0  0
 43 45  2  0  0  0
 44 67  1  0  0  0
 44 68  1  0  0  0
 45 46  1  0  0  0
M  CHG  2   2  -1  25  -1
M  END
> <s_m_source_file>
../4emt_ligand.sdf

> <i_m_source_file_index>
1

> <s_epik_input>
Tz1jMVtuSF1jKFtOSDJdKW5jKGMxMiluKFtjSF1uMilbQ0BIXShPMylbQ0BIXShbT0hdKVtDQEhdKE9bUEBdKD1PKShbT0hdKU9bQ0gyXTQpW0NASF0zW0NIMl1PW1BAQF0oPU8pKFtPSF0pT1tDQEhdKFtDQEBIXTQ1KVtDQEBIXShbT0hdKVtDQEBIXShPNSluKFtjSF1uNiljKGM2NyluYyhbTkgyXSlbbkhdYzc9Tw==

> <s_epik_cmdline>
J2VwaWtfYXBwJywgJy1pbWFlJywgJ2xpZ2FuZF9wcm8ubWFlJywgJy1vbWFlJywgJ2xpZ2FuZF9wcmVwLm1hZScsICctbXMnLCAnMScsICctcGgnLCAnNycsICctcGh0JywgJzAuNScsICctbnQn

> <r_lp_tautomer_probability>
1

> <r_epik_Ionization_Penalty>
  0.0042

> <r_epik_Ionization_Penalty_Charging>
  0.0040

> <r_epik_Ionization_Penalty_Neutral>
  0.0002

> <r_epik_State_Penalty>
 -0.0000

> <r_epik_Charging_Adjusted_Penalty>
0.00400193045734951

> <i_epik_Tot_Q>
-2

> <i_epik_Tot_abs_Q>
2

> <s_epik_Chemistry_Notes>
This compound contains an acetal/aminal-like group ( X-CH(R)-Y where X, Y are N, S, or O) that may be acid/base labile, releasing an aldehyde.

$$$$
