4emv_ligand
                    3D
 Schrodinger Suite 2020-3.
 46 49  0  0  1  0            999 V2000
   19.3020   34.4080    1.7060 C   0  0  0  0  0  0
   19.1460   32.9100    1.7140 C   0  0  0  0  0  0
   18.0210   32.5050    2.5230 N   0  0  0  0  0  0
   18.1310   31.3880    3.3110 C   0  0  0  0  0  0
   19.1160   30.6600    3.3010 O   0  0  0  0  0  0
   17.0040   31.1430    4.1680 C   0  0  0  0  0  0
   16.7720   30.0420    4.9680 C   0  0  0  0  0  0
   15.5430   30.2160    5.6570 C   0  0  0  0  0  0
   14.7890   29.4870    6.5670 C   0  0  0  0  0  0
   13.5940   30.0230    7.0240 C   0  0  0  0  0  0
   13.2400   31.2540    6.5240 C   0  0  0  0  0  0
   13.9170   32.0040    5.6490 N   0  0  0  0  0  0
   15.0540   31.4390    5.2500 C   0  0  0  0  0  0
   15.9390   31.9860    4.3590 N   0  3  0  0  0  0
   12.6860   29.3700    7.9540 C   0  0  0  0  0  0
   12.0730   30.0370    9.0020 C   0  0  0  0  0  0
   11.1950   29.3530    9.8230 C   0  0  0  0  0  0
   10.9700   28.0210    9.5560 C   0  0  0  0  0  0
   11.5330   27.3320    8.5620 N   0  0  0  0  0  0
   12.3670   28.0370    7.7900 C   0  0  0  0  0  0
   10.4890   29.9760   10.9660 C   0  0  0  0  0  0
   10.6020   31.2200   11.1350 O   0  0  0  0  0  0
    9.8040   29.1960   11.6870 O   0  5  0  0  0  0
   15.2480   28.2520    7.0210 N   0  0  0  0  0  0
   15.5640   27.1720    6.2460 C   0  0  0  0  0  0
   15.8980   26.1700    7.1260 C   0  0  0  0  0  0
   15.7540   26.7510    8.4080 C   0  0  0  0  0  0
   15.3580   28.0230    8.3400 N   0  0  0  0  0  0
   15.9800   26.1310    9.7180 C   0  0  0  0  0  0
   16.3130   24.8190    9.5880 F   0  0  0  0  0  0
   16.9730   26.7430   10.4120 F   0  0  0  0  0  0
   14.8670   26.1980   10.4970 F   0  0  0  0  0  0
   20.1654   34.6834    1.0826 H   0  0  0  0  0  0
   19.4630   34.7654    2.7338 H   0  0  0  0  0  0
   18.3915   34.8693    1.2958 H   0  0  0  0  0  0
   18.9850   32.5526    0.6862 H   0  0  0  0  0  0
   20.0565   32.4487    2.1242 H   0  0  0  0  0  0
   17.0898   33.0902    2.5026 H   0  0  0  0  0  0
   17.4284   29.1763    5.0566 H   0  0  0  0  0  0
   12.2971   31.6664    6.8832 H   0  0  0  0  0  0
   12.2810   31.0924    9.1781 H   0  0  0  0  0  0
   10.2778   27.4879   10.2077 H   0  0  0  0  0  0
   12.8364   27.5126    6.9576 H   0  0  0  0  0  0
   15.5535   27.1165    5.1575 H   0  0  0  0  0  0
   16.2060   25.1518    6.8883 H   0  0  0  0  0  0
   15.8947   32.9461    3.8240 H   0  0  0  0  0  0
  1  2  1  0  0  0
  1 33  1  0  0  0
  1 34  1  0  0  0
  1 35  1  0  0  0
  2  3  1  0  0  0
  2 36  1  0  0  0
  2 37  1  0  0  0
  3  4  1  0  0  0
  3 38  1  0  0  0
  4  5  2  0  0  0
  4  6  1  0  0  0
  6  7  2  0  0  0
  6 14  1  0  0  0
  7  8  1  0  0  0
  7 39  1  0  0  0
  8  9  2  0  0  0
  8 13  1  0  0  0
  9 10  1  0  0  0
  9 24  1  0  0  0
 10 11  2  0  0  0
 10 15  1  0  0  0
 11 12  1  0  0  0
 11 40  1  0  0  0
 12 13  1  0  0  0
 13 14  2  0  0  0
 14 46  1  0  0  0
 15 16  2  0  0  0
 15 20  1  0  0  0
 16 17  1  0  0  0
 16 41  1  0  0  0
 17 18  2  0  0  0
 17 21  1  0  0  0
 18 19  1  0  0  0
 18 42  1  0  0  0
 19 20  2  0  0  0
 20 43  1  0  0  0
 21 22  2  0  0  0
 21 23  1  0  0  0
 24 25  1  0  0  0
 24 28  1  0  0  0
 25 26  2  0  0  0
 25 44  1  0  0  0
 26 27  1  0  0  0
 26 45  1  0  0  0
 27 28  2  0  0  0
 27 29  1  0  0  0
 29 30  1  0  0  0
 29 31  1  0  0  0
 29 32  1  0  0  0
M  CHG  2  14   1  23  -1
M  END
> <s_m_source_file>
../4emv_ligand.sdf

> <i_m_source_file_index>
1

> <s_epik_input>
W0NIM11bQ0gyXVtOSF1DKD1PKWMoW2NIXTEpbmMoYzEyKVtuSF1bY0hdYyhjMi1uM1tjSF1bY0hdYyhuMylDKEYpKEYpRiktYzRbY0hdYyhDKD1PKVtPSF0pW2NIXW5bY0hdNA==

> <s_epik_cmdline>
J2VwaWtfYXBwJywgJy1pbWFlJywgJ2xpZ2FuZF9wcm8ubWFlJywgJy1vbWFlJywgJ2xpZ2FuZF9wcmVwLm1hZScsICctbXMnLCAnMScsICctcGgnLCAnNycsICctcGh0JywgJzAuNScsICctbnQn

> <r_lp_tautomer_probability>
1

> <r_epik_Ionization_Penalty>
  0.0054

> <r_epik_Ionization_Penalty_Charging>
  0.0002

> <r_epik_Ionization_Penalty_Neutral>
  0.0053

> <r_epik_State_Penalty>
 -0.0000

> <r_epik_Charging_Adjusted_Penalty>
0.00016286583852029

> <i_epik_Tot_Q>
0

> <i_epik_Tot_abs_Q>
2

$$$$
