4eo4_ligand
                    3D
 Schrodinger Suite 2020-3.
 48 50  0  0  1  0            999 V2000
   26.1850  -18.8060  -53.0590 N   0  3  0  0  0  0
   25.7190  -17.4490  -53.0160 C   0  0  1  0  0  0
   24.9820  -17.1660  -54.2650 C   0  0  0  0  0  0
   25.4660  -17.7760  -55.4340 O   0  0  0  0  0  0
   24.7820  -17.2420  -51.8220 C   0  0  0  0  0  0
   24.8380  -18.0450  -50.8490 O   0  5  0  0  0  0
   23.8300  -16.1490  -51.8050 N   0  0  0  0  0  0
   22.8610  -15.9810  -50.4860 S   0  0  0  0  0  0
   22.4260  -14.6060  -50.3250 O   0  0  0  0  0  0
   23.5850  -16.1980  -49.2630 O   0  0  0  0  0  0
   21.7080  -16.9140  -50.5870 O   0  0  0  0  0  0
   21.0990  -17.1570  -51.8470 C   0  0  0  0  0  0
   19.6090  -17.3410  -51.7120 C   0  0  1  0  0  0
   19.3320  -18.6090  -51.0670 O   0  0  0  0  0  0
   18.8920  -16.3140  -50.8500 C   0  0  1  0  0  0
   18.5880  -15.1210  -51.5490 O   0  0  0  0  0  0
   17.6630  -17.0680  -50.3670 C   0  0  1  0  0  0
   16.6540  -17.0800  -51.3660 O   0  0  0  0  0  0
   18.2170  -18.4860  -50.2150 C   0  0  2  0  0  0
   18.6570  -18.7600  -48.8350 N   0  0  0  0  0  0
   19.6860  -18.2260  -48.1060 C   0  0  0  0  0  0
   19.7070  -18.7800  -46.8730 N   0  0  0  0  0  0
   18.6660  -19.6980  -46.8110 C   0  0  0  0  0  0
   18.1810  -20.5940  -45.7810 C   0  0  0  0  0  0
   18.8250  -20.6480  -44.4900 N   0  0  0  0  0  0
   17.1240  -21.3790  -46.0310 N   0  0  0  0  0  0
   16.5100  -21.3300  -47.2570 C   0  0  0  0  0  0
   16.9360  -20.5040  -48.2450 N   0  0  0  0  0  0
   18.0230  -19.6810  -48.0290 C   0  0  0  0  0  0
   26.8555  -18.9363  -53.9212 H   0  0  0  0  0  0
   25.3257  -19.4858  -53.1567 H   0  0  0  0  0  0
   26.7308  -19.0358  -52.1320 H   0  0  0  0  0  0
   26.6107  -16.8090  -52.9437 H   0  0  0  0  0  0
   23.9404  -17.5038  -54.1607 H   0  0  0  0  0  0
   24.9985  -16.0842  -54.4634 H   0  0  0  0  0  0
   24.9592  -17.6031  -56.3949 H   0  0  0  0  0  0
   21.2859  -16.3035  -52.5153 H   0  0  0  0  0  0
   21.5244  -18.0696  -52.2900 H   0  0  0  0  0  0
   19.2353  -17.2981  -52.7457 H   0  0  0  0  0  0
   19.5008  -15.8753  -50.0457 H   0  0  0  0  0  0
   19.4000  -14.4934  -51.9449 H   0  0  0  0  0  0
   17.1564  -16.6256  -49.4966 H   0  0  0  0  0  0
   16.1273  -16.1502  -51.6269 H   0  0  0  0  0  0
   17.4722  -19.2456  -50.4948 H   0  0  0  0  0  0
   20.3827  -17.4688  -48.4655 H   0  0  0  0  0  0
   19.6928  -20.0052  -44.2810 H   0  0  0  0  0  0
   18.4478  -21.3319  -43.7154 H   0  0  0  0  0  0
   15.6519  -21.9759  -47.4431 H   0  0  0  0  0  0
  1  2  1  0  0  0
  1 30  1  0  0  0
  1 31  1  0  0  0
  1 32  1  0  0  0
  2  3  1  0  0  0
  2  5  1  0  0  0
  2 33  1  0  0  0
  3  4  1  0  0  0
  3 34  1  0  0  0
  3 35  1  0  0  0
  4 36  1  0  0  0
  5  6  1  0  0  0
  5  7  2  0  0  0
  7  8  1  0  0  0
  8  9  2  0  0  0
  8 10  2  0  0  0
  8 11  1  0  0  0
 11 12  1  0  0  0
 12 13  1  0  0  0
 12 37  1  0  0  0
 12 38  1  0  0  0
 13 14  1  0  0  0
 13 15  1  0  0  0
 13 39  1  0  0  0
 14 19  1  0  0  0
 15 16  1  0  0  0
 15 17  1  0  0  0
 15 40  1  0  0  0
 16 41  1  0  0  0
 17 18  1  0  0  0
 17 19  1  0  0  0
 17 42  1  0  0  0
 18 43  1  0  0  0
 19 20  1  0  0  0
 19 44  1  0  0  0
 20 21  1  0  0  0
 20 29  1  0  0  0
 21 22  2  0  0  0
 21 45  1  0  0  0
 22 23  1  0  0  0
 23 24  2  0  0  0
 23 29  1  0  0  0
 24 25  1  0  0  0
 24 26  1  0  0  0
 25 46  1  0  0  0
 25 47  1  0  0  0
 26 27  2  0  0  0
 27 28  1  0  0  0
 27 48  1  0  0  0
 28 29  2  0  0  0
M  CHG  2   1   1   6  -1
M  END
> <s_m_source_file>
../4eo4_ligand.sdf

> <i_m_source_file_index>
1

> <s_epik_input>
W09IXVtDSDJdW0NASF0oW05IMytdKUMoPU8pW05IXVMoPU8pKD1PKU9bQ0gyXVtDQEhdMU9bQ0BIXShbQ0BIXShbT0hdKVtDQEBIXTFbT0hdKW4oW2NIXW4yKWMoYzIzKW5bY0hdbmMzW05IMl0=

> <s_epik_cmdline>
J2VwaWtfYXBwJywgJy1pbWFlJywgJ2xpZ2FuZF9wcm8ubWFlJywgJy1vbWFlJywgJ2xpZ2FuZF9wcmVwLm1hZScsICctbXMnLCAnMScsICctcGgnLCAnNycsICctcGh0JywgJzAuNScsICctbnQn

> <r_lp_tautomer_probability>
0.999997216410988

> <r_epik_Ionization_Penalty>
  0.0297

> <r_epik_Ionization_Penalty_Charging>
  0.0293

> <r_epik_Ionization_Penalty_Neutral>
  0.0004

> <r_epik_State_Penalty>
  0.0241

> <r_epik_Charging_Adjusted_Penalty>
0.0533228764287169

> <i_epik_Tot_Q>
0

> <i_epik_Tot_abs_Q>
2

> <s_epik_Chemistry_Notes>
This compound contains an acetal/aminal-like group ( X-CH(R)-Y where X, Y are N, S, or O) that may be acid/base labile, releasing an aldehyde.

$$$$
