4eoi_ligand
                    3D
 Schrodinger Suite 2020-3.
 39 42  0  0  1  0            999 V2000
   -6.9070   22.3850  -21.5060 O   0  0  0  0  0  0
   -6.8230   21.2910  -20.8580 C   0  0  0  0  0  0
   -5.8210   21.2030  -20.0110 N   0  0  0  0  0  0
   -5.8460   20.0110  -19.4050 C   0  0  0  0  0  0
   -4.8330   19.8230  -18.5410 N   0  0  0  0  0  0
   -3.6510   20.6960  -18.6080 C   0  0  0  0  0  0
   -3.3970   21.4060  -19.9330 C   0  0  0  0  0  0
   -3.4940   22.7330  -20.3530 C   0  0  0  0  0  0
   -3.1560   22.9220  -21.7010 C   0  0  0  0  0  0
   -2.7760   21.7780  -22.4030 C   0  0  0  0  0  0
   -2.8710   20.4590  -21.2840 S   0  0  0  0  0  0
   -7.1580   18.9330  -19.8510 S   0  0  0  0  0  0
   -7.7560   20.1390  -20.9710 C   0  0  3  0  0  0
   -8.9510   20.0410  -21.8650 C   0  0  0  0  0  0
   -9.2560   21.2200  -22.7340 C   0  0  0  0  0  0
  -10.5660   21.5840  -23.0730 C   0  0  0  0  0  0
  -10.8170   22.7030  -23.8810 C   0  0  0  0  0  0
   -9.7700   23.4850  -24.3760 C   0  0  0  0  0  0
   -9.9710   24.5760  -25.1600 N   0  0  0  0  0  0
   -8.9390   25.3080  -25.6140 C   0  0  0  0  0  0
   -7.6130   24.9800  -25.3070 C   0  0  0  0  0  0
   -7.3230   23.8720  -24.5090 C   0  0  0  0  0  0
   -8.3820   23.1050  -24.0270 C   0  0  0  0  0  0
   -8.1880   21.9820  -23.2300 C   0  0  0  0  0  0
   -3.7406   21.4929  -17.8551 H   0  0  0  0  0  0
   -2.7458   20.1036  -18.4089 H   0  0  0  0  0  0
   -3.8032   23.5458  -19.6958 H   0  0  0  0  0  0
   -3.1883   23.9044  -22.1721 H   0  0  0  0  0  0
   -2.4778   21.7245  -23.4501 H   0  0  0  0  0  0
   -7.1299   19.7100  -21.7672 H   0  0  0  0  0  0
   -8.8242   19.1938  -22.5550 H   0  0  0  0  0  0
   -9.8533   19.8855  -21.2553 H   0  0  0  0  0  0
  -11.4016   20.9894  -22.7038 H   0  0  0  0  0  0
  -11.8456   22.9668  -24.1267 H   0  0  0  0  0  0
   -9.1397   26.1794  -26.2372 H   0  0  0  0  0  0
   -6.8005   25.5948  -25.6942 H   0  0  0  0  0  0
   -6.2920   23.6127  -24.2684 H   0  0  0  0  0  0
   -7.1695   21.6833  -22.9819 H   0  0  0  0  0  0
   -5.1229   22.0452  -19.8954 H   0  0  0  0  0  0
  1  2  2  0  0  0
  2  3  1  0  0  0
  2 13  1  0  0  0
  3  4  1  0  0  0
  3 39  1  0  0  0
  4  5  2  0  0  0
  4 12  1  0  0  0
  5  6  1  0  0  0
  6  7  1  0  0  0
  6 25  1  0  0  0
  6 26  1  0  0  0
  7  8  2  0  0  0
  7 11  1  0  0  0
  8  9  1  0  0  0
  8 27  1  0  0  0
  9 10  2  0  0  0
  9 28  1  0  0  0
 10 11  1  0  0  0
 10 29  1  0  0  0
 12 13  1  0  0  0
 13 14  1  0  0  0
 13 30  1  0  0  0
 14 15  1  0  0  0
 14 31  1  0  0  0
 14 32  1  0  0  0
 15 16  2  0  0  0
 15 24  1  0  0  0
 16 17  1  0  0  0
 16 33  1  0  0  0
 17 18  2  0  0  0
 17 34  1  0  0  0
 18 19  1  0  0  0
 18 23  1  0  0  0
 19 20  2  0  0  0
 20 21  1  0  0  0
 20 35  1  0  0  0
 21 22  2  0  0  0
 21 36  1  0  0  0
 22 23  1  0  0  0
 22 37  1  0  0  0
 23 24  2  0  0  0
 24 38  1  0  0  0
M  END
> <s_m_source_file>
../4eoi_ligand.sdf

> <i_m_source_file_index>
1

> <s_epik_input>
czFbY0hdW2NIXVtjSF1jMVtDSDJdW05IXUMoPU5DMj1PKVNbQ0hdMltDSDJdYyhbY0hdW2NIXTMpW2NIXWMoYzM0KVtjSF1bY0hdW2NIXW40

> <s_epik_cmdline>
J2VwaWtfYXBwJywgJy1pbWFlJywgJ2xpZ2FuZF9wcm8ubWFlJywgJy1vbWFlJywgJ2xpZ2FuZF9wcmVwLm1hZScsICctbXMnLCAnMScsICctcGgnLCAnNycsICctcGh0JywgJzAuNScsICctbnQn

> <r_lp_tautomer_probability>
1

> <r_epik_Ionization_Penalty>
  0.0094

> <r_epik_Ionization_Penalty_Charging>
  0.0000

> <r_epik_Ionization_Penalty_Neutral>
  0.0094

> <r_epik_State_Penalty>
 -0.0000

> <r_epik_Charging_Adjusted_Penalty>
0

> <i_epik_Tot_Q>
0

> <i_epik_Tot_abs_Q>
0

> <s_epik_Chemistry_Notes>
This compound has an imine and may undergo hydrolysis.

$$$$
