4eok_ligand
                    3D
 Schrodinger Suite 2020-3.
 50 53  0  0  1  0            999 V2000
   10.8400   27.0480   25.1360 C   0  0  0  0  0  0
   13.6010   23.9940   23.4260 C   0  0  0  0  0  0
    8.0460   25.1750   22.7850 C   0  0  0  0  0  0
    7.1780   24.3100   21.8930 C   0  0  0  0  0  0
    7.5570   24.6290   20.4420 C   0  0  0  0  0  0
    6.5450   24.0850   19.4360 C   0  0  0  0  0  0
    5.1120   24.5010   19.7850 C   0  0  0  0  0  0
    4.7360   24.0760   21.2040 C   0  0  0  0  0  0
    5.7240   24.6510   22.2180 C   0  0  0  0  0  0
    7.7070   30.4030   26.7560 C   0  0  0  0  0  0
    6.9660   30.4570   25.5730 C   0  0  0  0  0  0
    7.4130   29.7120   24.4800 C   0  0  0  0  0  0
    8.5690   28.9330   24.5620 C   0  0  0  0  0  0
    4.4410   30.5050   25.0510 N   0  0  0  0  0  0
    9.9360   26.3230   24.4200 N   0  0  0  0  0  0
   10.2680   25.2390   23.6740 C   0  0  0  0  0  0
    9.3160   24.5630   22.9710 O   0  0  0  0  0  0
   11.5850   24.8280   23.6370 C   0  0  0  0  0  0
   12.3000   23.8480   23.0530 N   0  0  0  0  0  0
   13.7580   25.0660   24.2540 N   0  3  0  0  0  0
   12.5390   25.6130   24.4190 C   0  0  0  0  0  0
   12.1560   26.6950   25.1380 N   0  0  0  0  0  0
   10.4460   28.1300   25.8700 N   0  0  0  0  0  0
    9.3040   28.8710   25.7430 C   0  0  0  0  0  0
    8.8600   29.6180   26.8350 C   0  0  0  0  0  0
    5.6310   31.3590   25.4520 S   0  0  0  0  0  0
    5.8550   32.4030   24.4250 O   0  0  0  0  0  0
    5.3250   32.0220   26.7490 O   0  0  0  0  0  0
   14.3612   23.2895   23.0575 H   0  0  0  0  0  0
    8.1849   26.1607   22.3170 H   0  0  0  0  0  0
    7.5578   25.2990   23.7629 H   0  0  0  0  0  0
    7.3243   23.2324   22.0584 H   0  0  0  0  0  0
    7.6120   25.7195   20.3087 H   0  0  0  0  0  0
    8.5352   24.1816   20.2117 H   0  0  0  0  0  0
    6.7811   24.4708   18.4333 H   0  0  0  0  0  0
    6.5919   22.9860   19.4264 H   0  0  0  0  0  0
    5.0199   25.5948   19.7130 H   0  0  0  0  0  0
    4.4111   24.0270   19.0821 H   0  0  0  0  0  0
    3.7271   24.4441   21.4418 H   0  0  0  0  0  0
    4.7519   22.9784   21.2744 H   0  0  0  0  0  0
    5.4640   24.2439   23.2062 H   0  0  0  0  0  0
    5.5967   25.7436   22.2265 H   0  0  0  0  0  0
    7.3832   30.9776   27.6238 H   0  0  0  0  0  0
    6.8501   29.7389   23.5470 H   0  0  0  0  0  0
    8.8999   28.3668   23.6913 H   0  0  0  0  0  0
    3.5446   31.1380   24.9746 H   0  0  0  0  0  0
    4.2763   29.7261   25.8101 H   0  0  0  0  0  0
   11.0845   28.5047   26.6836 H   0  0  0  0  0  0
    9.4236   29.5884   27.7675 H   0  0  0  0  0  0
   14.7557   25.3206   24.6410 H   0  0  0  0  0  0
  1 15  2  0  0  0
  1 22  1  0  0  0
  1 23  1  0  0  0
  2 19  2  0  0  0
  2 20  1  0  0  0
  2 29  1  0  0  0
  3  4  1  0  0  0
  3 17  1  0  0  0
  3 30  1  0  0  0
  3 31  1  0  0  0
  4  5  1  0  0  0
  4  9  1  0  0  0
  4 32  1  0  0  0
  5  6  1  0  0  0
  5 33  1  0  0  0
  5 34  1  0  0  0
  6  7  1  0  0  0
  6 35  1  0  0  0
  6 36  1  0  0  0
  7  8  1  0  0  0
  7 37  1  0  0  0
  7 38  1  0  0  0
  8  9  1  0  0  0
  8 39  1  0  0  0
  8 40  1  0  0  0
  9 41  1  0  0  0
  9 42  1  0  0  0
 10 11  2  0  0  0
 10 25  1  0  0  0
 10 43  1  0  0  0
 11 12  1  0  0  0
 11 26  1  0  0  0
 12 13  2  0  0  0
 12 44  1  0  0  0
 13 24  1  0  0  0
 13 45  1  0  0  0
 14 26  1  0  0  0
 14 46  1  0  0  0
 14 47  1  0  0  0
 15 16  1  0  0  0
 16 17  1  0  0  0
 16 18  2  0  0  0
 18 19  1  0  0  0
 18 21  1  0  0  0
 20 21  1  0  0  0
 20 50  1  0  0  0
 21 22  2  0  0  0
 23 24  1  0  0  0
 23 48  1  0  0  0
 24 25  2  0  0  0
 25 49  1  0  0  0
 26 27  2  0  0  0
 26 28  2  0  0  0
M  CHG  1  20   1
M  END
> <s_m_source_file>
../4eok_ligand.sdf

> <i_m_source_file_index>
1

> <s_epik_input>
W05IMl1TKD1PKSg9TyljMVtjSF1bY0hdYyhbY0hdW2NIXTEpW05IXWMobmMoYzIzKVtuSF1bY0hdbjMpbmMyT1tDSDJdW0NIXTRbQ0gyXVtDSDJdW0NIMl1bQ0gyXVtDSDJdNA==

> <s_epik_cmdline>
J2VwaWtfYXBwJywgJy1pbWFlJywgJ2xpZ2FuZF9wcm8ubWFlJywgJy1vbWFlJywgJ2xpZ2FuZF9wcmVwLm1hZScsICctbXMnLCAnMScsICctcGgnLCAnNycsICctcGh0JywgJzAuNScsICctbnQn

> <r_lp_tautomer_probability>
1

> <r_epik_Ionization_Penalty>
  0.0096

> <r_epik_Ionization_Penalty_Charging>
  0.0000

> <r_epik_Ionization_Penalty_Neutral>
  0.0096

> <r_epik_State_Penalty>
 -0.0000

> <r_epik_Charging_Adjusted_Penalty>
0

> <i_epik_Tot_Q>
1

> <i_epik_Tot_abs_Q>
1

> <s_epik_Chemistry_Notes>
This compound has an imine and may undergo hydrolysis.

$$$$
