4eol_ligand
                    3D
 Schrodinger Suite 2020-3.
 39 42  0  0  1  0            999 V2000
  -10.1800  -24.6290   22.5730 O   0  0  0  0  0  0
  -10.2940  -23.5270   21.9600 C   0  0  0  0  0  0
   -9.3420  -23.2860   21.1050 N   0  0  0  0  0  0
   -9.5370  -22.1110   20.5270 C   0  0  0  0  0  0
   -8.5620  -21.8120   19.6480 N   0  0  0  0  0  0
   -7.5300  -22.8320   19.3530 C   0  0  0  0  0  0
   -7.0790  -23.6790   20.5410 C   0  0  0  0  0  0
   -7.2080  -25.0250   20.8820 C   0  0  0  0  0  0
   -6.6350  -25.3640   22.1160 C   0  0  0  0  0  0
   -6.0310  -24.3240   22.8170 C   0  0  0  0  0  0
   -6.2250  -22.9070   21.8380 S   0  0  0  0  0  0
  -10.9830  -21.2380   21.0160 S   0  0  0  0  0  0
  -11.3840  -22.5400   22.1230 C   0  0  3  0  0  0
  -12.5540  -22.6340   23.0510 C   0  0  0  0  0  0
  -12.6900  -23.8740   23.8700 C   0  0  0  0  0  0
  -13.9300  -24.2840   24.3580 C   0  0  0  0  0  0
  -14.0710  -25.4710   25.0930 C   0  0  0  0  0  0
  -12.9750  -26.2900   25.3440 C   0  0  0  0  0  0
  -13.0660  -27.4430   26.0500 N   0  0  0  0  0  0
  -11.9830  -28.2090   26.2700 C   0  0  0  0  0  0
  -10.7190  -27.8470   25.7850 C   0  0  0  0  0  0
  -10.5450  -26.6770   25.0450 C   0  0  0  0  0  0
  -11.6580  -25.8730   24.8130 C   0  0  0  0  0  0
  -11.5770  -24.6830   24.1090 C   0  0  0  0  0  0
   -7.9148  -23.5359   18.6004 H   0  0  0  0  0  0
   -6.6267  -22.3383   18.9653 H   0  0  0  0  0  0
   -7.7112  -25.7514   20.2439 H   0  0  0  0  0  0
   -6.6610  -26.3824   22.5037 H   0  0  0  0  0  0
   -5.5360  -24.3879   23.7860 H   0  0  0  0  0  0
  -10.8121  -22.0398   22.9185 H   0  0  0  0  0  0
  -12.5121  -21.8099   23.7784 H   0  0  0  0  0  0
  -13.4872  -22.5655   22.4727 H   0  0  0  0  0  0
  -14.8090  -23.6692   24.1644 H   0  0  0  0  0  0
  -15.0526  -25.7551   25.4724 H   0  0  0  0  0  0
  -12.0907  -29.1327   26.8386 H   0  0  0  0  0  0
   -9.8609  -28.4876   25.9885 H   0  0  0  0  0  0
   -9.5641  -26.3998   24.6589 H   0  0  0  0  0  0
  -10.6069  -24.3656   23.7266 H   0  0  0  0  0  0
   -8.5359  -24.0199   20.9580 H   0  0  0  0  0  0
  1  2  2  0  0  0
  2  3  1  0  0  0
  2 13  1  0  0  0
  3  4  1  0  0  0
  3 39  1  0  0  0
  4  5  2  0  0  0
  4 12  1  0  0  0
  5  6  1  0  0  0
  6  7  1  0  0  0
  6 25  1  0  0  0
  6 26  1  0  0  0
  7  8  2  0  0  0
  7 11  1  0  0  0
  8  9  1  0  0  0
  8 27  1  0  0  0
  9 10  2  0  0  0
  9 28  1  0  0  0
 10 11  1  0  0  0
 10 29  1  0  0  0
 12 13  1  0  0  0
 13 14  1  0  0  0
 13 30  1  0  0  0
 14 15  1  0  0  0
 14 31  1  0  0  0
 14 32  1  0  0  0
 15 16  2  0  0  0
 15 24  1  0  0  0
 16 17  1  0  0  0
 16 33  1  0  0  0
 17 18  2  0  0  0
 17 34  1  0  0  0
 18 19  1  0  0  0
 18 23  1  0  0  0
 19 20  2  0  0  0
 20 21  1  0  0  0
 20 35  1  0  0  0
 21 22  2  0  0  0
 21 36  1  0  0  0
 22 23  1  0  0  0
 22 37  1  0  0  0
 23 24  2  0  0  0
 24 38  1  0  0  0
M  END
> <s_m_source_file>
../4eol_ligand.sdf

> <i_m_source_file_index>
1

> <s_epik_input>
czFbY0hdW2NIXVtjSF1jMVtDSDJdW05IXUMoPU5DMj1PKVNbQ0hdMltDSDJdYyhbY0hdW2NIXTMpW2NIXWMoYzM0KVtjSF1bY0hdW2NIXW40

> <s_epik_cmdline>
J2VwaWtfYXBwJywgJy1pbWFlJywgJ2xpZ2FuZF9wcm8ubWFlJywgJy1vbWFlJywgJ2xpZ2FuZF9wcmVwLm1hZScsICctbXMnLCAnMScsICctcGgnLCAnNycsICctcGh0JywgJzAuNScsICctbnQn

> <r_lp_tautomer_probability>
1

> <r_epik_Ionization_Penalty>
  0.0094

> <r_epik_Ionization_Penalty_Charging>
  0.0000

> <r_epik_Ionization_Penalty_Neutral>
  0.0094

> <r_epik_State_Penalty>
 -0.0000

> <r_epik_Charging_Adjusted_Penalty>
0

> <i_epik_Tot_Q>
0

> <i_epik_Tot_abs_Q>
0

> <s_epik_Chemistry_Notes>
This compound has an imine and may undergo hydrolysis.

$$$$
