4eop_ligand
                    3D
 Schrodinger Suite 2020-3.
 37 40  0  0  1  0            999 V2000
    7.2900   22.7000   21.4210 O   0  0  0  0  0  0
    7.1520   21.6160   20.7570 C   0  0  0  0  0  0
    6.1130   21.5450   19.9500 N   0  0  0  0  0  0
    6.0960   20.3620   19.3230 C   0  0  0  0  0  0
    5.0560   20.1750   18.4930 N   0  0  0  0  0  0
    3.9210   21.1000   18.5730 C   0  0  0  0  0  0
    3.6920   21.7160   19.9480 C   0  0  0  0  0  0
    3.7900   23.0080   20.4660 C   0  0  0  0  0  0
    3.4820   23.0880   21.8330 C   0  0  0  0  0  0
    3.1290   21.8880   22.4520 C   0  0  0  0  0  0
    3.2090   20.6600   21.2300 S   0  0  0  0  0  0
    7.4100   19.2740   19.7080 S   0  0  0  0  0  0
    8.0710   20.4520   20.8100 C   0  0  0  0  0  0
    9.2980   20.3130   21.6420 C   0  0  0  0  0  0
    9.6370   21.4830   22.4990 C   0  0  0  0  0  0
   10.9600   21.8330   22.7870 C   0  0  0  0  0  0
   11.2500   22.9470   23.5860 C   0  0  0  0  0  0
   10.2240   23.7340   24.1080 C   0  0  0  0  0  0
   10.4610   24.8190   24.8830 N   0  0  0  0  0  0
    9.4470   25.5570   25.3720 C   0  0  0  0  0  0
    8.1090   25.2430   25.1120 C   0  0  0  0  0  0
    7.7840   24.1400   24.3220 C   0  0  0  0  0  0
    8.8200   23.3660   23.8080 C   0  0  0  0  0  0
    8.5860   22.2480   23.0200 C   0  0  0  0  0  0
    5.0433   19.3505   17.7650 H   0  0  0  0  0  0
    4.0786   21.9351   17.8746 H   0  0  0  0  0  0
    2.9955   20.5687   18.3063 H   0  0  0  0  0  0
    4.0780   23.8718   19.8668 H   0  0  0  0  0  0
    3.5164   24.0310   22.3786 H   0  0  0  0  0  0
    2.8565   21.7497   23.4983 H   0  0  0  0  0  0
    9.8904   19.3872   21.5980 H   0  0  0  0  0  0
   11.7756   21.2319   22.3850 H   0  0  0  0  0  0
   12.2879   23.2009   23.8016 H   0  0  0  0  0  0
    9.6755   26.4257   25.9894 H   0  0  0  0  0  0
    7.3158   25.8636   25.5290 H   0  0  0  0  0  0
    6.7438   23.8905   24.1125 H   0  0  0  0  0  0
    7.5584   21.9580   22.8010 H   0  0  0  0  0  0
  1  2  2  0  0  0
  2  3  1  0  0  0
  2 13  1  0  0  0
  3  4  2  0  0  0
  4  5  1  0  0  0
  4 12  1  0  0  0
  5  6  1  0  0  0
  5 25  1  0  0  0
  6  7  1  0  0  0
  6 26  1  0  0  0
  6 27  1  0  0  0
  7  8  2  0  0  0
  7 11  1  0  0  0
  8  9  1  0  0  0
  8 28  1  0  0  0
  9 10  2  0  0  0
  9 29  1  0  0  0
 10 11  1  0  0  0
 10 30  1  0  0  0
 12 13  1  0  0  0
 13 14  2  0  0  0
 14 15  1  0  0  0
 14 31  1  0  0  0
 15 16  2  0  0  0
 15 24  1  0  0  0
 16 17  1  0  0  0
 16 32  1  0  0  0
 17 18  2  0  0  0
 17 33  1  0  0  0
 18 19  1  0  0  0
 18 23  1  0  0  0
 19 20  2  0  0  0
 20 21  1  0  0  0
 20 34  1  0  0  0
 21 22  2  0  0  0
 21 35  1  0  0  0
 22 23  1  0  0  0
 22 36  1  0  0  0
 23 24  2  0  0  0
 24 37  1  0  0  0
M  END
> <s_m_source_file>
../4eop_ligand.sdf

> <i_m_source_file_index>
1

> <s_epik_input>
czFbY0hdW2NIXVtjSF1jMVtDSDJdW05IXUMoPU5DMj1PKVNDXDI9W0NIXVxjKFtjSF1bY0hdMylbY0hdYyhjMzQpW2NIXVtjSF1bY0hdbjQ=

> <s_epik_cmdline>
J2VwaWtfYXBwJywgJy1pbWFlJywgJ2xpZ2FuZF9wcm8ubWFlJywgJy1vbWFlJywgJ2xpZ2FuZF9wcmVwLm1hZScsICctbXMnLCAnMScsICctcGgnLCAnNycsICctcGh0JywgJzAuNScsICctbnQn

> <r_lp_tautomer_probability>
1

> <r_epik_Ionization_Penalty>
  0.0005

> <r_epik_Ionization_Penalty_Charging>
  0.0000

> <r_epik_Ionization_Penalty_Neutral>
  0.0005

> <r_epik_State_Penalty>
 -0.0000

> <r_epik_Charging_Adjusted_Penalty>
0

> <i_epik_Tot_Q>
0

> <i_epik_Tot_abs_Q>
0

> <s_epik_Chemistry_Notes>
This compound has an imine and may undergo hydrolysis.

$$$$
