4eos_ligand
                    3D
 Schrodinger Suite 2020-3.
 39 42  0  0  1  0            999 V2000
   -7.1510  -22.3490   21.5780 O   0  0  0  0  0  0
   -6.9650  -21.2730   20.9290 C   0  0  0  0  0  0
   -5.9290  -21.2220   20.0920 N   0  0  0  0  0  0
   -5.8930  -20.0140   19.5060 C   0  0  0  0  0  0
   -4.8770  -19.7970   18.6450 N   0  0  0  0  0  0
   -3.6320  -20.5700   18.7540 C   0  0  0  0  0  0
   -3.4490  -21.3490   20.0510 C   0  0  0  0  0  0
   -3.5570  -22.6950   20.3990 C   0  0  0  0  0  0
   -3.2970  -22.9520   21.7560 C   0  0  0  0  0  0
   -2.9700  -21.8480   22.5390 C   0  0  0  0  0  0
   -3.0090  -20.4780   21.4810 S   0  0  0  0  0  0
   -7.1710  -18.9020   19.9650 S   0  0  0  0  0  0
   -7.8450  -20.0890   21.0480 C   0  0  3  0  0  0
   -9.0510  -19.9420   21.9200 C   0  0  0  0  0  0
   -9.4110  -21.1270   22.7550 C   0  0  0  0  0  0
  -10.7340  -21.5540   22.9060 C   0  0  0  0  0  0
  -11.0480  -22.6800   23.6830 C   0  0  0  0  0  0
  -10.0410  -23.4020   24.3220 C   0  0  0  0  0  0
  -10.2940  -24.4950   25.0820 N   0  0  0  0  0  0
   -9.2950  -25.1710   25.6810 C   0  0  0  0  0  0
   -7.9600  -24.7820   25.5550 C   0  0  0  0  0  0
   -7.6200  -23.6650   24.7910 C   0  0  0  0  0  0
   -8.6370  -22.9550   24.1620 C   0  0  0  0  0  0
   -8.3820  -21.8300   23.3950 C   0  0  0  0  0  0
   -3.5874  -21.3099   17.9412 H   0  0  0  0  0  0
   -2.7705  -19.8902   18.6786 H   0  0  0  0  0  0
   -3.8188  -23.4756   19.6847 H   0  0  0  0  0  0
   -3.3484  -23.9582   22.1719 H   0  0  0  0  0  0
   -2.7365  -21.8465   23.6037 H   0  0  0  0  0  0
   -7.2153  -19.7029   21.8631 H   0  0  0  0  0  0
   -8.8953  -19.1114   22.6241 H   0  0  0  0  0  0
   -9.9319  -19.7328   21.2953 H   0  0  0  0  0  0
  -11.5346  -21.0033   22.4122 H   0  0  0  0  0  0
  -12.0871  -22.9923   23.7876 H   0  0  0  0  0  0
   -9.5358  -26.0479   26.2820 H   0  0  0  0  0  0
   -7.1791  -25.3540   26.0562 H   0  0  0  0  0  0
   -6.5798  -23.3556   24.6894 H   0  0  0  0  0  0
   -7.3544  -21.4829   23.2867 H   0  0  0  0  0  0
   -5.2704  -22.0956   19.9782 H   0  0  0  0  0  0
  1  2  2  0  0  0
  2  3  1  0  0  0
  2 13  1  0  0  0
  3  4  1  0  0  0
  3 39  1  0  0  0
  4  5  2  0  0  0
  4 12  1  0  0  0
  5  6  1  0  0  0
  6  7  1  0  0  0
  6 25  1  0  0  0
  6 26  1  0  0  0
  7  8  2  0  0  0
  7 11  1  0  0  0
  8  9  1  0  0  0
  8 27  1  0  0  0
  9 10  2  0  0  0
  9 28  1  0  0  0
 10 11  1  0  0  0
 10 29  1  0  0  0
 12 13  1  0  0  0
 13 14  1  0  0  0
 13 30  1  0  0  0
 14 15  1  0  0  0
 14 31  1  0  0  0
 14 32  1  0  0  0
 15 16  2  0  0  0
 15 24  1  0  0  0
 16 17  1  0  0  0
 16 33  1  0  0  0
 17 18  2  0  0  0
 17 34  1  0  0  0
 18 19  1  0  0  0
 18 23  1  0  0  0
 19 20  2  0  0  0
 20 21  1  0  0  0
 20 35  1  0  0  0
 21 22  2  0  0  0
 21 36  1  0  0  0
 22 23  1  0  0  0
 22 37  1  0  0  0
 23 24  2  0  0  0
 24 38  1  0  0  0
M  END
> <s_m_source_file>
../4eos_ligand.sdf

> <i_m_source_file_index>
1

> <s_epik_input>
czFbY0hdW2NIXVtjSF1jMVtDSDJdW05IXUMoPU5DMj1PKVNbQ0hdMltDSDJdYyhbY0hdW2NIXTMpW2NIXWMoYzM0KVtjSF1bY0hdW2NIXW40

> <s_epik_cmdline>
J2VwaWtfYXBwJywgJy1pbWFlJywgJ2xpZ2FuZF9wcm8ubWFlJywgJy1vbWFlJywgJ2xpZ2FuZF9wcmVwLm1hZScsICctbXMnLCAnMScsICctcGgnLCAnNycsICctcGh0JywgJzAuNScsICctbnQn

> <r_lp_tautomer_probability>
1

> <r_epik_Ionization_Penalty>
  0.0094

> <r_epik_Ionization_Penalty_Charging>
  0.0000

> <r_epik_Ionization_Penalty_Neutral>
  0.0094

> <r_epik_State_Penalty>
 -0.0000

> <r_epik_Charging_Adjusted_Penalty>
0

> <i_epik_Tot_Q>
0

> <i_epik_Tot_abs_Q>
0

> <s_epik_Chemistry_Notes>
This compound has an imine and may undergo hydrolysis.

$$$$
