4eox_ligand
                    3D
 Schrodinger Suite 2020-3.
 59 61  0  0  1  0            999 V2000
   17.9040   -6.3800    1.1690 C   0  0  0  0  0  0
   17.7870   -5.6250    2.3220 C   0  0  0  0  0  0
   18.9200   -7.3050    1.0050 C   0  0  0  0  0  0
   18.7010   -5.8120    3.3380 C   0  0  0  0  0  0
   19.8590   -7.4880    1.9960 C   0  0  0  0  0  0
   19.7160   -6.7230    3.1470 C   0  0  0  0  0  0
   28.5820   -2.1970    4.8430 C   0  0  0  0  0  0
   20.6740   -6.8490    4.2430 C   0  0  0  0  0  0
   23.0050   -7.3090    4.6130 C   0  0  0  0  0  0
   25.1900   -5.3040    4.7570 C   0  0  0  0  0  0
   25.0370   -5.5640    9.4810 C   0  0  0  0  0  0
   24.6460   -4.1520    9.8900 C   0  0  0  0  0  0
   26.1920   -8.7700    4.4050 C   0  0  0  0  0  0
   24.8190   -8.7940    3.7780 C   0  0  0  0  0  0
   25.9850   -5.4320    8.2780 C   0  0  0  0  0  0
   25.1940   -3.2320    8.8180 C   0  0  0  0  0  0
   26.4900   -7.3930    4.9550 C   0  0  0  0  0  0
   24.3100   -7.3660    3.8590 C   0  0  2  0  0  0
   25.5030   -4.1860    7.6470 C   0  0  0  0  0  0
   26.1280   -3.5580    6.4330 C   0  0  0  0  0  0
   27.0660   -4.0400    4.1940 C   0  0  0  0  0  0
   26.3870   -4.6780    5.3840 C   0  0  2  0  0  0
   25.2780   -6.6790    4.6630 N   0  0  0  0  0  0
   21.9500   -7.0260    3.7860 N   0  0  0  0  0  0
   28.3220   -3.4770    4.5200 N   0  0  0  0  0  0
   29.7210   -1.8610    5.1220 O   0  0  0  0  0  0
   20.3540   -6.6780    5.4070 O   0  0  0  0  0  0
   22.9240   -7.4640    5.8250 O   0  0  0  0  0  0
   24.2330   -4.7090    4.2950 O   0  0  0  0  0  0
   29.4400   -4.3170    4.6690 O   0  0  0  0  0  0
   17.1769   -6.2428    0.3686 H   0  0  0  0  0  0
   16.9853   -4.8939    2.4261 H   0  0  0  0  0  0
   18.9775   -7.8912    0.0879 H   0  0  0  0  0  0
   18.6218   -5.2521    4.2698 H   0  0  0  0  0  0
   20.6764   -8.2000    1.8825 H   0  0  0  0  0  0
   27.7707   -1.4543    4.8559 H   0  0  0  0  0  0
   25.5407   -6.0631   10.3220 H   0  0  0  0  0  0
   24.1343   -6.1295    9.2064 H   0  0  0  0  0  0
   23.5502   -4.0782    9.9514 H   0  0  0  0  0  0
   25.0846   -3.9199   10.8717 H   0  0  0  0  0  0
   26.2335   -9.5023    5.2248 H   0  0  0  0  0  0
   26.9461   -9.0259    3.6462 H   0  0  0  0  0  0
   24.8983   -9.1333    2.7346 H   0  0  0  0  0  0
   24.1714   -9.4834    4.3396 H   0  0  0  0  0  0
   27.0230   -5.3620    8.6352 H   0  0  0  0  0  0
   25.8791   -6.3140    7.6292 H   0  0  0  0  0  0
   24.4344   -2.4807    8.5562 H   0  0  0  0  0  0
   26.0954   -2.7262    9.1945 H   0  0  0  0  0  0
   26.6959   -7.4655    6.0331 H   0  0  0  0  0  0
   27.3683   -6.9751    4.4413 H   0  0  0  0  0  0
   24.1944   -6.9063    2.8664 H   0  0  0  0  0  0
   24.6643   -4.5391    7.0290 H   0  0  0  0  0  0
   25.4446   -2.8025    6.0181 H   0  0  0  0  0  0
   27.0767   -3.0784    6.7156 H   0  0  0  0  0  0
   27.2288   -4.7988    3.4144 H   0  0  0  0  0  0
   26.4293   -3.2361    3.7960 H   0  0  0  0  0  0
   26.9303   -5.4695    5.9210 H   0  0  0  0  0  0
   22.1656   -6.9427    2.7106 H   0  0  0  0  0  0
   30.4206   -3.8878    4.9224 H   0  0  0  0  0  0
  1  2  2  0  0  0
  1  3  1  0  0  0
  1 31  1  0  0  0
  2  4  1  0  0  0
  2 32  1  0  0  0
  3  5  2  0  0  0
  3 33  1  0  0  0
  4  6  2  0  0  0
  4 34  1  0  0  0
  5  6  1  0  0  0
  5 35  1  0  0  0
  6  8  1  0  0  0
  7 25  1  0  0  0
  7 26  2  0  0  0
  7 36  1  0  0  0
  8 24  1  0  0  0
  8 27  2  0  0  0
  9 18  1  0  0  0
  9 24  1  0  0  0
  9 28  2  0  0  0
 10 22  1  0  0  0
 10 23  1  0  0  0
 10 29  2  0  0  0
 11 12  1  0  0  0
 11 15  1  0  0  0
 11 37  1  0  0  0
 11 38  1  0  0  0
 12 16  1  0  0  0
 12 39  1  0  0  0
 12 40  1  0  0  0
 13 14  1  0  0  0
 13 17  1  0  0  0
 13 41  1  0  0  0
 13 42  1  0  0  0
 14 18  1  0  0  0
 14 43  1  0  0  0
 14 44  1  0  0  0
 15 19  1  0  0  0
 15 45  1  0  0  0
 15 46  1  0  0  0
 16 19  1  0  0  0
 16 47  1  0  0  0
 16 48  1  0  0  0
 17 23  1  0  0  0
 17 49  1  0  0  0
 17 50  1  0  0  0
 18 23  1  0  0  0
 18 51  1  0  0  0
 19 20  1  0  0  0
 19 52  1  0  0  0
 20 22  1  0  0  0
 20 53  1  0  0  0
 20 54  1  0  0  0
 21 22  1  0  0  0
 21 25  1  0  0  0
 21 55  1  0  0  0
 21 56  1  0  0  0
 22 57  1  0  0  0
 24 58  1  0  0  0
 25 30  1  0  0  0
 30 59  1  0  0  0
M  END
> <s_m_source_file>
../4eox_ligand.sdf

> <i_m_source_file_index>
1

> <s_epik_input>
W2NIXTFbY0hdW2NIXVtjSF1bY0hdYzFDKD1PKVtOSF1DKD1PKVtDQEBIXTJbQ0gyXVtDSDJdW0NIMl1OMkMoPU8pW0NAQEhdKFtDSDJdTihbQ0hdPU8pW09IXSlbQ0gyXVtDSF0zW0NIMl1bQ0gyXVtDSDJdW0NIMl0z

> <s_epik_cmdline>
J2VwaWtfYXBwJywgJy1pbWFlJywgJ2xpZ2FuZF9wcm8ubWFlJywgJy1vbWFlJywgJ2xpZ2FuZF9wcmVwLm1hZScsICctbXMnLCAnMScsICctcGgnLCAnNycsICctcGh0JywgJzAuNScsICctbnQn

> <r_lp_tautomer_probability>
1

> <r_epik_Ionization_Penalty>
  0.0081

> <r_epik_Ionization_Penalty_Charging>
  0.0000

> <r_epik_Ionization_Penalty_Neutral>
  0.0081

> <r_epik_State_Penalty>
 -0.0000

> <r_epik_Charging_Adjusted_Penalty>
0

> <i_epik_Tot_Q>
0

> <i_epik_Tot_abs_Q>
0

> <s_epik_Chemistry_Notes>
This compound has a N-S or N-O group and may undergo hydrolysis at high or low pH.

$$$$
