4eoy_ligand
                    3D
 Schrodinger Suite 2020-3.
137140  0  0  1  0            999 V2000
    9.0810  -34.8320   27.1270 N   0  3  0  0  0  0
    7.6820  -35.3130   27.3430 C   0  0  2  0  0  0
    7.3150  -35.4540   28.8280 C   0  0  0  0  0  0
    6.3040  -36.0880   29.1590 O   0  0  0  0  0  0
    7.4400  -36.6390   26.5850 C   0  0  0  0  0  0
    8.3960  -37.7600   26.9990 C   0  0  0  0  0  0
    9.2310  -37.6050   27.8950 O   0  0  0  0  0  0
    8.2700  -38.9040   26.3380 N   0  0  0  0  0  0
    8.1110  -34.8300   29.7050 N   0  0  0  0  0  0
    7.9910  -35.0140   31.1550 C   0  0  2  0  0  0
    7.2410  -33.8780   31.8400 C   0  0  0  0  0  0
    7.5580  -32.7080   31.6280 O   0  0  0  0  0  0
    9.3790  -35.1570   31.7870 C   0  0  0  0  0  0
    9.9910  -36.5300   31.5570 C   0  0  0  0  0  0
    9.7920  -37.0990   30.4670 O   0  0  0  0  0  0
   10.6720  -37.0460   32.4730 O   0  5  0  0  0  0
    6.2730  -34.2470   32.6770 N   0  0  0  0  0  0
    5.4750  -33.3090   33.4510 C   0  0  2  0  0  0
    5.4140  -33.6940   34.8930 C   0  0  0  0  0  0
    5.2980  -34.8720   35.2130 O   0  0  0  0  0  0
    4.0450  -33.3020   32.9420 C   0  0  0  0  0  0
    3.8920  -32.9770   31.4900 C   0  0  0  0  0  0
    3.9380  -33.8570   30.4170 C   0  0  0  0  0  0
    3.6240  -31.6620   30.8970 C   0  0  0  0  0  0
    3.7410  -33.1930   29.2310 N   0  3  0  0  0  0
    3.5430  -31.8760   29.4490 C   0  0  0  0  0  0
    3.4520  -30.3800   31.3990 C   0  0  0  0  0  0
    3.3050  -30.8380   28.5650 C   0  0  0  0  0  0
    3.2140  -29.3430   30.5020 C   0  0  0  0  0  0
    3.1390  -29.5700   29.1150 C   0  0  0  0  0  0
    5.4560  -32.7020   35.7800 N   0  0  0  0  0  0
    5.1600  -32.9160   37.1910 C   0  0  2  0  0  0
    3.6700  -32.7000   37.4550 C   0  0  0  0  0  0
    3.0680  -31.7210   36.9850 O   0  0  0  0  0  0
    5.9840  -31.9680   38.0690 C   0  0  0  0  0  0
    7.4990  -32.2080   38.1090 C   0  0  0  0  0  0
    8.0670  -32.1010   39.5330 C   0  0  0  0  0  0
    7.9100  -33.5900   37.5840 C   0  0  0  0  0  0
    3.0870  -33.6150   38.2260 N   0  0  0  0  0  0
    1.6750  -33.6020   38.5430 C   0  0  2  0  0  0
    1.4610  -33.3500   40.0300 C   0  0  0  0  0  0
    1.4440  -34.2830   40.8310 O   0  0  0  0  0  0
    1.0360  -34.9340   38.1520 C   0  0  0  0  0  0
    0.5770  -35.1110   36.7160 C   0  0  0  0  0  0
    1.5910  -34.6000   35.7120 C   0  0  0  0  0  0
    0.2640  -36.5780   36.4750 C   0  0  0  0  0  0
    1.2750  -32.0800   40.4090 N   0  0  0  0  0  0
    1.1270  -31.7510   41.8030 C   0  0  2  0  0  0
   -0.2140  -32.1620   42.3710 C   0  0  0  0  0  0
   -1.1990  -32.2500   41.6430 O   0  0  0  0  0  0
    1.2740  -30.2340   41.8010 C   0  0  0  0  0  0
    0.7040  -29.8240   40.5030 C   0  0  0  0  0  0
    1.0600  -30.9100   39.5460 C   0  0  0  0  0  0
   -0.2380  -32.4050   43.6760 N   0  0  0  0  0  0
   -1.4460  -32.8140   44.3900 C   0  0  2  0  0  0
   -1.5040  -32.1560   45.7700 C   0  0  0  0  0  0
   -0.5300  -31.5350   46.2180 O   0  0  0  0  0  0
   -1.4830  -34.3310   44.5400 C   0  0  0  0  0  0
   -2.6600  -34.7420   45.2150 O   0  0  0  0  0  0
   -2.6240  -32.3700   46.4610 N   0  0  0  0  0  0
   -3.0180  -31.5700   47.6270 C   0  0  2  0  0  0
   -2.6630  -32.2440   48.9600 C   0  0  0  0  0  0
   -1.4960  -32.3100   49.3420 O   0  0  0  0  0  0
   -4.5240  -31.3020   47.5780 C   0  0  0  0  0  0
   -5.0180  -30.6660   46.2920 C   0  0  0  0  0  0
   -5.0160  -31.3710   45.0840 C   0  0  0  0  0  0
   -5.5110  -29.3630   46.2870 C   0  0  0  0  0  0
   -5.4720  -30.7920   43.9150 C   0  0  0  0  0  0
   -5.9730  -28.7790   45.1210 C   0  0  0  0  0  0
   -5.9510  -29.4970   43.9410 C   0  0  0  0  0  0
   -6.4170  -28.9190   42.7870 O   0  0  0  0  0  0
   -3.5220  -32.7320   49.7010 O   0  5  0  0  0  0
    9.2331  -33.8894   27.6733 H   0  0  0  0  0  0
    9.2494  -34.6646   26.0529 H   0  0  0  0  0  0
    9.7897  -35.5881   27.4959 H   0  0  0  0  0  0
    7.0444  -34.5172   26.9306 H   0  0  0  0  0  0
    6.4158  -36.9904   26.7788 H   0  0  0  0  0  0
    7.5729  -36.4739   25.5056 H   0  0  0  0  0  0
    7.5129  -39.0011   25.5460 H   0  0  0  0  0  0
    8.9227  -39.7551   26.5822 H   0  0  0  0  0  0
    8.8794  -34.1564   29.2978 H   0  0  0  0  0  0
    7.3981  -35.9347   31.2590 H   0  0  0  0  0  0
   10.0584  -34.4087   31.3529 H   0  0  0  0  0  0
    9.3054  -34.9990   32.8731 H   0  0  0  0  0  0
    6.0910  -35.3282   32.7660 H   0  0  0  0  0  0
    5.9846  -32.3412   33.3341 H   0  0  0  0  0  0
    3.5979  -34.2959   33.0910 H   0  0  0  0  0  0
    3.4623  -32.5511   33.4958 H   0  0  0  0  0  0
    4.1145  -34.9286   30.5917 H   0  0  0  0  0  0
    3.5021  -30.1895   32.4711 H   0  0  0  0  0  0
    3.2502  -31.0054   27.4893 H   0  0  0  0  0  0
    3.0825  -28.3302   30.8829 H   0  0  0  0  0  0
    2.9450  -28.7274   28.4513 H   0  0  0  0  0  0
    5.7238  -31.6975   35.4204 H   0  0  0  0  0  0
    5.4403  -33.9600   37.3948 H   0  0  0  0  0  0
    5.8545  -30.9347   37.7148 H   0  0  0  0  0  0
    5.6420  -32.0437   39.1117 H   0  0  0  0  0  0
    7.9062  -31.4217   37.4564 H   0  0  0  0  0  0
    7.8010  -31.1234   39.9614 H   0  0  0  0  0  0
    9.1619  -32.2009   39.4995 H   0  0  0  0  0  0
    7.6446  -32.9021   40.1574 H   0  0  0  0  0  0
    7.5276  -33.7222   36.5611 H   0  0  0  0  0  0
    7.4899  -34.3698   38.2362 H   0  0  0  0  0  0
    9.0072  -33.6686   37.5783 H   0  0  0  0  0  0
    3.7338  -34.4085   38.6285 H   0  0  0  0  0  0
    1.2521  -32.7751   37.9536 H   0  0  0  0  0  0
    1.7536  -35.7496   38.3247 H   0  0  0  0  0  0
    0.1361  -35.1021   38.7619 H   0  0  0  0  0  0
   -0.3278  -34.5034   36.5670 H   0  0  0  0  0  0
    1.7989  -33.5379   35.9090 H   0  0  0  0  0  0
    1.1882  -34.7122   34.6946 H   0  0  0  0  0  0
    2.5218  -35.1790   35.8038 H   0  0  0  0  0  0
   -0.4727  -36.9222   37.2158 H   0  0  0  0  0  0
    1.1858  -37.1703   36.5720 H   0  0  0  0  0  0
   -0.1477  -36.7036   35.4627 H   0  0  0  0  0  0
    1.8723  -32.3046   42.3930 H   0  0  0  0  0  0
    0.7184  -29.8107   42.6507 H   0  0  0  0  0  0
    2.3378  -29.9686   41.8897 H   0  0  0  0  0  0
   -0.3865  -29.7166   40.5990 H   0  0  0  0  0  0
    1.1417  -28.8621   40.1977 H   0  0  0  0  0  0
    1.9835  -30.6894   38.9906 H   0  0  0  0  0  0
    0.2471  -31.1224   38.8361 H   0  0  0  0  0  0
    0.7095  -32.2854   44.2218 H   0  0  0  0  0  0
   -2.2894  -32.4730   43.7716 H   0  0  0  0  0  0
   -1.4638  -34.7984   43.5444 H   0  0  0  0  0  0
   -0.6084  -34.6637   45.1182 H   0  0  0  0  0  0
   -2.8406  -35.8104   45.4047 H   0  0  0  0  0  0
   -3.2661  -33.1944   46.1172 H   0  0  0  0  0  0
   -2.4352  -30.6415   47.5362 H   0  0  0  0  0  0
   -5.0691  -32.2507   47.6911 H   0  0  0  0  0  0
   -4.8018  -30.6198   48.3950 H   0  0  0  0  0  0
   -4.6477  -32.3967   45.0643 H   0  0  0  0  0  0
   -5.5331  -28.7945   47.2167 H   0  0  0  0  0  0
   -5.4538  -31.3526   42.9804 H   0  0  0  0  0  0
   -6.3525  -27.7573   45.1333 H   0  0  0  0  0  0
   -6.4025  -29.4848   41.8438 H   0  0  0  0  0  0
    3.7599  -33.7469   28.2808 H   0  0  0  0  0  0
  1  2  1  0  0  0
  1 73  1  0  0  0
  1 74  1  0  0  0
  1 75  1  0  0  0
  2  3  1  0  0  0
  2  5  1  0  0  0
  2 76  1  0  0  0
  3  4  2  0  0  0
  3  9  1  0  0  0
  5  6  1  0  0  0
  5 77  1  0  0  0
  5 78  1  0  0  0
  6  7  2  0  0  0
  6  8  1  0  0  0
  8 79  1  0  0  0
  8 80  1  0  0  0
  9 10  1  0  0  0
  9 81  1  0  0  0
 10 11  1  0  0  0
 10 13  1  0  0  0
 10 82  1  0  0  0
 11 12  2  0  0  0
 11 17  1  0  0  0
 13 14  1  0  0  0
 13 83  1  0  0  0
 13 84  1  0  0  0
 14 15  2  0  0  0
 14 16  1  0  0  0
 17 18  1  0  0  0
 17 85  1  0  0  0
 18 19  1  0  0  0
 18 21  1  0  0  0
 18 86  1  0  0  0
 19 20  2  0  0  0
 19 31  1  0  0  0
 21 22  1  0  0  0
 21 87  1  0  0  0
 21 88  1  0  0  0
 22 23  2  0  0  0
 22 24  1  0  0  0
 23 25  1  0  0  0
 23 89  1  0  0  0
 24 26  2  0  0  0
 24 27  1  0  0  0
 25 26  1  0  0  0
 25137  1  0  0  0
 26 28  1  0  0  0
 27 29  2  0  0  0
 27 90  1  0  0  0
 28 30  2  0  0  0
 28 91  1  0  0  0
 29 30  1  0  0  0
 29 92  1  0  0  0
 30 93  1  0  0  0
 31 32  1  0  0  0
 31 94  1  0  0  0
 32 33  1  0  0  0
 32 35  1  0  0  0
 32 95  1  0  0  0
 33 34  2  0  0  0
 33 39  1  0  0  0
 35 36  1  0  0  0
 35 96  1  0  0  0
 35 97  1  0  0  0
 36 37  1  0  0  0
 36 38  1  0  0  0
 36 98  1  0  0  0
 37 99  1  0  0  0
 37100  1  0  0  0
 37101  1  0  0  0
 38102  1  0  0  0
 38103  1  0  0  0
 38104  1  0  0  0
 39 40  1  0  0  0
 39105  1  0  0  0
 40 41  1  0  0  0
 40 43  1  0  0  0
 40106  1  0  0  0
 41 42  2  0  0  0
 41 47  1  0  0  0
 43 44  1  0  0  0
 43107  1  0  0  0
 43108  1  0  0  0
 44 45  1  0  0  0
 44 46  1  0  0  0
 44109  1  0  0  0
 45110  1  0  0  0
 45111  1  0  0  0
 45112  1  0  0  0
 46113  1  0  0  0
 46114  1  0  0  0
 46115  1  0  0  0
 47 48  1  0  0  0
 47 53  1  0  0  0
 48 49  1  0  0  0
 48 51  1  0  0  0
 48116  1  0  0  0
 49 50  2  0  0  0
 49 54  1  0  0  0
 51 52  1  0  0  0
 51117  1  0  0  0
 51118  1  0  0  0
 52 53  1  0  0  0
 52119  1  0  0  0
 52120  1  0  0  0
 53121  1  0  0  0
 53122  1  0  0  0
 54 55  1  0  0  0
 54123  1  0  0  0
 55 56  1  0  0  0
 55 58  1  0  0  0
 55124  1  0  0  0
 56 57  2  0  0  0
 56 60  1  0  0  0
 58 59  1  0  0  0
 58125  1  0  0  0
 58126  1  0  0  0
 59127  1  0  0  0
 60 61  1  0  0  0
 60128  1  0  0  0
 61 62  1  0  0  0
 61 64  1  0  0  0
 61129  1  0  0  0
 62 63  2  0  0  0
 62 72  1  0  0  0
 64 65  1  0  0  0
 64130  1  0  0  0
 64131  1  0  0  0
 65 66  2  0  0  0
 65 67  1  0  0  0
 66 68  1  0  0  0
 66132  1  0  0  0
 67 69  2  0  0  0
 67133  1  0  0  0
 68 70  2  0  0  0
 68134  1  0  0  0
 69 70  1  0  0  0
 69135  1  0  0  0
 70 71  1  0  0  0
 71136  1  0  0  0
M  CHG  4   1   1  16  -1  25   1  72  -1
M  END
> <s_m_source_file>
../4eoy_ligand.sdf

> <i_m_source_file_index>
1

> <s_epik_input>
Tz1DKFtOSDJdKVtDSDJdW0NASF0oW05IMytdKUMoPU8pW05IXVtDQEBIXShbQ0gyXUMoPU8pW09IXSlDKD1PKVtOSF1bQ0BASF0oW0NIMl1jMVtjSF1bbkhdYyhjMTIpW2NIXVtjSF1bY0hdW2NIXTIpQyg9TylbTkhdW0NAQEhdKFtDSDJdW0NIXShbQ0gzXSlbQ0gzXSlDKD1PKVtOSF1bQ0BASF0oW0NIMl1bQ0hdKFtDSDNdKVtDSDNdKUMoPU8pTjNbQ0BASF0oW0NIMl1bQ0gyXVtDSDJdMylDKD1PKVtOSF1bQ0BASF0oW0NIMl1bT0hdKUMoPU8pW05IXVtDQEhdKEMoPU8pW09IXSlbQ0gyXWM0W2NIXVtjSF1jKFtPSF0pW2NIXVtjSF00

> <s_epik_cmdline>
J2VwaWtfYXBwJywgJy1pbWFlJywgJ2xpZ2FuZF9wcm8ubWFlJywgJy1vbWFlJywgJ2xpZ2FuZF9wcmVwLm1hZScsICctbXMnLCAnMScsICctcGgnLCAnNycsICctcGh0JywgJzAuNScsICctbnQn

> <r_epik_Ionization_Penalty>
  0.2067

> <r_epik_Ionization_Penalty_Charging>
  0.2061

> <r_epik_Ionization_Penalty_Neutral>
  0.0007

> <r_epik_State_Penalty>
  0.1948

> <r_epik_Charging_Adjusted_Penalty>
0.400838730018328

> <i_epik_Tot_Q>
0

> <i_epik_Tot_abs_Q>
4

$$$$
