4ep2_ligand
                    3D
 Schrodinger Suite 2020-3.
111112  0  0  1  0            999 V2000
   24.8110   22.7870    7.9980 N   0  3  0  0  0  0
   25.2630   23.9370    7.1790 C   0  0  2  0  0  0
   24.3040   25.1130    7.4050 C   0  0  0  0  0  0
   24.4280   26.1860    6.7960 O   0  0  0  0  0  0
   25.3130   23.5420    5.7140 C   0  0  0  0  0  0
   23.3570   24.9140    8.3130 N   0  0  0  0  0  0
   22.4730   25.9890    8.6630 C   0  0  2  0  0  0
   22.5020   26.3250   10.1150 C   0  0  0  0  0  0
   22.4830   25.4630   11.0040 O   0  0  0  0  0  0
   21.0590   25.7250    8.2050 C   0  0  0  0  0  0
   20.7870   26.3240    6.8520 C   0  0  0  0  0  0
   20.9490   25.3120    5.7480 C   0  0  0  0  0  0
   21.3960   24.1820    6.0520 O   0  0  0  0  0  0
   20.6460   25.6510    4.5800 O   0  5  0  0  0  0
   22.5360   27.6210   10.3300 N   0  0  0  0  0  0
   22.9370   28.1740   11.5820 C   0  0  2  0  0  0
   21.9040   29.1970   11.9500 C   0  0  0  0  0  0
   21.9660   30.3640   11.5550 O   0  0  0  0  0  0
   24.3140   28.8260   11.4510 C   0  0  2  0  0  0
   25.2590   27.8390   11.0050 O   0  0  0  0  0  0
   24.7630   29.4300   12.7800 C   0  0  0  0  0  0
   20.8970   28.7480   12.6570 N   0  0  0  0  0  0
   19.9590   29.6890   13.1360 C   0  0  2  0  0  0
   20.4800   30.1660   14.5090 C   0  0  0  0  0  0
   21.5740   29.7950   14.9460 O   0  0  0  0  0  0
   18.5440   29.0920   13.0390 C   0  0  0  0  0  0
   18.3480   28.2600   11.7740 C   0  0  0  0  0  0
   18.2950   28.8620   10.5160 C   0  0  0  0  0  0
   18.3680   26.8740   11.8310 C   0  0  0  0  0  0
   18.1840   28.0950    9.3570 C   0  0  0  0  0  0
   18.2570   26.1060   10.6820 C   0  0  0  0  0  0
   18.1630   26.7140    9.4440 C   0  0  0  0  0  0
   19.7370   31.0460   15.1280 N   0  0  0  0  0  0
   20.2500   32.1680   15.9110 C   0  0  2  0  0  0
   19.4540   33.2950   15.3390 C   0  0  0  0  0  0
   19.5180   33.6110   14.1330 O   0  0  0  0  0  0
   21.7680   32.4800   15.8250 C   0  0  0  0  0  0
   22.1090   33.9010   16.3460 C   0  0  0  0  0  0
   22.0480   34.2090   17.7090 C   0  0  0  0  0  0
   22.4210   34.9390   15.4660 C   0  0  0  0  0  0
   22.2970   35.4980   18.1710 C   0  0  0  0  0  0
   22.6810   36.2300   15.9270 C   0  0  0  0  0  0
   22.6100   36.5060   17.2740 C   0  0  0  0  0  0
   22.8900   37.7840   17.7320 O   0  0  0  0  0  0
   18.5490   33.7580   16.1670 N   0  0  0  0  0  0
   17.9130   34.9800   15.9000 C   0  0  2  0  0  0
   18.0350   35.9030   17.0990 C   0  0  0  0  0  0
   17.8780   35.5270   18.2740 O   0  0  0  0  0  0
   16.4860   34.7830   15.3420 C   0  0  0  0  0  0
   16.0850   33.3110   15.3890 C   0  0  0  0  0  0
   15.4880   35.6880   16.0450 C   0  0  0  0  0  0
   18.5930   37.0420   16.7430 N   0  0  0  0  0  0
   18.5970   38.2510   17.5120 C   0  0  2  0  0  0
   17.1700   38.6350   17.8950 C   0  0  0  0  0  0
   16.4072   39.1618   17.0417 O   0  0  0  0  0  0
   19.1740   39.3130   16.5890 C   0  0  0  0  0  0
   20.2110   40.1600   17.2500 C   0  0  0  0  0  0
   21.0060   39.6140   18.0420 O   0  0  0  0  0  0
   20.2650   41.3670   16.9270 O   0  5  0  0  0  0
   16.7545   38.4248   19.0658 O   0  5  0  0  0  0
   24.7777   23.0818    9.0572 H   0  0  0  0  0  0
   25.5126   21.9492    7.8724 H   0  0  0  0  0  0
   23.8073   22.4767    7.6720 H   0  0  0  0  0  0
   26.2805   24.2129    7.4930 H   0  0  0  0  0  0
   26.0073   22.6986    5.5852 H   0  0  0  0  0  0
   25.6598   24.3972    5.1153 H   0  0  0  0  0  0
   24.3081   23.2441    5.3801 H   0  0  0  0  0  0
   23.2473   23.9321    8.7966 H   0  0  0  0  0  0
   22.8992   26.8423    8.1151 H   0  0  0  0  0  0
   20.8907   24.6398    8.1416 H   0  0  0  0  0  0
   20.3524   26.1642    8.9247 H   0  0  0  0  0  0
   19.7560   26.7063    6.8208 H   0  0  0  0  0  0
   21.4900   27.1499    6.6686 H   0  0  0  0  0  0
   22.2416   28.2855    9.5043 H   0  0  0  0  0  0
   22.9784   27.3588   12.3194 H   0  0  0  0  0  0
   24.3011   29.6117   10.6812 H   0  0  0  0  0  0
   25.0891   27.3025   10.0599 H   0  0  0  0  0  0
   24.0301   30.1823   13.1070 H   0  0  0  0  0  0
   25.7460   29.9069   12.6525 H   0  0  0  0  0  0
   24.8362   28.6358   13.5376 H   0  0  0  0  0  0
   20.7674   27.6790   12.8816 H   0  0  0  0  0  0
   19.9225   30.5680   12.4757 H   0  0  0  0  0  0
   18.3610   28.4399   13.9058 H   0  0  0  0  0  0
   17.8030   29.9049   13.0287 H   0  0  0  0  0  0
   18.3411   29.9483   10.4384 H   0  0  0  0  0  0
   18.4729   26.3797   12.7968 H   0  0  0  0  0  0
   18.1139   28.5821    8.3844 H   0  0  0  0  0  0
   18.2438   25.0185   10.7551 H   0  0  0  0  0  0
   18.0729   26.1092    8.5417 H   0  0  0  0  0  0
   18.6519   30.8959   15.0276 H   0  0  0  0  0  0
   20.0957   31.9340   16.9747 H   0  0  0  0  0  0
   22.3268   31.7522   16.4316 H   0  0  0  0  0  0
   22.0972   32.4138   14.7775 H   0  0  0  0  0  0
   21.8005   33.4239   18.4235 H   0  0  0  0  0  0
   22.4624   34.7365   14.3958 H   0  0  0  0  0  0
   22.2457   35.7142   19.2381 H   0  0  0  0  0  0
   22.9401   37.0193   15.2214 H   0  0  0  0  0  0
   22.8341   38.0073   18.8076 H   0  0  0  0  0  0
   18.2883   33.1883   17.0711 H   0  0  0  0  0  0
   18.5103   35.4228   15.0893 H   0  0  0  0  0  0
   16.4633   35.0823   14.2838 H   0  0  0  0  0  0
   16.8421   32.7079   14.8664 H   0  0  0  0  0  0
   15.1094   33.1809   14.8977 H   0  0  0  0  0  0
   16.0145   32.9835   16.4367 H   0  0  0  0  0  0
   15.8291   36.7316   15.9783 H   0  0  0  0  0  0
   15.4088   35.3950   17.1023 H   0  0  0  0  0  0
   14.5037   35.5924   15.5633 H   0  0  0  0  0  0
   19.0874   37.0133   15.7608 H   0  0  0  0  0  0
   19.1913   38.0861   18.4229 H   0  0  0  0  0  0
   19.6430   38.8281   15.7202 H   0  0  0  0  0  0
   18.3678   39.9785   16.2466 H   0  0  0  0  0  0
  1  2  1  0  0  0
  1 61  1  0  0  0
  1 62  1  0  0  0
  1 63  1  0  0  0
  2  3  1  0  0  0
  2  5  1  0  0  0
  2 64  1  0  0  0
  3  4  2  0  0  0
  3  6  1  0  0  0
  5 65  1  0  0  0
  5 66  1  0  0  0
  5 67  1  0  0  0
  6  7  1  0  0  0
  6 68  1  0  0  0
  7  8  1  0  0  0
  7 10  1  0  0  0
  7 69  1  0  0  0
  8  9  2  0  0  0
  8 15  1  0  0  0
 10 11  1  0  0  0
 10 70  1  0  0  0
 10 71  1  0  0  0
 11 12  1  0  0  0
 11 72  1  0  0  0
 11 73  1  0  0  0
 12 13  2  0  0  0
 12 14  1  0  0  0
 15 16  1  0  0  0
 15 74  1  0  0  0
 16 17  1  0  0  0
 16 19  1  0  0  0
 16 75  1  0  0  0
 17 18  2  0  0  0
 17 22  1  0  0  0
 19 20  1  0  0  0
 19 21  1  0  0  0
 19 76  1  0  0  0
 20 77  1  0  0  0
 21 78  1  0  0  0
 21 79  1  0  0  0
 21 80  1  0  0  0
 22 23  1  0  0  0
 22 81  1  0  0  0
 23 24  1  0  0  0
 23 26  1  0  0  0
 23 82  1  0  0  0
 24 25  2  0  0  0
 24 33  1  0  0  0
 26 27  1  0  0  0
 26 83  1  0  0  0
 26 84  1  0  0  0
 27 28  2  0  0  0
 27 29  1  0  0  0
 28 30  1  0  0  0
 28 85  1  0  0  0
 29 31  2  0  0  0
 29 86  1  0  0  0
 30 32  2  0  0  0
 30 87  1  0  0  0
 31 32  1  0  0  0
 31 88  1  0  0  0
 32 89  1  0  0  0
 33 34  1  0  0  0
 33 90  1  0  0  0
 34 35  1  0  0  0
 34 37  1  0  0  0
 34 91  1  0  0  0
 35 36  2  0  0  0
 35 45  1  0  0  0
 37 38  1  0  0  0
 37 92  1  0  0  0
 37 93  1  0  0  0
 38 39  2  0  0  0
 38 40  1  0  0  0
 39 41  1  0  0  0
 39 94  1  0  0  0
 40 42  2  0  0  0
 40 95  1  0  0  0
 41 43  2  0  0  0
 41 96  1  0  0  0
 42 43  1  0  0  0
 42 97  1  0  0  0
 43 44  1  0  0  0
 44 98  1  0  0  0
 45 46  1  0  0  0
 45 99  1  0  0  0
 46 47  1  0  0  0
 46 49  1  0  0  0
 46100  1  0  0  0
 47 48  2  0  0  0
 47 52  1  0  0  0
 49 50  1  0  0  0
 49 51  1  0  0  0
 49101  1  0  0  0
 50102  1  0  0  0
 50103  1  0  0  0
 50104  1  0  0  0
 51105  1  0  0  0
 51106  1  0  0  0
 51107  1  0  0  0
 52 53  1  0  0  0
 52108  1  0  0  0
 53 54  1  0  0  0
 53 56  1  0  0  0
 53109  1  0  0  0
 54 55  2  0  0  0
 54 60  1  0  0  0
 56 57  1  0  0  0
 56110  1  0  0  0
 56111  1  0  0  0
 57 58  2  0  0  0
 57 59  1  0  0  0
M  CHG  4   1   1  14  -1  59  -1  60  -1
M  END
> <s_m_source_file>
../4ep2_ligand.sdf

> <i_m_source_file_index>
1

> <s_epik_input>
W05IMytdW0NAQEhdKFtDSDNdKUMoPU8pW05IXVtDQEBIXShbQ0gyXVtDSDJdQyg9TylbT0hdKUMoPU8pW05IXVtDQEBIXShbQ0BIXShbT0hdKVtDSDNdKUMoPU8pW05IXVtDQEBIXShbQ0gyXWMxW2NIXVtjSF1bY0hdW2NIXVtjSF0xKUMoPU8pW05IXVtDQEBIXShbQ0gyXWMyW2NIXVtjSF1jKFtPSF0pW2NIXVtjSF0yKUMoPU8pW05IXVtDQEBIXShbQ0hdKFtDSDNdKVtDSDNdKUMoPU8pW05IXVtDQEhdKEMoPU8pW09IXSlbQ0gyXUMoPU8pW09IXQ==

> <s_epik_cmdline>
J2VwaWtfYXBwJywgJy1pbWFlJywgJ2xpZ2FuZF9wcm8ubWFlJywgJy1vbWFlJywgJ2xpZ2FuZF9wcmVwLm1hZScsICctbXMnLCAnMScsICctcGgnLCAnNycsICctcGh0JywgJzAuNScsICctbnQn

> <r_lp_tautomer_probability>
0.999999999997365

> <r_epik_Ionization_Penalty>
  0.1220

> <r_epik_Ionization_Penalty_Charging>
  0.1211

> <r_epik_Ionization_Penalty_Neutral>
  0.0009

> <r_epik_State_Penalty>
  0.1077

> <r_epik_Charging_Adjusted_Penalty>
0.22880110056509

> <i_epik_Tot_Q>
-2

> <i_epik_Tot_abs_Q>
4

$$$$
