4epy_ligand
                    3D
 Schrodinger Suite 2020-3.
 51 55  0  0  1  0            999 V2000
   25.2870   -8.2020   13.0740 O   0  0  0  0  0  0
   24.7460   -8.0830   14.1650 C   0  0  0  0  0  0
   24.3900   -9.3380   14.9380 C   0  0  1  0  0  0
   23.6910  -10.3540   14.1510 N   0  0  1  0  0  0
   24.5930  -11.4600   13.9890 C   0  0  0  0  0  0
   25.5100  -11.4150   15.1590 C   0  0  0  0  0  0
   25.6200   -9.9710   15.4930 C   0  0  0  0  0  0
   24.4210   -6.7920   14.7530 N   0  0  0  0  0  0
   24.7220   -5.4850   14.1570 C   0  0  0  0  0  0
   24.8460   -4.3000   15.0010 C   0  0  0  0  0  0
   25.1580   -2.9810   14.4140 C   0  0  0  0  0  0
   24.9350   -5.3460   12.6920 C   0  0  0  0  0  0
   25.2680   -3.9670   12.0760 C   0  0  0  0  0  0
   25.3730   -2.8500   12.8850 C   0  0  0  0  0  0
   25.6720   -1.7760   12.0890 N   0  3  0  0  0  0
   25.7510   -2.2240   10.7810 C   0  0  0  0  0  0
   26.0680   -1.3840    9.5630 C   0  0  0  0  0  0
   24.8460   -1.1380    8.7260 C   0  0  0  0  0  0
   24.4500   -1.8610    7.6000 C   0  0  0  0  0  0
   23.2730   -1.3000    7.1240 N   0  3  0  0  0  0
   22.9430   -0.2260    7.9510 C   0  0  0  0  0  0
   21.7660    0.7680    7.9310 C   0  0  0  0  0  0
   21.6840    1.8220    8.9630 C   0  0  0  0  0  0
   22.7060    1.9290    9.9970 C   0  0  0  0  0  0
   23.8330    0.9730   10.0160 C   0  0  0  0  0  0
   23.9160   -0.1270    8.9390 C   0  0  0  0  0  0
   25.5050   -3.5780   10.7810 N   0  3  0  0  0  0
   23.6916   -9.0278   15.7293 H   0  0  0  0  0  0
   22.7826  -10.6703   14.6846 H   0  0  0  0  0  0
   24.0211  -12.3994   13.9679 H   0  0  0  0  0  0
   25.1466  -11.3465   13.0453 H   0  0  0  0  0  0
   25.0765  -11.9950   15.9871 H   0  0  0  0  0  0
   26.4827  -11.8459   14.8793 H   0  0  0  0  0  0
   26.5076   -9.5178   15.0274 H   0  0  0  0  0  0
   25.6552   -9.8122   16.5809 H   0  0  0  0  0  0
   23.9068   -6.7438   15.7242 H   0  0  0  0  0  0
   24.7066   -4.3826   16.0890 H   0  0  0  0  0  0
   24.3381   -2.2803   14.6301 H   0  0  0  0  0  0
   26.0924   -2.5975   14.8496 H   0  0  0  0  0  0
   25.7780   -5.9811   12.3822 H   0  0  0  0  0  0
   24.0253   -5.6580   12.1580 H   0  0  0  0  0  0
   26.4705   -0.4115    9.8829 H   0  0  0  0  0  0
   26.8137   -1.9035    8.9433 H   0  0  0  0  0  0
   25.0555   -2.7104    7.2508 H   0  0  0  0  0  0
   20.9987    0.6941    7.1604 H   0  0  0  0  0  0
   20.8519    2.5259    8.9512 H   0  0  0  0  0  0
   22.6393    2.7111   10.7533 H   0  0  0  0  0  0
   24.6006    1.0452   10.7865 H   0  0  0  0  0  0
   22.7816   -1.7238    6.2358 H   0  0  0  0  0  0
   25.5242   -4.1405    9.8359 H   0  0  0  0  0  0
   25.8022   -0.7794   12.5360 H   0  0  0  0  0  0
  1  2  2  0  0  0
  2  3  1  0  0  0
  2  8  1  0  0  0
  3  4  1  0  0  0
  3  7  1  0  0  0
  3 28  1  0  0  0
  4  5  1  0  0  0
  4 29  1  0  0  0
  5  6  1  0  0  0
  5 30  1  0  0  0
  5 31  1  0  0  0
  6  7  1  0  0  0
  6 32  1  0  0  0
  6 33  1  0  0  0
  7 34  1  0  0  0
  7 35  1  0  0  0
  8  9  1  0  0  0
  8 36  1  0  0  0
  9 10  2  0  0  0
  9 12  1  0  0  0
 10 11  1  0  0  0
 10 37  1  0  0  0
 11 14  1  0  0  0
 11 38  1  0  0  0
 11 39  1  0  0  0
 12 13  1  0  0  0
 12 40  1  0  0  0
 12 41  1  0  0  0
 13 14  2  0  0  0
 13 27  1  0  0  0
 14 15  1  0  0  0
 15 16  1  0  0  0
 15 51  1  0  0  0
 16 17  1  0  0  0
 16 27  2  0  0  0
 17 18  1  0  0  0
 17 42  1  0  0  0
 17 43  1  0  0  0
 18 19  2  0  0  0
 18 26  1  0  0  0
 19 20  1  0  0  0
 19 44  1  0  0  0
 20 21  1  0  0  0
 20 49  1  0  0  0
 21 22  1  0  0  0
 21 26  2  0  0  0
 22 23  2  0  0  0
 22 45  1  0  0  0
 23 24  1  0  0  0
 23 46  1  0  0  0
 24 25  2  0  0  0
 24 47  1  0  0  0
 25 26  1  0  0  0
 25 48  1  0  0  0
 27 50  1  0  0  0
M  CHG  3  15   1  20   1  27   1
M  END
> <s_m_source_file>
../4epy_ligand.sdf

> <i_m_source_file_index>
1

> <s_epik_input>
W0NIMl0xW0NIMl1bQ0gyXVtOSDIrXVtDQEBIXTFDKD1PKVtOSF1DKFtDSDJdMik9W0NIXVtDSDJdYyhjMjMpW25IXWMobjMpW0NIMl1jKFtjSF1bbkhdNCljKGM0NSlbY0hdW2NIXVtjSF1bY0hdNQ==

> <s_epik_cmdline>
J2VwaWtfYXBwJywgJy1pbWFlJywgJ2xpZ2FuZF9wcm8ubWFlJywgJy1vbWFlJywgJ2xpZ2FuZF9wcmVwLm1hZScsICctbXMnLCAnMScsICctcGgnLCAnNycsICctcGh0JywgJzAuNScsICctbnQn

> <r_epik_Ionization_Penalty>
 21.9495

> <r_epik_Ionization_Penalty_Charging>
 20.7462

> <r_epik_Ionization_Penalty_Neutral>
  1.2034

> <r_epik_State_Penalty>
  0.2026

> <r_epik_Charging_Adjusted_Penalty>
20.9487317851493

> <i_epik_Tot_Q>
3

> <i_epik_Tot_abs_Q>
3

> <s_epik_Chemistry_Notes>
This compound has an imine and may undergo hydrolysis.

$$$$
