4eqc_ligand
                    3D
 Schrodinger Suite 2020-3.
 68 73  0  0  1  0            999 V2000
   14.0130   33.3000  -16.9950 C   0  0  0  0  0  0
   14.0340   34.7360  -16.4710 C   0  0  0  0  0  0
   13.7180   34.6730  -15.0440 N   0  0  0  0  0  0
   12.3350   34.7770  -14.6070 C   0  0  0  0  0  0
   10.6990   37.3820  -13.1100 Cl  0  0  0  0  0  0
   11.4070   34.8940  -15.3940 O   0  0  0  0  0  0
    9.9940   35.9140  -12.6770 C   0  0  0  0  0  0
    8.6480   35.8240  -12.2470 C   0  0  0  0  0  0
    8.0660   34.5770  -11.8680 C   0  0  0  0  0  0
    6.6430   34.5730  -11.3580 C   0  0  0  0  0  0
    5.6170   35.2710  -11.9980 C   0  0  0  0  0  0
    4.3950   35.1800  -11.4120 N   0  0  0  0  0  0
    5.9710   33.8080   -9.9500 S   0  0  0  0  0  0
    4.4240   34.4480  -10.3180 C   0  0  0  0  0  0
    8.8430   33.3860  -11.9420 C   0  0  0  0  0  0
   10.1780   33.4680  -12.3420 C   0  0  0  0  0  0
   10.7770   34.7300  -12.7050 C   0  0  0  0  0  0
   12.0900   34.7030  -13.1060 C   0  0  0  0  0  0
   13.0950   34.6100  -12.2070 C   0  0  0  0  0  0
   14.4990   34.5400  -12.7000 C   0  0  0  0  0  0
   15.6370   34.4270  -11.9080 C   0  0  0  0  0  0
   16.9210   34.3580  -12.3900 N   0  0  0  0  0  0
   14.7580   34.5960  -14.0860 C   0  0  0  0  0  0
   16.0190   34.5730  -14.5910 N   0  0  0  0  0  0
   17.0380   34.4380  -13.7530 C   0  0  0  0  0  0
   18.2080   34.3540  -14.2640 N   0  0  0  0  0  0
   18.6090   34.2510  -15.5090 C   0  0  0  0  0  0
   17.9340   33.5500  -16.5210 C   0  0  0  0  0  0
   18.4610   33.5470  -17.8450 C   0  0  0  0  0  0
   19.6430   34.2380  -18.1900 C   0  0  0  0  0  0
   20.3170   34.9120  -17.1620 C   0  0  0  0  0  0
   19.8110   34.9070  -15.8550 C   0  0  0  0  0  0
   20.0900   34.3150  -19.4120 N   0  0  0  0  0  0
   21.3300   33.6500  -19.8710 C   0  0  0  0  0  0
   19.3640   34.8980  -20.5850 C   0  0  0  0  0  0
   20.1840   35.4120  -21.8140 C   0  0  0  0  0  0
   21.3620   34.5920  -22.1970 N   0  3  0  0  0  0
   22.1730   35.3430  -23.1310 C   0  0  0  0  0  0
   22.1490   34.3930  -20.9640 C   0  0  0  0  0  0
   14.2464   33.2985  -18.0699 H   0  0  0  0  0  0
   13.0147   32.8662  -16.8360 H   0  0  0  0  0  0
   14.7627   32.7021  -16.4561 H   0  0  0  0  0  0
   15.0323   35.1698  -16.6300 H   0  0  0  0  0  0
   13.2843   35.3340  -17.0099 H   0  0  0  0  0  0
    8.0416   36.7288  -12.2044 H   0  0  0  0  0  0
    5.7852   35.8497  -12.9063 H   0  0  0  0  0  0
    3.5436   34.2654   -9.7018 H   0  0  0  0  0  0
    8.4009   32.4222  -11.6895 H   0  0  0  0  0  0
   10.7803   32.5604  -12.3810 H   0  0  0  0  0  0
   12.8816   34.5866  -11.1384 H   0  0  0  0  0  0
   15.4997   34.3906  -10.8273 H   0  0  0  0  0  0
   19.0945   34.3624  -13.6128 H   0  0  0  0  0  0
   17.0133   33.0118  -16.2955 H   0  0  0  0  0  0
   17.9325   32.9911  -18.6194 H   0  0  0  0  0  0
   21.2425   35.4445  -17.3811 H   0  0  0  0  0  0
   20.3663   35.4293  -15.0759 H   0  0  0  0  0  0
   22.0132   33.5197  -19.0188 H   0  0  0  0  0  0
   21.0826   32.6662  -20.2963 H   0  0  0  0  0  0
   18.6837   34.1436  -21.0070 H   0  0  0  0  0  0
   18.7835   35.7736  -20.2587 H   0  0  0  0  0  0
   19.5335   35.4463  -22.7004 H   0  0  0  0  0  0
   20.5687   36.4206  -21.6023 H   0  0  0  0  0  0
   21.0712   33.6420  -22.6692 H   0  0  0  0  0  0
   21.6072   35.5047  -24.0604 H   0  0  0  0  0  0
   23.0915   34.7802  -23.3541 H   0  0  0  0  0  0
   22.4368   36.3149  -22.6885 H   0  0  0  0  0  0
   22.4545   35.3798  -20.5859 H   0  0  0  0  0  0
   23.0432   33.8040  -21.2160 H   0  0  0  0  0  0
  1  2  1  0  0  0
  1 40  1  0  0  0
  1 41  1  0  0  0
  1 42  1  0  0  0
  2  3  1  0  0  0
  2 43  1  0  0  0
  2 44  1  0  0  0
  3  4  1  0  0  0
  3 23  1  0  0  0
  4  6  2  0  0  0
  4 18  1  0  0  0
  5  7  1  0  0  0
  7  8  2  0  0  0
  7 17  1  0  0  0
  8  9  1  0  0  0
  8 45  1  0  0  0
  9 10  1  0  0  0
  9 15  2  0  0  0
 10 11  2  0  0  0
 10 13  1  0  0  0
 11 12  1  0  0  0
 11 46  1  0  0  0
 12 14  2  0  0  0
 13 14  1  0  0  0
 14 47  1  0  0  0
 15 16  1  0  0  0
 15 48  1  0  0  0
 16 17  2  0  0  0
 16 49  1  0  0  0
 17 18  1  0  0  0
 18 19  2  0  0  0
 19 20  1  0  0  0
 19 50  1  0  0  0
 20 21  1  0  0  0
 20 23  2  0  0  0
 21 22  2  0  0  0
 21 51  1  0  0  0
 22 25  1  0  0  0
 23 24  1  0  0  0
 24 25  2  0  0  0
 25 26  1  0  0  0
 26 27  1  0  0  0
 26 52  1  0  0  0
 27 28  2  0  0  0
 27 32  1  0  0  0
 28 29  1  0  0  0
 28 53  1  0  0  0
 29 30  2  0  0  0
 29 54  1  0  0  0
 30 31  1  0  0  0
 30 33  1  0  0  0
 31 32  2  0  0  0
 31 55  1  0  0  0
 32 56  1  0  0  0
 33 34  1  0  0  0
 33 35  1  0  0  0
 34 39  1  0  0  0
 34 57  1  0  0  0
 34 58  1  0  0  0
 35 36  1  0  0  0
 35 59  1  0  0  0
 35 60  1  0  0  0
 36 37  1  0  0  0
 36 61  1  0  0  0
 36 62  1  0  0  0
 37 38  1  0  0  0
 37 39  1  0  0  0
 37 63  1  0  0  0
 38 64  1  0  0  0
 38 65  1  0  0  0
 38 66  1  0  0  0
 39 67  1  0  0  0
 39 68  1  0  0  0
M  CHG  1  37   1
M  END
> <s_m_source_file>
../4eqc_ligand.sdf

> <i_m_source_file_index>
1

> <s_epik_input>
czFbY0hdbltjSF1jMS1jKFtjSF1jMkNsKVtjSF1bY0hdYzItYyhbY0hdMyljKD1PKW4oW0NIMl1bQ0gzXSljKGMzNCluYyhuW2NIXTQpW05IXWM1W2NIXVtjSF1jKFtjSF1bY0hdNSlONltDSDJdW0NIMl1bTkgrXShbQ0gzXSlbQ0gyXVtDSDJdNg==

> <s_epik_cmdline>
J2VwaWtfYXBwJywgJy1pbWFlJywgJ2xpZ2FuZF9wcm8ubWFlJywgJy1vbWFlJywgJ2xpZ2FuZF9wcmVwLm1hZScsICctbXMnLCAnMScsICctcGgnLCAnNycsICctcGh0JywgJzAuNScsICctbnQn

> <r_lp_tautomer_probability>
1

> <r_epik_Ionization_Penalty>
  0.0661

> <r_epik_Ionization_Penalty_Charging>
  0.0647

> <r_epik_Ionization_Penalty_Neutral>
  0.0014

> <r_epik_State_Penalty>
 -0.0000

> <r_epik_Charging_Adjusted_Penalty>
0.064748737967149

> <i_epik_Tot_Q>
1

> <i_epik_Tot_abs_Q>
1

> <s_epik_Chemistry_Notes>
This compound has an imine and may undergo hydrolysis.

$$$$
