4eqf_ligand
                    3D
 Schrodinger Suite 2020-3.
101100  0  0  1  0            999 V2000
  -40.2050   10.2180    1.0700 N   0  3  0  0  0  0
  -40.3310   11.0320   -0.1370 C   0  0  2  0  0  0
  -39.2900   12.1660   -0.1560 C   0  0  0  0  0  0
  -39.0790   12.8200   -1.1810 O   0  0  0  0  0  0
  -41.7640   11.5710   -0.2720 C   0  0  0  0  0  0
  -42.0210   12.3640   -1.5370 C   0  0  0  0  0  0
  -41.6140   11.5810   -2.7760 C   0  0  0  0  0  0
  -41.1050   12.4550   -3.8320 N   0  0  0  0  0  0
  -39.8180   12.7440   -4.0180 C   0  0  0  0  0  0
  -38.8880   12.2310   -3.2230 N   0  0  0  0  0  0
  -39.4570   13.5460   -5.0080 N   0  3  0  0  0  0
  -38.6320   12.3740    0.9830 N   0  0  0  0  0  0
  -37.6550   13.4520    1.1490 C   0  0  2  0  0  0
  -36.2060   12.9660    1.1430 C   0  0  0  0  0  0
  -35.9360   11.7900    0.8880 O   0  0  0  0  0  0
  -37.9430   14.2280    2.4310 C   0  0  0  0  0  0
  -39.2590   15.0100    2.4310 C   0  0  0  0  0  0
  -39.9930   14.8240    3.7480 C   0  0  0  0  0  0
  -39.0180   16.4900    2.1310 C   0  0  0  0  0  0
  -35.2800   13.8870    1.4030 N   0  0  0  0  0  0
  -33.8440   13.5990    1.3760 C   0  0  2  0  0  0
  -33.1290   14.3600    2.4910 C   0  0  0  0  0  0
  -33.3580   15.5500    2.6740 O   0  0  0  0  0  0
  -33.2660   13.9810    0.0100 C   0  0  0  0  0  0
  -31.8770   14.2230    0.0790 O   0  0  0  0  0  0
  -32.2640   13.6870    3.2370 N   0  0  0  0  0  0
  -31.5790   14.3400    4.3520 C   0  0  2  0  0  0
  -30.1910   14.8670    3.9500 C   0  0  0  0  0  0
  -29.5420   14.2920    3.0740 O   0  0  0  0  0  0
  -31.5190   13.4170    5.5760 C   0  0  0  0  0  0
  -32.8040   13.2440    6.1590 O   0  0  0  0  0  0
  -29.7670   15.9830    4.5520 N   0  0  0  0  0  0
  -28.4910   16.6370    4.2010 C   0  0  2  0  0  0
  -27.2880   16.2600    5.0800 C   0  0  0  0  0  0
  -27.3700   16.2710    6.3080 O   0  0  0  0  0  0
  -28.6360   18.1610    4.2130 C   0  0  0  0  0  0
  -29.4450   18.6950    3.0480 C   0  0  0  0  0  0
  -29.2510   18.2970    1.8990 O   0  0  0  0  0  0
  -30.3470   19.6220    3.3420 N   0  0  0  0  0  0
  -26.1560   15.9710    4.4440 N   0  0  0  0  0  0
  -24.9680   15.5100    5.1630 C   0  0  2  0  0  0
  -24.0030   16.6420    5.4990 C   0  0  0  0  0  0
  -23.7250   17.5070    4.6710 O   0  0  0  0  0  0
  -24.2410   14.4200    4.3550 C   0  0  0  0  0  0
  -24.6450   12.9340    4.4750 C   0  0  0  0  0  0
  -26.1290   12.7350    4.2540 C   0  0  0  0  0  0
  -23.8540   12.0910    3.4950 C   0  0  0  0  0  0
  -23.4710   16.7120    6.6100 O   0  5  0  0  0  0
  -39.1751    9.8404    1.1517 H   0  0  0  0  0  0
  -40.9032    9.3698    1.0147 H   0  0  0  0  0  0
  -40.4419   10.8311    1.9521 H   0  0  0  0  0  0
  -40.1197   10.3496   -0.9735 H   0  0  0  0  0  0
  -42.4734   10.7303   -0.2721 H   0  0  0  0  0  0
  -41.9861   12.2380    0.5740 H   0  0  0  0  0  0
  -43.0928   12.6003   -1.6102 H   0  0  0  0  0  0
  -41.4407   13.2981   -1.5085 H   0  0  0  0  0  0
  -40.8232   10.8631   -2.5127 H   0  0  0  0  0  0
  -42.4860   11.0380   -3.1695 H   0  0  0  0  0  0
  -41.8026   12.9247   -4.5411 H   0  0  0  0  0  0
  -39.1770   11.5637   -2.3977 H   0  0  0  0  0  0
  -37.8279   12.4730   -3.3892 H   0  0  0  0  0  0
  -40.2200   13.9767   -5.6730 H   0  0  0  0  0  0
  -38.8486   11.6942    1.8203 H   0  0  0  0  0  0
  -37.8023   14.0830    0.2601 H   0  0  0  0  0  0
  -37.9912   13.5295    3.2794 H   0  0  0  0  0  0
  -37.1409   14.9605    2.6043 H   0  0  0  0  0  0
  -39.9034   14.6091    1.6347 H   0  0  0  0  0  0
  -40.1494   13.7509    3.9322 H   0  0  0  0  0  0
  -40.9667   15.3336    3.7002 H   0  0  0  0  0  0
  -39.3944   15.2529    4.5651 H   0  0  0  0  0  0
  -38.4861   16.5881    1.1732 H   0  0  0  0  0  0
  -38.4111   16.9329    2.9345 H   0  0  0  0  0  0
  -39.9834   17.0136    2.0696 H   0  0  0  0  0  0
  -35.6333   14.9000    1.6458 H   0  0  0  0  0  0
  -33.7359   12.5175    1.5453 H   0  0  0  0  0  0
  -33.4393   13.1619   -0.7035 H   0  0  0  0  0  0
  -33.7585   14.8947   -0.3541 H   0  0  0  0  0  0
  -31.3227   14.5079   -0.8274 H   0  0  0  0  0  0
  -32.0632   12.6292    3.0117 H   0  0  0  0  0  0
  -32.2101   15.2077    4.5944 H   0  0  0  0  0  0
  -31.1376   12.4307    5.2731 H   0  0  0  0  0  0
  -30.8489   13.8530    6.3315 H   0  0  0  0  0  0
  -32.9235   12.6069    7.0477 H   0  0  0  0  0  0
  -30.4083   16.4132    5.3353 H   0  0  0  0  0  0
  -28.3139   16.2365    3.1919 H   0  0  0  0  0  0
  -29.1414   18.4739    5.1385 H   0  0  0  0  0  0
  -27.6396   18.6245    4.1647 H   0  0  0  0  0  0
  -30.4838   19.9452    4.3845 H   0  0  0  0  0  0
  -30.9582   20.0676    2.5433 H   0  0  0  0  0  0
  -26.1269   16.0861    3.3504 H   0  0  0  0  0  0
  -25.3675   15.1113    6.1071 H   0  0  0  0  0  0
  -24.3491   14.6270    3.2801 H   0  0  0  0  0  0
  -23.1739   14.4159    4.6221 H   0  0  0  0  0  0
  -24.4216   12.5908    5.4960 H   0  0  0  0  0  0
  -26.6922   13.3512    4.9703 H   0  0  0  0  0  0
  -26.3830   11.6751    4.4030 H   0  0  0  0  0  0
  -26.3903   13.0340    3.2282 H   0  0  0  0  0  0
  -22.7780   12.2438    3.6651 H   0  0  0  0  0  0
  -24.1086   12.3881    2.4669 H   0  0  0  0  0  0
  -24.1013   11.0292    3.6417 H   0  0  0  0  0  0
  -38.3941   13.7815   -5.1653 H   0  0  0  0  0  0
  1  2  1  0  0  0
  1 49  1  0  0  0
  1 50  1  0  0  0
  1 51  1  0  0  0
  2  3  1  0  0  0
  2  5  1  0  0  0
  2 52  1  0  0  0
  3  4  2  0  0  0
  3 12  1  0  0  0
  5  6  1  0  0  0
  5 53  1  0  0  0
  5 54  1  0  0  0
  6  7  1  0  0  0
  6 55  1  0  0  0
  6 56  1  0  0  0
  7  8  1  0  0  0
  7 57  1  0  0  0
  7 58  1  0  0  0
  8  9  1  0  0  0
  8 59  1  0  0  0
  9 10  1  0  0  0
  9 11  2  0  0  0
 10 60  1  0  0  0
 10 61  1  0  0  0
 11 62  1  0  0  0
 11101  1  0  0  0
 12 13  1  0  0  0
 12 63  1  0  0  0
 13 14  1  0  0  0
 13 16  1  0  0  0
 13 64  1  0  0  0
 14 15  2  0  0  0
 14 20  1  0  0  0
 16 17  1  0  0  0
 16 65  1  0  0  0
 16 66  1  0  0  0
 17 18  1  0  0  0
 17 19  1  0  0  0
 17 67  1  0  0  0
 18 68  1  0  0  0
 18 69  1  0  0  0
 18 70  1  0  0  0
 19 71  1  0  0  0
 19 72  1  0  0  0
 19 73  1  0  0  0
 20 21  1  0  0  0
 20 74  1  0  0  0
 21 22  1  0  0  0
 21 24  1  0  0  0
 21 75  1  0  0  0
 22 23  2  0  0  0
 22 26  1  0  0  0
 24 25  1  0  0  0
 24 76  1  0  0  0
 24 77  1  0  0  0
 25 78  1  0  0  0
 26 27  1  0  0  0
 26 79  1  0  0  0
 27 28  1  0  0  0
 27 30  1  0  0  0
 27 80  1  0  0  0
 28 29  2  0  0  0
 28 32  1  0  0  0
 30 31  1  0  0  0
 30 81  1  0  0  0
 30 82  1  0  0  0
 31 83  1  0  0  0
 32 33  1  0  0  0
 32 84  1  0  0  0
 33 34  1  0  0  0
 33 36  1  0  0  0
 33 85  1  0  0  0
 34 35  2  0  0  0
 34 40  1  0  0  0
 36 37  1  0  0  0
 36 86  1  0  0  0
 36 87  1  0  0  0
 37 38  2  0  0  0
 37 39  1  0  0  0
 39 88  1  0  0  0
 39 89  1  0  0  0
 40 41  1  0  0  0
 40 90  1  0  0  0
 41 42  1  0  0  0
 41 44  1  0  0  0
 41 91  1  0  0  0
 42 43  2  0  0  0
 42 48  1  0  0  0
 44 45  1  0  0  0
 44 92  1  0  0  0
 44 93  1  0  0  0
 45 46  1  0  0  0
 45 47  1  0  0  0
 45 94  1  0  0  0
 46 95  1  0  0  0
 46 96  1  0  0  0
 46 97  1  0  0  0
 47 98  1  0  0  0
 47 99  1  0  0  0
 47100  1  0  0  0
M  CHG  3   1   1  11   1  48  -1
M  END
> <s_m_source_file>
../4eqf_ligand.sdf

> <i_m_source_file_index>
1

> <s_epik_input>
W0hdL049QyhbTkgyXSlcW05IXVtDSDJdW0NIMl1bQ0gyXVtDQEhdKFtOSDMrXSlDKD1PKVtOSF1bQ0BASF0oW0NIMl1bQ0hdKFtDSDNdKVtDSDNdKUMoPU8pW05IXVtDQEBIXShbQ0gyXVtPSF0pQyg9TylbTkhdW0NAQEhdKFtDSDJdW09IXSlDKD1PKVtOSF1bQ0BASF0oW0NIMl1DKD1PKVtOSDJdKUMoPU8pW05IXVtDQEhdKEMoPU8pW09IXSlbQ0gyXVtDSF0oW0NIM10pW0NIM10=

> <s_epik_cmdline>
J2VwaWtfYXBwJywgJy1pbWFlJywgJ2xpZ2FuZF9wcm8ubWFlJywgJy1vbWFlJywgJ2xpZ2FuZF9wcmVwLm1hZScsICctbXMnLCAnMScsICctcGgnLCAnNycsICctcGh0JywgJzAuNScsICctbnQn

> <r_epik_Ionization_Penalty>
  0.1313

> <r_epik_Ionization_Penalty_Charging>
  0.1313

> <r_epik_Ionization_Penalty_Neutral>
  0.0000

> <r_epik_State_Penalty>
  0.1205

> <r_epik_Charging_Adjusted_Penalty>
0.251717242944002

> <i_epik_Tot_Q>
1

> <i_epik_Tot_abs_Q>
3

> <s_epik_Chemistry_Notes>
This compound has an imine and may undergo hydrolysis.

$$$$
