4eqj_ligand
                    3D
 Schrodinger Suite 2020-3.
 94 95  0  0  1  0            999 V2000
    2.4970    4.6270    8.1240 N   0  3  0  0  0  0
    3.6550    4.0680    8.8930 C   0  0  2  0  0  0
    3.1870    3.5500   10.2360 C   0  0  0  0  0  0
    3.0600    4.3030   11.1900 O   0  0  0  0  0  0
    4.7360    5.1180    9.1340 C   0  0  0  0  0  0
    2.9870    2.2450   10.3080 N   0  0  0  0  0  0
    2.6410    1.5930   11.5590 C   0  0  2  0  0  0
    3.7490    0.6680   12.0750 C   0  0  0  0  0  0
    3.7190   -0.5460   11.8260 O   0  0  0  0  0  0
    1.3950    0.7350   11.3820 C   0  0  2  0  0  0
    0.3440    1.5340   10.8170 O   0  0  0  0  0  0
    0.9900    0.1580   12.7160 C   0  0  0  0  0  0
    4.7060    1.2230   12.8130 N   0  0  0  0  0  0
    5.8790    0.4340   13.2080 C   0  0  2  0  0  0
    5.7080   -0.2020   14.5720 C   0  0  0  0  0  0
    5.0670    0.3330   15.4780 O   0  0  0  0  0  0
    7.1650    1.2430   13.1420 C   0  0  0  0  0  0
    7.3800    1.8950   11.8160 C   0  0  0  0  0  0
    7.6560    1.1310   10.6830 C   0  0  0  0  0  0
    7.2290    3.2620   11.6750 C   0  0  0  0  0  0
    7.8200    1.7340    9.4430 C   0  0  0  0  0  0
    7.3950    3.8700   10.4400 C   0  0  0  0  0  0
    7.6880    3.1050    9.3240 C   0  0  0  0  0  0
    6.2880   -1.3720   14.6900 N   0  0  0  0  0  0
    5.8090   -2.3430   15.6350 C   0  0  2  0  0  0
    6.5470   -3.6270   15.3030 C   0  0  0  0  0  0
    6.6060   -4.0670   14.1460 O   0  0  0  0  0  0
    4.2870   -2.5340   15.5190 C   0  0  0  0  0  0
    3.8410   -3.9190   15.9210 C   0  0  0  0  0  0
    3.7390   -4.2740   17.2590 C   0  0  0  0  0  0
    3.6000   -4.8940   14.9650 C   0  0  0  0  0  0
    3.3910   -5.5550   17.6330 C   0  0  0  0  0  0
    3.2450   -6.1760   15.3270 C   0  0  0  0  0  0
    3.1430   -6.5030   16.6610 C   0  0  0  0  0  0
    2.7950   -7.7840   17.0200 O   0  0  0  0  0  0
    7.1360   -4.1940   16.3410 N   0  0  0  0  0  0
    8.0850   -5.2600   16.2130 C   0  0  2  0  0  0
    7.9050   -6.1840   17.4100 C   0  0  0  0  0  0
    8.4170   -5.9030   18.4930 O   0  0  0  0  0  0
    9.5170   -4.7110   16.2650 C   0  0  0  0  0  0
   10.4890   -5.8360   16.5840 C   0  0  0  0  0  0
    9.8740   -3.9910   14.9680 C   0  0  0  0  0  0
    7.1710   -7.2720   17.2080 N   0  0  0  0  0  0
    6.9500   -8.2810   18.2440 C   0  0  2  0  0  0
    8.0010   -9.3920   18.1870 C   0  0  0  0  0  0
    8.4102   -9.8289   17.0783 O   0  0  0  0  0  0
    5.5480   -8.8880   18.0880 C   0  0  0  0  0  0
    8.4605   -9.8735   19.2569 O   0  5  0  0  0  0
    1.7433    3.8402    7.9726 H   0  0  0  0  0  0
    2.8474    4.9919    7.1473 H   0  0  0  0  0  0
    2.0501    5.4593    8.6876 H   0  0  0  0  0  0
    4.0637    3.2498    8.2818 H   0  0  0  0  0  0
    5.0902    5.5079    8.1683 H   0  0  0  0  0  0
    5.5771    4.6606    9.6756 H   0  0  0  0  0  0
    4.3197    5.9423    9.7318 H   0  0  0  0  0  0
    3.0889    1.6508    9.3879 H   0  0  0  0  0  0
    2.4851    2.4406   12.2425 H   0  0  0  0  0  0
    1.5542   -0.0837   10.6648 H   0  0  0  0  0  0
    0.4887    2.0239    9.8428 H   0  0  0  0  0  0
    1.8154   -0.4467   13.1197 H   0  0  0  0  0  0
    0.1004   -0.4758   12.5864 H   0  0  0  0  0  0
    0.7590    0.9759   13.4143 H   0  0  0  0  0  0
    4.6185    2.2735   13.1274 H   0  0  0  0  0  0
    5.9273   -0.3672   12.4559 H   0  0  0  0  0  0
    7.1382    2.0369   13.9030 H   0  0  0  0  0  0
    8.0239    0.5824   13.3314 H   0  0  0  0  0  0
    7.7440    0.0482   10.7715 H   0  0  0  0  0  0
    6.9766    3.8687   12.5446 H   0  0  0  0  0  0
    8.0519    1.1287    8.5667 H   0  0  0  0  0  0
    7.2947    4.9514   10.3477 H   0  0  0  0  0  0
    7.8145    3.5831    8.3526 H   0  0  0  0  0  0
    7.1534   -1.6055   14.0523 H   0  0  0  0  0  0
    6.0308   -1.9764   16.6481 H   0  0  0  0  0  0
    3.7760   -1.8125   16.1734 H   0  0  0  0  0  0
    3.9751   -2.3689   14.4772 H   0  0  0  0  0  0
    3.9375   -3.5271   18.0277 H   0  0  0  0  0  0
    3.6929   -4.6424   13.9085 H   0  0  0  0  0  0
    3.3124   -5.8168   18.6882 H   0  0  0  0  0  0
    3.0462   -6.9265   14.5619 H   0  0  0  0  0  0
    2.7113   -8.0537   18.0831 H   0  0  0  0  0  0
    6.8686   -3.8123   17.3374 H   0  0  0  0  0  0
    7.8727   -5.7441   15.2483 H   0  0  0  0  0  0
    9.5975   -3.9655   17.0699 H   0  0  0  0  0  0
   10.1907   -6.3227   17.5243 H   0  0  0  0  0  0
   11.5038   -5.4248   16.6898 H   0  0  0  0  0  0
   10.4756   -6.5743   15.7687 H   0  0  0  0  0  0
    9.1447   -3.1890   14.7812 H   0  0  0  0  0  0
    9.8533   -4.7072   14.1334 H   0  0  0  0  0  0
   10.8814   -3.5577   15.0545 H   0  0  0  0  0  0
    6.7206   -7.3981   16.2124 H   0  0  0  0  0  0
    7.0492   -7.7402   19.1967 H   0  0  0  0  0  0
    4.7951   -8.0871   18.1294 H   0  0  0  0  0  0
    5.3661   -9.6048   18.9024 H   0  0  0  0  0  0
    5.4787   -9.4068   17.1205 H   0  0  0  0  0  0
  1  2  1  0  0  0
  1 49  1  0  0  0
  1 50  1  0  0  0
  1 51  1  0  0  0
  2  3  1  0  0  0
  2  5  1  0  0  0
  2 52  1  0  0  0
  3  4  2  0  0  0
  3  6  1  0  0  0
  5 53  1  0  0  0
  5 54  1  0  0  0
  5 55  1  0  0  0
  6  7  1  0  0  0
  6 56  1  0  0  0
  7  8  1  0  0  0
  7 10  1  0  0  0
  7 57  1  0  0  0
  8  9  2  0  0  0
  8 13  1  0  0  0
 10 11  1  0  0  0
 10 12  1  0  0  0
 10 58  1  0  0  0
 11 59  1  0  0  0
 12 60  1  0  0  0
 12 61  1  0  0  0
 12 62  1  0  0  0
 13 14  1  0  0  0
 13 63  1  0  0  0
 14 15  1  0  0  0
 14 17  1  0  0  0
 14 64  1  0  0  0
 15 16  2  0  0  0
 15 24  1  0  0  0
 17 18  1  0  0  0
 17 65  1  0  0  0
 17 66  1  0  0  0
 18 19  2  0  0  0
 18 20  1  0  0  0
 19 21  1  0  0  0
 19 67  1  0  0  0
 20 22  2  0  0  0
 20 68  1  0  0  0
 21 23  2  0  0  0
 21 69  1  0  0  0
 22 23  1  0  0  0
 22 70  1  0  0  0
 23 71  1  0  0  0
 24 25  1  0  0  0
 24 72  1  0  0  0
 25 26  1  0  0  0
 25 28  1  0  0  0
 25 73  1  0  0  0
 26 27  2  0  0  0
 26 36  1  0  0  0
 28 29  1  0  0  0
 28 74  1  0  0  0
 28 75  1  0  0  0
 29 30  2  0  0  0
 29 31  1  0  0  0
 30 32  1  0  0  0
 30 76  1  0  0  0
 31 33  2  0  0  0
 31 77  1  0  0  0
 32 34  2  0  0  0
 32 78  1  0  0  0
 33 34  1  0  0  0
 33 79  1  0  0  0
 34 35  1  0  0  0
 35 80  1  0  0  0
 36 37  1  0  0  0
 36 81  1  0  0  0
 37 38  1  0  0  0
 37 40  1  0  0  0
 37 82  1  0  0  0
 38 39  2  0  0  0
 38 43  1  0  0  0
 40 41  1  0  0  0
 40 42  1  0  0  0
 40 83  1  0  0  0
 41 84  1  0  0  0
 41 85  1  0  0  0
 41 86  1  0  0  0
 42 87  1  0  0  0
 42 88  1  0  0  0
 42 89  1  0  0  0
 43 44  1  0  0  0
 43 90  1  0  0  0
 44 45  1  0  0  0
 44 47  1  0  0  0
 44 91  1  0  0  0
 45 46  2  0  0  0
 45 48  1  0  0  0
 47 92  1  0  0  0
 47 93  1  0  0  0
 47 94  1  0  0  0
M  CHG  2   1   1  48  -1
M  END
> <s_m_source_file>
../4eqj_ligand.sdf

> <i_m_source_file_index>
1

> <s_epik_input>
W05IMytdW0NAQEhdKFtDSDNdKUMoPU8pW05IXVtDQEBIXShbQ0BIXShbT0hdKVtDSDNdKUMoPU8pW05IXVtDQEBIXShbQ0gyXWMxW2NIXVtjSF1bY0hdW2NIXVtjSF0xKUMoPU8pW05IXVtDQEBIXShbQ0gyXWMyW2NIXVtjSF1jKFtPSF0pW2NIXVtjSF0yKUMoPU8pW05IXVtDQEBIXShbQ0hdKFtDSDNdKVtDSDNdKUMoPU8pW05IXVtDQEBIXShbQ0gzXSlDKD1PKVtPSF0=

> <s_epik_cmdline>
J2VwaWtfYXBwJywgJy1pbWFlJywgJ2xpZ2FuZF9wcm8ubWFlJywgJy1vbWFlJywgJ2xpZ2FuZF9wcmVwLm1hZScsICctbXMnLCAnMScsICctcGgnLCAnNycsICctcGh0JywgJzAuNScsICctbnQn

> <r_lp_tautomer_probability>
0.999999999997365

> <r_epik_Ionization_Penalty>
  0.1276

> <r_epik_Ionization_Penalty_Charging>
  0.1267

> <r_epik_Ionization_Penalty_Neutral>
  0.0009

> <r_epik_State_Penalty>
  0.1160

> <r_epik_Charging_Adjusted_Penalty>
0.242681627228507

> <i_epik_Tot_Q>
0

> <i_epik_Tot_abs_Q>
2

$$$$
