4er1_ligand
                    3D
 Schrodinger Suite 2020-3.
126131  0  0  1  0            999 V2000
    3.3700   29.0970   17.3370 C   0  0  0  0  0  0
    3.2220   28.1590   16.5360 O   0  0  0  0  0  0
    4.0370   28.8700   18.6880 C   0  0  0  0  0  0
    3.8690   27.4850   19.1450 C   0  0  0  0  0  0
    2.3400   27.2190   19.4680 C   0  0  0  0  0  0
    1.4790   28.3200   19.5730 C   0  0  0  0  0  0
    0.1180   28.1550   19.8270 C   0  0  0  0  0  0
   -0.4120   26.8810   19.9770 C   0  0  0  0  0  0
    0.4190   25.7710   19.8720 C   0  0  0  0  0  0
   -0.1390   24.5010   20.0400 C   0  0  0  0  0  0
    0.6920   23.3770   19.9910 C   0  0  0  0  0  0
    2.0610   23.5230   19.7340 C   0  0  0  0  0  0
    2.6090   24.7970   19.5370 C   0  0  0  0  0  0
    1.7880   25.9270   19.6150 C   0  0  0  0  0  0
    5.5310   29.1860   18.4440 C   0  0  0  0  0  0
    6.4800   28.5800   19.4690 C   0  0  0  0  0  0
    7.0100   27.3130   19.1990 C   0  0  0  0  0  0
    7.8720   26.7120   20.0960 C   0  0  0  0  0  0
    8.2060   27.3680   21.2590 C   0  0  0  0  0  0
    7.7010   28.6380   21.5590 C   0  0  0  0  0  0
    8.0170   29.3460   22.7460 C   0  0  0  0  0  0
    7.4600   30.6290   22.9630 C   0  0  0  0  0  0
    6.6280   31.2250   22.0830 C   0  0  0  0  0  0
    6.2810   30.5840   20.9100 C   0  0  0  0  0  0
    6.7930   29.3290   20.6460 C   0  0  0  0  0  0
    2.9880   30.3470   17.1990 N   0  0  0  0  0  0
    2.5080   30.9410   15.9480 C   0  0  2  0  0  0
    3.2180   32.2710   15.7340 C   0  0  0  0  0  0
    2.7840   33.3000   16.2810 O   0  0  0  0  0  0
    1.1010   31.5170   15.9360 C   0  0  0  0  0  0
   -0.1290   30.6940   16.2880 C   0  0  0  0  0  0
   -0.1240   29.3730   16.7380 N   0  0  0  0  0  0
   -1.4150   31.1070   16.2550 C   0  0  0  0  0  0
   -1.3990   29.0360   16.9760 C   0  0  0  0  0  0
   -2.1750   30.0670   16.6930 N   0  0  0  0  0  0
    4.1920   32.2850   14.9390 N   0  0  0  0  0  0
    5.0220   33.4600   14.6390 C   0  0  1  0  0  0
    6.5010   33.0720   14.7890 C   0  0  0  0  0  0
    6.8090   32.4940   16.1800 C   0  0  0  0  0  0
    6.6550   33.6180   17.2190 C   0  0  0  0  0  0
    8.1100   31.9450   16.1970 C   0  0  0  0  0  0
    7.0080   33.1300   18.6240 C   0  0  0  0  0  0
    8.4780   31.4240   17.5950 C   0  0  0  0  0  0
    8.4130   32.5520   18.6160 C   0  0  0  0  0  0
    4.6940   33.9640   13.2150 C   0  0  1  0  0  0
    5.2640   33.0830   12.2530 O   0  0  0  0  0  0
    3.1570   34.0070   13.0160 C   0  0  0  0  0  0
    2.7270   35.1090   12.1030 C   0  0  1  0  0  0
    1.2620   35.0630   11.9100 C   0  0  0  0  0  0
    0.9130   34.7720   10.4470 C   0  0  0  0  0  0
    0.8890   33.2610   10.2090 C   0  0  0  0  0  0
   -0.4680   35.3460   10.1130 C   0  0  0  0  0  0
    3.0120   36.2820   12.6290 C   0  0  0  0  0  0
    2.5120   36.6230   13.7090 O   0  0  0  0  0  0
    3.8280   37.0190   11.9200 N   0  0  0  0  0  0
    4.2820   38.3150   12.3940 C   0  0  0  0  0  0
    3.6260   39.4460   11.6220 C   0  0  2  0  0  0
    3.4910   40.7150   12.4610 C   0  0  0  0  0  0
    2.2200   39.1200   11.1240 C   0  0  0  0  0  0
    4.4400   41.8240   12.0150 C   0  0  0  0  0  0
    3.5728   29.4631   19.4897 H   0  0  0  0  0  0
    4.2031   26.7954   18.3558 H   0  0  0  0  0  0
    4.4697   27.3228   20.0521 H   0  0  0  0  0  0
    1.8817   29.3258   19.4536 H   0  0  0  0  0  0
   -0.5304   29.0274   19.9079 H   0  0  0  0  0  0
   -1.4757   26.7511   20.1764 H   0  0  0  0  0  0
   -1.2101   24.3875   20.2074 H   0  0  0  0  0  0
    0.2727   22.3841   20.1534 H   0  0  0  0  0  0
    2.7020   22.6426   19.6871 H   0  0  0  0  0  0
    3.6722   24.9076   19.3235 H   0  0  0  0  0  0
    5.8321   28.7970   17.4601 H   0  0  0  0  0  0
    5.6846   30.2749   18.4704 H   0  0  0  0  0  0
    6.7414   26.7980   18.2766 H   0  0  0  0  0  0
    8.2845   25.7256   19.8842 H   0  0  0  0  0  0
    8.8818   26.8854   21.9650 H   0  0  0  0  0  0
    8.6844   28.9052   23.4865 H   0  0  0  0  0  0
    7.7141   31.1589   23.8810 H   0  0  0  0  0  0
    6.2285   32.2159   22.2990 H   0  0  0  0  0  0
    5.6090   31.0644   20.1989 H   0  0  0  0  0  0
    3.0476   30.9590   18.1111 H   0  0  0  0  0  0
    2.6502   30.0814   15.2765 H   0  0  0  0  0  0
    0.9932   32.5758   15.6578 H   0  0  0  0  0  0
   -1.8939   32.0525   15.9606 H   0  0  0  0  0  0
   -1.7404   28.0683   17.3435 H   0  0  0  0  0  0
    4.4051   31.3222   14.4516 H   0  0  0  0  0  0
    4.7825   34.2502   15.3658 H   0  0  0  0  0  0
    6.7586   32.3114   14.0373 H   0  0  0  0  0  0
    7.1304   33.9619   14.6408 H   0  0  0  0  0  0
    6.1789   31.6281   16.4316 H   0  0  0  0  0  0
    7.3250   34.4511   16.9600 H   0  0  0  0  0  0
    5.6138   33.9728   17.2238 H   0  0  0  0  0  0
    8.1638   31.1073   15.4861 H   0  0  0  0  0  0
    8.8379   32.7177   15.9088 H   0  0  0  0  0  0
    6.9608   33.9740   19.3279 H   0  0  0  0  0  0
    6.2922   32.3541   18.9333 H   0  0  0  0  0  0
    7.7720   30.6334   17.8892 H   0  0  0  0  0  0
    9.4992   31.0155   17.5770 H   0  0  0  0  0  0
    9.1319   33.3395   18.3456 H   0  0  0  0  0  0
    8.6549   32.1623   19.6158 H   0  0  0  0  0  0
    5.1597   34.9420   13.0233 H   0  0  0  0  0  0
    6.3515   32.9189   12.2338 H   0  0  0  0  0  0
    2.8169   33.0557   12.5810 H   0  0  0  0  0  0
    2.6656   34.1622   13.9878 H   0  0  0  0  0  0
    3.2942   35.0901   11.1607 H   0  0  0  0  0  0
    0.8339   34.2698   12.5404 H   0  0  0  0  0  0
    0.8244   36.0319   12.1922 H   0  0  0  0  0  0
    1.6746   35.2379    9.8044 H   0  0  0  0  0  0
    1.8760   32.8368   10.4456 H   0  0  0  0  0  0
    0.6464   33.0596    9.1552 H   0  0  0  0  0  0
    0.1274   32.8001   10.8551 H   0  0  0  0  0  0
   -0.4634   36.4332   10.2804 H   0  0  0  0  0  0
   -1.2254   34.8787   10.7594 H   0  0  0  0  0  0
   -0.7064   35.1382    9.0594 H   0  0  0  0  0  0
    4.1705   36.6386   10.9463 H   0  0  0  0  0  0
    4.0287   38.4253   13.4587 H   0  0  0  0  0  0
    5.3720   38.3908   12.2667 H   0  0  0  0  0  0
    4.3047   39.5902   10.7684 H   0  0  0  0  0  0
    2.4637   41.1000   12.3807 H   0  0  0  0  0  0
    3.7151   40.4846   13.5130 H   0  0  0  0  0  0
    2.2511   38.2088   10.5086 H   0  0  0  0  0  0
    1.8416   39.9577   10.5198 H   0  0  0  0  0  0
    1.5544   38.9586   11.9848 H   0  0  0  0  0  0
    4.2968   42.7080   12.6538 H   0  0  0  0  0  0
    4.2279   42.0894   10.9688 H   0  0  0  0  0  0
    5.4792   41.4739   12.1010 H   0  0  0  0  0  0
    0.8266   28.8276   16.8322 H   0  0  0  0  0  0
  1  2  2  0  0  0
  1  3  1  0  0  0
  1 26  1  0  0  0
  3  4  1  0  0  0
  3 15  1  0  0  0
  3 61  1  0  0  0
  4  5  1  0  0  0
  4 62  1  0  0  0
  4 63  1  0  0  0
  5  6  2  0  0  0
  5 14  1  0  0  0
  6  7  1  0  0  0
  6 64  1  0  0  0
  7  8  2  0  0  0
  7 65  1  0  0  0
  8  9  1  0  0  0
  8 66  1  0  0  0
  9 10  1  0  0  0
  9 14  2  0  0  0
 10 11  2  0  0  0
 10 67  1  0  0  0
 11 12  1  0  0  0
 11 68  1  0  0  0
 12 13  2  0  0  0
 12 69  1  0  0  0
 13 14  1  0  0  0
 13 70  1  0  0  0
 15 16  1  0  0  0
 15 71  1  0  0  0
 15 72  1  0  0  0
 16 17  2  0  0  0
 16 25  1  0  0  0
 17 18  1  0  0  0
 17 73  1  0  0  0
 18 19  2  0  0  0
 18 74  1  0  0  0
 19 20  1  0  0  0
 19 75  1  0  0  0
 20 21  1  0  0  0
 20 25  2  0  0  0
 21 22  2  0  0  0
 21 76  1  0  0  0
 22 23  1  0  0  0
 22 77  1  0  0  0
 23 24  2  0  0  0
 23 78  1  0  0  0
 24 25  1  0  0  0
 24 79  1  0  0  0
 26 27  1  0  0  0
 26 80  1  0  0  0
 27 30  1  0  0  0
 27 28  1  0  0  0
 27 81  1  0  0  0
 28 29  2  0  0  0
 28 36  1  0  0  0
 30 31  2  0  0  0
 30 82  1  0  0  0
 31 32  1  0  0  0
 31 33  1  0  0  0
 32 34  1  0  0  0
 32126  1  0  0  0
 33 35  2  0  0  0
 33 83  1  0  0  0
 34 35  1  0  0  0
 34 84  1  0  0  0
 36 37  1  0  0  0
 36 85  1  0  0  0
 37 38  1  0  0  0
 37 45  1  0  0  0
 37 86  1  0  0  0
 38 39  1  0  0  0
 38 87  1  0  0  0
 38 88  1  0  0  0
 39 40  1  0  0  0
 39 41  1  0  0  0
 39 89  1  0  0  0
 40 42  1  0  0  0
 40 90  1  0  0  0
 40 91  1  0  0  0
 41 43  1  0  0  0
 41 92  1  0  0  0
 41 93  1  0  0  0
 42 44  1  0  0  0
 42 94  1  0  0  0
 42 95  1  0  0  0
 43 44  1  0  0  0
 43 96  1  0  0  0
 43 97  1  0  0  0
 44 98  1  0  0  0
 44 99  1  0  0  0
 45 46  1  0  0  0
 45 47  1  0  0  0
 45100  1  0  0  0
 46101  1  0  0  0
 47 48  1  0  0  0
 47102  1  0  0  0
 47103  1  0  0  0
 48 49  1  0  0  0
 48 53  1  0  0  0
 48104  1  0  0  0
 49 50  1  0  0  0
 49105  1  0  0  0
 49106  1  0  0  0
 50 51  1  0  0  0
 50 52  1  0  0  0
 50107  1  0  0  0
 51108  1  0  0  0
 51109  1  0  0  0
 51110  1  0  0  0
 52111  1  0  0  0
 52112  1  0  0  0
 52113  1  0  0  0
 53 54  2  0  0  0
 53 55  1  0  0  0
 55 56  1  0  0  0
 55114  1  0  0  0
 56 57  1  0  0  0
 56115  1  0  0  0
 56116  1  0  0  0
 57 58  1  0  0  0
 57 59  1  0  0  0
 57117  1  0  0  0
 58 60  1  0  0  0
 58118  1  0  0  0
 58119  1  0  0  0
 59120  1  0  0  0
 59121  1  0  0  0
 59122  1  0  0  0
 60123  1  0  0  0
 60124  1  0  0  0
 60125  1  0  0  0
M  END
> <s_m_source_file>
../4er1_ligand.sdf

> <i_m_source_file_index>
1

> <s_epik_input>
W2NIXTFbY0hdW2NIXVtjSF1jKGMxMiljKFtjSF1bY0hdW2NIXTIpW0NIMl1bQ0hdKFtDSDJdYyhbY0hdW2NIXVtjSF0zKWMoYzM0KVtjSF1bY0hdW2NIXVtjSF00KUMoPU8pW05IXVtDQEBIXShbQ0gyXUM1PU5bQ0gyXU49W0NIXTUpQyg9TylbTkhdW0NAQEhdKFtDSDJdW0NIXTZbQ0gyXVtDSDJdW0NIMl1bQ0gyXVtDSDJdNilbQ0BASF0oW09IXSlbQ0gyXVtDQEBIXShbQ0gyXVtDSF0oW0NIM10pW0NIM10pQyg9TylbTkhdW0NIMl1bQ0BASF0oW0NIM10pW0NIMl1bQ0gzXQ==

> <s_epik_cmdline>
J2VwaWtfYXBwJywgJy1pbWFlJywgJ2xpZ2FuZF9wcm8ubWFlJywgJy1vbWFlJywgJ2xpZ2FuZF9wcmVwLm1hZScsICctbXMnLCAnMScsICctcGgnLCAnNycsICctcGh0JywgJzAuNScsICctbnQn

> <r_lp_tautomer_probability>
1

> <r_epik_Ionization_Penalty>
  0.0000

> <r_epik_Ionization_Penalty_Charging>
  0.0000

> <r_epik_Ionization_Penalty_Neutral>
  0.0000

> <r_epik_State_Penalty>
 -0.0000

> <r_epik_Charging_Adjusted_Penalty>
3.99001808865263e-07

> <i_epik_Tot_Q>
0

> <i_epik_Tot_abs_Q>
0

> <s_epik_Chemistry_Notes>
This compound has an imine and may undergo hydrolysis.

$$$$
