4er4_ligand
                    3D
 Schrodinger Suite 2020-3.
157162  0  0  1  0            999 V2000
   31.0930   -4.0620  -12.7540 N   0  3  0  0  0  0
   31.1420   -3.6930  -11.3120 C   0  0  2  0  0  0
   32.4370   -4.2110  -10.6390 C   0  0  0  0  0  0
   33.0610   -5.1820  -11.1680 O   0  0  0  0  0  0
   29.9780   -4.4660  -10.7110 C   0  0  0  0  0  0
   29.3640   -5.3310  -11.8150 C   0  0  0  0  0  0
   30.1540   -5.1510  -13.0740 C   0  0  0  0  0  0
   32.8030   -3.5760   -9.4940 N   0  0  0  0  0  0
   33.9610   -4.0220   -8.6280 C   0  0  2  0  0  0
   33.4680   -4.3670   -7.2060 C   0  0  0  0  0  0
   33.6640   -3.5930   -6.2570 O   0  0  0  0  0  0
   35.0140   -2.8970   -8.4780 C   0  0  0  0  0  0
   36.4340   -3.4030   -8.0990 C   0  0  0  0  0  0
   36.6720   -4.2070   -6.9760 N   0  0  0  0  0  0
   37.6560   -3.2030   -8.6710 C   0  0  0  0  0  0
   37.9720   -4.4600   -6.9110 C   0  0  0  0  0  0
   38.5700   -3.8690   -7.9110 N   0  0  0  0  0  0
   32.8080   -5.5250   -6.9990 N   0  0  0  0  0  0
   32.3400   -5.9150   -5.6770 C   0  0  2  0  0  0
   33.5010   -6.0440   -4.7270 C   0  0  0  0  0  0
   34.6820   -5.9100   -5.1750 O   0  0  0  0  0  0
   31.6400   -7.2350   -5.9110 C   0  0  0  0  0  0
   31.7440   -7.5620   -7.3990 C   0  0  0  0  0  0
   32.5030   -6.4690   -8.0800 C   0  0  0  0  0  0
   33.1500   -6.3010   -3.4730 N   0  0  0  0  0  0
   34.1260   -6.4160   -2.3740 C   0  0  2  0  0  0
   33.9080   -7.6980   -1.6090 C   0  0  0  0  0  0
   32.8780   -8.3370   -1.4690 O   0  0  0  0  0  0
   34.0560   -5.1720   -1.4840 C   0  0  0  0  0  0
   34.9490   -4.0290   -1.9860 C   0  0  0  0  0  0
   36.3140   -4.0180   -1.6750 C   0  0  0  0  0  0
   34.4010   -2.9980   -2.7610 C   0  0  0  0  0  0
   37.1310   -2.9770   -2.1360 C   0  0  0  0  0  0
   35.2180   -1.9570   -3.2220 C   0  0  0  0  0  0
   36.5820   -1.9470   -2.9090 C   0  0  0  0  0  0
   34.9890   -8.3050   -1.1220 N   0  0  0  0  0  0
   34.7230   -9.5530   -0.3760 C   0  0  2  0  0  0
   35.3500   -9.4380    0.9920 C   0  0  0  0  0  0
   35.9020  -10.4290    1.4910 O   0  0  0  0  0  0
   35.2870  -10.7320   -1.1750 C   0  0  0  0  0  0
   34.9560  -10.6610   -2.6680 C   0  0  0  0  0  0
   35.8270  -10.2070   -3.6550 N   0  0  0  0  0  0
   33.7630  -11.0220   -3.3140 C   0  0  0  0  0  0
   35.2010  -10.2900   -4.8950 C   0  0  0  0  0  0
   33.9100  -10.7850   -4.6650 N   0  0  0  0  0  0
   35.3250   -8.2710    1.6410 N   0  0  0  0  0  0
   36.2070   -8.0630    2.8100 C   0  0  2  0  0  0
   35.5320   -8.4570    4.0830 C   0  0  0  0  0  0
   36.5800   -6.6220    3.0560 C   0  0  0  0  0  0
   37.2750   -5.9630    1.8650 C   0  0  0  0  0  0
   37.4100   -4.4470    2.0180 C   0  0  0  0  0  0
   38.6950   -6.4860    1.6380 C   0  0  0  0  0  0
   34.9970   -9.8470    4.0550 N   0  3  0  0  0  0
   35.2210  -10.7430    5.2510 C   0  0  2  0  0  0
   36.6780  -11.2120    5.2440 C   0  0  0  0  0  0
   37.3850  -11.0940    4.2320 O   0  0  0  0  0  0
   34.3450  -12.0090    5.1340 C   0  0  0  0  0  0
   34.8720  -13.0070    4.1010 C   0  0  0  0  0  0
   34.2460  -12.7960    6.4440 C   0  0  0  0  0  0
   37.1400  -11.7430    6.3540 N   0  0  0  0  0  0
   38.5300  -12.2280    6.4350 C   0  0  2  0  0  0
   38.6060  -13.6990    6.0560 C   0  0  0  0  0  0
   37.5970  -14.4190    6.0920 O   0  0  0  0  0  0
   39.1060  -12.0400    7.8300 C   0  0  2  0  0  0
   40.5150  -12.6260    7.9620 C   0  0  0  0  0  0
   38.2510  -12.6880    8.9210 C   0  0  0  0  0  0
   40.9850  -12.7340    9.4140 C   0  0  0  0  0  0
   39.8160  -14.0840    5.7110 N   0  0  0  0  0  0
   40.1360  -15.4480    5.2940 C   0  0  2  0  0  0
   40.6870  -16.2300    6.4640 C   0  0  0  0  0  0
   39.9730  -17.0120    7.1100 O   0  0  0  0  0  0
   41.1720  -15.4140    4.1490 C   0  0  0  0  0  0
   41.2100  -16.6960    3.2860 C   0  0  0  0  0  0
   42.4130  -17.2550    2.8470 N   0  0  0  0  0  0
   40.2260  -17.4900    2.7780 C   0  0  0  0  0  0
   42.1350  -18.3250    2.1210 C   0  0  0  0  0  0
   40.8370  -18.4790    2.0690 N   0  0  0  0  0  0
   41.9400  -16.0640    6.8470 N   0  0  0  0  0  0
   30.7831   -3.1881  -13.3458 H   0  0  0  0  0  0
   32.0897   -4.3922  -13.0821 H   0  0  0  0  0  0
   31.0880   -2.5999  -11.2014 H   0  0  0  0  0  0
   30.3440   -5.1007   -9.8905 H   0  0  0  0  0  0
   29.2302   -3.7592  -10.3222 H   0  0  0  0  0  0
   29.3894   -6.3875  -11.5098 H   0  0  0  0  0  0
   28.3216   -5.0234  -11.9848 H   0  0  0  0  0  0
   29.5200   -4.8513  -13.9215 H   0  0  0  0  0  0
   30.7193   -6.0560  -13.3411 H   0  0  0  0  0  0
   32.2088   -2.6959   -9.2072 H   0  0  0  0  0  0
   34.3893   -4.9000   -9.1336 H   0  0  0  0  0  0
   35.1076   -2.3531   -9.4296 H   0  0  0  0  0  0
   34.6969   -2.2009   -7.6875 H   0  0  0  0  0  0
   37.9828   -2.6440   -9.5602 H   0  0  0  0  0  0
   38.4623   -5.0633   -6.1470 H   0  0  0  0  0  0
   31.6736   -5.1554   -5.2423 H   0  0  0  0  0  0
   32.1272   -8.0194   -5.3132 H   0  0  0  0  0  0
   30.5849   -7.1485   -5.6123 H   0  0  0  0  0  0
   32.2713   -8.5187   -7.5282 H   0  0  0  0  0  0
   30.7344   -7.6389   -7.8290 H   0  0  0  0  0  0
   31.9017   -5.9631   -8.8497 H   0  0  0  0  0  0
   33.4410   -6.8307   -8.5265 H   0  0  0  0  0  0
   32.0764   -6.4298   -3.2709 H   0  0  0  0  0  0
   35.1313   -6.4772   -2.8162 H   0  0  0  0  0  0
   33.0210   -4.8006   -1.4537 H   0  0  0  0  0  0
   34.3827   -5.4306   -0.4660 H   0  0  0  0  0  0
   36.7417   -4.8201   -1.0736 H   0  0  0  0  0  0
   33.3388   -3.0058   -3.0053 H   0  0  0  0  0  0
   38.1935   -2.9692   -1.8928 H   0  0  0  0  0  0
   34.7911   -1.1551   -3.8243 H   0  0  0  0  0  0
   37.2172   -1.1369   -3.2672 H   0  0  0  0  0  0
   36.0214   -7.9440   -1.2398 H   0  0  0  0  0  0
   33.6395   -9.6898   -0.2444 H   0  0  0  0  0  0
   36.3825  -10.7502   -1.0778 H   0  0  0  0  0  0
   34.8688  -11.6721   -0.7860 H   0  0  0  0  0  0
   32.8174  -11.4292   -2.9267 H   0  0  0  0  0  0
   35.6318  -10.0217   -5.8596 H   0  0  0  0  0  0
   34.6522   -7.4663    1.3095 H   0  0  0  0  0  0
   37.0795   -8.6813    2.5521 H   0  0  0  0  0  0
   36.2501   -8.3932    4.9138 H   0  0  0  0  0  0
   34.6875   -7.7789    4.2754 H   0  0  0  0  0  0
   35.6719   -6.0400    3.2720 H   0  0  0  0  0  0
   37.2664   -6.5621    3.9135 H   0  0  0  0  0  0
   36.6220   -6.2166    1.0169 H   0  0  0  0  0  0
   36.4165   -4.0055    2.1853 H   0  0  0  0  0  0
   37.8500   -4.0239    1.1029 H   0  0  0  0  0  0
   38.0606   -4.2216    2.8758 H   0  0  0  0  0  0
   38.6685   -7.5793    1.5193 H   0  0  0  0  0  0
   39.3239   -6.2262    2.5023 H   0  0  0  0  0  0
   39.1133   -6.0285    0.7293 H   0  0  0  0  0  0
   33.9041   -9.8168    3.9341 H   0  0  0  0  0  0
   35.4441  -10.3951    3.2125 H   0  0  0  0  0  0
   34.9762  -10.1677    6.1561 H   0  0  0  0  0  0
   33.3610  -11.6174    4.8367 H   0  0  0  0  0  0
   34.9698  -12.5079    3.1256 H   0  0  0  0  0  0
   34.1697  -13.8491    4.0132 H   0  0  0  0  0  0
   35.8554  -13.3815    4.4215 H   0  0  0  0  0  0
   33.8703  -12.1367    7.2403 H   0  0  0  0  0  0
   35.2411  -13.1745    6.7204 H   0  0  0  0  0  0
   33.5555  -13.6421    6.3122 H   0  0  0  0  0  0
   36.4775  -11.8236    7.2284 H   0  0  0  0  0  0
   39.0962  -11.6158    5.7177 H   0  0  0  0  0  0
   39.1229  -10.9481    7.9621 H   0  0  0  0  0  0
   40.5336  -13.6371    7.5292 H   0  0  0  0  0  0
   41.2305  -11.9847    7.4265 H   0  0  0  0  0  0
   37.2251  -12.2952    8.8645 H   0  0  0  0  0  0
   38.6785  -12.4564    9.9077 H   0  0  0  0  0  0
   38.2349  -13.7782    8.7751 H   0  0  0  0  0  0
   41.9989  -13.1599    9.4405 H   0  0  0  0  0  0
   40.2986  -13.3861    9.9740 H   0  0  0  0  0  0
   40.9955  -11.7336    9.8714 H   0  0  0  0  0  0
   40.6068  -13.3202    5.7476 H   0  0  0  0  0  0
   39.1921  -15.9069    4.9647 H   0  0  0  0  0  0
   40.9431  -14.5776    3.4722 H   0  0  0  0  0  0
   42.1794  -15.2799    4.5699 H   0  0  0  0  0  0
   39.1285  -17.4589    2.8451 H   0  0  0  0  0  0
   42.8690  -18.9738    1.6431 H   0  0  0  0  0  0
   42.5977  -15.3772    6.2941 H   0  0  0  0  0  0
   42.3259  -16.6125    7.7189 H   0  0  0  0  0  0
  1  2  1  0  0  0
  1  7  1  0  0  0
  1 79  1  0  0  0
  1 80  1  0  0  0
  2  3  1  0  0  0
  2  5  1  0  0  0
  2 81  1  0  0  0
  3  4  2  0  0  0
  3  8  1  0  0  0
  5  6  1  0  0  0
  5 82  1  0  0  0
  5 83  1  0  0  0
  6  7  1  0  0  0
  6 84  1  0  0  0
  6 85  1  0  0  0
  7 86  1  0  0  0
  7 87  1  0  0  0
  8  9  1  0  0  0
  8 88  1  0  0  0
  9 10  1  0  0  0
  9 12  1  0  0  0
  9 89  1  0  0  0
 10 11  2  0  0  0
 10 18  1  0  0  0
 12 13  1  0  0  0
 12 90  1  0  0  0
 12 91  1  0  0  0
 13 14  2  0  0  0
 13 15  1  0  0  0
 14 16  1  0  0  0
 15 17  2  0  0  0
 15 92  1  0  0  0
 16 17  1  0  0  0
 16 93  1  0  0  0
 18 19  1  0  0  0
 18 24  1  0  0  0
 19 20  1  0  0  0
 19 22  1  0  0  0
 19 94  1  0  0  0
 20 21  2  0  0  0
 20 25  1  0  0  0
 22 23  1  0  0  0
 22 95  1  0  0  0
 22 96  1  0  0  0
 23 24  1  0  0  0
 23 97  1  0  0  0
 23 98  1  0  0  0
 24 99  1  0  0  0
 24100  1  0  0  0
 25 26  1  0  0  0
 25101  1  0  0  0
 26 27  1  0  0  0
 26 29  1  0  0  0
 26102  1  0  0  0
 27 28  2  0  0  0
 27 36  1  0  0  0
 29 30  1  0  0  0
 29103  1  0  0  0
 29104  1  0  0  0
 30 31  2  0  0  0
 30 32  1  0  0  0
 31 33  1  0  0  0
 31105  1  0  0  0
 32 34  2  0  0  0
 32106  1  0  0  0
 33 35  2  0  0  0
 33107  1  0  0  0
 34 35  1  0  0  0
 34108  1  0  0  0
 35109  1  0  0  0
 36 37  1  0  0  0
 36110  1  0  0  0
 37 38  1  0  0  0
 37 40  1  0  0  0
 37111  1  0  0  0
 38 39  2  0  0  0
 38 46  1  0  0  0
 40 41  1  0  0  0
 40112  1  0  0  0
 40113  1  0  0  0
 41 42  2  0  0  0
 41 43  1  0  0  0
 42 44  1  0  0  0
 43 45  2  0  0  0
 43114  1  0  0  0
 44 45  1  0  0  0
 44115  1  0  0  0
 46 47  1  0  0  0
 46116  1  0  0  0
 47 48  1  0  0  0
 47 49  1  0  0  0
 47117  1  0  0  0
 48 53  1  0  0  0
 48118  1  0  0  0
 48119  1  0  0  0
 49 50  1  0  0  0
 49120  1  0  0  0
 49121  1  0  0  0
 50 51  1  0  0  0
 50 52  1  0  0  0
 50122  1  0  0  0
 51123  1  0  0  0
 51124  1  0  0  0
 51125  1  0  0  0
 52126  1  0  0  0
 52127  1  0  0  0
 52128  1  0  0  0
 53 54  1  0  0  0
 53129  1  0  0  0
 53130  1  0  0  0
 54 55  1  0  0  0
 54 57  1  0  0  0
 54131  1  0  0  0
 55 56  2  0  0  0
 55 60  1  0  0  0
 57 58  1  0  0  0
 57 59  1  0  0  0
 57132  1  0  0  0
 58133  1  0  0  0
 58134  1  0  0  0
 58135  1  0  0  0
 59136  1  0  0  0
 59137  1  0  0  0
 59138  1  0  0  0
 60 61  1  0  0  0
 60139  1  0  0  0
 61 62  1  0  0  0
 61 64  1  0  0  0
 61140  1  0  0  0
 62 63  2  0  0  0
 62 68  1  0  0  0
 64 65  1  0  0  0
 64 66  1  0  0  0
 64141  1  0  0  0
 65 67  1  0  0  0
 65142  1  0  0  0
 65143  1  0  0  0
 66144  1  0  0  0
 66145  1  0  0  0
 66146  1  0  0  0
 67147  1  0  0  0
 67148  1  0  0  0
 67149  1  0  0  0
 68 69  1  0  0  0
 68150  1  0  0  0
 69 70  1  0  0  0
 69 72  1  0  0  0
 69151  1  0  0  0
 70 71  2  0  0  0
 70 78  1  0  0  0
 72 73  1  0  0  0
 72152  1  0  0  0
 72153  1  0  0  0
 73 74  2  0  0  0
 73 75  1  0  0  0
 74 76  1  0  0  0
 75 77  2  0  0  0
 75154  1  0  0  0
 76 77  1  0  0  0
 76155  1  0  0  0
 78156  1  0  0  0
 78157  1  0  0  0
M  CHG  2   1   1  53   1
M  END
> <s_m_source_file>
../4er4_ligand.sdf

> <i_m_source_file_index>
1

> <s_epik_input>
W0NIMl0xW0NIMl1bQ0gyXVtOSDIrXVtDQEBIXTFDKD1PKVtOSF1bQ0BASF0oW0NIMl1DMj1OW0NIMl1OPVtDSF0yKUMoPU8pTjNbQ0BASF0oW0NIMl1bQ0gyXVtDSDJdMylDKD1PKVtOSF1bQ0BASF0oW0NIMl1jNFtjSF1bY0hdW2NIXVtjSF1bY0hdNClDKD1PKVtOSF1bQ0BASF0oW0NIMl1DNT1OW0NIMl1OPVtDSF01KUMoPU8pW05IXVtDQEBIXShbQ0gyXVtDSF0oW0NIM10pW0NIM10pW0NIMl1bTkgyK11bQ0BASF0oW0NIXShbQ0gzXSlbQ0gzXSlDKD1PKVtOSF1bQ0BASF0oW0NAQEhdKFtDSDNdKVtDSDJdW0NIM10pQyg9TylbTkhdW0NASF0oQyg9TylbTkgyXSlbQ0gyXUM2PU5bQ0gyXU49W0NIXTY=

> <s_epik_cmdline>
J2VwaWtfYXBwJywgJy1pbWFlJywgJ2xpZ2FuZF9wcm8ubWFlJywgJy1vbWFlJywgJ2xpZ2FuZF9wcmVwLm1hZScsICctbXMnLCAnMScsICctcGgnLCAnNycsICctcGh0JywgJzAuNScsICctbnQn

> <s_epik_pKa_notes>
Molecule size exceeds maximum supported for generating protonation states

> <s_epik_Chemistry_Notes>
This compound has an imine and may undergo hydrolysis.

$$$$
