4ere_ligand
                    3D
 Schrodinger Suite 2020-3.
 65 67  0  0  1  0            999 V2000
    6.8170   24.5610   22.6940 Cl  0  0  0  0  0  0
    8.3220   25.0140   21.8320 C   0  0  0  0  0  0
    8.1530   25.8890   20.7410 C   0  0  0  0  0  0
    9.2580   26.2910   19.9530 C   0  0  0  0  0  0
    9.6140   24.5190   22.1620 C   0  0  0  0  0  0
   10.7110   24.9150   21.3830 C   0  0  0  0  0  0
   10.5380   25.7980   20.2830 C   0  0  0  0  0  0
   11.7560   26.2730   19.4860 C   0  0  1  0  0  0
   11.6390   25.9590   18.0710 N   0  0  0  0  0  0
   11.2760   24.5800   17.7880 C   0  0  2  0  0  0
   12.8120   24.1200   17.4490 C   0  0  0  0  0  0
   13.7910   24.8510   17.4610 O   0  0  0  0  0  0
   11.9220   26.8180   17.0340 C   0  0  0  0  0  0
   11.7930   26.4570   15.8880 O   0  0  0  0  0  0
   12.4820   28.2390   17.3520 C   0  0  1  0  0  0
   11.3600   29.2640   17.1030 C   0  0  0  0  0  0
   11.9110   30.6820   16.8340 C   0  0  0  0  0  0
   11.8950   31.5220   17.6840 O   0  0  0  0  0  0
   12.3700   30.8950   15.5950 O   0  5  0  0  0  0
   13.0990   28.2900   18.7360 C   0  0  0  0  0  0
   12.1450   27.7790   19.7870 C   0  0  2  0  0  0
   12.5630   28.0520   21.2290 C   0  0  0  0  0  0
   13.9190   27.9980   21.6120 C   0  0  0  0  0  0
   14.2970   28.1450   22.9560 C   0  0  0  0  0  0
   13.3160   28.3540   23.9370 C   0  0  0  0  0  0
   11.9770   28.4190   23.5650 C   0  0  0  0  0  0
   10.7840   28.6540   24.7730 Cl  0  0  0  0  0  0
   11.5900   28.2790   22.2400 C   0  0  0  0  0  0
   10.2490   24.3790   16.5810 C   0  0  0  0  0  0
    8.7940   24.7600   16.9540 C   0  0  0  0  0  0
   12.8170   22.7390   17.1720 O   0  0  0  0  0  0
   13.9950   21.9680   16.6390 C   0  0  0  0  0  0
   13.4470   20.5590   16.5200 C   0  0  0  0  0  0
   15.0750   22.0720   17.7190 C   0  0  0  0  0  0
   14.2290   22.5700   15.2440 C   0  0  0  0  0  0
    7.1574   26.2617   20.5003 H   0  0  0  0  0  0
    9.1228   26.9673   19.1089 H   0  0  0  0  0  0
    9.7493   23.8431   23.0064 H   0  0  0  0  0  0
   11.7064   24.5417   21.6237 H   0  0  0  0  0  0
   12.6030   25.6311   19.7698 H   0  0  0  0  0  0
   10.7099   24.1139   18.6079 H   0  0  0  0  0  0
   13.3273   28.5128   16.7035 H   0  0  0  0  0  0
   10.7697   28.9560   16.2274 H   0  0  0  0  0  0
   10.7066   29.3142   17.9864 H   0  0  0  0  0  0
   14.0053   27.6669   18.7566 H   0  0  0  0  0  0
   13.3629   29.3292   18.9818 H   0  0  0  0  0  0
   11.2608   28.4284   19.7061 H   0  0  0  0  0  0
   14.6852   27.8397   20.8531 H   0  0  0  0  0  0
   15.3492   28.0969   23.2365 H   0  0  0  0  0  0
   13.6009   28.4647   24.9833 H   0  0  0  0  0  0
   10.5351   28.3434   21.9732 H   0  0  0  0  0  0
   10.5524   25.0099   15.7325 H   0  0  0  0  0  0
   10.2490   23.3234   16.2715 H   0  0  0  0  0  0
    8.1389   24.6001   16.0850 H   0  0  0  0  0  0
    8.7569   25.8184   17.2514 H   0  0  0  0  0  0
    8.4535   24.1319   17.7904 H   0  0  0  0  0  0
   13.2851   20.1425   17.5251 H   0  0  0  0  0  0
   14.1663   19.9307   15.9742 H   0  0  0  0  0  0
   12.4921   20.5818   15.9744 H   0  0  0  0  0  0
   14.7212   21.5846   18.6395 H   0  0  0  0  0  0
   15.2880   23.1316   17.9237 H   0  0  0  0  0  0
   15.9918   21.5745   17.3698 H   0  0  0  0  0  0
   13.3438   22.3935   14.6153 H   0  0  0  0  0  0
   15.1072   22.0951   14.7823 H   0  0  0  0  0  0
   14.4034   23.6522   15.3362 H   0  0  0  0  0  0
  1  2  1  0  0  0
  2  3  2  0  0  0
  2  5  1  0  0  0
  3  4  1  0  0  0
  3 36  1  0  0  0
  4  7  2  0  0  0
  4 37  1  0  0  0
  5  6  2  0  0  0
  5 38  1  0  0  0
  6  7  1  0  0  0
  6 39  1  0  0  0
  7  8  1  0  0  0
  8  9  1  0  0  0
  8 21  1  0  0  0
  8 40  1  0  0  0
  9 10  1  0  0  0
  9 13  1  0  0  0
 10 11  1  0  0  0
 10 29  1  0  0  0
 10 41  1  0  0  0
 11 12  2  0  0  0
 11 31  1  0  0  0
 13 14  2  0  0  0
 13 15  1  0  0  0
 15 16  1  0  0  0
 15 20  1  0  0  0
 15 42  1  0  0  0
 16 17  1  0  0  0
 16 43  1  0  0  0
 16 44  1  0  0  0
 17 18  2  0  0  0
 17 19  1  0  0  0
 20 21  1  0  0  0
 20 45  1  0  0  0
 20 46  1  0  0  0
 21 22  1  0  0  0
 21 47  1  0  0  0
 22 23  2  0  0  0
 22 28  1  0  0  0
 23 24  1  0  0  0
 23 48  1  0  0  0
 24 25  2  0  0  0
 24 49  1  0  0  0
 25 26  1  0  0  0
 25 50  1  0  0  0
 26 27  1  0  0  0
 26 28  2  0  0  0
 28 51  1  0  0  0
 29 30  1  0  0  0
 29 52  1  0  0  0
 29 53  1  0  0  0
 30 54  1  0  0  0
 30 55  1  0  0  0
 30 56  1  0  0  0
 31 32  1  0  0  0
 32 33  1  0  0  0
 32 34  1  0  0  0
 32 35  1  0  0  0
 33 57  1  0  0  0
 33 58  1  0  0  0
 33 59  1  0  0  0
 34 60  1  0  0  0
 34 61  1  0  0  0
 34 62  1  0  0  0
 35 63  1  0  0  0
 35 64  1  0  0  0
 35 65  1  0  0  0
M  CHG  1  19  -1
M  END
> <s_m_source_file>
../4ere_ligand.sdf

> <i_m_source_file_index>
1

> <s_epik_input>
Q2xjMVtjSF1bY0hdYyhbY0hdW2NIXTEpW0NASF0yTihbQ0BASF0oW0NIMl1bQ0gzXSlDKD1PKU9DKFtDSDNdKShbQ0gzXSlbQ0gzXSlDKD1PKVtDQEBIXShbQ0gyXUMoPU8pW09IXSlbQ0gyXVtDQEBIXTJjM1tjSF1bY0hdW2NIXWMoQ2wpW2NIXTM=

> <s_epik_cmdline>
J2VwaWtfYXBwJywgJy1pbWFlJywgJ2xpZ2FuZF9wcm8ubWFlJywgJy1vbWFlJywgJ2xpZ2FuZF9wcmVwLm1hZScsICctbXMnLCAnMScsICctcGgnLCAnNycsICctcGh0JywgJzAuNScsICctbnQn

> <r_lp_tautomer_probability>
1

> <r_epik_Ionization_Penalty>
  0.0034

> <r_epik_Ionization_Penalty_Charging>
  0.0034

> <r_epik_Ionization_Penalty_Neutral>
  0.0000

> <r_epik_State_Penalty>
 -0.0000

> <r_epik_Charging_Adjusted_Penalty>
0.00335195872167341

> <i_epik_Tot_Q>
-1

> <i_epik_Tot_abs_Q>
1

> <s_epik_Chemistry_Notes>
This compound has an ester and may undergo hydrolysis at high or low pH.

$$$$
