4erk_ligand
                    3D
 Schrodinger Suite 2020-3.
 40 42  0  0  1  0            999 V2000
  -16.1700   11.5950   40.3310 N   0  0  0  0  0  0
  -17.3070   10.9990   40.8410 C   0  0  0  0  0  0
  -18.2010   11.6870   41.6460 N   0  0  0  0  0  0
  -17.5580   12.9100   41.6680 C   0  0  0  0  0  0
  -16.3480   12.8600   40.8850 C   0  0  0  0  0  0
  -17.9310   14.1240   42.3390 C   0  0  0  0  0  0
  -17.0780   15.2450   42.2000 N   0  0  0  0  0  0
  -15.8920   15.2120   41.4290 C   0  0  0  0  0  0
  -15.5210   14.0210   40.7700 N   0  0  0  0  0  0
  -15.1040   11.0360   39.4660 C   0  0  0  0  0  0
  -15.0640   16.3990   41.3210 N   0  0  0  0  0  0
  -15.4540   17.8110   41.4880 C   0  0  0  0  0  0
  -14.3390   18.6630   42.1060 C   0  0  0  0  0  0
  -14.3720   18.5960   43.5260 O   0  0  0  0  0  0
  -19.1570   14.1480   43.1310 N   0  0  0  0  0  0
  -19.7900   15.1930   43.9790 C   0  0  0  0  0  0
  -17.9580   16.5340   45.1360 C   0  0  0  0  0  0
  -17.2480   17.7320   45.3730 C   0  0  0  0  0  0
  -17.6120   18.9170   44.6800 C   0  0  0  0  0  0
  -18.6880   18.8980   43.7490 C   0  0  0  0  0  0
  -19.4050   17.6950   43.5070 C   0  0  0  0  0  0
  -19.0450   16.5060   44.1970 C   0  0  0  0  0  0
  -17.5074    9.9544   40.6027 H   0  0  0  0  0  0
  -14.3526   11.8130   39.2616 H   0  0  0  0  0  0
  -15.5436   10.6925   38.5180 H   0  0  0  0  0  0
  -14.6247   10.1877   39.9766 H   0  0  0  0  0  0
  -14.0218   16.1409   41.0818 H   0  0  0  0  0  0
  -15.7025   18.2413   40.5066 H   0  0  0  0  0  0
  -16.3314   17.8734   42.1485 H   0  0  0  0  0  0
  -13.3619   18.2960   41.7588 H   0  0  0  0  0  0
  -14.4665   19.7118   41.7999 H   0  0  0  0  0  0
  -13.6339   19.1546   44.1203 H   0  0  0  0  0  0
  -19.6375   13.1648   43.0193 H   0  0  0  0  0  0
  -20.7541   15.4879   43.5390 H   0  0  0  0  0  0
  -19.9555   14.7938   44.9906 H   0  0  0  0  0  0
  -17.6793   15.6249   45.6690 H   0  0  0  0  0  0
  -16.4233   17.7469   46.0856 H   0  0  0  0  0  0
  -17.0661   19.8428   44.8616 H   0  0  0  0  0  0
  -18.9635   19.8099   43.2192 H   0  0  0  0  0  0
  -20.2292   17.6844   42.7938 H   0  0  0  0  0  0
  1 10  1  0  0  0
  1  5  1  0  0  0
  1  2  1  0  0  0
  2  3  2  0  0  0
  2 23  1  0  0  0
  3  4  1  0  0  0
  4  6  2  0  0  0
  4  5  1  0  0  0
  5  9  2  0  0  0
  6  7  1  0  0  0
  6 15  1  0  0  0
  7  8  2  0  0  0
  8  9  1  0  0  0
  8 11  1  0  0  0
 10 24  1  0  0  0
 10 25  1  0  0  0
 10 26  1  0  0  0
 11 12  1  0  0  0
 11 27  1  0  0  0
 12 13  1  0  0  0
 12 28  1  0  0  0
 12 29  1  0  0  0
 13 14  1  0  0  0
 13 30  1  0  0  0
 13 31  1  0  0  0
 14 32  1  0  0  0
 15 16  1  0  0  0
 15 33  1  0  0  0
 16 22  1  0  0  0
 16 34  1  0  0  0
 16 35  1  0  0  0
 17 22  1  0  0  0
 17 18  2  0  0  0
 17 36  1  0  0  0
 18 19  1  0  0  0
 18 37  1  0  0  0
 19 20  2  0  0  0
 19 38  1  0  0  0
 20 21  1  0  0  0
 20 39  1  0  0  0
 21 22  2  0  0  0
 21 40  1  0  0  0
M  END
> <s_m_source_file>
../4erk_ligand.sdf

> <i_m_source_file_index>
1

> <s_epik_input>
bjFbY0hdbihbQ0gzXSljKGMxMiluYyhbTkhdW0NIMl1bQ0gyXVtPSF0pbmMyW05IXVtDSDJdYzNbY0hdW2NIXVtjSF1bY0hdW2NIXTM=

> <s_epik_cmdline>
J2VwaWtfYXBwJywgJy1pbWFlJywgJ2xpZ2FuZF9wcm8ubWFlJywgJy1vbWFlJywgJ2xpZ2FuZF9wcmVwLm1hZScsICctbXMnLCAnMScsICctcGgnLCAnNycsICctcGh0JywgJzAuNScsICctbnQn

> <r_epik_Ionization_Penalty>
  0.0161

> <r_epik_Ionization_Penalty_Charging>
  0.0000

> <r_epik_Ionization_Penalty_Neutral>
  0.0161

> <r_epik_State_Penalty>
  0.0087

> <r_epik_Charging_Adjusted_Penalty>
0.00869784526459593

> <i_epik_Tot_Q>
0

> <i_epik_Tot_abs_Q>
0

$$$$
