4erq_ligand
                    3D
 Schrodinger Suite 2020-3.
198199  0  0  1  0            999 V2000
  -28.8300   19.2070  -32.6600 N   0  3  0  0  0  0
  -28.0010   18.0330  -32.9410 C   0  0  2  0  0  0
  -28.1340   16.9820  -31.8400 C   0  0  0  0  0  0
  -27.9820   17.2970  -30.6570 O   0  0  0  0  0  0
  -26.5150   18.4090  -33.0810 C   0  0  2  0  0  0
  -26.2860   19.2250  -34.3540 C   0  0  0  0  0  0
  -25.6380   17.1550  -33.1010 C   0  0  0  0  0  0
  -24.8380   19.6040  -34.5780 C   0  0  0  0  0  0
  -28.4230   15.7420  -32.2310 N   0  0  0  0  0  0
  -28.4840   14.6350  -31.2830 C   0  0  2  0  0  0
  -27.1140   13.9730  -31.1650 C   0  0  0  0  0  0
  -26.6040   13.4280  -32.1470 O   0  0  0  0  0  0
  -29.5460   13.6110  -31.7180 C   0  0  0  0  0  0
  -30.9630   14.1650  -31.6260 C   0  0  0  0  0  0
  -31.3570   14.7180  -30.5980 O   0  0  0  0  0  0
  -31.7290   14.0380  -32.7090 N   0  0  0  0  0  0
  -26.5100   14.0320  -29.9620 N   0  0  0  0  0  0
  -25.1450   13.5400  -29.7210 C   0  0  2  0  0  0
  -24.9560   12.0760  -30.0990 C   0  0  0  0  0  0
  -23.8720   11.7110  -30.5730 O   0  0  0  0  0  0
  -24.9760   13.6860  -28.2010 C   0  0  0  0  0  0
  -25.9770   14.7190  -27.7930 C   0  0  0  0  0  0
  -27.1320   14.5640  -28.7350 C   0  0  0  0  0  0
  -25.9750   11.2450  -29.8820 N   0  0  0  0  0  0
  -25.8650    9.8340  -30.2410 C   0  0  2  0  0  0
  -25.9190    9.6120  -31.7430 C   0  0  0  0  0  0
  -25.5030    8.5580  -32.2280 O   0  0  0  0  0  0
  -26.9670    8.9770  -29.5950 C   0  0  2  0  0  0
  -28.2460    9.4070  -30.0830 O   0  0  0  0  0  0
  -26.9110    9.0900  -28.0760 C   0  0  0  0  0  0
  -26.4470   10.5870  -32.4810 N   0  0  0  0  0  0
  -26.5000   10.4660  -33.9260 C   0  0  0  0  0  0
  -27.8950   10.4400  -34.5380 C   0  0  0  0  0  0
  -28.0540   10.7240  -35.7260 O   0  0  0  0  0  0
  -28.9050   10.0710  -33.7520 N   0  0  0  0  0  0
  -30.2920   10.1220  -34.2460 C   0  0  2  0  0  0
  -31.2760   10.3240  -33.0980 C   0  0  0  0  0  0
  -30.9640   10.0420  -31.9370 O   0  0  0  0  0  0
  -30.6470    8.8690  -35.0640 C   0  0  0  0  0  0
  -31.0860    7.3950  -34.0660 S   0  0  0  0  0  0
  -32.4620   10.8320  -33.4280 N   0  0  0  0  0  0
  -33.4690   11.1400  -32.4240 C   0  0  2  0  0  0
  -33.8970    9.9190  -31.5880 C   0  0  0  0  0  0
  -34.0670   10.0300  -30.3690 O   0  0  0  0  0  0
  -34.6890   11.7950  -33.0810 C   0  0  0  0  0  0
  -34.0810    8.7660  -32.2280 N   0  0  0  0  0  0
  -34.6300    7.6150  -31.5030 C   0  0  2  0  0  0
  -33.6610    7.1210  -30.4450 C   0  0  0  0  0  0
  -34.0830    6.5890  -29.4230 O   0  0  0  0  0  0
  -35.0200    6.4610  -32.4350 C   0  0  0  0  0  0
  -35.8950    5.3880  -31.7360 C   0  0  0  0  0  0
  -36.3330    4.2720  -32.6970 C   0  0  0  0  0  0
  -37.2080    4.7380  -33.7800 N   0  0  0  0  0  0
  -38.5350    4.7120  -33.7340 C   0  0  0  0  0  0
  -39.1470    4.2540  -32.6490 N   0  0  0  0  0  0
  -39.2490    5.1450  -34.7660 N   0  0  0  0  0  0
  -32.3650    7.3100  -30.6680 N   0  0  0  0  0  0
  -31.3890    6.8200  -29.6920 C   0  0  2  0  0  0
  -31.1050    7.7990  -28.5330 C   0  0  0  0  0  0
  -30.2670    7.5080  -27.6710 O   0  0  0  0  0  0
  -30.0990    6.3490  -30.3750 C   0  0  0  0  0  0
  -29.5330    7.3680  -31.1860 O   0  0  0  0  0  0
  -31.8050    8.9390  -28.5010 N   0  0  0  0  0  0
  -31.7500    9.8560  -27.3450 C   0  0  2  0  0  0
  -32.8920    9.5840  -26.3640 C   0  0  0  0  0  0
  -34.0210    9.2980  -26.7840 O   0  0  0  0  0  0
  -31.8610   11.3190  -27.7930 C   0  0  0  0  0  0
  -30.8350   11.7600  -28.8090 C   0  0  0  0  0  0
  -29.4330   11.8600  -28.2240 C   0  0  0  0  0  0
  -28.4560   11.7830  -29.0030 O   0  0  0  0  0  0
  -29.3100   12.0230  -26.9890 O   0  0  0  0  0  0
  -32.6150    9.6920  -25.0500 N   0  0  0  0  0  0
  -33.6900    9.5340  -24.0620 C   0  0  2  0  0  0
  -34.5730   10.7750  -24.0360 C   0  0  0  0  0  0
  -34.0800   11.8720  -24.3000 O   0  0  0  0  0  0
  -32.9270    9.4050  -22.7380 C   0  0  0  0  0  0
  -31.6730   10.2000  -22.9510 C   0  0  0  0  0  0
  -31.3130    9.9880  -24.4190 C   0  0  0  0  0  0
  -35.8560   10.6060  -23.7450 N   0  0  0  0  0  0
  -36.7630   11.7380  -23.6390 C   0  0  2  0  0  0
  -36.5980   12.3420  -22.2600 C   0  0  0  0  0  0
  -36.6730   11.6310  -21.2590 O   0  0  0  0  0  0
  -38.2120   11.2900  -23.8270 C   0  0  0  0  0  0
  -39.2460   12.4030  -23.6810 C   0  0  0  0  0  0
  -40.6670   11.8390  -23.7230 C   0  0  0  0  0  0
  -41.7320   12.9370  -23.8200 C   0  0  0  0  0  0
  -41.7150   13.8510  -22.6470 N   0  3  0  0  0  0
  -36.3630   13.6490  -22.2190 N   0  0  0  0  0  0
  -36.1630   14.3810  -20.9690 C   0  0  2  0  0  0
  -37.4240   15.1650  -20.6210 C   0  0  0  0  0  0
  -37.8470   16.0220  -21.4030 O   0  0  0  0  0  0
  -34.9970   15.3920  -21.1000 C   0  0  2  0  0  0
  -33.6610   14.6790  -21.3420 C   0  0  0  0  0  0
  -34.9360   16.2910  -19.8850 C   0  0  0  0  0  0
  -33.3580   13.5360  -20.3650 C   0  0  0  0  0  0
  -38.0315   14.9393  -19.5404 O   0  0  0  0  0  0
  -29.8820   18.8992  -32.5670 H   0  0  0  0  0  0
  -28.7311   19.9310  -33.4822 H   0  0  0  0  0  0
  -28.4996   19.6726  -31.7197 H   0  0  0  0  0  0
  -28.4020   17.6511  -33.8915 H   0  0  0  0  0  0
  -26.2290   19.0216  -32.2133 H   0  0  0  0  0  0
  -26.6117   18.6410  -35.2274 H   0  0  0  0  0  0
  -26.8654   20.1585  -34.3004 H   0  0  0  0  0  0
  -25.8083   16.5738  -32.1827 H   0  0  0  0  0  0
  -24.5795   17.4487  -33.1580 H   0  0  0  0  0  0
  -25.8959   16.5412  -33.9766 H   0  0  0  0  0  0
  -24.7509   20.1862  -35.5072 H   0  0  0  0  0  0
  -24.2285   18.6919  -34.6583 H   0  0  0  0  0  0
  -24.4822   20.2094  -33.7313 H   0  0  0  0  0  0
  -28.6183   15.5632  -33.2987 H   0  0  0  0  0  0
  -28.7660   15.0775  -30.3162 H   0  0  0  0  0  0
  -29.3648   13.3160  -32.7621 H   0  0  0  0  0  0
  -29.4866   12.7236  -31.0707 H   0  0  0  0  0  0
  -31.3353   13.5365  -33.6054 H   0  0  0  0  0  0
  -32.7550   14.4347  -32.7066 H   0  0  0  0  0  0
  -24.4456   14.1137  -30.3468 H   0  0  0  0  0  0
  -25.1725   12.7186  -27.7157 H   0  0  0  0  0  0
  -23.9484   14.0074  -27.9755 H   0  0  0  0  0  0
  -26.2847   14.5404  -26.7521 H   0  0  0  0  0  0
  -25.5264   15.7191  -27.8757 H   0  0  0  0  0  0
  -27.6208   15.5238  -28.9582 H   0  0  0  0  0  0
  -27.8808   13.8489  -28.3637 H   0  0  0  0  0  0
  -26.9023   11.6269  -29.4300 H   0  0  0  0  0  0
  -24.8703    9.5731  -29.8505 H   0  0  0  0  0  0
  -26.8756    7.9200  -29.8857 H   0  0  0  0  0  0
  -28.4569    9.3900  -31.1625 H   0  0  0  0  0  0
  -25.9251    8.7568  -27.7197 H   0  0  0  0  0  0
  -27.6942    8.4578  -27.6322 H   0  0  0  0  0  0
  -27.0733   10.1369  -27.7800 H   0  0  0  0  0  0
  -26.8441   11.4874  -31.9895 H   0  0  0  0  0  0
  -25.9788   11.3192  -34.3847 H   0  0  0  0  0  0
  -26.0117    9.5296  -34.2337 H   0  0  0  0  0  0
  -28.6982    9.7265  -32.7280 H   0  0  0  0  0  0
  -30.3303   11.0024  -34.9043 H   0  0  0  0  0  0
  -31.5127    9.0844  -35.7075 H   0  0  0  0  0  0
  -29.7879    8.5834  -35.6887 H   0  0  0  0  0  0
  -31.3543    6.4525  -34.5657 H   0  0  0  0  0  0
  -32.6710   11.0181  -34.4918 H   0  0  0  0  0  0
  -32.9514   11.8458  -31.7578 H   0  0  0  0  0  0
  -34.3646   12.6636  -33.6728 H   0  0  0  0  0  0
  -35.3924   12.1242  -32.3020 H   0  0  0  0  0  0
  -35.1856   11.0673  -33.7397 H   0  0  0  0  0  0
  -33.8242    8.6733  -33.2936 H   0  0  0  0  0  0
  -35.5354    8.0139  -31.0222 H   0  0  0  0  0  0
  -35.5922    6.8556  -33.2876 H   0  0  0  0  0  0
  -34.1106    5.9633  -32.8027 H   0  0  0  0  0  0
  -35.3242    4.9261  -30.9170 H   0  0  0  0  0  0
  -36.8011    5.8614  -31.3300 H   0  0  0  0  0  0
  -35.4451    3.8206  -33.1637 H   0  0  0  0  0  0
  -36.8847    3.5020  -32.1377 H   0  0  0  0  0  0
  -36.7708    5.1415  -34.7052 H   0  0  0  0  0  0
  -38.5553    3.8952  -31.7939 H   0  0  0  0  0  0
  -38.7417    5.5246  -35.6652 H   0  0  0  0  0  0
  -40.3479    5.1242  -34.7219 H   0  0  0  0  0  0
  -32.0225    7.8289  -31.5754 H   0  0  0  0  0  0
  -31.9085    5.9531  -29.2577 H   0  0  0  0  0  0
  -29.3614    6.0654  -29.6098 H   0  0  0  0  0  0
  -30.3180    5.4800  -31.0129 H   0  0  0  0  0  0
  -28.6025    7.1763  -31.7404 H   0  0  0  0  0  0
  -32.4345    9.1852  -29.3688 H   0  0  0  0  0  0
  -30.7742    9.6516  -26.8802 H   0  0  0  0  0  0
  -32.8471   11.4887  -28.2500 H   0  0  0  0  0  0
  -31.7423   11.9794  -26.9214 H   0  0  0  0  0  0
  -30.8036   11.0359  -29.6364 H   0  0  0  0  0  0
  -31.1083   12.7514  -29.1995 H   0  0  0  0  0  0
  -27.4314   11.8520  -28.6087 H   0  0  0  0  0  0
  -34.3346    8.6768  -24.3063 H   0  0  0  0  0  0
  -33.5391    9.8140  -21.9207 H   0  0  0  0  0  0
  -32.7127    8.3444  -22.5401 H   0  0  0  0  0  0
  -31.8689   11.2598  -22.7307 H   0  0  0  0  0  0
  -30.8838    9.8262  -22.2821 H   0  0  0  0  0  0
  -30.6324    9.1364  -24.5657 H   0  0  0  0  0  0
  -30.8787   10.8879  -24.8790 H   0  0  0  0  0  0
  -36.2301    9.5844  -23.5827 H   0  0  0  0  0  0
  -36.4879   12.4503  -24.4308 H   0  0  0  0  0  0
  -38.3376   10.8688  -24.8354 H   0  0  0  0  0  0
  -38.4595   10.5248  -23.0765 H   0  0  0  0  0  0
  -39.0984   12.9167  -22.7196 H   0  0  0  0  0  0
  -39.1278   13.1236  -24.5037 H   0  0  0  0  0  0
  -40.7756   11.1837  -24.5998 H   0  0  0  0  0  0
  -40.8593   11.2609  -22.8071 H   0  0  0  0  0  0
  -41.5552   13.5405  -24.7225 H   0  0  0  0  0  0
  -42.7294   12.4765  -23.8764 H   0  0  0  0  0  0
  -42.4956   14.6166  -22.7674 H   0  0  0  0  0  0
  -40.7314   14.3382  -22.5761 H   0  0  0  0  0  0
  -41.9055   13.2742  -21.7299 H   0  0  0  0  0  0
  -36.3218   14.1813  -23.1807 H   0  0  0  0  0  0
  -35.9483   13.6073  -20.2171 H   0  0  0  0  0  0
  -35.1788   16.0414  -21.9690 H   0  0  0  0  0  0
  -33.6555   14.2435  -22.3521 H   0  0  0  0  0  0
  -32.8374   15.4024  -21.2501 H   0  0  0  0  0  0
  -35.9094   16.7836  -19.7441 H   0  0  0  0  0  0
  -34.1570   17.0536  -20.0319 H   0  0  0  0  0  0
  -34.6972   15.6895  -18.9955 H   0  0  0  0  0  0
  -32.3853   13.0876  -20.6156 H   0  0  0  0  0  0
  -34.1448   12.7709  -20.4404 H   0  0  0  0  0  0
  -33.3267   13.9298  -19.3384 H   0  0  0  0  0  0
  -38.9408   15.5062  -19.2919 H   0  0  0  0  0  0
  1  2  1  0  0  0
  1 97  1  0  0  0
  1 98  1  0  0  0
  1 99  1  0  0  0
  2  3  1  0  0  0
  2  5  1  0  0  0
  2100  1  0  0  0
  3  4  2  0  0  0
  3  9  1  0  0  0
  5  6  1  0  0  0
  5  7  1  0  0  0
  5101  1  0  0  0
  6  8  1  0  0  0
  6102  1  0  0  0
  6103  1  0  0  0
  7104  1  0  0  0
  7105  1  0  0  0
  7106  1  0  0  0
  8107  1  0  0  0
  8108  1  0  0  0
  8109  1  0  0  0
  9 10  1  0  0  0
  9110  1  0  0  0
 10 11  1  0  0  0
 10 13  1  0  0  0
 10111  1  0  0  0
 11 12  2  0  0  0
 11 17  1  0  0  0
 13 14  1  0  0  0
 13112  1  0  0  0
 13113  1  0  0  0
 14 15  2  0  0  0
 14 16  1  0  0  0
 16114  1  0  0  0
 16115  1  0  0  0
 17 18  1  0  0  0
 17 23  1  0  0  0
 18 19  1  0  0  0
 18 21  1  0  0  0
 18116  1  0  0  0
 19 20  2  0  0  0
 19 24  1  0  0  0
 21 22  1  0  0  0
 21117  1  0  0  0
 21118  1  0  0  0
 22 23  1  0  0  0
 22119  1  0  0  0
 22120  1  0  0  0
 23121  1  0  0  0
 23122  1  0  0  0
 24 25  1  0  0  0
 24123  1  0  0  0
 25 26  1  0  0  0
 25 28  1  0  0  0
 25124  1  0  0  0
 26 27  2  0  0  0
 26 31  1  0  0  0
 28 29  1  0  0  0
 28 30  1  0  0  0
 28125  1  0  0  0
 29126  1  0  0  0
 30127  1  0  0  0
 30128  1  0  0  0
 30129  1  0  0  0
 31 32  1  0  0  0
 31130  1  0  0  0
 32 33  1  0  0  0
 32131  1  0  0  0
 32132  1  0  0  0
 33 34  2  0  0  0
 33 35  1  0  0  0
 35 36  1  0  0  0
 35133  1  0  0  0
 36 37  1  0  0  0
 36 39  1  0  0  0
 36134  1  0  0  0
 37 38  2  0  0  0
 37 41  1  0  0  0
 39 40  1  0  0  0
 39135  1  0  0  0
 39136  1  0  0  0
 40137  1  0  0  0
 41 42  1  0  0  0
 41138  1  0  0  0
 42 43  1  0  0  0
 42 45  1  0  0  0
 42139  1  0  0  0
 43 44  2  0  0  0
 43 46  1  0  0  0
 45140  1  0  0  0
 45141  1  0  0  0
 45142  1  0  0  0
 46 47  1  0  0  0
 46143  1  0  0  0
 47 48  1  0  0  0
 47 50  1  0  0  0
 47144  1  0  0  0
 48 49  2  0  0  0
 48 57  1  0  0  0
 50 51  1  0  0  0
 50145  1  0  0  0
 50146  1  0  0  0
 51 52  1  0  0  0
 51147  1  0  0  0
 51148  1  0  0  0
 52 53  1  0  0  0
 52149  1  0  0  0
 52150  1  0  0  0
 53 54  1  0  0  0
 53151  1  0  0  0
 54 55  2  0  0  0
 54 56  1  0  0  0
 55152  1  0  0  0
 56153  1  0  0  0
 56154  1  0  0  0
 57 58  1  0  0  0
 57155  1  0  0  0
 58 59  1  0  0  0
 58 61  1  0  0  0
 58156  1  0  0  0
 59 60  2  0  0  0
 59 63  1  0  0  0
 61 62  1  0  0  0
 61157  1  0  0  0
 61158  1  0  0  0
 62159  1  0  0  0
 63 64  1  0  0  0
 63160  1  0  0  0
 64 65  1  0  0  0
 64 67  1  0  0  0
 64161  1  0  0  0
 65 66  2  0  0  0
 65 72  1  0  0  0
 67 68  1  0  0  0
 67162  1  0  0  0
 67163  1  0  0  0
 68 69  1  0  0  0
 68164  1  0  0  0
 68165  1  0  0  0
 69 70  1  0  0  0
 69 71  2  0  0  0
 70166  1  0  0  0
 72 73  1  0  0  0
 72 78  1  0  0  0
 73 74  1  0  0  0
 73 76  1  0  0  0
 73167  1  0  0  0
 74 75  2  0  0  0
 74 79  1  0  0  0
 76 77  1  0  0  0
 76168  1  0  0  0
 76169  1  0  0  0
 77 78  1  0  0  0
 77170  1  0  0  0
 77171  1  0  0  0
 78172  1  0  0  0
 78173  1  0  0  0
 79 80  1  0  0  0
 79174  1  0  0  0
 80 81  1  0  0  0
 80 83  1  0  0  0
 80175  1  0  0  0
 81 82  2  0  0  0
 81 88  1  0  0  0
 83 84  1  0  0  0
 83176  1  0  0  0
 83177  1  0  0  0
 84 85  1  0  0  0
 84178  1  0  0  0
 84179  1  0  0  0
 85 86  1  0  0  0
 85180  1  0  0  0
 85181  1  0  0  0
 86 87  1  0  0  0
 86182  1  0  0  0
 86183  1  0  0  0
 87184  1  0  0  0
 87185  1  0  0  0
 87186  1  0  0  0
 88 89  1  0  0  0
 88187  1  0  0  0
 89 90  1  0  0  0
 89 92  1  0  0  0
 89188  1  0  0  0
 90 91  2  0  0  0
 90 96  1  0  0  0
 92 93  1  0  0  0
 92 94  1  0  0  0
 92189  1  0  0  0
 93 95  1  0  0  0
 93190  1  0  0  0
 93191  1  0  0  0
 94192  1  0  0  0
 94193  1  0  0  0
 94194  1  0  0  0
 95195  1  0  0  0
 95196  1  0  0  0
 95197  1  0  0  0
 96198  1  0  0  0
M  CHG  2   1   1  87   1
M  END
> <s_m_source_file>
../4erq_ligand.sdf

> <i_m_source_file_index>
1

> <s_epik_input>
W0NIM11bQ0gyXVtDQEhdKFtDSDNdKVtDQEhdKFtOSDMrXSlDKD1PKVtOSF1bQ0BASF0oW0NIMl1DKD1PKVtOSDJdKUMoPU8pTjFbQ0BASF0oW0NIMl1bQ0gyXVtDSDJdMSlDKD1PKVtOSF1bQ0BASF0oW0NASF0oW09IXSlbQ0gzXSlDKD1PKVtOSF1bQ0gyXUMoPU8pW05IXVtDQEBIXShbQ0gyXVtTSF0pQyg9TylbTkhdW0NAQEhdKFtDSDNdKUMoPU8pW05IXVtDQEBIXShbQ0gyXVtDSDJdW0NIMl1bTkhdL0MoPU5cW0hdKVtOSDJdKUMoPU8pW05IXVtDQEBIXShbQ0gyXVtPSF0pQyg9TylbTkhdW0NAQEhdKFtDSDJdW0NIMl1DKD1PKVtPSF0pQyg9TylOMltDQEBIXShbQ0gyXVtDSDJdW0NIMl0yKUMoPU8pW05IXVtDQEBIXShbQ0gyXVtDSDJdW0NIMl1bQ0gyXVtOSDMrXSlDKD1PKVtOSF1bQ0BIXShDKD1PKVtPSF0pW0NAQEhdKFtDSDNdKVtDSDJdW0NIM10=

> <s_epik_cmdline>
J2VwaWtfYXBwJywgJy1pbWFlJywgJ2xpZ2FuZF9wcm8ubWFlJywgJy1vbWFlJywgJ2xpZ2FuZF9wcmVwLm1hZScsICctbXMnLCAnMScsICctcGgnLCAnNycsICctcGh0JywgJzAuNScsICctbnQn

> <s_epik_pKa_notes>
Molecule size exceeds maximum supported for generating protonation states

> <s_epik_Chemistry_Notes>
This compound has an imine and may undergo hydrolysis.

$$$$
