4erw_ligand
                    3D
 Schrodinger Suite 2020-3.
 64 71  0  0  1  0            999 V2000
    0.1090  -10.3950   27.0790 O   0  0  0  0  0  0
   -1.3380  -10.1870   27.2060 C   0  0  2  0  0  0
   -2.1750  -10.5230   25.9560 C   0  0  0  0  0  0
   -1.2570  -10.8750   24.8530 C   0  0  2  0  0  0
   -0.2640   -9.7690   24.7040 C   0  0  2  0  0  0
    0.6950   -9.7820   25.9750 C   0  0  2  0  0  0
    1.8400  -10.7380   25.6710 C   0  0  0  0  0  0
    1.1580   -8.3350   26.1810 N   0  0  0  0  0  0
    0.4020   -7.4870   26.9140 C   0  0  0  0  0  0
   -0.7870   -7.6990   27.5900 C   0  0  0  0  0  0
   -1.4450   -6.6360   28.3290 C   0  0  0  0  0  0
   -0.8150   -5.2830   28.3510 C   0  0  0  0  0  0
    0.3680   -5.0600   27.6660 C   0  0  0  0  0  0
    1.0050   -6.1670   26.9220 C   0  0  0  0  0  0
    2.2510   -6.2780   26.1040 C   0  0  0  0  0  0
    2.3350   -7.6060   25.6510 C   0  0  0  0  0  0
    3.4580   -7.9580   24.8300 C   0  0  0  0  0  0
    4.4300   -7.0170   24.5150 C   0  0  0  0  0  0
    4.3210   -5.6970   24.9760 C   0  0  0  0  0  0
    3.2160   -5.3270   25.7810 C   0  0  0  0  0  0
    0.7190   -3.6710   27.8680 C   0  0  0  0  0  0
   -0.2390   -3.1070   28.6350 N   0  3  0  0  0  0
   -1.1710   -4.0150   28.9650 C   0  0  1  0  0  0
   -2.2740   -3.7760   29.7170 O   0  5  0  0  0  0
   -2.7210   -7.2570   28.9420 C   0  0  0  0  0  0
   -2.7600   -8.6430   28.5390 C   0  0  0  0  0  0
   -3.8310   -9.4880   28.9590 C   0  0  0  0  0  0
   -4.8640   -8.9540   29.7770 C   0  0  0  0  0  0
   -4.8290   -7.5780   30.1710 C   0  0  0  0  0  0
   -3.7500   -6.7330   29.7530 C   0  0  0  0  0  0
   -1.5710   -8.8530   27.7200 N   0  0  0  0  0  0
   -0.9630   -8.5490   24.5810 O   0  0  0  0  0  0
   -0.5720   -7.5750   23.6500 C   0  0  0  0  0  0
   -2.0480  -11.0390   23.6320 N   0  3  0  0  0  0
   -2.6750  -12.3510   23.5940 C   0  0  0  0  0  0
   -1.6754  -10.8939   27.9783 H   0  0  0  0  0  0
   -2.8381  -11.3726   26.1763 H   0  0  0  0  0  0
   -2.7804   -9.6489   25.6742 H   0  0  0  0  0  0
   -0.7329  -11.8222   25.0484 H   0  0  0  0  0  0
    0.2760   -9.8434   23.7485 H   0  0  0  0  0  0
    1.4425  -11.7546   25.5346 H   0  0  0  0  0  0
    2.5541  -10.7327   26.5077 H   0  0  0  0  0  0
    2.3508  -10.4175   24.7510 H   0  0  0  0  0  0
    3.5493   -8.9752   24.4493 H   0  0  0  0  0  0
    5.2849   -7.3071   23.9042 H   0  0  0  0  0  0
    5.0817   -4.9607   24.7165 H   0  0  0  0  0  0
    3.1214   -4.3041   26.1456 H   0  0  0  0  0  0
    1.6950   -3.6090   28.3716 H   0  0  0  0  0  0
    0.7757   -3.1618   26.8946 H   0  0  0  0  0  0
    0.2146   -2.7095   29.5549 H   0  0  0  0  0  0
   -0.7187   -2.2879   28.0792 H   0  0  0  0  0  0
   -0.5909   -4.2853   29.8596 H   0  0  0  0  0  0
   -3.8567  -10.5344   28.6550 H   0  0  0  0  0  0
   -5.6839   -9.5932   30.1047 H   0  0  0  0  0  0
   -5.6271   -7.1712   30.7920 H   0  0  0  0  0  0
   -3.7241   -5.6877   30.0608 H   0  0  0  0  0  0
   -1.2470   -6.7092   23.7197 H   0  0  0  0  0  0
   -0.6207   -7.9971   22.6354 H   0  0  0  0  0  0
    0.4582   -7.2550   23.8650 H   0  0  0  0  0  0
   -2.8336  -10.2698   23.5980 H   0  0  0  0  0  0
   -1.3935  -10.9336   22.7542 H   0  0  0  0  0  0
   -3.2624  -12.4500   22.6693 H   0  0  0  0  0  0
   -3.3384  -12.4657   24.4639 H   0  0  0  0  0  0
   -1.8983  -13.1295   23.6201 H   0  0  0  0  0  0
  1  2  1  0  0  0
  1  6  1  0  0  0
  2  3  1  0  0  0
  2 31  1  0  0  0
  2 36  1  0  0  0
  3  4  1  0  0  0
  3 37  1  0  0  0
  3 38  1  0  0  0
  4  5  1  0  0  0
  4 34  1  0  0  0
  4 39  1  0  0  0
  5  6  1  0  0  0
  5 32  1  0  0  0
  5 40  1  0  0  0
  6  7  1  0  0  0
  6  8  1  0  0  0
  7 41  1  0  0  0
  7 42  1  0  0  0
  7 43  1  0  0  0
  8  9  1  0  0  0
  8 16  1  0  0  0
  9 10  2  0  0  0
  9 14  1  0  0  0
 10 11  1  0  0  0
 10 31  1  0  0  0
 11 12  2  0  0  0
 11 25  1  0  0  0
 12 13  1  0  0  0
 12 23  1  0  0  0
 13 14  2  0  0  0
 13 21  1  0  0  0
 14 15  1  0  0  0
 15 16  2  0  0  0
 15 20  1  0  0  0
 16 17  1  0  0  0
 17 18  2  0  0  0
 17 44  1  0  0  0
 18 19  1  0  0  0
 18 45  1  0  0  0
 19 20  2  0  0  0
 19 46  1  0  0  0
 20 47  1  0  0  0
 21 22  1  0  0  0
 21 48  1  0  0  0
 21 49  1  0  0  0
 22 23  1  0  0  0
 22 50  1  0  0  0
 22 51  1  0  0  0
 23 24  1  0  0  0
 23 52  1  0  0  0
 25 26  2  0  0  0
 25 30  1  0  0  0
 26 27  1  0  0  0
 26 31  1  0  0  0
 27 28  2  0  0  0
 27 53  1  0  0  0
 28 29  1  0  0  0
 28 54  1  0  0  0
 29 30  2  0  0  0
 29 55  1  0  0  0
 30 56  1  0  0  0
 32 33  1  0  0  0
 33 57  1  0  0  0
 33 58  1  0  0  0
 33 59  1  0  0  0
 34 35  1  0  0  0
 34 60  1  0  0  0
 34 61  1  0  0  0
 35 62  1  0  0  0
 35 63  1  0  0  0
 35 64  1  0  0  0
M  CHG  3  22   1  24  -1  34   1
M  END
> <s_m_source_file>
../4erw_ligand.sdf

> <i_m_source_file_index>
1

> <s_epik_input>
W0NIM11PW0NAQEhdMVtDQEhdKFtOSDIrXVtDSDNdKVtDSDJdW0NAQEhdKE8yKW4zYyhbY0hdW2NIXVtjSF1bY0hdNCljNGMoYzNjNW42W0NAXTEyW0NIM10pYzdjKFtDSDJdW05IMitdW0NIXTdbT0hdKWM1YzhjNltjSF1bY0hdW2NIXVtjSF04

> <s_epik_cmdline>
J2VwaWtfYXBwJywgJy1pbWFlJywgJ2xpZ2FuZF9wcm8ubWFlJywgJy1vbWFlJywgJ2xpZ2FuZF9wcmVwLm1hZScsICctbXMnLCAnMScsICctcGgnLCAnNycsICctcGh0JywgJzAuNScsICctbnQn

> <r_lp_tautomer_probability>
1

> <r_epik_Ionization_Penalty>
  0.2291

> <r_epik_Ionization_Penalty_Charging>
  0.2291

> <r_epik_Ionization_Penalty_Neutral>
  0.0000

> <r_epik_State_Penalty>
 -0.0000

> <r_epik_Charging_Adjusted_Penalty>
0.229078532507592

> <i_epik_Tot_Q>
1

> <i_epik_Tot_abs_Q>
3

> <s_epik_Chemistry_Notes>
This compound contains an acetal/aminal-like group ( X-CH(R)-Y where X, Y are N, S, or O) that may be acid/base labile, releasing an aldehyde.

$$$$
