4ery_ligand
                    3D
 Schrodinger Suite 2020-3.
204205  0  0  1  0            999 V2000
   -8.2720  -15.7740  -22.3060 N   0  3  0  0  0  0
   -7.6040  -14.9060  -21.3460 C   0  0  2  0  0  0
   -7.3590  -13.5270  -21.9320 C   0  0  0  0  0  0
   -7.4230  -13.3240  -23.1470 O   0  0  0  0  0  0
   -6.2490  -15.4850  -20.8900 C   0  0  0  0  0  0
   -6.4310  -16.8740  -20.3120 C   0  0  0  0  0  0
   -5.2450  -15.5010  -22.0480 C   0  0  0  0  0  0
   -7.0940  -12.5740  -21.0480 N   0  0  0  0  0  0
   -6.6210  -11.2710  -21.4590 C   0  0  2  0  0  0
   -5.1080  -11.2770  -21.4070 C   0  0  0  0  0  0
   -4.5400  -11.4040  -20.3320 O   0  0  0  0  0  0
   -7.1730  -10.2000  -20.5210 C   0  0  0  0  0  0
   -8.6590  -10.0320  -20.6700 C   0  0  0  0  0  0
   -9.1550   -9.8180  -21.7780 O   0  0  0  0  0  0
   -9.3850  -10.1600  -19.5650 N   0  0  0  0  0  0
   -4.4560  -11.1550  -22.5740 N   0  0  0  0  0  0
   -2.9880  -11.2340  -22.6500 C   0  0  2  0  0  0
   -2.2520  -10.2620  -21.7120 C   0  0  0  0  0  0
   -1.1780  -10.6050  -21.2270 O   0  0  0  0  0  0
   -2.6980  -10.9160  -24.1180 C   0  0  0  0  0  0
   -3.9390  -11.3470  -24.8470 C   0  0  0  0  0  0
   -5.0780  -11.0200  -23.9040 C   0  0  0  0  0  0
   -2.8160   -9.0820  -21.4580 N   0  0  0  0  0  0
   -2.1790   -8.0870  -20.5880 C   0  0  2  0  0  0
   -2.3210   -8.4240  -19.1040 C   0  0  0  0  0  0
   -1.6340   -7.8390  -18.2610 O   0  0  0  0  0  0
   -2.7370   -6.6780  -20.8230 C   0  0  2  0  0  0
   -4.1220   -6.6570  -20.4670 O   0  0  0  0  0  0
   -2.5660   -6.2490  -22.2800 C   0  0  0  0  0  0
   -3.2260   -9.3460  -18.7880 N   0  0  0  0  0  0
   -3.3900   -9.8240  -17.4260 C   0  0  0  0  0  0
   -4.6790   -9.4200  -16.7230 C   0  0  0  0  0  0
   -5.0420  -10.0210  -15.7220 O   0  0  0  0  0  0
   -5.3640   -8.3870  -17.2140 N   0  0  0  0  0  0
   -6.7030   -8.1020  -16.7090 C   0  0  2  0  0  0
   -7.5370   -7.4480  -17.7960 C   0  0  0  0  0  0
   -7.0040   -6.8980  -18.7530 O   0  0  0  0  0  0
   -6.6610   -7.2430  -15.4340 C   0  0  0  0  0  0
   -6.3240   -5.4870  -15.6340 S   0  0  0  0  0  0
   -8.8560   -7.4950  -17.6270 N   0  0  0  0  0  0
   -9.7510   -6.9140  -18.6250 C   0  0  2  0  0  0
   -9.5080   -5.4230  -18.8770 C   0  0  0  0  0  0
   -9.5080   -4.9540  -20.0180 O   0  0  0  0  0  0
  -11.2050   -7.1670  -18.2490 C   0  0  0  0  0  0
   -9.2710   -4.6660  -17.8110 N   0  0  0  0  0  0
   -9.2000   -3.2230  -17.9810 C   0  0  2  0  0  0
   -7.9810   -2.7660  -18.7760 C   0  0  0  0  0  0
   -8.0260   -1.7460  -19.4520 O   0  0  0  0  0  0
   -9.2780   -2.4900  -16.6450 C   0  0  0  0  0  0
   -9.5020   -0.9930  -16.8380 C   0  0  0  0  0  0
   -9.6170   -0.2320  -15.5320 C   0  0  0  0  0  0
  -10.7700   -0.6480  -14.7300 N   0  0  0  0  0  0
  -11.9590   -0.0520  -14.7230 C   0  0  0  0  0  0
  -12.1740    1.0010  -15.4960 N   0  0  0  0  0  0
  -12.9220   -0.5230  -13.9410 N   0  0  0  0  0  0
   -6.8900   -3.5310  -18.7040 N   0  0  0  0  0  0
   -5.6650   -3.1910  -19.4300 C   0  0  2  0  0  0
   -5.6570   -3.7260  -20.8620 C   0  0  0  0  0  0
   -4.7120   -3.4910  -21.6070 O   0  0  0  0  0  0
   -4.4110   -3.6430  -18.6700 C   0  0  0  0  0  0
   -4.4540   -5.0070  -18.3250 O   0  0  0  0  0  0
   -6.7270   -4.4060  -21.2530 N   0  0  0  0  0  0
   -6.8410   -4.9860  -22.5840 C   0  0  2  0  0  0
   -7.5770   -3.9930  -23.4670 C   0  0  0  0  0  0
   -8.6360   -3.4990  -23.0820 O   0  0  0  0  0  0
   -7.6130   -6.3050  -22.4960 C   0  0  0  0  0  0
   -7.3160   -7.2830  -23.6090 C   0  0  0  0  0  0
   -5.8700   -7.7310  -23.6070 C   0  0  0  0  0  0
   -5.2770   -7.7960  -24.7050 O   0  0  0  0  0  0
   -5.3280   -8.0390  -22.5170 O   0  0  0  0  0  0
   -7.0220   -3.6720  -24.6440 N   0  0  0  0  0  0
   -7.7260   -2.7100  -25.4990 C   0  0  2  0  0  0
   -9.0310   -3.3000  -26.0320 C   0  0  0  0  0  0
   -9.0910   -4.5030  -26.2990 O   0  0  0  0  0  0
   -6.7420   -2.4640  -26.6470 C   0  0  0  0  0  0
   -5.8690   -3.6690  -26.6650 C   0  0  0  0  0  0
   -5.7480   -4.1170  -25.2350 C   0  0  0  0  0  0
  -10.0650   -2.4740  -26.1670 N   0  0  0  0  0  0
  -11.3600   -2.9580  -26.6330 C   0  0  2  0  0  0
  -11.2920   -3.3540  -28.1000 C   0  0  0  0  0  0
  -10.6840   -2.6550  -28.9100 O   0  0  0  0  0  0
  -12.4420   -1.8950  -26.4460 C   0  0  0  0  0  0
  -13.8410   -2.3400  -26.8710 C   0  0  0  0  0  0
  -14.8280   -1.1860  -26.8080 C   0  0  0  0  0  0
  -16.2190   -1.6140  -27.2430 C   0  0  0  0  0  0
  -16.2040   -2.1510  -28.6370 N   0  3  0  0  0  0
  -11.9100   -4.4830  -28.4270 N   0  0  0  0  0  0
  -12.0240   -4.9200  -29.8120 C   0  0  2  0  0  0
  -13.1640   -4.1950  -30.5180 C   0  0  0  0  0  0
  -14.1400   -3.7880  -29.8780 O   0  0  0  0  0  0
  -12.2600   -6.4290  -29.8720 C   0  0  0  0  0  0
  -11.1590   -7.2410  -29.2190 C   0  0  0  0  0  0
   -9.5280   -6.7440  -29.8020 S   0  0  0  0  0  0
   -9.6730   -7.1160  -31.5460 C   0  0  0  0  0  0
  -13.0380   -4.0410  -31.8370 N   0  0  0  0  0  0
  -14.0620   -3.3750  -32.6470 C   0  0  2  0  0  0
  -15.4280   -4.0420  -32.5180 C   0  0  0  0  0  0
  -16.4530   -3.3650  -32.4340 O   0  0  0  0  0  0
  -13.6390   -3.3320  -34.1220 C   0  0  0  0  0  0
  -14.6000   -2.6480  -34.9080 O   0  0  0  0  0  0
  -15.5081   -5.2993  -32.4972 O   0  0  0  0  0  0
   -9.2307  -15.3234  -22.6025 H   0  0  0  0  0  0
   -8.4552  -16.7565  -21.8465 H   0  0  0  0  0  0
   -7.6347  -15.8976  -23.1940 H   0  0  0  0  0  0
   -8.3181  -14.8539  -20.5109 H   0  0  0  0  0  0
   -5.8385  -14.8488  -20.0921 H   0  0  0  0  0  0
   -7.1547  -16.8349  -19.4846 H   0  0  0  0  0  0
   -5.4654  -17.2447  -19.9374 H   0  0  0  0  0  0
   -6.8049  -17.5506  -21.0945 H   0  0  0  0  0  0
   -5.1313  -14.4829  -22.4488 H   0  0  0  0  0  0
   -5.6113  -16.1688  -22.8417 H   0  0  0  0  0  0
   -4.2718  -15.8628  -21.6846 H   0  0  0  0  0  0
   -7.2420  -12.7938  -19.9804 H   0  0  0  0  0  0
   -6.9783  -11.0968  -22.4847 H   0  0  0  0  0  0
   -6.9622  -10.4815  -19.4787 H   0  0  0  0  0  0
   -6.6944   -9.2351  -20.7442 H   0  0  0  0  0  0
   -8.8905  -10.3506  -18.6011 H   0  0  0  0  0  0
  -10.4807  -10.0754  -19.6139 H   0  0  0  0  0  0
   -2.6657  -12.2323  -22.3189 H   0  0  0  0  0  0
   -2.5097   -9.8380  -24.2294 H   0  0  0  0  0  0
   -1.8120  -11.4788  -24.4470 H   0  0  0  0  0  0
   -4.0209  -10.7904  -25.7923 H   0  0  0  0  0  0
   -3.8836  -12.4248  -25.0597 H   0  0  0  0  0  0
   -5.9154  -11.7280  -23.9907 H   0  0  0  0  0  0
   -5.4513   -9.9932  -24.0317 H   0  0  0  0  0  0
   -3.7887   -8.8638  -21.9229 H   0  0  0  0  0  0
   -1.1223   -8.1479  -20.8875 H   0  0  0  0  0  0
   -2.2390   -5.9500  -20.1656 H   0  0  0  0  0  0
   -4.4328   -6.9385  -19.4501 H   0  0  0  0  0  0
   -1.4986   -6.2681  -22.5450 H   0  0  0  0  0  0
   -2.9581   -5.2296  -22.4105 H   0  0  0  0  0  0
   -3.1183   -6.9407  -22.9331 H   0  0  0  0  0  0
   -3.8602   -9.7477  -19.5920 H   0  0  0  0  0  0
   -3.3720  -10.9238  -17.4188 H   0  0  0  0  0  0
   -2.5702   -9.4398  -16.8013 H   0  0  0  0  0  0
   -4.9242   -7.7508  -17.9962 H   0  0  0  0  0  0
   -7.1386   -9.0800  -16.4565 H   0  0  0  0  0  0
   -7.6332   -7.2983  -14.9224 H   0  0  0  0  0  0
   -5.8727   -7.6183  -14.7648 H   0  0  0  0  0  0
   -6.2837   -4.8308  -14.7521 H   0  0  0  0  0  0
   -9.2715   -7.9752  -16.7288 H   0  0  0  0  0  0
   -9.4912   -7.4541  -19.5474 H   0  0  0  0  0  0
  -11.3564   -8.2422  -18.0729 H   0  0  0  0  0  0
  -11.8589   -6.8340  -19.0685 H   0  0  0  0  0  0
  -11.4498   -6.6075  -17.3341 H   0  0  0  0  0  0
   -9.1296   -5.1100  -16.8146 H   0  0  0  0  0  0
  -10.0989   -3.0105  -18.5783 H   0  0  0  0  0  0
  -10.1138   -2.8928  -16.0541 H   0  0  0  0  0  0
   -8.3370   -2.6320  -16.0934 H   0  0  0  0  0  0
   -8.6575   -0.5651  -17.3980 H   0  0  0  0  0  0
  -10.4339   -0.8311  -17.3995 H   0  0  0  0  0  0
   -8.7119   -0.3988  -14.9295 H   0  0  0  0  0  0
   -9.7248    0.8424  -15.7419 H   0  0  0  0  0  0
  -10.6911   -1.5202  -14.0643 H   0  0  0  0  0  0
  -11.3690    1.3836  -16.1406 H   0  0  0  0  0  0
  -12.7331   -1.3985  -13.3024 H   0  0  0  0  0  0
  -13.9092   -0.0379  -13.9313 H   0  0  0  0  0  0
   -6.9263   -4.4362  -18.0801 H   0  0  0  0  0  0
   -5.6956   -2.0923  -19.4747 H   0  0  0  0  0  0
   -3.5229   -3.4798  -19.2981 H   0  0  0  0  0  0
   -4.3153   -3.0611  -17.7414 H   0  0  0  0  0  0
   -3.6164   -5.4622  -17.7761 H   0  0  0  0  0  0
   -7.5470   -4.5243  -20.5294 H   0  0  0  0  0  0
   -5.8288   -5.1704  -22.9732 H   0  0  0  0  0  0
   -7.3661   -6.8120  -21.5516 H   0  0  0  0  0  0
   -8.6933   -6.1006  -22.5309 H   0  0  0  0  0  0
   -7.9497   -8.1745  -23.4925 H   0  0  0  0  0  0
   -7.5251   -6.8088  -24.5793 H   0  0  0  0  0  0
   -4.2781   -8.3665  -22.4980 H   0  0  0  0  0  0
   -7.9906   -1.8076  -24.9283 H   0  0  0  0  0  0
   -7.2986   -2.3500  -27.5889 H   0  0  0  0  0  0
   -6.1674   -1.5475  -26.4474 H   0  0  0  0  0  0
   -6.3330   -4.4486  -27.2870 H   0  0  0  0  0  0
   -4.8863   -3.4037  -27.0821 H   0  0  0  0  0  0
   -4.9113   -3.6345  -24.7086 H   0  0  0  0  0  0
   -5.6608   -5.2093  -25.1386 H   0  0  0  0  0  0
   -9.9316   -1.4103  -25.9207 H   0  0  0  0  0  0
  -11.5750   -3.8388  -26.0101 H   0  0  0  0  0  0
  -12.5020   -1.6159  -25.3837 H   0  0  0  0  0  0
  -12.1911   -1.0070  -27.0448 H   0  0  0  0  0  0
  -13.8078   -2.7172  -27.9038 H   0  0  0  0  0  0
  -14.1914   -3.1383  -26.2002 H   0  0  0  0  0  0
  -14.8877   -0.8105  -25.7758 H   0  0  0  0  0  0
  -14.4901   -0.3777  -27.4732 H   0  0  0  0  0  0
  -16.5892   -2.3990  -26.5672 H   0  0  0  0  0  0
  -16.8972   -0.7487  -27.2062 H   0  0  0  0  0  0
  -17.2220   -2.4524  -28.9248 H   0  0  0  0  0  0
  -15.5355   -3.0231  -28.6868 H   0  0  0  0  0  0
  -15.8434   -1.3728  -29.3258 H   0  0  0  0  0  0
  -12.3420   -5.0935  -27.6203 H   0  0  0  0  0  0
  -11.0652   -4.6564  -30.2823 H   0  0  0  0  0  0
  -13.1997   -6.6740  -29.3553 H   0  0  0  0  0  0
  -12.3251   -6.7485  -30.9226 H   0  0  0  0  0  0
  -11.1952   -7.0979  -28.1289 H   0  0  0  0  0  0
  -11.3005   -8.3063  -29.4538 H   0  0  0  0  0  0
   -8.7318   -6.8607  -32.0548 H   0  0  0  0  0  0
  -10.4954   -6.5277  -31.9792 H   0  0  0  0  0  0
   -9.8810   -8.1883  -31.6761 H   0  0  0  0  0  0
  -12.1282   -4.4336  -32.3147 H   0  0  0  0  0  0
  -14.1257   -2.3609  -32.2256 H   0  0  0  0  0  0
  -12.6748   -2.8102  -34.2119 H   0  0  0  0  0  0
  -13.5375   -4.3584  -34.5044 H   0  0  0  0  0  0
  -14.4427   -2.5311  -35.9904 H   0  0  0  0  0  0
  -16.4900   -5.7864  -32.4044 H   0  0  0  0  0  0
  1  2  1  0  0  0
  1102  1  0  0  0
  1103  1  0  0  0
  1104  1  0  0  0
  2  3  1  0  0  0
  2  5  1  0  0  0
  2105  1  0  0  0
  3  4  2  0  0  0
  3  8  1  0  0  0
  5  6  1  0  0  0
  5  7  1  0  0  0
  5106  1  0  0  0
  6107  1  0  0  0
  6108  1  0  0  0
  6109  1  0  0  0
  7110  1  0  0  0
  7111  1  0  0  0
  7112  1  0  0  0
  8  9  1  0  0  0
  8113  1  0  0  0
  9 10  1  0  0  0
  9 12  1  0  0  0
  9114  1  0  0  0
 10 11  2  0  0  0
 10 16  1  0  0  0
 12 13  1  0  0  0
 12115  1  0  0  0
 12116  1  0  0  0
 13 14  2  0  0  0
 13 15  1  0  0  0
 15117  1  0  0  0
 15118  1  0  0  0
 16 17  1  0  0  0
 16 22  1  0  0  0
 17 18  1  0  0  0
 17 20  1  0  0  0
 17119  1  0  0  0
 18 19  2  0  0  0
 18 23  1  0  0  0
 20 21  1  0  0  0
 20120  1  0  0  0
 20121  1  0  0  0
 21 22  1  0  0  0
 21122  1  0  0  0
 21123  1  0  0  0
 22124  1  0  0  0
 22125  1  0  0  0
 23 24  1  0  0  0
 23126  1  0  0  0
 24 25  1  0  0  0
 24 27  1  0  0  0
 24127  1  0  0  0
 25 26  2  0  0  0
 25 30  1  0  0  0
 27 28  1  0  0  0
 27 29  1  0  0  0
 27128  1  0  0  0
 28129  1  0  0  0
 29130  1  0  0  0
 29131  1  0  0  0
 29132  1  0  0  0
 30 31  1  0  0  0
 30133  1  0  0  0
 31 32  1  0  0  0
 31134  1  0  0  0
 31135  1  0  0  0
 32 33  2  0  0  0
 32 34  1  0  0  0
 34 35  1  0  0  0
 34136  1  0  0  0
 35 36  1  0  0  0
 35 38  1  0  0  0
 35137  1  0  0  0
 36 37  2  0  0  0
 36 40  1  0  0  0
 38 39  1  0  0  0
 38138  1  0  0  0
 38139  1  0  0  0
 39140  1  0  0  0
 40 41  1  0  0  0
 40141  1  0  0  0
 41 42  1  0  0  0
 41 44  1  0  0  0
 41142  1  0  0  0
 42 43  2  0  0  0
 42 45  1  0  0  0
 44143  1  0  0  0
 44144  1  0  0  0
 44145  1  0  0  0
 45 46  1  0  0  0
 45146  1  0  0  0
 46 47  1  0  0  0
 46 49  1  0  0  0
 46147  1  0  0  0
 47 48  2  0  0  0
 47 56  1  0  0  0
 49 50  1  0  0  0
 49148  1  0  0  0
 49149  1  0  0  0
 50 51  1  0  0  0
 50150  1  0  0  0
 50151  1  0  0  0
 51 52  1  0  0  0
 51152  1  0  0  0
 51153  1  0  0  0
 52 53  1  0  0  0
 52154  1  0  0  0
 53 54  2  0  0  0
 53 55  1  0  0  0
 54155  1  0  0  0
 55156  1  0  0  0
 55157  1  0  0  0
 56 57  1  0  0  0
 56158  1  0  0  0
 57 58  1  0  0  0
 57 60  1  0  0  0
 57159  1  0  0  0
 58 59  2  0  0  0
 58 62  1  0  0  0
 60 61  1  0  0  0
 60160  1  0  0  0
 60161  1  0  0  0
 61162  1  0  0  0
 62 63  1  0  0  0
 62163  1  0  0  0
 63 64  1  0  0  0
 63 66  1  0  0  0
 63164  1  0  0  0
 64 65  2  0  0  0
 64 71  1  0  0  0
 66 67  1  0  0  0
 66165  1  0  0  0
 66166  1  0  0  0
 67 68  1  0  0  0
 67167  1  0  0  0
 67168  1  0  0  0
 68 69  2  0  0  0
 68 70  1  0  0  0
 70169  1  0  0  0
 71 72  1  0  0  0
 71 77  1  0  0  0
 72 73  1  0  0  0
 72 75  1  0  0  0
 72170  1  0  0  0
 73 74  2  0  0  0
 73 78  1  0  0  0
 75 76  1  0  0  0
 75171  1  0  0  0
 75172  1  0  0  0
 76 77  1  0  0  0
 76173  1  0  0  0
 76174  1  0  0  0
 77175  1  0  0  0
 77176  1  0  0  0
 78 79  1  0  0  0
 78177  1  0  0  0
 79 80  1  0  0  0
 79 82  1  0  0  0
 79178  1  0  0  0
 80 81  2  0  0  0
 80 87  1  0  0  0
 82 83  1  0  0  0
 82179  1  0  0  0
 82180  1  0  0  0
 83 84  1  0  0  0
 83181  1  0  0  0
 83182  1  0  0  0
 84 85  1  0  0  0
 84183  1  0  0  0
 84184  1  0  0  0
 85 86  1  0  0  0
 85185  1  0  0  0
 85186  1  0  0  0
 86187  1  0  0  0
 86188  1  0  0  0
 86189  1  0  0  0
 87 88  1  0  0  0
 87190  1  0  0  0
 88 89  1  0  0  0
 88 91  1  0  0  0
 88191  1  0  0  0
 89 90  2  0  0  0
 89 95  1  0  0  0
 91 92  1  0  0  0
 91192  1  0  0  0
 91193  1  0  0  0
 92 93  1  0  0  0
 92194  1  0  0  0
 92195  1  0  0  0
 93 94  1  0  0  0
 94196  1  0  0  0
 94197  1  0  0  0
 94198  1  0  0  0
 95 96  1  0  0  0
 95199  1  0  0  0
 96 97  1  0  0  0
 96 99  1  0  0  0
 96200  1  0  0  0
 97 98  2  0  0  0
 97101  1  0  0  0
 99100  1  0  0  0
 99201  1  0  0  0
 99202  1  0  0  0
100203  1  0  0  0
101204  1  0  0  0
M  CHG  2   1   1  86   1
M  END
> <s_m_source_file>
../4ery_ligand.sdf

> <i_m_source_file_index>
1

> <s_epik_input>
W0NIM11bQ0hdKFtDSDNdKVtDQEhdKFtOSDMrXSlDKD1PKVtOSF1bQ0BASF0oW0NIMl1DKD1PKVtOSDJdKUMoPU8pTjFbQ0BASF0oW0NIMl1bQ0gyXVtDSDJdMSlDKD1PKVtOSF1bQ0BASF0oW0NASF0oW09IXSlbQ0gzXSlDKD1PKVtOSF1bQ0gyXUMoPU8pW05IXVtDQEBIXShbQ0gyXVtTSF0pQyg9TylbTkhdW0NAQEhdKFtDSDNdKUMoPU8pW05IXVtDQEBIXShbQ0gyXVtDSDJdW0NIMl1bTkhdL0MoPU5cW0hdKVtOSDJdKUMoPU8pW05IXVtDQEBIXShbQ0gyXVtPSF0pQyg9TylbTkhdW0NAQEhdKFtDSDJdW0NIMl1DKD1PKVtPSF0pQyg9TylOMltDQEBIXShbQ0gyXVtDSDJdW0NIMl0yKUMoPU8pW05IXVtDQEBIXShbQ0gyXVtDSDJdW0NIMl1bQ0gyXVtOSDMrXSlDKD1PKVtOSF1bQ0BASF0oW0NIMl1bQ0gyXVNbQ0gzXSlDKD1PKVtOSF1bQ0BIXShDKD1PKVtPSF0pW0NIMl1bT0hd

> <s_epik_cmdline>
J2VwaWtfYXBwJywgJy1pbWFlJywgJ2xpZ2FuZF9wcm8ubWFlJywgJy1vbWFlJywgJ2xpZ2FuZF9wcmVwLm1hZScsICctbXMnLCAnMScsICctcGgnLCAnNycsICctcGh0JywgJzAuNScsICctbnQn

> <s_epik_pKa_notes>
Molecule size exceeds maximum supported for generating protonation states

> <s_epik_Chemistry_Notes>
This compound has an imine and may undergo hydrolysis.

$$$$
