4erz_ligand
                    3D
 Schrodinger Suite 2020-3.
171173  0  0  1  0            999 V2000
   40.9970  -18.9920   33.0080 N   0  3  0  0  0  0
   41.9540  -17.9000   33.1780 C   0  0  2  0  0  0
   41.8790  -16.9000   32.0240 C   0  0  0  0  0  0
   42.3080  -17.1950   30.9080 O   0  0  0  0  0  0
   43.3630  -18.4480   33.3100 C   0  0  0  0  0  0
   41.3420  -15.7140   32.2980 N   0  0  0  0  0  0
   41.1870  -14.6910   31.2680 C   0  0  2  0  0  0
   42.5060  -14.0010   30.9290 C   0  0  0  0  0  0
   43.1660  -13.4560   31.8110 O   0  0  0  0  0  0
   40.1420  -13.6570   31.7030 C   0  0  0  0  0  0
   38.7180  -14.1820   31.5930 C   0  0  0  0  0  0
   38.3150  -14.7100   30.5510 O   0  0  0  0  0  0
   37.9540  -14.0510   32.6720 N   0  0  0  0  0  0
   42.8860  -14.0200   29.6390 N   0  0  0  0  0  0
   44.1650  -13.4960   29.1440 C   0  0  2  0  0  0
   44.3830  -12.0330   29.4950 C   0  0  0  0  0  0
   45.5230  -11.6330   29.7490 O   0  0  0  0  0  0
   44.0320  -13.6350   27.6270 C   0  0  0  0  0  0
   43.0460  -14.7150   27.4320 C   0  0  0  0  0  0
   42.0740  -14.5990   28.5550 C   0  0  0  0  0  0
   43.3090  -11.2480   29.4990 N   0  0  0  0  0  0
   43.4090   -9.8290   29.8090 C   0  0  2  0  0  0
   43.1290   -9.5160   31.2710 C   0  0  0  0  0  0
   43.0480   -8.3450   31.6480 O   0  0  0  0  0  0
   42.4790   -9.0150   28.9070 C   0  0  0  0  0  0
   42.7890   -9.1590   27.4550 C   0  0  0  0  0  0
   42.2210  -10.1350   26.6660 N   0  0  0  0  0  0
   43.6290   -8.4640   26.6520 C   0  0  0  0  0  0
   42.6900  -10.0290   25.4350 C   0  0  0  0  0  0
   43.5430   -9.0210   25.4010 N   0  0  0  0  0  0
   42.9730  -10.5610   32.0840 N   0  0  0  0  0  0
   42.9170  -10.4010   33.5260 C   0  0  0  0  0  0
   41.5410  -10.3310   34.1710 C   0  0  0  0  0  0
   41.4060  -10.6070   35.3600 O   0  0  0  0  0  0
   40.5230   -9.9490   33.4080 N   0  0  0  0  0  0
   39.1750   -9.8280   33.9720 C   0  0  2  0  0  0
   38.1320  -10.0750   32.9050 C   0  0  0  0  0  0
   38.3160   -9.6840   31.7630 O   0  0  0  0  0  0
   38.9740   -8.4440   34.5880 C   0  0  0  0  0  0
   37.0250  -10.7000   33.2900 N   0  0  0  0  0  0
   35.9770  -11.0560   32.3410 C   0  0  2  0  0  0
   35.4680   -9.8770   31.5090 C   0  0  0  0  0  0
   35.2290  -10.0120   30.3030 O   0  0  0  0  0  0
   34.8220  -11.7450   33.0620 C   0  0  0  0  0  0
   35.2840   -8.7200   32.1380 N   0  0  0  0  0  0
   34.7610   -7.5830   31.3870 C   0  0  2  0  0  0
   35.7460   -7.1280   30.3000 C   0  0  0  0  0  0
   35.3420   -6.5160   29.3220 O   0  0  0  0  0  0
   34.3590   -6.4250   32.3110 C   0  0  0  0  0  0
   33.5340   -5.3670   31.5770 C   0  0  0  0  0  0
   33.1510   -4.2250   32.4860 C   0  0  0  0  0  0
   32.2970   -4.6660   33.5810 N   0  0  0  0  0  0
   30.9690   -4.6400   33.5450 C   0  0  0  0  0  0
   30.3470   -4.2000   32.4620 N   0  0  0  0  0  0
   30.2630   -5.0520   34.5950 N   0  0  0  0  0  0
   37.0260   -7.4670   30.4570 N   0  0  0  0  0  0
   38.0550   -7.0500   29.5050 C   0  0  2  0  0  0
   38.2000   -8.0200   28.3280 C   0  0  0  0  0  0
   39.0850   -7.8500   27.4870 O   0  0  0  0  0  0
   39.3890   -6.8530   30.2110 C   0  0  0  0  0  0
   37.3230   -9.0200   28.2650 N   0  0  0  0  0  0
   37.3560  -10.0080   27.1830 C   0  0  2  0  0  0
   36.1080   -9.9300   26.3170 C   0  0  0  0  0  0
   35.0670   -9.4550   26.7600 O   0  0  0  0  0  0
   37.4220  -11.4280   27.7520 C   0  0  0  0  0  0
   38.4080  -11.6310   28.8870 C   0  0  0  0  0  0
   39.8530  -11.5820   28.4340 C   0  0  0  0  0  0
   40.1090  -11.4840   27.2070 O   0  0  0  0  0  0
   40.7370  -11.6510   29.3160 O   0  0  0  0  0  0
   36.2130  -10.4230   25.0850 N   0  0  0  0  0  0
   35.0300  -10.6640   24.2600 C   0  0  2  0  0  0
   34.4230  -12.0010   24.6770 C   0  0  0  0  0  0
   35.1400  -12.8750   25.1670 O   0  0  0  0  0  0
   35.3920  -10.6740   22.7790 C   0  0  0  0  0  0
   36.0290   -9.3610   22.4160 C   0  0  0  0  0  0
   36.3660  -11.8020   22.4740 C   0  0  0  0  0  0
   33.1110  -12.1670   24.5110 N   0  0  0  0  0  0
   32.4560  -13.4190   24.9200 C   0  0  2  0  0  0
   32.0340  -14.2920   23.7300 C   0  0  0  0  0  0
   31.0160  -14.0390   23.0860 O   0  0  0  0  0  0
   31.2670  -13.1430   25.8570 C   0  0  0  0  0  0
   30.4760  -14.3780   26.2570 C   0  0  0  0  0  0
   31.0520  -15.3810   27.0280 C   0  0  0  0  0  0
   29.1510  -14.5300   25.8680 C   0  0  0  0  0  0
   30.3310  -16.5070   27.3900 C   0  0  0  0  0  0
   28.4210  -15.6470   26.2280 C   0  0  0  0  0  0
   29.0160  -16.6320   26.9860 C   0  0  0  0  0  0
   28.2850  -17.7460   27.3370 O   0  0  0  0  0  0
   32.7412  -15.2836   23.4072 O   0  0  0  0  0  0
   39.9820  -18.5787   32.9139 H   0  0  0  0  0  0
   41.0420  -19.6584   33.8820 H   0  0  0  0  0  0
   41.2470  -19.5606   32.1001 H   0  0  0  0  0  0
   41.6587  -17.3988   34.1116 H   0  0  0  0  0  0
   43.4009  -19.1651   34.1433 H   0  0  0  0  0  0
   44.0612  -17.6209   33.5059 H   0  0  0  0  0  0
   43.6481  -18.9552   32.3765 H   0  0  0  0  0  0
   41.0115  -15.5124   33.3276 H   0  0  0  0  0  0
   40.8485  -15.2441   30.3795 H   0  0  0  0  0  0
   40.3183  -13.3765   32.7519 H   0  0  0  0  0  0
   40.2227  -12.7638   31.0660 H   0  0  0  0  0  0
   38.3576  -13.5735   33.5770 H   0  0  0  0  0  0
   36.9178  -14.4200   32.6603 H   0  0  0  0  0  0
   44.9930  -14.0508   29.6093 H   0  0  0  0  0  0
   43.6831  -12.6828   27.2008 H   0  0  0  0  0  0
   45.0102  -13.8934   27.1953 H   0  0  0  0  0  0
   42.5459  -14.5840   26.4610 H   0  0  0  0  0  0
   43.5590  -15.6879   27.4519 H   0  0  0  0  0  0
   41.6787  -15.5747   28.8740 H   0  0  0  0  0  0
   41.2380  -13.9231   28.3220 H   0  0  0  0  0  0
   42.3308  -11.6915   29.2617 H   0  0  0  0  0  0
   44.4645   -9.5937   29.6076 H   0  0  0  0  0  0
   41.4406   -9.3450   29.0579 H   0  0  0  0  0  0
   42.5650   -7.9478   29.1594 H   0  0  0  0  0  0
   44.3000   -7.6105   26.8291 H   0  0  0  0  0  0
   42.4192  -10.6646   24.5919 H   0  0  0  0  0  0
   42.8859  -11.5627   31.6380 H   0  0  0  0  0  0
   43.4221  -11.2505   34.0090 H   0  0  0  0  0  0
   43.4200   -9.4651   33.8109 H   0  0  0  0  0  0
   40.6971   -9.7228   32.3457 H   0  0  0  0  0  0
   39.0956  -10.6042   34.7474 H   0  0  0  0  0  0
   39.7363   -8.2731   35.3624 H   0  0  0  0  0  0
   37.9728   -8.3857   35.0399 H   0  0  0  0  0  0
   39.0682   -7.6770   33.8051 H   0  0  0  0  0  0
   36.9100  -10.9489   34.3553 H   0  0  0  0  0  0
   36.4824  -11.7501   31.6534 H   0  0  0  0  0  0
   35.2094  -12.5879   33.6531 H   0  0  0  0  0  0
   34.0982  -12.1178   32.3223 H   0  0  0  0  0  0
   34.3258  -11.0259   33.7304 H   0  0  0  0  0  0
   35.5192   -8.6117   33.2071 H   0  0  0  0  0  0
   33.8531   -7.9738   30.9043 H   0  0  0  0  0  0
   33.7558   -6.8136   33.1447 H   0  0  0  0  0  0
   35.2638   -5.9411   32.7074 H   0  0  0  0  0  0
   34.1206   -4.9603   30.7400 H   0  0  0  0  0  0
   32.6116   -5.8247   31.1901 H   0  0  0  0  0  0
   34.0595   -3.7780   32.9159 H   0  0  0  0  0  0
   32.6058   -3.4638   31.9087 H   0  0  0  0  0  0
   32.7464   -5.0496   34.5088 H   0  0  0  0  0  0
   30.9296   -3.8592   31.5934 H   0  0  0  0  0  0
   30.7786   -5.4177   35.4952 H   0  0  0  0  0  0
   29.1638   -5.0269   34.5628 H   0  0  0  0  0  0
   37.2997   -8.0767   31.3307 H   0  0  0  0  0  0
   37.6911   -6.0876   29.1160 H   0  0  0  0  0  0
   39.2598   -6.1541   31.0506 H   0  0  0  0  0  0
   40.1222   -6.4421   29.5014 H   0  0  0  0  0  0
   39.7490   -7.8204   30.5912 H   0  0  0  0  0  0
   36.5594   -9.0931   29.0534 H   0  0  0  0  0  0
   38.2535   -9.7465   26.6032 H   0  0  0  0  0  0
   36.4344  -11.7121   28.1442 H   0  0  0  0  0  0
   37.7159  -12.1285   26.9565 H   0  0  0  0  0  0
   38.2677  -10.8416   29.6401 H   0  0  0  0  0  0
   38.2369  -12.6140   29.3500 H   0  0  0  0  0  0
   41.1536  -11.4474   26.8643 H   0  0  0  0  0  0
   37.2144  -10.6498   24.6902 H   0  0  0  0  0  0
   34.3280   -9.8362   24.4389 H   0  0  0  0  0  0
   34.4779  -10.8167   22.1840 H   0  0  0  0  0  0
   35.3290   -8.5411   22.6345 H   0  0  0  0  0  0
   36.2754   -9.3570   21.3440 H   0  0  0  0  0  0
   36.9485   -9.2246   23.0041 H   0  0  0  0  0  0
   35.9054  -12.7655   22.7376 H   0  0  0  0  0  0
   37.2850  -11.6619   23.0620 H   0  0  0  0  0  0
   36.6119  -11.7943   21.4019 H   0  0  0  0  0  0
   32.5173  -11.3564   24.0633 H   0  0  0  0  0  0
   33.2439  -13.9589   25.4656 H   0  0  0  0  0  0
   31.6323  -12.6834   26.7872 H   0  0  0  0  0  0
   30.5615  -12.4590   25.3625 H   0  0  0  0  0  0
   32.0875  -15.2798   27.3529 H   0  0  0  0  0  0
   28.6779  -13.7532   25.2672 H   0  0  0  0  0  0
   30.7979  -17.2887   27.9893 H   0  0  0  0  0  0
   27.3819  -15.7481   25.9145 H   0  0  0  0  0  0
   28.7481  -18.5396   27.9418 H   0  0  0  0  0  0
   32.4470  -15.9152   22.5560 H   0  0  0  0  0  0
  1  2  1  0  0  0
  1 90  1  0  0  0
  1 91  1  0  0  0
  1 92  1  0  0  0
  2  3  1  0  0  0
  2  5  1  0  0  0
  2 93  1  0  0  0
  3  4  2  0  0  0
  3  6  1  0  0  0
  5 94  1  0  0  0
  5 95  1  0  0  0
  5 96  1  0  0  0
  6  7  1  0  0  0
  6 97  1  0  0  0
  7  8  1  0  0  0
  7 10  1  0  0  0
  7 98  1  0  0  0
  8  9  2  0  0  0
  8 14  1  0  0  0
 10 11  1  0  0  0
 10 99  1  0  0  0
 10100  1  0  0  0
 11 12  2  0  0  0
 11 13  1  0  0  0
 13101  1  0  0  0
 13102  1  0  0  0
 14 15  1  0  0  0
 14 20  1  0  0  0
 15 16  1  0  0  0
 15 18  1  0  0  0
 15103  1  0  0  0
 16 17  2  0  0  0
 16 21  1  0  0  0
 18 19  1  0  0  0
 18104  1  0  0  0
 18105  1  0  0  0
 19 20  1  0  0  0
 19106  1  0  0  0
 19107  1  0  0  0
 20108  1  0  0  0
 20109  1  0  0  0
 21 22  1  0  0  0
 21110  1  0  0  0
 22 23  1  0  0  0
 22 25  1  0  0  0
 22111  1  0  0  0
 23 24  2  0  0  0
 23 31  1  0  0  0
 25 26  1  0  0  0
 25112  1  0  0  0
 25113  1  0  0  0
 26 27  2  0  0  0
 26 28  1  0  0  0
 27 29  1  0  0  0
 28 30  2  0  0  0
 28114  1  0  0  0
 29 30  1  0  0  0
 29115  1  0  0  0
 31 32  1  0  0  0
 31116  1  0  0  0
 32 33  1  0  0  0
 32117  1  0  0  0
 32118  1  0  0  0
 33 34  2  0  0  0
 33 35  1  0  0  0
 35 36  1  0  0  0
 35119  1  0  0  0
 36 37  1  0  0  0
 36 39  1  0  0  0
 36120  1  0  0  0
 37 38  2  0  0  0
 37 40  1  0  0  0
 39121  1  0  0  0
 39122  1  0  0  0
 39123  1  0  0  0
 40 41  1  0  0  0
 40124  1  0  0  0
 41 42  1  0  0  0
 41 44  1  0  0  0
 41125  1  0  0  0
 42 43  2  0  0  0
 42 45  1  0  0  0
 44126  1  0  0  0
 44127  1  0  0  0
 44128  1  0  0  0
 45 46  1  0  0  0
 45129  1  0  0  0
 46 47  1  0  0  0
 46 49  1  0  0  0
 46130  1  0  0  0
 47 48  2  0  0  0
 47 56  1  0  0  0
 49 50  1  0  0  0
 49131  1  0  0  0
 49132  1  0  0  0
 50 51  1  0  0  0
 50133  1  0  0  0
 50134  1  0  0  0
 51 52  1  0  0  0
 51135  1  0  0  0
 51136  1  0  0  0
 52 53  1  0  0  0
 52137  1  0  0  0
 53 54  2  0  0  0
 53 55  1  0  0  0
 54138  1  0  0  0
 55139  1  0  0  0
 55140  1  0  0  0
 56 57  1  0  0  0
 56141  1  0  0  0
 57 58  1  0  0  0
 57 60  1  0  0  0
 57142  1  0  0  0
 58 59  2  0  0  0
 58 61  1  0  0  0
 60143  1  0  0  0
 60144  1  0  0  0
 60145  1  0  0  0
 61 62  1  0  0  0
 61146  1  0  0  0
 62 63  1  0  0  0
 62 65  1  0  0  0
 62147  1  0  0  0
 63 64  2  0  0  0
 63 70  1  0  0  0
 65 66  1  0  0  0
 65148  1  0  0  0
 65149  1  0  0  0
 66 67  1  0  0  0
 66150  1  0  0  0
 66151  1  0  0  0
 67 68  1  0  0  0
 67 69  2  0  0  0
 68152  1  0  0  0
 70 71  1  0  0  0
 70153  1  0  0  0
 71 72  1  0  0  0
 71 74  1  0  0  0
 71154  1  0  0  0
 72 73  2  0  0  0
 72 77  1  0  0  0
 74 75  1  0  0  0
 74 76  1  0  0  0
 74155  1  0  0  0
 75156  1  0  0  0
 75157  1  0  0  0
 75158  1  0  0  0
 76159  1  0  0  0
 76160  1  0  0  0
 76161  1  0  0  0
 77 78  1  0  0  0
 77162  1  0  0  0
 78 79  1  0  0  0
 78 81  1  0  0  0
 78163  1  0  0  0
 79 80  2  0  0  0
 79 89  1  0  0  0
 81 82  1  0  0  0
 81164  1  0  0  0
 81165  1  0  0  0
 82 83  2  0  0  0
 82 84  1  0  0  0
 83 85  1  0  0  0
 83166  1  0  0  0
 84 86  2  0  0  0
 84167  1  0  0  0
 85 87  2  0  0  0
 85168  1  0  0  0
 86 87  1  0  0  0
 86169  1  0  0  0
 87 88  1  0  0  0
 88170  1  0  0  0
 89171  1  0  0  0
M  CHG  1   1   1
M  END
> <s_m_source_file>
../4erz_ligand.sdf

> <i_m_source_file_index>
1

> <s_epik_input>
W05IMytdW0NAQEhdKFtDSDNdKUMoPU8pW05IXVtDQEBIXShbQ0gyXUMoPU8pW05IMl0pQyg9TylOMVtDQEBIXShbQ0gyXVtDSDJdW0NIMl0xKUMoPU8pW05IXVtDQEBIXShbQ0gyXUMyPU5bQ0gyXU49W0NIXTIpQyg9TylbTkhdW0NIMl1DKD1PKVtOSF1bQ0BASF0oW0NIM10pQyg9TylbTkhdW0NAQEhdKFtDSDNdKUMoPU8pW05IXVtDQEBIXShbQ0gyXVtDSDJdW0NIMl1bTkhdL0MoPU5cW0hdKVtOSDJdKUMoPU8pW05IXVtDQEBIXShbQ0gzXSlDKD1PKVtOSF1bQ0BASF0oW0NIMl1bQ0gyXUMoPU8pW09IXSlDKD1PKVtOSF1bQ0BASF0oW0NIXShbQ0gzXSlbQ0gzXSlDKD1PKVtOSF1bQ0BIXShDKD1PKVtPSF0pW0NIMl1jM1tjSF1bY0hdYyhbT0hdKVtjSF1bY0hdMw==

> <s_epik_cmdline>
J2VwaWtfYXBwJywgJy1pbWFlJywgJ2xpZ2FuZF9wcm8ubWFlJywgJy1vbWFlJywgJ2xpZ2FuZF9wcmVwLm1hZScsICctbXMnLCAnMScsICctcGgnLCAnNycsICctcGh0JywgJzAuNScsICctbnQn

> <s_epik_pKa_notes>
Molecule size exceeds maximum supported for generating protonation states

> <s_epik_Chemistry_Notes>
This compound has an imine and may undergo hydrolysis.

$$$$
