4es0_ligand
                    3D
 Schrodinger Suite 2020-3.
 88 87  0  0  1  0            999 V2000
  -11.1080  -31.2260  -12.7000 N   0  3  0  0  0  0
   -9.9740  -30.3370  -12.9010 C   0  0  0  0  0  0
   -9.7330  -29.4290  -11.7080 C   0  0  0  0  0  0
   -8.6030  -29.0030  -11.4660 O   0  0  0  0  0  0
  -10.7880  -29.1230  -10.9540 N   0  0  0  0  0  0
  -10.6200  -28.3240   -9.7400 C   0  0  2  0  0  0
  -11.6340  -28.7310   -8.6790 C   0  0  0  0  0  0
  -12.6720  -29.3080   -8.9950 O   0  0  0  0  0  0
  -10.7170  -26.8170  -10.0380 C   0  0  0  0  0  0
  -12.3830  -26.1860  -10.3310 S   0  0  0  0  0  0
  -11.3280  -28.4240   -7.4230 N   0  0  0  0  0  0
  -12.1810  -28.8500   -6.3230 C   0  0  2  0  0  0
  -13.6220  -28.3610   -6.4650 C   0  0  0  0  0  0
  -14.5680  -29.1160   -6.2060 O   0  0  0  0  0  0
  -11.5860  -28.4300   -4.9930 C   0  0  0  0  0  0
  -13.8080  -27.1150   -6.8870 N   0  0  0  0  0  0
  -15.1740  -26.5920   -6.9800 C   0  0  2  0  0  0
  -16.0400  -27.2870   -8.0440 C   0  0  0  0  0  0
  -17.2290  -27.5380   -7.8170 O   0  0  0  0  0  0
  -15.1810  -25.0700   -7.1770 C   0  0  0  0  0  0
  -16.5860  -24.4700   -7.1000 C   0  0  0  0  0  0
  -16.5960  -22.9510   -7.2840 C   0  0  0  0  0  0
  -15.7370  -22.2630   -6.3160 N   0  0  0  0  0  0
  -16.1450  -21.7610   -5.1520 C   0  0  0  0  0  0
  -17.4210  -21.8580   -4.7720 N   0  0  0  0  0  0
  -15.2720  -21.1520   -4.3610 N   0  3  0  0  0  0
  -15.4580  -27.5920   -9.2020 N   0  0  0  0  0  0
  -16.2160  -28.2320  -10.2720 C   0  0  2  0  0  0
  -16.4190  -29.7180   -9.9950 C   0  0  0  0  0  0
  -17.2670  -30.3610  -10.6140 O   0  0  0  0  0  0
  -15.5400  -28.0250  -11.6320 C   0  0  0  0  0  0
  -14.2540  -28.6320  -11.6750 O   0  0  0  0  0  0
  -15.6490  -30.2550   -9.0570 N   0  0  0  0  0  0
  -15.7970  -31.6540   -8.6570 C   0  0  2  0  0  0
  -16.9690  -31.8080   -7.6990 C   0  0  0  0  0  0
  -17.6780  -32.8160   -7.7300 O   0  0  0  0  0  0
  -14.5260  -32.1810   -7.9840 C   0  0  0  0  0  0
  -13.4040  -32.5260   -8.9480 C   0  0  0  0  0  0
  -13.7700  -33.6580   -9.8960 C   0  0  0  0  0  0
  -14.0500  -34.7780   -9.4120 O   0  5  0  0  0  0
  -13.7790  -33.4240  -11.1240 O   0  0  0  0  0  0
  -17.1670  -30.8010   -6.8530 N   0  0  0  0  0  0
  -18.2190  -30.8330   -5.8560 C   0  0  0  0  0  0
  -18.0580  -31.9590   -4.8570 C   0  0  0  0  0  0
  -16.9470  -32.3010   -4.4660 O   0  0  0  0  0  0
  -19.0799  -32.5533   -4.4210 O   0  5  0  0  0  0
  -11.2391  -31.8599  -13.5894 H   0  0  0  0  0  0
  -12.0176  -30.6291  -12.5378 H   0  0  0  0  0  0
  -10.9246  -31.8612  -11.8208 H   0  0  0  0  0  0
   -9.0644  -30.9339  -13.0632 H   0  0  0  0  0  0
  -10.1573  -29.7018  -13.7802 H   0  0  0  0  0  0
  -11.7884  -29.4737  -11.2476 H   0  0  0  0  0  0
   -9.6073  -28.5623   -9.3829 H   0  0  0  0  0  0
  -10.3161  -26.2482   -9.1861 H   0  0  0  0  0  0
  -10.1344  -26.5836  -10.9414 H   0  0  0  0  0  0
  -12.5363  -25.1191  -10.5507 H   0  0  0  0  0  0
  -10.4179  -27.8408   -7.2192 H   0  0  0  0  0  0
  -12.1868  -29.9476   -6.3954 H   0  0  0  0  0  0
  -10.5512  -28.7964   -4.9222 H   0  0  0  0  0  0
  -12.1829  -28.8564   -4.1733 H   0  0  0  0  0  0
  -11.5923  -27.3325   -4.9187 H   0  0  0  0  0  0
  -12.9551  -26.4782   -7.1646 H   0  0  0  0  0  0
  -15.5900  -26.8485   -5.9945 H   0  0  0  0  0  0
  -14.5695  -24.5962   -6.3949 H   0  0  0  0  0  0
  -14.7648  -24.8263   -8.1656 H   0  0  0  0  0  0
  -17.2151  -24.9071   -7.8894 H   0  0  0  0  0  0
  -17.0257  -24.6911   -6.1162 H   0  0  0  0  0  0
  -16.2365  -22.7016   -8.2932 H   0  0  0  0  0  0
  -17.6210  -22.5729   -7.1561 H   0  0  0  0  0  0
  -14.6660  -22.1296   -6.5284 H   0  0  0  0  0  0
  -18.1517  -22.3615   -5.4220 H   0  0  0  0  0  0
  -17.7418  -21.4344   -3.8088 H   0  0  0  0  0  0
  -14.2186  -21.0676   -4.6664 H   0  0  0  0  0  0
  -14.3934  -27.3561   -9.3472 H   0  0  0  0  0  0
  -17.1923  -27.7252  -10.2617 H   0  0  0  0  0  0
  -16.1615  -28.4716  -12.4221 H   0  0  0  0  0  0
  -15.4223  -26.9481  -11.8229 H   0  0  0  0  0  0
  -13.6457  -28.5675  -12.5892 H   0  0  0  0  0  0
  -14.8865  -29.6236   -8.5775 H   0  0  0  0  0  0
  -15.9849  -32.2001   -9.5932 H   0  0  0  0  0  0
  -14.1338  -31.4195   -7.2938 H   0  0  0  0  0  0
  -14.7611  -33.0977   -7.4233 H   0  0  0  0  0  0
  -13.1593  -31.6432   -9.5569 H   0  0  0  0  0  0
  -12.5151  -32.8373   -8.3798 H   0  0  0  0  0  0
  -16.5043  -29.9260   -6.9255 H   0  0  0  0  0  0
  -18.2205  -29.8874   -5.2941 H   0  0  0  0  0  0
  -19.1913  -30.9657   -6.3530 H   0  0  0  0  0  0
  -15.6013  -20.7312   -3.3995 H   0  0  0  0  0  0
  1  2  1  0  0  0
  1 47  1  0  0  0
  1 48  1  0  0  0
  1 49  1  0  0  0
  2  3  1  0  0  0
  2 50  1  0  0  0
  2 51  1  0  0  0
  3  4  2  0  0  0
  3  5  1  0  0  0
  5  6  1  0  0  0
  5 52  1  0  0  0
  6  7  1  0  0  0
  6  9  1  0  0  0
  6 53  1  0  0  0
  7  8  2  0  0  0
  7 11  1  0  0  0
  9 10  1  0  0  0
  9 54  1  0  0  0
  9 55  1  0  0  0
 10 56  1  0  0  0
 11 12  1  0  0  0
 11 57  1  0  0  0
 12 13  1  0  0  0
 12 15  1  0  0  0
 12 58  1  0  0  0
 13 14  2  0  0  0
 13 16  1  0  0  0
 15 59  1  0  0  0
 15 60  1  0  0  0
 15 61  1  0  0  0
 16 17  1  0  0  0
 16 62  1  0  0  0
 17 18  1  0  0  0
 17 20  1  0  0  0
 17 63  1  0  0  0
 18 19  2  0  0  0
 18 27  1  0  0  0
 20 21  1  0  0  0
 20 64  1  0  0  0
 20 65  1  0  0  0
 21 22  1  0  0  0
 21 66  1  0  0  0
 21 67  1  0  0  0
 22 23  1  0  0  0
 22 68  1  0  0  0
 22 69  1  0  0  0
 23 24  1  0  0  0
 23 70  1  0  0  0
 24 25  1  0  0  0
 24 26  2  0  0  0
 25 71  1  0  0  0
 25 72  1  0  0  0
 26 73  1  0  0  0
 26 88  1  0  0  0
 27 28  1  0  0  0
 27 74  1  0  0  0
 28 29  1  0  0  0
 28 31  1  0  0  0
 28 75  1  0  0  0
 29 30  2  0  0  0
 29 33  1  0  0  0
 31 32  1  0  0  0
 31 76  1  0  0  0
 31 77  1  0  0  0
 32 78  1  0  0  0
 33 34  1  0  0  0
 33 79  1  0  0  0
 34 35  1  0  0  0
 34 37  1  0  0  0
 34 80  1  0  0  0
 35 36  2  0  0  0
 35 42  1  0  0  0
 37 38  1  0  0  0
 37 81  1  0  0  0
 37 82  1  0  0  0
 38 39  1  0  0  0
 38 83  1  0  0  0
 38 84  1  0  0  0
 39 40  1  0  0  0
 39 41  2  0  0  0
 42 43  1  0  0  0
 42 85  1  0  0  0
 43 44  1  0  0  0
 43 86  1  0  0  0
 43 87  1  0  0  0
 44 45  2  0  0  0
 44 46  1  0  0  0
M  CHG  4   1   1  26   1  40  -1  46  -1
M  END
> <s_m_source_file>
../4es0_ligand.sdf

> <i_m_source_file_index>
1

> <s_epik_input>
W05IMytdW0NIMl1DKD1PKVtOSF1bQ0BASF0oW0NIMl1bU0hdKUMoPU8pW05IXVtDQEBIXShbQ0gzXSlDKD1PKVtOSF1bQ0BASF0oW0NIMl1bQ0gyXVtDSDJdW05IXS9DKFtOSDJdKT1OXFtIXSlDKD1PKVtOSF1bQ0BASF0oW0NIMl1bT0hdKUMoPU8pW05IXVtDQEBIXShbQ0gyXVtDSDJdQyg9TylbT0hdKUMoPU8pW05IXVtDSDJdQyg9TylbT0hd

> <s_epik_cmdline>
J2VwaWtfYXBwJywgJy1pbWFlJywgJ2xpZ2FuZF9wcm8ubWFlJywgJy1vbWFlJywgJ2xpZ2FuZF9wcmVwLm1hZScsICctbXMnLCAnMScsICctcGgnLCAnNycsICctcGh0JywgJzAuNScsICctbnQn

> <r_lp_tautomer_probability>
1

> <r_epik_Ionization_Penalty>
  0.1515

> <r_epik_Ionization_Penalty_Charging>
  0.1400

> <r_epik_Ionization_Penalty_Neutral>
  0.0115

> <r_epik_State_Penalty>
 -0.0000

> <r_epik_Charging_Adjusted_Penalty>
0.139965890370605

> <i_epik_Tot_Q>
0

> <i_epik_Tot_abs_Q>
4

> <s_epik_Chemistry_Notes>
This compound has an imine and may undergo hydrolysis.

$$$$
