4esg_ligand
                    3D
 Schrodinger Suite 2020-3.
230234  0  0  1  0            999 V2000
  -15.2710  -18.5530   21.0770 N   0  3  0  0  0  0
  -15.1510  -18.4080   19.6240 C   0  0  2  0  0  0
  -14.2010  -17.2640   19.2720 C   0  0  0  0  0  0
  -14.0850  -16.2980   20.0270 O   0  0  0  0  0  0
  -16.5320  -18.1890   18.9870 C   0  0  0  0  0  0
  -17.4750  -19.3910   19.1200 C   0  0  0  0  0  0
  -17.8110  -20.0310   17.7790 C   0  0  0  0  0  0
  -17.8910  -19.2960   16.7700 O   0  0  0  0  0  0
  -17.9820  -21.2700   17.7330 O   0  0  0  0  0  0
  -13.4940  -17.3800   18.1350 N   0  0  0  0  0  0
  -12.6400  -16.2580   17.7320 C   0  0  2  0  0  0
  -13.4870  -15.0940   17.2150 C   0  0  0  0  0  0
  -14.6180  -15.3210   16.7660 O   0  0  0  0  0  0
  -11.7920  -16.8460   16.5930 C   0  0  0  0  0  0
  -11.9320  -18.3530   16.7200 C   0  0  0  0  0  0
  -13.3130  -18.5590   17.2690 C   0  0  0  0  0  0
  -12.9550  -13.8610   17.2930 N   0  0  0  0  0  0
  -13.6400  -12.6850   16.7370 C   0  0  2  0  0  0
  -13.9470  -12.8600   15.2460 C   0  0  0  0  0  0
  -13.1610  -13.5010   14.5350 O   0  0  0  0  0  0
  -12.6220  -11.5500   16.9440 C   0  0  0  0  0  0
  -11.3010  -12.2210   17.3310 C   0  0  0  0  0  0
  -11.7060  -13.5010   17.9930 C   0  0  0  0  0  0
  -15.0720  -12.3120   14.7840 N   0  0  0  0  0  0
  -15.4550  -12.4440   13.3830 C   0  0  2  0  0  0
  -14.4570  -11.7910   12.4440 C   0  0  0  0  0  0
  -14.2460  -12.2670   11.3310 O   0  0  0  0  0  0
  -16.8310  -11.8280   13.1290 C   0  0  0  0  0  0
  -18.0320  -12.7240   13.3730 C   0  0  0  0  0  0
  -19.2050  -12.2040   12.5730 C   0  0  0  0  0  0
  -17.7150  -14.1770   13.0180 C   0  0  0  0  0  0
  -13.8650  -10.6870   12.8930 N   0  0  0  0  0  0
  -12.9150   -9.9440   12.0910 C   0  0  2  0  0  0
  -11.6390   -9.7630   12.8770 C   0  0  0  0  0  0
  -11.4260   -8.7130   13.4700 O   0  0  0  0  0  0
  -13.4620   -8.5570   11.7600 C   0  0  0  0  0  0
  -14.7480   -8.6100   10.9660 C   0  0  0  0  0  0
  -14.8220   -9.2690    9.9320 O   0  0  0  0  0  0
  -15.7770   -7.9320   11.4610 N   0  0  0  0  0  0
  -10.7770  -10.7830   12.8840 N   0  0  0  0  0  0
   -9.5030  -10.6870   13.6050 C   0  0  2  0  0  0
   -8.7570   -9.4450   13.1410 C   0  0  0  0  0  0
   -8.5960   -9.2260   11.9300 O   0  0  0  0  0  0
   -8.7470  -11.9450   13.1510 C   0  0  0  0  0  0
   -9.8330  -12.9110   12.7260 C   0  0  0  0  0  0
  -10.8880  -12.0310   12.1070 C   0  0  0  0  0  0
   -8.3230   -8.6170   14.0810 N   0  0  0  0  0  0
   -7.6400   -7.3980   13.6910 C   0  0  2  0  0  0
   -6.3200   -7.7660   13.0260 C   0  0  0  0  0  0
   -5.5910   -8.6220   13.5270 O   0  0  0  0  0  0
   -7.3960   -6.4960   14.8930 C   0  0  0  0  0  0
   -7.0390   -5.0950   14.5170 C   0  0  0  0  0  0
   -7.8580   -4.0150   14.7740 N   0  0  0  0  0  0
   -5.9480   -4.5950   13.8850 C   0  0  0  0  0  0
   -7.2890   -2.9130   14.3210 C   0  0  0  0  0  0
   -6.1270   -3.2410   13.7760 N   0  0  0  0  0  0
   -6.0280   -7.1320   11.8910 N   0  0  0  0  0  0
   -4.8050   -7.4210   11.1490 C   0  0  0  0  0  0
   -3.9510   -6.1750   11.1310 C   0  0  0  0  0  0
   -3.5360   -5.7110   12.1820 O   0  0  0  0  0  0
   -3.6840   -5.6120    9.9570 N   0  0  0  0  0  0
   -2.9300   -4.3630    9.9070 C   0  0  2  0  0  0
   -3.4720   -3.5360    8.7720 C   0  0  0  0  0  0
   -3.9770   -4.0850    7.7870 O   0  0  0  0  0  0
   -1.4500   -4.6140    9.6960 C   0  0  0  0  0  0
   -1.2080   -5.2210    8.4660 O   0  0  0  0  0  0
   -3.3220   -2.2250    8.8890 N   0  0  0  0  0  0
   -3.9420   -1.3010    7.9620 C   0  0  2  0  0  0
   -3.4970   -1.5700    6.5300 C   0  0  0  0  0  0
   -4.2900   -1.4400    5.5850 O   0  0  0  0  0  0
   -3.6460    0.1210    8.3850 C   0  0  0  0  0  0
   -2.2310   -1.9310    6.3380 N   0  0  0  0  0  0
   -1.7700   -2.1400    4.9630 C   0  0  2  0  0  0
   -2.4610   -3.2830    4.2440 C   0  0  0  0  0  0
   -2.5590   -3.2890    3.0210 O   0  0  0  0  0  0
   -0.2600   -2.3030    4.8620 C   0  0  0  0  0  0
    0.1980   -2.0600    3.4140 C   0  0  0  0  0  0
    1.6600   -2.1580    3.2630 C   0  0  0  0  0  0
    2.3660   -1.1080    3.9910 N   0  0  0  0  0  0
    2.7820    0.0270    3.4430 C   0  0  0  0  0  0
    2.5160    0.2950    2.1630 N   0  0  0  0  0  0
    3.4430    0.9010    4.1830 N   0  0  0  0  0  0
   -2.9590   -4.2410    5.0110 N   0  0  0  0  0  0
   -3.5910   -5.4270    4.4560 C   0  0  2  0  0  0
   -5.0910   -5.2280    4.2470 C   0  0  0  0  0  0
   -5.7820   -6.1300    3.7430 O   0  0  0  0  0  0
   -3.3140   -6.6340    5.3450 C   0  0  0  0  0  0
   -5.5980   -4.0480    4.6150 N   0  0  0  0  0  0
   -7.0200   -3.7290    4.4690 C   0  0  2  0  0  0
   -7.2050   -2.6620    3.3920 C   0  0  0  0  0  0
   -6.2520   -1.9590    3.0460 O   0  0  0  0  0  0
   -7.5970   -3.2240    5.8020 C   0  0  0  0  0  0
   -7.3290   -4.1280    7.0220 C   0  0  0  0  0  0
   -8.2560   -5.3380    7.0990 C   0  0  0  0  0  0
   -9.2410   -5.3990    6.3290 O   0  0  0  0  0  0
   -7.9980   -6.2230    7.9460 O   0  0  0  0  0  0
   -8.4170   -2.5400    2.8510 N   0  0  0  0  0  0
   -8.6960   -1.4460    1.9080 C   0  0  2  0  0  0
   -9.1980   -0.1750    2.6030 C   0  0  0  0  0  0
  -10.2710   -0.1750    3.2190 O   0  0  0  0  0  0
   -9.7090   -1.8380    0.8150 C   0  0  0  0  0  0
   -9.9360   -0.6560   -0.1410 C   0  0  0  0  0  0
   -9.2190   -3.0590    0.0410 C   0  0  0  0  0  0
   -8.4290    0.9120    2.5060 N   0  0  0  0  0  0
   -8.8830    2.2030    3.0310 C   0  0  2  0  0  0
   -9.7300    2.9240    1.9810 C   0  0  0  0  0  0
   -9.2940    3.1170    0.8480 O   0  0  0  0  0  0
   -7.6950    3.0740    3.4460 C   0  0  0  0  0  0
   -8.0850    4.4130    3.9760 C   0  0  0  0  0  0
   -8.6720    4.5890    5.2120 N   0  0  0  0  0  0
   -7.9780    5.6520    3.4300 C   0  0  0  0  0  0
   -8.9110    5.8760    5.4050 C   0  0  0  0  0  0
   -8.5000    6.5400    4.3380 N   0  0  0  0  0  0
  -10.9450    3.3150    2.3510 N   0  0  0  0  0  0
  -11.8230    4.0250    1.4160 C   0  0  2  0  0  0
  -11.3130    5.4360    1.1350 C   0  0  0  0  0  0
  -10.9900    6.1790    2.0630 O   0  0  0  0  0  0
  -13.2400    4.0710    1.9500 C   0  0  0  0  0  0
  -11.2218    5.8434   -0.0538 O   0  0  0  0  0  0
  -14.2734  -18.7086   21.5136 H   0  0  0  0  0  0
  -15.9111  -19.4174   21.3076 H   0  0  0  0  0  0
  -15.7186  -17.6419   21.5007 H   0  0  0  0  0  0
  -14.7227  -19.3548   19.2633 H   0  0  0  0  0  0
  -17.0263  -17.3325   19.4687 H   0  0  0  0  0  0
  -16.4122  -17.9864   17.9125 H   0  0  0  0  0  0
  -17.0027  -20.1596   19.7494 H   0  0  0  0  0  0
  -18.4189  -19.0671   19.5829 H   0  0  0  0  0  0
  -18.2255  -21.7565   16.7769 H   0  0  0  0  0  0
  -12.0576  -15.8852   18.5875 H   0  0  0  0  0  0
  -12.1760  -16.4867   15.6269 H   0  0  0  0  0  0
  -10.7458  -16.5280   16.7129 H   0  0  0  0  0  0
  -11.8113  -18.8172   15.7301 H   0  0  0  0  0  0
  -11.1588  -18.7369   17.4017 H   0  0  0  0  0  0
  -13.3992  -19.4743   17.8730 H   0  0  0  0  0  0
  -14.0864  -18.5617   16.4868 H   0  0  0  0  0  0
  -14.6063  -12.5355   17.2409 H   0  0  0  0  0  0
  -12.5153  -10.9784   16.0103 H   0  0  0  0  0  0
  -12.9746  -10.8826   17.7442 H   0  0  0  0  0  0
  -10.7020  -12.4004   16.4260 H   0  0  0  0  0  0
  -10.7434  -11.5651   18.0157 H   0  0  0  0  0  0
  -11.9108  -13.3740   19.0663 H   0  0  0  0  0  0
  -10.9638  -14.3008   17.8535 H   0  0  0  0  0  0
  -15.7151  -11.7529   15.4797 H   0  0  0  0  0  0
  -15.4589  -13.5321   13.2215 H   0  0  0  0  0  0
  -16.9693  -10.9562   13.7854 H   0  0  0  0  0  0
  -16.9024  -11.5107   12.0782 H   0  0  0  0  0  0
  -18.2953  -12.6958   14.4407 H   0  0  0  0  0  0
  -19.4051  -11.1591   12.8526 H   0  0  0  0  0  0
  -20.0936  -12.8169   12.7846 H   0  0  0  0  0  0
  -18.9695  -12.2577   11.4998 H   0  0  0  0  0  0
  -16.8591  -14.5223   13.6165 H   0  0  0  0  0  0
  -17.4669  -14.2474   11.9487 H   0  0  0  0  0  0
  -18.5909  -14.8065   13.2334 H   0  0  0  0  0  0
  -14.1169  -10.3427   13.9069 H   0  0  0  0  0  0
  -12.7550  -10.5412   11.1812 H   0  0  0  0  0  0
  -13.6648   -8.0106   12.6929 H   0  0  0  0  0  0
  -12.7213   -8.0033   11.1644 H   0  0  0  0  0  0
  -15.6601   -7.3564   12.3911 H   0  0  0  0  0  0
  -16.7462   -7.9460   10.9410 H   0  0  0  0  0  0
   -9.6542  -10.6127   14.6920 H   0  0  0  0  0  0
   -8.0774  -11.6892   12.3166 H   0  0  0  0  0  0
   -8.1540  -12.3390   13.9895 H   0  0  0  0  0  0
   -9.4208  -13.6316   12.0043 H   0  0  0  0  0  0
  -10.2100  -13.4499   13.6077 H   0  0  0  0  0  0
  -11.9015  -12.4436   12.2189 H   0  0  0  0  0  0
  -10.6930  -11.8204   11.0451 H   0  0  0  0  0  0
   -8.4755   -8.8453   15.1462 H   0  0  0  0  0  0
   -8.3080   -6.8786   12.9881 H   0  0  0  0  0  0
   -8.3061   -6.4521   15.5092 H   0  0  0  0  0  0
   -6.5667   -6.8999   15.4922 H   0  0  0  0  0  0
   -5.0353   -5.0629   13.4875 H   0  0  0  0  0  0
   -7.7038   -1.9070   14.3845 H   0  0  0  0  0  0
   -6.7333   -6.3759   11.5157 H   0  0  0  0  0  0
   -4.2625   -8.2414   11.6416 H   0  0  0  0  0  0
   -5.0610   -7.7161   10.1207 H   0  0  0  0  0  0
   -4.0290   -6.0838    9.0252 H   0  0  0  0  0  0
   -3.0675   -3.8600   10.8756 H   0  0  0  0  0  0
   -0.9080   -3.6573    9.7258 H   0  0  0  0  0  0
   -1.0730   -5.2740   10.4912 H   0  0  0  0  0  0
   -0.1784   -5.4675    8.1674 H   0  0  0  0  0  0
   -2.7072   -1.8434    9.7175 H   0  0  0  0  0  0
   -5.0248   -1.4832    8.0272 H   0  0  0  0  0  0
   -3.9818    0.2726    9.4215 H   0  0  0  0  0  0
   -4.1775    0.8191    7.7215 H   0  0  0  0  0  0
   -2.5635    0.3052    8.3196 H   0  0  0  0  0  0
   -1.5360   -2.0730    7.1787 H   0  0  0  0  0  0
   -2.0775   -1.1976    4.4862 H   0  0  0  0  0  0
    0.2324   -1.5761    5.5247 H   0  0  0  0  0  0
    0.0198   -3.3230    5.1643 H   0  0  0  0  0  0
   -0.2625   -2.8092    2.7532 H   0  0  0  0  0  0
   -0.1093   -1.0527    3.0964 H   0  0  0  0  0  0
    2.0041   -3.1290    3.6486 H   0  0  0  0  0  0
    1.9254   -2.0711    2.1990 H   0  0  0  0  0  0
    2.5834   -1.2322    5.0621 H   0  0  0  0  0  0
    1.9658   -0.4350    1.5511 H   0  0  0  0  0  0
    2.8469    1.2459    1.7199 H   0  0  0  0  0  0
    3.6601    0.6760    5.2376 H   0  0  0  0  0  0
   -2.8827   -4.1177    6.1014 H   0  0  0  0  0  0
   -3.1201   -5.5688    3.4720 H   0  0  0  0  0  0
   -2.2282   -6.7510    5.4766 H   0  0  0  0  0  0
   -3.7258   -7.5386    4.8738 H   0  0  0  0  0  0
   -3.7881   -6.4833    6.3261 H   0  0  0  0  0  0
   -4.9082   -3.3039    5.0399 H   0  0  0  0  0  0
   -7.5132   -4.6653    4.1686 H   0  0  0  0  0  0
   -7.1632   -2.2417    6.0406 H   0  0  0  0  0  0
   -8.6898   -3.1313    5.7169 H   0  0  0  0  0  0
   -6.2970   -4.5063    6.9784 H   0  0  0  0  0  0
   -7.4680   -3.5476    7.9460 H   0  0  0  0  0  0
   -8.6443   -7.1091    8.0299 H   0  0  0  0  0  0
   -9.2089   -3.2581    3.1101 H   0  0  0  0  0  0
   -7.7020   -1.2731    1.4697 H   0  0  0  0  0  0
  -10.6643   -2.1023    1.2919 H   0  0  0  0  0  0
  -10.2884    0.2153    0.4305 H   0  0  0  0  0  0
  -10.6909   -0.9317   -0.8921 H   0  0  0  0  0  0
   -8.9911   -0.4058   -0.6455 H   0  0  0  0  0  0
   -9.0612   -3.8956    0.7376 H   0  0  0  0  0  0
   -8.2714   -2.8177   -0.4629 H   0  0  0  0  0  0
   -9.9713   -3.3435   -0.7094 H   0  0  0  0  0  0
   -7.4433    0.8299    2.0246 H   0  0  0  0  0  0
   -9.4911    1.9728    3.9183 H   0  0  0  0  0  0
   -7.1248    2.5639    4.2363 H   0  0  0  0  0  0
   -7.0438    3.2447    2.5760 H   0  0  0  0  0  0
   -7.5789    6.0160    2.4717 H   0  0  0  0  0  0
   -9.3685    6.3140    6.2921 H   0  0  0  0  0  0
  -11.2894    3.0997    3.3733 H   0  0  0  0  0  0
  -11.8003    3.4396    0.4850 H   0  0  0  0  0  0
  -13.5911    3.0473    2.1467 H   0  0  0  0  0  0
  -13.8965    4.5474    1.2070 H   0  0  0  0  0  0
  -13.2612    4.6517    2.8840 H   0  0  0  0  0  0
  -10.8547    6.8596   -0.2603 H   0  0  0  0  0  0
  1  2  1  0  0  0
  1120  1  0  0  0
  1121  1  0  0  0
  1122  1  0  0  0
  2  3  1  0  0  0
  2  5  1  0  0  0
  2123  1  0  0  0
  3  4  2  0  0  0
  3 10  1  0  0  0
  5  6  1  0  0  0
  5124  1  0  0  0
  5125  1  0  0  0
  6  7  1  0  0  0
  6126  1  0  0  0
  6127  1  0  0  0
  7  8  2  0  0  0
  7  9  1  0  0  0
  9128  1  0  0  0
 10 11  1  0  0  0
 10 16  1  0  0  0
 11 12  1  0  0  0
 11 14  1  0  0  0
 11129  1  0  0  0
 12 13  2  0  0  0
 12 17  1  0  0  0
 14 15  1  0  0  0
 14130  1  0  0  0
 14131  1  0  0  0
 15 16  1  0  0  0
 15132  1  0  0  0
 15133  1  0  0  0
 16134  1  0  0  0
 16135  1  0  0  0
 17 18  1  0  0  0
 17 23  1  0  0  0
 18 19  1  0  0  0
 18 21  1  0  0  0
 18136  1  0  0  0
 19 20  2  0  0  0
 19 24  1  0  0  0
 21 22  1  0  0  0
 21137  1  0  0  0
 21138  1  0  0  0
 22 23  1  0  0  0
 22139  1  0  0  0
 22140  1  0  0  0
 23141  1  0  0  0
 23142  1  0  0  0
 24 25  1  0  0  0
 24143  1  0  0  0
 25 26  1  0  0  0
 25 28  1  0  0  0
 25144  1  0  0  0
 26 27  2  0  0  0
 26 32  1  0  0  0
 28 29  1  0  0  0
 28145  1  0  0  0
 28146  1  0  0  0
 29 30  1  0  0  0
 29 31  1  0  0  0
 29147  1  0  0  0
 30148  1  0  0  0
 30149  1  0  0  0
 30150  1  0  0  0
 31151  1  0  0  0
 31152  1  0  0  0
 31153  1  0  0  0
 32 33  1  0  0  0
 32154  1  0  0  0
 33 34  1  0  0  0
 33 36  1  0  0  0
 33155  1  0  0  0
 34 35  2  0  0  0
 34 40  1  0  0  0
 36 37  1  0  0  0
 36156  1  0  0  0
 36157  1  0  0  0
 37 38  2  0  0  0
 37 39  1  0  0  0
 39158  1  0  0  0
 39159  1  0  0  0
 40 41  1  0  0  0
 40 46  1  0  0  0
 41 42  1  0  0  0
 41 44  1  0  0  0
 41160  1  0  0  0
 42 43  2  0  0  0
 42 47  1  0  0  0
 44 45  1  0  0  0
 44161  1  0  0  0
 44162  1  0  0  0
 45 46  1  0  0  0
 45163  1  0  0  0
 45164  1  0  0  0
 46165  1  0  0  0
 46166  1  0  0  0
 47 48  1  0  0  0
 47167  1  0  0  0
 48 49  1  0  0  0
 48 51  1  0  0  0
 48168  1  0  0  0
 49 50  2  0  0  0
 49 57  1  0  0  0
 51 52  1  0  0  0
 51169  1  0  0  0
 51170  1  0  0  0
 52 53  2  0  0  0
 52 54  1  0  0  0
 53 55  1  0  0  0
 54 56  2  0  0  0
 54171  1  0  0  0
 55 56  1  0  0  0
 55172  1  0  0  0
 57 58  1  0  0  0
 57173  1  0  0  0
 58 59  1  0  0  0
 58174  1  0  0  0
 58175  1  0  0  0
 59 60  2  0  0  0
 59 61  1  0  0  0
 61 62  1  0  0  0
 61176  1  0  0  0
 62 63  1  0  0  0
 62 65  1  0  0  0
 62177  1  0  0  0
 63 64  2  0  0  0
 63 67  1  0  0  0
 65 66  1  0  0  0
 65178  1  0  0  0
 65179  1  0  0  0
 66180  1  0  0  0
 67 68  1  0  0  0
 67181  1  0  0  0
 68 69  1  0  0  0
 68 71  1  0  0  0
 68182  1  0  0  0
 69 70  2  0  0  0
 69 72  1  0  0  0
 71183  1  0  0  0
 71184  1  0  0  0
 71185  1  0  0  0
 72 73  1  0  0  0
 72186  1  0  0  0
 73 74  1  0  0  0
 73 76  1  0  0  0
 73187  1  0  0  0
 74 75  2  0  0  0
 74 83  1  0  0  0
 76 77  1  0  0  0
 76188  1  0  0  0
 76189  1  0  0  0
 77 78  1  0  0  0
 77190  1  0  0  0
 77191  1  0  0  0
 78 79  1  0  0  0
 78192  1  0  0  0
 78193  1  0  0  0
 79 80  1  0  0  0
 79194  1  0  0  0
 80 81  1  0  0  0
 80 82  2  0  0  0
 81195  1  0  0  0
 81196  1  0  0  0
 82197  1  0  0  0
 83 84  1  0  0  0
 83198  1  0  0  0
 84 85  1  0  0  0
 84 87  1  0  0  0
 84199  1  0  0  0
 85 86  2  0  0  0
 85 88  1  0  0  0
 87200  1  0  0  0
 87201  1  0  0  0
 87202  1  0  0  0
 88 89  1  0  0  0
 88203  1  0  0  0
 89 90  1  0  0  0
 89 92  1  0  0  0
 89204  1  0  0  0
 90 91  2  0  0  0
 90 97  1  0  0  0
 92 93  1  0  0  0
 92205  1  0  0  0
 92206  1  0  0  0
 93 94  1  0  0  0
 93207  1  0  0  0
 93208  1  0  0  0
 94 95  2  0  0  0
 94 96  1  0  0  0
 96209  1  0  0  0
 97 98  1  0  0  0
 97210  1  0  0  0
 98 99  1  0  0  0
 98101  1  0  0  0
 98211  1  0  0  0
 99100  2  0  0  0
 99104  1  0  0  0
101102  1  0  0  0
101103  1  0  0  0
101212  1  0  0  0
102213  1  0  0  0
102214  1  0  0  0
102215  1  0  0  0
103216  1  0  0  0
103217  1  0  0  0
103218  1  0  0  0
104105  1  0  0  0
104219  1  0  0  0
105106  1  0  0  0
105108  1  0  0  0
105220  1  0  0  0
106107  2  0  0  0
106114  1  0  0  0
108109  1  0  0  0
108221  1  0  0  0
108222  1  0  0  0
109110  2  0  0  0
109111  1  0  0  0
110112  1  0  0  0
111113  2  0  0  0
111223  1  0  0  0
112113  1  0  0  0
112224  1  0  0  0
114115  1  0  0  0
114225  1  0  0  0
115116  1  0  0  0
115118  1  0  0  0
115226  1  0  0  0
116117  2  0  0  0
116119  1  0  0  0
118227  1  0  0  0
118228  1  0  0  0
118229  1  0  0  0
119230  1  0  0  0
M  CHG  1   1   1
M  END
> <s_m_source_file>
../4esg_ligand.sdf

> <i_m_source_file_index>
1

> <s_epik_input>
Tz1DKFtPSF0pW0NIMl1bQ0gyXVtDQEhdKFtOSDMrXSlDKD1PKU4xW0NAQEhdKFtDSDJdW0NIMl1bQ0gyXTEpQyg9TylOMltDQEBIXShbQ0gyXVtDSDJdW0NIMl0yKUMoPU8pW05IXVtDQEBIXShbQ0gyXVtDSF0oW0NIM10pW0NIM10pQyg9TylbTkhdW0NAQEhdKFtDSDJdQyg9TylbTkgyXSlDKD1PKU4zW0NAQEhdKFtDSDJdW0NIMl1bQ0gyXTMpQyg9TylbTkhdW0NAQEhdKFtDSDJdQzQ9TltDSDJdTj1bQ0hdNClDKD1PKVtOSF1bQ0gyXUMoPU8pW05IXVtDQEBIXShbQ0gyXVtPSF0pQyg9TylbTkhdW0NAQEhdKFtDSDNdKUMoPU8pW05IXVtDQEBIXShbQ0gyXVtDSDJdW0NIMl1bTkhdL0MoW05IMl0pPU5cW0hdKUMoPU8pW05IXVtDQEBIXShbQ0gzXSlDKD1PKVtOSF1bQ0BASF0oW0NIMl1bQ0gyXUMoPU8pW09IXSlDKD1PKVtOSF1bQ0BASF0oW0NIXShbQ0gzXSlbQ0gzXSlDKD1PKVtOSF1bQ0BIXShDKD1PKVtOSF1bQ0BASF0oW0NIM10pQyg9TylbT0hdKVtDSDJdQzU9TltDSDJdTj1bQ0hdNQ==

> <s_epik_cmdline>
J2VwaWtfYXBwJywgJy1pbWFlJywgJ2xpZ2FuZF9wcm8ubWFlJywgJy1vbWFlJywgJ2xpZ2FuZF9wcmVwLm1hZScsICctbXMnLCAnMScsICctcGgnLCAnNycsICctcGh0JywgJzAuNScsICctbnQn

> <s_epik_pKa_notes>
Molecule size exceeds maximum supported for generating protonation states

> <s_epik_Chemistry_Notes>
This compound has an imine and may undergo hydrolysis.

$$$$
