4esi_ligand
                    3D
 Schrodinger Suite 2020-3.
 30 32  0  0  1  0            999 V2000
  -24.1160    8.9850   -6.5720 C   0  0  0  0  0  0
  -22.8850    9.0710   -8.5940 C   0  0  0  0  0  0
  -23.3110   10.4330   -8.8210 C   0  0  0  0  0  0
  -24.2310   10.9530   -7.8090 C   0  0  0  0  0  0
  -24.3260   12.9010   -9.0980 C   0  0  0  0  0  0
  -23.4560   12.3860  -10.0850 C   0  0  0  0  0  0
  -25.6970   14.6750   -8.3970 O   0  0  0  0  0  0
  -24.9570   14.2350   -9.2640 C   0  0  0  0  0  0
  -22.9570   11.1380   -9.9340 N   0  0  0  0  0  0
  -22.1290    8.5150   -9.4200 O   0  0  0  0  0  0
  -23.3190    8.4520   -7.4930 N   0  3  0  0  0  0
  -24.6600   12.2030   -8.0060 N   0  0  0  0  0  0
  -24.5480   10.2350   -6.7200 N   0  0  0  0  0  0
  -24.4630    8.2060   -5.4990 N   0  0  0  0  0  0
  -24.8400   14.7770  -10.4830 N   0  0  0  0  0  0
  -25.6200   15.8770  -10.9930 C   0  0  0  0  0  0
  -27.0850   15.5690  -11.1140 C   0  0  0  0  0  0
  -27.7140   14.3900  -10.8330 N   0  0  0  0  0  0
  -29.0810   14.5700  -11.0530 N   0  3  0  0  0  0
  -29.2510   15.8980  -11.4540 N   0  0  0  0  0  0
  -28.0450   16.4970  -11.4900 C   0  0  0  0  0  0
  -23.1908   12.9858  -10.9556 H   0  0  0  0  0  0
  -24.0810    7.1775   -5.4196 H   0  0  0  0  0  0
  -24.0696   14.3098  -11.1141 H   0  0  0  0  0  0
  -25.5202   16.7407  -10.3192 H   0  0  0  0  0  0
  -25.2576   16.1500  -11.9951 H   0  0  0  0  0  0
  -27.9643   17.5536  -11.7852 H   0  0  0  0  0  0
  -29.7144   13.8089  -10.9133 H   0  0  0  0  0  0
  -25.1235    8.6093   -4.7173 H   0  0  0  0  0  0
  -22.9626    7.4175   -7.3799 H   0  0  0  0  0  0
  1 11  1  0  0  0
  1 13  2  0  0  0
  1 14  1  0  0  0
  2  3  1  0  0  0
  2 10  2  0  0  0
  2 11  1  0  0  0
  3  4  2  0  0  0
  3  9  1  0  0  0
  4 12  1  0  0  0
  4 13  1  0  0  0
  5  6  1  0  0  0
  5  8  1  0  0  0
  5 12  2  0  0  0
  6  9  2  0  0  0
  6 22  1  0  0  0
  7  8  2  0  0  0
  8 15  1  0  0  0
 11 30  1  0  0  0
 14 23  1  0  0  0
 14 29  1  0  0  0
 15 16  1  0  0  0
 15 24  1  0  0  0
 16 17  1  0  0  0
 16 25  1  0  0  0
 16 26  1  0  0  0
 17 18  2  0  0  0
 17 21  1  0  0  0
 18 19  1  0  0  0
 19 20  1  0  0  0
 19 28  1  0  0  0
 20 21  2  0  0  0
 21 27  1  0  0  0
M  CHG  2  11   1  19   1
M  END
> <s_m_source_file>
../4esi_ligand.sdf

> <i_m_source_file_index>
1

> <s_epik_input>
Tz1jMVtuSF0vYyg9TlxbSF0pW25IXWMoYzEyKW5jKFtjSF1uMilDKD1PKVtOSF1bQ0gyXWMzbltuSF1uW2NIXTM=

> <s_epik_cmdline>
J2VwaWtfYXBwJywgJy1pbWFlJywgJ2xpZ2FuZF9wcm8ubWFlJywgJy1vbWFlJywgJ2xpZ2FuZF9wcmVwLm1hZScsICctbXMnLCAnMScsICctcGgnLCAnNycsICctcGh0JywgJzAuNScsICctbnQn

> <r_lp_tautomer_probability>
4.999975000125e-06

> <r_epik_Ionization_Penalty>
  0.2796

> <r_epik_Ionization_Penalty_Charging>
  0.2785

> <r_epik_Ionization_Penalty_Neutral>
  0.0010

> <r_epik_State_Penalty>
  0.2904

> <r_epik_Charging_Adjusted_Penalty>
0.568942808202109

> <i_epik_Tot_Q>
2

> <i_epik_Tot_abs_Q>
2

> <s_epik_Chemistry_Notes>
This compound has an imine and may undergo hydrolysis.

$$$$
