4est_ligand
                    3D
 Schrodinger Suite 2020-3.
 72 73  0  0  1  0            999 V2000
  -15.7140   18.5650   39.5850 C   0  0  0  0  0  0
  -15.1390   17.4920   39.2350 O   0  0  0  0  0  0
  -16.6380   18.6530   40.8010 C   0  0  0  0  0  0
  -15.6320   19.7190   38.9060 N   0  0  0  0  0  0
  -14.8230   19.8430   37.7090 C   0  0  2  0  0  0
  -13.5520   20.6370   38.0640 C   0  0  0  0  0  0
  -13.5300   21.8720   38.0000 O   0  0  0  0  0  0
  -15.6560   20.5910   36.6980 C   0  0  0  0  0  0
  -12.5350   19.9370   38.5850 N   0  0  0  0  0  0
  -11.2670   20.5480   38.9520 C   0  0  2  0  0  0
  -10.8150   21.3500   37.7690 C   0  0  0  0  0  0
  -10.7290   20.8130   36.6500 O   0  0  0  0  0  0
  -10.2700   19.4580   39.1440 C   0  0  0  0  0  0
  -10.9600   18.1360   38.7770 C   0  0  0  0  0  0
  -12.4030   18.5000   38.4260 C   0  0  0  0  0  0
  -10.5810   22.6310   38.0010 N   0  0  0  0  0  0
  -10.1080   23.6630   37.0890 C   0  0  2  0  0  0
   -8.5480   23.7550   37.1250 C   0  0  2  0  0  0
   -8.1160   24.9530   36.5630 O   0  0  0  0  0  0
  -10.7780   24.9550   37.5420 C   0  0  0  0  0  0
  -12.1960   24.7750   37.1310 C   0  0  0  0  0  0
  -10.6960   25.1770   39.0450 C   0  0  0  0  0  0
   -7.9720   22.7280   36.1770 C   0  0  0  0  0  0
   -7.9340   21.4980   36.5290 F   0  0  0  0  0  0
   -8.6720   22.5810   35.1320 F   0  0  0  0  0  0
   -6.7660   22.9560   35.3890 C   0  0  0  0  0  0
   -5.9140   22.0690   35.4780 O   0  0  0  0  0  0
   -7.0740   23.4350   34.1790 N   0  0  0  0  0  0
   -6.0850   23.4870   33.1180 C   0  0  0  0  0  0
   -6.8730   23.4210   31.8320 C   0  0  0  0  0  0
   -6.1460   23.8760   30.5680 C   0  0  0  0  0  0
   -6.7500   24.8570   29.7430 C   0  0  0  0  0  0
   -6.1170   25.2590   28.5520 C   0  0  0  0  0  0
   -4.8410   24.7240   28.2550 C   0  0  0  0  0  0
   -4.2110   23.7600   29.0910 C   0  0  0  0  0  0
   -4.8920   23.2880   30.2330 C   0  0  0  0  0  0
  -16.6632   17.6800   41.3135 H   0  0  0  0  0  0
  -17.6529   18.9203   40.4717 H   0  0  0  0  0  0
  -16.2623   19.4219   41.4921 H   0  0  0  0  0  0
  -16.1987   20.5849   39.2790 H   0  0  0  0  0  0
  -14.5618   18.8447   37.3281 H   0  0  0  0  0  0
  -16.5567   20.0060   36.4602 H   0  0  0  0  0  0
  -15.0677   20.7472   35.7818 H   0  0  0  0  0  0
  -15.9511   21.5652   37.1149 H   0  0  0  0  0  0
  -11.3885   21.1515   39.8636 H   0  0  0  0  0  0
   -9.4030   19.6348   38.4904 H   0  0  0  0  0  0
   -9.9409   19.4427   40.1935 H   0  0  0  0  0  0
  -10.4446   17.6792   37.9193 H   0  0  0  0  0  0
  -10.9199   17.4505   39.6364 H   0  0  0  0  0  0
  -13.1056   17.9903   39.1017 H   0  0  0  0  0  0
  -12.6292   18.2239   37.3855 H   0  0  0  0  0  0
  -10.7954   22.8807   39.0506 H   0  0  0  0  0  0
  -10.4131   23.4055   36.0640 H   0  0  0  0  0  0
   -8.1785   23.7021   38.1597 H   0  0  0  0  0  0
   -8.3814   25.9098   37.0364 H   0  0  0  0  0  0
  -10.3065   25.8399   37.0896 H   0  0  0  0  0  0
  -12.2452   24.6153   36.0438 H   0  0  0  0  0  0
  -12.7715   25.6742   37.3959 H   0  0  0  0  0  0
  -12.6200   23.9024   37.6494 H   0  0  0  0  0  0
   -9.6443   25.3090   39.3393 H   0  0  0  0  0  0
  -11.1165   24.3053   39.5679 H   0  0  0  0  0  0
  -11.2679   26.0772   39.3144 H   0  0  0  0  0  0
   -8.0976   23.7934   33.9948 H   0  0  0  0  0  0
   -5.5153   24.4250   33.1934 H   0  0  0  0  0  0
   -5.3989   22.6326   33.2141 H   0  0  0  0  0  0
   -7.1831   22.3823   31.6449 H   0  0  0  0  0  0
   -7.7642   24.0605   31.9148 H   0  0  0  0  0  0
   -7.7037   25.2997   30.0304 H   0  0  0  0  0  0
   -6.5978   25.9651   27.8750 H   0  0  0  0  0  0
   -4.3239   25.0613   27.3567 H   0  0  0  0  0  0
   -3.2138   23.3905   28.8518 H   0  0  0  0  0  0
   -4.4685   22.4917   30.8451 H   0  0  0  0  0  0
  1  2  2  0  0  0
  1  3  1  0  0  0
  1  4  1  0  0  0
  3 37  1  0  0  0
  3 38  1  0  0  0
  3 39  1  0  0  0
  4  5  1  0  0  0
  4 40  1  0  0  0
  5  6  1  0  0  0
  5  8  1  0  0  0
  5 41  1  0  0  0
  6  7  2  0  0  0
  6  9  1  0  0  0
  8 42  1  0  0  0
  8 43  1  0  0  0
  8 44  1  0  0  0
  9 10  1  0  0  0
  9 15  1  0  0  0
 10 11  1  0  0  0
 10 13  1  0  0  0
 10 45  1  0  0  0
 11 12  2  0  0  0
 11 16  1  0  0  0
 13 14  1  0  0  0
 13 46  1  0  0  0
 13 47  1  0  0  0
 14 15  1  0  0  0
 14 48  1  0  0  0
 14 49  1  0  0  0
 15 50  1  0  0  0
 15 51  1  0  0  0
 16 17  1  0  0  0
 16 52  1  0  0  0
 17 18  1  0  0  0
 17 20  1  0  0  0
 17 53  1  0  0  0
 18 19  1  0  0  0
 18 23  1  0  0  0
 18 54  1  0  0  0
 19 55  1  0  0  0
 20 21  1  0  0  0
 20 22  1  0  0  0
 20 56  1  0  0  0
 21 57  1  0  0  0
 21 58  1  0  0  0
 21 59  1  0  0  0
 22 60  1  0  0  0
 22 61  1  0  0  0
 22 62  1  0  0  0
 23 24  1  0  0  0
 23 25  1  0  0  0
 23 26  1  0  0  0
 26 27  2  0  0  0
 26 28  1  0  0  0
 28 29  1  0  0  0
 28 63  1  0  0  0
 29 30  1  0  0  0
 29 64  1  0  0  0
 29 65  1  0  0  0
 30 31  1  0  0  0
 30 66  1  0  0  0
 30 67  1  0  0  0
 31 32  2  0  0  0
 31 36  1  0  0  0
 32 33  1  0  0  0
 32 68  1  0  0  0
 33 34  2  0  0  0
 33 69  1  0  0  0
 34 35  1  0  0  0
 34 70  1  0  0  0
 35 36  2  0  0  0
 35 71  1  0  0  0
 36 72  1  0  0  0
M  END
> <s_m_source_file>
../4est_ligand.sdf

> <i_m_source_file_index>
1

> <s_epik_input>
Tz1DKFtDSDNdKVtOSF1bQ0BASF0oW0NIM10pQyg9TylOMVtDQEBIXShbQ0gyXVtDSDJdW0NIMl0xKUMoPU8pW05IXVtDQEBIXShbQ0hdKFtDSDNdKVtDSDNdKVtDQEhdKFtPSF0pQyhGKShGKUMoPU8pW05IXVtDSDJdW0NIMl1jMltjSF1bY0hdW2NIXVtjSF1bY0hdMg==

> <s_epik_cmdline>
J2VwaWtfYXBwJywgJy1pbWFlJywgJ2xpZ2FuZF9wcm8ubWFlJywgJy1vbWFlJywgJ2xpZ2FuZF9wcmVwLm1hZScsICctbXMnLCAnMScsICctcGgnLCAnNycsICctcGh0JywgJzAuNScsICctbnQn

> <r_lp_tautomer_probability>
1

> <r_epik_Ionization_Penalty>
  0.0011

> <r_epik_Ionization_Penalty_Charging>
  0.0000

> <r_epik_Ionization_Penalty_Neutral>
  0.0011

> <r_epik_State_Penalty>
 -0.0000

> <r_epik_Charging_Adjusted_Penalty>
0

> <i_epik_Tot_Q>
0

> <i_epik_Tot_abs_Q>
0

$$$$
