4eu3_ligand
                    3D
 Schrodinger Suite 2020-3.
 18 17  0  0  1  0            999 V2000
  -19.2100  -27.2950  -30.9930 C   0  0  0  0  0  0
  -20.2970  -27.8200  -31.0560 O   0  0  0  0  0  0
  -18.2660  -27.6060  -31.8850 O   0  5  0  0  0  0
  -18.8910  -26.3170  -29.8920 C   0  0  0  0  0  0
  -20.1340  -25.5020  -29.5330 C   0  0  0  0  0  0
  -21.1290  -26.3860  -29.0070 O   0  0  0  0  0  0
  -19.7220  -24.4710  -28.4820 C   0  0  0  0  0  0
  -20.8670  -23.5990  -28.0420 C   0  0  0  0  0  0
  -21.9910  -23.7690  -28.4450 O   0  0  0  0  0  0
  -20.5950  -22.5570  -27.2620 O   0  5  0  0  0  0
  -20.6440  -24.7980  -30.7640 C   0  0  0  0  0  0
  -21.7590  -25.0060  -31.1790 O   0  0  0  0  0  0
  -19.8750  -23.8830  -31.3710 O   0  5  0  0  0  0
  -18.5507  -26.8657  -29.0014 H   0  0  0  0  0  0
  -18.0969  -25.6336  -30.2273 H   0  0  0  0  0  0
  -20.9165  -26.9791  -28.1053 H   0  0  0  0  0  0
  -19.3327  -24.9890  -27.5931 H   0  0  0  0  0  0
  -18.9409  -23.8168  -28.8966 H   0  0  0  0  0  0
  1  2  2  0  0  0
  1  3  1  0  0  0
  1  4  1  0  0  0
  4  5  1  0  0  0
  4 14  1  0  0  0
  4 15  1  0  0  0
  5  6  1  0  0  0
  5  7  1  0  0  0
  5 11  1  0  0  0
  6 16  1  0  0  0
  7  8  1  0  0  0
  7 17  1  0  0  0
  7 18  1  0  0  0
  8  9  2  0  0  0
  8 10  1  0  0  0
 11 12  2  0  0  0
 11 13  1  0  0  0
M  CHG  3   3  -1  10  -1  13  -1
M  END
> <s_m_source_file>
../4eu3_ligand.sdf

> <i_m_source_file_index>
1

> <s_epik_input>
Tz1DKFtPSF0pW0NIMl1DKFtPSF0pKEMoPU8pW09IXSlbQ0gyXUMoPU8pW09IXQ==

> <s_epik_cmdline>
J2VwaWtfYXBwJywgJy1pbWFlJywgJ2xpZ2FuZF9wcm8ubWFlJywgJy1vbWFlJywgJ2xpZ2FuZF9wcmVwLm1hZScsICctbXMnLCAnMScsICctcGgnLCAnNycsICctcGh0JywgJzAuNScsICctbnQn

> <r_lp_tautomer_probability>
1

> <r_epik_Ionization_Penalty>
  0.0046

> <r_epik_Ionization_Penalty_Charging>
  0.0046

> <r_epik_Ionization_Penalty_Neutral>
  0.0000

> <r_epik_State_Penalty>
 -0.0000

> <r_epik_Charging_Adjusted_Penalty>
0.0045906918398983

> <i_epik_Tot_Q>
-3

> <i_epik_Tot_abs_Q>
3

$$$$
