4euc_ligand
                    3D
 Schrodinger Suite 2020-3.
 87 89  0  0  1  0            999 V2000
   16.5040  -20.9920   38.1990 O   0  0  0  0  0  0
   18.2570  -22.8630   37.9760 O   0  0  0  0  0  0
   18.2230  -21.4010   39.9800 O   0  5  0  0  0  0
   16.4320  -23.1240   39.6190 O   0  5  0  0  0  0
   15.3390  -19.3090   36.1320 O   0  0  0  0  0  0
   13.5690  -21.2630   35.1610 O   0  0  0  0  0  0
   11.1880  -22.1480   35.1930 O   0  0  0  0  0  0
   13.0830  -23.7070   34.8090 O   0  5  0  0  0  0
   12.2390  -22.0730   33.0240 O   0  0  0  0  0  0
   14.1570  -23.1950   31.7280 O   0  5  0  0  0  0
   12.2090  -22.0290   30.6590 O   0  0  0  0  0  0
   14.0840  -20.7220   31.7810 O   0  0  0  0  0  0
   15.8680  -18.4730   31.9930 C   0  0  0  0  0  0
   14.0860  -17.0160   31.0320 C   0  0  0  0  0  0
   13.5790  -19.4530   31.5900 C   0  0  0  0  0  0
   15.1260  -18.9540   29.7110 C   0  0  2  0  0  0
   14.6610  -18.4530   31.0830 C   0  0  0  0  0  0
   14.6880  -19.1110   37.3490 C   0  0  2  0  0  0
   14.3200  -20.4800   37.8410 C   0  0  1  0  0  0
   15.3960  -21.2620   37.3600 C   0  0  1  0  0  0
   14.9850  -21.3670   35.0260 C   0  0  0  0  0  0
   17.3700  -22.1340   38.9520 P   0  0  0  0  0  0
   12.5510  -22.3140   34.5630 P   0  0  2  0  0  0
   13.1940  -22.0230   31.7710 P   0  0  1  0  0  0
   15.5340  -18.1100   21.2240 C   0  0  0  0  0  0
   15.0300  -17.8990   22.6530 C   0  0  0  0  0  0
   16.4460  -16.3020   27.2310 C   0  0  0  0  0  0
   16.9370  -16.7640   25.8930 C   0  0  0  0  0  0
   15.7610  -17.1080   25.0120 C   0  0  0  0  0  0
   16.0800  -17.9910   29.0490 C   0  0  0  0  0  0
   15.7420  -20.6670   36.0670 C   0  0  1  0  0  0
   14.0220  -19.0770   28.8540 O   0  0  0  0  0  0
   17.2160  -17.8090   29.4980 O   0  0  0  0  0  0
   14.6300  -17.0140   25.4500 O   0  0  0  0  0  0
   15.5910  -17.2620   27.9000 N   0  0  0  0  0  0
   16.0490  -17.5350   23.6620 N   0  0  0  0  0  0
   14.2750  -20.5030   39.2330 O   0  0  0  0  0  0
   13.4510  -15.5690   39.6710 C   0  0  0  0  0  0
   11.5510  -15.5840   38.3510 C   0  0  0  0  0  0
   12.0360  -16.7000   37.6670 C   0  0  0  0  0  0
   13.2670  -17.2270   38.0430 C   0  0  0  0  0  0
   12.4800  -18.4440   36.4120 C   0  0  0  0  0  0
   10.2830  -15.0030   38.0070 N   0  0  0  0  0  0
   12.2750  -15.0370   39.3450 N   0  0  0  0  0  0
   13.9400  -16.6430   39.0430 N   0  0  0  0  0  0
   13.5100  -18.2960   37.2520 N   0  0  0  0  0  0
   11.5750  -17.4720   36.6530 N   0  0  0  0  0  0
   16.6060  -19.1920   21.0810 C   0  0  0  0  0  0
   17.8630  -18.6830   21.7100 C   0  0  0  0  0  0
   17.9360  -17.5010   21.9520 O   0  0  0  0  0  0
   18.9710  -19.6360   22.0430 C   0  0  0  0  0  0
   15.5787  -18.1192   32.9936 H   0  0  0  0  0  0
   16.6476  -17.8145   31.5825 H   0  0  0  0  0  0
   16.2559  -19.4998   32.0651 H   0  0  0  0  0  0
   13.7701  -16.7115   32.0407 H   0  0  0  0  0  0
   13.2205  -16.9913   30.3536 H   0  0  0  0  0  0
   14.8590  -16.3246   30.6655 H   0  0  0  0  0  0
   12.7723  -19.4880   30.8430 H   0  0  0  0  0  0
   13.1814  -19.0696   32.5413 H   0  0  0  0  0  0
   15.5823  -19.9489   29.8201 H   0  0  0  0  0  0
   15.3769  -18.5322   37.9817 H   0  0  0  0  0  0
   13.3370  -20.8763   37.5466 H   0  0  0  0  0  0
   15.1500  -22.3340   37.3424 H   0  0  0  0  0  0
   15.2807  -22.4256   35.0695 H   0  0  0  0  0  0
   15.2937  -20.9394   34.0607 H   0  0  0  0  0  0
   14.6937  -18.4060   20.5788 H   0  0  0  0  0  0
   15.9730  -17.1741   20.8481 H   0  0  0  0  0  0
   14.2899  -17.0853   22.6644 H   0  0  0  0  0  0
   14.5620  -18.8254   23.0173 H   0  0  0  0  0  0
   17.3051  -16.1121   27.8913 H   0  0  0  0  0  0
   15.8657  -15.3755   27.1088 H   0  0  0  0  0  0
   17.5244  -15.9625   25.4213 H   0  0  0  0  0  0
   17.5694  -17.6548   26.0220 H   0  0  0  0  0  0
   16.8175  -20.7120   35.8406 H   0  0  0  0  0  0
   13.1839  -19.7349   29.1276 H   0  0  0  0  0  0
   14.5686  -17.4369   27.5338 H   0  0  0  0  0  0
   17.1177  -17.5794   23.4052 H   0  0  0  0  0  0
   13.4937  -19.9427   39.7674 H   0  0  0  0  0  0
   14.0324  -15.1154   40.4737 H   0  0  0  0  0  0
   12.3865  -19.2231   35.6555 H   0  0  0  0  0  0
    9.6799  -15.4389   37.1969 H   0  0  0  0  0  0
    9.9152  -14.1222   38.5537 H   0  0  0  0  0  0
   16.2716  -20.1088   21.5885 H   0  0  0  0  0  0
   16.7735  -19.4035   20.0146 H   0  0  0  0  0  0
   18.6856  -20.6524   21.7341 H   0  0  0  0  0  0
   19.1546  -19.6203   23.1275 H   0  0  0  0  0  0
   19.8859  -19.3346   21.5118 H   0  0  0  0  0  0
  1 20  1  0  0  0
  1 22  1  0  0  0
  2 22  2  0  0  0
  3 22  1  0  0  0
  4 22  1  0  0  0
  5 18  1  0  0  0
  5 31  1  0  0  0
  6 21  1  0  0  0
  6 23  1  0  0  0
  7 23  2  0  0  0
  8 23  1  0  0  0
  9 23  1  0  0  0
  9 24  1  0  0  0
 10 24  1  0  0  0
 11 24  2  0  0  0
 12 15  1  0  0  0
 12 24  1  0  0  0
 13 17  1  0  0  0
 13 52  1  0  0  0
 13 53  1  0  0  0
 13 54  1  0  0  0
 14 17  1  0  0  0
 14 55  1  0  0  0
 14 56  1  0  0  0
 14 57  1  0  0  0
 15 17  1  0  0  0
 15 58  1  0  0  0
 15 59  1  0  0  0
 16 17  1  0  0  0
 16 30  1  0  0  0
 16 32  1  0  0  0
 16 60  1  0  0  0
 18 19  1  0  0  0
 18 46  1  0  0  0
 18 61  1  0  0  0
 19 20  1  0  0  0
 19 37  1  0  0  0
 19 62  1  0  0  0
 20 31  1  0  0  0
 20 63  1  0  0  0
 21 31  1  0  0  0
 21 64  1  0  0  0
 21 65  1  0  0  0
 25 26  1  0  0  0
 25 48  1  0  0  0
 25 66  1  0  0  0
 25 67  1  0  0  0
 26 36  1  0  0  0
 26 68  1  0  0  0
 26 69  1  0  0  0
 27 28  1  0  0  0
 27 35  1  0  0  0
 27 70  1  0  0  0
 27 71  1  0  0  0
 28 29  1  0  0  0
 28 72  1  0  0  0
 28 73  1  0  0  0
 29 34  2  0  0  0
 29 36  1  0  0  0
 30 33  2  0  0  0
 30 35  1  0  0  0
 31 74  1  0  0  0
 32 75  1  0  0  0
 35 76  1  0  0  0
 36 77  1  0  0  0
 37 78  1  0  0  0
 38 44  2  0  0  0
 38 45  1  0  0  0
 38 79  1  0  0  0
 39 40  2  0  0  0
 39 43  1  0  0  0
 39 44  1  0  0  0
 40 41  1  0  0  0
 40 47  1  0  0  0
 41 45  2  0  0  0
 41 46  1  0  0  0
 42 46  1  0  0  0
 42 47  2  0  0  0
 42 80  1  0  0  0
 43 81  1  0  0  0
 43 82  1  0  0  0
 48 49  1  0  0  0
 48 83  1  0  0  0
 48 84  1  0  0  0
 49 50  2  0  0  0
 49 51  1  0  0  0
 51 85  1  0  0  0
 51 86  1  0  0  0
 51 87  1  0  0  0
M  CHG  4   3  -1   4  -1   8  -1  10  -1
M  END
> <s_m_source_file>
../4euc_ligand.sdf

> <i_m_source_file_index>
1

> <s_epik_input>
W05IMl1jMW5bY0hdbmMoYzEyKW4oW2NIXW4yKVtDQEBIXTNPW0NAQEhdKFtDQEhdKFtDQEhdM1tPSF0pT1AoPU8pKFtPSF0pW09IXSlbQ0gyXU9bUEBdKD1PKShbT0hdKU9bUEBdKD1PKShbT0hdKU9bQ0gyXUMoW0NIM10pKFtDSDNdKVtDQEBIXShbT0hdKUMoPU8pW05IXVtDSDJdW0NIMl1DKD1PKVtOSF1bQ0gyXVtDSDJdW0NIMl1DKD1PKVtDSDNd

> <s_epik_cmdline>
J2VwaWtfYXBwJywgJy1pbWFlJywgJ2xpZ2FuZF9wcm8ubWFlJywgJy1vbWFlJywgJ2xpZ2FuZF9wcmVwLm1hZScsICctbXMnLCAnMScsICctcGgnLCAnNycsICctcGh0JywgJzAuNScsICctbnQn

> <r_lp_tautomer_probability>
0.9999971864111

> <r_epik_Ionization_Penalty>
  0.0758

> <r_epik_Ionization_Penalty_Charging>
  0.0752

> <r_epik_Ionization_Penalty_Neutral>
  0.0006

> <r_epik_State_Penalty>
  0.0657

> <r_epik_Charging_Adjusted_Penalty>
0.140910501814439

> <i_epik_Tot_Q>
-4

> <i_epik_Tot_abs_Q>
4

> <s_epik_Chemistry_Notes>
This compound contains an acetal/aminal-like group ( X-CH(R)-Y where X, Y are N, S, or O) that may be acid/base labile, releasing an aldehyde.

$$$$
