4euv_ligand
                    3D
 Schrodinger Suite 2020-3.
 68 74  0  0  1  0            999 V2000
   16.5090    2.3420   14.0580 P   0  0  2  0  0  0
   17.8300    1.6950   14.3220 O   0  0  0  0  0  0
   16.1570    3.5850   14.8560 O   0  5  0  0  0  0
   15.4250    1.2000   14.2750 O   0  0  0  0  0  0
   15.6650   -0.1580   13.8950 C   0  0  0  0  0  0
   14.3440   -0.8850   14.0870 C   0  0  1  0  0  0
   14.1300   -1.0510   15.5130 O   0  0  0  0  0  0
   13.1330   -0.1060   13.5790 C   0  0  1  0  0  0
   12.7530   -0.4170   12.2350 O   0  0  0  0  0  0
   12.0230   -0.5990   14.4910 C   0  0  1  0  0  0
   11.4640   -1.8330   14.0270 O   0  0  0  0  0  0
   12.7350   -0.8400   15.7970 C   0  0  2  0  0  0
   12.5780    0.3770   16.6320 N   0  0  0  0  0  0
   13.5290    1.2820   16.9190 C   0  0  0  0  0  0
   13.0410    2.2540   17.7150 N   0  0  0  0  0  0
   11.7470    1.9680   17.9460 C   0  0  0  0  0  0
   10.6650    2.6100   18.7150 C   0  0  0  0  0  0
   10.9360    3.7550   19.4010 O   0  0  0  0  0  0
    9.4570    2.0170   18.7070 N   0  0  0  0  0  0
    9.2020    0.8600   18.0050 C   0  0  0  0  0  0
    7.9590    0.3360   18.0390 N   0  0  0  0  0  0
   10.1640    0.2050   17.2770 N   0  0  0  0  0  0
   11.4270    0.7360   17.2120 C   0  0  0  0  0  0
   12.0030    0.6680   11.3100 P   0  0  1  0  0  0
   11.8850   -0.0060    9.9570 O   0  0  0  0  0  0
   10.7370    1.1490   11.9920 O   0  5  0  0  0  0
   13.0220    1.9020   11.2070 O   0  0  0  0  0  0
   14.1810    1.8010   10.3780 C   0  0  0  0  0  0
   15.0200    3.0580   10.5190 C   0  0  1  0  0  0
   14.2870    4.1840   10.0600 O   0  0  0  0  0  0
   15.3330    3.4280   11.9630 C   0  0  1  0  0  0
   16.4380    2.7110   12.4900 O   0  0  0  0  0  0
   15.5620    4.9240   11.9260 C   0  0  1  0  0  0
   16.8810    5.2350   11.4440 O   0  0  0  0  0  0
   14.5530    5.3260   10.8770 C   0  0  2  0  0  0
   13.2720    5.7190   11.5270 N   0  0  0  0  0  0
   12.1330    4.9990   11.6380 C   0  0  0  0  0  0
   11.1780    5.7090   12.2820 N   0  0  0  0  0  0
   11.7140    6.9080   12.5710 C   0  0  0  0  0  0
   11.2850    8.1570   13.2280 C   0  0  0  0  0  0
   10.0370    8.3130   13.7410 O   0  0  0  0  0  0
   12.1680    9.1600   13.3410 N   0  0  0  0  0  0
   13.4200    9.0860   12.8380 C   0  0  0  0  0  0
   14.2350   10.1640   12.9700 N   0  0  0  0  0  0
   13.8950    7.9800   12.2190 N   0  0  0  0  0  0
   13.0900    6.9000   12.0620 C   0  0  0  0  0  0
   15.9894   -0.1929   12.8445 H   0  0  0  0  0  0
   16.4508   -0.5847   14.5357 H   0  0  0  0  0  0
   14.4189   -1.8499   13.5642 H   0  0  0  0  0  0
   13.3237    0.9761   13.5270 H   0  0  0  0  0  0
   11.1554    0.0755   14.5391 H   0  0  0  0  0  0
   10.9018   -1.8612   13.0819 H   0  0  0  0  0  0
   12.3616   -1.7251   16.3329 H   0  0  0  0  0  0
   14.5561    1.2362   16.5570 H   0  0  0  0  0  0
    8.6249    2.4562   19.2768 H   0  0  0  0  0  0
    7.1663    0.8374   18.6136 H   0  0  0  0  0  0
    7.7384   -0.5926   17.4922 H   0  0  0  0  0  0
   14.7762    0.9283   10.6847 H   0  0  0  0  0  0
   13.8722    1.6838    9.3287 H   0  0  0  0  0  0
   15.9225    2.8867    9.9140 H   0  0  0  0  0  0
   14.5616    3.1190   12.6838 H   0  0  0  0  0  0
   15.5092    5.4340   12.8992 H   0  0  0  0  0  0
   17.7603    5.0158   12.0675 H   0  0  0  0  0  0
   14.9356    6.1446   10.2497 H   0  0  0  0  0  0
   12.0020    3.9850   11.2603 H   0  0  0  0  0  0
   11.8833   10.0876   13.8591 H   0  0  0  0  0  0
   13.8684   11.0727   13.4698 H   0  0  0  0  0  0
   15.2618   10.1286   12.5771 H   0  0  0  0  0  0
  1  2  2  0  0  0
  1  3  1  0  0  0
  1  4  1  0  0  0
  1 32  1  0  0  0
  4  5  1  0  0  0
  5  6  1  0  0  0
  5 47  1  0  0  0
  5 48  1  0  0  0
  6  7  1  0  0  0
  6  8  1  0  0  0
  6 49  1  0  0  0
  7 12  1  0  0  0
  8  9  1  0  0  0
  8 10  1  0  0  0
  8 50  1  0  0  0
  9 24  1  0  0  0
 10 11  1  0  0  0
 10 12  1  0  0  0
 10 51  1  0  0  0
 11 52  1  0  0  0
 12 13  1  0  0  0
 12 53  1  0  0  0
 13 14  1  0  0  0
 13 23  1  0  0  0
 14 15  2  0  0  0
 14 54  1  0  0  0
 15 16  1  0  0  0
 16 17  1  0  0  0
 16 23  2  0  0  0
 17 18  2  0  0  0
 17 19  1  0  0  0
 19 20  1  0  0  0
 19 55  1  0  0  0
 20 21  1  0  0  0
 20 22  2  0  0  0
 21 56  1  0  0  0
 21 57  1  0  0  0
 22 23  1  0  0  0
 24 25  2  0  0  0
 24 26  1  0  0  0
 24 27  1  0  0  0
 27 28  1  0  0  0
 28 29  1  0  0  0
 28 58  1  0  0  0
 28 59  1  0  0  0
 29 30  1  0  0  0
 29 31  1  0  0  0
 29 60  1  0  0  0
 30 35  1  0  0  0
 31 32  1  0  0  0
 31 33  1  0  0  0
 31 61  1  0  0  0
 33 34  1  0  0  0
 33 35  1  0  0  0
 33 62  1  0  0  0
 34 63  1  0  0  0
 35 36  1  0  0  0
 35 64  1  0  0  0
 36 37  1  0  0  0
 36 46  1  0  0  0
 37 38  2  0  0  0
 37 65  1  0  0  0
 38 39  1  0  0  0
 39 40  1  0  0  0
 39 46  2  0  0  0
 40 41  2  0  0  0
 40 42  1  0  0  0
 42 43  1  0  0  0
 42 66  1  0  0  0
 43 44  1  0  0  0
 43 45  2  0  0  0
 44 67  1  0  0  0
 44 68  1  0  0  0
 45 46  1  0  0  0
M  CHG  2   3  -1  26  -1
M  END
> <s_m_source_file>
../4euv_ligand.sdf

> <i_m_source_file_index>
1

> <s_epik_input>
Tz1jMVtuSF1jKFtOSDJdKW5jKGMxMiluKFtjSF1uMilbQ0BIXShPMylbQ0BIXShbT0hdKVtDQEhdKE9bUEBAXSg9TykoW09IXSlPW0NIMl00KVtDQEhdM1tDSDJdT1tQQF0oPU8pKFtPSF0pT1tDQEhdKFtDQEBIXTQ1KVtDQEBIXShbT0hdKVtDQEBIXShPNSluKFtjSF1uNiljKGM2NyluYyhbTkgyXSlbbkhdYzc9Tw==

> <s_epik_cmdline>
J2VwaWtfYXBwJywgJy1pbWFlJywgJ2xpZ2FuZF9wcm8ubWFlJywgJy1vbWFlJywgJ2xpZ2FuZF9wcmVwLm1hZScsICctbXMnLCAnMScsICctcGgnLCAnNycsICctcGh0JywgJzAuNScsICctbnQn

> <r_lp_tautomer_probability>
1

> <r_epik_Ionization_Penalty>
  0.0042

> <r_epik_Ionization_Penalty_Charging>
  0.0040

> <r_epik_Ionization_Penalty_Neutral>
  0.0002

> <r_epik_State_Penalty>
 -0.0000

> <r_epik_Charging_Adjusted_Penalty>
0.00400193045734951

> <i_epik_Tot_Q>
-2

> <i_epik_Tot_abs_Q>
2

> <s_epik_Chemistry_Notes>
This compound contains an acetal/aminal-like group ( X-CH(R)-Y where X, Y are N, S, or O) that may be acid/base labile, releasing an aldehyde.

$$$$
