4ew3_ligand
                    3D
 Schrodinger Suite 2020-3.
 58 59  0  0  1  0            999 V2000
    1.3850   72.1720   88.2490 O   0  0  0  0  0  0
    1.0580   72.0550   89.4610 C   0  0  0  0  0  0
    0.0810   72.6600   90.0110 O   0  5  0  0  0  0
    1.9870   71.1120   90.3140 C   0  0  0  0  0  0
    3.1130   71.8660   91.0410 C   0  0  0  0  0  0
    3.6970   71.0780   92.2340 C   0  0  1  0  0  0
    3.8320   72.0260   93.4290 C   0  0  0  0  0  0
    2.9370   72.0280   94.2920 O   0  5  0  0  0  0
    4.8240   72.7690   93.4300 O   0  0  0  0  0  0
    2.9140   69.8680   92.5540 N   0  0  0  0  0  0
    3.5120   68.6940   92.6630 C   0  0  0  0  0  0
    4.7220   68.5420   92.4910 O   0  0  0  0  0  0
    2.6120   67.5360   92.9900 C   0  0  0  0  0  0
    1.2640   67.7350   93.1270 C   0  0  0  0  0  0
    0.4420   66.6520   93.4190 C   0  0  0  0  0  0
    3.1140   66.2620   93.1950 C   0  0  0  0  0  0
    2.2920   65.1800   93.5000 C   0  0  0  0  0  0
    0.9240   65.3720   93.6150 C   0  0  0  0  0  0
   -0.0370   64.2200   93.9680 C   0  0  2  0  0  0
   -0.9620   63.6800   92.4750 S   0  0  0  0  0  0
   -2.5730   64.4730   92.6570 C   0  0  0  0  0  0
   -1.0410   64.6150   95.1110 C   0  0  0  0  0  0
   -0.3750   64.5990   96.4780 C   0  0  0  0  0  0
   -1.3100   64.8650   97.6970 C   0  0  0  0  0  0
   -0.4470   65.6020   98.7030 C   0  0  0  0  0  0
    0.3350   64.8920   99.6200 C   0  0  0  0  0  0
    0.3200   63.6620   99.6640 O   0  0  0  0  0  0
    1.1220   65.5590  100.5110 N   0  0  0  0  0  0
    1.1870   66.9410  100.4900 C   0  0  0  0  0  0
    1.9870   67.5650  101.3430 N   0  0  0  0  0  0
    0.4370   67.6310   99.6050 N   0  0  0  0  0  0
   -0.3600   67.0030   98.7220 C   0  0  0  0  0  0
   -1.0760   67.7500   97.8490 N   0  0  0  0  0  0
    1.3852   70.5976   91.0776 H   0  0  0  0  0  0
    2.4577   70.3674   89.6552 H   0  0  0  0  0  0
    3.9353   72.0640   90.3377 H   0  0  0  0  0  0
    2.7249   72.8193   91.4291 H   0  0  0  0  0  0
    4.6806   70.6580   91.9769 H   0  0  0  0  0  0
    1.8266   69.9401   92.7032 H   0  0  0  0  0  0
    0.8398   68.7320   93.0084 H   0  0  0  0  0  0
   -0.6321   66.8207   93.4968 H   0  0  0  0  0  0
    4.1890   66.1005   93.1150 H   0  0  0  0  0  0
    2.7214   64.1890   93.6473 H   0  0  0  0  0  0
    0.6439   63.5116   94.4625 H   0  0  0  0  0  0
   -3.2107   64.2085   91.8006 H   0  0  0  0  0  0
   -2.4423   65.5646   92.6935 H   0  0  0  0  0  0
   -3.0478   64.1292   93.5878 H   0  0  0  0  0  0
   -1.4263   65.6286   94.9264 H   0  0  0  0  0  0
   -1.8782   63.9017   95.1264 H   0  0  0  0  0  0
    0.0809   63.6132   96.6522 H   0  0  0  0  0  0
    0.4038   65.3749   96.5156 H   0  0  0  0  0  0
   -2.1675   65.4743   97.3753 H   0  0  0  0  0  0
   -1.6712   63.9065   98.0981 H   0  0  0  0  0  0
    1.7102   64.9985  101.2525 H   0  0  0  0  0  0
    2.5902   66.9845  102.0565 H   0  0  0  0  0  0
   -1.7350   67.2599   97.1172 H   0  0  0  0  0  0
    2.0476   68.6633  101.3373 H   0  0  0  0  0  0
   -0.9988   68.8471   97.8715 H   0  0  0  0  0  0
  1  2  2  0  0  0
  2  3  1  0  0  0
  2  4  1  0  0  0
  4  5  1  0  0  0
  4 34  1  0  0  0
  4 35  1  0  0  0
  5  6  1  0  0  0
  5 36  1  0  0  0
  5 37  1  0  0  0
  6  7  1  0  0  0
  6 10  1  0  0  0
  6 38  1  0  0  0
  7  8  1  0  0  0
  7  9  2  0  0  0
 10 11  1  0  0  0
 10 39  1  0  0  0
 11 12  2  0  0  0
 11 13  1  0  0  0
 13 14  2  0  0  0
 13 16  1  0  0  0
 14 15  1  0  0  0
 14 40  1  0  0  0
 15 18  2  0  0  0
 15 41  1  0  0  0
 16 17  2  0  0  0
 16 42  1  0  0  0
 17 18  1  0  0  0
 17 43  1  0  0  0
 18 19  1  0  0  0
 19 20  1  0  0  0
 19 22  1  0  0  0
 19 44  1  0  0  0
 20 21  1  0  0  0
 21 45  1  0  0  0
 21 46  1  0  0  0
 21 47  1  0  0  0
 22 23  1  0  0  0
 22 48  1  0  0  0
 22 49  1  0  0  0
 23 24  1  0  0  0
 23 50  1  0  0  0
 23 51  1  0  0  0
 24 25  1  0  0  0
 24 52  1  0  0  0
 24 53  1  0  0  0
 25 26  1  0  0  0
 25 32  2  0  0  0
 26 27  2  0  0  0
 26 28  1  0  0  0
 28 29  1  0  0  0
 28 54  1  0  0  0
 29 30  1  0  0  0
 29 31  2  0  0  0
 30 55  1  0  0  0
 30 57  1  0  0  0
 31 32  1  0  0  0
 32 33  1  0  0  0
 33 56  1  0  0  0
 33 58  1  0  0  0
M  CHG  2   3  -1   8  -1
M  END
> <s_m_source_file>
../4ew3_ligand.sdf

> <i_m_source_file_index>
1

> <s_epik_input>
Tz1DKFtPSF0pW0NIMl1bQ0gyXVtDQEBIXShDKD1PKVtPSF0pW05IXUMoPU8pYzFbY0hdW2NIXWMoW2NIXVtjSF0xKVtDQEhdKFNbQ0gzXSlbQ0gyXVtDSDJdW0NIMl1bQ0hdMkMoPU8pW05IXS9DKD1OXFtIXSlbTkhdQ1wyPU5cW0hd

> <s_epik_cmdline>
J2VwaWtfYXBwJywgJy1pbWFlJywgJ2xpZ2FuZF9wcm8ubWFlJywgJy1vbWFlJywgJ2xpZ2FuZF9wcmVwLm1hZScsICctbXMnLCAnMScsICctcGgnLCAnNycsICctcGh0JywgJzAuNScsICctbnQn

> <r_lp_tautomer_probability>
1

> <r_epik_Ionization_Penalty>
  0.0049

> <r_epik_Ionization_Penalty_Charging>
  0.0047

> <r_epik_Ionization_Penalty_Neutral>
  0.0002

> <r_epik_State_Penalty>
 -0.0000

> <r_epik_Charging_Adjusted_Penalty>
0.00471476652355264

> <i_epik_Tot_Q>
-2

> <i_epik_Tot_abs_Q>
2

$$$$
