4ewo_ligand
                    3D
 Schrodinger Suite 2020-3.
 73 75  0  0  1  0            999 V2000
    7.4040    2.2460  -18.3460 O   0  0  0  0  0  0
    6.4500    1.5560  -17.8960 C   0  0  0  0  0  0
    6.6080    0.5340  -16.7480 C   0  0  0  0  0  0
    5.2140    1.6710  -18.3530 N   0  0  0  0  0  0
    4.8180    2.5500  -19.4940 C   0  0  1  0  0  0
    4.0930    1.6950  -20.5280 C   0  0  0  0  0  0
    4.9370    0.4930  -21.0110 C   0  0  0  0  0  0
    6.3210    0.5690  -21.2330 C   0  0  0  0  0  0
    7.0220   -0.6210  -21.6200 C   0  0  0  0  0  0
    6.3180   -1.8200  -21.8300 C   0  0  0  0  0  0
    4.9540   -1.8680  -21.5800 C   0  0  0  0  0  0
    4.2360   -0.7120  -21.1990 C   0  0  0  0  0  0
    3.9280    3.6970  -18.9380 C   0  0  2  0  0  0
    3.5530    4.6330  -19.9890 O   0  0  0  0  0  0
    4.7380    4.4890  -17.8860 C   0  0  0  0  0  0
    3.9380    5.6150  -17.4350 N   0  3  0  0  0  0
    4.6650    6.7960  -16.9890 C   0  0  2  0  0  0
    5.6100    7.3270  -18.0230 C   0  0  0  0  0  0
    6.9880    7.7180  -17.7730 C   0  0  0  0  0  0
    7.6050    7.5980  -16.3910 C   0  0  0  0  0  0
    6.4660    7.5670  -15.3380 C   0  0  0  0  0  0
    5.8280    8.9490  -15.1610 C   0  0  0  0  0  0
    7.1650    7.2050  -14.0090 C   0  0  0  0  0  0
    5.5600    6.3810  -15.7520 C   0  0  0  0  0  0
    7.5310    8.1470  -18.9500 N   0  0  0  0  0  0
    6.4910    8.0310  -19.8920 N   0  0  0  0  0  0
    5.2990    7.5440  -19.3850 C   0  0  0  0  0  0
    6.8770    8.4540  -21.2270 C   0  0  0  0  0  0
    6.5120    9.8980  -21.5670 C   0  0  0  0  0  0
    5.0190   10.1980  -21.3010 C   0  0  0  0  0  0
    7.3990   10.8770  -20.7310 C   0  0  0  0  0  0
    6.7760   10.0770  -23.0570 C   0  0  0  0  0  0
    7.6602    0.5008  -16.4289 H   0  0  0  0  0  0
    6.2995   -0.4619  -17.0987 H   0  0  0  0  0  0
    5.9768    0.8356  -15.8991 H   0  0  0  0  0  0
    4.4549    1.0659  -17.8356 H   0  0  0  0  0  0
    5.7080    2.9786  -19.9780 H   0  0  0  0  0  0
    3.1647    1.2990  -20.0904 H   0  0  0  0  0  0
    3.8507    2.3098  -21.4073 H   0  0  0  0  0  0
    6.8522    1.5133  -21.1137 H   0  0  0  0  0  0
    8.1037   -0.5958  -21.7517 H   0  0  0  0  0  0
    6.8410   -2.7071  -22.1873 H   0  0  0  0  0  0
    4.4258   -2.8163  -21.6795 H   0  0  0  0  0  0
    3.1566   -0.7534  -21.0532 H   0  0  0  0  0  0
    2.9874    3.2846  -18.5440 H   0  0  0  0  0  0
    2.9649    4.2852  -20.8511 H   0  0  0  0  0  0
    4.9740    3.8331  -17.0351 H   0  0  0  0  0  0
    5.6723    4.8517  -18.3395 H   0  0  0  0  0  0
    3.2889    5.9555  -18.2552 H   0  0  0  0  0  0
    3.3177    5.3054  -16.5809 H   0  0  0  0  0  0
    3.8799    7.5472  -16.8176 H   0  0  0  0  0  0
    8.1938    6.6707  -16.3316 H   0  0  0  0  0  0
    8.2611    8.4614  -16.2061 H   0  0  0  0  0  0
    6.6009    9.6749  -14.8682 H   0  0  0  0  0  0
    5.0565    8.8992  -14.3785 H   0  0  0  0  0  0
    5.3686    9.2649  -16.1092 H   0  0  0  0  0  0
    7.8143    8.0366  -13.6978 H   0  0  0  0  0  0
    7.7721    6.2984  -14.1491 H   0  0  0  0  0  0
    6.4064    7.0221  -13.2337 H   0  0  0  0  0  0
    4.9122    6.1060  -14.9066 H   0  0  0  0  0  0
    6.1892    5.5215  -16.0265 H   0  0  0  0  0  0
    4.3568    7.3711  -19.9052 H   0  0  0  0  0  0
    7.9678    8.3662  -21.3384 H   0  0  0  0  0  0
    6.3798    7.8155  -21.9721 H   0  0  0  0  0  0
    4.8056   10.0746  -20.2290 H   0  0  0  0  0  0
    4.3960    9.5016  -21.8815 H   0  0  0  0  0  0
    4.7931   11.2312  -21.6033 H   0  0  0  0  0  0
    7.1945   10.7330  -19.6598 H   0  0  0  0  0  0
    7.1657   11.9144  -21.0126 H   0  0  0  0  0  0
    8.4609   10.6724  -20.9324 H   0  0  0  0  0  0
    6.1438    9.3808  -23.6276 H   0  0  0  0  0  0
    7.8350    9.8687  -23.2693 H   0  0  0  0  0  0
    6.5398   11.1107  -23.3496 H   0  0  0  0  0  0
  1  2  2  0  0  0
  2  3  1  0  0  0
  2  4  1  0  0  0
  3 33  1  0  0  0
  3 34  1  0  0  0
  3 35  1  0  0  0
  4  5  1  0  0  0
  4 36  1  0  0  0
  5  6  1  0  0  0
  5 13  1  0  0  0
  5 37  1  0  0  0
  6  7  1  0  0  0
  6 38  1  0  0  0
  6 39  1  0  0  0
  7  8  2  0  0  0
  7 12  1  0  0  0
  8  9  1  0  0  0
  8 40  1  0  0  0
  9 10  2  0  0  0
  9 41  1  0  0  0
 10 11  1  0  0  0
 10 42  1  0  0  0
 11 12  2  0  0  0
 11 43  1  0  0  0
 12 44  1  0  0  0
 13 14  1  0  0  0
 13 15  1  0  0  0
 13 45  1  0  0  0
 14 46  1  0  0  0
 15 16  1  0  0  0
 15 47  1  0  0  0
 15 48  1  0  0  0
 16 17  1  0  0  0
 16 49  1  0  0  0
 16 50  1  0  0  0
 17 18  1  0  0  0
 17 24  1  0  0  0
 17 51  1  0  0  0
 18 19  1  0  0  0
 18 27  2  0  0  0
 19 20  1  0  0  0
 19 25  2  0  0  0
 20 21  1  0  0  0
 20 52  1  0  0  0
 20 53  1  0  0  0
 21 22  1  0  0  0
 21 23  1  0  0  0
 21 24  1  0  0  0
 22 54  1  0  0  0
 22 55  1  0  0  0
 22 56  1  0  0  0
 23 57  1  0  0  0
 23 58  1  0  0  0
 23 59  1  0  0  0
 24 60  1  0  0  0
 24 61  1  0  0  0
 25 26  1  0  0  0
 26 27  1  0  0  0
 26 28  1  0  0  0
 27 62  1  0  0  0
 28 29  1  0  0  0
 28 63  1  0  0  0
 28 64  1  0  0  0
 29 30  1  0  0  0
 29 31  1  0  0  0
 29 32  1  0  0  0
 30 65  1  0  0  0
 30 66  1  0  0  0
 30 67  1  0  0  0
 31 68  1  0  0  0
 31 69  1  0  0  0
 31 70  1  0  0  0
 32 71  1  0  0  0
 32 72  1  0  0  0
 32 73  1  0  0  0
M  CHG  1  16   1
M  END
> <s_m_source_file>
../4ewo_ligand.sdf

> <i_m_source_file_index>
1

> <s_epik_input>
W2NIXTFbY0hdW2NIXVtjSF1bY0hdYzFbQ0gyXVtDQEhdKFtOSF1DKD1PKVtDSDNdKVtDQEhdKFtPSF0pW0NIMl1bTkgyK11bQ0BIXTJbQ0gyXUMoW0NIM10pKFtDSDNdKVtDSDJdYyhjMjMpbm4oW2NIXTMpW0NIMl1DKFtDSDNdKShbQ0gzXSlbQ0gzXQ==

> <s_epik_cmdline>
J2VwaWtfYXBwJywgJy1pbWFlJywgJ2xpZ2FuZF9wcm8ubWFlJywgJy1vbWFlJywgJ2xpZ2FuZF9wcmVwLm1hZScsICctbXMnLCAnMScsICctcGgnLCAnNycsICctcGh0JywgJzAuNScsICctbnQn

> <r_lp_tautomer_probability>
1

> <r_epik_Ionization_Penalty>
  0.0186

> <r_epik_Ionization_Penalty_Charging>
  0.0186

> <r_epik_Ionization_Penalty_Neutral>
  0.0000

> <r_epik_State_Penalty>
  0.0148

> <r_epik_Charging_Adjusted_Penalty>
0.0333771208632814

> <i_epik_Tot_Q>
1

> <i_epik_Tot_abs_Q>
1

$$$$
