4ewr_ligand
                    3D
 Schrodinger Suite 2020-3.
133133  0  0  1  0            999 V2000
  -11.1560  -35.1590  -11.1850 N   0  3  0  0  0  0
  -11.3480  -35.6370  -12.5540 C   0  0  2  0  0  0
  -11.9210  -34.5510  -13.4620 C   0  0  0  0  0  0
  -11.7000  -34.5650  -14.6720 O   0  0  0  0  0  0
  -12.2370  -36.8740  -12.5730 C   0  0  0  0  0  0
  -12.6670  -33.6160  -12.8800 N   0  0  0  0  0  0
  -13.1420  -32.4580  -13.6330 C   0  0  2  0  0  0
  -12.0730  -31.3760  -13.6870 C   0  0  0  0  0  0
  -12.1350  -30.4890  -14.5350 O   0  0  0  0  0  0
  -14.4110  -31.8350  -13.0270 C   0  0  2  0  0  0
  -14.1230  -31.3650  -11.7020 O   0  0  0  0  0  0
  -15.5540  -32.8520  -12.9940 C   0  0  0  0  0  0
  -11.1060  -31.4380  -12.7710 N   0  0  0  0  0  0
   -9.9640  -30.5440  -12.8370 C   0  0  0  0  0  0
   -9.8590  -29.4680  -11.7670 C   0  0  0  0  0  0
   -8.8000  -28.8850  -11.5960 O   0  0  0  0  0  0
  -10.9460  -29.1620  -11.0700 N   0  0  0  0  0  0
  -10.8530  -28.2630   -9.9120 C   0  0  2  0  0  0
  -11.7490  -28.7420   -8.7840 C   0  0  0  0  0  0
  -12.7510  -29.4160   -9.0270 O   0  0  0  0  0  0
  -11.2220  -26.8250  -10.2700 C   0  0  0  0  0  0
  -12.6320  -26.6690  -10.3700 O   0  0  0  0  0  0
  -11.3970  -28.3890   -7.5520 N   0  0  0  0  0  0
  -12.2030  -28.8000   -6.4120 C   0  0  2  0  0  0
  -13.6500  -28.3090   -6.5310 C   0  0  0  0  0  0
  -14.5910  -29.0660   -6.2800 O   0  0  0  0  0  0
  -11.5580  -28.3410   -5.0970 C   0  0  0  0  0  0
  -13.8500  -27.0610   -6.9400 N   0  0  0  0  0  0
  -15.2170  -26.5630   -7.0350 C   0  0  2  0  0  0
  -16.0390  -27.2670   -8.1180 C   0  0  0  0  0  0
  -17.2190  -27.5410   -7.9180 O   0  0  0  0  0  0
  -15.2550  -25.0520   -7.2460 C   0  0  0  0  0  0
  -16.6640  -24.4810   -7.0760 C   0  0  0  0  0  0
  -16.7090  -22.9860   -7.3010 C   0  0  0  0  0  0
  -15.8440  -22.2570   -6.3760 N   0  0  0  0  0  0
  -16.2520  -21.7500   -5.2150 C   0  0  0  0  0  0
  -17.5150  -21.8880   -4.8250 N   0  3  0  0  0  0
  -15.3940  -21.0900   -4.4430 N   0  0  0  0  0  0
  -15.4380  -27.5570   -9.2670 N   0  0  0  0  0  0
  -16.2120  -28.2060  -10.3280 C   0  0  2  0  0  0
  -16.4310  -29.6940  -10.0600 C   0  0  0  0  0  0
  -17.2770  -30.3250  -10.7040 O   0  0  0  0  0  0
  -15.5790  -27.9810  -11.7050 C   0  0  0  0  0  0
  -14.2580  -28.4950  -11.7750 O   0  0  0  0  0  0
  -15.6890  -30.2520   -9.1040 N   0  0  0  0  0  0
  -15.8560  -31.6620   -8.7370 C   0  0  2  0  0  0
  -17.0680  -31.8720   -7.8350 C   0  0  0  0  0  0
  -17.7260  -32.9150   -7.8960 O   0  0  0  0  0  0
  -14.6050  -32.1930   -8.0340 C   0  0  0  0  0  0
  -14.4860  -33.7160   -8.0250 C   0  0  0  0  0  0
  -14.0530  -34.2900   -9.3710 C   0  0  0  0  0  0
  -13.9710  -35.5310   -9.4830 O   0  0  0  0  0  0
  -13.7950  -33.5070  -10.3090 O   0  5  0  0  0  0
  -17.3650  -30.8860   -6.9930 N   0  0  0  0  0  0
  -18.4780  -31.0070   -6.0730 C   0  0  0  0  0  0
  -18.1370  -31.7050   -4.7740 C   0  0  0  0  0  0
  -17.0520  -32.2780   -4.6250 O   0  0  0  0  0  0
  -19.0810  -31.6510   -3.8370 N   0  0  0  0  0  0
  -18.9160  -32.2250   -2.5030 C   0  0  2  0  0  0
  -18.5780  -33.7130   -2.5710 C   0  0  0  0  0  0
  -19.2270  -34.4720   -3.2910 O   0  0  0  0  0  0
  -20.1880  -32.0010   -1.6750 C   0  0  0  0  0  0
  -20.1480  -32.6210   -0.2900 C   0  0  0  0  0  0
  -19.6840  -31.9010    0.8060 C   0  0  0  0  0  0
  -20.5720  -33.9300   -0.0820 C   0  0  0  0  0  0
  -19.6460  -32.4660    2.0680 C   0  0  0  0  0  0
  -20.5320  -34.5050    1.1730 C   0  0  0  0  0  0
  -20.0710  -33.7650    2.2440 C   0  0  0  0  0  0
  -20.0330  -34.3320    3.4980 O   0  0  0  0  0  0
  -17.6254  -34.1682   -1.8833 O   0  5  0  0  0  0
  -10.5123  -34.2670  -11.1950 H   0  0  0  0  0  0
  -10.6798  -35.9481  -10.5845 H   0  0  0  0  0  0
  -12.1314  -34.9024  -10.7460 H   0  0  0  0  0  0
  -10.3385  -35.8969  -12.9053 H   0  0  0  0  0  0
  -11.8085  -37.6436  -11.9142 H   0  0  0  0  0  0
  -12.3006  -37.2641  -13.5995 H   0  0  0  0  0  0
  -13.2438  -36.6074  -12.2190 H   0  0  0  0  0  0
  -12.9253  -33.7240  -11.8162 H   0  0  0  0  0  0
  -13.3519  -32.8754  -14.6289 H   0  0  0  0  0  0
  -14.7248  -30.9481  -13.5970 H   0  0  0  0  0  0
  -13.3246  -30.6253  -11.5422 H   0  0  0  0  0  0
  -15.7626  -33.2024  -14.0156 H   0  0  0  0  0  0
  -16.4550  -32.3776  -12.5779 H   0  0  0  0  0  0
  -15.2659  -33.7070  -12.3648 H   0  0  0  0  0  0
  -11.1801  -32.1765  -11.9592 H   0  0  0  0  0  0
   -9.0356  -31.1286  -12.7569 H   0  0  0  0  0  0
   -9.9758  -30.0042  -13.7953 H   0  0  0  0  0  0
  -11.9190  -29.5840  -11.3620 H   0  0  0  0  0  0
   -9.7963  -28.3097   -9.6101 H   0  0  0  0  0  0
  -10.8469  -26.1453   -9.4907 H   0  0  0  0  0  0
  -10.7689  -26.5600  -11.2367 H   0  0  0  0  0  0
  -13.0603  -25.6877  -10.6222 H   0  0  0  0  0  0
  -10.4920  -27.7835   -7.3960 H   0  0  0  0  0  0
  -12.2062  -29.8991   -6.4572 H   0  0  0  0  0  0
  -10.5233  -28.7111   -5.0474 H   0  0  0  0  0  0
  -12.1317  -28.7411   -4.2480 H   0  0  0  0  0  0
  -11.5568  -27.2419   -5.0533 H   0  0  0  0  0  0
  -13.0065  -26.4064   -7.2048 H   0  0  0  0  0  0
  -15.6338  -26.8170   -6.0492 H   0  0  0  0  0  0
  -14.5970  -24.5627   -6.5128 H   0  0  0  0  0  0
  -14.9104  -24.8150   -8.2634 H   0  0  0  0  0  0
  -17.3417  -24.9550   -7.8013 H   0  0  0  0  0  0
  -17.0206  -24.6825   -6.0551 H   0  0  0  0  0  0
  -16.3783  -22.7593   -8.3253 H   0  0  0  0  0  0
  -17.7383  -22.6247   -7.1596 H   0  0  0  0  0  0
  -14.7838  -22.0990   -6.6231 H   0  0  0  0  0  0
  -18.2300  -22.4329   -5.4590 H   0  0  0  0  0  0
  -14.3472  -20.9722   -4.7599 H   0  0  0  0  0  0
  -15.7309  -20.6618   -3.4874 H   0  0  0  0  0  0
  -14.3766  -27.3175   -9.4284 H   0  0  0  0  0  0
  -17.1886  -27.7013  -10.2885 H   0  0  0  0  0  0
  -16.1840  -28.4846  -12.4733 H   0  0  0  0  0  0
  -15.5390  -26.9026  -11.9184 H   0  0  0  0  0  0
  -13.6808  -28.4034  -12.7069 H   0  0  0  0  0  0
  -14.9401  -29.6341   -8.5869 H   0  0  0  0  0  0
  -16.0153  -32.1794   -9.6945 H   0  0  0  0  0  0
  -13.7081  -31.8037   -8.5380 H   0  0  0  0  0  0
  -14.6072  -31.8648   -6.9841 H   0  0  0  0  0  0
  -13.7395  -34.0210   -7.2768 H   0  0  0  0  0  0
  -15.4608  -34.1585   -7.7719 H   0  0  0  0  0  0
  -16.7546  -29.9710   -7.0004 H   0  0  0  0  0  0
  -18.8492  -30.0048   -5.8127 H   0  0  0  0  0  0
  -19.2848  -31.5850   -6.5475 H   0  0  0  0  0  0
  -20.0199  -31.1448   -4.1056 H   0  0  0  0  0  0
  -18.0640  -31.6901   -2.0580 H   0  0  0  0  0  0
  -20.3524  -30.9217   -1.5401 H   0  0  0  0  0  0
  -21.0492  -32.4403   -2.1998 H   0  0  0  0  0  0
  -19.3447  -30.8744    0.6680 H   0  0  0  0  0  0
  -20.9427  -34.5124   -0.9255 H   0  0  0  0  0  0
  -19.2824  -31.8877    2.9174 H   0  0  0  0  0  0
  -20.8614  -35.5340    1.3170 H   0  0  0  0  0  0
  -19.6668  -33.7476    4.3550 H   0  0  0  0  0  0
  -17.8454  -21.4573   -3.8682 H   0  0  0  0  0  0
  1  2  1  0  0  0
  1 71  1  0  0  0
  1 72  1  0  0  0
  1 73  1  0  0  0
  2  3  1  0  0  0
  2  5  1  0  0  0
  2 74  1  0  0  0
  3  4  2  0  0  0
  3  6  1  0  0  0
  5 75  1  0  0  0
  5 76  1  0  0  0
  5 77  1  0  0  0
  6  7  1  0  0  0
  6 78  1  0  0  0
  7  8  1  0  0  0
  7 10  1  0  0  0
  7 79  1  0  0  0
  8  9  2  0  0  0
  8 13  1  0  0  0
 10 11  1  0  0  0
 10 12  1  0  0  0
 10 80  1  0  0  0
 11 81  1  0  0  0
 12 82  1  0  0  0
 12 83  1  0  0  0
 12 84  1  0  0  0
 13 14  1  0  0  0
 13 85  1  0  0  0
 14 15  1  0  0  0
 14 86  1  0  0  0
 14 87  1  0  0  0
 15 16  2  0  0  0
 15 17  1  0  0  0
 17 18  1  0  0  0
 17 88  1  0  0  0
 18 19  1  0  0  0
 18 21  1  0  0  0
 18 89  1  0  0  0
 19 20  2  0  0  0
 19 23  1  0  0  0
 21 22  1  0  0  0
 21 90  1  0  0  0
 21 91  1  0  0  0
 22 92  1  0  0  0
 23 24  1  0  0  0
 23 93  1  0  0  0
 24 25  1  0  0  0
 24 27  1  0  0  0
 24 94  1  0  0  0
 25 26  2  0  0  0
 25 28  1  0  0  0
 27 95  1  0  0  0
 27 96  1  0  0  0
 27 97  1  0  0  0
 28 29  1  0  0  0
 28 98  1  0  0  0
 29 30  1  0  0  0
 29 32  1  0  0  0
 29 99  1  0  0  0
 30 31  2  0  0  0
 30 39  1  0  0  0
 32 33  1  0  0  0
 32100  1  0  0  0
 32101  1  0  0  0
 33 34  1  0  0  0
 33102  1  0  0  0
 33103  1  0  0  0
 34 35  1  0  0  0
 34104  1  0  0  0
 34105  1  0  0  0
 35 36  1  0  0  0
 35106  1  0  0  0
 36 37  2  0  0  0
 36 38  1  0  0  0
 37107  1  0  0  0
 37133  1  0  0  0
 38108  1  0  0  0
 38109  1  0  0  0
 39 40  1  0  0  0
 39110  1  0  0  0
 40 41  1  0  0  0
 40 43  1  0  0  0
 40111  1  0  0  0
 41 42  2  0  0  0
 41 45  1  0  0  0
 43 44  1  0  0  0
 43112  1  0  0  0
 43113  1  0  0  0
 44114  1  0  0  0
 45 46  1  0  0  0
 45115  1  0  0  0
 46 47  1  0  0  0
 46 49  1  0  0  0
 46116  1  0  0  0
 47 48  2  0  0  0
 47 54  1  0  0  0
 49 50  1  0  0  0
 49117  1  0  0  0
 49118  1  0  0  0
 50 51  1  0  0  0
 50119  1  0  0  0
 50120  1  0  0  0
 51 52  2  0  0  0
 51 53  1  0  0  0
 54 55  1  0  0  0
 54121  1  0  0  0
 55 56  1  0  0  0
 55122  1  0  0  0
 55123  1  0  0  0
 56 57  2  0  0  0
 56 58  1  0  0  0
 58 59  1  0  0  0
 58124  1  0  0  0
 59 60  1  0  0  0
 59 62  1  0  0  0
 59125  1  0  0  0
 60 61  2  0  0  0
 60 70  1  0  0  0
 62 63  1  0  0  0
 62126  1  0  0  0
 62127  1  0  0  0
 63 64  2  0  0  0
 63 65  1  0  0  0
 64 66  1  0  0  0
 64128  1  0  0  0
 65 67  2  0  0  0
 65129  1  0  0  0
 66 68  2  0  0  0
 66130  1  0  0  0
 67 68  1  0  0  0
 67131  1  0  0  0
 68 69  1  0  0  0
 69132  1  0  0  0
M  CHG  4   1   1  37   1  53  -1  70  -1
M  END
> <s_m_source_file>
../4ewr_ligand.sdf

> <i_m_source_file_index>
1

> <s_epik_input>
W05IMytdW0NAQEhdKFtDSDNdKUMoPU8pW05IXVtDQEBIXShbQ0BIXShbT0hdKVtDSDNdKUMoPU8pW05IXVtDSDJdQyg9TylbTkhdW0NAQEhdKFtDSDJdW09IXSlDKD1PKVtOSF1bQ0BASF0oW0NIM10pQyg9TylbTkhdW0NAQEhdKFtDSDJdW0NIMl1bQ0gyXVtOSF0vQyg9TlxbSF0pW05IMl0pQyg9TylbTkhdW0NAQEhdKFtDSDJdW09IXSlDKD1PKVtOSF1bQ0BASF0oW0NIMl1bQ0gyXUMoPU8pW09IXSlDKD1PKVtOSF1bQ0gyXUMoPU8pW05IXVtDQEhdKEMoPU8pW09IXSlbQ0gyXWMxW2NIXVtjSF1jKFtPSF0pW2NIXVtjSF0x

> <s_epik_cmdline>
J2VwaWtfYXBwJywgJy1pbWFlJywgJ2xpZ2FuZF9wcm8ubWFlJywgJy1vbWFlJywgJ2xpZ2FuZF9wcmVwLm1hZScsICctbXMnLCAnMScsICctcGgnLCAnNycsICctcGh0JywgJzAuNScsICctbnQn

> <r_lp_tautomer_probability>
0.999999999997365

> <r_epik_Ionization_Penalty>
  0.1292

> <r_epik_Ionization_Penalty_Charging>
  0.1285

> <r_epik_Ionization_Penalty_Neutral>
  0.0007

> <r_epik_State_Penalty>
  0.1160

> <r_epik_Charging_Adjusted_Penalty>
0.244518357426701

> <i_epik_Tot_Q>
0

> <i_epik_Tot_abs_Q>
4

> <s_epik_Chemistry_Notes>
This compound has an imine and may undergo hydrolysis.

$$$$
