4exg_ligand
                    3D
 Schrodinger Suite 2020-3.
 71 73  0  0  1  0            999 V2000
    7.3340    2.3220  -18.3080 O   0  0  0  0  0  0
    6.4180    1.6320  -17.8900 C   0  0  0  0  0  0
    6.7000    0.6360  -16.7630 C   0  0  0  0  0  0
    5.1800    1.6990  -18.4330 N   0  0  0  0  0  0
    4.9170    2.6490  -19.5630 C   0  0  1  0  0  0
    4.1880    1.7900  -20.5780 C   0  0  0  0  0  0
    4.9930    0.5970  -21.0730 C   0  0  0  0  0  0
    4.3290   -0.6260  -21.2780 C   0  0  0  0  0  0
    5.0650   -1.7310  -21.7440 C   0  0  0  0  0  0
    6.4440   -1.6530  -21.9750 C   0  0  0  0  0  0
    7.1070   -0.4380  -21.7280 C   0  0  0  0  0  0
    6.3850    0.6940  -21.2930 C   0  0  0  0  0  0
    4.0200    3.7910  -19.0140 C   0  0  2  0  0  0
    3.6260    4.7010  -20.0540 O   0  0  0  0  0  0
    4.8010    4.6050  -17.9820 C   0  0  0  0  0  0
    3.9550    5.6850  -17.5260 N   0  3  0  0  0  0
    4.5870    6.9280  -17.0110 C   0  0  1  0  0  0
    5.3230    6.5480  -15.7140 C   0  0  0  0  0  0
    6.3220    7.6450  -15.2470 C   0  0  0  0  0  0
    6.9700    7.1250  -13.9510 C   0  0  0  0  0  0
    5.6110    9.0150  -15.1020 C   0  0  0  0  0  0
    5.6250    7.4140  -17.9440 C   0  0  0  0  0  0
    5.3720    7.5350  -19.3720 C   0  0  0  0  0  0
    6.5850    7.9970  -19.9910 C   0  0  0  0  0  0
    7.9130    8.2310  -18.8370 S   0  0  0  0  0  0
    6.9700    7.7880  -17.5310 C   0  0  0  0  0  0
    7.3760    7.7630  -16.2290 O   0  0  0  0  0  0
    6.8860    8.3020  -21.4460 C   0  0  0  0  0  0
    6.5530    9.7440  -21.8420 C   0  0  0  0  0  0
    7.4150   10.7820  -21.0870 C   0  0  0  0  0  0
    5.1020   10.0610  -21.5220 C   0  0  0  0  0  0
    6.7540    9.9560  -23.3370 C   0  0  0  0  0  0
    7.7509    0.7241  -16.4503 H   0  0  0  0  0  0
    6.5083   -0.3864  -17.1207 H   0  0  0  0  0  0
    6.0435    0.8544  -15.9079 H   0  0  0  0  0  0
    4.3692    1.0618  -18.0501 H   0  0  0  0  0  0
    5.8222    3.0920  -20.0040 H   0  0  0  0  0  0
    3.2654    1.3944  -20.1283 H   0  0  0  0  0  0
    3.9350    2.3983  -21.4589 H   0  0  0  0  0  0
    3.2611   -0.7163  -21.0790 H   0  0  0  0  0  0
    4.5482   -2.6725  -21.9301 H   0  0  0  0  0  0
    6.9944   -2.5200  -22.3403 H   0  0  0  0  0  0
    8.1851   -0.3699  -21.8733 H   0  0  0  0  0  0
    6.9000    1.6403  -21.1273 H   0  0  0  0  0  0
    3.0882    3.3686  -18.6098 H   0  0  0  0  0  0
    3.0461    4.3353  -20.9142 H   0  0  0  0  0  0
    5.0766    3.9574  -17.1366 H   0  0  0  0  0  0
    5.7125    5.0087  -18.4470 H   0  0  0  0  0  0
    3.3149    6.0239  -18.3539 H   0  0  0  0  0  0
    3.3250    5.3320  -16.6962 H   0  0  0  0  0  0
    3.8109    7.7007  -16.9084 H   0  0  0  0  0  0
    4.5902    6.3947  -14.9081 H   0  0  0  0  0  0
    5.8920    5.6202  -15.8736 H   0  0  0  0  0  0
    6.1999    7.0198  -13.1726 H   0  0  0  0  0  0
    7.7375    7.8370  -13.6136 H   0  0  0  0  0  0
    7.4356    6.1466  -14.1408 H   0  0  0  0  0  0
    4.8069    8.9336  -14.3559 H   0  0  0  0  0  0
    5.1832    9.3105  -16.0714 H   0  0  0  0  0  0
    6.3385    9.7729  -14.7759 H   0  0  0  0  0  0
    4.4332    7.3153  -19.8803 H   0  0  0  0  0  0
    7.9571    8.1433  -21.6399 H   0  0  0  0  0  0
    6.2940    7.6355  -22.0904 H   0  0  0  0  0  0
    7.2853   10.6474  -20.0030 H   0  0  0  0  0  0
    7.0993   11.7968  -21.3708 H   0  0  0  0  0  0
    8.4736   10.6403  -21.3500 H   0  0  0  0  0  0
    4.9239    9.9170  -20.4461 H   0  0  0  0  0  0
    4.4451    9.3903  -22.0954 H   0  0  0  0  0  0
    4.8865   11.1051  -21.7929 H   0  0  0  0  0  0
    7.7983    9.7339  -23.6017 H   0  0  0  0  0  0
    6.5251   11.0010  -23.5932 H   0  0  0  0  0  0
    6.0837    9.2862  -23.8957 H   0  0  0  0  0  0
  1  2  2  0  0  0
  2  3  1  0  0  0
  2  4  1  0  0  0
  3 33  1  0  0  0
  3 34  1  0  0  0
  3 35  1  0  0  0
  4  5  1  0  0  0
  4 36  1  0  0  0
  5  6  1  0  0  0
  5 13  1  0  0  0
  5 37  1  0  0  0
  6  7  1  0  0  0
  6 38  1  0  0  0
  6 39  1  0  0  0
  7  8  2  0  0  0
  7 12  1  0  0  0
  8  9  1  0  0  0
  8 40  1  0  0  0
  9 10  2  0  0  0
  9 41  1  0  0  0
 10 11  1  0  0  0
 10 42  1  0  0  0
 11 12  2  0  0  0
 11 43  1  0  0  0
 12 44  1  0  0  0
 13 14  1  0  0  0
 13 15  1  0  0  0
 13 45  1  0  0  0
 14 46  1  0  0  0
 15 16  1  0  0  0
 15 47  1  0  0  0
 15 48  1  0  0  0
 16 17  1  0  0  0
 16 49  1  0  0  0
 16 50  1  0  0  0
 17 18  1  0  0  0
 17 22  1  0  0  0
 17 51  1  0  0  0
 18 19  1  0  0  0
 18 52  1  0  0  0
 18 53  1  0  0  0
 19 20  1  0  0  0
 19 21  1  0  0  0
 19 27  1  0  0  0
 20 54  1  0  0  0
 20 55  1  0  0  0
 20 56  1  0  0  0
 21 57  1  0  0  0
 21 58  1  0  0  0
 21 59  1  0  0  0
 22 23  1  0  0  0
 22 26  2  0  0  0
 23 24  2  0  0  0
 23 60  1  0  0  0
 24 25  1  0  0  0
 24 28  1  0  0  0
 25 26  1  0  0  0
 26 27  1  0  0  0
 28 29  1  0  0  0
 28 61  1  0  0  0
 28 62  1  0  0  0
 29 30  1  0  0  0
 29 31  1  0  0  0
 29 32  1  0  0  0
 30 63  1  0  0  0
 30 64  1  0  0  0
 30 65  1  0  0  0
 31 66  1  0  0  0
 31 67  1  0  0  0
 31 68  1  0  0  0
 32 69  1  0  0  0
 32 70  1  0  0  0
 32 71  1  0  0  0
M  CHG  1  16   1
M  END
> <s_m_source_file>
../4exg_ligand.sdf

> <i_m_source_file_index>
1

> <s_epik_input>
W2NIXTFbY0hdW2NIXVtjSF1bY0hdYzFbQ0gyXVtDQEhdKFtOSF1DKD1PKVtDSDNdKVtDQEhdKFtPSF0pW0NIMl1bTkgyK11bQ0BIXTJbQ0gyXUMoW0NIM10pKFtDSDNdKU9jKGMyMylzYyhbY0hdMylbQ0gyXUMoW0NIM10pKFtDSDNdKVtDSDNd

> <s_epik_cmdline>
J2VwaWtfYXBwJywgJy1pbWFlJywgJ2xpZ2FuZF9wcm8ubWFlJywgJy1vbWFlJywgJ2xpZ2FuZF9wcmVwLm1hZScsICctbXMnLCAnMScsICctcGgnLCAnNycsICctcGh0JywgJzAuNScsICctbnQn

> <r_epik_Ionization_Penalty>
  0.0228

> <r_epik_Ionization_Penalty_Charging>
  0.0228

> <r_epik_Ionization_Penalty_Neutral>
  0.0000

> <r_epik_State_Penalty>
  0.0184

> <r_epik_Charging_Adjusted_Penalty>
0.0412661852024851

> <i_epik_Tot_Q>
1

> <i_epik_Tot_abs_Q>
1

$$$$
