4exh_ligand
                    3D
 Schrodinger Suite 2020-3.
 67 66  0  0  1  0            999 V2000
   -5.7760    3.7080    8.2030 C   0  0  0  0  0  0
   -5.9920    4.6730    8.9330 O   0  0  0  0  0  0
   -5.7480    2.3030    8.7380 C   0  0  0  0  0  0
   -5.9400    3.7740    6.8860 N   0  0  0  0  0  0
   -6.0880    4.9970    6.1090 C   0  0  2  0  0  0
   -7.1410    4.7590    5.0320 C   0  0  0  0  0  0
   -6.9280    3.9970    4.0920 O   0  0  0  0  0  0
   -4.7470    5.4110    5.4430 C   0  0  0  0  0  0
   -4.9500    6.5790    4.4850 C   0  0  0  0  0  0
   -3.7000    5.7550    6.4960 C   0  0  0  0  0  0
   -8.2960    5.3820    5.1960 N   0  0  0  0  0  0
   -9.3880    5.2480    4.2340 C   0  0  2  0  0  0
   -9.6410    6.6170    3.6160 C   0  0  0  0  0  0
   -9.4590    7.6210    4.2980 O   0  0  0  0  0  0
  -10.6560    4.7520    4.9480 C   0  0  0  0  0  0
  -11.8560    4.6740    3.9840 C   0  0  0  0  0  0
  -10.3810    3.4020    5.5800 C   0  0  0  0  0  0
   -9.7160    6.5810    2.2720 N   0  0  0  0  0  0
   -9.9880    7.8220    1.5520 C   0  0  1  0  0  0
   -9.7920    7.6450    0.0510 C   0  0  0  0  0  0
   -8.3140    7.6970   -0.3380 C   0  0  0  0  0  0
   -7.6510    8.9970    0.1010 C   0  0  0  0  0  0
   -8.1390    7.5160   -1.8400 C   0  0  0  0  0  0
  -11.4090    8.2840    1.8910 C   0  0  1  0  0  0
  -11.6720    9.5460    1.3100 O   0  0  0  0  0  0
  -12.4720    7.2630    1.4810 C   0  0  0  0  0  0
  -13.8050    7.6700    2.0690 C   0  0  0  0  0  0
  -14.2280    7.4220    3.3860 O   0  0  0  0  0  0
  -14.6210    7.8340    1.0350 N   0  0  0  0  0  0
   -5.6099    2.3288    9.8290 H   0  0  0  0  0  0
   -4.9160    1.7513    8.2760 H   0  0  0  0  0  0
   -6.6976    1.8012    8.5004 H   0  0  0  0  0  0
   -5.9594    2.7964    6.3820 H   0  0  0  0  0  0
   -6.4099    5.7701    6.8223 H   0  0  0  0  0  0
   -4.3635    4.5637    4.8557 H   0  0  0  0  0  0
   -5.7081    6.3102    3.7346 H   0  0  0  0  0  0
   -3.9999    6.8087    3.9804 H   0  0  0  0  0  0
   -5.2885    7.4609    5.0486 H   0  0  0  0  0  0
   -3.5691    4.9002    7.1758 H   0  0  0  0  0  0
   -4.0320    6.6326    7.0701 H   0  0  0  0  0  0
   -2.7434    5.9804    6.0019 H   0  0  0  0  0  0
   -8.4223    6.0150    6.0867 H   0  0  0  0  0  0
   -9.0780    4.5204    3.4695 H   0  0  0  0  0  0
  -10.9176    5.4628    5.7457 H   0  0  0  0  0  0
  -12.0343    5.6643    3.5397 H   0  0  0  0  0  0
  -12.7510    4.3540    4.5378 H   0  0  0  0  0  0
  -11.6391    3.9480    3.1866 H   0  0  0  0  0  0
   -9.5219    3.4846    6.2621 H   0  0  0  0  0  0
  -10.1548    2.6678    4.7927 H   0  0  0  0  0  0
  -11.2667    3.0739    6.1439 H   0  0  0  0  0  0
   -9.5770    5.6419    1.7163 H   0  0  0  0  0  0
   -9.2500    8.5624    1.8943 H   0  0  0  0  0  0
  -10.1969    6.6704   -0.2592 H   0  0  0  0  0  0
  -10.3189    8.4483   -0.4848 H   0  0  0  0  0  0
   -7.8165    6.8676    0.1859 H   0  0  0  0  0  0
   -7.7787    9.1255    1.1860 H   0  0  0  0  0  0
   -8.1174    9.8425   -0.4258 H   0  0  0  0  0  0
   -6.5784    8.9612   -0.1403 H   0  0  0  0  0  0
   -8.6183    6.5772   -2.1545 H   0  0  0  0  0  0
   -7.0667    7.4794   -2.0824 H   0  0  0  0  0  0
   -8.6057    8.3607   -2.3679 H   0  0  0  0  0  0
  -11.4863    8.4639    2.9734 H   0  0  0  0  0  0
  -10.9983   10.3931    1.5065 H   0  0  0  0  0  0
  -12.5464    7.2316    0.3840 H   0  0  0  0  0  0
  -12.1902    6.2688    1.8580 H   0  0  0  0  0  0
  -14.2082    8.0250    0.0335 H   0  0  0  0  0  0
  -15.7101    7.7789    1.1797 H   0  0  0  0  0  0
  1  2  2  0  0  0
  1  3  1  0  0  0
  1  4  1  0  0  0
  3 30  1  0  0  0
  3 31  1  0  0  0
  3 32  1  0  0  0
  4  5  1  0  0  0
  4 33  1  0  0  0
  5  6  1  0  0  0
  5  8  1  0  0  0
  5 34  1  0  0  0
  6  7  2  0  0  0
  6 11  1  0  0  0
  8  9  1  0  0  0
  8 10  1  0  0  0
  8 35  1  0  0  0
  9 36  1  0  0  0
  9 37  1  0  0  0
  9 38  1  0  0  0
 10 39  1  0  0  0
 10 40  1  0  0  0
 10 41  1  0  0  0
 11 12  1  0  0  0
 11 42  1  0  0  0
 12 13  1  0  0  0
 12 15  1  0  0  0
 12 43  1  0  0  0
 13 14  2  0  0  0
 13 18  1  0  0  0
 15 16  1  0  0  0
 15 17  1  0  0  0
 15 44  1  0  0  0
 16 45  1  0  0  0
 16 46  1  0  0  0
 16 47  1  0  0  0
 17 48  1  0  0  0
 17 49  1  0  0  0
 17 50  1  0  0  0
 18 19  1  0  0  0
 18 51  1  0  0  0
 19 20  1  0  0  0
 19 24  1  0  0  0
 19 52  1  0  0  0
 20 21  1  0  0  0
 20 53  1  0  0  0
 20 54  1  0  0  0
 21 22  1  0  0  0
 21 23  1  0  0  0
 21 55  1  0  0  0
 22 56  1  0  0  0
 22 57  1  0  0  0
 22 58  1  0  0  0
 23 59  1  0  0  0
 23 60  1  0  0  0
 23 61  1  0  0  0
 24 25  1  0  0  0
 24 26  1  0  0  0
 24 62  1  0  0  0
 25 63  1  0  0  0
 26 27  1  0  0  0
 26 64  1  0  0  0
 26 65  1  0  0  0
 27 28  2  0  0  0
 27 29  1  0  0  0
 29 66  1  0  0  0
 29 67  1  0  0  0
M  END
> <s_m_source_file>
../4exh_ligand.sdf

> <i_m_source_file_index>
1

> <s_epik_input>
Tz1DKFtDSDNdKVtOSF1bQ0BASF0oW0NIXShbQ0gzXSlbQ0gzXSlDKD1PKVtOSF1bQ0BASF0oW0NIXShbQ0gzXSlbQ0gzXSlDKD1PKVtOSF1bQ0BASF0oW0NIMl1bQ0hdKFtDSDNdKVtDSDNdKVtDQEBIXShbT0hdKVtDSDJdQyg9TylbTkgyXQ==

> <s_epik_cmdline>
J2VwaWtfYXBwJywgJy1pbWFlJywgJ2xpZ2FuZF9wcm8ubWFlJywgJy1vbWFlJywgJ2xpZ2FuZF9wcmVwLm1hZScsICctbXMnLCAnMScsICctcGgnLCAnNycsICctcGh0JywgJzAuNScsICctbnQn

> <r_lp_tautomer_probability>
1

> <r_epik_Ionization_Penalty>
  0.0000

> <r_epik_Ionization_Penalty_Charging>
  0.0000

> <r_epik_Ionization_Penalty_Neutral>
  0.0000

> <r_epik_State_Penalty>
 -0.0000

> <r_epik_Charging_Adjusted_Penalty>
0

> <i_epik_Tot_Q>
0

> <i_epik_Tot_abs_Q>
0

$$$$
