4exs_ligand
                    3D
 Schrodinger Suite 2020-3.
 28 28  0  0  1  0            999 V2000
  -43.8560    6.0450   -3.2430 O   0  0  0  0  0  0
  -43.0400    5.9190   -2.3390 C   0  0  0  0  0  0
  -42.8800    7.0700   -1.4000 C   0  0  1  0  0  0
  -42.5780    8.3030   -2.2340 C   0  0  0  0  0  0
  -41.3400    8.0040   -3.5180 S   0  0  0  0  0  0
  -44.2000    7.2520   -0.6640 C   0  0  0  0  0  0
  -42.2760    4.8320   -2.1440 N   0  0  0  0  0  0
  -42.4090    3.6490   -2.9930 C   0  0  2  0  0  0
  -43.5810    2.7960   -2.5390 C   0  0  0  0  0  0
  -43.9340    1.7910   -3.2250 O   0  5  0  0  0  0
  -44.1750    3.1390   -1.4830 O   0  0  0  0  0  0
  -41.3010    4.6280   -1.0700 C   0  0  0  0  0  0
  -40.5130    3.3930   -1.4760 C   0  0  0  0  0  0
  -41.1110    2.8890   -2.7760 C   0  0  0  0  0  0
  -42.0658    6.8875   -0.6832 H   0  0  0  0  0  0
  -43.4982    8.6439   -2.7309 H   0  0  0  0  0  0
  -42.1958    9.1022   -1.5819 H   0  0  0  0  0  0
  -41.0353    8.8206   -4.1890 H   0  0  0  0  0  0
  -44.4112    6.3554   -0.0628 H   0  0  0  0  0  0
  -45.0090    7.4030   -1.3939 H   0  0  0  0  0  0
  -44.1336    8.1291   -0.0035 H   0  0  0  0  0  0
  -42.5870    3.9445   -4.0375 H   0  0  0  0  0  0
  -40.6527    5.5131   -0.9904 H   0  0  0  0  0  0
  -41.8306    4.4747   -0.1182 H   0  0  0  0  0  0
  -39.4554    3.6620   -1.6144 H   0  0  0  0  0  0
  -40.5971    2.6292   -0.6889 H   0  0  0  0  0  0
  -41.3230    1.8114   -2.7140 H   0  0  0  0  0  0
  -40.4288    3.0806   -3.6174 H   0  0  0  0  0  0
  1  2  2  0  0  0
  2  3  1  0  0  0
  2  7  1  0  0  0
  3  4  1  0  0  0
  3  6  1  0  0  0
  3 15  1  0  0  0
  4  5  1  0  0  0
  4 16  1  0  0  0
  4 17  1  0  0  0
  5 18  1  0  0  0
  6 19  1  0  0  0
  6 20  1  0  0  0
  6 21  1  0  0  0
  7  8  1  0  0  0
  7 12  1  0  0  0
  8  9  1  0  0  0
  8 14  1  0  0  0
  8 22  1  0  0  0
  9 10  1  0  0  0
  9 11  2  0  0  0
 12 13  1  0  0  0
 12 23  1  0  0  0
 12 24  1  0  0  0
 13 14  1  0  0  0
 13 25  1  0  0  0
 13 26  1  0  0  0
 14 27  1  0  0  0
 14 28  1  0  0  0
M  CHG  1  10  -1
M  END
> <s_m_source_file>
../4exs_ligand.sdf

> <i_m_source_file_index>
1

> <s_epik_input>
W1NIXVtDSDJdW0NAQEhdKFtDSDNdKUMoPU8pTjFbQ0BIXShDKD1PKVtPSF0pW0NIMl1bQ0gyXVtDSDJdMQ==

> <s_epik_cmdline>
J2VwaWtfYXBwJywgJy1pbWFlJywgJ2xpZ2FuZF9wcm8ubWFlJywgJy1vbWFlJywgJ2xpZ2FuZF9wcmVwLm1hZScsICctbXMnLCAnMScsICctcGgnLCAnNycsICctcGh0JywgJzAuNScsICctbnQn

> <r_lp_tautomer_probability>
1

> <r_epik_Ionization_Penalty>
  0.0024

> <r_epik_Ionization_Penalty_Charging>
  0.0004

> <r_epik_Ionization_Penalty_Neutral>
  0.0020

> <r_epik_State_Penalty>
 -0.0000

> <r_epik_Charging_Adjusted_Penalty>
0.000441835624439187

> <i_epik_Tot_Q>
-1

> <i_epik_Tot_abs_Q>
1

$$$$
