4exz_ligand
                    3D
 Schrodinger Suite 2020-3.
 50 50  0  0  1  0            999 V2000
   -7.1050    1.3130    5.4060 C   0  0  0  0  0  0
   -8.3720    1.6820    6.1580 C   0  0  0  0  0  0
   -8.0530    2.7550    7.1850 C   0  0  0  0  0  0
   -7.6520    4.0420    6.4790 C   0  0  0  0  0  0
   -6.6960    3.7790    5.3360 C   0  0  0  0  0  0
   -6.4520    2.5570    4.8540 C   0  0  0  0  0  0
   -5.5010    2.4170    3.7360 C   0  0  0  0  0  0
   -5.6460    1.4280    2.8590 C   0  0  0  0  0  0
   -4.6950    1.2880    1.7410 C   0  0  0  0  0  0
   -3.9690    0.1680    1.6150 C   0  0  0  0  0  0
   -3.0270    0.0290    0.5080 C   0  0  0  0  0  0
   -2.3370   -1.0980    0.3590 C   0  0  0  0  0  0
   -1.3850   -1.2380   -0.7590 C   0  0  0  0  0  0
   -0.6420   -2.3470   -0.8710 C   0  0  0  0  0  0
    0.3000   -2.4850   -1.9790 C   0  0  0  0  0  0
   -7.4350    0.3830    4.2460 C   0  0  0  0  0  0
   -6.1200    0.6340    6.3510 C   0  0  0  0  0  0
   -5.9910    4.9470    4.7120 C   0  0  0  0  0  0
   -4.5390    2.3980    0.7440 C   0  0  0  0  0  0
   -1.2500   -0.1390   -1.7710 C   0  0  0  0  0  0
   -9.1216    2.0629    5.4487 H   0  0  0  0  0  0
   -8.7686    0.7914    6.6675 H   0  0  0  0  0  0
   -8.9407    2.9429    7.8068 H   0  0  0  0  0  0
   -7.2233    2.4167    7.8231 H   0  0  0  0  0  0
   -8.5492    4.5328    6.0739 H   0  0  0  0  0  0
   -7.1580    4.7147    7.1955 H   0  0  0  0  0  0
   -4.6713    3.1310    3.6275 H   0  0  0  0  0  0
   -6.4757    0.7140    2.9675 H   0  0  0  0  0  0
   -4.0829   -0.6464    2.3456 H   0  0  0  0  0  0
   -2.8882    0.8569   -0.2028 H   0  0  0  0  0  0
   -2.4761   -1.9261    1.0696 H   0  0  0  0  0  0
   -0.7414   -3.1529   -0.1290 H   0  0  0  0  0  0
    0.8150   -3.4541   -1.9039 H   0  0  0  0  0  0
    1.0399   -1.6722   -1.9346 H   0  0  0  0  0  0
   -0.2455   -2.4326   -2.9327 H   0  0  0  0  0  0
   -8.1457    0.8794    3.5689 H   0  0  0  0  0  0
   -7.8843   -0.5428    4.6347 H   0  0  0  0  0  0
   -6.5133    0.1407    3.6967 H   0  0  0  0  0  0
   -5.8865    1.3113    7.1858 H   0  0  0  0  0  0
   -5.1959    0.3922    5.8055 H   0  0  0  0  0  0
   -6.5669   -0.2913    6.7435 H   0  0  0  0  0  0
   -6.2980    5.8739    5.2186 H   0  0  0  0  0  0
   -6.2545    5.0073    3.6457 H   0  0  0  0  0  0
   -4.9036    4.8162    4.8142 H   0  0  0  0  0  0
   -5.2113    3.2270    1.0101 H   0  0  0  0  0  0
   -4.7933    2.0275   -0.2600 H   0  0  0  0  0  0
   -3.4980    2.7534    0.7509 H   0  0  0  0  0  0
   -1.9352    0.6822   -1.5140 H   0  0  0  0  0  0
   -1.5007   -0.5270   -2.7693 H   0  0  0  0  0  0
   -0.2150    0.2336   -1.7717 H   0  0  0  0  0  0
  1  2  1  0  0  0
  1  6  1  0  0  0
  1 16  1  0  0  0
  1 17  1  0  0  0
  2  3  1  0  0  0
  2 21  1  0  0  0
  2 22  1  0  0  0
  3  4  1  0  0  0
  3 23  1  0  0  0
  3 24  1  0  0  0
  4  5  1  0  0  0
  4 25  1  0  0  0
  4 26  1  0  0  0
  5  6  2  0  0  0
  5 18  1  0  0  0
  6  7  1  0  0  0
  7  8  2  0  0  0
  7 27  1  0  0  0
  8  9  1  0  0  0
  8 28  1  0  0  0
  9 10  2  0  0  0
  9 19  1  0  0  0
 10 11  1  0  0  0
 10 29  1  0  0  0
 11 12  2  0  0  0
 11 30  1  0  0  0
 12 13  1  0  0  0
 12 31  1  0  0  0
 13 14  2  0  0  0
 13 20  1  0  0  0
 14 15  1  0  0  0
 14 32  1  0  0  0
 15 33  1  0  0  0
 15 34  1  0  0  0
 15 35  1  0  0  0
 16 36  1  0  0  0
 16 37  1  0  0  0
 16 38  1  0  0  0
 17 39  1  0  0  0
 17 40  1  0  0  0
 17 41  1  0  0  0
 18 42  1  0  0  0
 18 43  1  0  0  0
 18 44  1  0  0  0
 19 45  1  0  0  0
 19 46  1  0  0  0
 19 47  1  0  0  0
 20 48  1  0  0  0
 20 49  1  0  0  0
 20 50  1  0  0  0
M  END
> <s_m_source_file>
../4exz_ligand.sdf

> <i_m_source_file_index>
1

> <s_epik_input>
W0NIM11DMShbQ0gzXSlbQ0gyXVtDSDJdW0NIMl1DKFtDSDNdKT1DMS9bQ0hdPVtDSF0vQyhbQ0gzXSk9W0NIXS9bQ0hdPVtDSF0vQyhbQ0gzXSk9W0NIXS9bQ0gzXQ==

> <s_epik_cmdline>
J2VwaWtfYXBwJywgJy1pbWFlJywgJ2xpZ2FuZF9wcm8ubWFlJywgJy1vbWFlJywgJ2xpZ2FuZF9wcmVwLm1hZScsICctbXMnLCAnMScsICctcGgnLCAnNycsICctcGh0JywgJzAuNScsICctbnQn

> <r_lp_tautomer_probability>
1

> <r_epik_Ionization_Penalty>
  0.0000

> <r_epik_Ionization_Penalty_Charging>
  0.0000

> <r_epik_Ionization_Penalty_Neutral>
  0.0000

> <r_epik_State_Penalty>
 -0.0000

> <r_epik_Charging_Adjusted_Penalty>
0

> <i_epik_Tot_Q>
0

> <i_epik_Tot_abs_Q>
0

$$$$
