4eym_ligand
                    3D
 Schrodinger Suite 2020-3.
 48 51  0  0  1  0            999 V2000
  -13.3930   12.3820  -26.5740 O   0  0  0  0  0  0
  -14.2360   11.5210  -26.4060 C   0  0  0  0  0  0
  -14.9400   11.4950  -25.0830 C   0  0  0  0  0  0
  -15.2410   10.2920  -24.4700 C   0  0  0  0  0  0
  -15.8890   10.3030  -23.2410 C   0  0  0  0  0  0
  -16.1680    9.0870  -22.6130 N   0  0  0  0  0  0
  -16.4390    9.0650  -21.1810 C   0  0  0  0  0  0
  -17.4310    7.9360  -20.9340 C   0  0  0  0  0  0
  -16.9610    6.6850  -21.4430 O   0  0  0  0  0  0
  -15.8660    6.7730  -22.3540 C   0  0  0  0  0  0
  -16.1500    7.8560  -23.3860 C   0  0  0  0  0  0
  -16.2240   11.4670  -22.6440 N   0  0  0  0  0  0
  -15.9480   12.6380  -23.2250 C   0  0  0  0  0  0
  -15.2990   12.6790  -24.4560 C   0  0  0  0  0  0
  -14.5590   10.6180  -27.3330 N   0  0  0  0  0  0
  -13.8530   10.4180  -28.4740 C   0  0  0  0  0  0
  -14.4200    9.6530  -29.4810 C   0  0  0  0  0  0
  -13.7300    9.4190  -30.6650 C   0  0  0  0  0  0
  -12.4650    9.9570  -30.8570 C   0  0  0  0  0  0
  -11.8830   10.7140  -29.8490 C   0  0  0  0  0  0
  -12.5780   10.9450  -28.6620 C   0  0  0  0  0  0
  -11.8040    9.7060  -32.0340 O   0  0  0  0  0  0
  -11.3200   10.7100  -32.8340 C   0  0  0  0  0  0
  -11.8910   11.9800  -32.8140 C   0  0  0  0  0  0
  -11.3790   12.9720  -33.6450 C   0  0  0  0  0  0
  -10.3580   12.7070  -34.4720 N   0  0  0  0  0  0
   -9.8020   11.4900  -34.5180 C   0  0  0  0  0  0
  -10.2650   10.4620  -33.7020 C   0  0  0  0  0  0
  -14.9734    9.3480  -24.9448 H   0  0  0  0  0  0
  -15.5020    8.8864  -20.6332 H   0  0  0  0  0  0
  -16.8650   10.0314  -20.8735 H   0  0  0  0  0  0
  -17.5978    7.8245  -19.8524 H   0  0  0  0  0  0
  -18.3845    8.1707  -21.4297 H   0  0  0  0  0  0
  -14.9487    7.0245  -21.8015 H   0  0  0  0  0  0
  -15.7341    5.8069  -22.8632 H   0  0  0  0  0  0
  -17.1254    7.7156  -23.8747 H   0  0  0  0  0  0
  -15.3618    7.9149  -24.1510 H   0  0  0  0  0  0
  -16.2328   13.5674  -22.7319 H   0  0  0  0  0  0
  -15.0741   13.6370  -24.9248 H   0  0  0  0  0  0
  -15.4450    9.9809  -27.1950 H   0  0  0  0  0  0
  -15.4156    9.2311  -29.3435 H   0  0  0  0  0  0
  -14.1847    8.8100  -31.4464 H   0  0  0  0  0  0
  -10.8837   11.1274  -29.9852 H   0  0  0  0  0  0
  -12.1191   11.5432  -27.8748 H   0  0  0  0  0  0
  -12.7311   12.1951  -32.1536 H   0  0  0  0  0  0
  -11.8116   13.9722  -33.6232 H   0  0  0  0  0  0
   -8.9758   11.3018  -35.2036 H   0  0  0  0  0  0
   -9.8052    9.4746  -33.7438 H   0  0  0  0  0  0
  1  2  2  0  0  0
  2  3  1  0  0  0
  2 15  1  0  0  0
  3  4  2  0  0  0
  3 14  1  0  0  0
  4  5  1  0  0  0
  4 29  1  0  0  0
  5  6  1  0  0  0
  5 12  2  0  0  0
  6  7  1  0  0  0
  6 11  1  0  0  0
  7  8  1  0  0  0
  7 30  1  0  0  0
  7 31  1  0  0  0
  8  9  1  0  0  0
  8 32  1  0  0  0
  8 33  1  0  0  0
  9 10  1  0  0  0
 10 11  1  0  0  0
 10 34  1  0  0  0
 10 35  1  0  0  0
 11 36  1  0  0  0
 11 37  1  0  0  0
 12 13  1  0  0  0
 13 14  2  0  0  0
 13 38  1  0  0  0
 14 39  1  0  0  0
 15 16  1  0  0  0
 15 40  1  0  0  0
 16 17  2  0  0  0
 16 21  1  0  0  0
 17 18  1  0  0  0
 17 41  1  0  0  0
 18 19  2  0  0  0
 18 42  1  0  0  0
 19 20  1  0  0  0
 19 22  1  0  0  0
 20 21  2  0  0  0
 20 43  1  0  0  0
 21 44  1  0  0  0
 22 23  1  0  0  0
 23 24  2  0  0  0
 23 28  1  0  0  0
 24 25  1  0  0  0
 24 45  1  0  0  0
 25 26  2  0  0  0
 25 46  1  0  0  0
 26 27  1  0  0  0
 27 28  2  0  0  0
 27 47  1  0  0  0
 28 48  1  0  0  0
M  END
> <s_m_source_file>
../4eym_ligand.sdf

> <i_m_source_file_index>
1

> <s_epik_input>
W0NIMl0xW0NIMl1PW0NIMl1bQ0gyXU4xYyhuW2NIXVtjSF0yKVtjSF1jMkMoPU8pW05IXWMzW2NIXVtjSF1jKFtjSF1bY0hdMylPYzRbY0hdW2NIXW5bY0hdW2NIXTQ=

> <s_epik_cmdline>
J2VwaWtfYXBwJywgJy1pbWFlJywgJ2xpZ2FuZF9wcm8ubWFlJywgJy1vbWFlJywgJ2xpZ2FuZF9wcmVwLm1hZScsICctbXMnLCAnMScsICctcGgnLCAnNycsICctcGh0JywgJzAuNScsICctbnQn

> <r_lp_tautomer_probability>
1

> <r_epik_Ionization_Penalty>
  0.1963

> <r_epik_Ionization_Penalty_Charging>
  0.0000

> <r_epik_Ionization_Penalty_Neutral>
  0.1963

> <r_epik_State_Penalty>
  0.1860

> <r_epik_Charging_Adjusted_Penalty>
0.185992306796835

> <i_epik_Tot_Q>
0

> <i_epik_Tot_abs_Q>
0

$$$$
