4eyr_ligand
                    3D
 Schrodinger Suite 2020-3.
 98101  0  0  1  0            999 V2000
   12.0480   -3.7360    4.9050 C   0  0  0  0  0  0
   12.0210   -3.7540    3.5250 C   0  0  0  0  0  0
   11.5240   -2.2750    2.7360 S   0  0  0  0  0  0
   11.3390   -1.7070    4.3820 C   0  0  0  0  0  0
   11.6750   -2.5490    5.3820 N   0  0  0  0  0  0
   12.3650   -4.9210    2.6340 C   0  0  0  0  0  0
   12.9190   -4.5380    1.3940 O   0  0  0  0  0  0
   14.0340   -5.3350    0.9260 C   0  0  0  0  0  0
   14.7540   -5.8970    1.7290 O   0  0  0  0  0  0
   14.2240   -5.3970   -0.3830 N   0  0  0  0  0  0
   14.9390   -6.4640   -1.0590 C   0  0  2  0  0  0
   16.4160   -6.5530   -0.6470 C   0  0  2  0  0  0
   16.6970   -7.7880    0.2120 C   0  0  0  0  0  0
   16.8340   -8.9850   -0.7200 C   0  0  2  0  0  0
   14.7980   -6.2110   -2.5590 C   0  0  0  0  0  0
   13.6290   -5.2830   -2.7530 C   0  0  0  0  0  0
   12.4940   -5.7450   -3.4220 C   0  0  0  0  0  0
   11.4090   -4.8870   -3.5660 C   0  0  0  0  0  0
   11.4710   -3.5930   -3.0440 C   0  0  0  0  0  0
   12.6040   -3.1420   -2.3680 C   0  0  0  0  0  0
   13.6860   -3.9860   -2.2230 C   0  0  0  0  0  0
   16.8460   -5.3600    0.0100 O   0  0  0  0  0  0
   17.6140  -10.1170   -0.0610 C   0  0  0  0  0  0
   16.7200  -11.2050    0.4890 C   0  0  0  0  0  0
   16.9590  -12.5310    0.1250 C   0  0  0  0  0  0
   16.1580  -13.5600    0.6190 C   0  0  0  0  0  0
   15.1140  -13.2540    1.4880 C   0  0  0  0  0  0
   14.8720  -11.9360    1.8640 C   0  0  0  0  0  0
   15.6760  -10.9110    1.3670 C   0  0  0  0  0  0
   17.5390   -8.5080   -1.8870 N   0  0  0  0  0  0
   18.1520  -10.7720   -3.2820 N   0  0  0  0  0  0
   17.9020   -9.5140   -4.0150 C   0  0  2  0  0  0
   17.0730   -8.6180   -3.1280 C   0  0  0  0  0  0
   16.0670   -8.0220   -3.5080 O   0  0  0  0  0  0
   17.3700   -9.6400   -5.4780 C   0  0  0  0  0  0
   16.1480   -8.7950   -5.8540 C   0  0  0  0  0  0
   18.4150   -9.3410   -6.5570 C   0  0  0  0  0  0
   19.3180  -11.3790   -2.9050 C   0  0  0  0  0  0
   19.2510  -12.6160   -2.3690 N   0  0  0  0  0  0
   20.3760  -13.2790   -1.7010 C   0  0  0  0  0  0
   20.4320  -10.8870   -3.0320 O   0  0  0  0  0  0
   20.6160  -12.9050   -0.2490 C   0  0  0  0  0  0
   21.2250  -11.7300    0.1830 C   0  0  0  0  0  0
   21.4170  -11.5520    1.9170 S   0  0  0  0  0  0
   20.6370  -13.1270    1.9790 C   0  0  0  0  0  0
   20.2990  -13.6890    0.8010 N   0  0  0  0  0  0
   20.4570  -13.6550    3.3500 C   0  0  0  0  0  0
   21.5840  -14.6280    3.6950 C   0  0  0  0  0  0
   19.0860  -14.3120    3.4700 C   0  0  0  0  0  0
   18.0580  -13.4600   -2.4460 C   0  0  0  0  0  0
   12.3374   -4.5843    5.5252 H   0  0  0  0  0  0
   10.9644   -0.7053    4.5924 H   0  0  0  0  0  0
   13.1011   -5.5635    3.1392 H   0  0  0  0  0  0
   11.4550   -5.5019    2.4228 H   0  0  0  0  0  0
   13.7970   -4.5666   -0.9644 H   0  0  0  0  0  0
   14.4643   -7.4050   -0.7441 H   0  0  0  0  0  0
   17.0427   -6.5915   -1.5502 H   0  0  0  0  0  0
   17.6284   -7.6371    0.7775 H   0  0  0  0  0  0
   15.8638   -7.9445    0.9129 H   0  0  0  0  0  0
   15.8543   -9.3789   -1.0282 H   0  0  0  0  0  0
   15.7213   -5.7516   -2.9417 H   0  0  0  0  0  0
   14.6214   -7.1653   -3.0768 H   0  0  0  0  0  0
   12.4590   -6.7578   -3.8234 H   0  0  0  0  0  0
   10.5118   -5.2238   -4.0853 H   0  0  0  0  0  0
   10.6191   -2.9243   -3.1672 H   0  0  0  0  0  0
   12.6347   -2.1325   -1.9580 H   0  0  0  0  0  0
   14.5798   -3.6465   -1.6995 H   0  0  0  0  0  0
   16.7132   -4.3840   -0.4797 H   0  0  0  0  0  0
   18.2865  -10.5775   -0.7997 H   0  0  0  0  0  0
   18.2066   -9.7161    0.7745 H   0  0  0  0  0  0
   17.7803  -12.7647   -0.5525 H   0  0  0  0  0  0
   16.3472  -14.5932    0.3279 H   0  0  0  0  0  0
   14.4817  -14.0524    1.8766 H   0  0  0  0  0  0
   14.0543  -11.7052    2.5467 H   0  0  0  0  0  0
   15.4889   -9.8792    1.6645 H   0  0  0  0  0  0
   18.5194   -8.0215   -1.7767 H   0  0  0  0  0  0
   17.3064  -11.3890   -2.9441 H   0  0  0  0  0  0
   18.9008   -9.0753   -4.1561 H   0  0  0  0  0  0
   17.0739  -10.6994   -5.4847 H   0  0  0  0  0  0
   15.3480   -8.9590   -5.1170 H   0  0  0  0  0  0
   15.7924   -9.0887   -6.8526 H   0  0  0  0  0  0
   16.4265   -7.7309   -5.8622 H   0  0  0  0  0  0
   19.3291   -9.9175   -6.3519 H   0  0  0  0  0  0
   18.6503   -8.2665   -6.5518 H   0  0  0  0  0  0
   18.0161   -9.6243   -7.5422 H   0  0  0  0  0  0
   20.2174  -14.3675   -1.7092 H   0  0  0  0  0  0
   21.3096  -13.0405   -2.2315 H   0  0  0  0  0  0
   21.5629  -10.9650   -0.5161 H   0  0  0  0  0  0
   20.5063  -12.8062    4.0479 H   0  0  0  0  0  0
   22.5529  -14.1166    3.5964 H   0  0  0  0  0  0
   21.5507  -15.4862    3.0077 H   0  0  0  0  0  0
   21.4595  -14.9814    4.7292 H   0  0  0  0  0  0
   18.3053  -13.5806    3.2142 H   0  0  0  0  0  0
   18.9363  -14.6623    4.5019 H   0  0  0  0  0  0
   19.0276  -15.1670    2.7804 H   0  0  0  0  0  0
   17.2523  -12.9105   -2.9549 H   0  0  0  0  0  0
   17.7333  -13.7294   -1.4301 H   0  0  0  0  0  0
   18.2917  -14.3745   -3.0109 H   0  0  0  0  0  0
  1  2  2  0  0  0
  1  5  1  0  0  0
  1 51  1  0  0  0
  2  3  1  0  0  0
  2  6  1  0  0  0
  3  4  1  0  0  0
  4  5  2  0  0  0
  4 52  1  0  0  0
  6  7  1  0  0  0
  6 53  1  0  0  0
  6 54  1  0  0  0
  7  8  1  0  0  0
  8  9  2  0  0  0
  8 10  1  0  0  0
 10 11  1  0  0  0
 10 55  1  0  0  0
 11 12  1  0  0  0
 11 15  1  0  0  0
 11 56  1  0  0  0
 12 13  1  0  0  0
 12 22  1  0  0  0
 12 57  1  0  0  0
 13 14  1  0  0  0
 13 58  1  0  0  0
 13 59  1  0  0  0
 14 23  1  0  0  0
 14 30  1  0  0  0
 14 60  1  0  0  0
 15 16  1  0  0  0
 15 61  1  0  0  0
 15 62  1  0  0  0
 16 17  2  0  0  0
 16 21  1  0  0  0
 17 18  1  0  0  0
 17 63  1  0  0  0
 18 19  2  0  0  0
 18 64  1  0  0  0
 19 20  1  0  0  0
 19 65  1  0  0  0
 20 21  2  0  0  0
 20 66  1  0  0  0
 21 67  1  0  0  0
 22 68  1  0  0  0
 23 24  1  0  0  0
 23 69  1  0  0  0
 23 70  1  0  0  0
 24 25  2  0  0  0
 24 29  1  0  0  0
 25 26  1  0  0  0
 25 71  1  0  0  0
 26 27  2  0  0  0
 26 72  1  0  0  0
 27 28  1  0  0  0
 27 73  1  0  0  0
 28 29  2  0  0  0
 28 74  1  0  0  0
 29 75  1  0  0  0
 30 33  1  0  0  0
 30 76  1  0  0  0
 31 32  1  0  0  0
 31 38  1  0  0  0
 31 77  1  0  0  0
 32 33  1  0  0  0
 32 35  1  0  0  0
 32 78  1  0  0  0
 33 34  2  0  0  0
 35 36  1  0  0  0
 35 37  1  0  0  0
 35 79  1  0  0  0
 36 80  1  0  0  0
 36 81  1  0  0  0
 36 82  1  0  0  0
 37 83  1  0  0  0
 37 84  1  0  0  0
 37 85  1  0  0  0
 38 39  1  0  0  0
 38 41  2  0  0  0
 39 40  1  0  0  0
 39 50  1  0  0  0
 40 42  1  0  0  0
 40 86  1  0  0  0
 40 87  1  0  0  0
 42 43  2  0  0  0
 42 46  1  0  0  0
 43 44  1  0  0  0
 43 88  1  0  0  0
 44 45  1  0  0  0
 45 46  2  0  0  0
 45 47  1  0  0  0
 47 48  1  0  0  0
 47 49  1  0  0  0
 47 89  1  0  0  0
 48 90  1  0  0  0
 48 91  1  0  0  0
 48 92  1  0  0  0
 49 93  1  0  0  0
 49 94  1  0  0  0
 49 95  1  0  0  0
 50 96  1  0  0  0
 50 97  1  0  0  0
 50 98  1  0  0  0
M  END
> <s_m_source_file>
../4eyr_ligand.sdf

> <i_m_source_file_index>
1

> <s_epik_input>
czFbY0hdbltjSF1jMVtDSDJdT0MoPU8pW05IXVtDQEBIXShbQ0gyXWMyW2NIXVtjSF1bY0hdW2NIXVtjSF0yKVtDQEBIXShbT0hdKVtDSDJdW0NASF0oW0NIMl1jM1tjSF1bY0hdW2NIXVtjSF1bY0hdMylbTkhdQyg9TylbQ0BIXShbQ0hdKFtDSDNdKVtDSDNdKVtOSF1DKD1PKU4oW0NIM10pW0NIMl1jNFtjSF1zYyhuNClbQ0hdKFtDSDNdKVtDSDNd

> <s_epik_cmdline>
J2VwaWtfYXBwJywgJy1pbWFlJywgJ2xpZ2FuZF9wcm8ubWFlJywgJy1vbWFlJywgJ2xpZ2FuZF9wcmVwLm1hZScsICctbXMnLCAnMScsICctcGgnLCAnNycsICctcGh0JywgJzAuNScsICctbnQn

> <r_lp_tautomer_probability>
1

> <r_epik_Ionization_Penalty>
  0.0002

> <r_epik_Ionization_Penalty_Charging>
  0.0000

> <r_epik_Ionization_Penalty_Neutral>
  0.0002

> <r_epik_State_Penalty>
 -0.0000

> <r_epik_Charging_Adjusted_Penalty>
0

> <i_epik_Tot_Q>
0

> <i_epik_Tot_abs_Q>
0

> <s_epik_Chemistry_Notes>
This compound has an ester and may undergo hydrolysis at high or low pH.

$$$$
