4ez3_ligand
                    3D
 Schrodinger Suite 2020-3.
 29 30  0  0  1  0            999 V2000
   -1.6760   -4.0230   29.0480 O   0  5  0  0  0  0
   -0.8360   -4.2980   28.1940 C   0  0  0  0  0  0
    0.0160   -3.3490   27.8250 N   0  0  0  0  0  0
    0.9850   -3.5700   26.8740 C   0  0  0  0  0  0
    1.8320   -2.5690   26.5410 O   0  0  0  0  0  0
    1.0990   -4.8100   26.2480 C   0  0  0  0  0  0
    0.2180   -5.8340   26.5870 C   0  0  0  0  0  0
   -0.7710   -5.5850   27.5760 C   0  0  0  0  0  0
   -1.6690   -6.6760   27.8850 N   0  0  0  0  0  0
   -2.5790   -6.6350   28.7020 N   0  0  0  0  0  0
   -3.6410   -7.6400   28.5730 C   0  0  0  0  0  0
   -3.5570   -8.5790   27.5180 C   0  0  0  0  0  0
   -4.5120   -9.5160   27.3980 C   0  0  0  0  0  0
   -5.5920   -9.5320   28.3280 C   0  0  0  0  0  0
   -6.8650  -10.7480   28.1750 S   0  0  0  0  0  0
   -6.4720  -11.8710   27.3680 O   0  0  0  0  0  0
   -7.3320  -11.2200   29.6360 N   0  0  0  0  0  0
   -7.9450  -10.1570   27.3370 O   0  0  0  0  0  0
   -5.6820   -8.5970   29.3650 C   0  0  0  0  0  0
   -4.7140   -7.6510   29.4990 C   0  0  0  0  0  0
   -0.0406   -2.3506   28.2832 H   0  0  0  0  0  0
    1.8723   -4.9772   25.4983 H   0  0  0  0  0  0
    0.2860   -6.8081   26.1026 H   0  0  0  0  0  0
   -2.7278   -8.5425   26.8115 H   0  0  0  0  0  0
   -4.4616  -10.2554   26.5988 H   0  0  0  0  0  0
   -8.1244  -11.9770   29.5409 H   0  0  0  0  0  0
   -7.7169  -10.3545   30.1953 H   0  0  0  0  0  0
   -6.5212   -8.6265   30.0599 H   0  0  0  0  0  0
   -4.7624   -6.9160   30.3025 H   0  0  0  0  0  0
  1  2  1  0  0  0
  2  3  1  0  0  0
  2  8  2  0  0  0
  3  4  1  0  0  0
  3 21  1  0  0  0
  4  5  2  0  0  0
  4  6  1  0  0  0
  6  7  2  0  0  0
  6 22  1  0  0  0
  7  8  1  0  0  0
  7 23  1  0  0  0
  8  9  1  0  0  0
  9 10  2  0  0  0
 10 11  1  0  0  0
 11 12  2  0  0  0
 11 20  1  0  0  0
 12 13  1  0  0  0
 12 24  1  0  0  0
 13 14  2  0  0  0
 13 25  1  0  0  0
 14 15  1  0  0  0
 14 19  1  0  0  0
 15 16  2  0  0  0
 15 17  1  0  0  0
 15 18  2  0  0  0
 17 26  1  0  0  0
 17 27  1  0  0  0
 19 20  2  0  0  0
 19 28  1  0  0  0
 20 29  1  0  0  0
M  CHG  1   1  -1
M  END
> <s_m_source_file>
../4ez3_ligand.sdf

> <i_m_source_file_index>
1

> <s_epik_input>
W09IXWMxW25IXWMoPU8pW2NIXVtjSF1jMS9OPU4vYzJbY0hdW2NIXWMoUyg9TykoPU8pW05IMl0pW2NIXVtjSF0y

> <s_epik_cmdline>
J2VwaWtfYXBwJywgJy1pbWFlJywgJ2xpZ2FuZF9wcm8ubWFlJywgJy1vbWFlJywgJ2xpZ2FuZF9wcmVwLm1hZScsICctbXMnLCAnMScsICctcGgnLCAnNycsICctcGh0JywgJzAuNScsICctbnQn

> <r_lp_tautomer_probability>
1

> <r_epik_Ionization_Penalty>
  0.0044

> <r_epik_Ionization_Penalty_Charging>
  0.0033

> <r_epik_Ionization_Penalty_Neutral>
  0.0011

> <r_epik_State_Penalty>
 -0.0000

> <r_epik_Charging_Adjusted_Penalty>
0.00325137797966177

> <i_epik_Tot_Q>
-1

> <i_epik_Tot_abs_Q>
1

$$$$
