4ez5_ligand
                    3D
 Schrodinger Suite 2020-3.
 64 69  0  0  1  0            999 V2000
   41.1560   20.3810   17.2800 C   0  0  0  0  0  0
   41.6200   21.8690   15.4620 C   0  0  0  0  0  0
   39.3490   20.9040   15.7450 C   0  0  0  0  0  0
   33.3950   26.1640    9.6520 O   0  0  0  0  0  0
   36.1570   22.6180   10.0100 C   0  0  0  0  0  0
   34.9170   24.3260    9.6360 C   0  0  0  0  0  0
   35.8010   23.1340   11.2820 C   0  0  0  0  0  0
   34.1080   25.4330    8.9760 C   0  0  0  0  0  0
   34.1850   25.6330    7.4990 C   0  0  0  0  0  0
   33.1390   26.2870    6.8280 C   0  0  0  0  0  0
   33.2480   26.4550    5.4430 C   0  0  0  0  0  0
   35.3040   25.3900    5.3320 C   0  0  0  0  0  0
   35.2800   25.2010    6.7190 C   0  0  0  0  0  0
   36.4310   24.9540    4.4830 C   0  0  0  0  0  0
   36.8560   25.8340    3.4560 C   0  0  0  0  0  0
   38.5250   24.4280    2.7500 C   0  0  0  0  0  0
   38.2080   23.4610    3.7200 C   0  0  0  0  0  0
   38.9340   22.2570    3.8020 C   0  0  0  0  0  0
   38.6020   21.3030    4.7860 C   0  0  0  0  0  0
   37.5490   21.5310    5.6910 C   0  0  0  0  0  0
   36.8240   22.7320    5.5900 C   0  0  0  0  0  0
   37.1380   23.7220    4.6130 C   0  0  0  0  0  0
   40.5880   21.3840   16.3830 N   0  3  0  0  0  0
   38.2970   22.0300   15.6330 C   0  0  0  0  0  0
   37.0100   21.5330   14.9500 C   0  0  0  0  0  0
   37.3580   21.0040   13.6330 N   0  0  0  0  0  0
   38.2170   19.8270   13.7520 C   0  0  0  0  0  0
   39.5660   20.2000   14.3860 C   0  0  0  0  0  0
   36.9640   21.5460   12.4530 C   0  0  0  0  0  0
   37.3860   20.9460   11.2420 C   0  0  0  0  0  0
   36.9810   21.4780   10.0020 C   0  0  0  0  0  0
   35.6040   23.3670    8.9930 N   0  0  0  0  0  0
   35.0050   24.2260   10.9870 N   0  3  0  0  0  0
   36.1690   22.6470   12.5000 N   0  0  0  0  0  0
   34.3000   26.0250    4.7140 N   0  0  0  0  0  0
   37.8730   25.5940    2.6090 N   0  0  0  0  0  0
   42.0764   20.7755   17.7352 H   0  0  0  0  0  0
   41.3902   19.4699   16.7099 H   0  0  0  0  0  0
   40.4291   20.1423   18.0704 H   0  0  0  0  0  0
   42.4971   22.2016   16.0365 H   0  0  0  0  0  0
   41.2230   22.7122   14.8777 H   0  0  0  0  0  0
   41.9143   21.0571   14.7807 H   0  0  0  0  0  0
   39.0052   20.1364   16.4539 H   0  0  0  0  0  0
   32.2673   26.6532    7.3703 H   0  0  0  0  0  0
   32.4361   26.9627    4.9223 H   0  0  0  0  0  0
   36.1229   24.7109    7.2062 H   0  0  0  0  0  0
   36.3184   26.7756    3.3444 H   0  0  0  0  0  0
   39.3510   24.2187    2.0703 H   0  0  0  0  0  0
   39.7506   22.0630    3.1065 H   0  0  0  0  0  0
   39.1699   20.3746    4.8465 H   0  0  0  0  0  0
   37.3006   20.7930    6.4537 H   0  0  0  0  0  0
   35.9982   22.9112    6.2785 H   0  0  0  0  0  0
   40.2705   22.2617   16.9652 H   0  0  0  0  0  0
   38.0396   22.3927   16.6391 H   0  0  0  0  0  0
   38.7089   22.8589   15.0387 H   0  0  0  0  0  0
   36.5515   20.7428   15.5626 H   0  0  0  0  0  0
   36.3045   22.3702   14.8436 H   0  0  0  0  0  0
   37.7230   19.0750   14.3848 H   0  0  0  0  0  0
   38.3990   19.4034   12.7533 H   0  0  0  0  0  0
   40.1062   20.8748   13.7057 H   0  0  0  0  0  0
   40.1552   19.2836   14.5377 H   0  0  0  0  0  0
   38.0288   20.0662   11.2693 H   0  0  0  0  0  0
   37.2967   21.0200    9.0646 H   0  0  0  0  0  0
   34.4844   24.9532   11.6274 H   0  0  0  0  0  0
  1 23  1  0  0  0
  1 37  1  0  0  0
  1 38  1  0  0  0
  1 39  1  0  0  0
  2 23  1  0  0  0
  2 40  1  0  0  0
  2 41  1  0  0  0
  2 42  1  0  0  0
  3 23  1  0  0  0
  3 24  1  0  0  0
  3 28  1  0  0  0
  3 43  1  0  0  0
  4  8  2  0  0  0
  5  7  2  0  0  0
  5 31  1  0  0  0
  5 32  1  0  0  0
  6  8  1  0  0  0
  6 32  2  0  0  0
  6 33  1  0  0  0
  7 33  1  0  0  0
  7 34  1  0  0  0
  8  9  1  0  0  0
  9 10  2  0  0  0
  9 13  1  0  0  0
 10 11  1  0  0  0
 10 44  1  0  0  0
 11 35  2  0  0  0
 11 45  1  0  0  0
 12 13  2  0  0  0
 12 14  1  0  0  0
 12 35  1  0  0  0
 13 46  1  0  0  0
 14 15  2  0  0  0
 14 22  1  0  0  0
 15 36  1  0  0  0
 15 47  1  0  0  0
 16 17  1  0  0  0
 16 36  2  0  0  0
 16 48  1  0  0  0
 17 18  1  0  0  0
 17 22  2  0  0  0
 18 19  2  0  0  0
 18 49  1  0  0  0
 19 20  1  0  0  0
 19 50  1  0  0  0
 20 21  2  0  0  0
 20 51  1  0  0  0
 21 22  1  0  0  0
 21 52  1  0  0  0
 23 53  1  0  0  0
 24 25  1  0  0  0
 24 54  1  0  0  0
 24 55  1  0  0  0
 25 26  1  0  0  0
 25 56  1  0  0  0
 25 57  1  0  0  0
 26 27  1  0  0  0
 26 29  1  0  0  0
 27 28  1  0  0  0
 27 58  1  0  0  0
 27 59  1  0  0  0
 28 60  1  0  0  0
 28 61  1  0  0  0
 29 30  1  0  0  0
 29 34  2  0  0  0
 30 31  2  0  0  0
 30 62  1  0  0  0
 31 63  1  0  0  0
 33 64  1  0  0  0
M  CHG  2  23   1  33   1
M  END
> <s_m_source_file>
../4ez5_ligand.sdf

> <i_m_source_file_index>
1

> <s_epik_input>
W0NIM11bTkgrXShbQ0gzXSlbQ0hdMVtDSDJdW0NIMl1OKFtDSDJdW0NIMl0xKWMoW2NIXVtjSF0yKW5jKGMyMylbbkhdYyhuMylDKD1PKWM0W2NIXVtjSF1uYyhbY0hdNCktYyhbY0hdbltjSF01KWMoYzU2KVtjSF1bY0hdW2NIXVtjSF02

> <s_epik_cmdline>
J2VwaWtfYXBwJywgJy1pbWFlJywgJ2xpZ2FuZF9wcm8ubWFlJywgJy1vbWFlJywgJ2xpZ2FuZF9wcmVwLm1hZScsICctbXMnLCAnMScsICctcGgnLCAnNycsICctcGh0JywgJzAuNScsICctbnQn

> <r_epik_Ionization_Penalty>
  0.0041

> <r_epik_Ionization_Penalty_Charging>
  0.0014

> <r_epik_Ionization_Penalty_Neutral>
  0.0027

> <r_epik_State_Penalty>
  0.0095

> <r_epik_Charging_Adjusted_Penalty>
0.0109109025126969

> <i_epik_Tot_Q>
2

> <i_epik_Tot_abs_Q>
2

> <s_epik_Chemistry_Notes>
This compound has an imine and may undergo hydrolysis.

$$$$
