4ezj_ligand
                    3D
 Schrodinger Suite 2020-3.
 70 75  0  0  1  0            999 V2000
   22.7220   -6.4680   17.2250 F   0  0  0  0  0  0
   23.2290   -7.3050   18.1510 C   0  0  0  0  0  0
   24.4640   -7.8600   17.8930 C   0  0  0  0  0  0
   25.0420   -8.6880   18.8400 C   0  0  0  0  0  0
   24.3580   -8.9440   20.0260 C   0  0  0  0  0  0
   24.7420   -9.5970   21.1720 N   0  0  0  0  0  0
   23.7460   -9.4770   22.0990 C   0  0  0  0  0  0
   22.7110   -8.7740   21.5830 C   0  0  0  0  0  0
   23.1000   -8.4100   20.2460 C   0  0  0  0  0  0
   22.4790   -7.5450   19.2930 C   0  0  0  0  0  0
   21.2740   -6.7140   19.6680 C   0  0  0  0  0  0
   21.1930   -5.4890   19.1820 N   0  0  0  0  0  0
   20.0520   -4.7810   19.4840 C   0  0  0  0  0  0
   20.0030   -3.4100   19.1310 C   0  0  0  0  0  0
   18.9370   -2.6430   19.4900 C   0  0  0  0  0  0
   20.3160   -7.3490   20.3530 N   0  0  0  0  0  0
   19.1390   -6.7450   20.6330 C   0  0  0  0  0  0
   18.1490   -7.5460   21.3020 N   0  0  0  0  0  0
   16.7040   -7.3070   21.2150 C   0  0  0  0  0  0
   16.0660   -7.6010   22.5540 C   0  0  0  0  0  0
   16.3720   -8.9280   23.0050 O   0  0  0  0  0  0
   17.7860   -9.1130   23.1150 C   0  0  0  0  0  0
   18.4800   -8.8850   21.7980 C   0  0  0  0  0  0
   18.9610   -5.3540   20.2170 C   0  0  0  0  0  0
   17.8980   -4.5140   20.5340 N   0  0  0  0  0  0
   17.8970   -3.2270   20.1950 C   0  0  0  0  0  0
   16.6970   -2.4200   20.6310 C   0  0  0  0  0  0
   15.7180   -2.2290   19.5550 N   0  3  2  0  0  0
   14.8160   -1.1040   19.8060 C   0  0  0  0  0  0
   14.0020   -0.7940   18.5390 C   0  0  0  0  0  0
   14.9100   -3.4190   19.3390 C   0  0  0  0  0  0
   14.1450   -3.2880   18.0250 C   0  0  0  0  0  0
   13.2790   -2.0190   17.9290 C   0  0  2  0  0  0
   12.7240   -1.7600   16.4990 C   0  0  0  0  0  0
   13.8410   -1.5330   15.6120 O   0  0  0  0  0  0
   11.9710   -2.9680   15.9510 C   0  0  0  0  0  0
   11.8450   -0.5180   16.4340 C   0  0  0  0  0  0
   24.9788   -7.6497   16.9556 H   0  0  0  0  0  0
   26.0201   -9.1340   18.6598 H   0  0  0  0  0  0
   23.8661   -9.9251   23.0964 H   0  0  0  0  0  0
   21.7716   -8.5321   22.0801 H   0  0  0  0  0  0
   20.8242   -2.9662   18.5682 H   0  0  0  0  0  0
   18.9022   -1.5858   19.2269 H   0  0  0  0  0  0
   16.5218   -6.2567   20.9435 H   0  0  0  0  0  0
   16.2691   -7.9647   20.4480 H   0  0  0  0  0  0
   16.4379   -6.8857   23.3023 H   0  0  0  0  0  0
   14.9734   -7.5069   22.4682 H   0  0  0  0  0  0
   18.1928   -8.4019   23.8491 H   0  0  0  0  0  0
   17.9968  -10.1411   23.4447 H   0  0  0  0  0  0
   18.1455   -9.6387   21.0700 H   0  0  0  0  0  0
   19.5683   -8.9662   21.9361 H   0  0  0  0  0  0
   16.1892   -2.9362   21.4591 H   0  0  0  0  0  0
   17.0261   -1.4252   20.9659 H   0  0  0  0  0  0
   16.3117   -2.0211   18.6526 H   0  0  0  0  0  0
   14.1285   -1.3610   20.6253 H   0  0  0  0  0  0
   15.4043   -0.2176   20.0855 H   0  0  0  0  0  0
   13.2281   -0.0484   18.7737 H   0  0  0  0  0  0
   14.6709   -0.3960   17.7617 H   0  0  0  0  0  0
   15.5634   -4.3028   19.2946 H   0  0  0  0  0  0
   14.1956   -3.5325   20.1677 H   0  0  0  0  0  0
   14.8574   -3.2592   17.1873 H   0  0  0  0  0  0
   13.4724   -4.1500   17.9048 H   0  0  0  0  0  0
   12.3907   -2.2037   18.5510 H   0  0  0  0  0  0
   14.6163   -2.3045   15.4953 H   0  0  0  0  0  0
   12.6164   -3.8572   16.0037 H   0  0  0  0  0  0
   11.6896   -2.7807   14.9042 H   0  0  0  0  0  0
   11.0640   -3.1373   16.5499 H   0  0  0  0  0  0
   12.3994    0.3448   16.8317 H   0  0  0  0  0  0
   10.9376   -0.6792   17.0345 H   0  0  0  0  0  0
   11.5631   -0.3226   15.3888 H   0  0  0  0  0  0
  1  2  1  0  0  0
  2  3  2  0  0  0
  2 10  1  0  0  0
  3  4  1  0  0  0
  3 38  1  0  0  0
  4  5  2  0  0  0
  4 39  1  0  0  0
  5  6  1  0  0  0
  5  9  1  0  0  0
  6  7  2  0  0  0
  7  8  1  0  0  0
  7 40  1  0  0  0
  8  9  1  0  0  0
  8 41  1  0  0  0
  9 10  2  0  0  0
 10 11  1  0  0  0
 11 12  2  0  0  0
 11 16  1  0  0  0
 12 13  1  0  0  0
 13 14  2  0  0  0
 13 24  1  0  0  0
 14 15  1  0  0  0
 14 42  1  0  0  0
 15 26  2  0  0  0
 15 43  1  0  0  0
 16 17  2  0  0  0
 17 18  1  0  0  0
 17 24  1  0  0  0
 18 19  1  0  0  0
 18 23  1  0  0  0
 19 20  1  0  0  0
 19 44  1  0  0  0
 19 45  1  0  0  0
 20 21  1  0  0  0
 20 46  1  0  0  0
 20 47  1  0  0  0
 21 22  1  0  0  0
 22 23  1  0  0  0
 22 48  1  0  0  0
 22 49  1  0  0  0
 23 50  1  0  0  0
 23 51  1  0  0  0
 24 25  2  0  0  0
 25 26  1  0  0  0
 26 27  1  0  0  0
 27 28  1  0  0  0
 27 52  1  0  0  0
 27 53  1  0  0  0
 28 29  1  0  0  0
 28 31  1  0  0  0
 28 54  1  0  0  0
 29 30  1  0  0  0
 29 55  1  0  0  0
 29 56  1  0  0  0
 30 33  1  0  0  0
 30 57  1  0  0  0
 30 58  1  0  0  0
 31 32  1  0  0  0
 31 59  1  0  0  0
 31 60  1  0  0  0
 32 33  1  0  0  0
 32 61  1  0  0  0
 32 62  1  0  0  0
 33 34  1  0  0  0
 33 63  1  0  0  0
 34 35  1  0  0  0
 34 36  1  0  0  0
 34 37  1  0  0  0
 35 64  1  0  0  0
 36 65  1  0  0  0
 36 66  1  0  0  0
 36 67  1  0  0  0
 37 68  1  0  0  0
 37 69  1  0  0  0
 37 70  1  0  0  0
M  CHG  1  28   1
M  END
> <s_m_source_file>
../4ezj_ligand.sdf

> <i_m_source_file_index>
1

> <s_epik_input>
TjE9W0NIXVtDSDJdYyhjMTIpYyhjKEYpW2NIXVtjSF0yKS1jKG4zKW5jKE40W0NIMl1bQ0gyXU9bQ0gyXVtDSDJdNCljKGMzNSluYyhbY0hdW2NIXTUpW0NIMl1bTkBASCtdNltDSDJdW0NIMl1bQ0BIXShbQ0gyXVtDSDJdNilDKFtPSF0pKFtDSDNdKVtDSDNd

> <s_epik_cmdline>
J2VwaWtfYXBwJywgJy1pbWFlJywgJ2xpZ2FuZF9wcm8ubWFlJywgJy1vbWFlJywgJ2xpZ2FuZF9wcmVwLm1hZScsICctbXMnLCAnMScsICctcGgnLCAnNycsICctcGh0JywgJzAuNScsICctbnQn

> <r_lp_tautomer_probability>
1

> <r_epik_Ionization_Penalty>
  0.0437

> <r_epik_Ionization_Penalty_Charging>
  0.0255

> <r_epik_Ionization_Penalty_Neutral>
  0.0181

> <r_epik_State_Penalty>
 -0.0000

> <r_epik_Charging_Adjusted_Penalty>
0.0255426780390514

> <i_epik_Tot_Q>
1

> <i_epik_Tot_abs_Q>
1

> <s_epik_Chemistry_Notes>
This compound has an imine and may undergo hydrolysis.

$$$$
