4ezk_ligand
                    3D
 Schrodinger Suite 2020-3.
 69 74  0  0  1  0            999 V2000
   15.3040   -1.4830   20.3060 N   0  3  1  0  0  0
   14.9940    0.3730   15.3320 C   0  0  0  0  0  0
   16.4990   -7.9970   23.6510 O   0  0  0  0  0  0
   14.0790   -0.4540   16.2160 C   0  0  0  0  0  0
   17.6700   -3.8670   21.3220 N   0  0  0  0  0  0
   13.6590   -1.5900   15.4390 O   0  0  0  0  0  0
   12.8370    0.3410   16.5840 C   0  0  0  0  0  0
   20.5000   -6.2050   21.1680 N   0  0  0  0  0  0
   14.8140   -0.9870   17.4660 C   0  0  1  0  0  0
   21.0960   -4.1850   20.0940 N   0  0  0  0  0  0
   15.2640    0.1120   18.4200 C   0  0  0  0  0  0
   24.0130   -8.3730   22.4550 N   0  0  0  0  0  0
   16.0830   -0.4980   19.5530 C   0  0  0  0  0  0
   25.0040   -8.1350   21.5490 N   0  0  0  0  0  0
   14.8480   -2.5450   19.4040 C   0  0  0  0  0  0
   18.3720   -6.4980   22.1820 N   0  0  0  0  0  0
   13.9960   -1.9880   18.2710 C   0  0  0  0  0  0
   16.0960   -2.0400   21.4080 C   0  0  0  0  0  0
   17.4130   -2.6230   20.9530 C   0  0  0  0  0  0
   18.3180   -1.8520   20.2530 C   0  0  0  0  0  0
   19.5300   -2.3780   19.9590 C   0  0  0  0  0  0
   19.8490   -3.6890   20.3630 C   0  0  0  0  0  0
   18.8850   -4.4590   21.0630 C   0  0  0  0  0  0
   19.2950   -5.7550   21.4490 C   0  0  0  0  0  0
   21.3480   -5.4080   20.5130 C   0  0  0  0  0  0
   22.7110   -5.8670   20.1840 C   0  0  0  0  0  0
   23.3730   -5.3150   19.0920 C   0  0  0  0  0  0
   24.6590   -5.7130   18.7810 C   0  0  0  0  0  0
   25.3010   -6.6620   19.5510 C   0  0  0  0  0  0
   24.6310   -7.2080   20.6370 C   0  0  0  0  0  0
   23.3220   -6.8170   20.9680 C   0  0  0  0  0  0
   23.0100   -7.5890   22.1090 C   0  0  0  0  0  0
   18.7150   -7.8140   22.7180 C   0  0  0  0  0  0
   17.8830   -8.0820   23.9360 C   0  0  0  0  0  0
   16.1840   -6.7020   23.1730 C   0  0  0  0  0  0
   16.9400   -6.3800   21.9200 C   0  0  0  0  0  0
   14.4259   -0.9837   20.7415 H   0  0  0  0  0  0
   14.4324    0.7315   14.4567 H   0  0  0  0  0  0
   15.8387   -0.2469   14.9970 H   0  0  0  0  0  0
   15.3742    1.2339   15.9015 H   0  0  0  0  0  0
   13.1114   -1.4398   14.4969 H   0  0  0  0  0  0
   12.3466    0.7002   15.6672 H   0  0  0  0  0  0
   13.1234    1.2007   17.2076 H   0  0  0  0  0  0
   12.1422   -0.3025   17.1435 H   0  0  0  0  0  0
   15.7003   -1.4941   17.0570 H   0  0  0  0  0  0
   15.8810    0.8412   17.8744 H   0  0  0  0  0  0
   14.3816    0.6184   18.8383 H   0  0  0  0  0  0
   16.4018    0.3105   20.2274 H   0  0  0  0  0  0
   16.9692   -0.9849   19.1198 H   0  0  0  0  0  0
   15.7196   -3.0536   18.9663 H   0  0  0  0  0  0
   14.2448   -3.2714   19.9683 H   0  0  0  0  0  0
   13.1114   -1.4860   18.6899 H   0  0  0  0  0  0
   13.6746   -2.8106   17.6152 H   0  0  0  0  0  0
   16.3162   -1.2475   22.1384 H   0  0  0  0  0  0
   15.5271   -2.8433   21.8990 H   0  0  0  0  0  0
   18.0619   -0.8389   19.9427 H   0  0  0  0  0  0
   20.2608   -1.7857   19.4084 H   0  0  0  0  0  0
   22.8726   -4.5574   18.4709 H   0  0  0  0  0  0
   25.1694   -5.2753   17.9231 H   0  0  0  0  0  0
   26.3255   -6.9869   19.3168 H   0  0  0  0  0  0
   22.0259   -7.4871   22.5897 H   0  0  0  0  0  0
   18.5148   -8.5832   21.9575 H   0  0  0  0  0  0
   19.7813   -7.8336   22.9875 H   0  0  0  0  0  0
   18.1451   -7.3408   24.7053 H   0  0  0  0  0  0
   18.1204   -9.0913   24.3033 H   0  0  0  0  0  0
   15.1075   -6.6436   22.9547 H   0  0  0  0  0  0
   16.4440   -5.9555   23.9379 H   0  0  0  0  0  0
   16.7089   -5.3526   21.6021 H   0  0  0  0  0  0
   16.6537   -7.0832   21.1241 H   0  0  0  0  0  0
  1 13  1  0  0  0
  1 15  1  0  0  0
  1 18  1  0  0  0
  1 37  1  0  0  0
  2  4  1  0  0  0
  2 38  1  0  0  0
  2 39  1  0  0  0
  2 40  1  0  0  0
  3 34  1  0  0  0
  3 35  1  0  0  0
  4  6  1  0  0  0
  4  7  1  0  0  0
  4  9  1  0  0  0
  5 19  2  0  0  0
  5 23  1  0  0  0
  6 41  1  0  0  0
  7 42  1  0  0  0
  7 43  1  0  0  0
  7 44  1  0  0  0
  8 24  2  0  0  0
  8 25  1  0  0  0
  9 11  1  0  0  0
  9 17  1  0  0  0
  9 45  1  0  0  0
 10 22  1  0  0  0
 10 25  2  0  0  0
 11 13  1  0  0  0
 11 46  1  0  0  0
 11 47  1  0  0  0
 12 14  2  0  0  0
 12 32  1  0  0  0
 13 48  1  0  0  0
 13 49  1  0  0  0
 14 30  1  0  0  0
 15 17  1  0  0  0
 15 50  1  0  0  0
 15 51  1  0  0  0
 16 24  1  0  0  0
 16 33  1  0  0  0
 16 36  1  0  0  0
 17 52  1  0  0  0
 17 53  1  0  0  0
 18 19  1  0  0  0
 18 54  1  0  0  0
 18 55  1  0  0  0
 19 20  1  0  0  0
 20 21  2  0  0  0
 20 56  1  0  0  0
 21 22  1  0  0  0
 21 57  1  0  0  0
 22 23  2  0  0  0
 23 24  1  0  0  0
 25 26  1  0  0  0
 26 27  2  0  0  0
 26 31  1  0  0  0
 27 28  1  0  0  0
 27 58  1  0  0  0
 28 29  1  0  0  0
 28 59  1  0  0  0
 29 30  2  0  0  0
 29 60  1  0  0  0
 30 31  1  0  0  0
 31 32  2  0  0  0
 32 61  1  0  0  0
 33 34  1  0  0  0
 33 62  1  0  0  0
 33 63  1  0  0  0
 34 64  1  0  0  0
 34 65  1  0  0  0
 35 36  1  0  0  0
 35 66  1  0  0  0
 35 67  1  0  0  0
 36 68  1  0  0  0
 36 69  1  0  0  0
M  CHG  1   1   1
M  END
> <s_m_source_file>
../4ezk_ligand.sdf

> <i_m_source_file_index>
1

> <s_epik_input>
W0NIM11DKFtPSF0pKFtDSDNdKVtDQEhdKFtDSDJdW0NIMl0xKVtDSDJdW0NIMl1bTkBASCtdMVtDSDJdYyhbY0hdW2NIXTIpbmMoYzIzKWMobmMobjMpQyg9W0NIXVtDSDJdW0NIXT00KUMoQzQ1KT1bQ0hdTj1ONSlONltDSDJdW0NIMl1PW0NIMl1bQ0gyXTY=

> <s_epik_cmdline>
J2VwaWtfYXBwJywgJy1pbWFlJywgJ2xpZ2FuZF9wcm8ubWFlJywgJy1vbWFlJywgJ2xpZ2FuZF9wcmVwLm1hZScsICctbXMnLCAnMScsICctcGgnLCAnNycsICctcGh0JywgJzAuNScsICctbnQn

> <r_epik_Ionization_Penalty>
  0.0260

> <r_epik_Ionization_Penalty_Charging>
  0.0260

> <r_epik_Ionization_Penalty_Neutral>
  0.0000

> <r_epik_State_Penalty>
  0.0212

> <r_epik_Charging_Adjusted_Penalty>
0.0471056395389177

> <i_epik_Tot_Q>
1

> <i_epik_Tot_abs_Q>
1

$$$$
