4ezl_ligand
                    3D
 Schrodinger Suite 2020-3.
 67 71  0  0  1  0            999 V2000
   15.5400    2.7060   17.1270 C   0  0  0  0  0  0
   14.9250    1.3210   16.9080 C   0  0  0  0  0  0
   15.6120    0.6580   15.7090 C   0  0  0  0  0  0
   15.1210    0.4450   18.1510 C   0  0  1  0  0  0
   16.5780   -0.0020   18.2120 C   0  0  0  0  0  0
   16.6150   -0.9740   19.3780 C   0  0  0  0  0  0
   16.5400   -0.1260   20.5610 N   0  3  1  0  0  0
   15.1610    0.3680   20.7070 C   0  0  0  0  0  0
   14.7440    1.1720   19.4580 C   0  0  0  0  0  0
   17.0950   -0.7990   21.7460 C   0  0  0  0  0  0
   18.4680   -1.3940   21.4830 C   0  0  0  0  0  0
   19.4650   -0.6680   20.8230 C   0  0  0  0  0  0
   20.6930   -1.2250   20.5890 C   0  0  0  0  0  0
   20.9270   -2.5300   21.0550 C   0  0  0  0  0  0
   19.8840   -3.2070   21.7290 C   0  0  0  0  0  0
   18.7090   -2.6110   21.9100 N   0  0  0  0  0  0
   20.1500   -4.5680   22.2040 C   0  0  0  0  0  0
   21.3620   -5.0680   21.9820 N   0  0  0  0  0  0
   22.2950   -4.3720   21.3300 C   0  0  0  0  0  0
   22.0990   -3.1480   20.8840 N   0  0  0  0  0  0
   23.6360   -4.9660   21.0960 C   0  0  0  0  0  0
   24.3970   -4.5580   19.9940 C   0  0  0  0  0  0
   25.5900   -5.0930   19.8040 N   0  0  0  0  0  0
   26.0690   -6.0040   20.6420 C   0  0  0  0  0  0
   25.3800   -6.4150   21.7010 N   0  0  0  0  0  0
   24.1760   -5.9280   21.9590 C   0  0  0  0  0  0
   27.3230   -6.5370   20.4040 N   0  0  0  0  0  0
   19.1890   -5.2880   22.8940 N   0  0  0  0  0  0
   19.7610   -6.4180   23.6370 C   0  0  0  0  0  0
   18.6300   -7.2810   24.2040 C   0  0  0  0  0  0
   17.4340   -6.5110   24.3620 O   0  0  0  0  0  0
   16.8820   -5.9750   23.1520 C   0  0  0  0  0  0
   17.9900   -5.6750   22.1380 C   0  0  0  0  0  0
   13.5280    1.4410   16.6360 O   0  0  0  0  0  0
   16.6150    2.6010   17.3354 H   0  0  0  0  0  0
   15.0471    3.1953   17.9800 H   0  0  0  0  0  0
   15.3997    3.3166   16.2229 H   0  0  0  0  0  0
   16.6891    0.5618   15.9106 H   0  0  0  0  0  0
   15.4607    1.2762   14.8118 H   0  0  0  0  0  0
   15.1793   -0.3398   15.5441 H   0  0  0  0  0  0
   14.4553   -0.4256   18.0569 H   0  0  0  0  0  0
   16.8539   -0.4832   17.2621 H   0  0  0  0  0  0
   17.2232    0.8728   18.3808 H   0  0  0  0  0  0
   15.7584   -1.6608   19.3101 H   0  0  0  0  0  0
   17.5510   -1.5509   19.3449 H   0  0  0  0  0  0
   17.1838    0.7568   20.4338 H   0  0  0  0  0  0
   14.4771   -0.4848   20.8294 H   0  0  0  0  0  0
   15.0965    1.0195   21.5910 H   0  0  0  0  0  0
   15.2494    2.1484   19.4933 H   0  0  0  0  0  0
   13.6548    1.3214   19.4934 H   0  0  0  0  0  0
   17.1902   -0.0744   22.5682 H   0  0  0  0  0  0
   16.4238   -1.6149   22.0523 H   0  0  0  0  0  0
   19.2620    0.3505   20.4921 H   0  0  0  0  0  0
   21.4671   -0.6724   20.0566 H   0  0  0  0  0  0
   24.0106   -3.8094   19.3024 H   0  0  0  0  0  0
   23.6145   -6.2700   22.8284 H   0  0  0  0  0  0
   27.9047   -6.2060   19.5310 H   0  0  0  0  0  0
   27.7386   -7.2919   21.0877 H   0  0  0  0  0  0
   20.3816   -7.0247   22.9611 H   0  0  0  0  0  0
   20.3812   -6.0380   24.4622 H   0  0  0  0  0  0
   18.4263   -8.1158   23.5173 H   0  0  0  0  0  0
   18.9285   -7.6781   25.1855 H   0  0  0  0  0  0
   16.1855   -6.7041   22.7123 H   0  0  0  0  0  0
   16.3433   -5.0425   23.3763 H   0  0  0  0  0  0
   17.6913   -4.8487   21.4761 H   0  0  0  0  0  0
   18.2097   -6.5676   21.5339 H   0  0  0  0  0  0
   13.1840    2.0355   15.7768 H   0  0  0  0  0  0
  1  2  1  0  0  0
  1 35  1  0  0  0
  1 36  1  0  0  0
  1 37  1  0  0  0
  2  3  1  0  0  0
  2  4  1  0  0  0
  2 34  1  0  0  0
  3 38  1  0  0  0
  3 39  1  0  0  0
  3 40  1  0  0  0
  4  5  1  0  0  0
  4  9  1  0  0  0
  4 41  1  0  0  0
  5  6  1  0  0  0
  5 42  1  0  0  0
  5 43  1  0  0  0
  6  7  1  0  0  0
  6 44  1  0  0  0
  6 45  1  0  0  0
  7  8  1  0  0  0
  7 10  1  0  0  0
  7 46  1  0  0  0
  8  9  1  0  0  0
  8 47  1  0  0  0
  8 48  1  0  0  0
  9 49  1  0  0  0
  9 50  1  0  0  0
 10 11  1  0  0  0
 10 51  1  0  0  0
 10 52  1  0  0  0
 11 12  2  0  0  0
 11 16  1  0  0  0
 12 13  1  0  0  0
 12 53  1  0  0  0
 13 14  2  0  0  0
 13 54  1  0  0  0
 14 15  1  0  0  0
 14 20  1  0  0  0
 15 16  2  0  0  0
 15 17  1  0  0  0
 17 18  2  0  0  0
 17 28  1  0  0  0
 18 19  1  0  0  0
 19 20  2  0  0  0
 19 21  1  0  0  0
 21 22  2  0  0  0
 21 26  1  0  0  0
 22 23  1  0  0  0
 22 55  1  0  0  0
 23 24  2  0  0  0
 24 25  1  0  0  0
 24 27  1  0  0  0
 25 26  2  0  0  0
 26 56  1  0  0  0
 27 57  1  0  0  0
 27 58  1  0  0  0
 28 29  1  0  0  0
 28 33  1  0  0  0
 29 30  1  0  0  0
 29 59  1  0  0  0
 29 60  1  0  0  0
 30 31  1  0  0  0
 30 61  1  0  0  0
 30 62  1  0  0  0
 31 32  1  0  0  0
 32 33  1  0  0  0
 32 63  1  0  0  0
 32 64  1  0  0  0
 33 65  1  0  0  0
 33 66  1  0  0  0
 34 67  1  0  0  0
M  CHG  1   7   1
M  END
> <s_m_source_file>
../4ezl_ligand.sdf

> <i_m_source_file_index>
1

> <s_epik_input>
W0NIM11DKFtDSDNdKShbT0hdKVtDQEhdMVtDSDJdW0NIMl1bTkBASCtdKFtDSDJdW0NIMl0xKVtDSDJdYyhbY0hdW2NIXTIpbmMoYzIzKWMoTjRbQ0gyXVtDSDJdT1tDSDJdW0NIMl00KW5jKG4zKS1jNVtjSF1uYyhbTkgyXSluW2NIXTU=

> <s_epik_cmdline>
J2VwaWtfYXBwJywgJy1pbWFlJywgJ2xpZ2FuZF9wcm8ubWFlJywgJy1vbWFlJywgJ2xpZ2FuZF9wcmVwLm1hZScsICctbXMnLCAnMScsICctcGgnLCAnNycsICctcGh0JywgJzAuNScsICctbnQn

> <r_lp_tautomer_probability>
0.999999987636

> <r_epik_Ionization_Penalty>
  0.0286

> <r_epik_Ionization_Penalty_Charging>
  0.0286

> <r_epik_Ionization_Penalty_Neutral>
  0.0000

> <r_epik_State_Penalty>
  0.0235

> <r_epik_Charging_Adjusted_Penalty>
0.052071282482824

> <i_epik_Tot_Q>
1

> <i_epik_Tot_abs_Q>
1

$$$$
