4ezo_ligand
                    3D
 Schrodinger Suite 2020-3.
147151  0  0  1  0            999 V2000
   -9.2080    5.1030   -1.9470 N   0  3  0  0  0  0
   -9.4300    6.2980   -2.7490 C   0  0  2  0  0  0
  -10.6580    6.1900   -3.6750 C   0  0  0  0  0  0
  -10.7810    5.2040   -4.4120 O   0  0  0  0  0  0
   -8.1320    6.4160   -3.5800 C   0  0  0  0  0  0
   -7.4940    5.0710   -3.4940 C   0  0  0  0  0  0
   -7.8410    4.5900   -2.1160 C   0  0  0  0  0  0
  -11.5320    7.2140   -3.6500 N   0  0  0  0  0  0
  -12.5460    7.3850   -4.6970 C   0  0  2  0  0  0
  -11.9140    7.5780   -6.0850 C   0  0  0  0  0  0
  -10.7650    7.9910   -6.2430 O   0  0  0  0  0  0
  -13.2850    8.6710   -4.2840 C   0  0  0  0  0  0
  -12.8180    9.0410   -2.9160 C   0  0  0  0  0  0
  -11.4980    8.3470   -2.6960 C   0  0  0  0  0  0
  -12.6930    7.3340   -7.1070 N   0  0  0  0  0  0
  -12.1550    7.3640   -8.4500 C   0  0  2  0  0  0
  -12.6150    8.5330   -9.2800 C   0  0  0  0  0  0
  -13.7300    9.0260   -9.1520 O   0  0  0  0  0  0
  -12.6500    6.1470   -9.1760 C   0  0  0  0  0  0
  -12.4130    4.8710   -8.4770 C   0  0  0  0  0  0
  -11.1640    4.5840   -7.9290 C   0  0  0  0  0  0
  -13.4350    3.9410   -8.3590 C   0  0  0  0  0  0
  -10.9260    3.3820   -7.2730 C   0  0  0  0  0  0
  -13.2300    2.7390   -7.7130 C   0  0  0  0  0  0
  -11.9770    2.4590   -7.1730 C   0  0  0  0  0  0
  -11.7920    1.2520   -6.5230 O   0  0  0  0  0  0
  -11.7800    8.8900  -10.2350 N   0  0  0  0  0  0
  -12.0230   10.0720  -11.0440 C   0  0  2  0  0  0
  -12.3700    9.6830  -12.4800 C   0  0  0  0  0  0
  -11.6960    8.8340  -13.0490 O   0  0  0  0  0  0
  -10.7510   10.8930  -11.0240 C   0  0  0  0  0  0
  -10.5160   11.5850   -9.7020 C   0  0  0  0  0  0
   -9.1710   12.3080   -9.8040 C   0  0  0  0  0  0
  -11.6430   12.5970   -9.5450 C   0  0  0  0  0  0
  -13.3580   10.3560  -13.0900 N   0  0  0  0  0  0
  -13.6620   10.1470  -14.5070 C   0  0  2  0  0  0
  -12.5650   10.6810  -15.4710 C   0  0  0  0  0  0
  -11.7920   11.5650  -15.1120 O   0  0  0  0  0  0
  -14.9360   10.9710  -14.6880 C   0  0  0  0  0  0
  -14.7530   12.1160  -13.7520 C   0  0  0  0  0  0
  -14.1730   11.4660  -12.5330 C   0  0  0  0  0  0
  -12.5010   10.1250  -16.6760 N   0  0  0  0  0  0
  -11.5630   10.6320  -17.6660 C   0  0  2  0  0  0
  -12.2190   11.8200  -18.3610 C   0  0  0  0  0  0
  -13.4140   12.0480  -18.1770 O   0  0  0  0  0  0
  -11.1430    9.5490  -18.6620 C   0  0  0  0  0  0
  -12.3130    8.9840  -19.4430 C   0  0  0  0  0  0
  -11.8520    8.4630  -20.7810 C   0  0  0  0  0  0
  -13.0120    7.9140  -21.4730 N   0  0  0  0  0  0
  -13.0310    7.5010  -22.7310 C   0  0  0  0  0  0
  -11.9410    7.5520  -23.4780 N   0  0  0  0  0  0
  -14.1540    7.0240  -23.2350 N   0  3  0  0  0  0
  -11.4260   12.6010  -19.1130 N   0  0  0  0  0  0
  -11.9700   13.6470  -19.9920 C   0  0  2  0  0  0
  -12.9120   13.0430  -21.0430 C   0  0  0  0  0  0
  -12.6110   11.9680  -21.5760 O   0  0  0  0  0  0
  -10.7040   14.2500  -20.6330 C   0  0  0  0  0  0
   -9.6660   14.0970  -19.5430 C   0  0  0  0  0  0
   -9.9790   12.7680  -18.8950 C   0  0  0  0  0  0
  -14.0490   13.7050  -21.3070 N   0  0  0  0  0  0
  -15.0630   13.1770  -22.2380 C   0  0  2  0  0  0
  -14.5120   13.0130  -23.6560 C   0  0  0  0  0  0
  -13.9880   13.9990  -24.2398 O   0  5  0  0  0  0
  -16.3000   14.0810  -22.2840 C   0  0  0  0  0  0
  -17.4110   13.7040  -21.3240 C   0  0  0  0  0  0
  -18.2450   14.9340  -21.0250 C   0  0  0  0  0  0
  -19.2670   14.7270  -19.9970 N   0  0  0  0  0  0
  -19.1460   15.0710  -18.7130 C   0  0  0  0  0  0
  -18.0280   15.6270  -18.2720 N   0  3  0  0  0  0
  -20.1450   14.8540  -17.8620 N   0  0  0  0  0  0
  -14.5819   11.8972  -24.2371 O   0  0  0  0  0  0
   -9.3627    5.3408   -0.8842 H   0  0  0  0  0  0
   -9.9156    4.3187   -2.2540 H   0  0  0  0  0  0
   -9.6373    7.1391   -2.0711 H   0  0  0  0  0  0
   -8.3838    6.6800   -4.6178 H   0  0  0  0  0  0
   -7.4900    7.1979   -3.1482 H   0  0  0  0  0  0
   -7.9079    4.4182   -4.2766 H   0  0  0  0  0  0
   -6.4078    5.1706   -3.6362 H   0  0  0  0  0  0
   -7.1914    5.0135   -1.3358 H   0  0  0  0  0  0
   -7.8479    3.4932   -2.0318 H   0  0  0  0  0  0
  -13.1722    6.4820   -4.7467 H   0  0  0  0  0  0
  -13.0514    9.4738   -4.9988 H   0  0  0  0  0  0
  -14.3694    8.4862   -4.2818 H   0  0  0  0  0  0
  -12.6978   10.1326   -2.8524 H   0  0  0  0  0  0
  -13.5590    8.7098   -2.1735 H   0  0  0  0  0  0
  -11.3965    7.9605   -1.6712 H   0  0  0  0  0  0
  -10.6418    8.9971   -2.9291 H   0  0  0  0  0  0
  -13.7570    7.1060   -6.9457 H   0  0  0  0  0  0
  -11.0675    7.4208   -8.2948 H   0  0  0  0  0  0
  -13.7364    6.2277   -9.3287 H   0  0  0  0  0  0
  -12.1472    6.0721  -10.1515 H   0  0  0  0  0  0
  -10.3600    5.3148   -8.0164 H   0  0  0  0  0  0
  -14.4145    4.1628   -8.7827 H   0  0  0  0  0  0
   -9.9471    3.1623   -6.8470 H   0  0  0  0  0  0
  -14.0408    2.0157   -7.6262 H   0  0  0  0  0  0
  -10.8122    1.0063   -6.0876 H   0  0  0  0  0  0
  -10.8859    8.2749  -10.4146 H   0  0  0  0  0  0
  -12.8711   10.6166  -10.6033 H   0  0  0  0  0  0
   -9.8886   10.2377  -11.2160 H   0  0  0  0  0  0
  -10.8028   11.6684  -11.8025 H   0  0  0  0  0  0
  -10.5046   10.8859   -8.8528 H   0  0  0  0  0  0
   -8.3647   11.5683   -9.9170 H   0  0  0  0  0  0
   -9.0019   12.8982   -8.8913 H   0  0  0  0  0  0
   -9.1797   12.9772  -10.6770 H   0  0  0  0  0  0
  -12.6042   12.0671   -9.4727 H   0  0  0  0  0  0
  -11.6584   13.2669  -10.4173 H   0  0  0  0  0  0
  -11.4805   13.1880   -8.6316 H   0  0  0  0  0  0
  -13.7496    9.0666  -14.6945 H   0  0  0  0  0  0
  -15.0156   11.2977  -15.7353 H   0  0  0  0  0  0
  -15.8104   10.3562  -14.4282 H   0  0  0  0  0  0
  -14.0718   12.8528  -14.2027 H   0  0  0  0  0  0
  -15.7267   12.5887  -13.5561 H   0  0  0  0  0  0
  -14.9470   11.0548  -11.8683 H   0  0  0  0  0  0
  -13.5241   12.1471  -11.9629 H   0  0  0  0  0  0
  -13.1593    9.2795  -16.9244 H   0  0  0  0  0  0
  -10.6569   10.9423  -17.1250 H   0  0  0  0  0  0
  -10.4296    9.9721  -19.3845 H   0  0  0  0  0  0
  -10.6673    8.7178  -18.1209 H   0  0  0  0  0  0
  -12.7683    8.1589  -18.8757 H   0  0  0  0  0  0
  -13.0611    9.7739  -19.6054 H   0  0  0  0  0  0
  -11.4156    9.2869  -21.3647 H   0  0  0  0  0  0
  -11.0944    7.6802  -20.6285 H   0  0  0  0  0  0
  -13.9721    7.8163  -20.9450 H   0  0  0  0  0  0
  -11.0049    7.9494  -23.0586 H   0  0  0  0  0  0
  -11.9704    7.1971  -24.5187 H   0  0  0  0  0  0
  -15.0610    6.9813  -22.6141 H   0  0  0  0  0  0
  -12.5726   14.3739  -19.4276 H   0  0  0  0  0  0
  -10.4491   13.6858  -21.5422 H   0  0  0  0  0  0
  -10.8909   15.3020  -20.8946 H   0  0  0  0  0  0
   -8.6609   14.1058  -19.9900 H   0  0  0  0  0  0
   -9.7575   14.9296  -18.8300 H   0  0  0  0  0  0
   -9.7690   12.7725  -17.8152 H   0  0  0  0  0  0
   -9.4382   11.9363  -19.3703 H   0  0  0  0  0  0
  -14.2130   14.6697  -20.8045 H   0  0  0  0  0  0
  -15.3182   12.1906  -21.8234 H   0  0  0  0  0  0
  -16.0095   15.1128  -22.0370 H   0  0  0  0  0  0
  -16.7361   14.0546  -23.2935 H   0  0  0  0  0  0
  -18.0439   12.9295  -21.7817 H   0  0  0  0  0  0
  -16.9743   13.3168  -20.3916 H   0  0  0  0  0  0
  -17.5900   15.7442  -20.6721 H   0  0  0  0  0  0
  -18.7655   15.2552  -21.9393 H   0  0  0  0  0  0
  -20.2245   14.2542  -20.2607 H   0  0  0  0  0  0
  -17.1947   15.8116  -18.9659 H   0  0  0  0  0  0
  -21.0788   14.3928  -18.2161 H   0  0  0  0  0  0
  -20.0374   15.1357  -16.8041 H   0  0  0  0  0  0
  -14.1827    6.6692  -24.2758 H   0  0  0  0  0  0
  -17.9326   15.9042  -17.2118 H   0  0  0  0  0  0
  1  2  1  0  0  0
  1  7  1  0  0  0
  1 72  1  0  0  0
  1 73  1  0  0  0
  2  3  1  0  0  0
  2  5  1  0  0  0
  2 74  1  0  0  0
  3  4  2  0  0  0
  3  8  1  0  0  0
  5  6  1  0  0  0
  5 75  1  0  0  0
  5 76  1  0  0  0
  6  7  1  0  0  0
  6 77  1  0  0  0
  6 78  1  0  0  0
  7 79  1  0  0  0
  7 80  1  0  0  0
  8  9  1  0  0  0
  8 14  1  0  0  0
  9 10  1  0  0  0
  9 12  1  0  0  0
  9 81  1  0  0  0
 10 11  2  0  0  0
 10 15  1  0  0  0
 12 13  1  0  0  0
 12 82  1  0  0  0
 12 83  1  0  0  0
 13 14  1  0  0  0
 13 84  1  0  0  0
 13 85  1  0  0  0
 14 86  1  0  0  0
 14 87  1  0  0  0
 15 16  1  0  0  0
 15 88  1  0  0  0
 16 17  1  0  0  0
 16 19  1  0  0  0
 16 89  1  0  0  0
 17 18  2  0  0  0
 17 27  1  0  0  0
 19 20  1  0  0  0
 19 90  1  0  0  0
 19 91  1  0  0  0
 20 21  2  0  0  0
 20 22  1  0  0  0
 21 23  1  0  0  0
 21 92  1  0  0  0
 22 24  2  0  0  0
 22 93  1  0  0  0
 23 25  2  0  0  0
 23 94  1  0  0  0
 24 25  1  0  0  0
 24 95  1  0  0  0
 25 26  1  0  0  0
 26 96  1  0  0  0
 27 28  1  0  0  0
 27 97  1  0  0  0
 28 29  1  0  0  0
 28 31  1  0  0  0
 28 98  1  0  0  0
 29 30  2  0  0  0
 29 35  1  0  0  0
 31 32  1  0  0  0
 31 99  1  0  0  0
 31100  1  0  0  0
 32 33  1  0  0  0
 32 34  1  0  0  0
 32101  1  0  0  0
 33102  1  0  0  0
 33103  1  0  0  0
 33104  1  0  0  0
 34105  1  0  0  0
 34106  1  0  0  0
 34107  1  0  0  0
 35 36  1  0  0  0
 35 41  1  0  0  0
 36 37  1  0  0  0
 36 39  1  0  0  0
 36108  1  0  0  0
 37 38  2  0  0  0
 37 42  1  0  0  0
 39 40  1  0  0  0
 39109  1  0  0  0
 39110  1  0  0  0
 40 41  1  0  0  0
 40111  1  0  0  0
 40112  1  0  0  0
 41113  1  0  0  0
 41114  1  0  0  0
 42 43  1  0  0  0
 42115  1  0  0  0
 43 44  1  0  0  0
 43 46  1  0  0  0
 43116  1  0  0  0
 44 45  2  0  0  0
 44 53  1  0  0  0
 46 47  1  0  0  0
 46117  1  0  0  0
 46118  1  0  0  0
 47 48  1  0  0  0
 47119  1  0  0  0
 47120  1  0  0  0
 48 49  1  0  0  0
 48121  1  0  0  0
 48122  1  0  0  0
 49 50  1  0  0  0
 49123  1  0  0  0
 50 51  1  0  0  0
 50 52  2  0  0  0
 51124  1  0  0  0
 51125  1  0  0  0
 52126  1  0  0  0
 52146  1  0  0  0
 53 54  1  0  0  0
 53 59  1  0  0  0
 54 55  1  0  0  0
 54 57  1  0  0  0
 54127  1  0  0  0
 55 56  2  0  0  0
 55 60  1  0  0  0
 57 58  1  0  0  0
 57128  1  0  0  0
 57129  1  0  0  0
 58 59  1  0  0  0
 58130  1  0  0  0
 58131  1  0  0  0
 59132  1  0  0  0
 59133  1  0  0  0
 60 61  1  0  0  0
 60134  1  0  0  0
 61 62  1  0  0  0
 61 64  1  0  0  0
 61135  1  0  0  0
 62 63  1  0  0  0
 62 71  2  0  0  0
 64 65  1  0  0  0
 64136  1  0  0  0
 64137  1  0  0  0
 65 66  1  0  0  0
 65138  1  0  0  0
 65139  1  0  0  0
 66 67  1  0  0  0
 66140  1  0  0  0
 66141  1  0  0  0
 67 68  1  0  0  0
 67142  1  0  0  0
 68 69  2  0  0  0
 68 70  1  0  0  0
 69143  1  0  0  0
 69147  1  0  0  0
 70144  1  0  0  0
 70145  1  0  0  0
M  CHG  4   1   1  52   1  63  -1  69   1
M  END
> <s_m_source_file>
../4ezo_ligand.sdf

> <i_m_source_file_index>
1

> <s_epik_input>
W0NIMl0xW0NIMl1bQ0gyXVtOSDIrXVtDQEBIXTFDKD1PKU4yW0NAQEhdKFtDSDJdW0NIMl1bQ0gyXTIpQyg9TylbTkhdW0NAQEhdKFtDSDJdYzNbY0hdW2NIXWMoW09IXSlbY0hdW2NIXTMpQyg9TylbTkhdW0NAQEhdKFtDSDJdW0NIXShbQ0gzXSlbQ0gzXSlDKD1PKU40W0NAQEhdKFtDSDJdW0NIMl1bQ0gyXTQpQyg9TylbTkhdW0NAQEhdKFtDSDJdW0NIMl1bQ0gyXVtOSF0vQyhbTkgyXSk9TlxbSF0pQyg9TylONVtDQEBIXShbQ0gyXVtDSDJdW0NIMl01KUMoPU8pW05IXVtDQEhdKEMoPU8pW09IXSlbQ0gyXVtDSDJdW0NIMl1bTkhdL0MoPU5cW0hdKVtOSDJd

> <s_epik_cmdline>
J2VwaWtfYXBwJywgJy1pbWFlJywgJ2xpZ2FuZF9wcm8ubWFlJywgJy1vbWFlJywgJ2xpZ2FuZF9wcmVwLm1hZScsICctbXMnLCAnMScsICctcGgnLCAnNycsICctcGh0JywgJzAuNScsICctbnQn

> <r_lp_tautomer_probability>
0.999999999997365

> <r_epik_Ionization_Penalty>
  0.0391

> <r_epik_Ionization_Penalty_Charging>
  0.0382

> <r_epik_Ionization_Penalty_Neutral>
  0.0009

> <r_epik_State_Penalty>
  0.0319

> <r_epik_Charging_Adjusted_Penalty>
0.0701566065337239

> <i_epik_Tot_Q>
2

> <i_epik_Tot_abs_Q>
4

> <s_epik_Chemistry_Notes>
This compound has an imine and may undergo hydrolysis.

$$$$
