4ezq_ligand
                    3D
 Schrodinger Suite 2020-3.
123126  0  0  1  0            999 V2000
  -14.8360  -31.5080   -3.4630 N   0  3  0  0  0  0
  -14.1370  -32.2420   -4.4900 C   0  0  2  0  0  0
  -12.9510  -31.4350   -4.9550 C   0  0  0  0  0  0
  -12.9700  -30.2010   -4.8310 O   0  0  0  0  0  0
  -15.1570  -32.3250   -5.6270 C   0  0  0  0  0  0
  -16.4690  -32.1760   -4.9740 C   0  0  0  0  0  0
  -16.2350  -31.2520   -3.8150 C   0  0  0  0  0  0
  -11.9210  -32.1120   -5.4880 N   0  0  0  0  0  0
  -10.7400  -31.4950   -6.0530 C   0  0  2  0  0  0
  -11.0430  -30.4010   -7.0970 C   0  0  0  0  0  0
  -12.0760  -30.4310   -7.7350 O   0  0  0  0  0  0
  -10.0000  -32.6710   -6.6900 C   0  0  0  0  0  0
  -10.4110  -33.8400   -5.8700 C   0  0  0  0  0  0
  -11.8410  -33.5790   -5.5410 C   0  0  0  0  0  0
  -10.1350  -29.4280   -7.2150 N   0  0  0  0  0  0
  -10.2790  -28.3190   -8.1310 C   0  0  2  0  0  0
   -9.8400  -28.8980   -9.4430 C   0  0  0  0  0  0
   -9.0650  -29.8560   -9.4470 O   0  0  0  0  0  0
   -9.2900  -27.2250   -7.7150 C   0  0  0  0  0  0
   -9.6020  -26.5510   -6.3790 C   0  0  0  0  0  0
  -11.0550  -26.1220   -6.3630 C   0  0  0  0  0  0
  -11.4780  -25.5770   -5.0610 N   0  0  0  0  0  0
  -11.9000  -26.2870   -4.0120 C   0  0  0  0  0  0
  -12.2450  -25.6650   -2.9000 N   0  0  0  0  0  0
  -11.9980  -27.6020   -4.0600 N   0  3  0  0  0  0
  -10.2840  -28.3130  -10.5590 N   0  0  0  0  0  0
   -9.8840  -28.8320  -11.8700 C   0  0  2  0  0  0
   -8.4040  -28.6260  -12.0700 C   0  0  0  0  0  0
   -7.8190  -27.7290  -11.4820 O   0  0  0  0  0  0
  -10.6550  -27.9550  -12.8350 C   0  0  0  0  0  0
  -11.8810  -27.5920  -12.0590 C   0  0  0  0  0  0
  -11.3680  -27.3240  -10.6810 C   0  0  0  0  0  0
   -7.7940  -29.4940  -12.8540 N   0  0  0  0  0  0
   -6.4410  -29.3330  -13.1920 C   0  0  2  0  0  0
   -6.4340  -29.0300  -14.6560 C   0  0  0  0  0  0
   -7.1970  -29.5720  -15.4060 O   0  0  0  0  0  0
   -5.6230  -30.5620  -12.8280 C   0  0  2  0  0  0
   -4.1390  -30.1590  -12.7680 C   0  0  0  0  0  0
   -5.8770  -31.6580  -13.8230 C   0  0  0  0  0  0
   -3.2430  -31.0480  -11.9120 C   0  0  0  0  0  0
   -5.5750  -28.1000  -15.0290 N   0  0  0  0  0  0
   -5.5750  -27.5010  -16.3340 C   0  0  2  0  0  0
   -4.3400  -27.8860  -17.0670 C   0  0  0  0  0  0
   -3.2530  -27.6130  -16.5920 O   0  0  0  0  0  0
   -5.5370  -25.9920  -16.1590 C   0  0  0  0  0  0
   -5.4020  -25.3020  -17.4620 C   0  0  0  0  0  0
   -4.3900  -24.3900  -17.6730 C   0  0  0  0  0  0
   -6.2840  -25.5980  -18.5080 C   0  0  0  0  0  0
   -4.2560  -23.7570  -18.8950 C   0  0  0  0  0  0
   -6.1690  -24.9780  -19.7310 C   0  0  0  0  0  0
   -5.1490  -24.0610  -19.9160 C   0  0  0  0  0  0
   -5.0280  -23.4510  -21.1300 O   0  0  0  0  0  0
   -4.4840  -28.4440  -18.2530 N   0  0  0  0  0  0
   -3.3530  -29.0940  -18.9350 C   0  0  2  0  0  0
   -2.4290  -28.2150  -19.8120 C   0  0  0  0  0  0
   -2.8600  -27.2544  -20.5042 O   0  5  0  0  0  0
   -3.8670  -30.3210  -19.7030 C   0  0  0  0  0  0
   -4.9830  -31.0600  -18.9530 C   0  0  0  0  0  0
   -5.9090  -31.6110  -19.5680 O   0  0  0  0  0  0
   -4.9100  -31.0590  -17.6160 N   0  0  0  0  0  0
   -1.1954  -28.4705  -19.8347 O   0  0  0  0  0  0
  -14.8210  -32.0840   -2.5260 H   0  0  0  0  0  0
  -14.3421  -30.5379   -3.3050 H   0  0  0  0  0  0
  -13.7828  -33.2108   -4.1079 H   0  0  0  0  0  0
  -14.9685  -31.5163   -6.3485 H   0  0  0  0  0  0
  -15.0636  -33.2971   -6.1332 H   0  0  0  0  0  0
  -17.1883  -31.7504   -5.6892 H   0  0  0  0  0  0
  -16.8253  -33.1609   -4.6379 H   0  0  0  0  0  0
  -16.8783  -31.4845   -2.9535 H   0  0  0  0  0  0
  -16.3566  -30.1934   -4.0882 H   0  0  0  0  0  0
  -10.1989  -30.9866   -5.2414 H   0  0  0  0  0  0
  -10.3087  -32.7725   -7.7409 H   0  0  0  0  0  0
   -8.9158  -32.4914   -6.6420 H   0  0  0  0  0  0
  -10.2863  -34.7618   -6.4572 H   0  0  0  0  0  0
   -9.7849  -33.8929   -4.9671 H   0  0  0  0  0  0
  -12.1284  -33.9974   -4.5651 H   0  0  0  0  0  0
  -12.5238  -33.9557   -6.3168 H   0  0  0  0  0  0
   -9.2449  -29.4987   -6.5726 H   0  0  0  0  0  0
  -11.3079  -27.9302   -8.1441 H   0  0  0  0  0  0
   -8.2825  -27.6570   -7.6238 H   0  0  0  0  0  0
   -9.2808  -26.4305   -8.4757 H   0  0  0  0  0  0
   -9.4181  -27.2604   -5.5587 H   0  0  0  0  0  0
   -8.9560  -25.6696   -6.2533 H   0  0  0  0  0  0
  -11.2151  -25.3410   -7.1209 H   0  0  0  0  0  0
  -11.6954  -26.9877   -6.5877 H   0  0  0  0  0  0
  -11.4625  -24.4908   -4.8882 H   0  0  0  0  0  0
  -12.1715  -24.5693   -2.8372 H   0  0  0  0  0  0
  -12.6060  -26.2424   -2.0361 H   0  0  0  0  0  0
  -11.7161  -28.1415   -4.9763 H   0  0  0  0  0  0
  -10.0915  -29.9078  -11.9680 H   0  0  0  0  0  0
  -10.0471  -27.0768  -13.0981 H   0  0  0  0  0  0
  -10.8863  -28.5270  -13.7457 H   0  0  0  0  0  0
  -12.3493  -26.7035  -12.5077 H   0  0  0  0  0  0
  -12.5912  -28.4317  -12.0816 H   0  0  0  0  0  0
  -12.1197  -27.5056   -9.8987 H   0  0  0  0  0  0
  -10.9551  -26.3111  -10.5646 H   0  0  0  0  0  0
   -8.3599  -30.3528  -13.2441 H   0  0  0  0  0  0
   -6.0345  -28.4960  -12.6053 H   0  0  0  0  0  0
   -5.9325  -30.9646  -11.8522 H   0  0  0  0  0  0
   -3.7125  -30.1787  -13.7817 H   0  0  0  0  0  0
   -4.0511  -29.1441  -12.3529 H   0  0  0  0  0  0
   -6.9481  -31.9082  -13.8273 H   0  0  0  0  0  0
   -5.2936  -32.5481  -13.5449 H   0  0  0  0  0  0
   -5.5753  -31.3203  -14.8255 H   0  0  0  0  0  0
   -2.2115  -30.6673  -11.9431 H   0  0  0  0  0  0
   -3.2663  -32.0762  -12.3022 H   0  0  0  0  0  0
   -3.6050  -31.0417  -10.8733 H   0  0  0  0  0  0
   -4.8321  -27.7874  -14.2804 H   0  0  0  0  0  0
   -6.4689  -27.8696  -16.8585 H   0  0  0  0  0  0
   -6.4679  -25.6549  -15.6796 H   0  0  0  0  0  0
   -4.6792  -25.7176  -15.5275 H   0  0  0  0  0  0
   -3.6889  -24.1658  -16.8690 H   0  0  0  0  0  0
   -7.0748  -26.3316  -18.3511 H   0  0  0  0  0  0
   -3.4606  -23.0292  -19.0556 H   0  0  0  0  0  0
   -6.8667  -25.2043  -20.5373 H   0  0  0  0  0  0
   -4.2249  -22.7188  -21.3000 H   0  0  0  0  0  0
   -5.4736  -28.4171  -18.7326 H   0  0  0  0  0  0
   -2.7136  -29.3618  -18.0810 H   0  0  0  0  0  0
   -4.2673  -30.0027  -20.6769 H   0  0  0  0  0  0
   -3.0394  -31.0283  -19.8602 H   0  0  0  0  0  0
   -4.0708  -30.5579  -17.1114 H   0  0  0  0  0  0
   -5.6892  -31.5593  -17.0223 H   0  0  0  0  0  0
  -12.3616  -28.1588   -3.1838 H   0  0  0  0  0  0
  1  2  1  0  0  0
  1  7  1  0  0  0
  1 62  1  0  0  0
  1 63  1  0  0  0
  2  3  1  0  0  0
  2  5  1  0  0  0
  2 64  1  0  0  0
  3  4  2  0  0  0
  3  8  1  0  0  0
  5  6  1  0  0  0
  5 65  1  0  0  0
  5 66  1  0  0  0
  6  7  1  0  0  0
  6 67  1  0  0  0
  6 68  1  0  0  0
  7 69  1  0  0  0
  7 70  1  0  0  0
  8  9  1  0  0  0
  8 14  1  0  0  0
  9 10  1  0  0  0
  9 12  1  0  0  0
  9 71  1  0  0  0
 10 11  2  0  0  0
 10 15  1  0  0  0
 12 13  1  0  0  0
 12 72  1  0  0  0
 12 73  1  0  0  0
 13 14  1  0  0  0
 13 74  1  0  0  0
 13 75  1  0  0  0
 14 76  1  0  0  0
 14 77  1  0  0  0
 15 16  1  0  0  0
 15 78  1  0  0  0
 16 17  1  0  0  0
 16 19  1  0  0  0
 16 79  1  0  0  0
 17 18  2  0  0  0
 17 26  1  0  0  0
 19 20  1  0  0  0
 19 80  1  0  0  0
 19 81  1  0  0  0
 20 21  1  0  0  0
 20 82  1  0  0  0
 20 83  1  0  0  0
 21 22  1  0  0  0
 21 84  1  0  0  0
 21 85  1  0  0  0
 22 23  1  0  0  0
 22 86  1  0  0  0
 23 24  1  0  0  0
 23 25  2  0  0  0
 24 87  1  0  0  0
 24 88  1  0  0  0
 25 89  1  0  0  0
 25123  1  0  0  0
 26 27  1  0  0  0
 26 32  1  0  0  0
 27 28  1  0  0  0
 27 30  1  0  0  0
 27 90  1  0  0  0
 28 29  2  0  0  0
 28 33  1  0  0  0
 30 31  1  0  0  0
 30 91  1  0  0  0
 30 92  1  0  0  0
 31 32  1  0  0  0
 31 93  1  0  0  0
 31 94  1  0  0  0
 32 95  1  0  0  0
 32 96  1  0  0  0
 33 34  1  0  0  0
 33 97  1  0  0  0
 34 35  1  0  0  0
 34 37  1  0  0  0
 34 98  1  0  0  0
 35 36  2  0  0  0
 35 41  1  0  0  0
 37 38  1  0  0  0
 37 39  1  0  0  0
 37 99  1  0  0  0
 38 40  1  0  0  0
 38100  1  0  0  0
 38101  1  0  0  0
 39102  1  0  0  0
 39103  1  0  0  0
 39104  1  0  0  0
 40105  1  0  0  0
 40106  1  0  0  0
 40107  1  0  0  0
 41 42  1  0  0  0
 41108  1  0  0  0
 42 43  1  0  0  0
 42 45  1  0  0  0
 42109  1  0  0  0
 43 44  2  0  0  0
 43 53  1  0  0  0
 45 46  1  0  0  0
 45110  1  0  0  0
 45111  1  0  0  0
 46 47  2  0  0  0
 46 48  1  0  0  0
 47 49  1  0  0  0
 47112  1  0  0  0
 48 50  2  0  0  0
 48113  1  0  0  0
 49 51  2  0  0  0
 49114  1  0  0  0
 50 51  1  0  0  0
 50115  1  0  0  0
 51 52  1  0  0  0
 52116  1  0  0  0
 53 54  1  0  0  0
 53117  1  0  0  0
 54 55  1  0  0  0
 54 57  1  0  0  0
 54118  1  0  0  0
 55 56  1  0  0  0
 55 61  2  0  0  0
 57 58  1  0  0  0
 57119  1  0  0  0
 57120  1  0  0  0
 58 59  2  0  0  0
 58 60  1  0  0  0
 60121  1  0  0  0
 60122  1  0  0  0
M  CHG  3   1   1  25   1  56  -1
M  END
> <s_m_source_file>
../4ezq_ligand.sdf

> <i_m_source_file_index>
1

> <s_epik_input>
W0NIMl0xW0NIMl1bQ0gyXVtOSDIrXVtDQEBIXTFDKD1PKU4yW0NAQEhdKFtDSDJdW0NIMl1bQ0gyXTIpQyg9TylbTkhdW0NAQEhdKFtDSDJdW0NIMl1bQ0gyXVtOSF0vQyhbTkgyXSk9TlxbSF0pQyg9TylOM1tDQEBIXShbQ0gyXVtDSDJdW0NIMl0zKUMoPU8pW05IXVtDQEBIXShbQ0BASF0oW0NIM10pW0NIMl1bQ0gzXSlDKD1PKVtOSF1bQ0BIXShDKD1PKVtOSF1bQ0BIXShDKD1PKVtPSF0pW0NIMl1DKD1PKVtOSDJdKVtDSDJdYzRbY0hdW2NIXWMoW09IXSlbY0hdW2NIXTQ=

> <s_epik_cmdline>
J2VwaWtfYXBwJywgJy1pbWFlJywgJ2xpZ2FuZF9wcm8ubWFlJywgJy1vbWFlJywgJ2xpZ2FuZF9wcmVwLm1hZScsICctbXMnLCAnMScsICctcGgnLCAnNycsICctcGh0JywgJzAuNScsICctbnQn

> <r_lp_tautomer_probability>
0.999999999997365

> <r_epik_Ionization_Penalty>
  0.0391

> <r_epik_Ionization_Penalty_Charging>
  0.0382

> <r_epik_Ionization_Penalty_Neutral>
  0.0008

> <r_epik_State_Penalty>
  0.0319

> <r_epik_Charging_Adjusted_Penalty>
0.0701497083711013

> <i_epik_Tot_Q>
1

> <i_epik_Tot_abs_Q>
3

> <s_epik_Chemistry_Notes>
This compound has an imine and may undergo hydrolysis.

$$$$
