4ezr_ligand
                    3D
 Schrodinger Suite 2020-3.
141143  0  0  1  0            999 V2000
   63.8230   86.2340   18.8110 N   0  3  0  0  0  0
   63.3610   86.3030   20.2350 C   0  0  2  0  0  0
   62.1370   85.4190   20.5310 C   0  0  0  0  0  0
   61.6960   84.6210   19.6870 O   0  0  0  0  0  0
   63.1210   87.7560   20.6460 C   0  0  0  0  0  0
   62.8180   88.5280   19.4950 O   0  0  0  0  0  0
   61.5610   85.6130   21.7190 N   0  0  0  0  0  0
   60.5400   84.6560   22.1550 C   0  0  2  0  0  0
   59.4380   85.3350   22.9070 C   0  0  0  0  0  0
   59.3840   86.5600   22.9430 O   0  0  0  0  0  0
   61.1440   83.4720   22.9380 C   0  0  0  0  0  0
   61.0320   82.1030   22.2320 C   0  0  0  0  0  0
   59.9930   81.2560   22.4320 N   0  0  0  0  0  0
   61.9030   81.4400   21.3720 C   0  0  0  0  0  0
   60.1840   80.1320   21.7240 C   0  0  0  0  0  0
   61.3550   80.2420   21.0820 N   0  0  0  0  0  0
   58.4460   84.5420   23.3920 N   0  0  0  0  0  0
   57.3230   85.1860   24.0020 C   0  0  2  0  0  0
   57.7250   86.1750   25.1060 C   0  0  0  0  0  0
   58.8370   86.0900   25.6200 O   0  0  0  0  0  0
   56.5380   84.0160   24.6180 C   0  0  0  0  0  0
   56.9090   82.8110   23.8080 C   0  0  0  0  0  0
   58.1090   83.1580   22.9780 C   0  0  0  0  0  0
   56.8330   87.1500   25.3660 N   0  0  0  0  0  0
   57.0480   88.1140   26.4190 C   0  0  2  0  0  0
   56.5490   87.3580   27.6390 C   0  0  0  0  0  0
   55.8610   86.3220   27.4900 O   0  0  0  0  0  0
   56.2660   89.4100   26.1810 C   0  0  0  0  0  0
   56.3780   89.8580   24.7130 C   0  0  0  0  0  0
   57.8330   90.2780   24.5860 C   0  0  0  0  0  0
   58.1320   91.0420   23.3830 N   0  0  0  0  0  0
   58.7040   90.5360   22.3170 C   0  0  0  0  0  0
   58.9540   91.3360   21.2930 N   0  3  0  0  0  0
   59.0350   89.2340   22.2730 N   0  0  0  0  0  0
   56.9880   87.7960   28.8180 N   0  0  0  0  0  0
   56.5660   87.2330   30.0900 C   0  0  2  0  0  0
   55.1040   87.4720   30.4180 C   0  0  0  0  0  0
   54.5120   88.5020   30.0140 O   0  0  0  0  0  0
   57.3730   88.0220   31.1020 C   0  0  0  0  0  0
   58.6130   88.4910   30.3890 C   0  0  0  0  0  0
   58.1350   88.7150   28.9470 C   0  0  0  0  0  0
   54.5370   86.6110   31.2500 N   0  0  0  0  0  0
   53.1800   86.8210   31.6680 C   0  0  2  0  0  0
   53.1690   87.1850   33.1160 C   0  0  0  0  0  0
   53.9640   86.7230   33.9150 O   0  0  0  0  0  0
   52.2740   85.6180   31.4190 C   0  0  2  0  0  0
   52.5930   84.4690   32.3510 C   0  0  0  0  0  0
   52.4640   85.1190   30.0220 C   0  0  0  0  0  0
   51.7020   84.4310   33.5830 C   0  0  0  0  0  0
   52.2390   88.0270   33.4540 N   0  0  0  0  0  0
   52.0780   88.5150   34.7680 C   0  0  2  0  0  0
   51.2940   87.4780   35.4770 C   0  0  0  0  0  0
   50.2730   87.1080   35.0220 O   0  0  0  0  0  0
   51.2030   89.7270   34.6430 C   0  0  0  0  0  0
   51.7840   91.0000   35.1500 C   0  0  0  0  0  0
   51.0020   91.4450   36.3640 C   0  0  0  0  0  0
   51.7150   92.4750   37.0670 N   0  0  0  0  0  0
   51.4960   93.7600   36.9030 C   0  0  0  0  0  0
   50.5560   94.1560   36.0850 N   0  3  0  0  0  0
   52.2040   94.6450   37.5640 N   0  0  0  0  0  0
   51.7330   86.9840   36.5970 N   0  0  0  0  0  0
   50.9040   86.0160   37.2540 C   0  0  2  0  0  0
   49.9840   86.6290   38.3220 C   0  0  0  0  0  0
   50.3970   87.4850   39.0750 O   0  5  0  0  0  0
   51.7170   84.8800   37.8660 C   0  0  0  0  0  0
   53.1860   85.0230   37.5660 C   0  0  0  0  0  0
   51.4910   84.8410   39.3580 C   0  0  0  0  0  0
   49.0440   86.4320   38.5410 O   0  0  0  0  0  0
   63.9911   85.1837   18.5306 H   0  0  0  0  0  0
   64.7615   86.7973   18.7023 H   0  0  0  0  0  0
   63.0554   86.6703   18.1549 H   0  0  0  0  0  0
   64.1899   85.8894   20.8281 H   0  0  0  0  0  0
   62.2786   87.8030   21.3518 H   0  0  0  0  0  0
   64.0258   88.1550   21.1279 H   0  0  0  0  0  0
   62.6137   89.6044   19.5929 H   0  0  0  0  0  0
   61.8320   86.4608   22.3654 H   0  0  0  0  0  0
   60.0969   84.2730   21.2239 H   0  0  0  0  0  0
   61.6268   83.5446   23.9237 H   0  0  0  0  0  0
   62.8740   81.7202   20.9378 H   0  0  0  0  0  0
   59.5060   79.2797   21.6791 H   0  0  0  0  0  0
   56.8040   85.7646   23.2236 H   0  0  0  0  0  0
   56.8275   83.8950   25.6723 H   0  0  0  0  0  0
   55.4598   84.2246   24.5555 H   0  0  0  0  0  0
   57.1440   81.9742   24.4822 H   0  0  0  0  0  0
   56.0665   82.5326   23.1579 H   0  0  0  0  0  0
   57.8860   83.1415   21.9010 H   0  0  0  0  0  0
   58.9618   82.4951   23.1861 H   0  0  0  0  0  0
   55.9218   87.2004   24.7518 H   0  0  0  0  0  0
   58.1052   88.4136   26.4692 H   0  0  0  0  0  0
   55.2049   89.2472   26.4208 H   0  0  0  0  0  0
   56.6696   90.2053   26.8249 H   0  0  0  0  0  0
   56.1243   89.0159   24.0523 H   0  0  0  0  0  0
   55.6826   90.6903   24.5296 H   0  0  0  0  0  0
   58.1091   90.9077   25.4446 H   0  0  0  0  0  0
   58.4726   89.3833   24.5668 H   0  0  0  0  0  0
   57.8757   92.1105   23.3322 H   0  0  0  0  0  0
   58.6767   92.3992   21.3452 H   0  0  0  0  0  0
   58.8202   88.5825   23.1329 H   0  0  0  0  0  0
   59.5207   88.8200   21.3771 H   0  0  0  0  0  0
   56.7253   86.1456   30.0435 H   0  0  0  0  0  0
   56.7787   88.8759   31.4594 H   0  0  0  0  0  0
   57.6304   87.3730   31.9520 H   0  0  0  0  0  0
   58.9773   89.4171   30.8577 H   0  0  0  0  0  0
   59.3903   87.7155   30.4565 H   0  0  0  0  0  0
   58.9028   88.4495   28.2053 H   0  0  0  0  0  0
   57.7988   89.7478   28.7730 H   0  0  0  0  0  0
   55.0981   85.7403   31.6203 H   0  0  0  0  0  0
   52.8292   87.6573   31.0454 H   0  0  0  0  0  0
   51.2356   85.9446   31.5775 H   0  0  0  0  0  0
   52.4617   83.5164   31.8169 H   0  0  0  0  0  0
   53.6338   84.5552   32.6965 H   0  0  0  0  0  0
   52.2411   85.9276   29.3103 H   0  0  0  0  0  0
   51.7856   84.2726   29.8396 H   0  0  0  0  0  0
   53.5051   84.7898   29.8887 H   0  0  0  0  0  0
   51.9858   83.5762   34.2145 H   0  0  0  0  0  0
   50.6519   84.3252   33.2729 H   0  0  0  0  0  0
   51.8239   85.3641   34.1526 H   0  0  0  0  0  0
   51.5578   88.3590   32.6567 H   0  0  0  0  0  0
   53.0498   88.7181   35.2416 H   0  0  0  0  0  0
   50.9638   89.8988   33.5832 H   0  0  0  0  0  0
   50.2726   89.5673   35.2076 H   0  0  0  0  0  0
   52.8370   90.8388   35.4243 H   0  0  0  0  0  0
   51.7230   91.7689   34.3658 H   0  0  0  0  0  0
   50.0246   91.8376   36.0469 H   0  0  0  0  0  0
   50.8520   90.5885   37.0378 H   0  0  0  0  0  0
   52.4968   92.2057   37.7925 H   0  0  0  0  0  0
   49.9617   93.4151   35.5302 H   0  0  0  0  0  0
   52.9951   94.3132   38.2525 H   0  0  0  0  0  0
   52.0065   95.7187   37.4297 H   0  0  0  0  0  0
   52.6944   87.2782   37.0432 H   0  0  0  0  0  0
   50.3063   85.6476   36.4072 H   0  0  0  0  0  0
   51.3874   83.9294   37.4214 H   0  0  0  0  0  0
   53.3368   85.0501   36.4767 H   0  0  0  0  0  0
   53.7319   84.1676   37.9906 H   0  0  0  0  0  0
   53.5621   85.9557   38.0116 H   0  0  0  0  0  0
   50.4154   84.7365   39.5633 H   0  0  0  0  0  0
   51.8616   85.7731   39.8094 H   0  0  0  0  0  0
   52.0314   83.9850   39.7884 H   0  0  0  0  0  0
   59.4391   90.9378   20.3896 H   0  0  0  0  0  0
   50.3595   95.2301   35.9516 H   0  0  0  0  0  0
   59.1665   81.5468   23.0971 H   0  0  0  0  0  0
  1  2  1  0  0  0
  1 69  1  0  0  0
  1 70  1  0  0  0
  1 71  1  0  0  0
  2  3  1  0  0  0
  2  5  1  0  0  0
  2 72  1  0  0  0
  3  4  2  0  0  0
  3  7  1  0  0  0
  5  6  1  0  0  0
  5 73  1  0  0  0
  5 74  1  0  0  0
  6 75  1  0  0  0
  7  8  1  0  0  0
  7 76  1  0  0  0
  8  9  1  0  0  0
  8 11  1  0  0  0
  8 77  1  0  0  0
  9 10  2  0  0  0
  9 17  1  0  0  0
 11 12  2  0  0  0
 11 78  1  0  0  0
 12 13  1  0  0  0
 12 14  1  0  0  0
 13 15  1  0  0  0
 13141  1  0  0  0
 14 16  2  0  0  0
 14 79  1  0  0  0
 15 16  1  0  0  0
 15 80  1  0  0  0
 17 18  1  0  0  0
 17 23  1  0  0  0
 18 19  1  0  0  0
 18 21  1  0  0  0
 18 81  1  0  0  0
 19 20  2  0  0  0
 19 24  1  0  0  0
 21 22  1  0  0  0
 21 82  1  0  0  0
 21 83  1  0  0  0
 22 23  1  0  0  0
 22 84  1  0  0  0
 22 85  1  0  0  0
 23 86  1  0  0  0
 23 87  1  0  0  0
 24 25  1  0  0  0
 24 88  1  0  0  0
 25 26  1  0  0  0
 25 28  1  0  0  0
 25 89  1  0  0  0
 26 27  2  0  0  0
 26 35  1  0  0  0
 28 29  1  0  0  0
 28 90  1  0  0  0
 28 91  1  0  0  0
 29 30  1  0  0  0
 29 92  1  0  0  0
 29 93  1  0  0  0
 30 31  1  0  0  0
 30 94  1  0  0  0
 30 95  1  0  0  0
 31 32  1  0  0  0
 31 96  1  0  0  0
 32 33  2  0  0  0
 32 34  1  0  0  0
 33 97  1  0  0  0
 33139  1  0  0  0
 34 98  1  0  0  0
 34 99  1  0  0  0
 35 36  1  0  0  0
 35 41  1  0  0  0
 36 37  1  0  0  0
 36 39  1  0  0  0
 36100  1  0  0  0
 37 38  2  0  0  0
 37 42  1  0  0  0
 39 40  1  0  0  0
 39101  1  0  0  0
 39102  1  0  0  0
 40 41  1  0  0  0
 40103  1  0  0  0
 40104  1  0  0  0
 41105  1  0  0  0
 41106  1  0  0  0
 42 43  1  0  0  0
 42107  1  0  0  0
 43 44  1  0  0  0
 43 46  1  0  0  0
 43108  1  0  0  0
 44 45  2  0  0  0
 44 50  1  0  0  0
 46 47  1  0  0  0
 46 48  1  0  0  0
 46109  1  0  0  0
 47 49  1  0  0  0
 47110  1  0  0  0
 47111  1  0  0  0
 48112  1  0  0  0
 48113  1  0  0  0
 48114  1  0  0  0
 49115  1  0  0  0
 49116  1  0  0  0
 49117  1  0  0  0
 50 51  1  0  0  0
 50118  1  0  0  0
 51 52  1  0  0  0
 51 54  1  0  0  0
 51119  1  0  0  0
 52 53  2  0  0  0
 52 61  1  0  0  0
 54 55  1  0  0  0
 54120  1  0  0  0
 54121  1  0  0  0
 55 56  1  0  0  0
 55122  1  0  0  0
 55123  1  0  0  0
 56 57  1  0  0  0
 56124  1  0  0  0
 56125  1  0  0  0
 57 58  1  0  0  0
 57126  1  0  0  0
 58 59  2  0  0  0
 58 60  1  0  0  0
 59127  1  0  0  0
 59140  1  0  0  0
 60128  1  0  0  0
 60129  1  0  0  0
 61 62  1  0  0  0
 61130  1  0  0  0
 62 63  1  0  0  0
 62 65  1  0  0  0
 62131  1  0  0  0
 63 64  1  0  0  0
 63 68  2  0  0  0
 65 66  1  0  0  0
 65 67  1  0  0  0
 65132  1  0  0  0
 66133  1  0  0  0
 66134  1  0  0  0
 66135  1  0  0  0
 67136  1  0  0  0
 67137  1  0  0  0
 67138  1  0  0  0
M  CHG  4   1   1  33   1  59   1  64  -1
M  END
> <s_m_source_file>
../4ezr_ligand.sdf

> <i_m_source_file_index>
1

> <s_epik_input>
W0NIXTE9TltDSDJdTj1DMVtDSDJdW0NASF0oW05IXUMoPU8pW0NAQEhdKFtOSDMrXSlbQ0gyXVtPSF0pQyg9TylOMltDQEBIXShbQ0gyXVtDSDJdW0NIMl0yKUMoPU8pW05IXVtDQEBIXShbQ0gyXVtDSDJdW0NIMl1bTkhdL0MoPU5cW0hdKVtOSDJdKUMoPU8pTjNbQ0BASF0oW0NIMl1bQ0gyXVtDSDJdMylDKD1PKVtOSF1bQ0BASF0oW0NAQEhdKFtDSDNdKVtDSDJdW0NIM10pQyg9TylbTkhdW0NASF0oQyg9TylbTkhdW0NASF0oQyg9TylbT0hdKVtDSF0oW0NIM10pW0NIM10pW0NIMl1bQ0gyXVtDSDJdW05IXS9DKD1OXFtIXSlbTkgyXQ==

> <s_epik_cmdline>
J2VwaWtfYXBwJywgJy1pbWFlJywgJ2xpZ2FuZF9wcm8ubWFlJywgJy1vbWFlJywgJ2xpZ2FuZF9wcmVwLm1hZScsICctbXMnLCAnMScsICctcGgnLCAnNycsICctcGh0JywgJzAuNScsICctbnQn

> <r_epik_Ionization_Penalty>
  0.1919

> <r_epik_Ionization_Penalty_Charging>
  0.1918

> <r_epik_Ionization_Penalty_Neutral>
  0.0001

> <r_epik_State_Penalty>
  0.1812

> <r_epik_Charging_Adjusted_Penalty>
0.373043551566891

> <i_epik_Tot_Q>
2

> <i_epik_Tot_abs_Q>
4

> <s_epik_Chemistry_Notes>
This compound has an imine and may undergo hydrolysis.

$$$$
