4ezt_ligand
                    3D
 Schrodinger Suite 2020-3.
154155  0  0  1  0            999 V2000
   61.6690   85.1730   22.2290 N   0  3  0  0  0  0
   60.9930   84.3420   23.2090 C   0  0  2  0  0  0
   59.7640   85.0700   23.7540 C   0  0  0  0  0  0
   59.6470   86.2840   23.5740 O   0  0  0  0  0  0
   62.0440   84.2190   24.3100 C   0  0  0  0  0  0
   63.3260   84.1970   23.5550 C   0  0  0  0  0  0
   63.1370   85.1240   22.3800 C   0  0  0  0  0  0
   58.8580   84.3620   24.4090 N   0  0  0  0  0  0
   57.7470   85.0370   25.0430 C   0  0  2  0  0  0
   58.0880   86.2260   25.9690 C   0  0  0  0  0  0
   59.2050   86.3570   26.4800 O   0  0  0  0  0  0
   56.8620   84.0230   25.7570 C   0  0  0  0  0  0
   56.2380   83.0720   24.7530 C   0  0  0  0  0  0
   55.1980   83.7980   23.8840 C   0  0  0  0  0  0
   53.8430   83.7830   24.4550 N   0  0  0  0  0  0
   53.2250   82.6700   24.8490 C   0  0  0  0  0  0
   51.9980   82.6880   25.3360 N   0  0  0  0  0  0
   53.8570   81.5160   24.7540 N   0  0  0  0  0  0
   57.1080   87.1150   26.1470 N   0  0  0  0  0  0
   57.2320   88.1600   27.1560 C   0  0  2  0  0  0
   56.9110   87.5130   28.5000 C   0  0  0  0  0  0
   56.2190   86.5080   28.5400 O   0  0  0  0  0  0
   56.2360   89.2770   26.8200 C   0  0  0  0  0  0
   56.5080   89.9170   25.4590 C   0  0  0  0  0  0
   57.8770   90.5330   25.4960 C   0  0  0  0  0  0
   58.4150   91.0800   24.2400 N   0  0  0  0  0  0
   58.8790   90.3580   23.2180 C   0  0  0  0  0  0
   58.8470   89.0290   23.2310 N   0  0  0  0  0  0
   59.3660   90.9670   22.1630 N   0  0  0  0  0  0
   57.4610   88.0660   29.5970 N   0  0  0  0  0  0
   57.0550   87.6780   30.9480 C   0  0  2  0  0  0
   55.5900   87.9570   31.2260 C   0  0  0  0  0  0
   55.0220   88.9390   30.7120 O   0  0  0  0  0  0
   57.9730   88.5130   31.8710 C   0  0  0  0  0  0
   59.0030   89.1710   30.9590 C   0  0  0  0  0  0
   58.3940   89.2010   29.5690 C   0  0  0  0  0  0
   55.0060   87.0890   32.0370 N   0  0  0  0  0  0
   53.6480   87.1550   32.4950 C   0  0  2  0  0  0
   53.7160   87.6240   33.9150 C   0  0  0  0  0  0
   54.6090   87.1530   34.6460 O   0  0  0  0  0  0
   53.1750   85.7300   32.5730 C   0  0  0  0  0  0
   51.7490   85.6340   33.0850 C   0  0  0  0  0  0
   53.3230   85.1700   31.1740 C   0  0  0  0  0  0
   52.8320   88.5490   34.3230 N   0  0  0  0  0  0
   52.7500   88.9350   35.7420 C   0  0  2  0  0  0
   52.4880   87.6260   36.4870 C   0  0  0  0  0  0
   51.4790   86.9850   36.2300 O   0  0  0  0  0  0
   51.6440   89.9920   36.0360 C   0  0  2  0  0  0
   52.0660   91.3720   35.5190 C   0  0  0  0  0  0
   51.3850   90.1130   37.5560 C   0  0  0  0  0  0
   51.5930   91.7030   34.1160 C   0  0  0  0  0  0
   53.4400   87.1840   37.3160 N   0  0  0  0  0  0
   53.2690   85.9210   38.0760 C   0  0  2  0  0  0
   51.9760   85.9730   38.8850 C   0  0  0  0  0  0
   51.5840   87.0330   39.4130 O   0  0  0  0  0  0
   54.4640   85.5970   38.9880 C   0  0  0  0  0  0
   54.4900   84.1410   39.4940 C   0  0  0  0  0  0
   55.6430   83.7490   40.8430 S   0  0  0  0  0  0
   55.7940   81.9820   40.6930 C   0  0  0  0  0  0
   51.3070   84.8230   38.9070 N   0  0  0  0  0  0
   50.0940   84.5760   39.6780 C   0  0  2  0  0  0
   50.4980   84.4960   41.1590 C   0  0  0  0  0  0
   51.5560   83.9400   41.5120 O   0  0  0  0  0  0
   49.4180   83.2640   39.1990 C   0  0  0  0  0  0
   49.0220   83.1860   37.7050 C   0  0  0  0  0  0
   50.1580   82.8950   36.6870 C   0  0  0  0  0  0
   50.1320   81.6140   35.9300 N   0  0  0  0  0  0
   49.0910   80.7800   35.7690 C   0  0  0  0  0  0
   47.8930   81.0350   36.2970 N   0  0  0  0  0  0
   49.2460   79.6690   35.0550 N   0  0  0  0  0  0
   49.6840   85.0870   42.0170 N   0  0  0  0  0  0
   61.4163   84.8252   21.2165 H   0  0  0  0  0  0
   61.3462   86.2177   22.3490 H   0  0  0  0  0  0
   60.6629   83.3901   22.7675 H   0  0  0  0  0  0
   61.9687   85.0828   24.9869 H   0  0  0  0  0  0
   61.8736   83.2923   24.8777 H   0  0  0  0  0  0
   64.1412   84.5446   24.2066 H   0  0  0  0  0  0
   63.5367   83.1707   23.2199 H   0  0  0  0  0  0
   63.5878   84.7329   21.4560 H   0  0  0  0  0  0
   63.5196   86.1368   22.5745 H   0  0  0  0  0  0
   58.9456   83.2674   24.4732 H   0  0  0  0  0  0
   57.2514   85.4741   24.1636 H   0  0  0  0  0  0
   57.4681   83.4457   26.4707 H   0  0  0  0  0  0
   56.0624   84.5506   26.2977 H   0  0  0  0  0  0
   57.0222   82.6630   24.0990 H   0  0  0  0  0  0
   55.7404   82.2493   25.2874 H   0  0  0  0  0  0
   55.4924   84.8509   23.7626 H   0  0  0  0  0  0
   55.1445   83.3161   22.8966 H   0  0  0  0  0  0
   53.2864   84.7241   24.5752 H   0  0  0  0  0  0
   51.4547   83.6405   25.4230 H   0  0  0  0  0  0
   51.5190   81.7505   25.6547 H   0  0  0  0  0  0
   54.8798   81.4806   24.3508 H   0  0  0  0  0  0
   56.2022   87.0550   25.5258 H   0  0  0  0  0  0
   58.2537   88.5677   27.1567 H   0  0  0  0  0  0
   55.2160   88.8655   26.8019 H   0  0  0  0  0  0
   56.2994   90.0666   27.5832 H   0  0  0  0  0  0
   56.4611   89.1463   24.6755 H   0  0  0  0  0  0
   55.7509   90.6896   25.2592 H   0  0  0  0  0  0
   57.8809   91.3756   26.2031 H   0  0  0  0  0  0
   58.6097   89.7792   25.8199 H   0  0  0  0  0  0
   58.4573   92.1686   24.0877 H   0  0  0  0  0  0
   58.4430   88.4971   24.1050 H   0  0  0  0  0  0
   59.2245   88.4613   22.3678 H   0  0  0  0  0  0
   59.4024   92.0659   22.1302 H   0  0  0  0  0  0
   57.1573   86.5882   31.0568 H   0  0  0  0  0  0
   57.3724   89.2674   32.4003 H   0  0  0  0  0  0
   58.4574   87.8503   32.6032 H   0  0  0  0  0  0
   59.2127   90.1895   31.3176 H   0  0  0  0  0  0
   59.9311   88.5807   30.9682 H   0  0  0  0  0  0
   59.1395   89.0433   28.7757 H   0  0  0  0  0  0
   57.8372   90.1285   29.3697 H   0  0  0  0  0  0
   55.6564   86.2634   32.3616 H   0  0  0  0  0  0
   53.0462   87.8004   31.8383 H   0  0  0  0  0  0
   53.7760   85.1558   33.2935 H   0  0  0  0  0  0
   51.6952   86.0524   34.1009 H   0  0  0  0  0  0
   51.4371   84.5793   33.1058 H   0  0  0  0  0  0
   51.0815   86.2007   32.4192 H   0  0  0  0  0  0
   54.3703   85.2629   30.8508 H   0  0  0  0  0  0
   52.6752   85.7308   30.4842 H   0  0  0  0  0  0
   53.0309   84.1095   31.1708 H   0  0  0  0  0  0
   52.1651   89.0196   33.5856 H   0  0  0  0  0  0
   53.7026   89.4076   36.0235 H   0  0  0  0  0  0
   50.7256   89.6707   35.5229 H   0  0  0  0  0  0
   51.6598   92.1513   36.1805 H   0  0  0  0  0  0
   53.1639   91.4384   35.5053 H   0  0  0  0  0  0
   51.0796   89.1344   37.9549 H   0  0  0  0  0  0
   50.5857   90.8473   37.7344 H   0  0  0  0  0  0
   52.3055   90.4433   38.0596 H   0  0  0  0  0  0
   51.9444   92.7076   33.8381 H   0  0  0  0  0  0
   50.4938   91.6772   34.0840 H   0  0  0  0  0  0
   51.9979   90.9642   33.4087 H   0  0  0  0  0  0
   54.3616   87.7737   37.4295 H   0  0  0  0  0  0
   53.2109   85.1324   37.3113 H   0  0  0  0  0  0
   55.4015   85.7663   38.4380 H   0  0  0  0  0  0
   54.4361   86.2481   39.8741 H   0  0  0  0  0  0
   53.4938   83.8659   39.8708 H   0  0  0  0  0  0
   54.7674   83.4704   38.6673 H   0  0  0  0  0  0
   56.4789   81.6055   41.4670 H   0  0  0  0  0  0
   56.1912   81.7311   39.6984 H   0  0  0  0  0  0
   54.8052   81.5173   40.8209 H   0  0  0  0  0  0
   51.7343   84.0242   38.2831 H   0  0  0  0  0  0
   49.4039   85.4157   39.5086 H   0  0  0  0  0  0
   50.0988   82.4171   39.3702 H   0  0  0  0  0  0
   48.4863   83.1050   39.7617 H   0  0  0  0  0  0
   48.2852   82.3817   37.5625 H   0  0  0  0  0  0
   48.5835   84.1448   37.3913 H   0  0  0  0  0  0
   50.1645   83.6755   35.9119 H   0  0  0  0  0  0
   51.1260   82.8891   37.2095 H   0  0  0  0  0  0
   51.0400   81.2567   35.4222 H   0  0  0  0  0  0
   47.7370   81.9469   36.8921 H   0  0  0  0  0  0
   47.0610   80.3334   36.1374 H   0  0  0  0  0  0
   50.2234   79.4342   34.6082 H   0  0  0  0  0  0
   48.7604   85.5652   41.6589 H   0  0  0  0  0  0
   49.9304   85.1005   43.0890 H   0  0  0  0  0  0
  1  2  1  0  0  0
  1  7  1  0  0  0
  1 72  1  0  0  0
  1 73  1  0  0  0
  2  3  1  0  0  0
  2  5  1  0  0  0
  2 74  1  0  0  0
  3  4  2  0  0  0
  3  8  1  0  0  0
  5  6  1  0  0  0
  5 75  1  0  0  0
  5 76  1  0  0  0
  6  7  1  0  0  0
  6 77  1  0  0  0
  6 78  1  0  0  0
  7 79  1  0  0  0
  7 80  1  0  0  0
  8  9  1  0  0  0
  8 81  1  0  0  0
  9 10  1  0  0  0
  9 12  1  0  0  0
  9 82  1  0  0  0
 10 11  2  0  0  0
 10 19  1  0  0  0
 12 13  1  0  0  0
 12 83  1  0  0  0
 12 84  1  0  0  0
 13 14  1  0  0  0
 13 85  1  0  0  0
 13 86  1  0  0  0
 14 15  1  0  0  0
 14 87  1  0  0  0
 14 88  1  0  0  0
 15 16  1  0  0  0
 15 89  1  0  0  0
 16 17  1  0  0  0
 16 18  2  0  0  0
 17 90  1  0  0  0
 17 91  1  0  0  0
 18 92  1  0  0  0
 19 20  1  0  0  0
 19 93  1  0  0  0
 20 21  1  0  0  0
 20 23  1  0  0  0
 20 94  1  0  0  0
 21 22  2  0  0  0
 21 30  1  0  0  0
 23 24  1  0  0  0
 23 95  1  0  0  0
 23 96  1  0  0  0
 24 25  1  0  0  0
 24 97  1  0  0  0
 24 98  1  0  0  0
 25 26  1  0  0  0
 25 99  1  0  0  0
 25100  1  0  0  0
 26 27  1  0  0  0
 26101  1  0  0  0
 27 28  1  0  0  0
 27 29  2  0  0  0
 28102  1  0  0  0
 28103  1  0  0  0
 29104  1  0  0  0
 30 31  1  0  0  0
 30 36  1  0  0  0
 31 32  1  0  0  0
 31 34  1  0  0  0
 31105  1  0  0  0
 32 33  2  0  0  0
 32 37  1  0  0  0
 34 35  1  0  0  0
 34106  1  0  0  0
 34107  1  0  0  0
 35 36  1  0  0  0
 35108  1  0  0  0
 35109  1  0  0  0
 36110  1  0  0  0
 36111  1  0  0  0
 37 38  1  0  0  0
 37112  1  0  0  0
 38 39  1  0  0  0
 38 41  1  0  0  0
 38113  1  0  0  0
 39 40  2  0  0  0
 39 44  1  0  0  0
 41 42  1  0  0  0
 41 43  1  0  0  0
 41114  1  0  0  0
 42115  1  0  0  0
 42116  1  0  0  0
 42117  1  0  0  0
 43118  1  0  0  0
 43119  1  0  0  0
 43120  1  0  0  0
 44 45  1  0  0  0
 44121  1  0  0  0
 45 46  1  0  0  0
 45 48  1  0  0  0
 45122  1  0  0  0
 46 47  2  0  0  0
 46 52  1  0  0  0
 48 49  1  0  0  0
 48 50  1  0  0  0
 48123  1  0  0  0
 49 51  1  0  0  0
 49124  1  0  0  0
 49125  1  0  0  0
 50126  1  0  0  0
 50127  1  0  0  0
 50128  1  0  0  0
 51129  1  0  0  0
 51130  1  0  0  0
 51131  1  0  0  0
 52 53  1  0  0  0
 52132  1  0  0  0
 53 54  1  0  0  0
 53 56  1  0  0  0
 53133  1  0  0  0
 54 55  2  0  0  0
 54 60  1  0  0  0
 56 57  1  0  0  0
 56134  1  0  0  0
 56135  1  0  0  0
 57 58  1  0  0  0
 57136  1  0  0  0
 57137  1  0  0  0
 58 59  1  0  0  0
 59138  1  0  0  0
 59139  1  0  0  0
 59140  1  0  0  0
 60 61  1  0  0  0
 60141  1  0  0  0
 61 62  1  0  0  0
 61 64  1  0  0  0
 61142  1  0  0  0
 62 63  2  0  0  0
 62 71  1  0  0  0
 64 65  1  0  0  0
 64143  1  0  0  0
 64144  1  0  0  0
 65 66  1  0  0  0
 65145  1  0  0  0
 65146  1  0  0  0
 66 67  1  0  0  0
 66147  1  0  0  0
 66148  1  0  0  0
 67 68  1  0  0  0
 67149  1  0  0  0
 68 69  1  0  0  0
 68 70  2  0  0  0
 69150  1  0  0  0
 69151  1  0  0  0
 70152  1  0  0  0
 71153  1  0  0  0
 71154  1  0  0  0
M  CHG  1   1   1
M  END
> <s_m_source_file>
../4ezt_ligand.sdf

> <i_m_source_file_index>
1

> <s_epik_input>
W0NIMl0xW0NIMl1bQ0gyXVtOSDIrXVtDQEBIXTFDKD1PKVtOSF1bQ0BASF0oW0NIMl1bQ0gyXVtDSDJdW05IXS9DKFtOSDJdKT1OXFtIXSlDKD1PKVtOSF1bQ0BASF0oW0NIMl1bQ0gyXVtDSDJdW05IXS9DKFtOSDJdKT1OXFtIXSlDKD1PKU4yW0NAQEhdKFtDSDJdW0NIMl1bQ0gyXTIpQyg9TylbTkhdW0NAQEhdKFtDSF0oW0NIM10pW0NIM10pQyg9TylbTkhdW0NAQEhdKFtDQEBIXShbQ0gzXSlbQ0gyXVtDSDNdKUMoPU8pW05IXVtDQEBIXShbQ0gyXVtDSDJdU1tDSDNdKUMoPU8pW05IXVtDQEhdKEMoPU8pW05IMl0pW0NIMl1bQ0gyXVtDSDJdW05IXS9DKFtOSDJdKT1OXFtIXQ==

> <s_epik_cmdline>
J2VwaWtfYXBwJywgJy1pbWFlJywgJ2xpZ2FuZF9wcm8ubWFlJywgJy1vbWFlJywgJ2xpZ2FuZF9wcmVwLm1hZScsICctbXMnLCAnMScsICctcGgnLCAnNycsICctcGh0JywgJzAuNScsICctbnQn

> <s_epik_pKa_notes>
Molecule size exceeds maximum supported for generating protonation states

> <s_epik_Chemistry_Notes>
This compound has an imine and may undergo hydrolysis.

$$$$
