4ezw_ligand
                    3D
 Schrodinger Suite 2020-3.
119118  0  0  1  0            999 V2000
   50.9190   47.3310   24.6570 N   0  3  0  0  0  0
   49.7550   47.8940   23.9150 C   0  0  2  0  0  0
   48.6880   46.7850   23.6010 C   0  0  0  0  0  0
   48.8040   45.6140   23.9920 O   0  0  0  0  0  0
   50.2440   48.7050   22.6680 C   0  0  0  0  0  0
   49.2420   49.8160   22.1950 C   0  0  0  0  0  0
   48.1890   50.0750   22.8020 O   0  0  0  0  0  0
   49.5930   50.4760   21.0880 N   0  0  0  0  0  0
   47.6090   47.1900   22.9680 N   0  0  0  0  0  0
   46.4830   46.3120   22.6160 C   0  0  2  0  0  0
   46.9330   45.3150   21.5230 C   0  0  0  0  0  0
   47.6080   45.7250   20.5330 O   0  0  0  0  0  0
   45.4540   47.2840   22.0610 C   0  0  0  0  0  0
   44.3090   46.6670   21.3390 C   0  0  0  0  0  0
   43.2590   46.3060   22.3290 C   0  0  0  0  0  0
   42.7950   47.4280   23.1600 N   0  0  0  0  0  0
   42.5600   47.3320   24.4760 C   0  0  0  0  0  0
   42.8090   46.1880   25.1380 N   0  0  0  0  0  0
   42.0750   48.3690   25.1460 N   0  3  0  0  0  0
   46.5900   44.0380   21.6440 N   0  0  0  0  0  0
   47.0390   43.0630   20.6050 C   0  0  2  0  0  0
   46.0430   43.0280   19.3990 C   0  0  0  0  0  0
   44.8910   43.4130   19.5180 O   0  0  0  0  0  0
   47.1410   41.6480   21.1830 C   0  0  0  0  0  0
   48.4120   41.3060   21.9950 C   0  0  0  0  0  0
   49.6850   41.5280   21.1500 C   0  0  0  0  0  0
   48.4630   42.1490   23.2570 C   0  0  0  0  0  0
   46.5190   42.5580   18.2700 N   0  0  0  0  0  0
   45.7820   42.8090   16.9790 C   0  0  2  0  0  0
   45.4940   41.5420   16.2540 C   0  0  0  0  0  0
   46.1890   40.5000   16.4500 O   0  0  0  0  0  0
   46.6750   43.7220   16.0760 C   0  0  0  0  0  0
   47.0630   45.0140   16.8310 C   0  0  0  0  0  0
   47.9520   45.8160   15.8790 C   0  0  0  0  0  0
   45.8460   45.8390   17.2910 C   0  0  0  0  0  0
   44.4060   41.5680   15.4430 N   0  0  0  0  0  0
   43.9330   40.3580   14.7810 C   0  0  2  0  0  0
   43.8830   40.6560   13.2810 C   0  0  0  0  0  0
   43.3910   41.7000   12.9140 O   0  0  0  0  0  0
   42.5100   39.9970   15.1820 C   0  0  0  0  0  0
   42.4610   39.6430   16.6960 C   0  0  0  0  0  0
   41.0280   39.6390   17.1590 C   0  0  0  0  0  0
   43.1370   38.3190   16.9440 C   0  0  0  0  0  0
   44.3480   39.6820   12.4980 N   0  0  0  0  0  0
   44.2070   39.8190   11.0380 C   0  0  2  0  0  0
   42.8550   39.2530   10.5980 C   0  0  0  0  0  0
   42.0970   38.6570   11.3690 O   0  0  0  0  0  0
   45.3760   39.1200   10.3130 C   0  0  2  0  0  0
   45.3830   37.7760   10.7590 O   0  0  0  0  0  0
   46.7600   39.8100   10.6840 C   0  0  0  0  0  0
   42.5890   39.4160    9.2930 N   0  0  0  0  0  0
   41.2520   39.4310    8.7060 C   0  0  0  0  0  0
   40.7300   38.0530    8.5840 C   0  0  0  0  0  0
   39.5300   37.8250    8.3050 O   0  5  0  0  0  0
   41.5420   37.1440    8.7640 O   0  0  0  0  0  0
   50.5591   46.7650   25.5288 H   0  0  0  0  0  0
   51.5695   48.1510   24.9953 H   0  0  0  0  0  0
   51.4872   46.6616   23.9944 H   0  0  0  0  0  0
   49.2685   48.6088   24.5950 H   0  0  0  0  0  0
   51.1943   49.2054   22.9057 H   0  0  0  0  0  0
   50.3924   48.0200   21.8202 H   0  0  0  0  0  0
   50.5314   50.2246   20.5720 H   0  0  0  0  0  0
   48.9437   51.2709   20.6924 H   0  0  0  0  0  0
   47.5794   48.2565   22.7003 H   0  0  0  0  0  0
   46.1173   45.7416   23.4826 H   0  0  0  0  0  0
   45.0201   47.8689   22.8854 H   0  0  0  0  0  0
   45.9400   47.9636   21.3455 H   0  0  0  0  0  0
   43.9046   47.3855   20.6109 H   0  0  0  0  0  0
   44.6514   45.7643   20.8119 H   0  0  0  0  0  0
   42.3778   45.9118   21.8016 H   0  0  0  0  0  0
   43.6494   45.5394   23.0145 H   0  0  0  0  0  0
   42.6218   48.4145   22.7052 H   0  0  0  0  0  0
   43.2113   45.3173   24.5995 H   0  0  0  0  0  0
   42.6103   46.1231   26.2180 H   0  0  0  0  0  0
   41.8650   49.3130   24.6218 H   0  0  0  0  0  0
   45.9835   43.6946   22.4950 H   0  0  0  0  0  0
   48.0354   43.4154   20.3001 H   0  0  0  0  0  0
   46.2985   41.4699   21.8675 H   0  0  0  0  0  0
   47.1095   40.9142   20.3641 H   0  0  0  0  0  0
   48.3721   40.2476   22.2921 H   0  0  0  0  0  0
   49.6334   40.9115   20.2404 H   0  0  0  0  0  0
   50.5697   41.2414   21.7376 H   0  0  0  0  0  0
   49.7588   42.5892   20.8700 H   0  0  0  0  0  0
   47.5506   41.9803   23.8477 H   0  0  0  0  0  0
   48.5322   43.2126   22.9849 H   0  0  0  0  0  0
   49.3431   41.8648   23.8525 H   0  0  0  0  0  0
   47.4555   41.9810   18.2655 H   0  0  0  0  0  0
   44.8045   43.2497   17.2245 H   0  0  0  0  0  0
   47.5915   43.1802   15.7994 H   0  0  0  0  0  0
   46.1201   43.9925   15.1655 H   0  0  0  0  0  0
   47.5964   44.7644   17.7601 H   0  0  0  0  0  0
   48.8091   45.1993   15.5707 H   0  0  0  0  0  0
   48.3155   46.7195   16.3904 H   0  0  0  0  0  0
   47.3707   46.1059   14.9913 H   0  0  0  0  0  0
   45.2295   45.2343   17.9724 H   0  0  0  0  0  0
   45.2474   46.1291   16.4149 H   0  0  0  0  0  0
   46.1922   46.7426   17.8141 H   0  0  0  0  0  0
   43.8792   42.5212   15.2886 H   0  0  0  0  0  0
   44.6278   39.5611   15.0846 H   0  0  0  0  0  0
   41.8461   40.8522   14.9874 H   0  0  0  0  0  0
   42.1725   39.1299   14.5953 H   0  0  0  0  0  0
   42.9991   40.3833   17.3063 H   0  0  0  0  0  0
   40.5754   40.6215   16.9592 H   0  0  0  0  0  0
   40.9921   39.4315   18.2387 H   0  0  0  0  0  0
   40.4699   38.8611   16.6173 H   0  0  0  0  0  0
   44.1780   38.3671   16.5918 H   0  0  0  0  0  0
   42.6021   37.5266   16.4000 H   0  0  0  0  0  0
   43.1243   38.0970   18.0213 H   0  0  0  0  0  0
   44.8295   38.7888   12.9226 H   0  0  0  0  0  0
   44.2392   40.8950   10.8116 H   0  0  0  0  0  0
   45.2193   39.0882    9.2247 H   0  0  0  0  0  0
   44.5045   37.1359   10.5901 H   0  0  0  0  0  0
   46.7538   40.8539   10.3373 H   0  0  0  0  0  0
   47.5829   39.2666   10.1966 H   0  0  0  0  0  0
   46.9005   39.7867   11.7747 H   0  0  0  0  0  0
   43.4730   39.5448    8.6511 H   0  0  0  0  0  0
   40.5764   40.0155    9.3477 H   0  0  0  0  0  0
   41.2954   39.8885    7.7066 H   0  0  0  0  0  0
   41.8828   48.2850   26.2258 H   0  0  0  0  0  0
  1  2  1  0  0  0
  1 56  1  0  0  0
  1 57  1  0  0  0
  1 58  1  0  0  0
  2  3  1  0  0  0
  2  5  1  0  0  0
  2 59  1  0  0  0
  3  4  2  0  0  0
  3  9  1  0  0  0
  5  6  1  0  0  0
  5 60  1  0  0  0
  5 61  1  0  0  0
  6  7  2  0  0  0
  6  8  1  0  0  0
  8 62  1  0  0  0
  8 63  1  0  0  0
  9 10  1  0  0  0
  9 64  1  0  0  0
 10 11  1  0  0  0
 10 13  1  0  0  0
 10 65  1  0  0  0
 11 12  2  0  0  0
 11 20  1  0  0  0
 13 14  1  0  0  0
 13 66  1  0  0  0
 13 67  1  0  0  0
 14 15  1  0  0  0
 14 68  1  0  0  0
 14 69  1  0  0  0
 15 16  1  0  0  0
 15 70  1  0  0  0
 15 71  1  0  0  0
 16 17  1  0  0  0
 16 72  1  0  0  0
 17 18  1  0  0  0
 17 19  2  0  0  0
 18 73  1  0  0  0
 18 74  1  0  0  0
 19 75  1  0  0  0
 19119  1  0  0  0
 20 21  1  0  0  0
 20 76  1  0  0  0
 21 22  1  0  0  0
 21 24  1  0  0  0
 21 77  1  0  0  0
 22 23  2  0  0  0
 22 28  1  0  0  0
 24 25  1  0  0  0
 24 78  1  0  0  0
 24 79  1  0  0  0
 25 26  1  0  0  0
 25 27  1  0  0  0
 25 80  1  0  0  0
 26 81  1  0  0  0
 26 82  1  0  0  0
 26 83  1  0  0  0
 27 84  1  0  0  0
 27 85  1  0  0  0
 27 86  1  0  0  0
 28 29  1  0  0  0
 28 87  1  0  0  0
 29 30  1  0  0  0
 29 32  1  0  0  0
 29 88  1  0  0  0
 30 31  2  0  0  0
 30 36  1  0  0  0
 32 33  1  0  0  0
 32 89  1  0  0  0
 32 90  1  0  0  0
 33 34  1  0  0  0
 33 35  1  0  0  0
 33 91  1  0  0  0
 34 92  1  0  0  0
 34 93  1  0  0  0
 34 94  1  0  0  0
 35 95  1  0  0  0
 35 96  1  0  0  0
 35 97  1  0  0  0
 36 37  1  0  0  0
 36 98  1  0  0  0
 37 38  1  0  0  0
 37 40  1  0  0  0
 37 99  1  0  0  0
 38 39  2  0  0  0
 38 44  1  0  0  0
 40 41  1  0  0  0
 40100  1  0  0  0
 40101  1  0  0  0
 41 42  1  0  0  0
 41 43  1  0  0  0
 41102  1  0  0  0
 42103  1  0  0  0
 42104  1  0  0  0
 42105  1  0  0  0
 43106  1  0  0  0
 43107  1  0  0  0
 43108  1  0  0  0
 44 45  1  0  0  0
 44109  1  0  0  0
 45 46  1  0  0  0
 45 48  1  0  0  0
 45110  1  0  0  0
 46 47  2  0  0  0
 46 51  1  0  0  0
 48 49  1  0  0  0
 48 50  1  0  0  0
 48111  1  0  0  0
 49112  1  0  0  0
 50113  1  0  0  0
 50114  1  0  0  0
 50115  1  0  0  0
 51 52  1  0  0  0
 51116  1  0  0  0
 52 53  1  0  0  0
 52117  1  0  0  0
 52118  1  0  0  0
 53 54  1  0  0  0
 53 55  2  0  0  0
M  CHG  3   1   1  19   1  54  -1
M  END
> <s_m_source_file>
../4ezw_ligand.sdf

> <i_m_source_file_index>
1

> <s_epik_input>
W0hdL049QyhbTkgyXSlcW05IXVtDSDJdW0NIMl1bQ0gyXVtDQEhdKFtOSF1DKD1PKVtDQEBIXShbTkgzK10pW0NIMl1DKD1PKVtOSDJdKUMoPU8pW05IXVtDQEBIXShbQ0gyXVtDSF0oW0NIM10pW0NIM10pQyg9TylbTkhdW0NAQEhdKFtDSDJdW0NIXShbQ0gzXSlbQ0gzXSlDKD1PKVtOSF1bQ0BASF0oW0NIMl1bQ0hdKFtDSDNdKVtDSDNdKUMoPU8pW05IXVtDQEBIXShbQ0BIXShbT0hdKVtDSDNdKUMoPU8pW05IXVtDSDJdQyg9TylbT0hd

> <s_epik_cmdline>
J2VwaWtfYXBwJywgJy1pbWFlJywgJ2xpZ2FuZF9wcm8ubWFlJywgJy1vbWFlJywgJ2xpZ2FuZF9wcmVwLm1hZScsICctbXMnLCAnMScsICctcGgnLCAnNycsICctcGh0JywgJzAuNScsICctbnQn

> <r_epik_Ionization_Penalty>
  0.2088

> <r_epik_Ionization_Penalty_Charging>
  0.2088

> <r_epik_Ionization_Penalty_Neutral>
  0.0000

> <r_epik_State_Penalty>
  0.1986

> <r_epik_Charging_Adjusted_Penalty>
0.407384383812371

> <i_epik_Tot_Q>
1

> <i_epik_Tot_abs_Q>
3

> <s_epik_Chemistry_Notes>
This compound has an imine and may undergo hydrolysis.

$$$$
