4ezx_ligand
                    3D
 Schrodinger Suite 2020-3.
117116  0  0  1  0            999 V2000
  -10.6240  -26.1680    3.1920 N   0  3  0  0  0  0
  -10.4580  -27.0750    2.0120 C   0  0  2  0  0  0
   -9.0260  -27.6350    2.0080 C   0  0  0  0  0  0
   -8.0900  -26.9550    2.4620 O   0  0  0  0  0  0
  -10.6410  -26.2790    0.7180 C   0  0  0  0  0  0
  -12.0780  -25.8730    0.4490 C   0  0  0  0  0  0
  -13.0080  -26.1550    1.2180 O   0  0  0  0  0  0
  -12.2650  -25.2070   -0.6710 N   0  0  0  0  0  0
   -8.8430  -28.8330    1.4660 N   0  0  0  0  0  0
   -7.4780  -29.3420    1.3220 C   0  0  2  0  0  0
   -6.7040  -28.3250    0.4010 C   0  0  0  0  0  0
   -7.2560  -27.6770   -0.5150 O   0  0  0  0  0  0
   -7.4690  -30.7560    0.6780 C   0  0  0  0  0  0
   -8.1960  -31.9320    1.4070 C   0  0  0  0  0  0
   -8.1400  -31.6520    2.9020 C   0  0  0  0  0  0
   -8.0760  -32.8370    3.7520 N   0  0  0  0  0  0
   -8.9650  -33.8280    3.7930 C   0  0  0  0  0  0
  -10.0120  -33.8460    2.9780 N   0  3  0  0  0  0
   -8.7720  -34.8410    4.6430 N   0  0  0  0  0  0
   -5.4050  -28.3250    0.5710 N   0  0  0  0  0  0
   -4.5010  -27.7090   -0.3820 C   0  0  2  0  0  0
   -4.4200  -28.6030   -1.6190 C   0  0  0  0  0  0
   -4.7750  -29.8080   -1.6030 O   0  0  0  0  0  0
   -3.1430  -27.6250    0.3040 C   0  0  0  0  0  0
   -3.2060  -26.5210    1.4060 C   0  0  0  0  0  0
   -1.8270  -26.6290    2.0070 C   0  0  0  0  0  0
   -3.4090  -25.1360    0.7680 C   0  0  0  0  0  0
   -4.0600  -27.9620   -2.7300 N   0  0  0  0  0  0
   -4.1520  -28.5420   -4.0290 C   0  0  2  0  0  0
   -2.8230  -28.7440   -4.6640 C   0  0  0  0  0  0
   -1.8490  -28.0200   -4.4440 O   0  0  0  0  0  0
   -5.0860  -27.6530   -4.9880 C   0  0  0  0  0  0
   -6.5330  -27.8480   -4.4810 C   0  0  0  0  0  0
   -7.4690  -26.4870   -5.2980 S   0  0  0  0  0  0
   -9.1160  -27.1630   -5.2020 C   0  0  0  0  0  0
   -2.7670  -29.7190   -5.5630 N   0  0  0  0  0  0
   -1.5610  -30.0760   -6.3220 C   0  0  2  0  0  0
   -1.7590  -29.9980   -7.8190 C   0  0  0  0  0  0
   -2.8010  -30.5570   -8.3540 O   0  0  0  0  0  0
   -1.2210  -31.5840   -6.0800 C   0  0  0  0  0  0
   -0.8820  -31.8390   -4.6080 C   0  0  0  0  0  0
   -0.7880  -33.3850   -4.2460 C   0  0  0  0  0  0
    0.4220  -31.1150   -4.1340 C   0  0  0  0  0  0
   -0.7880  -29.4210   -8.5080 N   0  0  0  0  0  0
   -0.8940  -29.4610   -9.9830 C   0  0  2  0  0  0
   -0.2360  -30.6800  -10.5790 C   0  0  0  0  0  0
    0.3800  -31.4550   -9.8640 O   0  0  0  0  0  0
   -0.1970  -28.2570  -10.5720 C   0  0  2  0  0  0
    1.1570  -28.1870  -10.0780 O   0  0  0  0  0  0
   -0.9580  -27.0010  -10.0120 C   0  0  0  0  0  0
   -0.4100  -30.8810  -11.8810 N   0  0  0  0  0  0
    0.3000  -32.0350  -12.4760 C   0  0  0  0  0  0
   -0.5300  -32.5280  -13.6070 C   0  0  0  0  0  0
   -1.6590  -32.0500  -13.7910 O   0  5  0  0  0  0
   -0.0910  -33.4400  -14.3170 O   0  0  0  0  0  0
  -10.4916  -26.7448    4.1193 H   0  0  0  0  0  0
  -11.6311  -25.7259    3.1758 H   0  0  0  0  0  0
   -9.8712  -25.3671    3.1476 H   0  0  0  0  0  0
  -11.2125  -27.8713    2.0942 H   0  0  0  0  0  0
  -10.0441  -25.3563    0.7676 H   0  0  0  0  0  0
  -10.3072  -26.8862   -0.1363 H   0  0  0  0  0  0
  -11.4100  -24.9782   -1.3242 H   0  0  0  0  0  0
  -13.2763  -24.8792   -0.9537 H   0  0  0  0  0  0
   -9.6952  -29.4407    1.1277 H   0  0  0  0  0  0
   -7.0622  -29.4220    2.3372 H   0  0  0  0  0  0
   -7.9467  -30.7111   -0.3118 H   0  0  0  0  0  0
   -6.4307  -31.1025    0.5686 H   0  0  0  0  0  0
   -9.2404  -31.9851    1.0659 H   0  0  0  0  0  0
   -7.6859  -32.8785    1.1750 H   0  0  0  0  0  0
   -7.2456  -31.0535    3.1297 H   0  0  0  0  0  0
   -9.0398  -31.0964    3.2050 H   0  0  0  0  0  0
   -7.2318  -32.9725    4.4440 H   0  0  0  0  0  0
  -10.1768  -33.0154    2.2759 H   0  0  0  0  0  0
   -7.9061  -34.8324    5.3214 H   0  0  0  0  0  0
   -9.4790  -35.6834    4.6643 H   0  0  0  0  0  0
   -5.0052  -28.8130    1.4721 H   0  0  0  0  0  0
   -4.8746  -26.7132   -0.6627 H   0  0  0  0  0  0
   -2.9026  -28.5961    0.7614 H   0  0  0  0  0  0
   -2.3726  -27.3685   -0.4381 H   0  0  0  0  0  0
   -4.0116  -26.6335    2.1465 H   0  0  0  0  0  0
   -1.7004  -27.6244    2.4577 H   0  0  0  0  0  0
   -1.7030  -25.8575    2.7812 H   0  0  0  0  0  0
   -1.0718  -26.4839    1.2204 H   0  0  0  0  0  0
   -4.4187  -25.0759    0.3356 H   0  0  0  0  0  0
   -2.6612  -24.9841   -0.0243 H   0  0  0  0  0  0
   -3.2923  -24.3577    1.5365 H   0  0  0  0  0  0
   -3.6769  -26.9378   -2.6109 H   0  0  0  0  0  0
   -4.5377  -29.5453   -3.7954 H   0  0  0  0  0  0
   -4.7817  -26.5981   -4.9208 H   0  0  0  0  0  0
   -4.9803  -27.9996   -6.0266 H   0  0  0  0  0  0
   -6.8958  -28.8422   -4.7811 H   0  0  0  0  0  0
   -6.5513  -27.7667   -3.3842 H   0  0  0  0  0  0
   -9.8282  -26.4595   -5.6578 H   0  0  0  0  0  0
   -9.3848  -27.3254   -4.1478 H   0  0  0  0  0  0
   -9.1511  -28.1212   -5.7412 H   0  0  0  0  0  0
   -3.7028  -30.2743   -5.7242 H   0  0  0  0  0  0
   -0.8251  -29.3339   -5.9789 H   0  0  0  0  0  0
   -2.0868  -32.2039   -6.3558 H   0  0  0  0  0  0
   -0.3554  -31.8682   -6.6964 H   0  0  0  0  0  0
   -1.7390  -31.3801   -4.0933 H   0  0  0  0  0  0
   -1.7038  -33.8957   -4.5784 H   0  0  0  0  0  0
   -0.6781  -33.5007   -3.1576 H   0  0  0  0  0  0
    0.0829  -33.8277   -4.7516 H   0  0  0  0  0  0
    0.3589  -30.0455   -4.3835 H   0  0  0  0  0  0
    1.2922  -31.5588   -4.6397 H   0  0  0  0  0  0
    0.5313  -31.2318   -3.0457 H   0  0  0  0  0  0
    0.0713  -28.9265   -8.0315 H   0  0  0  0  0  0
   -1.9728  -29.4795  -10.1971 H   0  0  0  0  0  0
   -0.1277  -28.3383  -11.6668 H   0  0  0  0  0  0
    1.8811  -28.9709  -10.3449 H   0  0  0  0  0  0
   -1.9993  -27.0152  -10.3663 H   0  0  0  0  0  0
   -0.4628  -26.0846  -10.3655 H   0  0  0  0  0  0
   -0.9444  -27.0243   -8.9123 H   0  0  0  0  0  0
   -1.0432  -30.2400  -12.5120 H   0  0  0  0  0  0
    1.2887  -31.7122  -12.8341 H   0  0  0  0  0  0
    0.4238  -32.8208  -11.7162 H   0  0  0  0  0  0
  -10.7151  -34.6915    3.0045 H   0  0  0  0  0  0
  1  2  1  0  0  0
  1 56  1  0  0  0
  1 57  1  0  0  0
  1 58  1  0  0  0
  2  3  1  0  0  0
  2  5  1  0  0  0
  2 59  1  0  0  0
  3  4  2  0  0  0
  3  9  1  0  0  0
  5  6  1  0  0  0
  5 60  1  0  0  0
  5 61  1  0  0  0
  6  7  2  0  0  0
  6  8  1  0  0  0
  8 62  1  0  0  0
  8 63  1  0  0  0
  9 10  1  0  0  0
  9 64  1  0  0  0
 10 11  1  0  0  0
 10 13  1  0  0  0
 10 65  1  0  0  0
 11 12  2  0  0  0
 11 20  1  0  0  0
 13 14  1  0  0  0
 13 66  1  0  0  0
 13 67  1  0  0  0
 14 15  1  0  0  0
 14 68  1  0  0  0
 14 69  1  0  0  0
 15 16  1  0  0  0
 15 70  1  0  0  0
 15 71  1  0  0  0
 16 17  1  0  0  0
 16 72  1  0  0  0
 17 18  2  0  0  0
 17 19  1  0  0  0
 18 73  1  0  0  0
 18117  1  0  0  0
 19 74  1  0  0  0
 19 75  1  0  0  0
 20 21  1  0  0  0
 20 76  1  0  0  0
 21 22  1  0  0  0
 21 24  1  0  0  0
 21 77  1  0  0  0
 22 23  2  0  0  0
 22 28  1  0  0  0
 24 25  1  0  0  0
 24 78  1  0  0  0
 24 79  1  0  0  0
 25 26  1  0  0  0
 25 27  1  0  0  0
 25 80  1  0  0  0
 26 81  1  0  0  0
 26 82  1  0  0  0
 26 83  1  0  0  0
 27 84  1  0  0  0
 27 85  1  0  0  0
 27 86  1  0  0  0
 28 29  1  0  0  0
 28 87  1  0  0  0
 29 30  1  0  0  0
 29 32  1  0  0  0
 29 88  1  0  0  0
 30 31  2  0  0  0
 30 36  1  0  0  0
 32 33  1  0  0  0
 32 89  1  0  0  0
 32 90  1  0  0  0
 33 34  1  0  0  0
 33 91  1  0  0  0
 33 92  1  0  0  0
 34 35  1  0  0  0
 35 93  1  0  0  0
 35 94  1  0  0  0
 35 95  1  0  0  0
 36 37  1  0  0  0
 36 96  1  0  0  0
 37 38  1  0  0  0
 37 40  1  0  0  0
 37 97  1  0  0  0
 38 39  2  0  0  0
 38 44  1  0  0  0
 40 41  1  0  0  0
 40 98  1  0  0  0
 40 99  1  0  0  0
 41 42  1  0  0  0
 41 43  1  0  0  0
 41100  1  0  0  0
 42101  1  0  0  0
 42102  1  0  0  0
 42103  1  0  0  0
 43104  1  0  0  0
 43105  1  0  0  0
 43106  1  0  0  0
 44 45  1  0  0  0
 44107  1  0  0  0
 45 46  1  0  0  0
 45 48  1  0  0  0
 45108  1  0  0  0
 46 47  2  0  0  0
 46 51  1  0  0  0
 48 49  1  0  0  0
 48 50  1  0  0  0
 48109  1  0  0  0
 49110  1  0  0  0
 50111  1  0  0  0
 50112  1  0  0  0
 50113  1  0  0  0
 51 52  1  0  0  0
 51114  1  0  0  0
 52 53  1  0  0  0
 52115  1  0  0  0
 52116  1  0  0  0
 53 54  1  0  0  0
 53 55  2  0  0  0
M  CHG  3   1   1  18   1  54  -1
M  END
> <s_m_source_file>
../4ezx_ligand.sdf

> <i_m_source_file_index>
1

> <s_epik_input>
W0hdL049QyhbTkgyXSlcW05IXVtDSDJdW0NIMl1bQ0gyXVtDQEhdKFtOSF1DKD1PKVtDQEBIXShbTkgzK10pW0NIMl1DKD1PKVtOSDJdKUMoPU8pW05IXVtDQEBIXShbQ0gyXVtDSF0oW0NIM10pW0NIM10pQyg9TylbTkhdW0NAQEhdKFtDSDJdW0NIMl1TW0NIM10pQyg9TylbTkhdW0NAQEhdKFtDSDJdW0NIXShbQ0gzXSlbQ0gzXSlDKD1PKVtOSF1bQ0BASF0oW0NASF0oW09IXSlbQ0gzXSlDKD1PKVtOSF1bQ0gyXUMoPU8pW09IXQ==

> <s_epik_cmdline>
J2VwaWtfYXBwJywgJy1pbWFlJywgJ2xpZ2FuZF9wcm8ubWFlJywgJy1vbWFlJywgJ2xpZ2FuZF9wcmVwLm1hZScsICctbXMnLCAnMScsICctcGgnLCAnNycsICctcGh0JywgJzAuNScsICctbnQn

> <r_epik_Ionization_Penalty>
  0.2088

> <r_epik_Ionization_Penalty_Charging>
  0.2088

> <r_epik_Ionization_Penalty_Neutral>
  0.0000

> <r_epik_State_Penalty>
  0.1986

> <r_epik_Charging_Adjusted_Penalty>
0.407397244900229

> <i_epik_Tot_Q>
1

> <i_epik_Tot_abs_Q>
3

> <s_epik_Chemistry_Notes>
This compound has an imine and may undergo hydrolysis.

$$$$
