4ezy_ligand
                    3D
 Schrodinger Suite 2020-3.
 98 97  0  0  1  0            999 V2000
   58.3840   83.4980   23.7720 N   0  3  0  0  0  0
   59.2150   84.3490   24.6730 C   0  0  2  0  0  0
   58.5080   85.4410   25.4570 C   0  0  0  0  0  0
   59.1650   86.3460   25.9250 O   0  0  0  0  0  0
   60.3210   85.0390   23.8730 C   0  0  0  0  0  0
   61.4250   84.1210   23.5270 C   0  0  0  0  0  0
   61.2040   82.9430   23.2130 O   0  0  0  0  0  0
   62.6300   84.6230   23.5970 N   0  0  0  0  0  0
   57.2060   85.3780   25.6580 N   0  0  0  0  0  0
   56.5720   86.4820   26.4020 C   0  0  2  0  0  0
   56.7410   86.3000   27.9040 C   0  0  0  0  0  0
   57.0950   85.1910   28.4140 O   0  0  0  0  0  0
   55.0550   86.5570   26.0420 C   0  0  0  0  0  0
   54.7850   86.7060   24.5450 C   0  0  0  0  0  0
   53.4270   86.0940   24.1800 C   0  0  0  0  0  0
   53.6510   84.6430   24.0920 N   0  0  0  0  0  0
   52.7640   83.6540   24.2720 C   0  0  0  0  0  0
   53.2240   82.3940   24.1590 N   0  3  0  0  0  0
   51.4640   83.8910   24.5630 N   0  0  0  0  0  0
   56.4700   87.3590   28.6510 N   0  0  0  0  0  0
   56.3880   87.2580   30.1000 C   0  0  2  0  0  0
   55.0210   87.5590   30.5760 C   0  0  0  0  0  0
   54.3250   88.3890   30.0060 O   0  0  0  0  0  0
   57.3310   88.2750   30.6980 C   0  0  0  0  0  0
   58.7040   87.9630   30.2080 C   0  0  0  0  0  0
   58.9330   88.7260   28.9180 C   0  0  0  0  0  0
   59.5860   88.4940   31.3100 C   0  0  0  0  0  0
   54.6000   86.8950   31.6250 N   0  0  0  0  0  0
   53.3890   87.2250   32.2200 C   0  0  2  0  0  0
   53.5740   87.8130   33.6230 C   0  0  0  0  0  0
   54.6540   87.6680   34.2740 O   0  0  0  0  0  0
   52.5160   85.9530   32.1790 C   0  0  2  0  0  0
   52.9960   84.8770   33.1430 C   0  0  0  0  0  0
   52.6080   85.3770   30.8070 C   0  0  0  0  0  0
   51.9320   83.8440   33.4210 C   0  0  0  0  0  0
   52.5360   88.4920   34.0950 N   0  0  0  0  0  0
   52.4850   88.9470   35.4620 C   0  0  2  0  0  0
   52.0370   87.8150   36.4080 C   0  0  0  0  0  0
   51.0550   87.0780   36.1250 O   0  0  0  0  0  0
   51.5000   90.1060   35.5360 C   0  0  0  0  0  0
   51.9370   91.3850   34.8470 C   0  0  0  0  0  0
   50.7020   92.0930   34.3340 C   0  0  0  0  0  0
   52.6690   92.2250   35.8870 C   0  0  0  0  0  0
   52.6644   87.6233   37.4838 O   0  5  0  0  0  0
   57.5928   83.0074   24.3579 H   0  0  0  0  0  0
   59.0193   82.7333   23.3011 H   0  0  0  0  0  0
   57.9274   84.1260   22.9928 H   0  0  0  0  0  0
   59.5603   83.6049   25.4059 H   0  0  0  0  0  0
   59.9031   85.4348   22.9356 H   0  0  0  0  0  0
   60.7407   85.8656   24.4651 H   0  0  0  0  0  0
   62.7714   85.6763   23.8810 H   0  0  0  0  0  0
   63.5026   83.9921   23.3719 H   0  0  0  0  0  0
   56.5954   84.5396   25.2917 H   0  0  0  0  0  0
   57.1096   87.3937   26.1024 H   0  0  0  0  0  0
   54.5532   85.6365   26.3750 H   0  0  0  0  0  0
   54.6014   87.4242   26.5443 H   0  0  0  0  0  0
   54.7791   87.7731   24.2779 H   0  0  0  0  0  0
   55.5733   86.1902   23.9771 H   0  0  0  0  0  0
   52.6930   86.3374   24.9623 H   0  0  0  0  0  0
   53.0868   86.5040   23.2176 H   0  0  0  0  0  0
   54.6516   84.2545   23.8513 H   0  0  0  0  0  0
   54.2830   82.2143   23.9221 H   0  0  0  0  0  0
   51.1002   84.9252   24.6527 H   0  0  0  0  0  0
   50.7710   83.0495   24.7099 H   0  0  0  0  0  0
   56.3056   88.3280   28.1570 H   0  0  0  0  0  0
   56.6376   86.2223   30.3737 H   0  0  0  0  0  0
   57.0314   89.2844   30.3797 H   0  0  0  0  0  0
   57.2925   88.2100   31.7954 H   0  0  0  0  0  0
   58.8781   86.8956   30.0073 H   0  0  0  0  0  0
   58.2795   88.3208   28.1314 H   0  0  0  0  0  0
   59.9842   88.6210   28.6116 H   0  0  0  0  0  0
   58.7014   89.7898   29.0752 H   0  0  0  0  0  0
   59.4016   87.9253   32.2334 H   0  0  0  0  0  0
   59.3584   89.5564   31.4820 H   0  0  0  0  0  0
   60.6413   88.3876   31.0184 H   0  0  0  0  0  0
   55.2083   86.0748   32.0339 H   0  0  0  0  0  0
   52.9705   88.0363   31.6063 H   0  0  0  0  0  0
   51.4829   86.2247   32.4414 H   0  0  0  0  0  0
   53.8677   84.3620   32.7131 H   0  0  0  0  0  0
   53.2792   85.3412   34.0992 H   0  0  0  0  0  0
   52.2695   86.1229   30.0728 H   0  0  0  0  0  0
   51.9711   84.4826   30.7414 H   0  0  0  0  0  0
   53.6513   85.1006   30.5946 H   0  0  0  0  0  0
   52.3255   83.0912   34.1199 H   0  0  0  0  0  0
   51.6417   83.3542   32.4798 H   0  0  0  0  0  0
   51.0531   84.3335   33.8659 H   0  0  0  0  0  0
   51.7000   88.7055   33.4127 H   0  0  0  0  0  0
   53.5068   89.2634   35.7186 H   0  0  0  0  0  0
   50.5506   89.8109   35.0653 H   0  0  0  0  0  0
   51.3211   90.3685   36.5891 H   0  0  0  0  0  0
   52.5997   91.1954   33.9897 H   0  0  0  0  0  0
   50.2000   91.4600   33.5875 H   0  0  0  0  0  0
   50.9925   93.0471   33.8700 H   0  0  0  0  0  0
   50.0158   92.2866   35.1717 H   0  0  0  0  0  0
   53.5589   91.6814   36.2371 H   0  0  0  0  0  0
   51.9998   92.4197   36.7381 H   0  0  0  0  0  0
   52.9765   93.1802   35.4364 H   0  0  0  0  0  0
   52.5409   81.5441   24.3036 H   0  0  0  0  0  0
  1  2  1  0  0  0
  1 45  1  0  0  0
  1 46  1  0  0  0
  1 47  1  0  0  0
  2  3  1  0  0  0
  2  5  1  0  0  0
  2 48  1  0  0  0
  3  4  2  0  0  0
  3  9  1  0  0  0
  5  6  1  0  0  0
  5 49  1  0  0  0
  5 50  1  0  0  0
  6  7  2  0  0  0
  6  8  1  0  0  0
  8 51  1  0  0  0
  8 52  1  0  0  0
  9 10  1  0  0  0
  9 53  1  0  0  0
 10 11  1  0  0  0
 10 13  1  0  0  0
 10 54  1  0  0  0
 11 12  2  0  0  0
 11 20  1  0  0  0
 13 14  1  0  0  0
 13 55  1  0  0  0
 13 56  1  0  0  0
 14 15  1  0  0  0
 14 57  1  0  0  0
 14 58  1  0  0  0
 15 16  1  0  0  0
 15 59  1  0  0  0
 15 60  1  0  0  0
 16 17  1  0  0  0
 16 61  1  0  0  0
 17 18  2  0  0  0
 17 19  1  0  0  0
 18 62  1  0  0  0
 18 98  1  0  0  0
 19 63  1  0  0  0
 19 64  1  0  0  0
 20 21  1  0  0  0
 20 65  1  0  0  0
 21 22  1  0  0  0
 21 24  1  0  0  0
 21 66  1  0  0  0
 22 23  2  0  0  0
 22 28  1  0  0  0
 24 25  1  0  0  0
 24 67  1  0  0  0
 24 68  1  0  0  0
 25 26  1  0  0  0
 25 27  1  0  0  0
 25 69  1  0  0  0
 26 70  1  0  0  0
 26 71  1  0  0  0
 26 72  1  0  0  0
 27 73  1  0  0  0
 27 74  1  0  0  0
 27 75  1  0  0  0
 28 29  1  0  0  0
 28 76  1  0  0  0
 29 30  1  0  0  0
 29 32  1  0  0  0
 29 77  1  0  0  0
 30 31  2  0  0  0
 30 36  1  0  0  0
 32 33  1  0  0  0
 32 34  1  0  0  0
 32 78  1  0  0  0
 33 35  1  0  0  0
 33 79  1  0  0  0
 33 80  1  0  0  0
 34 81  1  0  0  0
 34 82  1  0  0  0
 34 83  1  0  0  0
 35 84  1  0  0  0
 35 85  1  0  0  0
 35 86  1  0  0  0
 36 37  1  0  0  0
 36 87  1  0  0  0
 37 38  1  0  0  0
 37 40  1  0  0  0
 37 88  1  0  0  0
 38 39  2  0  0  0
 38 44  1  0  0  0
 40 41  1  0  0  0
 40 89  1  0  0  0
 40 90  1  0  0  0
 41 42  1  0  0  0
 41 43  1  0  0  0
 41 91  1  0  0  0
 42 92  1  0  0  0
 42 93  1  0  0  0
 42 94  1  0  0  0
 43 95  1  0  0  0
 43 96  1  0  0  0
 43 97  1  0  0  0
M  CHG  3   1   1  18   1  44  -1
M  END
> <s_m_source_file>
../4ezy_ligand.sdf

> <i_m_source_file_index>
1

> <s_epik_input>
W0hdL049QyhbTkgyXSlcW05IXVtDSDJdW0NIMl1bQ0gyXVtDQEhdKFtOSF1DKD1PKVtDQEBIXShbTkgzK10pW0NIMl1DKD1PKVtOSDJdKUMoPU8pW05IXVtDQEBIXShbQ0gyXVtDSF0oW0NIM10pW0NIM10pQyg9TylbTkhdW0NAQEhdKFtDQEBIXShbQ0gzXSlbQ0gyXVtDSDNdKUMoPU8pW05IXVtDQEhdKEMoPU8pW09IXSlbQ0gyXVtDSF0oW0NIM10pW0NIM10=

> <s_epik_cmdline>
J2VwaWtfYXBwJywgJy1pbWFlJywgJ2xpZ2FuZF9wcm8ubWFlJywgJy1vbWFlJywgJ2xpZ2FuZF9wcmVwLm1hZScsICctbXMnLCAnMScsICctcGgnLCAnNycsICctcGh0JywgJzAuNScsICctbnQn

> <r_epik_Ionization_Penalty>
  0.2088

> <r_epik_Ionization_Penalty_Charging>
  0.2088

> <r_epik_Ionization_Penalty_Neutral>
  0.0000

> <r_epik_State_Penalty>
  0.1986

> <r_epik_Charging_Adjusted_Penalty>
0.407415353239017

> <i_epik_Tot_Q>
1

> <i_epik_Tot_abs_Q>
3

> <s_epik_Chemistry_Notes>
This compound has an imine and may undergo hydrolysis.

$$$$
