4ezz_ligand
                    3D
 Schrodinger Suite 2020-3.
127127  0  0  1  0            999 V2000
   61.2050   84.2090   24.0870 N   0  3  0  0  0  0
   60.4790   83.8350   22.8250 C   0  0  2  0  0  0
   58.9910   84.2490   22.8740 C   0  0  0  0  0  0
   58.2310   84.0500   21.9120 O   0  0  0  0  0  0
   60.5590   82.3190   22.6130 C   0  0  0  0  0  0
   59.8370   81.5290   23.7040 C   0  0  0  0  0  0
   60.1360   80.0240   23.7350 C   0  0  0  0  0  0
   59.1640   79.2580   23.6240 O   0  0  0  0  0  0
   61.3110   79.5840   23.8840 O   0  5  0  0  0  0
   58.5540   84.7350   24.0310 N   0  0  0  0  0  0
   57.2520   85.3710   24.1960 C   0  0  2  0  0  0
   57.4470   86.4250   25.2620 C   0  0  0  0  0  0
   58.3480   86.2770   26.0940 O   0  0  0  0  0  0
   56.1530   84.3740   24.6470 C   0  0  0  0  0  0
   55.4500   83.5750   23.5370 C   0  0  0  0  0  0
   54.3970   82.6070   24.0810 C   0  0  0  0  0  0
   54.8340   84.4960   22.4700 C   0  0  0  0  0  0
   56.6420   87.5090   25.2030 N   0  0  0  0  0  0
   56.7350   88.4810   26.2770 C   0  0  2  0  0  0
   56.4370   87.7360   27.5760 C   0  0  0  0  0  0
   55.7980   86.6690   27.5680 O   0  0  0  0  0  0
   55.6110   89.5030   25.9590 C   0  0  0  0  0  0
   55.3670   89.3770   24.4780 C   0  0  0  0  0  0
   55.6910   87.9260   24.1320 C   0  0  0  0  0  0
   56.9360   88.2790   28.6680 N   0  0  0  0  0  0
   56.5300   87.7990   30.0090 C   0  0  2  0  0  0
   55.0600   87.8250   30.3400 C   0  0  0  0  0  0
   54.3210   88.6670   29.8250 O   0  0  0  0  0  0
   57.2320   88.6600   31.0390 C   0  0  0  0  0  0
   58.6830   88.2330   31.2230 C   0  0  0  0  0  0
   59.4320   89.3600   31.9540 C   0  0  0  0  0  0
   58.7160   86.9590   32.0390 C   0  0  0  0  0  0
   54.6420   86.9580   31.2590 N   0  0  0  0  0  0
   53.2480   86.9060   31.7110 C   0  0  2  0  0  0
   53.1050   87.5560   33.0600 C   0  0  0  0  0  0
   53.8040   87.2040   34.0190 O   0  0  0  0  0  0
   52.7340   85.4580   31.8070 C   0  0  0  0  0  0
   51.6110   85.3180   32.8270 C   0  0  0  0  0  0
   52.2590   85.0120   30.4480 C   0  0  0  0  0  0
   52.2180   88.5350   33.1170 N   0  0  0  0  0  0
   51.9360   89.2220   34.3410 C   0  0  2  0  0  0
   51.2610   88.1570   35.1780 C   0  0  0  0  0  0
   50.2350   87.6370   34.7910 O   0  0  0  0  0  0
   51.0140   90.4090   34.0140 C   0  0  0  0  0  0
   50.5410   91.2020   35.2170 C   0  0  0  0  0  0
   51.6670   91.9930   35.8680 C   0  0  0  0  0  0
   51.1260   93.1620   36.7000 C   0  0  0  0  0  0
   50.2700   92.6970   37.8350 N   0  3  0  0  0  0
   51.8350   87.7550   36.2920 N   0  0  0  0  0  0
   51.1710   86.6610   37.0240 C   0  0  2  0  0  0
   50.3620   87.1620   38.2300 C   0  0  0  0  0  0
   50.7730   87.1470   39.3800 O   0  0  0  0  0  0
   52.0790   85.4040   37.3220 C   0  0  2  0  0  0
   51.2740   84.2830   38.0410 C   0  0  0  0  0  0
   53.3220   85.7730   38.1240 C   0  0  0  0  0  0
   51.4750   82.8480   37.5460 C   0  0  0  0  0  0
   49.2380   87.6370   38.0640 O   0  5  0  0  0  0
   61.1453   85.2973   24.2355 H   0  0  0  0  0  0
   62.2597   83.9072   24.0064 H   0  0  0  0  0  0
   60.7412   83.6962   24.9425 H   0  0  0  0  0  0
   60.9845   84.3745   22.0105 H   0  0  0  0  0  0
   60.0977   82.0588   21.6489 H   0  0  0  0  0  0
   61.6129   82.0040   22.6120 H   0  0  0  0  0  0
   60.1213   81.9229   24.6909 H   0  0  0  0  0  0
   58.7497   81.6273   23.5693 H   0  0  0  0  0  0
   59.2318   84.6381   24.8919 H   0  0  0  0  0  0
   56.9647   85.7890   23.2199 H   0  0  0  0  0  0
   56.5922   83.6251   25.3225 H   0  0  0  0  0  0
   55.3562   84.9200   25.1733 H   0  0  0  0  0  0
   56.2327   82.9657   23.0614 H   0  0  0  0  0  0
   54.8545   81.9572   24.8416 H   0  0  0  0  0  0
   54.0064   81.9899   23.2584 H   0  0  0  0  0  0
   53.5732   83.1781   24.5341 H   0  0  0  0  0  0
   55.6040   85.1840   22.0907 H   0  0  0  0  0  0
   54.0122   85.0754   22.9160 H   0  0  0  0  0  0
   54.4454   83.8872   21.6403 H   0  0  0  0  0  0
   57.7333   88.9389   26.3383 H   0  0  0  0  0  0
   54.7111   89.2506   26.5391 H   0  0  0  0  0  0
   55.9486   90.5148   26.2277 H   0  0  0  0  0  0
   54.3164   89.6171   24.2578 H   0  0  0  0  0  0
   56.0236   90.0747   23.9375 H   0  0  0  0  0  0
   56.1792   87.8311   23.1509 H   0  0  0  0  0  0
   54.7997   87.2820   24.1619 H   0  0  0  0  0  0
   57.6631   89.0991   28.5742 H   0  0  0  0  0  0
   56.8116   86.7358   29.9934 H   0  0  0  0  0  0
   57.2156   89.7101   30.7117 H   0  0  0  0  0  0
   56.7157   88.5693   32.0061 H   0  0  0  0  0  0
   59.1596   88.0335   30.2519 H   0  0  0  0  0  0
   59.3977   90.2768   31.3471 H   0  0  0  0  0  0
   60.4795   89.0628   32.1104 H   0  0  0  0  0  0
   58.9545   89.5464   32.9273 H   0  0  0  0  0  0
   58.1764   86.1653   31.5016 H   0  0  0  0  0  0
   58.2353   87.1347   33.0127 H   0  0  0  0  0  0
   59.7603   86.6510   32.1959 H   0  0  0  0  0  0
   55.3836   86.2645   31.6821 H   0  0  0  0  0  0
   52.6867   87.4742   30.9547 H   0  0  0  0  0  0
   53.5554   84.8048   32.1366 H   0  0  0  0  0  0
   51.9691   85.6461   33.8140 H   0  0  0  0  0  0
   51.2953   84.2657   32.8827 H   0  0  0  0  0  0
   50.7578   85.9411   32.5208 H   0  0  0  0  0  0
   53.0775   85.1175   29.7207 H   0  0  0  0  0  0
   51.4076   85.6342   30.1348 H   0  0  0  0  0  0
   51.9452   83.9588   30.4967 H   0  0  0  0  0  0
   51.6914   88.8179   32.1936 H   0  0  0  0  0  0
   52.8404   89.6106   34.8320 H   0  0  0  0  0  0
   51.5445   91.1158   33.3590 H   0  0  0  0  0  0
   50.1115   90.0424   33.5031 H   0  0  0  0  0  0
   49.7623   91.9132   34.9042 H   0  0  0  0  0  0
   50.1285   90.5146   35.9702 H   0  0  0  0  0  0
   52.2437   91.3317   36.5314 H   0  0  0  0  0  0
   52.3289   92.3981   35.0884 H   0  0  0  0  0  0
   51.9670   93.7348   37.1179 H   0  0  0  0  0  0
   50.5182   93.8178   36.0592 H   0  0  0  0  0  0
   49.9065   93.5676   38.4007 H   0  0  0  0  0  0
   50.8614   92.0493   38.4988 H   0  0  0  0  0  0
   49.4126   92.1322   37.4402 H   0  0  0  0  0  0
   52.7646   88.1939   36.6834 H   0  0  0  0  0  0
   50.4327   86.3340   36.2770 H   0  0  0  0  0  0
   52.4472   85.0084   36.3639 H   0  0  0  0  0  0
   51.5423   84.2655   39.1076 H   0  0  0  0  0  0
   50.1969   84.4808   37.9371 H   0  0  0  0  0  0
   53.8753   86.5655   37.5988 H   0  0  0  0  0  0
   53.9649   84.8870   38.2323 H   0  0  0  0  0  0
   53.0226   86.1327   39.1195 H   0  0  0  0  0  0
   50.8496   82.1646   38.1391 H   0  0  0  0  0  0
   52.5326   82.5666   37.6569 H   0  0  0  0  0  0
   51.1872   82.7820   36.4864 H   0  0  0  0  0  0
  1  2  1  0  0  0
  1 58  1  0  0  0
  1 59  1  0  0  0
  1 60  1  0  0  0
  2  3  1  0  0  0
  2  5  1  0  0  0
  2 61  1  0  0  0
  3  4  2  0  0  0
  3 10  1  0  0  0
  5  6  1  0  0  0
  5 62  1  0  0  0
  5 63  1  0  0  0
  6  7  1  0  0  0
  6 64  1  0  0  0
  6 65  1  0  0  0
  7  8  2  0  0  0
  7  9  1  0  0  0
 10 11  1  0  0  0
 10 66  1  0  0  0
 11 12  1  0  0  0
 11 14  1  0  0  0
 11 67  1  0  0  0
 12 13  2  0  0  0
 12 18  1  0  0  0
 14 15  1  0  0  0
 14 68  1  0  0  0
 14 69  1  0  0  0
 15 16  1  0  0  0
 15 17  1  0  0  0
 15 70  1  0  0  0
 16 71  1  0  0  0
 16 72  1  0  0  0
 16 73  1  0  0  0
 17 74  1  0  0  0
 17 75  1  0  0  0
 17 76  1  0  0  0
 18 19  1  0  0  0
 18 24  1  0  0  0
 19 20  1  0  0  0
 19 22  1  0  0  0
 19 77  1  0  0  0
 20 21  2  0  0  0
 20 25  1  0  0  0
 22 23  1  0  0  0
 22 78  1  0  0  0
 22 79  1  0  0  0
 23 24  1  0  0  0
 23 80  1  0  0  0
 23 81  1  0  0  0
 24 82  1  0  0  0
 24 83  1  0  0  0
 25 26  1  0  0  0
 25 84  1  0  0  0
 26 27  1  0  0  0
 26 29  1  0  0  0
 26 85  1  0  0  0
 27 28  2  0  0  0
 27 33  1  0  0  0
 29 30  1  0  0  0
 29 86  1  0  0  0
 29 87  1  0  0  0
 30 31  1  0  0  0
 30 32  1  0  0  0
 30 88  1  0  0  0
 31 89  1  0  0  0
 31 90  1  0  0  0
 31 91  1  0  0  0
 32 92  1  0  0  0
 32 93  1  0  0  0
 32 94  1  0  0  0
 33 34  1  0  0  0
 33 95  1  0  0  0
 34 35  1  0  0  0
 34 37  1  0  0  0
 34 96  1  0  0  0
 35 36  2  0  0  0
 35 40  1  0  0  0
 37 38  1  0  0  0
 37 39  1  0  0  0
 37 97  1  0  0  0
 38 98  1  0  0  0
 38 99  1  0  0  0
 38100  1  0  0  0
 39101  1  0  0  0
 39102  1  0  0  0
 39103  1  0  0  0
 40 41  1  0  0  0
 40104  1  0  0  0
 41 42  1  0  0  0
 41 44  1  0  0  0
 41105  1  0  0  0
 42 43  2  0  0  0
 42 49  1  0  0  0
 44 45  1  0  0  0
 44106  1  0  0  0
 44107  1  0  0  0
 45 46  1  0  0  0
 45108  1  0  0  0
 45109  1  0  0  0
 46 47  1  0  0  0
 46110  1  0  0  0
 46111  1  0  0  0
 47 48  1  0  0  0
 47112  1  0  0  0
 47113  1  0  0  0
 48114  1  0  0  0
 48115  1  0  0  0
 48116  1  0  0  0
 49 50  1  0  0  0
 49117  1  0  0  0
 50 51  1  0  0  0
 50 53  1  0  0  0
 50118  1  0  0  0
 51 52  2  0  0  0
 51 57  1  0  0  0
 53 54  1  0  0  0
 53 55  1  0  0  0
 53119  1  0  0  0
 54 56  1  0  0  0
 54120  1  0  0  0
 54121  1  0  0  0
 55122  1  0  0  0
 55123  1  0  0  0
 55124  1  0  0  0
 56125  1  0  0  0
 56126  1  0  0  0
 56127  1  0  0  0
M  CHG  4   1   1   9  -1  48   1  57  -1
M  END
> <s_m_source_file>
../4ezz_ligand.sdf

> <i_m_source_file_index>
1

> <s_epik_input>
Tz1DKFtPSF0pW0NIMl1bQ0gyXVtDQEhdKFtOSDMrXSlDKD1PKVtOSF1bQ0BASF0oW0NIMl1bQ0hdKFtDSDNdKVtDSDNdKUMoPU8pTjFbQ0BASF0oW0NIMl1bQ0gyXVtDSDJdMSlDKD1PKVtOSF1bQ0BASF0oW0NIMl1bQ0hdKFtDSDNdKVtDSDNdKUMoPU8pW05IXVtDQEBIXShbQ0hdKFtDSDNdKVtDSDNdKUMoPU8pW05IXVtDQEBIXShbQ0gyXVtDSDJdW0NIMl1bQ0gyXVtOSDMrXSlDKD1PKVtOSF1bQ0BIXShDKD1PKVtPSF0pW0NAQEhdKFtDSDNdKVtDSDJdW0NIM10=

> <s_epik_cmdline>
J2VwaWtfYXBwJywgJy1pbWFlJywgJ2xpZ2FuZF9wcm8ubWFlJywgJy1vbWFlJywgJ2xpZ2FuZF9wcmVwLm1hZScsICctbXMnLCAnMScsICctcGgnLCAnNycsICctcGh0JywgJzAuNScsICctbnQn

> <r_epik_Ionization_Penalty>
  0.0751

> <r_epik_Ionization_Penalty_Charging>
  0.0751

> <r_epik_Ionization_Penalty_Neutral>
  0.0000

> <r_epik_State_Penalty>
  0.0646

> <r_epik_Charging_Adjusted_Penalty>
0.139631259866592

> <i_epik_Tot_Q>
0

> <i_epik_Tot_abs_Q>
4

$$$$
