4f08_ligand
                    3D
 Schrodinger Suite 2020-3.
 33 36  0  0  1  0            999 V2000
   10.3890  -53.7910  -23.2710 C   0  0  0  0  0  0
   11.0980  -53.0440  -24.0350 N   0  0  0  0  0  0
   11.2200  -51.8420  -23.4720 C   0  0  0  0  0  0
   11.8720  -50.6940  -23.8730 C   0  0  0  0  0  0
   11.8450  -49.6350  -23.1330 N   0  0  0  0  0  0
   11.2050  -49.5860  -21.9890 C   0  0  0  0  0  0
   10.5180  -50.6970  -21.5090 C   0  0  0  0  0  0
   10.5210  -51.8670  -22.2650 C   0  0  0  0  0  0
   10.0020  -53.1230  -22.1720 N   0  0  0  0  0  0
    9.1960  -53.7450  -21.1370 C   0  0  0  0  0  0
    7.7160  -53.4350  -21.1330 C   0  0  0  0  0  0
    7.0830  -54.5680  -20.3380 C   0  0  0  0  0  0
    7.6480  -54.6270  -18.9930 N   0  3  0  0  0  0
    9.0910  -54.8460  -18.9870 C   0  0  0  0  0  0
    9.7580  -53.7040  -19.7330 C   0  0  0  0  0  0
    9.9440  -50.2830  -20.2420 C   0  0  0  0  0  0
   10.2970  -49.0140  -20.0490 C   0  0  0  0  0  0
   11.0550  -48.5850  -21.0830 N   0  0  0  0  0  0
   10.1345  -54.8291  -23.4849 H   0  0  0  0  0  0
   12.4129  -50.6803  -24.8193 H   0  0  0  0  0  0
    9.3136  -54.7662  -21.5285 H   0  0  0  0  0  0
    7.5472  -52.4584  -20.6557 H   0  0  0  0  0  0
    7.3446  -53.4063  -22.1680 H   0  0  0  0  0  0
    5.9982  -54.4017  -20.2628 H   0  0  0  0  0  0
    7.2729  -55.5242  -20.8475 H   0  0  0  0  0  0
    7.4529  -53.6784  -18.4714 H   0  0  0  0  0  0
    7.1833  -55.4539  -18.4360 H   0  0  0  0  0  0
    9.4529  -54.8767  -17.9487 H   0  0  0  0  0  0
    9.3190  -55.8009  -19.4831 H   0  0  0  0  0  0
   10.8494  -53.8357  -19.7710 H   0  0  0  0  0  0
    9.5216  -52.7339  -19.2716 H   0  0  0  0  0  0
    9.3381  -50.8956  -19.5743 H   0  0  0  0  0  0
   10.0640  -48.3322  -19.2178 H   0  0  0  0  0  0
  1  2  2  0  0  0
  1  9  1  0  0  0
  1 19  1  0  0  0
  2  3  1  0  0  0
  3  4  2  0  0  0
  3  8  1  0  0  0
  4  5  1  0  0  0
  4 20  1  0  0  0
  5  6  2  0  0  0
  6  7  1  0  0  0
  6 18  1  0  0  0
  7  8  2  0  0  0
  7 16  1  0  0  0
  8  9  1  0  0  0
  9 10  1  0  0  0
 10 11  1  0  0  0
 10 15  1  0  0  0
 10 21  1  0  0  0
 11 12  1  0  0  0
 11 22  1  0  0  0
 11 23  1  0  0  0
 12 13  1  0  0  0
 12 24  1  0  0  0
 12 25  1  0  0  0
 13 14  1  0  0  0
 13 26  1  0  0  0
 13 27  1  0  0  0
 14 15  1  0  0  0
 14 28  1  0  0  0
 14 29  1  0  0  0
 15 30  1  0  0  0
 15 31  1  0  0  0
 16 17  1  0  0  0
 16 32  1  0  0  0
 17 18  2  0  0  0
 17 33  1  0  0  0
M  CHG  1  13   1
M  END
> <s_m_source_file>
../4f08_ligand.sdf

> <i_m_source_file_index>
1

> <s_epik_input>
W0NIMl0xW0NIXT1OYyhuW2NIXTIpYzFjKGMyMyluKFtjSF1uMylbQ0hdNFtDSDJdW0NIMl1bTkgyK11bQ0gyXVtDSDJdNA==

> <s_epik_cmdline>
J2VwaWtfYXBwJywgJy1pbWFlJywgJ2xpZ2FuZF9wcm8ubWFlJywgJy1vbWFlJywgJ2xpZ2FuZF9wcmVwLm1hZScsICctbXMnLCAnMScsICctcGgnLCAnNycsICctcGh0JywgJzAuNScsICctbnQn

> <r_epik_Ionization_Penalty>
  0.0186

> <r_epik_Ionization_Penalty_Charging>
  0.0024

> <r_epik_Ionization_Penalty_Neutral>
  0.0162

> <r_epik_State_Penalty>
  0.0128

> <r_epik_Charging_Adjusted_Penalty>
0.0152002411611617

> <i_epik_Tot_Q>
1

> <i_epik_Tot_abs_Q>
1

> <s_epik_Chemistry_Notes>
This compound has an imine and may undergo hydrolysis.

$$$$
