4f0c_ligand
                    3D
 Schrodinger Suite 2020-3.
 70 69  0  0  1  0            999 V2000
    6.2020   19.7360    3.7790 N   0  3  0  0  0  0
    5.3000   20.2360    4.8850 C   0  0  2  0  0  0
    6.1280   20.9870    6.0020 C   0  0  0  0  0  0
    7.3010   20.5890    6.2710 O   0  5  0  0  0  0
    5.5860   22.0060    6.5180 O   0  0  0  0  0  0
    4.4940   19.0680    5.5560 C   0  0  0  0  0  0
    3.5730   19.5990    6.6790 C   0  0  0  0  0  0
    2.7080   18.4800    7.1660 C   0  0  0  0  0  0
    2.7560   17.3310    6.7600 O   0  0  0  0  0  0
    1.8190   18.8530    8.1540 N   0  0  0  0  0  0
    0.8640   17.8900    8.7370 C   0  0  2  0  0  0
   -0.5520   18.3570    8.5020 C   0  0  0  0  0  0
   -0.8390   19.5480    8.6540 O   0  0  0  0  0  0
    1.0140   17.8260   10.2750 C   0  0  0  0  0  0
    2.5490   16.9770   10.7080 S   0  0  0  0  0  0
   -1.4670   17.4090    8.2110 N   0  0  0  0  0  0
   -2.8390   17.7910    8.0220 C   0  0  0  0  0  0
   -3.4190   17.1310    6.7760 C   0  0  0  0  0  0
   -4.6580   17.1720    6.6150 O   0  5  0  0  0  0
   -2.5850   16.6600    5.9810 O   0  0  0  0  0  0
    4.0120   14.7950    6.3520 N   0  0  0  0  0  0
    5.0160   14.5110    5.3170 C   0  0  0  0  0  0
    6.2020   15.5030    5.5010 C   0  0  0  0  0  0
    6.4760   15.9030    6.6620 O   0  5  0  0  0  0
    6.8080   15.8160    4.4560 O   0  0  0  0  0  0
    3.2630   13.7850    6.9030 C   0  0  0  0  0  0
    3.3770   12.6000    6.5860 O   0  0  0  0  0  0
    2.2550   14.1560    7.9830 C   0  0  1  0  0  0
    1.1180   13.1930    7.9890 N   0  0  0  0  0  0
    2.9890   14.1350    9.3280 C   0  0  0  0  0  0
    1.9640   14.9140   10.6340 S   0  0  0  0  0  0
   -2.2180   13.3090    5.5530 C   0  0  1  0  0  0
   -1.9910   11.9340    4.8050 C   0  0  0  0  0  0
   -2.9140   11.4870    4.0900 O   0  5  0  0  0  0
   -0.8820   11.3820    4.9690 O   0  0  0  0  0  0
   -3.2960   14.0600    4.9100 N   0  3  0  0  0  0
   -2.5190   12.9780    7.0450 C   0  0  0  0  0  0
   -1.2650   12.5630    7.8300 C   0  0  0  0  0  0
   -0.2040   13.6550    7.7830 C   0  0  0  0  0  0
   -0.4200   14.8610    7.6150 O   0  0  0  0  0  0
    6.7460   20.5842    3.3379 H   0  0  0  0  0  0
    5.5945   19.2467    3.0034 H   0  0  0  0  0  0
    6.9216   19.0133    4.1913 H   0  0  0  0  0  0
    4.6084   20.9224    4.3745 H   0  0  0  0  0  0
    3.8722   18.5690    4.7982 H   0  0  0  0  0  0
    5.1956   18.3411    5.9912 H   0  0  0  0  0  0
    4.1877   19.9813    7.5072 H   0  0  0  0  0  0
    2.9440   20.4105    6.2843 H   0  0  0  0  0  0
    1.8332   19.8951    8.5059 H   0  0  0  0  0  0
    1.0812   16.9361    8.2342 H   0  0  0  0  0  0
    1.0361   18.8469   10.6840 H   0  0  0  0  0  0
    0.1625   17.2775   10.7040 H   0  0  0  0  0  0
   -1.1722   16.3533    8.1181 H   0  0  0  0  0  0
   -3.4301   17.4792    8.8957 H   0  0  0  0  0  0
   -2.9030   18.8831    7.9068 H   0  0  0  0  0  0
    3.8527   15.8279    6.6950 H   0  0  0  0  0  0
    5.3705   13.4752    5.4244 H   0  0  0  0  0  0
    4.5648   14.6428    4.3225 H   0  0  0  0  0  0
    1.8138   15.1441    7.7854 H   0  0  0  0  0  0
    1.3055   12.1217    8.1536 H   0  0  0  0  0  0
    3.2004   13.0941    9.6141 H   0  0  0  0  0  0
    3.9346   14.6899    9.2384 H   0  0  0  0  0  0
   -1.3731   14.0094    5.4789 H   0  0  0  0  0  0
   -3.0273   14.2633    3.8629 H   0  0  0  0  0  0
   -3.4475   15.0113    5.4411 H   0  0  0  0  0  0
   -4.2239   13.4701    4.9425 H   0  0  0  0  0  0
   -2.9452   13.8640    7.5384 H   0  0  0  0  0  0
   -3.2380   12.1472    7.0985 H   0  0  0  0  0  0
   -1.5344   12.3785    8.8804 H   0  0  0  0  0  0
   -0.8455   11.6451    7.3924 H   0  0  0  0  0  0
  1  2  1  0  0  0
  1 41  1  0  0  0
  1 42  1  0  0  0
  1 43  1  0  0  0
  2  3  1  0  0  0
  2  6  1  0  0  0
  2 44  1  0  0  0
  3  4  1  0  0  0
  3  5  2  0  0  0
  6  7  1  0  0  0
  6 45  1  0  0  0
  6 46  1  0  0  0
  7  8  1  0  0  0
  7 47  1  0  0  0
  7 48  1  0  0  0
  8  9  2  0  0  0
  8 10  1  0  0  0
 10 11  1  0  0  0
 10 49  1  0  0  0
 11 12  1  0  0  0
 11 14  1  0  0  0
 11 50  1  0  0  0
 12 13  2  0  0  0
 12 16  1  0  0  0
 14 15  1  0  0  0
 14 51  1  0  0  0
 14 52  1  0  0  0
 15 31  1  0  0  0
 16 17  1  0  0  0
 16 53  1  0  0  0
 17 18  1  0  0  0
 17 54  1  0  0  0
 17 55  1  0  0  0
 18 19  1  0  0  0
 18 20  2  0  0  0
 21 22  1  0  0  0
 21 26  1  0  0  0
 21 56  1  0  0  0
 22 23  1  0  0  0
 22 57  1  0  0  0
 22 58  1  0  0  0
 23 24  1  0  0  0
 23 25  2  0  0  0
 26 27  2  0  0  0
 26 28  1  0  0  0
 28 29  1  0  0  0
 28 30  1  0  0  0
 28 59  1  0  0  0
 29 39  1  0  0  0
 29 60  1  0  0  0
 30 31  1  0  0  0
 30 61  1  0  0  0
 30 62  1  0  0  0
 32 33  1  0  0  0
 32 36  1  0  0  0
 32 37  1  0  0  0
 32 63  1  0  0  0
 33 34  1  0  0  0
 33 35  2  0  0  0
 36 64  1  0  0  0
 36 65  1  0  0  0
 36 66  1  0  0  0
 37 38  1  0  0  0
 37 67  1  0  0  0
 37 68  1  0  0  0
 38 39  1  0  0  0
 38 69  1  0  0  0
 38 70  1  0  0  0
 39 40  2  0  0  0
M  CHG  6   1   1   4  -1  19  -1  24  -1  34  -1  36   1
M  END
> <s_m_source_file>
../4f0c_ligand.sdf

> <i_m_source_file_index>
1

> <s_epik_input>
W09IXUMoPU8pW0NAQEhdKFtOSDMrXSlbQ0gyXVtDSDJdQyg9TylbTkhdW0NASF0oQyg9TylbTkhdW0NIMl1DKD1PKVtPSF0pW0NIMl1TU1tDSDJdW0NAQEhdKEMoPU8pW05IXVtDSDJdQyg9TylbT0hdKVtOSF1DKD1PKVtDSDJdW0NIMl1bQ0BIXShbTkgzK10pQyg9TylbT0hd

> <s_epik_cmdline>
J2VwaWtfYXBwJywgJy1pbWFlJywgJ2xpZ2FuZF9wcm8ubWFlJywgJy1vbWFlJywgJ2xpZ2FuZF9wcmVwLm1hZScsICctbXMnLCAnMScsICctcGgnLCAnNycsICctcGh0JywgJzAuNScsICctbnQn

> <r_lp_tautomer_probability>
1

> <r_epik_Ionization_Penalty>
  0.0051

> <r_epik_Ionization_Penalty_Charging>
  0.0051

> <r_epik_Ionization_Penalty_Neutral>
  0.0000

> <r_epik_State_Penalty>
 -0.0000

> <r_epik_Charging_Adjusted_Penalty>
0.00506422036912003

> <i_epik_Tot_Q>
-2

> <i_epik_Tot_abs_Q>
6

$$$$
