4f14_ligand
                    3D
 Schrodinger Suite 2020-3.
163168  0  0  1  0            999 V2000
  -11.3440   10.2110    5.5190 N   0  3  0  0  0  0
  -10.6210    9.0610    6.0850 C   0  0  2  0  0  0
   -9.4100    9.5400    6.9120 C   0  0  0  0  0  0
   -9.0440   10.7250    6.8640 O   0  0  0  0  0  0
  -10.2370    8.2650    4.8350 C   0  0  0  0  0  0
  -11.3340    8.5590    3.8760 C   0  0  0  0  0  0
  -11.7020    9.9800    4.1030 C   0  0  0  0  0  0
   -8.8280    8.6450    7.7160 N   0  0  0  0  0  0
   -7.8140    9.0940    8.6780 C   0  0  2  0  0  0
   -6.4390    9.2990    8.0250 C   0  0  0  0  0  0
   -6.1660    8.8060    6.9360 O   0  0  0  0  0  0
   -7.7560    7.9350    9.6840 C   0  0  0  0  0  0
   -8.1790    6.7480    8.9110 C   0  0  0  0  0  0
   -9.2060    7.2380    7.9320 C   0  0  0  0  0  0
   -5.5270   10.0050    8.7130 N   0  0  0  0  0  0
   -4.1700   10.1440    8.1770 C   0  0  2  0  0  0
   -3.4690    8.7970    8.1410 C   0  0  0  0  0  0
   -3.7650    7.9040    8.9230 O   0  0  0  0  0  0
   -3.4810   11.0830    9.1620 C   0  0  0  0  0  0
   -4.3350   11.1170   10.3430 C   0  0  0  0  0  0
   -5.7010   10.6860    9.9990 C   0  0  0  0  0  0
   -2.5360    8.6400    7.2200 N   0  0  0  0  0  0
   -1.7230    7.4350    7.1740 C   0  0  2  0  0  0
   -0.4400    7.6740    7.9670 C   0  0  0  0  0  0
   -0.0350    8.8220    8.2120 O   0  0  0  0  0  0
   -1.4010    7.0190    5.7260 C   0  0  2  0  0  0
   -0.7210    8.1010    5.0900 O   0  0  0  0  0  0
   -2.6690    6.6850    4.9640 C   0  0  0  0  0  0
    0.1590    6.5770    8.4100 N   0  0  0  0  0  0
    1.4040    6.6070    9.1630 C   0  0  2  0  0  0
    2.5920    6.5160    8.2140 C   0  0  0  0  0  0
    2.4470    6.1100    7.0620 O   0  0  0  0  0  0
    1.4310    5.4540   10.1630 C   0  0  0  0  0  0
    0.3090    5.4290   11.1970 C   0  0  0  0  0  0
    0.5590    4.3460   12.2390 C   0  0  0  0  0  0
    0.1840    6.7810   11.8470 C   0  0  0  0  0  0
    3.7830    6.9000    8.6920 N   0  0  0  0  0  0
    4.9570    6.7780    7.8260 C   0  0  2  0  0  0
    5.0750    5.3690    7.2660 C   0  0  0  0  0  0
    4.7800    4.3880    7.9520 O   0  0  0  0  0  0
    6.1180    7.1130    8.7640 C   0  0  0  0  0  0
    5.5120    8.0380    9.7610 C   0  0  0  0  0  0
    4.1210    7.5080    9.9890 C   0  0  0  0  0  0
    5.4820    5.2800    6.0090 N   0  0  0  0  0  0
    5.5500    3.9980    5.3290 C   0  0  2  0  0  0
    6.9730    3.4640    5.3350 C   0  0  0  0  0  0
    7.9180    4.1760    4.9820 O   0  0  0  0  0  0
    5.0170    4.1230    3.9010 C   0  0  0  0  0  0
    5.0090    2.8210    3.1250 C   0  0  0  0  0  0
    4.3640    2.9930    1.7660 C   0  0  0  0  0  0
    5.0780    4.0500    0.9500 C   0  0  0  0  0  0
    4.4960    4.1390   -0.4090 N   0  3  0  0  0  0
    7.1380    2.1990    5.7410 N   0  0  0  0  0  0
    8.4820    1.6550    5.9340 C   0  0  2  0  0  0
    9.1430    1.2240    4.6270 C   0  0  0  0  0  0
    8.4610    0.7850    3.6950 O   0  0  0  0  0  0
    8.2230    0.4390    6.8200 C   0  0  0  0  0  0
    6.8860   -0.0500    6.3680 C   0  0  0  0  0  0
    6.0940    1.1940    6.0030 C   0  0  0  0  0  0
   10.4620    1.3530    4.5610 N   0  0  0  0  0  0
   11.2280    0.7550    3.4740 C   0  0  2  0  0  0
   11.6240   -0.6250    3.9820 C   0  0  0  0  0  0
   12.3410   -0.7380    4.9750 O   0  0  0  0  0  0
   12.4710    1.5780    3.1440 C   0  0  0  0  0  0
   11.1400   -1.6730    3.3240 N   0  0  0  0  0  0
   11.2880   -3.0260    3.8610 C   0  0  2  0  0  0
   12.5560   -3.7370    3.3900 C   0  0  0  0  0  0
   12.9370   -3.6330    2.2250 O   0  0  0  0  0  0
   10.0520   -3.8670    3.5280 C   0  0  0  0  0  0
   13.2120   -4.4750    4.3020 N   0  0  0  0  0  0
   12.8140   -4.6430    5.7040 C   0  0  2  0  0  0
   13.4250   -3.5750    6.6100 C   0  0  0  0  0  0
   13.1072   -3.5617    7.8292 O   0  0  0  0  0  0
   13.3820   -6.0240    6.0660 C   0  0  0  0  0  0
   14.2280   -6.4610    4.8750 C   0  0  0  0  0  0
   14.3960   -5.2860    3.9810 C   0  0  0  0  0  0
   14.2309   -2.7243    6.1470 O   0  0  0  0  0  0
  -12.2692   10.3794    6.0897 H   0  0  0  0  0  0
  -10.7093   11.1076    5.5766 H   0  0  0  0  0  0
  -11.2360    8.4735    6.7825 H   0  0  0  0  0  0
   -9.2593    8.6095    4.4670 H   0  0  0  0  0  0
  -10.1786    7.1954    5.0850 H   0  0  0  0  0  0
  -10.9753    8.3995    2.8484 H   0  0  0  0  0  0
  -12.1844    7.8904    4.0754 H   0  0  0  0  0  0
  -12.7781   10.1601    3.9628 H   0  0  0  0  0  0
  -11.1288   10.6670    3.4631 H   0  0  0  0  0  0
   -8.1046   10.0672    9.1004 H   0  0  0  0  0  0
   -6.7292    7.8308   10.0645 H   0  0  0  0  0  0
   -8.4382    8.1421   10.5217 H   0  0  0  0  0  0
   -7.3087    6.3185    8.3932 H   0  0  0  0  0  0
   -8.6059    5.9987    9.5939 H   0  0  0  0  0  0
  -10.2276    7.1909    8.3371 H   0  0  0  0  0  0
   -9.1655    6.6964    6.9754 H   0  0  0  0  0  0
   -4.1929   10.5241    7.1450 H   0  0  0  0  0  0
   -2.4817   10.6919    9.4036 H   0  0  0  0  0  0
   -3.3847   12.0815    8.7106 H   0  0  0  0  0  0
   -3.9277   10.4413   11.1095 H   0  0  0  0  0  0
   -4.3713   12.1423   10.7399 H   0  0  0  0  0  0
   -6.3901   11.5343    9.8744 H   0  0  0  0  0  0
   -6.1165    9.9810   10.7340 H   0  0  0  0  0  0
   -2.3783    9.4385    6.4800 H   0  0  0  0  0  0
   -2.3307    6.6462    7.6413 H   0  0  0  0  0  0
   -0.7239    6.1529    5.6888 H   0  0  0  0  0  0
    0.2236    8.4789    5.5083 H   0  0  0  0  0  0
   -3.1863    5.8509    5.4606 H   0  0  0  0  0  0
   -2.4125    6.3963    3.9340 H   0  0  0  0  0  0
   -3.3279    7.5656    4.9447 H   0  0  0  0  0  0
   -0.3253    5.6151    8.1861 H   0  0  0  0  0  0
    1.4267    7.5702    9.6938 H   0  0  0  0  0  0
    1.3653    4.4982    9.6225 H   0  0  0  0  0  0
    2.3694    5.4874   10.7359 H   0  0  0  0  0  0
   -0.6434    5.2045   10.6945 H   0  0  0  0  0  0
    0.6464    3.3698   11.7395 H   0  0  0  0  0  0
   -0.2801    4.3204   12.9498 H   0  0  0  0  0  0
    1.4912    4.5659   12.7799 H   0  0  0  0  0  0
    0.0043    7.5437   11.0750 H   0  0  0  0  0  0
    1.1139    7.0163   12.3855 H   0  0  0  0  0  0
   -0.6575    6.7709   12.5554 H   0  0  0  0  0  0
    4.8834    7.4450    6.9544 H   0  0  0  0  0  0
    6.4932    6.1887    9.2276 H   0  0  0  0  0  0
    6.9266    7.5901    8.1908 H   0  0  0  0  0  0
    6.1087    8.0232   10.6850 H   0  0  0  0  0  0
    5.4955    9.0588    9.3515 H   0  0  0  0  0  0
    3.3976    8.3037   10.2206 H   0  0  0  0  0  0
    4.0846    6.7393   10.7750 H   0  0  0  0  0  0
    5.7715    6.1996    5.4793 H   0  0  0  0  0  0
    4.9088    3.3170    5.9078 H   0  0  0  0  0  0
    3.9802    4.4895    3.9274 H   0  0  0  0  0  0
    5.6419    4.8311    3.3370 H   0  0  0  0  0  0
    6.0428    2.4744    2.9798 H   0  0  0  0  0  0
    4.4436    2.0628    3.6867 H   0  0  0  0  0  0
    4.4044    2.0402    1.2178 H   0  0  0  0  0  0
    3.3150    3.2982    1.8940 H   0  0  0  0  0  0
    4.9769    5.0266    1.4461 H   0  0  0  0  0  0
    6.1436    3.7903    0.8655 H   0  0  0  0  0  0
    5.0270    4.9108   -0.9854 H   0  0  0  0  0  0
    3.4310    4.4043   -0.3351 H   0  0  0  0  0  0
    4.5977    3.1680   -0.9157 H   0  0  0  0  0  0
    9.1399    2.4253    6.3628 H   0  0  0  0  0  0
    9.0156   -0.3068    6.6599 H   0  0  0  0  0  0
    8.2186    0.7486    7.8755 H   0  0  0  0  0  0
    7.0125   -0.7125    5.4990 H   0  0  0  0  0  0
    6.4032   -0.6056    7.1854 H   0  0  0  0  0  0
    5.4516    1.5388    6.8267 H   0  0  0  0  0  0
    5.4853    1.0530    5.0977 H   0  0  0  0  0  0
   10.9770    1.9244    5.3473 H   0  0  0  0  0  0
   10.6034    0.7257    2.5690 H   0  0  0  0  0  0
   12.1675    2.5703    2.7791 H   0  0  0  0  0  0
   13.0551    1.0642    2.3663 H   0  0  0  0  0  0
   13.0859    1.6924    4.0489 H   0  0  0  0  0  0
   10.6235   -1.5150    2.3657 H   0  0  0  0  0  0
   11.3818   -2.8651    4.9451 H   0  0  0  0  0  0
    9.1483   -3.3430    3.8726 H   0  0  0  0  0  0
   10.1252   -4.8420    4.0321 H   0  0  0  0  0  0
    9.9948   -4.0200    2.4402 H   0  0  0  0  0  0
   11.7225   -4.5426    5.7967 H   0  0  0  0  0  0
   13.5343   -2.8023    8.5007 H   0  0  0  0  0  0
   13.9933   -5.9418    6.9768 H   0  0  0  0  0  0
   12.5540   -6.7263    6.2423 H   0  0  0  0  0  0
   15.2076   -6.8129    5.2306 H   0  0  0  0  0  0
   13.7170   -7.2762    4.3417 H   0  0  0  0  0  0
   14.3788   -5.5537    2.9142 H   0  0  0  0  0  0
   15.3063   -4.7084    4.1995 H   0  0  0  0  0  0
  1  2  1  0  0  0
  1  7  1  0  0  0
  1 78  1  0  0  0
  1 79  1  0  0  0
  2  3  1  0  0  0
  2  5  1  0  0  0
  2 80  1  0  0  0
  3  4  2  0  0  0
  3  8  1  0  0  0
  5  6  1  0  0  0
  5 81  1  0  0  0
  5 82  1  0  0  0
  6  7  1  0  0  0
  6 83  1  0  0  0
  6 84  1  0  0  0
  7 85  1  0  0  0
  7 86  1  0  0  0
  8  9  1  0  0  0
  8 14  1  0  0  0
  9 10  1  0  0  0
  9 12  1  0  0  0
  9 87  1  0  0  0
 10 11  2  0  0  0
 10 15  1  0  0  0
 12 13  1  0  0  0
 12 88  1  0  0  0
 12 89  1  0  0  0
 13 14  1  0  0  0
 13 90  1  0  0  0
 13 91  1  0  0  0
 14 92  1  0  0  0
 14 93  1  0  0  0
 15 16  1  0  0  0
 15 21  1  0  0  0
 16 17  1  0  0  0
 16 19  1  0  0  0
 16 94  1  0  0  0
 17 18  2  0  0  0
 17 22  1  0  0  0
 19 20  1  0  0  0
 19 95  1  0  0  0
 19 96  1  0  0  0
 20 21  1  0  0  0
 20 97  1  0  0  0
 20 98  1  0  0  0
 21 99  1  0  0  0
 21100  1  0  0  0
 22 23  1  0  0  0
 22101  1  0  0  0
 23 24  1  0  0  0
 23 26  1  0  0  0
 23102  1  0  0  0
 24 25  2  0  0  0
 24 29  1  0  0  0
 26 27  1  0  0  0
 26 28  1  0  0  0
 26103  1  0  0  0
 27104  1  0  0  0
 28105  1  0  0  0
 28106  1  0  0  0
 28107  1  0  0  0
 29 30  1  0  0  0
 29108  1  0  0  0
 30 31  1  0  0  0
 30 33  1  0  0  0
 30109  1  0  0  0
 31 32  2  0  0  0
 31 37  1  0  0  0
 33 34  1  0  0  0
 33110  1  0  0  0
 33111  1  0  0  0
 34 35  1  0  0  0
 34 36  1  0  0  0
 34112  1  0  0  0
 35113  1  0  0  0
 35114  1  0  0  0
 35115  1  0  0  0
 36116  1  0  0  0
 36117  1  0  0  0
 36118  1  0  0  0
 37 38  1  0  0  0
 37 43  1  0  0  0
 38 39  1  0  0  0
 38 41  1  0  0  0
 38119  1  0  0  0
 39 40  2  0  0  0
 39 44  1  0  0  0
 41 42  1  0  0  0
 41120  1  0  0  0
 41121  1  0  0  0
 42 43  1  0  0  0
 42122  1  0  0  0
 42123  1  0  0  0
 43124  1  0  0  0
 43125  1  0  0  0
 44 45  1  0  0  0
 44126  1  0  0  0
 45 46  1  0  0  0
 45 48  1  0  0  0
 45127  1  0  0  0
 46 47  2  0  0  0
 46 53  1  0  0  0
 48 49  1  0  0  0
 48128  1  0  0  0
 48129  1  0  0  0
 49 50  1  0  0  0
 49130  1  0  0  0
 49131  1  0  0  0
 50 51  1  0  0  0
 50132  1  0  0  0
 50133  1  0  0  0
 51 52  1  0  0  0
 51134  1  0  0  0
 51135  1  0  0  0
 52136  1  0  0  0
 52137  1  0  0  0
 52138  1  0  0  0
 53 54  1  0  0  0
 53 59  1  0  0  0
 54 55  1  0  0  0
 54 57  1  0  0  0
 54139  1  0  0  0
 55 56  2  0  0  0
 55 60  1  0  0  0
 57 58  1  0  0  0
 57140  1  0  0  0
 57141  1  0  0  0
 58 59  1  0  0  0
 58142  1  0  0  0
 58143  1  0  0  0
 59144  1  0  0  0
 59145  1  0  0  0
 60 61  1  0  0  0
 60146  1  0  0  0
 61 62  1  0  0  0
 61 64  1  0  0  0
 61147  1  0  0  0
 62 63  2  0  0  0
 62 65  1  0  0  0
 64148  1  0  0  0
 64149  1  0  0  0
 64150  1  0  0  0
 65 66  1  0  0  0
 65151  1  0  0  0
 66 67  1  0  0  0
 66 69  1  0  0  0
 66152  1  0  0  0
 67 68  2  0  0  0
 67 70  1  0  0  0
 69153  1  0  0  0
 69154  1  0  0  0
 69155  1  0  0  0
 70 71  1  0  0  0
 70 76  1  0  0  0
 71 72  1  0  0  0
 71 74  1  0  0  0
 71156  1  0  0  0
 72 73  1  0  0  0
 72 77  2  0  0  0
 73157  1  0  0  0
 74 75  1  0  0  0
 74158  1  0  0  0
 74159  1  0  0  0
 75 76  1  0  0  0
 75160  1  0  0  0
 75161  1  0  0  0
 76162  1  0  0  0
 76163  1  0  0  0
M  CHG  2   1   1  52   1
M  END
> <s_m_source_file>
../4f14_ligand.sdf

> <i_m_source_file_index>
1

> <s_epik_input>
W0NIMl0xW0NIMl1bQ0gyXVtOSDIrXVtDQEBIXTFDKD1PKU4yW0NAQEhdKFtDSDJdW0NIMl1bQ0gyXTIpQyg9TylOM1tDQEBIXShbQ0gyXVtDSDJdW0NIMl0zKUMoPU8pW05IXVtDQEBIXShbQ0BIXShbT0hdKVtDSDNdKUMoPU8pW05IXVtDQEBIXShbQ0gyXVtDSF0oW0NIM10pW0NIM10pQyg9TylONFtDQEBIXShbQ0gyXVtDSDJdW0NIMl00KUMoPU8pW05IXVtDQEBIXShbQ0gyXVtDSDJdW0NIMl1bQ0gyXVtOSDMrXSlDKD1PKU41W0NAQEhdKFtDSDJdW0NIMl1bQ0gyXTUpQyg9TylbTkhdW0NAQEhdKFtDSDNdKUMoPU8pW05IXVtDQEBIXShbQ0gzXSlDKD1PKU42W0NASF0oQyg9TylbT0hdKVtDSDJdW0NIMl1bQ0gyXTY=

> <s_epik_cmdline>
J2VwaWtfYXBwJywgJy1pbWFlJywgJ2xpZ2FuZF9wcm8ubWFlJywgJy1vbWFlJywgJ2xpZ2FuZF9wcmVwLm1hZScsICctbXMnLCAnMScsICctcGgnLCAnNycsICctcGh0JywgJzAuNScsICctbnQn

> <s_epik_pKa_notes>
Molecule size exceeds maximum supported for generating protonation states

$$$$
