4f1q_ligand
                    3D
 Schrodinger Suite 2020-3.
 28 28  0  0  1  0            999 V2000
   38.9190   22.0640  -25.8630 O   0  0  0  0  0  0
   39.4130   21.1480  -25.1630 C   0  0  0  0  0  0
   40.3740   20.4540  -25.5860 O   0  5  0  0  0  0
   38.8280   20.8900  -23.7850 C   0  0  0  0  0  0
   39.3790   19.7620  -22.8790 C   0  0  0  0  0  0
   38.7670   19.5150  -21.4860 C   0  0  0  0  0  0
   39.2040   18.6350  -20.7400 O   0  0  0  0  0  0
   37.7890   20.3870  -21.1940 N   0  0  0  0  0  0
   37.0220   20.3120  -20.1160 C   0  0  0  0  0  0
   36.3220   21.4760  -19.8160 C   0  0  0  0  0  0
   36.7800   19.1510  -19.3710 C   0  0  0  0  0  0
   35.8790   19.1920  -18.3070 C   0  0  0  0  0  0
   35.2100   20.3730  -17.9930 C   0  0  0  0  0  0
   35.4320   21.5170  -18.7540 C   0  0  0  0  0  0
   34.7790   22.6880  -18.4550 C   0  0  0  0  0  0
   34.3950   22.9130  -17.3100 O   0  0  0  0  0  0
   34.5620   23.5020  -19.4810 N   0  0  0  0  0  0
   38.9398   21.7914  -23.1646 H   0  0  0  0  0  0
   37.7609   20.6406  -23.8805 H   0  0  0  0  0  0
   39.2684   18.7942  -23.3901 H   0  0  0  0  0  0
   40.4430   19.9466  -22.6697 H   0  0  0  0  0  0
   37.5835   21.2297  -21.8704 H   0  0  0  0  0  0
   36.4753   22.3676  -20.4240 H   0  0  0  0  0  0
   37.2922   18.2219  -19.6209 H   0  0  0  0  0  0
   35.6970   18.2937  -17.7170 H   0  0  0  0  0  0
   34.5148   20.4010  -17.1539 H   0  0  0  0  0  0
   34.9351   23.2375  -20.4814 H   0  0  0  0  0  0
   34.0091   24.4410  -19.3307 H   0  0  0  0  0  0
  1  2  2  0  0  0
  2  3  1  0  0  0
  2  4  1  0  0  0
  4  5  1  0  0  0
  4 18  1  0  0  0
  4 19  1  0  0  0
  5  6  1  0  0  0
  5 20  1  0  0  0
  5 21  1  0  0  0
  6  7  2  0  0  0
  6  8  1  0  0  0
  8  9  1  0  0  0
  8 22  1  0  0  0
  9 10  2  0  0  0
  9 11  1  0  0  0
 10 14  1  0  0  0
 10 23  1  0  0  0
 11 12  2  0  0  0
 11 24  1  0  0  0
 12 13  1  0  0  0
 12 25  1  0  0  0
 13 14  2  0  0  0
 13 26  1  0  0  0
 14 15  1  0  0  0
 15 16  2  0  0  0
 15 17  1  0  0  0
 17 27  1  0  0  0
 17 28  1  0  0  0
M  CHG  1   3  -1
M  END
> <s_m_source_file>
../4f1q_ligand.sdf

> <i_m_source_file_index>
1

> <s_epik_input>
Tz1DKFtPSF0pW0NIMl1bQ0gyXUMoPU8pW05IXWMxW2NIXWMoQyg9TylbTkgyXSlbY0hdW2NIXVtjSF0x

> <s_epik_cmdline>
J2VwaWtfYXBwJywgJy1pbWFlJywgJ2xpZ2FuZF9wcm8ubWFlJywgJy1vbWFlJywgJ2xpZ2FuZF9wcmVwLm1hZScsICctbXMnLCAnMScsICctcGgnLCAnNycsICctcGh0JywgJzAuNScsICctbnQn

> <r_lp_tautomer_probability>
1

> <r_epik_Ionization_Penalty>
  0.0044

> <r_epik_Ionization_Penalty_Charging>
  0.0043

> <r_epik_Ionization_Penalty_Neutral>
  0.0000

> <r_epik_State_Penalty>
 -0.0000

> <r_epik_Charging_Adjusted_Penalty>
0.00433598534199872

> <i_epik_Tot_Q>
-1

> <i_epik_Tot_abs_Q>
1

$$$$
