4f1s_ligand
                    3D
 Schrodinger Suite 2020-3.
 55 58  0  0  1  0            999 V2000
   27.6930   16.1280   18.7160 C   0  0  0  0  0  0
   27.3540   14.7220   17.6710 S   0  0  0  0  0  0
   28.2990   14.7050   16.5080 O   0  0  0  0  0  0
   25.9390   14.7830   17.1680 O   0  0  0  0  0  0
   27.5430   13.3310   18.4980 N   0  5  0  0  0  0
   27.1240   13.1940   19.7550 C   0  0  0  0  0  0
   25.8770   13.6650   20.1580 C   0  0  0  0  0  0
   27.9450   12.5520   20.6730 C   0  0  0  0  0  0
   29.4910   11.9420   20.1960 Cl  0  0  0  0  0  0
   27.5450   12.4010   21.9400 N   0  0  0  0  0  0
   26.3700   12.8480   22.3490 C   0  0  0  0  0  0
   25.4910   13.5040   21.4880 C   0  0  0  0  0  0
   24.3140   13.9310   21.9820 N   0  0  0  0  0  0
   23.5980   14.9560   21.4850 C   0  0  0  0  0  0
   24.1660   15.8090   20.6160 N   0  0  0  0  0  0
   23.5110   16.8260   20.0950 C   0  0  0  0  0  0
   22.1860   17.0640   20.4350 C   0  0  0  0  0  0
   21.4660   18.2700   19.8120 C   0  0  0  0  0  0
   19.9510   18.0300   19.6760 C   0  0  0  0  0  0
   19.2680   19.2950   19.1450 C   0  0  0  0  0  0
   19.5570   20.3240   20.1050 O   0  0  0  0  0  0
   20.9500   20.6770   20.0640 C   0  0  0  0  0  0
   21.7330   19.5150   20.6600 C   0  0  0  0  0  0
   21.5500   16.2220   21.3390 C   0  0  0  0  0  0
   22.2610   15.1500   21.8730 C   0  0  0  0  0  0
   21.6380   14.2890   22.7770 C   0  0  0  0  0  0
   20.3660   14.4700   23.1610 N   0  0  0  0  0  0
   22.3330   13.2570   23.2760 N   0  0  0  0  0  0
   21.7770   12.4040   24.1420 C   0  0  0  0  0  0
   22.6010   11.2410   24.6810 C   0  0  0  0  0  0
   20.5070   12.5830   24.5220 N   0  0  0  0  0  0
   19.8060   13.6180   24.0330 C   0  0  0  0  0  0
   18.5500   13.7880   24.4180 N   0  0  0  0  0  0
   27.5596   17.0547   18.1385 H   0  0  0  0  0  0
   28.7283   16.0707   19.0833 H   0  0  0  0  0  0
   27.0001   16.1254   19.5703 H   0  0  0  0  0  0
   25.2127   14.1522   19.4443 H   0  0  0  0  0  0
   26.0800   12.6995   23.3892 H   0  0  0  0  0  0
   23.8707   13.4316   22.8561 H   0  0  0  0  0  0
   24.0142   17.4875   19.3898 H   0  0  0  0  0  0
   21.8667   18.4225   18.7990 H   0  0  0  0  0  0
   19.7726   17.2004   18.9761 H   0  0  0  0  0  0
   19.5301   17.7764   20.6601 H   0  0  0  0  0  0
   19.6774   19.5447   18.1551 H   0  0  0  0  0  0
   18.1854   19.1192   19.0603 H   0  0  0  0  0  0
   21.2536   20.8510   19.0211 H   0  0  0  0  0  0
   21.1137   21.5927   20.6511 H   0  0  0  0  0  0
   21.4063   19.3312   21.6942 H   0  0  0  0  0  0
   22.8094   19.7413   20.6503 H   0  0  0  0  0  0
   20.5130   16.3973   21.6252 H   0  0  0  0  0  0
   23.6110   11.2749   24.2466 H   0  0  0  0  0  0
   22.1166   10.2915   24.4093 H   0  0  0  0  0  0
   22.6702   11.3172   25.7762 H   0  0  0  0  0  0
   17.9638   14.6319   24.0253 H   0  0  0  0  0  0
   18.0932   13.0853   25.1304 H   0  0  0  0  0  0
  1  2  1  0  0  0
  1 34  1  0  0  0
  1 35  1  0  0  0
  1 36  1  0  0  0
  2  3  2  0  0  0
  2  4  2  0  0  0
  2  5  1  0  0  0
  5  6  1  0  0  0
  6  7  2  0  0  0
  6  8  1  0  0  0
  7 12  1  0  0  0
  7 37  1  0  0  0
  8  9  1  0  0  0
  8 10  2  0  0  0
 10 11  1  0  0  0
 11 12  2  0  0  0
 11 38  1  0  0  0
 12 13  1  0  0  0
 13 14  1  0  0  0
 13 39  1  0  0  0
 14 15  2  0  0  0
 14 25  1  0  0  0
 15 16  1  0  0  0
 16 17  2  0  0  0
 16 40  1  0  0  0
 17 18  1  0  0  0
 17 24  1  0  0  0
 18 19  1  0  0  0
 18 23  1  0  0  0
 18 41  1  0  0  0
 19 20  1  0  0  0
 19 42  1  0  0  0
 19 43  1  0  0  0
 20 21  1  0  0  0
 20 44  1  0  0  0
 20 45  1  0  0  0
 21 22  1  0  0  0
 22 23  1  0  0  0
 22 46  1  0  0  0
 22 47  1  0  0  0
 23 48  1  0  0  0
 23 49  1  0  0  0
 24 25  2  0  0  0
 24 50  1  0  0  0
 25 26  1  0  0  0
 26 27  2  0  0  0
 26 28  1  0  0  0
 27 32  1  0  0  0
 28 29  2  0  0  0
 29 30  1  0  0  0
 29 31  1  0  0  0
 30 51  1  0  0  0
 30 52  1  0  0  0
 30 53  1  0  0  0
 31 32  2  0  0  0
 32 33  1  0  0  0
 33 54  1  0  0  0
 33 55  1  0  0  0
M  CHG  1   5  -1
M  END
> <s_m_source_file>
../4f1s_ligand.sdf

> <i_m_source_file_index>
1

> <s_epik_input>
W0NIM11TKD1PKSg9TylbTkhdYzFbY0hdYyhbY0hdbmMxQ2wpW05IXWMybltjSF1jKFtDSF0zW0NIMl1bQ0gyXU9bQ0gyXVtDSDJdMylbY0hdYzItYzRuYyhbTkgyXSluYyhuNClbQ0gzXQ==

> <s_epik_cmdline>
J2VwaWtfYXBwJywgJy1pbWFlJywgJ2xpZ2FuZF9wcm8ubWFlJywgJy1vbWFlJywgJ2xpZ2FuZF9wcmVwLm1hZScsICctbXMnLCAnMScsICctcGgnLCAnNycsICctcGh0JywgJzAuNScsICctbnQn

> <r_lp_tautomer_probability>
1

> <r_epik_Ionization_Penalty>
  0.1193

> <r_epik_Ionization_Penalty_Charging>
  0.0908

> <r_epik_Ionization_Penalty_Neutral>
  0.0285

> <r_epik_State_Penalty>
 -0.0000

> <r_epik_Charging_Adjusted_Penalty>
0.090805810152342

> <i_epik_Tot_Q>
-1

> <i_epik_Tot_abs_Q>
1

$$$$
