4f20_ligand
                    3D
 Schrodinger Suite 2020-3.
101100  0  0  1  0            999 V2000
   -9.4190   32.3390   -0.9470 N   0  3  0  0  0  0
  -10.7940   31.8890   -0.8570 C   0  0  0  0  0  0
  -11.0540   30.9470    0.3050 C   0  0  0  0  0  0
  -10.5600   29.8190    0.3300 O   0  0  0  0  0  0
  -11.8290   31.4170    1.2760 N   0  0  0  0  0  0
  -12.3020   30.5650    2.3620 C   0  0  2  0  0  0
  -13.6390   31.0880    2.8640 C   0  0  0  0  0  0
  -13.8730   32.2960    2.8830 O   0  0  0  0  0  0
  -11.2870   30.5070    3.5070 C   0  0  0  0  0  0
  -11.1690   31.7620    4.1550 O   0  0  0  0  0  0
  -14.5180   30.1810    3.2710 N   0  0  0  0  0  0
  -15.8600   30.5770    3.6730 C   0  0  2  0  0  0
  -16.3780   29.7580    4.8530 C   0  0  0  0  0  0
  -16.0420   28.5850    5.0030 O   0  0  0  0  0  0
  -16.8130   30.4630    2.4830 C   0  0  0  0  0  0
  -16.9190   29.1200    2.0430 O   0  0  0  0  0  0
  -17.2030   30.3820    5.6880 N   0  0  0  0  0  0
  -17.7310   29.7190    6.8660 C   0  0  0  0  0  0
  -19.2170   29.4280    6.7910 C   0  0  0  0  0  0
  -19.8660   29.6900    5.7760 O   0  0  0  0  0  0
  -19.7540   28.8780    7.8760 N   0  0  0  0  0  0
  -21.1780   28.5790    7.9730 C   0  0  2  0  0  0
  -21.6340   28.5750    9.4290 C   0  0  0  0  0  0
  -20.8970   28.1410   10.3150 O   0  0  0  0  0  0
  -21.4930   27.2320    7.3170 C   0  0  0  0  0  0
  -20.5240   26.2590    7.6660 O   0  0  0  0  0  0
  -22.8480   29.0660    9.6660 N   0  0  0  0  0  0
  -23.4130   29.1150   11.0020 C   0  0  0  0  0  0
  -24.9310   29.1580   10.9950 C   0  0  0  0  0  0
  -25.5570   29.1510    9.9360 O   0  0  0  0  0  0
  -25.5220   29.2040   12.1850 N   0  0  0  0  0  0
  -26.9750   29.2210   12.3270 C   0  0  2  0  0  0
  -27.4550   30.4770   13.0470 C   0  0  0  0  0  0
  -26.7440   31.0380   13.8790 O   0  0  0  0  0  0
  -27.4490   27.9800   13.0890 C   0  0  0  0  0  0
  -28.8420   28.0340   13.3470 O   0  0  0  0  0  0
  -28.6650   30.9170   12.7210 N   0  0  0  0  0  0
  -29.2690   32.0580   13.3960 C   0  0  2  0  0  0
  -30.4350   31.6400   14.2830 C   0  0  0  0  0  0
  -30.9070   32.4180   15.1110 O   0  0  0  0  0  0
  -29.7200   33.1170   12.3890 C   0  0  0  0  0  0
  -28.5550   33.8030   11.7070 C   0  0  0  0  0  0
  -27.4310   33.7890   12.2100 O   0  0  0  0  0  0
  -28.8180   34.4150   10.5570 N   0  0  0  0  0  0
  -30.8950   30.4070   14.1010 N   0  0  0  0  0  0
  -32.0240   29.8910   14.8530 C   0  0  0  0  0  0
  -33.3550   30.3770   14.3130 C   0  0  0  0  0  0
  -34.3050   29.6040   14.1860 O   0  0  0  0  0  0
  -33.4220   31.6670   13.9990 N   0  0  0  0  0  0
  -34.6140   32.2630   13.4110 C   0  0  2  0  0  0
  -34.3510   32.6850   11.9690 C   0  0  0  0  0  0
  -35.2217   33.3160   11.3124 O   0  0  0  0  0  0
  -35.0740   33.4660   14.2360 C   0  0  0  0  0  0
  -35.7890   33.0620   15.5100 C   0  0  0  0  0  0
  -35.8400   31.8500   15.8080 O   0  5  0  0  0  0
  -36.2980   33.9570   16.2170 O   0  0  0  0  0  0
  -33.2496   32.3991   11.4279 O   0  5  0  0  0  0
   -9.3098   33.0142   -1.8085 H   0  0  0  0  0  0
   -8.7566   31.4703   -1.0757 H   0  0  0  0  0  0
   -9.1472   32.8740   -0.0251 H   0  0  0  0  0  0
  -11.4564   32.7577   -0.7283 H   0  0  0  0  0  0
  -11.0658   31.3540   -1.7789 H   0  0  0  0  0  0
  -12.1132   32.4792    1.2466 H   0  0  0  0  0  0
  -12.4174   29.5586    1.9333 H   0  0  0  0  0  0
  -11.6112   29.7604    4.2469 H   0  0  0  0  0  0
  -10.3011   30.2247    3.1091 H   0  0  0  0  0  0
  -10.4763   31.8811    5.0012 H   0  0  0  0  0  0
  -14.2245   29.1214    3.3029 H   0  0  0  0  0  0
  -15.7585   31.6232    3.9973 H   0  0  0  0  0  0
  -17.8118   30.8171    2.7779 H   0  0  0  0  0  0
  -16.4368   31.0775    1.6518 H   0  0  0  0  0  0
  -17.5690   28.8699    1.1915 H   0  0  0  0  0  0
  -17.4839   31.4230    5.4704 H   0  0  0  0  0  0
  -17.2169   28.7567    7.0065 H   0  0  0  0  0  0
  -17.5673   30.3545    7.7488 H   0  0  0  0  0  0
  -19.0851   28.6481    8.7185 H   0  0  0  0  0  0
  -21.6825   29.3917    7.4299 H   0  0  0  0  0  0
  -22.4806   26.8828    7.6526 H   0  0  0  0  0  0
  -21.4977   27.3490    6.2232 H   0  0  0  0  0  0
  -20.6075   25.2345    7.2744 H   0  0  0  0  0  0
  -23.4271   29.4422    8.8098 H   0  0  0  0  0  0
  -23.1038   28.2213   11.5638 H   0  0  0  0  0  0
  -23.0528   30.0163   11.5196 H   0  0  0  0  0  0
  -24.8817   29.2295   13.0791 H   0  0  0  0  0  0
  -27.3589   29.2225   11.2962 H   0  0  0  0  0  0
  -27.2386   27.0805   12.4918 H   0  0  0  0  0  0
  -26.9177   27.9146   14.0500 H   0  0  0  0  0  0
  -29.3334   27.2120   13.8882 H   0  0  0  0  0  0
  -29.2129   30.3983   11.9206 H   0  0  0  0  0  0
  -28.4623   32.4562   14.0291 H   0  0  0  0  0  0
  -30.3368   32.6438   11.6107 H   0  0  0  0  0  0
  -30.3104   33.8874   12.9067 H   0  0  0  0  0  0
  -29.8386   34.4002   10.1469 H   0  0  0  0  0  0
  -28.0151   34.9363   10.0152 H   0  0  0  0  0  0
  -30.3945   29.7720   13.3552 H   0  0  0  0  0  0
  -32.0225   28.7919   14.8087 H   0  0  0  0  0  0
  -31.9458   30.2158   15.9010 H   0  0  0  0  0  0
  -32.5368   32.2891   14.1976 H   0  0  0  0  0  0
  -35.3785   31.4724   13.4333 H   0  0  0  0  0  0
  -34.2009   34.0730   14.5175 H   0  0  0  0  0  0
  -35.7678   34.0763   13.6391 H   0  0  0  0  0  0
  1  2  1  0  0  0
  1 58  1  0  0  0
  1 59  1  0  0  0
  1 60  1  0  0  0
  2  3  1  0  0  0
  2 61  1  0  0  0
  2 62  1  0  0  0
  3  4  2  0  0  0
  3  5  1  0  0  0
  5  6  1  0  0  0
  5 63  1  0  0  0
  6  7  1  0  0  0
  6  9  1  0  0  0
  6 64  1  0  0  0
  7  8  2  0  0  0
  7 11  1  0  0  0
  9 10  1  0  0  0
  9 65  1  0  0  0
  9 66  1  0  0  0
 10 67  1  0  0  0
 11 12  1  0  0  0
 11 68  1  0  0  0
 12 13  1  0  0  0
 12 15  1  0  0  0
 12 69  1  0  0  0
 13 14  2  0  0  0
 13 17  1  0  0  0
 15 16  1  0  0  0
 15 70  1  0  0  0
 15 71  1  0  0  0
 16 72  1  0  0  0
 17 18  1  0  0  0
 17 73  1  0  0  0
 18 19  1  0  0  0
 18 74  1  0  0  0
 18 75  1  0  0  0
 19 20  2  0  0  0
 19 21  1  0  0  0
 21 22  1  0  0  0
 21 76  1  0  0  0
 22 23  1  0  0  0
 22 25  1  0  0  0
 22 77  1  0  0  0
 23 24  2  0  0  0
 23 27  1  0  0  0
 25 26  1  0  0  0
 25 78  1  0  0  0
 25 79  1  0  0  0
 26 80  1  0  0  0
 27 28  1  0  0  0
 27 81  1  0  0  0
 28 29  1  0  0  0
 28 82  1  0  0  0
 28 83  1  0  0  0
 29 30  2  0  0  0
 29 31  1  0  0  0
 31 32  1  0  0  0
 31 84  1  0  0  0
 32 33  1  0  0  0
 32 35  1  0  0  0
 32 85  1  0  0  0
 33 34  2  0  0  0
 33 37  1  0  0  0
 35 36  1  0  0  0
 35 86  1  0  0  0
 35 87  1  0  0  0
 36 88  1  0  0  0
 37 38  1  0  0  0
 37 89  1  0  0  0
 38 39  1  0  0  0
 38 41  1  0  0  0
 38 90  1  0  0  0
 39 40  2  0  0  0
 39 45  1  0  0  0
 41 42  1  0  0  0
 41 91  1  0  0  0
 41 92  1  0  0  0
 42 43  2  0  0  0
 42 44  1  0  0  0
 44 93  1  0  0  0
 44 94  1  0  0  0
 45 46  1  0  0  0
 45 95  1  0  0  0
 46 47  1  0  0  0
 46 96  1  0  0  0
 46 97  1  0  0  0
 47 48  2  0  0  0
 47 49  1  0  0  0
 49 50  1  0  0  0
 49 98  1  0  0  0
 50 51  1  0  0  0
 50 53  1  0  0  0
 50 99  1  0  0  0
 51 52  2  0  0  0
 51 57  1  0  0  0
 53 54  1  0  0  0
 53100  1  0  0  0
 53101  1  0  0  0
 54 55  1  0  0  0
 54 56  2  0  0  0
M  CHG  3   1   1  55  -1  57  -1
M  END
> <s_m_source_file>
../4f20_ligand.sdf

> <i_m_source_file_index>
1

> <s_epik_input>
W05IMytdW0NIMl1DKD1PKVtOSF1bQ0BASF0oW0NIMl1bT0hdKUMoPU8pW05IXVtDQEBIXShbQ0gyXVtPSF0pQyg9TylbTkhdW0NIMl1DKD1PKVtOSF1bQ0BASF0oW0NIMl1bT0hdKUMoPU8pW05IXVtDSDJdQyg9TylbTkhdW0NAQEhdKFtDSDJdW09IXSlDKD1PKVtOSF1bQ0BASF0oW0NIMl1DKD1PKVtOSDJdKUMoPU8pW05IXVtDSDJdQyg9TylbTkhdW0NASF0oQyg9TylbT0hdKVtDSDJdQyg9TylbT0hd

> <s_epik_cmdline>
J2VwaWtfYXBwJywgJy1pbWFlJywgJ2xpZ2FuZF9wcm8ubWFlJywgJy1vbWFlJywgJ2xpZ2FuZF9wcmVwLm1hZScsICctbXMnLCAnMScsICctcGgnLCAnNycsICctcGh0JywgJzAuNScsICctbnQn

> <r_epik_Ionization_Penalty>
  0.1361

> <r_epik_Ionization_Penalty_Charging>
  0.1360

> <r_epik_Ionization_Penalty_Neutral>
  0.0000

> <r_epik_State_Penalty>
  0.1240

> <r_epik_Charging_Adjusted_Penalty>
0.260063613417363

> <i_epik_Tot_Q>
-1

> <i_epik_Tot_abs_Q>
3

$$$$
