4f39_ligand
                    3D
 Schrodinger Suite 2020-3.
 29 29  0  0  1  0            999 V2000
    2.7220   23.7450   13.7900 N   0  3  0  0  0  0
    2.5790   22.4810   14.5790 C   0  0  0  0  0  0
    1.3770   20.9790   16.7820 C   0  0  0  0  0  0
    2.3790   22.3430   18.5290 C   0  0  0  0  0  0
    3.0850   24.8210   14.8010 C   0  0  1  0  0  0
    2.4100   24.2500   16.0940 C   0  0  1  0  0  0
    0.8840   24.4420   16.2600 C   0  0  0  0  0  0
    2.8590   22.7980   16.0220 C   0  0  1  0  0  0
    0.3130   25.8270   16.5500 C   0  0  0  0  0  0
    2.1640   22.0400   17.0960 C   0  0  0  0  0  0
    4.5990   25.0510   14.8960 C   0  0  0  0  0  0
    5.3380   24.6940   14.0130 O   0  0  0  0  0  0
   -0.9040   26.0590   16.5820 O   0  0  0  0  0  0
    1.2240   26.6640   17.1590 O   0  5  0  0  0  0
    4.9800   25.9430   15.8690 O   0  5  0  0  0  0
    3.5140   23.6196   13.0370 H   0  0  0  0  0  0
    1.7707   23.9729   13.2870 H   0  0  0  0  0  0
    1.5558   22.0930   14.4675 H   0  0  0  0  0  0
    3.2967   21.7343   14.2085 H   0  0  0  0  0  0
    0.8640   20.4200   17.5784 H   0  0  0  0  0  0
    1.2525   20.6785   15.7312 H   0  0  0  0  0  0
    1.7685   21.6644   19.1428 H   0  0  0  0  0  0
    2.0864   23.3838   18.7316 H   0  0  0  0  0  0
    3.4418   22.2059   18.7773 H   0  0  0  0  0  0
    2.7454   25.8321   14.5320 H   0  0  0  0  0  0
    2.7171   24.7763   17.0098 H   0  0  0  0  0  0
    0.3730   24.1336   15.3360 H   0  0  0  0  0  0
    0.5263   23.8276   17.0994 H   0  0  0  0  0  0
    3.9014   22.5220   16.2394 H   0  0  0  0  0  0
  1  2  1  0  0  0
  1  5  1  0  0  0
  1 16  1  0  0  0
  1 17  1  0  0  0
  2  8  1  0  0  0
  2 18  1  0  0  0
  2 19  1  0  0  0
  3 10  2  0  0  0
  3 20  1  0  0  0
  3 21  1  0  0  0
  4 10  1  0  0  0
  4 22  1  0  0  0
  4 23  1  0  0  0
  4 24  1  0  0  0
  5  6  1  0  0  0
  5 11  1  0  0  0
  5 25  1  0  0  0
  6  7  1  0  0  0
  6  8  1  0  0  0
  6 26  1  0  0  0
  7  9  1  0  0  0
  7 27  1  0  0  0
  7 28  1  0  0  0
  8 10  1  0  0  0
  8 29  1  0  0  0
  9 13  2  0  0  0
  9 14  1  0  0  0
 11 12  2  0  0  0
 11 15  1  0  0  0
M  CHG  3   1   1  14  -1  15  -1
M  END
> <s_m_source_file>
../4f39_ligand.sdf

> <i_m_source_file_index>
1

> <s_epik_input>
Tz1DKFtPSF0pW0NASF0xW05IMitdW0NIMl1bQ0BIXShDKD1bQ0gyXSlbQ0gzXSlbQ0BASF0xW0NIMl1DKD1PKVtPSF0=

> <s_epik_cmdline>
J2VwaWtfYXBwJywgJy1pbWFlJywgJ2xpZ2FuZF9wcm8ubWFlJywgJy1vbWFlJywgJ2xpZ2FuZF9wcmVwLm1hZScsICctbXMnLCAnMScsICctcGgnLCAnNycsICctcGh0JywgJzAuNScsICctbnQn

> <r_lp_tautomer_probability>
1

> <r_epik_Ionization_Penalty>
  0.0030

> <r_epik_Ionization_Penalty_Charging>
  0.0030

> <r_epik_Ionization_Penalty_Neutral>
  0.0000

> <r_epik_State_Penalty>
 -0.0000

> <r_epik_Charging_Adjusted_Penalty>
0.00304691195441348

> <i_epik_Tot_Q>
-1

> <i_epik_Tot_abs_Q>
3

$$$$
