4f3i_ligand
                    3D
 Schrodinger Suite 2020-3.
 47 50  0  0  1  0            999 V2000
   30.0780   48.6070   -6.8350 Cl  0  0  0  0  0  0
   29.0620   49.3100   -5.5850 C   0  0  0  0  0  0
   29.2980   48.9730   -4.2560 C   0  0  0  0  0  0
   28.4950   49.5700   -3.2990 C   0  0  0  0  0  0
   28.0650   50.1620   -5.9820 C   0  0  0  0  0  0
   27.2380   50.7460   -4.9910 C   0  0  0  0  0  0
   27.4570   50.4280   -3.6580 C   0  0  0  0  0  0
   26.5330   50.9910   -2.6140 C   0  0  0  0  0  0
   27.0840   51.0760   -1.2410 C   0  0  0  0  0  0
   28.3570   51.6390   -0.9240 C   0  0  0  0  0  0
   29.2960   52.3370   -1.8280 C   0  0  0  0  0  0
   28.6690   51.5130    0.4560 C   0  0  0  0  0  0
   29.9260   51.8780    1.2240 C   0  0  0  0  0  0
   27.3520   50.7640    1.3280 S   0  0  0  0  0  0
   26.5040   50.5950   -0.1490 C   0  0  0  0  0  0
   25.1640   50.0220   -0.1550 N   0  0  0  0  0  0
   24.6130   48.9560    0.6150 C   0  0  0  0  0  0
   25.3670   48.1070    1.5930 C   0  0  0  0  0  0
   23.2960   48.8830    0.3010 N   0  0  0  0  0  0
   22.9960   49.8580   -0.6460 N   0  0  0  0  0  0
   24.1120   50.5510   -0.8840 C   0  0  0  0  0  0
   25.2590   51.0700   -2.8930 N   0  0  0  0  0  0
   24.3770   51.6530   -1.8660 C   0  0  1  0  0  0
   23.0760   52.0490   -2.4700 C   0  0  0  0  0  0
   23.3210   53.2020   -3.4120 C   0  0  0  0  0  0
   24.2910   53.9370   -3.4370 O   0  0  0  0  0  0
   22.2190   53.4940   -4.2050 O   0  0  0  0  0  0
   22.3100   54.6030   -5.1170 C   0  0  0  0  0  0
   30.0824   48.2684   -3.9797 H   0  0  0  0  0  0
   28.6782   49.3650   -2.2443 H   0  0  0  0  0  0
   27.9115   50.3857   -7.0377 H   0  0  0  0  0  0
   26.4413   51.4350   -5.2714 H   0  0  0  0  0  0
   28.8898   52.3361   -2.8503 H   0  0  0  0  0  0
   30.2668   51.8198   -1.8187 H   0  0  0  0  0  0
   29.4300   53.3744   -1.4876 H   0  0  0  0  0  0
   30.6542   52.3365    0.5388 H   0  0  0  0  0  0
   30.3611   50.9704    1.6677 H   0  0  0  0  0  0
   29.6738   52.5917    2.0222 H   0  0  0  0  0  0
   26.4209   48.4212    1.6151 H   0  0  0  0  0  0
   25.3052   47.0523    1.2869 H   0  0  0  0  0  0
   24.9283   48.2244    2.5949 H   0  0  0  0  0  0
   24.8481   52.5408   -1.4190 H   0  0  0  0  0  0
   22.6527   51.1960   -3.0206 H   0  0  0  0  0  0
   22.3800   52.3537   -1.6745 H   0  0  0  0  0  0
   21.3633   54.7031   -5.6682 H   0  0  0  0  0  0
   23.1311   54.4270   -5.8275 H   0  0  0  0  0  0
   22.5051   55.5268   -4.5526 H   0  0  0  0  0  0
  1  2  1  0  0  0
  2  3  2  0  0  0
  2  5  1  0  0  0
  3  4  1  0  0  0
  3 29  1  0  0  0
  4  7  2  0  0  0
  4 30  1  0  0  0
  5  6  2  0  0  0
  5 31  1  0  0  0
  6  7  1  0  0  0
  6 32  1  0  0  0
  7  8  1  0  0  0
  8  9  1  0  0  0
  8 22  2  0  0  0
  9 10  1  0  0  0
  9 15  2  0  0  0
 10 11  1  0  0  0
 10 12  2  0  0  0
 11 33  1  0  0  0
 11 34  1  0  0  0
 11 35  1  0  0  0
 12 13  1  0  0  0
 12 14  1  0  0  0
 13 36  1  0  0  0
 13 37  1  0  0  0
 13 38  1  0  0  0
 14 15  1  0  0  0
 15 16  1  0  0  0
 16 17  1  0  0  0
 16 21  1  0  0  0
 17 18  1  0  0  0
 17 19  2  0  0  0
 18 39  1  0  0  0
 18 40  1  0  0  0
 18 41  1  0  0  0
 19 20  1  0  0  0
 20 21  2  0  0  0
 21 23  1  0  0  0
 22 23  1  0  0  0
 23 24  1  0  0  0
 23 42  1  0  0  0
 24 25  1  0  0  0
 24 43  1  0  0  0
 24 44  1  0  0  0
 25 26  2  0  0  0
 25 27  1  0  0  0
 27 28  1  0  0  0
 28 45  1  0  0  0
 28 46  1  0  0  0
 28 47  1  0  0  0
M  END
> <s_m_source_file>
../4f3i_ligand.sdf

> <i_m_source_file_index>
1

> <s_epik_input>
Q2xjMVtjSF1bY0hdYyhbY0hdW2NIXTEpQzI9TltDQEBIXShbQ0gyXUMoPU8pT1tDSDNdKWMobm5jM1tDSDNdKW4zYyhjMjQpc2MoW0NIM10pYzRbQ0gzXQ==

> <s_epik_cmdline>
J2VwaWtfYXBwJywgJy1pbWFlJywgJ2xpZ2FuZF9wcm8ubWFlJywgJy1vbWFlJywgJ2xpZ2FuZF9wcmVwLm1hZScsICctbXMnLCAnMScsICctcGgnLCAnNycsICctcGh0JywgJzAuNScsICctbnQn

> <r_lp_tautomer_probability>
1

> <r_epik_Ionization_Penalty>
  0.0013

> <r_epik_Ionization_Penalty_Charging>
  0.0000

> <r_epik_Ionization_Penalty_Neutral>
  0.0013

> <r_epik_State_Penalty>
 -0.0000

> <r_epik_Charging_Adjusted_Penalty>
0

> <i_epik_Tot_Q>
0

> <i_epik_Tot_abs_Q>
0

> <s_epik_Chemistry_Notes>
This compound has an ester and may undergo hydrolysis at high or low pH. This compound has an imine and may undergo hydrolysis.

$$$$
