4f3k_ligand
                    3D
 Schrodinger Suite 2020-3.
 51 53  0  0  1  0            999 V2000
   -1.6840   -6.7930   16.0390 O   0  5  0  0  0  0
   -2.8460   -6.7580   16.5070 C   0  0  0  0  0  0
   -3.8060   -7.4160   16.0870 O   0  0  0  0  0  0
   -3.1130   -5.8920   17.7330 C   0  0  1  0  0  0
   -1.9090   -5.8060   18.5590 N   0  3  0  0  0  0
   -3.5540   -4.5290   17.2570 C   0  0  0  0  0  0
   -4.2280   -3.8950   18.4370 C   0  0  0  0  0  0
   -4.9660   -2.2780   17.9110 S   0  0  0  0  0  0
   -4.8410   -1.3200   19.4420 C   0  0  0  0  0  0
   -6.0430   -1.6730   20.3650 C   0  0  1  0  0  0
   -5.8660   -0.9630   21.6800 C   0  0  0  0  0  0
   -7.3620   -1.1660   19.8550 C   0  0  1  0  0  0
   -8.4560   -1.9370   20.4350 O   0  0  0  0  0  0
   -7.4470    0.3130   20.3160 C   0  0  0  0  0  0
   -6.9610    0.0720   21.7130 N   0  3  2  0  0  0
   -6.6280    1.2090   22.5340 C   0  0  0  0  0  0
   -5.3410    2.0510   22.1410 C   0  0  0  0  0  0
   -4.2050    2.0850   22.8570 C   0  0  0  0  0  0
   -3.3600    2.8940   22.2420 N   0  3  0  0  0  0
   -3.9520    3.4340   21.1540 C   0  0  0  0  0  0
   -5.2020    2.8890   21.0970 C   0  0  0  0  0  0
   -6.0490    3.2140   20.0910 N   0  0  0  0  0  0
   -5.6320    4.1150   19.1010 C   0  0  0  0  0  0
   -4.3510    4.6430   19.1540 N   0  0  0  0  0  0
   -3.5530    4.3130   20.1890 C   0  0  0  0  0  0
   -2.3140    4.8520   20.2260 N   0  0  0  0  0  0
   -3.8825   -6.3275   18.3874 H   0  0  0  0  0  0
   -1.6169   -6.8144   18.8874 H   0  0  0  0  0  0
   -2.1122   -5.1782   19.4391 H   0  0  0  0  0  0
   -1.0924   -5.3607   17.9716 H   0  0  0  0  0  0
   -2.6751   -3.9506   16.9363 H   0  0  0  0  0  0
   -4.2470   -4.6428   16.4103 H   0  0  0  0  0  0
   -5.0202   -4.5616   18.8086 H   0  0  0  0  0  0
   -3.4888   -3.7244   19.2336 H   0  0  0  0  0  0
   -3.8983   -1.5662   19.9526 H   0  0  0  0  0  0
   -4.8600   -0.2460   19.2051 H   0  0  0  0  0  0
   -6.0849   -2.7691   20.4474 H   0  0  0  0  0  0
   -5.9649   -1.6859   22.5032 H   0  0  0  0  0  0
   -4.8685   -0.5008   21.7158 H   0  0  0  0  0  0
   -7.4601   -1.3068   18.7685 H   0  0  0  0  0  0
   -8.5506   -3.0102   20.2131 H   0  0  0  0  0  0
   -6.7934    0.9322   19.6840 H   0  0  0  0  0  0
   -8.4850    0.6659   20.2265 H   0  0  0  0  0  0
   -7.4598    1.9287   22.5184 H   0  0  0  0  0  0
   -6.4507    0.8759   23.5672 H   0  0  0  0  0  0
   -4.1191    1.4938   23.7806 H   0  0  0  0  0  0
   -6.3098    4.3983   18.2957 H   0  0  0  0  0  0
   -1.6324    4.6076   21.0541 H   0  0  0  0  0  0
   -1.9873    5.5350   19.4280 H   0  0  0  0  0  0
   -2.3451    3.0362   22.6416 H   0  0  0  0  0  0
   -7.8444   -0.2497   22.2841 H   0  0  0  0  0  0
  1  2  1  0  0  0
  2  3  2  0  0  0
  2  4  1  0  0  0
  4  5  1  0  0  0
  4  6  1  0  0  0
  4 27  1  0  0  0
  5 28  1  0  0  0
  5 29  1  0  0  0
  5 30  1  0  0  0
  6  7  1  0  0  0
  6 31  1  0  0  0
  6 32  1  0  0  0
  7  8  1  0  0  0
  7 33  1  0  0  0
  7 34  1  0  0  0
  8  9  1  0  0  0
  9 10  1  0  0  0
  9 35  1  0  0  0
  9 36  1  0  0  0
 10 11  1  0  0  0
 10 12  1  0  0  0
 10 37  1  0  0  0
 11 15  1  0  0  0
 11 38  1  0  0  0
 11 39  1  0  0  0
 12 13  1  0  0  0
 12 14  1  0  0  0
 12 40  1  0  0  0
 13 41  1  0  0  0
 14 15  1  0  0  0
 14 42  1  0  0  0
 14 43  1  0  0  0
 15 16  1  0  0  0
 15 51  1  0  0  0
 16 17  1  0  0  0
 16 44  1  0  0  0
 16 45  1  0  0  0
 17 18  2  0  0  0
 17 21  1  0  0  0
 18 19  1  0  0  0
 18 46  1  0  0  0
 19 20  1  0  0  0
 19 50  1  0  0  0
 20 21  2  0  0  0
 20 25  1  0  0  0
 21 22  1  0  0  0
 22 23  2  0  0  0
 23 24  1  0  0  0
 23 47  1  0  0  0
 24 25  2  0  0  0
 25 26  1  0  0  0
 26 48  1  0  0  0
 26 49  1  0  0  0
M  CHG  4   1  -1   5   1  15   1  19   1
M  END
> <s_m_source_file>
../4f3k_ligand.sdf

> <i_m_source_file_index>
1

> <s_epik_input>
W09IXUMoPU8pW0NAQEhdKFtOSDMrXSlbQ0gyXVtDSDJdU1tDSDJdW0NASF0xW0NIMl1bTkBIK10oW0NIMl1bQ0BASF0xW09IXSlbQ0gyXWMoW2NIXVtuSF0yKWMoYzIzKW5bY0hdbmMzW05IMl0=

> <s_epik_cmdline>
J2VwaWtfYXBwJywgJy1pbWFlJywgJ2xpZ2FuZF9wcm8ubWFlJywgJy1vbWFlJywgJ2xpZ2FuZF9wcmVwLm1hZScsICctbXMnLCAnMScsICctcGgnLCAnNycsICctcGh0JywgJzAuNScsICctbnQn

> <r_lp_tautomer_probability>
1

> <r_epik_Ionization_Penalty>
  0.9384

> <r_epik_Ionization_Penalty_Charging>
  0.9362

> <r_epik_Ionization_Penalty_Neutral>
  0.0021

> <r_epik_State_Penalty>
 -0.0000

> <r_epik_Charging_Adjusted_Penalty>
0.936229844337437

> <i_epik_Tot_Q>
2

> <i_epik_Tot_abs_Q>
4

$$$$
