4f49_ligand
                    3D
 Schrodinger Suite 2020-3.
 60 61  0  0  1  0            999 V2000
   10.6750   -9.3240   16.4340 C   0  0  0  0  0  0
   11.4370   -9.1760   17.6340 O   0  0  0  0  0  0
   12.0540   -7.8750   17.9060 C   0  0  0  0  0  0
   11.9400   -6.9830   17.0730 O   0  0  0  0  0  0
   11.4980  -10.0130   15.3680 C   0  0  0  0  0  0
   12.7700  -10.4810   15.6590 C   0  0  0  0  0  0
   13.5200  -11.1140   14.6800 C   0  0  0  0  0  0
   13.0040  -11.2610   13.4020 C   0  0  0  0  0  0
   11.7320  -10.7860   13.1010 C   0  0  0  0  0  0
   10.9830  -10.1650   14.0920 C   0  0  0  0  0  0
   12.7660   -7.6280   19.0620 N   0  0  0  0  0  0
   13.5880   -6.3940   19.1540 C   0  0  2  0  0  0
   14.6940   -6.4620   18.1380 C   0  0  0  0  0  0
   15.2810   -7.5140   17.9250 O   0  0  0  0  0  0
   14.1330   -6.2280   20.5700 C   0  0  0  0  0  0
   13.1330   -5.4940   21.4750 C   0  0  0  0  0  0
   11.7110   -5.9970   21.2530 C   0  0  0  0  0  0
   13.5090   -5.6130   22.9530 C   0  0  0  0  0  0
   15.0130   -5.3500   17.3880 N   0  0  0  0  0  0
   16.1240   -5.4470   16.4100 C   0  0  2  0  0  0
   17.2540   -4.5050   16.8460 C   0  0  0  0  0  0
   18.2570   -4.3620   15.8120 O   0  0  0  0  0  0
   15.6220   -5.1480   14.9860 C   0  0  0  0  0  0
   14.5660   -6.1660   14.5560 C   0  0  2  0  0  0
   15.2610   -7.4740   14.2110 C   0  0  0  0  0  0
   14.7310   -7.9070   12.8440 C   0  0  0  0  0  0
   13.8810   -6.8130   12.3170 N   0  0  0  0  0  0
   13.8520   -5.8260   13.2770 C   0  0  0  0  0  0
   13.2400   -4.7700   13.0920 O   0  0  0  0  0  0
    9.7791   -9.9278   16.6407 H   0  0  0  0  0  0
   10.3721   -8.3321   16.0673 H   0  0  0  0  0  0
   13.1814  -10.3509   16.6600 H   0  0  0  0  0  0
   14.5137  -11.4954   14.9148 H   0  0  0  0  0  0
   13.5974  -11.7508   12.6299 H   0  0  0  0  0  0
   11.3263  -10.9002   12.0958 H   0  0  0  0  0  0
    9.9835   -9.7950   13.8637 H   0  0  0  0  0  0
   12.7309   -8.3299   19.9083 H   0  0  0  0  0  0
   12.9546   -5.5260   18.9187 H   0  0  0  0  0  0
   14.3335   -7.2186   21.0042 H   0  0  0  0  0  0
   15.0659   -5.6460   20.5380 H   0  0  0  0  0  0
   13.1691   -4.4297   21.1995 H   0  0  0  0  0  0
   11.4522   -5.9066   20.1877 H   0  0  0  0  0  0
   11.0116   -5.3958   21.8526 H   0  0  0  0  0  0
   11.6432   -7.0515   21.5586 H   0  0  0  0  0  0
   14.5359   -5.2475   23.1007 H   0  0  0  0  0  0
   13.4465   -6.6664   23.2636 H   0  0  0  0  0  0
   12.8149   -5.0107   23.5575 H   0  0  0  0  0  0
   14.4626   -4.4046   17.5031 H   0  0  0  0  0  0
   16.4975   -6.4816   16.4177 H   0  0  0  0  0  0
   16.8381   -3.5108   17.0662 H   0  0  0  0  0  0
   17.7394   -4.9072   17.7474 H   0  0  0  0  0  0
   19.1314   -3.7159   15.9795 H   0  0  0  0  0  0
   15.1766   -4.1426   14.9578 H   0  0  0  0  0  0
   16.4661   -5.1949   14.2822 H   0  0  0  0  0  0
   13.8451   -6.2008   15.3861 H   0  0  0  0  0  0
   16.3486   -7.3131   14.1756 H   0  0  0  0  0  0
   15.0266   -8.2271   14.9777 H   0  0  0  0  0  0
   15.5763   -8.0929   12.1651 H   0  0  0  0  0  0
   14.1403   -8.8283   12.9548 H   0  0  0  0  0  0
   13.4191   -6.9056   11.3230 H   0  0  0  0  0  0
  1  2  1  0  0  0
  1  5  1  0  0  0
  1 30  1  0  0  0
  1 31  1  0  0  0
  2  3  1  0  0  0
  3  4  2  0  0  0
  3 11  1  0  0  0
  5  6  2  0  0  0
  5 10  1  0  0  0
  6  7  1  0  0  0
  6 32  1  0  0  0
  7  8  2  0  0  0
  7 33  1  0  0  0
  8  9  1  0  0  0
  8 34  1  0  0  0
  9 10  2  0  0  0
  9 35  1  0  0  0
 10 36  1  0  0  0
 11 12  1  0  0  0
 11 37  1  0  0  0
 12 13  1  0  0  0
 12 15  1  0  0  0
 12 38  1  0  0  0
 13 14  2  0  0  0
 13 19  1  0  0  0
 15 16  1  0  0  0
 15 39  1  0  0  0
 15 40  1  0  0  0
 16 17  1  0  0  0
 16 18  1  0  0  0
 16 41  1  0  0  0
 17 42  1  0  0  0
 17 43  1  0  0  0
 17 44  1  0  0  0
 18 45  1  0  0  0
 18 46  1  0  0  0
 18 47  1  0  0  0
 19 20  1  0  0  0
 19 48  1  0  0  0
 20 21  1  0  0  0
 20 23  1  0  0  0
 20 49  1  0  0  0
 21 22  1  0  0  0
 21 50  1  0  0  0
 21 51  1  0  0  0
 22 52  1  0  0  0
 23 24  1  0  0  0
 23 53  1  0  0  0
 23 54  1  0  0  0
 24 25  1  0  0  0
 24 28  1  0  0  0
 24 55  1  0  0  0
 25 26  1  0  0  0
 25 56  1  0  0  0
 25 57  1  0  0  0
 26 27  1  0  0  0
 26 58  1  0  0  0
 26 59  1  0  0  0
 27 28  1  0  0  0
 27 60  1  0  0  0
 28 29  2  0  0  0
M  END
> <s_m_source_file>
../4f49_ligand.sdf

> <i_m_source_file_index>
1

> <s_epik_input>
W2NIXTFbY0hdW2NIXVtjSF1bY0hdYzFbQ0gyXU9DKD1PKVtOSF1bQ0BASF0oW0NIMl1bQ0hdKFtDSDNdKVtDSDNdKUMoPU8pW05IXVtDQEhdKFtDSDJdW09IXSlbQ0gyXVtDQEBIXTJbQ0gyXVtDSDJdW05IXUMyPU8=

> <s_epik_cmdline>
J2VwaWtfYXBwJywgJy1pbWFlJywgJ2xpZ2FuZF9wcm8ubWFlJywgJy1vbWFlJywgJ2xpZ2FuZF9wcmVwLm1hZScsICctbXMnLCAnMScsICctcGgnLCAnNycsICctcGh0JywgJzAuNScsICctbnQn

> <r_lp_tautomer_probability>
1

> <r_epik_Ionization_Penalty>
  0.0000

> <r_epik_Ionization_Penalty_Charging>
  0.0000

> <r_epik_Ionization_Penalty_Neutral>
  0.0000

> <r_epik_State_Penalty>
 -0.0000

> <r_epik_Charging_Adjusted_Penalty>
0

> <i_epik_Tot_Q>
0

> <i_epik_Tot_abs_Q>
0

> <s_epik_Chemistry_Notes>
This compound has an ester and may undergo hydrolysis at high or low pH.

$$$$
