4f4p_ligand
                    3D
 Schrodinger Suite 2020-3.
 50 53  0  0  1  0            999 V2000
   -0.1400    2.6730   12.3210 C   0  0  0  0  0  0
    0.1300    1.5660   13.1000 C   0  0  0  0  0  0
   -1.1800    2.5980   11.3950 C   0  0  0  0  0  0
   -0.5810    0.3910   12.9650 C   0  0  0  0  0  0
   -1.9190    1.4310   11.2650 C   0  0  0  0  0  0
   -1.6340    0.3320   12.0580 C   0  0  0  0  0  0
   -0.2130   -0.6830   13.9070 C   0  0  0  0  0  0
   -0.7800   -2.5740   15.2650 C   0  0  0  0  0  0
    0.4980   -2.5900   15.7980 C   0  0  0  0  0  0
    2.7330   -1.7120   15.9030 N   0  0  0  0  0  0
    3.8770   -0.0780   14.4380 C   0  0  0  0  0  0
    5.0510    0.6190   14.1700 C   0  0  0  0  0  0
    6.1420   -0.4400   16.0050 C   0  0  0  0  0  0
    6.1720    0.4530   14.9570 C   0  0  0  0  0  0
    0.7480    6.3520   12.8730 C   0  0  0  0  0  0
    4.9890    2.8400   13.6140 F   0  0  0  0  0  0
    5.1330    1.6190   13.0540 C   0  0  0  0  0  0
    6.3610    1.5480   12.4750 F   0  0  0  0  0  0
    4.1690    1.4370   12.1040 F   0  0  0  0  0  0
    4.9860   -1.1460   16.2790 N   0  0  0  0  0  0
    3.8530   -0.9710   15.5030 C   0  0  0  0  0  0
    1.4220   -1.6360   15.3910 C   0  0  0  0  0  0
    1.0590   -0.6860   14.4680 N   0  0  0  0  0  0
   -1.1470   -1.6190   14.3330 C   0  0  0  0  0  0
    0.6400    3.8480   12.5240 N   0  0  0  0  0  0
    2.0780    3.7960   12.8500 C   0  0  0  0  0  0
    2.3930    4.8600   13.9110 C   0  0  0  0  0  0
    2.1410    6.1800   13.3320 N   0  3  0  0  0  0
    0.2720    5.1860   11.9840 C   0  0  0  0  0  0
    0.9265    1.6214   13.8420 H   0  0  0  0  0  0
   -1.4134    3.4603   10.7704 H   0  0  0  0  0  0
   -2.7273    1.3789   10.5356 H   0  0  0  0  0  0
   -2.2321   -0.5752   11.9718 H   0  0  0  0  0  0
   -1.5056   -3.3225   15.5833 H   0  0  0  0  0  0
    0.7770   -3.3461   16.5319 H   0  0  0  0  0  0
    2.8249   -2.4568   16.7073 H   0  0  0  0  0  0
    2.9902    0.0738   13.8226 H   0  0  0  0  0  0
    7.0303   -0.5900   16.6186 H   0  0  0  0  0  0
    7.0763    1.0254   14.7505 H   0  0  0  0  0  0
    0.0792    6.4087   13.7445 H   0  0  0  0  0  0
    0.6667    7.2797   12.2875 H   0  0  0  0  0  0
   -2.1619   -1.6014   13.9359 H   0  0  0  0  0  0
    2.3296    2.7989   13.2406 H   0  0  0  0  0  0
    2.6671    3.9936   11.9423 H   0  0  0  0  0  0
    1.7480    4.7050   14.7884 H   0  0  0  0  0  0
    3.4477    4.7767   14.2120 H   0  0  0  0  0  0
    2.8259    6.3079   12.4808 H   0  0  0  0  0  0
    2.3688    6.9317   14.1021 H   0  0  0  0  0  0
   -0.8238    5.2176   11.8935 H   0  0  0  0  0  0
    0.7251    5.2773   10.9858 H   0  0  0  0  0  0
  1  2  2  0  0  0
  1  3  1  0  0  0
  1 25  1  0  0  0
  2  4  1  0  0  0
  2 30  1  0  0  0
  3  5  2  0  0  0
  3 31  1  0  0  0
  4  6  2  0  0  0
  4  7  1  0  0  0
  5  6  1  0  0  0
  5 32  1  0  0  0
  6 33  1  0  0  0
  7 23  2  0  0  0
  7 24  1  0  0  0
  8  9  1  0  0  0
  8 24  2  0  0  0
  8 34  1  0  0  0
  9 22  2  0  0  0
  9 35  1  0  0  0
 10 21  1  0  0  0
 10 22  1  0  0  0
 10 36  1  0  0  0
 11 12  2  0  0  0
 11 21  1  0  0  0
 11 37  1  0  0  0
 12 14  1  0  0  0
 12 17  1  0  0  0
 13 14  2  0  0  0
 13 20  1  0  0  0
 13 38  1  0  0  0
 14 39  1  0  0  0
 15 28  1  0  0  0
 15 29  1  0  0  0
 15 40  1  0  0  0
 15 41  1  0  0  0
 16 17  1  0  0  0
 17 18  1  0  0  0
 17 19  1  0  0  0
 20 21  2  0  0  0
 22 23  1  0  0  0
 24 42  1  0  0  0
 25 26  1  0  0  0
 25 29  1  0  0  0
 26 27  1  0  0  0
 26 43  1  0  0  0
 26 44  1  0  0  0
 27 28  1  0  0  0
 27 45  1  0  0  0
 27 46  1  0  0  0
 28 47  1  0  0  0
 28 48  1  0  0  0
 29 49  1  0  0  0
 29 50  1  0  0  0
M  CHG  1  28   1
M  END
> <s_m_source_file>
../4f4p_ligand.sdf

> <i_m_source_file_index>
1

> <s_epik_input>
W0NIMl0xW0NIMl1bTkgyK11bQ0gyXVtDSDJdTjFjMltjSF1jKFtjSF1bY0hdW2NIXTIpLWMzbmMoW2NIXVtjSF1bY0hdMylbTkhdYyhbY0hdYzRDKEYpKEYpRiluW2NIXVtjSF00

> <s_epik_cmdline>
J2VwaWtfYXBwJywgJy1pbWFlJywgJ2xpZ2FuZF9wcm8ubWFlJywgJy1vbWFlJywgJ2xpZ2FuZF9wcmVwLm1hZScsICctbXMnLCAnMScsICctcGgnLCAnNycsICctcGh0JywgJzAuNScsICctbnQn

> <r_lp_tautomer_probability>
1

> <r_epik_Ionization_Penalty>
  0.0150

> <r_epik_Ionization_Penalty_Charging>
  0.0086

> <r_epik_Ionization_Penalty_Neutral>
  0.0064

> <r_epik_State_Penalty>
 -0.0000

> <r_epik_Charging_Adjusted_Penalty>
0.00857161421072162

> <i_epik_Tot_Q>
1

> <i_epik_Tot_abs_Q>
1

$$$$
