4f5y_ligand
                    3D
 Schrodinger Suite 2020-3.
 68 74  0  0  1  0            999 V2000
   20.1830   20.0320   21.1420 P   0  0  1  0  0  0
   20.2840   19.4130   19.7030 O   0  5  0  0  0  0
   21.3250   19.4100   21.9800 O   0  0  0  0  0  0
   20.4060   21.5870   21.0390 O   0  0  0  0  0  0
   20.5490   22.2860   22.2590 C   0  0  0  0  0  0
   20.3920   23.7920   22.0050 C   0  0  1  0  0  0
   21.6050   24.2980   21.4630 O   0  0  0  0  0  0
   19.3170   24.2520   21.0480 C   0  0  1  0  0  0
   18.0990   24.3930   21.7120 O   0  0  0  0  0  0
   19.8460   25.5400   20.5960 C   0  0  1  0  0  0
   19.6720   26.5330   21.5580 O   0  0  0  0  0  0
   21.3170   25.2410   20.4370 C   0  0  2  0  0  0
   21.6050   24.8230   19.0840 N   0  0  0  0  0  0
   21.5310   23.5570   18.5500 C   0  0  0  0  0  0
   21.8790   23.5760   17.2250 N   0  0  0  0  0  0
   22.1960   24.9180   16.8820 C   0  0  0  0  0  0
   22.6320   25.6180   15.7040 C   0  0  0  0  0  0
   22.8260   24.9490   14.5190 O   0  0  0  0  0  0
   22.8650   27.0160   15.7370 N   0  0  0  0  0  0
   22.6790   27.7370   16.9340 C   0  0  0  0  0  0
   22.9280   29.1620   16.9660 N   0  0  0  0  0  0
   22.2620   27.0850   18.0720 N   0  0  0  0  0  0
   22.0140   25.7030   18.0920 C   0  0  0  0  0  0
   16.7080   24.0190   21.0660 P   0  0  1  0  0  0
   15.5990   24.6210   21.9350 O   0  0  0  0  0  0
   16.6210   24.5590   19.6160 O   0  5  0  0  0  0
   16.5660   22.4350   21.0540 O   0  0  0  0  0  0
   16.3500   21.7180   22.2730 C   0  0  0  0  0  0
   16.4500   20.2290   21.9590 C   0  0  1  0  0  0
   15.3440   19.7830   21.2540 O   0  0  0  0  0  0
   17.6210   19.9100   21.1090 C   0  0  1  0  0  0
   18.7660   19.7520   21.8130 O   0  0  0  0  0  0
   17.1650   18.5930   20.5420 C   0  0  1  0  0  0
   17.4230   17.4990   21.3810 O   0  0  0  0  0  0
   15.7210   18.8040   20.3260 C   0  0  2  0  0  0
   15.5670   19.2820   18.9900 N   0  0  0  0  0  0
   15.6910   20.5520   18.5480 C   0  0  0  0  0  0
   15.5040   20.6160   17.1850 N   0  0  0  0  0  0
   15.2560   19.3190   16.7540 C   0  0  0  0  0  0
   14.9710   18.6710   15.4700 C   0  0  0  0  0  0
   14.9220   19.4820   14.3090 O   0  0  0  0  0  0
   14.7600   17.3060   15.4280 N   0  0  0  0  0  0
   14.8160   16.5060   16.6470 C   0  0  0  0  0  0
   14.5960   15.0790   16.6340 N   0  0  0  0  0  0
   15.0770   17.1000   17.8530 N   0  0  0  0  0  0
   15.2990   18.4740   17.9230 C   0  0  0  0  0  0
   19.7766   21.9503   22.9666 H   0  0  0  0  0  0
   21.5449   22.0865   22.6814 H   0  0  0  0  0  0
   20.1583   24.2197   22.9911 H   0  0  0  0  0  0
   19.0460   23.5716   20.2272 H   0  0  0  0  0  0
   19.3136   25.9518   19.7260 H   0  0  0  0  0  0
   18.6602   26.8834   21.8100 H   0  0  0  0  0  0
   22.0207   26.0760   20.5691 H   0  0  0  0  0  0
   21.2370   22.6649   19.1031 H   0  0  0  0  0  0
   23.1918   27.5408   14.8271 H   0  0  0  0  0  0
   23.2613   29.6827   16.0561 H   0  0  0  0  0  0
   22.7840   29.7247   17.9002 H   0  0  0  0  0  0
   17.1156   22.0061   23.0084 H   0  0  0  0  0  0
   15.3524   21.9594   22.6686 H   0  0  0  0  0  0
   16.4768   19.6749   22.9088 H   0  0  0  0  0  0
   17.9535   20.7074   20.4281 H   0  0  0  0  0  0
   17.7143   18.2665   19.6466 H   0  0  0  0  0  0
   18.4601   17.2273   21.6272 H   0  0  0  0  0  0
   15.0758   17.9235   20.4617 H   0  0  0  0  0  0
   15.9095   21.4100   19.1837 H   0  0  0  0  0  0
   14.5472   16.8116   14.4687 H   0  0  0  0  0  0
   14.3834   14.5639   15.6856 H   0  0  0  0  0  0
   14.6410   14.5070   17.5725 H   0  0  0  0  0  0
  1  2  1  0  0  0
  1  3  2  0  0  0
  1  4  1  0  0  0
  1 32  1  0  0  0
  4  5  1  0  0  0
  5  6  1  0  0  0
  5 47  1  0  0  0
  5 48  1  0  0  0
  6  7  1  0  0  0
  6  8  1  0  0  0
  6 49  1  0  0  0
  7 12  1  0  0  0
  8  9  1  0  0  0
  8 10  1  0  0  0
  8 50  1  0  0  0
  9 24  1  0  0  0
 10 11  1  0  0  0
 10 12  1  0  0  0
 10 51  1  0  0  0
 11 52  1  0  0  0
 12 13  1  0  0  0
 12 53  1  0  0  0
 13 14  1  0  0  0
 13 23  1  0  0  0
 14 15  2  0  0  0
 14 54  1  0  0  0
 15 16  1  0  0  0
 16 17  1  0  0  0
 16 23  2  0  0  0
 17 18  2  0  0  0
 17 19  1  0  0  0
 19 20  1  0  0  0
 19 55  1  0  0  0
 20 21  1  0  0  0
 20 22  2  0  0  0
 21 56  1  0  0  0
 21 57  1  0  0  0
 22 23  1  0  0  0
 24 25  2  0  0  0
 24 26  1  0  0  0
 24 27  1  0  0  0
 27 28  1  0  0  0
 28 29  1  0  0  0
 28 58  1  0  0  0
 28 59  1  0  0  0
 29 30  1  0  0  0
 29 31  1  0  0  0
 29 60  1  0  0  0
 30 35  1  0  0  0
 31 32  1  0  0  0
 31 33  1  0  0  0
 31 61  1  0  0  0
 33 34  1  0  0  0
 33 35  1  0  0  0
 33 62  1  0  0  0
 34 63  1  0  0  0
 35 36  1  0  0  0
 35 64  1  0  0  0
 36 37  1  0  0  0
 36 46  1  0  0  0
 37 38  2  0  0  0
 37 65  1  0  0  0
 38 39  1  0  0  0
 39 40  1  0  0  0
 39 46  2  0  0  0
 40 41  2  0  0  0
 40 42  1  0  0  0
 42 43  1  0  0  0
 42 66  1  0  0  0
 43 44  1  0  0  0
 43 45  2  0  0  0
 44 67  1  0  0  0
 44 68  1  0  0  0
 45 46  1  0  0  0
M  CHG  2   2  -1  26  -1
M  END
> <s_m_source_file>
../4f5y_ligand.sdf

> <i_m_source_file_index>
1

> <s_epik_input>
Tz1jMVtuSF1jKFtOSDJdKW5jKGMxMiluKFtjSF1uMilbQ0BIXShPMylbQ0BIXShbT0hdKVtDQEhdKE9bUEBAXSg9TykoW09IXSlPW0NIMl00KVtDQEhdM1tDSDJdT1tQQF0oPU8pKFtPSF0pT1tDQEhdKFtDQEBIXTQ1KVtDQEBIXShbT0hdKVtDQEBIXShPNSluKFtjSF1uNiljKGM2NyluYyhbTkgyXSlbbkhdYzc9Tw==

> <s_epik_cmdline>
J2VwaWtfYXBwJywgJy1pbWFlJywgJ2xpZ2FuZF9wcm8ubWFlJywgJy1vbWFlJywgJ2xpZ2FuZF9wcmVwLm1hZScsICctbXMnLCAnMScsICctcGgnLCAnNycsICctcGh0JywgJzAuNScsICctbnQn

> <r_lp_tautomer_probability>
1

> <r_epik_Ionization_Penalty>
  0.0042

> <r_epik_Ionization_Penalty_Charging>
  0.0040

> <r_epik_Ionization_Penalty_Neutral>
  0.0002

> <r_epik_State_Penalty>
 -0.0000

> <r_epik_Charging_Adjusted_Penalty>
0.00400193045734951

> <i_epik_Tot_Q>
-2

> <i_epik_Tot_abs_Q>
2

> <s_epik_Chemistry_Notes>
This compound contains an acetal/aminal-like group ( X-CH(R)-Y where X, Y are N, S, or O) that may be acid/base labile, releasing an aldehyde.

$$$$
