4f63_ligand
                    3D
 Schrodinger Suite 2020-3.
 40 42  0  0  1  0            999 V2000
   88.9070    0.9140   12.3780 C   0  0  0  0  0  0
   88.3890    0.2960   11.0920 C   0  0  0  0  0  0
   87.4920    0.8560   10.1760 C   0  0  0  0  0  0
   87.2970   -0.0450    9.1720 C   0  0  3  0  0  0
   86.4940    0.0330    8.0460 N   0  0  0  0  0  0
   85.7380    1.1550    7.7280 C   0  0  0  0  0  0
   85.7150    2.2140    8.5140 N   0  3  0  0  0  0
   84.9990    3.2790    8.1910 C   0  0  0  0  0  0
   85.0020    4.3480    9.0690 N   0  0  0  0  0  0
   84.5840    4.0610   10.4420 C   0  0  0  0  0  0
   84.9600    5.2100   11.3780 C   0  0  0  0  0  0
   85.4230    4.6210   12.6710 C   0  0  0  0  0  0
   86.2310    5.3370   13.5580 C   0  0  0  0  0  0
   86.6390    4.7000   14.7300 C   0  0  0  0  0  0
   86.2030    3.3870   14.9790 C   0  0  0  0  0  0
   85.4230    2.7510   14.1050 N   0  0  0  0  0  0
   85.0230    3.3160   12.9800 C   0  0  0  0  0  0
   84.2760    3.3340    7.0780 N   0  0  0  0  0  0
   84.2490    2.3180    6.2310 C   0  0  0  0  0  0
   84.9880    1.1920    6.5400 C   0  0  0  0  0  0
   85.0300   -0.3140    5.3790 Br  0  0  0  0  0  0
   88.0400   -1.1110    9.4540 N   0  3  0  0  0  0
   88.7130   -0.8780   10.6430 N   0  0  0  0  0  0
   88.4659    1.9133   12.5082 H   0  0  0  0  0  0
   90.0025    1.0004   12.3280 H   0  0  0  0  0  0
   88.6280    0.2762   13.2297 H   0  0  0  0  0  0
   87.0839    1.8624   10.3509 H   0  0  0  0  0  0
   85.2959    5.3694    8.7857 H   0  0  0  0  0  0
   83.4931    3.9230   10.4719 H   0  0  0  0  0  0
   85.0794    3.1433   10.7919 H   0  0  0  0  0  0
   85.7649    5.8056   10.9225 H   0  0  0  0  0  0
   84.0806    5.8493   11.5455 H   0  0  0  0  0  0
   86.5331    6.3615   13.3409 H   0  0  0  0  0  0
   87.2860    5.2125   15.4419 H   0  0  0  0  0  0
   86.5061    2.8834   15.8969 H   0  0  0  0  0  0
   84.3812    2.7656   12.2921 H   0  0  0  0  0  0
   83.6603    2.3678    5.3150 H   0  0  0  0  0  0
   88.1791   -2.0630    8.9207 H   0  0  0  0  0  0
   86.4334   -0.8195    7.3535 H   0  0  0  0  0  0
   86.2948    2.2178    9.4488 H   0  0  0  0  0  0
  1  2  1  0  0  0
  1 24  1  0  0  0
  1 25  1  0  0  0
  1 26  1  0  0  0
  2  3  2  0  0  0
  2 23  1  0  0  0
  3  4  1  0  0  0
  3 27  1  0  0  0
  4  5  1  0  0  0
  4 22  1  0  0  0
  5  6  1  0  0  0
  5 39  1  0  0  0
  6  7  2  0  0  0
  6 20  1  0  0  0
  7  8  1  0  0  0
  7 40  1  0  0  0
  8  9  1  0  0  0
  8 18  2  0  0  0
  9 10  1  0  0  0
  9 28  1  0  0  0
 10 11  1  0  0  0
 10 29  1  0  0  0
 10 30  1  0  0  0
 11 12  1  0  0  0
 11 31  1  0  0  0
 11 32  1  0  0  0
 12 13  2  0  0  0
 12 17  1  0  0  0
 13 14  1  0  0  0
 13 33  1  0  0  0
 14 15  2  0  0  0
 14 34  1  0  0  0
 15 16  1  0  0  0
 15 35  1  0  0  0
 16 17  2  0  0  0
 17 36  1  0  0  0
 18 19  1  0  0  0
 19 20  2  0  0  0
 19 37  1  0  0  0
 20 21  1  0  0  0
 22 23  2  0  0  0
 22 38  1  0  0  0
M  CHG  2   7   1  22   1
M  END
> <s_m_source_file>
../4f63_ligand.sdf

> <i_m_source_file_index>
1

> <s_epik_input>
W0NIM11DMT1bQ0hdW0NIXShOPU4xKVtOSF1jMm5jKG5bY0hdYzJCcilbTkhdW0NIMl1bQ0gyXWMzW2NIXVtjSF1bY0hdbltjSF0z

> <s_epik_cmdline>
J2VwaWtfYXBwJywgJy1pbWFlJywgJ2xpZ2FuZF9wcm8ubWFlJywgJy1vbWFlJywgJ2xpZ2FuZF9wcmVwLm1hZScsICctbXMnLCAnMScsICctcGgnLCAnNycsICctcGh0JywgJzAuNScsICctbnQn

> <r_epik_Ionization_Penalty>
  8.4630

> <r_epik_Ionization_Penalty_Charging>
  8.4476

> <r_epik_Ionization_Penalty_Neutral>
  0.0154

> <r_epik_State_Penalty>
  0.0758

> <r_epik_Charging_Adjusted_Penalty>
8.52347599342009

> <i_epik_Tot_Q>
2

> <i_epik_Tot_abs_Q>
2

$$$$
