4f64_ligand
                    3D
 Schrodinger Suite 2020-3.
 47 49  0  0  1  0            999 V2000
   90.5280    2.7210   15.8220 C   0  0  0  0  0  0
   89.4190    1.9150   15.3640 O   0  0  0  0  0  0
   88.8240    2.5830   14.2340 C   0  0  0  0  0  0
   88.0610    1.5670   13.3700 C   0  0  0  0  0  0
   89.0930    1.0000   12.3960 C   0  0  0  0  0  0
   88.4990    0.4590   11.1240 C   0  0  0  0  0  0
   87.5450    1.0550   10.2820 C   0  0  0  0  0  0
   87.3430    0.2080    9.2400 C   0  0  3  0  0  0
   86.5070    0.2720    8.1460 N   0  0  0  0  0  0
   85.6680    1.3410    7.9020 C   0  0  0  0  0  0
   85.6120    2.4020    8.6950 N   0  3  0  0  0  0
   84.7930    3.4240    8.4150 C   0  0  0  0  0  0
   84.7100    4.5440    9.2420 N   0  0  0  0  0  0
   85.6690    4.8140   10.3160 C   0  0  0  0  0  0
   85.1610    4.1830   11.5820 C   0  0  0  0  0  0
   84.0730    3.3770   11.7630 C   0  0  0  0  0  0
   84.0880    3.0500   13.1570 C   0  0  0  0  0  0
   83.1130    2.1980   13.9280 C   0  0  0  0  0  0
   85.1310    3.6480   13.6470 N   0  0  0  0  0  0
   85.7300    4.2850   12.7840 O   0  0  0  0  0  0
   84.0250    3.4130    7.3420 N   0  0  0  0  0  0
   84.0380    2.3890    6.4950 C   0  0  0  0  0  0
   84.8750    1.3070    6.7560 C   0  0  0  0  0  0
   84.9670   -0.1760    5.5540 Br  0  0  0  0  0  0
   88.1260   -0.8340    9.4390 N   0  3  0  0  0  0
   88.8480   -0.6760   10.6030 N   0  0  0  0  0  0
   91.0027    2.2340   16.6866 H   0  0  0  0  0  0
   90.1615    3.7154   16.1168 H   0  0  0  0  0  0
   91.2637    2.8269   15.0112 H   0  0  0  0  0  0
   88.1253    3.3543   14.5902 H   0  0  0  0  0  0
   89.6130    3.0541   13.6294 H   0  0  0  0  0  0
   87.6421    0.7796   14.0138 H   0  0  0  0  0  0
   87.2452    2.0779   12.8376 H   0  0  0  0  0  0
   89.8031    1.7909   12.1127 H   0  0  0  0  0  0
   89.6370    0.1742   12.8778 H   0  0  0  0  0  0
   87.1193    2.0358   10.5407 H   0  0  0  0  0  0
   83.8783    5.2404    9.0593 H   0  0  0  0  0  0
   86.6469    4.3861   10.0505 H   0  0  0  0  0  0
   85.7694    5.9008   10.4533 H   0  0  0  0  0  0
   83.3523    3.0540   11.0118 H   0  0  0  0  0  0
   82.3332    1.8259   13.2473 H   0  0  0  0  0  0
   82.6489    2.8001   14.7230 H   0  0  0  0  0  0
   83.6453    1.3462   14.3765 H   0  0  0  0  0  0
   83.4029    2.3959    5.6091 H   0  0  0  0  0  0
   88.2563   -1.7405    8.8297 H   0  0  0  0  0  0
   86.4884   -0.5533    7.4190 H   0  0  0  0  0  0
   86.2428    2.4500    9.5949 H   0  0  0  0  0  0
  1  2  1  0  0  0
  1 27  1  0  0  0
  1 28  1  0  0  0
  1 29  1  0  0  0
  2  3  1  0  0  0
  3  4  1  0  0  0
  3 30  1  0  0  0
  3 31  1  0  0  0
  4  5  1  0  0  0
  4 32  1  0  0  0
  4 33  1  0  0  0
  5  6  1  0  0  0
  5 34  1  0  0  0
  5 35  1  0  0  0
  6  7  2  0  0  0
  6 26  1  0  0  0
  7  8  1  0  0  0
  7 36  1  0  0  0
  8  9  1  0  0  0
  8 25  1  0  0  0
  9 10  1  0  0  0
  9 46  1  0  0  0
 10 11  2  0  0  0
 10 23  1  0  0  0
 11 12  1  0  0  0
 11 47  1  0  0  0
 12 13  1  0  0  0
 12 21  2  0  0  0
 13 14  1  0  0  0
 13 37  1  0  0  0
 14 15  1  0  0  0
 14 38  1  0  0  0
 14 39  1  0  0  0
 15 16  2  0  0  0
 15 20  1  0  0  0
 16 17  1  0  0  0
 16 40  1  0  0  0
 17 18  1  0  0  0
 17 19  2  0  0  0
 18 41  1  0  0  0
 18 42  1  0  0  0
 18 43  1  0  0  0
 19 20  1  0  0  0
 21 22  1  0  0  0
 22 23  2  0  0  0
 22 44  1  0  0  0
 23 24  1  0  0  0
 25 26  2  0  0  0
 25 45  1  0  0  0
M  CHG  2  11   1  25   1
M  END
> <s_m_source_file>
../4f64_ligand.sdf

> <i_m_source_file_index>
1

> <s_epik_input>
W0NIM11PW0NIMl1bQ0gyXVtDSDJdQzE9W0NIXVtDSF0oTj1OMSlbTkhdYzJuYyhuW2NIXWMyQnIpW05IXVtDSDJdYzNbY0hdYyhbQ0gzXSlubzM=

> <s_epik_cmdline>
J2VwaWtfYXBwJywgJy1pbWFlJywgJ2xpZ2FuZF9wcm8ubWFlJywgJy1vbWFlJywgJ2xpZ2FuZF9wcmVwLm1hZScsICctbXMnLCAnMScsICctcGgnLCAnNycsICctcGh0JywgJzAuNScsICctbnQn

> <r_epik_Ionization_Penalty>
  8.5423

> <r_epik_Ionization_Penalty_Charging>
  8.5422

> <r_epik_Ionization_Penalty_Neutral>
  0.0001

> <r_epik_State_Penalty>
  0.0688

> <r_epik_Charging_Adjusted_Penalty>
8.61098083818653

> <i_epik_Tot_Q>
2

> <i_epik_Tot_abs_Q>
2

$$$$
