4f65_ligand
                    3D
 Schrodinger Suite 2020-3.
 49 52  0  0  1  0            999 V2000
   11.2720   -3.6250   -9.9110 C   0  0  0  0  0  0
   12.2920   -3.0990   -9.1420 C   0  0  0  0  0  0
   11.4960   -3.9650  -11.2320 C   0  0  0  0  0  0
   13.5430   -2.9170   -9.7000 C   0  0  0  0  0  0
   12.7520   -3.7800  -11.7820 C   0  0  0  0  0  0
   19.5660   -4.3290   -9.9030 C   0  0  0  0  0  0
   17.6610   -1.9580  -13.1690 C   0  0  0  0  0  0
   22.6390   -3.3840  -14.4490 C   0  0  0  0  0  0
   13.7760   -3.2460  -11.0210 C   0  0  0  0  0  0
   21.8120   -2.3270  -14.7390 C   0  0  0  0  0  0
   18.6630   -4.0630   -8.8470 C   0  0  0  0  0  0
   16.4100   -1.3960  -13.0620 C   0  0  0  0  0  0
   18.8230   -5.0240  -10.8300 C   0  0  0  0  0  0
   18.3730   -1.1110  -14.0550 C   0  0  0  0  0  0
   20.5310   -2.3500  -14.1890 C   0  0  0  0  0  0
   20.9550   -4.4070  -13.2540 C   0  0  0  0  0  0
   18.9410   -3.3420   -7.5910 C   0  0  0  0  0  0
   15.1350   -3.0420  -11.6110 C   0  0  0  0  0  0
   15.1780   -1.7050  -12.3060 C   0  0  0  0  0  0
   19.1480   -5.6040  -12.1550 C   0  0  0  0  0  0
   22.2220   -4.4230  -13.7080 N   0  0  0  0  0  0
   17.4430   -4.5540   -9.1080 N   0  0  0  0  0  0
   20.0970   -3.3930  -13.4640 N   0  0  0  0  0  0
   17.6080   -0.0820  -14.4460 N   0  0  0  0  0  0
   16.4280   -0.3020  -13.8640 N   0  3  0  0  0  0
   19.6790   -1.2610  -14.4190 N   0  0  0  0  0  0
   20.5690   -5.5360  -12.5060 N   0  0  0  0  0  0
   17.5560   -5.1680  -10.3520 O   0  0  0  0  0  0
   22.4870   -0.9310  -15.8330 Br  0  0  0  0  0  0
   10.2847   -3.7728   -9.4735 H   0  0  0  0  0  0
   12.1111   -2.8292   -8.1015 H   0  0  0  0  0  0
   10.6879   -4.3764  -11.8368 H   0  0  0  0  0  0
   14.3521   -2.5107   -9.0930 H   0  0  0  0  0  0
   12.9354   -4.0565  -12.8203 H   0  0  0  0  0  0
   20.6167   -4.0464   -9.9681 H   0  0  0  0  0  0
   17.9000   -2.8778  -12.6150 H   0  0  0  0  0  0
   23.6602   -3.3794  -14.8301 H   0  0  0  0  0  0
   19.9942   -3.0250   -7.5756 H   0  0  0  0  0  0
   18.7454   -4.0060   -6.7361 H   0  0  0  0  0  0
   18.2908   -2.4573   -7.5245 H   0  0  0  0  0  0
   15.8895   -3.0666  -10.8109 H   0  0  0  0  0  0
   15.3437   -3.8421  -12.3365 H   0  0  0  0  0  0
   15.0324   -0.9512  -11.5182 H   0  0  0  0  0  0
   14.3158   -1.6927  -12.9890 H   0  0  0  0  0  0
   18.8613   -6.6659  -12.1707 H   0  0  0  0  0  0
   18.5953   -5.0634  -12.9375 H   0  0  0  0  0  0
   20.1925   -0.4583  -14.9685 H   0  0  0  0  0  0
   21.2534   -6.3355  -12.1860 H   0  0  0  0  0  0
   15.5846    0.3775  -14.0565 H   0  0  0  0  0  0
  1  2  2  0  0  0
  1  3  1  0  0  0
  1 30  1  0  0  0
  2  4  1  0  0  0
  2 31  1  0  0  0
  3  5  2  0  0  0
  3 32  1  0  0  0
  4  9  2  0  0  0
  4 33  1  0  0  0
  5  9  1  0  0  0
  5 34  1  0  0  0
  6 11  1  0  0  0
  6 13  2  0  0  0
  6 35  1  0  0  0
  7 12  2  0  0  0
  7 14  1  0  0  0
  7 36  1  0  0  0
  8 10  2  0  0  0
  8 21  1  0  0  0
  8 37  1  0  0  0
  9 18  1  0  0  0
 10 15  1  0  0  0
 10 29  1  0  0  0
 11 17  1  0  0  0
 11 22  2  0  0  0
 12 19  1  0  0  0
 12 25  1  0  0  0
 13 20  1  0  0  0
 13 28  1  0  0  0
 14 24  2  0  0  0
 14 26  1  0  0  0
 15 23  2  0  0  0
 15 26  1  0  0  0
 16 21  2  0  0  0
 16 23  1  0  0  0
 16 27  1  0  0  0
 17 38  1  0  0  0
 17 39  1  0  0  0
 17 40  1  0  0  0
 18 19  1  0  0  0
 18 41  1  0  0  0
 18 42  1  0  0  0
 19 43  1  0  0  0
 19 44  1  0  0  0
 20 27  1  0  0  0
 20 45  1  0  0  0
 20 46  1  0  0  0
 22 28  1  0  0  0
 24 25  1  0  0  0
 25 49  1  0  0  0
 26 47  1  0  0  0
 27 48  1  0  0  0
M  CHG  1  25   1
M  END
> <s_m_source_file>
../4f65_ligand.sdf

> <i_m_source_file_index>
1

> <s_epik_input>
W2NIXTFbY0hdW2NIXVtjSF1bY0hdYzFbQ0gyXVtDSDJdYzJbY0hdYyhuW25IXTIpW05IXWMzbmMobltjSF1jM0JyKVtOSF1bQ0gyXWMob240KVtjSF1jNFtDSDNd

> <s_epik_cmdline>
J2VwaWtfYXBwJywgJy1pbWFlJywgJ2xpZ2FuZF9wcm8ubWFlJywgJy1vbWFlJywgJ2xpZ2FuZF9wcmVwLm1hZScsICctbXMnLCAnMScsICctcGgnLCAnNycsICctcGh0JywgJzAuNScsICctbnQn

> <r_lp_tautomer_probability>
1

> <r_epik_Ionization_Penalty>
  0.1897

> <r_epik_Ionization_Penalty_Charging>
  0.0000

> <r_epik_Ionization_Penalty_Neutral>
  0.1897

> <r_epik_State_Penalty>
 -0.0000

> <r_epik_Charging_Adjusted_Penalty>
0

> <i_epik_Tot_Q>
1

> <i_epik_Tot_abs_Q>
1

> <s_epik_Chemistry_Notes>
This compound has an imine and may undergo hydrolysis.

$$$$
