4f6s_ligand
                    3D
 Schrodinger Suite 2020-3.
 40 41  0  0  1  0            999 V2000
   41.0150   57.9100   59.7370 O   0  0  0  0  0  0
   39.8840   58.3210   59.8420 C   0  0  0  0  0  0
   39.3890   59.1780   58.8740 N   0  0  0  0  0  0
   39.0880   57.9820   60.9220 N   0  0  0  0  0  0
   39.4500   57.0770   61.9750 C   0  0  0  0  0  0
   40.7030   56.5660   62.2830 C   0  0  0  0  0  0
   40.5240   55.6980   63.3390 C   0  0  0  0  0  0
   41.5830   54.8750   64.0760 C   0  0  0  0  0  0
   42.3490   55.7830   65.0440 C   0  0  0  0  0  0
   40.9310   53.7690   64.8990 C   0  0  0  0  0  0
   42.5480   54.2050   63.1020 C   0  0  0  0  0  0
   39.2120   55.7060   63.6390 N   0  0  0  0  0  0
   38.6030   56.5000   62.8670 N   0  0  0  0  0  0
   37.1370   56.6470   63.0100 C   0  0  0  0  0  0
   36.3480   56.6900   61.8560 C   0  0  0  0  0  0
   34.9670   56.7930   61.9560 C   0  0  0  0  0  0
   34.3570   56.8370   63.2010 C   0  0  0  0  0  0
   32.8550   56.9610   63.2860 C   0  0  0  0  0  0
   35.1360   56.7830   64.3540 C   0  0  0  0  0  0
   36.5200   56.6860   64.2640 C   0  0  0  0  0  0
   40.0140   59.4535   58.0117 H   0  0  0  0  0  0
   38.3707   59.5835   58.9671 H   0  0  0  0  0  0
   38.0837   58.4191   61.0237 H   0  0  0  0  0  0
   41.6441   56.8042   61.7872 H   0  0  0  0  0  0
   41.6410   56.2583   65.7389 H   0  0  0  0  0  0
   42.8813   56.5594   64.4749 H   0  0  0  0  0  0
   43.0745   55.1831   65.6130 H   0  0  0  0  0  0
   40.2252   54.2133   65.6162 H   0  0  0  0  0  0
   41.7069   53.2123   65.4450 H   0  0  0  0  0  0
   40.3907   53.0837   64.2294 H   0  0  0  0  0  0
   43.0406   54.9729   62.4874 H   0  0  0  0  0  0
   41.9914   53.5153   62.4505 H   0  0  0  0  0  0
   43.3076   53.6439   63.6661 H   0  0  0  0  0  0
   36.8191   56.6425   60.8742 H   0  0  0  0  0  0
   34.3595   56.8395   61.0522 H   0  0  0  0  0  0
   32.4312   56.9870   62.2712 H   0  0  0  0  0  0
   32.5931   57.8883   63.8166 H   0  0  0  0  0  0
   32.4462   56.0980   63.8321 H   0  0  0  0  0  0
   34.6578   56.8170   65.3329 H   0  0  0  0  0  0
   37.1236   56.6404   65.1705 H   0  0  0  0  0  0
  1  2  2  0  0  0
  2  3  1  0  0  0
  2  4  1  0  0  0
  3 21  1  0  0  0
  3 22  1  0  0  0
  4  5  1  0  0  0
  4 23  1  0  0  0
  5  6  2  0  0  0
  5 13  1  0  0  0
  6  7  1  0  0  0
  6 24  1  0  0  0
  7  8  1  0  0  0
  7 12  2  0  0  0
  8  9  1  0  0  0
  8 10  1  0  0  0
  8 11  1  0  0  0
  9 25  1  0  0  0
  9 26  1  0  0  0
  9 27  1  0  0  0
 10 28  1  0  0  0
 10 29  1  0  0  0
 10 30  1  0  0  0
 11 31  1  0  0  0
 11 32  1  0  0  0
 11 33  1  0  0  0
 12 13  1  0  0  0
 13 14  1  0  0  0
 14 15  2  0  0  0
 14 20  1  0  0  0
 15 16  1  0  0  0
 15 34  1  0  0  0
 16 17  2  0  0  0
 16 35  1  0  0  0
 17 18  1  0  0  0
 17 19  1  0  0  0
 18 36  1  0  0  0
 18 37  1  0  0  0
 18 38  1  0  0  0
 19 20  2  0  0  0
 19 39  1  0  0  0
 20 40  1  0  0  0
M  END
> <s_m_source_file>
../4f6s_ligand.sdf

> <i_m_source_file_index>
1

> <s_epik_input>
Tz1DKFtOSDJdKVtOSF1jMVtjSF1jKEMoW0NIM10pKFtDSDNdKVtDSDNdKW5uMS1jMltjSF1bY0hdYyhbQ0gzXSlbY0hdW2NIXTI=

> <s_epik_cmdline>
J2VwaWtfYXBwJywgJy1pbWFlJywgJ2xpZ2FuZF9wcm8ubWFlJywgJy1vbWFlJywgJ2xpZ2FuZF9wcmVwLm1hZScsICctbXMnLCAnMScsICctcGgnLCAnNycsICctcGh0JywgJzAuNScsICctbnQn

> <r_lp_tautomer_probability>
1

> <r_epik_Ionization_Penalty>
  0.0000

> <r_epik_Ionization_Penalty_Charging>
  0.0000

> <r_epik_Ionization_Penalty_Neutral>
  0.0000

> <r_epik_State_Penalty>
 -0.0000

> <r_epik_Charging_Adjusted_Penalty>
0

> <i_epik_Tot_Q>
0

> <i_epik_Tot_abs_Q>
0

$$$$
