4f6u_ligand
                    3D
 Schrodinger Suite 2020-3.
 63 65  0  0  1  0            999 V2000
  -39.7370   23.0650  102.0390 O   0  0  0  0  0  0
  -40.3880   22.0930  102.3520 C   0  0  0  0  0  0
  -40.3540   21.5850  103.6520 N   0  0  0  0  0  0
  -39.4390   22.0210  104.6650 C   0  0  0  0  0  0
  -38.9610   23.2990  104.8760 C   0  0  0  0  0  0
  -38.0130   23.1020  105.8830 C   0  0  0  0  0  0
  -37.1640   24.1730  106.5550 C   0  0  0  0  0  0
  -36.7830   25.2440  105.5450 C   0  0  0  0  0  0
  -35.8900   23.5580  107.1540 C   0  0  0  0  0  0
  -37.9850   24.7990  107.6780 C   0  0  0  0  0  0
  -37.9480   21.8080  106.2070 N   0  0  0  0  0  0
  -38.7750   21.1830  105.5120 N   0  0  0  0  0  0
  -38.8960   19.7260  105.5640 C   0  0  0  0  0  0
  -38.8810   19.0920  106.8040 C   0  0  0  0  0  0
  -38.8330   18.9590  104.3920 C   0  0  0  0  0  0
  -38.8650   17.5720  104.4700 C   0  0  0  0  0  0
  -38.8950   16.9450  105.7130 C   0  0  0  0  0  0
  -38.9330   15.4330  105.7980 C   0  0  0  0  0  0
  -38.9000   17.7040  106.8790 C   0  0  0  0  0  0
  -41.2740   21.5120  101.4380 N   0  0  0  0  0  0
  -41.2800   21.9390  100.0260 C   0  0  0  0  0  0
  -42.0710   23.2000   99.7630 C   0  0  0  0  0  0
  -42.4670   23.2020   98.2620 C   0  0  0  0  0  0
  -42.3730   24.5330   97.6430 N   0  3  0  0  0  0
  -43.4490   25.4240   98.1120 C   0  0  0  0  0  0
  -43.3530   26.7500   97.3490 C   0  0  0  0  0  0
  -43.4000   26.5520   95.9280 O   0  0  0  0  0  0
  -42.3380   25.7380   95.4520 C   0  0  0  0  0  0
  -42.4030   24.3800   96.1630 C   0  0  0  0  0  0
  -41.0608   20.7980  103.9536 H   0  0  0  0  0  0
  -39.2501   24.2266  104.3820 H   0  0  0  0  0  0
  -36.1911   24.7911  104.7360 H   0  0  0  0  0  0
  -36.1871   26.0227  106.0435 H   0  0  0  0  0  0
  -37.6951   25.6929  105.1249 H   0  0  0  0  0  0
  -35.2902   23.1034  106.3518 H   0  0  0  0  0  0
  -36.1655   22.7865  107.8881 H   0  0  0  0  0  0
  -35.3022   24.3438  107.6510 H   0  0  0  0  0  0
  -38.9004   25.2427  107.2595 H   0  0  0  0  0  0
  -37.3917   25.5815  108.1736 H   0  0  0  0  0  0
  -38.2549   24.0242  108.4106 H   0  0  0  0  0  0
  -38.8543   19.6856  107.7178 H   0  0  0  0  0  0
  -38.7591   19.4498  103.4215 H   0  0  0  0  0  0
  -38.8666   16.9748  103.5582 H   0  0  0  0  0  0
  -38.9230   15.0084  104.7833 H   0  0  0  0  0  0
  -39.8495   15.1179  106.3183 H   0  0  0  0  0  0
  -38.0541   15.0748  106.3541 H   0  0  0  0  0  0
  -38.9188   17.2106  107.8508 H   0  0  0  0  0  0
  -41.9696   20.7312  101.7795 H   0  0  0  0  0  0
  -40.2482   22.1309   99.6966 H   0  0  0  0  0  0
  -41.7216   21.1458   99.4049 H   0  0  0  0  0  0
  -42.9702   23.2076  100.3965 H   0  0  0  0  0  0
  -41.4504   24.0776   99.9967 H   0  0  0  0  0  0
  -41.7993   22.5276   97.7058 H   0  0  0  0  0  0
  -43.5064   22.8579   98.1565 H   0  0  0  0  0  0
  -41.4266   25.0007   97.9522 H   0  0  0  0  0  0
  -44.4245   24.9524   97.9221 H   0  0  0  0  0  0
  -43.3323   25.6034   99.1910 H   0  0  0  0  0  0
  -44.1935   27.3993   97.6351 H   0  0  0  0  0  0
  -42.4040   27.2479   97.5971 H   0  0  0  0  0  0
  -42.4426   25.5968   94.3661 H   0  0  0  0  0  0
  -41.3764   26.2269   95.6672 H   0  0  0  0  0  0
  -41.5415   23.7776   95.8391 H   0  0  0  0  0  0
  -43.3348   23.8770   95.8652 H   0  0  0  0  0  0
  1  2  2  0  0  0
  2  3  1  0  0  0
  2 20  1  0  0  0
  3  4  1  0  0  0
  3 30  1  0  0  0
  4  5  2  0  0  0
  4 12  1  0  0  0
  5  6  1  0  0  0
  5 31  1  0  0  0
  6  7  1  0  0  0
  6 11  2  0  0  0
  7  8  1  0  0  0
  7  9  1  0  0  0
  7 10  1  0  0  0
  8 32  1  0  0  0
  8 33  1  0  0  0
  8 34  1  0  0  0
  9 35  1  0  0  0
  9 36  1  0  0  0
  9 37  1  0  0  0
 10 38  1  0  0  0
 10 39  1  0  0  0
 10 40  1  0  0  0
 11 12  1  0  0  0
 12 13  1  0  0  0
 13 14  2  0  0  0
 13 15  1  0  0  0
 14 19  1  0  0  0
 14 41  1  0  0  0
 15 16  2  0  0  0
 15 42  1  0  0  0
 16 17  1  0  0  0
 16 43  1  0  0  0
 17 18  1  0  0  0
 17 19  2  0  0  0
 18 44  1  0  0  0
 18 45  1  0  0  0
 18 46  1  0  0  0
 19 47  1  0  0  0
 20 21  1  0  0  0
 20 48  1  0  0  0
 21 22  1  0  0  0
 21 49  1  0  0  0
 21 50  1  0  0  0
 22 23  1  0  0  0
 22 51  1  0  0  0
 22 52  1  0  0  0
 23 24  1  0  0  0
 23 53  1  0  0  0
 23 54  1  0  0  0
 24 25  1  0  0  0
 24 29  1  0  0  0
 24 55  1  0  0  0
 25 26  1  0  0  0
 25 56  1  0  0  0
 25 57  1  0  0  0
 26 27  1  0  0  0
 26 58  1  0  0  0
 26 59  1  0  0  0
 27 28  1  0  0  0
 28 29  1  0  0  0
 28 60  1  0  0  0
 28 61  1  0  0  0
 29 62  1  0  0  0
 29 63  1  0  0  0
M  CHG  1  24   1
M  END
> <s_m_source_file>
../4f6u_ligand.sdf

> <i_m_source_file_index>
1

> <s_epik_input>
W0NIMl0xW0NIMl1PW0NIMl1bQ0gyXVtOSCtdMVtDSDJdW0NIMl1bQ0gyXVtOSF1DKD1PKVtOSF1jMltjSF1jKEMoW0NIM10pKFtDSDNdKVtDSDNdKW5uMi1jM1tjSF1bY0hdYyhbQ0gzXSlbY0hdW2NIXTM=

> <s_epik_cmdline>
J2VwaWtfYXBwJywgJy1pbWFlJywgJ2xpZ2FuZF9wcm8ubWFlJywgJy1vbWFlJywgJ2xpZ2FuZF9wcmVwLm1hZScsICctbXMnLCAnMScsICctcGgnLCAnNycsICctcGh0JywgJzAuNScsICctbnQn

> <r_lp_tautomer_probability>
1

> <r_epik_Ionization_Penalty>
  0.2746

> <r_epik_Ionization_Penalty_Charging>
  0.2745

> <r_epik_Ionization_Penalty_Neutral>
  0.0000

> <r_epik_State_Penalty>
  0.2668

> <r_epik_Charging_Adjusted_Penalty>
0.541358347288606

> <i_epik_Tot_Q>
1

> <i_epik_Tot_abs_Q>
1

$$$$
