4f6v_ligand
                    3D
 Schrodinger Suite 2020-3.
 43 44  0  0  1  0            999 V2000
   23.1220   -4.9850    8.0820 O   0  5  0  0  0  0
   26.1080   -7.1770    4.8260 O   0  0  0  0  0  0
   23.3830   -3.8290    6.2680 O   0  0  0  0  0  0
   24.8290   -5.2890    5.1000 O   0  0  0  0  0  0
   25.0240   -6.9120    6.7480 C   0  0  0  0  0  0
   25.2010  -15.9270   12.2540 C   0  0  0  0  0  0
   26.5640  -15.9240   12.0510 C   0  0  0  0  0  0
   24.4010  -15.1820   11.4420 C   0  0  0  0  0  0
   28.4540  -10.6370   10.1600 C   0  0  0  0  0  0
   28.9560  -10.2450    8.9470 C   0  0  0  0  0  0
   27.1230  -15.1670   11.0490 C   0  0  0  0  0  0
   24.9680  -14.4500   10.4270 C   0  0  0  0  0  0
   27.7230  -11.7920   10.2680 C   0  0  0  0  0  0
   28.0260  -12.1640    7.9190 C   0  0  0  0  0  0
   28.6020   -9.2970    6.0410 C   0  0  0  0  0  0
   27.2360   -9.5820    5.4410 C   0  0  0  0  0  0
   29.3290  -10.5420    6.5320 C   0  0  0  0  0  0
   26.3430   -8.7730    6.2580 N   0  0  0  0  0  0
   26.8050  -13.7150    9.1670 O   0  0  0  0  0  0
   23.6380   -4.8070    6.9630 C   0  0  0  0  0  0
   25.8320   -7.6000    5.9180 C   0  0  0  0  0  0
   24.5320   -5.7340    6.3050 C   0  0  0  0  0  0
   28.7550  -11.0090    7.8330 C   0  0  0  0  0  0
   26.3220  -14.4220   10.2230 C   0  0  0  0  0  0
   27.5150  -12.5660    9.1400 C   0  0  0  0  0  0
   24.1419   -7.5227    6.9906 H   0  0  0  0  0  0
   25.5683   -6.6704    7.6728 H   0  0  0  0  0  0
   24.7667  -16.5210   13.0581 H   0  0  0  0  0  0
   27.2058  -16.5285   12.6919 H   0  0  0  0  0  0
   23.3220  -15.1666   11.5957 H   0  0  0  0  0  0
   28.6368  -10.0270   11.0446 H   0  0  0  0  0  0
   29.5205   -9.3157    8.8704 H   0  0  0  0  0  0
   28.2042  -15.1591   10.9112 H   0  0  0  0  0  0
   24.3212  -13.8746    9.7646 H   0  0  0  0  0  0
   27.3110  -12.0966   11.2301 H   0  0  0  0  0  0
   27.8485  -12.7657    7.0276 H   0  0  0  0  0  0
   29.2430   -8.8216    5.2840 H   0  0  0  0  0  0
   28.4905   -8.6226    6.9028 H   0  0  0  0  0  0
   27.2300   -9.2804    4.3832 H   0  0  0  0  0  0
   27.0194  -10.6578    5.5168 H   0  0  0  0  0  0
   29.2243  -11.3452    5.7877 H   0  0  0  0  0  0
   30.3950  -10.3116    6.6753 H   0  0  0  0  0  0
   26.0375   -9.1262    7.2539 H   0  0  0  0  0  0
  1 20  1  0  0  0
  2 21  2  0  0  0
  3 20  2  0  0  0
  4 22  2  0  0  0
  5 21  1  0  0  0
  5 22  1  0  0  0
  5 26  1  0  0  0
  5 27  1  0  0  0
  6  7  2  0  0  0
  6  8  1  0  0  0
  6 28  1  0  0  0
  7 11  1  0  0  0
  7 29  1  0  0  0
  8 12  2  0  0  0
  8 30  1  0  0  0
  9 10  2  0  0  0
  9 13  1  0  0  0
  9 31  1  0  0  0
 10 23  1  0  0  0
 10 32  1  0  0  0
 11 24  2  0  0  0
 11 33  1  0  0  0
 12 24  1  0  0  0
 12 34  1  0  0  0
 13 25  2  0  0  0
 13 35  1  0  0  0
 14 23  2  0  0  0
 14 25  1  0  0  0
 14 36  1  0  0  0
 15 16  1  0  0  0
 15 17  1  0  0  0
 15 37  1  0  0  0
 15 38  1  0  0  0
 16 18  1  0  0  0
 16 39  1  0  0  0
 16 40  1  0  0  0
 17 23  1  0  0  0
 17 41  1  0  0  0
 17 42  1  0  0  0
 18 21  1  0  0  0
 18 43  1  0  0  0
 19 24  1  0  0  0
 19 25  1  0  0  0
 20 22  1  0  0  0
M  CHG  1   1  -1
M  END
> <s_m_source_file>
../4f6v_ligand.sdf

> <i_m_source_file_index>
1

> <s_epik_input>
W09IXUMoPU8pQyg9TylbQ0gyXUMoPU8pW05IXVtDSDJdW0NIMl1bQ0gyXWMxW2NIXVtjSF1bY0hdYyhbY0hdMSlPYzJbY0hdW2NIXVtjSF1bY0hdW2NIXTI=

> <s_epik_cmdline>
J2VwaWtfYXBwJywgJy1pbWFlJywgJ2xpZ2FuZF9wcm8ubWFlJywgJy1vbWFlJywgJ2xpZ2FuZF9wcmVwLm1hZScsICctbXMnLCAnMScsICctcGgnLCAnNycsICctcGh0JywgJzAuNScsICctbnQn

> <r_lp_tautomer_probability>
1

> <r_epik_Ionization_Penalty>
  0.0013

> <r_epik_Ionization_Penalty_Charging>
  0.0000

> <r_epik_Ionization_Penalty_Neutral>
  0.0013

> <r_epik_State_Penalty>
 -0.0000

> <r_epik_Charging_Adjusted_Penalty>
4.44783454674463e-05

> <i_epik_Tot_Q>
-1

> <i_epik_Tot_abs_Q>
1

$$$$
