4f6x_ligand
                    3D
 Schrodinger Suite 2020-3.
 47 48  0  0  1  0            999 V2000
  -23.3210   22.7610    7.7520 C   0  0  0  0  0  0
  -25.0520    6.0660    7.1780 O   0  0  0  0  0  0
  -24.3330    9.3130    5.0440 O   0  0  0  0  0  0
  -25.0550    6.9200    5.1390 O   0  5  0  0  0  0
  -23.0040    6.6910    8.6430 O   0  0  0  0  0  0
  -26.0150   13.1780    6.0640 C   0  0  0  0  0  0
  -25.0530   12.2530    5.6860 C   0  0  0  0  0  0
  -25.6540   14.3030    6.7910 C   0  0  0  0  0  0
  -22.0500    8.8460    8.3030 C   0  0  0  0  0  0
  -21.9630   10.0220    7.5640 C   0  0  0  0  0  0
  -23.3650   13.5740    6.7660 C   0  0  0  0  0  0
  -23.7200   21.3360    8.1380 C   0  0  0  0  0  0
  -22.6650   20.3320    7.6770 C   0  0  0  0  0  0
  -23.3000   19.1700    6.9160 C   0  0  0  0  0  0
  -23.3100   17.9010    7.7620 C   0  0  0  0  0  0
  -23.9580   16.7470    7.0030 C   0  0  0  0  0  0
  -22.6650   11.4360    5.6260 C   0  0  0  0  0  0
  -23.9710   15.6010    7.8560 O   0  0  0  0  0  0
  -24.6860    6.9090    6.3340 C   0  0  0  0  0  0
  -23.7280   12.4490    6.0410 C   0  0  0  0  0  0
  -24.3280   14.5020    7.1420 C   0  0  0  0  0  0
  -22.9270    7.8370    7.9140 C   0  0  0  0  0  0
  -23.7190    8.0040    6.7830 C   0  0  0  0  0  0
  -23.6310    9.1750    6.0410 C   0  0  0  0  0  0
  -22.7590   10.1940    6.4280 N   0  0  0  0  0  0
  -24.0949   23.4639    8.0941 H   0  0  0  0  0  0
  -23.2203   22.8302    6.6588 H   0  0  0  0  0  0
  -22.3608   23.0139    8.2254 H   0  0  0  0  0  0
  -27.0579   13.0205    5.7890 H   0  0  0  0  0  0
  -25.3390   11.3728    5.1103 H   0  0  0  0  0  0
  -26.4117   15.0291    7.0856 H   0  0  0  0  0  0
  -21.4294    8.7144    9.1894 H   0  0  0  0  0  0
  -21.2741   10.8089    7.8711 H   0  0  0  0  0  0
  -22.3220   13.7305    7.0414 H   0  0  0  0  0  0
  -23.8207   21.2668    9.2312 H   0  0  0  0  0  0
  -24.6802   21.0831    7.6646 H   0  0  0  0  0  0
  -21.9464   20.8343    7.0127 H   0  0  0  0  0  0
  -22.1351   19.9289    8.5526 H   0  0  0  0  0  0
  -24.3370   19.4266    6.6537 H   0  0  0  0  0  0
  -22.7267   18.9763    5.9974 H   0  0  0  0  0  0
  -22.2769   17.6216    8.0162 H   0  0  0  0  0  0
  -23.8791   18.0808    8.6860 H   0  0  0  0  0  0
  -24.9861   17.0223    6.7251 H   0  0  0  0  0  0
  -23.3769   16.5340    6.0936 H   0  0  0  0  0  0
  -22.7993   11.1774    4.5653 H   0  0  0  0  0  0
  -21.6658   11.8717    5.7735 H   0  0  0  0  0  0
  -22.3752    6.5643    9.5366 H   0  0  0  0  0  0
  1 12  1  0  0  0
  1 26  1  0  0  0
  1 27  1  0  0  0
  1 28  1  0  0  0
  2 19  2  0  0  0
  3 24  2  0  0  0
  4 19  1  0  0  0
  5 22  1  0  0  0
  5 47  1  0  0  0
  6  7  2  0  0  0
  6  8  1  0  0  0
  6 29  1  0  0  0
  7 20  1  0  0  0
  7 30  1  0  0  0
  8 21  2  0  0  0
  8 31  1  0  0  0
  9 10  2  0  0  0
  9 22  1  0  0  0
  9 32  1  0  0  0
 10 25  1  0  0  0
 10 33  1  0  0  0
 11 20  2  0  0  0
 11 21  1  0  0  0
 11 34  1  0  0  0
 12 13  1  0  0  0
 12 35  1  0  0  0
 12 36  1  0  0  0
 13 14  1  0  0  0
 13 37  1  0  0  0
 13 38  1  0  0  0
 14 15  1  0  0  0
 14 39  1  0  0  0
 14 40  1  0  0  0
 15 16  1  0  0  0
 15 41  1  0  0  0
 15 42  1  0  0  0
 16 18  1  0  0  0
 16 43  1  0  0  0
 16 44  1  0  0  0
 17 20  1  0  0  0
 17 25  1  0  0  0
 17 45  1  0  0  0
 17 46  1  0  0  0
 18 21  1  0  0  0
 19 23  1  0  0  0
 22 23  2  0  0  0
 23 24  1  0  0  0
 24 25  1  0  0  0
M  CHG  1   4  -1
M  END
> <s_m_source_file>
../4f6x_ligand.sdf

> <i_m_source_file_index>
1

> <s_epik_input>
W0NIM11bQ0gyXVtDSDJdW0NIMl1bQ0gyXVtDSDJdT2MoW2NIXTEpW2NIXVtjSF1bY0hdYzFbQ0gyXW4oW2NIXVtjSF1jMltPSF0pYyg9TyljMkMoPU8pW09IXQ==

> <s_epik_cmdline>
J2VwaWtfYXBwJywgJy1pbWFlJywgJ2xpZ2FuZF9wcm8ubWFlJywgJy1vbWFlJywgJ2xpZ2FuZF9wcmVwLm1hZScsICctbXMnLCAnMScsICctcGgnLCAnNycsICctcGh0JywgJzAuNScsICctbnQn

> <r_lp_tautomer_probability>
1

> <r_epik_Ionization_Penalty>
  0.0319

> <r_epik_Ionization_Penalty_Charging>
  0.0008

> <r_epik_Ionization_Penalty_Neutral>
  0.0311

> <r_epik_State_Penalty>
  0.0256

> <r_epik_Charging_Adjusted_Penalty>
0.0264965609670597

> <i_epik_Tot_Q>
-1

> <i_epik_Tot_abs_Q>
1

$$$$
