4f70_ligand
                    3D
 Schrodinger Suite 2020-3.
 59 61  0  0  1  0            999 V2000
   40.3670  -23.2770  102.2170 O   0  0  0  0  0  0
   40.7510  -22.1470  102.3700 C   0  0  0  0  0  0
   40.4270  -21.4030  103.5100 N   0  0  0  0  0  0
   39.5450  -21.8350  104.5590 C   0  0  0  0  0  0
   39.0660  -23.1090  104.8110 C   0  0  0  0  0  0
   38.1870  -23.0130  105.8690 C   0  0  0  0  0  0
   37.3620  -24.0890  106.5910 C   0  0  0  0  0  0
   35.9550  -23.4910  106.8900 C   0  0  0  0  0  0
   38.0900  -24.4400  107.9120 C   0  0  0  0  0  0
   37.2010  -25.3550  105.7120 C   0  0  0  0  0  0
   38.1650  -21.7210  106.2200 N   0  0  0  0  0  0
   38.9340  -21.0510  105.4850 N   0  0  0  0  0  0
   39.0020  -19.5940  105.6970 C   0  0  0  0  0  0
   39.0950  -19.0160  106.9670 C   0  0  0  0  0  0
   38.8820  -18.7790  104.5740 C   0  0  0  0  0  0
   38.9070  -17.4010  104.6940 C   0  0  0  0  0  0
   39.0190  -16.8240  105.9480 C   0  0  0  0  0  0
   39.0380  -15.3240  106.0410 C   0  0  0  0  0  0
   39.1130  -17.6300  107.0920 C   0  0  0  0  0  0
   41.5670  -21.6090  101.3850 N   0  0  0  0  0  0
   42.0220  -22.2980  100.1570 C   0  0  0  0  0  0
   41.7900  -21.4670   98.8910 C   0  0  0  0  0  0
   40.6950  -21.9870   98.0350 N   0  0  0  0  0  0
   39.3380  -21.8570   98.6110 C   0  0  0  0  0  0
   38.2920  -22.3660   97.6030 C   0  0  0  0  0  0
   38.3700  -21.6380   96.3710 O   0  0  0  0  0  0
   39.6350  -21.7540   95.7320 C   0  0  0  0  0  0
   40.7740  -21.3630   96.6950 C   0  0  0  0  0  0
   40.8597  -20.4021  103.6549 H   0  0  0  0  0  0
   39.3338  -24.0186  104.2733 H   0  0  0  0  0  0
   36.0639  -22.5917  107.5140 H   0  0  0  0  0  0
   35.3459  -24.2357  107.4232 H   0  0  0  0  0  0
   35.4618  -23.2234  105.9439 H   0  0  0  0  0  0
   38.1966  -23.5324  108.5243 H   0  0  0  0  0  0
   39.0859  -24.8479  107.6846 H   0  0  0  0  0  0
   37.5046  -25.1890  108.4654 H   0  0  0  0  0  0
   36.6829  -25.0898  104.7786 H   0  0  0  0  0  0
   36.6122  -26.1074  106.2572 H   0  0  0  0  0  0
   38.1936  -25.7664  105.4763 H   0  0  0  0  0  0
   39.1530  -19.6472  107.8537 H   0  0  0  0  0  0
   38.7671  -19.2321  103.5893 H   0  0  0  0  0  0
   38.8389  -16.7726  103.8060 H   0  0  0  0  0  0
   38.9531  -14.8930  105.0325 H   0  0  0  0  0  0
   39.9821  -14.9971  106.5012 H   0  0  0  0  0  0
   38.1927  -14.9841  106.6574 H   0  0  0  0  0  0
   39.2000  -17.1717  108.0771 H   0  0  0  0  0  0
   41.8776  -20.5722  101.5811 H   0  0  0  0  0  0
   43.0998  -22.5051  100.2307 H   0  0  0  0  0  0
   41.4737  -23.2448  100.0432 H   0  0  0  0  0  0
   41.5276  -20.4363   99.1719 H   0  0  0  0  0  0
   42.7074  -21.4594   98.2841 H   0  0  0  0  0  0
   39.2729  -22.4519   99.5339 H   0  0  0  0  0  0
   39.1370  -20.8003   98.8410 H   0  0  0  0  0  0
   38.4709  -23.4313   97.3954 H   0  0  0  0  0  0
   37.2841  -22.2389   98.0248 H   0  0  0  0  0  0
   39.7875  -22.7937   95.4067 H   0  0  0  0  0  0
   39.6664  -21.0878   94.8573 H   0  0  0  0  0  0
   40.7407  -20.2683   96.7978 H   0  0  0  0  0  0
   41.7157  -21.6571   96.2085 H   0  0  0  0  0  0
  1  2  2  0  0  0
  2  3  1  0  0  0
  2 20  1  0  0  0
  3  4  1  0  0  0
  3 29  1  0  0  0
  4  5  2  0  0  0
  4 12  1  0  0  0
  5  6  1  0  0  0
  5 30  1  0  0  0
  6  7  1  0  0  0
  6 11  2  0  0  0
  7  8  1  0  0  0
  7  9  1  0  0  0
  7 10  1  0  0  0
  8 31  1  0  0  0
  8 32  1  0  0  0
  8 33  1  0  0  0
  9 34  1  0  0  0
  9 35  1  0  0  0
  9 36  1  0  0  0
 10 37  1  0  0  0
 10 38  1  0  0  0
 10 39  1  0  0  0
 11 12  1  0  0  0
 12 13  1  0  0  0
 13 14  2  0  0  0
 13 15  1  0  0  0
 14 19  1  0  0  0
 14 40  1  0  0  0
 15 16  2  0  0  0
 15 41  1  0  0  0
 16 17  1  0  0  0
 16 42  1  0  0  0
 17 18  1  0  0  0
 17 19  2  0  0  0
 18 43  1  0  0  0
 18 44  1  0  0  0
 18 45  1  0  0  0
 19 46  1  0  0  0
 20 21  1  0  0  0
 20 47  1  0  0  0
 21 22  1  0  0  0
 21 48  1  0  0  0
 21 49  1  0  0  0
 22 23  1  0  0  0
 22 50  1  0  0  0
 22 51  1  0  0  0
 23 24  1  0  0  0
 23 28  1  0  0  0
 24 25  1  0  0  0
 24 52  1  0  0  0
 24 53  1  0  0  0
 25 26  1  0  0  0
 25 54  1  0  0  0
 25 55  1  0  0  0
 26 27  1  0  0  0
 27 28  1  0  0  0
 27 56  1  0  0  0
 27 57  1  0  0  0
 28 58  1  0  0  0
 28 59  1  0  0  0
M  END
> <s_m_source_file>
../4f70_ligand.sdf

> <i_m_source_file_index>
1

> <s_epik_input>
W0NIMl0xW0NIMl1PW0NIMl1bQ0gyXVtOSCtdMVtDSDJdW0NIMl1bTkhdQyg9TylbTkhdYzJbY0hdYyhDKFtDSDNdKShbQ0gzXSlbQ0gzXSlubjItYzNbY0hdW2NIXWMoW0NIM10pW2NIXVtjSF0z

> <s_epik_cmdline>
J2VwaWtfYXBwJywgJy1pbWFlJywgJ2xpZ2FuZF9wcm8ubWFlJywgJy1vbWFlJywgJ2xpZ2FuZF9wcmVwLm1hZScsICctbXMnLCAnMScsICctcGgnLCAnNycsICctcGh0JywgJzAuNScsICctbnQn

> <r_lp_tautomer_probability>
1

> <r_epik_Ionization_Penalty>
  0.2339

> <r_epik_Ionization_Penalty_Charging>
  0.0000

> <r_epik_Ionization_Penalty_Neutral>
  0.2339

> <r_epik_State_Penalty>
  0.2246

> <r_epik_Charging_Adjusted_Penalty>
0.224626619099806

> <i_epik_Tot_Q>
0

> <i_epik_Tot_abs_Q>
0

$$$$
