4f7j_ligand
                    3D
 Schrodinger Suite 2020-3.
 47 48  0  0  1  0            999 V2000
   -5.2160  -22.2110  150.6480 O   0  0  0  0  0  0
   -4.0980  -22.5990  150.8990 C   0  0  0  0  0  0
   -3.4460  -23.4450  150.0240 N   0  0  0  0  0  0
   -3.9650  -23.9470  148.7430 C   0  0  0  0  0  0
   -2.9340  -23.7590  147.6290 C   0  0  0  0  0  0
   -1.6930  -23.2380  148.1140 O   0  0  0  0  0  0
   -3.4160  -22.2680  152.0620 N   0  0  0  0  0  0
   -3.8570  -21.3780  153.0860 C   0  0  0  0  0  0
   -5.1320  -20.9000  153.3390 C   0  0  0  0  0  0
   -5.0040  -20.0280  154.3940 C   0  0  0  0  0  0
   -6.0880  -19.2050  155.0830 C   0  0  0  0  0  0
   -6.8110  -18.3300  154.0480 C   0  0  0  0  0  0
   -7.1150  -20.1170  155.7560 C   0  0  0  0  0  0
   -5.4260  -18.2980  156.1270 C   0  0  0  0  0  0
   -3.7080  -20.0080  154.7350 N   0  0  0  0  0  0
   -3.0540  -20.7910  153.9960 N   0  0  0  0  0  0
   -1.5930  -20.9110  154.1840 C   0  0  0  0  0  0
   -1.0880  -21.0480  155.4760 C   0  0  0  0  0  0
   -0.7010  -20.8160  153.1070 C   0  0  0  0  0  0
    0.6670  -20.8900  153.3170 C   0  0  0  0  0  0
    1.1630  -21.0460  154.6130 C   0  0  0  0  0  0
    2.6540  -21.1380  154.8630 C   0  0  0  0  0  0
    0.2790  -21.1190  155.6880 C   0  0  0  0  0  0
   -2.4438  -23.7427  150.3660 H   0  0  0  0  0  0
   -4.1960  -25.0185  148.8356 H   0  0  0  0  0  0
   -4.8794  -23.3965  148.4768 H   0  0  0  0  0  0
   -2.7306  -24.7283  147.1503 H   0  0  0  0  0  0
   -3.3273  -23.0556  146.8803 H   0  0  0  0  0  0
   -0.8631  -23.0546  147.4157 H   0  0  0  0  0  0
   -2.4290  -22.7090  152.2652 H   0  0  0  0  0  0
   -6.0486  -21.1615  152.8103 H   0  0  0  0  0  0
   -7.2893  -18.9729  153.2944 H   0  0  0  0  0  0
   -6.0838  -17.6672  153.5562 H   0  0  0  0  0  0
   -7.5776  -17.7233  154.5522 H   0  0  0  0  0  0
   -7.5836  -20.7629  154.9989 H   0  0  0  0  0  0
   -7.8871  -19.5032  156.2429 H   0  0  0  0  0  0
   -6.6129  -20.7408  156.5102 H   0  0  0  0  0  0
   -4.6899  -17.6468  155.6330 H   0  0  0  0  0  0
   -4.9195  -18.9171  156.8821 H   0  0  0  0  0  0
   -6.1937  -17.6794  156.6149 H   0  0  0  0  0  0
   -1.7719  -21.0995  156.3232 H   0  0  0  0  0  0
   -1.0863  -20.6828  152.0961 H   0  0  0  0  0  0
    1.3537  -20.8266  152.4729 H   0  0  0  0  0  0
    3.1916  -21.0620  153.9063 H   0  0  0  0  0  0
    2.8872  -22.1018  155.3391 H   0  0  0  0  0  0
    2.9661  -20.3170  155.5252 H   0  0  0  0  0  0
    0.6654  -21.2326  156.7009 H   0  0  0  0  0  0
  1  2  2  0  0  0
  2  3  1  0  0  0
  2  7  1  0  0  0
  3  4  1  0  0  0
  3 24  1  0  0  0
  4  5  1  0  0  0
  4 25  1  0  0  0
  4 26  1  0  0  0
  5  6  1  0  0  0
  5 27  1  0  0  0
  5 28  1  0  0  0
  6 29  1  0  0  0
  7  8  1  0  0  0
  7 30  1  0  0  0
  8  9  2  0  0  0
  8 16  1  0  0  0
  9 10  1  0  0  0
  9 31  1  0  0  0
 10 11  1  0  0  0
 10 15  2  0  0  0
 11 12  1  0  0  0
 11 13  1  0  0  0
 11 14  1  0  0  0
 12 32  1  0  0  0
 12 33  1  0  0  0
 12 34  1  0  0  0
 13 35  1  0  0  0
 13 36  1  0  0  0
 13 37  1  0  0  0
 14 38  1  0  0  0
 14 39  1  0  0  0
 14 40  1  0  0  0
 15 16  1  0  0  0
 16 17  1  0  0  0
 17 18  2  0  0  0
 17 19  1  0  0  0
 18 23  1  0  0  0
 18 41  1  0  0  0
 19 20  2  0  0  0
 19 42  1  0  0  0
 20 21  1  0  0  0
 20 43  1  0  0  0
 21 22  1  0  0  0
 21 23  2  0  0  0
 22 44  1  0  0  0
 22 45  1  0  0  0
 22 46  1  0  0  0
 23 47  1  0  0  0
M  END
> <s_m_source_file>
../4f7j_ligand.sdf

> <i_m_source_file_index>
1

> <s_epik_input>
W09IXVtDSDJdW0NIMl1bTkhdQyg9TylbTkhdYzFbY0hdYyhDKFtDSDNdKShbQ0gzXSlbQ0gzXSlubjEtYzJbY0hdW2NIXWMoW0NIM10pW2NIXVtjSF0y

> <s_epik_cmdline>
J2VwaWtfYXBwJywgJy1pbWFlJywgJ2xpZ2FuZF9wcm8ubWFlJywgJy1vbWFlJywgJ2xpZ2FuZF9wcmVwLm1hZScsICctbXMnLCAnMScsICctcGgnLCAnNycsICctcGh0JywgJzAuNScsICctbnQn

> <r_lp_tautomer_probability>
1

> <r_epik_Ionization_Penalty>
  0.0000

> <r_epik_Ionization_Penalty_Charging>
  0.0000

> <r_epik_Ionization_Penalty_Neutral>
  0.0000

> <r_epik_State_Penalty>
 -0.0000

> <r_epik_Charging_Adjusted_Penalty>
0

> <i_epik_Tot_Q>
0

> <i_epik_Tot_abs_Q>
0

$$$$
