4f7l_ligand
                    3D
 Schrodinger Suite 2020-3.
 66 67  0  0  1  0            999 V2000
   42.8730   60.0880  139.3480 O   0  0  0  0  0  0
   41.7040   59.8630  139.0640 C   0  0  0  0  0  0
   41.3280   59.6060  137.7730 O   0  0  0  0  0  0
   41.9550   58.6660  136.8970 C   0  0  0  0  0  0
   42.5540   59.4550  135.7390 C   0  0  0  0  0  0
   40.8970   57.6930  136.3810 C   0  0  0  0  0  0
   43.0460   57.8320  137.5780 C   0  0  0  0  0  0
   40.7210   59.8840  140.0380 N   0  0  0  0  0  0
   41.0040   60.1680  141.4510 C   0  0  0  0  0  0
   39.8630   59.8940  142.4470 C   0  0  0  0  0  0
   40.5000   59.7630  143.8260 C   0  0  0  0  0  0
   39.6550   59.2540  144.9280 N   0  0  0  0  0  0
   40.1510   58.3660  145.8590 C   0  0  0  0  0  0
   41.2840   57.9760  145.7390 O   0  0  0  0  0  0
   39.3630   57.9530  146.9050 N   0  0  0  0  0  0
   39.7020   57.0060  147.9290 C   0  0  0  0  0  0
   40.9680   56.5170  148.1890 C   0  0  0  0  0  0
   40.8520   55.6130  149.2120 C   0  0  0  0  0  0
   41.9910   54.8090  149.8250 C   0  0  0  0  0  0
   42.3790   55.3590  151.1910 C   0  0  0  0  0  0
   43.2270   54.7760  148.9050 C   0  0  0  0  0  0
   41.5090   53.3830  150.0490 C   0  0  0  0  0  0
   39.5470   55.5680  149.5530 N   0  0  0  0  0  0
   38.8970   56.3870  148.8260 N   0  0  0  0  0  0
   37.4420   56.5170  148.9530 C   0  0  0  0  0  0
   36.8180   56.6090  150.1890 C   0  0  0  0  0  0
   36.6700   56.4920  147.7880 C   0  0  0  0  0  0
   35.2900   56.5830  147.8460 C   0  0  0  0  0  0
   34.6680   56.6780  149.0860 C   0  0  0  0  0  0
   33.1670   56.7750  149.1410 C   0  0  0  0  0  0
   35.4310   56.6950  150.2590 C   0  0  0  0  0  0
   41.7662   60.0509  135.2550 H   0  0  0  0  0  0
   42.9889   58.7586  135.0070 H   0  0  0  0  0  0
   43.3392   60.1250  136.1192 H   0  0  0  0  0  0
   40.0932   58.2554  135.8835 H   0  0  0  0  0  0
   40.4788   57.1247  137.2249 H   0  0  0  0  0  0
   41.3570   56.9981  135.6630 H   0  0  0  0  0  0
   43.8301   58.4996  137.9647 H   0  0  0  0  0  0
   43.4845   57.1357  136.8480 H   0  0  0  0  0  0
   42.6063   57.2623  138.4099 H   0  0  0  0  0  0
   39.6905   59.6757  139.7145 H   0  0  0  0  0  0
   41.8509   59.5514  141.7864 H   0  0  0  0  0  0
   41.2564   61.2323  141.5677 H   0  0  0  0  0  0
   39.1489   60.7305  142.4257 H   0  0  0  0  0  0
   39.3468   58.9640  142.1665 H   0  0  0  0  0  0
   41.3523   59.0697  143.7718 H   0  0  0  0  0  0
   40.8507   60.7496  144.1631 H   0  0  0  0  0  0
   38.6092   59.5834  145.0164 H   0  0  0  0  0  0
   38.3476   58.3595  147.0226 H   0  0  0  0  0  0
   41.8876   56.7981  147.6758 H   0  0  0  0  0  0
   42.7361   56.3937  151.0817 H   0  0  0  0  0  0
   43.1785   54.7388  151.6224 H   0  0  0  0  0  0
   41.5026   55.3419  151.8556 H   0  0  0  0  0  0
   43.5853   55.8021  148.7353 H   0  0  0  0  0  0
   42.9553   54.3186  147.9422 H   0  0  0  0  0  0
   44.0225   54.1838  149.3808 H   0  0  0  0  0  0
   40.6260   53.3932  150.7050 H   0  0  0  0  0  0
   42.3099   52.7952  150.5213 H   0  0  0  0  0  0
   41.2427   52.9299  149.0827 H   0  0  0  0  0  0
   37.4127   56.6139  151.1025 H   0  0  0  0  0  0
   37.1619   56.3995  146.8197 H   0  0  0  0  0  0
   34.6981   56.5802  146.9307 H   0  0  0  0  0  0
   32.7599   56.7441  148.1196 H   0  0  0  0  0  0
   32.8781   57.7209  149.6224 H   0  0  0  0  0  0
   32.7661   55.9309  149.7212 H   0  0  0  0  0  0
   34.9385   56.7757  151.2280 H   0  0  0  0  0  0
  1  2  2  0  0  0
  2  3  1  0  0  0
  2  8  1  0  0  0
  3  4  1  0  0  0
  4  5  1  0  0  0
  4  6  1  0  0  0
  4  7  1  0  0  0
  5 32  1  0  0  0
  5 33  1  0  0  0
  5 34  1  0  0  0
  6 35  1  0  0  0
  6 36  1  0  0  0
  6 37  1  0  0  0
  7 38  1  0  0  0
  7 39  1  0  0  0
  7 40  1  0  0  0
  8  9  1  0  0  0
  8 41  1  0  0  0
  9 10  1  0  0  0
  9 42  1  0  0  0
  9 43  1  0  0  0
 10 11  1  0  0  0
 10 44  1  0  0  0
 10 45  1  0  0  0
 11 12  1  0  0  0
 11 46  1  0  0  0
 11 47  1  0  0  0
 12 13  1  0  0  0
 12 48  1  0  0  0
 13 14  2  0  0  0
 13 15  1  0  0  0
 15 16  1  0  0  0
 15 49  1  0  0  0
 16 17  2  0  0  0
 16 24  1  0  0  0
 17 18  1  0  0  0
 17 50  1  0  0  0
 18 19  1  0  0  0
 18 23  2  0  0  0
 19 20  1  0  0  0
 19 21  1  0  0  0
 19 22  1  0  0  0
 20 51  1  0  0  0
 20 52  1  0  0  0
 20 53  1  0  0  0
 21 54  1  0  0  0
 21 55  1  0  0  0
 21 56  1  0  0  0
 22 57  1  0  0  0
 22 58  1  0  0  0
 22 59  1  0  0  0
 23 24  1  0  0  0
 24 25  1  0  0  0
 25 26  2  0  0  0
 25 27  1  0  0  0
 26 31  1  0  0  0
 26 60  1  0  0  0
 27 28  2  0  0  0
 27 61  1  0  0  0
 28 29  1  0  0  0
 28 62  1  0  0  0
 29 30  1  0  0  0
 29 31  2  0  0  0
 30 63  1  0  0  0
 30 64  1  0  0  0
 30 65  1  0  0  0
 31 66  1  0  0  0
M  END
> <s_m_source_file>
../4f7l_ligand.sdf

> <i_m_source_file_index>
1

> <s_epik_input>
W0NIM11DKFtDSDNdKShbQ0gzXSlPQyg9TylbTkhdW0NIMl1bQ0gyXVtDSDJdW05IXUMoPU8pW05IXWMxW2NIXWMoQyhbQ0gzXSkoW0NIM10pW0NIM10pbm4xLWMyW2NIXVtjSF1jKFtDSDNdKVtjSF1bY0hdMg==

> <s_epik_cmdline>
J2VwaWtfYXBwJywgJy1pbWFlJywgJ2xpZ2FuZF9wcm8ubWFlJywgJy1vbWFlJywgJ2xpZ2FuZF9wcmVwLm1hZScsICctbXMnLCAnMScsICctcGgnLCAnNycsICctcGh0JywgJzAuNScsICctbnQn

> <r_lp_tautomer_probability>
1

> <r_epik_Ionization_Penalty>
  0.0000

> <r_epik_Ionization_Penalty_Charging>
  0.0000

> <r_epik_Ionization_Penalty_Neutral>
  0.0000

> <r_epik_State_Penalty>
 -0.0000

> <r_epik_Charging_Adjusted_Penalty>
0

> <i_epik_Tot_Q>
0

> <i_epik_Tot_abs_Q>
0

> <s_epik_Chemistry_Notes>
This compound has an ester and may undergo hydrolysis at high or low pH.

$$$$
