4f7n_ligand
                    3D
 Schrodinger Suite 2020-3.
 56 57  0  0  1  0            999 V2000
   -4.8150  -22.3490  153.9230 O   0  0  0  0  0  0
   -3.7150  -22.7900  154.1390 C   0  0  0  0  0  0
   -3.0820  -23.5990  153.1940 N   0  0  0  0  0  0
   -3.6460  -23.9680  151.8790 C   0  0  0  0  0  0
   -5.0570  -24.5550  151.8500 C   0  0  0  0  0  0
   -5.2900  -25.1200  150.4380 C   0  0  0  0  0  0
   -6.7820  -25.1610  150.0830 C   0  0  0  0  0  0
   -6.9460  -25.1560  148.5650 C   0  0  0  0  0  0
   -8.1970  -25.7420  148.2460 O   0  0  0  0  0  0
   -3.0670  -22.5610  155.3550 N   0  0  0  0  0  0
   -3.5030  -21.7010  156.4100 C   0  0  0  0  0  0
   -2.6850  -21.0650  157.2770 N   0  0  0  0  0  0
   -3.3230  -20.3000  158.0310 N   0  0  0  0  0  0
   -4.6270  -20.3650  157.7310 C   0  0  0  0  0  0
   -5.7470  -19.6000  158.4470 C   0  0  0  0  0  0
   -6.5470  -20.6170  159.2890 C   0  0  0  0  0  0
   -6.6760  -18.9640  157.3810 C   0  0  0  0  0  0
   -5.1710  -18.5140  159.3940 C   0  0  0  0  0  0
   -4.7880  -21.2620  156.6870 C   0  0  0  0  0  0
   -1.2240  -21.1580  157.3810 C   0  0  0  0  0  0
   -0.4470  -21.0520  156.2280 C   0  0  0  0  0  0
    0.9380  -21.1160  156.2970 C   0  0  0  0  0  0
    1.5550  -21.2590  157.5240 C   0  0  0  0  0  0
    3.0580  -21.3180  157.5690 C   0  0  0  0  0  0
    0.7840  -21.3450  158.6870 C   0  0  0  0  0  0
   -0.6060  -21.2860  158.6180 C   0  0  0  0  0  0
   -2.0894  -23.9692  153.4902 H   0  0  0  0  0  0
   -3.6911  -23.0765  151.2362 H   0  0  0  0  0  0
   -3.0073  -24.7288  151.4065 H   0  0  0  0  0  0
   -5.1377  -25.3530  152.6028 H   0  0  0  0  0  0
   -5.7879  -23.7641  152.0743 H   0  0  0  0  0  0
   -4.7756  -24.4867  149.7002 H   0  0  0  0  0  0
   -4.8925  -26.1442  150.3827 H   0  0  0  0  0  0
   -7.2324  -26.0753  150.4969 H   0  0  0  0  0  0
   -7.2845  -24.2798  150.5084 H   0  0  0  0  0  0
   -6.9114  -24.1204  148.1959 H   0  0  0  0  0  0
   -6.1317  -25.7361  148.1063 H   0  0  0  0  0  0
   -8.5091  -25.8344  147.1953 H   0  0  0  0  0  0
   -2.1174  -23.0701  155.5766 H   0  0  0  0  0  0
   -6.9615  -21.3936  158.6294 H   0  0  0  0  0  0
   -7.3679  -20.0992  159.8067 H   0  0  0  0  0  0
   -5.8816  -21.0828  160.0308 H   0  0  0  0  0  0
   -7.0715  -19.7515  156.7226 H   0  0  0  0  0  0
   -6.1050  -18.2386  156.7829 H   0  0  0  0  0  0
   -7.5105  -18.4508  157.8812 H   0  0  0  0  0  0
   -4.5164  -18.9880  160.1402 H   0  0  0  0  0  0
   -5.9969  -17.9982  159.9057 H   0  0  0  0  0  0
   -4.5914  -17.7860  158.8074 H   0  0  0  0  0  0
   -5.7153  -21.5557  156.1951 H   0  0  0  0  0  0
   -0.9327  -20.9174  155.2615 H   0  0  0  0  0  0
    1.5353  -21.0537  155.3874 H   0  0  0  0  0  0
    3.4590  -21.2325  156.5483 H   0  0  0  0  0  0
    3.3744  -22.2756  158.0082 H   0  0  0  0  0  0
    3.4392  -20.4890  158.1834 H   0  0  0  0  0  0
    1.2737  -21.4590  159.6541 H   0  0  0  0  0  0
   -1.2039  -21.3399  159.5278 H   0  0  0  0  0  0
  1  2  2  0  0  0
  2  3  1  0  0  0
  2 10  1  0  0  0
  3  4  1  0  0  0
  3 27  1  0  0  0
  4  5  1  0  0  0
  4 28  1  0  0  0
  4 29  1  0  0  0
  5  6  1  0  0  0
  5 30  1  0  0  0
  5 31  1  0  0  0
  6  7  1  0  0  0
  6 32  1  0  0  0
  6 33  1  0  0  0
  7  8  1  0  0  0
  7 34  1  0  0  0
  7 35  1  0  0  0
  8  9  1  0  0  0
  8 36  1  0  0  0
  8 37  1  0  0  0
  9 38  1  0  0  0
 10 11  1  0  0  0
 10 39  1  0  0  0
 11 12  1  0  0  0
 11 19  2  0  0  0
 12 13  1  0  0  0
 12 20  1  0  0  0
 13 14  2  0  0  0
 14 15  1  0  0  0
 14 19  1  0  0  0
 15 16  1  0  0  0
 15 17  1  0  0  0
 15 18  1  0  0  0
 16 40  1  0  0  0
 16 41  1  0  0  0
 16 42  1  0  0  0
 17 43  1  0  0  0
 17 44  1  0  0  0
 17 45  1  0  0  0
 18 46  1  0  0  0
 18 47  1  0  0  0
 18 48  1  0  0  0
 19 49  1  0  0  0
 20 21  2  0  0  0
 20 26  1  0  0  0
 21 22  1  0  0  0
 21 50  1  0  0  0
 22 23  2  0  0  0
 22 51  1  0  0  0
 23 24  1  0  0  0
 23 25  1  0  0  0
 24 52  1  0  0  0
 24 53  1  0  0  0
 24 54  1  0  0  0
 25 26  2  0  0  0
 25 55  1  0  0  0
 26 56  1  0  0  0
M  END
> <s_m_source_file>
../4f7n_ligand.sdf

> <i_m_source_file_index>
1

> <s_epik_input>
W09IXVtDSDJdW0NIMl1bQ0gyXVtDSDJdW0NIMl1bTkhdQyg9TylbTkhdYzFuKG5jKFtjSF0xKUMoW0NIM10pKFtDSDNdKVtDSDNdKS1jMltjSF1bY0hdYyhbQ0gzXSlbY0hdW2NIXTI=

> <s_epik_cmdline>
J2VwaWtfYXBwJywgJy1pbWFlJywgJ2xpZ2FuZF9wcm8ubWFlJywgJy1vbWFlJywgJ2xpZ2FuZF9wcmVwLm1hZScsICctbXMnLCAnMScsICctcGgnLCAnNycsICctcGh0JywgJzAuNScsICctbnQn

> <r_lp_tautomer_probability>
1

> <r_epik_Ionization_Penalty>
  0.0000

> <r_epik_Ionization_Penalty_Charging>
  0.0000

> <r_epik_Ionization_Penalty_Neutral>
  0.0000

> <r_epik_State_Penalty>
 -0.0000

> <r_epik_Charging_Adjusted_Penalty>
0

> <i_epik_Tot_Q>
0

> <i_epik_Tot_abs_Q>
0

$$$$
