4f8h_ligand
                    3D
 Schrodinger Suite 2020-3.
 33 34  0  0  1  0            999 V2000
   18.9420  -14.7160   22.4970 C   0  0  0  0  0  0
   19.2480  -16.0430   22.2610 C   0  0  0  0  0  0
   18.3510  -14.3100   23.6900 C   0  0  0  0  0  0
   18.9590  -16.9600   23.2510 C   0  0  0  0  0  0
   18.0410  -15.2350   24.6960 C   0  0  0  0  0  0
   18.3710  -16.5810   24.4510 C   0  0  0  0  0  0
   16.6390  -13.3660   25.7790 C   0  0  0  0  0  0
   15.2190  -13.5020   25.2770 C   0  0  0  0  0  0
   14.3820  -14.3170   26.3040 C   0  0  0  0  0  0
   14.9370  -15.7550   26.3370 C   0  0  0  0  0  0
   16.4330  -15.7540   26.7590 C   0  0  0  0  0  0
   17.3780  -14.7130   26.0180 C   0  0  1  0  0  0
   18.1340  -14.1240   28.3500 C   0  0  0  0  0  0
   18.4440  -14.4290   26.9600 N   0  3  0  0  0  0
   17.1450  -12.2810   25.9970 O   0  0  0  0  0  0
   18.0480  -17.9030   25.6710 Cl  0  0  0  0  0  0
   19.1682  -13.9721   21.7331 H   0  0  0  0  0  0
   19.7037  -16.3557   21.3215 H   0  0  0  0  0  0
   18.1255  -13.2548   23.8444 H   0  0  0  0  0  0
   19.1987  -18.0105   23.0868 H   0  0  0  0  0  0
   14.7763  -12.5026   25.1539 H   0  0  0  0  0  0
   15.2208  -14.0240   24.3087 H   0  0  0  0  0  0
   14.4687  -13.8535   27.2978 H   0  0  0  0  0  0
   13.3267  -14.3242   25.9936 H   0  0  0  0  0  0
   14.3630  -16.3530   27.0601 H   0  0  0  0  0  0
   14.8489  -16.2051   25.3372 H   0  0  0  0  0  0
   16.5114  -15.5208   27.8311 H   0  0  0  0  0  0
   16.8689  -16.7454   26.5666 H   0  0  0  0  0  0
   19.0675  -13.9389   28.9017 H   0  0  0  0  0  0
   17.6031  -14.9746   28.8024 H   0  0  0  0  0  0
   17.4973  -13.2281   28.3956 H   0  0  0  0  0  0
   19.1167  -15.2969   27.0250 H   0  0  0  0  0  0
   19.0109  -13.5505   26.6183 H   0  0  0  0  0  0
  1  2  2  0  0  0
  1  3  1  0  0  0
  1 17  1  0  0  0
  2  4  1  0  0  0
  2 18  1  0  0  0
  3  5  2  0  0  0
  3 19  1  0  0  0
  4  6  2  0  0  0
  4 20  1  0  0  0
  5  6  1  0  0  0
  5 12  1  0  0  0
  6 16  1  0  0  0
  7  8  1  0  0  0
  7 12  1  0  0  0
  7 15  2  0  0  0
  8  9  1  0  0  0
  8 21  1  0  0  0
  8 22  1  0  0  0
  9 10  1  0  0  0
  9 23  1  0  0  0
  9 24  1  0  0  0
 10 11  1  0  0  0
 10 25  1  0  0  0
 10 26  1  0  0  0
 11 12  1  0  0  0
 11 27  1  0  0  0
 11 28  1  0  0  0
 12 14  1  0  0  0
 13 14  1  0  0  0
 13 29  1  0  0  0
 13 30  1  0  0  0
 13 31  1  0  0  0
 14 32  1  0  0  0
 14 33  1  0  0  0
M  CHG  1  14   1
M  END
> <s_m_source_file>
../4f8h_ligand.sdf

> <i_m_source_file_index>
1

> <s_epik_input>
Q2xjMVtjSF1bY0hdW2NIXVtjSF1jMVtDQEBdMihbTkgyK11bQ0gzXSlDKD1PKVtDSDJdW0NIMl1bQ0gyXVtDSDJdMg==

> <s_epik_cmdline>
J2VwaWtfYXBwJywgJy1pbWFlJywgJ2xpZ2FuZF9wcm8ubWFlJywgJy1vbWFlJywgJ2xpZ2FuZF9wcmVwLm1hZScsICctbXMnLCAnMScsICctcGgnLCAnNycsICctcGh0JywgJzAuNScsICctbnQn

> <r_lp_tautomer_probability>
0.99995

> <r_epik_Ionization_Penalty>
  0.1145

> <r_epik_Ionization_Penalty_Charging>
  0.1145

> <r_epik_Ionization_Penalty_Neutral>
  0.0000

> <r_epik_State_Penalty>
  0.1041

> <r_epik_Charging_Adjusted_Penalty>
0.218584710989184

> <i_epik_Tot_Q>
1

> <i_epik_Tot_abs_Q>
1

$$$$
