4f8j_ligand
                    3D
 Schrodinger Suite 2020-3.
 19 19  0  0  1  0            999 V2000
   13.4750   45.3500   29.5800 C   0  0  0  0  0  0
   13.8040   46.4980   29.9150 O   0  0  0  0  0  0
   13.8430   44.3370   30.2400 O   0  5  0  0  0  0
   12.6480   45.0620   28.3760 C   0  0  0  0  0  0
   13.0750   44.1160   27.5410 C   0  0  0  0  0  0
   12.4460   43.8470   26.2110 C   0  0  0  0  0  0
   11.0730   44.0140   25.9430 C   0  0  0  0  0  0
   10.5820   43.8080   24.6630 C   0  0  0  0  0  0
   11.3870   43.4170   23.6100 C   0  0  0  0  0  0
   12.7410   43.2410   23.8700 C   0  0  0  0  0  0
   13.2250   43.4610   25.1470 C   0  0  0  0  0  0
   10.9230   43.1820   22.3380 O   0  0  0  0  0  0
   11.7126   45.6008   28.1646 H   0  0  0  0  0  0
   13.9324   43.4847   27.8172 H   0  0  0  0  0  0
   10.3946   44.3061   26.7446 H   0  0  0  0  0  0
    9.5184   43.9605   24.4798 H   0  0  0  0  0  0
   13.4170   42.9317   23.0729 H   0  0  0  0  0  0
   14.2918   43.3192   25.3202 H   0  0  0  0  0  0
    9.8554   43.3147   22.1087 H   0  0  0  0  0  0
  1  2  2  0  0  0
  1  3  1  0  0  0
  1  4  1  0  0  0
  4  5  2  0  0  0
  4 13  1  0  0  0
  5  6  1  0  0  0
  5 14  1  0  0  0
  6  7  2  0  0  0
  6 11  1  0  0  0
  7  8  1  0  0  0
  7 15  1  0  0  0
  8  9  2  0  0  0
  8 16  1  0  0  0
  9 10  1  0  0  0
  9 12  1  0  0  0
 10 11  2  0  0  0
 10 17  1  0  0  0
 11 18  1  0  0  0
 12 19  1  0  0  0
M  CHG  1   3  -1
M  END
> <s_m_source_file>
../4f8j_ligand.sdf

> <i_m_source_file_index>
1

> <s_epik_input>
Tz1DKFtPSF0pL1tDSF09W0NIXS9jMVtjSF1bY0hdYyhbT0hdKVtjSF1bY0hdMQ==

> <s_epik_cmdline>
J2VwaWtfYXBwJywgJy1pbWFlJywgJ2xpZ2FuZF9wcm8ubWFlJywgJy1vbWFlJywgJ2xpZ2FuZF9wcmVwLm1hZScsICctbXMnLCAnMScsICctcGgnLCAnNycsICctcGh0JywgJzAuNScsICctbnQn

> <r_lp_tautomer_probability>
1

> <r_epik_Ionization_Penalty>
  0.0030

> <r_epik_Ionization_Penalty_Charging>
  0.0025

> <r_epik_Ionization_Penalty_Neutral>
  0.0006

> <r_epik_State_Penalty>
 -0.0000

> <r_epik_Charging_Adjusted_Penalty>
0.00248694472537081

> <i_epik_Tot_Q>
-1

> <i_epik_Tot_abs_Q>
1

$$$$
