4f9g_ligand
                    3D
 Schrodinger Suite 2020-3.
 68 74  0  0  1  0            999 V2000
   12.8350    7.7190   12.5880 P   0  0  2  0  0  0
   11.7720    6.6180   12.8120 O   0  0  0  0  0  0
   13.5100    7.4720   11.1790 O   0  5  0  0  0  0
   13.9000    7.5670   13.7820 O   0  0  0  0  0  0
   13.6280    7.7150   15.0910 C   0  0  0  0  0  0
   14.8330    7.6180   15.9230 C   0  0  1  0  0  0
   15.6400    6.6120   15.4300 O   0  0  0  0  0  0
   15.7090    8.7640   15.7610 C   0  0  1  0  0  0
   15.2580    9.9090   16.4240 O   0  0  0  0  0  0
   16.9300    8.2950   16.2740 C   0  0  1  0  0  0
   16.9050    8.3300   17.6770 O   0  0  0  0  0  0
   16.9650    6.9000   15.7960 C   0  0  2  0  0  0
   17.7860    6.6490   14.6130 N   0  0  0  0  0  0
   17.2940    6.7150   13.3720 C   0  0  0  0  0  0
   18.2590    6.4250   12.4850 N   0  0  0  0  0  0
   19.3980    6.1730   13.1420 C   0  0  0  0  0  0
   20.6920    5.8180   12.7130 C   0  0  0  0  0  0
   20.9730    5.6950   11.3960 O   0  0  0  0  0  0
   21.6210    5.6060   13.6710 N   0  0  0  0  0  0
   21.3380    5.7230   14.9890 C   0  0  0  0  0  0
   22.3850    5.4730   15.9240 N   0  0  0  0  0  0
   20.1040    6.0670   15.4200 N   0  0  0  0  0  0
   19.1070    6.3040   14.5160 C   0  0  0  0  0  0
   15.4590   11.2850   15.7000 P   0  0  1  0  0  0
   15.6650   12.2470   16.7720 O   0  0  0  0  0  0
   16.7530   11.2520   14.7740 O   0  5  0  0  0  0
   14.1660   11.8450   14.8980 O   0  0  0  0  0  0
   13.0310   11.1320   14.5090 C   0  0  0  0  0  0
   12.5460   11.3470   13.1510 C   0  0  1  0  0  0
   13.2680   12.3780   12.4980 O   0  0  0  0  0  0
   12.8470   10.2610   12.2530 C   0  0  1  0  0  0
   12.0740    9.0840   12.5450 O   0  0  0  0  0  0
   12.4550   10.8340   11.0280 C   0  0  1  0  0  0
   11.0740   10.8730   11.0110 O   0  0  0  0  0  0
   13.0130   12.2260   11.1430 C   0  0  2  0  0  0
   14.2760   12.4970   10.4460 N   0  0  0  0  0  0
   15.4650   12.4830   11.0800 C   0  0  0  0  0  0
   16.4590   12.7790   10.2200 N   0  0  0  0  0  0
   15.9090   12.9900    8.9940 C   0  0  0  0  0  0
   16.4660   13.3300    7.7520 C   0  0  0  0  0  0
   17.7530   13.4970    7.5970 O   0  0  0  0  0  0
   15.6410   13.4840    6.7150 N   0  0  0  0  0  0
   14.3060   13.3290    6.8660 C   0  0  0  0  0  0
   13.5020   13.5320    5.7100 N   0  0  0  0  0  0
   13.7440   13.0040    8.0490 N   0  0  0  0  0  0
   14.5090   12.8200    9.1340 C   0  0  0  0  0  0
   13.1739    8.7023   15.2618 H   0  0  0  0  0  0
   12.9281    6.9292   15.4112 H   0  0  0  0  0  0
   14.5002    7.4530   16.9584 H   0  0  0  0  0  0
   15.7910    9.1275   14.7261 H   0  0  0  0  0  0
   17.7845    8.9237   15.9833 H   0  0  0  0  0  0
   16.8774    9.2959   18.2027 H   0  0  0  0  0  0
   17.3675    6.2608   16.5957 H   0  0  0  0  0  0
   16.2642    6.9665   13.1183 H   0  0  0  0  0  0
   22.6475    5.3281   13.3898 H   0  0  0  0  0  0
   23.3869    5.1935   15.5661 H   0  0  0  0  0  0
   22.1909    5.5597   17.0033 H   0  0  0  0  0  0
   13.2325   10.0532   14.5830 H   0  0  0  0  0  0
   12.1898   11.3939   15.1677 H   0  0  0  0  0  0
   11.4717   11.5393   13.2885 H   0  0  0  0  0  0
   13.8917    9.9175   12.2779 H   0  0  0  0  0  0
   12.7450   10.2566   10.1377 H   0  0  0  0  0  0
   10.4984    9.9391   10.9309 H   0  0  0  0  0  0
   12.2937   12.9520   10.7362 H   0  0  0  0  0  0
   15.6030   12.2633   12.1387 H   0  0  0  0  0  0
   16.0447   13.7397    5.7242 H   0  0  0  0  0  0
   13.9732   13.7966    4.7519 H   0  0  0  0  0  0
   12.4092   13.4244    5.7743 H   0  0  0  0  0  0
  1  2  2  0  0  0
  1  3  1  0  0  0
  1  4  1  0  0  0
  1 32  1  0  0  0
  4  5  1  0  0  0
  5  6  1  0  0  0
  5 47  1  0  0  0
  5 48  1  0  0  0
  6  7  1  0  0  0
  6  8  1  0  0  0
  6 49  1  0  0  0
  7 12  1  0  0  0
  8  9  1  0  0  0
  8 10  1  0  0  0
  8 50  1  0  0  0
  9 24  1  0  0  0
 10 11  1  0  0  0
 10 12  1  0  0  0
 10 51  1  0  0  0
 11 52  1  0  0  0
 12 13  1  0  0  0
 12 53  1  0  0  0
 13 14  1  0  0  0
 13 23  1  0  0  0
 14 15  2  0  0  0
 14 54  1  0  0  0
 15 16  1  0  0  0
 16 17  1  0  0  0
 16 23  2  0  0  0
 17 18  2  0  0  0
 17 19  1  0  0  0
 19 20  1  0  0  0
 19 55  1  0  0  0
 20 21  1  0  0  0
 20 22  2  0  0  0
 21 56  1  0  0  0
 21 57  1  0  0  0
 22 23  1  0  0  0
 24 25  2  0  0  0
 24 26  1  0  0  0
 24 27  1  0  0  0
 27 28  1  0  0  0
 28 29  1  0  0  0
 28 58  1  0  0  0
 28 59  1  0  0  0
 29 30  1  0  0  0
 29 31  1  0  0  0
 29 60  1  0  0  0
 30 35  1  0  0  0
 31 32  1  0  0  0
 31 33  1  0  0  0
 31 61  1  0  0  0
 33 34  1  0  0  0
 33 35  1  0  0  0
 33 62  1  0  0  0
 34 63  1  0  0  0
 35 36  1  0  0  0
 35 64  1  0  0  0
 36 37  1  0  0  0
 36 46  1  0  0  0
 37 38  2  0  0  0
 37 65  1  0  0  0
 38 39  1  0  0  0
 39 40  1  0  0  0
 39 46  2  0  0  0
 40 41  2  0  0  0
 40 42  1  0  0  0
 42 43  1  0  0  0
 42 66  1  0  0  0
 43 44  1  0  0  0
 43 45  2  0  0  0
 44 67  1  0  0  0
 44 68  1  0  0  0
 45 46  1  0  0  0
M  CHG  2   3  -1  26  -1
M  END
> <s_m_source_file>
../4f9g_ligand.sdf

> <i_m_source_file_index>
1

> <s_epik_input>
Tz1jMVtuSF1jKFtOSDJdKW5jKGMxMiluKFtjSF1uMilbQ0BIXShPMylbQ0BIXShbT0hdKVtDQEhdKE9bUEBAXSg9TykoW09IXSlPW0NIMl00KVtDQEhdM1tDSDJdT1tQQF0oPU8pKFtPSF0pT1tDQEhdKFtDQEBIXTQ1KVtDQEBIXShbT0hdKVtDQEBIXShPNSluKFtjSF1uNiljKGM2NyluYyhbTkgyXSlbbkhdYzc9Tw==

> <s_epik_cmdline>
J2VwaWtfYXBwJywgJy1pbWFlJywgJ2xpZ2FuZF9wcm8ubWFlJywgJy1vbWFlJywgJ2xpZ2FuZF9wcmVwLm1hZScsICctbXMnLCAnMScsICctcGgnLCAnNycsICctcGh0JywgJzAuNScsICctbnQn

> <r_lp_tautomer_probability>
1

> <r_epik_Ionization_Penalty>
  0.0042

> <r_epik_Ionization_Penalty_Charging>
  0.0040

> <r_epik_Ionization_Penalty_Neutral>
  0.0002

> <r_epik_State_Penalty>
 -0.0000

> <r_epik_Charging_Adjusted_Penalty>
0.00400193045734951

> <i_epik_Tot_Q>
-2

> <i_epik_Tot_abs_Q>
2

> <s_epik_Chemistry_Notes>
This compound contains an acetal/aminal-like group ( X-CH(R)-Y where X, Y are N, S, or O) that may be acid/base labile, releasing an aldehyde.

$$$$
