4f9u_ligand
                    3D
 Schrodinger Suite 2020-3.
 43 44  0  0  1  0            999 V2000
  -56.1110   17.3550  -33.2130 C   0  0  0  0  0  0
  -53.7000   18.4270  -38.2180 C   0  0  0  0  0  0
  -53.4900   25.2120  -36.2130 S   0  0  0  0  0  0
  -48.0070   22.0530  -30.2420 C   0  0  0  0  0  0
  -55.3370   21.2470  -34.3410 C   0  0  0  0  0  0
  -55.5800   19.9170  -33.9900 C   0  0  0  0  0  0
  -48.4610   22.7620  -31.2980 C   0  0  0  0  0  0
  -49.7690   23.1480  -29.6010 C   0  0  0  0  0  0
  -54.4440   20.4820  -36.4590 C   0  0  0  0  0  0
  -51.3320   23.5750  -32.5710 C   0  0  0  0  0  0
  -52.3190   24.4320  -33.3850 C   0  0  0  0  0  0
  -50.3670   24.3660  -31.6690 C   0  0  0  0  0  0
  -48.8170   22.3170  -29.2200 N   0  3  0  0  0  0
  -53.2000   23.4810  -34.1210 N   0  0  0  0  0  0
  -54.4960   22.7730  -35.9920 N   0  0  0  0  0  0
  -55.4980   17.5480  -34.5180 O   0  0  0  0  0  0
  -54.3740   18.1000  -36.9830 O   0  0  0  0  0  0
  -53.7070   23.6750  -35.3540 C   0  0  0  0  0  0
  -54.7610   21.5290  -35.5820 C   0  0  0  0  0  0
  -55.2590   18.8600  -34.8670 C   0  0  0  0  0  0
  -54.6840   19.1410  -36.1250 C   0  0  0  0  0  0
  -49.5300   23.4440  -30.8740 N   0  0  0  0  0  0
  -56.2582   16.2800  -33.0325 H   0  0  0  0  0  0
  -57.0836   17.8681  -33.1853 H   0  0  0  0  0  0
  -55.4547   17.7710  -32.4345 H   0  0  0  0  0  0
  -53.5203   17.5063  -38.7925 H   0  0  0  0  0  0
  -52.7389   18.9127  -37.9937 H   0  0  0  0  0  0
  -54.3276   19.1110  -38.8082 H   0  0  0  0  0  0
  -47.1416   21.3905  -30.2294 H   0  0  0  0  0  0
  -55.5936   22.0545  -33.6553 H   0  0  0  0  0  0
  -56.0256   19.6920  -33.0211 H   0  0  0  0  0  0
  -48.0376   22.7756  -32.3023 H   0  0  0  0  0  0
  -50.5916   23.5194  -28.9899 H   0  0  0  0  0  0
  -53.9992   20.7164  -37.4261 H   0  0  0  0  0  0
  -51.8930   22.8970  -31.9110 H   0  0  0  0  0  0
  -50.7067   22.9847  -33.2570 H   0  0  0  0  0  0
  -52.9065   25.0631  -32.7019 H   0  0  0  0  0  0
  -51.7597   25.0707  -34.0844 H   0  0  0  0  0  0
  -49.7139   24.9941  -32.2927 H   0  0  0  0  0  0
  -50.9450   25.0044  -30.9846 H   0  0  0  0  0  0
  -54.9858   23.0435  -36.9390 H   0  0  0  0  0  0
  -53.4874   22.5260  -33.6570 H   0  0  0  0  0  0
  -48.6318   21.8566  -28.2383 H   0  0  0  0  0  0
  1 16  1  0  0  0
  1 23  1  0  0  0
  1 24  1  0  0  0
  1 25  1  0  0  0
  2 17  1  0  0  0
  2 26  1  0  0  0
  2 27  1  0  0  0
  2 28  1  0  0  0
  3 18  2  0  0  0
  4  7  2  0  0  0
  4 13  1  0  0  0
  4 29  1  0  0  0
  5  6  2  0  0  0
  5 19  1  0  0  0
  5 30  1  0  0  0
  6 20  1  0  0  0
  6 31  1  0  0  0
  7 22  1  0  0  0
  7 32  1  0  0  0
  8 13  2  0  0  0
  8 22  1  0  0  0
  8 33  1  0  0  0
  9 19  2  0  0  0
  9 21  1  0  0  0
  9 34  1  0  0  0
 10 11  1  0  0  0
 10 12  1  0  0  0
 10 35  1  0  0  0
 10 36  1  0  0  0
 11 14  1  0  0  0
 11 37  1  0  0  0
 11 38  1  0  0  0
 12 22  1  0  0  0
 12 39  1  0  0  0
 12 40  1  0  0  0
 13 43  1  0  0  0
 14 18  1  0  0  0
 14 42  1  0  0  0
 15 18  1  0  0  0
 15 19  1  0  0  0
 15 41  1  0  0  0
 16 20  1  0  0  0
 17 21  1  0  0  0
 20 21  2  0  0  0
M  CHG  1  13   1
M  END
> <s_m_source_file>
../4f9u_ligand.sdf

> <i_m_source_file_index>
1

> <s_epik_input>
W0NIM11PYyhbY0hdMSljKE9bQ0gzXSlbY0hdW2NIXWMxW05IXUMoXFtTSF0pPU5cW0NIMl1bQ0gyXVtDSDJdbjJbY0hdW2NIXW5bY0hdMg==

> <s_epik_cmdline>
J2VwaWtfYXBwJywgJy1pbWFlJywgJ2xpZ2FuZF9wcm8ubWFlJywgJy1vbWFlJywgJ2xpZ2FuZF9wcmVwLm1hZScsICctbXMnLCAnMScsICctcGgnLCAnNycsICctcGh0JywgJzAuNScsICctbnQn

> <r_lp_tautomer_probability>
1

> <r_epik_Ionization_Penalty>
  0.2758

> <r_epik_Ionization_Penalty_Charging>
  0.0000

> <r_epik_Ionization_Penalty_Neutral>
  0.2758

> <r_epik_State_Penalty>
  0.2682

> <r_epik_Charging_Adjusted_Penalty>
0.268168672500128

> <i_epik_Tot_Q>
1

> <i_epik_Tot_abs_Q>
1

$$$$
