4f9v_ligand
                    3D
 Schrodinger Suite 2020-3.
 43 44  0  0  1  0            999 V2000
   10.6100  138.7110  -18.9940 C   0  0  0  0  0  0
   15.7020  136.9410  -18.3690 C   0  0  0  0  0  0
   14.6340  136.8130  -11.3040 S   0  0  0  0  0  0
    8.0210  131.5800  -14.1040 C   0  0  0  0  0  0
   12.2100  138.4820  -15.0550 C   0  0  0  0  0  0
   11.6730  138.5980  -16.3500 C   0  0  0  0  0  0
    9.2110  131.9000  -13.5210 C   0  0  0  0  0  0
    7.7020  133.2020  -12.6720 C   0  0  0  0  0  0
   14.2280  137.5480  -16.0430 C   0  0  0  0  0  0
   10.8980  134.4090  -12.7100 C   0  0  0  0  0  0
   11.7890  135.3760  -11.9200 C   0  0  0  0  0  0
   10.0340  133.5180  -11.8160 C   0  0  0  0  0  0
    7.0860  132.4030  -13.5640 N   0  3  0  0  0  0
   12.4700  136.2820  -12.8650 N   0  0  0  0  0  0
   14.1200  137.7560  -13.6840 N   0  0  0  0  0  0
   11.9750  138.2940  -18.7630 O   0  0  0  0  0  0
   14.3320  137.3420  -18.4550 O   0  0  0  0  0  0
   13.6530  136.9510  -12.7090 C   0  0  0  0  0  0
   13.4950  137.9490  -14.9220 C   0  0  0  0  0  0
   12.4260  138.1980  -17.4610 C   0  0  0  0  0  0
   13.6770  137.6810  -17.3080 C   0  0  0  0  0  0
    8.9970  132.8810  -12.6340 N   0  0  0  0  0  0
   10.4123  138.7357  -20.0758 H   0  0  0  0  0  0
   10.4564  139.7144  -18.5702 H   0  0  0  0  0  0
    9.9229  138.0002  -18.5118 H   0  0  0  0  0  0
   16.0783  136.7032  -19.3749 H   0  0  0  0  0  0
   15.7841  136.0515  -17.7271 H   0  0  0  0  0  0
   16.2974  137.7598  -17.9388 H   0  0  0  0  0  0
    7.8526  130.8114  -14.8584 H   0  0  0  0  0  0
   11.6406  138.7985  -14.1811 H   0  0  0  0  0  0
   10.6693  138.9998  -16.4889 H   0  0  0  0  0  0
   10.1731  131.4365  -13.7394 H   0  0  0  0  0  0
    7.2227  133.9813  -12.0795 H   0  0  0  0  0  0
   15.2285  137.1325  -15.9228 H   0  0  0  0  0  0
   10.2212  134.9824  -13.3605 H   0  0  0  0  0  0
   11.5278  133.7502  -13.3259 H   0  0  0  0  0  0
   11.1688  135.9619  -11.2257 H   0  0  0  0  0  0
   12.5363  134.8039  -11.3505 H   0  0  0  0  0  0
   10.6637  132.7462  -11.3493 H   0  0  0  0  0  0
    9.5637  134.1305  -11.0327 H   0  0  0  0  0  0
   12.0203  136.4920  -13.8467 H   0  0  0  0  0  0
   15.0542  138.3169  -13.5337 H   0  0  0  0  0  0
    6.0367  132.3293  -13.8858 H   0  0  0  0  0  0
  1 16  1  0  0  0
  1 23  1  0  0  0
  1 24  1  0  0  0
  1 25  1  0  0  0
  2 17  1  0  0  0
  2 26  1  0  0  0
  2 27  1  0  0  0
  2 28  1  0  0  0
  3 18  2  0  0  0
  4  7  2  0  0  0
  4 13  1  0  0  0
  4 29  1  0  0  0
  5  6  2  0  0  0
  5 19  1  0  0  0
  5 30  1  0  0  0
  6 20  1  0  0  0
  6 31  1  0  0  0
  7 22  1  0  0  0
  7 32  1  0  0  0
  8 13  2  0  0  0
  8 22  1  0  0  0
  8 33  1  0  0  0
  9 19  2  0  0  0
  9 21  1  0  0  0
  9 34  1  0  0  0
 10 11  1  0  0  0
 10 12  1  0  0  0
 10 35  1  0  0  0
 10 36  1  0  0  0
 11 14  1  0  0  0
 11 37  1  0  0  0
 11 38  1  0  0  0
 12 22  1  0  0  0
 12 39  1  0  0  0
 12 40  1  0  0  0
 13 43  1  0  0  0
 14 18  1  0  0  0
 14 41  1  0  0  0
 15 18  1  0  0  0
 15 19  1  0  0  0
 15 42  1  0  0  0
 16 20  1  0  0  0
 17 21  1  0  0  0
 20 21  2  0  0  0
M  CHG  1  13   1
M  END
> <s_m_source_file>
../4f9v_ligand.sdf

> <i_m_source_file_index>
1

> <s_epik_input>
W0NIM11PYyhbY0hdMSljKE9bQ0gzXSlbY0hdW2NIXWMxW05IXUMoPVMpW05IXVtDSDJdW0NIMl1bQ0gyXW4yW2NIXVtjSF1uW2NIXTI=

> <s_epik_cmdline>
J2VwaWtfYXBwJywgJy1pbWFlJywgJ2xpZ2FuZF9wcm8ubWFlJywgJy1vbWFlJywgJ2xpZ2FuZF9wcmVwLm1hZScsICctbXMnLCAnMScsICctcGgnLCAnNycsICctcGh0JywgJzAuNScsICctbnQn

> <r_lp_tautomer_probability>
1

> <r_epik_Ionization_Penalty>
  0.2758

> <r_epik_Ionization_Penalty_Charging>
  0.0000

> <r_epik_Ionization_Penalty_Neutral>
  0.2758

> <r_epik_State_Penalty>
  0.2682

> <r_epik_Charging_Adjusted_Penalty>
0.268168672500128

> <i_epik_Tot_Q>
1

> <i_epik_Tot_abs_Q>
1

$$$$
