4f9y_ligand
                    3D
 Schrodinger Suite 2020-3.
 43 46  0  0  1  0            999 V2000
    0.2430    5.3280   21.5170 C   0  0  0  0  0  0
   -0.2050    4.0720   22.1340 N   0  0  0  0  0  0
    0.5200    3.7940   23.3790 C   0  0  0  0  0  0
   -1.2160    3.2600   21.5550 C   0  0  0  0  0  0
   -1.9120    3.8000   20.5110 N   0  0  0  0  0  0
   -2.8610    3.1610   19.9150 N   0  0  0  0  0  0
   -3.2060    1.8740   20.2530 C   0  0  0  0  0  0
   -2.5790    1.2630   21.3350 C   0  0  0  0  0  0
   -2.8760   -0.1360   21.7570 C   0  0  0  0  0  0
   -3.1130   -0.4700   23.0750 C   0  0  0  0  0  0
   -3.3350   -1.8000   23.4020 C   0  0  0  0  0  0
   -3.3100   -2.7890   22.4330 N   0  0  0  0  0  0
   -3.0640   -2.4590   21.1040 C   0  0  0  0  0  0
   -2.8380   -1.1330   20.7870 C   0  0  0  0  0  0
   -1.5530    1.9650   21.9730 C   0  0  0  0  0  0
   -4.3310    1.3010   19.4890 C   0  0  0  0  0  0
   -4.3270    1.1010   18.1350 C   0  0  0  0  0  0
   -3.2290    1.3990   17.3530 C   0  0  0  0  0  0
   -3.2770    1.1420   15.9890 C   0  0  0  0  0  0
   -4.4140    0.6240   15.4120 C   0  0  0  0  0  0
   -5.5320    0.3300   16.1770 C   0  0  0  0  0  0
   -5.4780    0.5770   17.5360 C   0  0  0  0  0  0
   -6.5810    0.2790   18.2800 C   0  0  0  0  0  0
   -6.5930    0.5070   19.6260 C   0  0  0  0  0  0
   -5.4720    1.0100   20.2180 C   0  0  0  0  0  0
    1.0284    5.7823   22.1389 H   0  0  0  0  0  0
   -0.6076    6.0208   21.4366 H   0  0  0  0  0  0
    0.6436    5.1211   20.5136 H   0  0  0  0  0  0
    1.2412    4.6019   23.5715 H   0  0  0  0  0  0
    1.0564    2.8382   23.2853 H   0  0  0  0  0  0
   -0.1942    3.7334   24.2135 H   0  0  0  0  0  0
   -3.1256    0.2992   23.8471 H   0  0  0  0  0  0
   -3.5324   -2.0710   24.4392 H   0  0  0  0  0  0
   -3.0499   -3.2278   20.3314 H   0  0  0  0  0  0
   -2.6250   -0.8618   19.7530 H   0  0  0  0  0  0
   -1.0123    1.5037   22.7994 H   0  0  0  0  0  0
   -2.3343    1.8312   17.8011 H   0  0  0  0  0  0
   -2.4054    1.3527   15.3693 H   0  0  0  0  0  0
   -4.4357    0.4422   14.3375 H   0  0  0  0  0  0
   -6.4299   -0.0849   15.7191 H   0  0  0  0  0  0
   -7.4608   -0.1449   17.7960 H   0  0  0  0  0  0
   -7.4829    0.2908   20.2172 H   0  0  0  0  0  0
   -5.4742    1.1877   21.2934 H   0  0  0  0  0  0
  1  2  1  0  0  0
  1 26  1  0  0  0
  1 27  1  0  0  0
  1 28  1  0  0  0
  2  3  1  0  0  0
  2  4  1  0  0  0
  3 29  1  0  0  0
  3 30  1  0  0  0
  3 31  1  0  0  0
  4  5  2  0  0  0
  4 15  1  0  0  0
  5  6  1  0  0  0
  6  7  2  0  0  0
  7  8  1  0  0  0
  7 16  1  0  0  0
  8  9  1  0  0  0
  8 15  2  0  0  0
  9 10  2  0  0  0
  9 14  1  0  0  0
 10 11  1  0  0  0
 10 32  1  0  0  0
 11 12  2  0  0  0
 11 33  1  0  0  0
 12 13  1  0  0  0
 13 14  2  0  0  0
 13 34  1  0  0  0
 14 35  1  0  0  0
 15 36  1  0  0  0
 16 17  2  0  0  0
 16 25  1  0  0  0
 17 18  1  0  0  0
 17 22  1  0  0  0
 18 19  2  0  0  0
 18 37  1  0  0  0
 19 20  1  0  0  0
 19 38  1  0  0  0
 20 21  2  0  0  0
 20 39  1  0  0  0
 21 22  1  0  0  0
 21 40  1  0  0  0
 22 23  2  0  0  0
 23 24  1  0  0  0
 23 41  1  0  0  0
 24 25  2  0  0  0
 24 42  1  0  0  0
 25 43  1  0  0  0
M  END
> <s_m_source_file>
../4f9y_ligand.sdf

> <i_m_source_file_index>
1

> <s_epik_input>
W2NIXTFbY0hdbltjSF1bY0hdYzEtYyhbY0hdMiljKG5uYzJOKFtDSDNdKVtDSDNdKS1jM1tjSF1bY0hdW2NIXWMoYzM0KVtjSF1bY0hdW2NIXVtjSF00

> <s_epik_cmdline>
J2VwaWtfYXBwJywgJy1pbWFlJywgJ2xpZ2FuZF9wcm8ubWFlJywgJy1vbWFlJywgJ2xpZ2FuZF9wcmVwLm1hZScsICctbXMnLCAnMScsICctcGgnLCAnNycsICctcGh0JywgJzAuNScsICctbnQn

> <r_lp_tautomer_probability>
1

> <r_epik_Ionization_Penalty>
  0.0157

> <r_epik_Ionization_Penalty_Charging>
  0.0000

> <r_epik_Ionization_Penalty_Neutral>
  0.0157

> <r_epik_State_Penalty>
 -0.0000

> <r_epik_Charging_Adjusted_Penalty>
0

> <i_epik_Tot_Q>
0

> <i_epik_Tot_abs_Q>
0

$$$$
