4fai_ligand
                    3D
 Schrodinger Suite 2020-3.
 43 44  0  0  1  0            999 V2000
  -34.7200   -5.6950   44.3660 C   0  0  0  0  0  0
  -31.6240   -8.4640   40.5860 C   0  0  0  0  0  0
  -30.4340   -2.0740   37.7490 S   0  0  0  0  0  0
  -26.9410   -0.9490   45.7900 C   0  0  0  0  0  0
  -33.1000   -3.7220   41.2240 C   0  0  0  0  0  0
  -33.5560   -4.4080   42.3320 C   0  0  0  0  0  0
  -26.9320   -1.1990   44.4710 C   0  0  0  0  0  0
  -28.3730    0.3960   44.8330 C   0  0  0  0  0  0
  -32.1700   -5.7550   40.3660 C   0  0  0  0  0  0
  -28.9590   -1.4940   42.0160 C   0  0  0  0  0  0
  -29.3340   -1.5310   40.5200 C   0  0  0  0  0  0
  -28.1260   -0.2880   42.4230 C   0  0  0  0  0  0
  -27.8400    0.0530   46.0170 N   0  3  0  0  0  0
  -30.3760   -2.5360   40.3740 N   0  0  0  0  0  0
  -31.9320   -3.7580   39.1530 N   0  0  0  0  0  0
  -33.8050   -6.4900   43.5420 O   0  0  0  0  0  0
  -32.4270   -7.8090   41.6080 O   0  0  0  0  0  0
  -30.9600   -2.8380   39.2050 C   0  0  0  0  0  0
  -32.3850   -4.3940   40.2400 C   0  0  0  0  0  0
  -33.3360   -5.7840   42.4600 C   0  0  0  0  0  0
  -32.6390   -6.4590   41.4630 C   0  0  0  0  0  0
  -27.8180   -0.3600   43.8870 N   0  0  0  0  0  0
  -35.0674   -6.3002   45.2163 H   0  0  0  0  0  0
  -35.5837   -5.3846   43.7596 H   0  0  0  0  0  0
  -34.1955   -4.8035   44.7405 H   0  0  0  0  0  0
  -31.5331   -9.5346   40.8215 H   0  0  0  0  0  0
  -30.6232   -8.0084   40.5582 H   0  0  0  0  0  0
  -32.1089   -8.3440   39.6060 H   0  0  0  0  0  0
  -26.3386   -1.4552   46.5443 H   0  0  0  0  0  0
  -33.3004   -2.6555   41.1213 H   0  0  0  0  0  0
  -34.0928   -3.8724   43.1150 H   0  0  0  0  0  0
  -26.3206   -1.9442   43.9621 H   0  0  0  0  0  0
  -29.1310    1.1628   44.6732 H   0  0  0  0  0  0
  -31.6208   -6.2836   39.5868 H   0  0  0  0  0  0
  -29.8758   -1.4715   42.6234 H   0  0  0  0  0  0
  -28.3732   -2.3899   42.2695 H   0  0  0  0  0  0
  -29.6992   -0.5411   40.2090 H   0  0  0  0  0  0
  -28.4473   -1.7979   39.9262 H   0  0  0  0  0  0
  -27.1859   -0.2821   41.8519 H   0  0  0  0  0  0
  -28.6883    0.6338   42.2130 H   0  0  0  0  0  0
  -30.7262   -3.0969   41.2531 H   0  0  0  0  0  0
  -32.3921   -4.0181   38.1883 H   0  0  0  0  0  0
  -28.0044    0.4231   47.0397 H   0  0  0  0  0  0
  1 16  1  0  0  0
  1 23  1  0  0  0
  1 24  1  0  0  0
  1 25  1  0  0  0
  2 17  1  0  0  0
  2 26  1  0  0  0
  2 27  1  0  0  0
  2 28  1  0  0  0
  3 18  2  0  0  0
  4  7  2  0  0  0
  4 13  1  0  0  0
  4 29  1  0  0  0
  5  6  2  0  0  0
  5 19  1  0  0  0
  5 30  1  0  0  0
  6 20  1  0  0  0
  6 31  1  0  0  0
  7 22  1  0  0  0
  7 32  1  0  0  0
  8 13  2  0  0  0
  8 22  1  0  0  0
  8 33  1  0  0  0
  9 19  2  0  0  0
  9 21  1  0  0  0
  9 34  1  0  0  0
 10 11  1  0  0  0
 10 12  1  0  0  0
 10 35  1  0  0  0
 10 36  1  0  0  0
 11 14  1  0  0  0
 11 37  1  0  0  0
 11 38  1  0  0  0
 12 22  1  0  0  0
 12 39  1  0  0  0
 12 40  1  0  0  0
 13 43  1  0  0  0
 14 18  1  0  0  0
 14 41  1  0  0  0
 15 18  1  0  0  0
 15 19  1  0  0  0
 15 42  1  0  0  0
 16 20  1  0  0  0
 17 21  1  0  0  0
 20 21  2  0  0  0
M  CHG  1  13   1
M  END
> <s_m_source_file>
../4fai_ligand.sdf

> <i_m_source_file_index>
1

> <s_epik_input>
W0NIM11PYyhbY0hdMSljKE9bQ0gzXSlbY0hdW2NIXWMxW05IXUMoPVMpW05IXVtDSDJdW0NIMl1bQ0gyXW4yW2NIXVtjSF1uW2NIXTI=

> <s_epik_cmdline>
J2VwaWtfYXBwJywgJy1pbWFlJywgJ2xpZ2FuZF9wcm8ubWFlJywgJy1vbWFlJywgJ2xpZ2FuZF9wcmVwLm1hZScsICctbXMnLCAnMScsICctcGgnLCAnNycsICctcGh0JywgJzAuNScsICctbnQn

> <r_lp_tautomer_probability>
1

> <r_epik_Ionization_Penalty>
  0.2758

> <r_epik_Ionization_Penalty_Charging>
  0.0000

> <r_epik_Ionization_Penalty_Neutral>
  0.2758

> <r_epik_State_Penalty>
  0.2682

> <r_epik_Charging_Adjusted_Penalty>
0.268168672500128

> <i_epik_Tot_Q>
1

> <i_epik_Tot_abs_Q>
1

$$$$
