4fak_ligand
                    3D
 Schrodinger Suite 2020-3.
 50 52  0  0  1  0            999 V2000
   -3.6230   -7.0800   -0.9520 N   0  3  0  0  0  0
   -4.7070   -7.6800   -0.1000 C   0  0  2  0  0  0
   -5.3940   -6.5460    0.7550 C   0  0  0  0  0  0
   -4.8220   -5.4040    0.4910 O   0  0  0  0  0  0
   -6.4470   -6.8420    1.6280 O   0  5  0  0  0  0
   -4.1110   -8.8180    0.8110 C   0  0  0  0  0  0
   -5.1280   -9.5420    1.7270 C   0  0  0  0  0  0
   -4.6490  -10.8920    2.9110 S   0  0  2  0  0  0
   -3.3020  -11.8830    2.1000 C   0  0  0  0  0  0
   -6.0770  -11.9940    3.1110 C   0  0  0  0  0  0
   -7.0570  -11.5480    4.1980 C   0  0  1  0  0  0
   -6.4950  -11.6980    5.4570 O   0  0  0  0  0  0
   -7.4270  -10.0700    4.1090 C   0  0  1  0  0  0
   -8.5250   -9.9530    3.2840 O   0  0  0  0  0  0
   -7.7260   -9.7030    5.5660 C   0  0  1  0  0  0
   -9.0500   -9.9480    5.8840 O   0  0  0  0  0  0
   -6.8140  -10.6490    6.3460 C   0  0  2  0  0  0
   -5.5700   -9.9140    6.8370 N   0  0  0  0  0  0
   -4.2630  -10.1720    6.4760 C   0  0  0  0  0  0
   -3.4510   -9.3540    7.1060 N   0  0  0  0  0  0
   -4.1990   -8.5610    7.8900 C   0  0  0  0  0  0
   -3.9220   -7.5140    8.8010 C   0  0  0  0  0  0
   -2.6680   -7.0740    9.0770 N   0  0  0  0  0  0
   -4.9810   -6.9040    9.4630 N   0  0  0  0  0  0
   -6.2680   -7.2560    9.2560 C   0  0  0  0  0  0
   -6.5310   -8.2410    8.3730 N   0  0  0  0  0  0
   -5.5370   -8.9020    7.6950 C   0  0  0  0  0  0
   -4.0498   -6.2871   -1.5837 H   0  0  0  0  0  0
   -3.1839   -7.8609   -1.5903 H   0  0  0  0  0  0
   -2.8423   -6.6532   -0.3052 H   0  0  0  0  0  0
   -5.4474   -8.1244   -0.7815 H   0  0  0  0  0  0
   -3.6571   -9.5946    0.1778 H   0  0  0  0  0  0
   -3.3445   -8.3923    1.4752 H   0  0  0  0  0  0
   -5.6097   -8.8092    2.3911 H   0  0  0  0  0  0
   -5.8927  -10.0346    1.1085 H   0  0  0  0  0  0
   -2.4140  -11.2490    1.9599 H   0  0  0  0  0  0
   -3.6516  -12.2456    1.1221 H   0  0  0  0  0  0
   -3.0431  -12.7409    2.7380 H   0  0  0  0  0  0
   -6.6385  -12.0417    2.1663 H   0  0  0  0  0  0
   -5.7277  -13.0015    3.3812 H   0  0  0  0  0  0
   -7.9345  -12.2084    4.1359 H   0  0  0  0  0  0
   -6.7213   -9.3870    3.6136 H   0  0  0  0  0  0
   -8.4361  -10.1891    2.2133 H   0  0  0  0  0  0
   -7.6484   -8.6338    5.8124 H   0  0  0  0  0  0
   -9.8477   -9.3554    5.4122 H   0  0  0  0  0  0
   -7.2956  -11.1165    7.2175 H   0  0  0  0  0  0
   -3.9503  -10.9422    5.7710 H   0  0  0  0  0  0
   -1.8021   -7.5300    8.5747 H   0  0  0  0  0  0
   -2.5176   -6.2614    9.8030 H   0  0  0  0  0  0
   -7.0757   -6.7557    9.7902 H   0  0  0  0  0  0
  1  2  1  0  0  0
  1 28  1  0  0  0
  1 29  1  0  0  0
  1 30  1  0  0  0
  2  3  1  0  0  0
  2  6  1  0  0  0
  2 31  1  0  0  0
  3  4  2  0  0  0
  3  5  1  0  0  0
  6  7  1  0  0  0
  6 32  1  0  0  0
  6 33  1  0  0  0
  7  8  1  0  0  0
  7 34  1  0  0  0
  7 35  1  0  0  0
  8  9  1  0  0  0
  8 10  1  0  0  0
  9 36  1  0  0  0
  9 37  1  0  0  0
  9 38  1  0  0  0
 10 11  1  0  0  0
 10 39  1  0  0  0
 10 40  1  0  0  0
 11 12  1  0  0  0
 11 13  1  0  0  0
 11 41  1  0  0  0
 12 17  1  0  0  0
 13 14  1  0  0  0
 13 15  1  0  0  0
 13 42  1  0  0  0
 14 43  1  0  0  0
 15 16  1  0  0  0
 15 17  1  0  0  0
 15 44  1  0  0  0
 16 45  1  0  0  0
 17 18  1  0  0  0
 17 46  1  0  0  0
 18 19  1  0  0  0
 18 27  1  0  0  0
 19 20  2  0  0  0
 19 47  1  0  0  0
 20 21  1  0  0  0
 21 22  2  0  0  0
 21 27  1  0  0  0
 22 23  1  0  0  0
 22 24  1  0  0  0
 23 48  1  0  0  0
 23 49  1  0  0  0
 24 25  2  0  0  0
 25 26  1  0  0  0
 25 50  1  0  0  0
 26 27  2  0  0  0
M  CHG  2   1   1   5  -1
M  END
> <s_m_source_file>
../4fak_ligand.sdf

> <i_m_source_file_index>
1

> <s_epik_input>
Tz1DKFtPSF0pW0NAQEhdKFtOSDMrXSlbQ0gyXVtDSDJdW1NASF0oW0NIM10pW0NIMl1bQ0BIXTFPW0NASF0oW0NASF0oW09IXSlbQ0BASF0xW09IXSluKFtjSF1uMiljKGMyMyluW2NIXW5jM1tOSDJd

> <s_epik_cmdline>
J2VwaWtfYXBwJywgJy1pbWFlJywgJ2xpZ2FuZF9wcm8ubWFlJywgJy1vbWFlJywgJ2xpZ2FuZF9wcmVwLm1hZScsICctbXMnLCAnMScsICctcGgnLCAnNycsICctcGh0JywgJzAuNScsICctbnQn

> <r_lp_tautomer_probability>
1

> <r_epik_Ionization_Penalty>
  0.0015

> <r_epik_Ionization_Penalty_Charging>
  0.0011

> <r_epik_Ionization_Penalty_Neutral>
  0.0004

> <r_epik_State_Penalty>
 -0.0000

> <r_epik_Charging_Adjusted_Penalty>
0.00106610994672706

> <i_epik_Tot_Q>
0

> <i_epik_Tot_abs_Q>
2

> <s_epik_Chemistry_Notes>
This compound contains an acetal/aminal-like group ( X-CH(R)-Y where X, Y are N, S, or O) that may be acid/base labile, releasing an aldehyde.

$$$$
