4fbe_ligand
                    3D
 Schrodinger Suite 2020-3.
 43 44  0  0  1  0            999 V2000
   27.4800   50.2950   43.9510 C   0  0  0  0  0  0
   27.9350   50.5480   49.3480 C   0  0  0  0  0  0
   22.2610   46.1500   49.6850 S   0  0  0  0  0  0
   28.7020   41.1730   46.6110 C   0  0  0  0  0  0
   24.7910   48.2000   46.3530 C   0  0  0  0  0  0
   25.8070   48.6550   45.5250 C   0  0  0  0  0  0
   27.8570   41.7470   47.4670 C   0  0  0  0  0  0
   26.6960   41.0220   45.7790 C   0  0  0  0  0  0
   25.8640   49.2000   48.2610 C   0  0  0  0  0  0
   25.6050   43.5860   48.0300 C   0  0  0  0  0  0
   24.2970   44.3000   48.4070 C   0  0  0  0  0  0
   25.3700   42.1360   47.5660 C   0  0  0  0  0  0
   27.9820   40.7080   45.5690 N   0  3  0  0  0  0
   24.4690   45.7590   48.1980 N   0  0  0  0  0  0
   23.8160   47.9880   48.4750 N   0  0  0  0  0  0
   27.8670   49.8400   45.2420 O   0  0  0  0  0  0
   27.9470   50.3890   47.9020 O   0  0  0  0  0  0
   23.6250   46.6720   48.6940 C   0  0  0  0  0  0
   24.8090   48.4610   47.7210 C   0  0  0  0  0  0
   26.8550   49.3980   46.0490 C   0  0  0  0  0  0
   26.8890   49.6730   47.4230 C   0  0  0  0  0  0
   26.6200   41.6180   46.9530 N   0  0  0  0  0  0
   28.3709   50.6236   43.3957 H   0  0  0  0  0  0
   26.7805   51.1377   44.0537 H   0  0  0  0  0  0
   26.9894   49.4756   43.4053 H   0  0  0  0  0  0
   28.8132   51.1324   49.6599 H   0  0  0  0  0  0
   27.9649   49.5577   49.8260 H   0  0  0  0  0  0
   27.0178   51.0741   49.6514 H   0  0  0  0  0  0
   29.7824   41.0934   46.7313 H   0  0  0  0  0  0
   23.9660   47.6295   45.9264 H   0  0  0  0  0  0
   25.7818   48.4280   44.4592 H   0  0  0  0  0  0
   28.1190   42.2307   48.4080 H   0  0  0  0  0  0
   25.8648   40.8214   45.1030 H   0  0  0  0  0  0
   25.8926   49.4096   49.3303 H   0  0  0  0  0  0
   26.0962   44.1297   47.2096 H   0  0  0  0  0  0
   26.2730   43.5590   48.9036 H   0  0  0  0  0  0
   23.4796   43.9271   47.7723 H   0  0  0  0  0  0
   24.0616   44.1006   49.4628 H   0  0  0  0  0  0
   25.0948   41.5144   48.4308 H   0  0  0  0  0  0
   24.5566   42.1151   46.8257 H   0  0  0  0  0  0
   23.1362   48.7252   48.9271 H   0  0  0  0  0  0
   25.3211   46.1340   47.6121 H   0  0  0  0  0  0
   28.4840   40.1765   44.7471 H   0  0  0  0  0  0
  1 16  1  0  0  0
  1 23  1  0  0  0
  1 24  1  0  0  0
  1 25  1  0  0  0
  2 17  1  0  0  0
  2 26  1  0  0  0
  2 27  1  0  0  0
  2 28  1  0  0  0
  3 18  2  0  0  0
  4  7  2  0  0  0
  4 13  1  0  0  0
  4 29  1  0  0  0
  5  6  2  0  0  0
  5 19  1  0  0  0
  5 30  1  0  0  0
  6 20  1  0  0  0
  6 31  1  0  0  0
  7 22  1  0  0  0
  7 32  1  0  0  0
  8 13  2  0  0  0
  8 22  1  0  0  0
  8 33  1  0  0  0
  9 19  2  0  0  0
  9 21  1  0  0  0
  9 34  1  0  0  0
 10 11  1  0  0  0
 10 12  1  0  0  0
 10 35  1  0  0  0
 10 36  1  0  0  0
 11 14  1  0  0  0
 11 37  1  0  0  0
 11 38  1  0  0  0
 12 22  1  0  0  0
 12 39  1  0  0  0
 12 40  1  0  0  0
 13 43  1  0  0  0
 14 18  1  0  0  0
 14 42  1  0  0  0
 15 18  1  0  0  0
 15 19  1  0  0  0
 15 41  1  0  0  0
 16 20  1  0  0  0
 17 21  1  0  0  0
 20 21  2  0  0  0
M  CHG  1  13   1
M  END
> <s_m_source_file>
../4fbe_ligand.sdf

> <i_m_source_file_index>
1

> <s_epik_input>
W0NIM11PYyhbY0hdMSljKE9bQ0gzXSlbY0hdW2NIXWMxW05IXUMoXFtTSF0pPU5cW0NIMl1bQ0gyXVtDSDJdbjJbY0hdW2NIXW5bY0hdMg==

> <s_epik_cmdline>
J2VwaWtfYXBwJywgJy1pbWFlJywgJ2xpZ2FuZF9wcm8ubWFlJywgJy1vbWFlJywgJ2xpZ2FuZF9wcmVwLm1hZScsICctbXMnLCAnMScsICctcGgnLCAnNycsICctcGh0JywgJzAuNScsICctbnQn

> <r_lp_tautomer_probability>
1

> <r_epik_Ionization_Penalty>
  0.2758

> <r_epik_Ionization_Penalty_Charging>
  0.0000

> <r_epik_Ionization_Penalty_Neutral>
  0.2758

> <r_epik_State_Penalty>
  0.2682

> <r_epik_Charging_Adjusted_Penalty>
0.268168672500128

> <i_epik_Tot_Q>
1

> <i_epik_Tot_abs_Q>
1

$$$$
