4fbx_ligand
                    3D
 Schrodinger Suite 2020-3.
 22 23  0  0  1  0            999 V2000
   16.3200   -6.2860   17.5920 Br  0  0  0  0  0  0
   17.5620   -4.8680   18.1130 C   0  0  0  0  0  0
   17.8830   -4.6590   19.4480 C   0  0  0  0  0  0
   17.1210   -5.7640   20.8490 Br  0  0  0  0  0  0
   18.7790   -3.6290   19.7930 C   0  0  0  0  0  0
   19.2310   -3.3350   21.6460 Br  0  0  0  0  0  0
   19.3510   -2.8100   18.8050 C   0  0  0  0  0  0
   20.5750   -1.4210   19.4010 Br  0  0  0  0  0  0
   19.0220   -3.0190   17.4380 C   0  0  0  0  0  0
   18.1340   -4.0420   17.1010 C   0  0  0  0  0  0
   17.9850   -4.0360   15.7300 N   0  0  0  0  0  0
   18.7540   -3.0460   15.2320 C   0  0  0  0  0  0
   19.3970   -2.4240   16.2410 N   0  0  0  0  0  0
   20.2970   -1.2820   16.0630 C   0  0  0  0  0  0
   19.5670    0.0240   16.1060 C   0  0  0  0  0  0
   18.7960    0.3080   15.2030 O   0  0  0  0  0  0
   19.7370    0.9160   17.1990 N   0  0  0  0  0  0
   18.8421   -2.7884   14.1765 H   0  0  0  0  0  0
   21.0496   -1.2797   16.8653 H   0  0  0  0  0  0
   20.8005   -1.3604   15.0882 H   0  0  0  0  0  0
   20.4312    0.6618   18.0135 H   0  0  0  0  0  0
   19.1744    1.8607   17.2306 H   0  0  0  0  0  0
  1  2  1  0  0  0
  2  3  1  0  0  0
  2 10  2  0  0  0
  3  4  1  0  0  0
  3  5  2  0  0  0
  5  6  1  0  0  0
  5  7  1  0  0  0
  7  8  1  0  0  0
  7  9  2  0  0  0
  9 10  1  0  0  0
  9 13  1  0  0  0
 10 11  1  0  0  0
 11 12  2  0  0  0
 12 13  1  0  0  0
 12 18  1  0  0  0
 13 14  1  0  0  0
 14 15  1  0  0  0
 14 19  1  0  0  0
 14 20  1  0  0  0
 15 16  2  0  0  0
 15 17  1  0  0  0
 17 21  1  0  0  0
 17 22  1  0  0  0
M  END
> <s_m_source_file>
../4fbx_ligand.sdf

> <i_m_source_file_index>
1

> <s_epik_input>
QnJjMWMoQnIpYyhCciljKEJyKWMoYzEyKW5bY0hdbjJbQ0gyXUMoPU8pW05IMl0=

> <s_epik_cmdline>
J2VwaWtfYXBwJywgJy1pbWFlJywgJ2xpZ2FuZF9wcm8ubWFlJywgJy1vbWFlJywgJ2xpZ2FuZF9wcmVwLm1hZScsICctbXMnLCAnMScsICctcGgnLCAnNycsICctcGh0JywgJzAuNScsICctbnQn

> <r_lp_tautomer_probability>
1

> <r_epik_Ionization_Penalty>
  0.0001

> <r_epik_Ionization_Penalty_Charging>
  0.0000

> <r_epik_Ionization_Penalty_Neutral>
  0.0001

> <r_epik_State_Penalty>
 -0.0000

> <r_epik_Charging_Adjusted_Penalty>
0

> <i_epik_Tot_Q>
0

> <i_epik_Tot_abs_Q>
0

$$$$
