4fcb_ligand
                    3D
 Schrodinger Suite 2020-3.
 54 58  0  0  1  0            999 V2000
   17.2610   -9.6020  -36.2400 C   0  0  0  0  0  0
   17.6580  -10.2310  -34.9150 C   0  0  0  0  0  0
   19.1130   -9.9130  -34.5660 C   0  0  0  0  0  0
   19.7040  -11.0500  -33.8050 C   0  0  0  0  0  0
   19.6640  -11.0670  -32.4880 N   0  0  0  0  0  0
   20.2700  -12.2240  -32.0810 C   0  0  0  0  0  0
   20.6970  -12.9540  -33.1750 C   0  0  0  0  0  0
   20.3290  -12.1910  -34.2940 N   0  0  0  0  0  0
   20.6270  -12.6660  -35.6070 C   0  0  0  0  0  0
   20.3140  -12.0020  -36.7960 C   0  0  0  0  0  0
   20.6630  -12.5640  -38.0340 C   0  0  0  0  0  0
   21.3250  -13.7990  -38.1050 C   0  0  0  0  0  0
   21.6360  -14.4640  -36.9170 C   0  0  0  0  0  0
   21.2980  -13.9090  -35.6710 C   0  0  0  0  0  0
   21.6670  -14.6620  -34.5320 N   0  0  0  0  0  0
   21.3890  -14.2230  -33.3460 C   0  0  0  0  0  0
   21.8260  -15.1040  -32.2090 C   0  0  0  0  0  0
   21.6040  -14.2540  -39.3680 O   0  0  0  0  0  0
   22.6720  -15.2010  -39.4860 C   0  0  0  0  0  0
   22.4320  -16.0350  -40.7110 C   0  0  0  0  0  0
   22.8950  -15.5890  -41.9450 C   0  0  0  0  0  0
   22.6580  -16.3800  -43.0680 C   0  0  0  0  0  0
   21.9670  -17.5950  -42.9380 C   0  0  0  0  0  0
   21.7130  -18.4200  -44.0520 C   0  0  0  0  0  0
   21.0250  -19.6240  -43.8890 C   0  0  0  0  0  0
   20.5920  -20.0080  -42.6240 C   0  0  0  0  0  0
   20.8490  -19.1880  -41.5160 C   0  0  0  0  0  0
   21.5300  -17.9790  -41.6420 C   0  0  0  0  0  0
   21.7590  -17.2090  -40.5530 N   0  0  0  0  0  0
   20.3680  -12.4840  -30.6310 C   0  0  0  0  0  0
   16.2123   -9.8479  -36.4630 H   0  0  0  0  0  0
   17.9073   -9.9929  -37.0397 H   0  0  0  0  0  0
   17.3761   -8.5099  -36.1765 H   0  0  0  0  0  0
   17.0117   -9.8401  -34.1153 H   0  0  0  0  0  0
   17.5429  -11.3231  -34.9784 H   0  0  0  0  0  0
   19.6860   -9.7553  -35.4916 H   0  0  0  0  0  0
   19.1518   -9.0018  -33.9510 H   0  0  0  0  0  0
   19.7965  -11.0433  -36.7620 H   0  0  0  0  0  0
   20.4161  -12.0333  -38.9535 H   0  0  0  0  0  0
   22.1474  -15.4258  -36.9567 H   0  0  0  0  0  0
   21.5415  -14.6382  -31.2540 H   0  0  0  0  0  0
   22.9179  -15.2324  -32.2434 H   0  0  0  0  0  0
   21.3383  -16.0860  -32.2977 H   0  0  0  0  0  0
   23.6285  -14.6655  -39.5766 H   0  0  0  0  0  0
   22.6940  -15.8421  -38.5924 H   0  0  0  0  0  0
   23.4303  -14.6435  -42.0315 H   0  0  0  0  0  0
   23.0093  -16.0550  -44.0473 H   0  0  0  0  0  0
   22.0541  -18.1178  -45.0422 H   0  0  0  0  0  0
   20.8277  -20.2615  -44.7508 H   0  0  0  0  0  0
   20.0529  -20.9464  -42.4941 H   0  0  0  0  0  0
   20.5072  -19.5046  -40.5306 H   0  0  0  0  0  0
   19.9032  -11.6547  -30.0776 H   0  0  0  0  0  0
   21.4266  -12.5683  -30.3444 H   0  0  0  0  0  0
   19.8472  -13.4226  -30.3908 H   0  0  0  0  0  0
  1  2  1  0  0  0
  1 31  1  0  0  0
  1 32  1  0  0  0
  1 33  1  0  0  0
  2  3  1  0  0  0
  2 34  1  0  0  0
  2 35  1  0  0  0
  3  4  1  0  0  0
  3 36  1  0  0  0
  3 37  1  0  0  0
  4  5  2  0  0  0
  4  8  1  0  0  0
  5  6  1  0  0  0
  6  7  2  0  0  0
  6 30  1  0  0  0
  7  8  1  0  0  0
  7 16  1  0  0  0
  8  9  1  0  0  0
  9 10  1  0  0  0
  9 14  2  0  0  0
 10 11  2  0  0  0
 10 38  1  0  0  0
 11 12  1  0  0  0
 11 39  1  0  0  0
 12 13  2  0  0  0
 12 18  1  0  0  0
 13 14  1  0  0  0
 13 40  1  0  0  0
 14 15  1  0  0  0
 15 16  2  0  0  0
 16 17  1  0  0  0
 17 41  1  0  0  0
 17 42  1  0  0  0
 17 43  1  0  0  0
 18 19  1  0  0  0
 19 20  1  0  0  0
 19 44  1  0  0  0
 19 45  1  0  0  0
 20 21  2  0  0  0
 20 29  1  0  0  0
 21 22  1  0  0  0
 21 46  1  0  0  0
 22 23  2  0  0  0
 22 47  1  0  0  0
 23 24  1  0  0  0
 23 28  1  0  0  0
 24 25  2  0  0  0
 24 48  1  0  0  0
 25 26  1  0  0  0
 25 49  1  0  0  0
 26 27  2  0  0  0
 26 50  1  0  0  0
 27 28  1  0  0  0
 27 51  1  0  0  0
 28 29  2  0  0  0
 30 52  1  0  0  0
 30 53  1  0  0  0
 30 54  1  0  0  0
M  END
> <s_m_source_file>
../4fcb_ligand.sdf

> <i_m_source_file_index>
1

> <s_epik_input>
W0NIM11bQ0gyXVtDSDJdYyhuYzFbQ0gzXSluKGMxMiljM2MobmMyW0NIM10pW2NIXWMoW2NIXVtjSF0zKU9bQ0gyXWMoW2NIXVtjSF00KW5jKGM0NSlbY0hdW2NIXVtjSF1bY0hdNQ==

> <s_epik_cmdline>
J2VwaWtfYXBwJywgJy1pbWFlJywgJ2xpZ2FuZF9wcm8ubWFlJywgJy1vbWFlJywgJ2xpZ2FuZF9wcmVwLm1hZScsICctbXMnLCAnMScsICctcGgnLCAnNycsICctcGh0JywgJzAuNScsICctbnQn

> <r_epik_Ionization_Penalty>
  0.0305

> <r_epik_Ionization_Penalty_Charging>
  0.0000

> <r_epik_Ionization_Penalty_Neutral>
  0.0305

> <r_epik_State_Penalty>
  0.0219

> <r_epik_Charging_Adjusted_Penalty>
0.02185935985095

> <i_epik_Tot_Q>
0

> <i_epik_Tot_abs_Q>
0

$$$$
