4fcf_ligand
                    3D
 Schrodinger Suite 2020-3.
 79 81  0  0  1  0            999 V2000
   35.7500   25.2970    2.2420 C   0  0  2  0  0  0
   36.2950   24.6490    0.9940 C   0  0  1  0  0  0
   36.0170   23.1560    0.9360 C   0  0  2  0  0  0
   36.3770   22.4510    2.2240 C   0  0  1  0  0  0
   35.8360   23.1920    3.4420 C   0  0  1  0  0  0
   36.3300   22.5910    4.7570 C   0  0  0  0  0  0
   35.7180   25.3060   -0.1050 O   0  0  0  0  0  0
   36.7390   22.6180   -0.1800 O   0  0  0  0  0  0
   36.1910   24.5820    3.3940 O   0  0  0  0  0  0
   37.7640   22.5890    4.7500 O   0  0  0  0  0  0
   34.3250   25.2540    2.2030 O   0  0  0  0  0  0
   35.8450   21.1480    2.2500 O   0  0  0  0  0  0
   31.0590   27.6620    2.7180 C   0  0  2  0  0  0
   31.8770   27.9800    1.4810 C   0  0  1  0  0  0
   32.7680   26.7760    1.2120 C   0  0  2  0  0  0
   33.6300   26.4970    2.4350 C   0  0  1  0  0  0
   32.8120   26.3170    3.6940 C   0  0  1  0  0  0
   33.6510   26.2600    4.9310 C   0  0  0  0  0  0
   30.2850   28.7870    3.0290 O   0  0  0  0  0  0
   31.0360   28.2530    0.3720 O   0  0  0  0  0  0
   33.5890   27.0980    0.1200 O   0  0  0  0  0  0
   31.9700   27.4900    3.8280 O   0  0  0  0  0  0
   34.4730   27.4390    4.9560 O   0  0  0  0  0  0
   29.2930   28.4900    4.0560 C   0  0  0  0  0  0
   28.0020   28.2210    3.3690 C   0  0  0  0  0  0
   26.9230   27.7940    4.3630 C   0  0  0  0  0  0
   25.4980   28.1550    3.8540 C   0  0  0  0  0  0
   24.3470   27.4510    4.5190 C   0  0  0  0  0  0
   24.4270   27.3760    6.0360 C   0  0  0  0  0  0
   23.1180   27.0760    6.7280 C   0  0  0  0  0  0
   23.0700   28.0390    7.9400 C   0  0  0  0  0  0
   22.4570   27.5260    9.2370 C   0  0  0  0  0  0
   21.6140   26.3010    9.0040 C   0  0  0  0  0  0
   22.5180   25.2380    8.4390 C   0  0  0  0  0  0
   23.1190   25.5940    7.1140 C   0  0  0  0  0  0
   36.0765   26.3426    2.3424 H   0  0  0  0  0  0
   37.3830   24.7951    0.9233 H   0  0  0  0  0  0
   34.9498   22.9598    0.7555 H   0  0  0  0  0  0
   37.4711   22.3418    2.2576 H   0  0  0  0  0  0
   34.7373   23.1541    3.4033 H   0  0  0  0  0  0
   35.9608   23.1960    5.5982 H   0  0  0  0  0  0
   35.9549   21.5614    4.8534 H   0  0  0  0  0  0
   35.8268   26.3952   -0.2138 H   0  0  0  0  0  0
   36.5820   23.0310   -1.1874 H   0  0  0  0  0  0
   38.3177   22.1932    5.6142 H   0  0  0  0  0  0
   36.1052   20.4318    1.4567 H   0  0  0  0  0  0
   30.4026   26.7884    2.5915 H   0  0  0  0  0  0
   32.4505   28.9127    1.5863 H   0  0  0  0  0  0
   32.1988   25.8797    0.9245 H   0  0  0  0  0  0
   34.3418   27.3236    2.5766 H   0  0  0  0  0  0
   32.2280   25.3883    3.6137 H   0  0  0  0  0  0
   32.9981   26.2299    5.8158 H   0  0  0  0  0  0
   34.2783   25.3567    4.9073 H   0  0  0  0  0  0
   30.3306   29.0961    0.4111 H   0  0  0  0  0  0
   33.1392   27.3316   -0.8563 H   0  0  0  0  0  0
   35.1746   27.6028    5.7872 H   0  0  0  0  0  0
   29.6128   27.6082    4.6306 H   0  0  0  0  0  0
   29.1955   29.3524    4.7319 H   0  0  0  0  0  0
   27.6633   29.1326    2.8549 H   0  0  0  0  0  0
   28.1391   27.4147    2.6334 H   0  0  0  0  0  0
   26.9722   26.7053    4.5123 H   0  0  0  0  0  0
   27.0872   28.3037    5.3239 H   0  0  0  0  0  0
   25.3173   29.2300    4.0017 H   0  0  0  0  0  0
   25.4188   27.9135    2.7838 H   0  0  0  0  0  0
   23.4094   27.9739    4.2792 H   0  0  0  0  0  0
   24.2919   26.4143    4.1555 H   0  0  0  0  0  0
   25.1281   26.5800    6.3273 H   0  0  0  0  0  0
   24.7806   28.3392    6.4326 H   0  0  0  0  0  0
   22.2332   27.2295    6.0928 H   0  0  0  0  0  0
   24.0928   28.3426    8.2078 H   0  0  0  0  0  0
   22.4800   28.9295    7.6776 H   0  0  0  0  0  0
   23.2588   27.2667    9.9441 H   0  0  0  0  0  0
   21.8198   28.3079    9.6759 H   0  0  0  0  0  0
   21.1769   25.9699    9.9576 H   0  0  0  0  0  0
   20.8080   26.5400    8.2946 H   0  0  0  0  0  0
   23.3498   25.0560    9.1354 H   0  0  0  0  0  0
   21.9474   24.3082    8.2984 H   0  0  0  0  0  0
   22.5508   25.0202    6.3671 H   0  0  0  0  0  0
   24.1547   25.2250    7.1496 H   0  0  0  0  0  0
  1  2  1  0  0  0
  1  9  1  0  0  0
  1 11  1  0  0  0
  1 36  1  0  0  0
  2  3  1  0  0  0
  2  7  1  0  0  0
  2 37  1  0  0  0
  3  4  1  0  0  0
  3  8  1  0  0  0
  3 38  1  0  0  0
  4  5  1  0  0  0
  4 12  1  0  0  0
  4 39  1  0  0  0
  5  6  1  0  0  0
  5  9  1  0  0  0
  5 40  1  0  0  0
  6 10  1  0  0  0
  6 41  1  0  0  0
  6 42  1  0  0  0
  7 43  1  0  0  0
  8 44  1  0  0  0
 10 45  1  0  0  0
 11 16  1  0  0  0
 12 46  1  0  0  0
 13 14  1  0  0  0
 13 19  1  0  0  0
 13 22  1  0  0  0
 13 47  1  0  0  0
 14 15  1  0  0  0
 14 20  1  0  0  0
 14 48  1  0  0  0
 15 16  1  0  0  0
 15 21  1  0  0  0
 15 49  1  0  0  0
 16 17  1  0  0  0
 16 50  1  0  0  0
 17 18  1  0  0  0
 17 22  1  0  0  0
 17 51  1  0  0  0
 18 23  1  0  0  0
 18 52  1  0  0  0
 18 53  1  0  0  0
 19 24  1  0  0  0
 20 54  1  0  0  0
 21 55  1  0  0  0
 23 56  1  0  0  0
 24 25  1  0  0  0
 24 57  1  0  0  0
 24 58  1  0  0  0
 25 26  1  0  0  0
 25 59  1  0  0  0
 25 60  1  0  0  0
 26 27  1  0  0  0
 26 61  1  0  0  0
 26 62  1  0  0  0
 27 28  1  0  0  0
 27 63  1  0  0  0
 27 64  1  0  0  0
 28 29  1  0  0  0
 28 65  1  0  0  0
 28 66  1  0  0  0
 29 30  1  0  0  0
 29 67  1  0  0  0
 29 68  1  0  0  0
 30 31  1  0  0  0
 30 35  1  0  0  0
 30 69  1  0  0  0
 31 32  1  0  0  0
 31 70  1  0  0  0
 31 71  1  0  0  0
 32 33  1  0  0  0
 32 72  1  0  0  0
 32 73  1  0  0  0
 33 34  1  0  0  0
 33 74  1  0  0  0
 33 75  1  0  0  0
 34 35  1  0  0  0
 34 76  1  0  0  0
 34 77  1  0  0  0
 35 78  1  0  0  0
 35 79  1  0  0  0
M  END
> <s_m_source_file>
../4fcf_ligand.sdf

> <i_m_source_file_index>
1

> <s_epik_input>
W09IXVtDSDJdW0NAQEhdKE8xKVtDQEBIXShbT0hdKVtDQEhdKFtPSF0pW0NAQEhdKFtPSF0pW0NASF0xT1tDQEhdKFtDQEhdKE8yKVtDSDJdW09IXSlbQ0BIXShbT0hdKVtDQEBIXShbT0hdKVtDQEBIXTJPW0NIMl1bQ0gyXVtDSDJdW0NIMl1bQ0gyXVtDSDJdW0NIXTNbQ0gyXVtDSDJdW0NIMl1bQ0gyXVtDSDJdMw==

> <s_epik_cmdline>
J2VwaWtfYXBwJywgJy1pbWFlJywgJ2xpZ2FuZF9wcm8ubWFlJywgJy1vbWFlJywgJ2xpZ2FuZF9wcmVwLm1hZScsICctbXMnLCAnMScsICctcGgnLCAnNycsICctcGh0JywgJzAuNScsICctbnQn

> <r_lp_tautomer_probability>
1

> <r_epik_Ionization_Penalty>
  0.0000

> <r_epik_Ionization_Penalty_Charging>
  0.0000

> <r_epik_Ionization_Penalty_Neutral>
  0.0000

> <r_epik_State_Penalty>
 -0.0000

> <r_epik_Charging_Adjusted_Penalty>
0

> <i_epik_Tot_Q>
0

> <i_epik_Tot_abs_Q>
0

> <s_epik_Chemistry_Notes>
This compound contains an acetal/aminal-like group ( X-CH(R)-Y where X, Y are N, S, or O) that may be acid/base labile, releasing an aldehyde.

$$$$
