4fck_ligand
                    3D
 Schrodinger Suite 2020-3.
 21 20  0  0  1  0            999 V2000
   25.8790   -9.2960   -3.9350 N   0  3  0  0  0  0
   25.6360   -9.3620   -5.3640 C   0  0  2  0  0  0
   24.1500   -9.2060   -5.6600 C   0  0  0  0  0  0
   23.2320   -9.0550   -4.8560 O   0  0  0  0  0  0
   23.9030   -9.2250   -6.9860 O   0  5  0  0  0  0
   26.1190  -10.7150   -5.9690 C   0  0  0  0  0  0
   25.4250  -11.8170   -5.3020 N   0  0  0  0  0  0
   25.4660  -13.0920   -5.9130 C   0  0  0  0  0  0
   24.5950  -14.0060   -5.3170 N   0  0  0  0  0  0
   26.1830  -13.5100   -6.9200 N   0  3  0  0  0  0
   25.5254   -8.3293   -3.5472 H   0  0  0  0  0  0
   26.9572   -9.3965   -3.7414 H   0  0  0  0  0  0
   25.3386  -10.1122   -3.4331 H   0  0  0  0  0  0
   26.2081   -8.5107   -5.7614 H   0  0  0  0  0  0
   25.8947  -10.7360   -7.0457 H   0  0  0  0  0  0
   27.2038  -10.8176   -5.8184 H   0  0  0  0  0  0
   24.8934  -11.6396   -4.3554 H   0  0  0  0  0  0
   23.9715  -13.6966   -4.4652 H   0  0  0  0  0  0
   24.5322  -15.0355   -5.6992 H   0  0  0  0  0  0
   26.8825  -12.8236   -7.4196 H   0  0  0  0  0  0
   26.0879  -14.5487   -7.2692 H   0  0  0  0  0  0
  1  2  1  0  0  0
  1 11  1  0  0  0
  1 12  1  0  0  0
  1 13  1  0  0  0
  2  3  1  0  0  0
  2  6  1  0  0  0
  2 14  1  0  0  0
  3  4  2  0  0  0
  3  5  1  0  0  0
  6  7  1  0  0  0
  6 15  1  0  0  0
  6 16  1  0  0  0
  7  8  1  0  0  0
  7 17  1  0  0  0
  8  9  1  0  0  0
  8 10  2  0  0  0
  9 18  1  0  0  0
  9 19  1  0  0  0
 10 20  1  0  0  0
 10 21  1  0  0  0
M  CHG  3   1   1   5  -1  10   1
M  END
> <s_m_source_file>
../4fck_ligand.sdf

> <i_m_source_file_index>
1

> <s_epik_input>
Tz1DKFtPSF0pW0NAQEhdKFtOSDMrXSlbQ0gyXVtOSF0vQyhbTkgyXSk9Ti9bSF0=

> <s_epik_cmdline>
J2VwaWtfYXBwJywgJy1pbWFlJywgJ2xpZ2FuZF9wcm8ubWFlJywgJy1vbWFlJywgJ2xpZ2FuZF9wcmVwLm1hZScsICctbXMnLCAnMScsICctcGgnLCAnNycsICctcGh0JywgJzAuNScsICctbnQn

> <r_epik_Ionization_Penalty>
  0.0342

> <r_epik_Ionization_Penalty_Charging>
  0.0342

> <r_epik_Ionization_Penalty_Neutral>
  0.0000

> <r_epik_State_Penalty>
  0.0284

> <r_epik_Charging_Adjusted_Penalty>
0.0626547163199756

> <i_epik_Tot_Q>
1

> <i_epik_Tot_abs_Q>
3

> <s_epik_Chemistry_Notes>
This compound has an imine and may undergo hydrolysis.

$$$$
