4fcm_ligand
                    3D
 Schrodinger Suite 2020-3.
 72 73  0  0  1  0            999 V2000
  -17.4010   11.6710  -11.8220 N   0  3  0  0  0  0
  -16.7500   12.2730  -10.6640 C   0  0  2  0  0  0
  -15.2990   12.6470  -10.9590 C   0  0  0  0  0  0
  -14.5450   11.8560  -11.5260 O   0  0  0  0  0  0
  -16.8220   11.3330   -9.4590 C   0  0  0  0  0  0
  -15.9860   11.7850   -8.4070 O   0  0  0  0  0  0
  -14.9200   13.8600  -10.5690 N   0  0  0  0  0  0
  -13.5720   14.3550  -10.7790 C   0  0  0  0  0  0
  -13.3880   15.7320  -10.1700 C   0  0  0  0  0  0
  -14.1080   16.1090   -9.2460 O   0  0  0  0  0  0
  -12.4220   16.4870  -10.6830 N   0  0  0  0  0  0
  -12.2030   17.8510  -10.2140 C   0  0  2  0  0  0
  -12.9300   18.8330  -11.1280 C   0  0  0  0  0  0
  -13.1670   18.5410  -12.3010 O   0  0  0  0  0  0
  -10.7060   18.1680  -10.1290 C   0  0  0  0  0  0
  -10.1460   18.8210  -11.3610 C   0  0  0  0  0  0
   -9.8310   20.1700  -11.3600 C   0  0  0  0  0  0
   -9.9300   18.0880  -12.5150 C   0  0  0  0  0  0
   -9.3140   20.7760  -12.4880 C   0  0  0  0  0  0
   -9.4140   18.6900  -13.6470 C   0  0  0  0  0  0
   -9.1060   20.0360  -13.6330 C   0  0  0  0  0  0
  -13.2850   19.9940  -10.5900 N   0  0  0  0  0  0
  -14.1470   20.9270  -11.3070 C   0  0  2  0  0  0
  -13.4480   22.2220  -11.7140 C   0  0  0  0  0  0
  -12.3660   22.5420  -11.2210 O   0  0  0  0  0  0
  -15.3870   21.2450  -10.4680 C   0  0  0  0  0  0
  -16.1250   20.0680  -10.1890 O   0  0  0  0  0  0
  -14.0830   22.9610  -12.6190 N   0  0  0  0  0  0
  -13.5550   24.2380  -13.0830 C   0  0  2  0  0  0
  -14.6820   25.2100  -13.4160 C   0  0  0  0  0  0
  -14.4804   26.4537  -13.4303 O   0  5  0  0  0  0
  -12.6590   24.0360  -14.3050 C   0  0  0  0  0  0
  -11.3020   24.6590  -14.1670 C   0  0  0  0  0  0
  -10.2580   23.9490  -13.6030 C   0  0  0  0  0  0
  -11.0720   25.9570  -14.5930 C   0  0  0  0  0  0
   -9.0110   24.5170  -13.4700 C   0  0  0  0  0  0
   -9.8220   26.5320  -14.4620 C   0  0  0  0  0  0
   -8.7910   25.8110  -13.8990 C   0  0  0  0  0  0
  -15.8302   24.7635  -13.6804 O   0  0  0  0  0  0
  -17.3392   12.3604  -12.6769 H   0  0  0  0  0  0
  -18.4570   11.4723  -11.5868 H   0  0  0  0  0  0
  -16.8978   10.7263  -12.0756 H   0  0  0  0  0  0
  -17.3226   13.1917  -10.4689 H   0  0  0  0  0  0
  -17.8574   11.2881   -9.0904 H   0  0  0  0  0  0
  -16.4957   10.3263   -9.7592 H   0  0  0  0  0  0
  -15.9271   11.2153   -7.4679 H   0  0  0  0  0  0
  -15.6680   14.4952  -10.0720 H   0  0  0  0  0  0
  -12.8519   13.6672  -10.3117 H   0  0  0  0  0  0
  -13.3693   14.4203  -11.8582 H   0  0  0  0  0  0
  -11.7823   16.0679  -11.4737 H   0  0  0  0  0  0
  -12.6324   17.9017   -9.2025 H   0  0  0  0  0  0
  -10.5235   18.8533   -9.2882 H   0  0  0  0  0  0
  -10.1423   17.2366   -9.9718 H   0  0  0  0  0  0
   -9.9932   20.7602  -10.4581 H   0  0  0  0  0  0
  -10.1694   17.0247  -12.5312 H   0  0  0  0  0  0
   -9.0705   21.8384  -12.4734 H   0  0  0  0  0  0
   -9.2502   18.1026  -14.5504 H   0  0  0  0  0  0
   -8.6994   20.5126  -14.5250 H   0  0  0  0  0  0
  -12.9167   20.2469   -9.5848 H   0  0  0  0  0  0
  -14.4041   20.3823  -12.2274 H   0  0  0  0  0  0
  -15.0784   21.7024   -9.5164 H   0  0  0  0  0  0
  -16.0328   21.9447  -11.0187 H   0  0  0  0  0  0
  -17.0480   20.1258   -9.5934 H   0  0  0  0  0  0
  -15.0348   22.5814  -13.0190 H   0  0  0  0  0  0
  -12.9681   24.6301  -12.2393 H   0  0  0  0  0  0
  -12.5093   22.9597  -14.4760 H   0  0  0  0  0  0
  -13.1370   24.4846  -15.1883 H   0  0  0  0  0  0
  -10.4243   22.9279  -13.2598 H   0  0  0  0  0  0
  -11.8857   26.5310  -15.0363 H   0  0  0  0  0  0
   -8.1966   23.9448  -13.0257 H   0  0  0  0  0  0
   -9.6519   27.5532  -14.8031 H   0  0  0  0  0  0
   -7.8041   26.2613  -13.7926 H   0  0  0  0  0  0
  1  2  1  0  0  0
  1 40  1  0  0  0
  1 41  1  0  0  0
  1 42  1  0  0  0
  2  3  1  0  0  0
  2  5  1  0  0  0
  2 43  1  0  0  0
  3  4  2  0  0  0
  3  7  1  0  0  0
  5  6  1  0  0  0
  5 44  1  0  0  0
  5 45  1  0  0  0
  6 46  1  0  0  0
  7  8  1  0  0  0
  7 47  1  0  0  0
  8  9  1  0  0  0
  8 48  1  0  0  0
  8 49  1  0  0  0
  9 10  2  0  0  0
  9 11  1  0  0  0
 11 12  1  0  0  0
 11 50  1  0  0  0
 12 13  1  0  0  0
 12 15  1  0  0  0
 12 51  1  0  0  0
 13 14  2  0  0  0
 13 22  1  0  0  0
 15 16  1  0  0  0
 15 52  1  0  0  0
 15 53  1  0  0  0
 16 17  2  0  0  0
 16 18  1  0  0  0
 17 19  1  0  0  0
 17 54  1  0  0  0
 18 20  2  0  0  0
 18 55  1  0  0  0
 19 21  2  0  0  0
 19 56  1  0  0  0
 20 21  1  0  0  0
 20 57  1  0  0  0
 21 58  1  0  0  0
 22 23  1  0  0  0
 22 59  1  0  0  0
 23 24  1  0  0  0
 23 26  1  0  0  0
 23 60  1  0  0  0
 24 25  2  0  0  0
 24 28  1  0  0  0
 26 27  1  0  0  0
 26 61  1  0  0  0
 26 62  1  0  0  0
 27 63  1  0  0  0
 28 29  1  0  0  0
 28 64  1  0  0  0
 29 30  1  0  0  0
 29 32  1  0  0  0
 29 65  1  0  0  0
 30 31  1  0  0  0
 30 39  2  0  0  0
 32 33  1  0  0  0
 32 66  1  0  0  0
 32 67  1  0  0  0
 33 34  2  0  0  0
 33 35  1  0  0  0
 34 36  1  0  0  0
 34 68  1  0  0  0
 35 37  2  0  0  0
 35 69  1  0  0  0
 36 38  2  0  0  0
 36 70  1  0  0  0
 37 38  1  0  0  0
 37 71  1  0  0  0
 38 72  1  0  0  0
M  CHG  2   1   1  31  -1
M  END
> <s_m_source_file>
../4fcm_ligand.sdf

> <i_m_source_file_index>
1

> <s_epik_input>
W09IXVtDSDJdW0NASF0oW05IMytdKUMoPU8pW05IXVtDSDJdQyg9TylbTkhdW0NAQEhdKFtDSDJdYzFbY0hdW2NIXVtjSF1bY0hdW2NIXTEpQyg9TylbTkhdW0NAQEhdKFtDSDJdW09IXSlDKD1PKVtOSF1bQ0BIXShDKD1PKVtPSF0pW0NIMl1jMltjSF1bY0hdW2NIXVtjSF1bY0hdMg==

> <s_epik_cmdline>
J2VwaWtfYXBwJywgJy1pbWFlJywgJ2xpZ2FuZF9wcm8ubWFlJywgJy1vbWFlJywgJ2xpZ2FuZF9wcmVwLm1hZScsICctbXMnLCAnMScsICctcGgnLCAnNycsICctcGh0JywgJzAuNScsICctbnQn

> <r_epik_Ionization_Penalty>
  0.1504

> <r_epik_Ionization_Penalty_Charging>
  0.1504

> <r_epik_Ionization_Penalty_Neutral>
  0.0000

> <r_epik_State_Penalty>
  0.1395

> <r_epik_Charging_Adjusted_Penalty>
0.289928237566879

> <i_epik_Tot_Q>
0

> <i_epik_Tot_abs_Q>
2

$$$$
