4fcq_ligand
                    3D
 Schrodinger Suite 2020-3.
 35 37  0  0  1  0            999 V2000
   32.8040   13.4700   24.3610 C   0  0  0  0  0  0
   33.5560   12.1200   24.1830 C   0  0  0  0  0  0
   34.9050   12.2220   23.8690 C   0  0  0  0  0  0
   35.6920   11.0880   23.6760 C   0  0  0  0  0  0
   37.1840   11.2220   23.2850 C   0  0  0  0  0  0
   35.1260    9.8340   23.8150 C   0  0  0  0  0  0
   33.8090    9.7080   24.1660 C   0  0  0  0  0  0
   32.9980   10.8350   24.3190 C   0  0  0  0  0  0
   31.6890   10.6050   24.7470 C   0  0  0  0  0  0
   30.5210   10.9430   24.0760 C   0  0  0  0  0  0
   31.5500   10.0500   25.9750 N   0  0  0  0  0  0
   30.3250    9.8160   26.5520 C   0  0  0  0  0  0
   30.1770    9.0140   28.1200 S   0  0  0  0  0  0
   31.3040    7.5960   27.9840 C   0  0  0  0  0  0
   29.2090   10.1460   25.9140 N   0  0  0  0  0  0
   29.2950   10.6750   24.6810 C   0  0  0  0  0  0
   28.3600   11.0710   23.8550 N   0  3  0  0  0  0
   28.9140   11.5820   22.7500 C   0  0  0  0  0  0
   30.2340   11.5330   22.8490 C   0  0  0  0  0  0
   31.2310   11.9690   21.9060 C   0  0  0  0  0  0
   32.0500   12.2700   21.1850 N   0  0  0  0  0  0
   33.5018   14.3034   24.1923 H   0  0  0  0  0  0
   32.3986   13.5321   25.3817 H   0  0  0  0  0  0
   31.9798   13.5291   23.6349 H   0  0  0  0  0  0
   35.3574   13.2089   23.7715 H   0  0  0  0  0  0
   37.4525   12.2869   23.2227 H   0  0  0  0  0  0
   37.3515   10.7439   22.3086 H   0  0  0  0  0  0
   37.8080   10.7304   24.0459 H   0  0  0  0  0  0
   35.7305    8.9431   23.6445 H   0  0  0  0  0  0
   33.3878    8.7158   24.3282 H   0  0  0  0  0  0
   31.2859    7.0220   28.9222 H   0  0  0  0  0  0
   32.3258    7.9566   27.7944 H   0  0  0  0  0  0
   30.9828    6.9507   27.1531 H   0  0  0  0  0  0
   28.4453   12.0015   21.8476 H   0  0  0  0  0  0
   27.3005   10.9548   24.1270 H   0  0  0  0  0  0
  1  2  1  0  0  0
  1 22  1  0  0  0
  1 23  1  0  0  0
  1 24  1  0  0  0
  2  3  2  0  0  0
  2  8  1  0  0  0
  3  4  1  0  0  0
  3 25  1  0  0  0
  4  5  1  0  0  0
  4  6  2  0  0  0
  5 26  1  0  0  0
  5 27  1  0  0  0
  5 28  1  0  0  0
  6  7  1  0  0  0
  6 29  1  0  0  0
  7  8  2  0  0  0
  7 30  1  0  0  0
  8  9  1  0  0  0
  9 10  2  0  0  0
  9 11  1  0  0  0
 10 16  1  0  0  0
 10 19  1  0  0  0
 11 12  2  0  0  0
 12 13  1  0  0  0
 12 15  1  0  0  0
 13 14  1  0  0  0
 14 31  1  0  0  0
 14 32  1  0  0  0
 14 33  1  0  0  0
 15 16  2  0  0  0
 16 17  1  0  0  0
 17 18  1  0  0  0
 17 35  1  0  0  0
 18 19  2  0  0  0
 18 34  1  0  0  0
 19 20  1  0  0  0
 20 21  3  0  0  0
M  CHG  1  17   1
M  END
> <s_m_source_file>
../4fcq_ligand.sdf

> <i_m_source_file_index>
1

> <s_epik_input>
W0NIM11jMVtjSF1jKFtDSDNdKVtjSF1bY0hdYzEtYzJuYyhTW0NIM10pbmMoYzIzKVtuSF1bY0hdYzNDI04=

> <s_epik_cmdline>
J2VwaWtfYXBwJywgJy1pbWFlJywgJ2xpZ2FuZF9wcm8ubWFlJywgJy1vbWFlJywgJ2xpZ2FuZF9wcmVwLm1hZScsICctbXMnLCAnMScsICctcGgnLCAnNycsICctcGh0JywgJzAuNScsICctbnQn

> <r_epik_Ionization_Penalty>
  0.0134

> <r_epik_Ionization_Penalty_Charging>
  0.0000

> <r_epik_Ionization_Penalty_Neutral>
  0.0134

> <r_epik_State_Penalty>
  0.0026

> <r_epik_Charging_Adjusted_Penalty>
0.00259695331940455

> <i_epik_Tot_Q>
1

> <i_epik_Tot_abs_Q>
1

$$$$
