4fe6_ligand
                    3D
 Schrodinger Suite 2020-3.
 87 91  0  0  1  0            999 V2000
  -11.4070   15.5120   36.8020 O   0  0  0  0  0  0
  -10.8220   15.6720   35.6970 C   0  0  0  0  0  0
   -9.9170   16.5870   35.3920 N   0  0  0  0  0  0
  -11.1260   14.7520   34.6240 C   0  0  0  0  0  0
  -12.0890   13.6220   34.7800 C   0  0  0  0  0  0
  -12.4030   12.6850   33.6840 C   0  0  0  0  0  0
  -12.6910   13.4760   35.9780 N   0  0  0  0  0  0
  -13.1650   12.2090   36.4840 C   0  0  0  0  0  0
  -10.2570   15.2450   33.5390 C   0  0  0  0  0  0
   -9.5990   16.3610   34.0910 C   0  0  0  0  0  0
   -8.7060   17.0400   33.2970 C   0  0  0  0  0  0
   -8.4840   16.6700   31.9960 C   0  0  0  0  0  0
  -10.0450   14.8570   32.2290 C   0  0  0  0  0  0
   -9.1240   15.5780   31.4760 C   0  0  0  0  0  0
   -8.8690   15.2020   29.9700 S   0  0  0  0  0  0
   -7.6600   15.8170   29.4660 O   0  0  0  0  0  0
   -8.7840   13.7920   29.9080 O   0  0  0  0  0  0
  -10.1490   15.7850   29.3010 N   0  0  3  0  0  0
  -11.4120   15.0170   29.2940 C   0  0  0  0  0  0
  -12.0790   15.1070   27.9270 C   0  0  0  0  0  0
  -13.5430   14.7940   28.1570 C   0  0  0  0  0  0
  -11.4630   13.9860   27.1060 C   0  0  0  0  0  0
  -10.2100   17.2160   28.9180 C   0  0  0  0  0  0
  -10.0490   17.5370   27.4530 C   0  0  1  0  0  0
  -10.3050   18.9250   27.3020 O   0  0  0  0  0  0
   -8.6490   17.3350   26.9140 C   0  0  2  0  0  0
   -7.5690   18.3300   27.4090 C   0  0  0  0  0  0
   -6.2250   18.0070   26.7830 C   0  0  0  0  0  0
   -5.6560   16.7500   26.9940 C   0  0  0  0  0  0
   -4.4440   16.4700   26.3910 C   0  0  0  0  0  0
   -3.7500   17.3720   25.5620 C   0  0  0  0  0  0
   -4.3390   18.6220   25.3700 C   0  0  0  0  0  0
   -5.5490   18.9380   25.9730 C   0  0  0  0  0  0
   -8.8860   17.4770   25.5100 N   0  0  0  0  0  0
   -8.4390   16.5570   24.6360 C   0  0  0  0  0  0
   -8.1100   15.4200   24.9340 O   0  0  0  0  0  0
   -8.3780   17.0240   23.2740 O   0  0  0  0  0  0
   -8.1570   16.1150   22.2030 C   0  0  2  0  0  0
   -6.8350   16.5560   21.6130 C   0  0  2  0  0  0
   -5.9130   17.1860   22.6560 C   0  0  0  0  0  0
   -5.7740   18.6220   22.2090 C   0  0  0  0  0  0
   -6.9420   18.8620   21.4350 O   0  0  0  0  0  0
   -7.2020   17.6710   20.6690 C   0  0  2  0  0  0
   -8.5800   17.4390   20.2860 O   0  0  0  0  0  0
   -9.1910   16.4720   21.1450 C   0  0  0  0  0  0
   -9.5922   17.3138   36.1511 H   0  0  0  0  0  0
  -11.8218   12.9576   32.7907 H   0  0  0  0  0  0
  -13.4771   12.7379   33.4529 H   0  0  0  0  0  0
  -12.1441   11.6611   33.9915 H   0  0  0  0  0  0
  -13.6151   12.3560   37.4769 H   0  0  0  0  0  0
  -12.3216   11.5074   36.5639 H   0  0  0  0  0  0
  -13.9194   11.7987   35.7965 H   0  0  0  0  0  0
   -8.1632   17.8901   33.7103 H   0  0  0  0  0  0
   -7.7974   17.2458   31.3754 H   0  0  0  0  0  0
  -10.5831   14.0120   31.7994 H   0  0  0  0  0  0
  -11.2007   13.9617   29.5213 H   0  0  0  0  0  0
  -12.0942   15.4262   30.0537 H   0  0  0  0  0  0
  -11.9632   16.0818   27.4306 H   0  0  0  0  0  0
  -14.0011   15.5987   28.7508 H   0  0  0  0  0  0
  -13.6334   13.8412   28.6992 H   0  0  0  0  0  0
  -14.0576   14.7148   27.1880 H   0  0  0  0  0  0
  -10.3985   14.2015   26.9317 H   0  0  0  0  0  0
  -11.9845   13.9095   26.1405 H   0  0  0  0  0  0
  -11.5603   13.0358   27.6516 H   0  0  0  0  0  0
  -11.1864   17.6317   29.2075 H   0  0  0  0  0  0
   -9.4095   17.7678   29.4325 H   0  0  0  0  0  0
  -10.7597   16.9117   26.8927 H   0  0  0  0  0  0
  -11.2703   19.3442   27.6219 H   0  0  0  0  0  0
   -8.2396   16.3509   27.1859 H   0  0  0  0  0  0
   -7.8577   19.3538   27.1288 H   0  0  0  0  0  0
   -7.4803   18.2605   28.5032 H   0  0  0  0  0  0
   -6.1545   16.0083   27.6181 H   0  0  0  0  0  0
   -3.9984   15.4912   26.5681 H   0  0  0  0  0  0
   -2.8016   17.1073   25.0944 H   0  0  0  0  0  0
   -3.8432   19.3595   24.7389 H   0  0  0  0  0  0
   -5.9832   19.9254   25.8161 H   0  0  0  0  0  0
   -9.4409   18.3480   25.1312 H   0  0  0  0  0  0
   -8.1979   15.0736   22.5550 H   0  0  0  0  0  0
   -6.3275   15.6931   21.1571 H   0  0  0  0  0  0
   -6.3761   17.1064   23.6506 H   0  0  0  0  0  0
   -4.9474   16.6591   22.6579 H   0  0  0  0  0  0
   -5.7220   19.2772   23.0911 H   0  0  0  0  0  0
   -4.8552   18.7337   21.6146 H   0  0  0  0  0  0
   -6.6630   17.7830   19.7166 H   0  0  0  0  0  0
   -9.4679   15.5678   20.5831 H   0  0  0  0  0  0
  -10.0848   16.8892   21.6319 H   0  0  0  0  0  0
  -12.8134   14.3889   36.5793 H   0  0  0  0  0  0
  1  2  2  0  0  0
  2  3  1  0  0  0
  2  4  1  0  0  0
  3 10  1  0  0  0
  3 46  1  0  0  0
  4  5  2  0  0  0
  4  9  1  0  0  0
  5  6  1  0  0  0
  5  7  1  0  0  0
  6 47  1  0  0  0
  6 48  1  0  0  0
  6 49  1  0  0  0
  7  8  1  0  0  0
  7 87  1  0  0  0
  8 50  1  0  0  0
  8 51  1  0  0  0
  8 52  1  0  0  0
  9 10  2  0  0  0
  9 13  1  0  0  0
 10 11  1  0  0  0
 11 12  2  0  0  0
 11 53  1  0  0  0
 12 14  1  0  0  0
 12 54  1  0  0  0
 13 14  2  0  0  0
 13 55  1  0  0  0
 14 15  1  0  0  0
 15 16  2  0  0  0
 15 17  2  0  0  0
 15 18  1  0  0  0
 18 19  1  0  0  0
 18 23  1  0  0  0
 19 20  1  0  0  0
 19 56  1  0  0  0
 19 57  1  0  0  0
 20 21  1  0  0  0
 20 22  1  0  0  0
 20 58  1  0  0  0
 21 59  1  0  0  0
 21 60  1  0  0  0
 21 61  1  0  0  0
 22 62  1  0  0  0
 22 63  1  0  0  0
 22 64  1  0  0  0
 23 24  1  0  0  0
 23 65  1  0  0  0
 23 66  1  0  0  0
 24 25  1  0  0  0
 24 26  1  0  0  0
 24 67  1  0  0  0
 25 68  1  0  0  0
 26 27  1  0  0  0
 26 34  1  0  0  0
 26 69  1  0  0  0
 27 28  1  0  0  0
 27 70  1  0  0  0
 27 71  1  0  0  0
 28 29  2  0  0  0
 28 33  1  0  0  0
 29 30  1  0  0  0
 29 72  1  0  0  0
 30 31  2  0  0  0
 30 73  1  0  0  0
 31 32  1  0  0  0
 31 74  1  0  0  0
 32 33  2  0  0  0
 32 75  1  0  0  0
 33 76  1  0  0  0
 34 35  1  0  0  0
 34 77  1  0  0  0
 35 36  2  0  0  0
 35 37  1  0  0  0
 37 38  1  0  0  0
 38 39  1  0  0  0
 38 45  1  0  0  0
 38 78  1  0  0  0
 39 40  1  0  0  0
 39 43  1  0  0  0
 39 79  1  0  0  0
 40 41  1  0  0  0
 40 80  1  0  0  0
 40 81  1  0  0  0
 41 42  1  0  0  0
 41 82  1  0  0  0
 41 83  1  0  0  0
 42 43  1  0  0  0
 43 44  1  0  0  0
 43 84  1  0  0  0
 44 45  1  0  0  0
 45 85  1  0  0  0
 45 86  1  0  0  0
M  END
> <s_m_source_file>
../4fe6_ligand.sdf

> <i_m_source_file_index>
1

> <s_epik_input>
W0NIM11cTj1DKFtDSDNdKVxbQ0hdMUMoPU8pW05IXWMoYzEyKVtjSF1bY0hdYyhbY0hdMilTKD1PKSg9TylOKFtDSDJdW0NIXShbQ0gzXSlbQ0gzXSlbQ0gyXVtDQEBIXShbT0hdKVtDQEhdKFtDSDJdYzNbY0hdW2NIXVtjSF1bY0hdW2NIXTMpW05IXUMoPU8pT1tDQEhdNFtDSDJdT1tDQEhdKFtDQEhdNDUpT1tDSDJdW0NIMl01

> <s_epik_cmdline>
J2VwaWtfYXBwJywgJy1pbWFlJywgJ2xpZ2FuZF9wcm8ubWFlJywgJy1vbWFlJywgJ2xpZ2FuZF9wcmVwLm1hZScsICctbXMnLCAnMScsICctcGgnLCAnNycsICctcGh0JywgJzAuNScsICctbnQn

> <r_lp_tautomer_probability>
0.499999999999422

> <r_epik_Ionization_Penalty>
  1.7407

> <r_epik_Ionization_Penalty_Charging>
  0.0000

> <r_epik_Ionization_Penalty_Neutral>
  1.7407

> <r_epik_State_Penalty>
  0.0000

> <r_epik_Charging_Adjusted_Penalty>
9.87683553489765e-07

> <i_epik_Tot_Q>
0

> <i_epik_Tot_abs_Q>
0

> <s_epik_Chemistry_Notes>
This compound has an ester and may undergo hydrolysis at high or low pH. This compound contains an acetal/aminal-like group ( X-CH(R)-Y where X, Y are N, S, or O) that may be acid/base labile, releasing an aldehyde.

$$$$
