4fe9_ligand
                    3D
 Schrodinger Suite 2020-3.
 87 90  0  0  1  0            999 V2000
  -14.2490   88.5190   32.8940 O   0  0  0  0  0  0
  -14.0850   89.8320   33.4580 C   0  0  1  0  0  0
  -14.7660   90.8610   32.5810 C   0  0  2  0  0  0
  -14.2910   90.7790   31.2360 O   0  0  0  0  0  0
  -14.5520   92.2540   33.1830 C   0  0  1  0  0  0
  -15.2490   93.2060   32.3790 O   0  0  0  0  0  0
  -15.0970   92.2970   34.6190 C   0  0  2  0  0  0
  -14.7370   89.9430   34.8320 C   0  0  2  0  0  0
  -14.4500   91.2510   35.3790 O   0  0  0  0  0  0
  -14.3710   88.7980   35.7850 C   0  0  0  0  0  0
  -12.9660   88.8200   36.0490 O   0  0  0  0  0  0
  -16.5260   92.0390   34.5590 O   0  0  0  0  0  0
  -17.3430   92.8130   35.4550 C   0  0  1  0  0  0
  -18.2360   93.7240   34.6400 C   0  0  2  0  0  0
  -17.4380   94.6310   33.8770 O   0  0  0  0  0  0
  -19.1970   94.5100   35.5480 C   0  0  1  0  0  0
  -20.1420   95.1690   34.7180 O   0  0  0  0  0  0
  -19.9830   93.5740   36.4380 C   0  0  2  0  0  0
  -18.2400   91.8930   36.2790 C   0  0  2  0  0  0
  -19.1000   92.6670   37.1140 O   0  0  0  0  0  0
  -17.4180   90.9890   37.1900 C   0  0  0  0  0  0
  -18.2770   89.9710   37.7010 O   0  0  0  0  0  0
  -20.9090   92.8650   35.6320 O   0  0  0  0  0  0
  -22.2070   92.8270   36.1670 C   0  0  1  0  0  0
  -23.1610   93.5240   35.2160 C   0  0  2  0  0  0
  -22.8410   94.9190   35.1440 O   0  0  0  0  0  0
  -24.5870   93.3170   35.6760 C   0  0  1  0  0  0
  -25.4630   93.8680   34.7090 O   0  0  0  0  0  0
  -24.9030   91.8350   35.8410 C   0  0  2  0  0  0
  -22.5910   91.3770   36.3070 C   0  0  2  0  0  0
  -23.9540   91.2450   36.7290 O   0  0  0  0  0  0
  -21.6840   90.6690   37.3080 C   0  0  0  0  0  0
  -22.1000   89.3060   37.3780 O   0  0  0  0  0  0
  -24.8410   91.1780   34.5800 O   0  0  0  0  0  0
  -26.0100   90.4180   34.2630 C   0  0  1  0  0  0
  -26.6740   91.0460   33.0420 C   0  0  2  0  0  0
  -27.2440   92.3120   33.3920 O   0  0  0  0  0  0
  -27.7540   90.1430   32.4450 C   0  0  1  0  0  0
  -28.1250   90.6640   31.1650 O   0  0  0  0  0  0
  -27.2840   88.6950   32.2740 C   0  0  1  0  0  0
  -26.3600   88.5960   31.1760 O   0  0  0  0  0  0
  -25.5790   88.9930   33.9310 C   0  0  2  0  0  0
  -26.6950   88.2110   33.4850 O   0  0  0  0  0  0
  -24.9840   88.3340   35.1560 C   0  0  0  0  0  0
  -24.1730   87.2450   34.7290 O   0  0  0  0  0  0
  -13.8297   88.2897   31.9032 H   0  0  0  0  0  0
  -12.9934   89.9582   33.5069 H   0  0  0  0  0  0
  -15.8385   90.6402   32.4761 H   0  0  0  0  0  0
  -14.3800   89.8353   30.6778 H   0  0  0  0  0  0
  -13.4911   92.5440   33.1611 H   0  0  0  0  0  0
  -14.9939   93.3190   31.3150 H   0  0  0  0  0  0
  -14.9291   93.2510   35.1403 H   0  0  0  0  0  0
  -15.8310   89.8994   34.7264 H   0  0  0  0  0  0
  -14.9211   88.9175   36.7300 H   0  0  0  0  0  0
  -14.6399   87.8365   35.3233 H   0  0  0  0  0  0
  -12.5199   88.0678   36.7162 H   0  0  0  0  0  0
  -16.6443   93.3753   36.0919 H   0  0  0  0  0  0
  -18.7947   93.1255   33.9053 H   0  0  0  0  0  0
  -16.6902   94.2440   33.1691 H   0  0  0  0  0  0
  -18.6550   95.2583   36.1449 H   0  0  0  0  0  0
  -19.8025   95.9079   33.9772 H   0  0  0  0  0  0
  -20.5532   94.0958   37.2207 H   0  0  0  0  0  0
  -18.8753   91.3087   35.5971 H   0  0  0  0  0  0
  -16.5971   90.5369   36.6140 H   0  0  0  0  0  0
  -17.0019   91.5828   38.0172 H   0  0  0  0  0  0
  -17.8785   89.2074   38.3852 H   0  0  0  0  0  0
  -22.1781   93.3429   37.1381 H   0  0  0  0  0  0
  -23.0444   93.1474   34.1891 H   0  0  0  0  0  0
  -21.8378   95.2374   34.8244 H   0  0  0  0  0  0
  -24.7617   93.8574   36.6180 H   0  0  0  0  0  0
  -25.3927   94.9341   34.4472 H   0  0  0  0  0  0
  -25.9089   91.6569   36.2488 H   0  0  0  0  0  0
  -22.5353   90.9053   35.3148 H   0  0  0  0  0  0
  -20.6402   90.7343   36.9670 H   0  0  0  0  0  0
  -21.7788   91.1499   38.2927 H   0  0  0  0  0  0
  -21.5779   88.6052   38.0461 H   0  0  0  0  0  0
  -26.6739   90.4442   35.1397 H   0  0  0  0  0  0
  -25.9054   91.2526   32.2827 H   0  0  0  0  0  0
  -26.6130   93.0948   33.8382 H   0  0  0  0  0  0
  -28.6447   90.1611   33.0902 H   0  0  0  0  0  0
  -28.4920   91.6972   31.0771 H   0  0  0  0  0  0
  -28.1127   88.0077   32.0484 H   0  0  0  0  0  0
  -26.6615   88.9284   30.1717 H   0  0  0  0  0  0
  -24.8633   89.0050   33.0958 H   0  0  0  0  0  0
  -24.3737   89.0655   35.7059 H   0  0  0  0  0  0
  -25.7932   87.9693   35.8057 H   0  0  0  0  0  0
  -23.6447   86.6285   35.4712 H   0  0  0  0  0  0
  1  2  1  0  0  0
  1 46  1  0  0  0
  2  3  1  0  0  0
  2  8  1  0  0  0
  2 47  1  0  0  0
  3  4  1  0  0  0
  3  5  1  0  0  0
  3 48  1  0  0  0
  4 49  1  0  0  0
  5  6  1  0  0  0
  5  7  1  0  0  0
  5 50  1  0  0  0
  6 51  1  0  0  0
  7  9  1  0  0  0
  7 12  1  0  0  0
  7 52  1  0  0  0
  8  9  1  0  0  0
  8 10  1  0  0  0
  8 53  1  0  0  0
 10 11  1  0  0  0
 10 54  1  0  0  0
 10 55  1  0  0  0
 11 56  1  0  0  0
 12 13  1  0  0  0
 13 14  1  0  0  0
 13 19  1  0  0  0
 13 57  1  0  0  0
 14 15  1  0  0  0
 14 16  1  0  0  0
 14 58  1  0  0  0
 15 59  1  0  0  0
 16 17  1  0  0  0
 16 18  1  0  0  0
 16 60  1  0  0  0
 17 61  1  0  0  0
 18 20  1  0  0  0
 18 23  1  0  0  0
 18 62  1  0  0  0
 19 20  1  0  0  0
 19 21  1  0  0  0
 19 63  1  0  0  0
 21 22  1  0  0  0
 21 64  1  0  0  0
 21 65  1  0  0  0
 22 66  1  0  0  0
 23 24  1  0  0  0
 24 25  1  0  0  0
 24 30  1  0  0  0
 24 67  1  0  0  0
 25 26  1  0  0  0
 25 27  1  0  0  0
 25 68  1  0  0  0
 26 69  1  0  0  0
 27 28  1  0  0  0
 27 29  1  0  0  0
 27 70  1  0  0  0
 28 71  1  0  0  0
 29 31  1  0  0  0
 29 34  1  0  0  0
 29 72  1  0  0  0
 30 31  1  0  0  0
 30 32  1  0  0  0
 30 73  1  0  0  0
 32 33  1  0  0  0
 32 74  1  0  0  0
 32 75  1  0  0  0
 33 76  1  0  0  0
 34 35  1  0  0  0
 35 36  1  0  0  0
 35 42  1  0  0  0
 35 77  1  0  0  0
 36 37  1  0  0  0
 36 38  1  0  0  0
 36 78  1  0  0  0
 37 79  1  0  0  0
 38 39  1  0  0  0
 38 40  1  0  0  0
 38 80  1  0  0  0
 39 81  1  0  0  0
 40 41  1  0  0  0
 40 43  1  0  0  0
 40 82  1  0  0  0
 41 83  1  0  0  0
 42 43  1  0  0  0
 42 44  1  0  0  0
 42 84  1  0  0  0
 44 45  1  0  0  0
 44 85  1  0  0  0
 44 86  1  0  0  0
 45 87  1  0  0  0
M  END
> <s_m_source_file>
../4fe9_ligand.sdf

> <i_m_source_file_index>
1

> <s_epik_input>
W09IXVtDQEhdMVtDQEhdKFtPSF0pW0NAQEhdKFtPSF0pW0NASF0oT1tDQEBIXTFbQ0gyXVtPSF0pT1tDQEhdMltDQEhdKFtPSF0pW0NAQEhdKFtPSF0pW0NASF0oT1tDQEBIXTJbQ0gyXVtPSF0pT1tDQEhdM1tDQEhdKFtPSF0pW0NAQEhdKFtPSF0pW0NASF0oT1tDQEBIXTNbQ0gyXVtPSF0pT1tDQEhdNFtDQEhdKFtPSF0pW0NAQEhdKFtPSF0pW0NAQEhdKFtPSF0pT1tDQEBIXTRbQ0gyXVtPSF0=

> <s_epik_cmdline>
J2VwaWtfYXBwJywgJy1pbWFlJywgJ2xpZ2FuZF9wcm8ubWFlJywgJy1vbWFlJywgJ2xpZ2FuZF9wcmVwLm1hZScsICctbXMnLCAnMScsICctcGgnLCAnNycsICctcGh0JywgJzAuNScsICctbnQn

> <r_lp_tautomer_probability>
1

> <r_epik_Ionization_Penalty>
  0.0000

> <r_epik_Ionization_Penalty_Charging>
  0.0000

> <r_epik_Ionization_Penalty_Neutral>
  0.0000

> <r_epik_State_Penalty>
 -0.0000

> <r_epik_Charging_Adjusted_Penalty>
0

> <i_epik_Tot_Q>
0

> <i_epik_Tot_abs_Q>
0

> <s_epik_Chemistry_Notes>
This compound contains an acetal/aminal-like group ( X-CH(R)-Y where X, Y are N, S, or O) that may be acid/base labile, releasing an aldehyde.

$$$$
