4fea_ligand
                    3D
 Schrodinger Suite 2020-3.
 33 36  0  0  1  0            999 V2000
  -49.4630   32.0450   27.3510 Cl  0  0  0  0  0  0
  -49.8130   35.3420   27.3760 C   0  0  0  0  0  0
  -50.4740   34.9850   26.1990 N   0  0  0  0  0  0
  -50.9940   31.0980   24.4510 S   0  0  0  0  0  0
  -49.7770   36.6990   27.7460 C   0  0  0  0  0  0
  -52.9390   37.2990   23.2830 N   0  0  0  0  0  0
  -52.4790   30.7170   21.7920 S   0  0  0  0  0  0
  -50.3990   37.6360   26.8760 C   0  0  0  0  0  0
  -51.5560   33.8540   24.0600 N   0  3  0  0  0  0
  -51.0740   37.2580   25.6500 C   0  0  0  0  0  0
  -52.0920   33.0190   22.9770 N   0  0  0  0  0  0
  -51.0930   35.8740   25.2750 C   0  0  0  0  0  0
  -51.7460   35.2310   24.0720 C   0  0  0  0  0  0
  -52.4900   35.9900   22.9520 C   0  0  0  0  0  0
  -52.7590   35.4120   21.6490 C   0  0  0  0  0  0
  -53.4820   36.2610   20.7710 C   0  0  0  0  0  0
  -53.9390   37.5520   21.0670 C   0  0  0  0  0  0
  -53.6470   38.0780   22.3740 C   0  0  0  0  0  0
  -51.8550   31.8110   23.1130 C   0  0  0  0  0  0
  -53.2910   31.9020   20.6590 C   0  0  0  0  0  0
  -50.5800   32.9920   25.5500 Cu  0  0  0  0  0  0
  -49.3263   34.5860   28.0097 H   0  0  0  0  0  0
  -49.2799   37.0016   28.6795 H   0  0  0  0  0  0
  -50.3667   38.6919   27.1445 H   0  0  0  0  0  0
  -51.5651   38.0075   25.0120 H   0  0  0  0  0  0
  -52.6453   33.4830   22.1472 H   0  0  0  0  0  0
  -52.4334   34.4104   21.3680 H   0  0  0  0  0  0
  -53.7017   35.8735   19.7762 H   0  0  0  0  0  0
  -54.4953   38.1364   20.3341 H   0  0  0  0  0  0
  -53.9781   39.0793   22.6496 H   0  0  0  0  0  0
  -53.7168   31.3579   19.8030 H   0  0  0  0  0  0
  -52.5503   32.6309   20.2984 H   0  0  0  0  0  0
  -54.0941   32.4296   21.1944 H   0  0  0  0  0  0
  1 21  1  0  0  0
  2  3  1  0  0  0
  2  5  2  0  0  0
  2 22  1  0  0  0
  3 12  1  0  0  0
  3 21  1  0  0  0
  4 19  2  0  0  0
  4 21  1  0  0  0
  5  8  1  0  0  0
  5 23  1  0  0  0
  6 14  2  0  0  0
  6 18  1  0  0  0
  7 19  1  0  0  0
  7 20  1  0  0  0
  8 10  1  0  0  0
  8 24  1  0  0  0
  9 11  1  0  0  0
  9 13  2  0  0  0
  9 21  1  0  0  0
 10 12  2  0  0  0
 10 25  1  0  0  0
 11 19  1  0  0  0
 11 26  1  0  0  0
 12 13  1  0  0  0
 13 14  1  0  0  0
 14 15  1  0  0  0
 15 16  2  0  0  0
 15 27  1  0  0  0
 16 17  1  0  0  0
 16 28  1  0  0  0
 17 18  2  0  0  0
 17 29  1  0  0  0
 18 30  1  0  0  0
 20 31  1  0  0  0
 20 32  1  0  0  0
 20 33  1  0  0  0
M  CHG  1   9   1
M  END
> <s_m_source_file>
../4fea_ligand.sdf

> <i_m_source_file_index>
1

> <s_epik_input>
W0NIXTE9W0NIXVtDSDJdW0NIXT1DKE4xW0N1XTIzQ2wpQyg9W04rXTNbTkhdQyg9W1NIXTIpU1tDSDNdKWM0bltjSF1bY0hdW2NIXVtjSF00

> <s_epik_cmdline>
J2VwaWtfYXBwJywgJy1pbWFlJywgJ2xpZ2FuZF9wcm8ubWFlJywgJy1vbWFlJywgJ2xpZ2FuZF9wcmVwLm1hZScsICctbXMnLCAnMScsICctcGgnLCAnNycsICctcGh0JywgJzAuNScsICctbnQn

> <r_lp_tautomer_probability>
1

> <r_epik_Ionization_Penalty>
  0.0000

> <r_epik_Ionization_Penalty_Charging>
  0.0000

> <r_epik_Ionization_Penalty_Neutral>
  0.0000

> <r_epik_State_Penalty>
 -0.0000

> <r_epik_Charging_Adjusted_Penalty>
0

> <i_epik_Tot_Q>
1

> <i_epik_Tot_abs_Q>
1

> <s_epik_Chemistry_Notes>
This compound has an imine and may undergo hydrolysis.

$$$$
