4fem_ligand
                    3D
 Schrodinger Suite 2020-3.
126132  0  0  1  0            999 V2000
   25.6330   32.3290  102.9480 C   0  0  1  0  0  0
   24.8280   32.8930  101.7840 C   0  0  1  0  0  0
   25.3870   34.2610  101.4220 C   0  0  2  0  0  0
   25.2950   35.1790  102.6110 C   0  0  1  0  0  0
   25.9900   34.5510  103.8020 C   0  0  1  0  0  0
   25.7450   35.4380  105.0090 C   0  0  0  0  0  0
   27.0030   32.2280  102.5620 O   0  0  0  0  0  0
   24.8570   31.9870  100.6570 O   0  0  0  0  0  0
   24.6940   34.8380  100.3200 O   0  0  0  0  0  0
   25.5210   33.2290  104.0640 O   0  0  0  0  0  0
   26.5790   35.0160  106.0800 O   0  0  0  0  0  0
   30.3860   30.0280  103.1910 C   0  0  1  0  0  0
   29.4830   29.4340  102.1200 C   0  0  1  0  0  0
   28.4110   30.4620  101.7290 C   0  0  2  0  0  0
   27.6330   30.9850  102.9430 C   0  0  1  0  0  0
   28.5560   31.2250  104.1650 C   0  0  1  0  0  0
   27.7630   31.3310  105.4630 C   0  0  0  0  0  0
   30.8610   31.3210  102.7930 O   0  0  0  0  0  0
   30.2510   29.0330  100.9760 O   0  0  0  0  0  0
   27.4950   29.9160  100.7700 O   0  0  0  0  0  0
   29.5490   30.2040  104.3280 O   0  0  0  0  0  0
   28.1780   32.5330  106.1270 O   0  0  0  0  0  0
   34.1930   33.7650  103.3010 C   0  0  1  0  0  0
   34.1520   32.9190  102.0530 C   0  0  1  0  0  0
   32.7790   32.2880  101.8330 C   0  0  2  0  0  0
   32.2480   31.5850  103.0590 C   0  0  1  0  0  0
   32.3930   32.4910  104.2870 C   0  0  1  0  0  0
   32.1410   31.7160  105.5600 C   0  0  0  0  0  0
   33.3980   34.9060  103.0850 O   0  0  0  0  0  0
   34.4010   33.8180  100.9890 O   0  0  0  0  0  0
   32.8180   31.3410  100.7650 O   0  0  0  0  0  0
   33.7140   33.0300  104.4250 O   0  0  0  0  0  0
   32.5990   32.5320  106.6350 O   0  0  0  0  0  0
   33.8100   38.9950  103.2200 C   0  0  1  0  0  0
   34.6350   38.2770  102.1750 C   0  0  1  0  0  0
   34.0820   36.8770  101.9830 C   0  0  2  0  0  0
   34.1000   36.1170  103.2800 C   0  0  1  0  0  0
   33.3470   36.9180  104.3060 C   0  0  1  0  0  0
   33.3420   36.2270  105.6560 C   0  0  0  0  0  0
   32.4520   39.0480  102.7630 O   0  0  0  0  0  0
   34.5740   39.0060  100.9390 O   0  0  0  0  0  0
   34.8580   36.1650  101.0410 O   0  0  0  0  0  0
   33.8940   38.2320  104.4240 O   0  0  0  0  0  0
   33.2790   37.2540  106.6710 O   0  0  0  0  0  0
   29.0790   41.2290  102.5990 C   0  0  1  0  0  0
   30.0980   41.6690  101.5690 C   0  0  1  0  0  0
   31.2500   40.6680  101.5030 C   0  0  2  0  0  0
   31.8400   40.3380  102.8700 C   0  0  1  0  0  0
   30.7520   40.2360  103.9410 C   0  0  1  0  0  0
   31.3500   40.2650  105.3300 C   0  0  0  0  0  0
   28.6780   39.8610  102.3310 O   0  0  0  0  0  0
   29.4630   41.7490  100.3020 O   0  0  0  0  0  0
   32.2790   41.1760  100.6660 O   0  0  0  0  0  0
   29.7810   41.2910  103.8310 O   0  0  0  0  0  0
   30.7530   41.3640  106.0140 O   0  0  0  0  0  0
   25.2120   37.5390  102.2850 C   0  0  1  0  0  0
   25.5340   38.2790  101.0140 C   0  0  1  0  0  0
   26.9730   38.7560  101.0480 C   0  0  2  0  0  0
   27.2470   39.6200  102.2620 C   0  0  1  0  0  0
   26.8050   38.8720  103.5180 C   0  0  1  0  0  0
   26.8670   39.8010  104.7230 C   0  0  0  0  0  0
   26.0130   36.3750  102.3280 O   0  0  0  0  0  0
   25.3690   37.3580   99.9280 O   0  0  0  0  0  0
   27.2450   39.5040   99.8750 O   0  0  0  0  0  0
   25.4720   38.3690  103.4110 O   0  0  0  0  0  0
   26.7090   39.0290  105.9160 O   0  0  0  0  0  0
   25.3009   31.3298  103.2662 H   0  0  0  0  0  0
   23.7595   32.9712  102.0333 H   0  0  0  0  0  0
   26.4262   34.1628  101.0748 H   0  0  0  0  0  0
   24.2409   35.4241  102.8078 H   0  0  0  0  0  0
   27.0596   34.4045  103.5910 H   0  0  0  0  0  0
   25.9778   36.4815  104.7504 H   0  0  0  0  0  0
   24.6903   35.3619  105.3119 H   0  0  0  0  0  0
   24.4836   30.9583  100.7685 H   0  0  0  0  0  0
   24.6527   34.3072   99.3574 H   0  0  0  0  0  0
   26.5427   35.5419  107.0455 H   0  0  0  0  0  0
   31.2703   29.4163  103.4231 H   0  0  0  0  0  0
   29.0245   28.4993  102.4752 H   0  0  0  0  0  0
   28.9062   31.2988  101.2147 H   0  0  0  0  0  0
   26.8401   30.2743  103.2191 H   0  0  0  0  0  0
   29.1309   32.1434  103.9750 H   0  0  0  0  0  0
   26.6879   31.3710  105.2336 H   0  0  0  0  0  0
   27.9712   30.4534  106.0926 H   0  0  0  0  0  0
   31.0621   28.2985  101.0881 H   0  0  0  0  0  0
   27.8730   29.4908   99.8285 H   0  0  0  0  0  0
   27.7302   32.8106  107.0926 H   0  0  0  0  0  0
   35.2061   34.1040  103.5630 H   0  0  0  0  0  0
   34.9186   32.1305  102.0785 H   0  0  0  0  0  0
   32.0863   33.0892  101.5358 H   0  0  0  0  0  0
   32.7545   30.6268  103.2471 H   0  0  0  0  0  0
   31.7064   33.3396  104.1510 H   0  0  0  0  0  0
   31.0648   31.5098  105.6568 H   0  0  0  0  0  0
   32.6948   30.7662  105.5268 H   0  0  0  0  0  0
   35.3443   34.3828  100.9555 H   0  0  0  0  0  0
   33.1768   31.6472   99.7713 H   0  0  0  0  0  0
   32.5178   32.1727  107.6715 H   0  0  0  0  0  0
   34.1336   40.0242  103.4348 H   0  0  0  0  0  0
   35.6975   38.2423  102.4578 H   0  0  0  0  0  0
   33.0641   36.9314  101.5696 H   0  0  0  0  0  0
   35.1228   35.8740  103.6036 H   0  0  0  0  0  0
   32.3147   37.0599  103.9537 H   0  0  0  0  0  0
   32.4667   35.5644  105.7255 H   0  0  0  0  0  0
   34.2612   35.6331  105.7674 H   0  0  0  0  0  0
   34.9352   40.0441  100.8943 H   0  0  0  0  0  0
   34.9751   36.5537  100.0187 H   0  0  0  0  0  0
   33.2649   36.9755  107.7351 H   0  0  0  0  0  0
   28.1601   41.8319  102.6449 H   0  0  0  0  0  0
   30.4706   42.6792  101.7939 H   0  0  0  0  0  0
   30.8834   39.7424  101.0351 H   0  0  0  0  0  0
   32.5927   41.0879  103.1546 H   0  0  0  0  0  0
   30.1904   39.3044  103.7776 H   0  0  0  0  0  0
   31.1282   39.3184  105.8445 H   0  0  0  0  0  0
   32.4397   40.3962  105.2574 H   0  0  0  0  0  0
   28.6062   42.4236  100.1578 H   0  0  0  0  0  0
   32.0503   41.4735   99.6320 H   0  0  0  0  0  0
   31.0370   41.5847  107.0535 H   0  0  0  0  0  0
   24.1592   37.2299  102.3626 H   0  0  0  0  0  0
   24.8518   39.1275  100.8571 H   0  0  0  0  0  0
   27.6532   37.8915  101.0427 H   0  0  0  0  0  0
   26.7397   40.5928  102.1832 H   0  0  0  0  0  0
   27.4357   37.9788  103.6382 H   0  0  0  0  0  0
   27.8395   40.3147  104.7402 H   0  0  0  0  0  0
   26.0602   40.5455  104.6539 H   0  0  0  0  0  0
   24.3867   36.9001   99.7396 H   0  0  0  0  0  0
   27.1049   39.0451   98.8852 H   0  0  0  0  0  0
   26.7256   39.5245  106.8980 H   0  0  0  0  0  0
  1  2  1  0  0  0
  1  7  1  0  0  0
  1 10  1  0  0  0
  1 67  1  0  0  0
  2  3  1  0  0  0
  2  8  1  0  0  0
  2 68  1  0  0  0
  3  4  1  0  0  0
  3  9  1  0  0  0
  3 69  1  0  0  0
  4  5  1  0  0  0
  4 62  1  0  0  0
  4 70  1  0  0  0
  5  6  1  0  0  0
  5 10  1  0  0  0
  5 71  1  0  0  0
  6 11  1  0  0  0
  6 72  1  0  0  0
  6 73  1  0  0  0
  7 15  1  0  0  0
  8 74  1  0  0  0
  9 75  1  0  0  0
 11 76  1  0  0  0
 12 13  1  0  0  0
 12 18  1  0  0  0
 12 21  1  0  0  0
 12 77  1  0  0  0
 13 14  1  0  0  0
 13 19  1  0  0  0
 13 78  1  0  0  0
 14 15  1  0  0  0
 14 20  1  0  0  0
 14 79  1  0  0  0
 15 16  1  0  0  0
 15 80  1  0  0  0
 16 17  1  0  0  0
 16 21  1  0  0  0
 16 81  1  0  0  0
 17 22  1  0  0  0
 17 82  1  0  0  0
 17 83  1  0  0  0
 18 26  1  0  0  0
 19 84  1  0  0  0
 20 85  1  0  0  0
 22 86  1  0  0  0
 23 24  1  0  0  0
 23 29  1  0  0  0
 23 32  1  0  0  0
 23 87  1  0  0  0
 24 25  1  0  0  0
 24 30  1  0  0  0
 24 88  1  0  0  0
 25 26  1  0  0  0
 25 31  1  0  0  0
 25 89  1  0  0  0
 26 27  1  0  0  0
 26 90  1  0  0  0
 27 28  1  0  0  0
 27 32  1  0  0  0
 27 91  1  0  0  0
 28 33  1  0  0  0
 28 92  1  0  0  0
 28 93  1  0  0  0
 29 37  1  0  0  0
 30 94  1  0  0  0
 31 95  1  0  0  0
 33 96  1  0  0  0
 34 35  1  0  0  0
 34 40  1  0  0  0
 34 43  1  0  0  0
 34 97  1  0  0  0
 35 36  1  0  0  0
 35 41  1  0  0  0
 35 98  1  0  0  0
 36 37  1  0  0  0
 36 42  1  0  0  0
 36 99  1  0  0  0
 37 38  1  0  0  0
 37100  1  0  0  0
 38 39  1  0  0  0
 38 43  1  0  0  0
 38101  1  0  0  0
 39 44  1  0  0  0
 39102  1  0  0  0
 39103  1  0  0  0
 40 48  1  0  0  0
 41104  1  0  0  0
 42105  1  0  0  0
 44106  1  0  0  0
 45 46  1  0  0  0
 45 51  1  0  0  0
 45 54  1  0  0  0
 45107  1  0  0  0
 46 47  1  0  0  0
 46 52  1  0  0  0
 46108  1  0  0  0
 47 48  1  0  0  0
 47 53  1  0  0  0
 47109  1  0  0  0
 48 49  1  0  0  0
 48110  1  0  0  0
 49 50  1  0  0  0
 49 54  1  0  0  0
 49111  1  0  0  0
 50 55  1  0  0  0
 50112  1  0  0  0
 50113  1  0  0  0
 51 59  1  0  0  0
 52114  1  0  0  0
 53115  1  0  0  0
 55116  1  0  0  0
 56 57  1  0  0  0
 56 62  1  0  0  0
 56 65  1  0  0  0
 56117  1  0  0  0
 57 58  1  0  0  0
 57 63  1  0  0  0
 57118  1  0  0  0
 58 59  1  0  0  0
 58 64  1  0  0  0
 58119  1  0  0  0
 59 60  1  0  0  0
 59120  1  0  0  0
 60 61  1  0  0  0
 60 65  1  0  0  0
 60121  1  0  0  0
 61 66  1  0  0  0
 61122  1  0  0  0
 61123  1  0  0  0
 63124  1  0  0  0
 64125  1  0  0  0
 66126  1  0  0  0
M  END
> <s_m_source_file>
../4fem_ligand.sdf

> <i_m_source_file_index>
1

> <s_epik_input>
W0NASF0xMltDQEhdKFtPSF0pW0NAQEhdKFtPSF0pW0NAQEhdKFtDQEhdKE8yKVtDSDJdW09IXSlPW0NAQEhdM1tDQEhdKFtPSF0pW0NAQEhdKFtPSF0pW0NAQEhdKFtDQEhdKE8zKVtDSDJdW09IXSlPW0NAQEhdNFtDQEhdKFtPSF0pW0NAQEhdKFtPSF0pW0NAQEhdKFtDQEhdKE80KVtDSDJdW09IXSlPW0NAQEhdNVtDQEhdKFtPSF0pW0NAQEhdKFtPSF0pW0NAQEhdKFtDQEhdKE81KVtDSDJdW09IXSlPW0NAQEhdNltDQEhdKFtPSF0pW0NAQEhdKFtPSF0pW0NAQEhdKFtDQEhdKE82KVtDSDJdW09IXSlPW0NAQEhdN1tDQEhdKFtPSF0pW0NAQEhdKFtPSF0pW0NASF0oTzEpW0NASF0oTzcpW0NIMl1bT0hd

> <s_epik_cmdline>
J2VwaWtfYXBwJywgJy1pbWFlJywgJ2xpZ2FuZF9wcm8ubWFlJywgJy1vbWFlJywgJ2xpZ2FuZF9wcmVwLm1hZScsICctbXMnLCAnMScsICctcGgnLCAnNycsICctcGh0JywgJzAuNScsICctbnQn

> <r_lp_tautomer_probability>
1

> <r_epik_Ionization_Penalty>
  0.0000

> <r_epik_Ionization_Penalty_Charging>
  0.0000

> <r_epik_Ionization_Penalty_Neutral>
  0.0000

> <r_epik_State_Penalty>
 -0.0000

> <r_epik_Charging_Adjusted_Penalty>
0

> <i_epik_Tot_Q>
0

> <i_epik_Tot_abs_Q>
0

> <s_epik_Chemistry_Notes>
This compound contains an acetal/aminal-like group ( X-CH(R)-Y where X, Y are N, S, or O) that may be acid/base labile, releasing an aldehyde.

$$$$
