4feq_ligand
                    3D
 Schrodinger Suite 2020-3.
 66 69  0  0  1  0            999 V2000
    8.7970  -10.5110   15.1260 N   0  0  0  0  0  0
   10.7970  -11.4130   14.3210 N   0  0  0  0  0  0
    9.0110  -14.1410   16.1580 C   0  0  0  0  0  0
    9.9580  -10.3630   14.4460 C   0  0  0  0  0  0
    6.3190  -10.6840   16.2460 C   0  0  0  0  0  0
    4.9120  -11.2080   15.9910 C   0  0  0  0  0  0
    6.2640   -9.9300   17.5610 C   0  0  0  0  0  0
    9.7480   -7.9190   14.4580 C   0  0  0  0  0  0
    9.6320  -16.4100   18.3200 C   0  0  0  0  0  0
    9.2990  -17.8700   18.6580 C   0  0  0  0  0  0
    9.9370  -19.5080   20.3960 C   0  0  0  0  0  0
   10.5110  -17.2360   20.7870 C   0  0  0  0  0  0
    6.7190   -4.1480   14.3590 C   0  0  0  0  0  0
   10.5070  -19.5720   21.7990 C   0  0  0  0  0  0
   11.0320  -18.0580   22.0480 C   0  0  0  0  0  0
    9.5430  -20.5120   19.8020 O   0  0  0  0  0  0
    9.9080  -18.2600   19.9390 N   0  0  0  0  0  0
   10.1110  -16.3360   16.8790 C   0  0  0  0  0  0
   10.0460  -14.9700   16.3700 N   0  0  0  0  0  0
    7.8570  -14.4400   16.4350 O   0  0  0  0  0  0
    9.3090  -12.7850   15.5710 C   0  0  0  0  0  0
    8.4480  -11.6940   15.6930 C   0  0  0  0  0  0
    7.2760  -11.7760   16.3530 N   0  0  0  0  0  0
    5.0630  -10.4700   18.3230 C   0  0  0  0  0  0
    4.1390  -11.1120   17.2980 C   0  0  0  0  0  0
   10.4900  -12.6030   14.8570 C   0  0  0  0  0  0
   10.2880   -9.1690   13.9110 N   0  0  0  0  0  0
    8.6330   -7.3560   13.5780 C   0  0  0  0  0  0
    7.7060   -6.3600   14.2680 C   0  0  0  0  0  0
    6.9420   -6.7120   15.3800 C   0  0  0  0  0  0
    6.0970   -5.7610   15.9520 C   0  0  0  0  0  0
    6.0060   -4.5230   15.4340 N   0  0  0  0  0  0
    7.5750   -5.0680   13.7550 C   0  0  0  0  0  0
    6.6806  -10.0668   15.4104 H   0  0  0  0  0  0
    4.4283  -10.5970   15.2146 H   0  0  0  0  0  0
    4.9656  -12.2538   15.6541 H   0  0  0  0  0  0
    7.1942  -10.1031   18.1221 H   0  0  0  0  0  0
    6.1505   -8.8541   17.3623 H   0  0  0  0  0  0
    9.3380   -8.1049   15.4617 H   0  0  0  0  0  0
   10.5510   -7.1700   14.5229 H   0  0  0  0  0  0
    8.7319  -15.7902   18.4453 H   0  0  0  0  0  0
   10.4227  -16.0487   18.9940 H   0  0  0  0  0  0
    8.2080  -17.9895   18.7325 H   0  0  0  0  0  0
    9.6866  -18.5274   17.8658 H   0  0  0  0  0  0
    9.7810  -16.4821   21.1169 H   0  0  0  0  0  0
   11.3603  -16.7352   20.2994 H   0  0  0  0  0  0
    6.6294   -3.1362   13.9635 H   0  0  0  0  0  0
    9.7151  -19.8663   22.5034 H   0  0  0  0  0  0
   11.3200  -20.3123   21.8311 H   0  0  0  0  0  0
   12.1301  -18.0084   22.0898 H   0  0  0  0  0  0
   10.6102  -17.6256   22.9673 H   0  0  0  0  0  0
   11.1534  -16.6825   16.8209 H   0  0  0  0  0  0
    9.4762  -16.9757   16.2483 H   0  0  0  0  0  0
   10.9693  -14.4457   16.0824 H   0  0  0  0  0  0
    7.0391  -12.6567   16.9680 H   0  0  0  0  0  0
    5.4007  -11.2123   19.0612 H   0  0  0  0  0  0
    4.5550   -9.6429   18.8406 H   0  0  0  0  0  0
    3.2404  -10.4955   17.1481 H   0  0  0  0  0  0
    3.8420  -12.1200   17.6233 H   0  0  0  0  0  0
   11.1758  -13.4409   14.7317 H   0  0  0  0  0  0
   10.9735   -9.1422   13.0512 H   0  0  0  0  0  0
    9.0744   -6.8311   12.7180 H   0  0  0  0  0  0
    7.9983   -8.1794   13.2187 H   0  0  0  0  0  0
    7.0043   -7.7172   15.7969 H   0  0  0  0  0  0
    5.5041   -6.0239   16.8281 H   0  0  0  0  0  0
    8.1471   -4.7760   12.8744 H   0  0  0  0  0  0
  1  4  2  0  0  0
  1 22  1  0  0  0
  2  4  1  0  0  0
  2 26  2  0  0  0
  3 19  1  0  0  0
  3 20  2  0  0  0
  3 21  1  0  0  0
  4 27  1  0  0  0
  5  6  1  0  0  0
  5  7  1  0  0  0
  5 23  1  0  0  0
  5 34  1  0  0  0
  6 25  1  0  0  0
  6 35  1  0  0  0
  6 36  1  0  0  0
  7 24  1  0  0  0
  7 37  1  0  0  0
  7 38  1  0  0  0
  8 27  1  0  0  0
  8 28  1  0  0  0
  8 39  1  0  0  0
  8 40  1  0  0  0
  9 10  1  0  0  0
  9 18  1  0  0  0
  9 41  1  0  0  0
  9 42  1  0  0  0
 10 17  1  0  0  0
 10 43  1  0  0  0
 10 44  1  0  0  0
 11 14  1  0  0  0
 11 16  2  0  0  0
 11 17  1  0  0  0
 12 15  1  0  0  0
 12 17  1  0  0  0
 12 45  1  0  0  0
 12 46  1  0  0  0
 13 32  2  0  0  0
 13 33  1  0  0  0
 13 47  1  0  0  0
 14 15  1  0  0  0
 14 48  1  0  0  0
 14 49  1  0  0  0
 15 50  1  0  0  0
 15 51  1  0  0  0
 18 19  1  0  0  0
 18 52  1  0  0  0
 18 53  1  0  0  0
 19 54  1  0  0  0
 21 22  2  0  0  0
 21 26  1  0  0  0
 22 23  1  0  0  0
 23 55  1  0  0  0
 24 25  1  0  0  0
 24 56  1  0  0  0
 24 57  1  0  0  0
 25 58  1  0  0  0
 25 59  1  0  0  0
 26 60  1  0  0  0
 27 61  1  0  0  0
 28 29  1  0  0  0
 28 62  1  0  0  0
 28 63  1  0  0  0
 29 30  1  0  0  0
 29 33  2  0  0  0
 30 31  2  0  0  0
 30 64  1  0  0  0
 31 32  1  0  0  0
 31 65  1  0  0  0
 33 66  1  0  0  0
M  END
> <s_m_source_file>
../4feq_ligand.sdf

> <i_m_source_file_index>
1

> <s_epik_input>
W2NIXTFbY0hdbltjSF1bY0hdYzFbQ0gyXVtDSDJdW05IXWMybmMoW05IXVtDSF0zW0NIMl1bQ0gyXVtDSDJdW0NIMl0zKWMoW2NIXW4yKUMoPU8pW05IXVtDSDJdW0NIMl1bQ0gyXU40W0NIMl1bQ0gyXVtDSDJdQzQ9Tw==

> <s_epik_cmdline>
J2VwaWtfYXBwJywgJy1pbWFlJywgJ2xpZ2FuZF9wcm8ubWFlJywgJy1vbWFlJywgJ2xpZ2FuZF9wcmVwLm1hZScsICctbXMnLCAnMScsICctcGgnLCAnNycsICctcGh0JywgJzAuNScsICctbnQn

> <r_lp_tautomer_probability>
1

> <r_epik_Ionization_Penalty>
  0.1035

> <r_epik_Ionization_Penalty_Charging>
  0.0000

> <r_epik_Ionization_Penalty_Neutral>
  0.1035

> <r_epik_State_Penalty>
 -0.0000

> <r_epik_Charging_Adjusted_Penalty>
0

> <i_epik_Tot_Q>
0

> <i_epik_Tot_abs_Q>
0

$$$$
