4fev_ligand
                    3D
 Schrodinger Suite 2020-3.
 40 42  0  0  1  0            999 V2000
  -21.0340  -27.1620  -17.7210 N   0  0  0  0  0  0
  -21.8970  -25.1380  -20.5680 C   0  0  0  0  0  0
  -21.5400  -25.3810  -19.3220 N   0  0  0  0  0  0
  -21.3720  -26.6490  -18.9010 C   0  0  0  0  0  0
  -21.5620  -27.7160  -19.7680 C   0  0  0  0  0  0
  -21.9370  -27.4060  -21.0840 C   0  0  0  0  0  0
  -22.0890  -26.1270  -21.4220 N   0  0  0  0  0  0
  -20.9910  -28.3990  -17.7430 N   0  0  0  0  0  0
  -21.2720  -28.8410  -18.9770 C   0  0  0  0  0  0
  -22.1590  -28.2980  -22.0510 N   0  0  0  0  0  0
  -21.3590  -30.1980  -19.3170 C   0  0  0  0  0  0
  -21.5500  -30.6650  -20.6120 C   0  0  0  0  0  0
  -21.6220  -32.0240  -20.8940 C   0  0  0  0  0  0
  -21.4940  -32.9430  -19.8660 C   0  0  0  0  0  0
  -21.2920  -32.4970  -18.5630 C   0  0  0  0  0  0
  -21.2110  -31.1330  -18.2960 C   0  0  0  0  0  0
  -21.5720  -34.4390  -20.1740 C   0  0  0  0  0  0
  -20.7230  -26.3530  -16.5060 C   0  0  0  0  0  0
  -20.3370  -27.3330  -15.3970 C   0  0  0  0  0  0
  -19.5340  -25.4270  -16.8210 C   0  0  0  0  0  0
  -21.9560  -25.5330  -16.1060 C   0  0  0  0  0  0
  -22.0353  -24.1081  -20.8972 H   0  0  0  0  0  0
  -22.0520  -29.3728  -21.8429 H   0  0  0  0  0  0
  -22.4490  -27.9586  -23.0563 H   0  0  0  0  0  0
  -21.6457  -29.9474  -21.4269 H   0  0  0  0  0  0
  -21.7782  -32.3643  -21.9177 H   0  0  0  0  0  0
  -21.1971  -33.2170  -17.7502 H   0  0  0  0  0  0
  -21.0297  -30.7933  -17.2763 H   0  0  0  0  0  0
  -21.7343  -34.5833  -21.2523 H   0  0  0  0  0  0
  -22.4072  -34.8855  -19.6145 H   0  0  0  0  0  0
  -20.6306  -34.9241  -19.8767 H   0  0  0  0  0  0
  -19.4520  -27.9079  -15.7074 H   0  0  0  0  0  0
  -21.1739  -28.0215  -15.2085 H   0  0  0  0  0  0
  -20.1075  -26.7744  -14.4776 H   0  0  0  0  0  0
  -18.6617  -26.0340  -17.1051 H   0  0  0  0  0  0
  -19.2899  -24.8282  -15.9312 H   0  0  0  0  0  0
  -19.8009  -24.7573  -17.6518 H   0  0  0  0  0  0
  -22.7925  -26.2125  -15.8855 H   0  0  0  0  0  0
  -22.2354  -24.8638  -16.9331 H   0  0  0  0  0  0
  -21.7243  -24.9347  -15.2125 H   0  0  0  0  0  0
  1  4  1  0  0  0
  1  8  1  0  0  0
  1 18  1  0  0  0
  2  3  2  0  0  0
  2  7  1  0  0  0
  2 22  1  0  0  0
  3  4  1  0  0  0
  4  5  2  0  0  0
  5  6  1  0  0  0
  5  9  1  0  0  0
  6  7  2  0  0  0
  6 10  1  0  0  0
  8  9  2  0  0  0
  9 11  1  0  0  0
 10 23  1  0  0  0
 10 24  1  0  0  0
 11 12  2  0  0  0
 11 16  1  0  0  0
 12 13  1  0  0  0
 12 25  1  0  0  0
 13 14  2  0  0  0
 13 26  1  0  0  0
 14 15  1  0  0  0
 14 17  1  0  0  0
 15 16  2  0  0  0
 15 27  1  0  0  0
 16 28  1  0  0  0
 17 29  1  0  0  0
 17 30  1  0  0  0
 17 31  1  0  0  0
 18 19  1  0  0  0
 18 20  1  0  0  0
 18 21  1  0  0  0
 19 32  1  0  0  0
 19 33  1  0  0  0
 19 34  1  0  0  0
 20 35  1  0  0  0
 20 36  1  0  0  0
 20 37  1  0  0  0
 21 38  1  0  0  0
 21 39  1  0  0  0
 21 40  1  0  0  0
M  END
> <s_m_source_file>
../4fev_ligand.sdf

> <i_m_source_file_index>
1

> <s_epik_input>
bjFbY0hdbmMoW05IMl0pYyhjMTIpYyhubjJDKFtDSDNdKShbQ0gzXSlbQ0gzXSktYzNbY0hdW2NIXWMoW0NIM10pW2NIXVtjSF0z

> <s_epik_cmdline>
J2VwaWtfYXBwJywgJy1pbWFlJywgJ2xpZ2FuZF9wcm8ubWFlJywgJy1vbWFlJywgJ2xpZ2FuZF9wcmVwLm1hZScsICctbXMnLCAnMScsICctcGgnLCAnNycsICctcGh0JywgJzAuNScsICctbnQn

> <r_lp_tautomer_probability>
1

> <r_epik_Ionization_Penalty>
  0.0017

> <r_epik_Ionization_Penalty_Charging>
  0.0000

> <r_epik_Ionization_Penalty_Neutral>
  0.0017

> <r_epik_State_Penalty>
 -0.0000

> <r_epik_Charging_Adjusted_Penalty>
0

> <i_epik_Tot_Q>
0

> <i_epik_Tot_abs_Q>
0

$$$$
