4few_ligand
                    3D
 Schrodinger Suite 2020-3.
 37 39  0  0  1  0            999 V2000
  -21.3120  -27.3190  -17.9070 C   0  0  0  0  0  0
  -21.4630  -26.0450  -18.3030 N   0  0  0  0  0  0
  -21.7980  -25.7750  -19.5440 C   0  0  0  0  0  0
  -21.9830  -26.7390  -20.4280 N   0  0  0  0  0  0
  -21.8410  -28.0290  -20.1120 C   0  0  0  0  0  0
  -21.4900  -28.3660  -18.8030 C   0  0  0  0  0  0
  -21.2480  -29.5130  -18.0280 C   0  0  0  0  0  0
  -20.9500  -29.1030  -16.7960 N   0  0  0  0  0  0
  -20.9900  -27.8700  -16.7340 N   0  0  0  0  0  0
  -21.2940  -30.8560  -18.3990 C   0  0  0  0  0  0
  -21.6080  -31.2860  -19.6790 C   0  0  0  0  0  0
  -21.6520  -32.6310  -20.0010 C   0  0  0  0  0  0
  -21.3820  -33.5730  -19.0210 C   0  0  0  0  0  0
  -21.0710  -33.1640  -17.7290 C   0  0  0  0  0  0
  -21.0320  -31.8090  -17.4200 C   0  0  0  0  0  0
  -20.6860  -27.1140  -15.4890 C   0  0  0  0  0  0
  -21.9360  -26.3730  -15.0330 C   0  0  0  0  0  0
  -20.2340  -28.1320  -14.4450 C   0  0  0  0  0  0
  -19.5410  -26.1240  -15.7610 C   0  0  0  0  0  0
  -22.0540  -28.9110  -21.0800 N   0  0  0  0  0  0
  -21.4320  -35.2520  -19.4220 Cl  0  0  0  0  0  0
  -21.9257  -24.7366  -19.8500 H   0  0  0  0  0  0
  -21.8254  -30.5470  -20.4501 H   0  0  0  0  0  0
  -21.8966  -32.9465  -21.0153 H   0  0  0  0  0  0
  -20.8579  -33.9053  -16.9588 H   0  0  0  0  0  0
  -20.7947  -31.4915  -16.4046 H   0  0  0  0  0  0
  -22.7426  -27.0966  -14.8437 H   0  0  0  0  0  0
  -22.2515  -25.6691  -15.8172 H   0  0  0  0  0  0
  -21.7167  -25.8182  -14.1088 H   0  0  0  0  0  0
  -21.0506  -28.8421  -14.2477 H   0  0  0  0  0  0
  -19.9695  -27.6095  -13.5139 H   0  0  0  0  0  0
  -19.3562  -28.6779  -14.8212 H   0  0  0  0  0  0
  -19.8630  -25.3886  -16.5130 H   0  0  0  0  0  0
  -18.6639  -26.6719  -16.1359 H   0  0  0  0  0  0
  -19.2771  -25.6034  -14.8286 H   0  0  0  0  0  0
  -22.3278  -28.5660  -22.0880 H   0  0  0  0  0  0
  -21.9568  -29.9873  -20.8746 H   0  0  0  0  0  0
  1  2  1  0  0  0
  1  6  2  0  0  0
  1  9  1  0  0  0
  2  3  2  0  0  0
  3  4  1  0  0  0
  3 22  1  0  0  0
  4  5  2  0  0  0
  5  6  1  0  0  0
  5 20  1  0  0  0
  6  7  1  0  0  0
  7  8  2  0  0  0
  7 10  1  0  0  0
  8  9  1  0  0  0
  9 16  1  0  0  0
 10 11  2  0  0  0
 10 15  1  0  0  0
 11 12  1  0  0  0
 11 23  1  0  0  0
 12 13  2  0  0  0
 12 24  1  0  0  0
 13 14  1  0  0  0
 13 21  1  0  0  0
 14 15  2  0  0  0
 14 25  1  0  0  0
 15 26  1  0  0  0
 16 17  1  0  0  0
 16 18  1  0  0  0
 16 19  1  0  0  0
 17 27  1  0  0  0
 17 28  1  0  0  0
 17 29  1  0  0  0
 18 30  1  0  0  0
 18 31  1  0  0  0
 18 32  1  0  0  0
 19 33  1  0  0  0
 19 34  1  0  0  0
 19 35  1  0  0  0
 20 36  1  0  0  0
 20 37  1  0  0  0
M  END
> <s_m_source_file>
../4few_ligand.sdf

> <i_m_source_file_index>
1

> <s_epik_input>
bjFbY0hdbmMoW05IMl0pYyhjMTIpYyhubjJDKFtDSDNdKShbQ0gzXSlbQ0gzXSktYzNbY0hdW2NIXWMoQ2wpW2NIXVtjSF0z

> <s_epik_cmdline>
J2VwaWtfYXBwJywgJy1pbWFlJywgJ2xpZ2FuZF9wcm8ubWFlJywgJy1vbWFlJywgJ2xpZ2FuZF9wcmVwLm1hZScsICctbXMnLCAnMScsICctcGgnLCAnNycsICctcGh0JywgJzAuNScsICctbnQn

> <r_lp_tautomer_probability>
1

> <r_epik_Ionization_Penalty>
  0.0008

> <r_epik_Ionization_Penalty_Charging>
  0.0000

> <r_epik_Ionization_Penalty_Neutral>
  0.0008

> <r_epik_State_Penalty>
 -0.0000

> <r_epik_Charging_Adjusted_Penalty>
0

> <i_epik_Tot_Q>
0

> <i_epik_Tot_abs_Q>
0

$$$$
