4ffs_ligand
                    3D
 Schrodinger Suite 2020-3.
 47 49  0  0  1  0            999 V2000
  -37.0930  -48.8680    7.9830 C   0  0  0  0  0  0
  -35.8960  -50.3090   10.0380 C   0  0  0  0  0  0
  -35.3800  -49.0400    9.5550 C   0  0  0  0  0  0
  -34.0790  -49.8340   11.2590 C   0  0  0  0  0  0
  -34.1020  -43.4680   10.9790 O   0  0  0  0  0  0
  -35.1100  -44.4760   10.8480 C   0  0  2  0  0  0
  -35.2790  -45.2390   12.1550 C   0  0  1  0  0  0
  -36.5980  -46.0030   12.2470 C   0  0  0  0  0  0
  -37.9710  -44.9410   12.4930 S   0  0  0  0  0  0
  -37.9830  -44.7410   14.2550 C   0  0  0  0  0  0
  -39.0650  -43.7270   14.6220 C   0  0  0  0  0  0
  -39.3460  -43.6470   16.1130 C   0  0  0  0  0  0
  -38.1010  -43.3510   16.9000 C   0  0  0  0  0  0
  -34.1440  -46.2470   12.1290 C   0  0  0  0  0  0
  -33.6470  -46.2480   10.7260 N   0  0  2  0  0  0
  -34.6180  -45.5370    9.8810 C   0  0  0  0  0  0
  -33.2640  -47.5500   10.2280 C   0  0  0  0  0  0
  -35.0930  -50.7390   11.0340 N   0  0  0  0  0  0
  -37.0980  -50.8070    9.3660 C   0  0  0  0  0  0
  -37.6330  -51.9990    9.7830 N   0  0  0  0  0  0
  -35.9740  -48.3510    8.5570 N   0  0  0  0  0  0
  -34.1950  -48.7370   10.3740 C   0  0  3  0  0  0
  -37.6440  -50.0510    8.3820 N   0  0  0  0  0  0
  -37.5686  -48.3159    7.1724 H   0  0  0  0  0  0
  -33.3314  -50.0290   12.0420 H   0  0  0  0  0  0
  -34.2694  -42.6055   11.6409 H   0  0  0  0  0  0
  -36.0078  -43.9256   10.5303 H   0  0  0  0  0  0
  -35.2687  -44.5451   13.0085 H   0  0  0  0  0  0
  -36.7640  -46.5616   11.3140 H   0  0  0  0  0  0
  -36.5567  -46.7055   13.0925 H   0  0  0  0  0  0
  -38.1984  -45.7083   14.7323 H   0  0  0  0  0  0
  -37.0000  -44.3779   14.5895 H   0  0  0  0  0  0
  -38.7546  -42.7243   14.2929 H   0  0  0  0  0  0
  -40.0075  -44.0005   14.1252 H   0  0  0  0  0  0
  -40.0753  -42.8465   16.3062 H   0  0  0  0  0  0
  -39.7546  -44.6071   16.4612 H   0  0  0  0  0  0
  -38.3473  -43.3016   17.9709 H   0  0  0  0  0  0
  -37.6824  -42.3870   16.5752 H   0  0  0  0  0  0
  -37.3618  -44.1476   16.7301 H   0  0  0  0  0  0
  -33.3593  -45.9339   12.8335 H   0  0  0  0  0  0
  -34.5255  -47.2364   12.4213 H   0  0  0  0  0  0
  -35.4647  -46.1617    9.5603 H   0  0  0  0  0  0
  -34.1669  -45.0519    9.0028 H   0  0  0  0  0  0
  -33.0875  -47.4905    9.1439 H   0  0  0  0  0  0
  -32.3432  -47.8790   10.7319 H   0  0  0  0  0  0
  -37.1452  -52.5695   10.5871 H   0  0  0  0  0  0
  -38.5499  -52.3846    9.3133 H   0  0  0  0  0  0
  1 21  2  0  0  0
  1 23  1  0  0  0
  1 24  1  0  0  0
  2  3  2  0  0  0
  2 18  1  0  0  0
  2 19  1  0  0  0
  3 21  1  0  0  0
  3 22  1  0  0  0
  4 18  2  0  0  0
  4 22  1  0  0  0
  4 25  1  0  0  0
  5  6  1  0  0  0
  5 26  1  0  0  0
  6  7  1  0  0  0
  6 16  1  0  0  0
  6 27  1  0  0  0
  7  8  1  0  0  0
  7 14  1  0  0  0
  7 28  1  0  0  0
  8  9  1  0  0  0
  8 29  1  0  0  0
  8 30  1  0  0  0
  9 10  1  0  0  0
 10 11  1  0  0  0
 10 31  1  0  0  0
 10 32  1  0  0  0
 11 12  1  0  0  0
 11 33  1  0  0  0
 11 34  1  0  0  0
 12 13  1  0  0  0
 12 35  1  0  0  0
 12 36  1  0  0  0
 13 37  1  0  0  0
 13 38  1  0  0  0
 13 39  1  0  0  0
 14 15  1  0  0  0
 14 40  1  0  0  0
 14 41  1  0  0  0
 15 16  1  0  0  0
 15 17  1  0  0  0
 16 42  1  0  0  0
 16 43  1  0  0  0
 17 22  1  0  0  0
 17 44  1  0  0  0
 17 45  1  0  0  0
 19 20  1  0  0  0
 19 23  2  0  0  0
 20 46  1  0  0  0
 20 47  1  0  0  0
M  END
> <s_m_source_file>
../4ffs_ligand.sdf

> <i_m_source_file_index>
1

> <s_epik_input>
W05IMl1jMW5bY0hdbmMoYzEyKVtDSF0oW0NIXT1OMilbQ0gyXVtOQEBIK10oW0NIMl0zKVtDSDJdW0NAQEhdKFtDQEhdM1tPSF0pW0NIMl1TW0NIMl1bQ0gyXVtDSDJdW0NIM10=

> <s_epik_cmdline>
J2VwaWtfYXBwJywgJy1pbWFlJywgJ2xpZ2FuZF9wcm8ubWFlJywgJy1vbWFlJywgJ2xpZ2FuZF9wcmVwLm1hZScsICctbXMnLCAnMScsICctcGgnLCAnNycsICctcGh0JywgJzAuNScsICctbnQn

> <r_epik_Ionization_Penalty>
  0.0403

> <r_epik_Ionization_Penalty_Charging>
  0.0000

> <r_epik_Ionization_Penalty_Neutral>
  0.0403

> <r_epik_State_Penalty>
  0.0296

> <r_epik_Charging_Adjusted_Penalty>
0.0295800909866344

> <i_epik_Tot_Q>
0

> <i_epik_Tot_abs_Q>
0

> <s_epik_Chemistry_Notes>
This compound has an imine and may undergo hydrolysis.

$$$$
