4fgt_ligand
                    3D
 Schrodinger Suite 2020-3.
 71 71  0  0  1  0            999 V2000
   27.9040  -53.3130    9.5420 N   0  3  0  0  0  0
   28.5760  -52.3450   10.4670 C   0  0  2  0  0  0
   28.8290  -52.6450   11.9880 C   0  0  0  0  0  0
   29.0690  -51.6640   12.6840 O   0  0  0  0  0  0
   27.7350  -51.0890   10.5280 C   0  0  0  0  0  0
   27.4590  -50.0620    9.1310 S   0  0  0  0  0  0
   28.8660  -53.8460   12.5990 N   0  0  0  0  0  0
   28.9930  -55.1650   11.9930 C   0  0  2  0  0  0
   28.5320  -56.2700   12.9790 C   0  0  0  0  0  0
   28.2680  -55.9870   14.1420 O   0  0  0  0  0  0
   30.4650  -55.3880   11.6360 C   0  0  0  0  0  0
   31.3390  -55.9430   12.7710 C   0  0  0  0  0  0
   31.6210  -54.9370   13.8560 C   0  0  0  0  0  0
   31.0450  -53.8510   13.8870 O   0  0  0  0  0  0
   32.5300  -55.2910   14.7540 N   0  0  0  0  0  0
   28.5120  -57.5410   12.5440 N   0  0  0  0  0  0
   28.0250  -58.6660   13.4020 C   0  0  2  0  0  0
   28.4760  -58.5580   14.8540 C   0  0  0  0  0  0
   29.5830  -58.9950   15.1980 O   0  0  0  0  0  0
   28.2560  -60.0940   12.7940 C   0  0  0  0  0  0
   29.3980  -60.6080   11.8970 C   0  0  0  0  0  0
   30.6130  -61.0850   12.7010 C   0  0  0  0  0  0
   28.8990  -61.7370   10.9860 C   0  0  0  0  0  0
   27.5980  -57.9640   15.6790 N   0  0  0  0  0  0
   27.9320  -57.4080   17.0140 C   0  0  2  0  0  0
   29.1500  -58.0190   17.7130 C   0  0  0  0  0  0
   30.2370  -57.4340   17.7190 O   0  0  0  0  0  0
   26.7220  -57.4380   17.9520 C   0  0  0  0  0  0
   26.7530  -58.5670   18.9400 C   0  0  0  0  0  0
   26.8180  -58.3180   20.3130 C   0  0  0  0  0  0
   26.7510  -59.9020   18.5010 C   0  0  0  0  0  0
   26.8480  -59.3730   21.2230 C   0  0  0  0  0  0
   26.7860  -60.9550   19.3960 C   0  0  0  0  0  0
   26.8340  -60.6840   20.7480 C   0  0  0  0  0  0
   26.8690  -61.7430   21.6120 O   0  0  0  0  0  0
   29.0710  -59.1100   18.2860 O   0  5  0  0  0  0
   27.8438  -52.8758    8.5344 H   0  0  0  0  0  0
   26.8898  -53.5277    9.9097 H   0  0  0  0  0  0
   28.4850  -54.2462    9.5027 H   0  0  0  0  0  0
   29.5513  -52.3357    9.9584 H   0  0  0  0  0  0
   26.7120  -51.3475   10.8389 H   0  0  0  0  0  0
   28.1733  -50.3892   11.2547 H   0  0  0  0  0  0
   26.8392  -49.1583    9.2266 H   0  0  0  0  0  0
   28.7857  -53.7482   13.6917 H   0  0  0  0  0  0
   28.3528  -55.1585   11.0985 H   0  0  0  0  0  0
   30.5363  -56.1073   10.8069 H   0  0  0  0  0  0
   30.9175  -54.4325   11.3323 H   0  0  0  0  0  0
   30.8319  -56.7997   13.2388 H   0  0  0  0  0  0
   32.3072  -56.2683   12.3627 H   0  0  0  0  0  0
   33.0183  -56.2742   14.6842 H   0  0  0  0  0  0
   32.7958  -54.6015   15.5688 H   0  0  0  0  0  0
   28.8683  -57.7424   11.5230 H   0  0  0  0  0  0
   26.9401  -58.4850   13.4150 H   0  0  0  0  0  0
   28.3413  -60.8295   13.6075 H   0  0  0  0  0  0
   27.4063  -60.3592   12.1476 H   0  0  0  0  0  0
   29.7295  -59.7582   11.2822 H   0  0  0  0  0  0
   30.9649  -60.2707   13.3514 H   0  0  0  0  0  0
   31.4180  -61.3767   12.0105 H   0  0  0  0  0  0
   30.3278  -61.9499   13.3180 H   0  0  0  0  0  0
   28.0277  -61.3875   10.4127 H   0  0  0  0  0  0
   28.6106  -62.6031   11.5998 H   0  0  0  0  0  0
   29.7009  -62.0299   10.2923 H   0  0  0  0  0  0
   26.5667  -57.9051   15.3010 H   0  0  0  0  0  0
   28.2129  -56.3768   16.7538 H   0  0  0  0  0  0
   26.6802  -56.5009   18.5266 H   0  0  0  0  0  0
   25.8014  -57.5463   17.3597 H   0  0  0  0  0  0
   26.8455  -57.2904   20.6754 H   0  0  0  0  0  0
   26.7212  -60.1117   17.4318 H   0  0  0  0  0  0
   26.8820  -59.1756   22.2944 H   0  0  0  0  0  0
   26.7758  -61.9847   19.0387 H   0  0  0  0  0  0
   26.9077  -61.5665   22.6971 H   0  0  0  0  0  0
  1  2  1  0  0  0
  1 37  1  0  0  0
  1 38  1  0  0  0
  1 39  1  0  0  0
  2  5  1  0  0  0
  2  3  1  0  0  0
  2 40  1  0  0  0
  3  4  2  0  0  0
  3  7  1  0  0  0
  5  6  1  0  0  0
  5 41  1  0  0  0
  5 42  1  0  0  0
  6 43  1  0  0  0
  7  8  1  0  0  0
  7 44  1  0  0  0
  8 11  1  0  0  0
  8  9  1  0  0  0
  8 45  1  0  0  0
  9 10  2  0  0  0
  9 16  1  0  0  0
 11 12  1  0  0  0
 11 46  1  0  0  0
 11 47  1  0  0  0
 12 13  1  0  0  0
 12 48  1  0  0  0
 12 49  1  0  0  0
 13 15  1  0  0  0
 13 14  2  0  0  0
 15 50  1  0  0  0
 15 51  1  0  0  0
 16 17  1  0  0  0
 16 52  1  0  0  0
 17 20  1  0  0  0
 17 18  1  0  0  0
 17 53  1  0  0  0
 18 19  2  0  0  0
 18 24  1  0  0  0
 20 21  1  0  0  0
 20 54  1  0  0  0
 20 55  1  0  0  0
 21 22  1  0  0  0
 21 23  1  0  0  0
 21 56  1  0  0  0
 22 57  1  0  0  0
 22 58  1  0  0  0
 22 59  1  0  0  0
 23 60  1  0  0  0
 23 61  1  0  0  0
 23 62  1  0  0  0
 24 25  1  0  0  0
 24 63  1  0  0  0
 25 28  1  0  0  0
 25 26  1  0  0  0
 25 64  1  0  0  0
 26 27  2  0  0  0
 26 36  1  0  0  0
 28 29  1  0  0  0
 28 65  1  0  0  0
 28 66  1  0  0  0
 29 30  2  0  0  0
 29 31  1  0  0  0
 30 32  1  0  0  0
 30 67  1  0  0  0
 31 33  2  0  0  0
 31 68  1  0  0  0
 32 34  2  0  0  0
 32 69  1  0  0  0
 33 34  1  0  0  0
 33 70  1  0  0  0
 34 35  1  0  0  0
 35 71  1  0  0  0
M  CHG  2   1   1  36  -1
M  END
> <s_m_source_file>
../4fgt_ligand.sdf

> <i_m_source_file_index>
1

> <s_epik_input>
W1NIXVtDSDJdW0NASF0oW05IMytdKUMoPU8pW05IXVtDQEBIXShbQ0gyXVtDSDJdQyg9TylbTkgyXSlDKD1PKVtOSF1bQ0BASF0oW0NIMl1bQ0hdKFtDSDNdKVtDSDNdKUMoPU8pW05IXVtDQEhdKEMoPU8pW09IXSlbQ0gyXWMxW2NIXVtjSF1jKFtPSF0pW2NIXVtjSF0x

> <s_epik_cmdline>
J2VwaWtfYXBwJywgJy1pbWFlJywgJ2xpZ2FuZF9wcm8ubWFlJywgJy1vbWFlJywgJ2xpZ2FuZF9wcmVwLm1hZScsICctbXMnLCAnMScsICctcGgnLCAnNycsICctcGh0JywgJzAuNScsICctbnQn

> <r_lp_tautomer_probability>
0.999999999997365

> <r_epik_Ionization_Penalty>
  0.3796

> <r_epik_Ionization_Penalty_Charging>
  0.3414

> <r_epik_Ionization_Penalty_Neutral>
  0.0382

> <r_epik_State_Penalty>
  0.3369

> <r_epik_Charging_Adjusted_Penalty>
0.678302580375076

> <i_epik_Tot_Q>
0

> <i_epik_Tot_abs_Q>
2

$$$$
