4fgx_ligand
                    3D
 Schrodinger Suite 2020-3.
126127  0  0  1  0            999 V2000
   21.3800   16.7130    1.1440 C   0  0  0  0  0  0
   21.1030   17.0460   -0.0060 O   0  0  0  0  0  0
   20.9850   14.2350    1.1100 C   0  0  0  0  0  0
   22.3600   15.1540    2.7420 O   0  0  0  0  0  0
   21.9740   15.3340    1.4300 C   0  0  2  0  0  0
   21.1310   17.6470    2.2400 N   0  0  0  0  0  0
   20.5790   18.9320    1.9190 C   0  0  2  0  0  0
   21.7130   19.9330    1.8040 C   0  0  0  0  0  0
   22.7180   19.8230    2.4970 O   0  0  0  0  0  0
   19.5480   19.4690    2.9320 C   0  0  0  0  0  0
   18.1970   18.8320    2.6850 C   0  0  0  0  0  0
   19.9900   19.2380    4.3570 C   0  0  0  0  0  0
   20.4350   21.1720   -0.0040 C   0  0  0  0  0  0
   26.3720   21.7000   -1.8180 N   0  0  0  0  0  0
   26.9520   20.0950   -0.2050 O   0  0  0  0  0  0
   22.1570   24.0390   -0.4240 O   0  0  0  0  0  0
   25.0810   21.4830    0.4220 C   0  0  0  0  0  0
   23.7470   21.6240   -0.3160 C   0  0  0  0  0  0
   26.2040   21.0210   -0.5250 C   0  0  0  0  0  0
   22.1220   23.3820    0.6110 C   0  0  0  0  0  0
   22.7110   21.9750    0.7490 C   0  0  1  0  0  0
   21.6040   21.0200    0.8430 N   0  0  0  0  0  0
   21.4620   23.8820    1.8270 N   0  0  0  0  0  0
   20.8470   25.2170    1.8550 C   0  0  1  0  0  0
   19.4960   25.1580    2.4810 C   0  0  0  0  0  0
   18.6280   24.1730    1.7100 C   0  0  0  0  0  0
   18.5080   24.2800    0.2380 C   0  0  0  0  0  0
   17.8830   23.0930    2.4430 C   0  0  0  0  0  0
   17.6400   23.3080   -0.5200 C   0  0  0  0  0  0
   17.0150   22.1260    1.6880 C   0  0  0  0  0  0
   16.8960   22.2360    0.2130 C   0  0  0  0  0  0
   21.7620   26.0810    2.6930 C   0  0  1  0  0  0
   21.9110   25.6310    4.0110 O   0  0  0  0  0  0
   23.0290   26.5150    1.9460 C   0  0  0  0  0  0
   22.6970   27.6160    0.9120 C   0  0  0  0  0  0
   22.4200   27.3400   -0.2410 O   0  0  0  0  0  0
   22.6890   29.0310    1.3460 N   0  0  0  0  0  0
   22.3740   30.0830    0.3940 C   0  0  2  0  0  0
   23.5080   30.1570   -0.6240 C   0  0  0  0  0  0
   24.6730   29.9720   -0.2860 O   0  0  0  0  0  0
   22.1490   31.3490    1.1710 C   0  0  0  0  0  0
   21.7760   32.5240    0.3020 C   0  0  0  0  0  0
   20.3520   32.4160   -0.1380 C   0  0  0  0  0  0
   21.9130   33.7770    1.1310 C   0  0  0  0  0  0
   23.1960   30.4400   -2.0180 N   0  0  0  0  0  0
   24.3150   30.5190   -2.9660 C   0  0  2  0  0  0
   25.2030   31.6480   -2.4900 C   0  0  0  0  0  0
   24.6940   32.6600   -2.0070 O   0  0  0  0  0  0
   23.8290   30.8160   -4.3520 C   0  0  0  0  0  0
   26.6890   31.5870   -2.5650 N   0  0  0  0  0  0
   27.4080   32.7540   -2.0780 C   0  0  1  0  0  0
   28.4590   32.3220   -1.1340 C   0  0  0  0  0  0
   29.6500   32.6810   -1.3240 O   0  0  0  0  0  0
   28.1480   31.6080   -0.1320 O   0  5  0  0  0  0
   27.9230   33.5600   -3.2530 C   0  0  0  0  0  0
   26.7150   33.7330   -4.1990 C   0  0  0  0  0  0
   25.7080   34.7840   -3.9170 C   0  0  0  0  0  0
   26.5370   32.8130   -5.3950 C   0  0  0  0  0  0
   24.5120   34.9520   -4.8190 C   0  0  0  0  0  0
   25.3490   32.9870   -6.2970 C   0  0  0  0  0  0
   24.3400   34.0480   -6.0160 C   0  0  0  0  0  0
   27.3950   30.4330   -3.1210 C   0  0  0  0  0  0
   20.6471   14.3378    0.0683 H   0  0  0  0  0  0
   20.1201   14.3120    1.7853 H   0  0  0  0  0  0
   21.4687   13.2561    1.2437 H   0  0  0  0  0  0
   23.0840   15.8428    3.2018 H   0  0  0  0  0  0
   22.9190   15.2551    0.8726 H   0  0  0  0  0  0
   21.3539   17.3899    3.2860 H   0  0  0  0  0  0
   20.0668   18.7342    0.9658 H   0  0  0  0  0  0
   19.4535   20.5575    2.8042 H   0  0  0  0  0  0
   17.8923   19.0107    1.6432 H   0  0  0  0  0  0
   17.4537   19.2733    3.3653 H   0  0  0  0  0  0
   18.2634   17.7492    2.8670 H   0  0  0  0  0  0
   20.9719   19.7074    4.5170 H   0  0  0  0  0  0
   20.0649   18.1571    4.5470 H   0  0  0  0  0  0
   19.2552   19.6812    5.0452 H   0  0  0  0  0  0
   19.7190   20.3651    0.2111 H   0  0  0  0  0  0
   20.7383   21.1212   -1.0601 H   0  0  0  0  0  0
   19.9619   22.1449    0.1952 H   0  0  0  0  0  0
   27.1691   21.3826   -2.5064 H   0  0  0  0  0  0
   25.7006   22.5254   -2.0971 H   0  0  0  0  0  0
   25.3663   22.4542    0.8525 H   0  0  0  0  0  0
   24.9778   20.7411    1.2275 H   0  0  0  0  0  0
   23.8274   22.4211   -1.0697 H   0  0  0  0  0  0
   23.5002   20.6738   -0.8122 H   0  0  0  0  0  0
   23.2718   21.8892    1.6914 H   0  0  0  0  0  0
   21.4321   23.2438    2.7224 H   0  0  0  0  0  0
   20.7192   25.5953    0.8300 H   0  0  0  0  0  0
   19.5902   24.8270    3.5258 H   0  0  0  0  0  0
   19.0349   26.1563    2.4528 H   0  0  0  0  0  0
   19.0472   25.0615   -0.2975 H   0  0  0  0  0  0
   17.9726   23.0108    3.5262 H   0  0  0  0  0  0
   17.5541   23.3861   -1.6038 H   0  0  0  0  0  0
   16.4739   21.3454    2.2228 H   0  0  0  0  0  0
   16.2667   21.5360   -0.3367 H   0  0  0  0  0  0
   21.2358   27.0053    2.9735 H   0  0  0  0  0  0
   21.0297   25.3096    4.5854 H   0  0  0  0  0  0
   23.7618   26.9094    2.6654 H   0  0  0  0  0  0
   23.4597   25.6496    1.4210 H   0  0  0  0  0  0
   22.9218   29.2860    2.3904 H   0  0  0  0  0  0
   21.4419   29.8637   -0.1474 H   0  0  0  0  0  0
   21.3315   31.1969    1.8911 H   0  0  0  0  0  0
   23.0690   31.6158    1.7117 H   0  0  0  0  0  0
   22.4224   32.5452   -0.5877 H   0  0  0  0  0  0
   20.2240   31.5083   -0.7460 H   0  0  0  0  0  0
   20.0853   33.2992   -0.7370 H   0  0  0  0  0  0
   19.6985   32.3609    0.7452 H   0  0  0  0  0  0
   22.9547   33.8811    1.4688 H   0  0  0  0  0  0
   21.2487   33.7126    2.0054 H   0  0  0  0  0  0
   21.6355   34.6509    0.5233 H   0  0  0  0  0  0
   22.1651   30.5926   -2.3700 H   0  0  0  0  0  0
   24.8317   29.5483   -2.9934 H   0  0  0  0  0  0
   23.1835   29.9952   -4.6979 H   0  0  0  0  0  0
   24.6902   30.9155   -5.0291 H   0  0  0  0  0  0
   23.2565   31.7553   -4.3464 H   0  0  0  0  0  0
   26.7252   33.3933   -1.4992 H   0  0  0  0  0  0
   28.2951   34.5317   -2.8961 H   0  0  0  0  0  0
   28.7409   33.0118   -3.7434 H   0  0  0  0  0  0
   25.8330   35.4379   -3.0539 H   0  0  0  0  0  0
   27.2682   32.0304   -5.5974 H   0  0  0  0  0  0
   23.7728   35.7246   -4.6075 H   0  0  0  0  0  0
   25.2238   32.3346   -7.1611 H   0  0  0  0  0  0
   23.4795   34.1709   -6.6737 H   0  0  0  0  0  0
   26.6651   29.6688   -3.4263 H   0  0  0  0  0  0
   28.0684   30.0132   -2.3592 H   0  0  0  0  0  0
   27.9825   30.7491   -3.9956 H   0  0  0  0  0  0
  1  2  2  0  0  0
  1  5  1  0  0  0
  1  6  1  0  0  0
  3  5  1  0  0  0
  3 63  1  0  0  0
  3 64  1  0  0  0
  3 65  1  0  0  0
  4  5  1  0  0  0
  4 66  1  0  0  0
  5 67  1  0  0  0
  6  7  1  0  0  0
  6 68  1  0  0  0
  7  8  1  0  0  0
  7 10  1  0  0  0
  7 69  1  0  0  0
  8  9  2  0  0  0
  8 22  1  0  0  0
 10 11  1  0  0  0
 10 12  1  0  0  0
 10 70  1  0  0  0
 11 71  1  0  0  0
 11 72  1  0  0  0
 11 73  1  0  0  0
 12 74  1  0  0  0
 12 75  1  0  0  0
 12 76  1  0  0  0
 13 22  1  0  0  0
 13 77  1  0  0  0
 13 78  1  0  0  0
 13 79  1  0  0  0
 14 19  1  0  0  0
 14 80  1  0  0  0
 14 81  1  0  0  0
 15 19  2  0  0  0
 16 20  2  0  0  0
 17 18  1  0  0  0
 17 19  1  0  0  0
 17 82  1  0  0  0
 17 83  1  0  0  0
 18 21  1  0  0  0
 18 84  1  0  0  0
 18 85  1  0  0  0
 20 21  1  0  0  0
 20 23  1  0  0  0
 21 22  1  0  0  0
 21 86  1  0  0  0
 23 24  1  0  0  0
 23 87  1  0  0  0
 24 25  1  0  0  0
 24 32  1  0  0  0
 24 88  1  0  0  0
 25 26  1  0  0  0
 25 89  1  0  0  0
 25 90  1  0  0  0
 26 27  2  0  0  0
 26 28  1  0  0  0
 27 29  1  0  0  0
 27 91  1  0  0  0
 28 30  2  0  0  0
 28 92  1  0  0  0
 29 31  2  0  0  0
 29 93  1  0  0  0
 30 31  1  0  0  0
 30 94  1  0  0  0
 31 95  1  0  0  0
 32 33  1  0  0  0
 32 34  1  0  0  0
 32 96  1  0  0  0
 33 97  1  0  0  0
 34 35  1  0  0  0
 34 98  1  0  0  0
 34 99  1  0  0  0
 35 36  2  0  0  0
 35 37  1  0  0  0
 37 38  1  0  0  0
 37100  1  0  0  0
 38 39  1  0  0  0
 38 41  1  0  0  0
 38101  1  0  0  0
 39 40  2  0  0  0
 39 45  1  0  0  0
 41 42  1  0  0  0
 41102  1  0  0  0
 41103  1  0  0  0
 42 43  1  0  0  0
 42 44  1  0  0  0
 42104  1  0  0  0
 43105  1  0  0  0
 43106  1  0  0  0
 43107  1  0  0  0
 44108  1  0  0  0
 44109  1  0  0  0
 44110  1  0  0  0
 45 46  1  0  0  0
 45111  1  0  0  0
 46 47  1  0  0  0
 46 49  1  0  0  0
 46112  1  0  0  0
 47 48  2  0  0  0
 47 50  1  0  0  0
 49113  1  0  0  0
 49114  1  0  0  0
 49115  1  0  0  0
 50 51  1  0  0  0
 50 62  1  0  0  0
 51 52  1  0  0  0
 51 55  1  0  0  0
 51116  1  0  0  0
 52 53  2  0  0  0
 52 54  1  0  0  0
 55 56  1  0  0  0
 55117  1  0  0  0
 55118  1  0  0  0
 56 57  2  0  0  0
 56 58  1  0  0  0
 57 59  1  0  0  0
 57119  1  0  0  0
 58 60  2  0  0  0
 58120  1  0  0  0
 59 61  2  0  0  0
 59121  1  0  0  0
 60 61  1  0  0  0
 60122  1  0  0  0
 61123  1  0  0  0
 62124  1  0  0  0
 62125  1  0  0  0
 62126  1  0  0  0
M  CHG  1  54  -1
M  END
> <s_m_source_file>
../4fgx_ligand.sdf

> <i_m_source_file_index>
1

> <s_epik_input>
W0NIM11bQ0BIXShbT0hdKUMoPU8pW05IXVtDQEBIXShbQ0hdKFtDSDNdKVtDSDNdKUMoPU8pTihbQ0gzXSlbQ0BASF0oW0NIMl1bQ0gyXUMoPU8pW05IMl0pQyg9TylbTkhdW0NAQEhdKFtDSDJdYzFbY0hdW2NIXVtjSF1bY0hdW2NIXTEpW0NAQEhdKFtPSF0pW0NIMl1DKD1PKVtOSF1bQ0BASF0oW0NIMl1bQ0hdKFtDSDNdKVtDSDNdKUMoPU8pW05IXVtDQEBIXShbQ0gzXSlDKD1PKU4oW0NIM10pW0NAQEhdKEMoPU8pW09IXSlbQ0gyXWMyW2NIXVtjSF1bY0hdW2NIXVtjSF0y

> <s_epik_cmdline>
J2VwaWtfYXBwJywgJy1pbWFlJywgJ2xpZ2FuZF9wcm8ubWFlJywgJy1vbWFlJywgJ2xpZ2FuZF9wcmVwLm1hZScsICctbXMnLCAnMScsICctcGgnLCAnNycsICctcGh0JywgJzAuNScsICctbnQn

> <r_lp_tautomer_probability>
1

> <r_epik_Ionization_Penalty>
  0.0002

> <r_epik_Ionization_Penalty_Charging>
  0.0002

> <r_epik_Ionization_Penalty_Neutral>
  0.0000

> <r_epik_State_Penalty>
 -0.0000

> <r_epik_Charging_Adjusted_Penalty>
0.000174804052566

> <i_epik_Tot_Q>
-1

> <i_epik_Tot_abs_Q>
1

$$$$
