4fgy_ligand
                    3D
 Schrodinger Suite 2020-3.
213214  0  0  1  0            999 V2000
  -26.0220  -15.0080  -19.5480 N   0  3  0  0  0  0
  -26.6630  -15.8550  -18.5570 C   0  0  2  0  0  0
  -26.1420  -17.2600  -18.7190 C   0  0  0  0  0  0
  -26.6860  -18.0450  -19.4830 O   0  0  0  0  0  0
  -28.1910  -15.7980  -18.6710 C   0  0  0  0  0  0
  -28.7300  -14.7130  -19.6060 C   0  0  0  0  0  0
  -28.2190  -13.3050  -19.3140 C   0  0  0  0  0  0
  -26.9950  -12.9930  -20.0440 N   0  0  0  0  0  0
  -26.6450  -13.5440  -21.2000 C   0  0  0  0  0  0
  -27.4350  -14.4240  -21.7720 N   0  0  0  0  0  0
  -25.5110  -13.2240  -21.7870 N   0  0  0  0  0  0
  -25.0690  -17.5530  -17.9970 N   0  0  0  0  0  0
  -24.4080  -16.5460  -17.1700 C   0  0  2  0  0  0
  -25.0600  -15.9920  -15.9450 C   0  0  0  0  0  0
  -25.1510  -14.7760  -15.7780 O   0  0  0  0  0  0
  -23.8850  -15.4240  -18.0050 C   0  0  0  0  0  0
  -22.9160  -15.8700  -19.0350 C   0  0  0  0  0  0
  -22.9720  -17.0680  -19.5720 N   0  0  0  0  0  0
  -21.8610  -15.2350  -19.6130 C   0  0  0  0  0  0
  -22.0030  -17.1980  -20.4570 C   0  0  0  0  0  0
  -21.3270  -16.0760  -20.4810 N   0  0  0  0  0  0
  -25.4470  -16.8530  -15.0280 N   0  0  0  0  0  0
  -26.2550  -16.4110  -13.8810 C   0  0  2  0  0  0
  -25.4650  -15.6340  -12.8180 C   0  0  0  0  0  0
  -25.9350  -14.5980  -12.3490 O   0  0  0  0  0  0
  -27.0490  -17.5710  -13.2410 C   0  0  0  0  0  0
  -27.8750  -18.4330  -14.2010 C   0  0  0  0  0  0
  -27.1740  -19.7410  -14.6060 C   0  0  0  0  0  0
  -25.9930  -19.5230  -15.5600 C   0  0  0  0  0  0
  -25.1860  -20.7360  -15.8800 N   0  3  0  0  0  0
  -24.2770  -16.1080  -12.4430 N   0  0  0  0  0  0
  -23.4650  -15.4170  -11.4170 C   0  0  2  0  0  0
  -22.9490  -14.0210  -11.7950 C   0  0  0  0  0  0
  -23.1600  -13.0630  -11.0480 O   0  0  0  0  0  0
  -22.3140  -16.2790  -10.9410 C   0  0  2  0  0  0
  -22.8210  -17.7130  -10.7420 C   0  0  0  0  0  0
  -21.7370  -15.6620   -9.6780 C   0  0  0  0  0  0
  -21.8330  -18.6860  -10.1360 C   0  0  0  0  0  0
  -22.2720  -13.8950  -12.9370 N   0  0  0  0  0  0
  -22.1340  -12.5860  -13.5730 C   0  0  2  0  0  0
  -23.5510  -12.2070  -13.9170 C   0  0  0  0  0  0
  -24.2960  -13.0320  -14.4690 O   0  0  0  0  0  0
  -21.3540  -12.6900  -14.8790 C   0  0  0  0  0  0
  -19.8460  -12.9090  -14.9360 C   0  0  0  0  0  0
  -19.5380  -13.5130  -16.2890 C   0  0  0  0  0  0
  -19.0770  -11.6120  -14.7470 C   0  0  0  0  0  0
  -23.9490  -10.9800  -13.6090 N   0  0  0  0  0  0
  -25.3590  -10.6310  -13.7110 C   0  0  2  0  0  0
  -25.6940  -10.1780  -12.3610 C   0  0  0  0  0  0
  -26.0110   -9.0150  -12.1610 O   0  0  0  0  0  0
  -26.1850  -11.8770  -13.9460 C   0  0  0  0  0  0
  -27.1260  -11.7930  -15.1090 C   0  0  0  0  0  0
  -26.7550  -12.1370  -16.3560 N   0  0  0  0  0  0
  -28.4760  -11.4530  -15.1740 C   0  0  0  0  0  0
  -27.8020  -11.9990  -17.1850 C   0  0  0  0  0  0
  -28.8570  -11.5780  -16.4610 N   0  0  0  0  0  0
  -25.6270  -11.1190  -11.4140 N   0  0  0  0  0  0
  -25.8780  -10.8030  -10.0140 C   0  0  2  0  0  0
  -24.7580   -9.8900   -9.5740 C   0  0  0  0  0  0
  -25.0080   -8.8530   -8.9410 O   0  0  0  0  0  0
  -25.9560  -12.0630   -9.1390 C   0  0  0  0  0  0
  -26.6890  -13.2390   -9.7760 C   0  0  0  0  0  0
  -28.1580  -12.9370  -10.0810 C   0  0  0  0  0  0
  -28.6090  -13.5240  -11.3510 N   0  0  0  0  0  0
  -29.0180  -14.7860  -11.5120 C   0  0  0  0  0  0
  -29.0410  -15.6400  -10.4850 N   0  0  0  0  0  0
  -29.4000  -15.2010  -12.7150 N   0  0  0  0  0  0
  -23.5300  -10.2590   -9.9600 N   0  0  0  0  0  0
  -22.3480   -9.4260   -9.7250 C   0  0  2  0  0  0
  -22.4370   -8.1370  -10.5170 C   0  0  0  0  0  0
  -21.8310   -7.1390  -10.1520 O   0  0  0  0  0  0
  -21.0620  -10.1620  -10.1150 C   0  0  0  0  0  0
  -20.6870  -11.5120   -9.4980 C   0  0  0  0  0  0
  -19.5220  -12.0700  -10.2970 C   0  0  0  0  0  0
  -20.3330  -11.4200   -8.0240 C   0  0  0  0  0  0
  -23.1800   -8.1680  -11.6160 N   0  0  0  0  0  0
  -23.3820   -6.9570  -12.4080 C   0  0  2  0  0  0
  -24.5090   -6.0990  -11.8620 C   0  0  0  0  0  0
  -24.3670   -4.8840  -11.7820 O   0  0  0  0  0  0
  -23.6180   -7.2900  -13.8760 C   0  0  0  0  0  0
  -22.3140   -7.5770  -14.6050 C   0  0  0  0  0  0
  -22.5780   -8.3790  -15.8630 C   0  0  0  0  0  0
  -21.5860   -6.2820  -14.9280 C   0  0  0  0  0  0
  -25.6150   -6.7430  -11.4840 N   0  0  0  0  0  0
  -26.7730   -6.0680  -10.9020 C   0  0  2  0  0  0
  -26.4270   -5.2680   -9.6410 C   0  0  0  0  0  0
  -26.9830   -4.1860   -9.4320 O   0  0  0  0  0  0
  -27.9120   -7.0640  -10.6550 C   0  0  0  0  0  0
  -28.8170   -7.2530  -11.8740 C   0  0  0  0  0  0
  -29.2130   -8.7000  -12.1230 C   0  0  0  0  0  0
  -29.8150   -9.3580  -11.2700 O   0  0  0  0  0  0
  -28.8720   -9.2030  -13.3060 N   0  0  0  0  0  0
  -25.5180   -5.8010   -8.8200 N   0  0  0  0  0  0
  -24.8730   -5.0470   -7.7280 C   0  0  2  0  0  0
  -23.8160   -5.8850   -7.0080 C   0  0  0  0  0  0
  -22.7012   -5.3883   -6.6949 O   0  0  0  0  0  0
  -25.8910   -4.5050   -6.7130 C   0  0  0  0  0  0
  -25.4800   -3.1850   -6.0670 C   0  0  0  0  0  0
  -25.5860   -1.9780   -7.0040 C   0  0  0  0  0  0
  -25.6430   -2.1520   -8.2410 O   0  0  0  0  0  0
  -25.6070   -0.8330   -6.5040 O   0  0  0  0  0  0
  -24.0629   -7.0875   -6.7242 O   0  0  0  0  0  0
  -24.9298  -15.0745  -19.4358 H   0  0  0  0  0  0
  -26.3428  -13.9660  -19.4024 H   0  0  0  0  0  0
  -26.3081  -15.3422  -20.5562 H   0  0  0  0  0  0
  -26.3776  -15.4644  -17.5691 H   0  0  0  0  0  0
  -28.5662  -16.7585  -19.0539 H   0  0  0  0  0  0
  -28.6257  -15.6036  -17.6794 H   0  0  0  0  0  0
  -28.4429  -14.9460  -20.6420 H   0  0  0  0  0  0
  -29.8266  -14.6745  -19.5293 H   0  0  0  0  0  0
  -28.9838  -12.5698  -19.6048 H   0  0  0  0  0  0
  -28.0067  -13.2075  -18.2391 H   0  0  0  0  0  0
  -26.2870  -12.2543  -19.6403 H   0  0  0  0  0  0
  -28.3860  -14.7020  -21.2941 H   0  0  0  0  0  0
  -24.8386  -12.4888  -21.3207 H   0  0  0  0  0  0
  -25.2358  -13.6918  -22.7438 H   0  0  0  0  0  0
  -24.6778  -18.5806  -18.0302 H   0  0  0  0  0  0
  -23.6346  -17.2009  -16.7422 H   0  0  0  0  0  0
  -24.7211  -14.9325  -18.5240 H   0  0  0  0  0  0
  -23.3740  -14.6941  -17.3599 H   0  0  0  0  0  0
  -21.4290  -14.2319  -19.4819 H   0  0  0  0  0  0
  -21.8004  -18.0822  -21.0614 H   0  0  0  0  0  0
  -25.1614  -17.9109  -15.1245 H   0  0  0  0  0  0
  -26.9464  -15.7015  -14.3591 H   0  0  0  0  0  0
  -26.3528  -18.2580  -12.7376 H   0  0  0  0  0  0
  -27.7607  -17.1667  -12.5062 H   0  0  0  0  0  0
  -28.8280  -18.7037  -13.7230 H   0  0  0  0  0  0
  -28.0749  -17.8667  -15.1226 H   0  0  0  0  0  0
  -26.7867  -20.2430  -13.7071 H   0  0  0  0  0  0
  -27.8934  -20.4008  -15.1131 H   0  0  0  0  0  0
  -26.3643  -19.1380  -16.5212 H   0  0  0  0  0  0
  -25.2948  -18.7963  -15.1191 H   0  0  0  0  0  0
  -24.3717  -20.4637  -16.5675 H   0  0  0  0  0  0
  -25.8304  -21.4902  -16.3553 H   0  0  0  0  0  0
  -24.7608  -21.1485  -14.9531 H   0  0  0  0  0  0
  -23.9028  -17.0304  -12.9111 H   0  0  0  0  0  0
  -24.2046  -15.2812  -10.6142 H   0  0  0  0  0  0
  -21.5017  -16.3128  -11.6819 H   0  0  0  0  0  0
  -23.6925  -17.7039  -10.0709 H   0  0  0  0  0  0
  -23.1114  -18.1375  -11.7143 H   0  0  0  0  0  0
  -21.3947  -14.6390   -9.8930 H   0  0  0  0  0  0
  -20.8872  -16.2673   -9.3294 H   0  0  0  0  0  0
  -22.5113  -15.6331   -8.8973 H   0  0  0  0  0  0
  -22.3039  -19.6756  -10.0415 H   0  0  0  0  0  0
  -21.5290  -18.3281   -9.1413 H   0  0  0  0  0  0
  -20.9479  -18.7616  -10.7848 H   0  0  0  0  0  0
  -21.8162  -14.7824  -13.4004 H   0  0  0  0  0  0
  -21.6150  -11.8935  -12.8939 H   0  0  0  0  0  0
  -21.7350  -13.5379  -15.4671 H   0  0  0  0  0  0
  -21.4764  -11.7604  -15.4542 H   0  0  0  0  0  0
  -19.5294  -13.5788  -14.1229 H   0  0  0  0  0  0
  -20.1019  -14.4497  -16.4093 H   0  0  0  0  0  0
  -18.4604  -13.7220  -16.3605 H   0  0  0  0  0  0
  -19.8278  -12.8063  -17.0806 H   0  0  0  0  0  0
  -19.3120  -11.1869  -13.7601 H   0  0  0  0  0  0
  -19.3649  -10.8973  -15.5321 H   0  0  0  0  0  0
  -17.9975  -11.8130  -14.8120 H   0  0  0  0  0  0
  -23.2187  -10.2272  -13.2775 H   0  0  0  0  0  0
  -25.5213   -9.8865  -14.5044 H   0  0  0  0  0  0
  -25.5165  -12.7292  -14.1383 H   0  0  0  0  0  0
  -26.7969  -12.0846  -13.0558 H   0  0  0  0  0  0
  -29.2032  -11.1314  -14.4139 H   0  0  0  0  0  0
  -27.7989  -12.1938  -18.2575 H   0  0  0  0  0  0
  -25.3766  -12.1487  -11.7091 H   0  0  0  0  0  0
  -26.8552  -10.3020   -9.9498 H   0  0  0  0  0  0
  -24.9389  -12.4115   -8.9065 H   0  0  0  0  0  0
  -26.4857  -11.8279   -8.2040 H   0  0  0  0  0  0
  -26.1999  -13.5056  -10.7245 H   0  0  0  0  0  0
  -26.6609  -14.1015   -9.0939 H   0  0  0  0  0  0
  -28.7905  -13.3454   -9.2790 H   0  0  0  0  0  0
  -28.3032  -11.8484  -10.1440 H   0  0  0  0  0  0
  -28.6268  -12.9114  -12.2644 H   0  0  0  0  0  0
  -28.7267  -15.3063   -9.4851 H   0  0  0  0  0  0
  -29.3742  -16.6769  -10.6393 H   0  0  0  0  0  0
  -29.3847  -14.5056  -13.5672 H   0  0  0  0  0  0
  -23.4274  -11.2277  -10.4710 H   0  0  0  0  0  0
  -22.3594   -9.2128   -8.6459 H   0  0  0  0  0  0
  -21.0757  -10.3778  -11.1935 H   0  0  0  0  0  0
  -20.1924   -9.5313   -9.8783 H   0  0  0  0  0  0
  -21.5567  -12.1841   -9.5421 H   0  0  0  0  0  0
  -19.8004  -12.1276  -11.3596 H   0  0  0  0  0  0
  -19.2728  -13.0759   -9.9281 H   0  0  0  0  0  0
  -18.6492  -11.4105  -10.1819 H   0  0  0  0  0  0
  -21.1896  -11.0142   -7.4658 H   0  0  0  0  0  0
  -19.4647  -10.7569   -7.8962 H   0  0  0  0  0  0
  -20.0883  -12.4223   -7.6424 H   0  0  0  0  0  0
  -23.6453   -9.1142  -11.9294 H   0  0  0  0  0  0
  -22.4393   -6.4000  -12.3024 H   0  0  0  0  0  0
  -24.2598   -8.1802  -13.9514 H   0  0  0  0  0  0
  -24.1108   -6.4398  -14.3702 H   0  0  0  0  0  0
  -21.6671   -8.1777  -13.9488 H   0  0  0  0  0  0
  -23.1045   -9.3087  -15.6014 H   0  0  0  0  0  0
  -21.6221   -8.6233  -16.3494 H   0  0  0  0  0  0
  -23.1991   -7.7872  -16.5515 H   0  0  0  0  0  0
  -21.4073   -5.7204  -13.9992 H   0  0  0  0  0  0
  -22.2005   -5.6763  -15.6103 H   0  0  0  0  0  0
  -20.6235   -6.5124  -15.4082 H   0  0  0  0  0  0
  -25.6292   -7.8334  -11.6285 H   0  0  0  0  0  0
  -27.0766   -5.3436  -11.6721 H   0  0  0  0  0  0
  -27.4903   -8.0466  -10.3969 H   0  0  0  0  0  0
  -28.5396   -6.7051   -9.8259 H   0  0  0  0  0  0
  -29.7449   -6.6790  -11.7343 H   0  0  0  0  0  0
  -28.2973   -6.8960  -12.7754 H   0  0  0  0  0  0
  -28.3356   -8.5782  -14.0353 H   0  0  0  0  0  0
  -29.1264  -10.2438  -13.5551 H   0  0  0  0  0  0
  -25.2563   -6.8559   -8.9893 H   0  0  0  0  0  0
  -24.3872   -4.2053   -8.2434 H   0  0  0  0  0  0
  -21.9508   -6.0038   -6.1771 H   0  0  0  0  0  0
  -26.8546   -4.3346   -7.2155 H   0  0  0  0  0  0
  -26.0247   -5.2358   -5.9018 H   0  0  0  0  0  0
  -26.1274   -2.9834   -5.2009 H   0  0  0  0  0  0
  -24.4332   -3.2494   -5.7352 H   0  0  0  0  0  0
  -25.7191   -1.2862   -8.9153 H   0  0  0  0  0  0
  1  2  1  0  0  0
  1103  1  0  0  0
  1104  1  0  0  0
  1105  1  0  0  0
  2  3  1  0  0  0
  2  5  1  0  0  0
  2106  1  0  0  0
  3  4  2  0  0  0
  3 12  1  0  0  0
  5  6  1  0  0  0
  5107  1  0  0  0
  5108  1  0  0  0
  6  7  1  0  0  0
  6109  1  0  0  0
  6110  1  0  0  0
  7  8  1  0  0  0
  7111  1  0  0  0
  7112  1  0  0  0
  8  9  1  0  0  0
  8113  1  0  0  0
  9 10  2  0  0  0
  9 11  1  0  0  0
 10114  1  0  0  0
 11115  1  0  0  0
 11116  1  0  0  0
 12 13  1  0  0  0
 12117  1  0  0  0
 13 14  1  0  0  0
 13 16  1  0  0  0
 13118  1  0  0  0
 14 15  2  0  0  0
 14 22  1  0  0  0
 16 17  1  0  0  0
 16119  1  0  0  0
 16120  1  0  0  0
 17 18  2  0  0  0
 17 19  1  0  0  0
 18 20  1  0  0  0
 19 21  2  0  0  0
 19121  1  0  0  0
 20 21  1  0  0  0
 20122  1  0  0  0
 22 23  1  0  0  0
 22123  1  0  0  0
 23 24  1  0  0  0
 23 26  1  0  0  0
 23124  1  0  0  0
 24 25  2  0  0  0
 24 31  1  0  0  0
 26 27  1  0  0  0
 26125  1  0  0  0
 26126  1  0  0  0
 27 28  1  0  0  0
 27127  1  0  0  0
 27128  1  0  0  0
 28 29  1  0  0  0
 28129  1  0  0  0
 28130  1  0  0  0
 29 30  1  0  0  0
 29131  1  0  0  0
 29132  1  0  0  0
 30133  1  0  0  0
 30134  1  0  0  0
 30135  1  0  0  0
 31 32  1  0  0  0
 31136  1  0  0  0
 32 33  1  0  0  0
 32 35  1  0  0  0
 32137  1  0  0  0
 33 34  2  0  0  0
 33 39  1  0  0  0
 35 36  1  0  0  0
 35 37  1  0  0  0
 35138  1  0  0  0
 36 38  1  0  0  0
 36139  1  0  0  0
 36140  1  0  0  0
 37141  1  0  0  0
 37142  1  0  0  0
 37143  1  0  0  0
 38144  1  0  0  0
 38145  1  0  0  0
 38146  1  0  0  0
 39 40  1  0  0  0
 39147  1  0  0  0
 40 41  1  0  0  0
 40 43  1  0  0  0
 40148  1  0  0  0
 41 42  2  0  0  0
 41 47  1  0  0  0
 43 44  1  0  0  0
 43149  1  0  0  0
 43150  1  0  0  0
 44 45  1  0  0  0
 44 46  1  0  0  0
 44151  1  0  0  0
 45152  1  0  0  0
 45153  1  0  0  0
 45154  1  0  0  0
 46155  1  0  0  0
 46156  1  0  0  0
 46157  1  0  0  0
 47 48  1  0  0  0
 47158  1  0  0  0
 48 49  1  0  0  0
 48 51  1  0  0  0
 48159  1  0  0  0
 49 50  2  0  0  0
 49 57  1  0  0  0
 51 52  1  0  0  0
 51160  1  0  0  0
 51161  1  0  0  0
 52 53  2  0  0  0
 52 54  1  0  0  0
 53 55  1  0  0  0
 54 56  2  0  0  0
 54162  1  0  0  0
 55 56  1  0  0  0
 55163  1  0  0  0
 57 58  1  0  0  0
 57164  1  0  0  0
 58 59  1  0  0  0
 58 61  1  0  0  0
 58165  1  0  0  0
 59 60  2  0  0  0
 59 68  1  0  0  0
 61 62  1  0  0  0
 61166  1  0  0  0
 61167  1  0  0  0
 62 63  1  0  0  0
 62168  1  0  0  0
 62169  1  0  0  0
 63 64  1  0  0  0
 63170  1  0  0  0
 63171  1  0  0  0
 64 65  1  0  0  0
 64172  1  0  0  0
 65 66  1  0  0  0
 65 67  2  0  0  0
 66173  1  0  0  0
 66174  1  0  0  0
 67175  1  0  0  0
 68 69  1  0  0  0
 68176  1  0  0  0
 69 70  1  0  0  0
 69 72  1  0  0  0
 69177  1  0  0  0
 70 71  2  0  0  0
 70 76  1  0  0  0
 72 73  1  0  0  0
 72178  1  0  0  0
 72179  1  0  0  0
 73 74  1  0  0  0
 73 75  1  0  0  0
 73180  1  0  0  0
 74181  1  0  0  0
 74182  1  0  0  0
 74183  1  0  0  0
 75184  1  0  0  0
 75185  1  0  0  0
 75186  1  0  0  0
 76 77  1  0  0  0
 76187  1  0  0  0
 77 78  1  0  0  0
 77 80  1  0  0  0
 77188  1  0  0  0
 78 79  2  0  0  0
 78 84  1  0  0  0
 80 81  1  0  0  0
 80189  1  0  0  0
 80190  1  0  0  0
 81 82  1  0  0  0
 81 83  1  0  0  0
 81191  1  0  0  0
 82192  1  0  0  0
 82193  1  0  0  0
 82194  1  0  0  0
 83195  1  0  0  0
 83196  1  0  0  0
 83197  1  0  0  0
 84 85  1  0  0  0
 84198  1  0  0  0
 85 86  1  0  0  0
 85 88  1  0  0  0
 85199  1  0  0  0
 86 87  2  0  0  0
 86 93  1  0  0  0
 88 89  1  0  0  0
 88200  1  0  0  0
 88201  1  0  0  0
 89 90  1  0  0  0
 89202  1  0  0  0
 89203  1  0  0  0
 90 91  2  0  0  0
 90 92  1  0  0  0
 92204  1  0  0  0
 92205  1  0  0  0
 93 94  1  0  0  0
 93206  1  0  0  0
 94 95  1  0  0  0
 94 97  1  0  0  0
 94207  1  0  0  0
 95 96  1  0  0  0
 95102  2  0  0  0
 96208  1  0  0  0
 97 98  1  0  0  0
 97209  1  0  0  0
 97210  1  0  0  0
 98 99  1  0  0  0
 98211  1  0  0  0
 98212  1  0  0  0
 99100  1  0  0  0
 99101  2  0  0  0
100213  1  0  0  0
M  CHG  2   1   1  30   1
M  END
> <s_m_source_file>
../4fgy_ligand.sdf

> <i_m_source_file_index>
1

> <s_epik_input>
W0hdL049QyhbTkgyXSlcW05IXVtDSDJdW0NIMl1bQ0gyXVtDQEhdKFtOSDMrXSlDKD1PKVtOSF1bQ0BASF0oW0NIMl1DMT1OW0NIMl1OPVtDSF0xKUMoPU8pW05IXVtDQEBIXShbQ0gyXVtDSDJdW0NIMl1bQ0gyXVtOSDMrXSlDKD1PKVtOSF1bQ0BASF0oW0NAQEhdKFtDSDNdKVtDSDJdW0NIM10pQyg9TylbTkhdW0NAQEhdKFtDSDJdW0NIXShbQ0gzXSlbQ0gzXSlDKD1PKVtOSF1bQ0BASF0oW0NIMl1DMj1OW0NIMl1OPVtDSF0yKUMoPU8pW05IXVtDQEBIXShbQ0gyXVtDSDJdW0NIMl1bTkhdL0MoW05IMl0pPU5cW0hdKUMoPU8pW05IXVtDQEBIXShbQ0gyXVtDSF0oW0NIM10pW0NIM10pQyg9TylbTkhdW0NAQEhdKFtDSDJdW0NIXShbQ0gzXSlbQ0gzXSlDKD1PKVtOSF1bQ0BASF0oW0NIMl1bQ0gyXUMoPU8pW05IMl0pQyg9TylbTkhdW0NASF0oQyg9TylbT0hdKVtDSDJdW0NIMl1DKD1PKVtPSF0=

> <s_epik_cmdline>
J2VwaWtfYXBwJywgJy1pbWFlJywgJ2xpZ2FuZF9wcm8ubWFlJywgJy1vbWFlJywgJ2xpZ2FuZF9wcmVwLm1hZScsICctbXMnLCAnMScsICctcGgnLCAnNycsICctcGh0JywgJzAuNScsICctbnQn

> <s_epik_pKa_notes>
Molecule size exceeds maximum supported for generating protonation states

> <s_epik_Chemistry_Notes>
This compound has an imine and may undergo hydrolysis.

$$$$
