4fgz_ligand
                    3D
 Schrodinger Suite 2020-3.
 48 50  0  0  1  0            999 V2000
   34.8920   33.0530   33.7470 C   0  0  0  0  0  0
   34.6940   34.3690   33.2220 C   0  0  0  0  0  0
   33.9390   34.5470   32.0610 C   0  0  0  0  0  0
   33.3960   33.3950   31.4040 C   0  0  0  0  0  0
   33.6020   32.1170   31.8980 C   0  0  0  0  0  0
   34.3510   31.9400   33.0920 C   0  0  0  0  0  0
   32.6200   33.5560   30.2110 C   0  0  0  0  0  0
   32.0730   32.4050   29.5670 C   0  0  0  0  0  0
   32.2990   31.1280   30.1170 C   0  0  0  0  0  0
   33.0530   31.0080   31.2360 N   0  0  0  0  0  0
   35.8210   32.8670   35.2060 Cl  0  0  0  0  0  0
   32.4120   34.9200   29.6910 N   0  0  0  0  0  0
   31.4130   35.1600   28.6460 C   0  0  0  0  0  0
   30.0470   34.8890   28.9370 C   0  0  0  0  0  0
   29.0820   35.1210   27.9460 C   0  0  0  0  0  0
   29.4770   35.6250   26.6860 C   0  0  0  0  0  0
   30.8260   35.8970   26.4040 C   0  0  0  0  0  0
   31.8140   35.6660   27.4080 C   0  0  0  0  0  0
   28.5280   35.8590   25.6890 O   0  0  0  0  0  0
   31.1970   36.4520   25.0140 C   0  0  0  0  0  0
   31.3150   37.9300   24.8780 N   0  3  0  0  0  0
   30.3750   38.6930   25.6870 C   0  0  0  0  0  0
   30.9470   39.3960   26.8730 C   0  0  0  0  0  0
   31.4210   38.4360   23.4950 C   0  0  0  0  0  0
   30.9920   39.8530   23.2100 C   0  0  0  0  0  0
   35.1313   35.2303   33.7269 H   0  0  0  0  0  0
   33.7655   35.5460   31.6609 H   0  0  0  0  0  0
   34.5042   30.9399   33.4974 H   0  0  0  0  0  0
   31.4845   32.5137   28.6560 H   0  0  0  0  0  0
   31.8705   30.2434   29.6459 H   0  0  0  0  0  0
   33.0064   35.7563   30.0875 H   0  0  0  0  0  0
   29.7549   34.5069   29.9151 H   0  0  0  0  0  0
   28.0310   34.9133   28.1469 H   0  0  0  0  0  0
   32.8643   35.8811   27.2114 H   0  0  0  0  0  0
   27.4647   35.6547   25.8829 H   0  0  0  0  0  0
   32.1746   36.0510   24.7081 H   0  0  0  0  0  0
   30.4322   36.1510   24.2829 H   0  0  0  0  0  0
   32.2950   38.1451   25.3289 H   0  0  0  0  0  0
   29.9073   39.4728   25.0680 H   0  0  0  0  0  0
   29.5977   38.0202   26.0783 H   0  0  0  0  0  0
   30.1464   39.9342   27.4015 H   0  0  0  0  0  0
   31.7128   40.1122   26.5405 H   0  0  0  0  0  0
   31.4033   38.6596   27.5509 H   0  0  0  0  0  0
   32.4700   38.3900   23.1671 H   0  0  0  0  0  0
   30.8014   37.8169   22.8295 H   0  0  0  0  0  0
   31.1334   40.0709   22.1411 H   0  0  0  0  0  0
   31.5991   40.5475   23.8093 H   0  0  0  0  0  0
   29.9305   39.9744   23.4717 H   0  0  0  0  0  0
  1  2  2  0  0  0
  1  6  1  0  0  0
  1 11  1  0  0  0
  2  3  1  0  0  0
  2 26  1  0  0  0
  3  4  2  0  0  0
  3 27  1  0  0  0
  4  5  1  0  0  0
  4  7  1  0  0  0
  5  6  2  0  0  0
  5 10  1  0  0  0
  6 28  1  0  0  0
  7  8  2  0  0  0
  7 12  1  0  0  0
  8  9  1  0  0  0
  8 29  1  0  0  0
  9 10  2  0  0  0
  9 30  1  0  0  0
 12 13  1  0  0  0
 12 31  1  0  0  0
 13 14  2  0  0  0
 13 18  1  0  0  0
 14 15  1  0  0  0
 14 32  1  0  0  0
 15 16  2  0  0  0
 15 33  1  0  0  0
 16 17  1  0  0  0
 16 19  1  0  0  0
 17 18  2  0  0  0
 17 20  1  0  0  0
 18 34  1  0  0  0
 19 35  1  0  0  0
 20 21  1  0  0  0
 20 36  1  0  0  0
 20 37  1  0  0  0
 21 22  1  0  0  0
 21 24  1  0  0  0
 21 38  1  0  0  0
 22 23  1  0  0  0
 22 39  1  0  0  0
 22 40  1  0  0  0
 23 41  1  0  0  0
 23 42  1  0  0  0
 23 43  1  0  0  0
 24 25  1  0  0  0
 24 44  1  0  0  0
 24 45  1  0  0  0
 25 46  1  0  0  0
 25 47  1  0  0  0
 25 48  1  0  0  0
M  CHG  1  21   1
M  END
> <s_m_source_file>
../4fgz_ligand.sdf

> <i_m_source_file_index>
1

> <s_epik_input>
W2NIXTFbY0hdYyhDbClbY0hdYyhjMTIpbltjSF1bY0hdYzJbTkhdYzNbY0hdW2NIXWMoW09IXSljKFtjSF0zKVtDSDJdW05IK10oW0NIMl1bQ0gzXSlbQ0gyXVtDSDNd

> <s_epik_cmdline>
J2VwaWtfYXBwJywgJy1pbWFlJywgJ2xpZ2FuZF9wcm8ubWFlJywgJy1vbWFlJywgJ2xpZ2FuZF9wcmVwLm1hZScsICctbXMnLCAnMScsICctcGgnLCAnNycsICctcGh0JywgJzAuNScsICctbnQn

> <r_epik_Ionization_Penalty>
  0.3072

> <r_epik_Ionization_Penalty_Charging>
  0.0160

> <r_epik_Ionization_Penalty_Neutral>
  0.2912

> <r_epik_State_Penalty>
  0.2783

> <r_epik_Charging_Adjusted_Penalty>
0.294335271044157

> <i_epik_Tot_Q>
1

> <i_epik_Tot_abs_Q>
1

$$$$
