4fhh_ligand
                    3D
 Schrodinger Suite 2020-3.
 72 73  0  0  1  0            999 V2000
    2.4420   37.4690   37.5710 C   0  0  0  0  0  0
    1.5220   38.5270   37.8510 C   0  0  0  0  0  0
    0.1520   38.2090   38.4600 C   0  0  0  0  0  0
   -0.1620   36.8480   38.7340 C   0  0  0  0  0  0
    0.7720   35.7310   38.4550 C   0  0  0  0  0  0
    2.0770   36.1060   37.8660 C   0  0  0  0  0  0
    0.3310   34.2240   38.8030 C   0  0  0  0  0  0
    0.8590   32.9690   37.9550 C   0  0  0  0  0  0
   -1.2950   34.0020   38.7560 C   0  0  0  0  0  0
    0.7250   34.0950   40.3900 C   0  0  0  0  0  0
    2.2050   34.2430   40.9270 C   0  0  0  0  0  0
   -2.1550   34.0500   37.4330 C   0  0  0  0  0  0
    1.1940   31.6450   38.6000 C   0  0  0  0  0  0
    1.6460   30.5300   37.8420 C   0  0  0  0  0  0
    1.7740   30.7340   36.3080 C   0  0  0  0  0  0
    1.9770   29.2150   38.5190 C   0  0  0  0  0  0
    1.4410   32.0410   35.7270 C   0  0  0  0  0  0
    1.0130   33.0830   36.5090 C   0  0  0  0  0  0
    1.8540   39.7890   37.5830 O   0  0  0  0  0  0
    4.9900   42.0940   36.6310 O   0  0  0  0  0  0
    2.4610   40.4630   38.7050 C   0  0  0  0  0  0
    3.5280   41.4430   38.2240 C   0  0  0  0  0  0
    4.0330   41.2050   37.0390 N   0  0  0  0  0  0
    3.8990   42.3960   38.9000 O   0  0  0  0  0  0
    4.6560   29.5660   32.5910 C   0  0  0  0  0  0
    4.7700   28.1320   32.0150 C   0  0  0  0  0  0
    3.6030   30.2140   31.6080 C   0  0  0  0  0  0
    5.9990   30.1910   32.4830 C   0  0  0  0  0  0
    3.1260   30.1730   34.4570 C   0  0  0  0  0  0
    2.2490   29.5330   35.4950 O   0  0  0  0  0  0
    4.4440   29.5550   34.1310 C   0  0  1  0  0  0
    4.4090   28.2680   34.7550 O   0  0  0  0  0  0
   -0.9240   39.2520   38.8070 C   0  0  0  0  0  0
    3.4161   37.6923   37.1359 H   0  0  0  0  0  0
   -1.1342   36.6163   39.1691 H   0  0  0  0  0  0
    2.7946   35.3158   37.6453 H   0  0  0  0  0  0
   -1.5402   33.0036   39.1473 H   0  0  0  0  0  0
   -1.7877   34.7685   39.3722 H   0  0  0  0  0  0
    0.1893   34.8650   40.9645 H   0  0  0  0  0  0
    0.4407   33.0984   40.7586 H   0  0  0  0  0  0
    2.2129   34.1167   42.0197 H   0  0  0  0  0  0
    2.5901   35.2409   40.6704 H   0  0  0  0  0  0
    2.8415   33.4743   40.4644 H   0  0  0  0  0  0
   -3.2126   33.8707   37.6765 H   0  0  0  0  0  0
   -1.8021   33.2739   36.7379 H   0  0  0  0  0  0
   -2.0495   35.0388   36.9628 H   0  0  0  0  0  0
    1.0860   31.5410   39.6796 H   0  0  0  0  0  0
    1.8114   29.3085   39.6024 H   0  0  0  0  0  0
    3.0302   28.9600   38.3297 H   0  0  0  0  0  0
    1.3296   28.4221   38.1162 H   0  0  0  0  0  0
    1.5361   32.1860   34.6509 H   0  0  0  0  0  0
    0.7786   34.0342   36.0311 H   0  0  0  0  0  0
    5.4701   41.9730   35.6487 H   0  0  0  0  0  0
    1.6902   41.0173   39.2605 H   0  0  0  0  0  0
    2.9293   39.7213   39.3688 H   0  0  0  0  0  0
    3.7438   40.3694   36.3847 H   0  0  0  0  0  0
    4.9188   28.1849   30.9264 H   0  0  0  0  0  0
    3.8466   27.5751   32.2323 H   0  0  0  0  0  0
    5.6256   27.6181   32.4775 H   0  0  0  0  0  0
    3.9556   30.1082   30.5714 H   0  0  0  0  0  0
    3.4854   31.2810   31.8482 H   0  0  0  0  0  0
    2.6348   29.7041   31.7199 H   0  0  0  0  0  0
    6.2851   30.2645   31.4234 H   0  0  0  0  0  0
    6.7348   29.5739   33.0195 H   0  0  0  0  0  0
    5.9717   31.1974   32.9261 H   0  0  0  0  0  0
    2.5937   30.2023   33.4948 H   0  0  0  0  0  0
    3.3757   31.1978   34.7692 H   0  0  0  0  0  0
    5.3136   30.0565   34.5807 H   0  0  0  0  0  0
    5.2723   27.5917   34.6696 H   0  0  0  0  0  0
   -0.5580   40.2565   38.5480 H   0  0  0  0  0  0
   -1.1434   39.2081   39.8840 H   0  0  0  0  0  0
   -1.8401   39.0373   38.2371 H   0  0  0  0  0  0
  1  2  2  0  0  0
  1  6  1  0  0  0
  1 34  1  0  0  0
  2  3  1  0  0  0
  2 19  1  0  0  0
  3  4  2  0  0  0
  3 33  1  0  0  0
  4  5  1  0  0  0
  4 35  1  0  0  0
  5  6  2  0  0  0
  5  7  1  0  0  0
  6 36  1  0  0  0
  7  8  1  0  0  0
  7  9  1  0  0  0
  7 10  1  0  0  0
  8 13  2  0  0  0
  8 18  1  0  0  0
  9 12  1  0  0  0
  9 37  1  0  0  0
  9 38  1  0  0  0
 10 11  1  0  0  0
 10 39  1  0  0  0
 10 40  1  0  0  0
 11 41  1  0  0  0
 11 42  1  0  0  0
 11 43  1  0  0  0
 12 44  1  0  0  0
 12 45  1  0  0  0
 12 46  1  0  0  0
 13 14  1  0  0  0
 13 47  1  0  0  0
 14 15  2  0  0  0
 14 16  1  0  0  0
 15 17  1  0  0  0
 15 30  1  0  0  0
 16 48  1  0  0  0
 16 49  1  0  0  0
 16 50  1  0  0  0
 17 18  2  0  0  0
 17 51  1  0  0  0
 18 52  1  0  0  0
 19 21  1  0  0  0
 20 23  1  0  0  0
 20 53  1  0  0  0
 21 22  1  0  0  0
 21 54  1  0  0  0
 21 55  1  0  0  0
 22 23  1  0  0  0
 22 24  2  0  0  0
 23 56  1  0  0  0
 25 26  1  0  0  0
 25 27  1  0  0  0
 25 28  1  0  0  0
 25 31  1  0  0  0
 26 57  1  0  0  0
 26 58  1  0  0  0
 26 59  1  0  0  0
 27 60  1  0  0  0
 27 61  1  0  0  0
 27 62  1  0  0  0
 28 63  1  0  0  0
 28 64  1  0  0  0
 28 65  1  0  0  0
 29 30  1  0  0  0
 29 31  1  0  0  0
 29 66  1  0  0  0
 29 67  1  0  0  0
 31 32  1  0  0  0
 31 68  1  0  0  0
 32 69  1  0  0  0
 33 70  1  0  0  0
 33 71  1  0  0  0
 33 72  1  0  0  0
M  END
> <s_m_source_file>
../4fhh_ligand.sdf

> <i_m_source_file_index>
1

> <s_epik_input>
W09IXVtOSF1DKD1PKVtDSDJdT2MxW2NIXVtjSF1jKFtjSF1jMVtDSDNdKUMoW0NIMl1bQ0gzXSkoW0NIMl1bQ0gzXSljMltjSF1jKFtDSDNdKWMoW2NIXVtjSF0yKU9bQ0gyXVtDQEBIXShbT0hdKUMoW0NIM10pKFtDSDNdKVtDSDNd

> <s_epik_cmdline>
J2VwaWtfYXBwJywgJy1pbWFlJywgJ2xpZ2FuZF9wcm8ubWFlJywgJy1vbWFlJywgJ2xpZ2FuZF9wcmVwLm1hZScsICctbXMnLCAnMScsICctcGgnLCAnNycsICctcGh0JywgJzAuNScsICctbnQn

> <r_lp_tautomer_probability>
1

> <r_epik_Ionization_Penalty>
  0.0172

> <r_epik_Ionization_Penalty_Charging>
  0.0000

> <r_epik_Ionization_Penalty_Neutral>
  0.0172

> <r_epik_State_Penalty>
  0.0136

> <r_epik_Charging_Adjusted_Penalty>
0.0135708637897729

> <i_epik_Tot_Q>
0

> <i_epik_Tot_abs_Q>
0

> <s_epik_Chemistry_Notes>
This compound has a N-S or N-O group and may undergo hydrolysis at high or low pH.

$$$$
