4fhi_ligand
                    3D
 Schrodinger Suite 2020-3.
 72 73  0  0  1  0            999 V2000
    2.4200   37.3040   37.9780 C   0  0  0  0  0  0
    1.4790   38.3660   38.1490 C   0  0  0  0  0  0
    0.0520   38.0780   38.5780 C   0  0  0  0  0  0
   -0.3160   36.7080   38.8060 C   0  0  0  0  0  0
    0.6530   35.5850   38.6300 C   0  0  0  0  0  0
    2.0210   35.9590   38.2110 C   0  0  0  0  0  0
    0.1870   34.0650   38.9090 C   0  0  0  0  0  0
    0.8700   32.8560   38.0660 C   0  0  0  0  0  0
   -1.4280   33.8680   38.7150 C   0  0  0  0  0  0
    0.4930   33.9080   40.5250 C   0  0  0  0  0  0
    1.9680   34.0350   41.1440 C   0  0  0  0  0  0
   -2.1200   33.9640   37.2840 C   0  0  0  0  0  0
    1.1790   31.5010   38.6730 C   0  0  0  0  0  0
    1.7830   30.4460   37.9040 C   0  0  0  0  0  0
    2.1090   30.7450   36.4170 C   0  0  0  0  0  0
    2.0930   29.0790   38.5240 C   0  0  0  0  0  0
    1.7940   32.0730   35.8590 C   0  0  0  0  0  0
    1.2140   33.0510   36.6450 C   0  0  0  0  0  0
    1.8510   39.6300   37.9320 O   0  0  0  0  0  0
    4.7580   41.9190   36.5890 O   0  0  0  0  0  0
    2.5720   40.2850   38.9640 C   0  0  0  0  0  0
    3.6980   41.1550   38.4510 C   0  0  0  0  0  0
    4.0850   40.9080   37.2210 N   0  0  0  0  0  0
    4.2070   42.0300   39.1410 O   0  0  0  0  0  0
    4.8400   29.2270   32.5080 C   0  0  0  0  0  0
    4.0600   30.0400   31.4540 C   0  0  0  0  0  0
    6.1250   30.0260   32.8060 C   0  0  0  0  0  0
    5.1980   27.8560   31.9190 C   0  0  0  0  0  0
    3.4810   30.1570   34.5010 C   0  0  0  0  0  0
    2.6810   29.7770   35.6370 O   0  0  0  0  0  0
    3.9850   28.9220   33.7700 C   0  0  2  0  0  0
    4.7420   28.1720   34.7600 O   0  0  0  0  0  0
   -1.0180   39.1640   38.7830 C   0  0  0  0  0  0
    3.4419   37.5246   37.6695 H   0  0  0  0  0  0
   -1.3355   36.4808   39.1176 H   0  0  0  0  0  0
    2.7576   35.1672   38.0744 H   0  0  0  0  0  0
   -1.7197   32.8664   39.0639 H   0  0  0  0  0  0
   -1.9633   34.6304   39.3000 H   0  0  0  0  0  0
   -0.0655   34.6760   41.0802 H   0  0  0  0  0  0
    0.1779   32.9096   40.8626 H   0  0  0  0  0  0
    1.9216   33.8943   42.2340 H   0  0  0  0  0  0
    2.3750   35.0321   40.9200 H   0  0  0  0  0  0
    2.6185   33.2657   40.7023 H   0  0  0  0  0  0
   -3.2027   33.8005   37.3886 H   0  0  0  0  0  0
   -1.6959   33.1969   36.6194 H   0  0  0  0  0  0
   -1.9394   34.9609   36.8555 H   0  0  0  0  0  0
    0.9368   31.3217   39.7205 H   0  0  0  0  0  0
    1.7858   29.0773   39.5802 H   0  0  0  0  0  0
    3.1731   28.8820   38.4559 H   0  0  0  0  0  0
    1.5426   28.2967   37.9808 H   0  0  0  0  0  0
    2.0212   32.2860   34.8144 H   0  0  0  0  0  0
    0.9994   34.0181   36.1903 H   0  0  0  0  0  0
    5.1124   41.7826   35.5566 H   0  0  0  0  0  0
    1.8892   40.9312   39.5351 H   0  0  0  0  0  0
    3.0142   39.5345   39.6357 H   0  0  0  0  0  0
    3.8986   39.9593   36.6964 H   0  0  0  0  0  0
    4.7066   30.2287   30.5844 H   0  0  0  0  0  0
    3.7439   30.9988   31.8908 H   0  0  0  0  0  0
    3.1734   29.4721   31.1354 H   0  0  0  0  0  0
    6.6732   30.2017   31.8686 H   0  0  0  0  0  0
    6.7591   29.4550   33.5002 H   0  0  0  0  0  0
    5.8592   30.9912   33.2617 H   0  0  0  0  0  0
    5.8086   27.9937   31.0145 H   0  0  0  0  0  0
    4.2754   27.3160   31.6599 H   0  0  0  0  0  0
    5.7666   27.2756   32.6605 H   0  0  0  0  0  0
    2.8733   30.7593   33.8096 H   0  0  0  0  0  0
    4.3437   30.7486   34.8414 H   0  0  0  0  0  0
    3.1363   28.3169   33.4184 H   0  0  0  0  0  0
    5.2198   27.2209   34.4822 H   0  0  0  0  0  0
   -0.5832   40.1518   38.5706 H   0  0  0  0  0  0
   -1.3741   39.1361   39.8234 H   0  0  0  0  0  0
   -1.8618   38.9806   38.1016 H   0  0  0  0  0  0
  1  2  2  0  0  0
  1  6  1  0  0  0
  1 34  1  0  0  0
  2  3  1  0  0  0
  2 19  1  0  0  0
  3  4  2  0  0  0
  3 33  1  0  0  0
  4  5  1  0  0  0
  4 35  1  0  0  0
  5  6  2  0  0  0
  5  7  1  0  0  0
  6 36  1  0  0  0
  7  8  1  0  0  0
  7  9  1  0  0  0
  7 10  1  0  0  0
  8 13  2  0  0  0
  8 18  1  0  0  0
  9 12  1  0  0  0
  9 37  1  0  0  0
  9 38  1  0  0  0
 10 11  1  0  0  0
 10 39  1  0  0  0
 10 40  1  0  0  0
 11 41  1  0  0  0
 11 42  1  0  0  0
 11 43  1  0  0  0
 12 44  1  0  0  0
 12 45  1  0  0  0
 12 46  1  0  0  0
 13 14  1  0  0  0
 13 47  1  0  0  0
 14 15  2  0  0  0
 14 16  1  0  0  0
 15 17  1  0  0  0
 15 30  1  0  0  0
 16 48  1  0  0  0
 16 49  1  0  0  0
 16 50  1  0  0  0
 17 18  2  0  0  0
 17 51  1  0  0  0
 18 52  1  0  0  0
 19 21  1  0  0  0
 20 23  1  0  0  0
 20 53  1  0  0  0
 21 22  1  0  0  0
 21 54  1  0  0  0
 21 55  1  0  0  0
 22 23  1  0  0  0
 22 24  2  0  0  0
 23 56  1  0  0  0
 25 26  1  0  0  0
 25 27  1  0  0  0
 25 28  1  0  0  0
 25 31  1  0  0  0
 26 57  1  0  0  0
 26 58  1  0  0  0
 26 59  1  0  0  0
 27 60  1  0  0  0
 27 61  1  0  0  0
 27 62  1  0  0  0
 28 63  1  0  0  0
 28 64  1  0  0  0
 28 65  1  0  0  0
 29 30  1  0  0  0
 29 31  1  0  0  0
 29 66  1  0  0  0
 29 67  1  0  0  0
 31 32  1  0  0  0
 31 68  1  0  0  0
 32 69  1  0  0  0
 33 70  1  0  0  0
 33 71  1  0  0  0
 33 72  1  0  0  0
M  END
> <s_m_source_file>
../4fhi_ligand.sdf

> <i_m_source_file_index>
1

> <s_epik_input>
W09IXVtOSF1DKD1PKVtDSDJdT2MxW2NIXVtjSF1jKFtjSF1jMVtDSDNdKUMoW0NIMl1bQ0gzXSkoW0NIMl1bQ0gzXSljMltjSF1jKFtDSDNdKWMoW2NIXVtjSF0yKU9bQ0gyXVtDQEhdKFtPSF0pQyhbQ0gzXSkoW0NIM10pW0NIM10=

> <s_epik_cmdline>
J2VwaWtfYXBwJywgJy1pbWFlJywgJ2xpZ2FuZF9wcm8ubWFlJywgJy1vbWFlJywgJ2xpZ2FuZF9wcmVwLm1hZScsICctbXMnLCAnMScsICctcGgnLCAnNycsICctcGh0JywgJzAuNScsICctbnQn

> <r_lp_tautomer_probability>
1

> <r_epik_Ionization_Penalty>
  0.0172

> <r_epik_Ionization_Penalty_Charging>
  0.0000

> <r_epik_Ionization_Penalty_Neutral>
  0.0172

> <r_epik_State_Penalty>
  0.0136

> <r_epik_Charging_Adjusted_Penalty>
0.0135708637897729

> <i_epik_Tot_Q>
0

> <i_epik_Tot_abs_Q>
0

> <s_epik_Chemistry_Notes>
This compound has a N-S or N-O group and may undergo hydrolysis at high or low pH.

$$$$
