4fi9_ligand
                    3D
 Schrodinger Suite 2020-3.
230236  0  0  1  0            999 V2000
    5.0960  -51.5020  -33.2120 N   0  3  0  0  0  0
    5.7780  -50.2250  -33.5760 C   0  0  2  0  0  0
    7.0210  -50.0160  -32.7040 C   0  0  0  0  0  0
    7.0250  -50.3860  -31.5250 O   0  0  0  0  0  0
    4.7940  -49.0310  -33.5020 C   0  0  0  0  0  0
    4.3570  -48.6460  -32.0910 C   0  0  0  0  0  0
    4.3350  -47.3000  -31.7060 C   0  0  0  0  0  0
    3.9540  -49.6130  -31.1570 C   0  0  0  0  0  0
    3.9290  -46.9200  -30.4130 C   0  0  0  0  0  0
    3.5520  -49.2460  -29.8580 C   0  0  0  0  0  0
    3.5380  -47.8960  -29.4880 C   0  0  0  0  0  0
    8.0800  -49.4630  -33.2940 N   0  0  0  0  0  0
    9.2900  -49.1250  -32.5310 C   0  0  2  0  0  0
    9.9190  -47.7750  -32.9270 C   0  0  0  0  0  0
   10.9370  -47.7290  -33.6350 O   0  0  0  0  0  0
   10.3130  -50.2860  -32.5110 C   0  0  0  0  0  0
   10.6780  -50.8960  -33.8580 C   0  0  0  0  0  0
   11.9240  -50.6400  -34.4480 C   0  0  0  0  0  0
    9.7940  -51.7550  -34.5280 C   0  0  0  0  0  0
   12.2710  -51.2030  -35.6780 C   0  0  0  0  0  0
   10.1300  -52.3240  -35.7580 C   0  0  0  0  0  0
   11.3700  -52.0450  -36.3260 C   0  0  0  0  0  0
   11.7070  -52.6070  -37.5390 O   0  0  0  0  0  0
    9.3080  -46.6620  -32.4640 N   0  0  0  0  0  0
    9.8580  -45.3360  -32.7390 C   0  0  2  0  0  0
   10.8470  -44.8610  -31.6650 C   0  0  0  0  0  0
   10.5430  -44.9050  -30.4680 O   0  0  0  0  0  0
    8.6120  -44.4430  -32.7710 C   0  0  0  0  0  0
    7.5780  -45.1680  -31.9330 C   0  0  0  0  0  0
    8.0450  -46.5840  -31.7020 C   0  0  0  0  0  0
   12.0250  -44.4230  -32.1060 N   0  0  0  0  0  0
   13.0320  -43.8390  -31.2170 C   0  0  2  0  0  0
   12.6890  -42.3820  -30.9110 C   0  0  0  0  0  0
   12.1470  -41.6710  -31.7640 O   0  0  0  0  0  0
   14.4440  -43.9730  -31.8300 C   0  0  0  0  0  0
   15.6280  -43.2930  -31.0770 C   0  0  0  0  0  0
   15.6690  -43.3240  -29.2510 S   0  0  0  0  0  0
   15.3710  -45.0560  -28.8430 C   0  0  0  0  0  0
   12.9930  -41.9570  -29.6850 N   0  0  0  0  0  0
   12.7480  -40.5860  -29.2420 C   0  0  2  0  0  0
   14.0360  -39.8430  -28.8750 C   0  0  0  0  0  0
   14.9320  -40.3910  -28.2220 O   0  0  0  0  0  0
   11.7620  -40.5610  -28.0690 C   0  0  0  0  0  0
   11.1340  -39.2060  -27.7280 C   0  0  0  0  0  0
   10.2760  -38.6890  -28.8760 C   0  0  0  0  0  0
   10.3210  -39.2910  -26.4440 C   0  0  0  0  0  0
   14.1040  -38.5870  -29.3050 N   0  0  0  0  0  0
   15.2520  -37.7260  -29.0660 C   0  0  2  0  0  0
   14.7740  -36.2890  -28.8870 C   0  0  0  0  0  0
   13.8690  -35.8380  -29.5930 O   0  0  0  0  0  0
   16.2410  -37.8280  -30.2350 C   0  0  0  0  0  0
   17.5040  -36.9790  -30.0880 C   0  0  0  0  0  0
   18.6340  -37.4640  -30.9940 C   0  0  0  0  0  0
   18.3190  -37.3630  -32.4220 N   0  0  0  0  0  0
   18.5470  -36.2880  -33.1760 C   0  0  0  0  0  0
   19.0870  -35.1890  -32.6520 N   0  0  0  0  0  0
   18.2270  -36.3120  -34.4650 N   0  0  0  0  0  0
   15.3770  -35.5850  -27.9310 N   0  0  0  0  0  0
   15.0780  -34.1750  -27.6920 C   0  0  2  0  0  0
   16.1820  -33.3000  -28.2940 C   0  0  0  0  0  0
   17.2250  -33.0820  -27.6780 O   0  0  0  0  0  0
   14.8820  -33.8980  -26.1920 C   0  0  0  0  0  0
   13.7190  -34.6440  -25.5570 C   0  0  0  0  0  0
   13.8460  -35.9840  -25.1720 C   0  0  0  0  0  0
   12.4970  -34.0120  -25.3310 C   0  0  0  0  0  0
   12.7800  -36.6800  -24.5820 C   0  0  0  0  0  0
   11.4230  -34.7020  -24.7420 C   0  0  0  0  0  0
   11.5750  -36.0350  -24.3690 C   0  0  0  0  0  0
   10.5280  -36.7210  -23.7950 O   0  0  0  0  0  0
   15.9430  -32.8200  -29.5140 N   0  0  0  0  0  0
   16.9260  -32.0220  -30.2540 C   0  0  2  0  0  0
   17.2270  -30.7230  -29.5210 C   0  0  0  0  0  0
   18.3900  -30.3910  -29.2880 O   0  0  0  0  0  0
   16.4740  -31.7080  -31.7060 C   0  0  2  0  0  0
   15.5180  -30.6330  -31.7030 O   0  0  0  0  0  0
   15.8750  -32.9490  -32.3770 C   0  0  0  0  0  0
   16.1750  -30.0000  -29.1500 N   0  0  0  0  0  0
   16.3380  -28.7990  -28.3450 C   0  0  2  0  0  0
   16.3500  -29.1000  -26.8500 C   0  0  0  0  0  0
   16.8900  -30.1320  -26.4360 O   0  0  0  0  0  0
   15.3060  -27.7430  -28.7220 C   0  0  0  0  0  0
   15.6510  -27.0580  -30.0190 C   0  0  0  0  0  0
   15.4090  -27.5930  -31.1070 O   0  0  0  0  0  0
   16.2440  -25.8760  -29.9160 N   0  0  0  0  0  0
   15.7670  -28.2170  -26.0440 N   0  0  0  0  0  0
   15.8590  -28.3410  -24.5890 C   0  0  0  0  0  0
   15.0660  -29.4880  -23.9780 C   0  0  0  0  0  0
   14.9210  -30.5520  -24.5870 O   0  0  0  0  0  0
   14.5780  -29.2900  -22.7420 N   0  0  0  0  0  0
   13.5750  -30.1910  -22.1960 C   0  0  2  0  0  0
   12.1860  -29.8230  -22.7260 C   0  0  0  0  0  0
   12.0080  -28.7380  -23.2810 O   0  0  0  0  0  0
   13.6570  -29.9260  -20.6890 C   0  0  0  0  0  0
   14.1240  -28.5170  -20.5810 C   0  0  0  0  0  0
   15.0500  -28.3110  -21.7430 C   0  0  0  0  0  0
   11.2050  -30.7290  -22.5750 N   0  0  0  0  0  0
    9.8220  -30.3650  -22.8490 C   0  0  2  0  0  0
    9.2640  -29.5090  -21.7140 C   0  0  0  0  0  0
    9.9260  -29.3540  -20.6840 O   0  0  0  0  0  0
    9.1080  -31.7200  -22.9010 C   0  0  0  0  0  0
    9.9280  -32.6100  -22.0630 C   0  0  0  0  0  0
   11.3420  -32.1600  -22.2480 C   0  0  0  0  0  0
    8.0670  -28.9330  -21.9050 N   0  0  0  0  0  0
    7.3860  -28.2140  -20.8300 C   0  0  2  0  0  0
    7.0690  -29.0820  -19.6000 C   0  0  0  0  0  0
    6.7260  -30.2530  -19.7380 O   0  0  0  0  0  0
    6.1030  -27.7360  -21.5090 C   0  0  0  0  0  0
    6.4840  -27.5860  -22.9320 C   0  0  0  0  0  0
    7.4080  -28.7150  -23.2060 C   0  0  0  0  0  0
    7.1900  -28.5020  -18.4110 N   0  0  0  0  0  0
    7.0170  -29.2530  -17.1800 C   0  0  2  0  0  0
    6.2060  -28.4740  -16.1500 C   0  0  0  0  0  0
    6.5230  -28.3880  -14.9570 O   0  0  0  0  0  0
    8.3780  -29.6890  -16.6210 C   0  0  2  0  0  0
    9.0570  -30.4570  -17.6190 O   0  0  0  0  0  0
    8.2240  -30.5530  -15.3680 C   0  0  0  0  0  0
    5.1680  -27.8990  -16.4880 O   0  0  0  0  0  0
    5.8153  -52.3320  -33.2725 H   0  0  0  0  0  0
    4.2650  -51.6855  -33.9090 H   0  0  0  0  0  0
    4.7051  -51.4295  -32.1863 H   0  0  0  0  0  0
    6.1146  -50.3253  -34.6184 H   0  0  0  0  0  0
    5.2654  -48.1396  -33.9414 H   0  0  0  0  0  0
    3.8787  -49.2750  -34.0611 H   0  0  0  0  0  0
    4.6374  -46.5335  -32.4196 H   0  0  0  0  0  0
    3.9521  -50.6652  -31.4416 H   0  0  0  0  0  0
    3.9189  -45.8669  -30.1319 H   0  0  0  0  0  0
    3.2524  -50.0116  -29.1423 H   0  0  0  0  0  0
    3.2244  -47.6060  -28.4852 H   0  0  0  0  0  0
    8.0363  -49.2600  -34.3742 H   0  0  0  0  0  0
    8.8950  -48.9918  -31.5130 H   0  0  0  0  0  0
   11.2595  -49.9332  -32.0754 H   0  0  0  0  0  0
    9.9164  -51.1138  -31.9048 H   0  0  0  0  0  0
   12.6345  -49.9899  -33.9374 H   0  0  0  0  0  0
    8.8267  -51.9825  -34.0799 H   0  0  0  0  0  0
   13.2397  -50.9852  -36.1277 H   0  0  0  0  0  0
    9.4270  -52.9815  -36.2695 H   0  0  0  0  0  0
   12.6853  -52.3903  -37.9927 H   0  0  0  0  0  0
   10.4325  -45.3659  -33.6766 H   0  0  0  0  0  0
    8.8560  -43.4578  -32.3469 H   0  0  0  0  0  0
    8.2748  -44.3212  -33.8109 H   0  0  0  0  0  0
    7.4607  -44.6523  -30.9685 H   0  0  0  0  0  0
    6.6149  -45.1753  -32.4644 H   0  0  0  0  0  0
    7.3345  -47.3272  -32.0929 H   0  0  0  0  0  0
    8.2441  -46.7902  -30.6400 H   0  0  0  0  0  0
   12.2283  -44.5131  -33.1833 H   0  0  0  0  0  0
   12.9835  -44.4166  -30.2821 H   0  0  0  0  0  0
   14.7160  -45.0369  -31.8952 H   0  0  0  0  0  0
   14.4500  -43.5307  -32.8371 H   0  0  0  0  0  0
   16.5741  -43.7671  -31.3772 H   0  0  0  0  0  0
   15.6575  -42.2230  -31.3304 H   0  0  0  0  0  0
   15.3765  -45.1814  -27.7502 H   0  0  0  0  0  0
   16.1614  -45.6786  -29.2876 H   0  0  0  0  0  0
   14.3934  -45.3638  -29.2425 H   0  0  0  0  0  0
   13.4457  -42.6851  -28.9958 H   0  0  0  0  0  0
   12.3075  -40.1005  -30.1253 H   0  0  0  0  0  0
   10.9198  -41.2354  -28.2835 H   0  0  0  0  0  0
   12.2732  -40.8926  -27.1532 H   0  0  0  0  0  0
   11.9490  -38.4848  -27.5678 H   0  0  0  0  0  0
   10.8827  -38.6358  -29.7920 H   0  0  0  0  0  0
    9.8974  -37.6864  -28.6281 H   0  0  0  0  0  0
    9.4285  -39.3716  -29.0366 H   0  0  0  0  0  0
   10.9591  -39.6658  -25.6301 H   0  0  0  0  0  0
    9.4737  -39.9769  -26.5912 H   0  0  0  0  0  0
    9.9427  -38.2917  -26.1828 H   0  0  0  0  0  0
   13.2377  -38.2056  -29.8654 H   0  0  0  0  0  0
   15.7309  -38.0823  -28.1421 H   0  0  0  0  0  0
   16.5732  -38.8709  -30.3443 H   0  0  0  0  0  0
   15.7477  -37.5012  -31.1623 H   0  0  0  0  0  0
   17.2774  -35.9358  -30.3532 H   0  0  0  0  0  0
   17.8572  -37.0243  -29.0472 H   0  0  0  0  0  0
   19.5353  -36.8605  -30.8110 H   0  0  0  0  0  0
   18.8499  -38.5206  -30.7772 H   0  0  0  0  0  0
   17.8604  -38.2148  -32.9457 H   0  0  0  0  0  0
   19.3543  -35.1624  -31.5853 H   0  0  0  0  0  0
   19.2656  -34.3080  -33.2859 H   0  0  0  0  0  0
   17.7807  -37.2164  -34.9042 H   0  0  0  0  0  0
   16.1236  -36.1018  -27.3101 H   0  0  0  0  0  0
   14.1291  -33.9722  -28.2101 H   0  0  0  0  0  0
   15.7882  -34.1937  -25.6431 H   0  0  0  0  0  0
   14.6942  -32.8250  -26.0387 H   0  0  0  0  0  0
   14.7935  -36.4978  -25.3341 H   0  0  0  0  0  0
   12.3724  -32.9671  -25.6153 H   0  0  0  0  0  0
   12.9009  -37.7240  -24.2929 H   0  0  0  0  0  0
   10.4726  -34.1942  -24.5775 H   0  0  0  0  0  0
   10.6547  -37.7738  -23.5027 H   0  0  0  0  0  0
   14.9645  -33.0429  -29.9643 H   0  0  0  0  0  0
   17.8191  -32.6639  -30.2705 H   0  0  0  0  0  0
   17.3190  -31.3403  -32.3066 H   0  0  0  0  0  0
   15.7830  -29.6625  -31.2580 H   0  0  0  0  0  0
   16.6159  -33.7620  -32.3722 H   0  0  0  0  0  0
   15.6012  -32.7085  -33.4149 H   0  0  0  0  0  0
   14.9780  -33.2671  -31.8254 H   0  0  0  0  0  0
   15.1700  -30.3217  -29.4606 H   0  0  0  0  0  0
   17.3371  -28.4223  -28.6093 H   0  0  0  0  0  0
   14.3201  -28.2177  -28.8348 H   0  0  0  0  0  0
   15.2571  -26.9795  -27.9316 H   0  0  0  0  0  0
   16.4374  -25.4423  -28.9238 H   0  0  0  0  0  0
   16.5424  -25.3295  -30.8228 H   0  0  0  0  0  0
   15.2077  -27.3817  -26.4905 H   0  0  0  0  0  0
   16.9083  -28.5007  -24.3003 H   0  0  0  0  0  0
   15.4853  -27.4198  -24.1181 H   0  0  0  0  0  0
   13.7811  -31.2312  -22.4883 H   0  0  0  0  0  0
   12.6632  -30.0637  -20.2379 H   0  0  0  0  0  0
   14.3681  -30.6293  -20.2312 H   0  0  0  0  0  0
   13.2591  -27.8392  -20.6317 H   0  0  0  0  0  0
   14.6449  -28.3758  -19.6225 H   0  0  0  0  0  0
   16.0975  -28.5261  -21.4853 H   0  0  0  0  0  0
   14.9762  -27.2961  -22.1608 H   0  0  0  0  0  0
    9.7463  -29.7761  -23.7750 H   0  0  0  0  0  0
    8.0878  -31.6123  -22.5041 H   0  0  0  0  0  0
    9.0611  -32.0700  -23.9428 H   0  0  0  0  0  0
    9.6146  -32.5163  -21.0128 H   0  0  0  0  0  0
    9.7949  -33.6506  -22.3938 H   0  0  0  0  0  0
   11.8423  -32.6796  -23.0785 H   0  0  0  0  0  0
   11.9409  -32.2711  -21.3320 H   0  0  0  0  0  0
    8.0456  -27.4181  -20.4539 H   0  0  0  0  0  0
    5.3122  -28.4877  -21.3691 H   0  0  0  0  0  0
    5.7853  -26.7822  -21.0626 H   0  0  0  0  0  0
    5.5827  -27.6385  -23.5604 H   0  0  0  0  0  0
    6.9773  -26.6139  -23.0790 H   0  0  0  0  0  0
    8.1656  -28.4652  -23.9634 H   0  0  0  0  0  0
    6.8773  -29.6306  -23.5062 H   0  0  0  0  0  0
    7.4267  -27.4285  -18.3717 H   0  0  0  0  0  0
    6.4319  -30.1383  -17.4697 H   0  0  0  0  0  0
    5.8961  -27.8105  -14.2616 H   0  0  0  0  0  0
    8.9950  -28.8064  -16.3967 H   0  0  0  0  0  0
    9.2685  -30.0149  -18.6038 H   0  0  0  0  0  0
    7.7031  -29.9782  -14.5881 H   0  0  0  0  0  0
    9.2183  -30.8495  -15.0026 H   0  0  0  0  0  0
    7.6399  -31.4525  -15.6124 H   0  0  0  0  0  0
  1  2  1  0  0  0
  1118  1  0  0  0
  1119  1  0  0  0
  1120  1  0  0  0
  2  3  1  0  0  0
  2  5  1  0  0  0
  2121  1  0  0  0
  3  4  2  0  0  0
  3 12  1  0  0  0
  5  6  1  0  0  0
  5122  1  0  0  0
  5123  1  0  0  0
  6  7  2  0  0  0
  6  8  1  0  0  0
  7  9  1  0  0  0
  7124  1  0  0  0
  8 10  2  0  0  0
  8125  1  0  0  0
  9 11  2  0  0  0
  9126  1  0  0  0
 10 11  1  0  0  0
 10127  1  0  0  0
 11128  1  0  0  0
 12 13  1  0  0  0
 12129  1  0  0  0
 13 14  1  0  0  0
 13 16  1  0  0  0
 13130  1  0  0  0
 14 15  2  0  0  0
 14 24  1  0  0  0
 16 17  1  0  0  0
 16131  1  0  0  0
 16132  1  0  0  0
 17 18  2  0  0  0
 17 19  1  0  0  0
 18 20  1  0  0  0
 18133  1  0  0  0
 19 21  2  0  0  0
 19134  1  0  0  0
 20 22  2  0  0  0
 20135  1  0  0  0
 21 22  1  0  0  0
 21136  1  0  0  0
 22 23  1  0  0  0
 23137  1  0  0  0
 24 25  1  0  0  0
 24 30  1  0  0  0
 25 26  1  0  0  0
 25 28  1  0  0  0
 25138  1  0  0  0
 26 27  2  0  0  0
 26 31  1  0  0  0
 28 29  1  0  0  0
 28139  1  0  0  0
 28140  1  0  0  0
 29 30  1  0  0  0
 29141  1  0  0  0
 29142  1  0  0  0
 30143  1  0  0  0
 30144  1  0  0  0
 31 32  1  0  0  0
 31145  1  0  0  0
 32 33  1  0  0  0
 32 35  1  0  0  0
 32146  1  0  0  0
 33 34  2  0  0  0
 33 39  1  0  0  0
 35 36  1  0  0  0
 35147  1  0  0  0
 35148  1  0  0  0
 36 37  1  0  0  0
 36149  1  0  0  0
 36150  1  0  0  0
 37 38  1  0  0  0
 38151  1  0  0  0
 38152  1  0  0  0
 38153  1  0  0  0
 39 40  1  0  0  0
 39154  1  0  0  0
 40 41  1  0  0  0
 40 43  1  0  0  0
 40155  1  0  0  0
 41 42  2  0  0  0
 41 47  1  0  0  0
 43 44  1  0  0  0
 43156  1  0  0  0
 43157  1  0  0  0
 44 45  1  0  0  0
 44 46  1  0  0  0
 44158  1  0  0  0
 45159  1  0  0  0
 45160  1  0  0  0
 45161  1  0  0  0
 46162  1  0  0  0
 46163  1  0  0  0
 46164  1  0  0  0
 47 48  1  0  0  0
 47165  1  0  0  0
 48 49  1  0  0  0
 48 51  1  0  0  0
 48166  1  0  0  0
 49 50  2  0  0  0
 49 58  1  0  0  0
 51 52  1  0  0  0
 51167  1  0  0  0
 51168  1  0  0  0
 52 53  1  0  0  0
 52169  1  0  0  0
 52170  1  0  0  0
 53 54  1  0  0  0
 53171  1  0  0  0
 53172  1  0  0  0
 54 55  1  0  0  0
 54173  1  0  0  0
 55 56  1  0  0  0
 55 57  2  0  0  0
 56174  1  0  0  0
 56175  1  0  0  0
 57176  1  0  0  0
 58 59  1  0  0  0
 58177  1  0  0  0
 59 60  1  0  0  0
 59 62  1  0  0  0
 59178  1  0  0  0
 60 61  2  0  0  0
 60 70  1  0  0  0
 62 63  1  0  0  0
 62179  1  0  0  0
 62180  1  0  0  0
 63 64  2  0  0  0
 63 65  1  0  0  0
 64 66  1  0  0  0
 64181  1  0  0  0
 65 67  2  0  0  0
 65182  1  0  0  0
 66 68  2  0  0  0
 66183  1  0  0  0
 67 68  1  0  0  0
 67184  1  0  0  0
 68 69  1  0  0  0
 69185  1  0  0  0
 70 71  1  0  0  0
 70186  1  0  0  0
 71 72  1  0  0  0
 71 74  1  0  0  0
 71187  1  0  0  0
 72 73  2  0  0  0
 72 77  1  0  0  0
 74 75  1  0  0  0
 74 76  1  0  0  0
 74188  1  0  0  0
 75189  1  0  0  0
 76190  1  0  0  0
 76191  1  0  0  0
 76192  1  0  0  0
 77 78  1  0  0  0
 77193  1  0  0  0
 78 79  1  0  0  0
 78 81  1  0  0  0
 78194  1  0  0  0
 79 80  2  0  0  0
 79 85  1  0  0  0
 81 82  1  0  0  0
 81195  1  0  0  0
 81196  1  0  0  0
 82 83  2  0  0  0
 82 84  1  0  0  0
 84197  1  0  0  0
 84198  1  0  0  0
 85 86  1  0  0  0
 85199  1  0  0  0
 86 87  1  0  0  0
 86200  1  0  0  0
 86201  1  0  0  0
 87 88  2  0  0  0
 87 89  1  0  0  0
 89 90  1  0  0  0
 89 95  1  0  0  0
 90 91  1  0  0  0
 90 93  1  0  0  0
 90202  1  0  0  0
 91 92  2  0  0  0
 91 96  1  0  0  0
 93 94  1  0  0  0
 93203  1  0  0  0
 93204  1  0  0  0
 94 95  1  0  0  0
 94205  1  0  0  0
 94206  1  0  0  0
 95207  1  0  0  0
 95208  1  0  0  0
 96 97  1  0  0  0
 96102  1  0  0  0
 97 98  1  0  0  0
 97100  1  0  0  0
 97209  1  0  0  0
 98 99  2  0  0  0
 98103  1  0  0  0
100101  1  0  0  0
100210  1  0  0  0
100211  1  0  0  0
101102  1  0  0  0
101212  1  0  0  0
101213  1  0  0  0
102214  1  0  0  0
102215  1  0  0  0
103104  1  0  0  0
103109  1  0  0  0
104105  1  0  0  0
104107  1  0  0  0
104216  1  0  0  0
105106  2  0  0  0
105110  1  0  0  0
107108  1  0  0  0
107217  1  0  0  0
107218  1  0  0  0
108109  1  0  0  0
108219  1  0  0  0
108220  1  0  0  0
109221  1  0  0  0
109222  1  0  0  0
110111  1  0  0  0
110223  1  0  0  0
111112  1  0  0  0
111114  1  0  0  0
111224  1  0  0  0
112113  1  0  0  0
112117  2  0  0  0
113225  1  0  0  0
114115  1  0  0  0
114116  1  0  0  0
114226  1  0  0  0
115227  1  0  0  0
116228  1  0  0  0
116229  1  0  0  0
116230  1  0  0  0
M  CHG  1   1   1
M  END
> <s_m_source_file>
../4fi9_ligand.sdf

> <i_m_source_file_index>
1

> <s_epik_input>
W2NIXTFbY0hdW2NIXVtjSF1bY0hdYzFbQ0gyXVtDQEhdKFtOSDMrXSlDKD1PKVtOSF1bQ0BASF0oW0NIMl1jMltjSF1bY0hdYyhbT0hdKVtjSF1bY0hdMilDKD1PKU4zW0NAQEhdKFtDSDJdW0NIMl1bQ0gyXTMpQyg9TylbTkhdW0NAQEhdKFtDSDJdW0NIMl1TW0NIM10pQyg9TylbTkhdW0NAQEhdKFtDSDJdW0NIXShbQ0gzXSlbQ0gzXSlDKD1PKVtOSF1bQ0BASF0oW0NIMl1bQ0gyXVtDSDJdW05IXS9DKFtOSDJdKT1OXFtIXSlDKD1PKVtOSF1bQ0BASF0oW0NIMl1jNFtjSF1bY0hdYyhbT0hdKVtjSF1bY0hdNClDKD1PKVtOSF1bQ0BASF0oW0NASF0oW09IXSlbQ0gzXSlDKD1PKVtOSF1bQ0BASF0oW0NIMl1DKD1PKVtOSDJdKUMoPU8pW05IXVtDSDJdQyg9TylONVtDQEBIXShbQ0gyXVtDSDJdW0NIMl01KUMoPU8pTjZbQ0BASF0oW0NIMl1bQ0gyXVtDSDJdNilDKD1PKU43W0NAQEhdKFtDSDJdW0NIMl1bQ0gyXTcpQyg9TylbTkhdW0NASF0oQyg9TylbT0hdKVtDQEhdKFtPSF0pW0NIM10=

> <s_epik_cmdline>
J2VwaWtfYXBwJywgJy1pbWFlJywgJ2xpZ2FuZF9wcm8ubWFlJywgJy1vbWFlJywgJ2xpZ2FuZF9wcmVwLm1hZScsICctbXMnLCAnMScsICctcGgnLCAnNycsICctcGh0JywgJzAuNScsICctbnQn

> <s_epik_pKa_notes>
Molecule size exceeds maximum supported for generating protonation states

> <s_epik_Chemistry_Notes>
This compound has an imine and may undergo hydrolysis.

$$$$
