4fil_ligand
                    3D
 Schrodinger Suite 2020-3.
 89 93  0  0  1  0            999 V2000
   22.1360   14.1070   25.0340 O   0  0  0  0  0  0
   20.0630   14.4810   23.6290 O   0  0  0  0  0  0
   19.7910   14.3770   26.6190 O   0  0  0  0  0  0
   18.9690   16.4750   25.4610 O   0  0  0  0  0  0
   21.4090   17.0440   24.2680 O   0  0  0  0  0  0
   21.8320   16.4110   26.7080 O   0  0  0  0  0  0
   21.8170   13.1740   24.0690 N   0  0  3  0  0  0
   20.7270   13.4000   23.3650 C   0  0  2  0  0  0
   20.1880   12.5370   22.2580 C   0  0  0  0  0  0
   20.0160   11.0520   22.5560 C   0  0  0  0  0  0
   18.6440   10.6200   23.0490 C   0  0  0  0  0  0
   17.8660   10.0330   22.2710 O   0  0  0  0  0  0
   18.3840   10.8920   24.3010 N   0  0  0  0  0  0
   17.1180   10.5380   24.9310 C   0  0  0  0  0  0
   17.1190   10.9120   26.4060 C   0  0  0  0  0  0
   17.8940   12.7570   27.9470 C   0  0  0  0  0  0
   17.1860   12.3990   26.6580 C   0  0  0  0  0  0
   18.0200   14.2650   28.1840 C   0  0  0  0  0  0
   18.6290   14.9620   27.0640 N   0  0  3  0  0  0
   18.2470   16.0450   26.4320 C   0  0  1  0  0  0
   17.0120   16.7960   26.8000 C   0  0  0  0  0  0
   17.2980   18.2020   27.3400 C   0  0  0  0  0  0
   17.5840   19.1970   26.2320 C   0  0  0  0  0  0
   16.8110   19.3310   25.2870 O   0  0  0  0  0  0
   18.7090   19.9090   26.3500 N   0  0  0  0  0  0
   19.1300   20.9120   25.3770 C   0  0  0  0  0  0
   20.4840   20.6570   24.7780 C   0  0  0  0  0  0
   20.5600   19.9340   23.4470 C   0  0  0  0  0  0
   21.9220   19.4740   23.1340 C   0  0  0  0  0  0
   22.7840   19.0290   24.3580 C   0  0  0  0  0  0
   22.2200   17.8510   25.0320 N   0  0  3  0  0  0
   22.4020   17.4700   26.2910 C   0  0  3  0  0  0
   23.2660   18.2630   27.2240 C   0  0  0  0  0  0
   22.8120   12.0880   24.0490 C   0  0  0  0  0  0
   23.1790   11.6730   25.4600 C   0  0  0  0  0  0
   24.6670   11.3600   25.6760 C   0  0  0  0  0  0
   25.2420   11.9420   26.9570 C   0  0  0  0  0  0
   26.7520   12.0200   26.8950 C   0  0  0  0  0  0
   27.2210   13.0100   25.8970 N   0  3  0  0  0  0
   20.7330   15.4770   25.2830 Fe  0  0  0  0  0  0
   21.3221   13.9476   22.6194 H   0  0  0  0  0  0
   19.1902   12.8962   21.9658 H   0  0  0  0  0  0
   20.8640   12.5872   21.3917 H   0  0  0  0  0  0
   20.2068   10.4702   21.6422 H   0  0  0  0  0  0
   20.7280   10.7501   23.3382 H   0  0  0  0  0  0
   19.1626   11.4073   24.8826 H   0  0  0  0  0  0
   16.2975   11.0743   24.4319 H   0  0  0  0  0  0
   16.9548    9.4538   24.8423 H   0  0  0  0  0  0
   16.1971   10.5422   26.8786 H   0  0  0  0  0  0
   17.9913   10.4579   26.8988 H   0  0  0  0  0  0
   17.3388   12.3376   28.7990 H   0  0  0  0  0  0
   18.9127   12.3422   27.9333 H   0  0  0  0  0  0
   17.7299   12.8862   25.8353 H   0  0  0  0  0  0
   16.1663   12.8074   26.7160 H   0  0  0  0  0  0
   17.0206   14.6957   28.3445 H   0  0  0  0  0  0
   18.6440   14.4458   29.0717 H   0  0  0  0  0  0
   17.6670   15.4298   25.7283 H   0  0  0  0  0  0
   16.3712   16.9051   25.9126 H   0  0  0  0  0  0
   16.4667   16.2451   27.5805 H   0  0  0  0  0  0
   16.4254   18.5624   27.9045 H   0  0  0  0  0  0
   18.1753   18.1688   28.0027 H   0  0  0  0  0  0
   19.3295   19.7075   27.2357 H   0  0  0  0  0  0
   18.4096   20.9420   24.5463 H   0  0  0  0  0  0
   19.1717   21.8985   25.8619 H   0  0  0  0  0  0
   20.9958   21.6156   24.6073 H   0  0  0  0  0  0
   21.0799   20.0409   25.4675 H   0  0  0  0  0  0
   19.9015   19.0532   23.4701 H   0  0  0  0  0  0
   20.2378   20.6117   22.6427 H   0  0  0  0  0  0
   21.8700   18.6053   22.4612 H   0  0  0  0  0  0
   22.4793   20.2853   22.6429 H   0  0  0  0  0  0
   23.7994   18.7763   24.0188 H   0  0  0  0  0  0
   22.8351   19.8499   25.0884 H   0  0  0  0  0  0
   23.2776   16.8784   25.9854 H   0  0  0  0  0  0
   23.2819   17.7774   28.2109 H   0  0  0  0  0  0
   22.8610   19.2810   27.3227 H   0  0  0  0  0  0
   24.2892   18.3126   26.8232 H   0  0  0  0  0  0
   22.3953   11.2186   23.5194 H   0  0  0  0  0  0
   23.7198   12.4319   23.5317 H   0  0  0  0  0  0
   22.9219   12.4826   26.1589 H   0  0  0  0  0  0
   22.6224   10.7638   25.7313 H   0  0  0  0  0  0
   24.8095   10.2702   25.7222 H   0  0  0  0  0  0
   25.2532   11.7713   24.8410 H   0  0  0  0  0  0
   24.8448   12.9564   27.1094 H   0  0  0  0  0  0
   24.9588   11.3056   27.8083 H   0  0  0  0  0  0
   27.1446   12.3149   27.8793 H   0  0  0  0  0  0
   27.1589   11.0364   26.6177 H   0  0  0  0  0  0
   28.3208   13.0299   25.8892 H   0  0  0  0  0  0
   26.8380   14.0067   26.1613 H   0  0  0  0  0  0
   26.8523   12.7281   24.8997 H   0  0  0  0  0  0
  1  7  1  0  0  0
  1 40  1  0  0  0
  2  8  1  0  0  0
  2 40  1  0  0  0
  3 19  1  0  0  0
  3 40  1  0  0  0
  4 20  1  0  0  0
  4 40  1  0  0  0
  5 31  1  0  0  0
  5 40  1  0  0  0
  6 32  1  0  0  0
  6 40  1  0  0  0
  7  8  1  0  0  0
  7 34  1  0  0  0
  8  9  1  0  0  0
  8 41  1  0  0  0
  9 10  1  0  0  0
  9 42  1  0  0  0
  9 43  1  0  0  0
 10 11  1  0  0  0
 10 44  1  0  0  0
 10 45  1  0  0  0
 11 12  2  0  0  0
 11 13  1  0  0  0
 13 14  1  0  0  0
 13 46  1  0  0  0
 14 15  1  0  0  0
 14 47  1  0  0  0
 14 48  1  0  0  0
 15 17  1  0  0  0
 15 49  1  0  0  0
 15 50  1  0  0  0
 16 17  1  0  0  0
 16 18  1  0  0  0
 16 51  1  0  0  0
 16 52  1  0  0  0
 17 53  1  0  0  0
 17 54  1  0  0  0
 18 19  1  0  0  0
 18 55  1  0  0  0
 18 56  1  0  0  0
 19 20  1  0  0  0
 20 21  1  0  0  0
 20 57  1  0  0  0
 21 22  1  0  0  0
 21 58  1  0  0  0
 21 59  1  0  0  0
 22 23  1  0  0  0
 22 60  1  0  0  0
 22 61  1  0  0  0
 23 24  2  0  0  0
 23 25  1  0  0  0
 25 26  1  0  0  0
 25 62  1  0  0  0
 26 27  1  0  0  0
 26 63  1  0  0  0
 26 64  1  0  0  0
 27 28  1  0  0  0
 27 65  1  0  0  0
 27 66  1  0  0  0
 28 29  1  0  0  0
 28 67  1  0  0  0
 28 68  1  0  0  0
 29 30  1  0  0  0
 29 69  1  0  0  0
 29 70  1  0  0  0
 30 31  1  0  0  0
 30 71  1  0  0  0
 30 72  1  0  0  0
 31 32  1  0  0  0
 32 33  1  0  0  0
 32 73  1  0  0  0
 33 74  1  0  0  0
 33 75  1  0  0  0
 33 76  1  0  0  0
 34 35  1  0  0  0
 34 77  1  0  0  0
 34 78  1  0  0  0
 35 36  1  0  0  0
 35 79  1  0  0  0
 35 80  1  0  0  0
 36 37  1  0  0  0
 36 81  1  0  0  0
 36 82  1  0  0  0
 37 38  1  0  0  0
 37 83  1  0  0  0
 37 84  1  0  0  0
 38 39  1  0  0  0
 38 85  1  0  0  0
 38 86  1  0  0  0
 39 87  1  0  0  0
 39 88  1  0  0  0
 39 89  1  0  0  0
M  CHG  1  39   1
M  END
> <s_m_source_file>
../4fil_ligand.sdf

> <i_m_source_file_index>
1

> <s_epik_input>
W05IMytdW0NIMl1bQ0gyXVtDSDJdW0NIMl1bQ0gyXU4oT1tGZV0xMjM0NSlbQ0BASF0oTzEpW0NIMl1bQ0gyXUMoPU8pW05IXVtDSDJdW0NIMl1bQ0gyXVtDSDJdW0NIMl1OKE8yKVtDSF0oTzMpW0NIMl1bQ0gyXUMoPU8pW05IXVtDSDJdW0NIMl1bQ0gyXVtDSDJdW0NIMl1OKE80KVtDSF0oTzUpW0NIM10=

> <s_epik_cmdline>
J2VwaWtfYXBwJywgJy1pbWFlJywgJ2xpZ2FuZF9wcm8ubWFlJywgJy1vbWFlJywgJ2xpZ2FuZF9wcmVwLm1hZScsICctbXMnLCAnMScsICctcGgnLCAnNycsICctcGh0JywgJzAuNScsICctbnQn

> <r_lp_tautomer_probability>
1

> <r_epik_Ionization_Penalty>
  0.0004

> <r_epik_Ionization_Penalty_Charging>
  0.0004

> <r_epik_Ionization_Penalty_Neutral>
  0.0000

> <r_epik_State_Penalty>
 -0.0000

> <r_epik_Charging_Adjusted_Penalty>
0.000405007973837643

> <i_epik_Tot_Q>
1

> <i_epik_Tot_abs_Q>
1

> <s_epik_Chemistry_Notes>
This compound contains an acetal/aminal-like group ( X-CH(R)-Y where X, Y are N, S, or O) that may be acid/base labile, releasing an aldehyde. This compound has a N-S or N-O group and may undergo hydrolysis at high or low pH.

$$$$
