4fjz_ligand
                    3D
 Schrodinger Suite 2020-3.
 69 75  0  0  1  0            999 V2000
   22.2990   17.8390   21.5940 C   0  0  0  0  0  0
   17.9210   19.7070   22.3140 C   0  0  0  0  0  0
   18.5780   20.9090   22.5530 C   0  0  0  0  0  0
   24.4700   16.1860   18.9580 C   0  0  0  0  0  0
   25.4250   15.1050   19.4690 C   0  0  0  0  0  0
   23.3720   14.9590   20.6190 C   0  0  0  0  0  0
   22.9370   13.4690   22.4490 C   0  0  0  0  0  0
   22.5010   14.4610   21.5820 C   0  0  0  0  0  0
   25.7330   14.0460   18.3930 C   0  0  0  0  0  0
   26.8010   14.5500   17.4180 C   0  0  0  0  0  0
   27.5480   16.2420   18.8420 C   0  0  0  0  0  0
   22.3300   11.6770   24.0350 C   0  0  0  0  0  0
   21.0340   10.9050   24.0250 C   0  0  0  0  0  0
   20.8700   13.7140   23.8170 C   0  0  0  0  0  0
   27.9490   15.0920   18.0870 O   0  0  0  0  0  0
   26.7140   15.7330   20.0130 C   0  0  0  0  0  0
   24.6630   14.4280   20.5760 C   0  0  0  0  0  0
   25.0590   13.4670   21.4260 N   0  3  0  0  0  0
   24.2430   12.9880   22.3480 C   0  0  0  0  0  0
   22.0700   12.9660   23.4080 N   0  0  0  0  0  0
   20.0510   11.6220   24.7780 O   0  0  0  0  0  0
   19.6660   12.7880   24.0490 C   0  0  0  0  0  0
   23.2140   15.9090   19.6810 N   0  0  0  0  0  0
   22.0520   16.5460   19.4270 C   0  0  0  0  0  0
   21.5320   17.5010   20.3080 C   0  0  0  0  0  0
   21.3220   16.2630   18.2680 C   0  0  0  0  0  0
   21.7910   15.3240   17.3540 C   0  0  0  0  0  0
   21.0690   15.0440   16.2000 C   0  0  0  0  0  0
   19.8730   15.7040   15.9490 C   0  0  0  0  0  0
   19.1890   15.4280   14.8190 F   0  0  0  0  0  0
   19.4010   16.6440   16.8580 C   0  0  0  0  0  0
   20.1190   16.9230   18.0150 C   0  0  0  0  0  0
   19.6460   17.8330   18.8740 N   0  0  0  0  0  0
   20.3150   18.1410   19.9980 C   0  0  0  0  0  0
   19.7440   19.0850   20.8530 C   0  0  0  0  0  0
   18.5150   18.7880   21.4540 C   0  0  0  0  0  0
   19.8030   21.1560   21.9270 C   0  0  0  0  0  0
   20.3490   20.2610   21.1080 N   0  0  0  0  0  0
   23.2154   17.2327   21.6444 H   0  0  0  0  0  0
   21.6661   17.6202   22.4667 H   0  0  0  0  0  0
   22.5651   18.9063   21.5924 H   0  0  0  0  0  0
   16.9641   19.4898   22.7886 H   0  0  0  0  0  0
   18.1421   21.6511   23.2218 H   0  0  0  0  0  0
   24.8790   17.1790   19.1962 H   0  0  0  0  0  0
   24.3551   16.0885   17.8684 H   0  0  0  0  0  0
   21.4842   14.8467   21.6552 H   0  0  0  0  0  0
   26.1007   13.1287   18.8760 H   0  0  0  0  0  0
   24.8168   13.8206   17.8274 H   0  0  0  0  0  0
   27.1416   13.7175   16.7848 H   0  0  0  0  0  0
   26.3748   15.3419   16.7845 H   0  0  0  0  0  0
   28.4410   16.7743   19.2014 H   0  0  0  0  0  0
   26.9545   16.9118   18.2024 H   0  0  0  0  0  0
   22.6676   11.8132   25.0730 H   0  0  0  0  0  0
   23.0930   11.1200   23.4714 H   0  0  0  0  0  0
   20.6874   10.7838   22.9881 H   0  0  0  0  0  0
   21.1936    9.9147   24.4764 H   0  0  0  0  0  0
   21.0751   14.2521   24.7542 H   0  0  0  0  0  0
   20.6020   14.4355   23.0311 H   0  0  0  0  0  0
   26.4608   16.5698   20.6806 H   0  0  0  0  0  0
   27.2826   14.9761   20.5732 H   0  0  0  0  0  0
   24.5912   12.2143   23.0323 H   0  0  0  0  0  0
   18.8959   13.3246   24.6226 H   0  0  0  0  0  0
   19.2505   12.4768   23.0792 H   0  0  0  0  0  0
   22.7304   14.8050   17.5445 H   0  0  0  0  0  0
   21.4420   14.3052   15.4907 H   0  0  0  0  0  0
   18.4635   17.1646   16.6625 H   0  0  0  0  0  0
   18.0234   17.8371   21.2484 H   0  0  0  0  0  0
   20.3196   22.0976   22.1129 H   0  0  0  0  0  0
   26.0803   13.0633   21.3626 H   0  0  0  0  0  0
  1 25  1  0  0  0
  1 39  1  0  0  0
  1 40  1  0  0  0
  1 41  1  0  0  0
  2  3  2  0  0  0
  2 36  1  0  0  0
  2 42  1  0  0  0
  3 37  1  0  0  0
  3 43  1  0  0  0
  4  5  1  0  0  0
  4 23  1  0  0  0
  4 44  1  0  0  0
  4 45  1  0  0  0
  5  9  1  0  0  0
  5 16  1  0  0  0
  5 17  1  0  0  0
  6  8  2  0  0  0
  6 17  1  0  0  0
  6 23  1  0  0  0
  7  8  1  0  0  0
  7 19  2  0  0  0
  7 20  1  0  0  0
  8 46  1  0  0  0
  9 10  1  0  0  0
  9 47  1  0  0  0
  9 48  1  0  0  0
 10 15  1  0  0  0
 10 49  1  0  0  0
 10 50  1  0  0  0
 11 15  1  0  0  0
 11 16  1  0  0  0
 11 51  1  0  0  0
 11 52  1  0  0  0
 12 13  1  0  0  0
 12 20  1  0  0  0
 12 53  1  0  0  0
 12 54  1  0  0  0
 13 21  1  0  0  0
 13 55  1  0  0  0
 13 56  1  0  0  0
 14 20  1  0  0  0
 14 22  1  0  0  0
 14 57  1  0  0  0
 14 58  1  0  0  0
 16 59  1  0  0  0
 16 60  1  0  0  0
 17 18  2  0  0  0
 18 19  1  0  0  0
 18 69  1  0  0  0
 19 61  1  0  0  0
 21 22  1  0  0  0
 22 62  1  0  0  0
 22 63  1  0  0  0
 23 24  1  0  0  0
 24 25  2  0  0  0
 24 26  1  0  0  0
 25 34  1  0  0  0
 26 27  2  0  0  0
 26 32  1  0  0  0
 27 28  1  0  0  0
 27 64  1  0  0  0
 28 29  2  0  0  0
 28 65  1  0  0  0
 29 30  1  0  0  0
 29 31  1  0  0  0
 31 32  2  0  0  0
 31 66  1  0  0  0
 32 33  1  0  0  0
 33 34  2  0  0  0
 34 35  1  0  0  0
 35 36  2  0  0  0
 35 38  1  0  0  0
 36 67  1  0  0  0
 37 38  2  0  0  0
 37 68  1  0  0  0
M  CHG  1  18   1
M  END
> <s_m_source_file>
../4fjz_ligand.sdf

> <i_m_source_file_index>
1

> <s_epik_input>
W2NIXTFbY0hdYyhGKVtjSF1jKGMxMiluYygtYzNbY0hdW2NIXVtjSF1bY0hdbjMpYyhbQ0gzXSljMk4oW0NIMl00KWMoYzVDNDZbQ0gyXVtDSDJdT1tDSDJdW0NIMl02KVtjSF1jKFtjSF1uNSlON1tDSDJdW0NIMl1PW0NIMl1bQ0gyXTc=

> <s_epik_cmdline>
J2VwaWtfYXBwJywgJy1pbWFlJywgJ2xpZ2FuZF9wcm8ubWFlJywgJy1vbWFlJywgJ2xpZ2FuZF9wcmVwLm1hZScsICctbXMnLCAnMScsICctcGgnLCAnNycsICctcGh0JywgJzAuNScsICctbnQn

> <r_lp_tautomer_probability>
0.999828795069298

> <r_epik_Ionization_Penalty>
  0.2945

> <r_epik_Ionization_Penalty_Charging>
  0.2551

> <r_epik_Ionization_Penalty_Neutral>
  0.0394

> <r_epik_State_Penalty>
  0.2466

> <r_epik_Charging_Adjusted_Penalty>
0.50162311194593

> <i_epik_Tot_Q>
1

> <i_epik_Tot_abs_Q>
1

$$$$
