4fk6_ligand
                    3D
 Schrodinger Suite 2020-3.
 46 50  0  0  1  0            999 V2000
    9.6870   55.9770    0.3100 C   0  0  0  0  0  0
    5.4370   54.9300    1.2690 C   0  0  0  0  0  0
    8.5470   56.9800    0.4140 C   0  0  0  0  0  0
    5.9420   55.5030    3.5830 C   0  0  0  0  0  0
    6.9140   55.3810    1.3970 C   0  0  2  0  0  0
    7.3020   55.1230    2.8940 C   0  0  2  0  0  0
    5.0850   54.4910    2.7340 C   0  0  2  0  0  0
   10.8900   56.5150   -0.3520 N   0  0  3  0  0  0
   11.7140   54.2480   -1.7760 C   0  0  0  0  0  0
   11.3130   56.0130   -1.8900 S   0  0  0  0  0  0
    7.2910   56.7280    0.9130 N   0  0  0  0  0  0
    7.3700   53.5630    3.0580 C   0  0  0  0  0  0
    5.8410   53.1370    2.9900 C   0  0  0  0  0  0
    6.5720   57.9230    0.8690 C   0  0  0  0  0  0
    5.2770   58.4160    1.2120 C   0  0  0  0  0  0
    4.0620   57.8610    1.8170 C   0  0  0  0  0  0
    3.1510   58.8490    1.9220 C   0  0  0  0  0  0
    3.6780   60.0110    1.4140 N   0  3  0  0  0  0
    4.9630   59.7830    0.9730 C   0  0  0  0  0  0
    5.8650   60.6010    0.4250 N   0  0  0  0  0  0
    7.0730   60.1980    0.1080 C   0  0  0  0  0  0
    7.4750   58.8650    0.3180 C   0  0  0  0  0  0
    8.6320   58.2230    0.0710 N   0  0  0  0  0  0
   12.4770   56.7780   -2.1570 O   0  0  0  0  0  0
   10.1400   56.1930   -2.6690 O   0  0  0  0  0  0
    9.9845   55.6542    1.3186 H   0  0  0  0  0  0
    9.3555   55.1041   -0.2715 H   0  0  0  0  0  0
    4.8250   55.7741    0.9184 H   0  0  0  0  0  0
    5.3675   54.1023    0.5478 H   0  0  0  0  0  0
    6.0085   55.3004    4.6621 H   0  0  0  0  0  0
    5.7356   56.5715    3.4226 H   0  0  0  0  0  0
    7.5152   54.8423    0.6497 H   0  0  0  0  0  0
    8.2161   55.6247    3.2444 H   0  0  0  0  0  0
    4.0043   54.4377    2.9320 H   0  0  0  0  0  0
   11.4258   57.3682    0.0897 H   0  0  0  0  0  0
   12.6235   54.1170   -1.1713 H   0  0  0  0  0  0
   11.8834   53.8446   -2.7852 H   0  0  0  0  0  0
   10.8783   53.7120   -1.3024 H   0  0  0  0  0  0
    7.9675   53.1341    2.2401 H   0  0  0  0  0  0
    7.8377   53.3157    4.0224 H   0  0  0  0  0  0
    5.4903   52.6940    3.9338 H   0  0  0  0  0  0
    5.6393   52.4421    2.1615 H   0  0  0  0  0  0
    3.9198   56.8262    2.1286 H   0  0  0  0  0  0
    2.1518   58.7423    2.3443 H   0  0  0  0  0  0
    7.7776   60.9077   -0.3255 H   0  0  0  0  0  0
    3.0760   60.9317    1.4085 H   0  0  0  0  0  0
  1  3  1  0  0  0
  1  8  1  0  0  0
  1 26  1  0  0  0
  1 27  1  0  0  0
  2  5  1  0  0  0
  2  7  1  0  0  0
  2 28  1  0  0  0
  2 29  1  0  0  0
  3 11  1  0  0  0
  3 23  2  0  0  0
  4  6  1  0  0  0
  4  7  1  0  0  0
  4 30  1  0  0  0
  4 31  1  0  0  0
  5  6  1  0  0  0
  5 11  1  0  0  0
  5 32  1  0  0  0
  6 12  1  0  0  0
  6 33  1  0  0  0
  7 13  1  0  0  0
  7 34  1  0  0  0
  8 10  1  0  0  0
  8 35  1  0  0  0
  9 10  1  0  0  0
  9 36  1  0  0  0
  9 37  1  0  0  0
  9 38  1  0  0  0
 10 24  2  0  0  0
 10 25  2  0  0  0
 11 14  1  0  0  0
 12 13  1  0  0  0
 12 39  1  0  0  0
 12 40  1  0  0  0
 13 41  1  0  0  0
 13 42  1  0  0  0
 14 15  2  0  0  0
 14 22  1  0  0  0
 15 16  1  0  0  0
 15 19  1  0  0  0
 16 17  2  0  0  0
 16 43  1  0  0  0
 17 18  1  0  0  0
 17 44  1  0  0  0
 18 19  2  0  0  0
 18 46  1  0  0  0
 19 20  1  0  0  0
 20 21  1  0  0  0
 21 22  2  0  0  0
 21 45  1  0  0  0
 22 23  1  0  0  0
M  CHG  1  18   1
M  END
> <s_m_source_file>
../4fk6_ligand.sdf

> <i_m_source_file_index>
1

> <s_epik_input>
W0NAQEhdMTJbQ0gyXVtDQEhdKFtDSDJdW0NIMl0yKVtDSDJdW0NASF0xbjNjKFtDSDJdW05IXVMoPU8pKD1PKVtDSDNdKW5jNFtjSF1bbkhdYyhjNWMzNCluW2NIXVtjSF01

> <s_epik_cmdline>
J2VwaWtfYXBwJywgJy1pbWFlJywgJ2xpZ2FuZF9wcm8ubWFlJywgJy1vbWFlJywgJ2xpZ2FuZF9wcmVwLm1hZScsICctbXMnLCAnMScsICctcGgnLCAnNycsICctcGh0JywgJzAuNScsICctbnQn

> <r_lp_tautomer_probability>
1

> <r_epik_Ionization_Penalty>
  0.0001

> <r_epik_Ionization_Penalty_Charging>
  0.0000

> <r_epik_Ionization_Penalty_Neutral>
  0.0001

> <r_epik_State_Penalty>
 -0.0000

> <r_epik_Charging_Adjusted_Penalty>
1.06588654104167e-05

> <i_epik_Tot_Q>
1

> <i_epik_Tot_abs_Q>
1

$$$$
