4fk7_ligand
                    3D
 Schrodinger Suite 2020-3.
 26 28  0  0  1  0            999 V2000
   -2.0430   -0.5500  -10.9810 N   0  0  0  0  0  0
   -1.7600   -1.5220  -11.9440 C   0  0  0  0  0  0
   -1.7050   -2.7900  -11.4750 C   0  0  0  0  0  0
   -1.4560   -3.8600  -12.3070 C   0  0  0  0  0  0
   -1.3520   -5.2560  -11.8380 C   0  0  0  0  0  0
   -1.4990   -5.6840  -10.5030 C   0  0  0  0  0  0
   -1.3120   -7.0060  -10.1870 C   0  0  0  0  0  0
   -1.0060   -7.9510  -11.1420 C   0  0  0  0  0  0
   -0.9110   -7.5690  -12.4890 C   0  0  0  0  0  0
   -1.0480   -6.2440  -12.8280 C   0  0  0  0  0  0
   -0.9860   -5.8500  -14.2610 C   0  0  0  0  0  0
   -0.8140   -6.7400  -15.0700 O   0  0  0  0  0  0
   -1.0760   -4.5900  -14.6290 N   0  0  0  0  0  0
   -1.2820   -3.5800  -13.7760 C   0  0  0  0  0  0
   -1.4050   -2.2410  -14.2430 C   0  0  0  0  0  0
   -1.6560   -1.2110  -13.3220 C   0  0  0  0  0  0
   -2.1156   -0.8316   -9.9201 H   0  0  0  0  0  0
   -2.1932    0.4968  -11.2837 H   0  0  0  0  0  0
   -1.8617   -2.9698  -10.4114 H   0  0  0  0  0  0
   -1.7603   -4.9672   -9.7245 H   0  0  0  0  0  0
   -1.4086   -7.3187   -9.1473 H   0  0  0  0  0  0
   -0.8388   -8.9886  -10.8530 H   0  0  0  0  0  0
   -0.7299   -8.3173  -13.2606 H   0  0  0  0  0  0
   -0.9808   -4.3190  -15.6908 H   0  0  0  0  0  0
   -1.3053   -2.0173  -15.3051 H   0  0  0  0  0  0
   -1.7697   -0.1824  -13.6642 H   0  0  0  0  0  0
  1  2  1  0  0  0
  1 17  1  0  0  0
  1 18  1  0  0  0
  2  3  2  0  0  0
  2 16  1  0  0  0
  3  4  1  0  0  0
  3 19  1  0  0  0
  4  5  1  0  0  0
  4 14  2  0  0  0
  5  6  2  0  0  0
  5 10  1  0  0  0
  6  7  1  0  0  0
  6 20  1  0  0  0
  7  8  2  0  0  0
  7 21  1  0  0  0
  8  9  1  0  0  0
  8 22  1  0  0  0
  9 10  2  0  0  0
  9 23  1  0  0  0
 10 11  1  0  0  0
 11 12  2  0  0  0
 11 13  1  0  0  0
 13 14  1  0  0  0
 13 24  1  0  0  0
 14 15  1  0  0  0
 15 16  2  0  0  0
 15 25  1  0  0  0
 16 26  1  0  0  0
M  END
> <s_m_source_file>
../4fk7_ligand.sdf

> <i_m_source_file_index>
1

> <s_epik_input>
W05IMl1jKFtjSF0xKVtjSF1bY0hdYzJbbkhdYyg9TyljKGMzYzEyKVtjSF1bY0hdW2NIXVtjSF0z

> <s_epik_cmdline>
J2VwaWtfYXBwJywgJy1pbWFlJywgJ2xpZ2FuZF9wcm8ubWFlJywgJy1vbWFlJywgJ2xpZ2FuZF9wcmVwLm1hZScsICctbXMnLCAnMScsICctcGgnLCAnNycsICctcGh0JywgJzAuNScsICctbnQn

> <r_lp_tautomer_probability>
1

> <r_epik_Ionization_Penalty>
  0.0004

> <r_epik_Ionization_Penalty_Charging>
  0.0001

> <r_epik_Ionization_Penalty_Neutral>
  0.0003

> <r_epik_State_Penalty>
 -0.0000

> <r_epik_Charging_Adjusted_Penalty>
7.38067381628674e-05

> <i_epik_Tot_Q>
0

> <i_epik_Tot_abs_Q>
0

$$$$
