4fkk_ligand
                    3D
 Schrodinger Suite 2020-3.
 46 46  0  0  1  0            999 V2000
   30.9210   15.2510   60.5650 N   0  3  0  0  0  0
   29.9310   15.7420   59.6260 C   0  0  2  0  0  0
   30.3210   15.2290   58.2300 C   0  0  0  0  0  0
   29.3350   14.2790   57.5690 C   0  0  0  0  0  0
   28.0420   14.6970   57.2070 C   0  0  0  0  0  0
   29.7170   12.9610   57.2880 C   0  0  0  0  0  0
   27.1380   13.8210   56.5880 C   0  0  0  0  0  0
   28.8110   12.0850   56.6730 C   0  0  0  0  0  0
   27.5220   12.5070   56.3220 C   0  0  0  0  0  0
   29.7730   17.2900   59.6770 C   0  0  2  0  0  0
   30.3370   17.9450   60.8420 O   0  0  0  0  0  0
   28.3050   17.6000   59.6350 C   0  0  0  0  0  0
   27.6400   17.1160   60.5360 O   0  0  0  0  0  0
   27.8080   18.3590   58.6330 N   0  0  0  0  0  0
   26.3640   18.6740   58.5580 C   0  0  1  0  0  0
   26.1730   20.1520   58.9060 C   0  0  0  0  0  0
   25.6920   20.2700   60.3480 C   0  0  0  0  0  0
   25.4860   21.7380   60.6840 C   0  0  0  0  0  0
   24.4250   19.4570   60.6100 C   0  0  0  0  0  0
   25.6560   18.3660   57.2530 C   0  0  0  0  0  0
   25.5330   17.1590   56.9300 O   0  0  0  0  0  0
   25.1900   19.3090   56.5560 O   0  5  0  0  0  0
   30.9902   14.1560   60.4857 H   0  0  0  0  0  0
   30.6246   15.5266   61.5878 H   0  0  0  0  0  0
   31.8991   15.6980   60.3337 H   0  0  0  0  0  0
   28.9694   15.3139   59.9455 H   0  0  0  0  0  0
   30.4304   16.0815   57.5435 H   0  0  0  0  0  0
   31.2745   14.6841   58.2927 H   0  0  0  0  0  0
   27.7359   15.7229   57.4116 H   0  0  0  0  0  0
   30.7181   12.6164   57.5473 H   0  0  0  0  0  0
   26.1403   14.1657   56.3162 H   0  0  0  0  0  0
   29.1146   11.0591   56.4647 H   0  0  0  0  0  0
   26.8266   11.8156   55.8460 H   0  0  0  0  0  0
   30.3468   17.7384   58.8525 H   0  0  0  0  0  0
   31.4101   17.8464   61.0627 H   0  0  0  0  0  0
   28.4956   18.7442   57.8656 H   0  0  0  0  0  0
   25.9179   17.9742   59.2799 H   0  0  0  0  0  0
   27.1300   20.6822   58.7917 H   0  0  0  0  0  0
   25.4259   20.5942   58.2305 H   0  0  0  0  0  0
   26.4666   19.8507   61.0070 H   0  0  0  0  0  0
   26.4143   22.2935   60.4847 H   0  0  0  0  0  0
   25.2204   21.8371   61.7468 H   0  0  0  0  0  0
   24.6743   22.1457   60.0636 H   0  0  0  0  0  0
   24.6075   18.4021   60.3574 H   0  0  0  0  0  0
   23.6047   19.8462   59.9890 H   0  0  0  0  0  0
   24.1508   19.5375   61.6722 H   0  0  0  0  0  0
  1  2  1  0  0  0
  1 23  1  0  0  0
  1 24  1  0  0  0
  1 25  1  0  0  0
  2  3  1  0  0  0
  2 10  1  0  0  0
  2 26  1  0  0  0
  3  4  1  0  0  0
  3 27  1  0  0  0
  3 28  1  0  0  0
  4  5  2  0  0  0
  4  6  1  0  0  0
  5  7  1  0  0  0
  5 29  1  0  0  0
  6  8  2  0  0  0
  6 30  1  0  0  0
  7  9  2  0  0  0
  7 31  1  0  0  0
  8  9  1  0  0  0
  8 32  1  0  0  0
  9 33  1  0  0  0
 10 11  1  0  0  0
 10 12  1  0  0  0
 10 34  1  0  0  0
 11 35  1  0  0  0
 12 13  2  0  0  0
 12 14  1  0  0  0
 14 15  1  0  0  0
 14 36  1  0  0  0
 15 16  1  0  0  0
 15 20  1  0  0  0
 15 37  1  0  0  0
 16 17  1  0  0  0
 16 38  1  0  0  0
 16 39  1  0  0  0
 17 18  1  0  0  0
 17 19  1  0  0  0
 17 40  1  0  0  0
 18 41  1  0  0  0
 18 42  1  0  0  0
 18 43  1  0  0  0
 19 44  1  0  0  0
 19 45  1  0  0  0
 19 46  1  0  0  0
 20 21  2  0  0  0
 20 22  1  0  0  0
M  CHG  2   1   1  22  -1
M  END
> <s_m_source_file>
../4fkk_ligand.sdf

> <i_m_source_file_index>
1

> <s_epik_input>
W0NIM11bQ0hdKFtDSDNdKVtDSDJdW0NAQEhdKEMoPU8pW09IXSlbTkhdQyg9TylbQ0BASF0oW09IXSlbQ0BIXShbTkgzK10pW0NIMl1jMVtjSF1bY0hdW2NIXVtjSF1bY0hdMQ==

> <s_epik_cmdline>
J2VwaWtfYXBwJywgJy1pbWFlJywgJ2xpZ2FuZF9wcm8ubWFlJywgJy1vbWFlJywgJ2xpZ2FuZF9wcmVwLm1hZScsICctbXMnLCAnMScsICctcGgnLCAnNycsICctcGh0JywgJzAuNScsICctbnQn

> <r_epik_Ionization_Penalty>
  0.0352

> <r_epik_Ionization_Penalty_Charging>
  0.0351

> <r_epik_Ionization_Penalty_Neutral>
  0.0000

> <r_epik_State_Penalty>
  0.0291

> <r_epik_Charging_Adjusted_Penalty>
0.0642799853861943

> <i_epik_Tot_Q>
0

> <i_epik_Tot_abs_Q>
2

$$$$
