4fl1_ligand
                    3D
 Schrodinger Suite 2020-3.
 44 46  0  0  1  0            999 V2000
   -1.1030    6.8570    8.5530 P   0  0  0  0  0  0
   -1.1310    6.8560   10.1190 O   0  0  0  0  0  0
   -1.3840    8.3120    8.0270 O   0  5  0  0  0  0
   -2.2630    5.9090    8.0810 O   0  5  0  0  0  0
    1.7870    7.0150    8.4970 P   0  0  1  0  0  0
    2.6810    7.4380    7.3050 O   0  0  0  0  0  0
    1.5010    8.2560    9.3810 O   0  5  0  0  0  0
    0.3670    6.2880    7.9320 N   0  0  1  0  0  0
    2.4540    5.3990   10.8840 P   0  0  1  0  0  0
    3.7690    5.5720   11.6890 O   0  0  0  0  0  0
    1.3240    6.1930   11.5910 O   0  5  0  0  0  0
    2.6220    5.9510    9.3770 O   0  0  0  0  0  0
    2.0270    3.8530   10.7630 O   0  0  0  0  0  0
    0.6800    3.4680   10.4460 C   0  0  0  0  0  0
    0.1620    2.4370   11.4530 C   0  0  1  0  0  0
    1.0720    1.3140   11.5180 O   0  0  0  0  0  0
    0.1100    2.9870   12.8950 C   0  0  1  0  0  0
   -1.0880    3.7270   13.1310 O   0  0  0  0  0  0
    0.1700    1.6820   13.7250 C   0  0  1  0  0  0
   -1.1260    1.0610   13.7740 O   0  0  0  0  0  0
    1.1560    0.8200   12.8810 C   0  0  2  0  0  0
    2.5330    0.8730   13.4110 N   0  0  0  0  0  0
    3.5550    1.6970   13.0160 C   0  0  0  0  0  0
    4.6280    1.4840   13.7450 N   0  0  0  0  0  0
    4.3470    0.5390   14.6850 C   0  0  0  0  0  0
    5.0470   -0.0750   15.7570 C   0  0  0  0  0  0
    6.3570    0.2410   16.0860 N   0  0  0  0  0  0
    4.4040   -0.9860   16.5000 N   0  0  0  0  0  0
    3.1410   -1.2910   16.2740 C   0  0  0  0  0  0
    2.4530   -0.7660   15.2890 N   0  0  0  0  0  0
    3.0020    0.1580   14.4850 C   0  0  0  0  0  0
    0.4746    5.2186    8.1662 H   0  0  0  0  0  0
    0.0286    4.3539   10.4765 H   0  0  0  0  0  0
    0.6521    3.0269    9.4387 H   0  0  0  0  0  0
   -0.8247    2.1086   11.0945 H   0  0  0  0  0  0
    0.8560    3.7530   13.1533 H   0  0  0  0  0  0
   -1.2602    4.6774   12.6045 H   0  0  0  0  0  0
    0.4128    1.7988   14.7915 H   0  0  0  0  0  0
   -1.9446    1.5397   14.3315 H   0  0  0  0  0  0
    0.9218   -0.2548   12.8726 H   0  0  0  0  0  0
    3.4873    2.4272   12.2096 H   0  0  0  0  0  0
    6.9087    0.9854   15.4931 H   0  0  0  0  0  0
    6.8441   -0.2528   16.9398 H   0  0  0  0  0  0
    2.6497   -2.0078   16.9320 H   0  0  0  0  0  0
  1  2  2  0  0  0
  1  3  1  0  0  0
  1  4  1  0  0  0
  1  8  1  0  0  0
  5  6  2  0  0  0
  5  7  1  0  0  0
  5  8  1  0  0  0
  5 12  1  0  0  0
  8 32  1  0  0  0
  9 10  2  0  0  0
  9 11  1  0  0  0
  9 12  1  0  0  0
  9 13  1  0  0  0
 13 14  1  0  0  0
 14 15  1  0  0  0
 14 33  1  0  0  0
 14 34  1  0  0  0
 15 16  1  0  0  0
 15 17  1  0  0  0
 15 35  1  0  0  0
 16 21  1  0  0  0
 17 18  1  0  0  0
 17 19  1  0  0  0
 17 36  1  0  0  0
 18 37  1  0  0  0
 19 20  1  0  0  0
 19 21  1  0  0  0
 19 38  1  0  0  0
 20 39  1  0  0  0
 21 22  1  0  0  0
 21 40  1  0  0  0
 22 23  1  0  0  0
 22 31  1  0  0  0
 23 24  2  0  0  0
 23 41  1  0  0  0
 24 25  1  0  0  0
 25 26  2  0  0  0
 25 31  1  0  0  0
 26 27  1  0  0  0
 26 28  1  0  0  0
 27 42  1  0  0  0
 27 43  1  0  0  0
 28 29  2  0  0  0
 29 30  1  0  0  0
 29 44  1  0  0  0
 30 31  2  0  0  0
M  CHG  4   3  -1   4  -1   7  -1  11  -1
M  END
> <s_m_source_file>
../4fl1_ligand.sdf

> <i_m_source_file_index>
1

> <s_epik_input>
Tz1QKFtPSF0pKFtPSF0pW05IXVtQQEBdKD1PKShbT0hdKU9bUEBAXSg9TykoW09IXSlPW0NIMl1bQ0BIXTFPW0NASF0oW0NASF0oW09IXSlbQ0BASF0xW09IXSluKFtjSF1uMiljKGMyMyluW2NIXW5jM1tOSDJd

> <s_epik_cmdline>
J2VwaWtfYXBwJywgJy1pbWFlJywgJ2xpZ2FuZF9wcm8ubWFlJywgJy1vbWFlJywgJ2xpZ2FuZF9wcmVwLm1hZScsICctbXMnLCAnMScsICctcGgnLCAnNycsICctcGh0JywgJzAuNScsICctbnQn

> <r_lp_tautomer_probability>
0.999997216410988

> <r_epik_Ionization_Penalty>
  0.3578

> <r_epik_Ionization_Penalty_Charging>
  0.3346

> <r_epik_Ionization_Penalty_Neutral>
  0.0232

> <r_epik_State_Penalty>
  0.3402

> <r_epik_Charging_Adjusted_Penalty>
0.674771962662822

> <i_epik_Tot_Q>
-4

> <i_epik_Tot_abs_Q>
4

> <s_epik_Chemistry_Notes>
This compound contains an acetal/aminal-like group ( X-CH(R)-Y where X, Y are N, S, or O) that may be acid/base labile, releasing an aldehyde.

$$$$
