4fl2_ligand
                    3D
 Schrodinger Suite 2020-3.
 44 46  0  0  1  0            999 V2000
  -33.4840   -9.4850   -6.1450 P   0  0  0  0  0  0
  -34.4030   -8.7140   -5.1250 O   0  5  0  0  0  0
  -32.5110   -8.5120   -6.8710 O   0  0  0  0  0  0
  -34.4000  -10.2010   -7.1930 O   0  5  0  0  0  0
  -30.9870  -10.5120   -5.1120 P   0  0  1  0  0  0
  -30.6780   -9.1670   -4.3930 O   0  5  0  0  0  0
  -30.4980  -11.6940   -4.2790 O   0  0  0  0  0  0
  -32.6410  -10.7180   -5.3230 N   0  0  1  0  0  0
  -29.0170   -9.5660   -7.1500 P   0  0  1  0  0  0
  -29.1090   -9.4860   -8.6960 O   0  5  0  0  0  0
  -29.0000   -8.1690   -6.5000 O   0  0  0  0  0  0
  -30.2120  -10.4620   -6.5250 O   0  0  0  0  0  0
  -27.6120  -10.2570   -6.8360 O   0  0  0  0  0  0
  -27.4340  -11.6640   -6.8960 C   0  0  0  0  0  0
  -26.0510  -11.9900   -6.3870 C   0  0  1  0  0  0
  -25.0710  -11.2060   -7.0940 O   0  0  0  0  0  0
  -25.8990  -11.6020   -4.9050 C   0  0  1  0  0  0
  -26.4400  -12.6040   -4.0480 O   0  0  0  0  0  0
  -24.3750  -11.5370   -4.7970 C   0  0  1  0  0  0
  -23.7870  -12.8500   -4.6990 O   0  0  0  0  0  0
  -24.0030  -10.9050   -6.1620 C   0  0  2  0  0  0
  -23.7700   -9.4520   -6.0660 N   0  0  0  0  0  0
  -24.6640   -8.4250   -6.2940 C   0  0  0  0  0  0
  -24.0660   -7.2810   -6.1400 N   0  0  0  0  0  0
  -22.7690   -7.4960   -5.7930 C   0  0  0  0  0  0
  -21.6560   -6.6890   -5.4540 C   0  0  0  0  0  0
  -21.6910   -5.2950   -5.4870 N   0  0  0  0  0  0
  -20.5250   -7.3020   -5.0970 N   0  0  0  0  0  0
  -20.3840   -8.6060   -5.0770 C   0  0  0  0  0  0
  -21.3890   -9.3890   -5.3800 N   0  0  0  0  0  0
  -22.5790   -8.8910   -5.7280 C   0  0  0  0  0  0
  -33.0534  -10.8313   -4.3095 H   0  0  0  0  0  0
  -28.1920  -12.1565   -6.2692 H   0  0  0  0  0  0
  -27.5421  -12.0032   -7.9368 H   0  0  0  0  0  0
  -25.8719  -13.0586   -6.5768 H   0  0  0  0  0  0
  -26.4539  -10.7172   -4.5598 H   0  0  0  0  0  0
  -27.5267  -12.7710   -4.0147 H   0  0  0  0  0  0
  -24.0019  -11.0435   -3.8874 H   0  0  0  0  0  0
  -23.9427  -13.4562   -3.7944 H   0  0  0  0  0  0
  -23.0658  -11.3087   -6.5727 H   0  0  0  0  0  0
  -25.7125   -8.5538   -6.5625 H   0  0  0  0  0  0
  -22.6152   -4.7748   -5.7790 H   0  0  0  0  0  0
  -20.7944   -4.7159   -5.2210 H   0  0  0  0  0  0
  -19.4223   -9.0415   -4.8059 H   0  0  0  0  0  0
  1  2  1  0  0  0
  1  3  2  0  0  0
  1  4  1  0  0  0
  1  8  1  0  0  0
  5  6  1  0  0  0
  5  7  2  0  0  0
  5  8  1  0  0  0
  5 12  1  0  0  0
  8 32  1  0  0  0
  9 10  1  0  0  0
  9 11  2  0  0  0
  9 12  1  0  0  0
  9 13  1  0  0  0
 13 14  1  0  0  0
 14 15  1  0  0  0
 14 33  1  0  0  0
 14 34  1  0  0  0
 15 16  1  0  0  0
 15 17  1  0  0  0
 15 35  1  0  0  0
 16 21  1  0  0  0
 17 18  1  0  0  0
 17 19  1  0  0  0
 17 36  1  0  0  0
 18 37  1  0  0  0
 19 20  1  0  0  0
 19 21  1  0  0  0
 19 38  1  0  0  0
 20 39  1  0  0  0
 21 22  1  0  0  0
 21 40  1  0  0  0
 22 23  1  0  0  0
 22 31  1  0  0  0
 23 24  2  0  0  0
 23 41  1  0  0  0
 24 25  1  0  0  0
 25 26  2  0  0  0
 25 31  1  0  0  0
 26 27  1  0  0  0
 26 28  1  0  0  0
 27 42  1  0  0  0
 27 43  1  0  0  0
 28 29  2  0  0  0
 29 30  1  0  0  0
 29 44  1  0  0  0
 30 31  2  0  0  0
M  CHG  4   2  -1   4  -1   6  -1  10  -1
M  END
> <s_m_source_file>
../4fl2_ligand.sdf

> <i_m_source_file_index>
1

> <s_epik_input>
W09IXVAoPU8pKFtPSF0pW05IXVtQQF0oPU8pKFtPSF0pT1tQQF0oPU8pKFtPSF0pT1tDSDJdW0NASF0xT1tDQEhdKFtDQEhdKFtPSF0pW0NAQEhdMVtPSF0pbihbY0hdbjIpYyhjMjMpbltjSF1uYzNbTkgyXQ==

> <s_epik_cmdline>
J2VwaWtfYXBwJywgJy1pbWFlJywgJ2xpZ2FuZF9wcm8ubWFlJywgJy1vbWFlJywgJ2xpZ2FuZF9wcmVwLm1hZScsICctbXMnLCAnMScsICctcGgnLCAnNycsICctcGh0JywgJzAuNScsICctbnQn

> <r_lp_tautomer_probability>
0.999997216410988

> <r_epik_Ionization_Penalty>
  0.3578

> <r_epik_Ionization_Penalty_Charging>
  0.3346

> <r_epik_Ionization_Penalty_Neutral>
  0.0232

> <r_epik_State_Penalty>
  0.3402

> <r_epik_Charging_Adjusted_Penalty>
0.674771962662822

> <i_epik_Tot_Q>
-4

> <i_epik_Tot_abs_Q>
4

> <s_epik_Chemistry_Notes>
This compound contains an acetal/aminal-like group ( X-CH(R)-Y where X, Y are N, S, or O) that may be acid/base labile, releasing an aldehyde.

$$$$
