4fl3_ligand
                    3D
 Schrodinger Suite 2020-3.
 44 46  0  0  1  0            999 V2000
   -1.9130   -9.5100   -6.2300 P   0  0  0  0  0  0
   -2.6750   -8.6880   -5.1500 O   0  0  0  0  0  0
   -1.0120   -8.6190   -7.1350 O   0  5  0  0  0  0
   -3.0110  -10.1590   -7.1360 O   0  5  0  0  0  0
    0.5790  -10.7010   -5.2750 P   0  0  1  0  0  0
    0.8710   -9.4650   -4.3960 O   0  5  0  0  0  0
    1.0160  -12.0060   -4.5860 O   0  0  0  0  0  0
   -1.0880  -10.8230   -5.5220 N   0  0  1  0  0  0
    2.4940   -9.5860   -7.3070 P   0  0  1  0  0  0
    2.3910   -9.5540   -8.8380 O   0  0  0  0  0  0
    2.4140   -8.1950   -6.6590 O   0  5  0  0  0  0
    1.3420  -10.5550   -6.6920 O   0  0  0  0  0  0
    3.9060  -10.2470   -6.9480 O   0  0  0  0  0  0
    4.0750  -11.6670   -7.0530 C   0  0  0  0  0  0
    5.4470  -12.0360   -6.4950 C   0  0  1  0  0  0
    6.4480  -11.2000   -7.1190 O   0  0  0  0  0  0
    5.5350  -11.7280   -4.9810 C   0  0  1  0  0  0
    5.0070  -12.8240   -4.2330 O   0  0  0  0  0  0
    7.0590  -11.5910   -4.7910 C   0  0  1  0  0  0
    7.7080  -12.8830   -4.7210 O   0  0  0  0  0  0
    7.4340  -10.8910   -6.1200 C   0  0  2  0  0  0
    7.6370   -9.4490   -5.9880 N   0  0  0  0  0  0
    6.7500   -8.4240   -6.2030 C   0  0  0  0  0  0
    7.3650   -7.2900   -6.0440 N   0  0  0  0  0  0
    8.6610   -7.5270   -5.6890 C   0  0  0  0  0  0
    9.7810   -6.7400   -5.3580 C   0  0  0  0  0  0
    9.7290   -5.3560   -5.3570 N   0  0  0  0  0  0
   10.9250   -7.3630   -5.0570 N   0  0  0  0  0  0
   11.0420   -8.6850   -5.0380 C   0  0  0  0  0  0
   10.0260   -9.4660   -5.3380 N   0  0  0  0  0  0
    8.8410   -8.9220   -5.6580 C   0  0  0  0  0  0
   -1.5026  -11.0206   -4.5225 H   0  0  0  0  0  0
    3.2872  -12.1736   -6.4762 H   0  0  0  0  0  0
    4.0068  -11.9673   -8.1090 H   0  0  0  0  0  0
    5.6447  -13.0929   -6.7269 H   0  0  0  0  0  0
    4.9340  -10.8893   -4.5997 H   0  0  0  0  0  0
    3.9304  -13.0468   -4.2694 H   0  0  0  0  0  0
    7.3830  -11.1186   -3.8520 H   0  0  0  0  0  0
    7.5569  -13.5275   -3.8425 H   0  0  0  0  0  0
    8.3991  -11.2519   -6.5051 H   0  0  0  0  0  0
    5.6986   -8.5420   -6.4650 H   0  0  0  0  0  0
    8.7891   -4.8407   -5.6043 H   0  0  0  0  0  0
   10.6276   -4.7720   -5.1089 H   0  0  0  0  0  0
   11.9986   -9.1328   -4.7686 H   0  0  0  0  0  0
  1  2  2  0  0  0
  1  3  1  0  0  0
  1  4  1  0  0  0
  1  8  1  0  0  0
  5  6  1  0  0  0
  5  7  2  0  0  0
  5  8  1  0  0  0
  5 12  1  0  0  0
  8 32  1  0  0  0
  9 10  2  0  0  0
  9 11  1  0  0  0
  9 12  1  0  0  0
  9 13  1  0  0  0
 13 14  1  0  0  0
 14 15  1  0  0  0
 14 33  1  0  0  0
 14 34  1  0  0  0
 15 16  1  0  0  0
 15 17  1  0  0  0
 15 35  1  0  0  0
 16 21  1  0  0  0
 17 18  1  0  0  0
 17 19  1  0  0  0
 17 36  1  0  0  0
 18 37  1  0  0  0
 19 20  1  0  0  0
 19 21  1  0  0  0
 19 38  1  0  0  0
 20 39  1  0  0  0
 21 22  1  0  0  0
 21 40  1  0  0  0
 22 23  1  0  0  0
 22 31  1  0  0  0
 23 24  2  0  0  0
 23 41  1  0  0  0
 24 25  1  0  0  0
 25 26  2  0  0  0
 25 31  1  0  0  0
 26 27  1  0  0  0
 26 28  1  0  0  0
 27 42  1  0  0  0
 27 43  1  0  0  0
 28 29  2  0  0  0
 29 30  1  0  0  0
 29 44  1  0  0  0
 30 31  2  0  0  0
M  CHG  4   3  -1   4  -1   6  -1  11  -1
M  END
> <s_m_source_file>
../4fl3_ligand.sdf

> <i_m_source_file_index>
1

> <s_epik_input>
Tz1QKFtPSF0pKFtPSF0pW05IXVtQQF0oPU8pKFtPSF0pT1tQQEBdKD1PKShbT0hdKU9bQ0gyXVtDQEhdMU9bQ0BIXShbQ0BIXShbT0hdKVtDQEBIXTFbT0hdKW4oW2NIXW4yKWMoYzIzKW5bY0hdbmMzW05IMl0=

> <s_epik_cmdline>
J2VwaWtfYXBwJywgJy1pbWFlJywgJ2xpZ2FuZF9wcm8ubWFlJywgJy1vbWFlJywgJ2xpZ2FuZF9wcmVwLm1hZScsICctbXMnLCAnMScsICctcGgnLCAnNycsICctcGh0JywgJzAuNScsICctbnQn

> <r_lp_tautomer_probability>
0.999997216410988

> <r_epik_Ionization_Penalty>
  0.3578

> <r_epik_Ionization_Penalty_Charging>
  0.3346

> <r_epik_Ionization_Penalty_Neutral>
  0.0232

> <r_epik_State_Penalty>
  0.3402

> <r_epik_Charging_Adjusted_Penalty>
0.674771962662822

> <i_epik_Tot_Q>
-4

> <i_epik_Tot_abs_Q>
4

> <s_epik_Chemistry_Notes>
This compound contains an acetal/aminal-like group ( X-CH(R)-Y where X, Y are N, S, or O) that may be acid/base labile, releasing an aldehyde.

$$$$
