4flh_ligand
                    3D
 Schrodinger Suite 2020-3.
 64 67  0  0  1  0            999 V2000
   29.3230   11.2700   20.8310 C   0  0  0  0  0  0
   28.4600   12.0220   19.9620 O   0  0  0  0  0  0
   27.2920   12.4610   20.5450 C   0  0  0  0  0  0
   26.3370   13.1070   19.7630 C   0  0  0  0  0  0
   25.1490   13.5520   20.3260 C   0  0  0  0  0  0
   26.5480   13.2850   18.4510 F   0  0  0  0  0  0
   27.0470   12.2860   21.8560 N   0  0  0  0  0  0
   25.9270   12.7040   22.4200 C   0  0  0  0  0  0
   24.9390   13.3580   21.6850 C   0  0  0  0  0  0
   23.8090   13.7500   22.2890 N   0  0  0  0  0  0
   23.2930   14.9900   22.2100 C   0  0  0  0  0  0
   23.9600   15.9410   21.5340 N   0  0  0  0  0  0
   23.5160   17.1780   21.3970 C   0  0  0  0  0  0
   22.3040   17.5440   21.9790 C   0  0  0  0  0  0
   21.7690   18.9850   21.8440 C   0  0  1  0  0  0
   22.9330   20.0040   21.9350 C   0  0  0  0  0  0
   21.0380   19.0270   20.5690 N   0  0  0  0  0  0
   21.3800   20.1550   19.7050 C   0  0  0  0  0  0
   20.6410   19.9720   18.3830 C   0  0  0  0  0  0
   19.5990   19.0830   20.8410 C   0  0  0  0  0  0
   18.8600   18.8380   19.5200 C   0  0  0  0  0  0
   19.1870   19.9350   18.6080 N   0  0  2  0  0  0
   18.4330   19.7660   17.1550 S   0  0  0  0  0  0
   17.6330   21.3090   16.7730 C   0  0  0  0  0  0
   17.4040   18.6670   17.1450 O   0  0  0  0  0  0
   19.4760   19.4610   16.1270 O   0  0  0  0  0  0
   21.5670   16.5970   22.6890 C   0  0  0  0  0  0
   22.0560   15.3030   22.8060 C   0  0  0  0  0  0
   21.3250   14.3700   23.5440 C   0  0  0  0  0  0
   20.0290   14.5640   23.8490 N   0  0  0  0  0  0
   21.9460   13.2720   24.0150 N   0  0  0  0  0  0
   21.2810   12.3600   24.7390 C   0  0  0  0  0  0
   22.0130   11.1260   25.2360 C   0  0  0  0  0  0
   19.9870   12.5350   25.0200 N   0  0  0  0  0  0
   19.3640   13.6490   24.5810 C   0  0  0  0  0  0
   18.0790   13.8280   24.8560 N   0  0  0  0  0  0
   30.2241   10.9651   20.2786 H   0  0  0  0  0  0
   28.7927   10.3756   21.1900 H   0  0  0  0  0  0
   29.6127   11.8938   21.6895 H   0  0  0  0  0  0
   24.3946   14.0448   19.7127 H   0  0  0  0  0  0
   25.7721   12.5333   23.4853 H   0  0  0  0  0  0
   23.2361   13.0370   22.9001 H   0  0  0  0  0  0
   24.0949   17.9083   20.8316 H   0  0  0  0  0  0
   21.0481   19.2680   22.6252 H   0  0  0  0  0  0
   23.4269   19.9101   22.9134 H   0  0  0  0  0  0
   22.5372   21.0239   21.8204 H   0  0  0  0  0  0
   23.6611   19.8013   21.1358 H   0  0  0  0  0  0
   21.0707   21.0937   20.1879 H   0  0  0  0  0  0
   22.4667   20.1707   19.5353 H   0  0  0  0  0  0
   20.8780   20.8103   17.7114 H   0  0  0  0  0  0
   20.9549   19.0273   17.9151 H   0  0  0  0  0  0
   19.3342   18.3077   21.5750 H   0  0  0  0  0  0
   19.3403   20.0732   21.2441 H   0  0  0  0  0  0
   19.1841   17.8783   19.0911 H   0  0  0  0  0  0
   17.7762   18.8091   19.7060 H   0  0  0  0  0  0
   16.8685   21.5239   17.5342 H   0  0  0  0  0  0
   17.1565   21.2399   15.7840 H   0  0  0  0  0  0
   18.3795   22.1169   16.7647 H   0  0  0  0  0  0
   20.6165   16.8699   23.1475 H   0  0  0  0  0  0
   23.0613   11.1633   24.9048 H   0  0  0  0  0  0
   21.5315   10.2250   24.8282 H   0  0  0  0  0  0
   21.9765   11.0958   26.3350 H   0  0  0  0  0  0
   17.5618   14.7323   24.5030 H   0  0  0  0  0  0
   17.5304   13.0721   25.4371 H   0  0  0  0  0  0
  1  2  1  0  0  0
  1 37  1  0  0  0
  1 38  1  0  0  0
  1 39  1  0  0  0
  2  3  1  0  0  0
  3  4  2  0  0  0
  3  7  1  0  0  0
  4  5  1  0  0  0
  4  6  1  0  0  0
  5  9  2  0  0  0
  5 40  1  0  0  0
  7  8  2  0  0  0
  8  9  1  0  0  0
  8 41  1  0  0  0
  9 10  1  0  0  0
 10 11  1  0  0  0
 10 42  1  0  0  0
 11 12  2  0  0  0
 11 28  1  0  0  0
 12 13  1  0  0  0
 13 14  2  0  0  0
 13 43  1  0  0  0
 14 15  1  0  0  0
 14 27  1  0  0  0
 15 16  1  0  0  0
 15 17  1  0  0  0
 15 44  1  0  0  0
 16 45  1  0  0  0
 16 46  1  0  0  0
 16 47  1  0  0  0
 17 18  1  0  0  0
 17 20  1  0  0  0
 18 19  1  0  0  0
 18 48  1  0  0  0
 18 49  1  0  0  0
 19 22  1  0  0  0
 19 50  1  0  0  0
 19 51  1  0  0  0
 20 21  1  0  0  0
 20 52  1  0  0  0
 20 53  1  0  0  0
 21 22  1  0  0  0
 21 54  1  0  0  0
 21 55  1  0  0  0
 22 23  1  0  0  0
 23 24  1  0  0  0
 23 25  2  0  0  0
 23 26  2  0  0  0
 24 56  1  0  0  0
 24 57  1  0  0  0
 24 58  1  0  0  0
 27 28  2  0  0  0
 27 59  1  0  0  0
 28 29  1  0  0  0
 29 30  2  0  0  0
 29 31  1  0  0  0
 30 35  1  0  0  0
 31 32  2  0  0  0
 32 33  1  0  0  0
 32 34  1  0  0  0
 33 60  1  0  0  0
 33 61  1  0  0  0
 33 62  1  0  0  0
 34 35  2  0  0  0
 35 36  1  0  0  0
 36 63  1  0  0  0
 36 64  1  0  0  0
M  END
> <s_m_source_file>
../4flh_ligand.sdf

> <i_m_source_file_index>
1

> <s_epik_input>
W0NIM11PYzFjKEYpW2NIXWMoW2NIXW4xKVtOSF1jMm5bY0hdYyhbQ0BASF0oW0NIM10pW05IK10zW0NIMl1bQ0gyXU4oW0NIMl1bQ0gyXTMpUyg9TykoPU8pW0NIM10pW2NIXWMyLWM0bmMoW05IMl0pbmMobjQpW0NIM10=

> <s_epik_cmdline>
J2VwaWtfYXBwJywgJy1pbWFlJywgJ2xpZ2FuZF9wcm8ubWFlJywgJy1vbWFlJywgJ2xpZ2FuZF9wcmVwLm1hZScsICctbXMnLCAnMScsICctcGgnLCAnNycsICctcGh0JywgJzAuNScsICctbnQn

> <r_lp_tautomer_probability>
0.999999772200052

> <r_epik_Ionization_Penalty>
  0.4242

> <r_epik_Ionization_Penalty_Charging>
  0.0000

> <r_epik_Ionization_Penalty_Neutral>
  0.4242

> <r_epik_State_Penalty>
  0.4071

> <r_epik_Charging_Adjusted_Penalty>
0.407100802696702

> <i_epik_Tot_Q>
0

> <i_epik_Tot_abs_Q>
0

$$$$
