4fli_ligand
                    3D
 Schrodinger Suite 2020-3.
 50 49  0  0  1  0            999 V2000
   19.5560   -2.1360   15.0020 N   0  0  0  0  0  0
   23.8250   -2.9170    9.5530 O   0  0  0  0  0  0
   17.8540   -3.6420   17.9290 N   0  0  0  0  0  0
   22.3470   -1.8780   13.2130 O   0  0  0  0  0  0
   22.1320   -1.3580   10.7340 O   0  0  0  0  0  0
   19.7890   -4.3070   14.4190 O   0  0  0  0  0  0
   17.0240   -3.0060   15.9090 O   0  0  0  0  0  0
   19.3190   -3.1970   11.7680 O   0  0  0  0  0  0
   23.4920   -7.1810   11.6900 C   0  0  0  0  0  0
   23.5670   -5.6810   11.5800 C   0  0  0  0  0  0
   23.0360   -4.9320   10.6070 C   0  0  0  0  0  0
   23.3280   -3.4820   10.8170 C   0  0  2  0  0  0
   22.0130   -2.7500   11.1120 C   0  0  1  0  0  0
   21.6050   -2.8650   12.5840 C   0  0  2  0  0  0
   20.1250   -2.6420   12.8360 C   0  0  2  0  0  0
   22.6640   -7.8080   10.6140 C   0  0  0  0  0  0
   22.8030   -7.4160   13.0820 C   0  0  0  0  0  0
   24.9000   -7.7410   11.7480 C   0  0  0  0  0  0
   19.8350   -3.1600   14.2300 C   0  0  0  0  0  0
   19.3380   -2.6110   16.3540 C   0  0  0  0  0  0
   17.9660   -3.0950   16.6600 C   0  0  0  0  0  0
   18.0320   -2.5920   11.6560 C   0  0  0  0  0  0
   19.4738   -1.0626   14.7762 H   0  0  0  0  0  0
   24.7687   -3.2815    9.1211 H   0  0  0  0  0  0
   16.8870   -4.0362   18.2746 H   0  0  0  0  0  0
   18.7322   -3.6818   18.5902 H   0  0  0  0  0  0
   23.4444   -1.8822   13.1369 H   0  0  0  0  0  0
   22.4188   -1.0897    9.7065 H   0  0  0  0  0  0
   23.0982   -5.2246   12.4643 H   0  0  0  0  0  0
   24.6205   -5.3698   11.5218 H   0  0  0  0  0  0
   23.4578   -5.2370    9.6379 H   0  0  0  0  0  0
   21.9448   -5.0704   10.5918 H   0  0  0  0  0  0
   24.0787   -3.3785   11.6143 H   0  0  0  0  0  0
   21.2126   -3.1752   10.4887 H   0  0  0  0  0  0
   21.8490   -3.8446   13.0209 H   0  0  0  0  0  0
   19.8130   -1.5889   12.7759 H   0  0  0  0  0  0
   21.6576   -7.3640   10.6202 H   0  0  0  0  0  0
   22.5883   -8.8906   10.7935 H   0  0  0  0  0  0
   23.1371   -7.6305    9.6369 H   0  0  0  0  0  0
   21.7791   -7.0148   13.0567 H   0  0  0  0  0  0
   23.3783   -6.9035   13.8671 H   0  0  0  0  0  0
   22.7691   -8.4943   13.2970 H   0  0  0  0  0  0
   25.3971   -7.5842   10.7793 H   0  0  0  0  0  0
   24.8575   -8.8179   11.9683 H   0  0  0  0  0  0
   25.4667   -7.2271   12.5384 H   0  0  0  0  0  0
   20.0130   -3.4549   16.5594 H   0  0  0  0  0  0
   19.5412   -1.7973   17.0658 H   0  0  0  0  0  0
   17.4776   -3.0600   10.8292 H   0  0  0  0  0  0
   18.1485   -1.5165   11.4569 H   0  0  0  0  0  0
   17.4775   -2.7330   12.5955 H   0  0  0  0  0  0
  1 19  1  0  0  0
  1 20  1  0  0  0
  1 23  1  0  0  0
  2 12  1  0  0  0
  2 24  1  0  0  0
  3 21  1  0  0  0
  3 25  1  0  0  0
  3 26  1  0  0  0
  4 14  1  0  0  0
  4 27  1  0  0  0
  5 13  1  0  0  0
  5 28  1  0  0  0
  6 19  2  0  0  0
  7 21  2  0  0  0
  8 15  1  0  0  0
  8 22  1  0  0  0
  9 10  1  0  0  0
  9 16  1  0  0  0
  9 17  1  0  0  0
  9 18  1  0  0  0
 10 11  1  0  0  0
 10 29  1  0  0  0
 10 30  1  0  0  0
 11 12  1  0  0  0
 11 31  1  0  0  0
 11 32  1  0  0  0
 12 13  1  0  0  0
 12 33  1  0  0  0
 13 14  1  0  0  0
 13 34  1  0  0  0
 14 15  1  0  0  0
 14 35  1  0  0  0
 15 19  1  0  0  0
 15 36  1  0  0  0
 16 37  1  0  0  0
 16 38  1  0  0  0
 16 39  1  0  0  0
 17 40  1  0  0  0
 17 41  1  0  0  0
 17 42  1  0  0  0
 18 43  1  0  0  0
 18 44  1  0  0  0
 18 45  1  0  0  0
 20 21  1  0  0  0
 20 46  1  0  0  0
 20 47  1  0  0  0
 22 48  1  0  0  0
 22 49  1  0  0  0
 22 50  1  0  0  0
M  END
> <s_m_source_file>
../4fli_ligand.sdf

> <i_m_source_file_index>
1

> <s_epik_input>
W05IMl1DKD1PKVtDSDJdW05IXUMoPU8pW0NASF0oT1tDSDNdKVtDQEhdKFtPSF0pW0NAQEhdKFtPSF0pW0NASF0oW09IXSlbQ0gyXVtDSDJdQyhbQ0gzXSkoW0NIM10pW0NIM10=

> <s_epik_cmdline>
J2VwaWtfYXBwJywgJy1pbWFlJywgJ2xpZ2FuZF9wcm8ubWFlJywgJy1vbWFlJywgJ2xpZ2FuZF9wcmVwLm1hZScsICctbXMnLCAnMScsICctcGgnLCAnNycsICctcGh0JywgJzAuNScsICctbnQn

> <r_lp_tautomer_probability>
1

> <r_epik_Ionization_Penalty>
  0.0000

> <r_epik_Ionization_Penalty_Charging>
  0.0000

> <r_epik_Ionization_Penalty_Neutral>
  0.0000

> <r_epik_State_Penalty>
 -0.0000

> <r_epik_Charging_Adjusted_Penalty>
0

> <i_epik_Tot_Q>
0

> <i_epik_Tot_abs_Q>
0

$$$$
