4flj_ligand
                    3D
 Schrodinger Suite 2020-3.
 68 69  0  0  1  0            999 V2000
   19.4740   -2.4700   14.9510 N   0  0  0  0  0  0
   24.0250   -2.8390    9.7130 O   0  0  0  0  0  0
   20.4650   -4.9930   19.0360 N   0  0  0  0  0  0
   22.3010   -1.9040   13.2660 O   0  0  0  0  0  0
   22.1600   -1.2610   10.7770 O   0  0  0  0  0  0
   19.3710   -4.4770   13.8670 O   0  0  0  0  0  0
   20.9290   -3.3250   20.4410 O   0  0  0  0  0  0
   19.3990   -3.0180   11.4410 O   0  0  0  0  0  0
   23.6340   -7.1610   11.7490 C   0  0  0  0  0  0
   23.7430   -5.6660   11.6400 C   0  0  0  0  0  0
   23.1570   -4.9100   10.7460 C   0  0  0  0  0  0
   23.3890   -3.3960   10.8610 C   0  0  2  0  0  0
   22.0400   -2.6760   11.0750 C   0  0  1  0  0  0
   21.4930   -2.8320   12.5010 C   0  0  2  0  0  0
   19.9910   -2.5100   12.6180 C   0  0  2  0  0  0
   22.7950   -7.8340   10.6370 C   0  0  0  0  0  0
   22.9910   -7.4550   13.0870 C   0  0  0  0  0  0
   25.0510   -7.6840   11.6870 C   0  0  0  0  0  0
   19.5700   -3.2460   13.8480 C   0  0  0  0  0  0
   18.9480   -3.0440   16.2190 C   0  0  0  0  0  0
   20.0460   -3.6950   17.0420 C   0  0  2  0  0  0
   20.5770   -4.9630   16.3020 C   0  0  0  0  0  0
   21.4610   -5.9860   17.0830 C   0  0  0  0  0  0
   20.7580   -6.3070   18.4030 C   0  0  0  0  0  0
   19.4290   -4.1580   18.3630 C   0  0  0  0  0  0
   21.0370   -4.5180   20.1790 C   0  0  0  0  0  0
   21.6800   -5.4510   21.1990 C   0  0  0  0  0  0
   23.1070   -5.8990   20.8720 C   0  0  0  0  0  0
   22.8830   -4.7670   21.8770 C   0  0  0  0  0  0
   18.0430   -2.5000   11.3010 C   0  0  0  0  0  0
   19.7842   -1.4154   14.9117 H   0  0  0  0  0  0
   25.0055   -3.2182    9.3891 H   0  0  0  0  0  0
   23.3959   -2.0088   13.2784 H   0  0  0  0  0  0
   22.5371   -0.9355    9.7963 H   0  0  0  0  0  0
   24.3876   -5.2119   12.4070 H   0  0  0  0  0  0
   22.5346   -5.3666    9.9624 H   0  0  0  0  0  0
   24.1151   -3.2139   11.6670 H   0  0  0  0  0  0
   21.3185   -3.0978   10.3598 H   0  0  0  0  0  0
   21.5998   -3.8530   12.8961 H   0  0  0  0  0  0
   19.6634   -1.4608   12.6609 H   0  0  0  0  0  0
   21.7625   -7.4568   10.6776 H   0  0  0  0  0  0
   22.7935   -8.9237   10.7875 H   0  0  0  0  0  0
   23.2325   -7.6000    9.6552 H   0  0  0  0  0  0
   21.9641   -7.0609   13.0948 H   0  0  0  0  0  0
   23.5739   -6.9754   13.8872 H   0  0  0  0  0  0
   22.9677   -8.5424   13.2516 H   0  0  0  0  0  0
   25.4845   -7.4525   10.7029 H   0  0  0  0  0  0
   25.0467   -8.7735   11.8387 H   0  0  0  0  0  0
   25.6528   -7.2065   12.4743 H   0  0  0  0  0  0
   18.4924   -2.2448   16.8220 H   0  0  0  0  0  0
   18.1901   -3.8074   15.9893 H   0  0  0  0  0  0
   20.8496   -2.9620   17.2062 H   0  0  0  0  0  0
   19.7265   -5.5579   15.9377 H   0  0  0  0  0  0
   21.2013   -4.6558   15.4500 H   0  0  0  0  0  0
   21.5797   -6.9007   16.4836 H   0  0  0  0  0  0
   22.4494   -5.5437   17.2767 H   0  0  0  0  0  0
   21.4063   -6.8975   19.0671 H   0  0  0  0  0  0
   19.8166   -6.8497   18.2321 H   0  0  0  0  0  0
   18.5273   -4.7632   18.1879 H   0  0  0  0  0  0
   19.1763   -3.3003   19.0037 H   0  0  0  0  0  0
   20.7695   -5.9867   21.5056 H   0  0  0  0  0  0
   23.2267   -6.9609   21.1326 H   0  0  0  0  0  0
   23.2973   -5.7615   19.7973 H   0  0  0  0  0  0
   22.8811   -3.6947   21.6319 H   0  0  0  0  0  0
   22.8105   -4.8941   22.9672 H   0  0  0  0  0  0
   17.5904   -2.9009   10.3821 H   0  0  0  0  0  0
   18.0739   -1.4018   11.2456 H   0  0  0  0  0  0
   17.4419   -2.8065   12.1697 H   0  0  0  0  0  0
  1 19  1  0  0  0
  1 20  1  0  0  0
  1 31  1  0  0  0
  2 12  1  0  0  0
  2 32  1  0  0  0
  3 24  1  0  0  0
  3 25  1  0  0  0
  3 26  1  0  0  0
  4 14  1  0  0  0
  4 33  1  0  0  0
  5 13  1  0  0  0
  5 34  1  0  0  0
  6 19  2  0  0  0
  7 26  2  0  0  0
  8 15  1  0  0  0
  8 30  1  0  0  0
  9 10  1  0  0  0
  9 16  1  0  0  0
  9 17  1  0  0  0
  9 18  1  0  0  0
 10 11  2  0  0  0
 10 35  1  0  0  0
 11 12  1  0  0  0
 11 36  1  0  0  0
 12 13  1  0  0  0
 12 37  1  0  0  0
 13 14  1  0  0  0
 13 38  1  0  0  0
 14 15  1  0  0  0
 14 39  1  0  0  0
 15 19  1  0  0  0
 15 40  1  0  0  0
 16 41  1  0  0  0
 16 42  1  0  0  0
 16 43  1  0  0  0
 17 44  1  0  0  0
 17 45  1  0  0  0
 17 46  1  0  0  0
 18 47  1  0  0  0
 18 48  1  0  0  0
 18 49  1  0  0  0
 20 21  1  0  0  0
 20 50  1  0  0  0
 20 51  1  0  0  0
 21 22  1  0  0  0
 21 25  1  0  0  0
 21 52  1  0  0  0
 22 23  1  0  0  0
 22 53  1  0  0  0
 22 54  1  0  0  0
 23 24  1  0  0  0
 23 55  1  0  0  0
 23 56  1  0  0  0
 24 57  1  0  0  0
 24 58  1  0  0  0
 25 59  1  0  0  0
 25 60  1  0  0  0
 26 27  1  0  0  0
 27 28  1  0  0  0
 27 29  1  0  0  0
 27 61  1  0  0  0
 28 29  1  0  0  0
 28 62  1  0  0  0
 28 63  1  0  0  0
 29 64  1  0  0  0
 29 65  1  0  0  0
 30 66  1  0  0  0
 30 67  1  0  0  0
 30 68  1  0  0  0
M  END
> <s_m_source_file>
../4flj_ligand.sdf

> <i_m_source_file_index>
1

> <s_epik_input>
W0NIM11DKFtDSDNdKShbQ0gzXSkvW0NIXT1bQ0hdL1tDQEBIXShbT0hdKVtDQEhdKFtPSF0pW0NAQEhdKFtPSF0pW0NAQEhdKE9bQ0gzXSlDKD1PKVtOSF1bQ0gyXVtDQEBIXShbQ0gyXTEpW0NIMl1bQ0gyXVtDSDJdTjFDKD1PKVtDSF0yW0NIMl1bQ0gyXTI=

> <s_epik_cmdline>
J2VwaWtfYXBwJywgJy1pbWFlJywgJ2xpZ2FuZF9wcm8ubWFlJywgJy1vbWFlJywgJ2xpZ2FuZF9wcmVwLm1hZScsICctbXMnLCAnMScsICctcGgnLCAnNycsICctcGh0JywgJzAuNScsICctbnQn

> <r_lp_tautomer_probability>
1

> <r_epik_Ionization_Penalty>
  0.0000

> <r_epik_Ionization_Penalty_Charging>
  0.0000

> <r_epik_Ionization_Penalty_Neutral>
  0.0000

> <r_epik_State_Penalty>
 -0.0000

> <r_epik_Charging_Adjusted_Penalty>
0

> <i_epik_Tot_Q>
0

> <i_epik_Tot_abs_Q>
0

$$$$
