4flk_ligand
                    3D
 Schrodinger Suite 2020-3.
 60 61  0  0  1  0            999 V2000
   19.3390   -2.3730   14.8580 N   0  0  0  0  0  0
   23.7840   -2.8610    9.5630 O   0  0  0  0  0  0
   22.2010   -1.9350   13.1320 O   0  0  0  0  0  0
   22.0970   -1.2120   10.8050 O   0  0  0  0  0  0
   19.4150   -4.4060   13.9960 O   0  0  0  0  0  0
   19.2310   -3.0540   11.5120 O   0  0  0  0  0  0
   23.4220   -7.1650   11.8200 C   0  0  0  0  0  0
   23.5130   -5.6400   11.6880 C   0  0  0  0  0  0
   22.9490   -4.9300   10.6670 C   0  0  0  0  0  0
   23.2020   -3.4100   10.7960 C   0  0  2  0  0  0
   21.9010   -2.6330   11.0660 C   0  0  1  0  0  0
   21.3960   -2.8230   12.5030 C   0  0  2  0  0  0
   19.9200   -2.5230   12.6280 C   0  0  2  0  0  0
   22.6650   -7.7820   10.6130 C   0  0  0  0  0  0
   24.8260   -7.6630   11.7970 C   0  0  0  0  0  0
   22.6600   -7.3860   13.1490 C   0  0  0  0  0  0
   19.5400   -3.2260   13.8780 C   0  0  0  0  0  0
   18.9820   -2.9640   16.2000 C   0  0  0  0  0  0
   19.2210   -2.0240   17.3980 C   0  0  0  0  0  0
   19.8450   -2.9940   18.4350 C   0  0  0  0  0  0
   20.0840   -4.2720   17.9240 C   0  0  0  0  0  0
   19.6810   -4.2830   16.4680 C   0  0  0  0  0  0
   20.1980   -2.7620   19.7900 C   0  0  0  0  0  0
   20.7850   -3.7840   20.5710 C   0  0  0  0  0  0
   21.0470   -5.0490   20.0160 C   0  0  0  0  0  0
   20.7130   -5.3300   18.6660 C   0  0  0  0  0  0
   17.9100   -2.5280   11.3690 C   0  0  0  0  0  0
   19.4184   -1.2821   14.7410 H   0  0  0  0  0  0
   24.7283   -3.2677    9.1720 H   0  0  0  0  0  0
   23.2929   -2.0644   13.1009 H   0  0  0  0  0  0
   22.4581   -0.8782    9.8210 H   0  0  0  0  0  0
   23.0575   -5.1677   12.5709 H   0  0  0  0  0  0
   24.5690   -5.3406   11.6158 H   0  0  0  0  0  0
   23.3737   -5.2649    9.7091 H   0  0  0  0  0  0
   21.8613   -5.0942   10.6632 H   0  0  0  0  0  0
   23.9270   -3.2653   11.6105 H   0  0  0  0  0  0
   21.1315   -2.9852   10.3632 H   0  0  0  0  0  0
   21.5140   -3.8029   12.9887 H   0  0  0  0  0  0
   19.6379   -1.4598   12.6218 H   0  0  0  0  0  0
   23.2378   -7.6037    9.6910 H   0  0  0  0  0  0
   21.6731   -7.3147   10.5246 H   0  0  0  0  0  0
   22.5478   -8.8646   10.7683 H   0  0  0  0  0  0
   25.2721   -7.4567   10.8129 H   0  0  0  0  0  0
   24.8336   -8.7471   11.9831 H   0  0  0  0  0  0
   25.4088   -7.1528   12.5780 H   0  0  0  0  0  0
   21.6401   -6.9841   13.0581 H   0  0  0  0  0  0
   23.1868   -6.8683   13.9642 H   0  0  0  0  0  0
   22.6116   -8.4626   13.3692 H   0  0  0  0  0  0
   17.9013   -3.1409   16.0965 H   0  0  0  0  0  0
   19.9008   -1.2130   17.0978 H   0  0  0  0  0  0
   18.2620   -1.5962   17.7255 H   0  0  0  0  0  0
   18.9901   -5.1131   16.2592 H   0  0  0  0  0  0
   20.5642   -4.3687   15.8179 H   0  0  0  0  0  0
   20.0143   -1.7837   20.2341 H   0  0  0  0  0  0
   21.0369   -3.5893   21.6135 H   0  0  0  0  0  0
   21.5113   -5.8215   20.6290 H   0  0  0  0  0  0
   20.9229   -6.2995   18.2143 H   0  0  0  0  0  0
   17.4296   -2.9780   10.4877 H   0  0  0  0  0  0
   17.9617   -1.4367   11.2412 H   0  0  0  0  0  0
   17.3219   -2.7645   12.2680 H   0  0  0  0  0  0
  1 17  1  0  0  0
  1 18  1  0  0  0
  1 28  1  0  0  0
  2 10  1  0  0  0
  2 29  1  0  0  0
  3 12  1  0  0  0
  3 30  1  0  0  0
  4 11  1  0  0  0
  4 31  1  0  0  0
  5 17  2  0  0  0
  6 13  1  0  0  0
  6 27  1  0  0  0
  7  8  1  0  0  0
  7 14  1  0  0  0
  7 15  1  0  0  0
  7 16  1  0  0  0
  8  9  1  0  0  0
  8 32  1  0  0  0
  8 33  1  0  0  0
  9 10  1  0  0  0
  9 34  1  0  0  0
  9 35  1  0  0  0
 10 11  1  0  0  0
 10 36  1  0  0  0
 11 12  1  0  0  0
 11 37  1  0  0  0
 12 13  1  0  0  0
 12 38  1  0  0  0
 13 17  1  0  0  0
 13 39  1  0  0  0
 14 40  1  0  0  0
 14 41  1  0  0  0
 14 42  1  0  0  0
 15 43  1  0  0  0
 15 44  1  0  0  0
 15 45  1  0  0  0
 16 46  1  0  0  0
 16 47  1  0  0  0
 16 48  1  0  0  0
 18 19  1  0  0  0
 18 22  1  0  0  0
 18 49  1  0  0  0
 19 20  1  0  0  0
 19 50  1  0  0  0
 19 51  1  0  0  0
 20 21  2  0  0  0
 20 23  1  0  0  0
 21 22  1  0  0  0
 21 26  1  0  0  0
 22 52  1  0  0  0
 22 53  1  0  0  0
 23 24  2  0  0  0
 23 54  1  0  0  0
 24 25  1  0  0  0
 24 55  1  0  0  0
 25 26  2  0  0  0
 25 56  1  0  0  0
 26 57  1  0  0  0
 27 58  1  0  0  0
 27 59  1  0  0  0
 27 60  1  0  0  0
M  END
> <s_m_source_file>
../4flk_ligand.sdf

> <i_m_source_file_index>
1

> <s_epik_input>
W2NIXTFbY0hdW2NIXVtjSF1jKGMxMilbQ0gyXVtDSF0oW0NIMl0yKVtOSF1DKD1PKVtDQEhdKE9bQ0gzXSlbQ0BIXShbT0hdKVtDQEBIXShbT0hdKVtDQEhdKFtPSF0pW0NIMl1bQ0gyXUMoW0NIM10pKFtDSDNdKVtDSDNd

> <s_epik_cmdline>
J2VwaWtfYXBwJywgJy1pbWFlJywgJ2xpZ2FuZF9wcm8ubWFlJywgJy1vbWFlJywgJ2xpZ2FuZF9wcmVwLm1hZScsICctbXMnLCAnMScsICctcGgnLCAnNycsICctcGh0JywgJzAuNScsICctbnQn

> <r_lp_tautomer_probability>
1

> <r_epik_Ionization_Penalty>
  0.0000

> <r_epik_Ionization_Penalty_Charging>
  0.0000

> <r_epik_Ionization_Penalty_Neutral>
  0.0000

> <r_epik_State_Penalty>
 -0.0000

> <r_epik_Charging_Adjusted_Penalty>
0

> <i_epik_Tot_Q>
0

> <i_epik_Tot_abs_Q>
0

$$$$
