4fll_ligand
                    3D
 Schrodinger Suite 2020-3.
 67 68  0  0  1  0            999 V2000
   19.3590   -4.4830   13.9850 O   0  0  0  0  0  0
   19.5230   -3.2890   13.9690 C   0  0  0  0  0  0
   20.0190   -2.6730   12.6700 C   0  0  2  0  0  0
   19.2910   -3.0940   11.4870 O   0  0  0  0  0  0
   17.9790   -2.5390   11.4070 C   0  0  0  0  0  0
   21.5150   -2.9290   12.4910 C   0  0  2  0  0  0
   22.1720   -1.9800   13.2320 O   0  0  0  0  0  0
   21.9500   -2.7520   11.0430 C   0  0  1  0  0  0
   22.1150   -1.3490   10.7740 O   0  0  0  0  0  0
   23.2850   -3.4780   10.8660 C   0  0  2  0  0  0
   23.8480   -2.9740    9.6060 O   0  0  0  0  0  0
   23.0550   -4.9620   10.6620 C   0  0  0  0  0  0
   23.5290   -5.7570   11.6530 C   0  0  0  0  0  0
   23.4360   -7.2610   11.7690 C   0  0  0  0  0  0
   22.7930   -7.4720   13.1170 C   0  0  0  0  0  0
   22.6820   -7.8660   10.6300 C   0  0  0  0  0  0
   24.8860   -7.7440   11.8020 C   0  0  0  0  0  0
   19.1770   -2.3790   14.9100 N   0  0  0  0  0  0
   18.6980   -3.0320   16.1460 C   0  0  0  0  0  0
   19.4750   -2.4030   17.2750 C   0  0  0  0  0  0
   19.1680   -2.8690   18.7490 C   0  0  1  0  0  0
   19.9560   -2.0870   19.8530 C   0  0  0  0  0  0
   19.9530   -0.6720   20.0570 C   0  0  0  0  0  0
   20.7850   -0.3450   21.1920 C   0  0  0  0  0  0
   21.2560   -1.6400   21.6020 C   0  0  0  0  0  0
   20.6950   -2.6640   20.7470 O   0  0  0  0  0  0
   17.7230   -3.2010   19.1310 C   0  0  0  0  0  0
   17.5220   -4.0360   20.2900 C   0  0  0  0  0  0
   16.2450   -4.4120   20.7800 C   0  0  0  0  0  0
   15.0920   -3.9570   20.1070 C   0  0  0  0  0  0
   15.2520   -3.1340   18.9620 C   0  0  0  0  0  0
   16.5390   -2.7530   18.4870 C   0  0  0  0  0  0
   19.7928   -1.5978   12.7224 H   0  0  0  0  0  0
   17.4848   -2.8967   10.4917 H   0  0  0  0  0  0
   18.0461   -1.4413   11.3825 H   0  0  0  0  0  0
   17.3947   -2.8512   12.2851 H   0  0  0  0  0  0
   21.8048   -3.9203   12.8697 H   0  0  0  0  0  0
   22.0087   -1.9201   14.3182 H   0  0  0  0  0  0
   21.1919   -3.1079   10.3298 H   0  0  0  0  0  0
   21.2541   -0.6689   10.8531 H   0  0  0  0  0  0
   23.9527   -3.3087   11.7236 H   0  0  0  0  0  0
   24.1034   -1.9088    9.5049 H   0  0  0  0  0  0
   22.5479   -5.4084    9.7939 H   0  0  0  0  0  0
   24.0576   -5.3126   12.5092 H   0  0  0  0  0  0
   21.7506   -7.1221   13.0848 H   0  0  0  0  0  0
   23.3466   -6.9052   13.8801 H   0  0  0  0  0  0
   22.8129   -8.5425   13.3692 H   0  0  0  0  0  0
   21.6460   -7.4964   10.6386 H   0  0  0  0  0  0
   22.6814   -8.9613   10.7313 H   0  0  0  0  0  0
   23.1635   -7.5857    9.6815 H   0  0  0  0  0  0
   25.4081   -7.2789   12.6512 H   0  0  0  0  0  0
   25.3876   -7.4625   10.8644 H   0  0  0  0  0  0
   24.9055   -8.8381   11.9142 H   0  0  0  0  0  0
   19.2155   -1.2815   14.8472 H   0  0  0  0  0  0
   17.6182   -2.8552   16.2593 H   0  0  0  0  0  0
   18.8881   -4.1138   16.0865 H   0  0  0  0  0  0
   20.5483   -2.5997   17.1357 H   0  0  0  0  0  0
   19.2990   -1.3172   17.2810 H   0  0  0  0  0  0
   19.5606   -3.8965   18.7355 H   0  0  0  0  0  0
   19.4068    0.0495   19.4494 H   0  0  0  0  0  0
   21.0001    0.6316   21.6256 H   0  0  0  0  0  0
   21.9355   -1.8235   22.4342 H   0  0  0  0  0  0
   18.4025   -4.3991   20.8200 H   0  0  0  0  0  0
   16.1561   -5.0435   21.6640 H   0  0  0  0  0  0
   14.0979   -4.2320   20.4593 H   0  0  0  0  0  0
   14.3660   -2.7842   18.4321 H   0  0  0  0  0  0
   16.6170   -2.1058   17.6134 H   0  0  0  0  0  0
  1  2  2  0  0  0
  2  3  1  0  0  0
  2 18  1  0  0  0
  3  4  1  0  0  0
  3  6  1  0  0  0
  3 33  1  0  0  0
  4  5  1  0  0  0
  5 34  1  0  0  0
  5 35  1  0  0  0
  5 36  1  0  0  0
  6  7  1  0  0  0
  6  8  1  0  0  0
  6 37  1  0  0  0
  7 38  1  0  0  0
  8  9  1  0  0  0
  8 10  1  0  0  0
  8 39  1  0  0  0
  9 40  1  0  0  0
 10 11  1  0  0  0
 10 12  1  0  0  0
 10 41  1  0  0  0
 11 42  1  0  0  0
 12 13  2  0  0  0
 12 43  1  0  0  0
 13 14  1  0  0  0
 13 44  1  0  0  0
 14 15  1  0  0  0
 14 16  1  0  0  0
 14 17  1  0  0  0
 15 45  1  0  0  0
 15 46  1  0  0  0
 15 47  1  0  0  0
 16 48  1  0  0  0
 16 49  1  0  0  0
 16 50  1  0  0  0
 17 51  1  0  0  0
 17 52  1  0  0  0
 17 53  1  0  0  0
 18 19  1  0  0  0
 18 54  1  0  0  0
 19 20  1  0  0  0
 19 55  1  0  0  0
 19 56  1  0  0  0
 20 21  1  0  0  0
 20 57  1  0  0  0
 20 58  1  0  0  0
 21 22  1  0  0  0
 21 27  1  0  0  0
 21 59  1  0  0  0
 22 23  2  0  0  0
 22 26  1  0  0  0
 23 24  1  0  0  0
 23 60  1  0  0  0
 24 25  2  0  0  0
 24 61  1  0  0  0
 25 26  1  0  0  0
 25 62  1  0  0  0
 27 28  2  0  0  0
 27 32  1  0  0  0
 28 29  1  0  0  0
 28 63  1  0  0  0
 29 30  2  0  0  0
 29 64  1  0  0  0
 30 31  1  0  0  0
 30 65  1  0  0  0
 31 32  2  0  0  0
 31 66  1  0  0  0
 32 67  1  0  0  0
M  END
> <s_m_source_file>
../4fll_ligand.sdf

> <i_m_source_file_index>
1

> <s_epik_input>
W0NIM11DKFtDSDNdKShbQ0gzXSlcW0NIXT1bQ0hdXFtDQEBIXShbT0hdKVtDQEhdKFtPSF0pW0NAQEhdKFtPSF0pW0NAQEhdKE9bQ0gzXSlDKD1PKVtOSF1bQ0gyXVtDSDJdW0NAQEhdKGMxW2NIXVtjSF1bY0hdbzEpYzJbY0hdW2NIXVtjSF1bY0hdW2NIXTI=

> <s_epik_cmdline>
J2VwaWtfYXBwJywgJy1pbWFlJywgJ2xpZ2FuZF9wcm8ubWFlJywgJy1vbWFlJywgJ2xpZ2FuZF9wcmVwLm1hZScsICctbXMnLCAnMScsICctcGgnLCAnNycsICctcGh0JywgJzAuNScsICctbnQn

> <r_lp_tautomer_probability>
1

> <r_epik_Ionization_Penalty>
  0.0000

> <r_epik_Ionization_Penalty_Charging>
  0.0000

> <r_epik_Ionization_Penalty_Neutral>
  0.0000

> <r_epik_State_Penalty>
 -0.0000

> <r_epik_Charging_Adjusted_Penalty>
0

> <i_epik_Tot_Q>
0

> <i_epik_Tot_abs_Q>
0

$$$$
