4flp_ligand
                    3D
 Schrodinger Suite 2020-3.
 56 59  0  0  1  0            999 V2000
   10.1330   -6.3130  -28.3510 C   0  0  0  0  0  0
    5.3720   -3.5490  -30.7030 C   0  0  0  0  0  0
    5.9480   -1.2280  -28.5640 C   0  0  0  0  0  0
    8.4030    2.1910  -29.8170 C   0  0  0  0  0  0
    9.2960    2.8830  -27.5500 C   0  0  0  0  0  0
   10.4930    3.5630  -29.6580 C   0  0  0  0  0  0
   11.9400    1.9830  -27.7900 O   0  0  0  0  0  0
    4.8890   -0.2050  -22.6460 Cl  0  0  0  0  0  0
    7.0570    0.4050  -24.2760 C   0  0  0  0  0  0
    5.8600   -1.6510  -24.6330 C   0  0  0  0  0  0
    7.8700    0.0530  -25.3860 C   0  0  0  0  0  0
    6.6630   -1.9760  -25.7050 C   0  0  0  0  0  0
   11.9820   -0.4210  -28.0220 C   0  0  0  0  0  0
    9.7800   -1.0640  -27.1710 N   0  0  0  0  0  0
   12.0590   -4.7300  -27.8660 N   0  0  0  0  0  0
   12.2240   -3.4760  -27.8100 N   0  0  0  0  0  0
   10.2810    1.1430  -28.9460 O   0  0  0  0  0  0
    8.0510   -4.3760  -29.9190 S   0  0  0  0  0  0
   11.4250    0.9880  -28.2450 C   0  0  0  0  0  0
    8.5260   -1.5120  -27.2220 C   0  0  0  0  0  0
    6.0260   -0.4570  -23.9370 C   0  0  0  0  0  0
   10.7640   -4.9780  -28.1790 C   0  0  0  0  0  0
    7.6790   -1.1350  -26.1310 C   0  0  0  0  0  0
    6.6590   -3.3280  -29.8240 C   0  0  0  0  0  0
    6.8950   -2.3410  -28.9140 C   0  0  0  0  0  0
   11.0780   -2.8700  -28.1120 C   0  0  0  0  0  0
    8.1220   -2.4430  -28.2320 C   0  0  0  0  0  0
    8.8970   -3.5210  -28.6960 C   0  0  0  0  0  0
   10.7850   -1.3570  -28.2050 C   0  0  2  0  0  0
   10.1470   -3.8080  -28.3230 N   0  0  0  0  0  0
    9.6500    2.4610  -28.9800 C   0  0  0  0  0  0
   10.8816   -7.0984  -28.1701 H   0  0  0  0  0  0
    9.7447   -6.4057  -29.3760 H   0  0  0  0  0  0
    9.3059   -6.4227  -27.6342 H   0  0  0  0  0  0
    5.5074   -4.4399  -31.3338 H   0  0  0  0  0  0
    5.2088   -2.6686  -31.3420 H   0  0  0  0  0  0
    4.5005   -3.6929  -30.0474 H   0  0  0  0  0  0
    5.0472   -1.3022  -29.1910 H   0  0  0  0  0  0
    6.4390   -0.2597  -28.7407 H   0  0  0  0  0  0
    5.6646   -1.3074  -27.5041 H   0  0  0  0  0  0
    7.8243    3.1204  -29.9230 H   0  0  0  0  0  0
    7.7852    1.4291  -29.3192 H   0  0  0  0  0  0
    8.7007    1.8289  -30.8121 H   0  0  0  0  0  0
    8.8204    3.8747  -27.5675 H   0  0  0  0  0  0
   10.2124    2.9265  -26.9431 H   0  0  0  0  0  0
    8.6012    2.1507  -27.1130 H   0  0  0  0  0  0
    9.9398    4.5135  -29.6360 H   0  0  0  0  0  0
   10.6948    3.2803  -30.7017 H   0  0  0  0  0  0
   11.4448    3.6802  -29.1192 H   0  0  0  0  0  0
    7.2373    1.3197  -23.7113 H   0  0  0  0  0  0
    5.0778   -2.3441  -24.3234 H   0  0  0  0  0  0
    8.6759    0.7269  -25.6767 H   0  0  0  0  0  0
    6.4951   -2.9164  -26.2300 H   0  0  0  0  0  0
   12.7716   -0.6242  -28.7604 H   0  0  0  0  0  0
   12.4012   -0.4933  -27.0076 H   0  0  0  0  0  0
   10.4107   -1.1378  -29.2159 H   0  0  0  0  0  0
  1 22  1  0  0  0
  1 32  1  0  0  0
  1 33  1  0  0  0
  1 34  1  0  0  0
  2 24  1  0  0  0
  2 35  1  0  0  0
  2 36  1  0  0  0
  2 37  1  0  0  0
  3 25  1  0  0  0
  3 38  1  0  0  0
  3 39  1  0  0  0
  3 40  1  0  0  0
  4 31  1  0  0  0
  4 41  1  0  0  0
  4 42  1  0  0  0
  4 43  1  0  0  0
  5 31  1  0  0  0
  5 44  1  0  0  0
  5 45  1  0  0  0
  5 46  1  0  0  0
  6 31  1  0  0  0
  6 47  1  0  0  0
  6 48  1  0  0  0
  6 49  1  0  0  0
  7 19  2  0  0  0
  8 21  1  0  0  0
  9 11  2  0  0  0
  9 21  1  0  0  0
  9 50  1  0  0  0
 10 12  1  0  0  0
 10 21  2  0  0  0
 10 51  1  0  0  0
 11 23  1  0  0  0
 11 52  1  0  0  0
 12 23  2  0  0  0
 12 53  1  0  0  0
 13 19  1  0  0  0
 13 29  1  0  0  0
 13 54  1  0  0  0
 13 55  1  0  0  0
 14 20  2  0  0  0
 14 29  1  0  0  0
 15 16  1  0  0  0
 15 22  2  0  0  0
 16 26  2  0  0  0
 17 19  1  0  0  0
 17 31  1  0  0  0
 18 24  1  0  0  0
 18 28  1  0  0  0
 20 23  1  0  0  0
 20 27  1  0  0  0
 22 30  1  0  0  0
 24 25  2  0  0  0
 25 27  1  0  0  0
 26 29  1  0  0  0
 26 30  1  0  0  0
 27 28  2  0  0  0
 28 30  1  0  0  0
 29 56  1  0  0  0
M  END
> <s_m_source_file>
../4flp_ligand.sdf

> <i_m_source_file_index>
1

> <s_epik_input>
bjFuYyhbQ0gzXSluKGMxMiljM2MoYyhbQ0gzXSljKHMzKVtDSDNdKUMoYyhbY0hdW2NIXTQpW2NIXVtjSF1jNENsKT1OW0NASF0yW0NIMl1DKD1PKU9DKFtDSDNdKShbQ0gzXSlbQ0gzXQ==

> <s_epik_cmdline>
J2VwaWtfYXBwJywgJy1pbWFlJywgJ2xpZ2FuZF9wcm8ubWFlJywgJy1vbWFlJywgJ2xpZ2FuZF9wcmVwLm1hZScsICctbXMnLCAnMScsICctcGgnLCAnNycsICctcGh0JywgJzAuNScsICctbnQn

> <r_lp_tautomer_probability>
1

> <r_epik_Ionization_Penalty>
  0.0015

> <r_epik_Ionization_Penalty_Charging>
  0.0000

> <r_epik_Ionization_Penalty_Neutral>
  0.0015

> <r_epik_State_Penalty>
 -0.0000

> <r_epik_Charging_Adjusted_Penalty>
0

> <i_epik_Tot_Q>
0

> <i_epik_Tot_abs_Q>
0

> <s_epik_Chemistry_Notes>
This compound has an ester and may undergo hydrolysis at high or low pH. This compound has an imine and may undergo hydrolysis.

$$$$
