4fm7_ligand
                    3D
 Schrodinger Suite 2020-3.
 66 69  0  0  1  0            999 V2000
   26.9070   36.8440   45.1420 C   0  0  0  0  0  0
   26.0280   38.5330   41.2850 C   0  0  0  0  0  0
   25.6480   36.2860   45.0580 C   0  0  0  0  0  0
   27.2880   38.6560   41.8310 C   0  0  0  0  0  0
   27.0400   38.2020   45.3200 C   0  0  0  0  0  0
   26.3790   36.2050   40.9090 C   0  0  0  0  0  0
   24.6450   38.4260   45.4100 C   0  0  0  0  0  0
   25.5550   37.3150   40.8480 C   0  0  0  0  0  0
   24.5190   37.0720   45.1610 C   0  0  0  0  0  0
   28.0910   37.5390   41.8990 C   0  0  0  0  0  0
   27.6460   36.3250   41.4120 C   0  0  0  0  0  0
   25.9100   38.9830   45.4520 C   0  0  0  0  0  0
   22.3450   35.3040   43.1560 C   0  0  0  0  0  0
   21.9140   37.7160   43.4530 C   0  0  0  0  0  0
   20.8880   36.1120   44.9670 C   0  0  0  0  0  0
   23.4550   35.5890   42.1630 C   0  0  0  0  0  0
   22.9520   37.9970   42.3860 C   0  0  2  0  0  0
   22.1490   36.4110   44.1600 C   0  0  1  0  0  0
   22.4430   39.1720   41.5810 C   0  0  0  0  0  0
   28.5170   34.2740   39.2890 C   0  0  0  0  0  0
   29.0570   32.9920   41.3310 C   0  0  0  0  0  0
   20.2170   35.0950   47.1330 C   0  0  0  0  0  0
   24.1540   37.1500   40.3330 C   0  0  0  0  0  0
   28.1920   34.0990   40.7610 C   0  0  0  0  0  0
   23.2460   36.4180   45.1710 N   0  0  0  0  0  0
   21.2770   35.2710   46.1150 N   0  0  2  0  0  0
   23.1560   36.8480   41.4360 N   0  3  1  0  0  0
   23.6490   34.5040   46.8140 O   0  0  0  0  0  0
   22.7190   36.6490   47.7190 O   0  0  0  0  0  0
   29.3830   37.5960   42.4020 O   0  0  0  0  0  0
   28.5390   35.2700   41.5190 O   0  0  0  0  0  0
   26.0540   40.3110   45.6380 F   0  0  0  0  0  0
   22.8200   35.6820   46.6560 S   0  0  0  0  0  0
   27.7921   36.2122   45.0677 H   0  0  0  0  0  0
   25.3944   39.4156   41.1975 H   0  0  0  0  0  0
   25.5442   35.2113   44.9085 H   0  0  0  0  0  0
   27.6417   39.6182   42.2015 H   0  0  0  0  0  0
   28.0298   38.6571   45.3564 H   0  0  0  0  0  0
   26.0199   35.2378   40.5574 H   0  0  0  0  0  0
   23.7618   39.0443   45.5706 H   0  0  0  0  0  0
   21.3954   35.1723   42.6166 H   0  0  0  0  0  0
   22.5796   34.3860   43.7148 H   0  0  0  0  0  0
   21.9369   38.5168   44.2068 H   0  0  0  0  0  0
   20.9161   37.6749   42.9920 H   0  0  0  0  0  0
   20.4448   37.0557   45.3177 H   0  0  0  0  0  0
   20.1638   35.5804   44.3322 H   0  0  0  0  0  0
   24.4094   35.6930   42.6999 H   0  0  0  0  0  0
   23.5268   34.7588   41.4450 H   0  0  0  0  0  0
   23.9173   38.1803   42.8805 H   0  0  0  0  0  0
   22.2830   40.0318   42.2482 H   0  0  0  0  0  0
   21.4928   38.9011   41.0976 H   0  0  0  0  0  0
   23.1831   39.4376   40.8118 H   0  0  0  0  0  0
   28.2392   33.3615   38.7412 H   0  0  0  0  0  0
   29.5949   34.4587   39.1710 H   0  0  0  0  0  0
   27.9524   35.1286   38.8880 H   0  0  0  0  0  0
   28.8484   32.0525   40.7982 H   0  0  0  0  0  0
   28.8322   32.8648   42.4003 H   0  0  0  0  0  0
   30.1179   33.2555   41.2081 H   0  0  0  0  0  0
   19.2718   34.8306   46.6362 H   0  0  0  0  0  0
   20.0871   36.0328   47.6930 H   0  0  0  0  0  0
   20.5044   34.2908   47.8263 H   0  0  0  0  0  0
   23.8349   38.0773   39.8347 H   0  0  0  0  0  0
   24.1232   36.3181   39.6139 H   0  0  0  0  0  0
   27.1097   33.9307   40.8624 H   0  0  0  0  0  0
   22.1937   36.6790   40.9306 H   0  0  0  0  0  0
   29.7771   38.5429   42.7996 H   0  0  0  0  0  0
  1  3  2  0  0  0
  1  5  1  0  0  0
  1 34  1  0  0  0
  2  4  2  0  0  0
  2  8  1  0  0  0
  2 35  1  0  0  0
  3  9  1  0  0  0
  3 36  1  0  0  0
  4 10  1  0  0  0
  4 37  1  0  0  0
  5 12  2  0  0  0
  5 38  1  0  0  0
  6  8  2  0  0  0
  6 11  1  0  0  0
  6 39  1  0  0  0
  7  9  2  0  0  0
  7 12  1  0  0  0
  7 40  1  0  0  0
  8 23  1  0  0  0
  9 25  1  0  0  0
 10 11  2  0  0  0
 10 30  1  0  0  0
 11 31  1  0  0  0
 12 32  1  0  0  0
 13 16  1  0  0  0
 13 18  1  0  0  0
 13 41  1  0  0  0
 13 42  1  0  0  0
 14 17  1  0  0  0
 14 18  1  0  0  0
 14 43  1  0  0  0
 14 44  1  0  0  0
 15 18  1  0  0  0
 15 26  1  0  0  0
 15 45  1  0  0  0
 15 46  1  0  0  0
 16 27  1  0  0  0
 16 47  1  0  0  0
 16 48  1  0  0  0
 17 19  1  0  0  0
 17 27  1  0  0  0
 17 49  1  0  0  0
 18 25  1  0  0  0
 19 50  1  0  0  0
 19 51  1  0  0  0
 19 52  1  0  0  0
 20 24  1  0  0  0
 20 53  1  0  0  0
 20 54  1  0  0  0
 20 55  1  0  0  0
 21 24  1  0  0  0
 21 56  1  0  0  0
 21 57  1  0  0  0
 21 58  1  0  0  0
 22 26  1  0  0  0
 22 59  1  0  0  0
 22 60  1  0  0  0
 22 61  1  0  0  0
 23 27  1  0  0  0
 23 62  1  0  0  0
 23 63  1  0  0  0
 24 31  1  0  0  0
 24 64  1  0  0  0
 25 33  1  0  0  0
 26 33  1  0  0  0
 27 65  1  0  0  0
 28 33  2  0  0  0
 29 33  2  0  0  0
 30 66  1  0  0  0
M  CHG  1  27   1
M  END
> <s_m_source_file>
../4fm7_ligand.sdf

> <i_m_source_file_index>
1

> <s_epik_input>
W2NIXTFjKEYpW2NIXVtjSF1bY0hdYzFOMlMoPU8pKD1PKU4oW0NIM10pW0NIMl1bQ0BdMjNbQ0gyXVtDSDJdW05AQEgrXShbQ0BIXShbQ0gyXTMpW0NIM10pW0NIMl1jNFtjSF1bY0hdYyhbT0hdKWMoW2NIXTQpT1tDSF0oW0NIM10pW0NIM10=

> <s_epik_cmdline>
J2VwaWtfYXBwJywgJy1pbWFlJywgJ2xpZ2FuZF9wcm8ubWFlJywgJy1vbWFlJywgJ2xpZ2FuZF9wcmVwLm1hZScsICctbXMnLCAnMScsICctcGgnLCAnNycsICctcGh0JywgJzAuNScsICctbnQn

> <r_lp_tautomer_probability>
0.999999999999776

> <r_epik_Ionization_Penalty>
  0.3263

> <r_epik_Ionization_Penalty_Charging>
  0.3215

> <r_epik_Ionization_Penalty_Neutral>
  0.0049

> <r_epik_State_Penalty>
  0.3161

> <r_epik_Charging_Adjusted_Penalty>
0.637530662794674

> <i_epik_Tot_Q>
1

> <i_epik_Tot_abs_Q>
1

$$$$
