4fmn_ligand
                    3D
 Schrodinger Suite 2020-3.
143144  0  0  1  0            999 V2000
   65.5640  -18.5420   31.8950 C   0  0  0  0  0  0
   65.7470  -18.5340   33.1200 O   0  0  0  0  0  0
   65.4090  -19.8750   31.1520 C   0  0  0  0  0  0
   65.4710  -17.4390   31.1430 N   0  0  0  0  0  0
   65.6490  -16.0680   31.6700 C   0  0  2  0  0  0
   64.3960  -15.2320   31.9990 C   0  0  0  0  0  0
   63.5550  -14.9660   31.1240 O   0  0  0  0  0  0
   66.6700  -15.2480   30.8640 C   0  0  0  0  0  0
   67.4640  -14.3500   31.7860 C   0  0  0  0  0  0
   67.6030  -16.1600   30.0860 C   0  0  0  0  0  0
   64.3220  -14.7780   33.2700 N   0  0  0  0  0  0
   63.2560  -13.8990   33.7700 C   0  0  2  0  0  0
   63.7340  -12.4220   33.7270 C   0  0  0  0  0  0
   64.9430  -12.1530   33.6450 O   0  0  0  0  0  0
   62.7590  -14.3050   35.1800 C   0  0  0  0  0  0
   62.3230  -15.7660   35.3580 C   0  0  0  0  0  0
   61.0320  -16.1380   34.6480 C   0  0  0  0  0  0
   59.8310  -15.9360   35.4700 N   0  0  0  0  0  0
   59.1370  -16.9140   36.0530 C   0  0  0  0  0  0
   59.5360  -18.1790   35.9490 N   0  0  0  0  0  0
   58.0400  -16.6350   36.7480 N   0  3  0  0  0  0
   62.7700  -11.4780   33.7160 N   0  0  0  0  0  0
   63.0080  -10.0250   33.6170 C   0  0  2  0  0  0
   63.3020   -9.4100   34.9730 C   0  0  0  0  0  0
   62.5000   -9.5970   35.9180 O   0  0  0  0  0  0
   61.8180   -9.3200   32.9510 C   0  0  0  0  0  0
   61.7310   -7.9140   33.1310 O   0  0  0  0  0  0
   64.4180   -8.6020   35.0410 N   0  0  0  0  0  0
   64.7930   -7.8840   36.2720 C   0  0  2  0  0  0
   63.6170   -7.1190   36.8920 C   0  0  0  0  0  0
   63.5420   -7.0180   38.1070 O   0  0  0  0  0  0
   66.0250   -6.9690   36.0780 C   0  0  0  0  0  0
   65.8310   -5.6840   35.2660 C   0  0  0  0  0  0
   67.1910   -5.2080   34.7390 C   0  0  0  0  0  0
   67.1210   -3.9690   33.8790 C   0  0  0  0  0  0
   68.4500   -3.6230   33.3120 N   0  3  0  0  0  0
   62.6770   -6.6470   36.0560 N   0  0  0  0  0  0
   61.5160   -5.8700   36.4630 C   0  0  2  0  0  0
   60.4440   -6.6560   37.1400 C   0  0  0  0  0  0
   59.4630   -6.0730   37.6000 O   0  0  0  0  0  0
   60.9520   -5.1200   35.2690 C   0  0  0  0  0  0
   61.9560   -4.1610   34.6600 C   0  0  0  0  0  0
   62.3280   -2.9970   35.3260 C   0  0  0  0  0  0
   62.5190   -4.4080   33.4030 C   0  0  0  0  0  0
   63.2450   -2.1140   34.7710 C   0  0  0  0  0  0
   63.4250   -3.5180   32.8290 C   0  0  0  0  0  0
   63.7910   -2.3780   33.5240 C   0  0  0  0  0  0
   64.7180   -1.5130   33.0090 O   0  0  0  0  0  0
   60.6080   -7.9770   37.2010 N   0  0  0  0  0  0
   59.6140   -8.8280   37.8370 C   0  0  2  0  0  0
   60.2840   -9.6540   38.9400 C   0  0  0  0  0  0
   61.2670  -10.3710   38.6720 O   0  0  0  0  0  0
   58.8800   -9.6790   36.7790 C   0  0  0  0  0  0
   58.0870   -8.8440   35.7990 C   0  0  0  0  0  0
   56.7530   -8.5260   36.0480 C   0  0  0  0  0  0
   58.6870   -8.3260   34.6540 C   0  0  0  0  0  0
   56.0320   -7.7060   35.1690 C   0  0  0  0  0  0
   57.9690   -7.5060   33.7870 C   0  0  0  0  0  0
   56.6410   -7.2160   34.0440 C   0  0  0  0  0  0
   59.8310   -9.4570   40.2020 N   0  0  0  0  0  0
   60.3740  -10.1390   41.3930 C   0  0  2  0  0  0
   59.2570  -10.4720   42.3900 C   0  0  0  0  0  0
   58.2867   -9.6856   42.5565 O   0  5  0  0  0  0
   61.4740   -9.2980   42.0890 C   0  0  0  0  0  0
   62.7150   -8.9370   41.2430 C   0  0  0  0  0  0
   63.7080  -10.0840   41.0720 C   0  0  0  0  0  0
   64.7040   -9.8060   39.9740 C   0  0  0  0  0  0
   64.9230  -10.9980   39.1080 N   0  3  0  0  0  0
   59.3103  -11.5440   43.0499 O   0  0  0  0  0  0
   65.5030  -20.7061   31.8665 H   0  0  0  0  0  0
   66.1927  -19.9605   30.3849 H   0  0  0  0  0  0
   64.4201  -19.9143   30.6719 H   0  0  0  0  0  0
   65.2487  -17.5939   30.0769 H   0  0  0  0  0  0
   66.0512  -16.3476   32.6549 H   0  0  0  0  0  0
   66.1336  -14.6144   30.1423 H   0  0  0  0  0  0
   66.7765  -13.6959   32.3423 H   0  0  0  0  0  0
   68.1558  -13.7345   31.1922 H   0  0  0  0  0  0
   68.0372  -14.9664   32.4941 H   0  0  0  0  0  0
   67.0126  -16.8067   29.4203 H   0  0  0  0  0  0
   68.1767  -16.7828   30.7882 H   0  0  0  0  0  0
   68.2952  -15.5509   29.4862 H   0  0  0  0  0  0
   65.1259  -15.1064   33.9451 H   0  0  0  0  0  0
   62.4171  -14.0528   33.0753 H   0  0  0  0  0  0
   63.5619  -14.1395   35.9135 H   0  0  0  0  0  0
   61.8842  -13.6953   35.4501 H   0  0  0  0  0  0
   63.1044  -16.4324   34.9639 H   0  0  0  0  0  0
   62.1679  -15.9748   36.4268 H   0  0  0  0  0  0
   60.9197  -15.5210   33.7443 H   0  0  0  0  0  0
   61.0621  -17.2006   34.3651 H   0  0  0  0  0  0
   59.4454  -14.9199   35.6401 H   0  0  0  0  0  0
   60.4426  -18.4244   35.3765 H   0  0  0  0  0  0
   58.9592  -18.9794   36.4355 H   0  0  0  0  0  0
   57.6986  -15.5936   36.8422 H   0  0  0  0  0  0
   61.7422  -11.8633   33.7882 H   0  0  0  0  0  0
   63.9068   -9.9196   32.9916 H   0  0  0  0  0  0
   61.8581   -9.4812   31.8636 H   0  0  0  0  0  0
   60.8786   -9.7319   33.3483 H   0  0  0  0  0  0
   60.9009   -7.3519   32.6783 H   0  0  0  0  0  0
   65.0360   -8.5028   34.1365 H   0  0  0  0  0  0
   65.0641   -8.7016   36.9562 H   0  0  0  0  0  0
   66.3951   -6.6393   37.0600 H   0  0  0  0  0  0
   66.8169   -7.5260   35.5559 H   0  0  0  0  0  0
   65.1571   -5.8833   34.4198 H   0  0  0  0  0  0
   65.3923   -4.9067   35.9089 H   0  0  0  0  0  0
   67.8520   -4.9758   35.5871 H   0  0  0  0  0  0
   67.6450   -6.0011   34.1267 H   0  0  0  0  0  0
   66.4216   -4.1391   33.0472 H   0  0  0  0  0  0
   66.7702   -3.1210   34.4855 H   0  0  0  0  0  0
   68.3603   -2.7180   32.6932 H   0  0  0  0  0  0
   68.8125   -4.4564   32.6924 H   0  0  0  0  0  0
   69.1611   -3.4384   34.1307 H   0  0  0  0  0  0
   62.8332   -6.8873   34.9940 H   0  0  0  0  0  0
   61.9121   -5.1921   37.2334 H   0  0  0  0  0  0
   60.6551   -5.8390   34.4913 H   0  0  0  0  0  0
   60.0740   -4.5369   35.5837 H   0  0  0  0  0  0
   61.8921   -2.7746   36.3000 H   0  0  0  0  0  0
   62.2438   -5.3137   32.8625 H   0  0  0  0  0  0
   63.5351   -1.2149   35.3147 H   0  0  0  0  0  0
   63.8417   -3.7177   31.8418 H   0  0  0  0  0  0
   65.0002   -0.6106   33.5712 H   0  0  0  0  0  0
   61.5125   -8.4221   36.7608 H   0  0  0  0  0  0
   58.8711   -8.1682   38.3091 H   0  0  0  0  0  0
   59.6142  -10.2628   36.2044 H   0  0  0  0  0  0
   58.1792  -10.3628   37.2803 H   0  0  0  0  0  0
   56.2637   -8.9204   36.9386 H   0  0  0  0  0  0
   59.7277   -8.5644   34.4344 H   0  0  0  0  0  0
   54.9914   -7.4593   35.3797 H   0  0  0  0  0  0
   58.4547   -7.0916   32.9036 H   0  0  0  0  0  0
   56.0767   -6.5949   33.3483 H   0  0  0  0  0  0
   59.0062   -8.7370   40.3087 H   0  0  0  0  0  0
   60.8116  -11.0689   41.0007 H   0  0  0  0  0  0
   61.0488   -8.3383   42.4178 H   0  0  0  0  0  0
   61.8582   -9.8469   42.9614 H   0  0  0  0  0  0
   62.3958   -8.6323   40.2354 H   0  0  0  0  0  0
   63.2570   -8.1084   41.7222 H   0  0  0  0  0  0
   64.2622  -10.2322   42.0106 H   0  0  0  0  0  0
   63.1636  -11.0055   40.8182 H   0  0  0  0  0  0
   64.3339   -8.9848   39.3426 H   0  0  0  0  0  0
   65.6692   -9.5208   40.4180 H   0  0  0  0  0  0
   65.6537  -10.7519   38.3235 H   0  0  0  0  0  0
   63.9709  -11.2931   38.6428 H   0  0  0  0  0  0
   65.3061  -11.8291   39.7183 H   0  0  0  0  0  0
   57.4729  -17.4454   37.2293 H   0  0  0  0  0  0
  1  2  2  0  0  0
  1  3  1  0  0  0
  1  4  1  0  0  0
  3 70  1  0  0  0
  3 71  1  0  0  0
  3 72  1  0  0  0
  4  5  1  0  0  0
  4 73  1  0  0  0
  5  6  1  0  0  0
  5  8  1  0  0  0
  5 74  1  0  0  0
  6  7  2  0  0  0
  6 11  1  0  0  0
  8  9  1  0  0  0
  8 10  1  0  0  0
  8 75  1  0  0  0
  9 76  1  0  0  0
  9 77  1  0  0  0
  9 78  1  0  0  0
 10 79  1  0  0  0
 10 80  1  0  0  0
 10 81  1  0  0  0
 11 12  1  0  0  0
 11 82  1  0  0  0
 12 13  1  0  0  0
 12 15  1  0  0  0
 12 83  1  0  0  0
 13 14  2  0  0  0
 13 22  1  0  0  0
 15 16  1  0  0  0
 15 84  1  0  0  0
 15 85  1  0  0  0
 16 17  1  0  0  0
 16 86  1  0  0  0
 16 87  1  0  0  0
 17 18  1  0  0  0
 17 88  1  0  0  0
 17 89  1  0  0  0
 18 19  1  0  0  0
 18 90  1  0  0  0
 19 20  1  0  0  0
 19 21  2  0  0  0
 20 91  1  0  0  0
 20 92  1  0  0  0
 21 93  1  0  0  0
 21143  1  0  0  0
 22 23  1  0  0  0
 22 94  1  0  0  0
 23 24  1  0  0  0
 23 26  1  0  0  0
 23 95  1  0  0  0
 24 25  2  0  0  0
 24 28  1  0  0  0
 26 27  1  0  0  0
 26 96  1  0  0  0
 26 97  1  0  0  0
 27 98  1  0  0  0
 28 29  1  0  0  0
 28 99  1  0  0  0
 29 30  1  0  0  0
 29 32  1  0  0  0
 29100  1  0  0  0
 30 31  2  0  0  0
 30 37  1  0  0  0
 32 33  1  0  0  0
 32101  1  0  0  0
 32102  1  0  0  0
 33 34  1  0  0  0
 33103  1  0  0  0
 33104  1  0  0  0
 34 35  1  0  0  0
 34105  1  0  0  0
 34106  1  0  0  0
 35 36  1  0  0  0
 35107  1  0  0  0
 35108  1  0  0  0
 36109  1  0  0  0
 36110  1  0  0  0
 36111  1  0  0  0
 37 38  1  0  0  0
 37112  1  0  0  0
 38 39  1  0  0  0
 38 41  1  0  0  0
 38113  1  0  0  0
 39 40  2  0  0  0
 39 49  1  0  0  0
 41 42  1  0  0  0
 41114  1  0  0  0
 41115  1  0  0  0
 42 43  2  0  0  0
 42 44  1  0  0  0
 43 45  1  0  0  0
 43116  1  0  0  0
 44 46  2  0  0  0
 44117  1  0  0  0
 45 47  2  0  0  0
 45118  1  0  0  0
 46 47  1  0  0  0
 46119  1  0  0  0
 47 48  1  0  0  0
 48120  1  0  0  0
 49 50  1  0  0  0
 49121  1  0  0  0
 50 51  1  0  0  0
 50 53  1  0  0  0
 50122  1  0  0  0
 51 52  2  0  0  0
 51 60  1  0  0  0
 53 54  1  0  0  0
 53123  1  0  0  0
 53124  1  0  0  0
 54 55  2  0  0  0
 54 56  1  0  0  0
 55 57  1  0  0  0
 55125  1  0  0  0
 56 58  2  0  0  0
 56126  1  0  0  0
 57 59  2  0  0  0
 57127  1  0  0  0
 58 59  1  0  0  0
 58128  1  0  0  0
 59129  1  0  0  0
 60 61  1  0  0  0
 60130  1  0  0  0
 61 62  1  0  0  0
 61 64  1  0  0  0
 61131  1  0  0  0
 62 63  1  0  0  0
 62 69  2  0  0  0
 64 65  1  0  0  0
 64132  1  0  0  0
 64133  1  0  0  0
 65 66  1  0  0  0
 65134  1  0  0  0
 65135  1  0  0  0
 66 67  1  0  0  0
 66136  1  0  0  0
 66137  1  0  0  0
 67 68  1  0  0  0
 67138  1  0  0  0
 67139  1  0  0  0
 68140  1  0  0  0
 68141  1  0  0  0
 68142  1  0  0  0
M  CHG  4  21   1  36   1  63  -1  68   1
M  END
> <s_m_source_file>
../4fmn_ligand.sdf

> <i_m_source_file_index>
1

> <s_epik_input>
W0hdL049QyhbTkgyXSlcW05IXVtDSDJdW0NIMl1bQ0gyXVtDQEhdKFtOSF1DKD1PKVtDQEhdKFtDSF0oW0NIM10pW0NIM10pW05IXUMoPU8pW0NIM10pQyg9TylbTkhdW0NAQEhdKFtDSDJdW09IXSlDKD1PKVtOSF1bQ0BASF0oW0NIMl1bQ0gyXVtDSDJdW0NIMl1bTkgzK10pQyg9TylbTkhdW0NAQEhdKFtDSDJdYzFbY0hdW2NIXWMoW09IXSlbY0hdW2NIXTEpQyg9TylbTkhdW0NAQEhdKFtDSDJdYzJbY0hdW2NIXVtjSF1bY0hdW2NIXTIpQyg9TylbTkhdW0NASF0oQyg9TylbT0hdKVtDSDJdW0NIMl1bQ0gyXVtDSDJdW05IMytd

> <s_epik_cmdline>
J2VwaWtfYXBwJywgJy1pbWFlJywgJ2xpZ2FuZF9wcm8ubWFlJywgJy1vbWFlJywgJ2xpZ2FuZF9wcmVwLm1hZScsICctbXMnLCAnMScsICctcGgnLCAnNycsICctcGh0JywgJzAuNScsICctbnQn

> <r_lp_tautomer_probability>
1

> <r_epik_Ionization_Penalty>
  0.0019

> <r_epik_Ionization_Penalty_Charging>
  0.0010

> <r_epik_Ionization_Penalty_Neutral>
  0.0009

> <r_epik_State_Penalty>
 -0.0000

> <r_epik_Charging_Adjusted_Penalty>
0.00100671393272789

> <i_epik_Tot_Q>
2

> <i_epik_Tot_abs_Q>
4

> <s_epik_Chemistry_Notes>
This compound has an imine and may undergo hydrolysis.

$$$$
