4fmo_ligand
                    3D
 Schrodinger Suite 2020-3.
128129  0  0  1  0            999 V2000
   65.7580  -16.8490   30.6440 N   0  3  0  0  0  0
   65.9680  -16.0690   31.8570 C   0  0  2  0  0  0
   64.6960  -15.3250   32.3280 C   0  0  0  0  0  0
   63.6640  -15.3410   31.6560 O   0  0  0  0  0  0
   67.1420  -15.0990   31.6500 C   0  0  2  0  0  0
   66.9860  -14.4560   30.3870 O   0  0  0  0  0  0
   68.5000  -15.7790   31.7280 C   0  0  0  0  0  0
   64.7860  -14.6770   33.5050 N   0  0  0  0  0  0
   63.7150  -13.8570   34.0660 C   0  0  2  0  0  0
   64.1200  -12.3470   34.1220 C   0  0  0  0  0  0
   65.3230  -12.0200   34.1280 O   0  0  0  0  0  0
   63.2170  -14.4120   35.4060 C   0  0  0  0  0  0
   61.8400  -15.0270   35.2950 C   0  0  0  0  0  0
   60.8460  -14.2800   36.1690 C   0  0  0  0  0  0
   59.4690  -14.7550   35.9890 N   0  0  0  0  0  0
   58.9310  -15.7900   36.6340 C   0  0  0  0  0  0
   59.6520  -16.4870   37.5070 N   0  0  0  0  0  0
   57.6710  -16.1410   36.4050 N   0  3  0  0  0  0
   63.0980  -11.4450   34.0780 N   0  0  0  0  0  0
   63.2320   -9.9780   34.1050 C   0  0  2  0  0  0
   63.4360   -9.4460   35.5190 C   0  0  0  0  0  0
   62.7320   -9.8510   36.4630 O   0  0  0  0  0  0
   62.0290   -9.2940   33.4470 C   0  0  0  0  0  0
   61.8880   -7.9140   33.7490 O   0  0  0  0  0  0
   64.4070   -8.5120   35.6380 N   0  0  0  0  0  0
   64.7730   -7.8030   36.8670 C   0  0  2  0  0  0
   63.5560   -7.0370   37.4120 C   0  0  0  0  0  0
   63.3310   -7.0270   38.6250 O   0  0  0  0  0  0
   65.9960   -6.8680   36.6390 C   0  0  0  0  0  0
   65.8900   -5.9130   35.4420 C   0  0  0  0  0  0
   67.2180   -5.2590   35.1010 C   0  0  0  0  0  0
   67.1730   -4.6310   33.7290 C   0  0  0  0  0  0
   68.4360   -3.9290   33.3860 N   0  3  0  0  0  0
   62.7340   -6.4790   36.5010 N   0  0  0  0  0  0
   61.5410   -5.7000   36.8170 C   0  0  2  0  0  0
   60.3940   -6.4750   37.4650 C   0  0  0  0  0  0
   59.4350   -5.8680   37.9540 O   0  0  0  0  0  0
   61.0700   -4.9230   35.5840 C   0  0  0  0  0  0
   62.1640   -4.1510   34.8830 C   0  0  0  0  0  0
   62.7040   -3.0050   35.4540 C   0  0  0  0  0  0
   62.6260   -4.5480   33.6290 C   0  0  0  0  0  0
   63.7090   -2.2900   34.7970 C   0  0  0  0  0  0
   63.6070   -3.8140   32.9650 C   0  0  0  0  0  0
   64.1450   -2.6980   33.5590 C   0  0  0  0  0  0
   60.5090   -7.8090   37.4870 N   0  0  0  0  0  0
   59.5140   -8.7090   38.0680 C   0  0  2  0  0  0
   60.1860   -9.5680   39.1280 C   0  0  0  0  0  0
   60.6720  -10.6660   38.8330 O   0  0  0  0  0  0
   58.8330   -9.5420   36.9580 C   0  0  0  0  0  0
   58.0960   -8.6860   35.9540 C   0  0  0  0  0  0
   56.7500   -8.3570   36.1480 C   0  0  0  0  0  0
   58.7610   -8.1540   34.8440 C   0  0  0  0  0  0
   56.0830   -7.5200   35.2480 C   0  0  0  0  0  0
   58.0930   -7.3130   33.9450 C   0  0  0  0  0  0
   56.7580   -7.0080   34.1510 C   0  0  0  0  0  0
   60.2940   -9.0060   40.3470 N   0  0  0  0  0  0
   60.9390   -9.6180   41.5170 C   0  0  2  0  0  0
   60.1320   -9.2770   42.7820 C   0  0  0  0  0  0
   59.7234   -8.1032   42.9888 O   0  5  0  0  0  0
   62.4100   -9.1240   41.6770 C   0  0  0  0  0  0
   63.4500   -9.5090   40.6190 C   0  0  0  0  0  0
   64.5110   -8.8840   40.5200 O   0  0  0  0  0  0
   63.2350  -10.5640   39.8470 N   0  0  0  0  0  0
   59.8769  -10.1820   43.6207 O   0  0  0  0  0  0
   64.9174  -17.5423   30.7948 H   0  0  0  0  0  0
   66.6687  -17.4215   30.4139 H   0  0  0  0  0  0
   65.5294  -16.1720   29.8077 H   0  0  0  0  0  0
   66.2159  -16.8207   32.6208 H   0  0  0  0  0  0
   67.1201  -14.3101   32.4162 H   0  0  0  0  0  0
   66.0579  -13.9120   30.1577 H   0  0  0  0  0  0
   68.6081  -16.2709   32.7059 H   0  0  0  0  0  0
   69.2939  -15.0275   31.6057 H   0  0  0  0  0  0
   68.5802  -16.5305   30.9287 H   0  0  0  0  0  0
   65.7340  -14.7923   34.0510 H   0  0  0  0  0  0
   62.8830  -13.9718   33.3557 H   0  0  0  0  0  0
   63.9099  -15.1890   35.7613 H   0  0  0  0  0  0
   63.1686  -13.5983   36.1446 H   0  0  0  0  0  0
   61.5003  -14.9794   34.2498 H   0  0  0  0  0  0
   61.8801  -16.0771   35.6200 H   0  0  0  0  0  0
   61.1145  -14.4149   37.2272 H   0  0  0  0  0  0
   60.8697  -13.2092   35.9183 H   0  0  0  0  0  0
   58.8002  -14.2465   35.2790 H   0  0  0  0  0  0
   60.6969  -16.2065   37.7056 H   0  0  0  0  0  0
   59.2036  -17.3442   38.0306 H   0  0  0  0  0  0
   57.0639  -15.5725   35.6851 H   0  0  0  0  0  0
   62.1007  -11.9052   34.0171 H   0  0  0  0  0  0
   64.1414   -9.7765   33.5199 H   0  0  0  0  0  0
   62.1164   -9.3711   32.3532 H   0  0  0  0  0  0
   61.1020   -9.7862   33.7763 H   0  0  0  0  0  0
   61.0529   -7.3399   33.3212 H   0  0  0  0  0  0
   64.9419   -8.2998   34.7005 H   0  0  0  0  0  0
   65.0569   -8.5853   37.5863 H   0  0  0  0  0  0
   66.1439   -6.2348   37.5263 H   0  0  0  0  0  0
   66.8963   -7.4767   36.4688 H   0  0  0  0  0  0
   65.5498   -6.4707   34.5570 H   0  0  0  0  0  0
   65.1686   -5.1151   35.6722 H   0  0  0  0  0  0
   67.4419   -4.4763   35.8408 H   0  0  0  0  0  0
   68.0148   -6.0171   35.1167 H   0  0  0  0  0  0
   67.0027   -5.4122   32.9736 H   0  0  0  0  0  0
   66.3547   -3.8971   33.6883 H   0  0  0  0  0  0
   68.3507   -3.4911   32.3805 H   0  0  0  0  0  0
   69.2704   -4.6456   33.4043 H   0  0  0  0  0  0
   68.6223   -3.1304   34.1191 H   0  0  0  0  0  0
   63.0193   -6.6470   35.4520 H   0  0  0  0  0  0
   61.9110   -5.0235   37.6015 H   0  0  0  0  0  0
   60.6473   -5.6234   34.8487 H   0  0  0  0  0  0
   60.3008   -4.1949   35.8811 H   0  0  0  0  0  0
   62.3407   -2.6609   36.4224 H   0  0  0  0  0  0
   62.2150   -5.4432   33.1623 H   0  0  0  0  0  0
   64.1470   -1.4090   35.2662 H   0  0  0  0  0  0
   63.9466   -4.1245   31.9769 H   0  0  0  0  0  0
   64.9225   -2.1326   33.0452 H   0  0  0  0  0  0
   61.4219   -8.2194   37.0306 H   0  0  0  0  0  0
   58.7466   -8.0926   38.5591 H   0  0  0  0  0  0
   59.5946  -10.1192   36.4133 H   0  0  0  0  0  0
   58.1052  -10.2312   37.4111 H   0  0  0  0  0  0
   56.2157   -8.7573   37.0096 H   0  0  0  0  0  0
   59.8104   -8.3967   34.6770 H   0  0  0  0  0  0
   55.0342   -7.2707   35.4089 H   0  0  0  0  0  0
   58.6221   -6.9000   33.0862 H   0  0  0  0  0  0
   56.2350   -6.3615   33.4463 H   0  0  0  0  0  0
   59.8472   -8.0040   40.4266 H   0  0  0  0  0  0
   60.9248  -10.7012   41.3261 H   0  0  0  0  0  0
   62.4281   -8.0242   41.6897 H   0  0  0  0  0  0
   62.8254   -9.5084   42.6202 H   0  0  0  0  0  0
   62.2920  -11.1240   39.9311 H   0  0  0  0  0  0
   63.9995  -10.8799   39.1219 H   0  0  0  0  0  0
   57.2344  -17.0002   36.9352 H   0  0  0  0  0  0
  1  2  1  0  0  0
  1 65  1  0  0  0
  1 66  1  0  0  0
  1 67  1  0  0  0
  2  3  1  0  0  0
  2  5  1  0  0  0
  2 68  1  0  0  0
  3  4  2  0  0  0
  3  8  1  0  0  0
  5  6  1  0  0  0
  5  7  1  0  0  0
  5 69  1  0  0  0
  6 70  1  0  0  0
  7 71  1  0  0  0
  7 72  1  0  0  0
  7 73  1  0  0  0
  8  9  1  0  0  0
  8 74  1  0  0  0
  9 10  1  0  0  0
  9 12  1  0  0  0
  9 75  1  0  0  0
 10 11  2  0  0  0
 10 19  1  0  0  0
 12 13  1  0  0  0
 12 76  1  0  0  0
 12 77  1  0  0  0
 13 14  1  0  0  0
 13 78  1  0  0  0
 13 79  1  0  0  0
 14 15  1  0  0  0
 14 80  1  0  0  0
 14 81  1  0  0  0
 15 16  1  0  0  0
 15 82  1  0  0  0
 16 17  1  0  0  0
 16 18  2  0  0  0
 17 83  1  0  0  0
 17 84  1  0  0  0
 18 85  1  0  0  0
 18128  1  0  0  0
 19 20  1  0  0  0
 19 86  1  0  0  0
 20 21  1  0  0  0
 20 23  1  0  0  0
 20 87  1  0  0  0
 21 22  2  0  0  0
 21 25  1  0  0  0
 23 24  1  0  0  0
 23 88  1  0  0  0
 23 89  1  0  0  0
 24 90  1  0  0  0
 25 26  1  0  0  0
 25 91  1  0  0  0
 26 27  1  0  0  0
 26 29  1  0  0  0
 26 92  1  0  0  0
 27 28  2  0  0  0
 27 34  1  0  0  0
 29 30  1  0  0  0
 29 93  1  0  0  0
 29 94  1  0  0  0
 30 31  1  0  0  0
 30 95  1  0  0  0
 30 96  1  0  0  0
 31 32  1  0  0  0
 31 97  1  0  0  0
 31 98  1  0  0  0
 32 33  1  0  0  0
 32 99  1  0  0  0
 32100  1  0  0  0
 33101  1  0  0  0
 33102  1  0  0  0
 33103  1  0  0  0
 34 35  1  0  0  0
 34104  1  0  0  0
 35 36  1  0  0  0
 35 38  1  0  0  0
 35105  1  0  0  0
 36 37  2  0  0  0
 36 45  1  0  0  0
 38 39  1  0  0  0
 38106  1  0  0  0
 38107  1  0  0  0
 39 40  2  0  0  0
 39 41  1  0  0  0
 40 42  1  0  0  0
 40108  1  0  0  0
 41 43  2  0  0  0
 41109  1  0  0  0
 42 44  2  0  0  0
 42110  1  0  0  0
 43 44  1  0  0  0
 43111  1  0  0  0
 44112  1  0  0  0
 45 46  1  0  0  0
 45113  1  0  0  0
 46 47  1  0  0  0
 46 49  1  0  0  0
 46114  1  0  0  0
 47 48  2  0  0  0
 47 56  1  0  0  0
 49 50  1  0  0  0
 49115  1  0  0  0
 49116  1  0  0  0
 50 51  2  0  0  0
 50 52  1  0  0  0
 51 53  1  0  0  0
 51117  1  0  0  0
 52 54  2  0  0  0
 52118  1  0  0  0
 53 55  2  0  0  0
 53119  1  0  0  0
 54 55  1  0  0  0
 54120  1  0  0  0
 55121  1  0  0  0
 56 57  1  0  0  0
 56122  1  0  0  0
 57 58  1  0  0  0
 57 60  1  0  0  0
 57123  1  0  0  0
 58 59  1  0  0  0
 58 64  2  0  0  0
 60 61  1  0  0  0
 60124  1  0  0  0
 60125  1  0  0  0
 61 62  2  0  0  0
 61 63  1  0  0  0
 63126  1  0  0  0
 63127  1  0  0  0
M  CHG  4   1   1  18   1  33   1  59  -1
M  END
> <s_m_source_file>
../4fmo_ligand.sdf

> <i_m_source_file_index>
1

> <s_epik_input>
W0hdL049QyhbTkgyXSlcW05IXVtDSDJdW0NIMl1bQ0gyXVtDQEhdKFtOSF1DKD1PKVtDQEBIXShbTkgzK10pW0NASF0oW09IXSlbQ0gzXSlDKD1PKVtOSF1bQ0BASF0oW0NIMl1bT0hdKUMoPU8pW05IXVtDQEBIXShbQ0gyXVtDSDJdW0NIMl1bQ0gyXVtOSDMrXSlDKD1PKVtOSF1bQ0BASF0oW0NIMl1jMVtjSF1bY0hdW2NIXVtjSF1bY0hdMSlDKD1PKVtOSF1bQ0BIXShDKD1PKVtOSF1bQ0BIXShDKD1PKVtPSF0pW0NIMl1DKD1PKVtOSDJdKVtDSDJdYzJbY0hdW2NIXVtjSF1bY0hdW2NIXTI=

> <s_epik_cmdline>
J2VwaWtfYXBwJywgJy1pbWFlJywgJ2xpZ2FuZF9wcm8ubWFlJywgJy1vbWFlJywgJ2xpZ2FuZF9wcmVwLm1hZScsICctbXMnLCAnMScsICctcGgnLCAnNycsICctcGh0JywgJzAuNScsICctbnQn

> <r_epik_Ionization_Penalty>
  0.0822

> <r_epik_Ionization_Penalty_Charging>
  0.0822

> <r_epik_Ionization_Penalty_Neutral>
  0.0000

> <r_epik_State_Penalty>
  0.0724

> <r_epik_Charging_Adjusted_Penalty>
0.154622638123187

> <i_epik_Tot_Q>
2

> <i_epik_Tot_abs_Q>
4

> <s_epik_Chemistry_Notes>
This compound has an imine and may undergo hydrolysis.

$$$$
