4fmq_ligand
                    3D
 Schrodinger Suite 2020-3.
237236  0  0  1  0            999 V2000
  -30.0270  -15.9530   24.3030 N   0  3  0  0  0  0
  -29.1870  -17.1280   24.5050 C   0  0  2  0  0  0
  -30.0320  -18.3540   24.8440 C   0  0  0  0  0  0
  -30.1910  -18.7130   26.0110 O   0  0  0  0  0  0
  -28.1580  -16.8610   25.6060 C   0  0  0  0  0  0
  -26.8880  -16.1160   25.1770 C   0  0  0  0  0  0
  -25.7510  -17.0970   24.9360 C   0  0  0  0  0  0
  -27.1260  -15.2480   23.9430 C   0  0  0  0  0  0
  -30.5660  -18.9870   23.8030 N   0  0  0  0  0  0
  -31.4110  -20.1700   23.9390 C   0  0  2  0  0  0
  -30.7520  -21.2480   24.7760 C   0  0  0  0  0  0
  -29.6160  -21.1000   25.2260 O   0  0  0  0  0  0
  -31.6810  -20.7670   22.5580 C   0  0  0  0  0  0
  -30.5010  -21.3440   22.0200 O   0  0  0  0  0  0
  -31.4700  -22.3450   24.9770 N   0  0  0  0  0  0
  -30.8090  -23.5750   25.3480 C   0  0  2  0  0  0
  -29.8690  -23.8230   24.1780 C   0  0  0  0  0  0
  -30.2510  -23.6510   23.0200 O   0  0  0  0  0  0
  -31.8050  -24.7260   25.5120 C   0  0  0  0  0  0
  -32.3900  -25.1000   24.2750 O   0  0  0  0  0  0
  -28.6330  -24.1990   24.4730 N   0  0  0  0  0  0
  -27.6480  -24.4580   23.4250 C   0  0  2  0  0  0
  -28.1820  -25.4470   22.3860 C   0  0  0  0  0  0
  -27.5380  -25.6930   21.3680 O   0  0  0  0  0  0
  -26.3500  -25.0030   24.0270 C   0  0  0  0  0  0
  -26.2020  -24.9750   25.5510 C   0  0  0  0  0  0
  -25.0600  -25.8700   25.9910 C   0  0  0  0  0  0
  -25.9990  -23.5520   26.0590 C   0  0  0  0  0  0
  -29.3560  -26.0130   22.6570 N   0  0  0  0  0  0
  -29.9940  -26.9870   21.7750 C   0  0  2  0  0  0
  -30.0980  -26.5510   20.3100 C   0  0  0  0  0  0
  -30.1220  -27.3950   19.4150 O   0  0  0  0  0  0
  -31.3750  -27.3310   22.3120 C   0  0  0  0  0  0
  -30.1660  -25.2470   20.0580 N   0  0  0  0  0  0
  -30.3360  -24.7530   18.6900 C   0  0  2  0  0  0
  -28.9970  -24.5850   17.9680 C   0  0  0  0  0  0
  -28.9520  -24.4640   16.7430 O   0  0  0  0  0  0
  -31.1060  -23.4400   18.6950 C   0  0  0  0  0  0
  -27.9140  -24.5760   18.7370 N   0  0  0  0  0  0
  -26.5640  -24.4660   18.1890 C   0  0  2  0  0  0
  -26.2130  -25.7200   17.3880 C   0  0  0  0  0  0
  -26.4430  -26.8380   17.8460 O   0  0  0  0  0  0
  -25.5600  -24.2750   19.3260 C   0  0  0  0  0  0
  -24.4210  -23.5600   18.8880 O   0  0  0  0  0  0
  -25.6540  -25.5350   16.1960 N   0  0  0  0  0  0
  -25.4290  -26.6530   15.2820 C   0  0  2  0  0  0
  -24.3620  -27.6220   15.7950 C   0  0  0  0  0  0
  -24.4590  -28.8270   15.5740 O   0  0  0  0  0  0
  -25.0400  -26.1390   13.8930 C   0  0  0  0  0  0
  -23.7080  -25.6490   13.8730 O   0  0  0  0  0  0
  -23.3440  -27.0940   16.4690 N   0  0  0  0  0  0
  -22.2540  -27.9190   16.9860 C   0  0  2  0  0  0
  -22.7560  -28.8040   18.1190 C   0  0  0  0  0  0
  -22.5000  -30.0070   18.1410 O   0  0  0  0  0  0
  -21.1010  -27.0330   17.4730 C   0  0  0  0  0  0
  -19.8290  -27.7070   17.9970 C   0  0  0  0  0  0
  -19.2270  -28.6520   16.9670 C   0  0  0  0  0  0
  -18.8160  -26.6430   18.4030 C   0  0  0  0  0  0
  -23.4690  -28.1970   19.0630 N   0  0  0  0  0  0
  -24.0600  -28.9320   20.1730 C   0  0  2  0  0  0
  -25.0400  -29.9780   19.6470 C   0  0  0  0  0  0
  -25.2110  -31.0400   20.2440 O   0  0  0  0  0  0
  -24.7640  -27.9750   21.1130 C   0  0  0  0  0  0
  -25.6790  -29.6680   18.5230 N   0  0  0  0  0  0
  -26.6040  -30.5940   17.8840 C   0  0  2  0  0  0
  -25.8580  -31.7780   17.2770 C   0  0  0  0  0  0
  -26.3480  -32.9070   17.3010 O   0  0  0  0  0  0
  -27.4160  -29.8720   16.8070 C   0  0  0  0  0  0
  -28.7350  -29.3100   17.3070 C   0  0  0  0  0  0
  -29.3030  -28.2650   16.3560 C   0  0  0  0  0  0
  -29.0310  -28.6140   14.9010 C   0  0  0  0  0  0
  -29.7890  -27.7390   13.9640 N   0  3  0  0  0  0
  -24.6740  -31.5180   16.7310 N   0  0  0  0  0  0
  -23.8600  -32.5810   16.1510 C   0  0  2  0  0  0
  -23.3560  -33.5200   17.2420 C   0  0  0  0  0  0
  -23.1410  -34.7090   17.0050 O   0  0  0  0  0  0
  -22.6770  -32.0000   15.3750 C   0  0  0  0  0  0
  -23.0760  -31.2050   14.1470 C   0  0  0  0  0  0
  -22.0360  -31.3280   13.0470 C   0  0  0  0  0  0
  -20.7290  -30.8180   13.4550 N   0  0  0  0  0  0
  -20.3450  -29.5500   13.3290 C   0  0  0  0  0  0
  -21.1680  -28.6460   12.8140 N   0  0  0  0  0  0
  -19.1340  -29.1810   13.7240 N   0  0  0  0  0  0
  -23.1790  -32.9790   18.4420 N   0  0  0  0  0  0
  -22.6940  -33.7610   19.5710 C   0  0  2  0  0  0
  -23.8440  -34.5140   20.2360 C   0  0  0  0  0  0
  -23.6240  -35.4830   20.9650 O   0  0  0  0  0  0
  -21.9960  -32.8500   20.5850 C   0  0  0  0  0  0
  -20.7890  -32.1010   20.0210 C   0  0  0  0  0  0
  -19.6550  -33.0470   19.6530 C   0  0  0  0  0  0
  -18.4830  -32.3300   19.1530 N   0  0  0  0  0  0
  -18.2140  -32.1290   17.8660 C   0  0  0  0  0  0
  -19.0290  -32.5950   16.9270 N   0  0  0  0  0  0
  -17.1220  -31.4630   17.5150 N   0  0  0  0  0  0
  -25.0690  -34.0690   19.9710 N   0  0  0  0  0  0
  -26.2650  -34.7460   20.4640 C   0  0  2  0  0  0
  -26.5470  -36.0200   19.6720 C   0  0  0  0  0  0
  -27.6860  -36.4820   19.6140 O   0  0  0  0  0  0
  -27.4780  -33.8140   20.3780 C   0  0  0  0  0  0
  -27.5730  -32.7940   21.5030 C   0  0  0  0  0  0
  -28.5940  -31.7080   21.2170 C   0  0  0  0  0  0
  -29.1570  -31.6430   20.1240 O   0  0  0  0  0  0
  -28.8350  -30.8470   22.1990 N   0  0  0  0  0  0
  -25.5080  -36.5810   19.0600 N   0  0  0  0  0  0
  -25.6460  -37.8070   18.2850 C   0  0  2  0  0  0
  -24.6590  -38.8660   18.7700 C   0  0  0  0  0  0
  -24.7736  -39.3754   19.9167 O   0  0  0  0  0  0
  -25.4160  -37.5220   16.8010 C   0  0  0  0  0  0
  -26.3680  -36.4960   16.2070 C   0  0  0  0  0  0
  -26.1970  -36.3510   14.7090 C   0  0  0  0  0  0
  -26.1570  -37.3420   13.9790 O   0  0  0  0  0  0
  -26.0880  -35.1120   14.2410 N   0  0  0  0  0  0
  -23.7197  -39.2345   18.0154 O   0  0  0  0  0  0
  -30.7609  -16.1589   23.5100 H   0  0  0  0  0  0
  -29.3988  -15.0994   24.0085 H   0  0  0  0  0  0
  -30.5548  -15.7145   25.2382 H   0  0  0  0  0  0
  -28.6780  -17.2956   23.5444 H   0  0  0  0  0  0
  -28.6172  -16.2492   26.3964 H   0  0  0  0  0  0
  -27.8204  -17.8173   26.0321 H   0  0  0  0  0  0
  -26.5971  -15.4432   25.9972 H   0  0  0  0  0  0
  -25.5985  -17.7099   25.8366 H   0  0  0  0  0  0
  -24.8290  -16.5413   24.7102 H   0  0  0  0  0  0
  -26.0033  -17.7493   24.0869 H   0  0  0  0  0  0
  -27.9511  -14.5479   24.1408 H   0  0  0  0  0  0
  -27.3863  -15.8895   23.0882 H   0  0  0  0  0  0
  -26.2120  -14.6815   23.7114 H   0  0  0  0  0  0
  -30.3455  -18.5804   22.8050 H   0  0  0  0  0  0
  -32.3205  -19.8074   24.4402 H   0  0  0  0  0  0
  -32.4520  -21.5472   22.6402 H   0  0  0  0  0  0
  -32.0309  -19.9759   21.8785 H   0  0  0  0  0  0
  -30.5238  -21.8187   21.0280 H   0  0  0  0  0  0
  -32.5638  -22.3213   24.8625 H   0  0  0  0  0  0
  -30.3040  -23.4560   26.3179 H   0  0  0  0  0  0
  -31.2867  -25.6031   25.9269 H   0  0  0  0  0  0
  -32.6107  -24.4192   26.1951 H   0  0  0  0  0  0
  -33.1268  -25.9160   24.2394 H   0  0  0  0  0  0
  -28.3542  -24.3152   25.5307 H   0  0  0  0  0  0
  -27.4781  -23.4779   22.9553 H   0  0  0  0  0  0
  -26.2309  -26.0598   23.7459 H   0  0  0  0  0  0
  -25.4968  -24.4235   23.6446 H   0  0  0  0  0  0
  -27.1297  -25.3625   25.9974 H   0  0  0  0  0  0
  -25.2272  -26.8898   25.6140 H   0  0  0  0  0  0
  -25.0112  -25.8887   27.0898 H   0  0  0  0  0  0
  -24.1131  -25.4808   25.5885 H   0  0  0  0  0  0
  -26.8377  -22.9216   25.7286 H   0  0  0  0  0  0
  -25.0574  -23.1499   25.6568 H   0  0  0  0  0  0
  -25.9555  -23.5578   27.1581 H   0  0  0  0  0  0
  -29.8474  -25.7159   23.5952 H   0  0  0  0  0  0
  -29.3101  -27.8477   21.8121 H   0  0  0  0  0  0
  -31.2922  -27.6429   23.3636 H   0  0  0  0  0  0
  -31.8051  -28.1515   21.7189 H   0  0  0  0  0  0
  -32.0263  -26.4473   22.2418 H   0  0  0  0  0  0
  -30.0927  -24.5362   20.8943 H   0  0  0  0  0  0
  -30.9190  -25.5317   18.1764 H   0  0  0  0  0  0
  -32.0642  -23.5789   19.2171 H   0  0  0  0  0  0
  -31.2955  -23.1222   17.6591 H   0  0  0  0  0  0
  -30.5147  -22.6702   19.2124 H   0  0  0  0  0  0
  -28.0615  -24.6554   19.8242 H   0  0  0  0  0  0
  -26.5677  -23.5875   17.5270 H   0  0  0  0  0  0
  -26.0345  -23.7123   20.1435 H   0  0  0  0  0  0
  -25.2355  -25.2581   19.6977 H   0  0  0  0  0  0
  -23.6047  -23.3411   19.5921 H   0  0  0  0  0  0
  -25.3591  -24.5167   15.9025 H   0  0  0  0  0  0
  -26.3971  -27.1744   15.2521 H   0  0  0  0  0  0
  -25.1202  -26.9581   13.1632 H   0  0  0  0  0  0
  -25.7158  -25.3213   13.6021 H   0  0  0  0  0  0
  -23.2845  -25.2451   12.9416 H   0  0  0  0  0  0
  -23.3363  -26.0064   16.6336 H   0  0  0  0  0  0
  -21.9201  -28.5472   16.1471 H   0  0  0  0  0  0
  -20.7580  -26.3913   16.6480 H   0  0  0  0  0  0
  -21.4482  -26.4046   18.3064 H   0  0  0  0  0  0
  -20.0916  -28.3141   18.8759 H   0  0  0  0  0  0
  -19.9717  -29.4115   16.6868 H   0  0  0  0  0  0
  -18.3426  -29.1462   17.3955 H   0  0  0  0  0  0
  -18.9316  -28.0813   16.0743 H   0  0  0  0  0  0
  -19.2686  -25.9706   19.1467 H   0  0  0  0  0  0
  -18.5187  -26.0628   17.5170 H   0  0  0  0  0  0
  -17.9297  -27.1277   18.8383 H   0  0  0  0  0  0
  -23.6070  -27.1082   18.9888 H   0  0  0  0  0  0
  -23.2296  -29.4228   20.7018 H   0  0  0  0  0  0
  -24.0452  -27.2288   21.4826 H   0  0  0  0  0  0
  -25.1802  -28.5356   21.9630 H   0  0  0  0  0  0
  -25.5777  -27.4657   20.5759 H   0  0  0  0  0  0
  -25.4927  -28.6804   18.0759 H   0  0  0  0  0  0
  -27.2647  -30.9509   18.6878 H   0  0  0  0  0  0
  -26.8313  -29.0287   16.4107 H   0  0  0  0  0  0
  -27.6481  -30.5727   15.9914 H   0  0  0  0  0  0
  -29.4682  -30.1245   17.4019 H   0  0  0  0  0  0
  -28.5835  -28.8369   18.2884 H   0  0  0  0  0  0
  -30.3919  -28.1956   16.4956 H   0  0  0  0  0  0
  -28.8432  -27.2883   16.5674 H   0  0  0  0  0  0
  -27.9582  -28.4942   14.6896 H   0  0  0  0  0  0
  -29.3277  -29.6563   14.7123 H   0  0  0  0  0  0
  -29.5612  -28.0277   12.9273 H   0  0  0  0  0  0
  -29.4980  -26.6905   14.1250 H   0  0  0  0  0  0
  -30.8676  -27.8526   14.1477 H   0  0  0  0  0  0
  -24.3108  -30.4797   16.7215 H   0  0  0  0  0  0
  -24.5290  -33.1213   15.4651 H   0  0  0  0  0  0
  -22.1065  -31.3236   16.0285 H   0  0  0  0  0  0
  -22.0246  -32.8177   15.0346 H   0  0  0  0  0  0
  -24.0364  -31.5800   13.7636 H   0  0  0  0  0  0
  -23.1776  -30.1430   14.4148 H   0  0  0  0  0  0
  -21.9164  -32.3864   12.7722 H   0  0  0  0  0  0
  -22.3638  -30.7555   12.1668 H   0  0  0  0  0  0
  -19.9876  -31.4981   13.8996 H   0  0  0  0  0  0
  -22.1743  -28.9432   12.4838 H   0  0  0  0  0  0
  -20.8441  -27.5992   12.7172 H   0  0  0  0  0  0
  -18.4450  -29.9239   14.1522 H   0  0  0  0  0  0
  -23.4091  -31.9111   18.5710 H   0  0  0  0  0  0
  -21.9766  -34.4807   19.1499 H   0  0  0  0  0  0
  -22.7068  -32.0931   20.9480 H   0  0  0  0  0  0
  -21.6370  -33.4522   21.4327 H   0  0  0  0  0  0
  -21.0880  -31.5531   19.1152 H   0  0  0  0  0  0
  -20.4145  -31.3904   20.7725 H   0  0  0  0  0  0
  -19.3530  -33.6206   20.5417 H   0  0  0  0  0  0
  -19.9947  -33.7388   18.8681 H   0  0  0  0  0  0
  -17.7502  -31.9134   19.8597 H   0  0  0  0  0  0
  -19.9363  -33.1482   17.2113 H   0  0  0  0  0  0
  -18.7969  -32.4279   15.8648 H   0  0  0  0  0  0
  -16.4426  -31.0743   18.2879 H   0  0  0  0  0  0
  -25.1644  -33.1600   19.3590 H   0  0  0  0  0  0
  -26.0370  -35.0014   21.5094 H   0  0  0  0  0  0
  -27.4390  -33.2475   19.4359 H   0  0  0  0  0  0
  -28.4017  -34.4105   20.4091 H   0  0  0  0  0  0
  -27.8688  -33.3008   22.4334 H   0  0  0  0  0  0
  -26.5948  -32.3110   21.6436 H   0  0  0  0  0  0
  -28.3069  -30.9456   23.1589 H   0  0  0  0  0  0
  -29.5628  -30.0353   22.0525 H   0  0  0  0  0  0
  -24.5253  -36.0952   19.1504 H   0  0  0  0  0  0
  -26.6769  -38.1509   18.4554 H   0  0  0  0  0  0
  -24.0558  -40.1376   20.2542 H   0  0  0  0  0  0
  -24.3959  -37.1371   16.6554 H   0  0  0  0  0  0
  -25.5432  -38.4506   16.2253 H   0  0  0  0  0  0
  -27.4061  -36.8026   16.4028 H   0  0  0  0  0  0
  -26.1826  -35.5142   16.6671 H   0  0  0  0  0  0
  -26.1296  -34.2573   14.9322 H   0  0  0  0  0  0
  -25.9562  -34.9411   13.1624 H   0  0  0  0  0  0
  1  2  1  0  0  0
  1114  1  0  0  0
  1115  1  0  0  0
  1116  1  0  0  0
  2  3  1  0  0  0
  2  5  1  0  0  0
  2117  1  0  0  0
  3  4  2  0  0  0
  3  9  1  0  0  0
  5  6  1  0  0  0
  5118  1  0  0  0
  5119  1  0  0  0
  6  7  1  0  0  0
  6  8  1  0  0  0
  6120  1  0  0  0
  7121  1  0  0  0
  7122  1  0  0  0
  7123  1  0  0  0
  8124  1  0  0  0
  8125  1  0  0  0
  8126  1  0  0  0
  9 10  1  0  0  0
  9127  1  0  0  0
 10 11  1  0  0  0
 10 13  1  0  0  0
 10128  1  0  0  0
 11 12  2  0  0  0
 11 15  1  0  0  0
 13 14  1  0  0  0
 13129  1  0  0  0
 13130  1  0  0  0
 14131  1  0  0  0
 15 16  1  0  0  0
 15132  1  0  0  0
 16 17  1  0  0  0
 16 19  1  0  0  0
 16133  1  0  0  0
 17 18  2  0  0  0
 17 21  1  0  0  0
 19 20  1  0  0  0
 19134  1  0  0  0
 19135  1  0  0  0
 20136  1  0  0  0
 21 22  1  0  0  0
 21137  1  0  0  0
 22 23  1  0  0  0
 22 25  1  0  0  0
 22138  1  0  0  0
 23 24  2  0  0  0
 23 29  1  0  0  0
 25 26  1  0  0  0
 25139  1  0  0  0
 25140  1  0  0  0
 26 27  1  0  0  0
 26 28  1  0  0  0
 26141  1  0  0  0
 27142  1  0  0  0
 27143  1  0  0  0
 27144  1  0  0  0
 28145  1  0  0  0
 28146  1  0  0  0
 28147  1  0  0  0
 29 30  1  0  0  0
 29148  1  0  0  0
 30 31  1  0  0  0
 30 33  1  0  0  0
 30149  1  0  0  0
 31 32  2  0  0  0
 31 34  1  0  0  0
 33150  1  0  0  0
 33151  1  0  0  0
 33152  1  0  0  0
 34 35  1  0  0  0
 34153  1  0  0  0
 35 36  1  0  0  0
 35 38  1  0  0  0
 35154  1  0  0  0
 36 37  2  0  0  0
 36 39  1  0  0  0
 38155  1  0  0  0
 38156  1  0  0  0
 38157  1  0  0  0
 39 40  1  0  0  0
 39158  1  0  0  0
 40 41  1  0  0  0
 40 43  1  0  0  0
 40159  1  0  0  0
 41 42  2  0  0  0
 41 45  1  0  0  0
 43 44  1  0  0  0
 43160  1  0  0  0
 43161  1  0  0  0
 44162  1  0  0  0
 45 46  1  0  0  0
 45163  1  0  0  0
 46 47  1  0  0  0
 46 49  1  0  0  0
 46164  1  0  0  0
 47 48  2  0  0  0
 47 51  1  0  0  0
 49 50  1  0  0  0
 49165  1  0  0  0
 49166  1  0  0  0
 50167  1  0  0  0
 51 52  1  0  0  0
 51168  1  0  0  0
 52 53  1  0  0  0
 52 55  1  0  0  0
 52169  1  0  0  0
 53 54  2  0  0  0
 53 59  1  0  0  0
 55 56  1  0  0  0
 55170  1  0  0  0
 55171  1  0  0  0
 56 57  1  0  0  0
 56 58  1  0  0  0
 56172  1  0  0  0
 57173  1  0  0  0
 57174  1  0  0  0
 57175  1  0  0  0
 58176  1  0  0  0
 58177  1  0  0  0
 58178  1  0  0  0
 59 60  1  0  0  0
 59179  1  0  0  0
 60 61  1  0  0  0
 60 63  1  0  0  0
 60180  1  0  0  0
 61 62  2  0  0  0
 61 64  1  0  0  0
 63181  1  0  0  0
 63182  1  0  0  0
 63183  1  0  0  0
 64 65  1  0  0  0
 64184  1  0  0  0
 65 66  1  0  0  0
 65 68  1  0  0  0
 65185  1  0  0  0
 66 67  2  0  0  0
 66 73  1  0  0  0
 68 69  1  0  0  0
 68186  1  0  0  0
 68187  1  0  0  0
 69 70  1  0  0  0
 69188  1  0  0  0
 69189  1  0  0  0
 70 71  1  0  0  0
 70190  1  0  0  0
 70191  1  0  0  0
 71 72  1  0  0  0
 71192  1  0  0  0
 71193  1  0  0  0
 72194  1  0  0  0
 72195  1  0  0  0
 72196  1  0  0  0
 73 74  1  0  0  0
 73197  1  0  0  0
 74 75  1  0  0  0
 74 77  1  0  0  0
 74198  1  0  0  0
 75 76  2  0  0  0
 75 84  1  0  0  0
 77 78  1  0  0  0
 77199  1  0  0  0
 77200  1  0  0  0
 78 79  1  0  0  0
 78201  1  0  0  0
 78202  1  0  0  0
 79 80  1  0  0  0
 79203  1  0  0  0
 79204  1  0  0  0
 80 81  1  0  0  0
 80205  1  0  0  0
 81 82  1  0  0  0
 81 83  2  0  0  0
 82206  1  0  0  0
 82207  1  0  0  0
 83208  1  0  0  0
 84 85  1  0  0  0
 84209  1  0  0  0
 85 86  1  0  0  0
 85 88  1  0  0  0
 85210  1  0  0  0
 86 87  2  0  0  0
 86 95  1  0  0  0
 88 89  1  0  0  0
 88211  1  0  0  0
 88212  1  0  0  0
 89 90  1  0  0  0
 89213  1  0  0  0
 89214  1  0  0  0
 90 91  1  0  0  0
 90215  1  0  0  0
 90216  1  0  0  0
 91 92  1  0  0  0
 91217  1  0  0  0
 92 93  1  0  0  0
 92 94  2  0  0  0
 93218  1  0  0  0
 93219  1  0  0  0
 94220  1  0  0  0
 95 96  1  0  0  0
 95221  1  0  0  0
 96 97  1  0  0  0
 96 99  1  0  0  0
 96222  1  0  0  0
 97 98  2  0  0  0
 97104  1  0  0  0
 99100  1  0  0  0
 99223  1  0  0  0
 99224  1  0  0  0
100101  1  0  0  0
100225  1  0  0  0
100226  1  0  0  0
101102  2  0  0  0
101103  1  0  0  0
103227  1  0  0  0
103228  1  0  0  0
104105  1  0  0  0
104229  1  0  0  0
105106  1  0  0  0
105108  1  0  0  0
105230  1  0  0  0
106107  1  0  0  0
106113  2  0  0  0
107231  1  0  0  0
108109  1  0  0  0
108232  1  0  0  0
108233  1  0  0  0
109110  1  0  0  0
109234  1  0  0  0
109235  1  0  0  0
110111  2  0  0  0
110112  1  0  0  0
112236  1  0  0  0
112237  1  0  0  0
M  CHG  2   1   1  72   1
M  END
> <s_m_source_file>
../4fmq_ligand.sdf

> <i_m_source_file_index>
1

> <s_epik_input>
W0NIM11bQ0hdKFtDSDNdKVtDSDJdW0NASF0oW05IMytdKUMoPU8pW05IXVtDQEBIXShbQ0gyXVtPSF0pQyg9TylbTkhdW0NAQEhdKFtDSDJdW09IXSlDKD1PKVtOSF1bQ0BASF0oW0NIMl1bQ0hdKFtDSDNdKVtDSDNdKUMoPU8pW05IXVtDQEBIXShbQ0gzXSlDKD1PKVtOSF1bQ0BASF0oW0NIM10pQyg9TylbTkhdW0NAQEhdKFtDSDJdW09IXSlDKD1PKVtOSF1bQ0BASF0oW0NIMl1bT0hdKUMoPU8pW05IXVtDQEBIXShbQ0gyXVtDSF0oW0NIM10pW0NIM10pQyg9TylbTkhdW0NAQEhdKFtDSDNdKUMoPU8pW05IXVtDQEBIXShbQ0gyXVtDSDJdW0NIMl1bQ0gyXVtOSDMrXSlDKD1PKVtOSF1bQ0BASF0oW0NIMl1bQ0gyXVtDSDJdW05IXS9DKFtOSDJdKT1OXFtIXSlDKD1PKVtOSF1bQ0BASF0oW0NIMl1bQ0gyXVtDSDJdW05IXS9DKFtOSDJdKT1OXFtIXSlDKD1PKVtOSF1bQ0BASF0oW0NIMl1bQ0gyXUMoPU8pW05IMl0pQyg9TylbTkhdW0NASF0oQyg9TylbT0hdKVtDSDJdW0NIMl1DKD1PKVtOSDJd

> <s_epik_cmdline>
J2VwaWtfYXBwJywgJy1pbWFlJywgJ2xpZ2FuZF9wcm8ubWFlJywgJy1vbWFlJywgJ2xpZ2FuZF9wcmVwLm1hZScsICctbXMnLCAnMScsICctcGgnLCAnNycsICctcGh0JywgJzAuNScsICctbnQn

> <s_epik_pKa_notes>
Molecule size exceeds maximum supported for generating protonation states

> <s_epik_Chemistry_Notes>
This compound has an imine and may undergo hydrolysis.

$$$$
