4fmu_ligand
                    3D
 Schrodinger Suite 2020-3.
 60 62  0  0  1  0            999 V2000
   -1.1980   31.2530   18.2360 C   0  0  0  0  0  0
    0.1390   31.1310   18.1530 C   0  0  0  0  0  0
    0.9210   32.2130   18.3790 C   0  0  0  0  0  0
   -0.7370   29.2000   17.6990 C   0  0  0  0  0  0
    0.3880   33.4150   18.6430 N   0  0  0  0  0  0
   -1.7990   32.4360   18.5550 N   0  0  0  0  0  0
   -5.9570   25.9460   21.8640 O   0  0  0  0  0  0
   -5.7800   25.4600   20.7410 C   0  0  0  0  0  0
   -4.5970   26.0170   19.8890 C   0  0  1  0  0  0
   -3.6480   26.8240   20.6790 N   0  3  0  0  0  0
   -3.8610   24.8700   19.2060 C   0  0  0  0  0  0
   -2.9560   25.3050   18.0360 C   0  0  0  0  0  0
   -3.7340   25.5250   16.7020 C   0  0  2  0  0  0
   -3.5760   24.3600   15.8090 N   0  3  0  0  0  0
   -2.2940   24.2010   15.0770 C   0  0  0  0  0  0
   -2.3790   22.9280   14.2270 C   0  0  0  0  0  0
   -1.1180   22.7260   13.3880 C   0  0  0  0  0  0
   -3.3110   26.8450   15.9670 C   0  0  0  0  0  0
   -3.9730   28.0880   16.5540 C   0  0  1  0  0  0
   -3.3880   28.3950   17.8390 O   0  0  0  0  0  0
   -3.6860   29.2800   15.6640 C   0  0  1  0  0  0
   -4.7150   29.3510   14.7190 O   0  0  0  0  0  0
   -3.7840   30.4310   16.6450 C   0  0  1  0  0  0
   -5.1400   30.7550   16.8870 O   0  0  0  0  0  0
   -3.1830   29.8210   17.9410 C   0  0  2  0  0  0
   -1.7210   30.0490   18.0160 N   0  0  0  0  0  0
    0.4080   29.8600   17.8120 N   0  0  0  0  0  0
   -0.9990   33.5510   18.7760 C   0  0  0  0  0  0
    2.2420   32.0820   18.2570 N   0  0  0  0  0  0
   -6.5570   24.6200   20.2260 O   0  5  0  0  0  0
   -0.8545   28.1577   17.4024 H   0  0  0  0  0  0
   -4.9898   26.7189   19.1386 H   0  0  0  0  0  0
   -4.1868   27.6489   21.1682 H   0  0  0  0  0  0
   -2.8740   27.2349   20.0141 H   0  0  0  0  0  0
   -3.1756   26.1900   21.4438 H   0  0  0  0  0  0
   -3.2178   24.3595   19.9380 H   0  0  0  0  0  0
   -4.5920   24.1558   18.7993 H   0  0  0  0  0  0
   -2.4592   26.2531   18.2896 H   0  0  0  0  0  0
   -2.1965   24.5307   17.8524 H   0  0  0  0  0  0
   -4.8080   25.5764   16.9343 H   0  0  0  0  0  0
   -3.6846   23.4336   16.3921 H   0  0  0  0  0  0
   -4.3466   24.3920   15.0247 H   0  0  0  0  0  0
   -2.1300   25.0757   14.4305 H   0  0  0  0  0  0
   -1.4677   24.1182   15.7984 H   0  0  0  0  0  0
   -2.5014   22.0552   14.8852 H   0  0  0  0  0  0
   -3.2407   22.9980   13.5469 H   0  0  0  0  0  0
   -1.2165   21.8055   12.7938 H   0  0  0  0  0  0
   -0.2452   22.6421   14.0522 H   0  0  0  0  0  0
   -0.9846   23.5850   12.7140 H   0  0  0  0  0  0
   -2.2217   26.9758   16.0463 H   0  0  0  0  0  0
   -3.5965   26.7819   14.9066 H   0  0  0  0  0  0
   -5.0498   27.9083   16.6888 H   0  0  0  0  0  0
   -2.7659   29.2605   15.0615 H   0  0  0  0  0  0
   -4.7910   28.5881   13.9302 H   0  0  0  0  0  0
   -3.3526   31.3745   16.2793 H   0  0  0  0  0  0
   -5.7496   31.2024   16.0881 H   0  0  0  0  0  0
   -3.6370   30.2279   18.8566 H   0  0  0  0  0  0
   -1.4416   34.5096   19.0467 H   0  0  0  0  0  0
    2.6793   31.0961   18.0405 H   0  0  0  0  0  0
    2.8948   32.9598   18.3729 H   0  0  0  0  0  0
  1  2  2  0  0  0
  1  6  1  0  0  0
  1 26  1  0  0  0
  2  3  1  0  0  0
  2 27  1  0  0  0
  3  5  2  0  0  0
  3 29  1  0  0  0
  4 26  1  0  0  0
  4 27  2  0  0  0
  4 31  1  0  0  0
  5 28  1  0  0  0
  6 28  2  0  0  0
  7  8  2  0  0  0
  8  9  1  0  0  0
  8 30  1  0  0  0
  9 10  1  0  0  0
  9 11  1  0  0  0
  9 32  1  0  0  0
 10 33  1  0  0  0
 10 34  1  0  0  0
 10 35  1  0  0  0
 11 12  1  0  0  0
 11 36  1  0  0  0
 11 37  1  0  0  0
 12 13  1  0  0  0
 12 38  1  0  0  0
 12 39  1  0  0  0
 13 14  1  0  0  0
 13 18  1  0  0  0
 13 40  1  0  0  0
 14 15  1  0  0  0
 14 41  1  0  0  0
 14 42  1  0  0  0
 15 16  1  0  0  0
 15 43  1  0  0  0
 15 44  1  0  0  0
 16 17  1  0  0  0
 16 45  1  0  0  0
 16 46  1  0  0  0
 17 47  1  0  0  0
 17 48  1  0  0  0
 17 49  1  0  0  0
 18 19  1  0  0  0
 18 50  1  0  0  0
 18 51  1  0  0  0
 19 20  1  0  0  0
 19 21  1  0  0  0
 19 52  1  0  0  0
 20 25  1  0  0  0
 21 22  1  0  0  0
 21 23  1  0  0  0
 21 53  1  0  0  0
 22 54  1  0  0  0
 23 24  1  0  0  0
 23 25  1  0  0  0
 23 55  1  0  0  0
 24 56  1  0  0  0
 25 26  1  0  0  0
 25 57  1  0  0  0
 28 58  1  0  0  0
 29 59  1  0  0  0
 29 60  1  0  0  0
M  CHG  3  10   1  14   1  30  -1
M  END
> <s_m_source_file>
../4fmu_ligand.sdf

> <i_m_source_file_index>
1

> <s_epik_input>
bjFbY0hdbmMoW05IMl0pYyhjMTIpbltjSF1uMltDQEBIXShbQ0BIXShbT0hdKVtDQEBIXTNbT0hdKU9bQ0BASF0zW0NIMl1bQ0BASF0oW05IMitdW0NIMl1bQ0gyXVtDSDNdKVtDSDJdW0NIMl1bQ0BIXShbTkgzK10pQyg9TylbT0hd

> <s_epik_cmdline>
J2VwaWtfYXBwJywgJy1pbWFlJywgJ2xpZ2FuZF9wcm8ubWFlJywgJy1vbWFlJywgJ2xpZ2FuZF9wcmVwLm1hZScsICctbXMnLCAnMScsICctcGgnLCAnNycsICctcGh0JywgJzAuNScsICctbnQn

> <r_lp_tautomer_probability>
1

> <r_epik_Ionization_Penalty>
  0.0032

> <r_epik_Ionization_Penalty_Charging>
  0.0028

> <r_epik_Ionization_Penalty_Neutral>
  0.0004

> <r_epik_State_Penalty>
 -0.0000

> <r_epik_Charging_Adjusted_Penalty>
0.00280300580041005

> <i_epik_Tot_Q>
1

> <i_epik_Tot_abs_Q>
3

> <s_epik_Chemistry_Notes>
This compound contains an acetal/aminal-like group ( X-CH(R)-Y where X, Y are N, S, or O) that may be acid/base labile, releasing an aldehyde.

$$$$
