4fn5_ligand
                    3D
 Schrodinger Suite 2020-3.
105110  0  0  1  0            999 V2000
  -58.6110  -37.2680  -17.2200 N   0  0  0  0  0  0
  -59.7660  -36.3750  -17.3040 C   0  0  2  0  0  0
  -59.5870  -35.4750  -18.5340 C   0  0  0  0  0  0
  -59.8400  -35.5770  -16.0140 C   0  0  0  0  0  0
  -59.0590  -34.5200  -15.8000 N   0  0  0  0  0  0
  -59.2630  -33.9000  -14.5620 C   0  0  0  0  0  0
  -58.4580  -32.7350  -14.1050 C   0  0  0  0  0  0
  -58.7560  -32.0230  -13.1360 O   0  0  0  0  0  0
  -60.1610  -34.5530  -13.7740 C   0  0  0  0  0  0
  -60.8640  -35.9020  -14.5970 S   0  0  0  0  0  0
  -57.3550  -32.5880  -14.8460 N   0  0  0  0  0  0
  -56.2880  -31.6250  -14.6730 C   0  0  2  0  0  0
  -55.6610  -31.2420  -16.0260 C   0  0  0  0  0  0
  -56.0100  -31.8280  -17.0730 O   0  0  0  0  0  0
  -55.3100  -32.2900  -13.6970 C   0  0  0  0  0  0
  -54.6210  -33.5180  -14.2200 C   0  0  0  0  0  0
  -55.1990  -34.6700  -14.6680 C   0  0  0  0  0  0
  -53.1980  -33.6520  -14.4670 C   0  0  0  0  0  0
  -54.2180  -35.5100  -15.1360 N   0  3  0  0  0  0
  -52.9670  -34.9460  -15.0260 C   0  0  0  0  0  0
  -52.0930  -32.8090  -14.2400 C   0  0  0  0  0  0
  -51.6780  -35.4080  -15.3120 C   0  0  0  0  0  0
  -50.7900  -33.2690  -14.4790 C   0  0  0  0  0  0
  -50.5930  -34.5570  -15.0320 C   0  0  0  0  0  0
  -54.0960  -28.7140  -13.2740 O   0  0  0  0  0  0
  -50.7860  -29.1340  -16.1750 C   0  0  0  0  0  0
  -50.5710  -29.6380  -13.9790 C   0  0  0  0  0  0
  -50.1130  -30.0290  -12.7100 C   0  0  0  0  0  0
  -50.9810  -29.9940  -11.6100 C   0  0  0  0  0  0
  -52.3100  -29.5620  -11.7980 C   0  0  0  0  0  0
  -52.7960  -29.1410  -13.0810 C   0  0  0  0  0  0
  -51.9230  -29.1970  -14.2250 C   0  0  0  0  0  0
  -55.0170  -28.7190  -12.1830 C   0  0  0  0  0  0
  -53.1920  -30.6220  -17.9500 C   0  0  0  0  0  0
  -54.0030  -29.6260  -17.0890 C   0  0  2  0  0  0
  -53.1580  -28.4620  -16.5140 C   0  0  0  0  0  0
  -52.0050  -28.8770  -15.6550 C   0  0  0  0  0  0
  -54.7410  -30.2440  -15.9810 N   0  0  0  0  0  0
  -52.9690  -30.3710  -19.1320 O   0  0  0  0  0  0
  -49.9400  -29.5900  -15.2000 N   0  0  0  0  0  0
  -52.7700  -31.7480  -17.3510 N   0  0  0  0  0  0
  -51.9960  -32.8240  -17.9650 C   0  0  0  0  0  0
  -52.8130  -33.7930  -18.8170 C   0  0  0  0  0  0
  -52.2070  -34.7330  -19.3380 O   0  0  0  0  0  0
  -54.1480  -33.5990  -18.9540 N   0  0  0  0  0  0
  -55.1340  -34.4280  -19.6630 C   0  0  1  0  0  0
  -55.3110  -35.7230  -18.8390 C   0  0  0  0  0  0
  -56.3490  -35.9590  -18.2380 O   0  0  0  0  0  0
  -56.4580  -33.6320  -19.7220 C   0  0  0  0  0  0
  -56.7820  -33.1030  -21.1150 C   0  0  0  0  0  0
  -54.2470  -36.5300  -18.7790 N   0  0  0  0  0  0
  -54.0900  -37.7370  -18.1040 C   0  0  0  0  0  0
  -52.9840  -38.4510  -18.3680 C   0  0  0  0  0  0
  -55.0840  -38.1970  -17.1160 C   0  0  0  0  0  0
  -54.9550  -37.8940  -15.9300 O   0  0  0  0  0  0
  -56.1920  -38.8650  -17.5540 N   0  0  0  0  0  0
  -57.2230  -39.2690  -16.5780 C   0  0  0  0  0  0
  -58.5400  -38.4700  -16.6130 C   0  0  0  0  0  0
  -59.5070  -38.9950  -16.0630 O   0  0  0  0  0  0
  -56.4600  -39.2450  -18.9580 C   0  0  0  0  0  0
  -57.6581  -36.9803  -17.6882 H   0  0  0  0  0  0
  -60.6887  -36.9645  -17.4095 H   0  0  0  0  0  0
  -59.5391  -36.0973  -19.4398 H   0  0  0  0  0  0
  -58.6548  -34.8996  -18.4347 H   0  0  0  0  0  0
  -60.4388  -34.7831  -18.6091 H   0  0  0  0  0  0
  -60.4061  -34.2621  -12.7525 H   0  0  0  0  0  0
  -57.3112  -33.3153  -15.6701 H   0  0  0  0  0  0
  -56.6924  -30.6893  -14.2596 H   0  0  0  0  0  0
  -54.5172  -31.5761  -13.4290 H   0  0  0  0  0  0
  -55.8498  -32.5964  -12.7888 H   0  0  0  0  0  0
  -56.2905  -34.7952  -14.6130 H   0  0  0  0  0  0
  -52.2514  -31.7936  -13.8766 H   0  0  0  0  0  0
  -51.5188  -36.3981  -15.7392 H   0  0  0  0  0  0
  -49.9337  -32.6382  -14.2403 H   0  0  0  0  0  0
  -49.5795  -34.8967  -15.2454 H   0  0  0  0  0  0
  -50.5987  -28.9675  -17.2461 H   0  0  0  0  0  0
  -49.0730  -30.3627  -12.5795 H   0  0  0  0  0  0
  -50.6224  -30.3011  -10.6165 H   0  0  0  0  0  0
  -52.9877  -29.5474  -10.9444 H   0  0  0  0  0  0
  -55.9941  -28.3484  -12.5263 H   0  0  0  0  0  0
  -54.6390  -28.0678  -11.3811 H   0  0  0  0  0  0
  -55.1274  -29.7446  -11.8011 H   0  0  0  0  0  0
  -54.7728  -29.2487  -17.7783 H   0  0  0  0  0  0
  -52.7365  -27.8716  -17.3409 H   0  0  0  0  0  0
  -53.7966  -27.8177  -15.8918 H   0  0  0  0  0  0
  -54.5744  -29.9000  -14.9496 H   0  0  0  0  0  0
  -53.0637  -31.8162  -16.2931 H   0  0  0  0  0  0
  -51.2271  -32.3931  -18.6231 H   0  0  0  0  0  0
  -51.5123  -33.4225  -17.1789 H   0  0  0  0  0  0
  -54.4689  -32.6800  -18.4416 H   0  0  0  0  0  0
  -54.7790  -34.6555  -20.6790 H   0  0  0  0  0  0
  -57.2902  -34.2812  -19.4123 H   0  0  0  0  0  0
  -56.3963  -32.7670  -19.0452 H   0  0  0  0  0  0
  -57.7320  -32.5493  -21.0851 H   0  0  0  0  0  0
  -56.8708  -33.9461  -21.8159 H   0  0  0  0  0  0
  -55.9768  -32.4319  -21.4488 H   0  0  0  0  0  0
  -53.3249  -36.2654  -19.3173 H   0  0  0  0  0  0
  -52.2578  -38.0863  -19.1094 H   0  0  0  0  0  0
  -52.8041  -39.4007  -17.8429 H   0  0  0  0  0  0
  -57.4997  -40.3195  -16.7507 H   0  0  0  0  0  0
  -56.8263  -39.1572  -15.5581 H   0  0  0  0  0  0
  -55.6340  -38.8975  -19.5960 H   0  0  0  0  0  0
  -57.4003  -38.7809  -19.2903 H   0  0  0  0  0  0
  -56.5450  -40.3392  -19.0319 H   0  0  0  0  0  0
  -54.4855  -36.4995  -15.5351 H   0  0  0  0  0  0
  1  2  1  0  0  0
  1 58  1  0  0  0
  1 61  1  0  0  0
  2  3  1  0  0  0
  2  4  1  0  0  0
  2 62  1  0  0  0
  3 63  1  0  0  0
  3 64  1  0  0  0
  3 65  1  0  0  0
  4  5  2  0  0  0
  4 10  1  0  0  0
  5  6  1  0  0  0
  6  7  1  0  0  0
  6  9  2  0  0  0
  7  8  2  0  0  0
  7 11  1  0  0  0
  9 10  1  0  0  0
  9 66  1  0  0  0
 11 12  1  0  0  0
 11 67  1  0  0  0
 12 13  1  0  0  0
 12 15  1  0  0  0
 12 68  1  0  0  0
 13 14  2  0  0  0
 13 38  1  0  0  0
 15 16  1  0  0  0
 15 69  1  0  0  0
 15 70  1  0  0  0
 16 17  2  0  0  0
 16 18  1  0  0  0
 17 19  1  0  0  0
 17 71  1  0  0  0
 18 20  2  0  0  0
 18 21  1  0  0  0
 19 20  1  0  0  0
 19105  1  0  0  0
 20 22  1  0  0  0
 21 23  2  0  0  0
 21 72  1  0  0  0
 22 24  2  0  0  0
 22 73  1  0  0  0
 23 24  1  0  0  0
 23 74  1  0  0  0
 24 75  1  0  0  0
 25 31  1  0  0  0
 25 33  1  0  0  0
 26 37  2  0  0  0
 26 40  1  0  0  0
 26 76  1  0  0  0
 27 28  1  0  0  0
 27 32  1  0  0  0
 27 40  2  0  0  0
 28 29  2  0  0  0
 28 77  1  0  0  0
 29 30  1  0  0  0
 29 78  1  0  0  0
 30 31  1  0  0  0
 30 79  1  0  0  0
 31 32  2  0  0  0
 32 37  1  0  0  0
 33 80  1  0  0  0
 33 81  1  0  0  0
 33 82  1  0  0  0
 34 35  1  0  0  0
 34 39  2  0  0  0
 34 41  1  0  0  0
 35 36  1  0  0  0
 35 38  1  0  0  0
 35 83  1  0  0  0
 36 37  1  0  0  0
 36 84  1  0  0  0
 36 85  1  0  0  0
 38 86  1  0  0  0
 41 42  1  0  0  0
 41 87  1  0  0  0
 42 43  1  0  0  0
 42 88  1  0  0  0
 42 89  1  0  0  0
 43 44  2  0  0  0
 43 45  1  0  0  0
 45 46  1  0  0  0
 45 90  1  0  0  0
 46 47  1  0  0  0
 46 49  1  0  0  0
 46 91  1  0  0  0
 47 48  2  0  0  0
 47 51  1  0  0  0
 49 50  1  0  0  0
 49 92  1  0  0  0
 49 93  1  0  0  0
 50 94  1  0  0  0
 50 95  1  0  0  0
 50 96  1  0  0  0
 51 52  1  0  0  0
 51 97  1  0  0  0
 52 53  2  0  0  0
 52 54  1  0  0  0
 53 98  1  0  0  0
 53 99  1  0  0  0
 54 55  2  0  0  0
 54 56  1  0  0  0
 56 57  1  0  0  0
 56 60  1  0  0  0
 57 58  1  0  0  0
 57100  1  0  0  0
 57101  1  0  0  0
 58 59  2  0  0  0
 60102  1  0  0  0
 60103  1  0  0  0
 60104  1  0  0  0
M  CHG  1  19   1
M  END
> <s_m_source_file>
../4fn5_ligand.sdf

> <i_m_source_file_index>
1

> <s_epik_input>
W0NIM11bQ0BIXTFbTkhdQyg9TylbQ0gyXU4oW0NIM10pQyg9TylDKD1bQ0gyXSlbTkhdQyg9TylbQ0BASF0oW0NIMl1bQ0gzXSlbTkhdQyg9TylbQ0gyXVtOSF1DKD1PKVtDQEhdKFtDSDJdQyg9W0NIXU4yKUMoQz0yMyk9QyhPW0NIM10pW0NIMl1bQ0hdPVtDSF0zKVtOSF1DKD1PKVtDQEBIXShbTkhdQyg9TyljKG5jMTQpW2NIXXM0KVtDSDJdYzVbY0hdW25IXWMoYzU2KVtjSF1bY0hdW2NIXVtjSF02

> <s_epik_cmdline>
J2VwaWtfYXBwJywgJy1pbWFlJywgJ2xpZ2FuZF9wcm8ubWFlJywgJy1vbWFlJywgJ2xpZ2FuZF9wcmVwLm1hZScsICctbXMnLCAnMScsICctcGgnLCAnNycsICctcGh0JywgJzAuNScsICctbnQn

> <r_lp_tautomer_probability>
1

> <r_epik_Ionization_Penalty>
  0.0000

> <r_epik_Ionization_Penalty_Charging>
  0.0000

> <r_epik_Ionization_Penalty_Neutral>
  0.0000

> <r_epik_State_Penalty>
 -0.0000

> <r_epik_Charging_Adjusted_Penalty>
0

> <i_epik_Tot_Q>
1

> <i_epik_Tot_abs_Q>
1

> <s_epik_Chemistry_Notes>
This compound has an imine and may undergo hydrolysis.

$$$$
