4fnn_ligand
                    3D
 Schrodinger Suite 2020-3.
 55 54  0  0  1  0            999 V2000
  -33.8530  -17.8050  -40.6870 C   0  0  0  0  0  0
  -32.7480  -17.3260  -40.4740 O   0  5  0  0  0  0
  -34.8020  -17.1250  -41.0400 O   0  0  0  0  0  0
  -34.0480  -19.2700  -40.5170 C   0  0  0  0  0  0
  -35.4510  -19.6600  -40.9610 C   0  0  0  0  0  0
  -35.4700  -21.1260  -41.3850 C   0  0  0  0  0  0
  -36.8830  -21.6700  -41.4480 C   0  0  0  0  0  0
  -36.9550  -22.8010  -42.4450 C   0  0  0  0  0  0
  -36.6960  -24.1870  -41.8900 C   0  0  0  0  0  0
  -36.0670  -25.0990  -42.9420 C   0  0  0  0  0  0
  -34.9600  -24.3950  -43.6920 C   0  0  0  0  0  0
  -34.7730  -22.9810  -43.1480 C   0  0  0  0  0  0
  -33.2900  -22.6060  -43.0260 C   0  0  0  0  0  0
  -32.4330  -23.7190  -42.4420 C   0  0  0  0  0  0
  -32.2140  -23.5880  -40.9290 C   0  0  0  0  0  0
  -33.4960  -23.6100  -40.0910 C   0  0  0  0  0  0
  -33.5180  -24.8330  -39.1690 C   0  0  0  0  0  0
  -34.9270  -25.2540  -38.7350 C   0  0  0  0  0  0
  -35.0990  -26.7610  -38.6400 C   0  0  0  0  0  0
  -36.4420  -27.2610  -39.1240 C   0  0  0  0  0  0
  -33.3103  -19.8114  -41.1275 H   0  0  0  0  0  0
  -33.9147  -19.5373  -39.4583 H   0  0  0  0  0  0
  -36.1535  -19.5133  -40.1273 H   0  0  0  0  0  0
  -35.7546  -19.0315  -41.8112 H   0  0  0  0  0  0
  -35.0149  -21.2254  -42.3815 H   0  0  0  0  0  0
  -34.8994  -21.7249  -40.6599 H   0  0  0  0  0  0
  -37.1771  -22.0423  -40.4556 H   0  0  0  0  0  0
  -37.5707  -20.8693  -41.7578 H   0  0  0  0  0  0
  -37.9594  -22.8319  -42.8924 H   0  0  0  0  0  0
  -36.2064  -22.6416  -43.2351 H   0  0  0  0  0  0
  -36.0097  -24.1165  -41.0333 H   0  0  0  0  0  0
  -37.6461  -24.6344  -41.5628 H   0  0  0  0  0  0
  -35.6450  -25.9884  -42.4511 H   0  0  0  0  0  0
  -36.8357  -25.4093  -43.6651 H   0  0  0  0  0  0
  -34.0211  -24.9551  -43.5707 H   0  0  0  0  0  0
  -35.2183  -24.3393  -44.7598 H   0  0  0  0  0  0
  -35.2557  -22.2609  -43.8251 H   0  0  0  0  0  0
  -35.2297  -22.9087  -42.1499 H   0  0  0  0  0  0
  -32.8889  -22.3676  -44.0222 H   0  0  0  0  0  0
  -33.1862  -21.7294  -42.3696 H   0  0  0  0  0  0
  -32.9188  -24.6892  -42.6230 H   0  0  0  0  0  0
  -31.4430  -23.7095  -42.9215 H   0  0  0  0  0  0
  -31.5894  -24.4216  -40.5754 H   0  0  0  0  0  0
  -31.7098  -22.6346  -40.7127 H   0  0  0  0  0  0
  -33.5476  -22.6996  -39.4758 H   0  0  0  0  0  0
  -34.3695  -23.6516  -40.7582 H   0  0  0  0  0  0
  -33.0655  -25.6912  -39.6874 H   0  0  0  0  0  0
  -32.9463  -24.6136  -38.2552 H   0  0  0  0  0  0
  -35.1468  -24.8314  -37.7435 H   0  0  0  0  0  0
  -35.6619  -24.8811  -39.4636 H   0  0  0  0  0  0
  -34.3299  -27.2570  -39.2503 H   0  0  0  0  0  0
  -34.9949  -27.0766  -37.5914 H   0  0  0  0  0  0
  -36.4843  -28.3554  -39.0219 H   0  0  0  0  0  0
  -36.5767  -26.9858  -40.1805 H   0  0  0  0  0  0
  -37.2417  -26.8053  -38.5216 H   0  0  0  0  0  0
  1  2  1  0  0  0
  1  3  2  0  0  0
  1  4  1  0  0  0
  4  5  1  0  0  0
  4 21  1  0  0  0
  4 22  1  0  0  0
  5  6  1  0  0  0
  5 23  1  0  0  0
  5 24  1  0  0  0
  6  7  1  0  0  0
  6 25  1  0  0  0
  6 26  1  0  0  0
  7  8  1  0  0  0
  7 27  1  0  0  0
  7 28  1  0  0  0
  8  9  1  0  0  0
  8 29  1  0  0  0
  8 30  1  0  0  0
  9 10  1  0  0  0
  9 31  1  0  0  0
  9 32  1  0  0  0
 10 11  1  0  0  0
 10 33  1  0  0  0
 10 34  1  0  0  0
 11 12  1  0  0  0
 11 35  1  0  0  0
 11 36  1  0  0  0
 12 13  1  0  0  0
 12 37  1  0  0  0
 12 38  1  0  0  0
 13 14  1  0  0  0
 13 39  1  0  0  0
 13 40  1  0  0  0
 14 15  1  0  0  0
 14 41  1  0  0  0
 14 42  1  0  0  0
 15 16  1  0  0  0
 15 43  1  0  0  0
 15 44  1  0  0  0
 16 17  1  0  0  0
 16 45  1  0  0  0
 16 46  1  0  0  0
 17 18  1  0  0  0
 17 47  1  0  0  0
 17 48  1  0  0  0
 18 19  1  0  0  0
 18 49  1  0  0  0
 18 50  1  0  0  0
 19 20  1  0  0  0
 19 51  1  0  0  0
 19 52  1  0  0  0
 20 53  1  0  0  0
 20 54  1  0  0  0
 20 55  1  0  0  0
M  CHG  1   2  -1
M  END
> <s_m_source_file>
../4fnn_ligand.sdf

> <i_m_source_file_index>
1

> <s_epik_input>
W09IXUMoPU8pW0NIMl1bQ0gyXVtDSDJdW0NIMl1bQ0gyXVtDSDJdW0NIMl1bQ0gyXVtDSDJdW0NIMl1bQ0gyXVtDSDJdW0NIMl1bQ0gyXVtDSDJdW0NIMl1bQ0gzXQ==

> <s_epik_cmdline>
J2VwaWtfYXBwJywgJy1pbWFlJywgJ2xpZ2FuZF9wcm8ubWFlJywgJy1vbWFlJywgJ2xpZ2FuZF9wcmVwLm1hZScsICctbXMnLCAnMScsICctcGgnLCAnNycsICctcGh0JywgJzAuNScsICctbnQn

> <r_lp_tautomer_probability>
1

> <r_epik_Ionization_Penalty>
  0.0049

> <r_epik_Ionization_Penalty_Charging>
  0.0049

> <r_epik_Ionization_Penalty_Neutral>
  0.0000

> <r_epik_State_Penalty>
 -0.0000

> <r_epik_Charging_Adjusted_Penalty>
0.00486649495677768

> <i_epik_Tot_Q>
-1

> <i_epik_Tot_abs_Q>
1

$$$$
