4fns_ligand
                    3D
 Schrodinger Suite 2020-3.
 25 25  0  0  1  0            999 V2000
  -93.3920   12.2300  -44.7850 C   0  0  0  0  0  0
  -93.2390   10.8620  -44.1340 C   0  0  2  0  0  0
  -92.5570   10.9570  -42.9190 O   0  0  0  0  0  0
  -92.5750    9.9440  -45.1300 C   0  0  1  0  0  0
  -92.3170    8.7010  -44.5530 O   0  0  0  0  0  0
  -93.4760    9.7870  -46.3210 C   0  0  1  0  0  0
  -94.6140    9.1110  -45.9300 O   0  0  0  0  0  0
  -93.7820   11.1600  -46.9110 C   0  0  2  0  0  0
  -94.2450   12.1310  -45.9540 N   0  3  0  0  0  0
  -94.8070   10.9560  -48.0120 C   0  0  0  0  0  0
  -95.3270   12.1850  -48.4230 O   0  0  0  0  0  0
  -93.8433   12.9297  -44.0662 H   0  0  0  0  0  0
  -92.4033   12.6039  -45.0893 H   0  0  0  0  0  0
  -94.1893   10.4279  -43.7899 H   0  0  0  0  0  0
  -92.9497   11.5988  -42.1166 H   0  0  0  0  0  0
  -91.5797   10.3111  -45.4209 H   0  0  0  0  0  0
  -91.6710    8.6300  -43.6655 H   0  0  0  0  0  0
  -93.0545    9.1241  -47.0910 H   0  0  0  0  0  0
  -94.5327    8.1072  -45.4875 H   0  0  0  0  0  0
  -92.8541   11.6357  -47.2611 H   0  0  0  0  0  0
  -95.2586   11.8363  -45.6444 H   0  0  0  0  0  0
  -94.2857   13.1059  -46.4619 H   0  0  0  0  0  0
  -94.3290   10.4627  -48.8712 H   0  0  0  0  0  0
  -95.6272   10.3261  -47.6373 H   0  0  0  0  0  0
  -96.0865   12.2227  -49.2179 H   0  0  0  0  0  0
  1  2  1  0  0  0
  1  9  1  0  0  0
  1 12  1  0  0  0
  1 13  1  0  0  0
  2  3  1  0  0  0
  2  4  1  0  0  0
  2 14  1  0  0  0
  3 15  1  0  0  0
  4  5  1  0  0  0
  4  6  1  0  0  0
  4 16  1  0  0  0
  5 17  1  0  0  0
  6  7  1  0  0  0
  6  8  1  0  0  0
  6 18  1  0  0  0
  7 19  1  0  0  0
  8  9  1  0  0  0
  8 10  1  0  0  0
  8 20  1  0  0  0
  9 21  1  0  0  0
  9 22  1  0  0  0
 10 11  1  0  0  0
 10 23  1  0  0  0
 10 24  1  0  0  0
 11 25  1  0  0  0
M  CHG  1   9   1
M  END
> <s_m_source_file>
../4fns_ligand.sdf

> <i_m_source_file_index>
1

> <s_epik_input>
W09IXVtDQEhdMVtDSDJdW05IMitdW0NASF0oW0NIMl1bT0hdKVtDQEhdKFtPSF0pW0NAQEhdMVtPSF0=

> <s_epik_cmdline>
J2VwaWtfYXBwJywgJy1pbWFlJywgJ2xpZ2FuZF9wcm8ubWFlJywgJy1vbWFlJywgJ2xpZ2FuZF9wcmVwLm1hZScsICctbXMnLCAnMScsICctcGgnLCAnNycsICctcGh0JywgJzAuNScsICctbnQn

> <r_lp_tautomer_probability>
1

> <r_epik_Ionization_Penalty>
  0.0034

> <r_epik_Ionization_Penalty_Charging>
  0.0034

> <r_epik_Ionization_Penalty_Neutral>
  0.0000

> <r_epik_State_Penalty>
 -0.0000

> <r_epik_Charging_Adjusted_Penalty>
0.00338677877254832

> <i_epik_Tot_Q>
1

> <i_epik_Tot_abs_Q>
1

$$$$
