4fny_ligand
                    3D
 Schrodinger Suite 2020-3.
 51 55  0  0  1  0            999 V2000
    1.1990    7.6560   43.3110 C   0  0  0  0  0  0
    2.5440    8.0080   43.7350 O   0  0  0  0  0  0
    3.1470    9.1220   43.1930 C   0  0  0  0  0  0
    2.5020    9.9700   42.2750 C   0  0  0  0  0  0
    4.4540    9.4190   43.5810 C   0  0  0  0  0  0
    5.0490    8.5830   44.4740 O   0  0  0  0  0  0
    6.4220    8.9490   44.7980 C   0  0  0  0  0  0
    5.1060   10.5520   43.0710 C   0  0  0  0  0  0
    4.4530   11.3890   42.1530 C   0  0  0  0  0  0
    3.1470   11.0970   41.7610 C   0  0  0  0  0  0
    2.5040   11.8930   40.8780 N   0  3  0  0  0  0
    3.0730   12.9680   40.3660 C   0  0  0  0  0  0
    4.3700   13.3220   40.7160 C   0  0  0  0  0  0
    5.0790   12.5220   41.6200 C   0  0  0  0  0  0
    6.3710   12.8020   42.0150 O   0  0  0  0  0  0
    7.0560   13.8810   41.5460 C   0  0  0  0  0  0
    7.4450   13.9900   40.2070 C   0  0  0  0  0  0
    7.3880   14.8690   42.4650 C   0  0  0  0  0  0
    8.1050   15.9750   42.0430 C   0  0  0  0  0  0
    8.4890   16.0810   40.7090 C   0  0  0  0  0  0
    9.1760   17.0500   40.0640 O   0  0  0  0  0  0
    8.1610   15.1010   39.7700 C   0  0  0  0  0  0
    8.6440   15.4810   38.5720 N   0  0  0  0  0  0
    9.2600   16.6630   38.7640 C   0  0  0  0  0  0
    9.8900   17.4670   37.9010 N   0  0  0  0  0  0
   10.2130   17.1840   36.6450 C   0  0  0  0  0  0
    9.3340   16.5090   35.8040 C   0  0  0  0  0  0
    9.6740   16.2470   34.4840 C   0  0  0  0  0  0
   10.9020   16.6740   34.0090 C   0  0  0  0  0  0
   11.3250   16.3350   32.3700 Cl  0  0  0  0  0  0
   11.7870   17.3630   34.8390 C   0  0  0  0  0  0
   11.4430   17.6210   36.1620 C   0  0  0  0  0  0
    0.8741    6.7474   43.8391 H   0  0  0  0  0  0
    1.1928    7.4718   42.2265 H   0  0  0  0  0  0
    0.5123    8.4824   43.5465 H   0  0  0  0  0  0
    1.4833    9.7442   41.9599 H   0  0  0  0  0  0
    6.8321    8.2295   45.5219 H   0  0  0  0  0  0
    6.4391    9.9585   45.2345 H   0  0  0  0  0  0
    7.0310    8.9352   43.8821 H   0  0  0  0  0  0
    6.1228   10.7828   43.3888 H   0  0  0  0  0  0
    2.5185   13.5859   39.6597 H   0  0  0  0  0  0
    4.8310   14.2136   40.2910 H   0  0  0  0  0  0
    7.1860   13.2005   39.5015 H   0  0  0  0  0  0
    7.0866   14.7738   43.5082 H   0  0  0  0  0  0
    8.3680   16.7599   42.7522 H   0  0  0  0  0  0
   10.1942   18.4773   38.2121 H   0  0  0  0  0  0
    8.3670   16.1821   36.1862 H   0  0  0  0  0  0
    8.9840   15.7127   33.8309 H   0  0  0  0  0  0
   12.7483   17.6992   34.4506 H   0  0  0  0  0  0
   12.1301   18.1602   36.8141 H   0  0  0  0  0  0
    1.4768   11.6520   40.5669 H   0  0  0  0  0  0
  1  2  1  0  0  0
  1 33  1  0  0  0
  1 34  1  0  0  0
  1 35  1  0  0  0
  2  3  1  0  0  0
  3  4  2  0  0  0
  3  5  1  0  0  0
  4 10  1  0  0  0
  4 36  1  0  0  0
  5  6  1  0  0  0
  5  8  2  0  0  0
  6  7  1  0  0  0
  7 37  1  0  0  0
  7 38  1  0  0  0
  7 39  1  0  0  0
  8  9  1  0  0  0
  8 40  1  0  0  0
  9 10  2  0  0  0
  9 14  1  0  0  0
 10 11  1  0  0  0
 11 12  2  0  0  0
 11 51  1  0  0  0
 12 13  1  0  0  0
 12 41  1  0  0  0
 13 14  2  0  0  0
 13 42  1  0  0  0
 14 15  1  0  0  0
 15 16  1  0  0  0
 16 17  1  0  0  0
 16 18  2  0  0  0
 17 22  2  0  0  0
 17 43  1  0  0  0
 18 19  1  0  0  0
 18 44  1  0  0  0
 19 20  2  0  0  0
 19 45  1  0  0  0
 20 21  1  0  0  0
 20 22  1  0  0  0
 21 24  1  0  0  0
 22 23  1  0  0  0
 23 24  2  0  0  0
 24 25  1  0  0  0
 25 26  1  0  0  0
 25 46  1  0  0  0
 26 27  2  0  0  0
 26 32  1  0  0  0
 27 28  1  0  0  0
 27 47  1  0  0  0
 28 29  2  0  0  0
 28 48  1  0  0  0
 29 30  1  0  0  0
 29 31  1  0  0  0
 31 32  2  0  0  0
 31 49  1  0  0  0
 32 50  1  0  0  0
M  CHG  1  11   1
M  END
> <s_m_source_file>
../4fny_ligand.sdf

> <i_m_source_file_index>
1

> <s_epik_input>
W0NIM11PYyhbY0hdMSljKE9bQ0gzXSlbY0hdYyhjMTIpbltjSF1bY0hdYzJPYyhbY0hdW2NIXTMpW2NIXWMoYzM0KW5jKG80KVtOSF1jNVtjSF1bY0hdYyhDbClbY0hdW2NIXTU=

> <s_epik_cmdline>
J2VwaWtfYXBwJywgJy1pbWFlJywgJ2xpZ2FuZF9wcm8ubWFlJywgJy1vbWFlJywgJ2xpZ2FuZF9wcmVwLm1hZScsICctbXMnLCAnMScsICctcGgnLCAnNycsICctcGh0JywgJzAuNScsICctbnQn

> <r_epik_Ionization_Penalty>
  0.0524

> <r_epik_Ionization_Penalty_Charging>
  0.0524

> <r_epik_Ionization_Penalty_Neutral>
  0.0000

> <r_epik_State_Penalty>
  0.0450

> <r_epik_Charging_Adjusted_Penalty>
0.0974348481336957

> <i_epik_Tot_Q>
1

> <i_epik_Tot_abs_Q>
1

$$$$
