4fnz_ligand
                    3D
 Schrodinger Suite 2020-3.
 70 73  0  0  1  0            999 V2000
   18.8820    8.4190   59.4410 C   0  0  0  0  0  0
   19.8870    8.5940   58.4000 O   0  0  0  0  0  0
   21.1900    8.6590   58.8600 C   0  0  0  0  0  0
   21.5500    9.6760   59.7590 C   0  0  0  0  0  0
   22.1670    7.7300   58.4400 C   0  0  0  0  0  0
   21.8740    6.7130   57.5720 O   0  0  0  0  0  0
   22.4030    6.9290   56.2460 C   0  0  0  0  0  0
   23.4650    7.8330   58.9320 C   0  0  0  0  0  0
   24.4410    6.9690   58.5580 O   0  0  0  0  0  0
   25.4000    6.8120   59.6110 C   0  0  0  0  0  0
   23.7940    8.8550   59.8100 C   0  0  0  0  0  0
   22.8600    9.7860   60.2290 C   0  0  0  0  0  0
   23.3120   10.7060   61.0950 N   0  0  0  0  0  0
   22.7410   11.8850   61.3970 C   0  0  0  0  0  0
   21.5780   12.2890   60.8620 N   0  0  0  0  0  0
   23.3810   12.6740   62.2870 N   0  0  0  0  0  0
   22.8910   13.8460   62.6610 C   0  0  0  0  0  0
   21.6870   14.2910   62.1250 C   0  0  0  0  0  0
   21.0370   13.4670   61.2070 C   0  0  0  0  0  0
   19.8180   13.8450   60.6310 N   0  0  0  0  0  0
   19.1340   15.0940   61.0190 C   0  0  0  0  0  0
   19.1270   12.9150   59.6990 C   0  0  0  0  0  0
   17.8070   12.5300   60.3570 C   0  0  0  0  0  0
   17.0220   13.7900   60.7290 C   0  0  0  0  0  0
   17.8240   14.7030   61.6850 C   0  0  2  0  0  0
   17.0120   15.9500   62.0920 C   0  0  0  0  0  0
   16.5540   16.7620   61.2830 O   0  0  0  0  0  0
   16.8590   16.0920   63.3910 N   0  0  0  0  0  0
   16.1190   17.2340   63.9340 C   0  0  0  0  0  0
   16.4320   17.3950   65.4140 C   0  0  0  0  0  0
   15.4130   17.4780   66.3600 C   0  0  0  0  0  0
   17.7580   17.4650   65.8000 C   0  0  0  0  0  0
   18.0740   17.6130   67.1420 C   0  0  0  0  0  0
   17.0780   17.6980   68.1000 C   0  0  0  0  0  0
   15.7510   17.6180   67.7060 C   0  0  0  0  0  0
   14.7880   17.7290   68.6510 O   0  0  0  0  0  0
   14.3600   16.5470   69.2690 C   0  0  0  0  0  0
   15.3540   16.0370   69.9990 F   0  0  0  0  0  0
   13.3760   16.9560   70.0720 F   0  0  0  0  0  0
   13.9040   15.6540   68.3540 F   0  0  0  0  0  0
   17.8828    8.3786   58.9829 H   0  0  0  0  0  0
   18.9298    9.2648   60.1426 H   0  0  0  0  0  0
   19.0750    7.4815   59.9831 H   0  0  0  0  0  0
   20.7967   10.3889   60.0943 H   0  0  0  0  0  0
   22.1336    6.0797   55.6009 H   0  0  0  0  0  0
   23.4982    7.0170   56.2980 H   0  0  0  0  0  0
   21.9801    7.8548   55.8289 H   0  0  0  0  0  0
   26.1835    6.1091   59.2916 H   0  0  0  0  0  0
   24.8987    6.4194   60.5080 H   0  0  0  0  0  0
   25.8540    7.7870   59.8418 H   0  0  0  0  0  0
   24.8167    8.9268   60.1802 H   0  0  0  0  0  0
   24.2472   10.5295   61.6466 H   0  0  0  0  0  0
   23.4282   14.4587   63.3849 H   0  0  0  0  0  0
   21.2649   15.2536   62.4136 H   0  0  0  0  0  0
   19.7693   15.6582   61.7176 H   0  0  0  0  0  0
   18.9450   15.7024   60.1223 H   0  0  0  0  0  0
   18.9509   13.4219   58.7388 H   0  0  0  0  0  0
   19.7547   12.0267   59.5350 H   0  0  0  0  0  0
   17.2113   11.9253   59.6574 H   0  0  0  0  0  0
   18.0077   11.9461   61.2674 H   0  0  0  0  0  0
   16.7917   14.3610   59.8174 H   0  0  0  0  0  0
   16.0849   13.5039   61.2290 H   0  0  0  0  0  0
   18.0551   14.1519   62.6085 H   0  0  0  0  0  0
   17.2925   15.3439   64.0710 H   0  0  0  0  0  0
   16.4125   18.1491   63.3988 H   0  0  0  0  0  0
   15.0395   17.0653   63.8070 H   0  0  0  0  0  0
   14.3680   17.4342   66.0533 H   0  0  0  0  0  0
   18.5501   17.4042   65.0537 H   0  0  0  0  0  0
   19.1194   17.6630   67.4465 H   0  0  0  0  0  0
   17.3341   17.8263   69.1517 H   0  0  0  0  0  0
  1  2  1  0  0  0
  1 41  1  0  0  0
  1 42  1  0  0  0
  1 43  1  0  0  0
  2  3  1  0  0  0
  3  4  2  0  0  0
  3  5  1  0  0  0
  4 12  1  0  0  0
  4 44  1  0  0  0
  5  6  1  0  0  0
  5  8  2  0  0  0
  6  7  1  0  0  0
  7 45  1  0  0  0
  7 46  1  0  0  0
  7 47  1  0  0  0
  8  9  1  0  0  0
  8 11  1  0  0  0
  9 10  1  0  0  0
 10 48  1  0  0  0
 10 49  1  0  0  0
 10 50  1  0  0  0
 11 12  2  0  0  0
 11 51  1  0  0  0
 12 13  1  0  0  0
 13 14  1  0  0  0
 13 52  1  0  0  0
 14 15  2  0  0  0
 14 16  1  0  0  0
 15 19  1  0  0  0
 16 17  2  0  0  0
 17 18  1  0  0  0
 17 53  1  0  0  0
 18 19  2  0  0  0
 18 54  1  0  0  0
 19 20  1  0  0  0
 20 21  1  0  0  0
 20 22  1  0  0  0
 21 25  1  0  0  0
 21 55  1  0  0  0
 21 56  1  0  0  0
 22 23  1  0  0  0
 22 57  1  0  0  0
 22 58  1  0  0  0
 23 24  1  0  0  0
 23 59  1  0  0  0
 23 60  1  0  0  0
 24 25  1  0  0  0
 24 61  1  0  0  0
 24 62  1  0  0  0
 25 26  1  0  0  0
 25 63  1  0  0  0
 26 27  2  0  0  0
 26 28  1  0  0  0
 28 29  1  0  0  0
 28 64  1  0  0  0
 29 30  1  0  0  0
 29 65  1  0  0  0
 29 66  1  0  0  0
 30 31  2  0  0  0
 30 32  1  0  0  0
 31 35  1  0  0  0
 31 67  1  0  0  0
 32 33  2  0  0  0
 32 68  1  0  0  0
 33 34  1  0  0  0
 33 69  1  0  0  0
 34 35  2  0  0  0
 34 70  1  0  0  0
 35 36  1  0  0  0
 36 37  1  0  0  0
 37 38  1  0  0  0
 37 39  1  0  0  0
 37 40  1  0  0  0
M  END
> <s_m_source_file>
../4fnz_ligand.sdf

> <i_m_source_file_index>
1

> <s_epik_input>
W0NIM11PYzFjKE9bQ0gzXSlbY0hdYyhbY0hdYzFPW0NIM10pW05IXWMybmMoW2NIXVtjSF1uMilOM1tDSDJdW0NASF0oW0NIMl1bQ0gyXVtDSDJdMylDKD1PKVtOSF1bQ0gyXWM0W2NIXWMoT0MoRikoRilGKVtjSF1bY0hdW2NIXTQ=

> <s_epik_cmdline>
J2VwaWtfYXBwJywgJy1pbWFlJywgJ2xpZ2FuZF9wcm8ubWFlJywgJy1vbWFlJywgJ2xpZ2FuZF9wcmVwLm1hZScsICctbXMnLCAnMScsICctcGgnLCAnNycsICctcGh0JywgJzAuNScsICctbnQn

> <r_lp_tautomer_probability>
1

> <r_epik_Ionization_Penalty>
  0.0006

> <r_epik_Ionization_Penalty_Charging>
  0.0000

> <r_epik_Ionization_Penalty_Neutral>
  0.0006

> <r_epik_State_Penalty>
 -0.0000

> <r_epik_Charging_Adjusted_Penalty>
0

> <i_epik_Tot_Q>
0

> <i_epik_Tot_abs_Q>
0

$$$$
