4foc_ligand
                    3D
 Schrodinger Suite 2020-3.
 70 74  0  0  1  0            999 V2000
   16.8190   12.0180    9.6340 C   0  0  0  0  0  0
   17.2510   10.9690    8.7260 O   0  0  0  0  0  0
   17.6060   11.3970    7.4700 C   0  0  0  0  0  0
   17.7600   12.5930    7.2240 O   0  0  0  0  0  0
   17.8310   10.3520    6.3690 C   0  0  2  0  0  0
   18.3630    9.0650    7.0150 C   0  0  0  0  0  0
   19.7980    9.2080    7.5170 C   0  0  0  0  0  0
   18.8310   10.8690    5.3210 C   0  0  0  0  0  0
   20.2490   11.0010    5.8700 C   0  0  0  0  0  0
   20.7310    9.6470    6.3830 C   0  0  1  0  0  0
   22.1010    9.6300    6.9200 N   0  0  0  0  0  0
   22.9680    8.6500    6.6480 C   0  0  0  0  0  0
   22.8950    7.4980    5.8480 C   0  0  0  0  0  0
   24.0050    6.6560    5.7520 C   0  0  0  0  0  0
   23.9400    5.3820    4.8780 C   0  0  0  0  0  0
   24.6400    5.5450    3.5930 N   0  3  0  0  0  0
   24.0380    6.5960    2.7660 C   0  0  0  0  0  0
   24.9460    6.8330    1.5480 C   0  0  0  0  0  0
   25.1460    5.5440    0.7330 C   0  0  0  0  0  0
   25.4420    4.3240    1.6140 C   0  0  0  0  0  0
   24.5250    4.2770    2.8440 C   0  0  0  0  0  0
   25.1620    6.9600    6.4590 C   0  0  0  0  0  0
   25.2240    8.0980    7.2730 C   0  0  0  0  0  0
   24.1240    8.9480    7.3530 C   0  0  0  0  0  0
   23.9200   10.0900    8.0330 N   0  0  0  0  0  0
   22.6820   10.4940    7.7570 C   0  0  0  0  0  0
   22.1060   11.5800    8.2920 N   0  0  0  0  0  0
   22.7520   12.3760    9.1550 C   0  0  0  0  0  0
   23.9220   12.2560    9.5220 O   0  0  0  0  0  0
   21.8790   13.4670    9.7910 C   0  0  0  0  0  0
   20.5450   13.6390    9.4170 C   0  0  0  0  0  0
   19.7510   14.6380   10.0050 C   0  0  0  0  0  0
   20.3180   15.4340   11.0000 C   0  0  0  0  0  0
   21.6460   15.2380   11.3840 C   0  0  0  0  0  0
   22.4290   14.2660   10.7920 C   0  0  0  0  0  0
   16.5582   11.5762   10.6070 H   0  0  0  0  0  0
   15.9385   12.5265    9.2143 H   0  0  0  0  0  0
   17.6333   12.7453    9.7679 H   0  0  0  0  0  0
   16.8773   10.1513    5.8589 H   0  0  0  0  0  0
   17.7304    8.7974    7.8742 H   0  0  0  0  0  0
   18.3436    8.2493    6.2773 H   0  0  0  0  0  0
   19.8332    9.9624    8.3168 H   0  0  0  0  0  0
   20.1474    8.2414    7.9091 H   0  0  0  0  0  0
   18.8639   10.1722    4.4705 H   0  0  0  0  0  0
   18.5134   11.8618    4.9695 H   0  0  0  0  0  0
   20.9207   11.3480    5.0710 H   0  0  0  0  0  0
   20.2562   11.7272    6.6962 H   0  0  0  0  0  0
   20.7648    8.9732    5.5142 H   0  0  0  0  0  0
   21.9789    7.2629    5.3061 H   0  0  0  0  0  0
   24.4085    4.5443    5.4155 H   0  0  0  0  0  0
   22.8892    5.1379    4.6631 H   0  0  0  0  0  0
   25.6822    5.8245    3.8070 H   0  0  0  0  0  0
   23.0394    6.2750    2.4347 H   0  0  0  0  0  0
   23.9492    7.5205    3.3553 H   0  0  0  0  0  0
   24.4910    7.5910    0.8935 H   0  0  0  0  0  0
   25.9309    7.1856    1.8880 H   0  0  0  0  0  0
   24.2338    5.3292    0.1570 H   0  0  0  0  0  0
   25.9930    5.6739    0.0433 H   0  0  0  0  0  0
   25.2868    3.4043    1.0308 H   0  0  0  0  0  0
   26.4850    4.3666    1.9609 H   0  0  0  0  0  0
   24.8237    3.4399    3.4921 H   0  0  0  0  0  0
   23.4834    4.1359    2.5196 H   0  0  0  0  0  0
   26.0303    6.3060    6.3792 H   0  0  0  0  0  0
   26.1283    8.3171    7.8407 H   0  0  0  0  0  0
   20.1127   12.9882    8.6570 H   0  0  0  0  0  0
   18.7178   14.7871    9.6914 H   0  0  0  0  0  0
   19.7227   16.2113   11.4792 H   0  0  0  0  0  0
   22.0736   15.8646   12.1667 H   0  0  0  0  0  0
   23.4640   14.1256   11.1038 H   0  0  0  0  0  0
   24.7190   10.5035    8.6659 H   0  0  0  0  0  0
  1  2  1  0  0  0
  1 36  1  0  0  0
  1 37  1  0  0  0
  1 38  1  0  0  0
  2  3  1  0  0  0
  3  4  2  0  0  0
  3  5  1  0  0  0
  5  6  1  0  0  0
  5  8  1  0  0  0
  5 39  1  0  0  0
  6  7  1  0  0  0
  6 40  1  0  0  0
  6 41  1  0  0  0
  7 10  1  0  0  0
  7 42  1  0  0  0
  7 43  1  0  0  0
  8  9  1  0  0  0
  8 44  1  0  0  0
  8 45  1  0  0  0
  9 10  1  0  0  0
  9 46  1  0  0  0
  9 47  1  0  0  0
 10 11  1  0  0  0
 10 48  1  0  0  0
 11 12  1  0  0  0
 11 26  1  0  0  0
 12 13  1  0  0  0
 12 24  2  0  0  0
 13 14  2  0  0  0
 13 49  1  0  0  0
 14 15  1  0  0  0
 14 22  1  0  0  0
 15 16  1  0  0  0
 15 50  1  0  0  0
 15 51  1  0  0  0
 16 17  1  0  0  0
 16 21  1  0  0  0
 16 52  1  0  0  0
 17 18  1  0  0  0
 17 53  1  0  0  0
 17 54  1  0  0  0
 18 19  1  0  0  0
 18 55  1  0  0  0
 18 56  1  0  0  0
 19 20  1  0  0  0
 19 57  1  0  0  0
 19 58  1  0  0  0
 20 21  1  0  0  0
 20 59  1  0  0  0
 20 60  1  0  0  0
 21 61  1  0  0  0
 21 62  1  0  0  0
 22 23  2  0  0  0
 22 63  1  0  0  0
 23 24  1  0  0  0
 23 64  1  0  0  0
 24 25  1  0  0  0
 25 26  1  0  0  0
 25 70  1  0  0  0
 26 27  2  0  0  0
 27 28  1  0  0  0
 28 29  2  0  0  0
 28 30  1  0  0  0
 30 31  2  0  0  0
 30 35  1  0  0  0
 31 32  1  0  0  0
 31 65  1  0  0  0
 32 33  2  0  0  0
 32 66  1  0  0  0
 33 34  1  0  0  0
 33 67  1  0  0  0
 34 35  2  0  0  0
 34 68  1  0  0  0
 35 69  1  0  0  0
M  CHG  1  16   1
M  END
> <s_m_source_file>
../4foc_ligand.sdf

> <i_m_source_file_index>
1

> <s_epik_input>
W0NIM11PQyg9TylbQ0BASF0xW0NIMl1bQ0gyXVtDQEBIXShbQ0gyXVtDSDJdMSluMmMoW05IXUMoPU8pYzNbY0hdW2NIXVtjSF1bY0hdW2NIXTMpbmMoYzI0KVtjSF1bY0hdYyhbY0hdNClbQ0gyXVtOSCtdNVtDSDJdW0NIMl1bQ0gyXVtDSDJdW0NIMl01

> <s_epik_cmdline>
J2VwaWtfYXBwJywgJy1pbWFlJywgJ2xpZ2FuZF9wcm8ubWFlJywgJy1vbWFlJywgJ2xpZ2FuZF9wcmVwLm1hZScsICctbXMnLCAnMScsICctcGgnLCAnNycsICctcGh0JywgJzAuNScsICctbnQn

> <r_lp_tautomer_probability>
1

> <r_epik_Ionization_Penalty>
  0.3463

> <r_epik_Ionization_Penalty_Charging>
  0.3463

> <r_epik_Ionization_Penalty_Neutral>
  0.0000

> <r_epik_State_Penalty>
 -0.0000

> <r_epik_Charging_Adjusted_Penalty>
0.34631716177252

> <i_epik_Tot_Q>
1

> <i_epik_Tot_abs_Q>
1

> <s_epik_Chemistry_Notes>
This compound has an ester and may undergo hydrolysis at high or low pH.

$$$$
