4fod_ligand
                    3D
 Schrodinger Suite 2020-3.
 87 91  0  0  1  0            999 V2000
   14.6190   11.9760    9.0930 C   0  0  0  0  0  0
   16.1270   11.8150    9.3280 C   0  0  0  0  0  0
   16.4060   11.3540   10.7510 C   0  0  0  0  0  0
   16.6650   10.8250    8.3620 N   0  0  0  0  0  0
   17.5280   11.1660    7.4000 C   0  0  0  0  0  0
   17.9350   12.3100    7.2210 O   0  0  0  0  0  0
   17.9770   10.0200    6.4760 C   0  0  1  0  0  0
   19.0060   10.5160    5.4330 C   0  0  0  0  0  0
   20.4390   10.6480    5.9780 C   0  0  0  0  0  0
   18.5120    8.8580    7.3200 C   0  0  0  0  0  0
   19.9360    9.1120    7.8310 C   0  0  0  0  0  0
   20.8910    9.3650    6.6600 C   0  0  2  0  0  0
   22.2830    9.4600    7.1760 N   0  0  0  0  0  0
   23.2470    8.5550    6.9690 C   0  0  0  0  0  0
   23.3000    7.3460    6.2640 C   0  0  0  0  0  0
   24.4800    6.6020    6.2280 C   0  0  0  0  0  0
   24.5480    5.2730    5.4500 C   0  0  0  0  0  0
   24.4330    4.1140    6.3520 N   0  3  2  0  0  0
   25.4840    4.1440    7.3870 C   0  0  0  0  0  0
   25.3250    2.9490    8.3330 C   0  0  0  0  0  0
   24.5460    2.8760    5.5510 C   0  0  0  0  0  0
   24.4130    1.6290    6.4330 C   0  0  0  0  0  0
   25.4480    1.6410    7.5540 C   0  0  2  0  0  0
   25.3060    0.4140    8.4560 C   0  0  0  0  0  0
   23.9010    0.3630    9.0590 C   0  0  0  0  0  0
   26.3400    0.4670    9.5700 C   0  0  0  0  0  0
   25.5440   -0.7500    7.6370 O   0  0  0  0  0  0
   25.6080    7.0740    6.8950 C   0  0  0  0  0  0
   25.5500    8.2800    7.5920 C   0  0  0  0  0  0
   24.3720    9.0220    7.6370 C   0  0  0  0  0  0
   24.0540   10.1890    8.2260 N   0  0  0  0  0  0
   22.7810   10.4460    7.9250 C   0  0  0  0  0  0
   22.1000   11.5010    8.3620 N   0  0  0  0  0  0
   22.6930   12.3480    9.2130 C   0  0  0  0  0  0
   23.8690   12.2670    9.5720 O   0  0  0  0  0  0
   21.7920   13.4450    9.7610 C   0  0  0  0  0  0
   20.4870   13.5880    9.2990 C   0  0  0  0  0  0
   19.6770   14.5830    9.8330 C   0  0  0  0  0  0
   20.1670   15.4150   10.8300 C   0  0  0  0  0  0
   19.3870   16.3740   11.3570 F   0  0  0  0  0  0
   21.4630   15.2630   11.2980 C   0  0  0  0  0  0
   22.2730   14.2700   10.7710 C   0  0  0  0  0  0
   14.2130   12.7088    9.8059 H   0  0  0  0  0  0
   14.1196   11.0068    9.2390 H   0  0  0  0  0  0
   14.4435   12.3278    8.0656 H   0  0  0  0  0  0
   16.6405   12.7737    9.1630 H   0  0  0  0  0  0
   16.0047   12.0922   11.4609 H   0  0  0  0  0  0
   17.4917   11.2560   10.8985 H   0  0  0  0  0  0
   15.9234   10.3805   10.9223 H   0  0  0  0  0  0
   16.3549    9.7714    8.4240 H   0  0  0  0  0  0
   17.1096    9.6466    5.9120 H   0  0  0  0  0  0
   19.0438    9.8096    4.5906 H   0  0  0  0  0  0
   18.7066   11.5087    5.0659 H   0  0  0  0  0  0
   21.1282   10.8651    5.1486 H   0  0  0  0  0  0
   20.4784   11.4669    6.7114 H   0  0  0  0  0  0
   17.8599    8.7084    8.1932 H   0  0  0  0  0  0
   18.5280    7.9408    6.7129 H   0  0  0  0  0  0
   19.9376    9.9933    8.4893 H   0  0  0  0  0  0
   20.2859    8.2337    8.3933 H   0  0  0  0  0  0
   20.9019    8.5447    5.9272 H   0  0  0  0  0  0
   22.4149    6.9843    5.7407 H   0  0  0  0  0  0
   23.7240    5.2315    4.7225 H   0  0  0  0  0  0
   25.5093    5.2075    4.9193 H   0  0  0  0  0  0
   23.4585    4.1513    6.8609 H   0  0  0  0  0  0
   26.4726    4.0957    6.9071 H   0  0  0  0  0  0
   25.4024    5.0760    7.9656 H   0  0  0  0  0  0
   26.1091    2.9846    9.1037 H   0  0  0  0  0  0
   24.3364    2.9907    8.8135 H   0  0  0  0  0  0
   23.7490    2.8556    4.7931 H   0  0  0  0  0  0
   25.5264    2.8498    5.0529 H   0  0  0  0  0  0
   23.4083    1.6016    6.8801 H   0  0  0  0  0  0
   24.5663    0.7284    5.8203 H   0  0  0  0  0  0
   26.4571    1.5874    7.1193 H   0  0  0  0  0  0
   23.7357    1.2561    9.6796 H   0  0  0  0  0  0
   23.8013   -0.5390    9.6806 H   0  0  0  0  0  0
   23.1558    0.3353    8.2504 H   0  0  0  0  0  0
   26.1600    1.3538   10.1954 H   0  0  0  0  0  0
   27.3476    0.5251    9.1325 H   0  0  0  0  0  0
   26.2602   -0.4397   10.1878 H   0  0  0  0  0  0
   24.8929   -0.9587    6.7753 H   0  0  0  0  0  0
   26.5350    6.5011    6.8720 H   0  0  0  0  0  0
   26.4373    8.6468    8.1080 H   0  0  0  0  0  0
   20.1031   12.9245    8.5241 H   0  0  0  0  0  0
   18.6574   14.7099    9.4690 H   0  0  0  0  0  0
   21.8436   15.9225   12.0780 H   0  0  0  0  0  0
   23.2868   14.1359   11.1482 H   0  0  0  0  0  0
   24.8065   10.7282    8.8202 H   0  0  0  0  0  0
  1  2  1  0  0  0
  1 43  1  0  0  0
  1 44  1  0  0  0
  1 45  1  0  0  0
  2  3  1  0  0  0
  2  4  1  0  0  0
  2 46  1  0  0  0
  3 47  1  0  0  0
  3 48  1  0  0  0
  3 49  1  0  0  0
  4  5  1  0  0  0
  4 50  1  0  0  0
  5  6  2  0  0  0
  5  7  1  0  0  0
  7  8  1  0  0  0
  7 10  1  0  0  0
  7 51  1  0  0  0
  8  9  1  0  0  0
  8 52  1  0  0  0
  8 53  1  0  0  0
  9 12  1  0  0  0
  9 54  1  0  0  0
  9 55  1  0  0  0
 10 11  1  0  0  0
 10 56  1  0  0  0
 10 57  1  0  0  0
 11 12  1  0  0  0
 11 58  1  0  0  0
 11 59  1  0  0  0
 12 13  1  0  0  0
 12 60  1  0  0  0
 13 14  1  0  0  0
 13 32  1  0  0  0
 14 15  1  0  0  0
 14 30  2  0  0  0
 15 16  2  0  0  0
 15 61  1  0  0  0
 16 17  1  0  0  0
 16 28  1  0  0  0
 17 18  1  0  0  0
 17 62  1  0  0  0
 17 63  1  0  0  0
 18 19  1  0  0  0
 18 21  1  0  0  0
 18 64  1  0  0  0
 19 20  1  0  0  0
 19 65  1  0  0  0
 19 66  1  0  0  0
 20 23  1  0  0  0
 20 67  1  0  0  0
 20 68  1  0  0  0
 21 22  1  0  0  0
 21 69  1  0  0  0
 21 70  1  0  0  0
 22 23  1  0  0  0
 22 71  1  0  0  0
 22 72  1  0  0  0
 23 24  1  0  0  0
 23 73  1  0  0  0
 24 25  1  0  0  0
 24 26  1  0  0  0
 24 27  1  0  0  0
 25 74  1  0  0  0
 25 75  1  0  0  0
 25 76  1  0  0  0
 26 77  1  0  0  0
 26 78  1  0  0  0
 26 79  1  0  0  0
 27 80  1  0  0  0
 28 29  2  0  0  0
 28 81  1  0  0  0
 29 30  1  0  0  0
 29 82  1  0  0  0
 30 31  1  0  0  0
 31 32  1  0  0  0
 31 87  1  0  0  0
 32 33  2  0  0  0
 33 34  1  0  0  0
 34 35  2  0  0  0
 34 36  1  0  0  0
 36 37  2  0  0  0
 36 42  1  0  0  0
 37 38  1  0  0  0
 37 83  1  0  0  0
 38 39  2  0  0  0
 38 84  1  0  0  0
 39 40  1  0  0  0
 39 41  1  0  0  0
 41 42  2  0  0  0
 41 85  1  0  0  0
 42 86  1  0  0  0
M  CHG  1  18   1
M  END
> <s_m_source_file>
../4fod_ligand.sdf

> <i_m_source_file_index>
1

> <s_epik_input>
W0NIM11bQ0hdKFtDSDNdKVtOSF1DKD1PKVtDQEhdMVtDSDJdW0NIMl1bQ0BIXShbQ0gyXVtDSDJdMSluMmMoW05IXUMoPU8pYzNbY0hdW2NIXWMoRilbY0hdW2NIXTMpbmMoYzI0KVtjSF1bY0hdYyhbY0hdNClbQ0gyXVtOQEBIK101W0NIMl1bQ0gyXVtDQEhdKFtDSDJdW0NIMl01KUMoW0NIM10pKFtDSDNdKVtPSF0=

> <s_epik_cmdline>
J2VwaWtfYXBwJywgJy1pbWFlJywgJ2xpZ2FuZF9wcm8ubWFlJywgJy1vbWFlJywgJ2xpZ2FuZF9wcmVwLm1hZScsICctbXMnLCAnMScsICctcGgnLCAnNycsICctcGh0JywgJzAuNScsICctbnQn

> <r_lp_tautomer_probability>
1

> <r_epik_Ionization_Penalty>
  0.3090

> <r_epik_Ionization_Penalty_Charging>
  0.3090

> <r_epik_Ionization_Penalty_Neutral>
  0.0000

> <r_epik_State_Penalty>
 -0.0000

> <r_epik_Charging_Adjusted_Penalty>
0.30902393115365

> <i_epik_Tot_Q>
1

> <i_epik_Tot_abs_Q>
1

$$$$
