4fp1_ligand
                    3D
 Schrodinger Suite 2020-3.
 14 13  0  0  1  0            999 V2000
  -22.6890  -23.2120  -24.6290 O   0  0  0  0  0  0
  -22.9370  -22.8240  -23.2760 C   0  0  0  0  0  0
  -21.7450  -22.0510  -22.6290 C   0  0  0  0  0  0
  -22.0530  -21.1940  -21.7870 O   0  5  0  0  0  0
  -20.7020  -22.4240  -23.0850 O   0  0  0  0  0  0
  -24.0850  -21.9620  -23.3410 C   0  0  0  0  0  0
  -24.5850  -21.6890  -22.0900 F   0  0  0  0  0  0
  -25.0780  -22.5340  -24.0690 F   0  0  0  0  0  0
  -23.7200  -20.8190  -23.8960 F   0  0  0  0  0  0
  -23.4870  -23.9780  -22.3390 C   0  0  0  0  0  0
  -23.3790  -25.1590  -22.8330 F   0  0  0  0  0  0
  -24.7940  -23.9420  -22.0640 F   0  0  0  0  0  0
  -22.8860  -23.9180  -21.1630 F   0  0  0  0  0  0
  -22.3059  -22.4757  -25.3509 H   0  0  0  0  0  0
  1  2  1  0  0  0
  1 14  1  0  0  0
  2  3  1  0  0  0
  2  6  1  0  0  0
  2 10  1  0  0  0
  3  4  1  0  0  0
  3  5  2  0  0  0
  6  7  1  0  0  0
  6  8  1  0  0  0
  6  9  1  0  0  0
 10 11  1  0  0  0
 10 12  1  0  0  0
 10 13  1  0  0  0
M  CHG  1   4  -1
M  END
> <s_m_source_file>
../4fp1_ligand.sdf

> <i_m_source_file_index>
1

> <s_epik_input>
RkMoRikoRilDKFtPSF0pKEMoRikoRilGKUMoPU8pW09IXQ==

> <s_epik_cmdline>
J2VwaWtfYXBwJywgJy1pbWFlJywgJ2xpZ2FuZF9wcm8ubWFlJywgJy1vbWFlJywgJ2xpZ2FuZF9wcmVwLm1hZScsICctbXMnLCAnMScsICctcGgnLCAnNycsICctcGh0JywgJzAuNScsICctbnQn

> <r_lp_tautomer_probability>
1

> <r_epik_Ionization_Penalty>
  0.0000

> <r_epik_Ionization_Penalty_Charging>
  0.0000

> <r_epik_Ionization_Penalty_Neutral>
  0.0000

> <r_epik_State_Penalty>
 -0.0000

> <r_epik_Charging_Adjusted_Penalty>
4.09899861705012e-07

> <i_epik_Tot_Q>
-1

> <i_epik_Tot_abs_Q>
1

$$$$
