4fpf_ligand
                    3D
 Schrodinger Suite 2020-3.
 27 27  0  0  1  0            999 V2000
   -7.2120   -8.0560  -39.9300 C   0  0  0  0  0  0
   -6.4430   -7.3280  -40.8120 C   0  0  0  0  0  0
   -7.1700   -7.7390  -38.5440 C   0  0  0  0  0  0
   -5.6290   -6.0220  -39.0290 C   0  0  0  0  0  0
   -4.7930   -6.0900  -34.8030 C   0  0  0  0  0  0
   -3.4860   -6.5060  -34.1100 C   0  0  0  0  0  0
   -6.3190   -6.3720  -36.6020 C   0  0  0  0  0  0
   -5.6630   -6.3310  -40.3900 C   0  0  0  0  0  0
   -6.4070   -6.7490  -38.1360 C   0  0  0  0  0  0
   -5.0980   -6.8220  -35.9800 N   0  3  0  0  0  0
   -2.5600   -4.1200  -33.5440 O   0  0  0  0  0  0
   -3.8380   -5.1750  -31.8130 O   0  5  0  0  0  0
   -1.6220   -5.9640  -32.3010 O   0  0  0  0  0  0
   -2.8460   -5.3870  -32.8840 S   0  0  0  0  0  0
   -4.6950   -5.4100  -41.4650 Cl  0  0  0  0  0  0
   -7.8457   -8.8662  -40.2907 H   0  0  0  0  0  0
   -6.4725   -7.5712  -41.8741 H   0  0  0  0  0  0
   -7.7629   -8.3096  -37.8292 H   0  0  0  0  0  0
   -4.9941   -5.2129  -38.6679 H   0  0  0  0  0  0
   -5.6364   -6.2333  -34.1115 H   0  0  0  0  0  0
   -4.7330   -5.0307  -35.0935 H   0  0  0  0  0  0
   -3.6346   -7.4653  -33.5926 H   0  0  0  0  0  0
   -2.6906   -6.6144  -34.8621 H   0  0  0  0  0  0
   -6.3678   -5.2788  -36.4897 H   0  0  0  0  0  0
   -7.1588   -6.8339  -36.0621 H   0  0  0  0  0  0
   -4.2811   -6.7040  -36.7072 H   0  0  0  0  0  0
   -5.2150   -7.8867  -35.7297 H   0  0  0  0  0  0
  1  2  2  0  0  0
  1  3  1  0  0  0
  1 16  1  0  0  0
  2  8  1  0  0  0
  2 17  1  0  0  0
  3  9  2  0  0  0
  3 18  1  0  0  0
  4  8  2  0  0  0
  4  9  1  0  0  0
  4 19  1  0  0  0
  5  6  1  0  0  0
  5 10  1  0  0  0
  5 20  1  0  0  0
  5 21  1  0  0  0
  6 14  1  0  0  0
  6 22  1  0  0  0
  6 23  1  0  0  0
  7  9  1  0  0  0
  7 10  1  0  0  0
  7 24  1  0  0  0
  7 25  1  0  0  0
  8 15  1  0  0  0
 10 26  1  0  0  0
 10 27  1  0  0  0
 11 14  2  0  0  0
 12 14  1  0  0  0
 13 14  2  0  0  0
M  CHG  2  10   1  12  -1
M  END
> <s_m_source_file>
../4fpf_ligand.sdf

> <i_m_source_file_index>
1

> <s_epik_input>
Q2xjMVtjSF1bY0hdW2NIXWMoW2NIXTEpW0NIMl1bTkgyK11bQ0gyXVtDSDJdUyg9TykoPU8pW09IXQ==

> <s_epik_cmdline>
J2VwaWtfYXBwJywgJy1pbWFlJywgJ2xpZ2FuZF9wcm8ubWFlJywgJy1vbWFlJywgJ2xpZ2FuZF9wcmVwLm1hZScsICctbXMnLCAnMScsICctcGgnLCAnNycsICctcGh0JywgJzAuNScsICctbnQn

> <r_epik_Ionization_Penalty>
  0.0323

> <r_epik_Ionization_Penalty_Charging>
  0.0323

> <r_epik_Ionization_Penalty_Neutral>
  0.0000

> <r_epik_State_Penalty>
  0.0267

> <r_epik_Charging_Adjusted_Penalty>
0.0590204628772134

> <i_epik_Tot_Q>
0

> <i_epik_Tot_abs_Q>
2

$$$$
