4fpk_ligand
                    3D
 Schrodinger Suite 2020-3.
 30 30  0  0  1  0            999 V2000
   -4.8770   -5.6860  -41.3260 C   0  0  0  0  0  0
   -5.7390   -6.3620  -40.2650 C   0  0  0  0  0  0
   -5.6090   -6.0120  -38.9500 C   0  0  0  0  0  0
   -6.6900   -7.3750  -40.6550 C   0  0  0  0  0  0
   -7.4720   -8.0060  -39.6930 C   0  0  0  0  0  0
   -7.3390   -7.6440  -38.3090 C   0  0  0  0  0  0
   -6.4370   -6.6670  -37.9400 C   0  0  0  0  0  0
   -6.2740   -6.2830  -36.4980 C   0  0  0  0  0  0
   -4.9340   -6.2210  -36.0430 N   0  3  0  0  0  0
   -4.8740   -6.2820  -34.5620 C   0  0  0  0  0  0
   -3.5220   -6.6000  -33.9600 C   0  0  0  0  0  0
   -2.8570   -5.4330  -32.7700 S   0  0  0  0  0  0
   -1.6000   -6.0040  -32.1560 O   0  0  0  0  0  0
   -3.8680   -5.1520  -31.6670 O   0  5  0  0  0  0
   -2.5590   -4.2000  -33.5050 O   0  0  0  0  0  0
   -4.2174   -4.9476  -40.8467 H   0  0  0  0  0  0
   -5.5248   -5.1793  -42.0565 H   0  0  0  0  0  0
   -4.2671   -6.4434  -41.8401 H   0  0  0  0  0  0
   -4.8903   -5.2471  -38.6560 H   0  0  0  0  0  0
   -6.7957   -7.6462  -41.7054 H   0  0  0  0  0  0
   -8.1855   -8.7749  -39.9892 H   0  0  0  0  0  0
   -7.9484   -8.1393  -37.5531 H   0  0  0  0  0  0
   -6.7094   -5.2865  -36.3325 H   0  0  0  0  0  0
   -6.7889   -7.0183  -35.8623 H   0  0  0  0  0  0
   -4.3673   -7.0691  -36.4549 H   0  0  0  0  0  0
   -4.4767   -5.2778  -36.3767 H   0  0  0  0  0  0
   -5.1715   -5.3096  -34.1426 H   0  0  0  0  0  0
   -5.5587   -7.0627  -34.1991 H   0  0  0  0  0  0
   -3.5741   -7.5621  -33.4292 H   0  0  0  0  0  0
   -2.7699   -6.6630  -34.7603 H   0  0  0  0  0  0
  1  2  1  0  0  0
  1 16  1  0  0  0
  1 17  1  0  0  0
  1 18  1  0  0  0
  2  3  2  0  0  0
  2  4  1  0  0  0
  3  7  1  0  0  0
  3 19  1  0  0  0
  4  5  2  0  0  0
  4 20  1  0  0  0
  5  6  1  0  0  0
  5 21  1  0  0  0
  6  7  2  0  0  0
  6 22  1  0  0  0
  7  8  1  0  0  0
  8  9  1  0  0  0
  8 23  1  0  0  0
  8 24  1  0  0  0
  9 10  1  0  0  0
  9 25  1  0  0  0
  9 26  1  0  0  0
 10 11  1  0  0  0
 10 27  1  0  0  0
 10 28  1  0  0  0
 11 12  1  0  0  0
 11 29  1  0  0  0
 11 30  1  0  0  0
 12 13  2  0  0  0
 12 14  1  0  0  0
 12 15  2  0  0  0
M  CHG  2   9   1  14  -1
M  END
> <s_m_source_file>
../4fpk_ligand.sdf

> <i_m_source_file_index>
1

> <s_epik_input>
W0NIM11jMVtjSF1jKFtjSF1bY0hdW2NIXTEpW0NIMl1bTkgyK11bQ0gyXVtDSDJdUyg9TykoPU8pW09IXQ==

> <s_epik_cmdline>
J2VwaWtfYXBwJywgJy1pbWFlJywgJ2xpZ2FuZF9wcm8ubWFlJywgJy1vbWFlJywgJ2xpZ2FuZF9wcmVwLm1hZScsICctbXMnLCAnMScsICctcGgnLCAnNycsICctcGh0JywgJzAuNScsICctbnQn

> <r_epik_Ionization_Penalty>
  0.0266

> <r_epik_Ionization_Penalty_Charging>
  0.0266

> <r_epik_Ionization_Penalty_Neutral>
  0.0000

> <r_epik_State_Penalty>
  0.0217

> <r_epik_Charging_Adjusted_Penalty>
0.0483483949193859

> <i_epik_Tot_Q>
0

> <i_epik_Tot_abs_Q>
2

$$$$
