4fqo_ligand
                    3D
 Schrodinger Suite 2020-3.
 57 58  0  0  1  0            999 V2000
   14.8020    4.8010   25.7680 N   0  3  0  0  0  0
   13.9230    4.8990   24.8670 C   0  0  0  0  0  0
   14.2340    4.6250   23.5920 N   0  0  0  0  0  0
   12.5170    5.3300   25.2070 C   0  0  0  0  0  0
   11.7230    5.9250   24.2220 C   0  0  0  0  0  0
   10.4230    6.3290   24.5120 C   0  0  0  0  0  0
   12.0000    5.1300   26.4890 C   0  0  0  0  0  0
   10.6940    5.5290   26.7760 C   0  0  0  0  0  0
    9.9040    6.1300   25.7930 C   0  0  0  0  0  0
    8.6260    6.5100   26.1360 O   0  0  0  0  0  0
    7.6980    7.1580   25.2630 C   0  0  0  0  0  0
    7.1920    6.1800   24.2070 C   0  0  0  0  0  0
    5.8340    5.5770   24.5330 C   0  0  0  0  0  0
    5.6980    4.2160   23.8530 C   0  0  0  0  0  0
    4.5340    3.4130   24.4230 C   0  0  0  0  0  0
    3.6620    2.8320   23.3050 C   0  0  0  0  0  0
    3.3560    1.3260   23.3960 C   0  0  0  0  0  0
    3.7370    0.8490   24.6790 O   0  0  0  0  0  0
    3.3620   -0.3550   25.2340 C   0  0  0  0  0  0
    2.0760   -0.9330   25.1240 C   0  0  0  0  0  0
    1.7940   -2.1510   25.7550 C   0  0  0  0  0  0
    4.3650   -0.9700   25.9540 C   0  0  0  0  0  0
    4.0890   -2.1720   26.5680 C   0  0  0  0  0  0
    2.8270   -2.7520   26.4890 C   0  0  0  0  0  0
    2.6970   -4.0610   27.1950 C   0  0  0  0  0  0
    3.7480   -4.8930   27.2120 N   0  0  0  0  0  0
    1.6250   -4.3810   27.7660 N   0  3  0  0  0  0
   15.8233    4.4859   25.5080 H   0  0  0  0  0  0
   15.2549    4.3099   23.3304 H   0  0  0  0  0  0
   13.4683    4.7153   22.8075 H   0  0  0  0  0  0
   12.1249    6.0736   23.2198 H   0  0  0  0  0  0
    9.8120    6.7993   23.7416 H   0  0  0  0  0  0
   12.6132    4.6649   27.2609 H   0  0  0  0  0  0
   10.2872    5.3705   27.7747 H   0  0  0  0  0  0
    6.8431    7.5294   25.8471 H   0  0  0  0  0  0
    8.1941    8.0022   24.7619 H   0  0  0  0  0  0
    7.0966    6.6993   23.2420 H   0  0  0  0  0  0
    7.9043    5.3478   24.1066 H   0  0  0  0  0  0
    5.7404    5.4514   25.6218 H   0  0  0  0  0  0
    5.0393    6.2462   24.1714 H   0  0  0  0  0  0
    5.5243    4.3598   22.7764 H   0  0  0  0  0  0
    6.6221    3.6380   24.0013 H   0  0  0  0  0  0
    4.9238    2.5834   25.0311 H   0  0  0  0  0  0
    3.9104    4.0664   25.0509 H   0  0  0  0  0  0
    2.6865    3.3404   23.2991 H   0  0  0  0  0  0
    4.1599    2.9828   22.3358 H   0  0  0  0  0  0
    2.2789    1.1610   23.2455 H   0  0  0  0  0  0
    3.9212    0.7894   22.6197 H   0  0  0  0  0  0
    1.3016   -0.4287   24.5460 H   0  0  0  0  0  0
    0.8101   -2.6139   25.6787 H   0  0  0  0  0  0
    5.3525   -0.5158   26.0352 H   0  0  0  0  0  0
    4.8755   -2.6789   27.1271 H   0  0  0  0  0  0
    4.6841   -4.6070   26.7101 H   0  0  0  0  0  0
    3.6743   -5.8617   27.7279 H   0  0  0  0  0  0
    0.7662   -3.6939   27.7485 H   0  0  0  0  0  0
   14.5465    5.0307   26.8130 H   0  0  0  0  0  0
    1.5450   -5.3483   28.2836 H   0  0  0  0  0  0
  1  2  2  0  0  0
  1 28  1  0  0  0
  1 56  1  0  0  0
  2  3  1  0  0  0
  2  4  1  0  0  0
  3 29  1  0  0  0
  3 30  1  0  0  0
  4  5  2  0  0  0
  4  7  1  0  0  0
  5  6  1  0  0  0
  5 31  1  0  0  0
  6  9  2  0  0  0
  6 32  1  0  0  0
  7  8  2  0  0  0
  7 33  1  0  0  0
  8  9  1  0  0  0
  8 34  1  0  0  0
  9 10  1  0  0  0
 10 11  1  0  0  0
 11 12  1  0  0  0
 11 35  1  0  0  0
 11 36  1  0  0  0
 12 13  1  0  0  0
 12 37  1  0  0  0
 12 38  1  0  0  0
 13 14  1  0  0  0
 13 39  1  0  0  0
 13 40  1  0  0  0
 14 15  1  0  0  0
 14 41  1  0  0  0
 14 42  1  0  0  0
 15 16  1  0  0  0
 15 43  1  0  0  0
 15 44  1  0  0  0
 16 17  1  0  0  0
 16 45  1  0  0  0
 16 46  1  0  0  0
 17 18  1  0  0  0
 17 47  1  0  0  0
 17 48  1  0  0  0
 18 19  1  0  0  0
 19 20  2  0  0  0
 19 22  1  0  0  0
 20 21  1  0  0  0
 20 49  1  0  0  0
 21 24  2  0  0  0
 21 50  1  0  0  0
 22 23  2  0  0  0
 22 51  1  0  0  0
 23 24  1  0  0  0
 23 52  1  0  0  0
 24 25  1  0  0  0
 25 26  1  0  0  0
 25 27  2  0  0  0
 26 53  1  0  0  0
 26 54  1  0  0  0
 27 55  1  0  0  0
 27 57  1  0  0  0
M  CHG  2   1   1  27   1
M  END
> <s_m_source_file>
../4fqo_ligand.sdf

> <i_m_source_file_index>
1

> <s_epik_input>
W0hdL049QygvW05IMl0pYzFbY0hdW2NIXWMoW2NIXVtjSF0xKU9bQ0gyXVtDSDJdW0NIMl1bQ0gyXVtDSDJdW0NIMl1bQ0gyXU9jMltjSF1bY0hdYyhbY0hdW2NIXTIpL0MoW05IMl0pPU5cW0hd

> <s_epik_cmdline>
J2VwaWtfYXBwJywgJy1pbWFlJywgJ2xpZ2FuZF9wcm8ubWFlJywgJy1vbWFlJywgJ2xpZ2FuZF9wcmVwLm1hZScsICctbXMnLCAnMScsICctcGgnLCAnNycsICctcGh0JywgJzAuNScsICctbnQn

> <r_lp_tautomer_probability>
1

> <r_epik_Ionization_Penalty>
  0.0002

> <r_epik_Ionization_Penalty_Charging>
  0.0002

> <r_epik_Ionization_Penalty_Neutral>
  0.0000

> <r_epik_State_Penalty>
 -0.0000

> <r_epik_Charging_Adjusted_Penalty>
0.000150897695684095

> <i_epik_Tot_Q>
2

> <i_epik_Tot_abs_Q>
2

> <s_epik_Chemistry_Notes>
This compound has an imine and may undergo hydrolysis.

$$$$
