4fr3_ligand
                    3D
 Schrodinger Suite 2020-3.
125124  0  0  1  0            999 V2000
   -6.9860   -7.1440   15.0900 N   0  3  0  0  0  0
   -8.0370   -6.9480   14.0410 C   0  0  2  0  0  0
   -9.4060   -7.5540   14.4790 C   0  0  0  0  0  0
   -9.6360   -7.8280   15.6930 O   0  0  0  0  0  0
   -7.5410   -7.4790   12.6690 C   0  0  0  0  0  0
   -7.7060   -8.9990   12.3920 C   0  0  0  0  0  0
   -6.7130   -9.9280   13.1730 C   0  0  0  0  0  0
   -5.3950  -10.2180   12.4100 C   0  0  0  0  0  0
   -5.5920  -11.1370   11.2250 N   0  3  0  0  0  0
  -10.3260   -7.7040   13.5200 N   0  0  0  0  0  0
  -11.5960   -8.3480   13.8190 C   0  0  2  0  0  0
  -11.4370   -9.8520   13.4840 C   0  0  0  0  0  0
  -10.8190  -10.1960   12.4470 O   0  0  0  0  0  0
  -12.7470   -7.6400   13.0720 C   0  0  0  0  0  0
  -14.1270   -8.3180   13.1900 C   0  0  0  0  0  0
  -15.2640   -7.3090   13.0010 C   0  0  0  0  0  0
  -16.5680   -7.9680   12.8920 N   0  0  0  0  0  0
  -17.3750   -8.2240   13.9460 C   0  0  0  0  0  0
  -17.0240   -7.8720   15.1930 N   0  0  0  0  0  0
  -18.5580   -8.8130   13.7660 N   0  3  0  0  0  0
  -11.9500  -10.7360   14.3580 N   0  0  0  0  0  0
  -11.8900  -12.1920   14.0770 C   0  0  2  0  0  0
  -12.6000  -12.5100   12.7440 C   0  0  0  0  0  0
  -13.4840  -11.7660   12.3400 O   0  0  0  0  0  0
  -12.5190  -12.9740   15.2470 C   0  0  0  0  0  0
  -14.1190  -13.1030   15.2400 C   0  0  0  0  0  0
  -14.8690  -11.6940   15.3240 C   0  0  0  0  0  0
  -16.3410  -11.8190   15.2780 N   0  0  0  0  0  0
  -17.0650  -12.0580   14.1610 C   0  0  0  0  0  0
  -16.4540  -12.1060   12.9660 N   0  3  0  0  0  0
  -18.4210  -12.2160   14.2340 N   0  0  0  0  0  0
  -12.2430  -13.5960   12.0940 N   0  0  0  0  0  0
  -12.7550  -13.8960   10.7650 C   0  0  2  0  0  0
  -13.9810  -14.8150   10.8600 C   0  0  0  0  0  0
  -14.0190  -15.7900   11.6800 O   0  0  0  0  0  0
  -11.6740  -14.6340    9.9760 C   0  0  0  0  0  0
  -10.3110  -13.8530    9.9960 C   0  0  0  0  0  0
  -10.5310  -12.4740    9.2340 C   0  0  0  0  0  0
   -9.3690  -11.4830    9.4230 C   0  0  0  0  0  0
   -8.2640  -11.9910    8.6800 N   0  3  0  0  0  0
  -14.9400  -14.5580   10.0020 N   0  0  0  0  0  0
  -15.9800  -15.5420    9.7650 C   0  0  1  0  0  0
  -17.3280  -15.1320   10.4270 C   0  0  0  0  0  0
  -17.7320  -13.8870    9.8860 O   0  0  0  0  0  0
  -16.1730  -15.6470    8.2410 C   0  0  0  0  0  0
  -15.5940  -14.8530    7.4790 O   0  0  0  0  0  0
  -19.2050  -13.3770   10.3420 P   0  0  0  0  0  0
  -19.3200  -12.0590    9.5190 O   0  0  0  0  0  0
  -20.2250  -14.5200    9.8670 O   0  5  0  0  0  0
  -19.2760  -13.0590   11.8790 O   0  5  0  0  0  0
  -16.9380  -16.5870    7.7620 N   0  0  0  0  0  0
  -17.0730  -16.7170    6.2680 C   0  0  2  0  0  0
  -18.4130  -17.1640    5.8130 C   0  0  0  0  0  0
  -19.0890  -17.7420    6.5800 O   0  0  0  0  0  0
  -16.0180  -17.7250    5.7330 C   0  0  0  0  0  0
  -16.3890  -19.1820    6.2060 C   0  0  0  0  0  0
  -15.9370  -17.6900    4.1700 C   0  0  0  0  0  0
  -18.8350  -17.0230    4.6800 O   0  5  0  0  0  0
   -7.3543   -6.7626   16.0538 H   0  0  0  0  0  0
   -6.0754   -6.5976   14.8033 H   0  0  0  0  0  0
   -6.7565   -8.2157   15.1833 H   0  0  0  0  0  0
   -8.1821   -5.8616   13.9473 H   0  0  0  0  0  0
   -8.0884   -6.9728   11.8603 H   0  0  0  0  0  0
   -6.4646   -7.2775   12.5652 H   0  0  0  0  0  0
   -8.7209   -9.3152   12.6749 H   0  0  0  0  0  0
   -7.5454   -9.1962   11.3218 H   0  0  0  0  0  0
   -6.4400   -9.4531   14.1269 H   0  0  0  0  0  0
   -7.1955  -10.8966   13.3705 H   0  0  0  0  0  0
   -4.9727   -9.2738   12.0356 H   0  0  0  0  0  0
   -4.6754  -10.6973   13.0901 H   0  0  0  0  0  0
   -4.6259  -11.3046   10.7264 H   0  0  0  0  0  0
   -6.2953  -10.6756   10.5161 H   0  0  0  0  0  0
   -5.9980  -12.0991   11.5707 H   0  0  0  0  0  0
  -10.1204   -7.3390   12.5029 H   0  0  0  0  0  0
  -11.8118   -8.2300   14.8911 H   0  0  0  0  0  0
  -12.8666   -6.6197   13.4654 H   0  0  0  0  0  0
  -12.5135   -7.5938   11.9981 H   0  0  0  0  0  0
  -14.2200   -9.0969   12.4188 H   0  0  0  0  0  0
  -14.2274   -8.7743   14.1859 H   0  0  0  0  0  0
  -15.2948   -6.6257   13.8625 H   0  0  0  0  0  0
  -15.0924   -6.7313   12.0807 H   0  0  0  0  0  0
  -16.9428   -8.2864   11.9081 H   0  0  0  0  0  0
  -16.0549   -7.3844   15.3747 H   0  0  0  0  0  0
  -17.7055   -8.0712   16.0331 H   0  0  0  0  0  0
  -18.8748   -9.1135   12.7564 H   0  0  0  0  0  0
  -12.4163  -10.3737   15.2861 H   0  0  0  0  0  0
  -10.8275  -12.4624   13.9874 H   0  0  0  0  0  0
  -12.1332  -14.0041   15.2489 H   0  0  0  0  0  0
  -12.2600  -12.4837   16.1970 H   0  0  0  0  0  0
  -14.4431  -13.5952   14.3112 H   0  0  0  0  0  0
  -14.4424  -13.7017   16.1043 H   0  0  0  0  0  0
  -14.6057  -11.1942   16.2679 H   0  0  0  0  0  0
  -14.5609  -11.0635   14.4769 H   0  0  0  0  0  0
  -16.9308  -11.7164   16.2008 H   0  0  0  0  0  0
  -15.3633  -11.9796   12.9005 H   0  0  0  0  0  0
  -18.9274  -12.1777   15.2097 H   0  0  0  0  0  0
  -19.0056  -12.3814   13.3170 H   0  0  0  0  0  0
  -11.5381  -14.2862   12.5806 H   0  0  0  0  0  0
  -13.0167  -12.9283   10.3122 H   0  0  0  0  0  0
  -11.5117  -15.6281   10.4180 H   0  0  0  0  0  0
  -11.9954  -14.7459    8.9300 H   0  0  0  0  0  0
  -10.0086  -13.6699   11.0376 H   0  0  0  0  0  0
   -9.5386  -14.4504    9.4895 H   0  0  0  0  0  0
  -10.6331  -12.6634    8.1553 H   0  0  0  0  0  0
  -11.4444  -11.9894    9.6092 H   0  0  0  0  0  0
   -9.6672  -10.4926    9.0485 H   0  0  0  0  0  0
   -9.1188  -11.4108   10.4917 H   0  0  0  0  0  0
   -7.4063  -11.3106    8.7870 H   0  0  0  0  0  0
   -8.5406  -12.0681    7.6181 H   0  0  0  0  0  0
   -7.9923  -12.9863    9.0614 H   0  0  0  0  0  0
  -14.9568  -13.5993    9.4629 H   0  0  0  0  0  0
  -15.6169  -16.4763   10.2180 H   0  0  0  0  0  0
  -18.0883  -15.8984   10.2157 H   0  0  0  0  0  0
  -17.1901  -15.0425   11.5146 H   0  0  0  0  0  0
  -17.4793  -17.2776    8.4253 H   0  0  0  0  0  0
  -16.9573  -15.6946    5.8791 H   0  0  0  0  0  0
  -15.0400  -17.4240    6.1366 H   0  0  0  0  0  0
  -16.4461  -19.2076    7.3042 H   0  0  0  0  0  0
  -15.6173  -19.8866    5.8625 H   0  0  0  0  0  0
  -17.3624  -19.4686    5.7814 H   0  0  0  0  0  0
  -15.6781  -16.6734    3.8390 H   0  0  0  0  0  0
  -16.9105  -17.9770    3.7459 H   0  0  0  0  0  0
  -15.1654  -18.3950    3.8270 H   0  0  0  0  0  0
  -19.2169   -8.9983   14.6272 H   0  0  0  0  0  0
  -17.0443  -12.2717   12.0527 H   0  0  0  0  0  0
  1  2  1  0  0  0
  1 59  1  0  0  0
  1 60  1  0  0  0
  1 61  1  0  0  0
  2  3  1  0  0  0
  2  5  1  0  0  0
  2 62  1  0  0  0
  3  4  2  0  0  0
  3 10  1  0  0  0
  5  6  1  0  0  0
  5 63  1  0  0  0
  5 64  1  0  0  0
  6  7  1  0  0  0
  6 65  1  0  0  0
  6 66  1  0  0  0
  7  8  1  0  0  0
  7 67  1  0  0  0
  7 68  1  0  0  0
  8  9  1  0  0  0
  8 69  1  0  0  0
  8 70  1  0  0  0
  9 71  1  0  0  0
  9 72  1  0  0  0
  9 73  1  0  0  0
 10 11  1  0  0  0
 10 74  1  0  0  0
 11 12  1  0  0  0
 11 14  1  0  0  0
 11 75  1  0  0  0
 12 13  2  0  0  0
 12 21  1  0  0  0
 14 15  1  0  0  0
 14 76  1  0  0  0
 14 77  1  0  0  0
 15 16  1  0  0  0
 15 78  1  0  0  0
 15 79  1  0  0  0
 16 17  1  0  0  0
 16 80  1  0  0  0
 16 81  1  0  0  0
 17 18  1  0  0  0
 17 82  1  0  0  0
 18 19  1  0  0  0
 18 20  2  0  0  0
 19 83  1  0  0  0
 19 84  1  0  0  0
 20 85  1  0  0  0
 20124  1  0  0  0
 21 22  1  0  0  0
 21 86  1  0  0  0
 22 23  1  0  0  0
 22 25  1  0  0  0
 22 87  1  0  0  0
 23 24  2  0  0  0
 23 32  1  0  0  0
 25 26  1  0  0  0
 25 88  1  0  0  0
 25 89  1  0  0  0
 26 27  1  0  0  0
 26 90  1  0  0  0
 26 91  1  0  0  0
 27 28  1  0  0  0
 27 92  1  0  0  0
 27 93  1  0  0  0
 28 29  1  0  0  0
 28 94  1  0  0  0
 29 30  2  0  0  0
 29 31  1  0  0  0
 30 95  1  0  0  0
 30125  1  0  0  0
 31 96  1  0  0  0
 31 97  1  0  0  0
 32 33  1  0  0  0
 32 98  1  0  0  0
 33 34  1  0  0  0
 33 36  1  0  0  0
 33 99  1  0  0  0
 34 35  2  0  0  0
 34 41  1  0  0  0
 36 37  1  0  0  0
 36100  1  0  0  0
 36101  1  0  0  0
 37 38  1  0  0  0
 37102  1  0  0  0
 37103  1  0  0  0
 38 39  1  0  0  0
 38104  1  0  0  0
 38105  1  0  0  0
 39 40  1  0  0  0
 39106  1  0  0  0
 39107  1  0  0  0
 40108  1  0  0  0
 40109  1  0  0  0
 40110  1  0  0  0
 41 42  1  0  0  0
 41111  1  0  0  0
 42 43  1  0  0  0
 42 45  1  0  0  0
 42112  1  0  0  0
 43 44  1  0  0  0
 43113  1  0  0  0
 43114  1  0  0  0
 44 47  1  0  0  0
 45 46  2  0  0  0
 45 51  1  0  0  0
 47 48  2  0  0  0
 47 49  1  0  0  0
 47 50  1  0  0  0
 51 52  1  0  0  0
 51115  1  0  0  0
 52 53  1  0  0  0
 52 55  1  0  0  0
 52116  1  0  0  0
 53 54  2  0  0  0
 53 58  1  0  0  0
 55 56  1  0  0  0
 55 57  1  0  0  0
 55117  1  0  0  0
 56118  1  0  0  0
 56119  1  0  0  0
 56120  1  0  0  0
 57121  1  0  0  0
 57122  1  0  0  0
 57123  1  0  0  0
M  CHG  8   1   1   9   1  20   1  30   1  40   1  49  -1  50  -1  58  -1
M  END
> <s_m_source_file>
../4fr3_ligand.sdf

> <i_m_source_file_index>
1

> <s_epik_input>
W05IMytdW0NIMl1bQ0gyXVtDSDJdW0NIMl1bQ0BIXShbTkgzK10pQyg9TylbTkhdW0NAQEhdKFtDSDJdW0NIMl1bQ0gyXVtOSF0vQyhbTkgyXSk9TlxbSF0pQyg9TylbTkhdW0NAQEhdKFtDSDJdW0NIMl1bQ0gyXVtOSF0vQyg9TlxbSF0pW05IMl0pQyg9TylbTkhdW0NAQEhdKFtDSDJdW0NIMl1bQ0gyXVtDSDJdW05IMytdKUMoPU8pW05IXVtDQEBIXShbQ0gyXU9QKD1PKShbT0hdKVtPSF0pQyg9TylbTkhdW0NASF0oQyg9TylbT0hdKVtDSF0oW0NIM10pW0NIM10=

> <s_epik_cmdline>
J2VwaWtfYXBwJywgJy1pbWFlJywgJ2xpZ2FuZF9wcm8ubWFlJywgJy1vbWFlJywgJ2xpZ2FuZF9wcmVwLm1hZScsICctbXMnLCAnMScsICctcGgnLCAnNycsICctcGh0JywgJzAuNScsICctbnQn

> <r_epik_Ionization_Penalty>
  0.2149

> <r_epik_Ionization_Penalty_Charging>
  0.2149

> <r_epik_Ionization_Penalty_Neutral>
  0.0000

> <r_epik_State_Penalty>
  0.1802

> <r_epik_Charging_Adjusted_Penalty>
0.395124481462615

> <i_epik_Tot_Q>
2

> <i_epik_Tot_abs_Q>
8

> <s_epik_Chemistry_Notes>
This compound has an imine and may undergo hydrolysis.

$$$$
