4fri_ligand
                    3D
 Schrodinger Suite 2020-3.
 46 49  0  0  1  0            999 V2000
   66.4290   54.9810   11.2800 C   0  0  0  0  0  0
   67.1120   53.8390   11.8750 O   0  0  0  0  0  0
   67.5090   52.8280   11.0230 C   0  0  0  0  0  0
   67.9440   51.6140   11.5530 C   0  0  0  0  0  0
   68.3550   50.5760   10.7030 C   0  0  0  0  0  0
   67.5190   52.9820    9.6340 C   0  0  0  0  0  0
   67.9340   51.9320    8.7940 C   0  0  0  0  0  0
   68.3550   50.7130    9.3100 C   0  0  0  0  0  0
   68.8060   49.5580    8.3550 C   0  0  1  0  0  0
   68.4250   48.1810    8.8840 C   0  0  0  0  0  0
   67.3460   47.7230    8.0390 O   0  0  0  0  0  0
   67.2460   48.6000    6.9970 C   0  0  0  0  0  0
   68.0400   49.6500    7.0980 N   0  3  0  0  0  0
   66.3950   48.4340    6.0010 N   0  0  0  0  0  0
   70.2930   49.5210    8.0550 C   0  0  0  0  0  0
   70.7660   48.7290    7.0160 C   0  0  0  0  0  0
   71.1870   50.2570    8.8190 C   0  0  0  0  0  0
   72.5480   50.1870    8.5260 C   0  0  0  0  0  0
   73.0120   49.3890    7.4970 C   0  0  0  0  0  0
   72.1240   48.6630    6.7170 C   0  0  0  0  0  0
   72.5800   47.8260    5.6780 C   0  0  0  0  0  0
   73.5870   46.8970    5.9340 C   0  0  0  0  0  0
   74.0070   46.0300    4.9290 C   0  0  0  0  0  0
   73.4250   46.0980    3.6720 C   0  0  0  0  0  0
   72.4710   46.9840    3.4590 N   0  0  0  0  0  0
   72.0300   47.8340    4.3970 C   0  0  0  0  0  0
   71.0440   48.7050    4.0780 F   0  0  0  0  0  0
   66.1714   55.7050   12.0671 H   0  0  0  0  0  0
   65.5102   54.6394   10.7809 H   0  0  0  0  0  0
   67.0901   55.4604   10.5430 H   0  0  0  0  0  0
   67.9649   51.4705   12.6333 H   0  0  0  0  0  0
   68.6845   49.6338   11.1410 H   0  0  0  0  0  0
   67.2011   53.9279    9.1955 H   0  0  0  0  0  0
   67.9249   52.0786    7.7139 H   0  0  0  0  0  0
   69.2948   47.5105    8.8211 H   0  0  0  0  0  0
   68.1034   48.2670    9.9324 H   0  0  0  0  0  0
   68.0459   50.4133    6.3059 H   0  0  0  0  0  0
   65.7564   47.5390    5.9666 H   0  0  0  0  0  0
   70.0597   48.1478    6.4232 H   0  0  0  0  0  0
   70.8299   50.8818    9.6376 H   0  0  0  0  0  0
   73.2558   50.7692    9.1161 H   0  0  0  0  0  0
   74.0819   49.3299    7.2974 H   0  0  0  0  0  0
   74.0459   46.8493    6.9215 H   0  0  0  0  0  0
   74.7910   45.2998    5.1295 H   0  0  0  0  0  0
   73.7502   45.4308    2.8737 H   0  0  0  0  0  0
   66.3247   49.1907    5.2058 H   0  0  0  0  0  0
  1  2  1  0  0  0
  1 28  1  0  0  0
  1 29  1  0  0  0
  1 30  1  0  0  0
  2  3  1  0  0  0
  3  4  2  0  0  0
  3  6  1  0  0  0
  4  5  1  0  0  0
  4 31  1  0  0  0
  5  8  2  0  0  0
  5 32  1  0  0  0
  6  7  2  0  0  0
  6 33  1  0  0  0
  7  8  1  0  0  0
  7 34  1  0  0  0
  8  9  1  0  0  0
  9 10  1  0  0  0
  9 13  1  0  0  0
  9 15  1  0  0  0
 10 11  1  0  0  0
 10 35  1  0  0  0
 10 36  1  0  0  0
 11 12  1  0  0  0
 12 13  2  0  0  0
 12 14  1  0  0  0
 13 37  1  0  0  0
 14 38  1  0  0  0
 14 46  1  0  0  0
 15 16  2  0  0  0
 15 17  1  0  0  0
 16 20  1  0  0  0
 16 39  1  0  0  0
 17 18  2  0  0  0
 17 40  1  0  0  0
 18 19  1  0  0  0
 18 41  1  0  0  0
 19 20  2  0  0  0
 19 42  1  0  0  0
 20 21  1  0  0  0
 21 22  2  0  0  0
 21 26  1  0  0  0
 22 23  1  0  0  0
 22 43  1  0  0  0
 23 24  2  0  0  0
 23 44  1  0  0  0
 24 25  1  0  0  0
 24 45  1  0  0  0
 25 26  2  0  0  0
 26 27  1  0  0  0
M  CHG  1  13   1
M  END
> <s_m_source_file>
../4fri_ligand.sdf

> <i_m_source_file_index>
1

> <s_epik_input>
W0NIM11PYzFbY0hdW2NIXWMoW2NIXVtjSF0xKVtDQF0yKFtDSDJdTy9DKFtOSF0yKT1OXFtIXSljM1tjSF1jKFtjSF1bY0hdW2NIXTMpLWM0W2NIXVtjSF1bY0hdbmM0Rg==

> <s_epik_cmdline>
J2VwaWtfYXBwJywgJy1pbWFlJywgJ2xpZ2FuZF9wcm8ubWFlJywgJy1vbWFlJywgJ2xpZ2FuZF9wcmVwLm1hZScsICctbXMnLCAnMScsICctcGgnLCAnNycsICctcGh0JywgJzAuNScsICctbnQn

> <r_lp_tautomer_probability>
1

> <r_epik_Ionization_Penalty>
  0.0799

> <r_epik_Ionization_Penalty_Charging>
  0.0209

> <r_epik_Ionization_Penalty_Neutral>
  0.0590

> <r_epik_State_Penalty>
 -0.0000

> <r_epik_Charging_Adjusted_Penalty>
0.020865618262386

> <i_epik_Tot_Q>
1

> <i_epik_Tot_abs_Q>
1

> <s_epik_Chemistry_Notes>
This compound has an imine and may undergo hydrolysis.

$$$$
