4frj_ligand
                    3D
 Schrodinger Suite 2020-3.
 46 50  0  0  1  0            999 V2000
   26.3100   47.1730   77.4560 F   0  0  0  0  0  0
   27.0210   47.0360   78.5910 C   0  0  0  0  0  0
   26.5490   46.1470   79.5490 C   0  0  0  0  0  0
   27.2640   45.9620   80.7300 C   0  0  0  0  0  0
   28.4340   46.6680   80.9560 C   0  0  0  0  0  0
   29.3170   46.4150   82.4350 Cl  0  0  0  0  0  0
   28.9020   47.5660   80.0030 C   0  0  0  0  0  0
   28.2030   47.7600   78.8080 C   0  0  0  0  0  0
   28.7040   48.6450   77.8430 C   0  0  0  0  0  0
   30.0610   48.6120   77.5340 C   0  0  0  0  0  0
   30.6060   49.4590   76.5790 C   0  0  0  0  0  0
   27.8840   49.5410   77.1680 C   0  0  0  0  0  0
   28.4130   50.3970   76.2210 C   0  0  0  0  0  0
   29.7620   50.3670   75.9210 C   0  0  0  0  0  0
   30.1800   51.2180   74.9720 O   0  0  0  0  0  0
   31.4960   51.2660   74.6490 C   0  0  0  0  0  0
   31.8910   52.2000   73.6900 C   0  0  0  0  0  0
   33.2300   52.3200   73.3000 C   0  0  0  0  0  0
   34.2020   51.4960   73.8820 C   0  0  0  0  0  0
   35.5460   51.5370   73.5530 O   0  0  0  0  0  0
   35.9410   52.4350   72.5110 C   0  0  0  0  0  0
   33.7950   50.5660   74.8310 C   0  0  0  0  0  0
   32.4620   50.4270   75.2200 C   0  0  0  0  0  0
   32.1100   49.3870   76.2730 C   0  0  2  0  0  0
   32.5240   47.9720   75.8200 C   0  0  0  0  0  0
   33.5690   47.5230   76.7770 O   0  0  0  0  0  0
   33.7890   48.5640   77.6530 C   0  0  0  0  0  0
   34.7050   48.4960   78.6220 N   0  0  0  0  0  0
   32.9850   49.6160   77.4530 N   0  3  0  0  0  0
   25.6237   45.5971   79.3771 H   0  0  0  0  0  0
   26.9012   45.2586   81.4795 H   0  0  0  0  0  0
   29.8205   48.1227   80.1891 H   0  0  0  0  0  0
   30.7093   47.9060   78.0531 H   0  0  0  0  0  0
   26.8166   49.5688   77.3869 H   0  0  0  0  0  0
   27.7607   51.1022   75.7059 H   0  0  0  0  0  0
   31.1421   52.8488   73.2358 H   0  0  0  0  0  0
   33.5157   53.0528   72.5453 H   0  0  0  0  0  0
   37.0278   52.3629   72.3573 H   0  0  0  0  0  0
   35.6784   53.4647   72.7953 H   0  0  0  0  0  0
   35.4204   52.1676   71.5796 H   0  0  0  0  0  0
   34.5450   49.9209   75.2887 H   0  0  0  0  0  0
   31.6481   47.3071   75.8481 H   0  0  0  0  0  0
   32.9181   48.0161   74.7940 H   0  0  0  0  0  0
   35.3308   47.5972   78.7252 H   0  0  0  0  0  0
   33.0392   50.4852   78.1249 H   0  0  0  0  0  0
   34.8339   49.3387   79.3171 H   0  0  0  0  0  0
  1  2  1  0  0  0
  2  3  2  0  0  0
  2  8  1  0  0  0
  3  4  1  0  0  0
  3 30  1  0  0  0
  4  5  2  0  0  0
  4 31  1  0  0  0
  5  6  1  0  0  0
  5  7  1  0  0  0
  7  8  2  0  0  0
  7 32  1  0  0  0
  8  9  1  0  0  0
  9 10  2  0  0  0
  9 12  1  0  0  0
 10 11  1  0  0  0
 10 33  1  0  0  0
 11 14  2  0  0  0
 11 24  1  0  0  0
 12 13  2  0  0  0
 12 34  1  0  0  0
 13 14  1  0  0  0
 13 35  1  0  0  0
 14 15  1  0  0  0
 15 16  1  0  0  0
 16 17  2  0  0  0
 16 23  1  0  0  0
 17 18  1  0  0  0
 17 36  1  0  0  0
 18 19  2  0  0  0
 18 37  1  0  0  0
 19 20  1  0  0  0
 19 22  1  0  0  0
 20 21  1  0  0  0
 21 38  1  0  0  0
 21 39  1  0  0  0
 21 40  1  0  0  0
 22 23  2  0  0  0
 22 41  1  0  0  0
 23 24  1  0  0  0
 24 25  1  0  0  0
 24 29  1  0  0  0
 25 26  1  0  0  0
 25 42  1  0  0  0
 25 43  1  0  0  0
 26 27  1  0  0  0
 27 28  1  0  0  0
 27 29  2  0  0  0
 28 44  1  0  0  0
 28 46  1  0  0  0
 29 45  1  0  0  0
M  CHG  1  29   1
M  END
> <s_m_source_file>
../4frj_ligand.sdf

> <i_m_source_file_index>
1

> <s_epik_input>
RmMxW2NIXVtjSF1jKENsKVtjSF1jMS1jKFtjSF0yKVtjSF1bY0hdYyhjMltDQEBdMzRbQ0gyXU8vQyg9TlxbSF0pW05IXTQpT2M1YzNbY0hdYyhbY0hdW2NIXTUpT1tDSDNd

> <s_epik_cmdline>
J2VwaWtfYXBwJywgJy1pbWFlJywgJ2xpZ2FuZF9wcm8ubWFlJywgJy1vbWFlJywgJ2xpZ2FuZF9wcmVwLm1hZScsICctbXMnLCAnMScsICctcGgnLCAnNycsICctcGh0JywgJzAuNScsICctbnQn

> <r_lp_tautomer_probability>
1

> <r_epik_Ionization_Penalty>
  0.0817

> <r_epik_Ionization_Penalty_Charging>
  0.0226

> <r_epik_Ionization_Penalty_Neutral>
  0.0590

> <r_epik_State_Penalty>
 -0.0000

> <r_epik_Charging_Adjusted_Penalty>
0.0226473101483168

> <i_epik_Tot_Q>
1

> <i_epik_Tot_abs_Q>
1

> <s_epik_Chemistry_Notes>
This compound has an imine and may undergo hydrolysis.

$$$$
