4frk_ligand
                    3D
 Schrodinger Suite 2020-3.
 53 57  0  0  1  0            999 V2000
   74.0350   47.0350    6.0540 C   0  0  0  0  0  0
   74.4870   46.2190    5.1090 N   0  0  0  0  0  0
   73.8200   46.0660    3.9680 C   0  0  0  0  0  0
   72.6920   46.7190    3.7420 N   0  0  0  0  0  0
   72.1990   47.5670    4.6340 C   0  0  0  0  0  0
   72.8600   47.7600    5.8490 C   0  0  0  0  0  0
   72.3550   48.6160    6.8450 C   0  0  0  0  0  0
   70.9930   48.5710    7.1680 C   0  0  0  0  0  0
   70.4610   49.3970    8.1660 C   0  0  0  0  0  0
   73.1970   49.4890    7.5390 C   0  0  0  0  0  0
   72.6670   50.3270    8.5380 C   0  0  0  0  0  0
   71.3090   50.2790    8.8580 C   0  0  0  0  0  0
   70.8650   51.1090    9.8560 O   0  0  0  0  0  0
   69.5500   51.1980   10.1580 C   0  0  0  0  0  0
   69.2090   52.1360   11.1180 C   0  0  0  0  0  0
   67.8800   52.2970   11.5000 C   0  0  0  0  0  0
   66.8860   51.4990   10.9200 C   0  0  0  0  0  0
   65.6050   51.7410   11.3280 O   0  0  0  0  0  0
   64.6940   50.6940   11.3200 C   0  0  0  0  0  0
   63.5120   51.3170   12.0860 C   0  0  0  0  0  0
   62.7320   50.2130   12.7800 C   0  0  0  0  0  0
   62.5960   52.1260   11.1700 C   0  0  0  0  0  0
   67.2250   50.5500    9.9430 C   0  0  0  0  0  0
   68.5660   50.3880    9.5620 C   0  0  0  0  0  0
   68.9480   49.3380    8.4960 C   0  0  2  0  0  0
   68.5630   47.9020    8.8940 C   0  0  0  0  0  0
   67.6580   47.4560    7.8240 O   0  0  0  0  0  0
   67.3530   48.5290    7.0320 C   0  0  0  0  0  0
   66.4260   48.4810    6.0650 N   0  0  0  0  0  0
   68.0580   49.6200    7.3170 N   0  3  0  0  0  0
   74.5822   47.1388    6.9910 H   0  0  0  0  0  0
   74.2098   45.3908    3.2062 H   0  0  0  0  0  0
   71.2799   48.1123    4.4195 H   0  0  0  0  0  0
   70.3372   47.8828    6.6347 H   0  0  0  0  0  0
   74.2616   49.5209    7.3073 H   0  0  0  0  0  0
   73.3225   51.0193    9.0663 H   0  0  0  0  0  0
   69.9840   52.7505   11.5762 H   0  0  0  0  0  0
   67.6136   53.0427   12.2491 H   0  0  0  0  0  0
   64.4497   50.4285   10.2809 H   0  0  0  0  0  0
   65.1327   49.8223   11.8277 H   0  0  0  0  0  0
   63.9037   52.0167   12.8390 H   0  0  0  0  0  0
   63.4075   49.6423   13.4342 H   0  0  0  0  0  0
   62.2978   49.5407   12.0253 H   0  0  0  0  0  0
   61.9260   50.6568   13.3828 H   0  0  0  0  0  0
   63.1777   52.9190   10.6774 H   0  0  0  0  0  0
   61.7894   52.5788   11.7652 H   0  0  0  0  0  0
   62.1612   51.4628   10.4077 H   0  0  0  0  0  0
   66.4485   49.9402    9.4812 H   0  0  0  0  0  0
   69.4696   47.2817    8.9507 H   0  0  0  0  0  0
   68.0652   47.9143    9.8749 H   0  0  0  0  0  0
   65.8752   47.5476    5.8770 H   0  0  0  0  0  0
   67.9281   50.5316    6.7152 H   0  0  0  0  0  0
   66.2161   49.3750    5.4595 H   0  0  0  0  0  0
  1  2  2  0  0  0
  1  6  1  0  0  0
  1 31  1  0  0  0
  2  3  1  0  0  0
  3  4  2  0  0  0
  3 32  1  0  0  0
  4  5  1  0  0  0
  5  6  2  0  0  0
  5 33  1  0  0  0
  6  7  1  0  0  0
  7  8  2  0  0  0
  7 10  1  0  0  0
  8  9  1  0  0  0
  8 34  1  0  0  0
  9 12  2  0  0  0
  9 25  1  0  0  0
 10 11  2  0  0  0
 10 35  1  0  0  0
 11 12  1  0  0  0
 11 36  1  0  0  0
 12 13  1  0  0  0
 13 14  1  0  0  0
 14 15  2  0  0  0
 14 24  1  0  0  0
 15 16  1  0  0  0
 15 37  1  0  0  0
 16 17  2  0  0  0
 16 38  1  0  0  0
 17 18  1  0  0  0
 17 23  1  0  0  0
 18 19  1  0  0  0
 19 20  1  0  0  0
 19 39  1  0  0  0
 19 40  1  0  0  0
 20 21  1  0  0  0
 20 22  1  0  0  0
 20 41  1  0  0  0
 21 42  1  0  0  0
 21 43  1  0  0  0
 21 44  1  0  0  0
 22 45  1  0  0  0
 22 46  1  0  0  0
 22 47  1  0  0  0
 23 24  2  0  0  0
 23 48  1  0  0  0
 24 25  1  0  0  0
 25 26  1  0  0  0
 25 30  1  0  0  0
 26 27  1  0  0  0
 26 49  1  0  0  0
 26 50  1  0  0  0
 27 28  1  0  0  0
 28 29  1  0  0  0
 28 30  2  0  0  0
 29 51  1  0  0  0
 29 53  1  0  0  0
 30 52  1  0  0  0
M  CHG  1  30   1
M  END
> <s_m_source_file>
../4frk_ligand.sdf

> <i_m_source_file_index>
1

> <s_epik_input>
W2NIXTFuW2NIXW5bY0hdYzEtYyhbY0hdMilbY0hdW2NIXWMoYzJbQ0BAXTM0W0NIMl1PL0MoPU5cW0hdKVtOSF00KU9jNWMzW2NIXWMoW2NIXVtjSF01KU9bQ0gyXVtDSF0oW0NIM10pW0NIM10=

> <s_epik_cmdline>
J2VwaWtfYXBwJywgJy1pbWFlJywgJ2xpZ2FuZF9wcm8ubWFlJywgJy1vbWFlJywgJ2xpZ2FuZF9wcmVwLm1hZScsICctbXMnLCAnMScsICctcGgnLCAnNycsICctcGh0JywgJzAuNScsICctbnQn

> <r_lp_tautomer_probability>
1

> <r_epik_Ionization_Penalty>
  0.0817

> <r_epik_Ionization_Penalty_Charging>
  0.0226

> <r_epik_Ionization_Penalty_Neutral>
  0.0590

> <r_epik_State_Penalty>
 -0.0000

> <r_epik_Charging_Adjusted_Penalty>
0.0226473101483168

> <i_epik_Tot_Q>
1

> <i_epik_Tot_abs_Q>
1

> <s_epik_Chemistry_Notes>
This compound has an imine and may undergo hydrolysis.

$$$$
