4fs4_ligand
                    3D
 Schrodinger Suite 2020-3.
 46 48  0  0  1  0            999 V2000
   30.4660    8.5250   23.5620 C   0  0  0  0  0  0
   29.3000    8.4980   22.7240 O   0  0  0  0  0  0
   29.1060    9.5460   21.8620 C   0  0  0  0  0  0
   30.0330   10.5620   21.6550 C   0  0  0  0  0  0
   29.7070   11.6140   20.8160 C   0  0  0  0  0  0
   28.4510   11.6800   20.2310 C   0  0  0  0  0  0
   27.4960   10.6850   20.4580 C   0  0  0  0  0  0
   27.8530    9.5940   21.2570 C   0  0  0  0  0  0
   26.1120   10.8140   19.9230 C   0  0  0  0  0  0
   25.8810   11.3960   18.6720 C   0  0  0  0  0  0
   24.5930   11.5800   18.2030 C   0  0  0  0  0  0
   23.5120   11.1780   18.9710 C   0  0  0  0  0  0
   23.7040   10.5790   20.2150 C   0  0  0  0  0  0
   22.4580   10.1240   20.9980 C   0  0  2  0  0  0
   21.5730    9.2100   20.0970 C   0  0  0  0  0  0
   21.6120   11.3560   21.4480 C   0  0  0  0  0  0
   22.2610   12.0320   22.6490 C   0  0  0  0  0  0
   22.3120   13.2530   22.7210 O   0  0  0  0  0  0
   22.8590   11.2290   23.5940 N   0  0  0  0  0  0
   23.4300   11.8660   24.7870 C   0  0  0  0  0  0
   22.8950    9.8030   23.3920 C   0  0  0  0  0  0
   23.0920    8.9910   24.4330 N   0  0  0  0  0  0
   22.7190    9.2600   22.1880 N   0  3  0  0  0  0
   25.0100   10.4020   20.6920 C   0  0  0  0  0  0
   30.4845    7.6246   24.1937 H   0  0  0  0  0  0
   30.4380    9.4203   24.2004 H   0  0  0  0  0  0
   31.3685    8.5507   22.9337 H   0  0  0  0  0  0
   31.0048   10.5304   22.1476 H   0  0  0  0  0  0
   30.4409   12.3942   20.6142 H   0  0  0  0  0  0
   28.2047   12.5217   19.5836 H   0  0  0  0  0  0
   27.1468    8.7773   21.4068 H   0  0  0  0  0  0
   26.7267   11.7083   18.0593 H   0  0  0  0  0  0
   24.4283   12.0412   17.2292 H   0  0  0  0  0  0
   22.4995   11.3320   18.5980 H   0  0  0  0  0  0
   21.3122    9.7476   19.1734 H   0  0  0  0  0  0
   20.6532    8.9423   20.6377 H   0  0  0  0  0  0
   22.1292    8.2953   19.8442 H   0  0  0  0  0  0
   21.5472   12.0782   20.6208 H   0  0  0  0  0  0
   20.6005   11.0246   21.7254 H   0  0  0  0  0  0
   23.2874   12.9550   24.7250 H   0  0  0  0  0  0
   24.5049   11.6397   24.8445 H   0  0  0  0  0  0
   22.9255   11.4807   25.6854 H   0  0  0  0  0  0
   23.2401    9.4118   25.4385 H   0  0  0  0  0  0
   22.7655    8.1679   22.0651 H   0  0  0  0  0  0
   25.1722    9.9414   21.6665 H   0  0  0  0  0  0
   23.1062    7.9010   24.2854 H   0  0  0  0  0  0
  1  2  1  0  0  0
  1 25  1  0  0  0
  1 26  1  0  0  0
  1 27  1  0  0  0
  2  3  1  0  0  0
  3  4  2  0  0  0
  3  8  1  0  0  0
  4  5  1  0  0  0
  4 28  1  0  0  0
  5  6  2  0  0  0
  5 29  1  0  0  0
  6  7  1  0  0  0
  6 30  1  0  0  0
  7  8  2  0  0  0
  7  9  1  0  0  0
  8 31  1  0  0  0
  9 10  2  0  0  0
  9 24  1  0  0  0
 10 11  1  0  0  0
 10 32  1  0  0  0
 11 12  2  0  0  0
 11 33  1  0  0  0
 12 13  1  0  0  0
 12 34  1  0  0  0
 13 14  1  0  0  0
 13 24  2  0  0  0
 14 15  1  0  0  0
 14 16  1  0  0  0
 14 23  1  0  0  0
 15 35  1  0  0  0
 15 36  1  0  0  0
 15 37  1  0  0  0
 16 17  1  0  0  0
 16 38  1  0  0  0
 16 39  1  0  0  0
 17 18  2  0  0  0
 17 19  1  0  0  0
 19 20  1  0  0  0
 19 21  1  0  0  0
 20 40  1  0  0  0
 20 41  1  0  0  0
 20 42  1  0  0  0
 21 22  1  0  0  0
 21 23  2  0  0  0
 22 43  1  0  0  0
 22 46  1  0  0  0
 23 44  1  0  0  0
 24 45  1  0  0  0
M  CHG  1  23   1
M  END
> <s_m_source_file>
../4fs4_ligand.sdf

> <i_m_source_file_index>
1

> <s_epik_input>
W0NIM11PYzFbY0hdW2NIXVtjSF1jKFtjSF0xKS1jMltjSF1bY0hdW2NIXWMoW2NIXTIpW0NAXTMoW0NIM10pW0NIMl1DKD1PKU4oW0NIM10pL0MoPU5cW0hdKVtOSF0z

> <s_epik_cmdline>
J2VwaWtfYXBwJywgJy1pbWFlJywgJ2xpZ2FuZF9wcm8ubWFlJywgJy1vbWFlJywgJ2xpZ2FuZF9wcmVwLm1hZScsICctbXMnLCAnMScsICctcGgnLCAnNycsICctcGh0JywgJzAuNScsICctbnQn

> <r_lp_tautomer_probability>
1

> <r_epik_Ionization_Penalty>
  0.0013

> <r_epik_Ionization_Penalty_Charging>
  0.0013

> <r_epik_Ionization_Penalty_Neutral>
  0.0000

> <r_epik_State_Penalty>
 -0.0000

> <r_epik_Charging_Adjusted_Penalty>
0.00131919318209531

> <i_epik_Tot_Q>
1

> <i_epik_Tot_abs_Q>
1

> <s_epik_Chemistry_Notes>
This compound has an imine and may undergo hydrolysis.

$$$$
