4fse_ligand
                    3D
 Schrodinger Suite 2020-3.
 55 57  0  0  1  0            999 V2000
   -4.6970   17.6140   28.0890 C   0  0  0  0  0  0
   -3.3550   17.2840   30.2320 C   0  0  0  0  0  0
   -3.6040   16.8680   27.3070 C   0  0  0  0  0  0
   -2.2460   16.5340   29.4970 C   0  0  0  0  0  0
   -5.3780   11.6150   32.4650 C   0  0  0  0  0  0
   -3.5140   11.6780   34.2470 C   0  0  0  0  0  0
   -4.6310   17.8850   29.6040 C   0  0  3  0  0  0
   -6.0550   18.2200   32.0800 C   0  0  0  0  0  0
   -4.8720   12.1560   33.7910 C   0  0  0  0  0  0
   -3.2300   10.0750   32.0800 C   0  0  0  0  0  0
   -2.3430   16.3030   27.9880 C   0  0  1  0  0  0
   -4.5930   10.6120   31.6410 C   0  0  0  0  0  0
   -2.7560   10.6760   33.3960 C   0  0  0  0  0  0
   -5.4510   18.5220   30.7200 C   0  0  0  0  0  0
   -6.8830   19.3180   32.6930 C   0  0  0  0  0  0
   -5.7970   17.0440   33.0120 C   0  0  0  0  0  0
   -4.9820   15.4990   34.8320 C   0  0  0  0  0  0
   -7.5980   19.3960   34.0300 C   0  0  0  0  0  0
   -0.5370   14.5580   27.6450 C   0  0  0  0  0  0
   -5.8040   13.1570   34.4090 C   0  0  0  0  0  0
   -6.0190   19.8320   30.3290 N   0  0  0  0  0  0
   -4.9990   16.8440   34.2580 N   0  3  0  0  0  0
   -2.4340    9.0840   31.3080 N   0  0  0  0  0  0
   -4.3150   15.0350   36.0640 N   0  0  0  0  0  0
   -5.7530   14.5630   34.0140 N   0  0  0  0  0  0
   -6.3610   15.8320   32.5160 O   0  0  0  0  0  0
   -1.3910   15.6160   27.1670 O   0  0  0  0  0  0
   -6.9470   20.5680   31.4500 S   0  0  0  0  0  0
   -5.3660   10.0620   30.1370 Cl  0  0  0  0  0  0
   -1.2060   10.1490   34.0230 Cl  0  0  0  0  0  0
   -4.8118   18.6290   27.6809 H   0  0  0  0  0  0
   -5.6494   17.0716   27.9960 H   0  0  0  0  0  0
   -3.7996   16.6267   30.9937 H   0  0  0  0  0  0
   -2.9342   18.1764   30.7183 H   0  0  0  0  0  0
   -4.0387   15.9788   26.8271 H   0  0  0  0  0  0
   -3.1857   17.5327   26.5368 H   0  0  0  0  0  0
   -1.2948   17.0724   29.6209 H   0  0  0  0  0  0
   -2.1505   15.5204   29.9135 H   0  0  0  0  0  0
   -6.3418   11.9606   32.0913 H   0  0  0  0  0  0
   -3.0831   12.0486   35.1771 H   0  0  0  0  0  0
   -5.4727   18.3922   29.1098 H   0  0  0  0  0  0
   -1.8201   17.2540   27.8088 H   0  0  0  0  0  0
   -7.3887   18.4859   34.6113 H   0  0  0  0  0  0
   -8.6816   19.4826   33.8618 H   0  0  0  0  0  0
   -7.2417   20.2760   34.5855 H   0  0  0  0  0  0
    0.0984   14.1995   26.8218 H   0  0  0  0  0  0
   -1.1552   13.7285   28.0190 H   0  0  0  0  0  0
    0.0975   14.9385   28.4591 H   0  0  0  0  0  0
   -6.8444   12.8663   34.2014 H   0  0  0  0  0  0
   -5.6416   13.1865   35.4966 H   0  0  0  0  0  0
   -2.8250    8.6817   30.3618 H   0  0  0  0  0  0
   -1.4543    8.7533   31.6832 H   0  0  0  0  0  0
   -6.2889   14.9015   33.1150 H   0  0  0  0  0  0
   -4.3966   13.9817   36.3703 H   0  0  0  0  0  0
   -4.4559   17.6897   34.7050 H   0  0  0  0  0  0
  1  3  1  0  0  0
  1  7  1  0  0  0
  1 31  1  0  0  0
  1 32  1  0  0  0
  2  4  1  0  0  0
  2  7  1  0  0  0
  2 33  1  0  0  0
  2 34  1  0  0  0
  3 11  1  0  0  0
  3 35  1  0  0  0
  3 36  1  0  0  0
  4 11  1  0  0  0
  4 37  1  0  0  0
  4 38  1  0  0  0
  5  9  2  0  0  0
  5 12  1  0  0  0
  5 39  1  0  0  0
  6  9  1  0  0  0
  6 13  2  0  0  0
  6 40  1  0  0  0
  7 14  1  0  0  0
  7 41  1  0  0  0
  8 14  1  0  0  0
  8 15  2  0  0  0
  8 16  1  0  0  0
  9 20  1  0  0  0
 10 12  2  0  0  0
 10 13  1  0  0  0
 10 23  1  0  0  0
 11 27  1  0  0  0
 11 42  1  0  0  0
 12 29  1  0  0  0
 13 30  1  0  0  0
 14 21  2  0  0  0
 15 18  1  0  0  0
 15 28  1  0  0  0
 16 22  1  0  0  0
 16 26  2  0  0  0
 17 22  1  0  0  0
 17 24  2  0  0  0
 17 25  1  0  0  0
 18 43  1  0  0  0
 18 44  1  0  0  0
 18 45  1  0  0  0
 19 27  1  0  0  0
 19 46  1  0  0  0
 19 47  1  0  0  0
 19 48  1  0  0  0
 20 25  1  0  0  0
 20 49  1  0  0  0
 20 50  1  0  0  0
 21 28  1  0  0  0
 22 55  1  0  0  0
 23 51  1  0  0  0
 23 52  1  0  0  0
 24 54  1  0  0  0
 25 53  1  0  0  0
M  CHG  1  22   1
M  END
> <s_m_source_file>
../4fse_ligand.sdf

> <i_m_source_file_index>
1

> <s_epik_input>
W0NIMl0xW0NIMl1bQ0hdKE9bQ0gzXSlbQ0gyXVtDSDJdW0NIXTFjKG5zYzJbQ0gzXSljMkMoPU8pW05IXS9DKD1OXFtIXSlbTkhdW0NIMl1jM1tjSF1jKENsKWMoW05IMl0pYyhDbClbY0hdMw==

> <s_epik_cmdline>
J2VwaWtfYXBwJywgJy1pbWFlJywgJ2xpZ2FuZF9wcm8ubWFlJywgJy1vbWFlJywgJ2xpZ2FuZF9wcmVwLm1hZScsICctbXMnLCAnMScsICctcGgnLCAnNycsICctcGh0JywgJzAuNScsICctbnQn

> <r_lp_tautomer_probability>
1

> <r_epik_Ionization_Penalty>
  0.0004

> <r_epik_Ionization_Penalty_Charging>
  0.0004

> <r_epik_Ionization_Penalty_Neutral>
  0.0000

> <r_epik_State_Penalty>
 -0.0000

> <r_epik_Charging_Adjusted_Penalty>
0.000366726202049827

> <i_epik_Tot_Q>
1

> <i_epik_Tot_abs_Q>
1

> <s_epik_Chemistry_Notes>
This compound has an imine and may undergo hydrolysis.

$$$$
