4fsl_ligand
                    3D
 Schrodinger Suite 2020-3.
 57 59  0  0  1  0            999 V2000
   -4.7720   17.7340   28.8060 C   0  0  0  0  0  0
   -3.1750   16.8450   30.6260 C   0  0  0  0  0  0
   -3.8700   17.0690   27.7530 C   0  0  0  0  0  0
   -2.2580   16.1780   29.6150 C   0  0  0  0  0  0
   -3.2260   11.4000   34.9980 C   0  0  0  0  0  0
   -5.0910   11.2340   33.2520 C   0  0  0  0  0  0
   -4.4200   17.6590   30.2920 C   0  0  0  0  0  0
   -5.9540   17.9050   32.6240 C   0  0  0  0  0  0
   -4.6440   11.7990   34.5930 C   0  0  0  0  0  0
   -2.3080   10.4630   34.2200 C   0  0  0  0  0  0
   -2.7880    9.8610   32.8960 C   0  0  0  0  0  0
   -2.6080   16.2830   28.1320 C   0  0  0  0  0  0
   -4.1820   10.3030   32.4710 C   0  0  0  0  0  0
   -5.3350   18.2810   31.3230 C   0  0  0  0  0  0
   -6.8100   18.9730   33.2510 C   0  0  0  0  0  0
   -5.8540   16.6390   33.4100 C   0  0  0  0  0  0
   -0.9820    9.4770   31.0730 C   0  0  0  0  0  0
   -5.2710   15.3170   35.5230 C   0  0  0  0  0  0
   -0.9390   10.1680   34.8270 C   0  0  0  0  0  0
   -7.6180   19.0020   34.5450 C   0  0  0  0  0  0
   -0.0050    8.7230   30.1700 C   0  0  0  0  0  0
   -0.4290   15.0020   27.5800 C   0  0  0  0  0  0
   -5.7020   12.7190   35.1310 C   0  0  0  0  0  0
   -5.7330   19.6700   30.9710 N   0  0  0  0  0  0
   -5.3640   16.5790   34.7980 N   0  3  0  0  0  0
   -4.8280   15.1340   36.9220 N   0  0  0  0  0  0
   -1.9100    8.9770   32.1110 N   0  0  0  0  0  0
   -5.7160   14.1370   34.7630 N   0  0  0  0  0  0
   -6.2250   15.4950   32.6400 O   0  0  0  0  0  0
   -0.9920   10.8940   30.8660 O   0  0  0  0  0  0
   -1.6830   15.6230   27.2690 O   0  0  0  0  0  0
   -6.7140   20.3290   32.1050 S   0  0  0  0  0  0
   -5.0270    9.7940   31.0020 Cl  0  0  0  0  0  0
   -5.6707   18.2638   28.4901 H   0  0  0  0  0  0
   -2.9212   16.7319   31.6800 H   0  0  0  0  0  0
   -4.1366   17.1592   26.7000 H   0  0  0  0  0  0
   -1.3699   15.6365   29.9408 H   0  0  0  0  0  0
   -2.8362   11.8220   35.9243 H   0  0  0  0  0  0
   -6.0690   11.4995   32.8507 H   0  0  0  0  0  0
   -0.8322   10.7164   35.7745 H   0  0  0  0  0  0
   -0.1516   10.4867   34.1281 H   0  0  0  0  0  0
   -0.8466    9.0883   35.0159 H   0  0  0  0  0  0
   -7.5079   18.0404   35.0676 H   0  0  0  0  0  0
   -8.6792   19.1727   34.3109 H   0  0  0  0  0  0
   -7.2494   19.8138   35.1893 H   0  0  0  0  0  0
   -0.0580    7.6466   30.3905 H   0  0  0  0  0  0
    1.0175    9.0849   30.3532 H   0  0  0  0  0  0
   -0.2717    8.8952   29.1168 H   0  0  0  0  0  0
    0.0150   14.5919   26.6609 H   0  0  0  0  0  0
   -0.5917   14.1891   28.3030 H   0  0  0  0  0  0
    0.2520   15.7485   28.0147 H   0  0  0  0  0  0
   -6.6936   12.3601   34.8181 H   0  0  0  0  0  0
   -5.6484   12.7368   36.2296 H   0  0  0  0  0  0
   -1.9255    7.8909   32.2849 H   0  0  0  0  0  0
   -6.1049   14.4468   33.7818 H   0  0  0  0  0  0
   -4.8354   14.1314   37.3746 H   0  0  0  0  0  0
   -5.0571   17.5011   35.3133 H   0  0  0  0  0  0
  1  3  2  0  0  0
  1  7  1  0  0  0
  1 34  1  0  0  0
  2  4  1  0  0  0
  2  7  2  0  0  0
  2 35  1  0  0  0
  3 12  1  0  0  0
  3 36  1  0  0  0
  4 12  2  0  0  0
  4 37  1  0  0  0
  5  9  2  0  0  0
  5 10  1  0  0  0
  5 38  1  0  0  0
  6  9  1  0  0  0
  6 13  2  0  0  0
  6 39  1  0  0  0
  7 14  1  0  0  0
  8 14  1  0  0  0
  8 15  2  0  0  0
  8 16  1  0  0  0
  9 23  1  0  0  0
 10 11  2  0  0  0
 10 19  1  0  0  0
 11 13  1  0  0  0
 11 27  1  0  0  0
 12 31  1  0  0  0
 13 33  1  0  0  0
 14 24  2  0  0  0
 15 20  1  0  0  0
 15 32  1  0  0  0
 16 25  1  0  0  0
 16 29  2  0  0  0
 17 21  1  0  0  0
 17 27  1  0  0  0
 17 30  2  0  0  0
 18 25  1  0  0  0
 18 26  2  0  0  0
 18 28  1  0  0  0
 19 40  1  0  0  0
 19 41  1  0  0  0
 19 42  1  0  0  0
 20 43  1  0  0  0
 20 44  1  0  0  0
 20 45  1  0  0  0
 21 46  1  0  0  0
 21 47  1  0  0  0
 21 48  1  0  0  0
 22 31  1  0  0  0
 22 49  1  0  0  0
 22 50  1  0  0  0
 22 51  1  0  0  0
 23 28  1  0  0  0
 23 52  1  0  0  0
 23 53  1  0  0  0
 24 32  1  0  0  0
 25 57  1  0  0  0
 26 56  1  0  0  0
 27 54  1  0  0  0
 28 55  1  0  0  0
M  CHG  1  25   1
M  END
> <s_m_source_file>
../4fsl_ligand.sdf

> <i_m_source_file_index>
1

> <s_epik_input>
W2NIXTFbY0hdYyhPW0NIM10pW2NIXVtjSF1jMS1jKG5zYzJbQ0gzXSljMkMoPU8pW05IXS9DKD1OXFtIXSlbTkhdW0NIMl1jM1tjSF1jKFtDSDNdKWMoYyhDbClbY0hdMylbTkhdQyg9TylbQ0gzXQ==

> <s_epik_cmdline>
J2VwaWtfYXBwJywgJy1pbWFlJywgJ2xpZ2FuZF9wcm8ubWFlJywgJy1vbWFlJywgJ2xpZ2FuZF9wcmVwLm1hZScsICctbXMnLCAnMScsICctcGgnLCAnNycsICctcGh0JywgJzAuNScsICctbnQn

> <r_lp_tautomer_probability>
1

> <r_epik_Ionization_Penalty>
  0.0004

> <r_epik_Ionization_Penalty_Charging>
  0.0004

> <r_epik_Ionization_Penalty_Neutral>
  0.0000

> <r_epik_State_Penalty>
 -0.0000

> <r_epik_Charging_Adjusted_Penalty>
0.000366726202049827

> <i_epik_Tot_Q>
1

> <i_epik_Tot_abs_Q>
1

> <s_epik_Chemistry_Notes>
This compound has an imine and may undergo hydrolysis.

$$$$
