4ft2_ligand
                    3D
 Schrodinger Suite 2020-3.
121120  0  0  1  0            999 V2000
  -33.1020   32.9440  -11.5570 N   0  3  0  0  0  0
  -32.3860   31.7570  -11.9590 C   0  0  2  0  0  0
  -31.9820   32.0640  -13.3650 C   0  0  0  0  0  0
  -30.8320   31.8480  -13.7750 O   0  0  0  0  0  0
  -33.3220   30.5410  -11.9140 C   0  0  0  0  0  0
  -32.9270   29.3720  -12.8200 C   0  0  0  0  0  0
  -32.5080   28.1280  -12.0470 C   0  0  0  0  0  0
  -32.8720   27.9480  -10.8810 O   0  0  0  0  0  0
  -31.7350   27.2640  -12.6960 N   0  0  0  0  0  0
  -32.9560   32.5880  -14.1000 N   0  0  0  0  0  0
  -32.7860   32.8320  -15.5130 C   0  0  2  0  0  0
  -33.7130   33.9180  -16.0700 C   0  0  0  0  0  0
  -34.7640   34.2320  -15.5030 O   0  0  0  0  0  0
  -32.9950   31.5190  -16.3100 C   0  0  2  0  0  0
  -33.9770   30.7070  -15.6500 O   0  0  0  0  0  0
  -31.7060   30.7290  -16.4100 C   0  0  0  0  0  0
  -33.3030   34.4770  -17.2000 N   0  0  0  0  0  0
  -34.1200   35.4380  -17.9230 C   0  0  2  0  0  0
  -33.6930   35.4650  -19.3780 C   0  0  0  0  0  0
  -32.7800   34.7440  -19.7730 O   0  0  0  0  0  0
  -33.9980   36.8220  -17.3070 C   0  0  0  0  0  0
  -34.3450   36.3040  -20.1730 N   0  0  0  0  0  0
  -34.0350   36.3670  -21.5950 C   0  0  2  0  0  0
  -33.8890   37.7830  -22.1400 C   0  0  0  0  0  0
  -34.6310   38.6940  -21.7760 O   0  0  0  0  0  0
  -35.0770   35.5980  -22.4110 C   0  0  0  0  0  0
  -36.5150   35.9600  -22.0900 C   0  0  0  0  0  0
  -37.3870   35.8700  -23.3300 C   0  0  0  0  0  0
  -36.9160   34.8410  -24.2530 N   0  0  0  0  0  0
  -37.1240   33.5380  -24.0920 C   0  0  0  0  0  0
  -36.6590   32.6750  -24.9840 N   0  0  0  0  0  0
  -37.7930   33.0980  -23.0360 N   0  3  0  0  0  0
  -32.9060   37.9380  -23.0180 N   0  0  0  0  0  0
  -32.6660   39.1670  -23.7820 C   0  0  1  0  0  0
  -31.3950   38.8790  -24.5570 C   0  0  0  0  0  0
  -30.2410   38.7230  -23.5810 C   0  0  0  0  0  0
  -28.9970   38.3090  -24.3360 C   0  0  0  0  0  0
  -27.7720   38.2810  -23.4370 C   0  0  0  0  0  0
  -26.7160   37.7080  -24.2600 N   0  3  0  0  0  0
  -27.0910   36.2940  -24.3220 C   0  0  0  0  0  0
  -25.3500   37.9040  -23.7790 C   0  0  0  0  0  0
  -33.7700   39.5640  -24.7540 C   0  0  0  0  0  0
  -34.5770   38.7100  -25.1860 O   0  0  0  0  0  0
  -33.7820   40.8470  -25.0950 N   0  0  0  0  0  0
  -34.7470   41.4180  -26.0150 C   0  0  2  0  0  0
  -34.0080   42.2280  -27.0760 C   0  0  0  0  0  0
  -32.8780   42.6680  -26.8490 O   0  0  0  0  0  0
  -35.7160   42.3190  -25.2520 C   0  0  0  0  0  0
  -35.0120   43.2820  -24.4840 O   0  0  0  0  0  0
  -34.6530   42.4180  -28.2250 N   0  0  0  0  0  0
  -34.0740   43.1550  -29.3510 C   0  0  2  0  0  0
  -33.6470   44.5560  -28.9130 C   0  0  0  0  0  0
  -34.2073   45.5856  -29.3751 O   0  0  0  0  0  0
  -35.0640   43.2440  -30.5540 C   0  0  2  0  0  0
  -35.5990   41.9450  -30.8410 O   0  0  0  0  0  0
  -34.3680   43.7820  -31.8060 C   0  0  0  0  0  0
  -32.7164   44.6836  -28.0732 O   0  5  0  0  0  0
  -32.4248   33.8101  -11.5919 H   0  0  0  0  0  0
  -33.4796   32.8149  -10.5320 H   0  0  0  0  0  0
  -33.9472   33.1116  -12.2408 H   0  0  0  0  0  0
  -31.5271   31.5657  -11.2990 H   0  0  0  0  0  0
  -33.3557   30.1420  -10.8895 H   0  0  0  0  0  0
  -34.3331   30.8449  -12.2226 H   0  0  0  0  0  0
  -33.7812   29.0959  -13.4556 H   0  0  0  0  0  0
  -32.0792   29.6699  -13.4544 H   0  0  0  0  0  0
  -31.4356   27.4665  -13.7349 H   0  0  0  0  0  0
  -31.3944   26.3462  -12.1944 H   0  0  0  0  0  0
  -33.9085   32.8372  -13.6095 H   0  0  0  0  0  0
  -31.7522   33.2048  -15.5597 H   0  0  0  0  0  0
  -33.3784   31.7338  -17.3184 H   0  0  0  0  0  0
  -34.9898   31.1001  -15.4774 H   0  0  0  0  0  0
  -30.9411   31.3377  -16.9143 H   0  0  0  0  0  0
  -31.8831   29.8100  -16.9881 H   0  0  0  0  0  0
  -31.3581   30.4657  -15.4002 H   0  0  0  0  0  0
  -32.3133   34.1944  -17.5880 H   0  0  0  0  0  0
  -35.1614   35.0949  -17.8346 H   0  0  0  0  0  0
  -34.3114   36.7833  -16.2533 H   0  0  0  0  0  0
  -34.6417   37.5255  -17.8554 H   0  0  0  0  0  0
  -32.9526   37.1589  -17.3665 H   0  0  0  0  0  0
  -35.1247   36.9550  -19.7507 H   0  0  0  0  0  0
  -33.0460   35.8881  -21.6450 H   0  0  0  0  0  0
  -34.9263   35.8002  -23.4817 H   0  0  0  0  0  0
  -34.9676   34.5198  -22.2225 H   0  0  0  0  0  0
  -36.9070   35.2667  -21.3313 H   0  0  0  0  0  0
  -36.5565   36.9888  -21.7028 H   0  0  0  0  0  0
  -38.4180   35.6235  -23.0361 H   0  0  0  0  0  0
  -37.3768   36.8358  -23.8564 H   0  0  0  0  0  0
  -36.3485   35.1259  -25.1512 H   0  0  0  0  0  0
  -36.1033   33.0369  -25.8616 H   0  0  0  0  0  0
  -36.8288   31.5969  -24.8467 H   0  0  0  0  0  0
  -38.1803   33.8116  -22.2938 H   0  0  0  0  0  0
  -32.2481   37.0673  -23.1560 H   0  0  0  0  0  0
  -32.6122   39.9927  -23.0573 H   0  0  0  0  0  0
  -31.5196   37.9506  -25.1336 H   0  0  0  0  0  0
  -31.1878   39.7125  -25.2443 H   0  0  0  0  0  0
  -30.0598   39.6808  -23.0714 H   0  0  0  0  0  0
  -30.4920   37.9533  -22.8364 H   0  0  0  0  0  0
  -29.1403   37.3019  -24.7546 H   0  0  0  0  0  0
  -28.8092   39.0220  -25.1523 H   0  0  0  0  0  0
  -27.5282   39.3050  -23.1175 H   0  0  0  0  0  0
  -27.9802   37.6608  -22.5527 H   0  0  0  0  0  0
  -26.6650   38.2144  -25.2352 H   0  0  0  0  0  0
  -28.1242   36.2044  -24.6888 H   0  0  0  0  0  0
  -27.0188   35.8511  -23.3177 H   0  0  0  0  0  0
  -26.4118   35.7642  -25.0061 H   0  0  0  0  0  0
  -25.1215   38.9797  -23.7522 H   0  0  0  0  0  0
  -24.6467   37.3964  -24.4556 H   0  0  0  0  0  0
  -25.2537   37.4834  -22.7672 H   0  0  0  0  0  0
  -33.0096   41.4857  -24.6417 H   0  0  0  0  0  0
  -35.2888   40.5776  -26.4735 H   0  0  0  0  0  0
  -36.3683   42.8435  -25.9658 H   0  0  0  0  0  0
  -36.3303   41.7069  -24.5753 H   0  0  0  0  0  0
  -35.5659   44.0103  -23.8735 H   0  0  0  0  0  0
  -35.6642   41.9929  -28.3076 H   0  0  0  0  0  0
  -33.1861   42.5695  -29.6317 H   0  0  0  0  0  0
  -35.9254   43.8802  -30.3025 H   0  0  0  0  0  0
  -36.1404   41.3887  -30.0616 H   0  0  0  0  0  0
  -33.9540   44.7791  -31.5955 H   0  0  0  0  0  0
  -35.0955   43.8531  -32.6280 H   0  0  0  0  0  0
  -33.5542   43.1005  -32.0946 H   0  0  0  0  0  0
  -37.9610   32.0192  -22.9017 H   0  0  0  0  0  0
  1  2  1  0  0  0
  1 58  1  0  0  0
  1 59  1  0  0  0
  1 60  1  0  0  0
  2  3  1  0  0  0
  2  5  1  0  0  0
  2 61  1  0  0  0
  3  4  2  0  0  0
  3 10  1  0  0  0
  5  6  1  0  0  0
  5 62  1  0  0  0
  5 63  1  0  0  0
  6  7  1  0  0  0
  6 64  1  0  0  0
  6 65  1  0  0  0
  7  8  2  0  0  0
  7  9  1  0  0  0
  9 66  1  0  0  0
  9 67  1  0  0  0
 10 11  1  0  0  0
 10 68  1  0  0  0
 11 12  1  0  0  0
 11 14  1  0  0  0
 11 69  1  0  0  0
 12 13  2  0  0  0
 12 17  1  0  0  0
 14 15  1  0  0  0
 14 16  1  0  0  0
 14 70  1  0  0  0
 15 71  1  0  0  0
 16 72  1  0  0  0
 16 73  1  0  0  0
 16 74  1  0  0  0
 17 18  1  0  0  0
 17 75  1  0  0  0
 18 19  1  0  0  0
 18 21  1  0  0  0
 18 76  1  0  0  0
 19 20  2  0  0  0
 19 22  1  0  0  0
 21 77  1  0  0  0
 21 78  1  0  0  0
 21 79  1  0  0  0
 22 23  1  0  0  0
 22 80  1  0  0  0
 23 24  1  0  0  0
 23 26  1  0  0  0
 23 81  1  0  0  0
 24 25  2  0  0  0
 24 33  1  0  0  0
 26 27  1  0  0  0
 26 82  1  0  0  0
 26 83  1  0  0  0
 27 28  1  0  0  0
 27 84  1  0  0  0
 27 85  1  0  0  0
 28 29  1  0  0  0
 28 86  1  0  0  0
 28 87  1  0  0  0
 29 30  1  0  0  0
 29 88  1  0  0  0
 30 31  1  0  0  0
 30 32  2  0  0  0
 31 89  1  0  0  0
 31 90  1  0  0  0
 32 91  1  0  0  0
 32121  1  0  0  0
 33 34  1  0  0  0
 33 92  1  0  0  0
 34 35  1  0  0  0
 34 42  1  0  0  0
 34 93  1  0  0  0
 35 36  1  0  0  0
 35 94  1  0  0  0
 35 95  1  0  0  0
 36 37  1  0  0  0
 36 96  1  0  0  0
 36 97  1  0  0  0
 37 38  1  0  0  0
 37 98  1  0  0  0
 37 99  1  0  0  0
 38 39  1  0  0  0
 38100  1  0  0  0
 38101  1  0  0  0
 39 40  1  0  0  0
 39 41  1  0  0  0
 39102  1  0  0  0
 40103  1  0  0  0
 40104  1  0  0  0
 40105  1  0  0  0
 41106  1  0  0  0
 41107  1  0  0  0
 41108  1  0  0  0
 42 43  2  0  0  0
 42 44  1  0  0  0
 44 45  1  0  0  0
 44109  1  0  0  0
 45 46  1  0  0  0
 45 48  1  0  0  0
 45110  1  0  0  0
 46 47  2  0  0  0
 46 50  1  0  0  0
 48 49  1  0  0  0
 48111  1  0  0  0
 48112  1  0  0  0
 49113  1  0  0  0
 50 51  1  0  0  0
 50114  1  0  0  0
 51 52  1  0  0  0
 51 54  1  0  0  0
 51115  1  0  0  0
 52 53  2  0  0  0
 52 57  1  0  0  0
 54 55  1  0  0  0
 54 56  1  0  0  0
 54116  1  0  0  0
 55117  1  0  0  0
 56118  1  0  0  0
 56119  1  0  0  0
 56120  1  0  0  0
M  CHG  4   1   1  32   1  39   1  57  -1
M  END
> <s_m_source_file>
../4ft2_ligand.sdf

> <i_m_source_file_index>
1

> <s_epik_input>
Tz1DKFtOSDJdKVtDSDJdW0NIMl1bQ0BIXShbTkgzK10pQyg9TylbTkhdW0NAQEhdKFtDQEhdKFtPSF0pW0NIM10pQyg9TylbTkhdW0NAQEhdKFtDSDNdKUMoPU8pW05IXVtDQEBIXShbQ0gyXVtDSDJdW0NIMl1bTkhdL0MoW05IMl0pPU5cW0hdKUMoPU8pW05IXVtDQEBIXShbQ0gyXVtDSDJdW0NIMl1bQ0gyXVtOSCtdKFtDSDNdKVtDSDNdKUMoPU8pW05IXVtDQEBIXShbQ0gyXVtPSF0pQyg9TylbTkhdW0NASF0oQyg9TylbT0hdKVtDQEhdKFtPSF0pW0NIM10=

> <s_epik_cmdline>
J2VwaWtfYXBwJywgJy1pbWFlJywgJ2xpZ2FuZF9wcm8ubWFlJywgJy1vbWFlJywgJ2xpZ2FuZF9wcmVwLm1hZScsICctbXMnLCAnMScsICctcGgnLCAnNycsICctcGh0JywgJzAuNScsICctbnQn

> <r_epik_Ionization_Penalty>
  0.1767

> <r_epik_Ionization_Penalty_Charging>
  0.1767

> <r_epik_Ionization_Penalty_Neutral>
  0.0000

> <r_epik_State_Penalty>
  0.1644

> <r_epik_Charging_Adjusted_Penalty>
0.341111196056514

> <i_epik_Tot_Q>
2

> <i_epik_Tot_abs_Q>
4

> <s_epik_Chemistry_Notes>
This compound has an imine and may undergo hydrolysis.

$$$$
