4fxf_ligand
                    3D
 Schrodinger Suite 2020-3.
 30 30  0  0  1  0            999 V2000
   33.8990   23.7430  122.8860 P   0  0  0  0  0  0
   35.3200   24.2570  122.9390 O   0  5  0  0  0  0
   33.7760   22.5160  123.7590 O   0  0  0  0  0  0
   32.9410   24.8120  123.3590 O   0  5  0  0  0  0
   33.5430   23.3730  121.3620 O   0  0  0  0  0  0
   34.0960   22.2340  120.7420 C   0  0  0  0  0  0
   33.1250   21.6970  119.6970 C   0  0  2  0  0  0
   33.7290   20.5530  119.0360 O   0  0  0  0  0  0
   32.7330   22.7640  118.6750 C   0  0  1  0  0  0
   33.5150   22.7120  117.5070 O   0  0  0  0  0  0
   31.2780   22.4680  118.3850 C   0  0  2  0  0  0
   30.5630   23.6280  118.0340 O   0  0  0  0  0  0
   30.8020   21.9240  119.7180 C   0  0  2  0  0  0
   31.9180   21.2890  120.3210 O   0  0  0  0  0  0
   29.6330   20.9700  119.5540 C   0  0  0  0  0  0
   28.6570   21.3360  120.4980 O   0  0  0  0  0  0
   27.1210   21.4870  120.0660 P   0  0  0  0  0  0
   27.0320   22.3710  118.8470 O   0  5  0  0  0  0
   26.3470   22.1090  121.2010 O   0  5  0  0  0  0
   26.5630   20.1250  119.7450 O   0  0  0  0  0  0
   35.0437   22.5058  120.2542 H   0  0  0  0  0  0
   34.2828   21.4585  121.4994 H   0  0  0  0  0  0
   34.6782   20.6698  118.4925 H   0  0  0  0  0  0
   32.9381   23.7968  118.9932 H   0  0  0  0  0  0
   34.5964   22.9061  117.5601 H   0  0  0  0  0  0
   31.0950   21.8360  117.5035 H   0  0  0  0  0  0
   30.7876   24.1483  117.0912 H   0  0  0  0  0  0
   30.4786   22.7229  120.4015 H   0  0  0  0  0  0
   29.2322   21.0533  118.5330 H   0  0  0  0  0  0
   29.9733   19.9391  119.7313 H   0  0  0  0  0  0
  1  2  1  0  0  0
  1  3  2  0  0  0
  1  4  1  0  0  0
  1  5  1  0  0  0
  5  6  1  0  0  0
  6  7  1  0  0  0
  6 21  1  0  0  0
  6 22  1  0  0  0
  7  8  1  0  0  0
  7  9  1  0  0  0
  7 14  1  0  0  0
  8 23  1  0  0  0
  9 10  1  0  0  0
  9 11  1  0  0  0
  9 24  1  0  0  0
 10 25  1  0  0  0
 11 12  1  0  0  0
 11 13  1  0  0  0
 11 26  1  0  0  0
 12 27  1  0  0  0
 13 14  1  0  0  0
 13 15  1  0  0  0
 13 28  1  0  0  0
 15 16  1  0  0  0
 15 29  1  0  0  0
 15 30  1  0  0  0
 16 17  1  0  0  0
 17 18  1  0  0  0
 17 19  1  0  0  0
 17 20  2  0  0  0
M  CHG  4   2  -1   4  -1  18  -1  19  -1
M  END
> <s_m_source_file>
../4fxf_ligand.sdf

> <i_m_source_file_index>
1

> <s_epik_input>
W09IXVAoPU8pKFtPSF0pT1tDSDJdW0NAXTEoW09IXSlbQ0BASF0oW09IXSlbQ0BIXShbT0hdKVtDQEhdKE8xKVtDSDJdT1AoPU8pKFtPSF0pW09IXQ==

> <s_epik_cmdline>
J2VwaWtfYXBwJywgJy1pbWFlJywgJ2xpZ2FuZF9wcm8ubWFlJywgJy1vbWFlJywgJ2xpZ2FuZF9wcmVwLm1hZScsICctbXMnLCAnMScsICctcGgnLCAnNycsICctcGh0JywgJzAuNScsICctbnQn

> <r_lp_tautomer_probability>
1

> <r_epik_Ionization_Penalty>
  0.1882

> <r_epik_Ionization_Penalty_Charging>
  0.1882

> <r_epik_Ionization_Penalty_Neutral>
  0.0000

> <r_epik_State_Penalty>
 -0.0000

> <r_epik_Charging_Adjusted_Penalty>
0.188195921498509

> <i_epik_Tot_Q>
-4

> <i_epik_Tot_abs_Q>
4

$$$$
