4fxq_ligand
                    3D
 Schrodinger Suite 2020-3.
 51 54  0  0  1  0            999 V2000
  -32.2370  -75.8520   -2.3010 N   0  3  0  0  0  0
  -35.9510  -73.9580    0.5780 N   0  0  0  0  0  0
  -36.6510  -72.9760    4.5990 N   0  0  0  0  0  0
  -35.2180  -72.9950   -1.3420 O   0  0  0  0  0  0
  -36.7400  -73.4440    6.8820 O   0  0  0  0  0  0
  -35.6780  -78.4620    6.9810 F   0  0  0  0  0  0
  -35.5740  -77.9690    4.6840 C   0  0  0  0  0  0
  -35.6890  -77.0370    3.6750 C   0  0  0  0  0  0
  -36.1060  -76.2400    6.3620 C   0  0  0  0  0  0
  -30.3990  -77.3630   -3.0480 C   0  0  0  0  0  0
  -30.6050  -75.8440   -3.6080 C   0  0  0  0  0  0
  -31.5640  -77.7830   -1.9770 C   0  0  0  0  0  0
  -34.2320  -75.1080   -0.9480 C   0  0  0  0  0  0
  -36.5890  -72.3080    2.2280 C   0  0  0  0  0  0
  -30.8630  -75.3160   -3.0020 C   0  0  0  0  0  0
  -32.3140  -77.4730   -2.2050 C   0  0  0  0  0  0
  -33.2820  -74.8770   -2.1220 C   0  0  0  0  0  0
  -36.7810  -72.8300    0.8630 C   0  0  0  0  0  0
  -35.9210  -75.0430    1.5210 C   0  0  0  0  0  0
  -35.1380  -73.9540   -0.6040 C   0  0  0  0  0  0
  -35.7940  -77.5740    6.0180 C   0  0  0  0  0  0
  -36.4460  -73.3320    3.2950 C   0  0  0  0  0  0
  -36.1390  -74.6550    2.9670 C   0  0  0  0  0  0
  -36.5320  -73.8850    5.6180 C   0  0  0  0  0  0
  -36.0220  -75.6810    4.0180 C   0  0  0  0  0  0
  -36.2210  -75.2930    5.3350 C   0  0  0  0  0  0
  -32.7837  -75.6134   -1.3768 H   0  0  0  0  0  0
  -35.3152  -79.0021    4.4517 H   0  0  0  0  0  0
  -35.5303  -77.3230    2.6352 H   0  0  0  0  0  0
  -36.2541  -75.9533    7.4031 H   0  0  0  0  0  0
  -30.4329  -78.0715   -3.8888 H   0  0  0  0  0  0
  -29.4244  -77.4389   -2.5437 H   0  0  0  0  0  0
  -29.6517  -75.4683   -4.0080 H   0  0  0  0  0  0
  -31.3619  -75.8470   -4.4062 H   0  0  0  0  0  0
  -31.6381  -78.8794   -1.9271 H   0  0  0  0  0  0
  -31.3083  -77.3871   -0.9831 H   0  0  0  0  0  0
  -34.8900  -75.9608   -1.1711 H   0  0  0  0  0  0
  -33.6483  -75.3229   -0.0407 H   0  0  0  0  0  0
  -35.6745  -71.6976    2.2619 H   0  0  0  0  0  0
  -37.4537  -71.6888    2.5088 H   0  0  0  0  0  0
  -31.0413  -74.3271   -3.4495 H   0  0  0  0  0  0
  -30.0706  -75.2375   -2.2431 H   0  0  0  0  0  0
  -33.0678  -77.7606   -1.4573 H   0  0  0  0  0  0
  -32.5941  -77.8855   -3.1855 H   0  0  0  0  0  0
  -32.8343  -73.8858   -1.9573 H   0  0  0  0  0  0
  -33.9150  -74.8486   -3.0212 H   0  0  0  0  0  0
  -36.5506  -72.0178    0.1579 H   0  0  0  0  0  0
  -37.8379  -73.1168    0.7592 H   0  0  0  0  0  0
  -36.7104  -75.7674    1.2717 H   0  0  0  0  0  0
  -34.9405  -75.5397    1.4774 H   0  0  0  0  0  0
  -36.9183  -71.9390    4.8505 H   0  0  0  0  0  0
  1 15  1  0  0  0
  1 16  1  0  0  0
  1 17  1  0  0  0
  1 27  1  0  0  0
  2 18  1  0  0  0
  2 19  1  0  0  0
  2 20  1  0  0  0
  3 22  1  0  0  0
  3 24  1  0  0  0
  3 51  1  0  0  0
  4 20  2  0  0  0
  5 24  2  0  0  0
  6 21  1  0  0  0
  7  8  2  0  0  0
  7 21  1  0  0  0
  7 28  1  0  0  0
  8 25  1  0  0  0
  8 29  1  0  0  0
  9 21  2  0  0  0
  9 26  1  0  0  0
  9 30  1  0  0  0
 10 11  1  0  0  0
 10 12  1  0  0  0
 10 31  1  0  0  0
 10 32  1  0  0  0
 11 15  1  0  0  0
 11 33  1  0  0  0
 11 34  1  0  0  0
 12 16  1  0  0  0
 12 35  1  0  0  0
 12 36  1  0  0  0
 13 17  1  0  0  0
 13 20  1  0  0  0
 13 37  1  0  0  0
 13 38  1  0  0  0
 14 18  1  0  0  0
 14 22  1  0  0  0
 14 39  1  0  0  0
 14 40  1  0  0  0
 15 41  1  0  0  0
 15 42  1  0  0  0
 16 43  1  0  0  0
 16 44  1  0  0  0
 17 45  1  0  0  0
 17 46  1  0  0  0
 18 47  1  0  0  0
 18 48  1  0  0  0
 19 23  1  0  0  0
 19 49  1  0  0  0
 19 50  1  0  0  0
 22 23  2  0  0  0
 23 25  1  0  0  0
 24 26  1  0  0  0
 25 26  2  0  0  0
M  CHG  1   1   1
M  END
> <s_m_source_file>
../4fxq_ligand.sdf

> <i_m_source_file_index>
1

> <s_epik_input>
W0NIMl0xW0NIMl1bQ0gyXVtDSDJdW0NIMl1bTkgrXTFbQ0gyXVtDSDJdQyg9TylOKFtDSDJdW0NIMl0yKVtDSDJdYyhjMjMpYzRjKGMobjMpW09IXSlbY0hdYyhGKVtjSF1bY0hdNA==

> <s_epik_cmdline>
J2VwaWtfYXBwJywgJy1pbWFlJywgJ2xpZ2FuZF9wcm8ubWFlJywgJy1vbWFlJywgJ2xpZ2FuZF9wcmVwLm1hZScsICctbXMnLCAnMScsICctcGgnLCAnNycsICctcGh0JywgJzAuNScsICctbnQn

> <r_lp_tautomer_probability>
1

> <r_epik_Ionization_Penalty>
  0.0032

> <r_epik_Ionization_Penalty_Charging>
  0.0032

> <r_epik_Ionization_Penalty_Neutral>
  0.0000

> <r_epik_State_Penalty>
 -0.0000

> <r_epik_Charging_Adjusted_Penalty>
0.00323437161586146

> <i_epik_Tot_Q>
1

> <i_epik_Tot_abs_Q>
1

$$$$
