4fxy_ligand
                    3D
 Schrodinger Suite 2020-3.
 71 76  0  0  1  0            999 V2000
   48.5810    4.5140   45.6940 C   0  0  2  0  0  0
   46.3990    5.6120   45.8890 C   0  0  0  0  0  0
   47.5030    1.4950   43.5350 N   0  0  0  0  0  0
   47.3970    3.1200   41.7860 C   0  0  0  0  0  0
   47.5340    5.1830   46.4490 N   0  0  0  0  0  0
   48.1070    3.0960   45.3510 C   0  0  0  0  0  0
   48.3930    0.4660   43.4850 C   0  0  0  0  0  0
   47.8980   -0.8420   43.7120 C   0  0  0  0  0  0
   48.7370   -1.9600   43.6780 C   0  0  0  0  0  0
   50.1110   -1.7930   43.4100 C   0  0  0  0  0  0
   50.6340   -0.4990   43.1810 C   0  0  0  0  0  0
   49.7910    0.6160   43.2180 C   0  0  0  0  0  0
   44.1440    6.7050   46.1710 C   0  0  2  0  0  0
   45.4410    6.2200   46.6590 N   0  0  0  0  0  0
   46.1840    5.4730   44.6880 O   0  0  0  0  0  0
   49.9040    4.4780   46.4940 C   0  0  0  0  0  0
   47.7590    2.3420   46.2530 O   0  0  0  0  0  0
   47.9480    2.7470   44.0400 N   0  0  0  0  0  0
   46.6090   -1.0490   43.9680 F   0  0  0  0  0  0
   46.6750    1.8620   42.3600 C   0  0  2  0  0  0
   45.2060    2.0730   42.7630 C   0  0  0  0  0  0
   44.8190    2.2120   44.1280 C   0  0  0  0  0  0
   43.5050    2.3990   44.5040 C   0  0  0  0  0  0
   42.4750    2.4610   43.5520 C   0  0  0  0  0  0
   42.8030    2.3290   42.1810 C   0  0  0  0  0  0
   44.1570    2.1370   41.8060 C   0  0  0  0  0  0
   44.4460    1.9840   40.0960 Cl  0  0  0  0  0  0
   48.1000    3.7440   42.9590 C   0  0  0  0  0  0
   43.7760    8.0940   46.7600 C   0  0  2  0  0  0
   43.6750    8.0120   48.3130 C   0  0  0  0  0  0
   42.5770    6.9840   48.7360 C   0  0  2  0  0  0
   42.9300    5.5920   48.1480 C   0  0  0  0  0  0
   43.0190    5.6560   46.5730 C   0  0  1  0  0  0
   41.6350    6.1320   46.0270 C   0  0  0  0  0  0
   41.2860    7.5280   46.5830 C   0  0  1  0  0  0
   41.1960    7.4420   48.1520 C   0  0  0  0  0  0
   42.4010    8.5360   46.1860 C   0  0  0  0  0  0
   48.7304    5.1064   44.7793 H   0  0  0  0  0  0
   48.1093    2.8104   41.0070 H   0  0  0  0  0  0
   46.6527    3.8036   41.3516 H   0  0  0  0  0  0
   47.6584    5.3548   47.5284 H   0  0  0  0  0  0
   48.3309   -2.9554   43.8578 H   0  0  0  0  0  0
   50.7699   -2.6607   43.3793 H   0  0  0  0  0  0
   51.6967   -0.3706   42.9752 H   0  0  0  0  0  0
   50.2029    1.6097   43.0417 H   0  0  0  0  0  0
   44.2878    6.8114   45.0856 H   0  0  0  0  0  0
   45.7065    6.3332   47.7205 H   0  0  0  0  0  0
   50.2202    5.5057   46.7260 H   0  0  0  0  0  0
   50.6815    3.9816   45.8947 H   0  0  0  0  0  0
   49.7513    3.9211   47.4302 H   0  0  0  0  0  0
   46.6153    1.0501   41.6203 H   0  0  0  0  0  0
   45.5870    2.1691   44.9003 H   0  0  0  0  0  0
   43.2615    2.5007   45.5616 H   0  0  0  0  0  0
   41.4407    2.6082   43.8630 H   0  0  0  0  0  0
   42.0226    2.3745   41.4214 H   0  0  0  0  0  0
   49.1553    3.9196   42.7030 H   0  0  0  0  0  0
   47.6189    4.7014   43.2079 H   0  0  0  0  0  0
   44.5565    8.8188   46.4853 H   0  0  0  0  0  0
   44.6426    7.6921   48.7270 H   0  0  0  0  0  0
   43.4128    9.0013   48.7162 H   0  0  0  0  0  0
   42.5289    6.9193   49.8330 H   0  0  0  0  0  0
   43.9012    5.2618   48.5452 H   0  0  0  0  0  0
   42.1526    4.8668   48.4304 H   0  0  0  0  0  0
   43.2542    4.6685   46.1492 H   0  0  0  0  0  0
   41.6722    6.1838   44.9289 H   0  0  0  0  0  0
   40.8550    5.4198   46.3342 H   0  0  0  0  0  0
   40.3286    7.8583   46.1538 H   0  0  0  0  0  0
   40.4197    6.7153   48.4335 H   0  0  0  0  0  0
   40.9364    8.4312   48.5572 H   0  0  0  0  0  0
   42.1396    9.5279   46.5833 H   0  0  0  0  0  0
   42.4602    8.5845   45.0887 H   0  0  0  0  0  0
  1  5  1  0  0  0
  1  6  1  0  0  0
  1 16  1  0  0  0
  1 38  1  0  0  0
  2  5  1  0  0  0
  2 14  1  0  0  0
  2 15  2  0  0  0
  3  7  1  0  0  0
  3 18  1  0  0  0
  3 20  1  0  0  0
  4 20  1  0  0  0
  4 28  1  0  0  0
  4 39  1  0  0  0
  4 40  1  0  0  0
  5 41  1  0  0  0
  6 17  2  0  0  0
  6 18  1  0  0  0
  7  8  2  0  0  0
  7 12  1  0  0  0
  8  9  1  0  0  0
  8 19  1  0  0  0
  9 10  2  0  0  0
  9 42  1  0  0  0
 10 11  1  0  0  0
 10 43  1  0  0  0
 11 12  2  0  0  0
 11 44  1  0  0  0
 12 45  1  0  0  0
 13 14  1  0  0  0
 13 29  1  0  0  0
 13 33  1  0  0  0
 13 46  1  0  0  0
 14 47  1  0  0  0
 16 48  1  0  0  0
 16 49  1  0  0  0
 16 50  1  0  0  0
 18 28  1  0  0  0
 20 21  1  0  0  0
 20 51  1  0  0  0
 21 22  2  0  0  0
 21 26  1  0  0  0
 22 23  1  0  0  0
 22 52  1  0  0  0
 23 24  2  0  0  0
 23 53  1  0  0  0
 24 25  1  0  0  0
 24 54  1  0  0  0
 25 26  2  0  0  0
 25 55  1  0  0  0
 26 27  1  0  0  0
 28 56  1  0  0  0
 28 57  1  0  0  0
 29 30  1  0  0  0
 29 37  1  0  0  0
 29 58  1  0  0  0
 30 31  1  0  0  0
 30 59  1  0  0  0
 30 60  1  0  0  0
 31 32  1  0  0  0
 31 36  1  0  0  0
 31 61  1  0  0  0
 32 33  1  0  0  0
 32 62  1  0  0  0
 32 63  1  0  0  0
 33 34  1  0  0  0
 33 64  1  0  0  0
 34 35  1  0  0  0
 34 65  1  0  0  0
 34 66  1  0  0  0
 35 36  1  0  0  0
 35 37  1  0  0  0
 35 67  1  0  0  0
 36 68  1  0  0  0
 36 69  1  0  0  0
 37 70  1  0  0  0
 37 71  1  0  0  0
M  END
> <s_m_source_file>
../4fxy_ligand.sdf

> <i_m_source_file_index>
1

> <s_epik_input>
W0NIMl0xW0NASF0oW0NIMl0yKVtDSDJdW0NASF0oW0NIMl0zKVtDSDJdW0NAQEhdMVtDQEBIXShbQ0BASF0yMylbTkhdQyg9TylbTkhdW0NAQEhdKFtDSDNdKUMoPU8pTihONGM1YyhGKVtjSF1bY0hdW2NIXVtjSF01KVtDSDJdW0NIMl1bQ0BASF00YzZbY0hdW2NIXVtjSF1bY0hdYzZDbA==

> <s_epik_cmdline>
J2VwaWtfYXBwJywgJy1pbWFlJywgJ2xpZ2FuZF9wcm8ubWFlJywgJy1vbWFlJywgJ2xpZ2FuZF9wcmVwLm1hZScsICctbXMnLCAnMScsICctcGgnLCAnNycsICctcGh0JywgJzAuNScsICctbnQn

> <r_lp_tautomer_probability>
1

> <r_epik_Ionization_Penalty>
  0.0001

> <r_epik_Ionization_Penalty_Charging>
  0.0000

> <r_epik_Ionization_Penalty_Neutral>
  0.0001

> <r_epik_State_Penalty>
 -0.0000

> <r_epik_Charging_Adjusted_Penalty>
0

> <i_epik_Tot_Q>
0

> <i_epik_Tot_abs_Q>
0

$$$$
