4fyh_ligand
                    3D
 Schrodinger Suite 2020-3.
 42 45  0  0  1  0            999 V2000
   15.7200   38.8590    5.5750 O   0  5  0  0  0  0
   17.1070   39.3840    6.1620 P   0  0  0  0  0  0
   16.9360   39.7620    7.5780 O   0  0  0  0  0  0
   18.1560   38.4070    5.7950 O   0  5  0  0  0  0
   17.3650   40.7230    5.3000 O   0  0  0  0  0  0
   17.1060   40.7440    3.8940 C   0  0  0  0  0  0
   17.4030   42.1410    3.3590 C   0  0  1  0  0  0
   18.6580   42.5440    3.9070 O   0  0  0  0  0  0
   17.5460   42.0880    1.8440 C   0  0  1  0  0  0
   16.6640   43.0520    1.2350 O   0  0  0  0  0  0
   19.0300   42.3670    1.5400 C   0  0  1  0  0  0
   19.1900   43.5690    0.7630 O   0  0  0  0  0  0
   19.7330   42.4580    2.9290 C   0  0  2  0  0  0
   20.5310   41.2090    3.1990 N   0  0  0  0  0  0
   20.3040   40.2940    4.1570 C   0  0  0  0  0  0
   21.2110   39.3190    4.0410 C   0  0  0  0  0  0
   21.9750   39.6520    3.0140 C   0  0  0  0  0  0
   21.5850   40.8060    2.4810 C   0  0  0  0  0  0
   22.2360   41.3230    1.4180 N   0  0  0  0  0  0
   23.3990   40.6120    0.8210 C   0  0  0  0  0  0
   23.7130   39.3300    1.5320 N   0  0  0  0  0  0
   22.9940   38.9060    2.5910 C   0  0  0  0  0  0
   23.2630   37.7530    3.2520 N   0  0  0  0  0  0
   24.3890   36.8780    2.8340 C   0  0  0  0  0  0
   22.5210   37.3980    4.2750 N   0  0  0  0  0  0
   21.4860   38.1690    4.6830 C   0  0  0  0  0  0
   20.7130   37.8420    5.7240 N   0  0  0  0  0  0
   17.7508   40.0080    3.3914 H   0  0  0  0  0  0
   16.0509   40.4921    3.7117 H   0  0  0  0  0  0
   16.6363   42.8701    3.6598 H   0  0  0  0  0  0
   17.2096   41.1382    1.4028 H   0  0  0  0  0  0
   15.5762   42.9671    1.3742 H   0  0  0  0  0  0
   19.4851   41.6239    0.8687 H   0  0  0  0  0  0
   18.7427   43.6395   -0.2395 H   0  0  0  0  0  0
   20.4077   43.3213    3.0261 H   0  0  0  0  0  0
   19.5119   40.3395    4.9044 H   0  0  0  0  0  0
   23.9599   40.9819   -0.0373 H   0  0  0  0  0  0
   24.8989   37.3252    1.9679 H   0  0  0  0  0  0
   24.0002   35.8865    2.5589 H   0  0  0  0  0  0
   25.1014   36.7747    3.6658 H   0  0  0  0  0  0
   19.8822   38.4994    6.0201 H   0  0  0  0  0  0
   20.9079   36.9156    6.2842 H   0  0  0  0  0  0
  1  2  1  0  0  0
  2  3  2  0  0  0
  2  4  1  0  0  0
  2  5  1  0  0  0
  5  6  1  0  0  0
  6  7  1  0  0  0
  6 28  1  0  0  0
  6 29  1  0  0  0
  7  8  1  0  0  0
  7  9  1  0  0  0
  7 30  1  0  0  0
  8 13  1  0  0  0
  9 10  1  0  0  0
  9 11  1  0  0  0
  9 31  1  0  0  0
 10 32  1  0  0  0
 11 12  1  0  0  0
 11 13  1  0  0  0
 11 33  1  0  0  0
 12 34  1  0  0  0
 13 14  1  0  0  0
 13 35  1  0  0  0
 14 15  1  0  0  0
 14 18  1  0  0  0
 15 16  2  0  0  0
 15 36  1  0  0  0
 16 17  1  0  0  0
 16 26  1  0  0  0
 17 18  2  0  0  0
 17 22  1  0  0  0
 18 19  1  0  0  0
 19 20  2  0  0  0
 20 21  1  0  0  0
 20 37  1  0  0  0
 21 22  2  0  0  0
 22 23  1  0  0  0
 23 24  1  0  0  0
 23 25  1  0  0  0
 24 38  1  0  0  0
 24 39  1  0  0  0
 24 40  1  0  0  0
 25 26  2  0  0  0
 26 27  1  0  0  0
 27 41  1  0  0  0
 27 42  1  0  0  0
M  CHG  2   1  -1   4  -1
M  END
> <s_m_source_file>
../4fyh_ligand.sdf

> <i_m_source_file_index>
1

> <s_epik_input>
W09IXVAoPU8pKFtPSF0pT1tDSDJdW0NASF0xT1tDQEhdKFtDQEhdKFtPSF0pW0NAQEhdMVtPSF0pbihbY0hdMiljKGMzYzI0KW5bY0hdW25IXWMzW24rXShbQ0gzXSluYzRbTkgyXQ==

> <s_epik_cmdline>
J2VwaWtfYXBwJywgJy1pbWFlJywgJ2xpZ2FuZF9wcm8ubWFlJywgJy1vbWFlJywgJ2xpZ2FuZF9wcmVwLm1hZScsICctbXMnLCAnMScsICctcGgnLCAnNycsICctcGh0JywgJzAuNScsICctbnQn

> <r_epik_Ionization_Penalty>
  0.0998

> <r_epik_Ionization_Penalty_Charging>
  0.0997

> <r_epik_Ionization_Penalty_Neutral>
  0.0000

> <r_epik_State_Penalty>
  0.0898

> <r_epik_Charging_Adjusted_Penalty>
0.189518320272396

> <i_epik_Tot_Q>
-2

> <i_epik_Tot_abs_Q>
2

> <s_epik_Chemistry_Notes>
This compound contains an acetal/aminal-like group ( X-CH(R)-Y where X, Y are N, S, or O) that may be acid/base labile, releasing an aldehyde.

$$$$
