4fyo_ligand
                    3D
 Schrodinger Suite 2020-3.
 60 64  0  0  1  0            999 V2000
    2.5140    1.2780   13.2690 C   0  0  0  0  0  0
    1.7520    0.3320   13.8200 N   0  0  0  0  0  0
    3.7800    1.4470   13.6160 N   0  0  0  0  0  0
    2.2070   -0.4830   14.7610 C   0  0  0  0  0  0
    4.3080    0.6840   14.5330 C   0  0  0  0  0  0
    3.5680   -0.3410   15.1800 C   0  0  0  0  0  0
    2.0050    2.0970   12.2860 N   0  0  0  0  0  0
    4.2650   -1.0310   16.1050 N   0  0  0  0  0  0
    5.9110    0.6030   15.2680 S   0  0  0  0  0  0
   -1.8510    4.2110   11.3750 C   0  0  0  0  0  0
    1.4150   -1.4710   15.3430 N   0  0  0  0  0  0
    5.5180   -0.7570   16.3650 C   0  0  0  0  0  0
   -0.5120    4.3600   11.4340 N   0  0  0  0  0  0
   -5.1640    8.6610   12.8400 C   0  0  0  0  0  0
   -0.8420   -0.8760   14.4790 C   0  0  0  0  0  0
   -2.2110   -1.1710   14.4240 C   0  0  0  0  0  0
    0.5590    2.2540   12.1730 C   0  0  0  0  0  0
   -2.7110    5.3450   11.7720 C   0  0  0  0  0  0
    0.0250   -1.6830   15.2250 C   0  0  0  0  0  0
   -4.3110    7.5080   12.4690 C   0  0  0  0  0  0
    2.6750    3.3700   11.9740 C   0  0  0  0  0  0
    0.4040    3.2900   11.0390 C   0  0  2  0  0  0
   -2.7160   -2.2700   15.1270 C   0  0  0  0  0  0
   -2.3540    3.1720   10.9880 O   0  0  0  0  0  0
   -4.9780    9.7510   12.3360 O   0  0  0  0  0  0
    1.8250    3.8810   10.7850 C   0  0  0  0  0  0
   -3.7320    5.1770   12.7150 C   0  0  0  0  0  0
   -2.4960    6.5980   11.1790 C   0  0  0  0  0  0
   -3.2890    7.6720   11.5260 C   0  0  0  0  0  0
   -4.5250    6.2550   13.0600 C   0  0  0  0  0  0
   -1.8500   -3.0770   15.8580 C   0  0  0  0  0  0
   -6.1550    8.5010   13.7340 O   0  5  0  0  0  0
   -0.4970   -2.7810   15.9060 C   0  0  0  0  0  0
   -3.1070   -0.4140   13.7190 O   0  0  0  0  0  0
   -4.0570   -2.5450   15.0520 O   0  0  0  0  0  0
   -2.4740    0.2920   12.6500 C   0  0  0  0  0  0
   -4.5980   -2.8210   16.3490 C   0  0  0  0  0  0
    1.8718   -2.2263   15.9994 H   0  0  0  0  0  0
    6.1737   -1.2457   17.0857 H   0  0  0  0  0  0
   -0.1136    5.3208   11.7920 H   0  0  0  0  0  0
   -0.4506   -0.0142   13.9384 H   0  0  0  0  0  0
    0.1034    1.2846   11.9227 H   0  0  0  0  0  0
    0.1533    2.6136   13.1301 H   0  0  0  0  0  0
    2.6356    4.0301   12.8530 H   0  0  0  0  0  0
    3.7245    3.1763   11.7076 H   0  0  0  0  0  0
   -0.0596    2.8509   10.1433 H   0  0  0  0  0  0
    1.8181    4.9810   10.7852 H   0  0  0  0  0  0
    2.2581    3.5173    9.8415 H   0  0  0  0  0  0
   -3.9003    4.2027   13.1739 H   0  0  0  0  0  0
   -1.7015    6.7230   10.4433 H   0  0  0  0  0  0
   -3.1204    8.6462   11.0671 H   0  0  0  0  0  0
   -5.3203    6.1304   13.7949 H   0  0  0  0  0  0
   -2.2365   -3.9438   16.3940 H   0  0  0  0  0  0
    0.1704   -3.4180   16.4864 H   0  0  0  0  0  0
   -3.2242    0.8871   12.1087 H   0  0  0  0  0  0
   -2.0092   -0.4275   11.9599 H   0  0  0  0  0  0
   -1.7014    0.9599   13.0585 H   0  0  0  0  0  0
   -5.6727   -3.0377   16.2595 H   0  0  0  0  0  0
   -4.4533   -1.9464   17.0003 H   0  0  0  0  0  0
   -4.0835   -3.6908   16.7834 H   0  0  0  0  0  0
  1  2  2  0  0  0
  1  3  1  0  0  0
  1  7  1  0  0  0
  2  4  1  0  0  0
  3  5  2  0  0  0
  4  6  2  0  0  0
  4 11  1  0  0  0
  5  6  1  0  0  0
  5  9  1  0  0  0
  6  8  1  0  0  0
  7 17  1  0  0  0
  7 21  1  0  0  0
  8 12  2  0  0  0
  9 12  1  0  0  0
 10 13  1  0  0  0
 10 18  1  0  0  0
 10 24  2  0  0  0
 11 19  1  0  0  0
 11 38  1  0  0  0
 12 39  1  0  0  0
 13 22  1  0  0  0
 13 40  1  0  0  0
 14 20  1  0  0  0
 14 25  2  0  0  0
 14 32  1  0  0  0
 15 16  2  0  0  0
 15 19  1  0  0  0
 15 41  1  0  0  0
 16 23  1  0  0  0
 16 34  1  0  0  0
 17 22  1  0  0  0
 17 42  1  0  0  0
 17 43  1  0  0  0
 18 27  2  0  0  0
 18 28  1  0  0  0
 19 33  2  0  0  0
 20 29  1  0  0  0
 20 30  2  0  0  0
 21 26  1  0  0  0
 21 44  1  0  0  0
 21 45  1  0  0  0
 22 26  1  0  0  0
 22 46  1  0  0  0
 23 31  2  0  0  0
 23 35  1  0  0  0
 26 47  1  0  0  0
 26 48  1  0  0  0
 27 30  1  0  0  0
 27 49  1  0  0  0
 28 29  2  0  0  0
 28 50  1  0  0  0
 29 51  1  0  0  0
 30 52  1  0  0  0
 31 33  1  0  0  0
 31 53  1  0  0  0
 33 54  1  0  0  0
 34 36  1  0  0  0
 35 37  1  0  0  0
 36 55  1  0  0  0
 36 56  1  0  0  0
 36 57  1  0  0  0
 37 58  1  0  0  0
 37 59  1  0  0  0
 37 60  1  0  0  0
M  CHG  1  32  -1
M  END
> <s_m_source_file>
../4fyo_ligand.sdf

> <i_m_source_file_index>
1

> <s_epik_input>
W0NIM11PYzFbY0hdW2NIXWMoW2NIXWMxT1tDSDNdKVtOSF1jKGMoYzIzKW5bY0hdczMpbmMobjIpTjRbQ0gyXVtDQEhdKFtDSDJdW0NIMl00KVtOSF1DKD1PKWM1W2NIXVtjSF1jKEMoPU8pW09IXSlbY0hdW2NIXTU=

> <s_epik_cmdline>
J2VwaWtfYXBwJywgJy1pbWFlJywgJ2xpZ2FuZF9wcm8ubWFlJywgJy1vbWFlJywgJ2xpZ2FuZF9wcmVwLm1hZScsICctbXMnLCAnMScsICctcGgnLCAnNycsICctcGh0JywgJzAuNScsICctbnQn

> <r_lp_tautomer_probability>
1

> <r_epik_Ionization_Penalty>
  0.0030

> <r_epik_Ionization_Penalty_Charging>
  0.0004

> <r_epik_Ionization_Penalty_Neutral>
  0.0026

> <r_epik_State_Penalty>
 -0.0000

> <r_epik_Charging_Adjusted_Penalty>
0.000436375261603651

> <i_epik_Tot_Q>
-1

> <i_epik_Tot_abs_Q>
1

$$$$
