4fz3_ligand
                    3D
 Schrodinger Suite 2020-3.
115117  0  0  1  0            999 V2000
   18.8080  -38.0760   12.9110 C   0  0  0  0  0  0
   20.0780  -38.3100   12.8530 O   0  0  0  0  0  0
   17.9960  -37.9640   14.1780 C   0  0  0  0  0  0
   18.2130  -37.1550   12.0390 N   0  0  0  0  0  0
   18.8520  -37.5940   10.8030 C   0  0  2  0  0  0
   19.9530  -36.7010   10.3140 C   0  0  0  0  0  0
   20.3460  -36.8570    9.1730 O   0  0  0  0  0  0
   17.8670  -37.5190    9.6710 C   0  0  0  0  0  0
   18.6280  -37.8570    8.3740 C   0  0  0  0  0  0
   17.9370  -37.1650    7.0810 C   0  0  0  0  0  0
   18.3350  -38.1290    6.0740 N   0  0  0  0  0  0
   17.9290  -38.1720    4.8070 C   0  0  0  0  0  0
   17.1800  -37.2430    4.2680 N   0  3  0  0  0  0
   18.4510  -39.1460    4.0750 N   0  0  0  0  0  0
   20.4890  -35.7900   11.0830 N   0  0  0  0  0  0
   21.1430  -34.6550   10.4620 C   0  0  2  0  0  0
   22.2450  -35.1640    9.4620 C   0  0  0  0  0  0
   23.2280  -35.7750    9.8760 O   0  0  0  0  0  0
   21.6740  -33.7510   11.6180 C   0  0  0  0  0  0
   20.5800  -33.2010   12.5610 C   0  0  0  0  0  0
   19.6000  -32.3110   12.1450 N   0  0  0  0  0  0
   20.3670  -33.4090   13.8900 C   0  0  0  0  0  0
   18.7790  -32.0310   13.1630 C   0  0  0  0  0  0
   19.2410  -32.6750   14.2440 N   0  0  0  0  0  0
   22.0390  -35.0060    8.0760 N   0  0  0  0  0  0
   22.9570  -35.5410    7.0430 C   0  0  2  0  0  0
   23.1210  -34.4620    6.0470 C   0  0  0  0  0  0
   22.1650  -33.7760    5.7340 O   0  0  0  0  0  0
   22.3810  -36.7570    6.3030 C   0  0  0  0  0  0
   22.8510  -38.1160    6.8390 C   0  0  0  0  0  0
   22.2150  -39.2620    6.0350 C   0  0  0  0  0  0
   22.4330  -40.6200    6.7010 C   0  0  0  0  0  0
   21.5530  -40.7480    7.8780 N   0  3  0  0  0  0
   29.2340  -28.9100    0.5980 O   0  0  0  0  0  0
   29.9340  -29.8170    0.9380 C   0  0  0  0  0  0
   31.4250  -29.6710    0.9020 C   0  0  0  0  0  0
   29.4010  -30.9750    1.3000 N   0  0  0  0  0  0
   27.9550  -31.1670    1.4120 C   0  0  0  0  0  0
   27.6230  -32.0980    2.5800 C   0  0  0  0  0  0
   26.1070  -32.1520    2.8490 C   0  0  0  0  0  0
   25.9000  -33.2840    3.8060 C   0  0  0  0  0  0
   24.4190  -33.4920    4.1510 C   0  0  2  0  0  0
   24.4030  -34.5720    5.1240 N   0  0  0  0  0  0
   23.6630  -34.0290    2.9290 C   0  0  0  0  0  0
   23.9150  -35.1830    2.6280 O   0  0  0  0  0  0
   22.9120  -33.1710    2.0930 N   0  0  0  0  0  0
   22.2490  -33.3380    0.9160 C   0  0  0  0  0  0
   22.3670  -34.5700    0.2990 C   0  0  0  0  0  0
   21.7270  -34.8040   -0.8960 C   0  0  0  0  0  0
   21.2620  -36.3330   -2.6690 C   0  0  0  0  0  0
   20.4320  -35.4220   -3.3330 C   0  0  0  0  0  0
   20.2320  -34.1520   -2.7530 C   0  0  0  0  0  0
   20.9160  -33.8310   -1.4720 C   0  0  0  0  0  0
   20.7730  -32.5860   -0.8360 C   0  0  0  0  0  0
   21.4210  -32.3450    0.3680 C   0  0  0  0  0  0
   19.3520  -33.1110   -3.4040 C   0  0  0  0  0  0
   21.9130  -36.0280   -1.4780 O   0  0  0  0  0  0
   21.4960  -37.5620   -3.1570 O   0  0  0  0  0  0
   18.3942  -38.6595   14.9314 H   0  0  0  0  0  0
   16.9468  -38.2161   13.9645 H   0  0  0  0  0  0
   18.0551  -36.9347   14.5616 H   0  0  0  0  0  0
   17.5028  -36.3151   12.0228 H   0  0  0  0  0  0
   19.2232  -38.5927   11.0763 H   0  0  0  0  0  0
   17.0565  -38.2429    9.8416 H   0  0  0  0  0  0
   17.4466  -36.5039    9.6173 H   0  0  0  0  0  0
   19.6634  -37.4937    8.4511 H   0  0  0  0  0  0
   18.6320  -38.9468    8.2246 H   0  0  0  0  0  0
   16.8509  -37.0934    7.2401 H   0  0  0  0  0  0
   18.3539  -36.1572    6.9379 H   0  0  0  0  0  0
   19.0444  -38.9300    6.3293 H   0  0  0  0  0  0
   16.7575  -36.4444    4.8954 H   0  0  0  0  0  0
   19.0773  -39.9157    4.5498 H   0  0  0  0  0  0
   18.2579  -39.1846    2.9928 H   0  0  0  0  0  0
   20.4515  -35.8710   12.1794 H   0  0  0  0  0  0
   20.4016  -34.0946    9.8736 H   0  0  0  0  0  0
   22.7296  -33.4952   11.7920 H   0  0  0  0  0  0
   20.8945  -34.0068   14.6479 H   0  0  0  0  0  0
   17.8949  -31.3948   13.1212 H   0  0  0  0  0  0
   21.1382  -34.4502    7.7766 H   0  0  0  0  0  0
   23.8972  -35.8223    7.5399 H   0  0  0  0  0  0
   21.2838  -36.7472    6.3801 H   0  0  0  0  0  0
   22.6745  -36.7144    5.2437 H   0  0  0  0  0  0
   23.9456  -38.1849    6.7542 H   0  0  0  0  0  0
   22.5581  -38.2150    7.8946 H   0  0  0  0  0  0
   21.1316  -39.0922    5.9488 H   0  0  0  0  0  0
   22.6617  -39.2971    5.0304 H   0  0  0  0  0  0
   22.1999  -41.4214    5.9845 H   0  0  0  0  0  0
   23.4819  -40.7075    7.0206 H   0  0  0  0  0  0
   21.7151  -41.7272    8.3522 H   0  0  0  0  0  0
   20.5029  -40.6631    7.5616 H   0  0  0  0  0  0
   21.7849  -39.9491    8.5978 H   0  0  0  0  0  0
   31.6859  -28.6515    0.5819 H   0  0  0  0  0  0
   31.8475  -30.3976    0.1924 H   0  0  0  0  0  0
   31.8359  -29.8568    1.9053 H   0  0  0  0  0  0
   30.0851  -31.8080    1.5195 H   0  0  0  0  0  0
   27.4682  -30.1953    1.5819 H   0  0  0  0  0  0
   27.5710  -31.6118    0.4821 H   0  0  0  0  0  0
   27.9709  -33.1155    2.3482 H   0  0  0  0  0  0
   28.1245  -31.7375    3.4903 H   0  0  0  0  0  0
   25.7777  -31.1971    3.2846 H   0  0  0  0  0  0
   25.5728  -32.3273    1.9035 H   0  0  0  0  0  0
   26.2798  -34.2151    3.3602 H   0  0  0  0  0  0
   26.4417  -33.0775    4.7409 H   0  0  0  0  0  0
   23.9563  -32.5724    4.5387 H   0  0  0  0  0  0
   25.2155  -35.3134    5.1362 H   0  0  0  0  0  0
   22.7758  -32.1149    2.3690 H   0  0  0  0  0  0
   22.9668  -35.3552    0.7593 H   0  0  0  0  0  0
   19.9522  -35.6876   -4.2750 H   0  0  0  0  0  0
   20.1541  -31.8105   -1.2874 H   0  0  0  0  0  0
   21.2882  -31.3937    0.8832 H   0  0  0  0  0  0
   18.9311  -33.5173   -4.3355 H   0  0  0  0  0  0
   19.9497  -32.2160   -3.6315 H   0  0  0  0  0  0
   18.5345  -32.8417   -2.7190 H   0  0  0  0  0  0
   19.5904  -31.9497   11.1061 H   0  0  0  0  0  0
   16.9733  -37.2612    3.1878 H   0  0  0  0  0  0
  1  2  2  0  0  0
  1  3  1  0  0  0
  1  4  1  0  0  0
  3 59  1  0  0  0
  3 60  1  0  0  0
  3 61  1  0  0  0
  4  5  1  0  0  0
  4 62  1  0  0  0
  5  6  1  0  0  0
  5  8  1  0  0  0
  5 63  1  0  0  0
  6  7  2  0  0  0
  6 15  1  0  0  0
  8  9  1  0  0  0
  8 64  1  0  0  0
  8 65  1  0  0  0
  9 10  1  0  0  0
  9 66  1  0  0  0
  9 67  1  0  0  0
 10 11  1  0  0  0
 10 68  1  0  0  0
 10 69  1  0  0  0
 11 12  1  0  0  0
 11 70  1  0  0  0
 12 13  2  0  0  0
 12 14  1  0  0  0
 13 71  1  0  0  0
 13115  1  0  0  0
 14 72  1  0  0  0
 14 73  1  0  0  0
 15 16  1  0  0  0
 15 74  1  0  0  0
 16 17  1  0  0  0
 16 19  1  0  0  0
 16 75  1  0  0  0
 17 18  2  0  0  0
 17 25  1  0  0  0
 19 20  2  0  0  0
 19 76  1  0  0  0
 20 21  1  0  0  0
 20 22  1  0  0  0
 21 23  1  0  0  0
 21114  1  0  0  0
 22 24  2  0  0  0
 22 77  1  0  0  0
 23 24  1  0  0  0
 23 78  1  0  0  0
 25 26  1  0  0  0
 25 79  1  0  0  0
 26 27  1  0  0  0
 26 29  1  0  0  0
 26 80  1  0  0  0
 27 28  2  0  0  0
 27 43  1  0  0  0
 29 30  1  0  0  0
 29 81  1  0  0  0
 29 82  1  0  0  0
 30 31  1  0  0  0
 30 83  1  0  0  0
 30 84  1  0  0  0
 31 32  1  0  0  0
 31 85  1  0  0  0
 31 86  1  0  0  0
 32 33  1  0  0  0
 32 87  1  0  0  0
 32 88  1  0  0  0
 33 89  1  0  0  0
 33 90  1  0  0  0
 33 91  1  0  0  0
 34 35  2  0  0  0
 35 36  1  0  0  0
 35 37  1  0  0  0
 36 92  1  0  0  0
 36 93  1  0  0  0
 36 94  1  0  0  0
 37 38  1  0  0  0
 37 95  1  0  0  0
 38 39  1  0  0  0
 38 96  1  0  0  0
 38 97  1  0  0  0
 39 40  1  0  0  0
 39 98  1  0  0  0
 39 99  1  0  0  0
 40 41  1  0  0  0
 40100  1  0  0  0
 40101  1  0  0  0
 41 42  1  0  0  0
 41102  1  0  0  0
 41103  1  0  0  0
 42 43  1  0  0  0
 42 44  1  0  0  0
 42104  1  0  0  0
 43105  1  0  0  0
 44 45  2  0  0  0
 44 46  1  0  0  0
 46 47  1  0  0  0
 46106  1  0  0  0
 47 48  2  0  0  0
 47 55  1  0  0  0
 48 49  1  0  0  0
 48107  1  0  0  0
 49 53  2  0  0  0
 49 57  1  0  0  0
 50 51  1  0  0  0
 50 57  1  0  0  0
 50 58  2  0  0  0
 51 52  2  0  0  0
 51108  1  0  0  0
 52 53  1  0  0  0
 52 56  1  0  0  0
 53 54  1  0  0  0
 54 55  2  0  0  0
 54109  1  0  0  0
 55110  1  0  0  0
 56111  1  0  0  0
 56112  1  0  0  0
 56113  1  0  0  0
M  CHG  2  13   1  33   1
M  END
> <s_m_source_file>
../4fz3_ligand.sdf

> <i_m_source_file_index>
1

> <s_epik_input>
W0hdL049QyhbTkgyXSlcW05IXVtDSDJdW0NIMl1bQ0gyXVtDQEhdKFtOSF1DKD1PKVtDSDNdKUMoPU8pW05IXVtDQEBIXShbQ0gyXUMxPU5bQ0gyXU49W0NIXTEpQyg9TylbTkhdW0NAQEhdKFtDSDJdW0NIMl1bQ0gyXVtDSDJdW05IMytdKUMoPU8pW05IXVtDQEBIXShbQ0gyXVtDSDJdW0NIMl1bQ0gyXVtOSF1DKD1PKVtDSDNdKUMoPU8pW05IXWMoW2NIXTIpW2NIXVtjSF1jKGMyMyljKFtDSDNdKVtjSF1jKG8zKT1P

> <s_epik_cmdline>
J2VwaWtfYXBwJywgJy1pbWFlJywgJ2xpZ2FuZF9wcm8ubWFlJywgJy1vbWFlJywgJ2xpZ2FuZF9wcmVwLm1hZScsICctbXMnLCAnMScsICctcGgnLCAnNycsICctcGh0JywgJzAuNScsICctbnQn

> <r_lp_tautomer_probability>
1

> <r_epik_Ionization_Penalty>
  0.0005

> <r_epik_Ionization_Penalty_Charging>
  0.0005

> <r_epik_Ionization_Penalty_Neutral>
  0.0000

> <r_epik_State_Penalty>
 -0.0000

> <r_epik_Charging_Adjusted_Penalty>
0.00046429025392057

> <i_epik_Tot_Q>
2

> <i_epik_Tot_abs_Q>
2

> <s_epik_Chemistry_Notes>
This compound has an imine and may undergo hydrolysis.

$$$$
