4fz6_ligand
                    3D
 Schrodinger Suite 2020-3.
 50 54  0  0  1  0            999 V2000
    3.7540   -0.6480   15.3380 C   0  0  0  0  0  0
    4.6620    0.2190   14.7740 N   0  0  0  0  0  0
    2.4300   -0.7110   14.8520 C   0  0  0  0  0  0
    4.2770    1.0560   13.7370 N   0  0  0  0  0  0
    2.0830    0.1350   13.8210 C   0  0  0  0  0  0
    3.0430    1.0310   13.2760 C   0  0  0  0  0  0
   -0.4690   -1.2080   14.3360 N   0  0  0  0  0  0
   -1.7500   -1.4580   14.0720 C   0  0  0  0  0  0
   -2.4270   -0.6880   13.1160 N   0  0  0  0  0  0
    4.3660   -1.3020   16.3080 N   0  0  0  0  0  0
    1.5730   -1.6270   15.4910 N   0  0  0  0  0  0
    0.2330   -1.9030   15.2240 C   0  0  0  0  0  0
    5.8380    0.0780   15.4390 C   0  0  0  0  0  0
    5.6260   -0.8680   16.3840 C   0  0  0  0  0  0
    2.7290    1.9970   12.1840 C   0  0  0  0  0  0
   -1.7790    0.4830   12.4640 C   0  0  2  0  0  0
   -3.9110   -0.5490   13.0740 C   0  0  0  0  0  0
   -2.4130   -2.4890   14.7470 C   0  0  0  0  0  0
   -0.3770   -2.9450   15.9280 C   0  0  0  0  0  0
   -1.7160   -3.2430   15.6870 C   0  0  0  0  0  0
   -4.1780    0.4900   11.9680 C   0  0  0  0  0  0
   -2.9360    1.4040   12.0080 C   0  0  0  0  0  0
    3.7140    2.3520   11.2440 C   0  0  0  0  0  0
    1.4720    2.6090   12.1320 C   0  0  0  0  0  0
   -0.9450    0.0220   11.2610 C   0  0  0  0  0  0
    3.4310    3.2760   10.2490 C   0  0  0  0  0  0
    1.1960    3.5280   11.1290 C   0  0  0  0  0  0
    2.1710    3.8590   10.1960 C   0  0  0  0  0  0
    1.0689    0.1172   13.4219 H   0  0  0  0  0  0
    1.9470   -2.2417   16.3230 H   0  0  0  0  0  0
    6.7658    0.6179   15.2498 H   0  0  0  0  0  0
    6.3703   -1.2212   17.0977 H   0  0  0  0  0  0
   -1.0983    0.9814   13.1699 H   0  0  0  0  0  0
   -4.3639   -1.5229   12.8364 H   0  0  0  0  0  0
   -4.2749   -0.2046   14.0533 H   0  0  0  0  0  0
   -3.4622   -2.6991   14.5393 H   0  0  0  0  0  0
    0.1906   -3.5198   16.6598 H   0  0  0  0  0  0
   -2.2095   -4.0524   16.2250 H   0  0  0  0  0  0
   -4.2843   -0.0231   11.0008 H   0  0  0  0  0  0
   -5.1040    1.0384   12.1958 H   0  0  0  0  0  0
   -3.0578    2.2247   12.7303 H   0  0  0  0  0  0
   -2.7046    1.8198   11.0162 H   0  0  0  0  0  0
    4.7039    1.8989   11.2980 H   0  0  0  0  0  0
    0.7131    2.3653   12.8755 H   0  0  0  0  0  0
   -0.1300   -0.6302   11.6082 H   0  0  0  0  0  0
   -0.5206    0.8995   10.7512 H   0  0  0  0  0  0
   -1.5866   -0.5337   10.5614 H   0  0  0  0  0  0
    4.1910    3.5426    9.5146 H   0  0  0  0  0  0
    0.2111    3.9916   11.0731 H   0  0  0  0  0  0
    1.9449    4.5839    9.4140 H   0  0  0  0  0  0
  1  2  1  0  0  0
  1  3  1  0  0  0
  1 10  2  0  0  0
  2  4  1  0  0  0
  2 13  1  0  0  0
  3  5  2  0  0  0
  3 11  1  0  0  0
  4  6  2  0  0  0
  5  6  1  0  0  0
  5 29  1  0  0  0
  6 15  1  0  0  0
  7  8  2  0  0  0
  7 12  1  0  0  0
  8  9  1  0  0  0
  8 18  1  0  0  0
  9 16  1  0  0  0
  9 17  1  0  0  0
 10 14  1  0  0  0
 11 12  1  0  0  0
 11 30  1  0  0  0
 12 19  2  0  0  0
 13 14  2  0  0  0
 13 31  1  0  0  0
 14 32  1  0  0  0
 15 23  2  0  0  0
 15 24  1  0  0  0
 16 22  1  0  0  0
 16 25  1  0  0  0
 16 33  1  0  0  0
 17 21  1  0  0  0
 17 34  1  0  0  0
 17 35  1  0  0  0
 18 20  2  0  0  0
 18 36  1  0  0  0
 19 20  1  0  0  0
 19 37  1  0  0  0
 20 38  1  0  0  0
 21 22  1  0  0  0
 21 39  1  0  0  0
 21 40  1  0  0  0
 22 41  1  0  0  0
 22 42  1  0  0  0
 23 26  1  0  0  0
 23 43  1  0  0  0
 24 27  2  0  0  0
 24 44  1  0  0  0
 25 45  1  0  0  0
 25 46  1  0  0  0
 25 47  1  0  0  0
 26 28  2  0  0  0
 26 48  1  0  0  0
 27 28  1  0  0  0
 27 49  1  0  0  0
 28 50  1  0  0  0
M  END
> <s_m_source_file>
../4fz6_ligand.sdf

> <i_m_source_file_index>
1

> <s_epik_input>
W2NIXTFbY0hdW2NIXVtjSF1bY0hdYzEtYyhubihjMjMpW2NIXVtjSF1uMylbY0hdYzJbTkhdYyhbY0hdW2NIXVtjSF00KW5jNE41W0NAQEhdKFtDSDNdKVtDSDJdW0NIMl1bQ0gyXTU=

> <s_epik_cmdline>
J2VwaWtfYXBwJywgJy1pbWFlJywgJ2xpZ2FuZF9wcm8ubWFlJywgJy1vbWFlJywgJ2xpZ2FuZF9wcmVwLm1hZScsICctbXMnLCAnMScsICctcGgnLCAnNycsICctcGh0JywgJzAuNScsICctbnQn

> <r_lp_tautomer_probability>
0.999999772200052

> <r_epik_Ionization_Penalty>
  0.0694

> <r_epik_Ionization_Penalty_Charging>
  0.0000

> <r_epik_Ionization_Penalty_Neutral>
  0.0694

> <r_epik_State_Penalty>
  0.0588

> <r_epik_Charging_Adjusted_Penalty>
0.0587967664527441

> <i_epik_Tot_Q>
0

> <i_epik_Tot_abs_Q>
0

$$$$
