4fzc_ligand
                    3D
 Schrodinger Suite 2020-3.
 86 86  0  0  1  0            999 V2000
   58.9450 -134.3180   36.6260 O   0  0  0  0  0  0
   59.1590 -134.3730   35.4160 C   0  0  0  0  0  0
   57.9880 -134.1370   34.5320 C   0  0  0  0  0  0
   56.7430 -133.8450   34.9890 C   0  0  0  0  0  0
   55.5940 -133.6910   34.0820 C   0  0  0  0  0  0
   54.3270 -133.3790   34.4180 C   0  0  0  0  0  0
   53.3120 -133.3810   33.3080 C   0  0  0  0  0  0
   51.9910 -132.6150   33.4800 C   0  0  0  0  0  0
   51.2240 -132.9500   32.1690 C   0  0  0  0  0  0
   49.8010 -132.3660   31.9770 C   0  0  0  0  0  0
   49.3080 -132.9350   30.6010 C   0  0  0  0  0  0
   47.8800 -132.5350   30.1100 C   0  0  0  0  0  0
   47.7130 -130.9910   29.9410 C   0  0  0  0  0  0
   47.6000 -133.2350   28.7380 C   0  0  0  0  0  0
   60.4160 -134.6490   34.8590 N   0  0  0  0  0  0
   61.7040 -134.9280   35.6130 C   0  0  2  0  0  0
   61.5020 -134.9370   37.1480 C   0  0  0  0  0  0
   61.3660 -133.8760   37.7550 O   0  0  0  0  0  0
   62.8940 -133.9720   35.2560 C   0  0  2  0  0  0
   62.5850 -132.6680   35.7220 O   0  0  0  0  0  0
   63.1630 -133.9040   33.7370 C   0  0  0  0  0  0
   61.4590 -136.1500   37.7530 N   0  0  0  0  0  0
   61.2470 -136.3030   39.1920 C   0  0  2  0  0  0
   62.5320 -136.1300   39.9880 C   0  0  0  0  0  0
   63.6170 -136.2480   39.4130 O   0  0  0  0  0  0
   60.6840 -137.7290   39.5030 C   0  0  0  0  0  0
   59.4490 -137.7320   40.4470 C   0  0  1  0  0  0
   58.4130 -136.9920   39.7860 O   0  0  0  0  0  0
   58.9710 -139.1770   40.7640 C   0  0  0  0  0  0
   59.7150 -139.8280   41.9880 C   0  0  0  0  0  0
   61.1040 -139.3760   42.1290 N   0  0  0  0  0  0
   62.3860 -135.8740   41.3210 N   0  0  0  0  0  0
   63.5210 -135.7150   42.2260 C   0  0  1  0  0  0
   63.6000 -134.2320   42.6710 C   0  0  0  0  0  0
   63.3380 -136.6600   43.4550 C   0  0  0  0  0  0
   63.0040 -138.1400   43.0820 C   0  0  0  0  0  0
   61.5380 -138.5130   43.1190 C   0  0  0  0  0  0
   60.8080 -138.0270   44.0040 O   0  0  0  0  0  0
   58.1736 -134.2104   33.4503 H   0  0  0  0  0  0
   56.5692 -133.7160   36.0675 H   0  0  0  0  0  0
   55.8575 -133.8607   33.0276 H   0  0  0  0  0  0
   54.0781 -133.1390   35.4623 H   0  0  0  0  0  0
   53.7585 -132.9450   32.4021 H   0  0  0  0  0  0
   52.9973 -134.4144   33.1007 H   0  0  0  0  0  0
   51.4717 -132.9771   34.3795 H   0  0  0  0  0  0
   52.2013 -131.5405   33.5856 H   0  0  0  0  0  0
   51.7976 -132.5837   31.3048 H   0  0  0  0  0  0
   51.0945 -134.0394   32.0881 H   0  0  0  0  0  0
   49.1555 -132.6933   32.8054 H   0  0  0  0  0  0
   49.8540 -131.2673   31.9655 H   0  0  0  0  0  0
   49.9877 -132.6031   29.8023 H   0  0  0  0  0  0
   49.2984 -134.0342   30.6410 H   0  0  0  0  0  0
   47.1625 -132.8597   30.8780 H   0  0  0  0  0  0
   47.9087 -130.4936   30.9024 H   0  0  0  0  0  0
   46.6868 -130.7668   29.6143 H   0  0  0  0  0  0
   48.4259 -130.6254   29.1873 H   0  0  0  0  0  0
   47.7162 -134.3230   28.8510 H   0  0  0  0  0  0
   48.3131 -132.8662   27.9860 H   0  0  0  0  0  0
   46.5740 -133.0076   28.4130 H   0  0  0  0  0  0
   60.4111 -134.6511   33.7590 H   0  0  0  0  0  0
   61.9518 -135.9409   35.2627 H   0  0  0  0  0  0
   63.8124 -134.2826   35.7757 H   0  0  0  0  0  0
   62.3602 -132.5031   36.7861 H   0  0  0  0  0  0
   63.4042 -134.9096   33.3620 H   0  0  0  0  0  0
   64.0092 -133.2281   33.5444 H   0  0  0  0  0  0
   62.2672 -133.5259   33.2226 H   0  0  0  0  0  0
   61.5908 -137.0391   37.1189 H   0  0  0  0  0  0
   60.5532 -135.4858   39.4386 H   0  0  0  0  0  0
   60.3756 -138.2140   38.5651 H   0  0  0  0  0  0
   61.4642 -138.3333   39.9889 H   0  0  0  0  0  0
   59.6545 -137.2148   41.3958 H   0  0  0  0  0  0
   58.5868 -135.9470   39.4898 H   0  0  0  0  0  0
   57.8966 -139.1644   40.9997 H   0  0  0  0  0  0
   59.1471 -139.8215   39.8901 H   0  0  0  0  0  0
   59.1864 -139.5703   42.9176 H   0  0  0  0  0  0
   59.7326 -140.9212   41.8672 H   0  0  0  0  0  0
   61.8706 -139.7255   41.4218 H   0  0  0  0  0  0
   61.3592 -135.7882   41.7062 H   0  0  0  0  0  0
   64.4256 -135.9917   41.6646 H   0  0  0  0  0  0
   63.7286 -133.5903   41.7869 H   0  0  0  0  0  0
   64.4556 -134.0978   43.3491 H   0  0  0  0  0  0
   62.6718 -133.9558   43.1927 H   0  0  0  0  0  0
   64.2661 -136.6779   44.0451 H   0  0  0  0  0  0
   62.5123 -136.2913   44.0813 H   0  0  0  0  0  0
   63.3482 -138.3466   42.0579 H   0  0  0  0  0  0
   63.5118 -138.8185   43.7833 H   0  0  0  0  0  0
  1  2  2  0  0  0
  2  3  1  0  0  0
  2 15  1  0  0  0
  3  4  2  0  0  0
  3 39  1  0  0  0
  4  5  1  0  0  0
  4 40  1  0  0  0
  5  6  2  0  0  0
  5 41  1  0  0  0
  6  7  1  0  0  0
  6 42  1  0  0  0
  7  8  1  0  0  0
  7 43  1  0  0  0
  7 44  1  0  0  0
  8  9  1  0  0  0
  8 45  1  0  0  0
  8 46  1  0  0  0
  9 10  1  0  0  0
  9 47  1  0  0  0
  9 48  1  0  0  0
 10 11  1  0  0  0
 10 49  1  0  0  0
 10 50  1  0  0  0
 11 12  1  0  0  0
 11 51  1  0  0  0
 11 52  1  0  0  0
 12 13  1  0  0  0
 12 14  1  0  0  0
 12 53  1  0  0  0
 13 54  1  0  0  0
 13 55  1  0  0  0
 13 56  1  0  0  0
 14 57  1  0  0  0
 14 58  1  0  0  0
 14 59  1  0  0  0
 15 16  1  0  0  0
 15 60  1  0  0  0
 16 17  1  0  0  0
 16 19  1  0  0  0
 16 61  1  0  0  0
 17 18  2  0  0  0
 17 22  1  0  0  0
 19 20  1  0  0  0
 19 21  1  0  0  0
 19 62  1  0  0  0
 20 63  1  0  0  0
 21 64  1  0  0  0
 21 65  1  0  0  0
 21 66  1  0  0  0
 22 23  1  0  0  0
 22 67  1  0  0  0
 23 24  1  0  0  0
 23 26  1  0  0  0
 23 68  1  0  0  0
 24 25  2  0  0  0
 24 32  1  0  0  0
 26 27  1  0  0  0
 26 69  1  0  0  0
 26 70  1  0  0  0
 27 28  1  0  0  0
 27 29  1  0  0  0
 27 71  1  0  0  0
 28 72  1  0  0  0
 29 30  1  0  0  0
 29 73  1  0  0  0
 29 74  1  0  0  0
 30 31  1  0  0  0
 30 75  1  0  0  0
 30 76  1  0  0  0
 31 37  1  0  0  0
 31 77  1  0  0  0
 32 33  1  0  0  0
 32 78  1  0  0  0
 33 34  1  0  0  0
 33 35  1  0  0  0
 33 79  1  0  0  0
 34 80  1  0  0  0
 34 81  1  0  0  0
 34 82  1  0  0  0
 35 36  1  0  0  0
 35 83  1  0  0  0
 35 84  1  0  0  0
 36 37  1  0  0  0
 36 85  1  0  0  0
 36 86  1  0  0  0
 37 38  2  0  0  0
M  END
> <s_m_source_file>
../4fzc_ligand.sdf

> <i_m_source_file_index>
1

> <s_epik_input>
W0NIM11bQ0hdKFtDSDNdKVtDSDJdW0NIMl1bQ0gyXVtDSDJdW0NIMl1cW0NIXT1bQ0hdXFtDSF09W0NIXVxDKD1PKVtOSF1bQ0BASF0oW0NASF0oW09IXSlbQ0gzXSlDKD1PKVtOSF1bQ0BASF0xQyg9TylbTkhdW0NAQEhdKFtDSDNdKVtDSDJdW0NIMl1DKD1PKVtOSF1bQ0gyXVtDSDJdW0NAQEhdKFtDSDJdMSlbT0hd

> <s_epik_cmdline>
J2VwaWtfYXBwJywgJy1pbWFlJywgJ2xpZ2FuZF9wcm8ubWFlJywgJy1vbWFlJywgJ2xpZ2FuZF9wcmVwLm1hZScsICctbXMnLCAnMScsICctcGgnLCAnNycsICctcGh0JywgJzAuNScsICctbnQn

> <r_lp_tautomer_probability>
1

> <r_epik_Ionization_Penalty>
  0.0000

> <r_epik_Ionization_Penalty_Charging>
  0.0000

> <r_epik_Ionization_Penalty_Neutral>
  0.0000

> <r_epik_State_Penalty>
 -0.0000

> <r_epik_Charging_Adjusted_Penalty>
0

> <i_epik_Tot_Q>
0

> <i_epik_Tot_abs_Q>
0

$$$$
