4fzg_ligand
                    3D
 Schrodinger Suite 2020-3.
 83 83  0  0  1  0            999 V2000
   58.7260 -134.5790   35.3740 C   0  0  0  0  0  0
   58.3840 -135.3340   36.2910 O   0  0  0  0  0  0
   57.6460 -133.9070   34.6030 C   0  0  0  0  0  0
   56.3220 -134.0450   34.8340 C   0  0  0  0  0  0
   55.3170 -133.3650   33.9950 C   0  0  0  0  0  0
   53.9800 -133.4270   34.1480 C   0  0  0  0  0  0
   53.0960 -132.6930   33.1600 C   0  0  0  0  0  0
   51.6120 -133.1300   33.1930 C   0  0  0  0  0  0
   50.8250 -132.3580   32.0920 C   0  0  0  0  0  0
   49.3150 -132.7310   32.0290 C   0  0  0  0  0  0
   48.6320 -131.9540   30.8580 C   0  0  0  0  0  0
   47.1110 -132.2630   30.6700 C   0  0  0  0  0  0
   46.5460 -131.4590   29.4540 C   0  0  0  0  0  0
   60.0590 -134.3290   35.0350 N   0  0  0  0  0  0
   61.2470 -134.9280   35.7180 C   0  0  2  0  0  0
   61.0560 -134.9680   37.2510 C   0  0  0  0  0  0
   60.6980 -133.9480   37.8510 O   0  0  0  0  0  0
   62.5910 -134.1980   35.3940 C   0  0  2  0  0  0
   62.5310 -132.8930   35.9550 O   0  0  0  0  0  0
   62.8420 -134.0920   33.8740 C   0  0  0  0  0  0
   61.2710 -136.1600   37.8550 N   0  0  0  0  0  0
   61.0990 -136.3570   39.2880 C   0  0  2  0  0  0
   62.3890 -136.2010   40.0600 C   0  0  0  0  0  0
   63.4700 -136.3180   39.4690 O   0  0  0  0  0  0
   60.5710 -137.7960   39.5830 C   0  0  0  0  0  0
   59.3270 -137.8440   40.5050 C   0  0  1  0  0  0
   58.2860 -137.1230   39.8270 O   0  0  0  0  0  0
   58.8880 -139.3060   40.8090 C   0  0  0  0  0  0
   59.5910 -139.9340   42.0660 C   0  0  0  0  0  0
   60.9640 -139.4570   42.2490 N   0  0  0  0  0  0
   62.2500 -135.9630   41.3960 N   0  0  0  0  0  0
   63.3810 -135.8220   42.2960 C   0  0  1  0  0  0
   63.5420 -134.3330   42.6560 C   0  0  0  0  0  0
   63.1480 -136.7070   43.5720 C   0  0  0  0  0  0
   62.8220 -138.1980   43.2470 C   0  0  0  0  0  0
   61.3580 -138.5890   43.2480 C   0  0  0  0  0  0
   60.5990 -138.1210   44.1080 O   0  0  0  0  0  0
   57.9974 -133.2553   33.7895 H   0  0  0  0  0  0
   55.9713 -134.6762   35.6638 H   0  0  0  0  0  0
   55.7503 -132.7636   33.1822 H   0  0  0  0  0  0
   53.5477 -134.0033   34.9792 H   0  0  0  0  0  0
   53.1205 -131.6148   33.3767 H   0  0  0  0  0  0
   53.4626 -132.8700   32.1381 H   0  0  0  0  0  0
   51.5441 -134.2117   33.0050 H   0  0  0  0  0  0
   51.1844 -132.9019   34.1805 H   0  0  0  0  0  0
   50.8888 -131.2770   32.2855 H   0  0  0  0  0  0
   51.2599 -132.5803   31.1064 H   0  0  0  0  0  0
   49.2114 -133.8129   31.8595 H   0  0  0  0  0  0
   48.8306 -132.4606   32.9789 H   0  0  0  0  0  0
   48.7173 -130.8720   31.0369 H   0  0  0  0  0  0
   49.1282 -132.2091   29.9100 H   0  0  0  0  0  0
   46.9755 -133.3390   30.4858 H   0  0  0  0  0  0
   46.5632 -131.9748   31.5793 H   0  0  0  0  0  0
   45.4762 -131.6838   29.3310 H   0  0  0  0  0  0
   47.0883 -131.7459   28.5410 H   0  0  0  0  0  0
   46.6760 -130.3817   29.6345 H   0  0  0  0  0  0
   60.2005 -133.6323   34.1956 H   0  0  0  0  0  0
   61.2746 -135.9461   35.3025 H   0  0  0  0  0  0
   63.4468 -134.7035   35.8653 H   0  0  0  0  0  0
   62.3578 -132.7655   37.0338 H   0  0  0  0  0  0
   62.8886 -135.1012   33.4388 H   0  0  0  0  0  0
   63.7942 -133.5712   33.6951 H   0  0  0  0  0  0
   62.0219 -133.5281   33.4054 H   0  0  0  0  0  0
   61.5877 -136.9994   37.2185 H   0  0  0  0  0  0
   60.4041 -135.5490   39.5603 H   0  0  0  0  0  0
   60.2894 -138.2841   38.6383 H   0  0  0  0  0  0
   61.3599 -138.3818   40.0775 H   0  0  0  0  0  0
   59.5014 -137.3319   41.4628 H   0  0  0  0  0  0
   58.4411 -136.0722   39.5411 H   0  0  0  0  0  0
   57.8042 -139.3321   40.9954 H   0  0  0  0  0  0
   59.1275 -139.9473   39.9480 H   0  0  0  0  0  0
   59.0228 -139.6748   42.9715 H   0  0  0  0  0  0
   59.6281 -141.0280   41.9570 H   0  0  0  0  0  0
   61.7581 -139.7912   41.5651 H   0  0  0  0  0  0
   61.2243 -135.8783   41.7842 H   0  0  0  0  0  0
   64.2725 -136.1651   41.7506 H   0  0  0  0  0  0
   63.7028 -133.7491   41.7377 H   0  0  0  0  0  0
   64.4060 -134.2090   43.3254 H   0  0  0  0  0  0
   62.6322 -133.9777   43.1619 H   0  0  0  0  0  0
   64.0542 -136.6973   44.1954 H   0  0  0  0  0  0
   62.3022 -136.3040   44.1483 H   0  0  0  0  0  0
   63.1969 -138.4448   42.2427 H   0  0  0  0  0  0
   63.3062 -138.8495   43.9894 H   0  0  0  0  0  0
  1  2  2  0  0  0
  1  3  1  0  0  0
  1 14  1  0  0  0
  3  4  2  0  0  0
  3 38  1  0  0  0
  4  5  1  0  0  0
  4 39  1  0  0  0
  5  6  2  0  0  0
  5 40  1  0  0  0
  6  7  1  0  0  0
  6 41  1  0  0  0
  7  8  1  0  0  0
  7 42  1  0  0  0
  7 43  1  0  0  0
  8  9  1  0  0  0
  8 44  1  0  0  0
  8 45  1  0  0  0
  9 10  1  0  0  0
  9 46  1  0  0  0
  9 47  1  0  0  0
 10 11  1  0  0  0
 10 48  1  0  0  0
 10 49  1  0  0  0
 11 12  1  0  0  0
 11 50  1  0  0  0
 11 51  1  0  0  0
 12 13  1  0  0  0
 12 52  1  0  0  0
 12 53  1  0  0  0
 13 54  1  0  0  0
 13 55  1  0  0  0
 13 56  1  0  0  0
 14 15  1  0  0  0
 14 57  1  0  0  0
 15 16  1  0  0  0
 15 18  1  0  0  0
 15 58  1  0  0  0
 16 17  2  0  0  0
 16 21  1  0  0  0
 18 19  1  0  0  0
 18 20  1  0  0  0
 18 59  1  0  0  0
 19 60  1  0  0  0
 20 61  1  0  0  0
 20 62  1  0  0  0
 20 63  1  0  0  0
 21 22  1  0  0  0
 21 64  1  0  0  0
 22 23  1  0  0  0
 22 25  1  0  0  0
 22 65  1  0  0  0
 23 24  2  0  0  0
 23 31  1  0  0  0
 25 26  1  0  0  0
 25 66  1  0  0  0
 25 67  1  0  0  0
 26 27  1  0  0  0
 26 28  1  0  0  0
 26 68  1  0  0  0
 27 69  1  0  0  0
 28 29  1  0  0  0
 28 70  1  0  0  0
 28 71  1  0  0  0
 29 30  1  0  0  0
 29 72  1  0  0  0
 29 73  1  0  0  0
 30 36  1  0  0  0
 30 74  1  0  0  0
 31 32  1  0  0  0
 31 75  1  0  0  0
 32 33  1  0  0  0
 32 34  1  0  0  0
 32 76  1  0  0  0
 33 77  1  0  0  0
 33 78  1  0  0  0
 33 79  1  0  0  0
 34 35  1  0  0  0
 34 80  1  0  0  0
 34 81  1  0  0  0
 35 36  1  0  0  0
 35 82  1  0  0  0
 35 83  1  0  0  0
 36 37  2  0  0  0
M  END
> <s_m_source_file>
../4fzg_ligand.sdf

> <i_m_source_file_index>
1

> <s_epik_input>
W0NIM11bQ0gyXVtDSDJdW0NIMl1bQ0gyXVtDSDJdW0NIMl1cW0NIXT1bQ0hdXFtDSF09W0NIXVxDKD1PKVtOSF1bQ0BASF0oW0NASF0oW09IXSlbQ0gzXSlDKD1PKVtOSF1bQ0BASF0xQyg9TylbTkhdW0NAQEhdKFtDSDNdKVtDSDJdW0NIMl1DKD1PKVtOSF1bQ0gyXVtDSDJdW0NAQEhdKFtDSDJdMSlbT0hd

> <s_epik_cmdline>
J2VwaWtfYXBwJywgJy1pbWFlJywgJ2xpZ2FuZF9wcm8ubWFlJywgJy1vbWFlJywgJ2xpZ2FuZF9wcmVwLm1hZScsICctbXMnLCAnMScsICctcGgnLCAnNycsICctcGh0JywgJzAuNScsICctbnQn

> <r_lp_tautomer_probability>
1

> <r_epik_Ionization_Penalty>
  0.0000

> <r_epik_Ionization_Penalty_Charging>
  0.0000

> <r_epik_Ionization_Penalty_Neutral>
  0.0000

> <r_epik_State_Penalty>
 -0.0000

> <r_epik_Charging_Adjusted_Penalty>
0

> <i_epik_Tot_Q>
0

> <i_epik_Tot_abs_Q>
0

$$$$
