4g0a_ligand
                    3D
 Schrodinger Suite 2020-3.
 72 77  0  0  1  0            999 V2000
  -13.6080   17.5520    5.1350 P   0  0  0  0  0  0
  -14.1300   16.8680    6.3450 O   0  0  0  0  0  0
  -12.8430   16.7750    4.1250 O   0  0  0  0  0  0
  -14.7550   18.4110    4.4350 O   0  0  0  0  0  0
  -15.3620   19.5050    5.1090 C   0  0  0  0  0  0
  -16.2990   20.2620    4.2010 C   0  0  1  0  0  0
  -15.5570   20.8180    3.0880 O   0  0  0  0  0  0
  -17.4000   19.4380    3.5490 C   0  0  1  0  0  0
  -18.5210   19.2560    4.3970 O   0  0  0  0  0  0
  -17.7170   20.2280    2.2840 C   0  0  1  0  0  0
  -18.5820   21.3160    2.5750 O   0  0  0  0  0  0
  -16.3410   20.7870    1.9160 C   0  0  2  0  0  0
  -15.6500   19.9550    0.9120 N   0  0  0  0  0  0
  -15.0570   18.7310    1.1050 C   0  0  0  0  0  0
  -14.5200   18.2450    0.0200 N   0  0  0  0  0  0
  -14.7700   19.2060   -0.9500 C   0  0  0  0  0  0
  -14.4290   19.2360   -2.3270 C   0  0  0  0  0  0
  -13.8130   18.3880   -2.9850 O   0  0  0  0  0  0
  -14.8790   20.4030   -2.9380 N   0  0  0  0  0  0
  -15.5690   21.4120   -2.3080 C   0  0  0  0  0  0
  -15.9210   22.4640   -3.0630 N   0  0  0  0  0  0
  -15.8920   21.3930   -1.0270 N   0  0  0  0  0  0
  -15.4640   20.2690   -0.4140 C   0  0  0  0  0  0
  -19.2300   17.8190    4.5110 P   0  0  2  0  0  0
  -19.5240   17.5890    5.9470 O   0  5  0  0  0  0
  -18.3670   16.8470    3.7960 O   0  0  0  0  0  0
  -20.5890   18.0300    3.7090 O   0  0  0  0  0  0
  -20.6020   18.0780    2.2890 C   0  0  0  0  0  0
  -22.0040   18.2380    1.7580 C   0  0  1  0  0  0
  -22.8480   17.1860    2.2920 O   0  0  0  0  0  0
  -22.7160   19.5260    2.1450 C   0  0  1  0  0  0
  -22.3800   20.6150    1.3020 O   0  0  0  0  0  0
  -24.1860   19.1350    2.0820 C   0  0  1  0  0  0
  -24.6490   19.1380    0.7390 O   0  0  0  0  0  0
  -24.1360   17.6890    2.5720 C   0  0  2  0  0  0
  -24.3680   17.5870    4.0260 N   0  0  0  0  0  0
  -23.7470   18.3030    5.0210 C   0  0  0  0  0  0
  -24.1610   17.9840    6.2170 N   0  0  0  0  0  0
  -25.1120   16.9960    5.9990 C   0  0  0  0  0  0
  -25.9070   16.2650    6.9200 C   0  0  0  0  0  0
  -25.9310   16.3480    8.1540 O   0  0  0  0  0  0
  -26.7380   15.3600    6.2690 N   0  3  0  0  0  0
  -26.8000   15.1780    4.9100 C   0  0  0  0  0  0
  -27.6690   14.2540    4.4760 N   0  0  0  0  0  0
  -26.0650   15.8530    4.0410 N   0  0  0  0  0  0
  -25.2500   16.7380    4.6520 C   0  0  0  0  0  0
  -22.8630   22.1030    1.6690 P   0  0  0  0  0  0
  -24.2160   22.2960    1.1020 O   0  0  0  0  0  0
  -21.7730   23.0380    1.3100 O   0  0  0  0  0  0
  -12.0128   16.1272    4.4429 H   0  0  0  0  0  0
  -15.9366   19.1322    5.9697 H   0  0  0  0  0  0
  -14.5827   20.1972    5.4605 H   0  0  0  0  0  0
  -16.7358   21.0365    4.8486 H   0  0  0  0  0  0
  -17.1512   18.3807    3.3755 H   0  0  0  0  0  0
  -18.2583   19.6678    1.5074 H   0  0  0  0  0  0
  -19.6263   21.1263    2.8640 H   0  0  0  0  0  0
  -16.4153   21.8080    1.5136 H   0  0  0  0  0  0
  -15.0372   18.2182    2.0666 H   0  0  0  0  0  0
  -15.6562   22.4881   -4.1304 H   0  0  0  0  0  0
  -19.9987   18.9312    1.9454 H   0  0  0  0  0  0
  -20.1803   17.1451    1.8867 H   0  0  0  0  0  0
  -21.8881   18.1808    0.6656 H   0  0  0  0  0  0
  -22.4029   19.9638    3.1043 H   0  0  0  0  0  0
  -24.8750   19.8207    2.5969 H   0  0  0  0  0  0
  -24.7577   20.0889    0.1968 H   0  0  0  0  0  0
  -24.8843   17.0635    2.0632 H   0  0  0  0  0  0
  -22.9863   19.0601    4.8308 H   0  0  0  0  0  0
  -28.2805   13.6923    5.1975 H   0  0  0  0  0  0
  -20.7663   22.8966    1.7303 H   0  0  0  0  0  0
  -27.7705   14.0576    3.3984 H   0  0  0  0  0  0
  -27.4161   14.7188    6.8513 H   0  0  0  0  0  0
  -16.4744   23.3023   -2.6145 H   0  0  0  0  0  0
  1  2  2  0  0  0
  1  3  1  0  0  0
  1  4  1  0  0  0
  3 50  1  0  0  0
  4  5  1  0  0  0
  5  6  1  0  0  0
  5 51  1  0  0  0
  5 52  1  0  0  0
  6  7  1  0  0  0
  6  8  1  0  0  0
  6 53  1  0  0  0
  7 12  1  0  0  0
  8  9  1  0  0  0
  8 10  1  0  0  0
  8 54  1  0  0  0
  9 24  1  0  0  0
 10 11  1  0  0  0
 10 12  1  0  0  0
 10 55  1  0  0  0
 11 56  1  0  0  0
 12 13  1  0  0  0
 12 57  1  0  0  0
 13 14  1  0  0  0
 13 23  1  0  0  0
 14 15  2  0  0  0
 14 58  1  0  0  0
 15 16  1  0  0  0
 16 17  1  0  0  0
 16 23  2  0  0  0
 17 18  2  0  0  0
 17 19  1  0  0  0
 19 20  1  0  0  0
 20 21  1  0  0  0
 20 22  2  0  0  0
 21 59  1  0  0  0
 21 72  1  0  0  0
 22 23  1  0  0  0
 24 25  1  0  0  0
 24 26  2  0  0  0
 24 27  1  0  0  0
 27 28  1  0  0  0
 28 29  1  0  0  0
 28 60  1  0  0  0
 28 61  1  0  0  0
 29 30  1  0  0  0
 29 31  1  0  0  0
 29 62  1  0  0  0
 30 35  1  0  0  0
 31 32  1  0  0  0
 31 33  1  0  0  0
 31 63  1  0  0  0
 32 47  1  0  0  0
 33 34  1  0  0  0
 33 35  1  0  0  0
 33 64  1  0  0  0
 34 65  1  0  0  0
 35 36  1  0  0  0
 35 66  1  0  0  0
 36 37  1  0  0  0
 36 46  1  0  0  0
 37 38  2  0  0  0
 37 67  1  0  0  0
 38 39  1  0  0  0
 39 40  1  0  0  0
 39 46  2  0  0  0
 40 41  2  0  0  0
 40 42  1  0  0  0
 42 43  1  0  0  0
 42 71  1  0  0  0
 43 44  1  0  0  0
 43 45  2  0  0  0
 44 68  1  0  0  0
 44 70  1  0  0  0
 45 46  1  0  0  0
 47 48  2  0  0  0
 47 49  1  0  0  0
 49 69  1  0  0  0
M  CHG  2  25  -1  42   1
M  END
> <s_m_source_file>
../4g0a_ligand.sdf

> <i_m_source_file_index>
1

> <s_epik_input>
Tz1jMVtuSF0vYyg9TlxbSF0pW25IXWMoYzEyKW4oW2NIXW4yKVtDQEhdKE9bQ0BASF0zW0NIMl1PW1BIXSg9TylbT0hdKVtDQEhdKFtPSF0pW0NAQEhdM09bUEBAXSg9TykoW09IXSlPW0NIMl1bQ0BIXTRPW0NASF0oW0NASF0oW09IXSlbQ0BASF00T1tQSF0oPU8pW09IXSluKFtjSF1uNSljKGM1NilbbkhdYyg9TlxbSF0pXFtuSF1jNj1P

> <s_epik_cmdline>
J2VwaWtfYXBwJywgJy1pbWFlJywgJ2xpZ2FuZF9wcm8ubWFlJywgJy1vbWFlJywgJ2xpZ2FuZF9wcmVwLm1hZScsICctbXMnLCAnMScsICctcGgnLCAnNycsICctcGh0JywgJzAuNScsICctbnQn

> <r_lp_tautomer_probability>
1

> <r_epik_Ionization_Penalty>
  5.6453

> <r_epik_Ionization_Penalty_Charging>
  2.3887

> <r_epik_Ionization_Penalty_Neutral>
  3.2566

> <r_epik_State_Penalty>
 -0.0000

> <r_epik_Charging_Adjusted_Penalty>
2.38867708072602

> <i_epik_Tot_Q>
0

> <i_epik_Tot_abs_Q>
2

> <s_epik_Chemistry_Notes>
This compound has an imine and may undergo hydrolysis. This compound contains an acetal/aminal-like group ( X-CH(R)-Y where X, Y are N, S, or O) that may be acid/base labile, releasing an aldehyde.

$$$$
