4g0k_ligand
                    3D
 Schrodinger Suite 2020-3.
 57 58  0  0  1  0            999 V2000
  -63.2290   32.3510   30.3630 C   0  0  0  0  0  0
  -64.4530   32.5430   32.6820 C   0  0  0  0  0  0
  -58.4430   31.8920   28.6370 C   0  0  1  0  0  0
  -57.7580   33.5630   26.9010 C   0  0  0  0  0  0
  -59.1150   36.8250   31.2860 C   0  0  0  0  0  0
  -58.8470   39.1630   30.1710 O   0  0  0  0  0  0
  -57.8870   38.4140   29.9430 C   0  0  0  0  0  0
  -56.7550   38.8820   29.0720 C   0  0  0  0  0  0
  -55.6710   37.9880   28.8400 C   0  0  0  0  0  0
  -55.6230   36.5960   29.4390 C   0  0  0  0  0  0
  -56.7590   36.1070   30.3160 C   0  0  0  0  0  0
  -56.5820   34.4770   31.1840 S   0  0  0  0  0  0
  -57.0400   32.8710   30.3850 C   0  0  0  0  0  0
  -58.5140   32.8380   29.8340 C   0  0  2  0  0  0
  -59.5100   32.5590   30.8840 N   0  0  0  0  0  0
  -60.7730   33.2350   30.8940 C   0  0  0  0  0  0
  -62.0280   32.4840   31.3630 C   0  0  0  0  0  0
  -64.5440   32.7360   31.0880 C   0  0  1  0  0  0
  -65.2800   33.1010   33.4680 O   0  5  0  0  0  0
  -63.9460   31.4310   32.9360 O   0  0  0  0  0  0
  -64.8670   34.1290   30.7490 N   0  3  0  0  0  0
  -60.8590   34.4100   30.5170 O   0  0  0  0  0  0
  -57.7380   32.2480   27.5470 N   0  3  0  0  0  0
  -57.5120   33.3310   25.3440 C   0  0  0  0  0  0
  -58.0740   34.1330   24.5600 O   0  0  0  0  0  0
  -56.7460   32.3570   25.0390 O   0  5  0  0  0  0
  -58.2280   30.7010   28.9570 O   0  5  0  0  0  0
  -57.8240   37.0310   30.5270 C   0  0  0  0  0  0
  -54.6350   35.8870   29.1850 O   0  0  0  0  0  0
  -54.6150   38.4360   28.0250 C   0  0  0  0  0  0
  -54.6490   39.7310   27.4530 C   0  0  0  0  0  0
  -55.7130   40.6220   27.6790 C   0  0  0  0  0  0
  -56.7700   40.1870   28.4920 C   0  0  0  0  0  0
  -63.0697   33.0235   29.5072 H   0  0  0  0  0  0
  -63.2956   31.3127   30.0060 H   0  0  0  0  0  0
  -59.4191   31.7644   28.1461 H   0  0  0  0  0  0
  -58.7347   34.0399   27.0703 H   0  0  0  0  0  0
  -56.9635   34.1931   27.3273 H   0  0  0  0  0  0
  -59.7123   37.7480   31.2507 H   0  0  0  0  0  0
  -58.8888   36.5744   32.3329 H   0  0  0  0  0  0
  -59.6832   36.0027   30.8266 H   0  0  0  0  0  0
  -56.3679   32.6793   29.5356 H   0  0  0  0  0  0
  -56.9456   32.0565   31.1183 H   0  0  0  0  0  0
  -58.9538   33.7929   29.5104 H   0  0  0  0  0  0
  -59.2874   31.8245   31.6720 H   0  0  0  0  0  0
  -62.3592   33.0201   32.2646 H   0  0  0  0  0  0
  -61.6711   31.4818   31.6428 H   0  0  0  0  0  0
  -65.3626   32.1200   30.6874 H   0  0  0  0  0  0
  -64.9238   34.2366   29.6557 H   0  0  0  0  0  0
  -64.0835   34.7933   31.1426 H   0  0  0  0  0  0
  -65.8354   34.3998   31.1949 H   0  0  0  0  0  0
  -56.6632   32.1380   27.7535 H   0  0  0  0  0  0
  -58.0172   31.6010   26.7023 H   0  0  0  0  0  0
  -53.7648   37.7816   27.8326 H   0  0  0  0  0  0
  -53.8229   40.0476   26.8163 H   0  0  0  0  0  0
  -55.7163   41.6183   27.2368 H   0  0  0  0  0  0
  -57.6120   40.8522   28.6832 H   0  0  0  0  0  0
  1 17  1  0  0  0
  1 18  1  0  0  0
  1 34  1  0  0  0
  1 35  1  0  0  0
  2 18  1  0  0  0
  2 19  1  0  0  0
  2 20  2  0  0  0
  3 14  1  0  0  0
  3 23  1  0  0  0
  3 27  1  0  0  0
  3 36  1  0  0  0
  4 23  1  0  0  0
  4 24  1  0  0  0
  4 37  1  0  0  0
  4 38  1  0  0  0
  5 28  1  0  0  0
  5 39  1  0  0  0
  5 40  1  0  0  0
  5 41  1  0  0  0
  6  7  2  0  0  0
  7  8  1  0  0  0
  7 28  1  0  0  0
  8  9  2  0  0  0
  8 33  1  0  0  0
  9 10  1  0  0  0
  9 30  1  0  0  0
 10 11  1  0  0  0
 10 29  2  0  0  0
 11 12  1  0  0  0
 11 28  2  0  0  0
 12 13  1  0  0  0
 13 14  1  0  0  0
 13 42  1  0  0  0
 13 43  1  0  0  0
 14 15  1  0  0  0
 14 44  1  0  0  0
 15 16  1  0  0  0
 15 45  1  0  0  0
 16 17  1  0  0  0
 16 22  2  0  0  0
 17 46  1  0  0  0
 17 47  1  0  0  0
 18 21  1  0  0  0
 18 48  1  0  0  0
 21 49  1  0  0  0
 21 50  1  0  0  0
 21 51  1  0  0  0
 23 52  1  0  0  0
 23 53  1  0  0  0
 24 25  2  0  0  0
 24 26  1  0  0  0
 30 31  2  0  0  0
 30 54  1  0  0  0
 31 32  1  0  0  0
 31 55  1  0  0  0
 32 33  2  0  0  0
 32 56  1  0  0  0
 33 57  1  0  0  0
M  CHG  5  19  -1  21   1  23   1  26  -1  27  -1
M  END
> <s_m_source_file>
../4g0k_ligand.sdf

> <i_m_source_file_index>
1

> <s_epik_input>
W09IXUMoPU8pW0NAQEhdKFtOSDMrXSlbQ0gyXVtDSDJdQyg9TylbTkhdW0NASF0oW0NASF0oW09IXSlbTkgyK11bQ0gyXUMoPU8pW09IXSlbQ0gyXVNDKD1DKFtDSDNdKUMxPU8pQyg9TyljKGMxMilbY0hdW2NIXVtjSF1bY0hdMg==

> <s_epik_cmdline>
J2VwaWtfYXBwJywgJy1pbWFlJywgJ2xpZ2FuZF9wcm8ubWFlJywgJy1vbWFlJywgJ2xpZ2FuZF9wcmVwLm1hZScsICctbXMnLCAnMScsICctcGgnLCAnNycsICctcGh0JywgJzAuNScsICctbnQn

> <r_epik_Ionization_Penalty>
  0.1720

> <r_epik_Ionization_Penalty_Charging>
  0.1720

> <r_epik_Ionization_Penalty_Neutral>
  0.0000

> <r_epik_State_Penalty>
  0.2150

> <r_epik_Charging_Adjusted_Penalty>
0.387097910916388

> <i_epik_Tot_Q>
-1

> <i_epik_Tot_abs_Q>
5

> <s_epik_Chemistry_Notes>
This compound contains an acetal/aminal-like group ( X-CH(R)-Y where X, Y are N, S, or O) that may be acid/base labile, releasing an aldehyde.

$$$$
