4g0l_ligand
                    3D
 Schrodinger Suite 2020-3.
 36 35  0  0  1  0            999 V2000
  -65.5350   34.5080   32.4700 N   0  3  0  0  0  0
  -64.5430   33.6370   33.0700 C   0  0  2  0  0  0
  -65.0250   33.1830   34.4160 C   0  0  0  0  0  0
  -65.2190   34.0070   35.3360 O   0  5  0  0  0  0
  -65.2380   31.9700   34.6300 O   0  0  0  0  0  0
  -63.2310   34.3960   33.2310 C   0  0  0  0  0  0
  -62.0980   33.4530   33.6170 C   0  0  0  0  0  0
  -60.8610   33.7990   32.8220 C   0  0  0  0  0  0
  -60.8510   34.9190   31.9670 O   0  0  0  0  0  0
  -59.8120   32.9970   32.9790 N   0  0  0  0  0  0
  -58.5460   33.2700   32.3270 C   0  0  2  0  0  0
  -58.4950   32.6790   30.9500 C   0  0  0  0  0  0
  -58.8770   31.3390   30.7310 O   0  0  0  0  0  0
  -57.3990   32.7120   33.1620 C   0  0  0  0  0  0
  -56.7230   33.9320   34.3150 S   0  0  0  0  0  0
  -58.0780   33.4810   29.9750 N   0  0  0  0  0  0
  -57.5820   32.9530   28.7190 C   0  0  0  0  0  0
  -57.6380   33.9870   27.6200 C   0  0  0  0  0  0
  -58.2330   35.0720   27.7990 O   0  5  0  0  0  0
  -57.0910   33.7710   26.5170 O   0  0  0  0  0  0
  -66.4818   33.9601   32.3539 H   0  0  0  0  0  0
  -65.1811   34.8418   31.4834 H   0  0  0  0  0  0
  -65.6946   35.3827   33.1176 H   0  0  0  0  0  0
  -64.4237   32.7711   32.4022 H   0  0  0  0  0  0
  -62.9727   34.8873   32.2813 H   0  0  0  0  0  0
  -63.3412   35.1558   34.0188 H   0  0  0  0  0  0
  -61.8843   33.5570   34.6910 H   0  0  0  0  0  0
  -62.3943   32.4160   33.4008 H   0  0  0  0  0  0
  -59.9203   32.1100   33.6204 H   0  0  0  0  0  0
  -58.4936   34.3655   32.2423 H   0  0  0  0  0  0
  -57.7568   31.8534   33.7491 H   0  0  0  0  0  0
  -56.5851   32.3877   32.4968 H   0  0  0  0  0  0
  -55.8892   33.6588   34.9785 H   0  0  0  0  0  0
  -58.1155   34.5682   30.1381 H   0  0  0  0  0  0
  -56.5365   32.6343   28.8426 H   0  0  0  0  0  0
  -58.1947   32.0911   28.4161 H   0  0  0  0  0  0
  1  2  1  0  0  0
  1 21  1  0  0  0
  1 22  1  0  0  0
  1 23  1  0  0  0
  2  3  1  0  0  0
  2  6  1  0  0  0
  2 24  1  0  0  0
  3  4  1  0  0  0
  3  5  2  0  0  0
  6  7  1  0  0  0
  6 25  1  0  0  0
  6 26  1  0  0  0
  7  8  1  0  0  0
  7 27  1  0  0  0
  7 28  1  0  0  0
  8  9  2  0  0  0
  8 10  1  0  0  0
 10 11  1  0  0  0
 10 29  1  0  0  0
 11 12  1  0  0  0
 11 14  1  0  0  0
 11 30  1  0  0  0
 12 13  2  0  0  0
 12 16  1  0  0  0
 14 15  1  0  0  0
 14 31  1  0  0  0
 14 32  1  0  0  0
 15 33  1  0  0  0
 16 17  1  0  0  0
 16 34  1  0  0  0
 17 18  1  0  0  0
 17 35  1  0  0  0
 17 36  1  0  0  0
 18 19  1  0  0  0
 18 20  2  0  0  0
M  CHG  3   1   1   4  -1  19  -1
M  END
> <s_m_source_file>
../4g0l_ligand.sdf

> <i_m_source_file_index>
1

> <s_epik_input>
W09IXUMoPU8pW0NAQEhdKFtOSDMrXSlbQ0gyXVtDSDJdQyg9TylbTkhdW0NAQEhdKFtDSDJdW1NIXSlDKD1PKVtOSF1bQ0gyXUMoPU8pW09IXQ==

> <s_epik_cmdline>
J2VwaWtfYXBwJywgJy1pbWFlJywgJ2xpZ2FuZF9wcm8ubWFlJywgJy1vbWFlJywgJ2xpZ2FuZF9wcmVwLm1hZScsICctbXMnLCAnMScsICctcGgnLCAnNycsICctcGh0JywgJzAuNScsICctbnQn

> <r_lp_tautomer_probability>
1

> <r_epik_Ionization_Penalty>
  0.0108

> <r_epik_Ionization_Penalty_Charging>
  0.0025

> <r_epik_Ionization_Penalty_Neutral>
  0.0083

> <r_epik_State_Penalty>
 -0.0000

> <r_epik_Charging_Adjusted_Penalty>
0.0025426613454744

> <i_epik_Tot_Q>
-1

> <i_epik_Tot_abs_Q>
3

$$$$
