4g0p_ligand
                    3D
 Schrodinger Suite 2020-3.
 34 35  0  0  1  0            999 V2000
   28.6990   29.2940   37.7390 N   0  0  0  0  0  0
   28.3450   27.8800   37.5700 C   0  0  0  0  0  0
   28.1870   27.3230   36.2050 N   0  0  0  0  0  0
   28.5410   28.1140   35.0440 C   0  0  0  0  0  0
   28.8120   29.5920   35.1920 C   0  0  0  0  0  0
   28.8820   30.1800   36.5800 C   0  0  0  0  0  0
   28.1100   27.1920   38.5520 O   0  0  0  0  0  0
   28.5460   27.5870   33.9430 O   0  0  0  0  0  0
   28.7280   29.9910   38.9830 C   0  0  1  0  0  0
   29.9400   30.7840   39.2230 C   0  0  2  0  0  0
   31.0760   30.0830   39.6360 O   0  0  0  0  0  0
   29.4770   31.8720   40.1160 C   0  0  1  0  0  0
   28.0180   32.0320   39.8140 C   0  0  2  0  0  0
   30.1320   32.2800   41.3560 O   0  0  0  0  0  0
   27.5820   30.8440   39.1720 O   0  0  0  0  0  0
   27.3900   33.3410   39.4520 C   0  0  0  0  0  0
   26.0640   33.2460   39.0960 O   0  0  0  0  0  0
   25.3660   34.3980   38.3100 P   0  0  0  0  0  0
   25.9180   35.7390   38.7160 O   0  0  0  0  0  0
   25.6470   34.1770   36.8000 O   0  5  0  0  0  0
   23.8370   34.3230   38.6030 O   0  5  0  0  0  0
   27.7988   26.3028   36.0688 H   0  0  0  0  0  0
   29.7839   29.8339   34.7372 H   0  0  0  0  0  0
   28.0187   30.1626   34.6870 H   0  0  0  0  0  0
   28.1065   30.9600   36.5887 H   0  0  0  0  0  0
   29.8753   30.6499   36.6309 H   0  0  0  0  0  0
   28.6955   29.1569   39.6994 H   0  0  0  0  0  0
   30.4099   31.1380   38.2936 H   0  0  0  0  0  0
   31.4713   29.2633   39.0181 H   0  0  0  0  0  0
   30.0786   32.7895   40.0366 H   0  0  0  0  0  0
   27.4792   32.0852   40.7715 H   0  0  0  0  0  0
   31.2127   32.1205   41.4854 H   0  0  0  0  0  0
   27.4472   34.0252   40.3114 H   0  0  0  0  0  0
   27.9250   33.7804   38.5972 H   0  0  0  0  0  0
  1  2  1  0  0  0
  1  6  1  0  0  0
  1  9  1  0  0  0
  2  3  1  0  0  0
  2  7  2  0  0  0
  3  4  1  0  0  0
  3 22  1  0  0  0
  4  5  1  0  0  0
  4  8  2  0  0  0
  5  6  1  0  0  0
  5 23  1  0  0  0
  5 24  1  0  0  0
  6 25  1  0  0  0
  6 26  1  0  0  0
  9 10  1  0  0  0
  9 15  1  0  0  0
  9 27  1  0  0  0
 10 11  1  0  0  0
 10 12  1  0  0  0
 10 28  1  0  0  0
 11 29  1  0  0  0
 12 13  1  0  0  0
 12 14  1  0  0  0
 12 30  1  0  0  0
 13 15  1  0  0  0
 13 16  1  0  0  0
 13 31  1  0  0  0
 14 32  1  0  0  0
 16 17  1  0  0  0
 16 33  1  0  0  0
 16 34  1  0  0  0
 17 18  1  0  0  0
 18 19  2  0  0  0
 18 20  1  0  0  0
 18 21  1  0  0  0
M  CHG  2  20  -1  21  -1
M  END
> <s_m_source_file>
../4g0p_ligand.sdf

> <i_m_source_file_index>
1

> <s_epik_input>
W0NIMl0xW0NIMl1DKD1PKVtOSF1DKD1PKU4xW0NASF0yW0NASF0oW09IXSlbQ0BIXShbT0hdKVtDQEhdKE8yKVtDSDJdT1AoPU8pKFtPSF0pW09IXQ==

> <s_epik_cmdline>
J2VwaWtfYXBwJywgJy1pbWFlJywgJ2xpZ2FuZF9wcm8ubWFlJywgJy1vbWFlJywgJ2xpZ2FuZF9wcmVwLm1hZScsICctbXMnLCAnMScsICctcGgnLCAnNycsICctcGh0JywgJzAuNScsICctbnQn

> <r_lp_tautomer_probability>
0.9999999999615

> <r_epik_Ionization_Penalty>
  0.1046

> <r_epik_Ionization_Penalty_Charging>
  0.1039

> <r_epik_Ionization_Penalty_Neutral>
  0.0007

> <r_epik_State_Penalty>
  0.0938

> <r_epik_Charging_Adjusted_Penalty>
0.197637642961347

> <i_epik_Tot_Q>
-2

> <i_epik_Tot_abs_Q>
2

> <s_epik_Chemistry_Notes>
This compound contains an acetal/aminal-like group ( X-CH(R)-Y where X, Y are N, S, or O) that may be acid/base labile, releasing an aldehyde.

$$$$
