4g0y_ligand
                    3D
 Schrodinger Suite 2020-3.
 35 37  0  0  1  0            999 V2000
   25.3280   34.5700   38.3120 P   0  0  0  0  0  0
   25.8450   36.0560   38.4480 O   0  5  0  0  0  0
   25.6460   34.3310   36.7820 O   0  5  0  0  0  0
   23.9120   34.3830   38.6580 O   0  0  0  0  0  0
   26.3220   33.5580   39.0930 O   0  0  0  0  0  0
   27.6890   33.7670   39.3790 C   0  0  0  0  0  0
   28.2630   32.4330   39.9400 C   0  0  1  0  0  0
   27.8490   31.2530   39.2630 O   0  0  0  0  0  0
   29.8370   32.3810   39.9000 C   0  0  1  0  0  0
   30.3250   32.7200   41.1520 O   0  0  0  0  0  0
   30.1860   30.9000   39.5070 C   0  0  1  0  0  0
   31.1770   30.2640   40.2220 O   0  0  0  0  0  0
   28.7720   30.1960   39.5710 C   0  0  2  0  0  0
   28.5650   29.1150   38.6100 N   0  0  0  0  0  0
   28.1400   27.7680   38.8110 C   0  0  0  0  0  0
   28.0770   27.0540   37.6890 N   0  0  0  0  0  0
   28.4790   27.9420   36.6750 C   0  0  0  0  0  0
   28.6140   27.7570   35.2710 C   0  0  0  0  0  0
   28.3500   26.5670   34.6650 N   0  0  0  0  0  0
   29.0320   28.8180   34.4950 N   0  0  0  0  0  0
   29.2890   29.9910   35.1430 C   0  0  0  0  0  0
   29.2050   30.3060   36.4660 N   0  0  0  0  0  0
   28.7860   29.2270   37.2140 C   0  0  0  0  0  0
   28.2168   34.0535   38.4574 H   0  0  0  0  0  0
   27.7892   34.5703   40.1237 H   0  0  0  0  0  0
   27.8057   32.3534   40.9373 H   0  0  0  0  0  0
   30.3457   33.1334   39.2794 H   0  0  0  0  0  0
   30.1531   33.7291   41.5546 H   0  0  0  0  0  0
   30.7881   30.7900   38.5930 H   0  0  0  0  0  0
   32.1958   30.6785   40.2383 H   0  0  0  0  0  0
   28.5669   29.7049   40.5337 H   0  0  0  0  0  0
   27.8903   27.3616   39.7911 H   0  0  0  0  0  0
   28.0154   25.7071   35.2639 H   0  0  0  0  0  0
   28.4713   26.4653   33.5764 H   0  0  0  0  0  0
   29.6139   30.8077   34.4984 H   0  0  0  0  0  0
  1  2  1  0  0  0
  1  3  1  0  0  0
  1  4  2  0  0  0
  1  5  1  0  0  0
  5  6  1  0  0  0
  6  7  1  0  0  0
  6 24  1  0  0  0
  6 25  1  0  0  0
  7  8  1  0  0  0
  7  9  1  0  0  0
  7 26  1  0  0  0
  8 13  1  0  0  0
  9 10  1  0  0  0
  9 11  1  0  0  0
  9 27  1  0  0  0
 10 28  1  0  0  0
 11 12  1  0  0  0
 11 13  1  0  0  0
 11 29  1  0  0  0
 12 30  1  0  0  0
 13 14  1  0  0  0
 13 31  1  0  0  0
 14 15  1  0  0  0
 14 23  1  0  0  0
 15 16  2  0  0  0
 15 32  1  0  0  0
 16 17  1  0  0  0
 17 18  2  0  0  0
 17 23  1  0  0  0
 18 19  1  0  0  0
 18 20  1  0  0  0
 19 33  1  0  0  0
 19 34  1  0  0  0
 20 21  2  0  0  0
 21 22  1  0  0  0
 21 35  1  0  0  0
 22 23  2  0  0  0
M  CHG  2   2  -1   3  -1
M  END
> <s_m_source_file>
../4g0y_ligand.sdf

> <i_m_source_file_index>
1

> <s_epik_input>
W09IXVAoPU8pKFtPSF0pT1tDSDJdW0NASF0xT1tDQEhdKFtDQEhdKFtPSF0pW0NAQEhdMVtPSF0pbihbY0hdbjIpYyhjMjMpbltjSF1uYzNbTkgyXQ==

> <s_epik_cmdline>
J2VwaWtfYXBwJywgJy1pbWFlJywgJ2xpZ2FuZF9wcm8ubWFlJywgJy1vbWFlJywgJ2xpZ2FuZF9wcmVwLm1hZScsICctbXMnLCAnMScsICctcGgnLCAnNycsICctcGh0JywgJzAuNScsICctbnQn

> <r_lp_tautomer_probability>
0.999997216410988

> <r_epik_Ionization_Penalty>
  0.1025

> <r_epik_Ionization_Penalty_Charging>
  0.1020

> <r_epik_Ionization_Penalty_Neutral>
  0.0004

> <r_epik_State_Penalty>
  0.0920

> <r_epik_Charging_Adjusted_Penalty>
0.194024004396068

> <i_epik_Tot_Q>
-2

> <i_epik_Tot_abs_Q>
2

> <s_epik_Chemistry_Notes>
This compound contains an acetal/aminal-like group ( X-CH(R)-Y where X, Y are N, S, or O) that may be acid/base labile, releasing an aldehyde.

$$$$
