4g0z_ligand
                    3D
 Schrodinger Suite 2020-3.
 35 37  0  0  1  0            999 V2000
   25.3970   34.6460   38.2740 P   0  0  0  0  0  0
   25.9450   35.9870   38.6840 O   0  0  0  0  0  0
   25.6930   34.3060   36.8300 O   0  5  0  0  0  0
   23.9740   34.3570   38.6910 O   0  5  0  0  0  0
   26.2720   33.5790   39.1110 O   0  0  0  0  0  0
   27.7030   33.5630   39.0420 C   0  0  0  0  0  0
   28.1960   32.4700   39.9940 C   0  0  1  0  0  0
   27.6480   31.2080   39.6170 O   0  0  0  0  0  0
   29.7110   32.3040   40.0060 C   0  0  1  0  0  0
   30.2400   32.7950   41.2440 O   0  0  0  0  0  0
   29.9570   30.8160   39.9510 C   0  0  1  0  0  0
   30.5730   30.4560   41.1850 O   0  0  0  0  0  0
   28.5890   30.1610   39.8460 C   0  0  2  0  0  0
   28.5250   29.1960   38.7200 N   0  0  0  0  0  0
   28.1670   27.9010   38.8190 C   0  0  0  0  0  0
   28.1960   27.3410   37.5870 N   0  0  0  0  0  0
   28.5690   28.3010   36.7090 C   0  0  0  0  0  0
   28.7640   28.3100   35.3350 C   0  0  0  0  0  0
   28.5840   27.2550   34.6870 O   0  0  0  0  0  0
   29.1410   29.4480   34.7310 N   0  0  0  0  0  0
   29.3250   30.5760   35.4360 C   0  0  0  0  0  0
   29.7040   31.7150   34.8030 N   0  0  0  0  0  0
   29.1440   30.5960   36.7780 N   0  0  0  0  0  0
   28.7640   29.4710   37.4300 C   0  0  0  0  0  0
   28.0179   33.3458   38.0107 H   0  0  0  0  0  0
   28.0958   34.5444   39.3464 H   0  0  0  0  0  0
   27.8337   32.7260   41.0006 H   0  0  0  0  0  0
   30.2149   32.8699   39.2086 H   0  0  0  0  0  0
   30.1654   33.8650   41.4881 H   0  0  0  0  0  0
   30.6350   30.4947   39.1466 H   0  0  0  0  0  0
   31.5733   30.8404   41.4331 H   0  0  0  0  0  0
   28.3221   29.6190   40.7652 H   0  0  0  0  0  0
   27.8976   27.3873   39.7418 H   0  0  0  0  0  0
   29.8550   31.7145   33.7134 H   0  0  0  0  0  0
   29.8602   32.6387   35.3795 H   0  0  0  0  0  0
  1  2  2  0  0  0
  1  3  1  0  0  0
  1  4  1  0  0  0
  1  5  1  0  0  0
  5  6  1  0  0  0
  6  7  1  0  0  0
  6 25  1  0  0  0
  6 26  1  0  0  0
  7  8  1  0  0  0
  7  9  1  0  0  0
  7 27  1  0  0  0
  8 13  1  0  0  0
  9 10  1  0  0  0
  9 11  1  0  0  0
  9 28  1  0  0  0
 10 29  1  0  0  0
 11 12  1  0  0  0
 11 13  1  0  0  0
 11 30  1  0  0  0
 12 31  1  0  0  0
 13 14  1  0  0  0
 13 32  1  0  0  0
 14 15  1  0  0  0
 14 24  1  0  0  0
 15 16  2  0  0  0
 15 33  1  0  0  0
 16 17  1  0  0  0
 17 18  1  0  0  0
 17 24  2  0  0  0
 18 19  2  0  0  0
 18 20  1  0  0  0
 20 21  1  0  0  0
 21 22  1  0  0  0
 21 23  2  0  0  0
 22 34  1  0  0  0
 22 35  1  0  0  0
 23 24  1  0  0  0
M  CHG  2   3  -1   4  -1
M  END
> <s_m_source_file>
../4g0z_ligand.sdf

> <i_m_source_file_index>
1

> <s_epik_input>
Tz1QKFtPSF0pKFtPSF0pT1tDSDJdW0NASF0xT1tDQEhdKFtDQEhdKFtPSF0pW0NAQEhdMVtPSF0pbihbY0hdbjIpYyhjMjMpW25IXWMoPU5cW0hdKVxbbkhdYzM9Tw==

> <s_epik_cmdline>
J2VwaWtfYXBwJywgJy1pbWFlJywgJ2xpZ2FuZF9wcm8ubWFlJywgJy1vbWFlJywgJ2xpZ2FuZF9wcmVwLm1hZScsICctbXMnLCAnMScsICctcGgnLCAnNycsICctcGh0JywgJzAuNScsICctbnQn

> <r_epik_Ionization_Penalty>
  3.3414

> <r_epik_Ionization_Penalty_Charging>
  0.1020

> <r_epik_Ionization_Penalty_Neutral>
  3.2394

> <r_epik_State_Penalty>
  0.0920

> <r_epik_Charging_Adjusted_Penalty>
0.194026767653586

> <i_epik_Tot_Q>
-2

> <i_epik_Tot_abs_Q>
2

> <s_epik_Chemistry_Notes>
This compound has an imine and may undergo hydrolysis. This compound contains an acetal/aminal-like group ( X-CH(R)-Y where X, Y are N, S, or O) that may be acid/base labile, releasing an aldehyde.

$$$$
