4g17_ligand
                    3D
 Schrodinger Suite 2020-3.
 40 42  0  0  1  0            999 V2000
   38.2090  -11.9990   26.8590 C   0  0  0  0  0  0
   37.7720  -13.3880   26.5570 C   0  0  0  0  0  0
   37.1810  -14.1170   27.6870 C   0  0  0  0  0  0
   37.0590  -13.4390   29.0340 C   0  0  0  0  0  0
   37.5080  -12.0470   29.2790 C   0  0  0  0  0  0
   38.0990  -11.3010   28.1680 C   0  0  0  0  0  0
   36.6610  -15.3770   27.8340 N   0  0  0  0  0  0
   36.2690  -15.4490   29.1190 C   0  0  0  0  0  0
   36.4700  -14.3710   29.8700 N   0  3  0  0  0  0
   35.6250  -16.6230   29.6770 N   0  0  0  0  0  0
   38.8110  -11.2910   25.8100 C   0  0  0  0  0  0
   39.2560  -10.7250   24.9180 N   0  0  0  0  0  0
   34.7080  -20.2060   27.9140 C   0  0  0  0  0  0
   36.0230  -19.5890   27.5820 C   0  0  0  0  0  0
   36.3530  -18.3500   28.1870 C   0  0  0  0  0  0
   35.3460  -17.7970   29.0910 C   0  0  0  0  0  0
   34.0410  -18.3510   29.4640 C   0  0  0  0  0  0
   33.7010  -19.6120   28.8540 C   0  0  0  0  0  0
   34.3590  -21.5640   27.2110 C   0  0  0  0  0  0
   32.8310  -21.6430   26.7810 C   0  0  0  0  0  0
   34.6910  -22.7100   28.1810 C   0  0  0  0  0  0
   35.1260  -21.8450   25.8660 C   0  0  0  0  0  0
   37.8823  -13.8331   25.5682 H   0  0  0  0  0  0
   37.4003  -11.5908   30.2630 H   0  0  0  0  0  0
   38.4448  -10.2751   28.2943 H   0  0  0  0  0  0
   35.2912  -16.6213   30.7251 H   0  0  0  0  0  0
   36.7124  -20.0768   26.8929 H   0  0  0  0  0  0
   37.2973  -17.8422   27.9906 H   0  0  0  0  0  0
   33.3713  -17.8424   30.1575 H   0  0  0  0  0  0
   32.7555  -20.1111   29.0660 H   0  0  0  0  0  0
   32.1933  -21.4589   27.6582 H   0  0  0  0  0  0
   32.6157  -22.6422   26.3744 H   0  0  0  0  0  0
   32.6265  -20.8826   26.0129 H   0  0  0  0  0  0
   34.1695  -22.5452   29.1354 H   0  0  0  0  0  0
   35.7765  -22.7389   28.3565 H   0  0  0  0  0  0
   34.3645  -23.6656   27.7449 H   0  0  0  0  0  0
   34.9104  -21.0416   25.1463 H   0  0  0  0  0  0
   34.7958  -22.8083   25.4500 H   0  0  0  0  0  0
   36.2079  -21.8816   26.0616 H   0  0  0  0  0  0
   36.2721  -14.1186   30.9222 H   0  0  0  0  0  0
  1  2  2  0  0  0
  1  6  1  0  0  0
  1 11  1  0  0  0
  2  3  1  0  0  0
  2 23  1  0  0  0
  3  4  2  0  0  0
  3  7  1  0  0  0
  4  5  1  0  0  0
  4  9  1  0  0  0
  5  6  2  0  0  0
  5 24  1  0  0  0
  6 25  1  0  0  0
  7  8  2  0  0  0
  8  9  1  0  0  0
  8 10  1  0  0  0
  9 40  1  0  0  0
 10 16  1  0  0  0
 10 26  1  0  0  0
 11 12  3  0  0  0
 13 14  2  0  0  0
 13 18  1  0  0  0
 13 19  1  0  0  0
 14 15  1  0  0  0
 14 27  1  0  0  0
 15 16  2  0  0  0
 15 28  1  0  0  0
 16 17  1  0  0  0
 17 18  2  0  0  0
 17 29  1  0  0  0
 18 30  1  0  0  0
 19 20  1  0  0  0
 19 21  1  0  0  0
 19 22  1  0  0  0
 20 31  1  0  0  0
 20 32  1  0  0  0
 20 33  1  0  0  0
 21 34  1  0  0  0
 21 35  1  0  0  0
 21 36  1  0  0  0
 22 37  1  0  0  0
 22 38  1  0  0  0
 22 39  1  0  0  0
M  CHG  1   9   1
M  END
> <s_m_source_file>
../4g17_ligand.sdf

> <i_m_source_file_index>
1

> <s_epik_input>
TiNDYyhbY0hdMSlbY0hdW2NIXWMoYzEyKVtuSF1jKG4yKVtOSF1jKFtjSF1bY0hdMylbY0hdW2NIXWMzQyhbQ0gzXSkoW0NIM10pW0NIM10=

> <s_epik_cmdline>
J2VwaWtfYXBwJywgJy1pbWFlJywgJ2xpZ2FuZF9wcm8ubWFlJywgJy1vbWFlJywgJ2xpZ2FuZF9wcmVwLm1hZScsICctbXMnLCAnMScsICctcGgnLCAnNycsICctcGh0JywgJzAuNScsICctbnQn

> <r_epik_Ionization_Penalty>
  0.0000

> <r_epik_Ionization_Penalty_Charging>
  0.0000

> <r_epik_Ionization_Penalty_Neutral>
  0.0000

> <r_epik_State_Penalty>
  0.3215

> <r_epik_Charging_Adjusted_Penalty>
0.321517891236279

> <i_epik_Tot_Q>
1

> <i_epik_Tot_abs_Q>
1

> <s_epik_Chemistry_Notes>
This compound has an imine and may undergo hydrolysis.

$$$$
