4g19_ligand
                    3D
 Schrodinger Suite 2020-3.
 36 35  0  0  1  0            999 V2000
  -19.6490   55.1380  125.8500 N   0  3  0  0  0  0
  -20.2940   55.5480  127.0850 C   0  0  2  0  0  0
  -21.5580   54.7670  127.3050 C   0  0  0  0  0  0
  -22.2800   54.4540  126.3220 O   0  5  0  0  0  0
  -21.8940   54.4200  128.4660 O   0  0  0  0  0  0
  -20.6440   57.0240  126.9640 C   0  0  0  0  0  0
  -21.5910   57.4400  128.0820 C   0  0  0  0  0  0
  -21.5920   58.9540  128.1790 C   0  0  0  0  0  0
  -20.9560   59.7310  127.1890 O   0  0  0  0  0  0
  -22.2170   59.5130  129.2130 N   0  0  0  0  0  0
  -22.0220   60.9320  129.4580 C   0  0  2  0  0  0
  -20.8080   61.1830  130.3020 C   0  0  0  0  0  0
  -20.6790   60.4800  131.5060 O   0  0  0  0  0  0
  -23.2530   61.4490  130.1800 C   0  0  0  0  0  0
  -24.6200   61.7590  129.0360 S   0  0  0  0  0  0
  -19.8850   62.0690  129.9150 N   0  0  0  0  0  0
  -18.9450   62.5010  130.9300 C   0  0  0  0  0  0
  -18.1940   63.7570  130.5770 C   0  0  0  0  0  0
  -17.1680   64.0780  131.2130 O   0  5  0  0  0  0
  -18.5800   64.4830  129.6520 O   0  0  0  0  0  0
  -19.3847   54.0720  125.9108 H   0  0  0  0  0  0
  -18.7370   55.7338  125.6974 H   0  0  0  0  0  0
  -20.3368   55.2978  125.0066 H   0  0  0  0  0  0
  -19.5928   55.3418  127.9071 H   0  0  0  0  0  0
  -19.7254   57.6253  127.0311 H   0  0  0  0  0  0
  -21.1320   57.2069  125.9953 H   0  0  0  0  0  0
  -22.6053   57.0790  127.8566 H   0  0  0  0  0  0
  -21.2497   57.0045  129.0327 H   0  0  0  0  0  0
  -22.8695   58.9251  129.8752 H   0  0  0  0  0  0
  -21.8653   61.4133  128.4814 H   0  0  0  0  0  0
  -23.5833   60.7053  130.9202 H   0  0  0  0  0  0
  -23.0092   62.3920  130.6913 H   0  0  0  0  0  0
  -25.5803   62.1375  129.4162 H   0  0  0  0  0  0
  -19.8132   62.4691  128.8929 H   0  0  0  0  0  0
  -19.4838   62.6988  131.8684 H   0  0  0  0  0  0
  -18.1966   61.7121  131.0962 H   0  0  0  0  0  0
  1  2  1  0  0  0
  1 21  1  0  0  0
  1 22  1  0  0  0
  1 23  1  0  0  0
  2  3  1  0  0  0
  2  6  1  0  0  0
  2 24  1  0  0  0
  3  4  1  0  0  0
  3  5  2  0  0  0
  6  7  1  0  0  0
  6 25  1  0  0  0
  6 26  1  0  0  0
  7  8  1  0  0  0
  7 27  1  0  0  0
  7 28  1  0  0  0
  8  9  2  0  0  0
  8 10  1  0  0  0
 10 11  1  0  0  0
 10 29  1  0  0  0
 11 12  1  0  0  0
 11 14  1  0  0  0
 11 30  1  0  0  0
 12 13  2  0  0  0
 12 16  1  0  0  0
 14 15  1  0  0  0
 14 31  1  0  0  0
 14 32  1  0  0  0
 15 33  1  0  0  0
 16 17  1  0  0  0
 16 34  1  0  0  0
 17 18  1  0  0  0
 17 35  1  0  0  0
 17 36  1  0  0  0
 18 19  1  0  0  0
 18 20  2  0  0  0
M  CHG  3   1   1   4  -1  19  -1
M  END
> <s_m_source_file>
../4g19_ligand.sdf

> <i_m_source_file_index>
1

> <s_epik_input>
W09IXUMoPU8pW0NAQEhdKFtOSDMrXSlbQ0gyXVtDSDJdQyg9TylbTkhdW0NAQEhdKFtDSDJdW1NIXSlDKD1PKVtOSF1bQ0gyXUMoPU8pW09IXQ==

> <s_epik_cmdline>
J2VwaWtfYXBwJywgJy1pbWFlJywgJ2xpZ2FuZF9wcm8ubWFlJywgJy1vbWFlJywgJ2xpZ2FuZF9wcmVwLm1hZScsICctbXMnLCAnMScsICctcGgnLCAnNycsICctcGh0JywgJzAuNScsICctbnQn

> <r_lp_tautomer_probability>
1

> <r_epik_Ionization_Penalty>
  0.0108

> <r_epik_Ionization_Penalty_Charging>
  0.0025

> <r_epik_Ionization_Penalty_Neutral>
  0.0083

> <r_epik_State_Penalty>
 -0.0000

> <r_epik_Charging_Adjusted_Penalty>
0.0025426613454744

> <i_epik_Tot_Q>
-1

> <i_epik_Tot_abs_Q>
3

$$$$
