4g1f_ligand
                    3D
 Schrodinger Suite 2020-3.
 41 43  0  0  1  0            999 V2000
   46.2790   -0.6950   13.4330 C   0  0  0  0  0  0
   44.8760   -0.3800   13.1320 N   0  0  0  0  0  0
   44.2490    0.6510   13.8210 C   0  0  0  0  0  0
   44.9040    1.3400   14.7430 N   0  0  0  0  0  0
   44.3330    2.3150   15.4360 C   0  0  0  0  0  0
   45.0890    2.9910   16.3810 N   0  0  0  0  0  0
   42.9990    2.6660   15.2380 C   0  0  0  0  0  0
   42.4020    3.7770   16.0670 C   0  0  0  0  0  0
   41.8760    3.2090   17.3140 N   0  3  0  0  0  0
   42.2440    1.9790   14.2710 C   0  0  0  0  0  0
   40.8110    2.3300   14.0670 C   0  0  0  0  0  0
   40.4140    3.4020   13.2600 C   0  0  0  0  0  0
   39.0670    3.6890   13.1190 C   0  0  0  0  0  0
   38.1090    2.9250   13.7700 C   0  0  0  0  0  0
   38.4940    1.8650   14.5710 C   0  0  0  0  0  0
   39.8370    1.5650   14.7270 C   0  0  0  0  0  0
   40.3520    0.1080   15.8240 Br  0  0  0  0  0  0
   42.8900    0.9410   13.5440 C   0  0  0  0  0  0
   42.2150    0.1330   12.5130 C   0  0  0  0  0  0
   41.0620    0.3580   12.2100 O   0  0  0  0  0  0
   42.9090   -0.8670   11.9020 N   0  0  0  0  0  0
   42.2450   -1.6920   10.8790 C   0  0  0  0  0  0
   44.2000   -1.1120   12.2200 C   0  0  0  0  0  0
   44.7910   -2.0130   11.6480 O   0  0  0  0  0  0
   46.6565    0.0038   14.1940 H   0  0  0  0  0  0
   46.8808   -0.5999   12.5171 H   0  0  0  0  0  0
   46.3501   -1.7247   13.8132 H   0  0  0  0  0  0
   46.1424    2.7174   16.5408 H   0  0  0  0  0  0
   44.6355    3.8010   16.9711 H   0  0  0  0  0  0
   43.1786    4.5216   16.2959 H   0  0  0  0  0  0
   41.5879    4.2574   15.5045 H   0  0  0  0  0  0
   41.4381    4.0112   17.9262 H   0  0  0  0  0  0
   42.6932    2.7272   17.8708 H   0  0  0  0  0  0
   41.1024    2.4629   17.0794 H   0  0  0  0  0  0
   41.1605    4.0072   12.7457 H   0  0  0  0  0  0
   38.7560    4.5234   12.4904 H   0  0  0  0  0  0
   37.0515    3.1604   13.6500 H   0  0  0  0  0  0
   37.7395    1.2652   15.0800 H   0  0  0  0  0  0
   41.2064   -1.3527   10.7517 H   0  0  0  0  0  0
   42.2503   -2.7450   11.1970 H   0  0  0  0  0  0
   42.7822   -1.5946    9.9241 H   0  0  0  0  0  0
  1  2  1  0  0  0
  1 25  1  0  0  0
  1 26  1  0  0  0
  1 27  1  0  0  0
  2  3  1  0  0  0
  2 23  1  0  0  0
  3  4  2  0  0  0
  3 18  1  0  0  0
  4  5  1  0  0  0
  5  6  1  0  0  0
  5  7  2  0  0  0
  6 28  1  0  0  0
  6 29  1  0  0  0
  7  8  1  0  0  0
  7 10  1  0  0  0
  8  9  1  0  0  0
  8 30  1  0  0  0
  8 31  1  0  0  0
  9 32  1  0  0  0
  9 33  1  0  0  0
  9 34  1  0  0  0
 10 11  1  0  0  0
 10 18  2  0  0  0
 11 12  2  0  0  0
 11 16  1  0  0  0
 12 13  1  0  0  0
 12 35  1  0  0  0
 13 14  2  0  0  0
 13 36  1  0  0  0
 14 15  1  0  0  0
 14 37  1  0  0  0
 15 16  2  0  0  0
 15 38  1  0  0  0
 16 17  1  0  0  0
 18 19  1  0  0  0
 19 20  2  0  0  0
 19 21  1  0  0  0
 21 22  1  0  0  0
 21 23  1  0  0  0
 22 39  1  0  0  0
 22 40  1  0  0  0
 22 41  1  0  0  0
 23 24  2  0  0  0
M  CHG  1   9   1
M  END
> <s_m_source_file>
../4g1f_ligand.sdf

> <i_m_source_file_index>
1

> <s_epik_input>
W0NIM11uMWMoPU8pbihbQ0gzXSljKD1PKWMoYzEyKWMoYyhjKG4yKVtOSDJdKVtDSDJdW05IMytdKS1jM1tjSF1bY0hdW2NIXVtjSF1jM0Jy

> <s_epik_cmdline>
J2VwaWtfYXBwJywgJy1pbWFlJywgJ2xpZ2FuZF9wcm8ubWFlJywgJy1vbWFlJywgJ2xpZ2FuZF9wcmVwLm1hZScsICctbXMnLCAnMScsICctcGgnLCAnNycsICctcGh0JywgJzAuNScsICctbnQn

> <r_epik_Ionization_Penalty>
  0.0851

> <r_epik_Ionization_Penalty_Charging>
  0.0851

> <r_epik_Ionization_Penalty_Neutral>
  0.0000

> <r_epik_State_Penalty>
  0.0757

> <r_epik_Charging_Adjusted_Penalty>
0.160810379157178

> <i_epik_Tot_Q>
1

> <i_epik_Tot_abs_Q>
1

> <s_epik_Chemistry_Notes>
This compound has an imine and may undergo hydrolysis.

$$$$
