4g2f_ligand
                    3D
 Schrodinger Suite 2020-3.
 44 47  0  0  1  0            999 V2000
   -9.5810    8.4270   53.9710 O   0  0  0  0  0  0
   -9.2290    7.7920   52.8640 C   0  0  0  0  0  0
   -8.9370    6.3330   52.9210 C   0  0  0  0  0  0
   -9.0440    5.6030   54.2410 C   0  0  0  0  0  0
   -8.8080    4.1010   54.0820 C   0  0  0  0  0  0
   -7.7220    3.7870   53.0570 C   0  0  0  0  0  0
   -8.2310    4.1530   51.6700 C   0  0  0  0  0  0
   -8.5480    5.6300   51.6780 C   0  0  3  0  0  0
   -8.4730    6.4380   50.4400 C   0  0  0  0  0  0
   -8.7780    7.8830   50.4990 C   0  0  0  0  0  0
   -8.6940    8.5890   49.3500 N   0  0  0  0  0  0
   -8.3410    8.0050   48.1900 C   0  0  0  0  0  0
   -8.0510    6.6980   48.0720 N   0  0  0  0  0  0
   -8.0880    5.8640   49.1320 C   0  0  0  0  0  0
   -7.7990    4.5480   49.0170 N   0  0  0  0  0  0
   -9.1490    8.4860   51.7250 N   0  0  0  0  0  0
   -9.4430    9.8570   51.7900 C   0  0  0  0  0  0
   -8.5700   10.7190   52.4240 C   0  0  0  0  0  0
   -8.8680   12.0680   52.4900 C   0  0  0  0  0  0
   -8.0070   12.9100   53.1200 O   0  0  0  0  0  0
  -10.0460   12.5670   51.9320 C   0  0  0  0  0  0
  -10.9620   11.7420   51.2890 C   0  0  0  0  0  0
  -10.6940   10.3850   51.1980 C   0  0  0  0  0  0
  -11.6460    9.4520   50.5090 C   0  0  0  0  0  0
   -9.6538    7.8772   54.9210 H   0  0  0  0  0  0
   -8.2923    5.9978   54.9403 H   0  0  0  0  0  0
  -10.0496    5.7512   54.6615 H   0  0  0  0  0  0
   -8.4971    3.6745   55.0471 H   0  0  0  0  0  0
   -9.7382    3.6168   53.7498 H   0  0  0  0  0  0
   -6.8197    4.3722   53.2879 H   0  0  0  0  0  0
   -7.4825    2.7140   53.0936 H   0  0  0  0  0  0
   -7.4540    3.9306   50.9238 H   0  0  0  0  0  0
   -9.1343    3.5672   51.4445 H   0  0  0  0  0  0
   -7.4908    5.8558   51.8812 H   0  0  0  0  0  0
   -8.2873    8.6267   47.2963 H   0  0  0  0  0  0
   -7.8391    3.8967   49.9025 H   0  0  0  0  0  0
   -7.5238    4.1288   48.0379 H   0  0  0  0  0  0
   -7.6511   10.3383   52.8700 H   0  0  0  0  0  0
   -7.0781   12.5185   53.5603 H   0  0  0  0  0  0
  -10.2539   13.6347   52.0024 H   0  0  0  0  0  0
  -11.8762   12.1556   50.8633 H   0  0  0  0  0  0
  -11.2480    8.4273   50.5482 H   0  0  0  0  0  0
  -11.7654    9.7592   49.4595 H   0  0  0  0  0  0
  -12.6225    9.4856   51.0143 H   0  0  0  0  0  0
  1  2  1  0  0  0
  1 25  1  0  0  0
  2  3  2  0  0  0
  2 16  1  0  0  0
  3  4  1  0  0  0
  3  8  1  0  0  0
  4  5  1  0  0  0
  4 26  1  0  0  0
  4 27  1  0  0  0
  5  6  1  0  0  0
  5 28  1  0  0  0
  5 29  1  0  0  0
  6  7  1  0  0  0
  6 30  1  0  0  0
  6 31  1  0  0  0
  7  8  1  0  0  0
  7 32  1  0  0  0
  7 33  1  0  0  0
  8  9  1  0  0  0
  8 34  1  0  0  0
  9 10  2  0  0  0
  9 14  1  0  0  0
 10 11  1  0  0  0
 10 16  1  0  0  0
 11 12  2  0  0  0
 12 13  1  0  0  0
 12 35  1  0  0  0
 13 14  2  0  0  0
 14 15  1  0  0  0
 15 36  1  0  0  0
 15 37  1  0  0  0
 16 17  1  0  0  0
 17 18  2  0  0  0
 17 23  1  0  0  0
 18 19  1  0  0  0
 18 38  1  0  0  0
 19 20  1  0  0  0
 19 21  2  0  0  0
 20 39  1  0  0  0
 21 22  1  0  0  0
 21 40  1  0  0  0
 22 23  2  0  0  0
 22 41  1  0  0  0
 23 24  1  0  0  0
 24 42  1  0  0  0
 24 43  1  0  0  0
 24 44  1  0  0  0
M  END
> <s_m_source_file>
../4g2f_ligand.sdf

> <i_m_source_file_index>
1

> <s_epik_input>
W0NIM11jMVtjSF1bY0hdYyhbT0hdKVtjSF1jMU4oQz0yW09IXSljKG5bY0hdbmMzW05IMl0pYzNbQ0hdKEMyNClbQ0gyXVtDSDJdW0NIMl1bQ0gyXTQ=

> <s_epik_cmdline>
J2VwaWtfYXBwJywgJy1pbWFlJywgJ2xpZ2FuZF9wcm8ubWFlJywgJy1vbWFlJywgJ2xpZ2FuZF9wcmVwLm1hZScsICctbXMnLCAnMScsICctcGgnLCAnNycsICctcGh0JywgJzAuNScsICctbnQn

> <r_lp_tautomer_probability>
1

> <r_epik_Ionization_Penalty>
  0.1165

> <r_epik_Ionization_Penalty_Charging>
  0.0000

> <r_epik_Ionization_Penalty_Neutral>
  0.1165

> <r_epik_State_Penalty>
 -0.0000

> <r_epik_Charging_Adjusted_Penalty>
2.30226969119558e-14

> <i_epik_Tot_Q>
0

> <i_epik_Tot_abs_Q>
0

> <s_epik_Chemistry_Notes>
This compound has an imine and may undergo hydrolysis.

$$$$
