4g2j_ligand
                    3D
 Schrodinger Suite 2020-3.
 54 58  0  0  1  0            999 V2000
   74.6260   55.6070   41.8780 C   0  0  0  0  0  0
   74.1550   54.1890   41.5330 C   0  0  2  0  0  0
   75.1000   53.2060   42.2230 C   0  0  0  0  0  0
   74.9610   53.1180   43.6090 N   0  0  0  0  0  0
   75.8190   52.3070   44.4230 C   0  0  0  0  0  0
   75.6320   52.3080   45.6320 O   0  0  0  0  0  0
   76.8030   51.5990   43.6680 C   0  0  0  0  0  0
   77.8690   50.7190   44.0040 C   0  0  0  0  0  0
   78.5380   50.3560   42.8810 N   0  0  0  0  0  0
   77.9130   50.9810   41.8220 N   0  0  0  0  0  0
   76.8460   51.7440   42.2650 C   0  0  0  0  0  0
   75.9870   52.5360   41.4960 N   0  0  0  0  0  0
   78.4180   50.9100   40.4380 C   0  0  0  0  0  0
   79.9130   51.2610   40.3490 C   0  0  0  0  0  0
   80.3530   50.5810   39.0560 C   0  0  0  0  0  0
   79.5460   49.2830   38.9910 C   0  0  0  0  0  0
   78.2890   49.4960   39.8400 C   0  0  0  0  0  0
   74.2300   54.0510   40.0550 N   0  3  1  0  0  0
   73.8490   52.6860   39.5300 C   0  0  0  0  0  0
   72.7270   53.3340   38.6670 C   0  0  2  0  0  0
   73.0680   54.6990   39.3310 C   0  0  0  0  0  0
   71.4370   52.9810   39.0790 O   0  0  0  0  0  0
   70.9500   51.7820   38.6380 C   0  0  0  0  0  0
   69.5830   51.6120   38.8950 C   0  0  0  0  0  0
   68.9790   50.4220   38.5240 C   0  0  0  0  0  0
   69.7190   49.4190   37.9030 C   0  0  0  0  0  0
   71.0700   49.6050   37.6540 C   0  0  0  0  0  0
   71.7050   50.7890   38.0220 C   0  0  0  0  0  0
   74.5859   55.7517   42.9677 H   0  0  0  0  0  0
   73.9706   56.3409   41.3862 H   0  0  0  0  0  0
   75.6594   55.7455   41.5275 H   0  0  0  0  0  0
   73.1193   53.9827   41.8407 H   0  0  0  0  0  0
   74.1683   53.6848   44.1194 H   0  0  0  0  0  0
   78.1120   50.3861   45.0131 H   0  0  0  0  0  0
   77.7811   51.6438   39.9224 H   0  0  0  0  0  0
   80.0314   52.3540   40.3118 H   0  0  0  0  0  0
   80.4358   50.8654   41.2323 H   0  0  0  0  0  0
   80.1312   51.2382   38.2023 H   0  0  0  0  0  0
   81.4344   50.3833   39.0953 H   0  0  0  0  0  0
   79.2781   49.0698   37.9456 H   0  0  0  0  0  0
   80.1501   48.4552   39.3908 H   0  0  0  0  0  0
   78.2281   48.7580   40.6535 H   0  0  0  0  0  0
   77.3788   49.4396   39.2249 H   0  0  0  0  0  0
   75.2566   54.4184   39.9097 H   0  0  0  0  0  0
   74.7101   52.2391   39.0115 H   0  0  0  0  0  0
   73.5510   52.0404   40.3693 H   0  0  0  0  0  0
   72.6309   53.1318   37.5900 H   0  0  0  0  0  0
   72.3610   55.1101   40.0666 H   0  0  0  0  0  0
   73.4423   55.5101   38.6891 H   0  0  0  0  0  0
   69.0061   52.4010   39.3775 H   0  0  0  0  0  0
   67.9175   50.2696   38.7194 H   0  0  0  0  0  0
   69.2353   48.4864   37.6123 H   0  0  0  0  0  0
   71.6416   48.8162   37.1649 H   0  0  0  0  0  0
   72.7684   50.9340   37.8318 H   0  0  0  0  0  0
  1  2  1  0  0  0
  1 29  1  0  0  0
  1 30  1  0  0  0
  1 31  1  0  0  0
  2  3  1  0  0  0
  2 18  1  0  0  0
  2 32  1  0  0  0
  3  4  1  0  0  0
  3 12  2  0  0  0
  4  5  1  0  0  0
  4 33  1  0  0  0
  5  6  2  0  0  0
  5  7  1  0  0  0
  7  8  1  0  0  0
  7 11  2  0  0  0
  8  9  2  0  0  0
  8 34  1  0  0  0
  9 10  1  0  0  0
 10 11  1  0  0  0
 10 13  1  0  0  0
 11 12  1  0  0  0
 13 14  1  0  0  0
 13 17  1  0  0  0
 13 35  1  0  0  0
 14 15  1  0  0  0
 14 36  1  0  0  0
 14 37  1  0  0  0
 15 16  1  0  0  0
 15 38  1  0  0  0
 15 39  1  0  0  0
 16 17  1  0  0  0
 16 40  1  0  0  0
 16 41  1  0  0  0
 17 42  1  0  0  0
 17 43  1  0  0  0
 18 19  1  0  0  0
 18 21  1  0  0  0
 18 44  1  0  0  0
 19 20  1  0  0  0
 19 45  1  0  0  0
 19 46  1  0  0  0
 20 21  1  0  0  0
 20 22  1  0  0  0
 20 47  1  0  0  0
 21 48  1  0  0  0
 21 49  1  0  0  0
 22 23  1  0  0  0
 23 24  2  0  0  0
 23 28  1  0  0  0
 24 25  1  0  0  0
 24 50  1  0  0  0
 25 26  2  0  0  0
 25 51  1  0  0  0
 26 27  1  0  0  0
 26 52  1  0  0  0
 27 28  2  0  0  0
 27 53  1  0  0  0
 28 54  1  0  0  0
M  CHG  1  18   1
M  END
> <s_m_source_file>
../4g2j_ligand.sdf

> <i_m_source_file_index>
1

> <s_epik_input>
W0NIMl0xW0NIMl1bQ0gyXVtDSDJdW0NIXTFuKG5bY0hdMiljKGMyMyluYyhbbkhdYzM9TylbQ0BASF0oW0NIM10pW05ASCtdNFtDSDJdW0NASF0oW0NIMl00KU9jNVtjSF1bY0hdW2NIXVtjSF1bY0hdNQ==

> <s_epik_cmdline>
J2VwaWtfYXBwJywgJy1pbWFlJywgJ2xpZ2FuZF9wcm8ubWFlJywgJy1vbWFlJywgJ2xpZ2FuZF9wcmVwLm1hZScsICctbXMnLCAnMScsICctcGgnLCAnNycsICctcGh0JywgJzAuNScsICctbnQn

> <r_lp_tautomer_probability>
1

> <r_epik_Ionization_Penalty>
  0.0551

> <r_epik_Ionization_Penalty_Charging>
  0.0551

> <r_epik_Ionization_Penalty_Neutral>
  0.0000

> <r_epik_State_Penalty>
  0.0440

> <r_epik_Charging_Adjusted_Penalty>
0.0991514306503074

> <i_epik_Tot_Q>
1

> <i_epik_Tot_abs_Q>
1

$$$$
