4g2l_ligand
                    3D
 Schrodinger Suite 2020-3.
 51 55  0  0  1  0            999 V2000
   70.3970   52.8950   36.6390 C   0  0  0  0  0  0
   70.4220   53.4460   37.9220 C   0  0  0  0  0  0
   71.5960   52.5460   36.0120 C   0  0  0  0  0  0
   78.3710   51.2040   44.0620 C   0  0  0  0  0  0
   77.3080   52.0880   43.7880 C   0  0  0  0  0  0
   77.3400   52.1830   42.4400 C   0  0  0  0  0  0
   72.6850   53.2680   37.8280 C   0  0  0  0  0  0
   76.3160   52.8100   44.5210 C   0  0  0  0  0  0
   75.6930   53.5650   42.3160 C   0  0  0  0  0  0
   79.8180   49.8520   39.0260 C   0  0  0  0  0  0
   80.8070   50.8860   39.4510 C   0  0  0  0  0  0
   78.7720   49.8650   40.0900 C   0  0  0  0  0  0
   80.0680   51.8760   40.2790 C   0  0  0  0  0  0
   74.0410   54.7870   39.3040 C   0  0  0  0  0  0
   74.2980   52.8520   39.8110 C   0  0  0  0  0  0
   74.0090   53.5070   38.4970 C   0  0  1  0  0  0
   78.7170   51.2790   40.5780 C   0  0  0  0  0  0
   75.1190   55.8900   41.7050 C   0  0  0  0  0  0
   74.7420   54.4390   41.5500 C   0  0  1  0  0  0
   71.5890   53.6490   38.5590 N   0  0  0  0  0  0
   72.7920   52.7230   36.5820 N   0  0  0  0  0  0
   79.0300   50.7790   42.9740 N   0  0  0  0  0  0
   76.5700   52.8950   41.6410 N   0  0  0  0  0  0
   78.3650   51.4040   41.9960 N   0  0  0  0  0  0
   75.5350   53.5420   43.6830 N   0  0  0  0  0  0
   74.9920   54.1000   40.1320 N   0  3  2  0  0  0
   76.1590   52.8020   45.7280 O   0  0  0  0  0  0
   69.4465   52.7379   36.1290 H   0  0  0  0  0  0
   69.4861   53.7143   38.4122 H   0  0  0  0  0  0
   71.5541   52.1101   35.0138 H   0  0  0  0  0  0
   78.6351   50.8922   45.0725 H   0  0  0  0  0  0
   79.4037   50.1228   38.0436 H   0  0  0  0  0  0
   80.3168   48.8741   38.9566 H   0  0  0  0  0  0
   81.6076   50.4092   40.0356 H   0  0  0  0  0  0
   81.2394   51.3673   38.5614 H   0  0  0  0  0  0
   77.8092   49.5498   39.6615 H   0  0  0  0  0  0
   79.0593   49.1727   40.8951 H   0  0  0  0  0  0
   80.6243   52.0642   41.2091 H   0  0  0  0  0  0
   79.9620   52.8165   39.7185 H   0  0  0  0  0  0
   74.3727   55.6167   38.6625 H   0  0  0  0  0  0
   73.0338   55.0022   39.6903 H   0  0  0  0  0  0
   73.3512   52.6052   40.3137 H   0  0  0  0  0  0
   74.8747   51.9306   39.6424 H   0  0  0  0  0  0
   74.6198   53.2720   37.6128 H   0  0  0  0  0  0
   77.8947   51.8189   40.0857 H   0  0  0  0  0  0
   74.9535   56.2026   42.7466 H   0  0  0  0  0  0
   74.4987   56.5036   41.0351 H   0  0  0  0  0  0
   76.1799   56.0228   41.4464 H   0  0  0  0  0  0
   73.7035   54.2824   41.8771 H   0  0  0  0  0  0
   74.7221   54.1615   44.0896 H   0  0  0  0  0  0
   76.0738   54.2267   39.9784 H   0  0  0  0  0  0
  1  2  2  0  0  0
  1  3  1  0  0  0
  1 28  1  0  0  0
  2 20  1  0  0  0
  2 29  1  0  0  0
  3 21  2  0  0  0
  3 30  1  0  0  0
  4  5  1  0  0  0
  4 22  2  0  0  0
  4 31  1  0  0  0
  5  6  2  0  0  0
  5  8  1  0  0  0
  6 23  1  0  0  0
  6 24  1  0  0  0
  7 16  1  0  0  0
  7 20  2  0  0  0
  7 21  1  0  0  0
  8 25  1  0  0  0
  8 27  2  0  0  0
  9 19  1  0  0  0
  9 23  2  0  0  0
  9 25  1  0  0  0
 10 11  1  0  0  0
 10 12  1  0  0  0
 10 32  1  0  0  0
 10 33  1  0  0  0
 11 13  1  0  0  0
 11 34  1  0  0  0
 11 35  1  0  0  0
 12 17  1  0  0  0
 12 36  1  0  0  0
 12 37  1  0  0  0
 13 17  1  0  0  0
 13 38  1  0  0  0
 13 39  1  0  0  0
 14 16  1  0  0  0
 14 26  1  0  0  0
 14 40  1  0  0  0
 14 41  1  0  0  0
 15 16  1  0  0  0
 15 26  1  0  0  0
 15 42  1  0  0  0
 15 43  1  0  0  0
 16 44  1  0  0  0
 17 24  1  0  0  0
 17 45  1  0  0  0
 18 19  1  0  0  0
 18 46  1  0  0  0
 18 47  1  0  0  0
 18 48  1  0  0  0
 19 26  1  0  0  0
 19 49  1  0  0  0
 22 24  1  0  0  0
 25 50  1  0  0  0
 26 51  1  0  0  0
M  CHG  1  26   1
M  END
> <s_m_source_file>
../4g2l_ligand.sdf

> <i_m_source_file_index>
1

> <s_epik_input>
bjFbY0hdW2NIXVtjSF1uYzFbQ0BIXTJbQ0gyXVtOQEgrXShbQ0gyXTIpW0NASF0oW0NIM10pYyhbbkhdYzM9TyluYyhjMzQpbihuW2NIXTQpW0NIXTVbQ0gyXVtDSDJdW0NIMl1bQ0gyXTU=

> <s_epik_cmdline>
J2VwaWtfYXBwJywgJy1pbWFlJywgJ2xpZ2FuZF9wcm8ubWFlJywgJy1vbWFlJywgJ2xpZ2FuZF9wcmVwLm1hZScsICctbXMnLCAnMScsICctcGgnLCAnNycsICctcGh0JywgJzAuNScsICctbnQn

> <r_lp_tautomer_probability>
1

> <r_epik_Ionization_Penalty>
  0.1564

> <r_epik_Ionization_Penalty_Charging>
  0.1564

> <r_epik_Ionization_Penalty_Neutral>
  0.0000

> <r_epik_State_Penalty>
  0.1311

> <r_epik_Charging_Adjusted_Penalty>
0.287473848497296

> <i_epik_Tot_Q>
1

> <i_epik_Tot_abs_Q>
1

> <s_epik_Chemistry_Notes>
This compound contains an electron-poor aromatic ring that is susceptible to covalent hydrolysis at low pH, typically resulting in measured values for nitrogen ring protonation that are around two units higher than predicted values.

$$$$
