4g2w_ligand
                    3D
 Schrodinger Suite 2020-3.
 63 65  0  0  1  0            999 V2000
   25.2740  -20.4470   22.7100 C   0  0  0  0  0  0
   23.9730  -21.1600   22.4980 C   0  0  0  0  0  0
   23.9090  -21.8460   21.2370 N   0  0  0  0  0  0
   23.4160  -23.2150   21.2580 C   0  0  0  0  0  0
   25.0440  -21.5520   20.4150 C   0  0  0  0  0  0
   26.3350  -21.8740   21.1040 C   0  0  0  0  0  0
   26.4370  -21.2250   22.3790 N   0  0  1  0  0  0
   27.9190  -20.6760   22.7910 S   0  0  0  0  0  0
   28.0710  -20.5790   24.2570 O   0  0  0  0  0  0
   28.9180  -21.5980   22.2020 O   0  0  0  0  0  0
   28.0580  -19.0290   22.1340 C   0  0  0  0  0  0
   28.3690  -18.8750   20.7700 C   0  0  0  0  0  0
   27.8430  -17.9220   22.9580 C   0  0  0  0  0  0
   27.9490  -16.6220   22.4100 C   0  0  0  0  0  0
   28.2580  -16.4580   21.0430 C   0  0  0  0  0  0
   28.3800  -15.1760   20.4820 O   0  0  0  0  0  0
   27.5360  -14.1100   20.8610 C   0  0  0  0  0  0
   27.8670  -12.7420   20.2900 C   0  0  0  0  0  0
   29.0630  -12.6440   19.3190 C   0  0  0  0  0  0
   28.4620  -17.5930   20.2330 C   0  0  0  0  0  0
   28.8330  -17.4900   18.7560 C   0  0  0  0  0  0
   28.1900  -18.2760   17.8700 N   0  0  0  0  0  0
   29.8250  -16.6580   18.3710 N   0  0  0  0  0  0
   30.1790  -16.5700   17.0490 C   0  0  0  0  0  0
   31.1870  -15.6950   16.6870 O   0  0  0  0  0  0
   29.5130  -17.3700   16.0870 C   0  0  0  0  0  0
   29.9060  -17.2930   14.5960 C   0  0  0  0  0  0
   31.0950  -18.1150   14.1860 C   0  0  0  0  0  0
   28.4900  -18.2530   16.5540 C   0  0  0  0  0  0
   27.6830  -19.1590   15.6430 C   0  0  0  0  0  0
   26.3560  -18.5030   15.2810 C   0  0  0  0  0  0
   25.3031  -19.5432   22.0837 H   0  0  0  0  0  0
   25.3681  -20.1628   23.7685 H   0  0  0  0  0  0
   23.8305  -21.9070   23.2928 H   0  0  0  0  0  0
   23.1478  -20.4332   22.5257 H   0  0  0  0  0  0
   22.5475  -23.2817   21.9298 H   0  0  0  0  0  0
   24.2104  -23.8853   21.6180 H   0  0  0  0  0  0
   23.1174  -23.5128   20.2420 H   0  0  0  0  0  0
   24.9908  -22.1458   19.4905 H   0  0  0  0  0  0
   25.0470  -20.4812   20.1633 H   0  0  0  0  0  0
   26.4044  -22.9601   21.2638 H   0  0  0  0  0  0
   27.1770  -21.5408   20.4795 H   0  0  0  0  0  0
   28.5353  -19.7493   20.1407 H   0  0  0  0  0  0
   27.5964  -18.0581   24.0110 H   0  0  0  0  0  0
   27.7922  -15.7484   23.0428 H   0  0  0  0  0  0
   26.5061  -14.3261   20.5408 H   0  0  0  0  0  0
   27.5629  -13.9919   21.9543 H   0  0  0  0  0  0
   27.0030  -12.3615   19.7255 H   0  0  0  0  0  0
   28.1024  -12.0491   21.1112 H   0  0  0  0  0  0
   29.1828  -11.6016   18.9889 H   0  0  0  0  0  0
   28.8795  -13.2865   18.4452 H   0  0  0  0  0  0
   29.9789  -12.9741   19.8310 H   0  0  0  0  0  0
   29.0658  -17.6407   13.9769 H   0  0  0  0  0  0
   30.1486  -16.2526   14.3340 H   0  0  0  0  0  0
   31.2792  -17.9819   13.1097 H   0  0  0  0  0  0
   30.8967  -19.1765   14.3955 H   0  0  0  0  0  0
   31.9795  -17.7884   14.7526 H   0  0  0  0  0  0
   28.2508  -19.3514   14.7207 H   0  0  0  0  0  0
   27.4835  -20.1113   16.1561 H   0  0  0  0  0  0
   25.7842  -19.1721   14.6212 H   0  0  0  0  0  0
   26.5466  -17.5517   14.7626 H   0  0  0  0  0  0
   25.7794  -18.3117   16.1980 H   0  0  0  0  0  0
   30.3523  -16.0477   19.1190 H   0  0  0  0  0  0
  1  2  1  0  0  0
  1  7  1  0  0  0
  1 32  1  0  0  0
  1 33  1  0  0  0
  2  3  1  0  0  0
  2 34  1  0  0  0
  2 35  1  0  0  0
  3  4  1  0  0  0
  3  5  1  0  0  0
  4 36  1  0  0  0
  4 37  1  0  0  0
  4 38  1  0  0  0
  5  6  1  0  0  0
  5 39  1  0  0  0
  5 40  1  0  0  0
  6  7  1  0  0  0
  6 41  1  0  0  0
  6 42  1  0  0  0
  7  8  1  0  0  0
  8  9  2  0  0  0
  8 10  2  0  0  0
  8 11  1  0  0  0
 11 12  2  0  0  0
 11 13  1  0  0  0
 12 20  1  0  0  0
 12 43  1  0  0  0
 13 14  2  0  0  0
 13 44  1  0  0  0
 14 15  1  0  0  0
 14 45  1  0  0  0
 15 16  1  0  0  0
 15 20  2  0  0  0
 16 17  1  0  0  0
 17 18  1  0  0  0
 17 46  1  0  0  0
 17 47  1  0  0  0
 18 19  1  0  0  0
 18 48  1  0  0  0
 18 49  1  0  0  0
 19 50  1  0  0  0
 19 51  1  0  0  0
 19 52  1  0  0  0
 20 21  1  0  0  0
 21 22  2  0  0  0
 21 23  1  0  0  0
 22 29  1  0  0  0
 23 24  1  0  0  0
 23 63  1  0  0  0
 24 25  2  0  0  0
 24 26  1  0  0  0
 26 27  1  0  0  0
 26 29  2  0  0  0
 27 28  1  0  0  0
 27 53  1  0  0  0
 27 54  1  0  0  0
 28 55  1  0  0  0
 28 56  1  0  0  0
 28 57  1  0  0  0
 29 30  1  0  0  0
 30 31  1  0  0  0
 30 58  1  0  0  0
 30 59  1  0  0  0
 31 60  1  0  0  0
 31 61  1  0  0  0
 31 62  1  0  0  0
M  END
> <s_m_source_file>
../4g2w_ligand.sdf

> <i_m_source_file_index>
1

> <s_epik_input>
W0NIM11bTkgrXTFbQ0gyXVtDSDJdTihbQ0gyXVtDSDJdMSlTKD1PKSg9TyljMltjSF1jKGMoW2NIXVtjSF0yKU9bQ0gyXVtDSDJdW0NIM10pLWMzbmMoW0NIMl1bQ0gzXSljKGMobjMpW09IXSlbQ0gyXVtDSDNd

> <s_epik_cmdline>
J2VwaWtfYXBwJywgJy1pbWFlJywgJ2xpZ2FuZF9wcm8ubWFlJywgJy1vbWFlJywgJ2xpZ2FuZF9wcmVwLm1hZScsICctbXMnLCAnMScsICctcGgnLCAnNycsICctcGh0JywgJzAuNScsICctbnQn

> <r_lp_tautomer_probability>
1

> <r_epik_Ionization_Penalty>
  0.1855

> <r_epik_Ionization_Penalty_Charging>
  0.0011

> <r_epik_Ionization_Penalty_Neutral>
  0.1844

> <r_epik_State_Penalty>
 -0.0000

> <r_epik_Charging_Adjusted_Penalty>
0.00106028824618547

> <i_epik_Tot_Q>
0

> <i_epik_Tot_abs_Q>
0

$$$$
