4g2y_ligand
                    3D
 Schrodinger Suite 2020-3.
 58 61  0  0  1  0            999 V2000
   32.0830  -31.8340  -44.2420 C   0  0  0  0  0  0
   30.6780  -32.3160  -44.0860 C   0  0  0  0  0  0
   30.1270  -32.0730  -42.7810 N   0  0  0  0  0  0
   28.8000  -32.6380  -42.5390 C   0  0  0  0  0  0
   30.3720  -30.7490  -42.3040 C   0  0  0  0  0  0
   31.8060  -30.3500  -42.4110 C   0  0  0  0  0  0
   32.2590  -30.5050  -43.7560 N   0  0  1  0  0  0
   33.4770  -29.5600  -44.3360 S   0  0  0  0  0  0
   33.3270  -28.1730  -43.8030 O   0  0  0  0  0  0
   33.4640  -29.5370  -45.8260 O   0  0  0  0  0  0
   35.0130  -30.3230  -43.7830 C   0  0  0  0  0  0
   35.4970  -30.0950  -42.4980 C   0  0  0  0  0  0
   35.7120  -31.1570  -44.6370 C   0  0  0  0  0  0
   36.8940  -31.7570  -44.2100 C   0  0  0  0  0  0
   37.3780  -31.5260  -42.9200 C   0  0  0  0  0  0
   38.5430  -32.1210  -42.5200 O   0  0  0  0  0  0
   39.2410  -33.0060  -43.3450 C   0  0  0  0  0  0
   40.2930  -33.7090  -42.5700 C   0  0  0  0  0  0
   41.0780  -32.7100  -41.7130 C   0  0  0  0  0  0
   36.6640  -30.7130  -42.0580 C   0  0  0  0  0  0
   37.1170  -30.3960  -40.7140 C   0  0  0  0  0  0
   36.2270  -30.2610  -39.6840 N   0  0  0  0  0  0
   36.6810  -29.9070  -38.4120 C   0  0  0  0  0  0
   36.0160  -29.6900  -37.0910 C   0  0  0  0  0  0
   37.0110  -28.9370  -36.2720 C   0  0  0  0  0  0
   38.3550  -29.3240  -36.7740 C   0  0  0  0  0  0
   38.1010  -29.6820  -38.2080 C   0  0  0  0  0  0
   38.9920  -29.8370  -39.3030 C   0  0  0  0  0  0
   40.3360  -29.6270  -39.1130 O   0  0  0  0  0  0
   38.4820  -30.1760  -40.5270 N   0  0  0  0  0  0
   32.7613  -32.4934  -43.6807 H   0  0  0  0  0  0
   32.3585  -31.8454  -45.3069 H   0  0  0  0  0  0
   30.0320  -31.8051  -44.8152 H   0  0  0  0  0  0
   30.6412  -33.4014  -44.2607 H   0  0  0  0  0  0
   28.7526  -33.6546  -42.9565 H   0  0  0  0  0  0
   28.0393  -32.0073  -43.0222 H   0  0  0  0  0  0
   28.6100  -32.6771  -41.4562 H   0  0  0  0  0  0
   29.7798  -30.0321  -42.8917 H   0  0  0  0  0  0
   30.0834  -30.6816  -41.2447 H   0  0  0  0  0  0
   31.9170  -29.2974  -42.1116 H   0  0  0  0  0  0
   32.4137  -30.9853  -41.7498 H   0  0  0  0  0  0
   34.9564  -29.4253  -41.8291 H   0  0  0  0  0  0
   35.3379  -31.3444  -45.6435 H   0  0  0  0  0  0
   37.4448  -32.4107  -44.8863 H   0  0  0  0  0  0
   38.5432  -33.7483  -43.7598 H   0  0  0  0  0  0
   39.7126  -32.4469  -44.1666 H   0  0  0  0  0  0
   39.8259  -34.4572  -41.9127 H   0  0  0  0  0  0
   40.9852  -34.2104  -43.2624 H   0  0  0  0  0  0
   41.8535  -33.2444  -41.1447 H   0  0  0  0  0  0
   40.3923  -32.2077  -41.0148 H   0  0  0  0  0  0
   41.5516  -31.9608  -42.3645 H   0  0  0  0  0  0
   35.0915  -29.1120  -37.2365 H   0  0  0  0  0  0
   35.7729  -30.6628  -36.6386 H   0  0  0  0  0  0
   36.8434  -27.8567  -36.3935 H   0  0  0  0  0  0
   36.8950  -29.2092  -35.2125 H   0  0  0  0  0  0
   39.0443  -28.4731  -36.6700 H   0  0  0  0  0  0
   38.7333  -30.1758  -36.1898 H   0  0  0  0  0  0
   39.1761  -30.2739  -41.3747 H   0  0  0  0  0  0
  1  2  1  0  0  0
  1  7  1  0  0  0
  1 31  1  0  0  0
  1 32  1  0  0  0
  2  3  1  0  0  0
  2 33  1  0  0  0
  2 34  1  0  0  0
  3  4  1  0  0  0
  3  5  1  0  0  0
  4 35  1  0  0  0
  4 36  1  0  0  0
  4 37  1  0  0  0
  5  6  1  0  0  0
  5 38  1  0  0  0
  5 39  1  0  0  0
  6  7  1  0  0  0
  6 40  1  0  0  0
  6 41  1  0  0  0
  7  8  1  0  0  0
  8  9  2  0  0  0
  8 10  2  0  0  0
  8 11  1  0  0  0
 11 12  2  0  0  0
 11 13  1  0  0  0
 12 20  1  0  0  0
 12 42  1  0  0  0
 13 14  2  0  0  0
 13 43  1  0  0  0
 14 15  1  0  0  0
 14 44  1  0  0  0
 15 16  1  0  0  0
 15 20  2  0  0  0
 16 17  1  0  0  0
 17 18  1  0  0  0
 17 45  1  0  0  0
 17 46  1  0  0  0
 18 19  1  0  0  0
 18 47  1  0  0  0
 18 48  1  0  0  0
 19 49  1  0  0  0
 19 50  1  0  0  0
 19 51  1  0  0  0
 20 21  1  0  0  0
 21 22  2  0  0  0
 21 30  1  0  0  0
 22 23  1  0  0  0
 23 24  1  0  0  0
 23 27  2  0  0  0
 24 25  1  0  0  0
 24 52  1  0  0  0
 24 53  1  0  0  0
 25 26  1  0  0  0
 25 54  1  0  0  0
 25 55  1  0  0  0
 26 27  1  0  0  0
 26 56  1  0  0  0
 26 57  1  0  0  0
 27 28  1  0  0  0
 28 29  2  0  0  0
 28 30  1  0  0  0
 30 58  1  0  0  0
M  END
> <s_m_source_file>
../4g2y_ligand.sdf

> <i_m_source_file_index>
1

> <s_epik_input>
W0NIM11bTkgrXTFbQ0gyXVtDSDJdTihbQ0gyXVtDSDJdMSlTKD1PKSg9TyljMltjSF1jKGMoW2NIXVtjSF0yKU9bQ0gyXVtDSDJdW0NIM10pLWMobjMpW25IXWMoPU8pYyhjMzQpW0NIMl1bQ0gyXVtDSDJdNA==

> <s_epik_cmdline>
J2VwaWtfYXBwJywgJy1pbWFlJywgJ2xpZ2FuZF9wcm8ubWFlJywgJy1vbWFlJywgJ2xpZ2FuZF9wcmVwLm1hZScsICctbXMnLCAnMScsICctcGgnLCAnNycsICctcGh0JywgJzAuNScsICctbnQn

> <r_lp_tautomer_probability>
0.839158042097895

> <r_epik_Ionization_Penalty>
  0.1855

> <r_epik_Ionization_Penalty_Charging>
  0.0011

> <r_epik_Ionization_Penalty_Neutral>
  0.1844

> <r_epik_State_Penalty>
  0.1740

> <r_epik_Charging_Adjusted_Penalty>
0.175042982179756

> <i_epik_Tot_Q>
0

> <i_epik_Tot_abs_Q>
0

$$$$
