4g31_ligand
                    3D
 Schrodinger Suite 2020-3.
 51 55  0  0  1  0            999 V2000
  -47.7950   12.4100    9.3600 C   0  0  0  0  0  0
  -51.5090    9.3760   -2.5890 F   0  0  0  0  0  0
  -47.4850   11.7710   10.5920 N   0  0  0  0  0  0
  -45.9760   12.3650    0.7820 O   0  0  0  0  0  0
  -48.5860   14.6970   10.0840 C   0  0  0  0  0  0
  -51.0700   10.8910   -4.0580 F   0  0  0  0  0  0
  -48.2930   13.7290    9.1100 N   0  0  0  0  0  0
  -48.4190   13.8540    7.7540 C   0  0  0  0  0  0
  -50.6960    8.7590   -4.5210 F   0  0  0  0  0  0
  -48.1720   12.3320    1.4600 N   0  0  0  0  0  0
  -48.0490   12.6880    7.1650 C   0  0  0  0  0  0
  -46.9610    9.7170    7.0010 N   0  0  0  0  0  0
  -48.0380   12.5320    5.6890 C   0  0  0  0  0  0
  -46.8500    9.8630    9.4500 N   0  0  0  0  0  0
  -46.7340   12.2890    5.0010 C   0  0  0  0  0  0
  -46.6890   12.1840    3.6700 C   0  0  0  0  0  0
  -47.9180   12.3110    2.8980 C   0  0  0  0  0  0
  -49.5960   12.4130    1.2240 C   0  0  0  0  0  0
  -50.2280   12.7160    2.5170 C   0  0  0  0  0  0
  -49.1770   12.6030    3.5590 C   0  0  0  0  0  0
  -49.2340   12.7140    4.9080 C   0  0  0  0  0  0
  -47.0990   12.4010    0.4370 C   0  0  0  0  0  0
  -47.4390   12.5330   -0.9610 C   0  0  0  0  0  0
  -47.7300   11.2120   -1.6940 C   0  0  0  0  0  0
  -46.6920   10.1890   -1.8540 C   0  0  0  0  0  0
  -46.9920    9.0340   -2.5220 C   0  0  0  0  0  0
  -48.3160    8.8470   -3.0900 C   0  0  0  0  0  0
  -49.2910    9.8340   -2.9350 C   0  0  0  0  0  0
  -48.9790   11.0440   -2.2250 C   0  0  0  0  0  0
  -50.6940    9.6840   -3.5230 C   0  0  0  0  0  0
  -47.6310   11.7780    8.2100 C   0  0  0  0  0  0
  -47.1590   10.4890    8.2180 C   0  0  0  0  0  0
  -47.0110   10.4900   10.5800 C   0  0  0  0  0  0
  -48.3778   14.2866   11.0831 H   0  0  0  0  0  0
  -49.6479   14.9757   10.0161 H   0  0  0  0  0  0
  -47.9618   15.5870    9.9158 H   0  0  0  0  0  0
  -48.7615   14.7464    7.2302 H   0  0  0  0  0  0
  -46.5801    8.6867    7.0591 H   0  0  0  0  0  0
  -47.1921   10.1636    6.0227 H   0  0  0  0  0  0
  -45.8187   12.1973    5.5857 H   0  0  0  0  0  0
  -45.7397   12.0046    3.1653 H   0  0  0  0  0  0
  -50.1044   12.2757    0.2696 H   0  0  0  0  0  0
  -51.2741   12.9754    2.6799 H   0  0  0  0  0  0
  -50.1802   12.9399    5.3996 H   0  0  0  0  0  0
  -48.3429   13.1517   -1.0617 H   0  0  0  0  0  0
  -46.6060   13.0109   -1.4974 H   0  0  0  0  0  0
  -45.6938   10.3470   -1.4457 H   0  0  0  0  0  0
  -46.2380    8.2540   -2.6282 H   0  0  0  0  0  0
  -48.5486    7.9341   -3.6383 H   0  0  0  0  0  0
  -49.7330   11.8228   -2.1105 H   0  0  0  0  0  0
  -46.7670    9.9915   11.5181 H   0  0  0  0  0  0
  1  3  1  0  0  0
  1  7  1  0  0  0
  1 31  2  0  0  0
  2 30  1  0  0  0
  3 33  2  0  0  0
  4 22  2  0  0  0
  5  7  1  0  0  0
  5 34  1  0  0  0
  5 35  1  0  0  0
  5 36  1  0  0  0
  6 30  1  0  0  0
  7  8  1  0  0  0
  8 11  2  0  0  0
  8 37  1  0  0  0
  9 30  1  0  0  0
 10 17  1  0  0  0
 10 18  1  0  0  0
 10 22  1  0  0  0
 11 13  1  0  0  0
 11 31  1  0  0  0
 12 32  1  0  0  0
 12 38  1  0  0  0
 12 39  1  0  0  0
 13 15  1  0  0  0
 13 21  2  0  0  0
 14 32  2  0  0  0
 14 33  1  0  0  0
 15 16  2  0  0  0
 15 40  1  0  0  0
 16 17  1  0  0  0
 16 41  1  0  0  0
 17 20  2  0  0  0
 18 19  2  0  0  0
 18 42  1  0  0  0
 19 20  1  0  0  0
 19 43  1  0  0  0
 20 21  1  0  0  0
 21 44  1  0  0  0
 22 23  1  0  0  0
 23 24  1  0  0  0
 23 45  1  0  0  0
 23 46  1  0  0  0
 24 25  2  0  0  0
 24 29  1  0  0  0
 25 26  1  0  0  0
 25 47  1  0  0  0
 26 27  2  0  0  0
 26 48  1  0  0  0
 27 28  1  0  0  0
 27 49  1  0  0  0
 28 29  2  0  0  0
 28 30  1  0  0  0
 29 50  1  0  0  0
 31 32  1  0  0  0
 33 51  1  0  0  0
M  END
> <s_m_source_file>
../4g31_ligand.sdf

> <i_m_source_file_index>
1

> <s_epik_input>
bjFbY0hdbmMoW05IMl0pYyhjMTIpYyhbY0hdbjJbQ0gzXSktYyhbY0hdW2NIXTMpW2NIXWMoYzM0KVtjSF1bY0hdbjRDKD1PKVtDSDJdYzVbY0hdW2NIXVtjSF1jKFtjSF01KUMoRikoRilG

> <s_epik_cmdline>
J2VwaWtfYXBwJywgJy1pbWFlJywgJ2xpZ2FuZF9wcm8ubWFlJywgJy1vbWFlJywgJ2xpZ2FuZF9wcmVwLm1hZScsICctbXMnLCAnMScsICctcGgnLCAnNycsICctcGh0JywgJzAuNScsICctbnQn

> <r_epik_Ionization_Penalty>
  0.0177

> <r_epik_Ionization_Penalty_Charging>
  0.0000

> <r_epik_Ionization_Penalty_Neutral>
  0.0177

> <r_epik_State_Penalty>
  0.0138

> <r_epik_Charging_Adjusted_Penalty>
0.0138438069959586

> <i_epik_Tot_Q>
0

> <i_epik_Tot_abs_Q>
0

$$$$
