4g34_ligand
                    3D
 Schrodinger Suite 2020-3.
 46 50  0  0  1  0            999 V2000
   47.0180   -9.9350    7.0460 N   0  0  0  0  0  0
   47.2140  -10.6190    8.2440 C   0  0  0  0  0  0
   46.8670  -10.0060    9.3830 N   0  3  0  0  0  0
   47.0400  -10.6300   10.5460 C   0  0  0  0  0  0
   47.5620  -11.8880   10.7040 C   0  0  0  0  0  0
   47.9120  -12.5040    9.5250 C   0  0  0  0  0  0
   48.5950  -14.0780    9.4050 S   0  0  0  0  0  0
   48.6580  -13.9650    7.6940 C   0  0  0  0  0  0
   48.1840  -12.7580    7.2220 C   0  0  0  0  0  0
   48.1470  -12.5700    5.7850 C   0  0  0  0  0  0
   46.9230  -12.4340    5.1510 C   0  0  0  0  0  0
   46.8350  -12.3090    3.7800 C   0  0  0  0  0  0
   48.0130  -12.3230    3.0670 C   0  0  0  0  0  0
   48.2080  -12.2130    1.6830 N   0  0  0  0  0  0
   49.6250  -12.2820    1.3920 C   0  0  0  0  0  0
   50.3490  -12.4390    2.7180 C   0  0  0  0  0  0
   49.2240  -12.4450    3.6860 C   0  0  0  0  0  0
   49.3190  -12.5800    5.0510 C   0  0  0  0  0  0
   47.2030  -12.3330    0.7390 C   0  0  0  0  0  0
   46.0080  -12.2190    0.9750 O   0  0  0  0  0  0
   47.6820  -12.5850   -0.6600 C   0  0  0  0  0  0
   47.6830  -11.3020   -1.4080 C   0  0  0  0  0  0
   48.8780  -10.7000   -1.7390 C   0  0  0  0  0  0
   48.8870   -9.5020   -2.4270 C   0  0  0  0  0  0
   47.6980   -8.9060   -2.7890 C   0  0  0  0  0  0
   46.5000   -9.5050   -2.4630 C   0  0  0  0  0  0
   46.4950  -10.6990   -1.7720 C   0  0  0  0  0  0
   47.7510  -11.8990    8.2780 C   0  0  0  0  0  0
   46.5901   -8.9217    7.0549 H   0  0  0  0  0  0
   47.2912  -10.4083    6.0914 H   0  0  0  0  0  0
   46.7417  -10.0962   11.4483 H   0  0  0  0  0  0
   47.6886  -12.3589   11.6789 H   0  0  0  0  0  0
   49.0320  -14.7606    7.0496 H   0  0  0  0  0  0
   46.0108  -12.4256    5.7475 H   0  0  0  0  0  0
   45.8717  -12.2034    3.2811 H   0  0  0  0  0  0
   50.0859  -12.2308    0.4056 H   0  0  0  0  0  0
   51.4186  -12.5250    2.9093 H   0  0  0  0  0  0
   50.2873  -12.6914    5.5390 H   0  0  0  0  0  0
   48.7011  -12.9980   -0.6298 H   0  0  0  0  0  0
   47.0101  -13.3023   -1.1540 H   0  0  0  0  0  0
   49.8196  -11.1710   -1.4568 H   0  0  0  0  0  0
   49.8344   -9.0281   -2.6836 H   0  0  0  0  0  0
   47.7050   -7.9614   -3.3328 H   0  0  0  0  0  0
   45.5589   -9.0363   -2.7505 H   0  0  0  0  0  0
   45.5470  -11.1697   -1.5115 H   0  0  0  0  0  0
   46.4415   -8.9921    9.3543 H   0  0  0  0  0  0
  1  2  1  0  0  0
  1 29  1  0  0  0
  1 30  1  0  0  0
  2  3  1  0  0  0
  2 28  2  0  0  0
  3  4  2  0  0  0
  3 46  1  0  0  0
  4  5  1  0  0  0
  4 31  1  0  0  0
  5  6  2  0  0  0
  5 32  1  0  0  0
  6  7  1  0  0  0
  6 28  1  0  0  0
  7  8  1  0  0  0
  8  9  2  0  0  0
  8 33  1  0  0  0
  9 10  1  0  0  0
  9 28  1  0  0  0
 10 11  1  0  0  0
 10 18  2  0  0  0
 11 12  2  0  0  0
 11 34  1  0  0  0
 12 13  1  0  0  0
 12 35  1  0  0  0
 13 14  1  0  0  0
 13 17  2  0  0  0
 14 15  1  0  0  0
 14 19  1  0  0  0
 15 16  2  0  0  0
 15 36  1  0  0  0
 16 17  1  0  0  0
 16 37  1  0  0  0
 17 18  1  0  0  0
 18 38  1  0  0  0
 19 20  2  0  0  0
 19 21  1  0  0  0
 21 22  1  0  0  0
 21 39  1  0  0  0
 21 40  1  0  0  0
 22 23  2  0  0  0
 22 27  1  0  0  0
 23 24  1  0  0  0
 23 41  1  0  0  0
 24 25  2  0  0  0
 24 42  1  0  0  0
 25 26  1  0  0  0
 25 43  1  0  0  0
 26 27  2  0  0  0
 26 44  1  0  0  0
 27 45  1  0  0  0
M  CHG  1   3   1
M  END
> <s_m_source_file>
../4g34_ligand.sdf

> <i_m_source_file_index>
1

> <s_epik_input>
W2NIXTFbY0hdbmMoW05IMl0pYyhjMTIpYyhbY0hdczIpLWMoW2NIXVtjSF0zKVtjSF1jKGMzNClbY0hdW2NIXW40Qyg9TylbQ0gyXWM1W2NIXVtjSF1bY0hdW2NIXVtjSF01

> <s_epik_cmdline>
J2VwaWtfYXBwJywgJy1pbWFlJywgJ2xpZ2FuZF9wcm8ubWFlJywgJy1vbWFlJywgJ2xpZ2FuZF9wcmVwLm1hZScsICctbXMnLCAnMScsICctcGgnLCAnNycsICctcGh0JywgJzAuNScsICctbnQn

> <r_epik_Ionization_Penalty>
  0.1985

> <r_epik_Ionization_Penalty_Charging>
  0.1985

> <r_epik_Ionization_Penalty_Neutral>
  0.0000

> <r_epik_State_Penalty>
  0.1883

> <r_epik_Charging_Adjusted_Penalty>
0.386778062936322

> <i_epik_Tot_Q>
1

> <i_epik_Tot_abs_Q>
1

$$$$
