4g3e_ligand
                    3D
 Schrodinger Suite 2020-3.
 41 44  0  0  1  0            999 V2000
   50.6600   30.1950   -2.8550 C   0  0  0  0  0  0
   51.6720   29.8080   -2.3830 C   0  0  0  0  0  0
   52.8860   29.3390   -1.7880 C   0  0  0  0  0  0
   53.9080   28.9350   -2.6430 C   0  0  0  0  0  0
   55.1010   28.4840   -2.1260 C   0  0  0  0  0  0
   56.5000   27.9560    0.0230 C   0  0  0  0  0  0
   54.7150   28.6720    1.4660 N   0  0  0  0  0  0
   54.2900   28.8100    0.1300 C   0  0  0  0  0  0
   53.9390   28.9580    2.5970 C   0  0  0  0  0  0
   51.9580   29.8610    3.4200 C   0  0  0  0  0  0
   53.4200   28.9810    4.9530 C   0  0  0  0  0  0
   54.3060   28.6400    3.9360 C   0  0  0  0  0  0
   46.1210   29.2260   -1.7610 C   0  0  0  0  0  0
   49.3540   32.1780   -3.3590 C   0  0  0  0  0  0
   49.4160   30.6660   -3.5000 C   0  0  1  0  0  0
   49.3780   30.3720   -4.9060 O   0  0  0  0  0  0
   55.2920   28.4170   -0.7580 C   0  0  0  0  0  0
   56.1430   28.3100    1.4720 C   0  0  0  0  0  0
   53.0780   29.2810   -0.4030 C   0  0  0  0  0  0
   52.7650   29.5630    2.4090 N   0  0  0  0  0  0
   50.7500   30.4660    3.1620 N   0  0  0  0  0  0
   52.2670   29.5790    4.6730 N   0  0  0  0  0  0
   55.7950   27.8490    4.4090 Cl  0  0  0  0  0  0
   48.2310   29.9950   -2.8330 C   0  0  0  0  0  0
   48.1600   28.7400   -2.5510 N   0  0  0  0  0  0
   47.0530   28.2990   -1.9770 C   0  0  0  0  0  0
   46.7740   30.7500   -2.3530 S   0  0  0  0  0  0
   53.7631   28.9760   -3.7225 H   0  0  0  0  0  0
   55.9012   28.1774   -2.7997 H   0  0  0  0  0  0
   57.4080   27.4846   -0.3531 H   0  0  0  0  0  0
   53.6740   28.7556    5.9887 H   0  0  0  0  0  0
   45.1429   29.0709   -1.3056 H   0  0  0  0  0  0
   50.2272   32.6285   -3.8535 H   0  0  0  0  0  0
   49.3572   32.4472   -2.2925 H   0  0  0  0  0  0
   48.4327   32.5526   -3.8290 H   0  0  0  0  0  0
   50.1575   30.7699   -5.5724 H   0  0  0  0  0  0
   56.8113   28.2965    2.3329 H   0  0  0  0  0  0
   52.2814   29.6036    0.2674 H   0  0  0  0  0  0
   50.4678   30.7118    2.1276 H   0  0  0  0  0  0
   50.0661   30.7041    3.9900 H   0  0  0  0  0  0
   46.9135   27.2538   -1.7010 H   0  0  0  0  0  0
  1  2  3  0  0  0
  1 15  1  0  0  0
  2  3  1  0  0  0
  3  4  2  0  0  0
  3 19  1  0  0  0
  4  5  1  0  0  0
  4 28  1  0  0  0
  5 17  2  0  0  0
  5 29  1  0  0  0
  6 17  1  0  0  0
  6 18  2  0  0  0
  6 30  1  0  0  0
  7  8  1  0  0  0
  7  9  1  0  0  0
  7 18  1  0  0  0
  8 17  1  0  0  0
  8 19  2  0  0  0
  9 12  2  0  0  0
  9 20  1  0  0  0
 10 20  2  0  0  0
 10 21  1  0  0  0
 10 22  1  0  0  0
 11 12  1  0  0  0
 11 22  2  0  0  0
 11 31  1  0  0  0
 12 23  1  0  0  0
 13 26  2  0  0  0
 13 27  1  0  0  0
 13 32  1  0  0  0
 14 15  1  0  0  0
 14 33  1  0  0  0
 14 34  1  0  0  0
 14 35  1  0  0  0
 15 16  1  0  0  0
 15 24  1  0  0  0
 16 36  1  0  0  0
 18 37  1  0  0  0
 19 38  1  0  0  0
 21 39  1  0  0  0
 21 40  1  0  0  0
 24 25  2  0  0  0
 24 27  1  0  0  0
 25 26  1  0  0  0
 26 41  1  0  0  0
M  END
> <s_m_source_file>
../4g3e_ligand.sdf

> <i_m_source_file_index>
1

> <s_epik_input>
czFbY0hdW2NIXW5jMVtDQF0oW0NIM10pKFtPSF0pQyNDYyhbY0hdMilbY0hdW2NIXWMoYzIzKVtjSF1bY0hdbjMtYzRjKENsKVtjSF1uYyhuNClbTkgyXQ==

> <s_epik_cmdline>
J2VwaWtfYXBwJywgJy1pbWFlJywgJ2xpZ2FuZF9wcm8ubWFlJywgJy1vbWFlJywgJ2xpZ2FuZF9wcmVwLm1hZScsICctbXMnLCAnMScsICctcGgnLCAnNycsICctcGh0JywgJzAuNScsICctbnQn

> <r_lp_tautomer_probability>
1

> <r_epik_Ionization_Penalty>
  0.0000

> <r_epik_Ionization_Penalty_Charging>
  0.0000

> <r_epik_Ionization_Penalty_Neutral>
  0.0000

> <r_epik_State_Penalty>
 -0.0000

> <r_epik_Charging_Adjusted_Penalty>
0

> <i_epik_Tot_Q>
0

> <i_epik_Tot_abs_Q>
0

$$$$
