4g4p_ligand
                    3D
 Schrodinger Suite 2020-3.
 20 19  0  0  1  0            999 V2000
   27.6690   21.6780   28.4600 N   0  3  0  0  0  0
   27.2940   20.7900   27.3240 C   0  0  2  0  0  0
   25.9120   21.1230   26.8390 C   0  0  0  0  0  0
   25.1950   21.8720   27.5230 O   0  0  0  0  0  0
   27.3570   19.3160   27.7090 C   0  0  0  0  0  0
   26.3600   18.8510   28.7610 C   0  0  0  0  0  0
   26.5040   17.3670   29.0820 C   0  0  0  0  0  0
   27.0650   16.5850   28.3040 O   0  0  0  0  0  0
   25.9840   16.9720   30.2420 N   0  0  0  0  0  0
   25.5230   20.6580   25.7540 O   0  5  0  0  0  0
   27.6101   22.7285   28.1391 H   0  0  0  0  0  0
   28.6962   21.4495   28.7804 H   0  0  0  0  0  0
   26.9776   21.5116   29.2992 H   0  0  0  0  0  0
   28.0231   20.9854   26.5238 H   0  0  0  0  0  0
   27.1695   18.6964   26.8196 H   0  0  0  0  0  0
   28.3535   19.0849   28.1134 H   0  0  0  0  0  0
   26.5178   19.4167   29.6911 H   0  0  0  0  0  0
   25.3362   19.0221   28.3969 H   0  0  0  0  0  0
   25.4942   17.7027   30.9024 H   0  0  0  0  0  0
   26.0441   15.9149   30.5401 H   0  0  0  0  0  0
  1  2  1  0  0  0
  1 11  1  0  0  0
  1 12  1  0  0  0
  1 13  1  0  0  0
  2  3  1  0  0  0
  2  5  1  0  0  0
  2 14  1  0  0  0
  3  4  2  0  0  0
  3 10  1  0  0  0
  5  6  1  0  0  0
  5 15  1  0  0  0
  5 16  1  0  0  0
  6  7  1  0  0  0
  6 17  1  0  0  0
  6 18  1  0  0  0
  7  8  2  0  0  0
  7  9  1  0  0  0
  9 19  1  0  0  0
  9 20  1  0  0  0
M  CHG  2   1   1  10  -1
M  END
> <s_m_source_file>
../4g4p_ligand.sdf

> <i_m_source_file_index>
1

> <s_epik_input>
Tz1DKFtPSF0pW0NAQEhdKFtOSDMrXSlbQ0gyXVtDSDJdQyg9TylbTkgyXQ==

> <s_epik_cmdline>
J2VwaWtfYXBwJywgJy1pbWFlJywgJ2xpZ2FuZF9wcm8ubWFlJywgJy1vbWFlJywgJ2xpZ2FuZF9wcmVwLm1hZScsICctbXMnLCAnMScsICctcGgnLCAnNycsICctcGh0JywgJzAuNScsICctbnQn

> <r_lp_tautomer_probability>
1

> <r_epik_Ionization_Penalty>
  0.0024

> <r_epik_Ionization_Penalty_Charging>
  0.0024

> <r_epik_Ionization_Penalty_Neutral>
  0.0000

> <r_epik_State_Penalty>
 -0.0000

> <r_epik_Charging_Adjusted_Penalty>
0.0024278191861647

> <i_epik_Tot_Q>
0

> <i_epik_Tot_abs_Q>
2

$$$$
