4g5f_ligand
                    3D
 Schrodinger Suite 2020-3.
 20 21  0  0  1  0            999 V2000
   15.3510   12.9380    3.7350 O   0  0  0  0  0  0
   15.3980   11.8060    3.4780 C   0  0  0  0  0  0
   15.6690   11.3670    2.3650 O   0  5  0  0  0  0
   15.1710   10.6630    4.4500 C   0  0  1  0  0  0
   14.5400   11.2010    5.5880 O   0  0  0  0  0  0
   14.0900   10.2450    6.4410 C   0  0  0  0  0  0
   13.6780   10.6390    7.6740 C   0  0  0  0  0  0
   13.3580    9.6910    8.6100 C   0  0  0  0  0  0
   13.4400    8.3710    8.3060 C   0  0  0  0  0  0
   13.8380    7.9630    7.0570 C   0  0  0  0  0  0
   14.1550    8.9000    6.1240 C   0  0  0  0  0  0
   14.3670    8.4670    4.8490 O   0  0  0  0  0  0
   14.4360    9.4920    3.8830 C   0  0  0  0  0  0
   16.1268   10.2350    4.7865 H   0  0  0  0  0  0
   13.6027   11.6990    7.9164 H   0  0  0  0  0  0
   13.0357    9.9989    9.6047 H   0  0  0  0  0  0
   13.1872    7.6269    9.0613 H   0  0  0  0  0  0
   13.8991    6.9016    6.8164 H   0  0  0  0  0  0
   13.4180    9.7994    3.6015 H   0  0  0  0  0  0
   14.9665    9.1219    2.9933 H   0  0  0  0  0  0
  1  2  2  0  0  0
  2  3  1  0  0  0
  2  4  1  0  0  0
  4  5  1  0  0  0
  4 13  1  0  0  0
  4 14  1  0  0  0
  5  6  1  0  0  0
  6  7  2  0  0  0
  6 11  1  0  0  0
  7  8  1  0  0  0
  7 15  1  0  0  0
  8  9  2  0  0  0
  8 16  1  0  0  0
  9 10  1  0  0  0
  9 17  1  0  0  0
 10 11  2  0  0  0
 10 18  1  0  0  0
 11 12  1  0  0  0
 12 13  1  0  0  0
 13 19  1  0  0  0
 13 20  1  0  0  0
M  CHG  1   3  -1
M  END
> <s_m_source_file>
../4g5f_ligand.sdf

> <i_m_source_file_index>
1

> <s_epik_input>
Tz1DKFtPSF0pW0NAQEhdKE8xKVtDSDJdT2MoYzEyKVtjSF1bY0hdW2NIXVtjSF0y

> <s_epik_cmdline>
J2VwaWtfYXBwJywgJy1pbWFlJywgJ2xpZ2FuZF9wcm8ubWFlJywgJy1vbWFlJywgJ2xpZ2FuZF9wcmVwLm1hZScsICctbXMnLCAnMScsICctcGgnLCAnNycsICctcGh0JywgJzAuNScsICctbnQn

> <r_lp_tautomer_probability>
1

> <r_epik_Ionization_Penalty>
  0.0000

> <r_epik_Ionization_Penalty_Charging>
  0.0000

> <r_epik_Ionization_Penalty_Neutral>
  0.0000

> <r_epik_State_Penalty>
 -0.0000

> <r_epik_Charging_Adjusted_Penalty>
3.41963150127083e-05

> <i_epik_Tot_Q>
-1

> <i_epik_Tot_abs_Q>
1

$$$$
