4g5y_ligand
                    3D
 Schrodinger Suite 2020-3.
 20 20  0  0  1  0            999 V2000
   13.8780   10.2280    6.7540 C   0  0  0  0  0  0
   13.9580    9.2120    7.7850 N   0  0  0  0  0  0
   13.7960    7.7860    7.4870 C   0  0  0  0  0  0
   13.2480    9.7080    9.2370 S   0  0  0  0  0  0
   12.4750   10.9840    9.1880 O   0  0  0  0  0  0
   12.5210    8.5750    9.8230 O   0  0  0  0  0  0
   14.7200    9.9480   10.0240 C   0  0  0  0  0  0
   15.4300    8.9000   10.4560 C   0  0  0  0  0  0
   16.5730    9.2870   11.0480 C   0  0  0  0  0  0
   16.6650   11.0170   10.9340 S   0  0  0  0  0  0
   15.1830   11.1930   10.1730 C   0  0  0  0  0  0
   14.3527    9.8553    5.8343 H   0  0  0  0  0  0
   14.3980   11.1361    7.0930 H   0  0  0  0  0  0
   12.8226   10.4635    6.5524 H   0  0  0  0  0  0
   14.2859    7.5535    6.5300 H   0  0  0  0  0  0
   12.7249    7.5451    7.4187 H   0  0  0  0  0  0
   14.2556    7.1894    8.2887 H   0  0  0  0  0  0
   15.1202    7.8612   10.3421 H   0  0  0  0  0  0
   17.3092    8.6329   11.5152 H   0  0  0  0  0  0
   14.7010   12.1212    9.8660 H   0  0  0  0  0  0
  1  2  1  0  0  0
  1 12  1  0  0  0
  1 13  1  0  0  0
  1 14  1  0  0  0
  2  3  1  0  0  0
  2  4  1  0  0  0
  3 15  1  0  0  0
  3 16  1  0  0  0
  3 17  1  0  0  0
  4  5  2  0  0  0
  4  6  2  0  0  0
  4  7  1  0  0  0
  7  8  1  0  0  0
  7 11  2  0  0  0
  8  9  2  0  0  0
  8 18  1  0  0  0
  9 10  1  0  0  0
  9 19  1  0  0  0
 10 11  1  0  0  0
 11 20  1  0  0  0
M  END
> <s_m_source_file>
../4g5y_ligand.sdf

> <i_m_source_file_index>
1

> <s_epik_input>
W0NIM11OKFtDSDNdKVMoPU8pKD1PKWMxW2NIXVtjSF1zW2NIXTE=

> <s_epik_cmdline>
J2VwaWtfYXBwJywgJy1pbWFlJywgJ2xpZ2FuZF9wcm8ubWFlJywgJy1vbWFlJywgJ2xpZ2FuZF9wcmVwLm1hZScsICctbXMnLCAnMScsICctcGgnLCAnNycsICctcGh0JywgJzAuNScsICctbnQn

> <r_lp_tautomer_probability>
1

> <r_epik_Ionization_Penalty>
  0.0000

> <r_epik_Ionization_Penalty_Charging>
  0.0000

> <r_epik_Ionization_Penalty_Neutral>
  0.0000

> <r_epik_State_Penalty>
 -0.0000

> <r_epik_Charging_Adjusted_Penalty>
0

> <i_epik_Tot_Q>
0

> <i_epik_Tot_abs_Q>
0

$$$$
