4g68_ligand
                    3D
 Schrodinger Suite 2020-3.
 52 54  0  0  1  0            999 V2000
   -3.4270   23.8570   20.6840 C   0  0  0  0  0  0
   -2.3300   24.4640   21.5900 C   0  0  1  0  0  0
   -1.2390   23.4750   22.0250 C   0  0  2  0  0  0
   -1.8590   22.1220   22.4160 C   0  0  1  0  0  0
   -2.7290   21.5970   21.2750 C   0  0  0  0  0  0
   -3.7470   24.5930   19.5460 O   0  0  0  0  0  0
   -1.7520   25.6330   21.1540 O   0  0  0  0  0  0
   -0.5440   24.0710   23.0590 O   0  0  0  0  0  0
   -0.9550   21.1920   22.9680 O   0  0  0  0  0  0
   -3.3760   22.4810   20.4850 O   0  0  0  0  0  0
   -0.4330   21.3340   24.1360 C   0  0  1  0  0  0
   -0.7580   20.0400   24.8880 C   0  0  1  0  0  0
   -0.0130   20.1360   26.2390 C   0  0  2  0  0  0
    1.4530   20.2570   25.8900 C   0  0  1  0  0  0
    1.6920   21.4960   25.0050 C   0  0  0  0  0  0
   -2.1620   20.0500   25.1450 O   0  0  0  0  0  0
   -0.2420   18.8500   26.8530 O   0  0  0  0  0  0
    2.1360   20.4330   27.1360 O   0  0  0  0  0  0
    0.9190   21.3340   23.8090 O   0  0  0  0  0  0
    3.4460   19.9660   27.2430 C   0  0  1  0  0  0
    4.1510   20.7750   28.3270 C   0  0  1  0  0  0
    5.5570   20.1910   28.5080 C   0  0  2  0  0  0
    5.5330   18.6520   28.6900 C   0  0  1  0  0  0
    4.6170   17.9400   27.6530 C   0  0  0  0  0  0
    4.1500   22.1400   27.9620 O   0  0  0  0  0  0
    6.1320   20.8570   29.6540 O   0  0  0  0  0  0
    6.8400   18.0740   28.6270 O   0  0  0  0  0  0
    3.3580   18.5990   27.5780 O   0  0  0  0  0  0
   -2.8751   24.8710   22.4544 H   0  0  0  0  0  0
   -0.4615   23.2975   21.2674 H   0  0  0  0  0  0
   -2.4673   22.2169   23.3276 H   0  0  0  0  0  0
   -2.1091   21.0096   20.5817 H   0  0  0  0  0  0
   -3.5257   20.9589   21.6850 H   0  0  0  0  0  0
   -2.3844   26.4612   20.8015 H   0  0  0  0  0  0
   -0.0543   25.0437   22.9038 H   0  0  0  0  0  0
   -0.7609   22.2665   24.6185 H   0  0  0  0  0  0
   -0.5386   19.1204   24.3257 H   0  0  0  0  0  0
   -0.3249   20.9353   26.9274 H   0  0  0  0  0  0
    1.8334   19.3521   25.3935 H   0  0  0  0  0  0
    1.3744   22.3997   25.5459 H   0  0  0  0  0  0
    2.7620   21.5716   24.7612 H   0  0  0  0  0  0
   -2.8746   19.9893   24.3092 H   0  0  0  0  0  0
   -1.2538   18.5694   27.1809 H   0  0  0  0  0  0
    3.9588   20.0333   26.2722 H   0  0  0  0  0  0
    3.6195   20.7963   29.2898 H   0  0  0  0  0  0
    6.2014   20.4088   27.6435 H   0  0  0  0  0  0
    5.1999   18.4521   29.7191 H   0  0  0  0  0  0
    5.0962   17.9639   26.6632 H   0  0  0  0  0  0
    4.4597   16.8952   27.9591 H   0  0  0  0  0  0
    3.1971   22.6665   27.8044 H   0  0  0  0  0  0
    6.2154   21.9537   29.6682 H   0  0  0  0  0  0
    7.6375   18.4441   29.2881 H   0  0  0  0  0  0
  1  2  1  0  0  0
  1  6  2  0  0  0
  1 10  1  0  0  0
  2  3  1  0  0  0
  2  7  1  0  0  0
  2 29  1  0  0  0
  3  4  1  0  0  0
  3  8  1  0  0  0
  3 30  1  0  0  0
  4  5  1  0  0  0
  4  9  1  0  0  0
  4 31  1  0  0  0
  5 10  1  0  0  0
  5 32  1  0  0  0
  5 33  1  0  0  0
  7 34  1  0  0  0
  8 35  1  0  0  0
  9 11  1  0  0  0
 11 12  1  0  0  0
 11 19  1  0  0  0
 11 36  1  0  0  0
 12 13  1  0  0  0
 12 16  1  0  0  0
 12 37  1  0  0  0
 13 14  1  0  0  0
 13 17  1  0  0  0
 13 38  1  0  0  0
 14 15  1  0  0  0
 14 18  1  0  0  0
 14 39  1  0  0  0
 15 19  1  0  0  0
 15 40  1  0  0  0
 15 41  1  0  0  0
 16 42  1  0  0  0
 17 43  1  0  0  0
 18 20  1  0  0  0
 20 21  1  0  0  0
 20 28  1  0  0  0
 20 44  1  0  0  0
 21 22  1  0  0  0
 21 25  1  0  0  0
 21 45  1  0  0  0
 22 23  1  0  0  0
 22 26  1  0  0  0
 22 46  1  0  0  0
 23 24  1  0  0  0
 23 27  1  0  0  0
 23 47  1  0  0  0
 24 28  1  0  0  0
 24 48  1  0  0  0
 24 49  1  0  0  0
 25 50  1  0  0  0
 26 51  1  0  0  0
 27 52  1  0  0  0
M  END
> <s_m_source_file>
../4g68_ligand.sdf

> <i_m_source_file_index>
1

> <s_epik_input>
Tz1DMVtDQEhdKFtPSF0pW0NAQEhdKFtPSF0pW0NAQEhdKFtDSDJdTzEpT1tDQEhdMltDQEhdKFtPSF0pW0NAQEhdKFtPSF0pW0NAQEhdKFtDSDJdTzIpT1tDQEhdM1tDQEhdKFtPSF0pW0NAQEhdKFtPSF0pW0NAQEhdKFtDSDJdTzMpW09IXQ==

> <s_epik_cmdline>
J2VwaWtfYXBwJywgJy1pbWFlJywgJ2xpZ2FuZF9wcm8ubWFlJywgJy1vbWFlJywgJ2xpZ2FuZF9wcmVwLm1hZScsICctbXMnLCAnMScsICctcGgnLCAnNycsICctcGh0JywgJzAuNScsICctbnQn

> <r_lp_tautomer_probability>
1

> <r_epik_Ionization_Penalty>
  0.0004

> <r_epik_Ionization_Penalty_Charging>
  0.0000

> <r_epik_Ionization_Penalty_Neutral>
  0.0004

> <r_epik_State_Penalty>
 -0.0000

> <r_epik_Charging_Adjusted_Penalty>
0

> <i_epik_Tot_Q>
0

> <i_epik_Tot_abs_Q>
0

> <s_epik_Chemistry_Notes>
This compound has an ester and may undergo hydrolysis at high or low pH. This compound contains an acetal/aminal-like group ( X-CH(R)-Y where X, Y are N, S, or O) that may be acid/base labile, releasing an aldehyde.

$$$$
