4g69_ligand
                    3D
 Schrodinger Suite 2020-3.
100100  0  0  1  0            999 V2000
    0.8920  -13.2240   26.2650 N   0  3  0  0  0  0
    0.1790  -14.3860   26.7800 C   0  0  2  0  0  0
   -1.0340  -14.7640   25.9410 C   0  0  0  0  0  0
   -1.2000  -15.9390   25.6150 O   0  0  0  0  0  0
   -0.2160  -14.1960   28.2440 C   0  0  0  0  0  0
    0.7680  -14.8250   29.2020 C   0  0  0  0  0  0
    0.7610  -16.1980   29.4340 C   0  0  0  0  0  0
    1.7110  -14.0510   29.8690 C   0  0  0  0  0  0
    1.6650  -16.7830   30.3100 C   0  0  0  0  0  0
    2.6230  -14.6290   30.7490 C   0  0  0  0  0  0
    2.5940  -15.9940   30.9640 C   0  0  0  0  0  0
    3.4930  -16.5710   31.8360 O   0  0  0  0  0  0
   -1.8740  -13.7820   25.6010 N   0  0  0  0  0  0
   -3.0340  -14.0190   24.7380 C   0  0  2  0  0  0
   -2.7520  -13.5670   23.3170 C   0  0  0  0  0  0
   -2.3320  -12.4270   23.0920 O   0  0  0  0  0  0
   -4.2690  -13.2780   25.2630 C   0  0  0  0  0  0
   -4.7560  -13.7250   26.6370 C   0  0  0  0  0  0
   -6.0080  -12.9450   27.0720 C   0  0  0  0  0  0
   -5.0080  -15.2320   26.6330 C   0  0  0  0  0  0
   -2.9610  -14.4660   22.3610 N   0  0  0  0  0  0
   -2.8490  -14.1150   20.9470 C   0  0  2  0  0  0
   -4.1020  -14.5600   20.1890 C   0  0  0  0  0  0
   -4.6110  -15.6520   20.4140 O   0  0  0  0  0  0
   -1.5950  -14.7380   20.2940 C   0  0  0  0  0  0
   -1.5450  -14.3880   18.8150 C   0  0  0  0  0  0
   -0.3340  -14.2450   20.9980 C   0  0  0  0  0  0
   -4.5920  -13.7240   19.2810 N   0  0  0  0  0  0
   -5.8500  -14.0100   18.5970 C   0  0  2  0  0  0
   -5.7460  -13.8200   17.0900 C   0  0  0  0  0  0
   -5.3250  -12.7580   16.6240 O   0  0  0  0  0  0
   -6.9860  -13.1220   19.1240 C   0  0  2  0  0  0
   -7.1080  -13.3080   20.5390 O   0  0  0  0  0  0
   -8.3230  -13.4900   18.4560 C   0  0  0  0  0  0
   -6.1220  -14.8570   16.3360 N   0  0  0  0  0  0
   -6.2130  -14.7520   14.8860 C   0  0  2  0  0  0
   -7.6110  -14.3150   14.4940 C   0  0  0  0  0  0
   -8.5930  -14.7590   15.0770 O   0  0  0  0  0  0
   -5.8590  -16.0800   14.2040 C   0  0  0  0  0  0
   -6.8010  -17.0860   14.5250 O   0  0  0  0  0  0
   -7.6850  -13.4310   13.5060 N   0  0  0  0  0  0
   -8.9500  -12.8790   13.0550 C   0  0  2  0  0  0
   -9.0140  -12.8540   11.5280 C   0  0  0  0  0  0
  -10.0380  -12.5000   10.9430 O   0  0  0  0  0  0
   -9.1610  -11.4550   13.6210 C   0  0  0  0  0  0
   -9.2510  -11.5010   15.1350 C   0  0  0  0  0  0
   -8.0390  -10.5140   13.1810 C   0  0  0  0  0  0
   -8.0340  -13.1950   10.8490 O   0  5  0  0  0  0
    1.1599  -13.3953   25.2120 H   0  0  0  0  0  0
    1.8067  -13.0640   26.8548 H   0  0  0  0  0  0
    0.2475  -12.3357   26.3396 H   0  0  0  0  0  0
    0.9207  -15.1932   26.6888 H   0  0  0  0  0  0
   -0.2680  -13.1214   28.4732 H   0  0  0  0  0  0
   -1.1990  -14.6568   28.4214 H   0  0  0  0  0  0
    0.0329  -16.8244   28.9187 H   0  0  0  0  0  0
    1.7370  -12.9744   29.7005 H   0  0  0  0  0  0
    1.6429  -17.8592   30.4817 H   0  0  0  0  0  0
    3.3554  -14.0083   31.2652 H   0  0  0  0  0  0
    3.4719  -17.6571   32.0088 H   0  0  0  0  0  0
   -1.6742  -12.7722   25.9889 H   0  0  0  0  0  0
   -3.1915  -15.1074   24.7631 H   0  0  0  0  0  0
   -4.0456  -12.2039   25.3431 H   0  0  0  0  0  0
   -5.1088  -13.4270   24.5684 H   0  0  0  0  0  0
   -3.9653  -13.5073   27.3701 H   0  0  0  0  0  0
   -5.7898  -11.8669   27.0630 H   0  0  0  0  0  0
   -6.2968  -13.2522   28.0880 H   0  0  0  0  0  0
   -6.8329  -13.1580   26.3761 H   0  0  0  0  0  0
   -4.0935  -15.7558   26.3178 H   0  0  0  0  0  0
   -5.8240  -15.4654   25.9332 H   0  0  0  0  0  0
   -5.2879  -15.5596   27.6451 H   0  0  0  0  0  0
   -3.2234  -15.4934   22.6535 H   0  0  0  0  0  0
   -2.7632  -13.0184   20.9447 H   0  0  0  0  0  0
   -1.6376  -15.8334   20.3852 H   0  0  0  0  0  0
   -2.4594  -14.7492   18.3216 H   0  0  0  0  0  0
   -0.6671  -14.8650   18.3548 H   0  0  0  0  0  0
   -1.4723  -13.2966   18.6988 H   0  0  0  0  0  0
   -0.3846  -14.5051   22.0656 H   0  0  0  0  0  0
   -0.2568  -13.1530   20.8899 H   0  0  0  0  0  0
    0.5484  -14.7215   20.5459 H   0  0  0  0  0  0
   -4.0353  -12.8046   19.0468 H   0  0  0  0  0  0
   -6.0258  -15.0712   18.8273 H   0  0  0  0  0  0
   -6.7482  -12.0603   18.9620 H   0  0  0  0  0  0
   -6.2525  -13.0964   21.1973 H   0  0  0  0  0  0
   -8.2399  -13.3505   17.3680 H   0  0  0  0  0  0
   -9.1199  -12.8416   18.8490 H   0  0  0  0  0  0
   -8.5646  -14.5409   18.6736 H   0  0  0  0  0  0
   -6.3657  -15.8065   16.8351 H   0  0  0  0  0  0
   -5.4793  -13.9852   14.5965 H   0  0  0  0  0  0
   -5.8514  -15.9412   13.1128 H   0  0  0  0  0  0
   -4.8645  -16.4103   14.5385 H   0  0  0  0  0  0
   -6.6860  -18.0991   14.1121 H   0  0  0  0  0  0
   -6.7461  -13.1186   13.0255 H   0  0  0  0  0  0
   -9.7116  -13.5690   13.4473 H   0  0  0  0  0  0
  -10.1084  -11.0518   13.2338 H   0  0  0  0  0  0
  -10.0620  -12.1815   15.4336 H   0  0  0  0  0  0
   -9.4584  -10.4920   15.5208 H   0  0  0  0  0  0
   -8.2979  -11.8628   15.5481 H   0  0  0  0  0  0
   -7.9880  -10.4927   12.0824 H   0  0  0  0  0  0
   -7.0807  -10.8716   13.5857 H   0  0  0  0  0  0
   -8.2412   -9.5007   13.5584 H   0  0  0  0  0  0
  1  2  1  0  0  0
  1 49  1  0  0  0
  1 50  1  0  0  0
  1 51  1  0  0  0
  2  3  1  0  0  0
  2  5  1  0  0  0
  2 52  1  0  0  0
  3  4  2  0  0  0
  3 13  1  0  0  0
  5  6  1  0  0  0
  5 53  1  0  0  0
  5 54  1  0  0  0
  6  7  2  0  0  0
  6  8  1  0  0  0
  7  9  1  0  0  0
  7 55  1  0  0  0
  8 10  2  0  0  0
  8 56  1  0  0  0
  9 11  2  0  0  0
  9 57  1  0  0  0
 10 11  1  0  0  0
 10 58  1  0  0  0
 11 12  1  0  0  0
 12 59  1  0  0  0
 13 14  1  0  0  0
 13 60  1  0  0  0
 14 15  1  0  0  0
 14 17  1  0  0  0
 14 61  1  0  0  0
 15 16  2  0  0  0
 15 21  1  0  0  0
 17 18  1  0  0  0
 17 62  1  0  0  0
 17 63  1  0  0  0
 18 19  1  0  0  0
 18 20  1  0  0  0
 18 64  1  0  0  0
 19 65  1  0  0  0
 19 66  1  0  0  0
 19 67  1  0  0  0
 20 68  1  0  0  0
 20 69  1  0  0  0
 20 70  1  0  0  0
 21 22  1  0  0  0
 21 71  1  0  0  0
 22 23  1  0  0  0
 22 25  1  0  0  0
 22 72  1  0  0  0
 23 24  2  0  0  0
 23 28  1  0  0  0
 25 26  1  0  0  0
 25 27  1  0  0  0
 25 73  1  0  0  0
 26 74  1  0  0  0
 26 75  1  0  0  0
 26 76  1  0  0  0
 27 77  1  0  0  0
 27 78  1  0  0  0
 27 79  1  0  0  0
 28 29  1  0  0  0
 28 80  1  0  0  0
 29 30  1  0  0  0
 29 32  1  0  0  0
 29 81  1  0  0  0
 30 31  2  0  0  0
 30 35  1  0  0  0
 32 33  1  0  0  0
 32 34  1  0  0  0
 32 82  1  0  0  0
 33 83  1  0  0  0
 34 84  1  0  0  0
 34 85  1  0  0  0
 34 86  1  0  0  0
 35 36  1  0  0  0
 35 87  1  0  0  0
 36 37  1  0  0  0
 36 39  1  0  0  0
 36 88  1  0  0  0
 37 38  2  0  0  0
 37 41  1  0  0  0
 39 40  1  0  0  0
 39 89  1  0  0  0
 39 90  1  0  0  0
 40 91  1  0  0  0
 41 42  1  0  0  0
 41 92  1  0  0  0
 42 43  1  0  0  0
 42 45  1  0  0  0
 42 93  1  0  0  0
 43 44  2  0  0  0
 43 48  1  0  0  0
 45 46  1  0  0  0
 45 47  1  0  0  0
 45 94  1  0  0  0
 46 95  1  0  0  0
 46 96  1  0  0  0
 46 97  1  0  0  0
 47 98  1  0  0  0
 47 99  1  0  0  0
 47100  1  0  0  0
M  CHG  2   1   1  48  -1
M  END
> <s_m_source_file>
../4g69_ligand.sdf

> <i_m_source_file_index>
1

> <s_epik_input>
W2NIXTFbY0hdYyhbT0hdKVtjSF1bY0hdYzFbQ0gyXVtDQEhdKFtOSDMrXSlDKD1PKVtOSF1bQ0BASF0oW0NIMl1bQ0hdKFtDSDNdKVtDSDNdKUMoPU8pW05IXVtDQEBIXShbQ0hdKFtDSDNdKVtDSDNdKUMoPU8pW05IXVtDQEBIXShbQ0BIXShbT0hdKVtDSDNdKUMoPU8pW05IXVtDQEBIXShbQ0gyXVtPSF0pQyg9TylbTkhdW0NASF0oQyg9TylbT0hdKVtDSF0oW0NIM10pW0NIM10=

> <s_epik_cmdline>
J2VwaWtfYXBwJywgJy1pbWFlJywgJ2xpZ2FuZF9wcm8ubWFlJywgJy1vbWFlJywgJ2xpZ2FuZF9wcmVwLm1hZScsICctbXMnLCAnMScsICctcGgnLCAnNycsICctcGh0JywgJzAuNScsICctbnQn

> <r_lp_tautomer_probability>
0.999999999997365

> <r_epik_Ionization_Penalty>
  0.2026

> <r_epik_Ionization_Penalty_Charging>
  0.1999

> <r_epik_Ionization_Penalty_Neutral>
  0.0027

> <r_epik_State_Penalty>
  0.1896

> <r_epik_Charging_Adjusted_Penalty>
0.389463736200951

> <i_epik_Tot_Q>
0

> <i_epik_Tot_abs_Q>
2

$$$$
