4g8l_ligand
                    3D
 Schrodinger Suite 2020-3.
102110  0  0  1  0            999 V2000
    6.5710  -29.0660   28.4810 O   0  0  0  0  0  0
    7.2100  -28.0670   29.3960 P   0  0  0  0  0  0
    6.5340  -26.6490   29.2800 O   0  5  0  0  0  0
    7.1400  -28.5950   30.8610 O   0  0  0  0  0  0
    8.6680  -27.9640   28.9600 O   0  0  0  0  0  0
    9.0080  -27.5170   27.7100 C   0  0  0  0  0  0
   10.4750  -27.7680   27.3990 C   0  0  1  0  0  0
   11.5170  -27.0720   28.1940 O   0  0  0  0  0  0
   12.5570  -28.1150   28.5120 C   0  0  2  0  0  0
   12.3860  -29.0340   27.3220 C   0  0  2  0  0  0
   13.0440  -28.7690   26.1070 O   0  0  0  0  0  0
   10.9310  -29.2140   27.2930 C   0  0  2  0  0  0
   10.3790  -30.0300   26.3310 O   0  0  0  0  0  0
   12.5840  -27.9030   29.9390 N   0  3  0  0  0  0
   12.0700  -28.7700   30.9000 C   0  0  0  0  0  0
   12.1780  -28.1030   32.2520 N   0  0  0  0  0  0
   12.7520  -26.8120   32.0520 C   0  0  0  0  0  0
   13.0750  -25.7590   32.9630 C   0  0  0  0  0  0
   12.7990  -25.8680   34.3750 N   0  0  0  0  0  0
   13.0150  -26.6470   30.6330 C   0  0  0  0  0  0
   13.5950  -25.4370   30.1400 N   0  0  0  0  0  0
   13.9200  -24.3660   31.0770 C   0  0  0  0  0  0
   13.6690  -24.5320   32.4500 N   0  0  0  0  0  0
   14.4550  -29.4660   25.9390 P   0  0  1  0  0  0
   14.5540  -30.7040   26.9280 O   0  5  0  0  0  0
   14.6680  -29.7910   24.4780 O   0  0  0  0  0  0
   15.6160  -28.5090   26.4010 O   0  0  0  0  0  0
   15.5820  -27.1450   26.0490 C   0  0  0  0  0  0
   16.6450  -26.3500   26.7760 C   0  0  1  0  0  0
   16.3350  -25.7550   28.1300 O   0  0  0  0  0  0
   17.5420  -26.0680   28.9750 C   0  0  1  0  0  0
   16.8540  -26.9340   29.9330 N   0  3  0  0  0  0
   16.2680  -28.1810   29.6180 C   0  0  0  0  0  0
   15.7450  -28.7410   30.8530 N   0  0  0  0  0  0
   16.0390  -27.7760   31.9710 C   0  0  0  0  0  0
   16.6980  -26.6860   31.4300 C   0  0  0  0  0  0
   17.1270  -25.5640   32.2880 N   0  0  0  0  0  0
   16.8650  -25.6020   33.6260 C   0  0  0  0  0  0
   16.2070  -26.6840   34.1690 N   0  5  0  0  0  0
   15.7740  -27.8160   33.3030 C   0  0  2  0  0  0
   15.0900  -28.9500   33.8620 N   0  0  0  0  0  0
   18.6890  -26.2890   27.9700 C   0  0  2  0  0  0
   19.5760  -25.2430   27.6670 O   0  0  0  0  0  0
   18.0520  -26.9430   26.8070 C   0  0  2  0  0  0
   18.8180  -26.9870   25.6490 O   0  0  0  0  0  0
   20.7570  -25.0570   28.6660 P   0  0  0  0  0  0
   20.3220  -25.4580   30.0600 O   0  0  0  0  0  0
   21.9270  -26.0220   28.1850 O   0  0  0  0  0  0
   21.9470  -26.4610   26.8450 C   0  0  0  0  0  0
   23.3540  -26.8880   26.3620 C   0  0  1  0  0  0
   24.4490  -25.9980   26.6480 O   0  0  0  0  0  0
   25.3830  -26.6890   27.5910 C   0  0  1  0  0  0
   26.0580  -26.0110   28.7210 N   0  0  0  0  0  0
   27.2160  -25.2700   28.6660 C   0  0  0  0  0  0
   27.5070  -24.8250   29.9810 N   0  0  0  0  0  0
   26.5330  -25.3030   30.8170 C   0  0  0  0  0  0
   25.6210  -26.0430   30.0360 C   0  0  0  0  0  0
   24.5070  -26.6570   30.6160 N   0  0  0  0  0  0
   24.2900  -26.5210   32.0430 C   0  0  0  0  0  0
   25.1760  -25.7950   32.8180 N   0  0  0  0  0  0
   26.3130  -25.1780   32.2190 C   0  0  0  0  0  0
   27.2280  -24.4300   33.0390 N   0  0  0  0  0  0
   24.9990  -28.2010   27.6120 C   0  0  2  0  0  0
   26.0240  -29.1480   27.5870 O   0  0  0  0  0  0
   23.8490  -28.3210   26.6340 C   0  0  2  0  0  0
   23.9050  -29.2290   25.5720 O   0  0  0  0  0  0
    6.1642  -28.7350   31.3491 H   0  0  0  0  0  0
    8.4013  -28.0399   26.9560 H   0  0  0  0  0  0
    8.8218  -26.4349   27.6443 H   0  0  0  0  0  0
   10.4445  -27.2770   26.4151 H   0  0  0  0  0  0
   13.6129  -28.4147   28.5842 H   0  0  0  0  0  0
   12.9674  -29.9665   27.3722 H   0  0  0  0  0  0
   10.5348  -29.9320   28.0261 H   0  0  0  0  0  0
    9.2895  -30.1771   26.2937 H   0  0  0  0  0  0
   11.6594  -29.7616   30.7094 H   0  0  0  0  0  0
   12.3506  -26.7879   34.7784 H   0  0  0  0  0  0
   13.0370  -25.0312   35.0481 H   0  0  0  0  0  0
   14.3576  -23.4369   30.7117 H   0  0  0  0  0  0
   15.7526  -27.0411   24.9673 H   0  0  0  0  0  0
   14.5991  -26.7240   26.3072 H   0  0  0  0  0  0
   16.6087  -25.5039   26.0740 H   0  0  0  0  0  0
   18.1306  -25.4590   29.6769 H   0  0  0  0  0  0
   16.2176  -28.6387   28.6301 H   0  0  0  0  0  0
   17.1790  -24.7687   34.2718 H   0  0  0  0  0  0
   16.7363  -28.3190   33.4793 H   0  0  0  0  0  0
   14.0049  -28.7706   33.8411 H   0  0  0  0  0  0
   15.3247  -29.8476   33.2711 H   0  0  0  0  0  0
   19.5250  -26.8603   28.3997 H   0  0  0  0  0  0
   18.0557  -28.0427   26.8308 H   0  0  0  0  0  0
   18.4144  -27.4572   24.7401 H   0  0  0  0  0  0
   21.2808  -27.3292   26.7336 H   0  0  0  0  0  0
   21.6035  -25.6486   26.1878 H   0  0  0  0  0  0
   23.1647  -26.7680   25.2851 H   0  0  0  0  0  0
   26.4069  -26.4613   27.2598 H   0  0  0  0  0  0
   27.8043  -25.0622   27.7722 H   0  0  0  0  0  0
   23.4243  -26.9933   32.5073 H   0  0  0  0  0  0
   28.1078  -23.9507   32.5849 H   0  0  0  0  0  0
   27.0479  -24.3373   34.1202 H   0  0  0  0  0  0
   24.7504  -28.6281   28.5948 H   0  0  0  0  0  0
   26.8633  -29.0688   28.2936 H   0  0  0  0  0  0
   23.0851  -29.0140   27.0165 H   0  0  0  0  0  0
   23.0624  -29.3058   24.8690 H   0  0  0  0  0  0
  1  2  2  0  0  0
  2  3  1  0  0  0
  2  4  1  0  0  0
  2  5  1  0  0  0
  4 67  1  0  0  0
  5  6  1  0  0  0
  6  7  1  0  0  0
  6 68  1  0  0  0
  6 69  1  0  0  0
  7  8  1  0  0  0
  7 12  1  0  0  0
  7 70  1  0  0  0
  8  9  1  0  0  0
  9 10  1  0  0  0
  9 14  1  0  0  0
  9 71  1  0  0  0
 10 11  1  0  0  0
 10 12  1  0  0  0
 10 72  1  0  0  0
 11 24  1  0  0  0
 12 13  1  0  0  0
 12 73  1  0  0  0
 13 74  1  0  0  0
 14 15  2  0  0  0
 14 20  1  0  0  0
 15 16  1  0  0  0
 15 75  1  0  0  0
 16 17  1  0  0  0
 17 18  1  0  0  0
 17 20  2  0  0  0
 18 19  1  0  0  0
 18 23  2  0  0  0
 19 76  1  0  0  0
 19 77  1  0  0  0
 20 21  1  0  0  0
 21 22  2  0  0  0
 22 23  1  0  0  0
 22 78  1  0  0  0
 24 25  1  0  0  0
 24 26  2  0  0  0
 24 27  1  0  0  0
 27 28  1  0  0  0
 28 29  1  0  0  0
 28 79  1  0  0  0
 28 80  1  0  0  0
 29 30  1  0  0  0
 29 44  1  0  0  0
 29 81  1  0  0  0
 30 31  1  0  0  0
 31 32  1  0  0  0
 31 42  1  0  0  0
 31 82  1  0  0  0
 32 33  2  0  0  0
 32 36  1  0  0  0
 33 34  1  0  0  0
 33 83  1  0  0  0
 34 35  1  0  0  0
 35 36  2  0  0  0
 35 40  1  0  0  0
 36 37  1  0  0  0
 37 38  2  0  0  0
 38 39  1  0  0  0
 38 84  1  0  0  0
 39 40  1  0  0  0
 40 41  1  0  0  0
 40 85  1  0  0  0
 41 86  1  0  0  0
 41 87  1  0  0  0
 42 43  1  0  0  0
 42 44  1  0  0  0
 42 88  1  0  0  0
 43 46  1  0  0  0
 44 45  1  0  0  0
 44 89  1  0  0  0
 45 90  1  0  0  0
 46 47  2  0  0  0
 46 48  1  0  0  0
 48 49  1  0  0  0
 49 50  1  0  0  0
 49 91  1  0  0  0
 49 92  1  0  0  0
 50 51  1  0  0  0
 50 65  1  0  0  0
 50 93  1  0  0  0
 51 52  1  0  0  0
 52 53  1  0  0  0
 52 63  1  0  0  0
 52 94  1  0  0  0
 53 54  1  0  0  0
 53 57  1  0  0  0
 54 55  2  0  0  0
 54 95  1  0  0  0
 55 56  1  0  0  0
 56 57  2  0  0  0
 56 61  1  0  0  0
 57 58  1  0  0  0
 58 59  2  0  0  0
 59 60  1  0  0  0
 59 96  1  0  0  0
 60 61  2  0  0  0
 61 62  1  0  0  0
 62 97  1  0  0  0
 62 98  1  0  0  0
 63 64  1  0  0  0
 63 65  1  0  0  0
 63 99  1  0  0  0
 64100  1  0  0  0
 65 66  1  0  0  0
 65101  1  0  0  0
 66102  1  0  0  0
M  CHG  5   3  -1  14   1  25  -1  32   1  39  -1
M  END
> <s_m_source_file>
../4g8l_ligand.sdf

> <i_m_source_file_index>
1

> <s_epik_input>
W05IMl1jMW5bY0hdbmMoYzEyKVtuK10oW2NIXVtuSF0yKVtDQEhdKE9bQ0BASF0zW0NIMl1PUCg9TykoW09IXSlbT0hdKVtDQEBIXShbQ0BASF0zW09IXSlPW1BAXSg9TykoW09IXSlPW0NIMl1bQ0BIXTRPW0NAQEhdKFtuK10oW2NIXVtuSF01KWMoYzU2KU49W0NIXVtOSF1bQ0BASF02W05IMytdKVtDQEBIXShbQ0BASF00W09IXSlPW1BIXSg9TylPW0NIMl1bQ0BIXTdPW0NASF0oW0NASF0oW09IXSlbQ0BASF03W09IXSluKFtjSF1uOCljKGM4OSluW2NIXW5jOVtOSDJd

> <s_epik_cmdline>
J2VwaWtfYXBwJywgJy1pbWFlJywgJ2xpZ2FuZF9wcm8ubWFlJywgJy1vbWFlJywgJ2xpZ2FuZF9wcmVwLm1hZScsICctbXMnLCAnMScsICctcGgnLCAnNycsICctcGh0JywgJzAuNScsICctbnQn

> <r_lp_tautomer_probability>
1

> <r_epik_Ionization_Penalty>
  6.2992

> <r_epik_Ionization_Penalty_Charging>
  0.0003

> <r_epik_Ionization_Penalty_Neutral>
  6.2988

> <r_epik_State_Penalty>
 -0.0000

> <r_epik_Charging_Adjusted_Penalty>
0.000349540963008384

> <i_epik_Tot_Q>
-1

> <i_epik_Tot_abs_Q>
5

> <s_epik_Chemistry_Notes>
This compound has an imine and may undergo hydrolysis. This compound contains an acetal/aminal-like group ( X-CH(R)-Y where X, Y are N, S, or O) that may be acid/base labile, releasing an aldehyde.

$$$$
