4g8v_ligand
                    3D
 Schrodinger Suite 2020-3.
 39 41  0  0  1  0            999 V2000
   34.6030   -4.4220   12.3230 C   0  0  0  0  0  0
   35.5870   -4.2550   13.2680 C   0  0  0  0  0  0
   36.2630   -3.0500   13.2830 C   0  0  0  0  0  0
   36.7840   -0.9060   12.5220 C   0  0  0  0  0  0
   36.4320    0.5440   12.5310 C   0  0  0  0  0  0
   36.4520    1.3550   13.6940 C   0  0  0  0  0  0
   35.9330   -2.1000   12.4320 N   0  0  0  0  0  0
   34.3220   -3.4380   11.4420 N   0  0  0  0  0  0
   34.6700   -1.3430   10.6220 O   0  0  0  0  0  0
   34.9690   -2.2900   11.4680 C   0  0  0  0  0  0
   33.9270   -5.5920   12.2890 O   0  5  0  0  0  0
   36.1760    1.4080   11.4760 N   0  0  0  0  0  0
   36.0090    2.6160   11.9600 N   0  0  0  0  0  0
   36.1190    2.6260   13.2560 N   0  0  0  0  0  0
   36.0810    3.7010   14.1990 C   0  0  2  0  0  0
   35.9610    4.9830   13.6730 O   0  0  0  0  0  0
   37.2350    5.3490   13.0770 C   0  0  1  0  0  0
   37.4370    6.8390   13.1620 C   0  0  0  0  0  0
   38.6590    7.2200   12.5470 O   0  0  0  0  0  0
   38.2860    4.4850   13.7830 C   0  0  2  0  0  0
   39.0840    3.7420   12.8760 O   0  0  0  0  0  0
   37.4880    3.6090   14.7660 C   0  0  1  0  0  0
   37.4960    4.1740   16.0690 O   0  0  0  0  0  0
   35.8116   -5.0653   13.9772 H   0  0  0  0  0  0
   36.1464   -2.5764   14.2690 H   0  0  0  0  0  0
   37.3306   -3.2260   13.0847 H   0  0  0  0  0  0
   37.4378   -1.1192   11.6635 H   0  0  0  0  0  0
   37.3082   -1.1619   13.4546 H   0  0  0  0  0  0
   36.6804    1.0448   14.7137 H   0  0  0  0  0  0
   33.5396   -3.5861   10.6831 H   0  0  0  0  0  0
   35.1740    3.6223   14.8164 H   0  0  0  0  0  0
   37.2514    5.1464   11.9960 H   0  0  0  0  0  0
   36.6087    7.3511   12.6504 H   0  0  0  0  0  0
   37.4615    7.1461   14.2180 H   0  0  0  0  0  0
   38.9563    8.2788   12.5237 H   0  0  0  0  0  0
   39.0892    5.0620   14.2645 H   0  0  0  0  0  0
   39.6974    4.2648   12.1274 H   0  0  0  0  0  0
   37.8851    2.5962   14.9292 H   0  0  0  0  0  0
   36.9686    3.6681   16.8911 H   0  0  0  0  0  0
  1  2  2  0  0  0
  1  8  1  0  0  0
  1 11  1  0  0  0
  2  3  1  0  0  0
  2 24  1  0  0  0
  3  7  1  0  0  0
  3 25  1  0  0  0
  3 26  1  0  0  0
  4  5  1  0  0  0
  4  7  1  0  0  0
  4 27  1  0  0  0
  4 28  1  0  0  0
  5  6  2  0  0  0
  5 12  1  0  0  0
  6 14  1  0  0  0
  6 29  1  0  0  0
  7 10  1  0  0  0
  8 10  1  0  0  0
  8 30  1  0  0  0
  9 10  2  0  0  0
 12 13  2  0  0  0
 13 14  1  0  0  0
 14 15  1  0  0  0
 15 16  1  0  0  0
 15 22  1  0  0  0
 15 31  1  0  0  0
 16 17  1  0  0  0
 17 18  1  0  0  0
 17 20  1  0  0  0
 17 32  1  0  0  0
 18 19  1  0  0  0
 18 33  1  0  0  0
 18 34  1  0  0  0
 19 35  1  0  0  0
 20 21  1  0  0  0
 20 22  1  0  0  0
 20 36  1  0  0  0
 21 37  1  0  0  0
 22 23  1  0  0  0
 22 38  1  0  0  0
 23 39  1  0  0  0
M  CHG  1  11  -1
M  END
> <s_m_source_file>
../4g8v_ligand.sdf

> <i_m_source_file_index>
1

> <s_epik_input>
W09IXUMxPVtDSF1bQ0gyXU4oQyg9TylbTkhdMSlbQ0gyXWMyW2NIXW4obm4yKVtDQEBIXTNPW0NAQEhdKFtDSDJdW09IXSlbQ0BIXShbT0hdKVtDQEhdM1tPSF0=

> <s_epik_cmdline>
J2VwaWtfYXBwJywgJy1pbWFlJywgJ2xpZ2FuZF9wcm8ubWFlJywgJy1vbWFlJywgJ2xpZ2FuZF9wcmVwLm1hZScsICctbXMnLCAnMScsICctcGgnLCAnNycsICctcGh0JywgJzAuNScsICctbnQn

> <r_lp_tautomer_probability>
2.12659276646773e-05

> <r_epik_Ionization_Penalty>
  0.0267

> <r_epik_Ionization_Penalty_Charging>
  0.0265

> <r_epik_Ionization_Penalty_Neutral>
  0.0002

> <r_epik_State_Penalty>
  0.0216

> <r_epik_Charging_Adjusted_Penalty>
0.048127025095264

> <i_epik_Tot_Q>
-1

> <i_epik_Tot_abs_Q>
1

> <s_epik_Chemistry_Notes>
This compound contains an acetal/aminal-like group ( X-CH(R)-Y where X, Y are N, S, or O) that may be acid/base labile, releasing an aldehyde.

$$$$
