4g8y_ligand
                    3D
 Schrodinger Suite 2020-3.
 42 44  0  0  1  0            999 V2000
   35.4040    4.5910   23.8350 C   0  0  0  0  0  0
   36.6060    4.4390   23.1710 C   0  0  0  0  0  0
   37.3060    3.2710   23.3550 C   0  0  0  0  0  0
   37.6160    1.1030   24.3390 C   0  0  0  0  0  0
   37.3070   -0.3690   23.9450 C   0  0  0  0  0  0
   37.5920   -1.0060   22.7200 C   0  0  0  0  0  0
   36.7910    2.2760   24.1570 N   0  0  0  0  0  0
   34.9460    3.6090   24.6310 N   0  0  0  0  0  0
   35.1960    1.6150   25.5160 O   0  0  0  0  0  0
   35.6490    2.4670   24.8020 C   0  0  0  0  0  0
   34.6810    5.7490   23.6720 O   0  5  0  0  0  0
   37.1100    5.5170   22.2940 C   0  0  0  0  0  0
   36.7750   -1.3770   24.7430 N   0  0  0  0  0  0
   36.7120   -2.5160   24.0700 N   0  0  0  0  0  0
   37.1480   -2.3370   22.8800 N   0  0  0  0  0  0
   37.2920   -3.3180   21.8620 C   0  0  2  0  0  0
   37.1700   -4.6370   22.3370 O   0  0  0  0  0  0
   38.4910   -5.1430   22.7210 C   0  0  1  0  0  0
   38.7920   -6.4210   21.9780 C   0  0  0  0  0  0
   40.1000   -6.3910   21.4180 O   0  0  0  0  0  0
   39.4530   -3.9800   22.4550 C   0  0  2  0  0  0
   39.7710   -3.2370   23.6260 O   0  0  0  0  0  0
   38.7240   -3.1650   21.3910 C   0  0  1  0  0  0
   38.8430   -3.7740   20.1120 O   0  0  0  0  0  0
   37.4566    2.7770   22.3838 H   0  0  0  0  0  0
   38.2831    3.4964   23.8072 H   0  0  0  0  0  0
   37.7763    1.1658   25.4254 H   0  0  0  0  0  0
   38.5221    1.4405   23.8146 H   0  0  0  0  0  0
   38.0560   -0.5652   21.8377 H   0  0  0  0  0  0
   33.9860    3.7282   25.1547 H   0  0  0  0  0  0
   36.3955    6.3533   22.2934 H   0  0  0  0  0  0
   37.2254    5.1326   21.2698 H   0  0  0  0  0  0
   38.0841    5.8672   22.6662 H   0  0  0  0  0  0
   36.4706   -3.1877   21.1420 H   0  0  0  0  0  0
   38.5351   -5.4400   23.7792 H   0  0  0  0  0  0
   38.7251   -7.2725   22.6711 H   0  0  0  0  0  0
   38.0635   -6.5524   21.1644 H   0  0  0  0  0  0
   40.4721   -7.2519   20.8432 H   0  0  0  0  0  0
   40.4758   -4.2743   22.1771 H   0  0  0  0  0  0
   40.2976   -3.7238   24.4601 H   0  0  0  0  0  0
   39.1017   -2.1452   21.2255 H   0  0  0  0  0  0
   38.3708   -3.3077   19.2347 H   0  0  0  0  0  0
  1  2  2  0  0  0
  1  8  1  0  0  0
  1 11  1  0  0  0
  2  3  1  0  0  0
  2 12  1  0  0  0
  3  7  1  0  0  0
  3 25  1  0  0  0
  3 26  1  0  0  0
  4  5  1  0  0  0
  4  7  1  0  0  0
  4 27  1  0  0  0
  4 28  1  0  0  0
  5  6  2  0  0  0
  5 13  1  0  0  0
  6 15  1  0  0  0
  6 29  1  0  0  0
  7 10  1  0  0  0
  8 10  1  0  0  0
  8 30  1  0  0  0
  9 10  2  0  0  0
 12 31  1  0  0  0
 12 32  1  0  0  0
 12 33  1  0  0  0
 13 14  2  0  0  0
 14 15  1  0  0  0
 15 16  1  0  0  0
 16 17  1  0  0  0
 16 23  1  0  0  0
 16 34  1  0  0  0
 17 18  1  0  0  0
 18 19  1  0  0  0
 18 21  1  0  0  0
 18 35  1  0  0  0
 19 20  1  0  0  0
 19 36  1  0  0  0
 19 37  1  0  0  0
 20 38  1  0  0  0
 21 22  1  0  0  0
 21 23  1  0  0  0
 21 39  1  0  0  0
 22 40  1  0  0  0
 23 24  1  0  0  0
 23 41  1  0  0  0
 24 42  1  0  0  0
M  CHG  1  11  -1
M  END
> <s_m_source_file>
../4g8y_ligand.sdf

> <i_m_source_file_index>
1

> <s_epik_input>
W09IXUMxPUMoW0NIM10pW0NIMl1OKEMoPU8pW05IXTEpW0NIMl1jMltjSF1uKG5uMilbQ0BASF0zT1tDQEBIXShbQ0gyXVtPSF0pW0NASF0oW09IXSlbQ0BIXTNbT0hd

> <s_epik_cmdline>
J2VwaWtfYXBwJywgJy1pbWFlJywgJ2xpZ2FuZF9wcm8ubWFlJywgJy1vbWFlJywgJ2xpZ2FuZF9wcmVwLm1hZScsICctbXMnLCAnMScsICctcGgnLCAnNycsICctcGh0JywgJzAuNScsICctbnQn

> <r_lp_tautomer_probability>
2.12659276646773e-05

> <r_epik_Ionization_Penalty>
  0.0267

> <r_epik_Ionization_Penalty_Charging>
  0.0265

> <r_epik_Ionization_Penalty_Neutral>
  0.0002

> <r_epik_State_Penalty>
  0.0216

> <r_epik_Charging_Adjusted_Penalty>
0.048127025095264

> <i_epik_Tot_Q>
-1

> <i_epik_Tot_abs_Q>
1

> <s_epik_Chemistry_Notes>
This compound contains an acetal/aminal-like group ( X-CH(R)-Y where X, Y are N, S, or O) that may be acid/base labile, releasing an aldehyde.

$$$$
