4g90_ligand
                    3D
 Schrodinger Suite 2020-3.
 39 41  0  0  1  0            999 V2000
   34.7790   -4.4180   12.4780 C   0  0  0  0  0  0
   35.8220   -4.2520   13.3750 C   0  0  0  0  0  0
   36.5390   -3.0690   13.3280 C   0  0  0  0  0  0
   37.0400   -0.9790   12.4450 C   0  0  0  0  0  0
   36.7230    0.4380   12.6640 C   0  0  0  0  0  0
   36.8410    1.1730   13.9310 C   0  0  0  0  0  0
   36.1880   -2.0880   12.4420 N   0  0  0  0  0  0
   34.4830   -3.4180   11.5870 N   0  0  0  0  0  0
   34.8580   -1.3830   10.7220 O   0  0  0  0  0  0
   35.1760   -2.2700   11.5450 C   0  0  0  0  0  0
   34.0460   -5.6030   12.5030 O   0  5  0  0  0  0
   36.1210   -5.1930   14.2360 F   0  0  0  0  0  0
   36.3940    1.3840   11.7060 N   0  0  0  0  0  0
   36.2550    2.5580   12.3010 N   0  0  0  0  0  0
   36.4910    2.4760   13.6070 N   0  0  0  0  0  0
   36.4840    3.5500   14.5910 C   0  0  2  0  0  0
   36.2700    4.7600   13.9330 O   0  0  0  0  0  0
   37.5410    5.2470   13.4370 C   0  0  1  0  0  0
   37.5050    6.7480   13.3070 C   0  0  0  0  0  0
   38.7990    7.2760   13.0500 O   0  0  0  0  0  0
   38.5940    4.6810   14.3990 C   0  0  2  0  0  0
   39.7130    4.1280   13.7250 O   0  0  0  0  0  0
   37.8380    3.6660   15.2830 C   0  0  1  0  0  0
   37.6350    4.1820   16.5900 O   0  0  0  0  0  0
   36.4890   -2.5708   14.3075 H   0  0  0  0  0  0
   37.5885   -3.2859   13.0801 H   0  0  0  0  0  0
   37.4845   -1.1052   11.4468 H   0  0  0  0  0  0
   37.7544   -1.3174   13.2099 H   0  0  0  0  0  0
   37.1366    0.7829   14.9049 H   0  0  0  0  0  0
   33.6535   -3.5431   10.8755 H   0  0  0  0  0  0
   35.6487    3.3665   15.2828 H   0  0  0  0  0  0
   37.7372    4.9010   12.4114 H   0  0  0  0  0  0
   36.8416    7.0282   12.4755 H   0  0  0  0  0  0
   37.1272    7.1881   14.2417 H   0  0  0  0  0  0
   38.9365    8.3607   12.9296 H   0  0  0  0  0  0
   39.1247    5.4516   14.9774 H   0  0  0  0  0  0
   40.3264    4.7607   13.0667 H   0  0  0  0  0  0
   38.3726    2.7216   15.4625 H   0  0  0  0  0  0
   37.1089    3.5782   17.3441 H   0  0  0  0  0  0
  1  2  2  0  0  0
  1  8  1  0  0  0
  1 11  1  0  0  0
  2  3  1  0  0  0
  2 12  1  0  0  0
  3  7  1  0  0  0
  3 25  1  0  0  0
  3 26  1  0  0  0
  4  5  1  0  0  0
  4  7  1  0  0  0
  4 27  1  0  0  0
  4 28  1  0  0  0
  5  6  2  0  0  0
  5 13  1  0  0  0
  6 15  1  0  0  0
  6 29  1  0  0  0
  7 10  1  0  0  0
  8 10  1  0  0  0
  8 30  1  0  0  0
  9 10  2  0  0  0
 13 14  2  0  0  0
 14 15  1  0  0  0
 15 16  1  0  0  0
 16 17  1  0  0  0
 16 23  1  0  0  0
 16 31  1  0  0  0
 17 18  1  0  0  0
 18 19  1  0  0  0
 18 21  1  0  0  0
 18 32  1  0  0  0
 19 20  1  0  0  0
 19 33  1  0  0  0
 19 34  1  0  0  0
 20 35  1  0  0  0
 21 22  1  0  0  0
 21 23  1  0  0  0
 21 36  1  0  0  0
 22 37  1  0  0  0
 23 24  1  0  0  0
 23 38  1  0  0  0
 24 39  1  0  0  0
M  CHG  1  11  -1
M  END
> <s_m_source_file>
../4g90_ligand.sdf

> <i_m_source_file_index>
1

> <s_epik_input>
W09IXUMxPUMoRilbQ0gyXU4oQyg9TylbTkhdMSlbQ0gyXWMyW2NIXW4obm4yKVtDQEBIXTNPW0NAQEhdKFtDSDJdW09IXSlbQ0BIXShbT0hdKVtDQEhdM1tPSF0=

> <s_epik_cmdline>
J2VwaWtfYXBwJywgJy1pbWFlJywgJ2xpZ2FuZF9wcm8ubWFlJywgJy1vbWFlJywgJ2xpZ2FuZF9wcmVwLm1hZScsICctbXMnLCAnMScsICctcGgnLCAnNycsICctcGh0JywgJzAuNScsICctbnQn

> <r_lp_tautomer_probability>
1

> <r_epik_Ionization_Penalty>
  0.0070

> <r_epik_Ionization_Penalty_Charging>
  0.0069

> <r_epik_Ionization_Penalty_Neutral>
  0.0001

> <r_epik_State_Penalty>
 -0.0000

> <r_epik_Charging_Adjusted_Penalty>
0.00688508838034262

> <i_epik_Tot_Q>
-1

> <i_epik_Tot_abs_Q>
1

> <s_epik_Chemistry_Notes>
This compound contains an acetal/aminal-like group ( X-CH(R)-Y where X, Y are N, S, or O) that may be acid/base labile, releasing an aldehyde.

$$$$
