4g93_ligand
                    3D
 Schrodinger Suite 2020-3.
 55 57  0  0  1  0            999 V2000
  105.4320  -26.1130  269.1480 C   0  0  0  0  0  0
  106.0450  -27.4120  269.1200 N   0  0  0  0  0  0
  104.9120  -25.7210  268.1140 O   0  0  0  0  0  0
  105.8450  -28.0140  267.8410 C   0  0  2  0  0  0
  104.2650  -29.3380  266.3880 N   0  0  0  0  0  0
  103.9050  -29.2300  268.5890 O   0  0  0  0  0  0
  104.6550  -28.8990  267.6920 C   0  0  0  0  0  0
  103.1540  -30.2000  266.2460 C   0  0  0  0  0  0
  102.4410  -29.8980  264.9470 C   0  0  0  0  0  0
  103.3880  -30.0170  263.7460 C   0  0  0  0  0  0
  104.8120  -29.8590  264.1650 C   0  0  0  0  0  0
  104.9580  -28.9230  265.2700 C   0  0  0  0  0  0
  107.0680  -28.3020  267.0340 C   0  0  1  0  0  0
  107.5180  -29.7330  266.8760 C   0  0  0  0  0  0
  108.0380  -30.1640  265.6840 C   0  0  0  0  0  0
  108.4810  -31.5870  265.5230 C   0  0  0  0  0  0
  108.3970  -32.4410  266.5830 C   0  0  0  0  0  0
  107.8400  -31.9660  267.8860 C   0  0  0  0  0  0
  107.4190  -30.6690  268.0280 C   0  0  0  0  0  0
  105.3750  -25.2290  270.3620 C   0  0  0  0  0  0
  104.3960  -24.2750  270.4290 C   0  0  0  0  0  0
  104.3340  -23.3420  271.5930 C   0  0  0  0  0  0
  105.2520  -23.4490  272.5930 C   0  0  0  0  0  0
  106.3420  -24.4720  272.5030 C   0  0  0  0  0  0
  106.4080  -25.3160  271.4300 C   0  0  0  0  0  0
  105.1830  -22.6690  273.6180 N   0  3  0  0  0  0
  104.2630  -22.8590  274.4270 O   0  0  0  0  0  0
  108.8300  -29.8960  263.3110 C   0  0  0  0  0  0
  106.0400  -21.7810  273.7270 O   0  5  0  0  0  0
  108.2170  -29.3400  264.5030 O   0  0  0  0  0  0
  107.4450  -27.0880  265.5680 Br  0  0  0  0  0  0
  106.6022  -27.9509  269.9005 H   0  0  0  0  0  0
  105.4768  -27.1118  267.3306 H   0  0  0  0  0  0
  103.4988  -31.2445  266.2396 H   0  0  0  0  0  0
  102.4617  -30.0476  267.0871 H   0  0  0  0  0  0
  101.6128  -30.6088  264.8095 H   0  0  0  0  0  0
  102.0432  -28.8729  264.9768 H   0  0  0  0  0  0
  103.2666  -31.0060  263.2800 H   0  0  0  0  0  0
  103.1490  -29.2338  263.0115 H   0  0  0  0  0  0
  105.2097  -30.8328  264.4867 H   0  0  0  0  0  0
  105.4040  -29.4830  263.3176 H   0  0  0  0  0  0
  104.5772  -27.9434  264.9453 H   0  0  0  0  0  0
  106.0277  -28.8387  265.5120 H   0  0  0  0  0  0
  107.5463  -28.3878  268.0208 H   0  0  0  0  0  0
  108.8675  -31.9366  264.5657 H   0  0  0  0  0  0
  108.7366  -33.4716  266.4797 H   0  0  0  0  0  0
  107.7681  -32.6545  268.7280 H   0  0  0  0  0  0
  107.0139  -30.3255  268.9799 H   0  0  0  0  0  0
  103.6590  -24.1961  269.6298 H   0  0  0  0  0  0
  103.5574  -22.5787  271.6421 H   0  0  0  0  0  0
  107.0858  -24.5438  273.2965 H   0  0  0  0  0  0
  107.2121  -26.0482  271.3569 H   0  0  0  0  0  0
  108.8779  -29.1238  262.5291 H   0  0  0  0  0  0
  108.2296  -30.7448  262.9518 H   0  0  0  0  0  0
  109.8472  -30.2408  263.5486 H   0  0  0  0  0  0
  1  2  1  0  0  0
  1  3  2  0  0  0
  1 20  1  0  0  0
  2  4  1  0  0  0
  2 32  1  0  0  0
  4  7  1  0  0  0
  4 13  1  0  0  0
  4 33  1  0  0  0
  5  7  1  0  0  0
  5  8  1  0  0  0
  5 12  1  0  0  0
  6  7  2  0  0  0
  8  9  1  0  0  0
  8 34  1  0  0  0
  8 35  1  0  0  0
  9 10  1  0  0  0
  9 36  1  0  0  0
  9 37  1  0  0  0
 10 11  1  0  0  0
 10 38  1  0  0  0
 10 39  1  0  0  0
 11 12  1  0  0  0
 11 40  1  0  0  0
 11 41  1  0  0  0
 12 42  1  0  0  0
 12 43  1  0  0  0
 13 14  1  0  0  0
 13 31  1  0  0  0
 13 44  1  0  0  0
 14 15  2  0  0  0
 14 19  1  0  0  0
 15 16  1  0  0  0
 15 30  1  0  0  0
 16 17  2  0  0  0
 16 45  1  0  0  0
 17 18  1  0  0  0
 17 46  1  0  0  0
 18 19  2  0  0  0
 18 47  1  0  0  0
 19 48  1  0  0  0
 20 21  2  0  0  0
 20 25  1  0  0  0
 21 22  1  0  0  0
 21 49  1  0  0  0
 22 23  2  0  0  0
 22 50  1  0  0  0
 23 24  1  0  0  0
 23 26  1  0  0  0
 24 25  2  0  0  0
 24 51  1  0  0  0
 25 52  1  0  0  0
 26 27  2  0  0  0
 26 29  1  0  0  0
 28 30  1  0  0  0
 28 53  1  0  0  0
 28 54  1  0  0  0
 28 55  1  0  0  0
M  CHG  2  26   1  29  -1
M  END
> <s_m_source_file>
../4g93_ligand.sdf

> <i_m_source_file_index>
1

> <s_epik_input>
W2NIXTFbY0hdYyhbTitdKD1PKVtPLV0pW2NIXVtjSF1jMUMoPU8pW05IXVtDQEhdKEMoPU8pTjJbQ0gyXVtDSDJdW0NIMl1bQ0gyXVtDSDJdMilbQ0BIXShCciljM2MoT1tDSDNdKVtjSF1bY0hdW2NIXVtjSF0z

> <s_epik_cmdline>
J2VwaWtfYXBwJywgJy1pbWFlJywgJ2xpZ2FuZF9wcm8ubWFlJywgJy1vbWFlJywgJ2xpZ2FuZF9wcmVwLm1hZScsICctbXMnLCAnMScsICctcGgnLCAnNycsICctcGh0JywgJzAuNScsICctbnQn

> <r_lp_tautomer_probability>
1

> <r_epik_Ionization_Penalty>
  0.0000

> <r_epik_Ionization_Penalty_Charging>
  0.0000

> <r_epik_Ionization_Penalty_Neutral>
  0.0000

> <r_epik_State_Penalty>
 -0.0000

> <r_epik_Charging_Adjusted_Penalty>
0

> <i_epik_Tot_Q>
0

> <i_epik_Tot_abs_Q>
2

$$$$
