4g9c_ligand
                    3D
 Schrodinger Suite 2020-3.
 56 59  0  0  1  0            999 V2000
   40.4680  -26.5080   -2.9310 C   0  0  0  0  0  0
   41.1710  -25.2370   -3.1680 C   0  0  0  0  0  0
   41.0490  -27.5820   -3.0940 O   0  0  0  0  0  0
   41.6220  -24.8870   -4.4320 C   0  0  0  0  0  0
   42.2900  -23.6640   -4.6400 C   0  0  0  0  0  0
   42.5000  -22.7970   -3.5660 C   0  0  0  0  0  0
   42.0460  -23.1520   -2.2910 C   0  0  0  0  0  0
   41.3770  -24.3800   -2.0990 C   0  0  0  0  0  0
   40.9310  -24.7290   -0.8670 F   0  0  0  0  0  0
   41.4150  -25.7260   -5.4660 F   0  0  0  0  0  0
   42.7360  -23.3050   -5.9410 N   0  0  0  0  0  0
   39.1890  -26.3770   -2.5310 N   0  0  0  0  0  0
   42.0750  -23.4640   -7.1060 C   0  0  0  0  0  0
   42.6800  -23.0430   -8.1500 C   0  0  0  0  0  0
   40.9540  -23.9600   -7.2080 O   0  0  0  0  0  0
   44.0500  -22.7710   -8.2430 C   0  0  0  0  0  0
   44.5860  -22.3020   -9.4670 C   0  0  0  0  0  0
   43.7360  -22.1150  -10.5800 C   0  0  0  0  0  0
   42.3640  -22.3950  -10.4620 C   0  0  0  0  0  0
   41.8500  -22.8550   -9.2520 C   0  0  0  0  0  0
   41.4260  -22.1980  -11.6540 C   0  0  0  0  0  0
   41.1860  -23.5280  -12.3950 C   0  0  0  0  0  0
   40.0790  -21.6310  -11.1860 C   0  0  0  0  0  0
   38.2430  -27.3880   -2.2180 C   0  0  0  0  0  0
   38.6350  -28.7260   -2.0100 C   0  0  0  0  0  0
   37.6300  -29.6490   -1.7030 C   0  0  0  0  0  0
   36.3390  -29.2220   -1.6190 C   0  0  0  0  0  0
   35.8920  -27.9570   -1.8060 N   0  0  0  0  0  0
   36.8770  -27.0680   -2.1040 C   0  0  0  0  0  0
   37.6470  -31.0100   -1.4430 C   0  0  0  0  0  0
   36.4330  -31.4770   -1.1970 N   0  0  0  0  0  0
   35.6300  -30.3720   -1.3060 N   0  3  0  0  0  0
   42.0080  -21.2400  -12.6030 C   0  0  0  0  0  0
   42.4640  -20.4840  -13.3480 N   0  0  0  0  0  0
   38.7550  -31.7950   -1.4370 O   0  0  0  0  0  0
   38.5860  -33.1820   -1.1530 C   0  0  0  0  0  0
   43.0149  -21.8487   -3.7199 H   0  0  0  0  0  0
   42.2087  -22.4813   -1.4473 H   0  0  0  0  0  0
   43.7243  -22.8410   -6.0751 H   0  0  0  0  0  0
   38.7508  -25.3755   -2.4088 H   0  0  0  0  0  0
   44.6992  -22.9190   -7.3800 H   0  0  0  0  0  0
   45.6511  -22.0859   -9.5502 H   0  0  0  0  0  0
   44.1424  -21.7554  -11.5253 H   0  0  0  0  0  0
   40.7849  -23.0705   -9.1667 H   0  0  0  0  0  0
   40.7495  -24.2610  -11.7006 H   0  0  0  0  0  0
   42.1427  -23.9115  -12.7792 H   0  0  0  0  0  0
   40.4945  -23.3607  -13.2340 H   0  0  0  0  0  0
   39.6162  -22.3278  -10.4717 H   0  0  0  0  0  0
   39.4151  -21.5002  -12.0532 H   0  0  0  0  0  0
   40.2403  -20.6586  -10.6976 H   0  0  0  0  0  0
   39.6793  -29.0291   -2.0854 H   0  0  0  0  0  0
   36.5870  -26.0300   -2.2668 H   0  0  0  0  0  0
   39.5641  -33.6844   -1.1837 H   0  0  0  0  0  0
   37.9192  -33.6314   -1.9036 H   0  0  0  0  0  0
   38.1443  -33.3002   -0.1525 H   0  0  0  0  0  0
   34.5451  -30.4628   -1.1484 H   0  0  0  0  0  0
  1  2  1  0  0  0
  1  3  2  0  0  0
  1 12  1  0  0  0
  2  4  2  0  0  0
  2  8  1  0  0  0
  4  5  1  0  0  0
  4 10  1  0  0  0
  5  6  2  0  0  0
  5 11  1  0  0  0
  6  7  1  0  0  0
  6 37  1  0  0  0
  7  8  2  0  0  0
  7 38  1  0  0  0
  8  9  1  0  0  0
 11 13  1  0  0  0
 11 39  1  0  0  0
 12 24  1  0  0  0
 12 40  1  0  0  0
 13 14  1  0  0  0
 13 15  2  0  0  0
 14 16  2  0  0  0
 14 20  1  0  0  0
 16 17  1  0  0  0
 16 41  1  0  0  0
 17 18  2  0  0  0
 17 42  1  0  0  0
 18 19  1  0  0  0
 18 43  1  0  0  0
 19 20  2  0  0  0
 19 21  1  0  0  0
 20 44  1  0  0  0
 21 22  1  0  0  0
 21 23  1  0  0  0
 21 33  1  0  0  0
 22 45  1  0  0  0
 22 46  1  0  0  0
 22 47  1  0  0  0
 23 48  1  0  0  0
 23 49  1  0  0  0
 23 50  1  0  0  0
 24 25  2  0  0  0
 24 29  1  0  0  0
 25 26  1  0  0  0
 25 51  1  0  0  0
 26 27  2  0  0  0
 26 30  1  0  0  0
 27 28  1  0  0  0
 27 32  1  0  0  0
 28 29  2  0  0  0
 29 52  1  0  0  0
 30 31  2  0  0  0
 30 35  1  0  0  0
 31 32  1  0  0  0
 32 56  1  0  0  0
 33 34  3  0  0  0
 35 36  1  0  0  0
 36 53  1  0  0  0
 36 54  1  0  0  0
 36 55  1  0  0  0
M  CHG  1  32   1
M  END
> <s_m_source_file>
../4g9c_ligand.sdf

> <i_m_source_file_index>
1

> <s_epik_input>
W0NIM11PYzFuW25IXWMoYzEyKW5bY0hdYyhbY0hdMilbTkhdQyg9TyljM2MoRiljKFtjSF1bY0hdYzNGKVtOSF1DKD1PKWM0W2NIXVtjSF1bY0hdYyhbY0hdNClDKFtDSDNdKShbQ0gzXSlDI04=

> <s_epik_cmdline>
J2VwaWtfYXBwJywgJy1pbWFlJywgJ2xpZ2FuZF9wcm8ubWFlJywgJy1vbWFlJywgJ2xpZ2FuZF9wcmVwLm1hZScsICctbXMnLCAnMScsICctcGgnLCAnNycsICctcGh0JywgJzAuNScsICctbnQn

> <r_lp_tautomer_probability>
1

> <r_epik_Ionization_Penalty>
  0.0003

> <r_epik_Ionization_Penalty_Charging>
  0.0000

> <r_epik_Ionization_Penalty_Neutral>
  0.0003

> <r_epik_State_Penalty>
 -0.0000

> <r_epik_Charging_Adjusted_Penalty>
0

> <i_epik_Tot_Q>
1

> <i_epik_Tot_abs_Q>
1

> <s_epik_Chemistry_Notes>
This compound has an imine and may undergo hydrolysis.

$$$$
