4ga3_ligand
                    3D
 Schrodinger Suite 2020-3.
 36 36  0  0  1  0            999 V2000
   17.4860   84.4930   23.9350 C   0  0  0  0  0  0
   17.1980   76.0740   24.2340 O   0  0  0  0  0  0
   16.6710   79.1230   27.8850 O   0  0  0  0  0  0
   14.8900   76.4360   27.3640 O   0  0  0  0  0  0
   15.4300   74.7180   25.5050 O   0  5  0  0  0  0
   14.6970   76.3380   23.7860 O   0  5  0  0  0  0
   17.0460   76.5820   27.8550 O   0  5  0  0  0  0
   18.4440   77.7770   26.2410 O   0  0  0  0  0  0
   16.0390   80.7850   24.8330 C   0  0  0  0  0  0
   15.8300   79.4440   24.7430 C   0  0  0  0  0  0
   14.4280   80.3800   26.1640 C   0  0  0  0  0  0
   16.0860   83.9930   24.4070 C   0  0  0  0  0  0
   16.2250   83.4280   25.8170 C   0  0  0  0  0  0
   14.9840   82.6400   26.1590 C   0  0  0  0  0  0
   14.2310   78.0010   25.9620 C   0  0  0  0  0  0
   15.1880   81.3180   25.7170 N   0  0  0  0  0  0
   14.8460   79.2320   25.5750 N   0  3  0  0  0  0
   15.3940   77.1950   26.2820 C   0  0  2  0  0  0
   15.7940   76.0970   24.8180 P   0  0  0  0  0  0
   16.8920   77.9460   27.0210 P   0  0  0  0  0  0
   17.4047   84.9045   22.9181 H   0  0  0  0  0  0
   18.1948   83.6518   23.9345 H   0  0  0  0  0  0
   17.8459   85.2753   24.6195 H   0  0  0  0  0  0
   13.9686   75.8478   27.2412 H   0  0  0  0  0  0
   19.3386   78.2314   26.6919 H   0  0  0  0  0  0
   16.7876   81.3419   24.2694 H   0  0  0  0  0  0
   16.3581   78.7189   24.1238 H   0  0  0  0  0  0
   13.6095   80.4873   26.8758 H   0  0  0  0  0  0
   15.3772   84.8342   24.4075 H   0  0  0  0  0  0
   15.7261   83.2107   23.7225 H   0  0  0  0  0  0
   17.1052   82.7699   25.8631 H   0  0  0  0  0  0
   16.3471   84.2543   26.5328 H   0  0  0  0  0  0
   14.8242   82.6616   27.2471 H   0  0  0  0  0  0
   14.1154   83.0855   25.6520 H   0  0  0  0  0  0
   13.5694   78.1765   26.8231 H   0  0  0  0  0  0
   13.6418   77.6054   25.1216 H   0  0  0  0  0  0
  1 12  1  0  0  0
  1 21  1  0  0  0
  1 22  1  0  0  0
  1 23  1  0  0  0
  2 19  2  0  0  0
  3 20  2  0  0  0
  4 18  1  0  0  0
  4 24  1  0  0  0
  5 19  1  0  0  0
  6 19  1  0  0  0
  7 20  1  0  0  0
  8 20  1  0  0  0
  8 25  1  0  0  0
  9 10  2  0  0  0
  9 16  1  0  0  0
  9 26  1  0  0  0
 10 17  1  0  0  0
 10 27  1  0  0  0
 11 16  1  0  0  0
 11 17  2  0  0  0
 11 28  1  0  0  0
 12 13  1  0  0  0
 12 29  1  0  0  0
 12 30  1  0  0  0
 13 14  1  0  0  0
 13 31  1  0  0  0
 13 32  1  0  0  0
 14 16  1  0  0  0
 14 33  1  0  0  0
 14 34  1  0  0  0
 15 17  1  0  0  0
 15 18  1  0  0  0
 15 35  1  0  0  0
 15 36  1  0  0  0
 18 19  1  0  0  0
 18 20  1  0  0  0
M  CHG  4   5  -1   6  -1   7  -1  17   1
M  END
> <s_m_source_file>
../4ga3_ligand.sdf

> <i_m_source_file_index>
1

> <s_epik_input>
W0NIM11bQ0gyXVtDSDJdW0NIMl1uMVtjSF1bY0hdW24rXShbY0hdMSlbQ0gyXUMoW09IXSkoUCg9TykoW09IXSlbT0hdKVAoPU8pKFtPSF0pW09IXQ==

> <s_epik_cmdline>
J2VwaWtfYXBwJywgJy1pbWFlJywgJ2xpZ2FuZF9wcm8ubWFlJywgJy1vbWFlJywgJ2xpZ2FuZF9wcmVwLm1hZScsICctbXMnLCAnMScsICctcGgnLCAnNycsICctcGh0JywgJzAuNScsICctbnQn

> <r_lp_tautomer_probability>
1

> <r_epik_Ionization_Penalty>
  0.1153

> <r_epik_Ionization_Penalty_Charging>
  0.1152

> <r_epik_Ionization_Penalty_Neutral>
  0.0001

> <r_epik_State_Penalty>
  0.1048

> <r_epik_Charging_Adjusted_Penalty>
0.220073125570439

> <i_epik_Tot_Q>
-2

> <i_epik_Tot_abs_Q>
4

$$$$
