4gao_ligand
                    3D
 Schrodinger Suite 2020-3.
142141  0  0  1  0            999 V2000
    5.3460   34.0700    5.5880 C   0  0  0  0  0  0
    4.5320   33.8250    6.8260 C   0  0  0  0  0  0
    3.6080   33.0240    6.8430 O   0  0  0  0  0  0
    5.3310   34.6470   10.2160 C   0  0  0  0  0  0
    6.4660   33.6390   10.0660 C   0  0  0  0  0  0
    6.0040   32.1270   10.8490 S   0  0  0  0  0  0
    7.2850   30.9540   10.4680 C   0  0  0  0  0  0
    3.1540   35.5080    9.3430 C   0  0  0  0  0  0
    3.1700   36.2580   10.3060 O   0  0  0  0  0  0
    4.8910   34.5430    7.8910 N   0  0  0  0  0  0
    4.2220   34.4450    9.1830 C   0  0  1  0  0  0
    2.2230   35.5470    8.3870 N   0  0  0  0  0  0
    1.2300   36.6580    8.2430 C   0  0  2  0  0  0
    0.6220   37.0760    9.5830 C   0  0  0  0  0  0
    0.5650   38.2660    9.8870 O   0  0  0  0  0  0
    0.0970   36.2840    7.2410 C   0  0  2  0  0  0
    0.6420   36.1490    5.8120 C   0  0  0  0  0  0
   -1.0590   37.2870    7.2990 C   0  0  0  0  0  0
    1.0210   37.4610    5.1490 C   0  0  0  0  0  0
    0.1910   36.1030   10.3880 N   0  0  0  0  0  0
   -0.5150   36.3990   11.6380 C   0  0  2  0  0  0
    0.3810   36.8630   12.8030 C   0  0  0  0  0  0
   -0.1260   37.1470   13.8920 O   0  0  0  0  0  0
   -1.3960   35.2110   12.0650 C   0  0  0  0  0  0
    1.6920   36.9650   12.5750 N   0  0  0  0  0  0
    2.6370   37.2950   13.6540 C   0  0  2  0  0  0
    2.4500   38.6810   14.2610 C   0  0  0  0  0  0
    2.6980   38.8670   15.4550 O   0  0  0  0  0  0
    4.0940   37.1040   13.2110 C   0  0  0  0  0  0
    5.1490   37.0880   14.3260 C   0  0  0  0  0  0
    4.9120   35.9300   15.2800 C   0  0  0  0  0  0
    6.5650   37.0490   13.7680 C   0  0  0  0  0  0
    2.0250   39.6460   13.4440 N   0  0  0  0  0  0
    1.7860   41.0120   13.9210 C   0  0  2  0  0  0
    0.5670   41.0850   14.8490 C   0  0  0  0  0  0
    0.6270   41.6970   15.9190 O   0  0  0  0  0  0
    1.6330   41.9850   12.7470 C   0  0  0  0  0  0
   -0.5290   40.4510   14.4350 N   0  0  0  0  0  0
   -1.7430   40.3840   15.2470 C   0  0  2  0  0  0
   -1.5110   39.6190   16.5490 C   0  0  0  0  0  0
   -2.0310   40.0010   17.5970 O   0  0  0  0  0  0
   -2.8910   39.7460   14.4580 C   0  0  0  0  0  0
   -0.7220   38.5500   16.4750 N   0  0  0  0  0  0
   -0.4450   37.7030   17.6340 C   0  0  2  0  0  0
    0.5360   38.3390   18.6270 C   0  0  0  0  0  0
    0.6140   37.9090   19.7810 O   0  0  0  0  0  0
    0.0390   36.3160   17.1960 C   0  0  0  0  0  0
    1.2750   39.3580   18.1780 N   0  0  0  0  0  0
    2.1600   40.1350   19.0570 C   0  0  2  0  0  0
    1.3880   41.2600   19.7500 C   0  0  0  0  0  0
    1.5610   41.4900   20.9470 O   0  0  0  0  0  0
    3.3570   40.6980   18.2830 C   0  0  0  0  0  0
    0.5270   41.9420   18.9940 N   0  0  0  0  0  0
   -0.3590   42.9780   19.5360 C   0  0  2  0  0  0
   -1.4370   42.4150   20.4770 C   0  0  0  0  0  0
   -2.0330   43.1580   21.2670 O   0  0  0  0  0  0
   -1.0050   43.7830   18.3990 C   0  0  0  0  0  0
   -1.6780   41.1070   20.3880 N   0  0  0  0  0  0
   -2.6570   40.4280   21.2440 C   0  0  2  0  0  0
   -2.0350   39.8010   22.5020 C   0  0  0  0  0  0
   -2.7550   39.4680   23.4530 O   0  0  0  0  0  0
   -3.4330   39.3600   20.4500 C   0  0  0  0  0  0
   -0.7100   39.6350   22.5000 N   0  0  0  0  0  0
    0.0040   39.0620   23.6500 C   0  0  2  0  0  0
    0.7490   40.1330   24.4550 C   0  0  0  0  0  0
    0.3953   40.4265   25.6282 O   0  5  0  0  0  0
    0.9660   37.9480   23.2130 C   0  0  0  0  0  0
    1.7301   40.7289   23.9355 O   0  0  0  0  0  0
    4.9728   33.4338    4.7719 H   0  0  0  0  0  0
    6.4002   33.8283    5.7886 H   0  0  0  0  0  0
    5.2612   35.1273    5.2967 H   0  0  0  0  0  0
    4.8825   34.5480   11.2155 H   0  0  0  0  0  0
    5.7264   35.6658   10.0908 H   0  0  0  0  0  0
    6.6575   33.4587    8.9979 H   0  0  0  0  0  0
    7.3754   34.0376   10.5394 H   0  0  0  0  0  0
    7.0468   29.9866   10.9343 H   0  0  0  0  0  0
    8.2462   31.3216   10.8566 H   0  0  0  0  0  0
    7.3544   30.8282    9.3774 H   0  0  0  0  0  0
    5.7361   35.2349    7.7603 H   0  0  0  0  0  0
    3.7149   33.4714    9.2537 H   0  0  0  0  0  0
    2.2099   34.7028    7.6819 H   0  0  0  0  0  0
    1.8222   37.5028    7.8614 H   0  0  0  0  0  0
   -0.3141   35.3059    7.5316 H   0  0  0  0  0  0
    1.5482   35.5256    5.8226 H   0  0  0  0  0  0
   -0.1191   35.6786    5.1722 H   0  0  0  0  0  0
   -1.4277   37.3622    8.3326 H   0  0  0  0  0  0
   -1.8735   36.9460    6.6431 H   0  0  0  0  0  0
   -0.7060   38.2731    6.9630 H   0  0  0  0  0  0
    1.3985   37.2637    4.1348 H   0  0  0  0  0  0
    1.8033   37.9585    5.7411 H   0  0  0  0  0  0
    0.1359   38.1115    5.0907 H   0  0  0  0  0  0
    0.3763   35.0591   10.0949 H   0  0  0  0  0  0
   -1.1274   37.2654   11.3475 H   0  0  0  0  0  0
   -2.0252   34.8983   11.2186 H   0  0  0  0  0  0
   -2.0369   35.5135   12.9063 H   0  0  0  0  0  0
   -0.7554   34.3723   12.3752 H   0  0  0  0  0  0
    2.0615   36.7961   11.5528 H   0  0  0  0  0  0
    2.3621   36.5633   14.4280 H   0  0  0  0  0  0
    4.1947   36.1424   12.6864 H   0  0  0  0  0  0
    4.3820   37.9224   12.5348 H   0  0  0  0  0  0
    5.0507   38.0238   14.8957 H   0  0  0  0  0  0
    3.8843   35.9799   15.6690 H   0  0  0  0  0  0
    5.6240   35.9922   16.1162 H   0  0  0  0  0  0
    5.0561   34.9794   14.7456 H   0  0  0  0  0  0
    6.7120   37.8957   13.0814 H   0  0  0  0  0  0
    6.7190   36.1051   13.2245 H   0  0  0  0  0  0
    7.2870   37.1180   14.5950 H   0  0  0  0  0  0
    1.8538   39.3947   12.3869 H   0  0  0  0  0  0
    2.6881   41.2668   14.4966 H   0  0  0  0  0  0
    2.5169   41.9158   12.0959 H   0  0  0  0  0  0
    1.5401   43.0115   13.1313 H   0  0  0  0  0  0
    0.7322   41.7261   12.1712 H   0  0  0  0  0  0
   -0.5007   39.9681   13.4471 H   0  0  0  0  0  0
   -1.9770   41.4329   15.4817 H   0  0  0  0  0  0
   -3.0486   40.3047   13.5236 H   0  0  0  0  0  0
   -3.8104   39.7737   15.0613 H   0  0  0  0  0  0
   -2.6382   38.7017   14.2226 H   0  0  0  0  0  0
   -0.2722   38.3120   15.4998 H   0  0  0  0  0  0
   -1.4230   37.6240   18.1312 H   0  0  0  0  0  0
   -0.6813   35.8837   16.4858 H   0  0  0  0  0  0
    0.1233   35.6621   18.0765 H   0  0  0  0  0  0
    1.0223   36.4069   16.7113 H   0  0  0  0  0  0
    1.2039   39.6079   17.1091 H   0  0  0  0  0  0
    2.5211   39.4198   19.8107 H   0  0  0  0  0  0
    3.8972   39.8743   17.7933 H   0  0  0  0  0  0
    4.0325   41.2169   18.9791 H   0  0  0  0  0  0
    3.0004   41.4068   17.5211 H   0  0  0  0  0  0
    0.4982   41.6997   17.9214 H   0  0  0  0  0  0
    0.3138   43.6154   20.1285 H   0  0  0  0  0  0
   -0.2200   44.1774   17.7370 H   0  0  0  0  0  0
   -1.5812   44.6187   18.8228 H   0  0  0  0  0  0
   -1.6765   43.1296   17.8227 H   0  0  0  0  0  0
   -1.1115   40.5343   19.6390 H   0  0  0  0  0  0
   -3.3212   41.2460   21.5596 H   0  0  0  0  0  0
   -3.8738   39.8186   19.5526 H   0  0  0  0  0  0
   -4.2332   38.9442   21.0800 H   0  0  0  0  0  0
   -2.7461   38.5547   20.1506 H   0  0  0  0  0  0
   -0.1517   39.9415   21.6031 H   0  0  0  0  0  0
   -0.7930   38.6366   24.2776 H   0  0  0  0  0  0
    0.4130   37.1908   22.6378 H   0  0  0  0  0  0
    1.4123   37.4792   24.1024 H   0  0  0  0  0  0
    1.7618   38.3760   22.5857 H   0  0  0  0  0  0
  1  2  1  0  0  0
  1 69  1  0  0  0
  1 70  1  0  0  0
  1 71  1  0  0  0
  2  3  2  0  0  0
  2 10  1  0  0  0
  4  5  1  0  0  0
  4 11  1  0  0  0
  4 72  1  0  0  0
  4 73  1  0  0  0
  5  6  1  0  0  0
  5 74  1  0  0  0
  5 75  1  0  0  0
  6  7  1  0  0  0
  7 76  1  0  0  0
  7 77  1  0  0  0
  7 78  1  0  0  0
  8  9  2  0  0  0
  8 11  1  0  0  0
  8 12  1  0  0  0
 10 11  1  0  0  0
 10 79  1  0  0  0
 11 80  1  0  0  0
 12 13  1  0  0  0
 12 81  1  0  0  0
 13 14  1  0  0  0
 13 16  1  0  0  0
 13 82  1  0  0  0
 14 15  2  0  0  0
 14 20  1  0  0  0
 16 17  1  0  0  0
 16 18  1  0  0  0
 16 83  1  0  0  0
 17 19  1  0  0  0
 17 84  1  0  0  0
 17 85  1  0  0  0
 18 86  1  0  0  0
 18 87  1  0  0  0
 18 88  1  0  0  0
 19 89  1  0  0  0
 19 90  1  0  0  0
 19 91  1  0  0  0
 20 21  1  0  0  0
 20 92  1  0  0  0
 21 22  1  0  0  0
 21 24  1  0  0  0
 21 93  1  0  0  0
 22 23  2  0  0  0
 22 25  1  0  0  0
 24 94  1  0  0  0
 24 95  1  0  0  0
 24 96  1  0  0  0
 25 26  1  0  0  0
 25 97  1  0  0  0
 26 27  1  0  0  0
 26 29  1  0  0  0
 26 98  1  0  0  0
 27 28  2  0  0  0
 27 33  1  0  0  0
 29 30  1  0  0  0
 29 99  1  0  0  0
 29100  1  0  0  0
 30 31  1  0  0  0
 30 32  1  0  0  0
 30101  1  0  0  0
 31102  1  0  0  0
 31103  1  0  0  0
 31104  1  0  0  0
 32105  1  0  0  0
 32106  1  0  0  0
 32107  1  0  0  0
 33 34  1  0  0  0
 33108  1  0  0  0
 34 35  1  0  0  0
 34 37  1  0  0  0
 34109  1  0  0  0
 35 36  2  0  0  0
 35 38  1  0  0  0
 37110  1  0  0  0
 37111  1  0  0  0
 37112  1  0  0  0
 38 39  1  0  0  0
 38113  1  0  0  0
 39 40  1  0  0  0
 39 42  1  0  0  0
 39114  1  0  0  0
 40 41  2  0  0  0
 40 43  1  0  0  0
 42115  1  0  0  0
 42116  1  0  0  0
 42117  1  0  0  0
 43 44  1  0  0  0
 43118  1  0  0  0
 44 45  1  0  0  0
 44 47  1  0  0  0
 44119  1  0  0  0
 45 46  2  0  0  0
 45 48  1  0  0  0
 47120  1  0  0  0
 47121  1  0  0  0
 47122  1  0  0  0
 48 49  1  0  0  0
 48123  1  0  0  0
 49 50  1  0  0  0
 49 52  1  0  0  0
 49124  1  0  0  0
 50 51  2  0  0  0
 50 53  1  0  0  0
 52125  1  0  0  0
 52126  1  0  0  0
 52127  1  0  0  0
 53 54  1  0  0  0
 53128  1  0  0  0
 54 55  1  0  0  0
 54 57  1  0  0  0
 54129  1  0  0  0
 55 56  2  0  0  0
 55 58  1  0  0  0
 57130  1  0  0  0
 57131  1  0  0  0
 57132  1  0  0  0
 58 59  1  0  0  0
 58133  1  0  0  0
 59 60  1  0  0  0
 59 62  1  0  0  0
 59134  1  0  0  0
 60 61  2  0  0  0
 60 63  1  0  0  0
 62135  1  0  0  0
 62136  1  0  0  0
 62137  1  0  0  0
 63 64  1  0  0  0
 63138  1  0  0  0
 64 65  1  0  0  0
 64 67  1  0  0  0
 64139  1  0  0  0
 65 66  1  0  0  0
 65 68  2  0  0  0
 67140  1  0  0  0
 67141  1  0  0  0
 67142  1  0  0  0
M  CHG  1  66  -1
M  END
> <s_m_source_file>
../4gao_ligand.sdf

> <i_m_source_file_index>
1

> <s_epik_input>
W0NIM11TW0NIMl1bQ0gyXVtDQEhdKFtOSF1DKD1PKVtDSDNdKUMoPU8pW05IXVtDQEBIXShbQ0BASF0oW0NIM10pW0NIMl1bQ0gzXSlDKD1PKVtOSF1bQ0BASF0oW0NIM10pQyg9TylbTkhdW0NAQEhdKFtDSDJdW0NIXShbQ0gzXSlbQ0gzXSlDKD1PKVtOSF1bQ0BASF0oW0NIM10pQyg9TylbTkhdW0NAQEhdKFtDSDNdKUMoPU8pW05IXVtDQEBIXShbQ0gzXSlDKD1PKVtOSF1bQ0BASF0oW0NIM10pQyg9TylbTkhdW0NAQEhdKFtDSDNdKUMoPU8pW05IXVtDQEBIXShbQ0gzXSlDKD1PKVtOSF1bQ0BASF0oW0NIM10pQyg9TylbT0hd

> <s_epik_cmdline>
J2VwaWtfYXBwJywgJy1pbWFlJywgJ2xpZ2FuZF9wcm8ubWFlJywgJy1vbWFlJywgJ2xpZ2FuZF9wcmVwLm1hZScsICctbXMnLCAnMScsICctcGgnLCAnNycsICctcGh0JywgJzAuNScsICctbnQn

> <r_lp_tautomer_probability>
1

> <r_epik_Ionization_Penalty>
  0.0001

> <r_epik_Ionization_Penalty_Charging>
  0.0001

> <r_epik_Ionization_Penalty_Neutral>
  0.0000

> <r_epik_State_Penalty>
 -0.0000

> <r_epik_Charging_Adjusted_Penalty>
0.000148387568675694

> <i_epik_Tot_Q>
-1

> <i_epik_Tot_abs_Q>
1

$$$$
