4gb9_ligand
                    3D
 Schrodinger Suite 2020-3.
 79 84  0  0  1  0            999 V2000
    9.0550   -2.9520   16.6550 C   0  0  0  0  0  0
   13.4260   -1.4250   18.9060 N   0  3  1  0  0  0
   15.1030   -8.2290   22.2000 O   0  0  0  0  0  0
    9.3100   -2.3920   18.0510 C   0  0  0  0  0  0
   15.4750   -3.4400   19.7570 N   0  0  0  0  0  0
    9.2420   -3.4290   18.9540 O   0  0  0  0  0  0
    8.2310   -1.3550   18.3930 C   0  0  0  0  0  0
   17.0700   -2.0030   19.1310 N   0  0  0  0  0  0
   10.7070   -1.6580   18.1060 C   0  0  1  0  0  0
   18.9750   -3.7330   19.0560 N   0  0  0  0  0  0
   11.0570   -1.2920   19.5000 C   0  0  0  0  0  0
   18.3460   -5.9430   19.6190 N   0  0  0  0  0  0
   12.3950   -0.6490   19.5700 C   0  0  0  0  0  0
   16.1480   -6.5970   20.2440 N   0  0  0  0  0  0
   13.0680   -1.7800   17.5420 C   0  0  0  0  0  0
   11.7260   -2.4380   17.4720 C   0  0  0  0  0  0
   14.7540   -0.9400   19.4390 C   0  0  0  0  0  0
   15.7670   -2.1020   19.4350 C   0  0  0  0  0  0
   16.6720   -4.1820   19.6440 C   0  0  0  0  0  0
   17.6660   -3.2940   19.2590 C   0  0  0  0  0  0
   17.8240   -0.8550   18.7350 C   0  0  0  0  0  0
   19.2790   -5.0240   19.2460 C   0  0  0  0  0  0
   17.0550   -5.5630   19.8370 C   0  0  0  0  0  0
   14.8200   -6.4150   20.6780 C   0  0  0  0  0  0
   14.5950   -6.9320   22.0600 C   0  0  0  0  0  0
   16.4820   -8.2780   21.9230 C   0  0  0  0  0  0
   16.7280   -7.8550   20.5180 C   0  0  0  0  0  0
   20.5970   -5.4580   19.0040 N   0  0  0  0  0  0
   21.2250   -6.5160   19.6440 C   0  0  0  0  0  0
   20.8400   -7.3960   20.6420 C   0  0  0  0  0  0
   21.7260   -8.3610   21.0720 C   0  0  0  0  0  0
   22.9920   -8.4550   20.5160 C   0  0  0  0  0  0
   23.3910   -7.5900   19.5230 C   0  0  0  0  0  0
   22.5070   -6.6040   19.0790 C   0  0  0  0  0  0
   22.6010   -5.6290   18.1390 N   0  0  0  0  0  0
   21.4830   -4.9530   18.0860 C   0  0  0  0  0  0
   21.2400   -3.8880   17.2420 N   0  0  0  0  0  0
   20.1500   -4.1760   16.2970 C   0  0  0  0  0  0
   22.4570   -3.4570   16.5420 C   0  0  0  0  0  0
    8.0789   -3.4589   16.6359 H   0  0  0  0  0  0
    9.8467   -3.6712   16.3982 H   0  0  0  0  0  0
    9.0555   -2.1297   15.9244 H   0  0  0  0  0  0
   13.4987   -2.5044   19.1050 H   0  0  0  0  0  0
    8.3261   -4.0335   19.0294 H   0  0  0  0  0  0
    7.2407   -1.8331   18.3641 H   0  0  0  0  0  0
    8.2642   -0.5358   17.6596 H   0  0  0  0  0  0
    8.4149   -0.9531   19.4003 H   0  0  0  0  0  0
   10.7299   -0.7208   17.5305 H   0  0  0  0  0  0
   10.3093   -0.5873   19.8928 H   0  0  0  0  0  0
   11.0710   -2.1975   20.1244 H   0  0  0  0  0  0
   12.6546   -0.5272   20.6320 H   0  0  0  0  0  0
   12.3180    0.3404   19.0955 H   0  0  0  0  0  0
   13.0395   -0.8717   16.9222 H   0  0  0  0  0  0
   13.8157   -2.4774   17.1363 H   0  0  0  0  0  0
   11.7997   -3.4173   17.9675 H   0  0  0  0  0  0
   11.4712   -2.5819   16.4116 H   0  0  0  0  0  0
   15.1292   -0.1253   18.8022 H   0  0  0  0  0  0
   14.6239   -0.5715   20.4672 H   0  0  0  0  0  0
   17.1638    0.0243   18.7037 H   0  0  0  0  0  0
   18.2550   -1.0257   17.7374 H   0  0  0  0  0  0
   18.6334   -0.6803   19.4591 H   0  0  0  0  0  0
   14.5766   -5.3423   20.6737 H   0  0  0  0  0  0
   14.1366   -6.9487   20.0011 H   0  0  0  0  0  0
   13.5138   -6.9379   22.2625 H   0  0  0  0  0  0
   15.0979   -6.2623   22.7731 H   0  0  0  0  0  0
   17.0174   -7.6019   22.6059 H   0  0  0  0  0  0
   16.8479   -9.3059   22.0632 H   0  0  0  0  0  0
   16.2957   -8.6120   19.8471 H   0  0  0  0  0  0
   17.8148   -7.8005   20.3574 H   0  0  0  0  0  0
   19.8458   -7.3263   21.0833 H   0  0  0  0  0  0
   21.4279   -9.0565   21.8566 H   0  0  0  0  0  0
   23.6798   -9.2232   20.8695 H   0  0  0  0  0  0
   24.3867   -7.6734   19.0874 H   0  0  0  0  0  0
   19.2567   -4.4951   16.8539 H   0  0  0  0  0  0
   20.4611   -4.9785   15.6120 H   0  0  0  0  0  0
   19.9172   -3.2698   15.7185 H   0  0  0  0  0  0
   23.2491   -3.2507   17.2769 H   0  0  0  0  0  0
   22.2448   -2.5444   15.9657 H   0  0  0  0  0  0
   22.7886   -4.2531   15.8592 H   0  0  0  0  0  0
  1  4  1  0  0  0
  1 40  1  0  0  0
  1 41  1  0  0  0
  1 42  1  0  0  0
  2 13  1  0  0  0
  2 15  1  0  0  0
  2 17  1  0  0  0
  2 43  1  0  0  0
  3 25  1  0  0  0
  3 26  1  0  0  0
  4  6  1  0  0  0
  4  7  1  0  0  0
  4  9  1  0  0  0
  5 18  2  0  0  0
  5 19  1  0  0  0
  6 44  1  0  0  0
  7 45  1  0  0  0
  7 46  1  0  0  0
  7 47  1  0  0  0
  8 18  1  0  0  0
  8 20  1  0  0  0
  8 21  1  0  0  0
  9 11  1  0  0  0
  9 16  1  0  0  0
  9 48  1  0  0  0
 10 20  1  0  0  0
 10 22  2  0  0  0
 11 13  1  0  0  0
 11 49  1  0  0  0
 11 50  1  0  0  0
 12 22  1  0  0  0
 12 23  2  0  0  0
 13 51  1  0  0  0
 13 52  1  0  0  0
 14 23  1  0  0  0
 14 24  1  0  0  0
 14 27  1  0  0  0
 15 16  1  0  0  0
 15 53  1  0  0  0
 15 54  1  0  0  0
 16 55  1  0  0  0
 16 56  1  0  0  0
 17 18  1  0  0  0
 17 57  1  0  0  0
 17 58  1  0  0  0
 19 20  2  0  0  0
 19 23  1  0  0  0
 21 59  1  0  0  0
 21 60  1  0  0  0
 21 61  1  0  0  0
 22 28  1  0  0  0
 24 25  1  0  0  0
 24 62  1  0  0  0
 24 63  1  0  0  0
 25 64  1  0  0  0
 25 65  1  0  0  0
 26 27  1  0  0  0
 26 66  1  0  0  0
 26 67  1  0  0  0
 27 68  1  0  0  0
 27 69  1  0  0  0
 28 29  1  0  0  0
 28 36  1  0  0  0
 29 30  1  0  0  0
 29 34  2  0  0  0
 30 31  2  0  0  0
 30 70  1  0  0  0
 31 32  1  0  0  0
 31 71  1  0  0  0
 32 33  2  0  0  0
 32 72  1  0  0  0
 33 34  1  0  0  0
 33 73  1  0  0  0
 34 35  1  0  0  0
 35 36  2  0  0  0
 36 37  1  0  0  0
 37 38  1  0  0  0
 37 39  1  0  0  0
 38 74  1  0  0  0
 38 75  1  0  0  0
 38 76  1  0  0  0
 39 77  1  0  0  0
 39 78  1  0  0  0
 39 79  1  0  0  0
M  CHG  1   2   1
M  END
> <s_m_source_file>
../4gb9_ligand.sdf

> <i_m_source_file_index>
1

> <s_epik_input>
W0NIM11DKFtPSF0pKFtDSDNdKVtDQEhdKFtDSDJdW0NIMl0xKVtDSDJdW0NIMl1bTkBASCtdMVtDSDJdYyhuMiluKFtDSDNdKWMoYzIzKW5jKG5jM040W0NIMl1bQ0gyXU9bQ0gyXVtDSDJdNCktbjVjKE4oW0NIM10pW0NIM10pbmMoYzU2KVtjSF1bY0hdW2NIXVtjSF02

> <s_epik_cmdline>
J2VwaWtfYXBwJywgJy1pbWFlJywgJ2xpZ2FuZF9wcm8ubWFlJywgJy1vbWFlJywgJ2xpZ2FuZF9wcmVwLm1hZScsICctbXMnLCAnMScsICctcGgnLCAnNycsICctcGh0JywgJzAuNScsICctbnQn

> <r_lp_tautomer_probability>
1

> <r_epik_Ionization_Penalty>
  0.2967

> <r_epik_Ionization_Penalty_Charging>
  0.1570

> <r_epik_Ionization_Penalty_Neutral>
  0.1396

> <r_epik_State_Penalty>
 -0.0000

> <r_epik_Charging_Adjusted_Penalty>
0.157028054692876

> <i_epik_Tot_Q>
1

> <i_epik_Tot_abs_Q>
1

$$$$
