4gcj_ligand
                    3D
 Schrodinger Suite 2020-3.
 41 43  0  0  1  0            999 V2000
  -51.2180  101.2970  -64.8540 N   0  0  0  0  0  0
  -49.8080   99.5220  -65.2420 N   0  0  0  0  0  0
  -52.8710  102.8060  -64.1830 N   0  0  0  0  0  0
  -47.0450   93.7690  -62.9890 N   0  0  0  0  0  0
  -56.5950   99.3690  -62.4800 N   0  3  0  0  0  0
  -52.9070  100.5910  -63.3690 C   0  0  0  0  0  0
  -52.3620  101.6220  -64.1410 C   0  0  0  0  0  0
  -50.8790  100.0290  -64.6510 C   0  0  0  0  0  0
  -49.0490   98.4750  -64.8730 C   0  0  0  0  0  0
  -54.0230  100.6840  -62.5330 C   0  0  0  0  0  0
  -54.3680   99.6530  -61.6320 C   0  0  0  0  0  0
  -55.6720   99.0340  -61.6450 C   0  0  0  0  0  0
  -55.9640   98.0270  -60.6990 C   0  0  0  0  0  0
  -55.0040   97.6190  -59.7520 C   0  0  0  0  0  0
  -53.7310   98.2070  -59.7320 C   0  0  0  0  0  0
  -53.4120   99.2210  -60.6610 C   0  0  0  0  0  0
  -49.1770   97.7870  -63.6320 C   0  0  0  0  0  0
  -48.3310   96.7100  -63.3050 C   0  0  0  0  0  0
  -47.3310   96.3020  -64.2150 C   0  0  0  0  0  0
  -47.1820   96.9650  -65.4510 C   0  0  0  0  0  0
  -48.0380   98.0450  -65.7790 C   0  0  0  0  0  0
  -54.6770  101.7380  -62.4730 O   0  0  0  0  0  0
  -45.2850   95.5630  -62.8670 O   0  0  0  0  0  0
  -45.5850   94.4650  -64.9600 O   0  0  0  0  0  0
  -57.8400   99.3560  -62.0910 O   0  0  0  0  0  0
  -56.3120   99.7280  -63.7080 O   0  5  0  0  0  0
  -51.9390   99.1570  -63.6060 S   0  0  0  0  0  0
  -46.2390   94.9820  -63.7780 S   0  0  0  0  0  0
  -49.4285   99.9710  -66.1717 H   0  0  0  0  0  0
  -52.4048  103.5833  -64.8062 H   0  0  0  0  0  0
  -53.7714  103.0387  -63.5956 H   0  0  0  0  0  0
  -46.3385   92.9660  -62.7322 H   0  0  0  0  0  0
  -47.8343   93.3681  -63.6419 H   0  0  0  0  0  0
  -56.9479   97.5579  -60.7015 H   0  0  0  0  0  0
  -55.2524   96.8411  -59.0300 H   0  0  0  0  0  0
  -52.9902   97.8821  -59.0014 H   0  0  0  0  0  0
  -52.4239   99.6805  -60.6376 H   0  0  0  0  0  0
  -49.9435   98.1000  -62.9230 H   0  0  0  0  0  0
  -48.4475   96.1928  -62.3526 H   0  0  0  0  0  0
  -46.4102   96.6472  -66.1520 H   0  0  0  0  0  0
  -47.9214   98.5530  -66.7363 H   0  0  0  0  0  0
  1  7  1  0  0  0
  1  8  2  0  0  0
  2  8  1  0  0  0
  2  9  1  0  0  0
  2 29  1  0  0  0
  3  7  1  0  0  0
  3 30  1  0  0  0
  3 31  1  0  0  0
  4 28  1  0  0  0
  4 32  1  0  0  0
  4 33  1  0  0  0
  5 12  1  0  0  0
  5 25  2  0  0  0
  5 26  1  0  0  0
  6  7  2  0  0  0
  6 10  1  0  0  0
  6 27  1  0  0  0
  8 27  1  0  0  0
  9 17  2  0  0  0
  9 21  1  0  0  0
 10 11  1  0  0  0
 10 22  2  0  0  0
 11 12  2  0  0  0
 11 16  1  0  0  0
 12 13  1  0  0  0
 13 14  2  0  0  0
 13 34  1  0  0  0
 14 15  1  0  0  0
 14 35  1  0  0  0
 15 16  2  0  0  0
 15 36  1  0  0  0
 16 37  1  0  0  0
 17 18  1  0  0  0
 17 38  1  0  0  0
 18 19  2  0  0  0
 18 39  1  0  0  0
 19 20  1  0  0  0
 19 28  1  0  0  0
 20 21  2  0  0  0
 20 40  1  0  0  0
 21 41  1  0  0  0
 23 28  2  0  0  0
 24 28  2  0  0  0
M  CHG  2   5   1  26  -1
M  END
> <s_m_source_file>
../4gcj_ligand.sdf

> <i_m_source_file_index>
1

> <s_epik_input>
W05IMl1TKD1PKSg9TyljKFtjSF1bY0hdMSlbY0hdW2NIXWMxW05IXWMoczIpbmMoW05IMl0pYzJDKD1PKWMzYyhbTitdKD1PKVtPLV0pW2NIXVtjSF1bY0hdW2NIXTM=

> <s_epik_cmdline>
J2VwaWtfYXBwJywgJy1pbWFlJywgJ2xpZ2FuZF9wcm8ubWFlJywgJy1vbWFlJywgJ2xpZ2FuZF9wcmVwLm1hZScsICctbXMnLCAnMScsICctcGgnLCAnNycsICctcGh0JywgJzAuNScsICctbnQn

> <r_lp_tautomer_probability>
1

> <r_epik_Ionization_Penalty>
  0.0006

> <r_epik_Ionization_Penalty_Charging>
  0.0000

> <r_epik_Ionization_Penalty_Neutral>
  0.0006

> <r_epik_State_Penalty>
 -0.0000

> <r_epik_Charging_Adjusted_Penalty>
0

> <i_epik_Tot_Q>
0

> <i_epik_Tot_abs_Q>
2

$$$$
