4gd6_ligand
                    3D
 Schrodinger Suite 2020-3.
 53 55  0  0  1  0            999 V2000
   42.8310   60.0590   -1.5950 C   0  0  0  0  0  0
   44.0230   60.1860   -2.3030 C   0  0  0  0  0  0
   45.0610   60.9590   -1.7740 C   0  0  0  0  0  0
   44.9260   61.6090   -0.5520 C   0  0  0  0  0  0
   43.7340   61.4900    0.1550 C   0  0  0  0  0  0
   42.7030   60.7130   -0.3690 C   0  0  0  0  0  0
   41.4170   60.6000    0.4240 C   0  0  0  0  0  0
   40.3410   61.5020   -0.1890 C   0  0  0  0  0  0
   40.6030   62.5960   -0.6920 O   0  0  0  0  0  0
   39.0830   61.0250   -0.1420 O   0  0  0  0  0  0
   38.0020   61.8400   -0.5610 C   0  0  0  0  0  0
   36.7740   61.3020    0.1860 C   0  0  1  0  0  0
   35.3330   61.6210   -0.8840 S   0  0  0  0  0  0
   35.6760   60.9370   -2.1730 O   0  0  0  0  0  0
   35.2850   63.1100   -1.0910 O   0  0  0  0  0  0
   36.8640   59.7850    0.4670 C   0  0  0  0  0  0
   36.5630   62.1480    1.4550 C   0  0  2  0  0  0
   37.7550   62.1050    2.4430 C   0  0  0  0  0  0
   37.7740   61.1900    3.2950 O   0  0  0  0  0  0
   38.6190   63.0080    2.2890 O   0  5  0  0  0  0
   35.2630   61.8360    2.1030 N   0  0  0  0  0  0
   34.8120   62.6310    3.0800 C   0  0  0  0  0  0
   34.6950   64.0140    3.0380 N   0  0  0  0  0  0
   34.9570   64.9650    2.0320 C   0  0  0  0  0  0
   34.7130   66.3070    2.3080 C   0  0  0  0  0  0
   34.2220   66.7160    3.5470 C   0  0  0  0  0  0
   33.9530   65.7730    4.5430 C   0  0  0  0  0  0
   34.1770   64.4130    4.2940 C   0  0  0  0  0  0
   33.9950   63.3020    5.0490 C   0  0  0  0  0  0
   34.3720   62.2320    4.3260 C   0  0  0  0  0  0
   34.3310   60.7680    4.7470 C   0  0  0  0  0  0
   34.5110   59.8470    3.9510 O   0  0  0  0  0  0
   42.0119   59.4591   -1.9915 H   0  0  0  0  0  0
   44.1462   59.6860   -3.2637 H   0  0  0  0  0  0
   45.9937   61.0540   -2.3299 H   0  0  0  0  0  0
   45.7459   62.2057   -0.1523 H   0  0  0  0  0  0
   43.6077   61.9999    1.1101 H   0  0  0  0  0  0
   41.0668   59.5574    0.4079 H   0  0  0  0  0  0
   41.5989   60.9097    1.4637 H   0  0  0  0  0  0
   38.2081   62.8874   -0.2956 H   0  0  0  0  0  0
   37.8798   61.7552   -1.6509 H   0  0  0  0  0  0
   34.1687   61.1981   -0.3999 H   0  0  0  0  0  0
   37.0141   59.2451   -0.4795 H   0  0  0  0  0  0
   35.9313   59.4438    0.9399 H   0  0  0  0  0  0
   37.7107   59.5865    1.1406 H   0  0  0  0  0  0
   36.4731   63.1965    1.1346 H   0  0  0  0  0  0
   34.6829   60.9596    1.7783 H   0  0  0  0  0  0
   35.3419   64.6567    1.0599 H   0  0  0  0  0  0
   34.9100   67.0541    1.5392 H   0  0  0  0  0  0
   34.0473   67.7745    3.7396 H   0  0  0  0  0  0
   33.5698   66.0952    5.5112 H   0  0  0  0  0  0
   33.6090   63.2794    6.0681 H   0  0  0  0  0  0
   34.1316   60.5484    5.8063 H   0  0  0  0  0  0
  1  2  2  0  0  0
  1  6  1  0  0  0
  1 33  1  0  0  0
  2  3  1  0  0  0
  2 34  1  0  0  0
  3  4  2  0  0  0
  3 35  1  0  0  0
  4  5  1  0  0  0
  4 36  1  0  0  0
  5  6  2  0  0  0
  5 37  1  0  0  0
  6  7  1  0  0  0
  7  8  1  0  0  0
  7 38  1  0  0  0
  7 39  1  0  0  0
  8  9  2  0  0  0
  8 10  1  0  0  0
 10 11  1  0  0  0
 11 12  1  0  0  0
 11 40  1  0  0  0
 11 41  1  0  0  0
 12 13  1  0  0  0
 12 16  1  0  0  0
 12 17  1  0  0  0
 13 14  2  0  0  0
 13 15  2  0  0  0
 13 42  1  0  0  0
 16 43  1  0  0  0
 16 44  1  0  0  0
 16 45  1  0  0  0
 17 18  1  0  0  0
 17 21  1  0  0  0
 17 46  1  0  0  0
 18 19  2  0  0  0
 18 20  1  0  0  0
 21 22  1  0  0  0
 21 47  1  0  0  0
 22 23  1  0  0  0
 22 30  2  0  0  0
 23 24  1  0  0  0
 23 28  1  0  0  0
 24 25  2  0  0  0
 24 48  1  0  0  0
 25 26  1  0  0  0
 25 49  1  0  0  0
 26 27  2  0  0  0
 26 50  1  0  0  0
 27 28  1  0  0  0
 27 51  1  0  0  0
 28 29  2  0  0  0
 29 30  1  0  0  0
 29 52  1  0  0  0
 30 31  1  0  0  0
 31 32  2  0  0  0
 31 53  1  0  0  0
M  CHG  1  20  -1
M  END
> <s_m_source_file>
../4gd6_ligand.sdf

> <i_m_source_file_index>
1

> <s_epik_input>
W2NIXTFbY0hdW2NIXVtjSF1bY0hdYzFbQ0gyXUMoPU8pT1tDSDJdW0NAQF0oW1NIXSg9Tyk9TykoW0NIM10pW0NASF0oQyg9TylbT0hdKVtOSF1jMmMoW0NIXT1PKVtjSF1jKG4yMylbY0hdW2NIXVtjSF1bY0hdMw==

> <s_epik_cmdline>
J2VwaWtfYXBwJywgJy1pbWFlJywgJ2xpZ2FuZF9wcm8ubWFlJywgJy1vbWFlJywgJ2xpZ2FuZF9wcmVwLm1hZScsICctbXMnLCAnMScsICctcGgnLCAnNycsICctcGh0JywgJzAuNScsICctbnQn

> <r_lp_tautomer_probability>
1

> <r_epik_Ionization_Penalty>
  0.0014

> <r_epik_Ionization_Penalty_Charging>
  0.0002

> <r_epik_Ionization_Penalty_Neutral>
  0.0012

> <r_epik_State_Penalty>
 -0.0000

> <r_epik_Charging_Adjusted_Penalty>
0.000174775673945794

> <i_epik_Tot_Q>
-1

> <i_epik_Tot_abs_Q>
1

> <s_epik_Chemistry_Notes>
This compound has an ester and may undergo hydrolysis at high or low pH.

$$$$
