4gdy_ligand
                    3D
 Schrodinger Suite 2020-3.
 57 61  0  0  1  0            999 V2000
  -16.1600   22.3100   16.7670 C   0  0  0  0  0  0
  -16.5880   22.0060   18.0450 C   0  0  0  0  0  0
  -18.7150   21.3060   17.1840 C   0  0  0  0  0  0
  -14.9450   25.6740    8.9590 C   0  0  0  0  0  0
  -15.7910   23.9510   10.3560 C   0  0  0  0  0  0
  -17.0190   22.1200   15.7040 C   0  0  0  0  0  0
  -14.8220   24.9110   10.1050 C   0  0  0  0  0  0
  -18.2970   21.6310   15.9060 C   0  0  0  0  0  0
  -17.8560   21.4950   18.2470 C   0  0  0  0  0  0
  -16.7980   23.8120    9.4190 C   0  0  0  0  0  0
  -16.8390   24.6250    8.3080 C   0  0  0  0  0  0
  -18.7300   21.8010   13.5040 C   0  0  0  0  0  0
  -15.7240   23.0920   11.5930 C   0  0  0  0  0  0
  -16.5840   22.4720   14.3660 C   0  0  0  0  0  0
  -17.3720   22.3440   13.2890 C   0  0  0  0  0  0
  -17.9530   24.4910    7.3240 C   0  0  0  0  0  0
  -13.6450   25.1170   11.0090 C   0  0  0  0  0  0
  -15.9340   25.5770    8.0640 N   0  3  0  0  0  0
  -17.0580   22.6700   11.9970 N   0  0  0  0  0  0
  -19.1240   21.4720   14.7640 N   0  0  0  0  0  0
  -10.5850   23.6050    9.9270 O   0  0  0  0  0  0
  -11.1820   22.8000   12.2270 O   0  5  0  0  0  0
  -10.9350   25.2910   11.7370 O   0  5  0  0  0  0
  -17.7960   22.8760    9.6070 O   0  5  0  0  0  0
  -20.4250   21.0350   14.6810 C   0  0  0  0  0  0
  -12.8520   23.9450   10.8570 O   0  0  0  0  0  0
  -11.2620   23.9170   11.2160 P   0  0  0  0  0  0
  -15.7510   22.1720   19.1470 O   0  0  0  0  0  0
  -15.5210   23.4910   19.5070 C   0  0  0  0  0  0
  -14.4510   23.7670   20.3370 C   0  0  0  0  0  0
  -14.1750   25.0690   20.7080 C   0  0  0  0  0  0
  -14.9740   26.0930   20.2480 C   0  0  0  0  0  0
  -16.0570   25.8130   19.4370 C   0  0  0  0  0  0
  -16.3390   24.5120   19.0680 C   0  0  0  0  0  0
  -20.7040   21.1130   13.3320 N   0  0  0  0  0  0
  -21.1960   20.6610   15.5590 O   0  0  0  0  0  0
  -19.6510   21.5990   12.6210 N   0  0  0  0  0  0
  -15.1543   22.6959   16.6002 H   0  0  0  0  0  0
  -19.7145   20.9040   17.3498 H   0  0  0  0  0  0
  -14.1708   26.4173    8.7687 H   0  0  0  0  0  0
  -18.1805   21.2389   19.2556 H   0  0  0  0  0  0
  -15.1151   22.1994   11.3870 H   0  0  0  0  0  0
  -15.2680   23.6655   12.4134 H   0  0  0  0  0  0
  -15.5733   22.8570   14.2303 H   0  0  0  0  0  0
  -18.6238   23.6777    7.6381 H   0  0  0  0  0  0
  -17.5393   24.2622    6.3308 H   0  0  0  0  0  0
  -18.5169   25.4343    7.2779 H   0  0  0  0  0  0
  -13.0980   26.0196   10.6989 H   0  0  0  0  0  0
  -13.9949   25.2381   12.0448 H   0  0  0  0  0  0
  -17.8632   22.6028   11.2506 H   0  0  0  0  0  0
  -13.8222   22.9542   20.7004 H   0  0  0  0  0  0
  -13.3296   25.2850   21.3612 H   0  0  0  0  0  0
  -14.7517   27.1238   20.5239 H   0  0  0  0  0  0
  -16.6938   26.6249   19.0857 H   0  0  0  0  0  0
  -17.1998   24.2939   18.4359 H   0  0  0  0  0  0
  -21.6884   20.7988   12.9549 H   0  0  0  0  0  0
  -15.9617   26.2562    7.1992 H   0  0  0  0  0  0
  1  2  2  0  0  0
  1  6  1  0  0  0
  1 38  1  0  0  0
  2  9  1  0  0  0
  2 28  1  0  0  0
  3  8  1  0  0  0
  3  9  2  0  0  0
  3 39  1  0  0  0
  4  7  2  0  0  0
  4 18  1  0  0  0
  4 40  1  0  0  0
  5  7  1  0  0  0
  5 10  2  0  0  0
  5 13  1  0  0  0
  6  8  2  0  0  0
  6 14  1  0  0  0
  7 17  1  0  0  0
  8 20  1  0  0  0
  9 41  1  0  0  0
 10 11  1  0  0  0
 10 24  1  0  0  0
 11 16  1  0  0  0
 11 18  2  0  0  0
 12 15  1  0  0  0
 12 20  1  0  0  0
 12 37  2  0  0  0
 13 19  1  0  0  0
 13 42  1  0  0  0
 13 43  1  0  0  0
 14 15  2  0  0  0
 14 44  1  0  0  0
 15 19  1  0  0  0
 16 45  1  0  0  0
 16 46  1  0  0  0
 16 47  1  0  0  0
 17 26  1  0  0  0
 17 48  1  0  0  0
 17 49  1  0  0  0
 18 57  1  0  0  0
 19 50  1  0  0  0
 20 25  1  0  0  0
 21 27  2  0  0  0
 22 27  1  0  0  0
 23 27  1  0  0  0
 25 35  1  0  0  0
 25 36  2  0  0  0
 26 27  1  0  0  0
 28 29  1  0  0  0
 29 30  2  0  0  0
 29 34  1  0  0  0
 30 31  1  0  0  0
 30 51  1  0  0  0
 31 32  2  0  0  0
 31 52  1  0  0  0
 32 33  1  0  0  0
 32 53  1  0  0  0
 33 34  2  0  0  0
 33 54  1  0  0  0
 34 55  1  0  0  0
 35 37  1  0  0  0
 35 56  1  0  0  0
M  CHG  4  18   1  22  -1  23  -1  24  -1
M  END
> <s_m_source_file>
../4gdy_ligand.sdf

> <i_m_source_file_index>
1

> <s_epik_input>
W2NIXTFbY0hdW2NIXVtjSF1bY0hdYzFPYyhbY0hdMilbY0hdW2NIXWMoYzIzKW40YyhuW25IXWM0PU8pYyhbY0hdMylbTkhdW0NIMl1jNWMoW0NIMl1PUCg9TykoW09IXSlbT0hdKVtjSF1uYyhbQ0gzXSljNVtPSF0=

> <s_epik_cmdline>
J2VwaWtfYXBwJywgJy1pbWFlJywgJ2xpZ2FuZF9wcm8ubWFlJywgJy1vbWFlJywgJ2xpZ2FuZF9wcmVwLm1hZScsICctbXMnLCAnMScsICctcGgnLCAnNycsICctcGh0JywgJzAuNScsICctbnQn

> <r_lp_tautomer_probability>
1

> <r_epik_Ionization_Penalty>
  0.1833

> <r_epik_Ionization_Penalty_Charging>
  0.1833

> <r_epik_Ionization_Penalty_Neutral>
  0.0000

> <r_epik_State_Penalty>
 -0.0000

> <r_epik_Charging_Adjusted_Penalty>
0.183299378635524

> <i_epik_Tot_Q>
-2

> <i_epik_Tot_abs_Q>
4

$$$$
