4ge1_ligand
                    3D
 Schrodinger Suite 2020-3.
 25 26  0  0  1  0            999 V2000
    4.8580    6.1310   46.6830 N   0  3  0  0  0  0
    6.1600    5.5690   46.4170 C   0  0  0  0  0  0
    6.8970    4.9790   47.5780 C   0  0  0  0  0  0
    6.1010    4.2420   48.6080 C   0  0  0  0  0  0
    5.8520    4.6530   49.9100 C   0  0  0  0  0  0
    5.1120    3.7150   50.5370 N   0  3  0  0  0  0
    4.8490    2.6800   49.6630 C   0  0  0  0  0  0
    5.4520    2.9770   48.4670 C   0  0  0  0  0  0
    4.1120    1.4740   49.8170 C   0  0  0  0  0  0
    4.0110    0.5800   48.7550 C   0  0  0  0  0  0
    4.6260    0.8820   47.5380 C   0  0  0  0  0  0
    5.3450    2.0730   47.3850 C   0  0  0  0  0  0
    4.4317    6.5266   45.7493 H   0  0  0  0  0  0
    4.9530    6.9451   47.4166 H   0  0  0  0  0  0
    4.1968    5.3497   47.0859 H   0  0  0  0  0  0
    6.0650    4.7549   45.6834 H   0  0  0  0  0  0
    6.8213    6.3503   46.0141 H   0  0  0  0  0  0
    7.6367    4.2519   47.2115 H   0  0  0  0  0  0
    7.4117    5.7789   48.1304 H   0  0  0  0  0  0
    6.2470    5.6151   50.2681 H   0  0  0  0  0  0
    3.6262    1.2495   50.7666 H   0  0  0  0  0  0
    3.4552   -0.3503   48.8724 H   0  0  0  0  0  0
    4.5456    0.1863   46.7027 H   0  0  0  0  0  0
    5.8221    2.3035   46.4325 H   0  0  0  0  0  0
    4.8192    3.8572   51.5877 H   0  0  0  0  0  0
  1  2  1  0  0  0
  1 13  1  0  0  0
  1 14  1  0  0  0
  1 15  1  0  0  0
  2  3  1  0  0  0
  2 16  1  0  0  0
  2 17  1  0  0  0
  3  4  1  0  0  0
  3 18  1  0  0  0
  3 19  1  0  0  0
  4  5  2  0  0  0
  4  8  1  0  0  0
  5  6  1  0  0  0
  5 20  1  0  0  0
  6  7  1  0  0  0
  6 25  1  0  0  0
  7  8  2  0  0  0
  7  9  1  0  0  0
  8 12  1  0  0  0
  9 10  2  0  0  0
  9 21  1  0  0  0
 10 11  1  0  0  0
 10 22  1  0  0  0
 11 12  2  0  0  0
 11 23  1  0  0  0
 12 24  1  0  0  0
M  CHG  2   1   1   6   1
M  END
> <s_m_source_file>
../4ge1_ligand.sdf

> <i_m_source_file_index>
1

> <s_epik_input>
W05IMytdW0NIMl1bQ0gyXWMoW2NIXVtuSF0xKWMoYzEyKVtjSF1bY0hdW2NIXVtjSF0y

> <s_epik_cmdline>
J2VwaWtfYXBwJywgJy1pbWFlJywgJ2xpZ2FuZF9wcm8ubWFlJywgJy1vbWFlJywgJ2xpZ2FuZF9wcmVwLm1hZScsICctbXMnLCAnMScsICctcGgnLCAnNycsICctcGh0JywgJzAuNScsICctbnQn

> <r_lp_tautomer_probability>
1

> <r_epik_Ionization_Penalty>
  0.0012

> <r_epik_Ionization_Penalty_Charging>
  0.0011

> <r_epik_Ionization_Penalty_Neutral>
  0.0000

> <r_epik_State_Penalty>
 -0.0000

> <r_epik_Charging_Adjusted_Penalty>
0.00114913690555984

> <i_epik_Tot_Q>
2

> <i_epik_Tot_abs_Q>
2

$$$$
