4ge2_ligand
                    3D
 Schrodinger Suite 2020-3.
 65 66  0  0  1  0            999 V2000
   19.1090    1.1630   -2.6650 C   0  0  0  0  0  0
   18.9790    2.1720   -2.0020 O   0  0  0  0  0  0
   20.3570    0.6900   -2.9460 C   0  0  0  0  0  0
   17.9300    0.6040   -3.0810 N   0  0  0  0  0  0
   16.9980   -0.2650   -2.3390 C   0  0  2  0  0  0
   17.2450   -1.7380   -2.7090 C   0  0  0  0  0  0
   17.3460   -2.5910   -1.8560 O   0  0  0  0  0  0
   15.5570    0.2830   -2.6260 C   0  0  0  0  0  0
   14.5310   -0.2520   -1.6250 C   0  0  0  0  0  0
   14.4670    0.2450   -0.3400 C   0  0  0  0  0  0
   13.6420   -1.2520   -1.9760 C   0  0  0  0  0  0
   13.5490   -0.2420    0.5660 C   0  0  0  0  0  0
   12.7210   -1.7420   -1.0720 C   0  0  0  0  0  0
   12.6530   -1.2500    0.2210 C   0  0  0  0  0  0
   11.6480   -1.7960    1.2390 C   0  0  0  0  0  0
   11.9700   -1.4070    2.5070 F   0  0  0  0  0  0
   11.6190   -3.1710    1.2690 F   0  0  0  0  0  0
    9.8910   -1.2380    0.9470 P   0  0  0  0  0  0
    9.6550    0.1510    1.4200 O   0  0  0  0  0  0
    9.5410   -1.3070   -0.6190 O   0  5  0  0  0  0
    8.9370   -2.2470    1.7700 O   0  5  0  0  0  0
   17.3570   -2.0100   -4.0620 N   0  0  0  0  0  0
   15.2290   -2.2530   -9.1770 N   0  0  0  0  0  0
   16.5730   -3.0430   -4.7710 C   0  0  2  0  0  0
   17.2670   -4.4210   -4.7360 C   0  0  0  0  0  0
   16.3640   -2.5710   -6.2320 C   0  0  0  0  0  0
   14.9520   -2.8100   -6.8060 C   0  0  0  0  0  0
   15.0270   -3.3660   -8.2470 C   0  0  0  0  0  0
   16.1500   -2.0990  -10.1850 C   0  0  0  0  0  0
   15.9750   -1.4880  -11.3990 C   0  0  0  0  0  0
   16.0330   -0.0980  -11.4600 C   0  0  0  0  0  0
   15.8630    0.5880  -12.6470 C   0  0  0  0  0  0
   15.6270   -0.1030  -13.8150 C   0  0  0  0  0  0
   15.5660   -1.4800  -13.7770 C   0  0  0  0  0  0
   15.7390   -2.1540  -12.5890 C   0  0  0  0  0  0
   16.7390   -5.4280   -4.3340 O   0  0  0  0  0  0
   17.2460   -2.5740   -9.9320 O   0  0  0  0  0  0
   15.1970   -2.5900  -15.6030 I   0  0  0  0  0  0
   18.5510   -4.4560   -5.1940 N   0  0  0  0  0  0
   21.1100    1.3426   -2.4800 H   0  0  0  0  0  0
   20.5073    0.6766   -4.0356 H   0  0  0  0  0  0
   20.4603   -0.3306   -2.5490 H   0  0  0  0  0  0
   17.7104    0.8841   -4.1218 H   0  0  0  0  0  0
   17.2003   -0.2218   -1.2586 H   0  0  0  0  0  0
   15.5622    1.3809   -2.5591 H   0  0  0  0  0  0
   15.2433   -0.0213   -3.6354 H   0  0  0  0  0  0
   15.1532    1.0354   -0.0359 H   0  0  0  0  0  0
   13.6693   -1.6610   -2.9860 H   0  0  0  0  0  0
   13.5242    0.1712    1.5743 H   0  0  0  0  0  0
   12.0348   -2.5304   -1.3813 H   0  0  0  0  0  0
   18.0864   -1.3983   -4.6132 H   0  0  0  0  0  0
   14.5811   -1.3657   -9.1219 H   0  0  0  0  0  0
   15.6189   -3.1385   -4.2319 H   0  0  0  0  0  0
   16.5487   -1.4886   -6.2976 H   0  0  0  0  0  0
   17.0640   -3.1031   -6.8929 H   0  0  0  0  0  0
   14.4177   -3.5356   -6.1751 H   0  0  0  0  0  0
   14.3973   -1.8602   -6.8226 H   0  0  0  0  0  0
   14.0889   -3.8845   -8.4940 H   0  0  0  0  0  0
   15.8679   -4.0702   -8.3298 H   0  0  0  0  0  0
   16.2178    0.4648  -10.5450 H   0  0  0  0  0  0
   15.9156    1.6767  -12.6593 H   0  0  0  0  0  0
   15.4905    0.4309  -14.7555 H   0  0  0  0  0  0
   15.6887   -3.2428  -12.5856 H   0  0  0  0  0  0
   19.0297   -3.5357   -5.5600 H   0  0  0  0  0  0
   19.1080   -5.4045   -5.1975 H   0  0  0  0  0  0
  1  2  2  0  0  0
  1  3  1  0  0  0
  1  4  1  0  0  0
  3 40  1  0  0  0
  3 41  1  0  0  0
  3 42  1  0  0  0
  4  5  1  0  0  0
  4 43  1  0  0  0
  5  6  1  0  0  0
  5  8  1  0  0  0
  5 44  1  0  0  0
  6  7  2  0  0  0
  6 22  1  0  0  0
  8  9  1  0  0  0
  8 45  1  0  0  0
  8 46  1  0  0  0
  9 10  2  0  0  0
  9 11  1  0  0  0
 10 12  1  0  0  0
 10 47  1  0  0  0
 11 13  2  0  0  0
 11 48  1  0  0  0
 12 14  2  0  0  0
 12 49  1  0  0  0
 13 14  1  0  0  0
 13 50  1  0  0  0
 14 15  1  0  0  0
 15 16  1  0  0  0
 15 17  1  0  0  0
 15 18  1  0  0  0
 18 19  2  0  0  0
 18 20  1  0  0  0
 18 21  1  0  0  0
 22 24  1  0  0  0
 22 51  1  0  0  0
 23 28  1  0  0  0
 23 29  1  0  0  0
 23 52  1  0  0  0
 24 25  1  0  0  0
 24 26  1  0  0  0
 24 53  1  0  0  0
 25 36  2  0  0  0
 25 39  1  0  0  0
 26 27  1  0  0  0
 26 54  1  0  0  0
 26 55  1  0  0  0
 27 28  1  0  0  0
 27 56  1  0  0  0
 27 57  1  0  0  0
 28 58  1  0  0  0
 28 59  1  0  0  0
 29 30  1  0  0  0
 29 37  2  0  0  0
 30 31  2  0  0  0
 30 35  1  0  0  0
 31 32  1  0  0  0
 31 60  1  0  0  0
 32 33  2  0  0  0
 32 61  1  0  0  0
 33 34  1  0  0  0
 33 62  1  0  0  0
 34 35  2  0  0  0
 34 38  1  0  0  0
 35 63  1  0  0  0
 39 64  1  0  0  0
 39 65  1  0  0  0
M  CHG  2  20  -1  21  -1
M  END
> <s_m_source_file>
../4ge2_ligand.sdf

> <i_m_source_file_index>
1

> <s_epik_input>
Tz1QKFtPSF0pKFtPSF0pQyhGKShGKWMoW2NIXVtjSF0xKVtjSF1bY0hdYzFbQ0gyXVtDQEhdKFtOSF1DKD1PKVtDSDNdKUMoPU8pW05IXVtDQEhdKEMoPU8pW05IMl0pW0NIMl1bQ0gyXVtDSDJdW05IXUMoPU8pYzJbY0hdW2NIXVtjSF1jKEkpW2NIXTI=

> <s_epik_cmdline>
J2VwaWtfYXBwJywgJy1pbWFlJywgJ2xpZ2FuZF9wcm8ubWFlJywgJy1vbWFlJywgJ2xpZ2FuZF9wcmVwLm1hZScsICctbXMnLCAnMScsICctcGgnLCAnNycsICctcGh0JywgJzAuNScsICctbnQn

> <r_epik_Ionization_Penalty>
  0.0143

> <r_epik_Ionization_Penalty_Charging>
  0.0143

> <r_epik_Ionization_Penalty_Neutral>
  0.0000

> <r_epik_State_Penalty>
  0.0112

> <r_epik_Charging_Adjusted_Penalty>
0.0255632782935335

> <i_epik_Tot_Q>
-2

> <i_epik_Tot_abs_Q>
2

$$$$
