4ge4_ligand
                    3D
 Schrodinger Suite 2020-3.
 47 49  0  0  1  0            999 V2000
   24.8930   -0.7420  -19.6270 C   0  0  0  0  0  0
   24.5150   -1.1520  -20.8920 C   0  0  0  0  0  0
   25.2060   -3.3820  -20.3790 C   0  0  0  0  0  0
   28.4960    1.4160  -12.0650 C   0  0  0  0  0  0
   25.4130   -1.6530  -18.7250 C   0  0  0  0  0  0
   27.7340    1.1350  -13.1800 C   0  0  0  0  0  0
   27.4990   -0.1930  -13.5020 C   0  0  0  0  0  0
   25.5800   -2.9570  -19.1240 C   0  0  0  0  0  0
   24.6640   -2.4780  -21.2620 C   0  0  0  0  0  0
   28.0630   -1.1570  -12.6770 C   0  0  0  0  0  0
   28.8350   -0.7780  -11.5970 C   0  0  0  0  0  0
   25.8110   -1.2710  -17.3740 C   0  0  0  0  0  0
   26.3510   -2.1440  -16.5010 C   0  0  0  0  0  0
   26.5420   -3.5670  -16.9320 C   0  0  0  0  0  0
   29.4550   -1.8160  -10.7230 C   0  0  0  0  0  0
   23.8570   -1.9500  -23.3550 C   0  0  0  0  0  0
   26.6460   -0.5040  -14.6990 C   0  0  0  0  0  0
   27.2010    2.2760  -13.9900 C   0  0  0  0  0  0
   29.0530    0.5030  -11.2640 N   0  3  0  0  0  0
   26.1350   -3.8550  -18.2200 N   0  0  0  0  0  0
   26.7580   -1.8550  -15.2110 N   0  0  0  0  0  0
   24.5670    3.8360  -12.7350 O   0  5  0  0  0  0
   25.7640    4.6360  -14.7960 O   0  5  0  0  0  0
   27.0360   -4.4060  -16.1800 O   0  0  0  0  0  0
   23.7880    3.1250  -15.0650 O   0  0  0  0  0  0
   27.8720   -2.5130  -12.8900 O   0  5  0  0  0  0
   26.3020   -5.1910  -18.6620 O   0  5  0  0  0  0
   24.3040   -2.9980  -22.5030 O   0  0  0  0  0  0
   25.7860    2.1810  -14.0940 O   0  0  0  0  0  0
   24.9090    3.5520  -14.1730 P   0  0  0  0  0  0
   24.7809    0.3033  -19.3391 H   0  0  0  0  0  0
   24.1001   -0.4321  -21.5975 H   0  0  0  0  0  0
   25.3382   -4.4242  -20.6696 H   0  0  0  0  0  0
   28.6564    2.4654  -11.8179 H   0  0  0  0  0  0
   25.6656   -0.2379  -17.0583 H   0  0  0  0  0  0
   29.2004   -2.8160  -11.1041 H   0  0  0  0  0  0
   29.0739   -1.7067   -9.6969 H   0  0  0  0  0  0
   30.5478   -1.6907  -10.7235 H   0  0  0  0  0  0
   23.5745   -2.3676  -24.3327 H   0  0  0  0  0  0
   24.6657   -1.2166  -23.4894 H   0  0  0  0  0  0
   22.9852   -1.4556  -22.9017 H   0  0  0  0  0  0
   25.5865   -0.3564  -14.4426 H   0  0  0  0  0  0
   26.9193    0.1654  -15.5279 H   0  0  0  0  0  0
   27.4646    3.2263  -13.5026 H   0  0  0  0  0  0
   27.6402    2.2468  -14.9981 H   0  0  0  0  0  0
   27.1672   -2.6526  -14.5735 H   0  0  0  0  0  0
   29.6467    0.8227  -10.3949 H   0  0  0  0  0  0
  1  2  2  0  0  0
  1  5  1  0  0  0
  1 31  1  0  0  0
  2  9  1  0  0  0
  2 32  1  0  0  0
  3  8  1  0  0  0
  3  9  2  0  0  0
  3 33  1  0  0  0
  4  6  2  0  0  0
  4 19  1  0  0  0
  4 34  1  0  0  0
  5  8  2  0  0  0
  5 12  1  0  0  0
  6  7  1  0  0  0
  6 18  1  0  0  0
  7 10  2  0  0  0
  7 17  1  0  0  0
  8 20  1  0  0  0
  9 28  1  0  0  0
 10 11  1  0  0  0
 10 26  1  0  0  0
 11 15  1  0  0  0
 11 19  2  0  0  0
 12 13  2  0  0  0
 12 35  1  0  0  0
 13 14  1  0  0  0
 13 21  1  0  0  0
 14 20  1  0  0  0
 14 24  2  0  0  0
 15 36  1  0  0  0
 15 37  1  0  0  0
 15 38  1  0  0  0
 16 28  1  0  0  0
 16 39  1  0  0  0
 16 40  1  0  0  0
 16 41  1  0  0  0
 17 21  1  0  0  0
 17 42  1  0  0  0
 17 43  1  0  0  0
 18 29  1  0  0  0
 18 44  1  0  0  0
 18 45  1  0  0  0
 19 47  1  0  0  0
 20 27  1  0  0  0
 21 46  1  0  0  0
 22 30  1  0  0  0
 23 30  1  0  0  0
 25 30  2  0  0  0
 29 30  1  0  0  0
M  CHG  5  19   1  22  -1  23  -1  26  -1  27  -1
M  END
> <s_m_source_file>
../4ge4_ligand.sdf

> <i_m_source_file_index>
1

> <s_epik_input>
W2NIXTFbY0hdYyhPW0NIM10pW2NIXWMoYzEyKW4oW09IXSljKD1PKWMoW2NIXTIpW05IXVtDSDJdYzNjKFtPSF0pYyhbQ0gzXSluW2NIXWMzW0NIMl1PUCg9TykoW09IXSlbT0hd

> <s_epik_cmdline>
J2VwaWtfYXBwJywgJy1pbWFlJywgJ2xpZ2FuZF9wcm8ubWFlJywgJy1vbWFlJywgJ2xpZ2FuZF9wcmVwLm1hZScsICctbXMnLCAnMScsICctcGgnLCAnNycsICctcGh0JywgJzAuNScsICctbnQn

> <r_lp_tautomer_probability>
0.56342

> <r_epik_Ionization_Penalty>
  0.1833

> <r_epik_Ionization_Penalty_Charging>
  0.1833

> <r_epik_Ionization_Penalty_Neutral>
  0.0000

> <r_epik_State_Penalty>
  0.1547

> <r_epik_Charging_Adjusted_Penalty>
0.337934209188112

> <i_epik_Tot_Q>
-3

> <i_epik_Tot_abs_Q>
5

$$$$
