4ge7_ligand
                    3D
 Schrodinger Suite 2020-3.
 54 57  0  0  1  0            999 V2000
    3.8910    0.8100  -53.0980 C   0  0  0  0  0  0
    2.3100   -0.5850  -51.9100 C   0  0  0  0  0  0
    2.6060    0.3020  -52.9420 C   0  0  0  0  0  0
    3.2940   -0.9750  -51.0110 C   0  0  0  0  0  0
    2.5650   10.9950  -51.8900 C   0  0  0  0  0  0
    3.4140    9.8890  -51.8260 C   0  0  0  0  0  0
    6.1570    4.3170  -53.8140 C   0  0  0  0  0  0
    7.0170    1.7150  -54.4010 C   0  0  0  0  0  0
    5.3300    8.5900  -52.9200 C   0  0  0  0  0  0
    6.6670    4.0640  -55.0490 C   0  0  0  0  0  0
    3.5200   12.8110  -54.9260 C   0  0  0  0  0  0
    7.1300    2.7540  -55.3370 C   0  0  0  0  0  0
    4.5650   -0.4380  -51.1560 C   0  0  0  0  0  0
    6.0520    3.2840  -52.8600 C   0  0  0  0  0  0
    4.3630    9.7530  -52.8570 C   0  0  0  0  0  0
    4.8770    0.4440  -52.1910 C   0  0  0  0  0  0
    6.4340    1.9680  -53.1560 C   0  0  0  0  0  0
    4.3820   10.7330  -53.8660 C   0  0  0  0  0  0
    3.4610   11.7840  -53.8260 C   0  0  0  0  0  0
    5.7450    5.6830  -53.5140 C   0  0  0  0  0  0
    5.7210    6.6310  -54.4600 C   0  0  0  0  0  0
    6.2360    6.3610  -55.8020 C   0  0  0  0  0  0
    3.1890    8.9320  -50.6640 C   0  0  0  0  0  0
    2.5550   11.9270  -52.8510 N   0  3  0  0  0  0
    6.7230    5.0670  -55.9980 N   0  0  0  0  0  0
    5.1390    7.9060  -54.1970 N   0  0  0  0  0  0
    4.7140    9.7170  -47.5340 O   0  0  0  0  0  0
    5.4980    7.4700  -48.2890 O   0  5  0  0  0  0
    6.2430    7.1990  -56.6830 O   0  0  0  0  0  0
    2.9810    7.8950  -47.9600 O   0  5  0  0  0  0
    5.2740   10.6650  -54.9050 O   0  5  0  0  0  0
    7.2650    4.8350  -57.2920 O   0  5  0  0  0  0
    6.1480    0.9500  -52.2940 O   0  0  0  0  0  0
    4.3270    8.9680  -49.8290 O   0  0  0  0  0  0
    4.3520    8.4800  -48.3170 P   0  0  0  0  0  0
    4.1213    1.4864  -53.9211 H   0  0  0  0  0  0
    1.2979   -0.9763  -51.8071 H   0  0  0  0  0  0
    1.8207    0.6017  -53.6360 H   0  0  0  0  0  0
    3.0737   -1.6840  -50.2129 H   0  0  0  0  0  0
    1.8426   11.1107  -51.0820 H   0  0  0  0  0  0
    7.3816    0.7167  -54.6431 H   0  0  0  0  0  0
    6.3609    8.9658  -52.8430 H   0  0  0  0  0  0
    5.1282    7.8998  -52.0876 H   0  0  0  0  0  0
    4.3148   12.5414  -55.6371 H   0  0  0  0  0  0
    3.7346   13.7994  -54.4936 H   0  0  0  0  0  0
    2.5537   12.8423  -55.4506 H   0  0  0  0  0  0
    7.5836    2.5504  -56.3070 H   0  0  0  0  0  0
    5.3411   -0.7127  -50.4417 H   0  0  0  0  0  0
    5.6642    3.5144  -51.8677 H   0  0  0  0  0  0
    5.4497    5.9387  -52.4964 H   0  0  0  0  0  0
    2.2982    9.2442  -50.0991 H   0  0  0  0  0  0
    3.0391    7.9135  -51.0515 H   0  0  0  0  0  0
    4.5327    8.3742  -54.9864 H   0  0  0  0  0  0
    1.8280   12.7515  -52.8100 H   0  0  0  0  0  0
  1  3  2  0  0  0
  1 16  1  0  0  0
  1 36  1  0  0  0
  2  3  1  0  0  0
  2  4  2  0  0  0
  2 37  1  0  0  0
  3 38  1  0  0  0
  4 13  1  0  0  0
  4 39  1  0  0  0
  5  6  2  0  0  0
  5 24  1  0  0  0
  5 40  1  0  0  0
  6 15  1  0  0  0
  6 23  1  0  0  0
  7 10  2  0  0  0
  7 14  1  0  0  0
  7 20  1  0  0  0
  8 12  2  0  0  0
  8 17  1  0  0  0
  8 41  1  0  0  0
  9 15  1  0  0  0
  9 26  1  0  0  0
  9 42  1  0  0  0
  9 43  1  0  0  0
 10 12  1  0  0  0
 10 25  1  0  0  0
 11 19  1  0  0  0
 11 44  1  0  0  0
 11 45  1  0  0  0
 11 46  1  0  0  0
 12 47  1  0  0  0
 13 16  2  0  0  0
 13 48  1  0  0  0
 14 17  2  0  0  0
 14 49  1  0  0  0
 15 18  2  0  0  0
 16 33  1  0  0  0
 17 33  1  0  0  0
 18 19  1  0  0  0
 18 31  1  0  0  0
 19 24  2  0  0  0
 20 21  2  0  0  0
 20 50  1  0  0  0
 21 22  1  0  0  0
 21 26  1  0  0  0
 22 25  1  0  0  0
 22 29  2  0  0  0
 23 34  1  0  0  0
 23 51  1  0  0  0
 23 52  1  0  0  0
 24 54  1  0  0  0
 25 32  1  0  0  0
 26 53  1  0  0  0
 27 35  2  0  0  0
 28 35  1  0  0  0
 30 35  1  0  0  0
 34 35  1  0  0  0
M  CHG  5  24   1  28  -1  30  -1  31  -1  32  -1
M  END
> <s_m_source_file>
../4ge7_ligand.sdf

> <i_m_source_file_index>
1

> <s_epik_input>
W2NIXTFbY0hdW2NIXVtjSF1bY0hdYzFPYyhbY0hdMilbY0hdW2NIXWMoYzIzKW4oW09IXSljKD1PKWMoW2NIXTMpW05IXVtDSDJdYzRjKFtPSF0pYyhbQ0gzXSluW2NIXWM0W0NIMl1PUCg9TykoW09IXSlbT0hd

> <s_epik_cmdline>
J2VwaWtfYXBwJywgJy1pbWFlJywgJ2xpZ2FuZF9wcm8ubWFlJywgJy1vbWFlJywgJ2xpZ2FuZF9wcmVwLm1hZScsICctbXMnLCAnMScsICctcGgnLCAnNycsICctcGh0JywgJzAuNScsICctbnQn

> <r_lp_tautomer_probability>
0.56342

> <r_epik_Ionization_Penalty>
  0.1833

> <r_epik_Ionization_Penalty_Charging>
  0.1833

> <r_epik_Ionization_Penalty_Neutral>
  0.0000

> <r_epik_State_Penalty>
  0.1547

> <r_epik_Charging_Adjusted_Penalty>
0.337933393610087

> <i_epik_Tot_Q>
-3

> <i_epik_Tot_abs_Q>
5

$$$$
