4ge9_ligand
                    3D
 Schrodinger Suite 2020-3.
 60 63  0  0  1  0            999 V2000
   15.8610  -11.5000  -52.0570 N   0  0  0  0  0  0
   12.9730   -7.4560  -52.0080 C   0  0  0  0  0  0
    9.1680   -7.6290  -48.5840 C   0  0  0  0  0  0
   12.4270   -5.5740  -50.4260 C   0  0  0  0  0  0
   20.9220   -8.2750  -51.7910 C   0  0  0  0  0  0
   13.5840   -4.7560  -50.9640 C   0  0  0  0  0  0
   23.2040   -6.8960  -52.6060 C   0  0  0  0  0  0
   20.4200  -12.6840  -54.1590 C   0  0  0  0  0  0
   16.9290  -10.7900  -52.6000 C   0  0  0  0  0  0
   12.1350   -6.8590  -50.9020 C   0  0  0  0  0  0
   11.0580   -7.5800  -50.3120 C   0  0  0  0  0  0
   10.3320   -6.9540  -49.2670 C   0  0  0  0  0  0
   10.6600   -5.7450  -48.8570 N   0  3  0  0  0  0
   11.6510   -5.0460  -49.3990 C   0  0  0  0  0  0
   13.8200  -11.5430  -51.2560 O   0  0  0  0  0  0
   13.2380   -8.8750  -51.7440 N   0  0  0  0  0  0
   20.2120   -8.5250  -54.2220 C   0  0  0  0  0  0
   21.1750   -8.0530  -53.1550 C   0  0  0  0  0  0
   21.8380   -7.8320  -50.8370 C   0  0  0  0  0  0
   22.9970   -7.1430  -51.2530 C   0  0  0  0  0  0
   22.3250   -7.3730  -53.5640 C   0  0  0  0  0  0
   20.3830  -11.3380  -53.6520 O   0  0  0  0  0  0
   19.1820  -10.7180  -53.4560 C   0  0  0  0  0  0
   19.0500   -9.3350  -53.6890 C   0  0  0  0  0  0
   17.8650   -8.6920  -53.4470 C   0  0  0  0  0  0
   18.1260  -11.4320  -52.8870 C   0  0  0  0  0  0
   16.7870   -9.3950  -52.8940 C   0  0  0  0  0  0
   15.5070   -8.7150  -52.6150 C   0  0  0  0  0  0
   14.4850   -9.4550  -52.0490 C   0  0  0  0  0  0
   14.6950  -10.8850  -51.7630 C   0  0  0  0  0  0
   15.9990  -12.8730  -51.7500 O   0  5  0  0  0  0
   10.7620   -8.8650  -50.7290 O   0  5  0  0  0  0
   13.9960   -3.1970  -53.1070 P   0  0  0  0  0  0
   13.3110   -4.4160  -52.3280 O   0  0  0  0  0  0
   14.6960   -3.7810  -54.3610 O   0  0  0  0  0  0
   12.9140   -2.1400  -53.4810 O   0  5  0  0  0  0
   15.0830   -2.5160  -52.2310 O   0  5  0  0  0  0
   12.4369   -7.3647  -52.9642 H   0  0  0  0  0  0
   13.9313   -6.9197  -52.0722 H   0  0  0  0  0  0
    9.0104   -8.6240  -49.0258 H   0  0  0  0  0  0
    8.2614   -7.0206  -48.7178 H   0  0  0  0  0  0
    9.3837   -7.7345  -47.5105 H   0  0  0  0  0  0
   20.0139   -8.7912  -51.4796 H   0  0  0  0  0  0
   13.6947   -3.8397  -50.3656 H   0  0  0  0  0  0
   14.5099   -5.3470  -50.9044 H   0  0  0  0  0  0
   24.0732   -6.3169  -52.9178 H   0  0  0  0  0  0
   21.4657  -13.0129  -54.2500 H   0  0  0  0  0  0
   19.9379  -12.7170  -55.1472 H   0  0  0  0  0  0
   19.8847  -13.3511  -53.4674 H   0  0  0  0  0  0
   11.8600   -4.0409  -49.0327 H   0  0  0  0  0  0
   19.7880   -7.6546  -54.7442 H   0  0  0  0  0  0
   20.7466   -9.1607  -54.9432 H   0  0  0  0  0  0
   21.6598   -8.0167  -49.7776 H   0  0  0  0  0  0
   23.7270   -6.8058  -50.5171 H   0  0  0  0  0  0
   22.5278   -7.2198  -54.6240 H   0  0  0  0  0  0
   17.7609   -7.6333  -53.6847 H   0  0  0  0  0  0
   18.2413  -12.4935  -52.6680 H   0  0  0  0  0  0
   15.6782   -7.8844  -51.9145 H   0  0  0  0  0  0
   15.0880   -8.3228  -53.5534 H   0  0  0  0  0  0
   10.1042   -5.2741  -48.0328 H   0  0  0  0  0  0
  1  9  1  0  0  0
  1 30  1  0  0  0
  1 31  1  0  0  0
  2 10  1  0  0  0
  2 16  1  0  0  0
  2 38  1  0  0  0
  2 39  1  0  0  0
  3 12  1  0  0  0
  3 40  1  0  0  0
  3 41  1  0  0  0
  3 42  1  0  0  0
  4  6  1  0  0  0
  4 10  2  0  0  0
  4 14  1  0  0  0
  5 18  2  0  0  0
  5 19  1  0  0  0
  5 43  1  0  0  0
  6 34  1  0  0  0
  6 44  1  0  0  0
  6 45  1  0  0  0
  7 20  1  0  0  0
  7 21  2  0  0  0
  7 46  1  0  0  0
  8 22  1  0  0  0
  8 47  1  0  0  0
  8 48  1  0  0  0
  8 49  1  0  0  0
  9 26  2  0  0  0
  9 27  1  0  0  0
 10 11  1  0  0  0
 11 12  2  0  0  0
 11 32  1  0  0  0
 12 13  1  0  0  0
 13 14  2  0  0  0
 13 60  1  0  0  0
 14 50  1  0  0  0
 15 30  2  0  0  0
 16 29  2  0  0  0
 17 18  1  0  0  0
 17 24  1  0  0  0
 17 51  1  0  0  0
 17 52  1  0  0  0
 18 21  1  0  0  0
 19 20  2  0  0  0
 19 53  1  0  0  0
 20 54  1  0  0  0
 21 55  1  0  0  0
 22 23  1  0  0  0
 23 24  2  0  0  0
 23 26  1  0  0  0
 24 25  1  0  0  0
 25 27  2  0  0  0
 25 56  1  0  0  0
 26 57  1  0  0  0
 27 28  1  0  0  0
 28 29  1  0  0  0
 28 58  1  0  0  0
 28 59  1  0  0  0
 29 30  1  0  0  0
 33 34  1  0  0  0
 33 35  2  0  0  0
 33 36  1  0  0  0
 33 37  1  0  0  0
M  CHG  5  13   1  31  -1  32  -1  36  -1  37  -1
M  END
> <s_m_source_file>
../4ge9_ligand.sdf

> <i_m_source_file_index>
1

> <s_epik_input>
Tz1QKFtPSF0pKFtPSF0pT1tDSDJdYzFjKGMoW09IXSljKFtDSDNdKW5bY0hdMSlbQ0gyXS9OPUMoQyg9TylOMltPSF0pXFtDSDJdYyhjMjMpW2NIXWMoYyhbY0hdMylPW0NIM10pW0NIMl1jNFtjSF1bY0hdW2NIXVtjSF1bY0hdNA==

> <s_epik_cmdline>
J2VwaWtfYXBwJywgJy1pbWFlJywgJ2xpZ2FuZF9wcm8ubWFlJywgJy1vbWFlJywgJ2xpZ2FuZF9wcmVwLm1hZScsICctbXMnLCAnMScsICctcGgnLCAnNycsICctcGh0JywgJzAuNScsICctbnQn

> <r_lp_tautomer_probability>
0.281678338709686

> <r_epik_Ionization_Penalty>
  0.4503

> <r_epik_Ionization_Penalty_Charging>
  0.4057

> <r_epik_Ionization_Penalty_Neutral>
  0.0446

> <r_epik_State_Penalty>
  0.3560

> <r_epik_Charging_Adjusted_Penalty>
0.761659465770482

> <i_epik_Tot_Q>
-3

> <i_epik_Tot_abs_Q>
5

> <s_epik_Chemistry_Notes>
This compound has an imine and may undergo hydrolysis.

$$$$
