4gee_ligand
                    3D
 Schrodinger Suite 2020-3.
 45 49  0  0  1  0            999 V2000
  -10.3710   -2.0490  -11.4090 Cl  0  0  0  0  0  0
  -11.4910   -3.1800  -12.3090 C   0  0  0  0  0  0
  -12.9090   -3.2900  -11.9550 C   0  0  0  0  0  0
  -13.6410   -2.5060  -10.8950 C   0  0  0  0  0  0
  -14.6970   -3.3410  -10.2080 C   0  0  0  0  0  0
  -13.4020   -4.2310  -12.7880 N   0  3  0  0  0  0
  -11.1360   -4.1050  -13.3930 C   0  0  0  0  0  0
   -9.9790   -4.5580  -14.2320 C   0  0  0  0  0  0
   -8.6640   -4.0660  -14.2150 N   0  0  0  0  0  0
   -7.6130   -4.7130  -14.9910 C   0  0  0  0  0  0
   -6.6870   -3.5410  -15.3160 C   0  0  1  0  0  0
   -7.4250   -2.3720  -15.9580 C   0  0  2  0  0  0
   -6.4740   -1.5320  -16.6730 N   0  3  0  0  0  0
   -7.1170   -2.3550  -14.4630 C   0  0  1  0  0  0
   -8.2950   -2.8000  -13.5970 C   0  0  0  0  0  0
  -10.2500   -5.5150  -15.1360 N   0  0  0  0  0  0
  -11.4810   -6.0580  -15.3030 C   0  0  0  0  0  0
  -12.5540   -5.6850  -14.5780 N   0  0  0  0  0  0
  -12.4630   -4.7380  -13.6190 C   0  0  0  0  0  0
  -11.6700   -7.0320  -16.2380 O   0  0  0  0  0  0
  -10.6500   -7.5430  -17.0000 C   0  0  0  0  0  0
  -10.4470   -8.9170  -17.0230 C   0  0  0  0  0  0
   -9.4510   -9.4100  -17.7820 N   0  0  0  0  0  0
   -8.6790   -8.5910  -18.5130 C   0  0  0  0  0  0
   -8.8620   -7.2630  -18.5220 N   0  0  0  0  0  0
   -9.8390   -6.7130  -17.7790 C   0  0  0  0  0  0
  -12.9252   -2.1606  -10.1345 H   0  0  0  0  0  0
  -14.1337   -1.6373  -11.3561 H   0  0  0  0  0  0
  -15.2055   -2.7336   -9.4448 H   0  0  0  0  0  0
  -14.2227   -4.2102   -9.7288 H   0  0  0  0  0  0
  -15.4313   -3.6869  -10.9504 H   0  0  0  0  0  0
   -7.1283   -5.4871  -14.3779 H   0  0  0  0  0  0
   -8.0513   -5.1763  -15.8872 H   0  0  0  0  0  0
   -5.7522   -4.0691  -15.5553 H   0  0  0  0  0  0
   -8.3139   -2.2331  -16.5909 H   0  0  0  0  0  0
   -6.7043   -1.5510  -17.7485 H   0  0  0  0  0  0
   -5.4545   -1.9114  -16.5096 H   0  0  0  0  0  0
   -6.5450   -0.4993  -16.3010 H   0  0  0  0  0  0
   -6.6439   -1.6166  -13.7990 H   0  0  0  0  0  0
   -9.1486   -2.1076  -13.6418 H   0  0  0  0  0  0
   -8.0170   -2.9719  -12.5467 H   0  0  0  0  0  0
  -11.0817   -9.5826  -16.4380 H   0  0  0  0  0  0
   -7.8791   -9.0185  -19.1176 H   0  0  0  0  0  0
   -9.9962   -5.6344  -17.7843 H   0  0  0  0  0  0
  -14.4660   -4.5057  -12.7393 H   0  0  0  0  0  0
  1  2  1  0  0  0
  2  3  2  0  0  0
  2  7  1  0  0  0
  3  4  1  0  0  0
  3  6  1  0  0  0
  4  5  1  0  0  0
  4 27  1  0  0  0
  4 28  1  0  0  0
  5 29  1  0  0  0
  5 30  1  0  0  0
  5 31  1  0  0  0
  6 19  2  0  0  0
  6 45  1  0  0  0
  7  8  2  0  0  0
  7 19  1  0  0  0
  8  9  1  0  0  0
  8 16  1  0  0  0
  9 10  1  0  0  0
  9 15  1  0  0  0
 10 11  1  0  0  0
 10 32  1  0  0  0
 10 33  1  0  0  0
 11 12  1  0  0  0
 11 14  1  0  0  0
 11 34  1  0  0  0
 12 13  1  0  0  0
 12 14  1  0  0  0
 12 35  1  0  0  0
 13 36  1  0  0  0
 13 37  1  0  0  0
 13 38  1  0  0  0
 14 15  1  0  0  0
 14 39  1  0  0  0
 15 40  1  0  0  0
 15 41  1  0  0  0
 16 17  2  0  0  0
 17 18  1  0  0  0
 17 20  1  0  0  0
 18 19  1  0  0  0
 20 21  1  0  0  0
 21 22  2  0  0  0
 21 26  1  0  0  0
 22 23  1  0  0  0
 22 42  1  0  0  0
 23 24  2  0  0  0
 24 25  1  0  0  0
 24 43  1  0  0  0
 25 26  2  0  0  0
 26 44  1  0  0  0
M  CHG  2   6   1  13   1
M  END
> <s_m_source_file>
../4gee_ligand.sdf

> <i_m_source_file_index>
1

> <s_epik_input>
W2NIXTFuW2NIXW5bY0hdYzFPYyhbbkhdYyhjMjMpbmMoYzJDbClbQ0gyXVtDSDNdKW5jM04oW0NIMl00KVtDSDJdW0NAQEhdKFtDQEBIXTQ1KVtDQEhdNVtOSDMrXQ==

> <s_epik_cmdline>
J2VwaWtfYXBwJywgJy1pbWFlJywgJ2xpZ2FuZF9wcm8ubWFlJywgJy1vbWFlJywgJ2xpZ2FuZF9wcmVwLm1hZScsICctbXMnLCAnMScsICctcGgnLCAnNycsICctcGh0JywgJzAuNScsICctbnQn

> <r_epik_Ionization_Penalty>
  0.0341

> <r_epik_Ionization_Penalty_Charging>
  0.0341

> <r_epik_Ionization_Penalty_Neutral>
  0.0000

> <r_epik_State_Penalty>
  0.0283

> <r_epik_Charging_Adjusted_Penalty>
0.0623846621938947

> <i_epik_Tot_Q>
2

> <i_epik_Tot_abs_Q>
2

$$$$
