4gfd_ligand
                    3D
 Schrodinger Suite 2020-3.
 72 75  0  0  1  0            999 V2000
   16.0910   -1.8730    3.3050 C   0  0  0  0  0  0
   14.3000    1.6030    7.9400 C   0  0  0  0  0  0
   13.3380    2.2990    7.2500 C   0  0  0  0  0  0
   15.9730   -0.9470    4.3290 C   0  0  0  0  0  0
   17.0500   -1.7000    2.3290 C   0  0  0  0  0  0
   14.6380    2.1310    5.2580 C   0  0  0  0  0  0
   17.8000    0.3210    3.3910 C   0  0  0  0  0  0
   15.4420    1.1840    7.2990 C   0  0  0  0  0  0
   13.4780    2.5470    5.8950 C   0  0  0  0  0  0
   16.8230    0.1470    4.3470 C   0  0  0  0  0  0
   15.6180    1.4550    5.9490 C   0  0  0  0  0  0
   17.8980   -0.6110    2.3770 C   0  0  0  0  0  0
   11.6840   -1.1170    1.8630 C   0  0  0  0  0  0
   12.1180   -1.8400    0.8150 C   0  0  0  0  0  0
   12.0020   -1.2640   -0.5160 C   0  0  0  0  0  0
   11.0470    0.7650    0.4950 C   0  0  0  0  0  0
   16.4420    0.4890    8.1250 C   0  0  0  0  0  0
    9.3770    0.9130    5.0670 C   0  0  0  0  0  0
    9.7630    0.0800    3.8430 C   0  0  0  0  0  0
   10.5990    1.5900    5.6720 C   0  0  0  0  0  0
   11.7570    1.5710    3.5840 C   0  0  0  0  0  0
   10.6440    0.8730    2.8640 C   0  0  1  0  0  0
   12.7310   -3.1930    0.9480 C   0  0  0  0  0  0
   13.6540    6.5070    3.4120 C   0  0  0  0  0  0
   12.3300    6.4060    5.4450 C   0  0  0  0  0  0
   14.6600    5.6020    5.4140 C   0  0  0  0  0  0
   12.8870    4.2880    4.1510 C   0  0  0  0  0  0
   12.3620    3.2730    5.1850 C   0  0  1  0  0  0
   13.3700    5.6630    4.6360 C   0  0  0  0  0  0
   11.4390   -0.0010   -0.5720 N   0  0  0  0  0  0
   11.1220    0.1320    1.7160 N   0  0  0  0  0  0
   11.2630    2.4320    4.6600 N   0  3  2  0  0  0
   12.3530   -1.8310   -1.5490 O   0  0  0  0  0  0
   10.6530    1.9180    0.3480 O   0  0  0  0  0  0
   16.9000    0.9390    9.1620 O   0  0  0  0  0  0
   16.7120   -0.7330    7.6180 O   0  5  0  0  0  0
   16.8000    1.1040    5.3410 O   0  0  0  0  0  0
   19.2090   -0.3020    1.0560 Br  0  0  0  0  0  0
   15.4270   -2.7367    3.2709 H   0  0  0  0  0  0
   14.1580    1.3823    8.9979 H   0  0  0  0  0  0
   12.4539    2.6604    7.7752 H   0  0  0  0  0  0
   15.2226   -1.0773    5.1088 H   0  0  0  0  0  0
   17.1387   -2.4237    1.5187 H   0  0  0  0  0  0
   14.7751    2.3420    4.1974 H   0  0  0  0  0  0
   18.4785    1.1730    3.4342 H   0  0  0  0  0  0
   11.7806   -1.5347    2.8651 H   0  0  0  0  0  0
    8.6547    1.6877    4.7703 H   0  0  0  0  0  0
    8.9228    0.2598    5.8266 H   0  0  0  0  0  0
   10.3229   -0.8097    4.1668 H   0  0  0  0  0  0
    8.8527   -0.2332    3.3107 H   0  0  0  0  0  0
   10.2878    2.2198    6.5185 H   0  0  0  0  0  0
   11.3053    0.8242    6.0250 H   0  0  0  0  0  0
   12.4328    0.8242    4.0262 H   0  0  0  0  0  0
   12.3170    2.1975    2.8741 H   0  0  0  0  0  0
   10.0077    1.6222    2.3702 H   0  0  0  0  0  0
   12.7464   -3.4859    2.0082 H   0  0  0  0  0  0
   13.7597   -3.1693    0.5591 H   0  0  0  0  0  0
   12.1390   -3.9217    0.3748 H   0  0  0  0  0  0
   14.0032    7.5019    3.7256 H   0  0  0  0  0  0
   12.7345    6.6117    2.8174 H   0  0  0  0  0  0
   14.4307    6.0208    2.8035 H   0  0  0  0  0  0
   12.7367    7.3781    5.7605 H   0  0  0  0  0  0
   12.0646    5.8138    6.3332 H   0  0  0  0  0  0
   11.4325    6.5663    4.8296 H   0  0  0  0  0  0
   14.9464    6.6162    5.7292 H   0  0  0  0  0  0
   15.4516    5.1782    4.7787 H   0  0  0  0  0  0
   14.5231    4.9671    6.3018 H   0  0  0  0  0  0
   13.7538    3.8609    3.6254 H   0  0  0  0  0  0
   12.0930    4.5152    3.4244 H   0  0  0  0  0  0
   11.8429    3.8016    5.9981 H   0  0  0  0  0  0
   11.2674    0.4820   -1.5453 H   0  0  0  0  0  0
   10.5052    3.1351    4.2840 H   0  0  0  0  0  0
  1  4  2  0  0  0
  1  5  1  0  0  0
  1 39  1  0  0  0
  2  3  2  0  0  0
  2  8  1  0  0  0
  2 40  1  0  0  0
  3  9  1  0  0  0
  3 41  1  0  0  0
  4 10  1  0  0  0
  4 42  1  0  0  0
  5 12  2  0  0  0
  5 43  1  0  0  0
  6  9  2  0  0  0
  6 11  1  0  0  0
  6 44  1  0  0  0
  7 10  2  0  0  0
  7 12  1  0  0  0
  7 45  1  0  0  0
  8 11  2  0  0  0
  8 17  1  0  0  0
  9 28  1  0  0  0
 10 37  1  0  0  0
 11 37  1  0  0  0
 12 38  1  0  0  0
 13 14  2  0  0  0
 13 31  1  0  0  0
 13 46  1  0  0  0
 14 15  1  0  0  0
 14 23  1  0  0  0
 15 30  1  0  0  0
 15 33  2  0  0  0
 16 30  1  0  0  0
 16 31  1  0  0  0
 16 34  2  0  0  0
 17 35  2  0  0  0
 17 36  1  0  0  0
 18 19  1  0  0  0
 18 20  1  0  0  0
 18 47  1  0  0  0
 18 48  1  0  0  0
 19 22  1  0  0  0
 19 49  1  0  0  0
 19 50  1  0  0  0
 20 32  1  0  0  0
 20 51  1  0  0  0
 20 52  1  0  0  0
 21 22  1  0  0  0
 21 32  1  0  0  0
 21 53  1  0  0  0
 21 54  1  0  0  0
 22 31  1  0  0  0
 22 55  1  0  0  0
 23 56  1  0  0  0
 23 57  1  0  0  0
 23 58  1  0  0  0
 24 29  1  0  0  0
 24 59  1  0  0  0
 24 60  1  0  0  0
 24 61  1  0  0  0
 25 29  1  0  0  0
 25 62  1  0  0  0
 25 63  1  0  0  0
 25 64  1  0  0  0
 26 29  1  0  0  0
 26 65  1  0  0  0
 26 66  1  0  0  0
 26 67  1  0  0  0
 27 28  1  0  0  0
 27 29  1  0  0  0
 27 68  1  0  0  0
 27 69  1  0  0  0
 28 32  1  0  0  0
 28 70  1  0  0  0
 30 71  1  0  0  0
 32 72  1  0  0  0
M  CHG  2  32   1  36  -1
M  END
> <s_m_source_file>
../4gfd_ligand.sdf

> <i_m_source_file_index>
1

> <s_epik_input>
W2NIXTFjKEJyKVtjSF1bY0hdW2NIXWMxT2MyW2NIXWMoW2NIXVtjSF1jMkMoPU8pW09IXSlbQ0BASF0oW0NIMl1DKFtDSDNdKShbQ0gzXSlbQ0gzXSlbTkBASCtdKFtDSDJdMylbQ0gyXVtDSDJdW0NIMl1bQ0BASF0zbihbY0hdYzRbQ0gzXSljKD1PKVtuSF1jND1P

> <s_epik_cmdline>
J2VwaWtfYXBwJywgJy1pbWFlJywgJ2xpZ2FuZF9wcm8ubWFlJywgJy1vbWFlJywgJ2xpZ2FuZF9wcmVwLm1hZScsICctbXMnLCAnMScsICctcGgnLCAnNycsICctcGh0JywgJzAuNScsICctbnQn

> <r_lp_tautomer_probability>
0.999537046341301

> <r_epik_Ionization_Penalty>
  0.0980

> <r_epik_Ionization_Penalty_Charging>
  0.0980

> <r_epik_Ionization_Penalty_Neutral>
  0.0000

> <r_epik_State_Penalty>
  0.0809

> <r_epik_Charging_Adjusted_Penalty>
0.178881894074519

> <i_epik_Tot_Q>
0

> <i_epik_Tot_abs_Q>
2

$$$$
