4gfn_ligand
                    3D
 Schrodinger Suite 2020-3.
 45 49  0  0  1  0            999 V2000
  -10.3160   -1.9630  -11.5540 Cl  0  0  0  0  0  0
  -11.4590   -3.1370  -12.3800 C   0  0  0  0  0  0
  -12.8740   -3.2510  -12.0190 C   0  0  0  0  0  0
  -13.6390   -2.4160  -11.0160 C   0  0  0  0  0  0
  -14.4880   -3.3330  -10.1430 C   0  0  0  0  0  0
  -13.3590   -4.2660  -12.7830 N   0  3  0  0  0  0
  -12.4000   -4.8090  -13.5740 C   0  0  0  0  0  0
  -12.4710   -5.8220  -14.4570 N   0  0  0  0  0  0
  -11.0880   -4.1340  -13.3990 C   0  0  0  0  0  0
   -9.9160   -4.6360  -14.1920 C   0  0  0  0  0  0
   -8.6090   -4.1130  -14.2400 N   0  0  0  0  0  0
   -7.5540   -4.7770  -15.0060 C   0  0  0  0  0  0
   -6.6460   -3.6090  -15.4250 C   0  0  1  0  0  0
   -7.3930   -2.4700  -16.1140 C   0  0  2  0  0  0
   -6.4450   -1.5820  -16.7750 N   0  3  0  0  0  0
   -7.0930   -2.3880  -14.6220 C   0  0  1  0  0  0
   -8.2810   -2.7830  -13.7440 C   0  0  0  0  0  0
  -10.1750   -5.6650  -15.0250 N   0  0  0  0  0  0
  -11.3970   -6.2410  -15.1360 C   0  0  0  0  0  0
  -11.6320   -7.5660  -16.1430 S   0  0  0  0  0  0
  -10.3060   -7.8690  -17.1640 C   0  0  0  0  0  0
   -9.8750   -9.1760  -17.3620 C   0  0  0  0  0  0
   -8.8240   -9.4080  -18.1730 N   0  0  0  0  0  0
   -8.1990   -8.3900  -18.8010 C   0  0  0  0  0  0
   -8.6020   -7.1190  -18.6330 N   0  0  0  0  0  0
   -9.6420   -6.8330  -17.8300 C   0  0  0  0  0  0
  -12.9299   -1.8592  -10.3857 H   0  0  0  0  0  0
  -14.2901   -1.7076  -11.5492 H   0  0  0  0  0  0
  -15.0462   -2.7297   -9.4119 H   0  0  0  0  0  0
  -13.8351   -4.0412   -9.6118 H   0  0  0  0  0  0
  -15.1953   -3.8897  -10.7754 H   0  0  0  0  0  0
   -7.0375   -5.5054  -14.3636 H   0  0  0  0  0  0
   -7.9984   -5.2978  -15.8670 H   0  0  0  0  0  0
   -5.7116   -4.1389  -15.6619 H   0  0  0  0  0  0
   -8.2660   -2.3960  -16.7791 H   0  0  0  0  0  0
   -6.6185   -1.6034  -17.8610 H   0  0  0  0  0  0
   -5.4191   -1.9162  -16.5610 H   0  0  0  0  0  0
   -6.5819   -0.5563  -16.4019 H   0  0  0  0  0  0
   -6.6245   -1.6239  -13.9843 H   0  0  0  0  0  0
   -9.1482   -2.1190  -13.8742 H   0  0  0  0  0  0
   -8.0223   -2.8432  -12.6766 H   0  0  0  0  0  0
  -10.3818  -10.0041  -16.8666 H   0  0  0  0  0  0
   -7.3534   -8.6022  -19.4553 H   0  0  0  0  0  0
   -9.9657   -5.8005  -17.6987 H   0  0  0  0  0  0
  -14.4185   -4.5523  -12.7090 H   0  0  0  0  0  0
  1  2  1  0  0  0
  2  3  2  0  0  0
  2  9  1  0  0  0
  3  4  1  0  0  0
  3  6  1  0  0  0
  4  5  1  0  0  0
  4 27  1  0  0  0
  4 28  1  0  0  0
  5 29  1  0  0  0
  5 30  1  0  0  0
  5 31  1  0  0  0
  6  7  1  0  0  0
  6 45  1  0  0  0
  7  8  1  0  0  0
  7  9  2  0  0  0
  8 19  2  0  0  0
  9 10  1  0  0  0
 10 11  1  0  0  0
 10 18  2  0  0  0
 11 12  1  0  0  0
 11 17  1  0  0  0
 12 13  1  0  0  0
 12 32  1  0  0  0
 12 33  1  0  0  0
 13 14  1  0  0  0
 13 16  1  0  0  0
 13 34  1  0  0  0
 14 15  1  0  0  0
 14 16  1  0  0  0
 14 35  1  0  0  0
 15 36  1  0  0  0
 15 37  1  0  0  0
 15 38  1  0  0  0
 16 17  1  0  0  0
 16 39  1  0  0  0
 17 40  1  0  0  0
 17 41  1  0  0  0
 18 19  1  0  0  0
 19 20  1  0  0  0
 20 21  1  0  0  0
 21 22  2  0  0  0
 21 26  1  0  0  0
 22 23  1  0  0  0
 22 42  1  0  0  0
 23 24  2  0  0  0
 24 25  1  0  0  0
 24 43  1  0  0  0
 25 26  2  0  0  0
 26 44  1  0  0  0
M  CHG  2   6   1  15   1
M  END
> <s_m_source_file>
../4gfn_ligand.sdf

> <i_m_source_file_index>
1

> <s_epik_input>
W0NIM11bQ0gyXWMoW25IXTEpYyhDbCljKGMxMiljKE4oW0NIMl0zKVtDSDJdW0NAQEhdKFtDQEBIXTM0KVtDQEhdNFtOSDMrXSluYyhuMilTYzVbY0hdbltjSF1uW2NIXTU=

> <s_epik_cmdline>
J2VwaWtfYXBwJywgJy1pbWFlJywgJ2xpZ2FuZF9wcm8ubWFlJywgJy1vbWFlJywgJ2xpZ2FuZF9wcmVwLm1hZScsICctbXMnLCAnMScsICctcGgnLCAnNycsICctcGh0JywgJzAuNScsICctbnQn

> <r_lp_tautomer_probability>
1

> <r_epik_Ionization_Penalty>
  0.0414

> <r_epik_Ionization_Penalty_Charging>
  0.0341

> <r_epik_Ionization_Penalty_Neutral>
  0.0073

> <r_epik_State_Penalty>
 -0.0000

> <r_epik_Charging_Adjusted_Penalty>
0.0340619568288592

> <i_epik_Tot_Q>
2

> <i_epik_Tot_abs_Q>
2

$$$$
