4gg7_ligand
                    3D
 Schrodinger Suite 2020-3.
 58 62  0  0  1  0            999 V2000
   -1.1340  -17.5870   14.6260 C   0  0  0  0  0  0
   -2.1830  -16.6670   14.4580 C   0  0  0  0  0  0
   -2.1830  -15.4700   15.2310 C   0  0  0  0  0  0
   -1.1740  -15.2470   16.1050 N   0  0  0  0  0  0
   -0.1550  -17.3070   15.5320 N   0  0  0  0  0  0
   -7.6130  -21.1320   10.6350 C   0  0  0  0  0  0
   -8.3850  -22.3020    9.9930 C   0  0  0  0  0  0
   -8.3440  -22.2710    8.5280 N   0  3  0  0  0  0
   -7.4650  -21.2990    7.8570 C   0  0  0  0  0  0
   -6.1630  -20.9220    8.5480 C   0  0  0  0  0  0
   -6.2200  -21.0080   10.0590 C   0  0  0  0  0  0
   -5.5180  -19.8360   10.6480 N   0  0  0  0  0  0
   -4.5130  -19.9020   11.5430 C   0  0  0  0  0  0
   -5.8070  -18.5030   10.3730 N   0  0  0  0  0  0
   -4.9580  -17.7270   11.1050 C   0  0  0  0  0  0
   -4.1340  -18.5970   11.8290 C   0  0  0  0  0  0
   -3.0670  -18.2130   12.8070 C   0  0  0  0  0  0
   -3.1800  -16.9870   13.5200 C   0  0  0  0  0  0
   -2.0040  -19.0810   13.0340 C   0  0  0  0  0  0
   -1.0510  -18.7590   13.9370 N   0  0  0  0  0  0
   -0.2070  -16.1660   16.2400 C   0  0  0  0  0  0
    0.9130  -15.8720   17.2330 C   0  0  0  0  0  0
    1.6070  -16.9680   17.5010 F   0  0  0  0  0  0
    1.6530  -14.9320   16.6790 F   0  0  0  0  0  0
    0.4310  -15.4340   18.3820 F   0  0  0  0  0  0
   -3.2080  -14.4530   15.1020 N   0  0  0  0  0  0
   -2.9850  -13.1760   15.7540 C   0  0  0  0  0  0
   -3.6420  -13.3290   17.1130 C   0  0  0  0  0  0
   -2.8400  -13.4220   18.2530 C   0  0  0  0  0  0
   -5.0570  -13.4400   17.2100 C   0  0  0  0  0  0
   -5.6600  -13.6150   18.4650 C   0  0  0  0  0  0
   -4.8650  -13.7030   19.6110 C   0  0  0  0  0  0
   -3.4490  -13.6060   19.5000 C   0  0  0  0  0  0
   -2.6680  -13.7020   20.6950 N   0  3  0  0  0  0
   -3.2250  -14.2780   21.7150 O   0  0  0  0  0  0
   -1.4380  -13.2260   20.7610 O   0  5  0  0  0  0
   -8.1523  -20.1914   10.4498 H   0  0  0  0  0  0
   -7.5289  -21.2991   11.7190 H   0  0  0  0  0  0
   -7.9460  -23.2554   10.3221 H   0  0  0  0  0  0
   -9.4400  -22.2583   10.3014 H   0  0  0  0  0  0
   -8.0117  -23.2490    8.1497 H   0  0  0  0  0  0
   -9.3481  -22.0488    8.1377 H   0  0  0  0  0  0
   -7.1650  -21.6930    6.8748 H   0  0  0  0  0  0
   -8.0037  -20.3495    7.7222 H   0  0  0  0  0  0
   -5.3618  -21.5979    8.2145 H   0  0  0  0  0  0
   -5.8986  -19.8855    8.2917 H   0  0  0  0  0  0
   -5.7013  -21.9358   10.3421 H   0  0  0  0  0  0
   -4.0790  -20.8092   11.9635 H   0  0  0  0  0  0
   -4.9267  -16.6376   11.1231 H   0  0  0  0  0  0
   -4.0183  -16.3130   13.3435 H   0  0  0  0  0  0
   -1.9395  -20.0200   12.4842 H   0  0  0  0  0  0
   -4.1327  -14.6253   14.5318 H   0  0  0  0  0  0
   -1.9039  -12.9909   15.8377 H   0  0  0  0  0  0
   -3.4492  -12.3750   15.1600 H   0  0  0  0  0  0
   -1.7552  -13.3523   18.1727 H   0  0  0  0  0  0
   -5.6716  -13.3892   16.3112 H   0  0  0  0  0  0
   -6.7449  -13.6821   18.5457 H   0  0  0  0  0  0
   -5.3280  -13.8456   20.5874 H   0  0  0  0  0  0
  1  2  1  0  0  0
  1  5  2  0  0  0
  1 20  1  0  0  0
  2  3  2  0  0  0
  2 18  1  0  0  0
  3  4  1  0  0  0
  3 26  1  0  0  0
  4 21  2  0  0  0
  5 21  1  0  0  0
  6  7  1  0  0  0
  6 11  1  0  0  0
  6 37  1  0  0  0
  6 38  1  0  0  0
  7  8  1  0  0  0
  7 39  1  0  0  0
  7 40  1  0  0  0
  8  9  1  0  0  0
  8 41  1  0  0  0
  8 42  1  0  0  0
  9 10  1  0  0  0
  9 43  1  0  0  0
  9 44  1  0  0  0
 10 11  1  0  0  0
 10 45  1  0  0  0
 10 46  1  0  0  0
 11 12  1  0  0  0
 11 47  1  0  0  0
 12 13  1  0  0  0
 12 14  1  0  0  0
 13 16  2  0  0  0
 13 48  1  0  0  0
 14 15  2  0  0  0
 15 16  1  0  0  0
 15 49  1  0  0  0
 16 17  1  0  0  0
 17 18  2  0  0  0
 17 19  1  0  0  0
 18 50  1  0  0  0
 19 20  2  0  0  0
 19 51  1  0  0  0
 21 22  1  0  0  0
 22 23  1  0  0  0
 22 24  1  0  0  0
 22 25  1  0  0  0
 26 27  1  0  0  0
 26 52  1  0  0  0
 27 28  1  0  0  0
 27 53  1  0  0  0
 27 54  1  0  0  0
 28 29  2  0  0  0
 28 30  1  0  0  0
 29 33  1  0  0  0
 29 55  1  0  0  0
 30 31  2  0  0  0
 30 56  1  0  0  0
 31 32  1  0  0  0
 31 57  1  0  0  0
 32 33  2  0  0  0
 32 58  1  0  0  0
 33 34  1  0  0  0
 34 35  2  0  0  0
 34 36  1  0  0  0
M  CHG  3   8   1  34   1  36  -1
M  END
> <s_m_source_file>
../4gg7_ligand.sdf

> <i_m_source_file_index>
1

> <s_epik_input>
W2NIXTFbY0hdW2NIXWMoW04rXSg9TylbTy1dKVtjSF1jMVtDSDJdW05IXWMobmMobjIpQyhGKShGKUYpYyhjMjMpW2NIXWMoW2NIXW4zKS1jKFtjSF1uNClbY0hdbjRbQ0hdNVtDSDJdW0NIMl1bTkgyK11bQ0gyXVtDSDJdNQ==

> <s_epik_cmdline>
J2VwaWtfYXBwJywgJy1pbWFlJywgJ2xpZ2FuZF9wcm8ubWFlJywgJy1vbWFlJywgJ2xpZ2FuZF9wcmVwLm1hZScsICctbXMnLCAnMScsICctcGgnLCAnNycsICctcGh0JywgJzAuNScsICctbnQn

> <r_lp_tautomer_probability>
1

> <r_epik_Ionization_Penalty>
  0.0019

> <r_epik_Ionization_Penalty_Charging>
  0.0019

> <r_epik_Ionization_Penalty_Neutral>
  0.0000

> <r_epik_State_Penalty>
 -0.0000

> <r_epik_Charging_Adjusted_Penalty>
0.00191237757844653

> <i_epik_Tot_Q>
1

> <i_epik_Tot_abs_Q>
3

$$$$
