4ggl_ligand
                    3D
 Schrodinger Suite 2020-3.
 50 54  0  0  1  0            999 V2000
   -6.4760   -6.4420  -20.7670 O   0  0  0  0  0  0
   -7.1400   -7.2710  -20.0970 C   0  0  0  0  0  0
   -6.8410   -8.6400  -20.1820 C   0  0  0  0  0  0
   -8.1340   -6.8180  -19.3050 N   0  0  0  0  0  0
   -8.8510   -7.6790  -18.5800 C   0  0  0  0  0  0
   -8.5390   -9.1330  -18.6680 C   0  0  0  0  0  0
   -7.5310   -9.5510  -19.4770 N   0  0  0  0  0  0
   -9.2620  -10.0060  -17.9350 N   0  0  0  0  0  0
  -10.2590   -9.5750  -17.1410 C   0  0  0  0  0  0
  -10.5830   -8.2210  -17.0230 C   0  0  0  0  0  0
   -9.8840   -7.2570  -17.7500 C   0  0  0  0  0  0
  -11.8680   -7.7940  -16.0010 S   0  0  0  0  0  0
  -11.5520   -6.4460  -15.0390 C   0  0  0  0  0  0
  -10.3200   -5.8840  -15.0190 N   0  0  0  0  0  0
  -10.0150   -4.8380  -14.2190 C   0  0  0  0  0  0
   -8.7250   -4.3010  -14.3340 N   0  0  0  0  0  0
   -7.6800   -4.9830  -15.0920 C   0  0  0  0  0  0
   -6.8830   -3.7900  -15.6200 C   0  0  0  0  0  0
   -7.4970   -2.5080  -15.0650 C   0  0  1  0  0  0
   -8.2850   -1.8570  -16.0950 N   0  3  0  0  0  0
   -8.4080   -2.9430  -13.9200 C   0  0  0  0  0  0
  -11.1300   -4.2890  -13.3760 C   0  0  0  0  0  0
  -12.4560   -4.9540  -13.4550 C   0  0  0  0  0  0
  -12.5810   -5.9940  -14.2990 N   0  0  0  0  0  0
  -13.3590   -4.3640  -12.6350 N   0  3  0  0  0  0
  -12.8420   -3.3380  -11.9280 C   0  0  0  0  0  0
  -11.4350   -3.2530  -12.3710 C   0  0  0  0  0  0
  -10.2490   -2.0400  -11.6710 Cl  0  0  0  0  0  0
  -13.5570   -2.4570  -10.9220 C   0  0  0  0  0  0
  -14.5800   -3.2440  -10.1170 C   0  0  0  0  0  0
   -6.0321   -8.9702  -20.8337 H   0  0  0  0  0  0
   -8.3521   -5.7409  -19.2578 H   0  0  0  0  0  0
  -10.8327  -10.3060  -16.5712 H   0  0  0  0  0  0
  -10.1408   -6.2007  -17.6696 H   0  0  0  0  0  0
   -7.1038   -5.6341  -14.4181 H   0  0  0  0  0  0
   -8.1398   -5.5912  -15.8849 H   0  0  0  0  0  0
   -5.8361   -3.8750  -15.2933 H   0  0  0  0  0  0
   -6.9244   -3.7789  -16.7192 H   0  0  0  0  0  0
   -6.7432   -1.7674  -14.7593 H   0  0  0  0  0  0
   -7.6259   -1.5448  -16.9185 H   0  0  0  0  0  0
   -8.7852   -0.9739  -15.6707 H   0  0  0  0  0  0
   -9.0412   -2.5588  -16.4766 H   0  0  0  0  0  0
   -9.3356   -2.3566  -13.8449 H   0  0  0  0  0  0
   -7.9081   -2.9655  -12.9404 H   0  0  0  0  0  0
  -12.8231   -2.0263  -10.2249 H   0  0  0  0  0  0
  -14.0800   -1.6465  -11.4508 H   0  0  0  0  0  0
  -15.0767   -2.5737   -9.4001 H   0  0  0  0  0  0
  -14.0731   -4.0536   -9.5715 H   0  0  0  0  0  0
  -15.3299   -3.6738  -10.7974 H   0  0  0  0  0  0
  -14.3939   -4.7352  -12.5987 H   0  0  0  0  0  0
  1  2  2  0  0  0
  2  3  1  0  0  0
  2  4  1  0  0  0
  3  7  2  0  0  0
  3 31  1  0  0  0
  4  5  1  0  0  0
  4 32  1  0  0  0
  5  6  2  0  0  0
  5 11  1  0  0  0
  6  7  1  0  0  0
  6  8  1  0  0  0
  8  9  2  0  0  0
  9 10  1  0  0  0
  9 33  1  0  0  0
 10 11  2  0  0  0
 10 12  1  0  0  0
 11 34  1  0  0  0
 12 13  1  0  0  0
 13 14  2  0  0  0
 13 24  1  0  0  0
 14 15  1  0  0  0
 15 16  1  0  0  0
 15 22  2  0  0  0
 16 17  1  0  0  0
 16 21  1  0  0  0
 17 18  1  0  0  0
 17 35  1  0  0  0
 17 36  1  0  0  0
 18 19  1  0  0  0
 18 37  1  0  0  0
 18 38  1  0  0  0
 19 20  1  0  0  0
 19 21  1  0  0  0
 19 39  1  0  0  0
 20 40  1  0  0  0
 20 41  1  0  0  0
 20 42  1  0  0  0
 21 43  1  0  0  0
 21 44  1  0  0  0
 22 23  1  0  0  0
 22 27  1  0  0  0
 23 24  2  0  0  0
 23 25  1  0  0  0
 25 26  1  0  0  0
 25 50  1  0  0  0
 26 27  2  0  0  0
 26 29  1  0  0  0
 27 28  1  0  0  0
 29 30  1  0  0  0
 29 45  1  0  0  0
 29 46  1  0  0  0
 30 47  1  0  0  0
 30 48  1  0  0  0
 30 49  1  0  0  0
M  CHG  2  20   1  25   1
M  END
> <s_m_source_file>
../4ggl_ligand.sdf

> <i_m_source_file_index>
1

> <s_epik_input>
Tz1jKFtuSF0xKVtjSF1uYyhjMTIpbltjSF1jKFtjSF0yKVNjKG5jKGMzNClbbkhdYyhjNENsKVtDSDJdW0NIM10pbmMzTjVbQ0gyXVtDSDJdW0NAQEhdKFtOSDMrXSlbQ0gyXTU=

> <s_epik_cmdline>
J2VwaWtfYXBwJywgJy1pbWFlJywgJ2xpZ2FuZF9wcm8ubWFlJywgJy1vbWFlJywgJ2xpZ2FuZF9wcmVwLm1hZScsICctbXMnLCAnMScsICctcGgnLCAnNycsICctcGh0JywgJzAuNScsICctbnQn

> <r_epik_Ionization_Penalty>
  0.3066

> <r_epik_Ionization_Penalty_Charging>
  0.3054

> <r_epik_Ionization_Penalty_Neutral>
  0.0012

> <r_epik_State_Penalty>
  0.2973

> <r_epik_Charging_Adjusted_Penalty>
0.602635281413278

> <i_epik_Tot_Q>
2

> <i_epik_Tot_abs_Q>
2

$$$$
