4ggz_ligand
                    3D
 Schrodinger Suite 2020-3.
 31 32  0  0  1  0            999 V2000
   38.0110  -12.6940    1.2720 C   0  0  0  0  0  0
   38.3050  -12.7470    0.0300 O   0  5  0  0  0  0
   38.2550  -13.6920    2.0090 O   0  0  0  0  0  0
   37.3540  -11.4810    1.8970 C   0  0  0  0  0  0
   37.7330  -10.1500    1.2310 C   0  0  0  0  0  0
   39.2310   -9.8740    1.4140 C   0  0  0  0  0  0
   39.6440   -8.5380    0.7550 C   0  0  0  0  0  0
   41.1490   -8.2780    0.9500 C   0  0  2  0  0  0
   41.5140   -7.4820    2.3980 S   0  0  0  0  0  0
   43.1970   -7.1960    1.7800 C   0  0  0  0  0  0
   43.0390   -6.8020    0.3110 C   0  0  2  0  0  0
   42.8080   -5.3790    0.1740 N   0  0  0  0  0  0
   41.5810   -5.1530   -0.3000 C   0  0  0  0  0  0
   41.1190   -3.8930   -0.5430 O   0  0  0  0  0  0
   40.8930   -6.2540   -0.4970 N   0  0  0  0  0  0
   41.7390   -7.4010   -0.1590 C   0  0  2  0  0  0
   36.2607  -11.5788    1.8260 H   0  0  0  0  0  0
   37.6477  -11.4090    2.9546 H   0  0  0  0  0  0
   37.5046  -10.1998    0.1561 H   0  0  0  0  0  0
   37.1575   -9.3330    1.6907 H   0  0  0  0  0  0
   39.4655   -9.8205    2.4874 H   0  0  0  0  0  0
   39.8125  -10.6852    0.9517 H   0  0  0  0  0  0
   39.4267   -8.5781   -0.3226 H   0  0  0  0  0  0
   39.0783   -7.7131    1.2127 H   0  0  0  0  0  0
   41.5462   -9.2985    0.8460 H   0  0  0  0  0  0
   43.6689   -6.3900    2.3611 H   0  0  0  0  0  0
   43.7878   -8.1180    1.8849 H   0  0  0  0  0  0
   43.9395   -7.0840   -0.2543 H   0  0  0  0  0  0
   43.5978   -4.6646    0.4494 H   0  0  0  0  0  0
   39.8633   -6.4148   -0.8488 H   0  0  0  0  0  0
   41.8374   -8.0294   -1.0564 H   0  0  0  0  0  0
  1  2  1  0  0  0
  1  3  2  0  0  0
  1  4  1  0  0  0
  4  5  1  0  0  0
  4 17  1  0  0  0
  4 18  1  0  0  0
  5  6  1  0  0  0
  5 19  1  0  0  0
  5 20  1  0  0  0
  6  7  1  0  0  0
  6 21  1  0  0  0
  6 22  1  0  0  0
  7  8  1  0  0  0
  7 23  1  0  0  0
  7 24  1  0  0  0
  8  9  1  0  0  0
  8 16  1  0  0  0
  8 25  1  0  0  0
  9 10  1  0  0  0
 10 11  1  0  0  0
 10 26  1  0  0  0
 10 27  1  0  0  0
 11 12  1  0  0  0
 11 16  1  0  0  0
 11 28  1  0  0  0
 12 13  1  0  0  0
 12 29  1  0  0  0
 13 14  2  0  0  0
 13 15  1  0  0  0
 15 16  1  0  0  0
 15 30  1  0  0  0
 16 31  1  0  0  0
M  CHG  1   2  -1
M  END
> <s_m_source_file>
../4ggz_ligand.sdf

> <i_m_source_file_index>
1

> <s_epik_input>
W09IXUMoPU8pW0NIMl1bQ0gyXVtDSDJdW0NIMl1bQ0BIXShTW0NIMl0xKVtDQEhdKFtDQEhdMTIpW05IXUMoPU8pW05IXTI=

> <s_epik_cmdline>
J2VwaWtfYXBwJywgJy1pbWFlJywgJ2xpZ2FuZF9wcm8ubWFlJywgJy1vbWFlJywgJ2xpZ2FuZF9wcmVwLm1hZScsICctbXMnLCAnMScsICctcGgnLCAnNycsICctcGh0JywgJzAuNScsICctbnQn

> <r_lp_tautomer_probability>
1

> <r_epik_Ionization_Penalty>
  0.0045

> <r_epik_Ionization_Penalty_Charging>
  0.0044

> <r_epik_Ionization_Penalty_Neutral>
  0.0000

> <r_epik_State_Penalty>
 -0.0000

> <r_epik_Charging_Adjusted_Penalty>
0.00443833021372702

> <i_epik_Tot_Q>
-1

> <i_epik_Tot_abs_Q>
1

$$$$
