4ghi_ligand
                    3D
 Schrodinger Suite 2020-3.
 27 29  0  0  1  0            999 V2000
   17.4040  -39.8240    9.7410 Cl  0  0  0  0  0  0
   16.5340  -41.2350   10.2830 C   0  0  0  0  0  0
   15.2040  -41.1240   10.5300 C   0  0  0  0  0  0
   17.2640  -42.3700   10.5060 C   0  0  0  0  0  0
   16.5440  -43.4480   10.9870 C   0  0  0  0  0  0
   17.1930  -44.5980   11.2210 F   0  0  0  0  0  0
   15.1760  -43.3980   11.2070 C   0  0  0  0  0  0
   14.5010  -42.2300   10.9730 C   0  0  0  0  0  0
   13.0980  -42.1440   11.2400 N   0  0  0  0  0  0
   12.1490  -41.7410   10.3470 C   0  0  0  0  0  0
   10.8520  -41.4450   10.6590 C   0  0  0  0  0  0
   10.3680  -41.5170   11.9910 N   0  3  0  0  0  0
   11.1770  -41.7980   12.8750 O   0  0  0  0  0  0
    9.2050  -41.3160   12.2390 O   0  5  0  0  0  0
   12.5530  -41.6560    8.9520 C   0  0  0  0  0  0
   11.7220  -41.2830    7.9550 C   0  0  0  0  0  0
   10.3640  -40.9870    8.2580 C   0  0  0  0  0  0
    9.9310  -41.0650    9.6400 C   0  0  0  0  0  0
    9.3120  -40.6010    7.5230 N   0  0  0  0  0  0
    8.3070  -40.4510    8.3820 O   0  0  0  0  0  0
    8.6260  -40.7070    9.6460 N   0  0  0  0  0  0
   14.6945  -40.1721   10.3807 H   0  0  0  0  0  0
   18.3365  -42.4210   10.3180 H   0  0  0  0  0  0
   14.6432  -44.2798   11.5627 H   0  0  0  0  0  0
   12.7094  -42.4153   12.2327 H   0  0  0  0  0  0
   13.5827  -41.9071    8.6976 H   0  0  0  0  0  0
   12.0873  -41.2096    6.9307 H   0  0  0  0  0  0
  1  2  1  0  0  0
  2  3  2  0  0  0
  2  4  1  0  0  0
  3  8  1  0  0  0
  3 22  1  0  0  0
  4  5  2  0  0  0
  4 23  1  0  0  0
  5  6  1  0  0  0
  5  7  1  0  0  0
  7  8  2  0  0  0
  7 24  1  0  0  0
  8  9  1  0  0  0
  9 10  1  0  0  0
  9 25  1  0  0  0
 10 11  2  0  0  0
 10 15  1  0  0  0
 11 12  1  0  0  0
 11 18  1  0  0  0
 12 13  2  0  0  0
 12 14  1  0  0  0
 15 16  2  0  0  0
 15 26  1  0  0  0
 16 17  1  0  0  0
 16 27  1  0  0  0
 17 18  1  0  0  0
 17 19  2  0  0  0
 18 21  2  0  0  0
 19 20  1  0  0  0
 20 21  1  0  0  0
M  CHG  2  12   1  14  -1
M  END
> <s_m_source_file>
../4ghi_ligand.sdf

> <i_m_source_file_index>
1

> <s_epik_input>
Q2xjMVtjSF1jKFtjSF1jKEYpW2NIXTEpW05IXWMoW2NIXVtjSF0yKWMoW04rXSg9TylbTy1dKWMoYzIzKW5vbjM=

> <s_epik_cmdline>
J2VwaWtfYXBwJywgJy1pbWFlJywgJ2xpZ2FuZF9wcm8ubWFlJywgJy1vbWFlJywgJ2xpZ2FuZF9wcmVwLm1hZScsICctbXMnLCAnMScsICctcGgnLCAnNycsICctcGh0JywgJzAuNScsICctbnQn

> <r_lp_tautomer_probability>
1

> <r_epik_Ionization_Penalty>
  0.0000

> <r_epik_Ionization_Penalty_Charging>
  0.0000

> <r_epik_Ionization_Penalty_Neutral>
  0.0000

> <r_epik_State_Penalty>
 -0.0000

> <r_epik_Charging_Adjusted_Penalty>
0

> <i_epik_Tot_Q>
0

> <i_epik_Tot_abs_Q>
2

$$$$
