4ght_ligand
                    3D
 Schrodinger Suite 2020-3.
 84 86  0  0  1  0            999 V2000
   10.6610   -7.3660   -0.0600 C   0  0  0  0  0  0
    9.3640   -6.6440   -0.3770 C   0  0  0  0  0  0
   11.0820   -8.2520   -0.7970 O   0  0  0  0  0  0
    8.7620   -7.0080   -1.7410 C   0  0  1  0  0  0
    7.6540   -6.0240   -2.0550 C   0  0  0  0  0  0
    6.5050   -6.0550   -1.0350 C   0  0  0  0  0  0
    5.7350   -7.1750   -0.7880 C   0  0  0  0  0  0
    4.6640   -7.1640    0.1550 C   0  0  0  0  0  0
    4.3690   -5.9860    0.8550 C   0  0  0  0  0  0
    5.1330   -4.8560    0.5940 C   0  0  0  0  0  0
    6.1900   -4.8960   -0.3240 C   0  0  0  0  0  0
    9.7740   -7.9030   -3.7120 N   0  0  0  0  0  0
   10.6070   -7.9090   -4.9220 C   0  0  1  0  0  0
   11.6590   -9.0330   -4.8980 C   0  0  0  0  0  0
   12.6860   -8.7800   -3.8100 C   0  0  1  0  0  0
   13.8920   -9.7150   -3.8720 C   0  0  0  0  0  0
   14.8760   -9.1350   -3.3660 N   0  0  0  0  0  0
   13.8910  -10.8320   -4.3590 O   0  0  0  0  0  0
    9.6410   -8.0320   -6.1170 C   0  0  0  0  0  0
    8.7660   -6.7830   -6.2190 C   0  0  0  0  0  0
    9.5900   -5.5740   -6.6540 C   0  0  0  0  0  0
    9.3050   -4.3110   -6.0810 O   0  0  0  0  0  0
   10.4900   -5.6700   -7.4650 O   0  0  0  0  0  0
    9.7250   -6.9090   -2.8990 C   0  0  0  0  0  0
   10.3650   -5.8730   -3.0020 O   0  0  0  0  0  0
   10.1700   -3.1860   -6.2350 C   0  0  0  0  0  0
   10.9110   -2.9540   -4.9330 C   0  0  0  0  0  0
   11.3980   -6.9180    1.2100 C   0  0  1  0  0  0
   11.9510   -8.0800    1.8990 N   0  0  0  0  0  0
   11.5110   -8.4350    3.0970 C   0  0  0  0  0  0
   10.6730   -7.7950    3.7410 O   0  0  0  0  0  0
   12.5900   -5.9510    1.0540 C   0  0  0  0  0  0
   12.3960   -4.8870   -0.0090 C   0  0  0  0  0  0
    3.3340   -5.8910    1.7470 F   0  0  0  0  0  0
   12.9200   -5.2880    2.4000 C   0  0  0  0  0  0
   14.7430   -7.6810   -3.2210 C   0  0  0  0  0  0
   13.3330   -7.3930   -3.7750 C   0  0  0  0  0  0
   12.2030   -9.6230    3.6520 C   0  0  0  0  0  0
   11.9600  -10.2490    4.8780 C   0  0  0  0  0  0
   12.9060  -11.2470    4.9170 C   0  0  0  0  0  0
   13.6630  -11.2440    3.7980 O   0  0  0  0  0  0
   13.2490  -10.2350    3.0010 N   0  0  0  0  0  0
   13.0850  -12.2390    6.0350 C   0  0  0  0  0  0
    8.6109   -6.8912    0.3857 H   0  0  0  0  0  0
    9.5401   -5.5582   -0.3801 H   0  0  0  0  0  0
    8.4316   -8.0543   -1.6629 H   0  0  0  0  0  0
    8.0621   -5.0025   -2.0627 H   0  0  0  0  0  0
    7.2267   -6.2556   -3.0418 H   0  0  0  0  0  0
    5.9522   -8.0954   -1.3300 H   0  0  0  0  0  0
    4.0786   -8.0667    0.3300 H   0  0  0  0  0  0
    4.9066   -3.9238    1.1115 H   0  0  0  0  0  0
    6.7834   -3.9965   -0.4878 H   0  0  0  0  0  0
    9.1535   -8.7777   -3.4671 H   0  0  0  0  0  0
   11.1741   -6.9669   -4.9516 H   0  0  0  0  0  0
   11.1630   -9.9953   -4.7031 H   0  0  0  0  0  0
   12.1725   -9.0754   -5.8699 H   0  0  0  0  0  0
   12.0378   -8.9362   -2.9351 H   0  0  0  0  0  0
   15.7974   -9.6385   -3.0379 H   0  0  0  0  0  0
   10.2194   -8.1433   -7.0460 H   0  0  0  0  0  0
    8.9967   -8.9127   -5.9785 H   0  0  0  0  0  0
    7.9697   -6.9526   -6.9587 H   0  0  0  0  0  0
    8.3159   -6.5695   -5.2383 H   0  0  0  0  0  0
   10.8903   -3.3851   -7.0422 H   0  0  0  0  0  0
    9.5736   -2.2967   -6.4868 H   0  0  0  0  0  0
   11.5808   -2.0883   -5.0416 H   0  0  0  0  0  0
   11.5032   -3.8469   -4.6841 H   0  0  0  0  0  0
   10.1866   -2.7585   -4.1286 H   0  0  0  0  0  0
   10.6085   -6.4144    1.7872 H   0  0  0  0  0  0
   12.7448   -8.6750    1.4237 H   0  0  0  0  0  0
   13.4360   -6.5598    0.7023 H   0  0  0  0  0  0
   12.1601   -5.3675   -0.9700 H   0  0  0  0  0  0
   13.3192   -4.2976   -0.1106 H   0  0  0  0  0  0
   11.5680   -4.2241    0.2826 H   0  0  0  0  0  0
   13.0595   -6.0644    3.1667 H   0  0  0  0  0  0
   12.0928   -4.6257    2.6951 H   0  0  0  0  0  0
   13.8440   -4.6992    2.3019 H   0  0  0  0  0  0
   14.8402   -7.4079   -2.1599 H   0  0  0  0  0  0
   15.5318   -7.1809   -3.8020 H   0  0  0  0  0  0
   13.3560   -6.9734   -4.7916 H   0  0  0  0  0  0
   12.7480   -6.7320   -3.1186 H   0  0  0  0  0  0
   11.2032  -10.0051    5.6236 H   0  0  0  0  0  0
   12.3516  -12.0333    6.8286 H   0  0  0  0  0  0
   14.1023  -12.1508    6.4440 H   0  0  0  0  0  0
   12.9319  -13.2577    5.6493 H   0  0  0  0  0  0
  1  2  1  0  0  0
  1  3  2  0  0  0
  1 28  1  0  0  0
  2  4  1  0  0  0
  2 44  1  0  0  0
  2 45  1  0  0  0
  4  5  1  0  0  0
  4 24  1  0  0  0
  4 46  1  0  0  0
  5  6  1  0  0  0
  5 47  1  0  0  0
  5 48  1  0  0  0
  6  7  2  0  0  0
  6 11  1  0  0  0
  7  8  1  0  0  0
  7 49  1  0  0  0
  8  9  2  0  0  0
  8 50  1  0  0  0
  9 10  1  0  0  0
  9 34  1  0  0  0
 10 11  2  0  0  0
 10 51  1  0  0  0
 11 52  1  0  0  0
 12 13  1  0  0  0
 12 24  1  0  0  0
 12 53  1  0  0  0
 13 14  1  0  0  0
 13 19  1  0  0  0
 13 54  1  0  0  0
 14 15  1  0  0  0
 14 55  1  0  0  0
 14 56  1  0  0  0
 15 16  1  0  0  0
 15 37  1  0  0  0
 15 57  1  0  0  0
 16 17  1  0  0  0
 16 18  2  0  0  0
 17 36  1  0  0  0
 17 58  1  0  0  0
 19 20  1  0  0  0
 19 59  1  0  0  0
 19 60  1  0  0  0
 20 21  1  0  0  0
 20 61  1  0  0  0
 20 62  1  0  0  0
 21 22  1  0  0  0
 21 23  2  0  0  0
 22 26  1  0  0  0
 24 25  2  0  0  0
 26 27  1  0  0  0
 26 63  1  0  0  0
 26 64  1  0  0  0
 27 65  1  0  0  0
 27 66  1  0  0  0
 27 67  1  0  0  0
 28 29  1  0  0  0
 28 32  1  0  0  0
 28 68  1  0  0  0
 29 30  1  0  0  0
 29 69  1  0  0  0
 30 31  2  0  0  0
 30 38  1  0  0  0
 32 33  1  0  0  0
 32 35  1  0  0  0
 32 70  1  0  0  0
 33 71  1  0  0  0
 33 72  1  0  0  0
 33 73  1  0  0  0
 35 74  1  0  0  0
 35 75  1  0  0  0
 35 76  1  0  0  0
 36 37  1  0  0  0
 36 77  1  0  0  0
 36 78  1  0  0  0
 37 79  1  0  0  0
 37 80  1  0  0  0
 38 39  1  0  0  0
 38 42  2  0  0  0
 39 40  2  0  0  0
 39 81  1  0  0  0
 40 41  1  0  0  0
 40 43  1  0  0  0
 41 42  1  0  0  0
 43 82  1  0  0  0
 43 83  1  0  0  0
 43 84  1  0  0  0
M  END
> <s_m_source_file>
../4ght_ligand.sdf

> <i_m_source_file_index>
1

> <s_epik_input>
bjFvYyhbQ0gzXSlbY0hdYzFDKD1PKVtOSF1bQ0BASF0oW0NIXShbQ0gzXSlbQ0gzXSlDKD1PKVtDSDJdW0NAQEhdKFtDSDJdYzJbY0hdW2NIXWMoRilbY0hdW2NIXTIpQyg9TylbTkhdW0NAQEhdKFtDSDJdW0NASF0zQyg9TylbTkhdW0NIMl1bQ0gyXTMpW0NIMl1bQ0gyXUMoPU8pT1tDSDJdW0NIM10=

> <s_epik_cmdline>
J2VwaWtfYXBwJywgJy1pbWFlJywgJ2xpZ2FuZF9wcm8ubWFlJywgJy1vbWFlJywgJ2xpZ2FuZF9wcmVwLm1hZScsICctbXMnLCAnMScsICctcGgnLCAnNycsICctcGh0JywgJzAuNScsICctbnQn

> <r_lp_tautomer_probability>
1

> <r_epik_Ionization_Penalty>
  0.0000

> <r_epik_Ionization_Penalty_Charging>
  0.0000

> <r_epik_Ionization_Penalty_Neutral>
  0.0000

> <r_epik_State_Penalty>
 -0.0000

> <r_epik_Charging_Adjusted_Penalty>
0

> <i_epik_Tot_Q>
0

> <i_epik_Tot_abs_Q>
0

> <s_epik_Chemistry_Notes>
This compound has an ester and may undergo hydrolysis at high or low pH.

$$$$
