4gii_ligand
                    3D
 Schrodinger Suite 2020-3.
 37 39  0  0  1  0            999 V2000
   -9.6390  -10.8520  -17.2860 C   0  0  0  0  0  0
   -4.6160   -4.8750  -16.1640 C   0  0  0  0  0  0
   -8.8460   -9.7030  -17.2500 C   0  0  0  0  0  0
   -8.7340   -8.9640  -16.0700 C   0  0  0  0  0  0
   -7.3100   -4.5030  -15.4890 C   0  0  0  0  0  0
   -7.5980   -6.9540  -15.1290 C   0  0  0  0  0  0
   -6.7500   -5.7940  -15.4840 C   0  0  0  0  0  0
   -6.5250   -3.4120  -15.8140 C   0  0  0  0  0  0
   -5.1770   -3.5900  -16.1520 C   0  0  0  0  0  0
  -10.3280  -11.2080  -16.1990 N   0  0  0  0  0  0
   -9.4870   -9.3840  -14.9550 C   0  0  0  0  0  0
  -10.2740  -10.5230  -15.0600 C   0  0  0  0  0  0
   -7.9330   -7.8120  -16.1230 N   0  0  0  0  0  0
   -7.9630   -7.0850  -13.9710 O   0  0  0  0  0  0
   -5.3980   -5.9700  -15.8370 C   0  0  0  0  0  0
   -4.6910   -7.5500  -15.8820 Cl  0  0  0  0  0  0
   -4.3670   -2.4620  -16.4880 C   0  0  0  0  0  0
   -3.7160   -1.5720  -16.7520 N   0  0  0  0  0  0
   -8.9850   -4.2690  -15.0940 Cl  0  0  0  0  0  0
   -9.7530  -11.6350  -18.4470 N   0  0  0  0  0  0
   -8.7770  -11.8630  -19.3710 C   0  0  0  0  0  0
   -7.6650  -11.3590  -19.2850 O   0  0  0  0  0  0
   -9.1230  -12.7580  -20.5430 C   0  0  0  0  0  0
   -8.4290  -12.5480  -21.8920 C   0  0  0  0  0  0
   -8.0810  -13.7660  -21.0310 C   0  0  0  0  0  0
   -3.5678   -5.0115  -16.4299 H   0  0  0  0  0  0
   -8.3131   -9.3821  -18.1450 H   0  0  0  0  0  0
   -6.9561   -2.4109  -15.8072 H   0  0  0  0  0  0
   -9.4519   -8.8216  -14.0219 H   0  0  0  0  0  0
  -10.8535  -10.8593  -14.2003 H   0  0  0  0  0  0
   -7.4793   -7.5010  -17.0756 H   0  0  0  0  0  0
  -10.7037  -12.1365  -18.6810 H   0  0  0  0  0  0
  -10.1698  -12.8068  -20.2086 H   0  0  0  0  0  0
   -9.1822  -12.5345  -22.6936 H   0  0  0  0  0  0
   -7.8881  -11.5902  -21.8809 H   0  0  0  0  0  0
   -7.2519  -13.8145  -20.3098 H   0  0  0  0  0  0
   -8.5459  -14.7587  -21.1225 H   0  0  0  0  0  0
  1  3  2  0  0  0
  1 10  1  0  0  0
  1 20  1  0  0  0
  2  9  2  0  0  0
  2 15  1  0  0  0
  2 26  1  0  0  0
  3  4  1  0  0  0
  3 27  1  0  0  0
  4 11  2  0  0  0
  4 13  1  0  0  0
  5  7  1  0  0  0
  5  8  2  0  0  0
  5 19  1  0  0  0
  6  7  1  0  0  0
  6 13  1  0  0  0
  6 14  2  0  0  0
  7 15  2  0  0  0
  8  9  1  0  0  0
  8 28  1  0  0  0
  9 17  1  0  0  0
 10 12  2  0  0  0
 11 12  1  0  0  0
 11 29  1  0  0  0
 12 30  1  0  0  0
 13 31  1  0  0  0
 15 16  1  0  0  0
 17 18  3  0  0  0
 20 21  1  0  0  0
 20 32  1  0  0  0
 21 22  2  0  0  0
 21 23  1  0  0  0
 23 24  1  0  0  0
 23 25  1  0  0  0
 23 33  1  0  0  0
 24 25  1  0  0  0
 24 34  1  0  0  0
 24 35  1  0  0  0
 25 36  1  0  0  0
 25 37  1  0  0  0
M  END
> <s_m_source_file>
../4gii_ligand.sdf

> <i_m_source_file_index>
1

> <s_epik_input>
W0NIMl0xW0NIMl1bQ0hdMUMoPU8pW05IXWMyW2NIXWMoW2NIXVtjSF1uMilbTkhdQyg9TyljKGMzQ2wpYyhDbClbY0hdYyhbY0hdMylDI04=

> <s_epik_cmdline>
J2VwaWtfYXBwJywgJy1pbWFlJywgJ2xpZ2FuZF9wcm8ubWFlJywgJy1vbWFlJywgJ2xpZ2FuZF9wcmVwLm1hZScsICctbXMnLCAnMScsICctcGgnLCAnNycsICctcGh0JywgJzAuNScsICctbnQn

> <r_epik_Ionization_Penalty>
  0.0483

> <r_epik_Ionization_Penalty_Charging>
  0.0000

> <r_epik_Ionization_Penalty_Neutral>
  0.0483

> <r_epik_State_Penalty>
  0.0092

> <r_epik_Charging_Adjusted_Penalty>
0.00920207089186936

> <i_epik_Tot_Q>
0

> <i_epik_Tot_abs_Q>
0

$$$$
