4giu_ligand
                    3D
 Schrodinger Suite 2020-3.
 34 35  0  0  1  0            999 V2000
    4.3200  -31.6260   34.1030 O   0  0  0  0  0  0
    4.0050  -30.6840   33.3320 C   0  0  0  0  0  0
    4.8890  -29.8660   32.9480 O   0  5  0  0  0  0
    2.6240  -30.5550   32.7840 C   0  0  0  0  0  0
    1.9640  -31.7180   32.4050 C   0  0  0  0  0  0
    0.6980  -31.6590   31.8510 C   0  0  0  0  0  0
    0.0820  -30.4330   31.6730 C   0  0  0  0  0  0
    0.7250  -29.2580   32.0430 C   0  0  0  0  0  0
   -0.0060  -27.9720   31.7950 C   0  0  0  0  0  0
    2.0040  -29.3100   32.6110 C   0  0  0  0  0  0
    2.7010  -28.1110   33.0000 N   0  0  0  0  0  0
    2.2700  -27.2750   34.0960 C   0  0  0  0  0  0
    3.0800  -26.2070   34.4850 C   0  0  0  0  0  0
    4.3740  -25.9430   33.7750 C   0  0  0  0  0  0
    5.0370  -26.8910   33.2740 O   0  0  0  0  0  0
    4.8000  -24.7580   33.6710 O   0  5  0  0  0  0
    1.0710  -27.4990   34.7760 C   0  0  0  0  0  0
    0.6770  -26.6670   35.8090 C   0  0  0  0  0  0
   -0.6160  -26.8970   36.5310 C   0  0  0  0  0  0
    1.4890  -25.6100   36.1910 C   0  0  0  0  0  0
    2.6890  -25.3800   35.5320 C   0  0  0  0  0  0
    2.4480  -32.6845   32.5455 H   0  0  0  0  0  0
    0.1872  -32.5755   31.5556 H   0  0  0  0  0  0
   -0.9167  -30.3884   31.2386 H   0  0  0  0  0  0
   -0.9858  -28.1883   31.3442 H   0  0  0  0  0  0
    0.5815  -27.3424   31.1106 H   0  0  0  0  0  0
   -0.1498  -27.4423   32.7483 H   0  0  0  0  0  0
    3.6031  -27.7976   32.4541 H   0  0  0  0  0  0
    0.4382  -28.3390   34.4897 H   0  0  0  0  0  0
   -1.1265  -27.7706   36.0995 H   0  0  0  0  0  0
   -1.2571  -26.0092   36.4268 H   0  0  0  0  0  0
   -0.4134  -27.0800   37.5966 H   0  0  0  0  0  0
    1.1846  -24.9585   37.0102 H   0  0  0  0  0  0
    3.3260  -24.5494   35.8360 H   0  0  0  0  0  0
  1  2  2  0  0  0
  2  3  1  0  0  0
  2  4  1  0  0  0
  4  5  2  0  0  0
  4 10  1  0  0  0
  5  6  1  0  0  0
  5 22  1  0  0  0
  6  7  2  0  0  0
  6 23  1  0  0  0
  7  8  1  0  0  0
  7 24  1  0  0  0
  8  9  1  0  0  0
  8 10  2  0  0  0
  9 25  1  0  0  0
  9 26  1  0  0  0
  9 27  1  0  0  0
 10 11  1  0  0  0
 11 12  1  0  0  0
 11 28  1  0  0  0
 12 13  2  0  0  0
 12 17  1  0  0  0
 13 14  1  0  0  0
 13 21  1  0  0  0
 14 15  2  0  0  0
 14 16  1  0  0  0
 17 18  2  0  0  0
 17 29  1  0  0  0
 18 19  1  0  0  0
 18 20  1  0  0  0
 19 30  1  0  0  0
 19 31  1  0  0  0
 19 32  1  0  0  0
 20 21  2  0  0  0
 20 33  1  0  0  0
 21 34  1  0  0  0
M  CHG  2   3  -1  16  -1
M  END
> <s_m_source_file>
../4giu_ligand.sdf

> <i_m_source_file_index>
1

> <s_epik_input>
Tz1DKFtPSF0pYzFbY0hdW2NIXVtjSF1jKFtDSDNdKWMxW05IXWMyYyhDKD1PKVtPSF0pW2NIXVtjSF1jKFtjSF0yKVtDSDNd

> <s_epik_cmdline>
J2VwaWtfYXBwJywgJy1pbWFlJywgJ2xpZ2FuZF9wcm8ubWFlJywgJy1vbWFlJywgJ2xpZ2FuZF9wcmVwLm1hZScsICctbXMnLCAnMScsICctcGgnLCAnNycsICctcGh0JywgJzAuNScsICctbnQn

> <r_lp_tautomer_probability>
1

> <r_epik_Ionization_Penalty>
  0.0033

> <r_epik_Ionization_Penalty_Charging>
  0.0033

> <r_epik_Ionization_Penalty_Neutral>
  0.0000

> <r_epik_State_Penalty>
 -0.0000

> <r_epik_Charging_Adjusted_Penalty>
0.00334910178419676

> <i_epik_Tot_Q>
-2

> <i_epik_Tot_abs_Q>
2

$$$$
