4gj3_ligand
                    3D
 Schrodinger Suite 2020-3.
 37 39  0  0  1  0            999 V2000
   -9.3500   -9.7140  -15.2270 C   0  0  0  0  0  0
  -10.1590  -10.8300  -15.3970 C   0  0  0  0  0  0
  -10.2190  -11.4610  -16.5650 N   0  0  0  0  0  0
   -9.5060  -11.0690  -17.6230 C   0  0  0  0  0  0
   -8.7070   -9.9280  -17.5340 C   0  0  0  0  0  0
   -8.5880   -9.2470  -16.3170 C   0  0  0  0  0  0
   -7.7790   -8.0990  -16.3170 N   0  0  0  0  0  0
   -7.5430   -7.1890  -15.3400 C   0  0  0  0  0  0
   -8.0030   -7.2710  -14.2150 O   0  0  0  0  0  0
   -6.6730   -6.0450  -15.6910 C   0  0  0  0  0  0
   -7.2250   -4.7480  -15.7860 C   0  0  0  0  0  0
   -6.4130   -3.6810  -16.1360 C   0  0  0  0  0  0
   -5.0600   -3.8900  -16.4350 C   0  0  0  0  0  0
   -4.5140   -5.1790  -16.3650 C   0  0  0  0  0  0
   -5.3130   -6.2520  -16.0090 C   0  0  0  0  0  0
   -4.6060   -7.8380  -15.9560 Cl  0  0  0  0  0  0
   -4.2310   -2.7840  -16.8040 C   0  0  0  0  0  0
   -3.5700   -1.9080  -17.0950 N   0  0  0  0  0  0
   -8.9060   -4.4440  -15.4500 Cl  0  0  0  0  0  0
   -9.6660  -11.7610  -18.8310 N   0  0  0  0  0  0
   -8.7230  -12.0170  -19.7730 C   0  0  0  0  0  0
   -7.5630  -11.6590  -19.6640 O   0  0  0  0  0  0
   -9.1760  -12.7790  -20.9950 C   0  0  1  0  0  0
   -8.3260  -12.7310  -22.2670 C   0  0  0  0  0  0
   -8.3670  -14.0020  -21.4130 C   0  0  1  0  0  0
   -7.2530  -14.3110  -20.6290 F   0  0  0  0  0  0
   -9.3049   -9.2061  -14.2636 H   0  0  0  0  0  0
  -10.7540  -11.1940  -14.5594 H   0  0  0  0  0  0
   -8.1747   -9.5666  -18.4139 H   0  0  0  0  0  0
   -7.2121   -7.8256  -17.2192 H   0  0  0  0  0  0
   -6.8287   -2.6743  -16.1789 H   0  0  0  0  0  0
   -3.4594   -5.3367  -16.5910 H   0  0  0  0  0  0
  -10.6500  -12.1695  -19.1047 H   0  0  0  0  0  0
  -10.2309  -12.5727  -20.7612 H   0  0  0  0  0  0
   -8.9734  -12.5296  -23.1332 H   0  0  0  0  0  0
   -7.5755  -11.9319  -22.1766 H   0  0  0  0  0  0
   -8.5370  -15.0753  -21.5839 H   0  0  0  0  0  0
  1  2  2  0  0  0
  1  6  1  0  0  0
  1 27  1  0  0  0
  2  3  1  0  0  0
  2 28  1  0  0  0
  3  4  2  0  0  0
  4  5  1  0  0  0
  4 20  1  0  0  0
  5  6  2  0  0  0
  5 29  1  0  0  0
  6  7  1  0  0  0
  7  8  1  0  0  0
  7 30  1  0  0  0
  8  9  2  0  0  0
  8 10  1  0  0  0
 10 11  2  0  0  0
 10 15  1  0  0  0
 11 12  1  0  0  0
 11 19  1  0  0  0
 12 13  2  0  0  0
 12 31  1  0  0  0
 13 14  1  0  0  0
 13 17  1  0  0  0
 14 15  2  0  0  0
 14 32  1  0  0  0
 15 16  1  0  0  0
 17 18  3  0  0  0
 20 21  1  0  0  0
 20 33  1  0  0  0
 21 22  2  0  0  0
 21 23  1  0  0  0
 23 24  1  0  0  0
 23 25  1  0  0  0
 23 34  1  0  0  0
 24 25  1  0  0  0
 24 35  1  0  0  0
 24 36  1  0  0  0
 25 26  1  0  0  0
 25 37  1  0  0  0
M  END
> <s_m_source_file>
../4gj3_ligand.sdf

> <i_m_source_file_index>
1

> <s_epik_input>
RltDQEBIXTFbQ0gyXVtDQEBIXTFDKD1PKVtOSF1jMm5bY0hdW2NIXWMoW2NIXTIpW05IXUMoPU8pYzNjKENsKVtjSF1jKEMjTilbY0hdYzNDbA==

> <s_epik_cmdline>
J2VwaWtfYXBwJywgJy1pbWFlJywgJ2xpZ2FuZF9wcm8ubWFlJywgJy1vbWFlJywgJ2xpZ2FuZF9wcmVwLm1hZScsICctbXMnLCAnMScsICctcGgnLCAnNycsICctcGh0JywgJzAuNScsICctbnQn

> <r_epik_Ionization_Penalty>
  0.0519

> <r_epik_Ionization_Penalty_Charging>
  0.0000

> <r_epik_Ionization_Penalty_Neutral>
  0.0519

> <r_epik_State_Penalty>
  0.0066

> <r_epik_Charging_Adjusted_Penalty>
0.0065656931044666

> <i_epik_Tot_Q>
0

> <i_epik_Tot_abs_Q>
0

$$$$
