4gj6_ligand
                    3D
 Schrodinger Suite 2020-3.
 53 56  0  0  1  0            999 V2000
    3.8900   23.2440   48.7920 N   0  3  0  0  0  0
    5.3020   23.3120   48.3960 C   0  0  0  0  0  0
    5.4910   22.2620   47.2690 C   0  0  2  0  0  0
    4.1210   21.5860   47.1110 C   0  0  1  0  0  0
    3.4380   21.8970   48.4540 C   0  0  0  0  0  0
    3.3420   21.9990   45.8370 C   0  0  0  0  0  0
    1.9410   21.3730   45.8110 C   0  0  0  0  0  0
    6.6050   21.2170   47.5340 C   0  0  0  0  0  0
    7.9430   21.7950   47.7510 N   0  0  0  0  0  0
    8.5850   22.5190   46.7880 C   0  0  0  0  0  0
    8.5820   21.4790   48.9120 C   0  0  0  0  0  0
    8.2110   22.3530   45.4330 C   0  0  0  0  0  0
    8.9260   22.9800   44.4130 C   0  0  0  0  0  0
   10.0250   23.7850   44.7510 C   0  0  0  0  0  0
   10.4280   23.9500   46.0800 C   0  0  0  0  0  0
    9.7290   23.2940   47.0850 C   0  0  0  0  0  0
    9.4390   20.3550   49.0010 C   0  0  0  0  0  0
   10.0580   20.0050   50.2150 C   0  0  0  0  0  0
    9.7930   20.7610   51.3660 C   0  0  0  0  0  0
    8.9190   21.8550   51.3010 C   0  0  0  0  0  0
    8.3310   22.2140   50.0780 C   0  0  0  0  0  0
    0.8140   22.1230   46.2500 C   0  0  0  0  0  0
   -0.4820   21.5610   46.2380 C   0  0  0  0  0  0
   -0.6460   20.2410   45.7820 C   0  0  0  0  0  0
    0.4740   19.4850   45.3480 C   0  0  0  0  0  0
    1.7700   20.0470   45.3540 C   0  0  0  0  0  0
   10.9830   24.5390   43.5050 Cl  0  0  0  0  0  0
    3.8027   23.4318   49.8723 H   0  0  0  0  0  0
    3.3174   24.0041   48.2403 H   0  0  0  0  0  0
    5.5329   24.3248   48.0341 H   0  0  0  0  0  0
    5.9376   23.0787   49.2629 H   0  0  0  0  0  0
    5.8232   22.7629   46.3478 H   0  0  0  0  0  0
    4.1922   20.5025   46.9353 H   0  0  0  0  0  0
    3.7487   21.1971   49.2436 H   0  0  0  0  0  0
    2.3414   21.8890   48.3677 H   0  0  0  0  0  0
    3.2362   23.0936   45.8107 H   0  0  0  0  0  0
    3.8918   21.6623   44.9457 H   0  0  0  0  0  0
    6.3565   20.6366   48.4347 H   0  0  0  0  0  0
    6.6846   20.5391   46.6714 H   0  0  0  0  0  0
    7.3538   21.7275   45.1838 H   0  0  0  0  0  0
    8.6362   22.8471   43.3707 H   0  0  0  0  0  0
   11.2796   24.5852   46.3239 H   0  0  0  0  0  0
   10.0676   23.3781   48.1177 H   0  0  0  0  0  0
    9.6223   19.7502   48.1129 H   0  0  0  0  0  0
   10.7374   19.1539   50.2605 H   0  0  0  0  0  0
   10.2669   20.4978   52.3117 H   0  0  0  0  0  0
    8.6957   22.4276   52.2012 H   0  0  0  0  0  0
    7.6685   23.0785   50.0348 H   0  0  0  0  0  0
    0.9528   23.1457   46.6005 H   0  0  0  0  0  0
   -1.3406   22.1409   46.5766 H   0  0  0  0  0  0
   -1.6405   19.7952   45.7617 H   0  0  0  0  0  0
    0.3326   18.4596   45.0064 H   0  0  0  0  0  0
    2.6260   19.4659   45.0109 H   0  0  0  0  0  0
  1  2  1  0  0  0
  1  5  1  0  0  0
  1 28  1  0  0  0
  1 29  1  0  0  0
  2  3  1  0  0  0
  2 30  1  0  0  0
  2 31  1  0  0  0
  3  4  1  0  0  0
  3  8  1  0  0  0
  3 32  1  0  0  0
  4  5  1  0  0  0
  4  6  1  0  0  0
  4 33  1  0  0  0
  5 34  1  0  0  0
  5 35  1  0  0  0
  6  7  1  0  0  0
  6 36  1  0  0  0
  6 37  1  0  0  0
  7 22  2  0  0  0
  7 26  1  0  0  0
  8  9  1  0  0  0
  8 38  1  0  0  0
  8 39  1  0  0  0
  9 10  1  0  0  0
  9 11  1  0  0  0
 10 12  2  0  0  0
 10 16  1  0  0  0
 11 17  2  0  0  0
 11 21  1  0  0  0
 12 13  1  0  0  0
 12 40  1  0  0  0
 13 14  2  0  0  0
 13 41  1  0  0  0
 14 15  1  0  0  0
 14 27  1  0  0  0
 15 16  2  0  0  0
 15 42  1  0  0  0
 16 43  1  0  0  0
 17 18  1  0  0  0
 17 44  1  0  0  0
 18 19  2  0  0  0
 18 45  1  0  0  0
 19 20  1  0  0  0
 19 46  1  0  0  0
 20 21  2  0  0  0
 20 47  1  0  0  0
 21 48  1  0  0  0
 22 23  1  0  0  0
 22 49  1  0  0  0
 23 24  2  0  0  0
 23 50  1  0  0  0
 24 25  1  0  0  0
 24 51  1  0  0  0
 25 26  2  0  0  0
 25 52  1  0  0  0
 26 53  1  0  0  0
M  CHG  1   1   1
M  END
> <s_m_source_file>
../4gj6_ligand.sdf

> <i_m_source_file_index>
1

> <s_epik_input>
W2NIXTFbY0hdW2NIXVtjSF1bY0hdYzFbQ0gyXVtDQEBIXTJbQ0gyXVtOSDIrXVtDSDJdW0NASF0yW0NIMl1OKGMzW2NIXVtjSF1jKENsKVtjSF1bY0hdMyljNFtjSF1bY0hdW2NIXVtjSF1bY0hdNA==

> <s_epik_cmdline>
J2VwaWtfYXBwJywgJy1pbWFlJywgJ2xpZ2FuZF9wcm8ubWFlJywgJy1vbWFlJywgJ2xpZ2FuZF9wcmVwLm1hZScsICctbXMnLCAnMScsICctcGgnLCAnNycsICctcGh0JywgJzAuNScsICctbnQn

> <r_lp_tautomer_probability>
1

> <r_epik_Ionization_Penalty>
  0.0001

> <r_epik_Ionization_Penalty_Charging>
  0.0001

> <r_epik_Ionization_Penalty_Neutral>
  0.0000

> <r_epik_State_Penalty>
 -0.0000

> <r_epik_Charging_Adjusted_Penalty>
6.96132490517141e-05

> <i_epik_Tot_Q>
1

> <i_epik_Tot_abs_Q>
1

$$$$
