4gj7_ligand
                    3D
 Schrodinger Suite 2020-3.
 72 74  0  0  1  0            999 V2000
   70.3160    8.9600   47.5710 C   0  0  0  0  0  0
   68.9550    8.7690   47.5330 N   0  0  0  0  0  0
   68.4000    7.4850   47.0440 C   0  0  0  0  0  0
   71.0440   10.1920   48.0470 C   0  0  0  0  0  0
   68.8940    6.9310   45.6690 C   0  0  1  0  0  0
   71.1030   11.2980   47.1810 C   0  0  0  0  0  0
   71.8670   12.4330   47.5420 C   0  0  0  0  0  0
   67.0950    7.1180   44.0750 N   0  3  0  0  0  0
   68.3450    5.5090   45.3740 C   0  0  2  0  0  0
   71.1400    8.1810   47.0870 O   0  0  0  0  0  0
   72.6070   12.4150   48.7570 C   0  0  0  0  0  0
   71.7880   10.1600   49.2400 C   0  0  0  0  0  0
   69.2440    4.5720   44.4970 C   0  0  0  0  0  0
   68.0500    9.7260   48.1890 C   0  0  0  0  0  0
   72.5510   11.2770   49.6090 C   0  0  0  0  0  0
   68.3910    7.7410   44.4460 C   0  0  0  0  0  0
   66.9180    5.8670   44.8560 C   0  0  0  0  0  0
   71.9540   13.5640   46.7150 O   0  0  0  0  0  0
   68.5020    3.2660   44.1690 C   0  0  0  0  0  0
   73.4070   13.5280   49.0740 O   0  0  0  0  0  0
   69.7910   14.2850   45.6260 C   0  0  0  0  0  0
   69.7510   15.4380   43.4550 O   0  0  0  0  0  0
   71.2350   13.7310   45.4580 C   0  0  0  0  0  0
   69.0410   14.4960   44.2840 C   0  0  0  0  0  0
   67.1020   10.6540   47.3820 C   0  0  0  0  0  0
   67.6170    9.2560   49.6150 C   0  0  0  0  0  0
   67.6530    3.1640   43.0380 C   0  0  0  0  0  0
   68.6420    2.1550   45.0300 C   0  0  0  0  0  0
   74.0150   13.6940   50.3720 C   0  0  0  0  0  0
   69.8690   15.0360   42.0820 C   0  0  0  0  0  0
   66.9290    1.9850   42.7900 C   0  0  0  0  0  0
   67.9330    0.9670   44.7680 C   0  0  0  0  0  0
   67.0950    0.8750   43.6380 C   0  0  0  0  0  0
   68.6304    6.6874   47.7657 H   0  0  0  0  0  0
   67.3093    7.5754   46.9333 H   0  0  0  0  0  0
   69.9886    6.9721   45.7702 H   0  0  0  0  0  0
   70.5621   11.2812   46.2348 H   0  0  0  0  0  0
   66.2749    7.8154   44.3011 H   0  0  0  0  0  0
   67.0938    6.8869   42.9995 H   0  0  0  0  0  0
   68.3283    4.8400   46.2470 H   0  0  0  0  0  0
   71.7716    9.2731   49.8734 H   0  0  0  0  0  0
   69.4993    5.0834   43.5572 H   0  0  0  0  0  0
   70.1665    4.3306   45.0454 H   0  0  0  0  0  0
   68.8082   10.5208   48.2479 H   0  0  0  0  0  0
   73.1018   11.2735   50.5496 H   0  0  0  0  0  0
   68.2662    8.7960   44.7312 H   0  0  0  0  0  0
   69.1246    7.6662   43.6298 H   0  0  0  0  0  0
   66.2187    6.0485   45.6855 H   0  0  0  0  0  0
   66.5144    5.0802   44.2017 H   0  0  0  0  0  0
   69.1955   13.5807   46.2255 H   0  0  0  0  0  0
   69.8290   15.2592   46.1354 H   0  0  0  0  0  0
   71.7811   14.4361   44.8141 H   0  0  0  0  0  0
   71.1534   12.7586   44.9503 H   0  0  0  0  0  0
   68.9648   13.5364   43.7518 H   0  0  0  0  0  0
   68.0319   14.8849   44.4851 H   0  0  0  0  0  0
   67.5577   10.8862   46.4081 H   0  0  0  0  0  0
   66.9379   11.5866   47.9417 H   0  0  0  0  0  0
   66.1388   10.1466   47.2245 H   0  0  0  0  0  0
   68.3987    8.6100   50.0412 H   0  0  0  0  0  0
   66.6742    8.6936   49.5451 H   0  0  0  0  0  0
   67.4733   10.1336   50.2624 H   0  0  0  0  0  0
   67.5609    4.0079   42.3543 H   0  0  0  0  0  0
   69.2991    2.2173   45.8975 H   0  0  0  0  0  0
   74.5911   14.6309   50.3899 H   0  0  0  0  0  0
   74.6868   12.8465   50.5733 H   0  0  0  0  0  0
   73.2306   13.7311   51.1423 H   0  0  0  0  0  0
   70.4204   15.8049   41.5209 H   0  0  0  0  0  0
   68.8656   14.9143   41.6481 H   0  0  0  0  0  0
   70.4115   14.0808   42.0250 H   0  0  0  0  0  0
   66.2425    1.9311   41.9450 H   0  0  0  0  0  0
   68.0324    0.1155   45.4412 H   0  0  0  0  0  0
   66.5748   -0.0580   43.4210 H   0  0  0  0  0  0
  1  2  1  0  0  0
  1  4  1  0  0  0
  1 10  2  0  0  0
  2  3  1  0  0  0
  2 14  1  0  0  0
  3  5  1  0  0  0
  3 34  1  0  0  0
  3 35  1  0  0  0
  4  6  2  0  0  0
  4 12  1  0  0  0
  5  9  1  0  0  0
  5 16  1  0  0  0
  5 36  1  0  0  0
  6  7  1  0  0  0
  6 37  1  0  0  0
  7 11  2  0  0  0
  7 18  1  0  0  0
  8 16  1  0  0  0
  8 17  1  0  0  0
  8 38  1  0  0  0
  8 39  1  0  0  0
  9 13  1  0  0  0
  9 17  1  0  0  0
  9 40  1  0  0  0
 11 15  1  0  0  0
 11 20  1  0  0  0
 12 15  2  0  0  0
 12 41  1  0  0  0
 13 19  1  0  0  0
 13 42  1  0  0  0
 13 43  1  0  0  0
 14 25  1  0  0  0
 14 26  1  0  0  0
 14 44  1  0  0  0
 15 45  1  0  0  0
 16 46  1  0  0  0
 16 47  1  0  0  0
 17 48  1  0  0  0
 17 49  1  0  0  0
 18 23  1  0  0  0
 19 27  2  0  0  0
 19 28  1  0  0  0
 20 29  1  0  0  0
 21 23  1  0  0  0
 21 24  1  0  0  0
 21 50  1  0  0  0
 21 51  1  0  0  0
 22 24  1  0  0  0
 22 30  1  0  0  0
 23 52  1  0  0  0
 23 53  1  0  0  0
 24 54  1  0  0  0
 24 55  1  0  0  0
 25 56  1  0  0  0
 25 57  1  0  0  0
 25 58  1  0  0  0
 26 59  1  0  0  0
 26 60  1  0  0  0
 26 61  1  0  0  0
 27 31  1  0  0  0
 27 62  1  0  0  0
 28 32  2  0  0  0
 28 63  1  0  0  0
 29 64  1  0  0  0
 29 65  1  0  0  0
 29 66  1  0  0  0
 30 67  1  0  0  0
 30 68  1  0  0  0
 30 69  1  0  0  0
 31 33  2  0  0  0
 31 70  1  0  0  0
 32 33  1  0  0  0
 32 71  1  0  0  0
 33 72  1  0  0  0
M  CHG  1   8   1
M  END
> <s_m_source_file>
../4gj7_ligand.sdf

> <i_m_source_file_index>
1

> <s_epik_input>
W0NIM11PW0NIMl1bQ0gyXVtDSDJdT2MoYyhbY0hdW2NIXTEpT1tDSDNdKVtjSF1jMUMoPU8pTihbQ0hdKFtDSDNdKVtDSDNdKVtDSDJdW0NASF0yW0NAQEhdKFtDSDJdW05IMitdW0NIMl0yKVtDSDJdYzNbY0hdW2NIXVtjSF1bY0hdW2NIXTM=

> <s_epik_cmdline>
J2VwaWtfYXBwJywgJy1pbWFlJywgJ2xpZ2FuZF9wcm8ubWFlJywgJy1vbWFlJywgJ2xpZ2FuZF9wcmVwLm1hZScsICctbXMnLCAnMScsICctcGgnLCAnNycsICctcGh0JywgJzAuNScsICctbnQn

> <r_lp_tautomer_probability>
1

> <r_epik_Ionization_Penalty>
  0.0001

> <r_epik_Ionization_Penalty_Charging>
  0.0001

> <r_epik_Ionization_Penalty_Neutral>
  0.0000

> <r_epik_State_Penalty>
 -0.0000

> <r_epik_Charging_Adjusted_Penalty>
0.000112213159505886

> <i_epik_Tot_Q>
1

> <i_epik_Tot_abs_Q>
1

$$$$
