4gj8_ligand
                    3D
 Schrodinger Suite 2020-3.
 47 50  0  0  1  0            999 V2000
    9.1300   21.8530   48.4480 C   0  0  0  0  0  0
   10.3500   22.2870   47.5950 C   0  0  0  0  0  0
    8.7730   20.4970   48.6270 C   0  0  0  0  0  0
    8.3100   22.8260   49.0560 C   0  0  0  0  0  0
   11.5440   21.3230   47.6850 C   0  0  0  0  0  0
    9.9010   22.3930   46.1170 C   0  0  0  0  0  0
    9.7280   19.2100   47.8990 S   0  0  0  0  0  0
    7.6330   20.1230   49.3730 C   0  0  0  0  0  0
    7.1680   22.4600   49.7910 C   0  0  0  0  0  0
   11.3500   19.9280   47.8210 C   0  0  0  0  0  0
   12.8450   21.8440   47.6000 C   0  0  0  0  0  0
   10.7110   23.4420   45.3220 C   0  0  1  0  0  0
    6.8140   21.1090   49.9440 C   0  0  0  0  0  0
   12.4480   19.0650   47.8860 C   0  0  0  0  0  0
   13.9430   20.9830   47.6840 C   0  0  0  0  0  0
   11.5810   22.7280   44.2490 C   0  0  0  0  0  0
    9.7650   24.3330   44.7120 O   0  0  0  0  0  0
   13.7520   19.5960   47.8230 C   0  0  0  0  0  0
   11.8170   23.5480   43.0350 N   0  3  0  0  0  0
   13.1790   24.0560   42.7780 C   0  0  0  0  0  0
   11.2810   23.1100   41.7390 C   0  0  0  0  0  0
   13.1270   24.5670   41.3210 C   0  0  0  0  0  0
   11.6570   24.3390   40.8910 C   0  0  0  0  0  0
   10.7038   23.2493   47.9935 H   0  0  0  0  0  0
    8.5658   23.8807   48.9545 H   0  0  0  0  0  0
   10.0337   21.4193   45.6228 H   0  0  0  0  0  0
    8.8409   22.6836   46.0758 H   0  0  0  0  0  0
    7.3897   19.0687   49.5050 H   0  0  0  0  0  0
    6.5504   23.2336   50.2473 H   0  0  0  0  0  0
   12.9982   22.9152   47.4691 H   0  0  0  0  0  0
   11.3489   24.0699   45.9614 H   0  0  0  0  0  0
    5.9171   20.8311   50.4976 H   0  0  0  0  0  0
   12.2968   17.9901   47.9846 H   0  0  0  0  0  0
   14.9538   21.3888   47.6415 H   0  0  0  0  0  0
   12.5644   22.4842   44.6773 H   0  0  0  0  0  0
   11.0810   21.8022   43.9283 H   0  0  0  0  0  0
    9.0738   24.9148   45.3394 H   0  0  0  0  0  0
   14.6138   18.9312   47.8820 H   0  0  0  0  0  0
   11.1761   24.3627   43.4032 H   0  0  0  0  0  0
   13.4098   24.8626   43.4894 H   0  0  0  0  0  0
   13.9047   23.2387   42.9023 H   0  0  0  0  0  0
   11.7784   22.1779   41.4326 H   0  0  0  0  0  0
   10.1988   22.9353   41.8299 H   0  0  0  0  0  0
   13.4043   25.6312   41.2956 H   0  0  0  0  0  0
   13.8318   23.9897   40.7046 H   0  0  0  0  0  0
   11.5472   24.0957   39.8239 H   0  0  0  0  0  0
   10.9925   25.1777   41.1461 H   0  0  0  0  0  0
  1  2  1  0  0  0
  1  3  2  0  0  0
  1  4  1  0  0  0
  2  5  1  0  0  0
  2  6  1  0  0  0
  2 24  1  0  0  0
  3  7  1  0  0  0
  3  8  1  0  0  0
  4  9  2  0  0  0
  4 25  1  0  0  0
  5 10  2  0  0  0
  5 11  1  0  0  0
  6 12  1  0  0  0
  6 26  1  0  0  0
  6 27  1  0  0  0
  7 10  1  0  0  0
  8 13  2  0  0  0
  8 28  1  0  0  0
  9 13  1  0  0  0
  9 29  1  0  0  0
 10 14  1  0  0  0
 11 15  2  0  0  0
 11 30  1  0  0  0
 12 16  1  0  0  0
 12 17  1  0  0  0
 12 31  1  0  0  0
 13 32  1  0  0  0
 14 18  2  0  0  0
 14 33  1  0  0  0
 15 18  1  0  0  0
 15 34  1  0  0  0
 16 19  1  0  0  0
 16 35  1  0  0  0
 16 36  1  0  0  0
 17 37  1  0  0  0
 18 38  1  0  0  0
 19 20  1  0  0  0
 19 21  1  0  0  0
 19 39  1  0  0  0
 20 22  1  0  0  0
 20 40  1  0  0  0
 20 41  1  0  0  0
 21 23  1  0  0  0
 21 42  1  0  0  0
 21 43  1  0  0  0
 22 23  1  0  0  0
 22 44  1  0  0  0
 22 45  1  0  0  0
 23 46  1  0  0  0
 23 47  1  0  0  0
M  CHG  1  19   1
M  END
> <s_m_source_file>
../4gj8_ligand.sdf

> <i_m_source_file_index>
1

> <s_epik_input>
W2NIXTFbY0hdW2NIXVtjSF1jKGMxMilTYzNjKFtjSF1bY0hdW2NIXVtjSF0zKVtDSF0yW0NIMl1bQ0BIXShbT0hdKVtDSDJdW05IK100W0NIMl1bQ0gyXVtDSDJdW0NIMl00

> <s_epik_cmdline>
J2VwaWtfYXBwJywgJy1pbWFlJywgJ2xpZ2FuZF9wcm8ubWFlJywgJy1vbWFlJywgJ2xpZ2FuZF9wcmVwLm1hZScsICctbXMnLCAnMScsICctcGgnLCAnNycsICctcGh0JywgJzAuNScsICctbnQn

> <r_lp_tautomer_probability>
1

> <r_epik_Ionization_Penalty>
  0.0046

> <r_epik_Ionization_Penalty_Charging>
  0.0046

> <r_epik_Ionization_Penalty_Neutral>
  0.0000

> <r_epik_State_Penalty>
 -0.0000

> <r_epik_Charging_Adjusted_Penalty>
0.0045959142937288

> <i_epik_Tot_Q>
1

> <i_epik_Tot_abs_Q>
1

$$$$
