4gj9_ligand
                    3D
 Schrodinger Suite 2020-3.
 43 46  0  0  1  0            999 V2000
   11.7230   20.4640   54.3390 C   0  0  0  0  0  0
   12.9260   20.5830   53.7260 C   0  0  0  0  0  0
   10.9930   19.2150   54.8280 C   0  0  0  0  0  0
   11.0690   21.8160   54.4290 C   0  0  0  0  0  0
   13.9760   19.4860   53.5720 C   0  0  0  0  0  0
   13.2160   22.0400   53.4120 C   0  0  0  0  0  0
   11.3550   17.8900   54.4340 C   0  0  0  0  0  0
    9.8430   19.3780   55.6340 C   0  0  0  0  0  0
   12.1670   22.7820   54.1690 N   0  3  0  0  0  0
   13.6660   18.0950   53.6390 C   0  0  0  0  0  0
   15.3450   19.8670   53.6310 C   0  0  0  0  0  0
   12.4030   17.5900   53.6080 N   0  0  0  0  0  0
   10.5770   16.7750   54.8380 C   0  0  0  0  0  0
    9.0930   18.2630   56.0400 C   0  0  0  0  0  0
   11.7920   24.1510   53.7070 C   0  0  0  0  0  0
   14.7000   17.1430   53.6160 C   0  0  0  0  0  0
   16.3730   18.9090   53.6340 C   0  0  0  0  0  0
    9.4860   16.9620   55.6880 C   0  0  0  0  0  0
   11.2640   25.1320   54.7780 C   0  0  1  0  0  0
   16.0450   17.5430   53.6140 C   0  0  0  0  0  0
   12.2160   25.2150   55.9670 C   0  0  0  0  0  0
   11.1980   26.4280   54.1710 O   0  0  0  0  0  0
   10.2725   21.8890   53.6738 H   0  0  0  0  0  0
   10.6367   21.9482   55.4318 H   0  0  0  0  0  0
   14.2314   22.2930   53.7509 H   0  0  0  0  0  0
   13.1403   22.2033   52.3268 H   0  0  0  0  0  0
    9.5363   20.3774   55.9426 H   0  0  0  0  0  0
   12.5902   23.1204   55.1263 H   0  0  0  0  0  0
   15.6024   20.9253   53.6748 H   0  0  0  0  0  0
   12.2727   16.8570   52.7982 H   0  0  0  0  0  0
   10.8304   15.7751   54.4857 H   0  0  0  0  0  0
    8.1928   18.4094   56.6370 H   0  0  0  0  0  0
   12.6709   24.6419   53.2637 H   0  0  0  0  0  0
   10.9939   24.0779   52.9535 H   0  0  0  0  0  0
   14.4540   16.0812   53.5995 H   0  0  0  0  0  0
   17.4166   19.2232   53.6517 H   0  0  0  0  0  0
    8.9414   16.1016   56.0769 H   0  0  0  0  0  0
   10.2593   24.8492   55.1254 H   0  0  0  0  0  0
   16.8360   16.7933   53.5969 H   0  0  0  0  0  0
   12.2842   24.2298   56.4516 H   0  0  0  0  0  0
   11.8373   25.9534   56.6891 H   0  0  0  0  0  0
   13.2130   25.5216   55.6177 H   0  0  0  0  0  0
   10.5617   26.5903   53.2885 H   0  0  0  0  0  0
  1  2  2  0  0  0
  1  3  1  0  0  0
  1  4  1  0  0  0
  2  5  1  0  0  0
  2  6  1  0  0  0
  3  7  2  0  0  0
  3  8  1  0  0  0
  4  9  1  0  0  0
  4 23  1  0  0  0
  4 24  1  0  0  0
  5 10  2  0  0  0
  5 11  1  0  0  0
  6  9  1  0  0  0
  6 25  1  0  0  0
  6 26  1  0  0  0
  7 12  1  0  0  0
  7 13  1  0  0  0
  8 14  2  0  0  0
  8 27  1  0  0  0
  9 15  1  0  0  0
  9 28  1  0  0  0
 10 12  1  0  0  0
 10 16  1  0  0  0
 11 17  2  0  0  0
 11 29  1  0  0  0
 12 30  1  0  0  0
 13 18  2  0  0  0
 13 31  1  0  0  0
 14 18  1  0  0  0
 14 32  1  0  0  0
 15 19  1  0  0  0
 15 33  1  0  0  0
 15 34  1  0  0  0
 16 20  2  0  0  0
 16 35  1  0  0  0
 17 20  1  0  0  0
 17 36  1  0  0  0
 18 37  1  0  0  0
 19 21  1  0  0  0
 19 22  1  0  0  0
 19 38  1  0  0  0
 20 39  1  0  0  0
 21 40  1  0  0  0
 21 41  1  0  0  0
 21 42  1  0  0  0
 22 43  1  0  0  0
M  CHG  1   9   1
M  END
> <s_m_source_file>
../4gj9_ligand.sdf

> <i_m_source_file_index>
1

> <s_epik_input>
W0NIM11bQ0BASF0oW09IXSlbQ0gyXVtOSCtdKFtDSDJdMSlbQ0gyXUMoPUMxMiljM2MoW2NIXVtjSF1bY0hdW2NIXTMpW05IXWM0YzJbY0hdW2NIXVtjSF1bY0hdNA==

> <s_epik_cmdline>
J2VwaWtfYXBwJywgJy1pbWFlJywgJ2xpZ2FuZF9wcm8ubWFlJywgJy1vbWFlJywgJ2xpZ2FuZF9wcmVwLm1hZScsICctbXMnLCAnMScsICctcGgnLCAnNycsICctcGh0JywgJzAuNScsICctbnQn

> <r_epik_Ionization_Penalty>
  0.1412

> <r_epik_Ionization_Penalty_Charging>
  0.1412

> <r_epik_Ionization_Penalty_Neutral>
  0.0000

> <r_epik_State_Penalty>
  0.1305

> <r_epik_Charging_Adjusted_Penalty>
0.271752929207294

> <i_epik_Tot_Q>
1

> <i_epik_Tot_abs_Q>
1

$$$$
