4gja_ligand
                    3D
 Schrodinger Suite 2020-3.
 66 69  0  0  1  0            999 V2000
   34.7300  104.7370   12.5640 C   0  0  0  0  0  0
   35.3840  105.6830   11.5570 C   0  0  0  0  0  0
   35.5120  107.0540   11.8570 C   0  0  0  0  0  0
   36.1280  107.9190   10.9210 C   0  0  0  0  0  0
   36.6280  107.3860    9.7070 C   0  0  0  0  0  0
   36.4230  106.0560    9.3700 C   0  0  0  0  0  0
   35.7900  105.2200   10.2920 C   0  0  0  0  0  0
   37.3540  108.3720    8.4270 S   0  0  0  0  0  0
   37.7880  107.4810    7.3450 O   0  0  0  0  0  0
   36.4240  109.4520    8.1170 O   0  0  0  0  0  0
   38.6350  109.0120    9.2260 N   0  0  3  0  0  0
   40.0220  108.6900    8.9140 C   0  0  1  0  0  0
   40.8810  109.9810    8.9260 C   0  0  0  0  0  0
   42.2920  109.6060    8.6870 N   0  3  0  0  0  0
   42.8670  108.6870    9.7000 C   0  0  0  0  0  0
   42.0720  107.3410    9.7220 C   0  0  2  0  0  0
   40.5550  107.6410    9.9330 C   0  0  0  0  0  0
   42.6830  106.4140   10.7580 C   0  0  0  0  0  0
   42.0540  106.1440   11.7700 O   0  0  0  0  0  0
   43.9270  105.9210   10.5060 N   0  0  0  0  0  0
   44.6660  105.0450   11.4260 C   0  0  0  0  0  0
   45.8450  105.8360   12.0690 C   0  0  0  0  0  0
   45.4700  107.2540   12.5160 C   0  0  0  0  0  0
   46.0100  108.3550   11.8040 C   0  0  0  0  0  0
   45.6340  109.6670   12.1260 C   0  0  0  0  0  0
   44.6770  109.8640   13.1390 C   0  0  0  0  0  0
   44.1450  108.7710   13.8720 C   0  0  0  0  0  0
   44.5190  107.4630   13.5390 C   0  0  0  0  0  0
   46.7530  105.0630   13.0390 C   0  0  0  0  0  0
   47.8680  104.3430   12.5540 C   0  0  0  0  0  0
   48.6960  103.6210   13.4370 C   0  0  0  0  0  0
   48.4160  103.6130   14.8180 C   0  0  0  0  0  0
   47.3220  104.3420   15.3170 C   0  0  0  0  0  0
   46.4850  105.0490   14.4250 C   0  0  0  0  0  0
   34.4893  105.2901   13.4838 H   0  0  0  0  0  0
   35.4236  103.9166   12.8004 H   0  0  0  0  0  0
   33.8065  104.3235   12.1324 H   0  0  0  0  0  0
   35.1392  107.4457   12.8034 H   0  0  0  0  0  0
   36.2168  108.9847   11.1321 H   0  0  0  0  0  0
   36.7498  105.6710    8.4040 H   0  0  0  0  0  0
   35.6053  104.1797   10.0242 H   0  0  0  0  0  0
   38.3942  109.5851   10.1335 H   0  0  0  0  0  0
   40.0182  108.2641    7.8998 H   0  0  0  0  0  0
   40.5330  110.6603    8.1339 H   0  0  0  0  0  0
   40.7840  110.4769    9.9031 H   0  0  0  0  0  0
   42.3773  109.1010    7.7135 H   0  0  0  0  0  0
   42.9170  110.5112    8.6865 H   0  0  0  0  0  0
   43.9185  108.4798    9.4522 H   0  0  0  0  0  0
   42.8099  109.1548   10.6939 H   0  0  0  0  0  0
   42.1577  106.7859    8.7762 H   0  0  0  0  0  0
   40.4188  108.0215   10.9561 H   0  0  0  0  0  0
   39.9986  106.6995    9.8149 H   0  0  0  0  0  0
   44.3771  106.2159    9.5466 H   0  0  0  0  0  0
   43.9894  104.6905   12.2176 H   0  0  0  0  0  0
   45.0644  104.1829   10.8709 H   0  0  0  0  0  0
   46.5426  105.9937   11.2332 H   0  0  0  0  0  0
   46.7238  108.1799   10.9991 H   0  0  0  0  0  0
   46.0736  110.5162   11.6029 H   0  0  0  0  0  0
   44.3379  110.8750   13.3650 H   0  0  0  0  0  0
   43.4480  108.9490   14.6909 H   0  0  0  0  0  0
   44.0804  106.6146   14.0643 H   0  0  0  0  0  0
   48.0898  104.3460   11.4868 H   0  0  0  0  0  0
   49.5531  103.0687   13.0516 H   0  0  0  0  0  0
   49.0471  103.0420   15.4991 H   0  0  0  0  0  0
   47.1205  104.3616   16.3880 H   0  0  0  0  0  0
   45.6216  105.5904   14.8117 H   0  0  0  0  0  0
  1  2  1  0  0  0
  1 35  1  0  0  0
  1 36  1  0  0  0
  1 37  1  0  0  0
  2  3  2  0  0  0
  2  7  1  0  0  0
  3  4  1  0  0  0
  3 38  1  0  0  0
  4  5  2  0  0  0
  4 39  1  0  0  0
  5  6  1  0  0  0
  5  8  1  0  0  0
  6  7  2  0  0  0
  6 40  1  0  0  0
  7 41  1  0  0  0
  8  9  2  0  0  0
  8 10  2  0  0  0
  8 11  1  0  0  0
 11 12  1  0  0  0
 11 42  1  0  0  0
 12 13  1  0  0  0
 12 17  1  0  0  0
 12 43  1  0  0  0
 13 14  1  0  0  0
 13 44  1  0  0  0
 13 45  1  0  0  0
 14 15  1  0  0  0
 14 46  1  0  0  0
 14 47  1  0  0  0
 15 16  1  0  0  0
 15 48  1  0  0  0
 15 49  1  0  0  0
 16 17  1  0  0  0
 16 18  1  0  0  0
 16 50  1  0  0  0
 17 51  1  0  0  0
 17 52  1  0  0  0
 18 19  2  0  0  0
 18 20  1  0  0  0
 20 21  1  0  0  0
 20 53  1  0  0  0
 21 22  1  0  0  0
 21 54  1  0  0  0
 21 55  1  0  0  0
 22 23  1  0  0  0
 22 29  1  0  0  0
 22 56  1  0  0  0
 23 24  2  0  0  0
 23 28  1  0  0  0
 24 25  1  0  0  0
 24 57  1  0  0  0
 25 26  2  0  0  0
 25 58  1  0  0  0
 26 27  1  0  0  0
 26 59  1  0  0  0
 27 28  2  0  0  0
 27 60  1  0  0  0
 28 61  1  0  0  0
 29 30  2  0  0  0
 29 34  1  0  0  0
 30 31  1  0  0  0
 30 62  1  0  0  0
 31 32  2  0  0  0
 31 63  1  0  0  0
 32 33  1  0  0  0
 32 64  1  0  0  0
 33 34  2  0  0  0
 33 65  1  0  0  0
 34 66  1  0  0  0
M  CHG  1  14   1
M  END
> <s_m_source_file>
../4gja_ligand.sdf

> <i_m_source_file_index>
1

> <s_epik_input>
W0NIM11jMVtjSF1bY0hdYyhbY0hdW2NIXTEpUyg9TykoPU8pW05IXVtDQEhdMltDSDJdW05IMitdW0NIMl1bQ0BIXShbQ0gyXTIpQyg9TylbTkhdW0NIMl1bQ0hdKGMzW2NIXVtjSF1bY0hdW2NIXVtjSF0zKWM0W2NIXVtjSF1bY0hdW2NIXVtjSF00

> <s_epik_cmdline>
J2VwaWtfYXBwJywgJy1pbWFlJywgJ2xpZ2FuZF9wcm8ubWFlJywgJy1vbWFlJywgJ2xpZ2FuZF9wcmVwLm1hZScsICctbXMnLCAnMScsICctcGgnLCAnNycsICctcGh0JywgJzAuNScsICctbnQn

> <r_lp_tautomer_probability>
1

> <r_epik_Ionization_Penalty>
  0.0020

> <r_epik_Ionization_Penalty_Charging>
  0.0017

> <r_epik_Ionization_Penalty_Neutral>
  0.0003

> <r_epik_State_Penalty>
 -0.0000

> <r_epik_Charging_Adjusted_Penalty>
0.00173731351841158

> <i_epik_Tot_Q>
1

> <i_epik_Tot_abs_Q>
1

$$$$
