4gjb_ligand
                    3D
 Schrodinger Suite 2020-3.
 47 50  0  0  1  0            999 V2000
    9.1400   22.3740   47.7350 C   0  0  0  0  0  0
    9.4200   20.9800   47.8780 C   0  0  0  0  0  0
   10.5090   20.3730   47.2350 O   0  0  0  0  0  0
    9.9960   23.2340   46.7910 C   0  0  0  0  0  0
    7.2860   22.1470   49.2660 C   0  0  0  0  0  0
    7.5350   20.7700   49.3760 C   0  0  0  0  0  0
    8.6290   20.1850   48.7110 C   0  0  0  0  0  0
    8.0770   22.9650   48.4400 C   0  0  0  0  0  0
   11.4050   22.6210   46.7270 C   0  0  0  0  0  0
   11.5910   21.2200   46.9560 C   0  0  0  0  0  0
   12.8760   20.6570   46.9120 C   0  0  0  0  0  0
   13.9760   21.4940   46.6500 C   0  0  0  0  0  0
   13.7980   22.8750   46.4130 C   0  0  0  0  0  0
   12.5160   23.4470   46.4630 C   0  0  0  0  0  0
    9.3610   23.1950   45.3620 C   0  0  0  0  0  0
    7.9050   23.4540   45.3530 N   0  0  0  0  0  0
    6.9120   22.5350   45.1120 C   0  0  0  0  0  0
    7.1360   21.3570   44.8450 O   0  0  0  0  0  0
    5.4690   23.0120   45.1660 C   0  0  1  0  0  0
    4.4500   21.9050   44.7630 C   0  0  0  0  0  0
    2.9520   22.3190   44.9210 C   0  0  0  0  0  0
    2.6540   22.8670   46.3450 C   0  0  0  0  0  0
    3.6410   23.9100   46.6820 N   0  3  0  0  0  0
    5.0680   23.5070   46.5820 C   0  0  0  0  0  0
   10.0520   24.2666   47.1659 H   0  0  0  0  0  0
    6.4654   22.5898   49.8305 H   0  0  0  0  0  0
    6.8755   20.1484   49.9816 H   0  0  0  0  0  0
    8.8557   19.1272   48.8440 H   0  0  0  0  0  0
    7.8710   24.0314   48.3485 H   0  0  0  0  0  0
   13.0192   19.5893   47.0780 H   0  0  0  0  0  0
   14.9802   21.0706   46.6296 H   0  0  0  0  0  0
   14.6616   23.5014   46.1897 H   0  0  0  0  0  0
   12.3821   24.5163   46.2997 H   0  0  0  0  0  0
    9.8343   23.9604   44.7294 H   0  0  0  0  0  0
    9.5203   22.2018   44.9169 H   0  0  0  0  0  0
    7.5253   24.4668   45.5533 H   0  0  0  0  0  0
    5.4516   23.8374   44.4391 H   0  0  0  0  0  0
    4.5991   21.6364   43.7068 H   0  0  0  0  0  0
    4.6056   21.0166   45.3927 H   0  0  0  0  0  0
    2.7096   23.1045   44.1901 H   0  0  0  0  0  0
    2.3092   21.4438   44.7454 H   0  0  0  0  0  0
    1.6416   23.2966   46.3681 H   0  0  0  0  0  0
    2.7210   22.0468   47.0750 H   0  0  0  0  0  0
    3.5154   24.7666   46.0034 H   0  0  0  0  0  0
    3.4868   24.2391   47.7202 H   0  0  0  0  0  0
    5.2369   22.7026   47.3131 H   0  0  0  0  0  0
    5.6786   24.3814   46.8513 H   0  0  0  0  0  0
  1  2  2  0  0  0
  1  4  1  0  0  0
  1  8  1  0  0  0
  2  3  1  0  0  0
  2  7  1  0  0  0
  3 10  1  0  0  0
  4  9  1  0  0  0
  4 15  1  0  0  0
  4 25  1  0  0  0
  5  6  1  0  0  0
  5  8  2  0  0  0
  5 26  1  0  0  0
  6  7  2  0  0  0
  6 27  1  0  0  0
  7 28  1  0  0  0
  8 29  1  0  0  0
  9 10  2  0  0  0
  9 14  1  0  0  0
 10 11  1  0  0  0
 11 12  2  0  0  0
 11 30  1  0  0  0
 12 13  1  0  0  0
 12 31  1  0  0  0
 13 14  2  0  0  0
 13 32  1  0  0  0
 14 33  1  0  0  0
 15 16  1  0  0  0
 15 34  1  0  0  0
 15 35  1  0  0  0
 16 17  1  0  0  0
 16 36  1  0  0  0
 17 18  2  0  0  0
 17 19  1  0  0  0
 19 20  1  0  0  0
 19 24  1  0  0  0
 19 37  1  0  0  0
 20 21  1  0  0  0
 20 38  1  0  0  0
 20 39  1  0  0  0
 21 22  1  0  0  0
 21 40  1  0  0  0
 21 41  1  0  0  0
 22 23  1  0  0  0
 22 42  1  0  0  0
 22 43  1  0  0  0
 23 24  1  0  0  0
 23 44  1  0  0  0
 23 45  1  0  0  0
 24 46  1  0  0  0
 24 47  1  0  0  0
M  CHG  1  23   1
M  END
> <s_m_source_file>
../4gjb_ligand.sdf

> <i_m_source_file_index>
1

> <s_epik_input>
W2NIXTFbY0hdW2NIXVtjSF1jKGMxMilPYzNjKFtjSF1bY0hdW2NIXVtjSF0zKVtDSF0yW0NIMl1bTkhdQyg9TylbQ0BIXTRbQ0gyXVtDSDJdW0NIMl1bTkgyK11bQ0gyXTQ=

> <s_epik_cmdline>
J2VwaWtfYXBwJywgJy1pbWFlJywgJ2xpZ2FuZF9wcm8ubWFlJywgJy1vbWFlJywgJ2xpZ2FuZF9wcmVwLm1hZScsICctbXMnLCAnMScsICctcGgnLCAnNycsICctcGh0JywgJzAuNScsICctbnQn

> <r_lp_tautomer_probability>
1

> <r_epik_Ionization_Penalty>
  0.0002

> <r_epik_Ionization_Penalty_Charging>
  0.0002

> <r_epik_Ionization_Penalty_Neutral>
  0.0000

> <r_epik_State_Penalty>
 -0.0000

> <r_epik_Charging_Adjusted_Penalty>
0.000179895239073733

> <i_epik_Tot_Q>
1

> <i_epik_Tot_abs_Q>
1

$$$$
