4gjc_ligand
                    3D
 Schrodinger Suite 2020-3.
 65 69  0  0  1  0            999 V2000
   71.0440   10.9620   47.4870 C   0  0  0  0  0  0
   71.0740    9.9860   50.2050 O   0  0  0  0  0  0
   69.7930   10.3490   48.1470 C   0  0  0  0  0  0
   71.9260   11.6100   48.5760 C   0  0  0  0  0  0
   69.8870    9.8560   49.4720 C   0  0  0  0  0  0
   71.9090   11.0780   49.8940 C   0  0  0  0  0  0
   71.8440    9.8140   46.7820 C   0  0  0  0  0  0
   72.7590   12.7190   48.3100 C   0  0  0  0  0  0
   68.5810   10.2640   47.4280 C   0  0  0  0  0  0
   68.7720    9.2870   50.0940 C   0  0  0  0  0  0
   72.7020   11.6650   50.9170 C   0  0  0  0  0  0
   67.4730    9.6570   48.0220 C   0  0  0  0  0  0
   73.5540   13.2890   49.3460 C   0  0  0  0  0  0
   67.5790    9.1940   49.3570 C   0  0  0  0  0  0
   73.5390   12.7620   50.6540 C   0  0  0  0  0  0
   71.0070    8.9470   45.9190 N   0  0  0  0  0  0
   70.6180    7.6630   46.2050 C   0  0  0  0  0  0
   69.6990    6.9480   45.2180 C   0  0  1  0  0  0
   69.3530    5.4790   45.6260 C   0  0  0  0  0  0
   67.1440    5.6380   44.3160 C   0  0  0  0  0  0
   67.5050    7.0250   43.9390 N   0  3  0  0  0  0
   68.4520    4.8290   44.5390 C   0  0  2  0  0  0
   68.3800    7.7430   44.9100 C   0  0  0  0  0  0
   70.9690    7.0630   47.2170 O   0  0  0  0  0  0
   68.1680    3.4400   44.8630 N   0  0  3  0  0  0
   68.7470    2.1630   44.0140 S   0  0  0  0  0  0
   67.6210    1.3080   43.6360 O   0  0  0  0  0  0
   69.6140    2.6260   42.9410 O   0  0  0  0  0  0
   69.7360    1.3900   45.2780 C   0  0  0  0  0  0
   69.1400    0.9430   46.4760 C   0  0  0  0  0  0
   71.3040    0.1210   47.2610 C   0  0  0  0  0  0
   71.8940    0.5550   46.0570 C   0  0  0  0  0  0
   69.9210    0.3110   47.4670 C   0  0  0  0  0  0
   71.1190    1.1910   45.0730 C   0  0  0  0  0  0
   72.1550   -0.5640   48.3420 C   0  0  0  0  0  0
   70.7450   11.7341   46.7628 H   0  0  0  0  0  0
   72.6277   10.2506   46.1454 H   0  0  0  0  0  0
   72.3071    9.1688   47.5431 H   0  0  0  0  0  0
   72.7940   13.1415   47.3058 H   0  0  0  0  0  0
   68.5110   10.6686   46.4183 H   0  0  0  0  0  0
   68.8263    8.9259   51.1210 H   0  0  0  0  0  0
   72.6598   11.2556   51.9263 H   0  0  0  0  0  0
   66.5415    9.5411   47.4679 H   0  0  0  0  0  0
   74.1858   14.1488   49.1233 H   0  0  0  0  0  0
   66.7032    8.7494   49.8296 H   0  0  0  0  0  0
   74.1597   13.1939   51.4391 H   0  0  0  0  0  0
   70.6406    9.3227   44.9523 H   0  0  0  0  0  0
   70.3211    6.9138   44.3115 H   0  0  0  0  0  0
   70.2815    4.8974   45.7242 H   0  0  0  0  0  0
   68.8186    5.4817   46.5874 H   0  0  0  0  0  0
   66.5500    5.6525   45.2417 H   0  0  0  0  0  0
   66.5535    5.1804   43.5086 H   0  0  0  0  0  0
   68.0448    7.0158   42.9806 H   0  0  0  0  0  0
   66.5902    7.6277   43.8388 H   0  0  0  0  0  0
   69.0043    4.7730   43.5894 H   0  0  0  0  0  0
   67.8123    7.8862   45.8412 H   0  0  0  0  0  0
   68.6345    8.7235   44.4812 H   0  0  0  0  0  0
   67.6704    3.1870   45.8108 H   0  0  0  0  0  0
   68.0715    1.0864   46.6369 H   0  0  0  0  0  0
   72.9590    0.3961   45.8881 H   0  0  0  0  0  0
   69.4559   -0.0305   48.3917 H   0  0  0  0  0  0
   71.5862    1.5317   44.1490 H   0  0  0  0  0  0
   73.2001   -0.6218   48.0039 H   0  0  0  0  0  0
   71.7712   -1.5790   48.5222 H   0  0  0  0  0  0
   72.1027    0.0185   49.2736 H   0  0  0  0  0  0
  1  3  1  0  0  0
  1  4  1  0  0  0
  1  7  1  0  0  0
  1 36  1  0  0  0
  2  5  1  0  0  0
  2  6  1  0  0  0
  3  5  2  0  0  0
  3  9  1  0  0  0
  4  6  2  0  0  0
  4  8  1  0  0  0
  5 10  1  0  0  0
  6 11  1  0  0  0
  7 16  1  0  0  0
  7 37  1  0  0  0
  7 38  1  0  0  0
  8 13  2  0  0  0
  8 39  1  0  0  0
  9 12  2  0  0  0
  9 40  1  0  0  0
 10 14  2  0  0  0
 10 41  1  0  0  0
 11 15  2  0  0  0
 11 42  1  0  0  0
 12 14  1  0  0  0
 12 43  1  0  0  0
 13 15  1  0  0  0
 13 44  1  0  0  0
 14 45  1  0  0  0
 15 46  1  0  0  0
 16 17  1  0  0  0
 16 47  1  0  0  0
 17 18  1  0  0  0
 17 24  2  0  0  0
 18 19  1  0  0  0
 18 23  1  0  0  0
 18 48  1  0  0  0
 19 22  1  0  0  0
 19 49  1  0  0  0
 19 50  1  0  0  0
 20 21  1  0  0  0
 20 22  1  0  0  0
 20 51  1  0  0  0
 20 52  1  0  0  0
 21 23  1  0  0  0
 21 53  1  0  0  0
 21 54  1  0  0  0
 22 25  1  0  0  0
 22 55  1  0  0  0
 23 56  1  0  0  0
 23 57  1  0  0  0
 25 26  1  0  0  0
 25 58  1  0  0  0
 26 27  2  0  0  0
 26 28  2  0  0  0
 26 29  1  0  0  0
 29 30  2  0  0  0
 29 34  1  0  0  0
 30 33  1  0  0  0
 30 59  1  0  0  0
 31 32  1  0  0  0
 31 33  2  0  0  0
 31 35  1  0  0  0
 32 34  2  0  0  0
 32 60  1  0  0  0
 33 61  1  0  0  0
 34 62  1  0  0  0
 35 63  1  0  0  0
 35 64  1  0  0  0
 35 65  1  0  0  0
M  CHG  1  21   1
M  END
> <s_m_source_file>
../4gjc_ligand.sdf

> <i_m_source_file_index>
1

> <s_epik_input>
W2NIXTFbY0hdW2NIXVtjSF1jKGMxMilPYzNjKFtjSF1bY0hdW2NIXVtjSF0zKVtDSF0yW0NIMl1bTkhdQyg9TylbQ0BIXTRbQ0gyXVtDQEhdKFtDSDJdW05IMitdW0NIMl00KVtOSF1TKD1PKSg9TyljNVtjSF1bY0hdYyhbQ0gzXSlbY0hdW2NIXTU=

> <s_epik_cmdline>
J2VwaWtfYXBwJywgJy1pbWFlJywgJ2xpZ2FuZF9wcm8ubWFlJywgJy1vbWFlJywgJ2xpZ2FuZF9wcmVwLm1hZScsICctbXMnLCAnMScsICctcGgnLCAnNycsICctcGh0JywgJzAuNScsICctbnQn

> <r_lp_tautomer_probability>
1

> <r_epik_Ionization_Penalty>
  0.0020

> <r_epik_Ionization_Penalty_Charging>
  0.0017

> <r_epik_Ionization_Penalty_Neutral>
  0.0003

> <r_epik_State_Penalty>
 -0.0000

> <r_epik_Charging_Adjusted_Penalty>
0.00173731351841158

> <i_epik_Tot_Q>
1

> <i_epik_Tot_abs_Q>
1

$$$$
