4gjd_ligand
                    3D
 Schrodinger Suite 2020-3.
 81 85  0  0  1  0            999 V2000
   40.9910  110.2090    9.0280 C   0  0  0  0  0  0
   40.1830  108.8930    9.0120 C   0  0  1  0  0  0
   40.7940  107.8390    9.9820 C   0  0  0  0  0  0
   42.3240  107.5820    9.7560 C   0  0  1  0  0  0
   43.0570  108.9440    9.6250 C   0  0  0  0  0  0
   42.3850  109.8820    8.6900 N   0  3  0  0  0  0
   38.7770  109.1170    9.3200 N   0  0  3  0  0  0
   43.0040  106.7930   10.8690 C   0  0  0  0  0  0
   37.5740  108.3940    8.4720 S   0  0  0  0  0  0
   36.8920  107.3300    9.7180 C   0  0  0  0  0  0
   36.6440  109.4570    8.1320 O   0  0  0  0  0  0
   38.1040  107.5490    7.4050 O   0  0  0  0  0  0
   36.4230  107.9050   10.9230 C   0  0  0  0  0  0
   35.8610  107.0850   11.9250 C   0  0  0  0  0  0
   35.7670  105.6950   11.7310 C   0  0  0  0  0  0
   36.2190  105.1200   10.5170 C   0  0  0  0  0  0
   36.7990  105.9300    9.5180 C   0  0  0  0  0  0
   35.1530  104.8210   12.8370 C   0  0  0  0  0  0
   42.5000  106.7900   11.9770 O   0  0  0  0  0  0
   44.1710  106.1310   10.6000 N   0  0  0  0  0  0
   44.9680  105.3800   11.5890 C   0  0  0  0  0  0
   46.2240  106.1460   12.1570 C   0  0  0  0  0  0
   45.2210  106.4820   14.8100 O   0  0  0  0  0  0
   45.7300  107.5380   12.6790 C   0  0  0  0  0  0
   45.1890  107.6050   13.9830 C   0  0  0  0  0  0
   44.6520  108.8030   14.4890 C   0  0  0  0  0  0
   44.6020  109.9520   13.6760 C   0  0  0  0  0  0
   45.1210  109.9280   12.3730 C   0  0  0  0  0  0
   45.6760  108.7310   11.8950 C   0  0  0  0  0  0
   46.2040  105.5080   14.6370 C   0  0  0  0  0  0
   46.7410  105.2750   13.3530 C   0  0  0  0  0  0
   47.7370  104.2530   13.2560 C   0  0  0  0  0  0
   48.1680  103.5020   14.3850 C   0  0  0  0  0  0
   47.6400  103.7820   15.6570 C   0  0  0  0  0  0
   46.6610  104.7930   15.7670 C   0  0  0  0  0  0
   47.3030  106.2690   11.0210 C   0  0  0  0  0  0
   48.5920  107.1100   11.2640 C   0  0  0  0  0  0
   49.6330  106.9050   10.1290 C   0  0  0  0  0  0
   49.3140  107.7570    8.8730 C   0  0  0  0  0  0
   50.4640  107.7690    8.0010 O   0  0  0  0  0  0
   50.1480  107.4150    6.6490 C   0  0  0  0  0  0
   40.5712  110.9060    8.2877 H   0  0  0  0  0  0
   40.9361  110.6609   10.0294 H   0  0  0  0  0  0
   40.1727  108.5063    7.9823 H   0  0  0  0  0  0
   40.6706  108.1811   11.0201 H   0  0  0  0  0  0
   40.2785  106.8764    9.8494 H   0  0  0  0  0  0
   42.4115  106.9610    8.8523 H   0  0  0  0  0  0
   43.1026  109.4320   10.6098 H   0  0  0  0  0  0
   44.0779  108.7765    9.2512 H   0  0  0  0  0  0
   42.4209  109.4133    7.6955 H   0  0  0  0  0  0
   42.9864  110.8030    8.6832 H   0  0  0  0  0  0
   38.4936  109.6524   10.2382 H   0  0  0  0  0  0
   36.4958  108.9815   11.0774 H   0  0  0  0  0  0
   35.4988  107.5301   12.8517 H   0  0  0  0  0  0
   36.1180  104.0469   10.3544 H   0  0  0  0  0  0
   37.1734  105.4817    8.5977 H   0  0  0  0  0  0
   34.8687  105.4549   13.6898 H   0  0  0  0  0  0
   35.8902  104.0736   13.1653 H   0  0  0  0  0  0
   34.2608  104.3093   12.4470 H   0  0  0  0  0  0
   44.5053  106.1884    9.5536 H   0  0  0  0  0  0
   44.3364  105.1281   12.4537 H   0  0  0  0  0  0
   45.3459  104.4550   11.1291 H   0  0  0  0  0  0
   44.2745  108.8419   15.5108 H   0  0  0  0  0  0
   44.1559  110.8682   14.0628 H   0  0  0  0  0  0
   45.0938  110.8191   11.7459 H   0  0  0  0  0  0
   46.0826  108.7107   10.8839 H   0  0  0  0  0  0
   48.1813  104.0422   12.2833 H   0  0  0  0  0  0
   48.9071  102.7101   14.2635 H   0  0  0  0  0  0
   47.9777  103.2327   16.5358 H   0  0  0  0  0  0
   46.2474  105.0279   16.7477 H   0  0  0  0  0  0
   47.6810  105.2683   10.7644 H   0  0  0  0  0  0
   46.8478  106.7283   10.1311 H   0  0  0  0  0  0
   48.3307  108.1777   11.3059 H   0  0  0  0  0  0
   49.0530  106.8077   12.2159 H   0  0  0  0  0  0
   50.6311  107.1934   10.4904 H   0  0  0  0  0  0
   49.6437  105.8471    9.8279 H   0  0  0  0  0  0
   48.4542  107.3212    8.3430 H   0  0  0  0  0  0
   49.0730  108.7857    9.1792 H   0  0  0  0  0  0
   51.0631  107.4431    6.0392 H   0  0  0  0  0  0
   49.4158  108.1293    6.2445 H   0  0  0  0  0  0
   49.7226  106.4009    6.6254 H   0  0  0  0  0  0
  1  2  1  0  0  0
  1  6  1  0  0  0
  1 42  1  0  0  0
  1 43  1  0  0  0
  2  3  1  0  0  0
  2  7  1  0  0  0
  2 44  1  0  0  0
  3  4  1  0  0  0
  3 45  1  0  0  0
  3 46  1  0  0  0
  4  5  1  0  0  0
  4  8  1  0  0  0
  4 47  1  0  0  0
  5  6  1  0  0  0
  5 48  1  0  0  0
  5 49  1  0  0  0
  6 50  1  0  0  0
  6 51  1  0  0  0
  7  9  1  0  0  0
  7 52  1  0  0  0
  8 19  2  0  0  0
  8 20  1  0  0  0
  9 10  1  0  0  0
  9 11  2  0  0  0
  9 12  2  0  0  0
 10 13  2  0  0  0
 10 17  1  0  0  0
 13 14  1  0  0  0
 13 53  1  0  0  0
 14 15  2  0  0  0
 14 54  1  0  0  0
 15 16  1  0  0  0
 15 18  1  0  0  0
 16 17  2  0  0  0
 16 55  1  0  0  0
 17 56  1  0  0  0
 18 57  1  0  0  0
 18 58  1  0  0  0
 18 59  1  0  0  0
 20 21  1  0  0  0
 20 60  1  0  0  0
 21 22  1  0  0  0
 21 61  1  0  0  0
 21 62  1  0  0  0
 22 24  1  0  0  0
 22 31  1  0  0  0
 22 36  1  0  0  0
 23 25  1  0  0  0
 23 30  1  0  0  0
 24 25  2  0  0  0
 24 29  1  0  0  0
 25 26  1  0  0  0
 26 27  2  0  0  0
 26 63  1  0  0  0
 27 28  1  0  0  0
 27 64  1  0  0  0
 28 29  2  0  0  0
 28 65  1  0  0  0
 29 66  1  0  0  0
 30 31  2  0  0  0
 30 35  1  0  0  0
 31 32  1  0  0  0
 32 33  2  0  0  0
 32 67  1  0  0  0
 33 34  1  0  0  0
 33 68  1  0  0  0
 34 35  2  0  0  0
 34 69  1  0  0  0
 35 70  1  0  0  0
 36 37  1  0  0  0
 36 71  1  0  0  0
 36 72  1  0  0  0
 37 38  1  0  0  0
 37 73  1  0  0  0
 37 74  1  0  0  0
 38 39  1  0  0  0
 38 75  1  0  0  0
 38 76  1  0  0  0
 39 40  1  0  0  0
 39 77  1  0  0  0
 39 78  1  0  0  0
 40 41  1  0  0  0
 41 79  1  0  0  0
 41 80  1  0  0  0
 41 81  1  0  0  0
M  CHG  1   6   1
M  END
> <s_m_source_file>
../4gjd_ligand.sdf

> <i_m_source_file_index>
1

> <s_epik_input>
W2NIXTFbY0hdYyhbQ0gzXSlbY0hdW2NIXWMxUyg9TykoPU8pW05IXVtDQEhdMltDSDJdW05IMitdW0NIMl1bQ0BIXShbQ0gyXTIpQyg9TylbTkhdW0NIMl1DMyhbQ0gyXVtDSDJdW0NIMl1bQ0gyXU9bQ0gzXSljKFtjSF1bY0hdW2NIXVtjSF00KWM0T2MoYzM1KVtjSF1bY0hdW2NIXVtjSF01

> <s_epik_cmdline>
J2VwaWtfYXBwJywgJy1pbWFlJywgJ2xpZ2FuZF9wcm8ubWFlJywgJy1vbWFlJywgJ2xpZ2FuZF9wcmVwLm1hZScsICctbXMnLCAnMScsICctcGgnLCAnNycsICctcGh0JywgJzAuNScsICctbnQn

> <r_lp_tautomer_probability>
1

> <r_epik_Ionization_Penalty>
  0.0020

> <r_epik_Ionization_Penalty_Charging>
  0.0017

> <r_epik_Ionization_Penalty_Neutral>
  0.0003

> <r_epik_State_Penalty>
 -0.0000

> <r_epik_Charging_Adjusted_Penalty>
0.00172814313507953

> <i_epik_Tot_Q>
1

> <i_epik_Tot_abs_Q>
1

$$$$
