4gk3_ligand
                    3D
 Schrodinger Suite 2020-3.
 47 50  0  0  1  0            999 V2000
   18.7420  -16.5270   24.5080 O   0  0  0  0  0  0
   19.0740  -15.3150   24.4500 C   0  0  0  0  0  0
   19.2540  -14.6030   25.6000 N   0  0  0  0  0  0
   19.2490  -14.7430   23.2490 N   0  0  0  0  0  0
   19.0580  -15.5040   22.0050 C   0  0  0  0  0  0
   19.6030  -13.4580   23.1880 C   0  0  0  0  0  0
   19.7960  -12.6890   24.3390 C   0  0  0  0  0  0
   19.6110  -13.2910   25.5860 C   0  0  0  0  0  0
   19.7550  -12.6890   26.6630 O   0  0  0  0  0  0
   19.8270  -12.7150   22.0430 N   0  0  0  0  0  0
   20.1660  -11.4750   22.5910 C   0  0  0  0  0  0
   20.1630  -11.4260   23.9250 N   0  3  0  0  0  0
   20.4890  -10.2360   22.0960 N   0  0  0  0  0  0
   20.5730  -10.0790   20.6410 C   0  0  0  0  0  0
   19.1900  -10.2260   20.0040 C   0  0  0  0  0  0
   18.1610   -9.2710   20.6060 C   0  0  0  0  0  0
   16.7920   -9.5260   20.0090 C   0  0  0  0  0  0
   20.7130   -9.4300   23.1730 C   0  0  3  0  0  0
   20.4880  -10.1510   24.3910 C   0  0  0  0  0  0
   21.1180   -8.0070   22.9460 C   0  0  0  0  0  0
   22.3610   -7.5320   23.3670 C   0  0  0  0  0  0
   23.3280   -8.4150   24.1240 C   0  0  0  0  0  0
   22.7280   -6.2110   23.1080 C   0  0  0  0  0  0
   21.8570   -5.3690   22.4210 C   0  0  0  0  0  0
   20.6230   -5.8510   21.9860 C   0  0  0  0  0  0
   20.2560   -7.1670   22.2450 C   0  0  0  0  0  0
   19.1102  -15.0893   26.5762 H   0  0  0  0  0  0
   18.7704  -16.5376   22.2480 H   0  0  0  0  0  0
   19.9963  -15.5097   21.4310 H   0  0  0  0  0  0
   18.2644  -15.0338   21.4057 H   0  0  0  0  0  0
   20.9716   -9.0819   20.4022 H   0  0  0  0  0  0
   21.2402  -10.8494   20.2270 H   0  0  0  0  0  0
   19.2580  -10.0136   18.9269 H   0  0  0  0  0  0
   18.8250  -11.2529   20.1529 H   0  0  0  0  0  0
   18.1116   -9.4238   21.6942 H   0  0  0  0  0  0
   18.4565   -8.2328   20.3945 H   0  0  0  0  0  0
   16.0635   -8.8312   20.4523 H   0  0  0  0  0  0
   16.4869  -10.5614   20.2205 H   0  0  0  0  0  0
   16.8318   -9.3705   18.9208 H   0  0  0  0  0  0
   20.5112   -9.9500   25.4722 H   0  0  0  0  0  0
   22.8917   -9.4175   24.2446 H   0  0  0  0  0  0
   23.5242   -7.9789   25.1146 H   0  0  0  0  0  0
   24.2713   -8.4907   23.5633 H   0  0  0  0  0  0
   23.6959   -5.8382   23.4432 H   0  0  0  0  0  0
   22.1395   -4.3349   22.2237 H   0  0  0  0  0  0
   19.9443   -5.1945   21.4415 H   0  0  0  0  0  0
   19.2926   -7.5416   21.8990 H   0  0  0  0  0  0
  1  2  2  0  0  0
  2  3  1  0  0  0
  2  4  1  0  0  0
  3  8  1  0  0  0
  3 27  1  0  0  0
  4  5  1  0  0  0
  4  6  1  0  0  0
  5 28  1  0  0  0
  5 29  1  0  0  0
  5 30  1  0  0  0
  6  7  2  0  0  0
  6 10  1  0  0  0
  7  8  1  0  0  0
  7 12  1  0  0  0
  8  9  2  0  0  0
 10 11  2  0  0  0
 11 12  1  0  0  0
 11 13  1  0  0  0
 12 19  2  0  0  0
 13 14  1  0  0  0
 13 18  1  0  0  0
 14 15  1  0  0  0
 14 31  1  0  0  0
 14 32  1  0  0  0
 15 16  1  0  0  0
 15 33  1  0  0  0
 15 34  1  0  0  0
 16 17  1  0  0  0
 16 35  1  0  0  0
 16 36  1  0  0  0
 17 37  1  0  0  0
 17 38  1  0  0  0
 17 39  1  0  0  0
 18 19  1  0  0  0
 18 20  1  0  0  0
 19 40  1  0  0  0
 20 21  2  0  0  0
 20 26  1  0  0  0
 21 22  1  0  0  0
 21 23  1  0  0  0
 22 41  1  0  0  0
 22 42  1  0  0  0
 22 43  1  0  0  0
 23 24  2  0  0  0
 23 44  1  0  0  0
 24 25  1  0  0  0
 24 45  1  0  0  0
 25 26  2  0  0  0
 25 46  1  0  0  0
 26 47  1  0  0  0
M  CHG  1  12   1
M  END
> <s_m_source_file>
../4gk3_ligand.sdf

> <i_m_source_file_index>
1

> <s_epik_input>
W0NIM11uMWMoPU8pW25IXWMoPU8pYyhjMTIpW04rXT0zQyg9TjIpTihbQ0gyXVtDSDJdW0NIMl1bQ0gzXSlbQ0hdKFtDSF0zKWM0YyhbQ0gzXSlbY0hdW2NIXVtjSF1bY0hdNA==

> <s_epik_cmdline>
J2VwaWtfYXBwJywgJy1pbWFlJywgJ2xpZ2FuZF9wcm8ubWFlJywgJy1vbWFlJywgJ2xpZ2FuZF9wcmVwLm1hZScsICctbXMnLCAnMScsICctcGgnLCAnNycsICctcGh0JywgJzAuNScsICctbnQn

> <r_epik_Ionization_Penalty>
  0.0867

> <r_epik_Ionization_Penalty_Charging>
  0.0867

> <r_epik_Ionization_Penalty_Neutral>
  0.0000

> <r_epik_State_Penalty>
  0.0773

> <r_epik_Charging_Adjusted_Penalty>
0.164003433709206

> <i_epik_Tot_Q>
1

> <i_epik_Tot_abs_Q>
1

> <s_epik_Chemistry_Notes>
This compound has an imine and may undergo hydrolysis.

$$$$
