4gk4_ligand
                    3D
 Schrodinger Suite 2020-3.
 48 52  0  0  1  0            999 V2000
   -8.5980    5.3350   47.5880 O   0  5  0  0  0  0
   -8.4230    4.5950   48.5760 C   0  0  0  0  0  0
   -8.0360    3.3070   48.4240 N   0  0  0  0  0  0
   -8.6210    5.0460   49.8710 C   0  0  0  0  0  0
   -9.0160    6.2600   50.3720 N   0  3  0  0  0  0
   -9.3800    7.5390   49.9740 C   0  0  0  0  0  0
   -9.6350    8.1870   51.2230 C   0  0  0  0  0  0
   -9.4020    7.3170   52.2550 N   0  0  0  0  0  0
   -9.5140    7.3460   53.7160 C   0  0  0  0  0  0
   -8.3140    7.9750   54.4080 C   0  0  0  0  0  0
   -6.9770    7.4720   53.8850 C   0  0  0  0  0  0
   -5.8830    8.4300   54.3080 C   0  0  0  0  0  0
   -9.0370    6.1170   51.6900 C   0  0  3  0  0  0
   -8.6660    4.8430   52.1400 N   0  0  0  0  0  0
   -8.4140    4.1890   50.9470 C   0  0  0  0  0  0
   -8.0220    2.9260   50.7560 N   0  0  0  0  0  0
   -7.8020    2.0320   51.8990 C   0  0  0  0  0  0
   -7.8310    2.4910   49.4970 C   0  0  0  0  0  0
   -7.4640    1.3070   49.3060 O   0  0  0  0  0  0
  -10.0860    9.5990   51.4430 C   0  0  0  0  0  0
   -9.2390   10.4910   52.1030 C   0  0  0  0  0  0
   -7.9160   10.3030   52.5990 C   0  0  0  0  0  0
   -7.5770   11.5030   53.1270 N   0  0  0  0  0  0
   -8.6430   12.4030   52.9590 N   0  0  0  0  0  0
   -9.6600   11.7890   52.3310 C   0  0  0  0  0  0
  -10.9170   12.2190   51.9340 C   0  0  0  0  0  0
  -11.7640   11.3290   51.2950 C   0  0  0  0  0  0
  -11.3560   10.0220   51.0530 C   0  0  0  0  0  0
  -12.3210    9.1030   50.3460 C   0  0  0  0  0  0
   -9.5005    8.0938   49.0318 H   0  0  0  0  0  0
  -10.4013    7.9288   54.0042 H   0  0  0  0  0  0
   -9.6106    6.3186   54.0968 H   0  0  0  0  0  0
   -8.3354    9.0649   54.2606 H   0  0  0  0  0  0
   -8.3516    7.7498   55.4840 H   0  0  0  0  0  0
   -6.7733    6.4736   54.2994 H   0  0  0  0  0  0
   -7.0114    7.4132   52.7871 H   0  0  0  0  0  0
   -4.9143    8.0696   53.9316 H   0  0  0  0  0  0
   -5.8510    8.4883   55.4060 H   0  0  0  0  0  0
   -6.0891    9.4279   53.8937 H   0  0  0  0  0  0
   -8.0105    2.5735   52.8335 H   0  0  0  0  0  0
   -6.7571    1.6882   51.8998 H   0  0  0  0  0  0
   -8.4735    1.1643   51.8204 H   0  0  0  0  0  0
   -7.2021    9.4667   52.6306 H   0  0  0  0  0  0
  -11.2345   13.2446   52.1225 H   0  0  0  0  0  0
  -12.7639   11.6606   50.9785 H   0  0  0  0  0  0
  -11.8616    8.1107   50.2265 H   0  0  0  0  0  0
  -12.5628    9.5168   49.3559 H   0  0  0  0  0  0
  -13.2422    9.0114   50.9401 H   0  0  0  0  0  0
  1  2  1  0  0  0
  2  3  2  0  0  0
  2  4  1  0  0  0
  3 18  1  0  0  0
  4  5  2  0  0  0
  4 15  1  0  0  0
  5  6  1  0  0  0
  5 13  1  0  0  0
  6  7  2  0  0  0
  6 30  1  0  0  0
  7  8  1  0  0  0
  7 20  1  0  0  0
  8  9  1  0  0  0
  8 13  1  0  0  0
  9 10  1  0  0  0
  9 31  1  0  0  0
  9 32  1  0  0  0
 10 11  1  0  0  0
 10 33  1  0  0  0
 10 34  1  0  0  0
 11 12  1  0  0  0
 11 35  1  0  0  0
 11 36  1  0  0  0
 12 37  1  0  0  0
 12 38  1  0  0  0
 12 39  1  0  0  0
 13 14  1  0  0  0
 14 15  2  0  0  0
 15 16  1  0  0  0
 16 17  1  0  0  0
 16 18  1  0  0  0
 17 40  1  0  0  0
 17 41  1  0  0  0
 17 42  1  0  0  0
 18 19  2  0  0  0
 20 21  2  0  0  0
 20 28  1  0  0  0
 21 22  1  0  0  0
 21 25  1  0  0  0
 22 23  2  0  0  0
 22 43  1  0  0  0
 23 24  1  0  0  0
 24 25  2  0  0  0
 25 26  1  0  0  0
 26 27  1  0  0  0
 26 44  1  0  0  0
 27 28  2  0  0  0
 27 45  1  0  0  0
 28 29  1  0  0  0
 29 46  1  0  0  0
 29 47  1  0  0  0
 29 48  1  0  0  0
M  CHG  2   1  -1   5   1
M  END
> <s_m_source_file>
../4gk4_ligand.sdf

> <i_m_source_file_index>
1

> <s_epik_input>
Tz1jMVtuSF1jKD1PKW4oW0NIM10pYzI9TltDSF0oW04rXTM9YzEyKU4oW0NIMl1bQ0gyXVtDSDJdW0NIM10pQyg9W0NIXTMpQz00QyhbQ0gzXSk9W0NIXVtDSDJdQyhDNDUpPU5OPVtDSF01

> <s_epik_cmdline>
J2VwaWtfYXBwJywgJy1pbWFlJywgJ2xpZ2FuZF9wcm8ubWFlJywgJy1vbWFlJywgJ2xpZ2FuZF9wcmVwLm1hZScsICctbXMnLCAnMScsICctcGgnLCAnNycsICctcGh0JywgJzAuNScsICctbnQn

> <r_lp_tautomer_probability>
1

> <r_epik_Ionization_Penalty>
  0.0000

> <r_epik_Ionization_Penalty_Charging>
  0.0000

> <r_epik_Ionization_Penalty_Neutral>
  0.0000

> <r_epik_State_Penalty>
 -0.0000

> <r_epik_Charging_Adjusted_Penalty>
0

> <i_epik_Tot_Q>
0

> <i_epik_Tot_abs_Q>
2

> <s_epik_Chemistry_Notes>
This compound has an imine and may undergo hydrolysis.

$$$$
