4gk7_ligand
                    3D
 Schrodinger Suite 2020-3.
 86 86  0  0  1  0            999 V2000
   58.9770 -135.4120   35.0170 C   0  0  0  0  0  0
   58.8970 -136.4710   35.6370 O   0  0  0  0  0  0
   57.6730 -134.9890   34.4270 C   0  0  0  0  0  0
   57.0810 -133.7970   34.4180 C   0  0  0  0  0  0
   55.7360 -133.7610   33.7760 C   0  0  0  0  0  0
   54.6090 -133.6400   34.4870 C   0  0  0  0  0  0
   53.2200 -133.6540   33.8520 C   0  0  0  0  0  0
   52.3460 -132.3750   33.9460 C   0  0  0  0  0  0
   50.9610 -132.7160   33.2490 C   0  0  0  0  0  0
   49.8740 -131.6040   33.2550 C   0  0  0  0  0  0
   48.5570 -132.1690   32.5870 C   0  0  0  0  0  0
   47.3930 -131.1070   32.6000 C   0  0  0  0  0  0
   46.0720 -131.6660   31.9720 C   0  0  0  0  0  0
   60.2010 -134.7390   34.8940 N   0  0  0  0  0  0
   61.3710 -135.4170   35.5740 C   0  0  2  0  0  0
   61.1400 -135.4570   37.1050 C   0  0  0  0  0  0
   60.1390 -134.8960   37.5610 O   0  0  0  0  0  0
   62.7750 -134.6760   35.3430 C   0  0  2  0  0  0
   63.1230 -133.7820   36.3970 O   0  0  0  0  0  0
   62.8310 -133.8850   34.0300 C   0  0  0  0  0  0
   62.0330 -136.1040   37.9310 N   0  0  0  0  0  0
   61.7810 -136.0920   39.3770 C   0  0  2  0  0  0
   63.0180 -136.2700   40.2290 C   0  0  0  0  0  0
   64.1100 -136.4860   39.6880 O   0  0  0  0  0  0
   60.7190 -137.1500   39.7720 C   0  0  0  0  0  0
   60.9670 -138.4490   40.0070 C   0  0  0  0  0  0
   59.9170 -139.4470   40.4490 C   0  0  0  0  0  0
   60.4500 -140.2610   41.7080 C   0  0  0  0  0  0
   60.2240 -139.4080   42.9060 N   0  0  0  0  0  0
   62.8020 -136.1800   41.5690 N   0  0  0  0  0  0
   63.8750 -136.3080   42.5570 C   0  0  1  0  0  0
   64.2640 -134.8880   43.0940 C   0  0  0  0  0  0
   63.0530 -133.9140   43.3060 C   0  0  0  0  0  0
   65.2570 -134.2100   42.1000 C   0  0  0  0  0  0
   63.4180 -137.3090   43.6600 C   0  0  0  0  0  0
   62.5740 -138.4030   42.9710 C   0  0  0  0  0  0
   61.1450 -138.5610   43.4710 C   0  0  0  0  0  0
   60.8310 -137.9140   44.4490 O   0  0  0  0  0  0
   57.1861 -135.8486   33.9433 H   0  0  0  0  0  0
   57.5868 -132.9283   34.8647 H   0  0  0  0  0  0
   55.6891 -133.8379   32.6797 H   0  0  0  0  0  0
   54.6579 -133.5240   35.5798 H   0  0  0  0  0  0
   53.3118 -133.8509   32.7737 H   0  0  0  0  0  0
   52.6116 -134.4429   34.3183 H   0  0  0  0  0  0
   52.1970 -132.1096   35.0031 H   0  0  0  0  0  0
   52.8513 -131.5467   33.4277 H   0  0  0  0  0  0
   51.1330 -132.9550   32.1891 H   0  0  0  0  0  0
   50.5015 -133.5808   33.7500 H   0  0  0  0  0  0
   49.6642 -131.3019   34.2917 H   0  0  0  0  0  0
   50.2354 -130.7348   32.6859 H   0  0  0  0  0  0
   48.7641 -132.4419   31.5417 H   0  0  0  0  0  0
   48.2190 -133.0589   33.1382 H   0  0  0  0  0  0
   47.1784 -130.8109   33.6374 H   0  0  0  0  0  0
   47.6974 -130.2222   32.0217 H   0  0  0  0  0  0
   45.2933 -130.8897   32.0047 H   0  0  0  0  0  0
   45.7378 -132.5448   32.5430 H   0  0  0  0  0  0
   46.2569 -131.9561   30.9272 H   0  0  0  0  0  0
   60.3512 -133.7911   34.3565 H   0  0  0  0  0  0
   61.3688 -136.4203   35.1229 H   0  0  0  0  0  0
   63.5747 -135.4309   35.3654 H   0  0  0  0  0  0
   63.1475 -134.1405   37.4367 H   0  0  0  0  0  0
   62.5669 -134.5466   33.1918 H   0  0  0  0  0  0
   63.8479 -133.4928   33.8813 H   0  0  0  0  0  0
   62.1183 -133.0483   34.0753 H   0  0  0  0  0  0
   62.9177 -136.6212   37.5312 H   0  0  0  0  0  0
   61.4289 -135.0629   39.5411 H   0  0  0  0  0  0
   59.6930 -136.7621   39.8552 H   0  0  0  0  0  0
   61.9849 -138.8463   39.8803 H   0  0  0  0  0  0
   58.9955 -138.9125   40.7230 H   0  0  0  0  0  0
   59.7050 -140.1450   39.6257 H   0  0  0  0  0  0
   59.8954 -141.2070   41.7945 H   0  0  0  0  0  0
   61.5214 -140.4745   41.5798 H   0  0  0  0  0  0
   59.2499 -139.4241   43.4168 H   0  0  0  0  0  0
   61.7680 -136.0031   41.8998 H   0  0  0  0  0  0
   64.7567 -136.7307   42.0532 H   0  0  0  0  0  0
   64.7181 -135.0616   44.0807 H   0  0  0  0  0  0
   62.3351 -134.3683   44.0047 H   0  0  0  0  0  0
   62.5584 -133.7285   42.3411 H   0  0  0  0  0  0
   63.4163 -132.9622   43.7208 H   0  0  0  0  0  0
   66.1185 -134.8733   41.9327 H   0  0  0  0  0  0
   65.6053 -133.2562   42.5231 H   0  0  0  0  0  0
   64.7474 -134.0225   41.1434 H   0  0  0  0  0  0
   64.3019 -137.7516   44.1424 H   0  0  0  0  0  0
   62.8177 -136.7766   44.4124 H   0  0  0  0  0  0
   62.4976 -138.1843   41.8957 H   0  0  0  0  0  0
   63.0559 -139.3816   43.1128 H   0  0  0  0  0  0
  1  2  2  0  0  0
  1  3  1  0  0  0
  1 14  1  0  0  0
  3  4  2  0  0  0
  3 39  1  0  0  0
  4  5  1  0  0  0
  4 40  1  0  0  0
  5  6  2  0  0  0
  5 41  1  0  0  0
  6  7  1  0  0  0
  6 42  1  0  0  0
  7  8  1  0  0  0
  7 43  1  0  0  0
  7 44  1  0  0  0
  8  9  1  0  0  0
  8 45  1  0  0  0
  8 46  1  0  0  0
  9 10  1  0  0  0
  9 47  1  0  0  0
  9 48  1  0  0  0
 10 11  1  0  0  0
 10 49  1  0  0  0
 10 50  1  0  0  0
 11 12  1  0  0  0
 11 51  1  0  0  0
 11 52  1  0  0  0
 12 13  1  0  0  0
 12 53  1  0  0  0
 12 54  1  0  0  0
 13 55  1  0  0  0
 13 56  1  0  0  0
 13 57  1  0  0  0
 14 15  1  0  0  0
 14 58  1  0  0  0
 15 16  1  0  0  0
 15 18  1  0  0  0
 15 59  1  0  0  0
 16 17  2  0  0  0
 16 21  1  0  0  0
 18 19  1  0  0  0
 18 20  1  0  0  0
 18 60  1  0  0  0
 19 61  1  0  0  0
 20 62  1  0  0  0
 20 63  1  0  0  0
 20 64  1  0  0  0
 21 22  1  0  0  0
 21 65  1  0  0  0
 22 23  1  0  0  0
 22 25  1  0  0  0
 22 66  1  0  0  0
 23 24  2  0  0  0
 23 30  1  0  0  0
 25 26  2  0  0  0
 25 67  1  0  0  0
 26 27  1  0  0  0
 26 68  1  0  0  0
 27 28  1  0  0  0
 27 69  1  0  0  0
 27 70  1  0  0  0
 28 29  1  0  0  0
 28 71  1  0  0  0
 28 72  1  0  0  0
 29 37  1  0  0  0
 29 73  1  0  0  0
 30 31  1  0  0  0
 30 74  1  0  0  0
 31 32  1  0  0  0
 31 35  1  0  0  0
 31 75  1  0  0  0
 32 33  1  0  0  0
 32 34  1  0  0  0
 32 76  1  0  0  0
 33 77  1  0  0  0
 33 78  1  0  0  0
 33 79  1  0  0  0
 34 80  1  0  0  0
 34 81  1  0  0  0
 34 82  1  0  0  0
 35 36  1  0  0  0
 35 83  1  0  0  0
 35 84  1  0  0  0
 36 37  1  0  0  0
 36 85  1  0  0  0
 36 86  1  0  0  0
 37 38  2  0  0  0
M  END
> <s_m_source_file>
../4gk7_ligand.sdf

> <i_m_source_file_index>
1

> <s_epik_input>
W0NIM11bQ0gyXVtDSDJdW0NIMl1bQ0gyXVtDSDJdW0NIMl1cW0NIXT1bQ0hdXFtDSF09W0NIXVxDKD1PKVtOSF1bQ0BASF0oW0NASF0oW09IXSlbQ0gzXSlDKD1PKVtOSF1bQ0BASF0xQyg9TylbTkhdW0NAQEhdKFtDSF0oW0NIM10pW0NIM10pW0NIMl1bQ0gyXUMoPU8pW05IXVtDSDJdW0NIMl1cW0NIXT1bQ0hdXDE=

> <s_epik_cmdline>
J2VwaWtfYXBwJywgJy1pbWFlJywgJ2xpZ2FuZF9wcm8ubWFlJywgJy1vbWFlJywgJ2xpZ2FuZF9wcmVwLm1hZScsICctbXMnLCAnMScsICctcGgnLCAnNycsICctcGh0JywgJzAuNScsICctbnQn

> <r_lp_tautomer_probability>
1

> <r_epik_Ionization_Penalty>
  0.0000

> <r_epik_Ionization_Penalty_Charging>
  0.0000

> <r_epik_Ionization_Penalty_Neutral>
  0.0000

> <r_epik_State_Penalty>
 -0.0000

> <r_epik_Charging_Adjusted_Penalty>
0

> <i_epik_Tot_Q>
0

> <i_epik_Tot_abs_Q>
0

$$$$
