4gkc_ligand
                    3D
 Schrodinger Suite 2020-3.
 50 50  0  0  1  0            999 V2000
    7.9800    2.3790    8.0210 C   0  0  0  0  0  0
    8.9130    2.7700    6.8410 C   0  0  0  0  0  0
    8.4530    4.0590    6.1980 C   0  0  0  0  0  0
    8.6790    5.1520    7.1890 C   0  0  0  0  0  0
    8.1030    4.8310    8.5530 C   0  0  0  0  0  0
    7.7880    3.5930    8.9460 C   0  0  0  0  0  0
    7.2790    3.4680   10.3530 C   0  0  0  0  0  0
    6.5300    2.4410   10.8060 C   0  0  0  0  0  0
    6.0580    2.3590   12.2160 C   0  0  0  0  0  0
    5.2880    1.3270   12.5640 C   0  0  0  0  0  0
    4.7070    1.0200   13.8780 C   0  0  0  0  0  0
    3.7570    0.1150   14.0710 C   0  0  0  0  0  0
    3.2390   -0.2130   15.4260 C   0  0  0  0  0  0
    2.2780   -1.1260   15.5200 C   0  0  0  0  0  0
    1.6780   -1.6730   16.7180 C   0  0  0  0  0  0
    8.6750    1.2140    8.6710 C   0  0  0  0  0  0
    6.6440    1.9500    7.4690 C   0  0  0  0  0  0
    7.9690    6.0800    9.4140 C   0  0  0  0  0  0
    6.4570    3.4010   13.2710 C   0  0  0  0  0  0
    3.8310    0.4670   16.6360 C   0  0  0  0  0  0
    9.9388    2.9060    7.2142 H   0  0  0  0  0  0
    8.9010    1.9719    6.0841 H   0  0  0  0  0  0
    9.0353    4.2403    5.2826 H   0  0  0  0  0  0
    7.3855    3.9816    5.9441 H   0  0  0  0  0  0
    9.7594    5.3196    7.3099 H   0  0  0  0  0  0
    8.2024    6.0763    6.8305 H   0  0  0  0  0  0
    7.5556    4.2883   11.0317 H   0  0  0  0  0  0
    6.2469    1.6246   10.1253 H   0  0  0  0  0  0
    5.0139    0.5685   11.8160 H   0  0  0  0  0  0
    5.1043    1.5907   14.7303 H   0  0  0  0  0  0
    3.3256   -0.4212   13.2128 H   0  0  0  0  0  0
    1.8410   -1.5604   14.6088 H   0  0  0  0  0  0
    0.9100   -2.4098   16.4399 H   0  0  0  0  0  0
    1.2148   -0.8621   17.2992 H   0  0  0  0  0  0
    2.4532   -2.1629   17.3255 H   0  0  0  0  0  0
    9.6468    1.5421    9.0684 H   0  0  0  0  0  0
    8.8325    0.4193    7.9269 H   0  0  0  0  0  0
    8.0539    0.8287    9.4931 H   0  0  0  0  0  0
    6.1484    2.8114    6.9975 H   0  0  0  0  0  0
    6.0152    1.5675    8.2865 H   0  0  0  0  0  0
    6.7938    1.1581    6.7203 H   0  0  0  0  0  0
    8.2987    6.9583    8.8397 H   0  0  0  0  0  0
    8.5938    5.9742   10.3132 H   0  0  0  0  0  0
    6.9178    6.2095    9.7110 H   0  0  0  0  0  0
    7.0878    4.1720   12.8046 H   0  0  0  0  0  0
    7.0174    2.9084   14.0793 H   0  0  0  0  0  0
    5.5516    3.8690   13.6849 H   0  0  0  0  0  0
    4.6049    1.1794   16.3142 H   0  0  0  0  0  0
    4.2801   -0.2881   17.2979 H   0  0  0  0  0  0
    3.0395    1.0054   17.1779 H   0  0  0  0  0  0
  1  2  1  0  0  0
  1  6  1  0  0  0
  1 16  1  0  0  0
  1 17  1  0  0  0
  2  3  1  0  0  0
  2 21  1  0  0  0
  2 22  1  0  0  0
  3  4  1  0  0  0
  3 23  1  0  0  0
  3 24  1  0  0  0
  4  5  1  0  0  0
  4 25  1  0  0  0
  4 26  1  0  0  0
  5  6  2  0  0  0
  5 18  1  0  0  0
  6  7  1  0  0  0
  7  8  2  0  0  0
  7 27  1  0  0  0
  8  9  1  0  0  0
  8 28  1  0  0  0
  9 10  2  0  0  0
  9 19  1  0  0  0
 10 11  1  0  0  0
 10 29  1  0  0  0
 11 12  2  0  0  0
 11 30  1  0  0  0
 12 13  1  0  0  0
 12 31  1  0  0  0
 13 14  2  0  0  0
 13 20  1  0  0  0
 14 15  1  0  0  0
 14 32  1  0  0  0
 15 33  1  0  0  0
 15 34  1  0  0  0
 15 35  1  0  0  0
 16 36  1  0  0  0
 16 37  1  0  0  0
 16 38  1  0  0  0
 17 39  1  0  0  0
 17 40  1  0  0  0
 17 41  1  0  0  0
 18 42  1  0  0  0
 18 43  1  0  0  0
 18 44  1  0  0  0
 19 45  1  0  0  0
 19 46  1  0  0  0
 19 47  1  0  0  0
 20 48  1  0  0  0
 20 49  1  0  0  0
 20 50  1  0  0  0
M  END
> <s_m_source_file>
../4gkc_ligand.sdf

> <i_m_source_file_index>
1

> <s_epik_input>
W0NIM11DMShbQ0gzXSlbQ0gyXVtDSDJdW0NIMl1DKFtDSDNdKT1DMS9bQ0hdPVtDSF0vQyhbQ0gzXSk9W0NIXS9bQ0hdPVtDSF0vQyhbQ0gzXSk9W0NIXS9bQ0gzXQ==

> <s_epik_cmdline>
J2VwaWtfYXBwJywgJy1pbWFlJywgJ2xpZ2FuZF9wcm8ubWFlJywgJy1vbWFlJywgJ2xpZ2FuZF9wcmVwLm1hZScsICctbXMnLCAnMScsICctcGgnLCAnNycsICctcGh0JywgJzAuNScsICctbnQn

> <r_lp_tautomer_probability>
1

> <r_epik_Ionization_Penalty>
  0.0000

> <r_epik_Ionization_Penalty_Charging>
  0.0000

> <r_epik_Ionization_Penalty_Neutral>
  0.0000

> <r_epik_State_Penalty>
 -0.0000

> <r_epik_Charging_Adjusted_Penalty>
0

> <i_epik_Tot_Q>
0

> <i_epik_Tot_abs_Q>
0

$$$$
