4gki_ligand
                    3D
 Schrodinger Suite 2020-3.
 46 49  0  0  1  0            999 V2000
   35.8280   13.0130   18.8720 N   0  0  0  0  0  0
   36.9640   12.2850   18.5260 C   0  0  0  0  0  0
   37.9860   12.9600   17.8570 N   0  0  0  0  0  0
   37.8560   14.2660   17.5620 C   0  0  0  0  0  0
   36.7510   14.9390   17.9080 C   0  0  0  0  0  0
   35.7560   14.3120   18.5540 C   0  0  0  0  0  0
   40.0280   13.6270   15.4720 C   0  0  0  0  0  0
   40.4410   16.0870   15.5090 C   0  0  0  0  0  0
   35.6980   18.0990   12.5450 C   0  0  0  0  0  0
   36.7770   18.0670   13.4180 C   0  0  0  0  0  0
   32.6590   17.3480   16.1960 C   0  0  0  0  0  0
   33.7330   17.3170   17.0780 C   0  0  0  0  0  0
   34.4080   17.9260   13.0260 C   0  0  0  0  0  0
   32.8900   17.5520   14.8440 C   0  0  0  0  0  0
   35.0380   17.4760   16.6270 C   0  0  0  0  0  0
   36.9730   16.1790   17.4600 C   0  0  0  0  0  0
   34.1900   17.7230   14.3820 C   0  0  0  0  0  0
   38.6810   15.1200   16.9360 N   0  0  0  0  0  0
   40.0390   14.8770   16.3530 C   0  0  0  0  0  0
   41.0630   14.6990   17.4770 C   0  0  0  0  0  0
   38.1720   16.2080   16.8820 N   0  0  0  0  0  0
   34.6800   15.0180   18.8810 N   0  0  0  0  0  0
   36.0780   17.4410   17.5620 C   0  0  0  0  0  0
   35.2660   17.6910   15.2650 C   0  0  0  0  0  0
   36.5560   17.8650   14.7730 C   0  0  0  0  0  0
   37.0516   11.2261   18.7690 H   0  0  0  0  0  0
   39.2924   13.7543   14.6641 H   0  0  0  0  0  0
   39.7565   12.7519   16.0806 H   0  0  0  0  0  0
   41.0272   13.4758   15.0376 H   0  0  0  0  0  0
   39.7123   16.2259   14.6968 H   0  0  0  0  0  0
   41.4402   15.9195   15.0805 H   0  0  0  0  0  0
   40.4598   16.9860   16.1426 H   0  0  0  0  0  0
   35.8645   18.2603   11.4799 H   0  0  0  0  0  0
   37.7913   18.1997   13.0415 H   0  0  0  0  0  0
   31.6422   17.2129   16.5646 H   0  0  0  0  0  0
   33.5485   17.1654   18.1415 H   0  0  0  0  0  0
   33.5635   17.9495   12.3373 H   0  0  0  0  0  0
   32.0541   17.5782   14.1450 H   0  0  0  0  0  0
   42.0576   14.5210   17.0421 H   0  0  0  0  0  0
   40.7766   13.8397   18.1012 H   0  0  0  0  0  0
   41.0906   15.6084   18.0953 H   0  0  0  0  0  0
   33.8457   14.5354   19.4111 H   0  0  0  0  0  0
   34.6229   16.0855   18.6218 H   0  0  0  0  0  0
   36.7303   18.3149   17.4178 H   0  0  0  0  0  0
   35.6580   17.4607   18.5785 H   0  0  0  0  0  0
   37.4023   17.8424   15.4596 H   0  0  0  0  0  0
  1  2  1  0  0  0
  1  6  2  0  0  0
  2  3  2  0  0  0
  2 26  1  0  0  0
  3  4  1  0  0  0
  4  5  2  0  0  0
  4 18  1  0  0  0
  5  6  1  0  0  0
  5 16  1  0  0  0
  6 22  1  0  0  0
  7 19  1  0  0  0
  7 27  1  0  0  0
  7 28  1  0  0  0
  7 29  1  0  0  0
  8 19  1  0  0  0
  8 30  1  0  0  0
  8 31  1  0  0  0
  8 32  1  0  0  0
  9 10  2  0  0  0
  9 13  1  0  0  0
  9 33  1  0  0  0
 10 25  1  0  0  0
 10 34  1  0  0  0
 11 12  1  0  0  0
 11 14  2  0  0  0
 11 35  1  0  0  0
 12 15  2  0  0  0
 12 36  1  0  0  0
 13 17  2  0  0  0
 13 37  1  0  0  0
 14 17  1  0  0  0
 14 38  1  0  0  0
 15 23  1  0  0  0
 15 24  1  0  0  0
 16 21  2  0  0  0
 16 23  1  0  0  0
 17 24  1  0  0  0
 18 19  1  0  0  0
 18 21  1  0  0  0
 19 20  1  0  0  0
 20 39  1  0  0  0
 20 40  1  0  0  0
 20 41  1  0  0  0
 22 42  1  0  0  0
 22 43  1  0  0  0
 23 44  1  0  0  0
 23 45  1  0  0  0
 24 25  2  0  0  0
 25 46  1  0  0  0
M  END
> <s_m_source_file>
../4gki_ligand.sdf

> <i_m_source_file_index>
1

> <s_epik_input>
bjFbY0hdbmMoW05IMl0pYyhjMTIpYyhubjJDKFtDSDNdKShbQ0gzXSlbQ0gzXSlbQ0gyXWMoW2NIXVtjSF1bY0hdMyljKGMzNClbY0hdW2NIXVtjSF1bY0hdNA==

> <s_epik_cmdline>
J2VwaWtfYXBwJywgJy1pbWFlJywgJ2xpZ2FuZF9wcm8ubWFlJywgJy1vbWFlJywgJ2xpZ2FuZF9wcmVwLm1hZScsICctbXMnLCAnMScsICctcGgnLCAnNycsICctcGh0JywgJzAuNScsICctbnQn

> <r_lp_tautomer_probability>
1

> <r_epik_Ionization_Penalty>
  0.0015

> <r_epik_Ionization_Penalty_Charging>
  0.0000

> <r_epik_Ionization_Penalty_Neutral>
  0.0015

> <r_epik_State_Penalty>
 -0.0000

> <r_epik_Charging_Adjusted_Penalty>
0

> <i_epik_Tot_Q>
0

> <i_epik_Tot_abs_Q>
0

$$$$
