4glr_ligand
                    3D
 Schrodinger Suite 2020-3.
176177  0  0  1  0            999 V2000
  -28.7300   98.8160  -24.9260 N   0  3  0  0  0  0
  -27.4430   98.2000  -25.2280 C   0  0  2  0  0  0
  -27.0900   98.3700  -26.7000 C   0  0  0  0  0  0
  -27.9670   98.2590  -27.5560 O   0  0  0  0  0  0
  -27.4570   96.7080  -24.8630 C   0  0  0  0  0  0
  -26.0740   96.1500  -24.5540 C   0  0  0  0  0  0
  -25.9950   94.6470  -24.8010 C   0  0  0  0  0  0
  -24.5690   94.1650  -24.9220 C   0  0  0  0  0  0
  -23.8150   94.8900  -25.9900 N   0  3  0  0  0  0
  -25.8050   98.6190  -26.9990 N   0  0  0  0  0  0
  -25.3320   98.7880  -28.3780 C   0  0  2  0  0  0
  -24.3300   97.6720  -28.7430 C   0  0  0  0  0  0
  -23.3210   97.5050  -28.0430 O   0  0  0  0  0  0
  -24.7340  100.2080  -28.6290 C   0  0  0  0  0  0
  -24.2680  100.3670  -30.0730 C   0  0  0  0  0  0
  -25.7360  101.3140  -28.2700 C   0  0  0  0  0  0
  -24.5930   96.9410  -29.8550 N   0  0  0  0  0  0
  -23.7080   95.8740  -30.3560 C   0  0  2  0  0  0
  -22.3120   96.4220  -30.6480 C   0  0  0  0  0  0
  -22.1780   97.5150  -31.1950 O   0  0  0  0  0  0
  -24.3000   95.2370  -31.6060 C   0  0  0  0  0  0
  -21.2690   95.6830  -30.2550 N   0  0  0  0  0  0
  -19.8670   96.0940  -30.4550 C   0  0  2  0  0  0
  -19.4630   96.0870  -31.9240 C   0  0  0  0  0  0
  -18.3900   96.5890  -32.2700 O   0  0  0  0  0  0
  -18.8700   95.2790  -29.5940 C   0  0  0  0  0  0
  -19.1640   95.4250  -28.1080 C   0  0  0  0  0  0
  -18.8330   93.8010  -30.0150 C   0  0  0  0  0  0
  -20.2850   95.4510  -32.7760 N   0  0  0  0  0  0
  -20.0250   95.2900  -34.1970 C   0  0  2  0  0  0
  -21.3360   95.1570  -34.9600 C   0  0  0  0  0  0
  -22.3220   94.6030  -34.4450 O   0  0  0  0  0  0
  -19.0430   94.0920  -34.4500 C   0  0  0  0  0  0
  -19.6510   92.7580  -34.0020 C   0  0  0  0  0  0
  -18.5680   94.0250  -35.9080 C   0  0  0  0  0  0
  -21.3450   95.7060  -36.1790 N   0  0  0  0  0  0
  -22.4440   95.6620  -37.1410 C   0  0  2  0  0  0
  -21.9080   96.0810  -38.4870 C   0  0  0  0  0  0
  -20.7760   96.5610  -38.5600 O   0  0  0  0  0  0
  -23.6740   96.5020  -36.7050 C   0  0  0  0  0  0
  -23.4420   98.0110  -36.5840 C   0  0  0  0  0  0
  -24.7070   98.7000  -36.1120 C   0  0  0  0  0  0
  -25.7880   98.5990  -37.0950 N   0  0  0  0  0  0
  -27.0770   98.7370  -36.8060 C   0  0  0  0  0  0
  -27.4630   98.9720  -35.5590 N   0  0  0  0  0  0
  -27.9900   98.6410  -37.7620 N   0  0  0  0  0  0
  -22.6710   95.8540  -39.5600 N   0  0  0  0  0  0
  -22.2070   96.2440  -40.8870 C   0  0  1  0  0  0
  -23.2150   95.7930  -41.9300 C   0  0  1  0  0  0
  -22.6420   96.0840  -43.3220 C   0  0  0  0  0  0
  -23.3530   94.3520  -41.8220 O   0  0  0  0  0  0
  -24.7840   93.8440  -41.4500 P   0  0  0  0  0  0
  -25.1260   94.2400  -40.0460 O   0  0  0  0  0  0
  -25.7580   94.4550  -42.4720 O   0  0  0  0  0  0
  -24.6640   92.2710  -41.6940 O   0  0  0  0  0  0
  -22.0820   97.7840  -40.9030 C   0  0  0  0  0  0
  -22.9870   98.4590  -40.4020 O   0  0  0  0  0  0
  -20.9400   98.3460  -41.3720 N   0  0  0  0  0  0
  -20.8050   99.8200  -41.4050 C   0  0  2  0  0  0
  -21.8920  100.4470  -42.2860 C   0  0  0  0  0  0
  -22.2260   99.8480  -43.3150 O   0  0  0  0  0  0
  -19.4050  100.0430  -41.9970 C   0  0  0  0  0  0
  -18.6940   98.7170  -41.8350 C   0  0  0  0  0  0
  -19.7680   97.6840  -41.9750 C   0  0  0  0  0  0
  -22.5150  101.5870  -41.8910 N   0  0  0  0  0  0
  -23.5590  102.1790  -42.7490 C   0  0  2  0  0  0
  -22.9500  102.7780  -44.0080 C   0  0  0  0  0  0
  -21.9710  103.5290  -43.9160 O   0  0  0  0  0  0
  -24.2160  103.2470  -41.8570 C   0  0  0  0  0  0
  -23.5890  103.1020  -40.5020 C   0  0  0  0  0  0
  -22.2650  102.4340  -40.7100 C   0  0  0  0  0  0
  -23.4860  102.3810  -45.1820 N   0  0  0  0  0  0
  -23.0310  102.8180  -46.5060 C   0  0  2  0  0  0
  -24.1550  102.6590  -47.5270 C   0  0  0  0  0  0
  -24.9148  101.6548  -47.4851 O   0  0  0  0  0  0
  -21.7950  102.0100  -46.9500 C   0  0  0  0  0  0
  -20.8230  102.7880  -47.8310 C   0  0  0  0  0  0
  -19.6860  103.4050  -47.0210 C   0  0  0  0  0  0
  -18.7000  104.1410  -47.8930 C   0  0  0  0  0  0
  -17.5980  104.7370  -47.0930 N   0  3  0  0  0  0
  -24.3235  103.5361  -48.4157 O   0  0  0  0  0  0
  -28.6981   99.8823  -25.1945 H   0  0  0  0  0  0
  -28.9418   98.7146  -23.8514 H   0  0  0  0  0  0
  -29.5207   98.3157  -25.5044 H   0  0  0  0  0  0
  -26.7138   98.7430  -24.6088 H   0  0  0  0  0  0
  -28.0827   96.5545  -23.9714 H   0  0  0  0  0  0
  -27.8676   96.1288  -25.7032 H   0  0  0  0  0  0
  -25.3282   96.6427  -25.1951 H   0  0  0  0  0  0
  -25.8306   96.3374  -23.4978 H   0  0  0  0  0  0
  -26.4672   94.1125  -23.9635 H   0  0  0  0  0  0
  -26.5201   94.4009  -25.7357 H   0  0  0  0  0  0
  -24.0460   94.3240  -23.9674 H   0  0  0  0  0  0
  -24.5639   93.0930  -25.1687 H   0  0  0  0  0  0
  -22.7860   94.5043  -26.0385 H   0  0  0  0  0  0
  -23.7931   95.9650  -25.7580 H   0  0  0  0  0  0
  -24.3111   94.7341  -26.9593 H   0  0  0  0  0  0
  -25.0963   98.6952  -26.1612 H   0  0  0  0  0  0
  -26.2384   98.6794  -28.9917 H   0  0  0  0  0  0
  -23.8532  100.3284  -27.9812 H   0  0  0  0  0  0
  -23.5512   99.5690  -30.3169 H   0  0  0  0  0  0
  -23.7823  101.3463  -30.1958 H   0  0  0  0  0  0
  -25.1345  100.3003  -30.7473 H   0  0  0  0  0  0
  -26.0635  101.1877  -27.2275 H   0  0  0  0  0  0
  -26.6073  101.2504  -28.9384 H   0  0  0  0  0  0
  -25.2551  102.2964  -28.3868 H   0  0  0  0  0  0
  -25.5237   97.1802  -30.3903 H   0  0  0  0  0  0
  -23.6457   95.1220  -29.5556 H   0  0  0  0  0  0
  -25.3036   94.8480  -31.3791 H   0  0  0  0  0  0
  -23.6533   94.4116  -31.9383 H   0  0  0  0  0  0
  -24.3707   95.9913  -32.4035 H   0  0  0  0  0  0
  -21.4967   94.7268  -29.7613 H   0  0  0  0  0  0
  -19.8662   97.1383  -30.1094 H   0  0  0  0  0  0
  -17.8643   95.6936  -29.7576 H   0  0  0  0  0  0
  -19.1833   96.4920  -27.8412 H   0  0  0  0  0  0
  -18.3805   94.9159  -27.5275 H   0  0  0  0  0  0
  -20.1407   94.9726  -27.8813 H   0  0  0  0  0  0
  -18.6188   93.7317  -31.0917 H   0  0  0  0  0  0
  -19.8070   93.3352  -29.8042 H   0  0  0  0  0  0
  -18.0468   93.2785  -29.4503 H   0  0  0  0  0  0
  -21.2043   95.0384  -32.3349 H   0  0  0  0  0  0
  -19.5525   96.2287  -34.5219 H   0  0  0  0  0  0
  -18.1431   94.2558  -33.8390 H   0  0  0  0  0  0
  -19.9809   92.8384  -32.9557 H   0  0  0  0  0  0
  -18.8953   91.9633  -34.0882 H   0  0  0  0  0  0
  -20.5131   92.5151  -34.6406 H   0  0  0  0  0  0
  -18.1380   94.9949  -36.1985 H   0  0  0  0  0  0
  -19.4217   93.7919  -36.5614 H   0  0  0  0  0  0
  -17.8039   93.2401  -36.0090 H   0  0  0  0  0  0
  -20.4117   96.2295  -36.4337 H   0  0  0  0  0  0
  -22.7703   94.6123  -37.1829 H   0  0  0  0  0  0
  -24.4841   96.3736  -37.4379 H   0  0  0  0  0  0
  -24.0172   96.1637  -35.7162 H   0  0  0  0  0  0
  -22.6369   98.2012  -35.8590 H   0  0  0  0  0  0
  -23.1555   98.4178  -37.5651 H   0  0  0  0  0  0
  -25.0502   98.2352  -35.1760 H   0  0  0  0  0  0
  -24.5006   99.7663  -35.9377 H   0  0  0  0  0  0
  -25.5543   98.3965  -38.1506 H   0  0  0  0  0  0
  -26.7140   99.0536  -34.7575 H   0  0  0  0  0  0
  -28.5321   99.0853  -35.3263 H   0  0  0  0  0  0
  -27.6814   98.4463  -38.7997 H   0  0  0  0  0  0
  -23.6521   95.3712  -39.4403 H   0  0  0  0  0  0
  -21.2455   95.7451  -41.0783 H   0  0  0  0  0  0
  -24.1940   96.2672  -41.7665 H   0  0  0  0  0  0
  -22.5200   97.1699  -43.4486 H   0  0  0  0  0  0
  -23.3304   95.7004  -44.0894 H   0  0  0  0  0  0
  -21.6645   95.5905  -43.4266 H   0  0  0  0  0  0
  -25.9661   95.5350  -42.4559 H   0  0  0  0  0  0
  -24.0076   91.6636  -41.0536 H   0  0  0  0  0  0
  -20.9290  100.2546  -40.4021 H   0  0  0  0  0  0
  -19.4957  100.3279  -43.0556 H   0  0  0  0  0  0
  -18.8965  100.8461  -41.4435 H   0  0  0  0  0  0
  -17.9268   98.6144  -42.6166 H   0  0  0  0  0  0
  -18.2165   98.6755  -40.8449 H   0  0  0  0  0  0
  -19.5432   96.7606  -41.4211 H   0  0  0  0  0  0
  -19.9856   97.4380  -43.0248 H   0  0  0  0  0  0
  -24.2679  101.4139  -43.0985 H   0  0  0  0  0  0
  -24.0237  104.2450  -42.2777 H   0  0  0  0  0  0
  -25.3009  103.0707  -41.8124 H   0  0  0  0  0  0
  -23.4590  104.0963  -40.0499 H   0  0  0  0  0  0
  -24.2398  102.4897  -39.8604 H   0  0  0  0  0  0
  -21.9688  101.8007  -39.8607 H   0  0  0  0  0  0
  -21.4582  103.1472  -40.9344 H   0  0  0  0  0  0
  -24.3258  101.6760  -45.0940 H   0  0  0  0  0  0
  -22.7712  103.8815  -46.3992 H   0  0  0  0  0  0
  -21.2340  101.6810  -46.0629 H   0  0  0  0  0  0
  -22.1193  101.1305  -47.5257 H   0  0  0  0  0  0
  -20.3841  102.1114  -48.5790 H   0  0  0  0  0  0
  -21.3608  103.6001  -48.3420 H   0  0  0  0  0  0
  -20.0994  104.1197  -46.2942 H   0  0  0  0  0  0
  -19.1436  102.6111  -46.4867 H   0  0  0  0  0  0
  -18.2614  103.4424  -48.6207 H   0  0  0  0  0  0
  -19.2171  104.9511  -48.4281 H   0  0  0  0  0  0
  -16.9020  105.2634  -47.7627 H   0  0  0  0  0  0
  -17.0604  103.9400  -46.5585 H   0  0  0  0  0  0
  -18.0162  105.4486  -46.3659 H   0  0  0  0  0  0
  -25.1325  103.4241  -49.1526 H   0  0  0  0  0  0
  1  2  1  0  0  0
  1 82  1  0  0  0
  1 83  1  0  0  0
  1 84  1  0  0  0
  2  3  1  0  0  0
  2  5  1  0  0  0
  2 85  1  0  0  0
  3  4  2  0  0  0
  3 10  1  0  0  0
  5  6  1  0  0  0
  5 86  1  0  0  0
  5 87  1  0  0  0
  6  7  1  0  0  0
  6 88  1  0  0  0
  6 89  1  0  0  0
  7  8  1  0  0  0
  7 90  1  0  0  0
  7 91  1  0  0  0
  8  9  1  0  0  0
  8 92  1  0  0  0
  8 93  1  0  0  0
  9 94  1  0  0  0
  9 95  1  0  0  0
  9 96  1  0  0  0
 10 11  1  0  0  0
 10 97  1  0  0  0
 11 12  1  0  0  0
 11 14  1  0  0  0
 11 98  1  0  0  0
 12 13  2  0  0  0
 12 17  1  0  0  0
 14 15  1  0  0  0
 14 16  1  0  0  0
 14 99  1  0  0  0
 15100  1  0  0  0
 15101  1  0  0  0
 15102  1  0  0  0
 16103  1  0  0  0
 16104  1  0  0  0
 16105  1  0  0  0
 17 18  1  0  0  0
 17106  1  0  0  0
 18 19  1  0  0  0
 18 21  1  0  0  0
 18107  1  0  0  0
 19 20  2  0  0  0
 19 22  1  0  0  0
 21108  1  0  0  0
 21109  1  0  0  0
 21110  1  0  0  0
 22 23  1  0  0  0
 22111  1  0  0  0
 23 24  1  0  0  0
 23 26  1  0  0  0
 23112  1  0  0  0
 24 25  2  0  0  0
 24 29  1  0  0  0
 26 27  1  0  0  0
 26 28  1  0  0  0
 26113  1  0  0  0
 27114  1  0  0  0
 27115  1  0  0  0
 27116  1  0  0  0
 28117  1  0  0  0
 28118  1  0  0  0
 28119  1  0  0  0
 29 30  1  0  0  0
 29120  1  0  0  0
 30 31  1  0  0  0
 30 33  1  0  0  0
 30121  1  0  0  0
 31 32  2  0  0  0
 31 36  1  0  0  0
 33 34  1  0  0  0
 33 35  1  0  0  0
 33122  1  0  0  0
 34123  1  0  0  0
 34124  1  0  0  0
 34125  1  0  0  0
 35126  1  0  0  0
 35127  1  0  0  0
 35128  1  0  0  0
 36 37  1  0  0  0
 36129  1  0  0  0
 37 38  1  0  0  0
 37 40  1  0  0  0
 37130  1  0  0  0
 38 39  2  0  0  0
 38 47  1  0  0  0
 40 41  1  0  0  0
 40131  1  0  0  0
 40132  1  0  0  0
 41 42  1  0  0  0
 41133  1  0  0  0
 41134  1  0  0  0
 42 43  1  0  0  0
 42135  1  0  0  0
 42136  1  0  0  0
 43 44  1  0  0  0
 43137  1  0  0  0
 44 45  1  0  0  0
 44 46  2  0  0  0
 45138  1  0  0  0
 45139  1  0  0  0
 46140  1  0  0  0
 47 48  1  0  0  0
 47141  1  0  0  0
 48 49  1  0  0  0
 48 56  1  0  0  0
 48142  1  0  0  0
 49 50  1  0  0  0
 49 51  1  0  0  0
 49143  1  0  0  0
 50144  1  0  0  0
 50145  1  0  0  0
 50146  1  0  0  0
 51 52  1  0  0  0
 52 53  2  0  0  0
 52 54  1  0  0  0
 52 55  1  0  0  0
 54147  1  0  0  0
 55148  1  0  0  0
 56 57  2  0  0  0
 56 58  1  0  0  0
 58 59  1  0  0  0
 58 64  1  0  0  0
 59 60  1  0  0  0
 59 62  1  0  0  0
 59149  1  0  0  0
 60 61  2  0  0  0
 60 65  1  0  0  0
 62 63  1  0  0  0
 62150  1  0  0  0
 62151  1  0  0  0
 63 64  1  0  0  0
 63152  1  0  0  0
 63153  1  0  0  0
 64154  1  0  0  0
 64155  1  0  0  0
 65 66  1  0  0  0
 65 71  1  0  0  0
 66 67  1  0  0  0
 66 69  1  0  0  0
 66156  1  0  0  0
 67 68  2  0  0  0
 67 72  1  0  0  0
 69 70  1  0  0  0
 69157  1  0  0  0
 69158  1  0  0  0
 70 71  1  0  0  0
 70159  1  0  0  0
 70160  1  0  0  0
 71161  1  0  0  0
 71162  1  0  0  0
 72 73  1  0  0  0
 72163  1  0  0  0
 73 74  1  0  0  0
 73 76  1  0  0  0
 73164  1  0  0  0
 74 75  2  0  0  0
 74 81  1  0  0  0
 76 77  1  0  0  0
 76165  1  0  0  0
 76166  1  0  0  0
 77 78  1  0  0  0
 77167  1  0  0  0
 77168  1  0  0  0
 78 79  1  0  0  0
 78169  1  0  0  0
 78170  1  0  0  0
 79 80  1  0  0  0
 79171  1  0  0  0
 79172  1  0  0  0
 80173  1  0  0  0
 80174  1  0  0  0
 80175  1  0  0  0
 81176  1  0  0  0
M  CHG  3   1   1   9   1  80   1
M  END
> <s_m_source_file>
../4glr_ligand.sdf

> <i_m_source_file_index>
1

> <s_epik_input>
W05IMytdW0NIMl1bQ0gyXVtDSDJdW0NIMl1bQ0BIXShbTkgzK10pQyg9TylbTkhdW0NAQEhdKFtDSF0oW0NIM10pW0NIM10pQyg9TylbTkhdW0NAQEhdKFtDSDNdKUMoPU8pW05IXVtDQEBIXShbQ0hdKFtDSDNdKVtDSDNdKUMoPU8pW05IXVtDQEBIXShbQ0hdKFtDSDNdKVtDSDNdKUMoPU8pW05IXVtDQEBIXShbQ0gyXVtDSDJdW0NIMl1bTkhdL0MoW05IMl0pPU5cW0hdKUMoPU8pW05IXVtDQEBIXShbQ0BASF0oW0NIM10pT1AoPU8pKFtPSF0pW09IXSlDKD1PKU4xW0NAQEhdKFtDSDJdW0NIMl1bQ0gyXTEpQyg9TylOMltDQEBIXShbQ0gyXVtDSDJdW0NIMl0yKUMoPU8pW05IXVtDQEhdKEMoPU8pW09IXSlbQ0gyXVtDSDJdW0NIMl1bQ0gyXVtOSDMrXQ==

> <s_epik_cmdline>
J2VwaWtfYXBwJywgJy1pbWFlJywgJ2xpZ2FuZF9wcm8ubWFlJywgJy1vbWFlJywgJ2xpZ2FuZF9wcmVwLm1hZScsICctbXMnLCAnMScsICctcGgnLCAnNycsICctcGh0JywgJzAuNScsICctbnQn

> <s_epik_pKa_notes>
Molecule size exceeds maximum supported for generating protonation states

> <s_epik_Chemistry_Notes>
This compound has an imine and may undergo hydrolysis.

$$$$
