4glw_ligand
                    3D
 Schrodinger Suite 2020-3.
 25 26  0  0  1  0            999 V2000
  -10.4340   -3.2040  -20.7560 C   0  0  0  0  0  0
  -12.9480   -2.2240  -20.2890 C   0  0  0  0  0  0
   -9.0900   -3.7820  -21.0240 C   0  0  0  0  0  0
  -12.0820   -1.6450  -21.2100 C   0  0  0  0  0  0
  -14.5520   -0.5980  -20.7280 C   0  0  0  0  0  0
  -12.5270   -0.5810  -21.8800 C   0  0  0  0  0  0
  -12.5530   -3.3240  -19.6300 N   0  0  0  0  0  0
  -15.7990   -0.0580  -20.5420 N   0  0  0  0  0  0
  -13.7270   -0.0820  -21.6580 N   0  0  0  0  0  0
  -14.1480   -1.6870  -20.0490 N   0  0  0  0  0  0
  -11.2940   -3.8000  -19.8100 C   0  0  0  0  0  0
  -10.8890   -4.9020  -19.0730 O   0  0  0  0  0  0
  -11.8560   -5.6070  -18.3260 C   0  0  0  0  0  0
  -10.8450   -2.1340  -21.4540 N   0  0  0  0  0  0
  -11.7000   -0.0360  -22.7910 N   0  0  0  0  0  0
   -8.9245   -4.6465  -20.3643 H   0  0  0  0  0  0
   -8.3189   -3.0214  -20.8321 H   0  0  0  0  0  0
   -9.0327   -4.1056  -22.0738 H   0  0  0  0  0  0
  -16.1029    0.8331  -21.1109 H   0  0  0  0  0  0
  -16.4952   -0.5160  -19.8239 H   0  0  0  0  0  0
  -11.3748   -6.4467  -17.8032 H   0  0  0  0  0  0
  -12.6324   -5.9930  -19.0029 H   0  0  0  0  0  0
  -12.3148   -4.9310  -17.5894 H   0  0  0  0  0  0
  -10.7033   -0.4703  -22.9585 H   0  0  0  0  0  0
  -12.0207    0.8438  -23.3682 H   0  0  0  0  0  0
  1  3  1  0  0  0
  1 11  2  0  0  0
  1 14  1  0  0  0
  2  4  1  0  0  0
  2  7  2  0  0  0
  2 10  1  0  0  0
  3 16  1  0  0  0
  3 17  1  0  0  0
  3 18  1  0  0  0
  4  6  1  0  0  0
  4 14  2  0  0  0
  5  8  1  0  0  0
  5  9  1  0  0  0
  5 10  2  0  0  0
  6  9  2  0  0  0
  6 15  1  0  0  0
  7 11  1  0  0  0
  8 19  1  0  0  0
  8 20  1  0  0  0
 11 12  1  0  0  0
 12 13  1  0  0  0
 13 21  1  0  0  0
 13 22  1  0  0  0
 13 23  1  0  0  0
 15 24  1  0  0  0
 15 25  1  0  0  0
M  END
> <s_m_source_file>
../4glw_ligand.sdf

> <i_m_source_file_index>
1

> <s_epik_input>
W0NIM11PYyhuMSljKFtDSDNdKW5jKGMxMiljKFtOSDJdKW5jKG4yKVtOSDJd

> <s_epik_cmdline>
J2VwaWtfYXBwJywgJy1pbWFlJywgJ2xpZ2FuZF9wcm8ubWFlJywgJy1vbWFlJywgJ2xpZ2FuZF9wcmVwLm1hZScsICctbXMnLCAnMScsICctcGgnLCAnNycsICctcGh0JywgJzAuNScsICctbnQn

> <r_epik_Ionization_Penalty>
  0.1115

> <r_epik_Ionization_Penalty_Charging>
  0.0000

> <r_epik_Ionization_Penalty_Neutral>
  0.1115

> <r_epik_State_Penalty>
  0.1010

> <r_epik_Charging_Adjusted_Penalty>
0.101025495098017

> <i_epik_Tot_Q>
0

> <i_epik_Tot_abs_Q>
0

$$$$
