4glx_ligand
                    3D
 Schrodinger Suite 2020-3.
 25 26  0  0  1  0            999 V2000
   27.3170    5.1160    6.8920 C   0  0  0  0  0  0
   30.9620    4.3210    6.3730 C   0  0  0  0  0  0
   26.7970    4.5390    5.7390 C   0  0  0  0  0  0
   27.6240    3.9060    4.8310 C   0  0  0  0  0  0
   25.4640    4.5940    5.4910 C   0  0  0  0  0  0
   25.0110    4.0110    4.3310 C   0  0  0  0  0  0
   25.8760    3.3470    3.4330 C   0  0  0  0  0  0
   23.0340    3.2520    3.4550 O   0  0  0  0  0  0
   23.5490    4.0680    4.2060 C   0  0  0  0  0  0
   22.8580    4.8650    5.0420 N   0  0  0  0  0  0
   28.6810    5.0710    7.1400 C   0  0  0  0  0  0
   29.5110    5.8950    8.6760 Br  0  0  0  0  0  0
   25.4940    2.7530    2.2670 N   0  0  0  0  0  0
   27.1710    3.3180    3.7190 N   0  0  0  0  0  0
   28.9400    3.9010    5.0610 N   0  0  0  0  0  0
   29.4810    4.4460    6.1860 C   0  0  0  0  0  0
   31.5450    5.3980    6.8760 F   0  0  0  0  0  0
   31.1390    3.3080    7.2280 F   0  0  0  0  0  0
   31.4750    4.0060    5.1880 F   0  0  0  0  0  0
   26.6511    5.6050    7.6030 H   0  0  0  0  0  0
   24.7788    5.0815    6.1845 H   0  0  0  0  0  0
   23.3910    5.5766    5.6897 H   0  0  0  0  0  0
   21.7602    4.8048    5.0775 H   0  0  0  0  0  0
   24.4333    2.7449    1.9756 H   0  0  0  0  0  0
   26.2464    2.2818    1.6175 H   0  0  0  0  0  0
  1  3  2  0  0  0
  1 11  1  0  0  0
  1 20  1  0  0  0
  2 16  1  0  0  0
  2 17  1  0  0  0
  2 18  1  0  0  0
  2 19  1  0  0  0
  3  4  1  0  0  0
  3  5  1  0  0  0
  4 14  1  0  0  0
  4 15  2  0  0  0
  5  6  2  0  0  0
  5 21  1  0  0  0
  6  7  1  0  0  0
  6  9  1  0  0  0
  7 13  1  0  0  0
  7 14  2  0  0  0
  8  9  2  0  0  0
  9 10  1  0  0  0
 10 22  1  0  0  0
 10 23  1  0  0  0
 11 12  1  0  0  0
 11 16  2  0  0  0
 13 24  1  0  0  0
 13 25  1  0  0  0
 15 16  1  0  0  0
M  END
> <s_m_source_file>
../4glx_ligand.sdf

> <i_m_source_file_index>
1

> <s_epik_input>
W2NIXTFjKEJyKWMoQyhGKShGKUYpbmMoYzEyKW5jKFtOSDJdKWMoW2NIXTIpQyg9TylbTkgyXQ==

> <s_epik_cmdline>
J2VwaWtfYXBwJywgJy1pbWFlJywgJ2xpZ2FuZF9wcm8ubWFlJywgJy1vbWFlJywgJ2xpZ2FuZF9wcmVwLm1hZScsICctbXMnLCAnMScsICctcGgnLCAnNycsICctcGh0JywgJzAuNScsICctbnQn

> <r_lp_tautomer_probability>
1

> <r_epik_Ionization_Penalty>
  0.0000

> <r_epik_Ionization_Penalty_Charging>
  0.0000

> <r_epik_Ionization_Penalty_Neutral>
  0.0000

> <r_epik_State_Penalty>
 -0.0000

> <r_epik_Charging_Adjusted_Penalty>
0

> <i_epik_Tot_Q>
0

> <i_epik_Tot_abs_Q>
0

$$$$
