4gly_ligand
                    3D
 Schrodinger Suite 2020-3.
189191  0  0  1  0            999 V2000
  -26.8630    4.7040    9.9020 N   0  3  0  0  0  0
  -26.0130    5.3930   10.9000 C   0  0  2  0  0  0
  -26.7070    6.7140   11.3720 C   0  0  0  0  0  0
  -27.6680    7.1820   10.7160 O   0  0  0  0  0  0
  -24.6140    5.6050   10.3160 C   0  0  0  0  0  0
  -23.6850    4.1340    9.7390 S   0  0  0  0  0  0
  -26.2080    7.3240   12.4560 N   0  0  0  0  0  0
  -26.9720    8.3210   13.2050 C   0  0  2  0  0  0
  -27.2120    9.6090   12.3330 C   0  0  0  0  0  0
  -26.2660   10.1330   11.7490 O   0  0  0  0  0  0
  -26.2610    8.5920   14.5490 C   0  0  0  0  0  0
  -27.2440    9.6720   15.5850 S   0  0  0  0  0  0
  -28.4590   10.0830   12.2250 N   0  0  0  0  0  0
  -28.8170   11.3010   11.4270 C   0  0  2  0  0  0
  -29.1630   12.3670   12.4380 C   0  0  0  0  0  0
  -29.6110   12.0330   13.5400 O   0  0  0  0  0  0
  -30.0650   11.0680   10.6020 C   0  0  0  0  0  0
  -30.0020    9.8260    9.7370 C   0  0  0  0  0  0
  -31.4060    9.3380    9.3450 C   0  0  0  0  0  0
  -29.1010   10.1540    8.5230 C   0  0  0  0  0  0
  -29.0250   13.6230   12.0550 N   0  0  0  0  0  0
  -29.4930   14.7650   12.8300 C   0  0  0  0  0  0
  -28.4990   15.1730   13.8980 C   0  0  0  0  0  0
  -27.3260   14.8000   13.8750 O   0  0  0  0  0  0
  -28.9780   15.9250   14.8690 N   0  0  0  0  0  0
  -28.0500   16.5940   15.8570 C   0  0  2  0  0  0
  -27.6390   15.7560   17.0470 C   0  0  0  0  0  0
  -26.6770   16.0810   17.7210 O   0  0  0  0  0  0
  -28.6650   17.8640   16.3570 C   0  0  0  0  0  0
  -29.8390   17.6850   17.3210 C   0  0  0  0  0  0
  -30.4840   19.0380   17.6460 C   0  0  0  0  0  0
  -31.2730   19.5630   16.5270 N   0  0  0  0  0  0
  -32.2340   20.4280   16.6860 C   0  0  0  0  0  0
  -32.4710   20.9090   17.9330 N   0  0  0  0  0  0
  -32.9750   20.8130   15.6400 N   0  0  0  0  0  0
  -28.3570   14.6620   17.2850 N   0  0  0  0  0  0
  -28.1250   13.8560   18.4540 C   0  0  0  0  0  0
  -27.1850   12.6830   18.1700 C   0  0  0  0  0  0
  -27.5040   11.5550   18.4680 O   0  0  0  0  0  0
  -25.9970   12.9380   17.6120 N   0  0  0  0  0  0
  -25.1430   11.8300   17.1390 C   0  0  2  0  0  0
  -23.6770   11.9650   17.5880 C   0  0  0  0  0  0
  -22.7590   11.4820   16.9010 O   0  0  0  0  0  0
  -25.1660   11.8790   15.6140 C   0  0  0  0  0  0
  -26.8310   11.6120   14.9250 S   0  0  0  0  0  0
  -23.4570   12.6630   18.7060 N   0  0  0  0  0  0
  -22.1290   12.8170   19.2070 C   0  0  2  0  0  0
  -21.4960   11.4520   19.5220 C   0  0  0  0  0  0
  -22.1900   10.4770   19.8970 O   0  0  0  0  0  0
  -22.1190   13.6710   20.5040 C   0  0  0  0  0  0
  -22.6530   15.1120   20.3680 C   0  0  0  0  0  0
  -24.1720   15.1960   20.4980 C   0  0  0  0  0  0
  -24.8580   14.1260   20.4800 O   0  0  0  0  0  0
  -24.7460   16.2740   20.5900 O   0  0  0  0  0  0
  -20.1580   11.4310   19.4180 N   0  0  0  0  0  0
  -19.3800   10.2860   19.9320 C   0  0  2  0  0  0
  -19.8780    8.9400   19.3650 C   0  0  0  0  0  0
  -19.9500    7.9370   20.0560 O   0  0  0  0  0  0
  -19.4170   10.2930   21.4540 C   0  0  0  0  0  0
  -18.3810    9.3710   22.0630 C   0  0  0  0  0  0
  -17.2400    9.2420   21.5650 O   0  0  0  0  0  0
  -18.7600    8.7400   23.1420 N   0  0  0  0  0  0
  -20.2310    8.9580   18.0800 N   0  0  0  0  0  0
  -20.6570    7.7640   17.3500 C   0  0  2  0  0  0
  -19.5200    7.2010   16.4830 C   0  0  0  0  0  0
  -18.7460    7.9830   15.9280 O   0  0  0  0  0  0
  -21.8890    8.0860   16.5090 C   0  0  0  0  0  0
  -23.1970    7.8600   17.2830 C   0  0  0  0  0  0
  -23.4900    8.5440   18.4610 N   0  0  0  0  0  0
  -24.2110    6.9650   17.1010 C   0  0  0  0  0  0
  -24.6630    8.1180   18.9440 C   0  0  0  0  0  0
  -25.1210    7.1440   18.1400 N   0  0  0  0  0  0
  -19.4750    5.8690   16.3420 N   0  0  0  0  0  0
  -18.4650    5.1850   15.5400 C   0  0  2  0  0  0
  -18.7060    5.5330   14.0360 C   0  0  0  0  0  0
  -17.7500    5.7950   13.2800 O   0  0  0  0  0  0
  -18.6020    3.6750   15.8710 C   0  0  0  0  0  0
  -17.5500    2.7090   15.3500 C   0  0  0  0  0  0
  -17.8220    1.2770   15.8190 C   0  0  0  0  0  0
  -19.2550    0.9460   15.7590 N   0  0  0  0  0  0
  -20.0700    0.8180   16.8110 C   0  0  0  0  0  0
  -19.6150    0.9630   18.0680 N   0  0  0  0  0  0
  -21.3420    0.5250   16.5940 N   0  0  0  0  0  0
  -19.9490    5.5900   13.5800 N   0  0  0  0  0  0
  -20.1700    5.7350   12.0910 C   0  0  2  0  0  0
  -20.2750    7.2430   11.6850 C   0  0  0  0  0  0
  -19.2740    7.9080   11.8760 O   0  0  0  0  0  0
  -21.1830    4.6780   11.4900 C   0  0  0  0  0  0
  -21.7070    4.7140    9.7310 S   0  0  0  0  0  0
  -21.3770    7.8890   11.2330 N   0  0  0  0  0  0
  -22.7810    7.7560   11.6590 C   0  0  2  0  0  0
  -23.0280    6.7030   12.7570 C   0  0  0  0  0  0
  -23.9500    6.8510   13.5970 O   0  0  0  0  0  0
  -23.7300    7.6590   10.4440 C   0  0  0  0  0  0
  -23.8170    8.8950    9.4980 C   0  0  0  0  0  0
  -22.9100    8.8420    8.2580 C   0  0  0  0  0  0
  -25.2500    9.2270    9.1010 C   0  0  0  0  0  0
  -22.3540    5.6460   12.8370 N   0  0  0  0  0  0
  -27.8688    4.5509   10.3203 H   0  0  0  0  0  0
  -26.4179    3.7298    9.6514 H   0  0  0  0  0  0
  -26.9336    5.3196    8.9931 H   0  0  0  0  0  0
  -25.8992    4.7308   11.7709 H   0  0  0  0  0  0
  -24.6796    6.2624    9.4365 H   0  0  0  0  0  0
  -23.9668    6.0702   11.0741 H   0  0  0  0  0  0
  -25.1913    7.0544   12.7780 H   0  0  0  0  0  0
  -27.9530    7.8746   13.4250 H   0  0  0  0  0  0
  -26.1034    7.6409   15.0787 H   0  0  0  0  0  0
  -25.2893    9.0716   14.3596 H   0  0  0  0  0  0
  -29.2420    9.5275   12.7620 H   0  0  0  0  0  0
  -27.9809   11.5614   10.7614 H   0  0  0  0  0  0
  -30.9312   10.9568   11.2708 H   0  0  0  0  0  0
  -30.2269   11.9251    9.9318 H   0  0  0  0  0  0
  -29.5661    8.9927   10.3077 H   0  0  0  0  0  0
  -31.9873    9.1251   10.2543 H   0  0  0  0  0  0
  -31.3207    8.4223    8.7415 H   0  0  0  0  0  0
  -31.9147   10.1174    8.7587 H   0  0  0  0  0  0
  -28.1173   10.4951    8.8780 H   0  0  0  0  0  0
  -29.5695   10.9476    7.9225 H   0  0  0  0  0  0
  -28.9755    9.2525    7.9053 H   0  0  0  0  0  0
  -28.5229   13.7822   11.0893 H   0  0  0  0  0  0
  -29.6487   15.6236   12.1602 H   0  0  0  0  0  0
  -30.4417   14.5087   13.3242 H   0  0  0  0  0  0
  -30.0658   16.0632   14.9557 H   0  0  0  0  0  0
  -27.1296   16.7867   15.2862 H   0  0  0  0  0  0
  -27.9063   18.4521   16.8941 H   0  0  0  0  0  0
  -29.0458   18.4471   15.5055 H   0  0  0  0  0  0
  -30.5951   17.0319   16.8607 H   0  0  0  0  0  0
  -29.4800   17.2285   18.2552 H   0  0  0  0  0  0
  -31.1537   18.9265   18.5115 H   0  0  0  0  0  0
  -29.6988   19.7713   17.8820 H   0  0  0  0  0  0
  -31.0632   19.2272   15.5007 H   0  0  0  0  0  0
  -31.8488   20.5781   18.7776 H   0  0  0  0  0  0
  -33.2853   21.6297   18.0989 H   0  0  0  0  0  0
  -32.7643   20.4097   14.6385 H   0  0  0  0  0  0
  -29.1407   14.3775   16.5674 H   0  0  0  0  0  0
  -27.6707   14.4749   19.2418 H   0  0  0  0  0  0
  -29.0811   13.4482   18.8139 H   0  0  0  0  0  0
  -25.6566   13.9786   17.5060 H   0  0  0  0  0  0
  -25.5630   10.9087   17.5690 H   0  0  0  0  0  0
  -24.8153   12.8644   15.2735 H   0  0  0  0  0  0
  -24.5062   11.0960   15.2120 H   0  0  0  0  0  0
  -24.3029   13.1196   19.2407 H   0  0  0  0  0  0
  -21.6146   13.3164   18.3727 H   0  0  0  0  0  0
  -22.7431   13.1845   21.2681 H   0  0  0  0  0  0
  -21.0877   13.7610   20.8758 H   0  0  0  0  0  0
  -22.2135   15.7417   21.1556 H   0  0  0  0  0  0
  -22.3780   15.5134   19.3815 H   0  0  0  0  0  0
  -25.9531   14.1731   20.5728 H   0  0  0  0  0  0
  -19.6414   12.2785   18.9439 H   0  0  0  0  0  0
  -18.3473   10.4386   19.5852 H   0  0  0  0  0  0
  -19.2217   11.3115   21.8208 H   0  0  0  0  0  0
  -20.4083    9.9632   21.7982 H   0  0  0  0  0  0
  -19.7752    8.8892   23.5384 H   0  0  0  0  0  0
  -18.0640    8.0594   23.6543 H   0  0  0  0  0  0
  -20.1909    9.9307   17.5679 H   0  0  0  0  0  0
  -20.9161    7.0179   18.1156 H   0  0  0  0  0  0
  -21.8548    9.1404   16.1974 H   0  0  0  0  0  0
  -21.9038    7.4407   15.6183 H   0  0  0  0  0  0
  -24.3971    6.2003   16.3325 H   0  0  0  0  0  0
  -25.1613    8.4963   19.8365 H   0  0  0  0  0  0
  -20.2476    5.2874   16.8662 H   0  0  0  0  0  0
  -17.4566    5.5323   15.8095 H   0  0  0  0  0  0
  -18.5884    3.5361   16.9621 H   0  0  0  0  0  0
  -19.5511    3.2952   15.4649 H   0  0  0  0  0  0
  -17.5532    2.7217   14.2501 H   0  0  0  0  0  0
  -16.5588    3.0133   15.7173 H   0  0  0  0  0  0
  -17.2769    0.5707   15.1756 H   0  0  0  0  0  0
  -17.4838    1.1614   16.8593 H   0  0  0  0  0  0
  -19.7411    0.7809   14.7861 H   0  0  0  0  0  0
  -18.5571    1.2066   18.2453 H   0  0  0  0  0  0
  -20.3007    0.8380   18.9190 H   0  0  0  0  0  0
  -21.7114    0.4070   15.5646 H   0  0  0  0  0  0
  -20.8110    5.5340   14.2611 H   0  0  0  0  0  0
  -19.2420    5.4184   11.5924 H   0  0  0  0  0  0
  -20.7646    3.6665   11.5982 H   0  0  0  0  0  0
  -22.1395    4.7388   12.0298 H   0  0  0  0  0  0
  -21.1090    8.5977   10.4356 H   0  0  0  0  0  0
  -22.9763    8.7109   12.1689 H   0  0  0  0  0  0
  -23.4184    6.8224    9.8013 H   0  0  0  0  0  0
  -24.7585    7.4885   10.7948 H   0  0  0  0  0  0
  -23.4336    9.7309   10.1015 H   0  0  0  0  0  0
  -21.8817    8.6013    8.5659 H   0  0  0  0  0  0
  -22.9223    9.8190    7.7527 H   0  0  0  0  0  0
  -23.2769    8.0677    7.5682 H   0  0  0  0  0  0
  -25.8815    9.2600   10.0011 H   0  0  0  0  0  0
  -25.6288    8.4547    8.4154 H   0  0  0  0  0  0
  -25.2742   10.2060    8.5999 H   0  0  0  0  0  0
  -21.5335    5.4619   12.1278 H   0  0  0  0  0  0
  -22.5843    4.9045   13.6162 H   0  0  0  0  0  0
  1  2  1  0  0  0
  1 99  1  0  0  0
  1100  1  0  0  0
  1101  1  0  0  0
  2  3  1  0  0  0
  2  5  1  0  0  0
  2102  1  0  0  0
  3  4  2  0  0  0
  3  7  1  0  0  0
  5  6  1  0  0  0
  5103  1  0  0  0
  5104  1  0  0  0
  6 89  1  0  0  0
  7  8  1  0  0  0
  7105  1  0  0  0
  8  9  1  0  0  0
  8 11  1  0  0  0
  8106  1  0  0  0
  9 10  2  0  0  0
  9 13  1  0  0  0
 11 12  1  0  0  0
 11107  1  0  0  0
 11108  1  0  0  0
 12 45  1  0  0  0
 13 14  1  0  0  0
 13109  1  0  0  0
 14 15  1  0  0  0
 14 17  1  0  0  0
 14110  1  0  0  0
 15 16  2  0  0  0
 15 21  1  0  0  0
 17 18  1  0  0  0
 17111  1  0  0  0
 17112  1  0  0  0
 18 19  1  0  0  0
 18 20  1  0  0  0
 18113  1  0  0  0
 19114  1  0  0  0
 19115  1  0  0  0
 19116  1  0  0  0
 20117  1  0  0  0
 20118  1  0  0  0
 20119  1  0  0  0
 21 22  1  0  0  0
 21120  1  0  0  0
 22 23  1  0  0  0
 22121  1  0  0  0
 22122  1  0  0  0
 23 24  2  0  0  0
 23 25  1  0  0  0
 25 26  1  0  0  0
 25123  1  0  0  0
 26 27  1  0  0  0
 26 29  1  0  0  0
 26124  1  0  0  0
 27 28  2  0  0  0
 27 36  1  0  0  0
 29 30  1  0  0  0
 29125  1  0  0  0
 29126  1  0  0  0
 30 31  1  0  0  0
 30127  1  0  0  0
 30128  1  0  0  0
 31 32  1  0  0  0
 31129  1  0  0  0
 31130  1  0  0  0
 32 33  1  0  0  0
 32131  1  0  0  0
 33 34  1  0  0  0
 33 35  2  0  0  0
 34132  1  0  0  0
 34133  1  0  0  0
 35134  1  0  0  0
 36 37  1  0  0  0
 36135  1  0  0  0
 37 38  1  0  0  0
 37136  1  0  0  0
 37137  1  0  0  0
 38 39  2  0  0  0
 38 40  1  0  0  0
 40 41  1  0  0  0
 40138  1  0  0  0
 41 42  1  0  0  0
 41 44  1  0  0  0
 41139  1  0  0  0
 42 43  2  0  0  0
 42 46  1  0  0  0
 44 45  1  0  0  0
 44140  1  0  0  0
 44141  1  0  0  0
 46 47  1  0  0  0
 46142  1  0  0  0
 47 48  1  0  0  0
 47 50  1  0  0  0
 47143  1  0  0  0
 48 49  2  0  0  0
 48 55  1  0  0  0
 50 51  1  0  0  0
 50144  1  0  0  0
 50145  1  0  0  0
 51 52  1  0  0  0
 51146  1  0  0  0
 51147  1  0  0  0
 52 53  1  0  0  0
 52 54  2  0  0  0
 53148  1  0  0  0
 55 56  1  0  0  0
 55149  1  0  0  0
 56 57  1  0  0  0
 56 59  1  0  0  0
 56150  1  0  0  0
 57 58  2  0  0  0
 57 63  1  0  0  0
 59 60  1  0  0  0
 59151  1  0  0  0
 59152  1  0  0  0
 60 61  2  0  0  0
 60 62  1  0  0  0
 62153  1  0  0  0
 62154  1  0  0  0
 63 64  1  0  0  0
 63155  1  0  0  0
 64 65  1  0  0  0
 64 67  1  0  0  0
 64156  1  0  0  0
 65 66  2  0  0  0
 65 73  1  0  0  0
 67 68  1  0  0  0
 67157  1  0  0  0
 67158  1  0  0  0
 68 69  2  0  0  0
 68 70  1  0  0  0
 69 71  1  0  0  0
 70 72  2  0  0  0
 70159  1  0  0  0
 71 72  1  0  0  0
 71160  1  0  0  0
 73 74  1  0  0  0
 73161  1  0  0  0
 74 75  1  0  0  0
 74 77  1  0  0  0
 74162  1  0  0  0
 75 76  2  0  0  0
 75 84  1  0  0  0
 77 78  1  0  0  0
 77163  1  0  0  0
 77164  1  0  0  0
 78 79  1  0  0  0
 78165  1  0  0  0
 78166  1  0  0  0
 79 80  1  0  0  0
 79167  1  0  0  0
 79168  1  0  0  0
 80 81  1  0  0  0
 80169  1  0  0  0
 81 82  1  0  0  0
 81 83  2  0  0  0
 82170  1  0  0  0
 82171  1  0  0  0
 83172  1  0  0  0
 84 85  1  0  0  0
 84173  1  0  0  0
 85 86  1  0  0  0
 85 88  1  0  0  0
 85174  1  0  0  0
 86 87  2  0  0  0
 86 90  1  0  0  0
 88 89  1  0  0  0
 88175  1  0  0  0
 88176  1  0  0  0
 90 91  1  0  0  0
 90177  1  0  0  0
 91 92  1  0  0  0
 91 94  1  0  0  0
 91178  1  0  0  0
 92 93  2  0  0  0
 92 98  1  0  0  0
 94 95  1  0  0  0
 94179  1  0  0  0
 94180  1  0  0  0
 95 96  1  0  0  0
 95 97  1  0  0  0
 95181  1  0  0  0
 96182  1  0  0  0
 96183  1  0  0  0
 96184  1  0  0  0
 97185  1  0  0  0
 97186  1  0  0  0
 97187  1  0  0  0
 98188  1  0  0  0
 98189  1  0  0  0
M  CHG  1   1   1
M  END
> <s_m_source_file>
../4gly_ligand.sdf

> <i_m_source_file_index>
1

> <s_epik_input>
W0NAQEhdMTJbTkhdQyg9TylbQ0BASF0oW05IMytdKVtDSDJdU1NbQ0gyXVtDQEBIXShDKD1PKVtOSF1bQ0BIXShDKD1PKVtOSDJdKVtDSDJdW0NIXShbQ0gzXSlbQ0gzXSlbTkhdQyg9TylbQ0BIXShbQ0gyXVtDSDJdW0NIMl1bTkhdL0MoW05IMl0pPU5cW0hdKVtOSF1DKD1PKVtDQEhdKFtDSDJdQzM9TltDSDJdTj1bQ0hdMylbTkhdQyg9TylbQ0BIXShbQ0gyXUMoPU8pW05IMl0pW05IXUMoPU8pW0NASF0oW0NIMl1bQ0gyXUMoPU8pW09IXSlbTkhdQyg9TylbQ0BIXShbQ0gyXVNTW0NIMl0yKVtOSF1DKD1PKVtDSDJdW05IXUMoPU8pW0NASF0oW0NIMl1bQ0gyXVtDSDJdW05IXS9DKFtOSDJdKT1OXFtIXSlbTkhdQyg9TylbQ0gyXVtOSF1DKD1PKVtDQEBIXShbTkhdQzE9TylbQ0gyXVtDSF0oW0NIM10pW0NIM10=

> <s_epik_cmdline>
J2VwaWtfYXBwJywgJy1pbWFlJywgJ2xpZ2FuZF9wcm8ubWFlJywgJy1vbWFlJywgJ2xpZ2FuZF9wcmVwLm1hZScsICctbXMnLCAnMScsICctcGgnLCAnNycsICctcGh0JywgJzAuNScsICctbnQn

> <s_epik_pKa_notes>
Molecule size exceeds maximum supported for generating protonation states

> <s_epik_Chemistry_Notes>
This compound has an imine and may undergo hydrolysis.

$$$$
