4gm3_ligand
                    3D
 Schrodinger Suite 2020-3.
 98100  0  0  1  0            999 V2000
    4.9690   17.5930  -47.3510 C   0  0  0  0  0  0
    5.2500   17.9520  -48.8260 C   0  0  0  0  0  0
    5.4670   19.4340  -48.8840 C   0  0  0  0  0  0
    6.4470   17.1070  -49.3250 C   0  0  0  0  0  0
    6.7210   16.1780  -48.5880 O   0  0  0  0  0  0
    8.3630   16.5460  -51.0250 C   0  0  0  0  0  0
    8.5030   15.2360  -50.0220 C   0  0  0  0  0  0
    8.2160   16.0190  -52.5050 C   0  0  0  0  0  0
    7.1660   17.3570  -50.5140 N   0  0  0  0  0  0
    7.7900   14.2680  -50.2350 O   0  0  0  0  0  0
    9.6560   17.3280  -50.7880 C   0  0  0  0  0  0
   10.3790   17.7940  -52.0150 C   0  0  0  0  0  0
    8.8760   14.7020  -52.9410 C   0  0  0  0  0  0
    9.3510   15.1950  -48.9050 N   0  0  0  0  0  0
    9.5500   14.0660  -47.9050 C   0  0  2  0  0  0
    8.2630   13.1120  -47.6960 C   0  0  0  0  0  0
    8.4960   11.9340  -47.4330 O   0  0  0  0  0  0
    9.8500   14.6640  -46.4650 C   0  0  0  0  0  0
   10.1760   13.6510  -45.3400 C   0  0  0  0  0  0
   10.5130   14.2870  -43.9340 C   0  0  0  0  0  0
   11.7790   15.0210  -43.9090 N   0  0  0  0  0  0
   12.9530   14.3520  -44.3400 C   0  0  0  0  0  0
   14.1880   14.7970  -44.4200 N   0  3  0  0  0  0
   12.7400   13.0090  -44.7330 N   0  0  0  0  0  0
    6.9380   13.5980  -47.8020 N   0  0  0  0  0  0
    4.2300   11.3880  -48.9850 O   0  0  0  0  0  0
    5.6240   12.8660  -47.6460 C   0  0  0  0  0  0
    5.1740   12.1790  -48.9890 C   0  0  0  0  0  0
    5.6310   11.9790  -46.4190 C   0  0  0  0  0  0
    4.5180   13.9140  -47.3040 C   0  0  0  0  0  0
    5.5120   12.9840  -45.2760 C   0  0  0  0  0  0
    4.5460   14.0730  -45.7890 C   0  0  0  0  0  0
    5.8420   12.4650  -50.1690 N   0  0  0  0  0  0
    5.5010   11.8780  -51.4370 C   0  0  0  0  0  0
    4.7740   12.7780  -52.4190 C   0  0  0  0  0  0
    6.1840   10.6140  -52.0160 C   0  0  0  0  0  0
    5.4680    9.4530  -52.3360 C   0  0  0  0  0  0
    6.1070    8.3180  -52.8350 C   0  0  0  0  0  0
    7.4910    8.3030  -53.0190 C   0  0  0  0  0  0
    8.2350    9.4470  -52.6970 C   0  0  0  0  0  0
    7.5920   10.5840  -52.2020 C   0  0  0  0  0  0
    4.0560   12.1890  -53.4610 C   0  0  0  0  0  0
    3.3700   12.9720  -54.3760 C   0  0  0  0  0  0
    3.3800   14.3540  -54.2570 C   0  0  0  0  0  0
    4.0810   14.9520  -53.2240 C   0  0  0  0  0  0
    4.7640   14.1700  -52.3040 C   0  0  0  0  0  0
    4.1193   18.1877  -46.9844 H   0  0  0  0  0  0
    5.8596   17.8130  -46.7440 H   0  0  0  0  0  0
    4.7278   16.5225  -47.2737 H   0  0  0  0  0  0
    4.4104   17.7460  -49.5062 H   0  0  0  0  0  0
    4.5699   19.9507  -48.5123 H   0  0  0  0  0  0
    5.6596   19.7359  -49.9241 H   0  0  0  0  0  0
    6.3307   19.7029  -48.2582 H   0  0  0  0  0  0
    7.1517   15.8617  -52.7342 H   0  0  0  0  0  0
    8.6354   16.7600  -53.2014 H   0  0  0  0  0  0
    6.7990   18.2187  -51.0908 H   0  0  0  0  0  0
    9.4352   18.2329  -50.2028 H   0  0  0  0  0  0
   10.3690   16.6987  -50.2352 H   0  0  0  0  0  0
   11.2870   18.3404  -51.7202 H   0  0  0  0  0  0
    9.7234   18.4589  -52.5965 H   0  0  0  0  0  0
   10.6572   16.9247  -52.6289 H   0  0  0  0  0  0
    8.6551   14.5149  -54.0022 H   0  0  0  0  0  0
    8.4808   13.8749  -52.3329 H   0  0  0  0  0  0
    9.9646   14.7732  -52.8001 H   0  0  0  0  0  0
    9.9164   16.1322  -48.7961 H   0  0  0  0  0  0
   10.3877   13.5200  -48.3634 H   0  0  0  0  0  0
   10.7195   15.3355  -46.5207 H   0  0  0  0  0  0
    8.9737   15.2274  -46.1121 H   0  0  0  0  0  0
    9.3130   12.9872  -45.1830 H   0  0  0  0  0  0
   11.0519   13.0515  -45.6288 H   0  0  0  0  0  0
    9.7189   14.9938  -43.6515 H   0  0  0  0  0  0
   10.5810   13.4907  -43.1782 H   0  0  0  0  0  0
   11.8030   16.0646  -43.5620 H   0  0  0  0  0  0
   14.4195   15.8323  -44.1292 H   0  0  0  0  0  0
   11.7294   12.5769  -44.6894 H   0  0  0  0  0  0
   13.5851   12.3974  -45.0820 H   0  0  0  0  0  0
    6.9444   14.6734  -48.0333 H   0  0  0  0  0  0
    4.7795   11.2841  -46.4641 H   0  0  0  0  0  0
    6.5698   11.4068  -46.3855 H   0  0  0  0  0  0
    4.7455   14.8649  -47.8081 H   0  0  0  0  0  0
    3.5414   13.5417  -47.6470 H   0  0  0  0  0  0
    5.1131   12.4791  -44.3838 H   0  0  0  0  0  0
    6.5046   13.4001  -45.0488 H   0  0  0  0  0  0
    4.9050   15.0807  -45.5327 H   0  0  0  0  0  0
    3.5320   13.9316  -45.3867 H   0  0  0  0  0  0
    6.6728   13.1828  -50.1008 H   0  0  0  0  0  0
    4.8104   11.3595  -50.7557 H   0  0  0  0  0  0
    4.3877    9.4364  -52.1918 H   0  0  0  0  0  0
    5.5200    7.4339  -53.0838 H   0  0  0  0  0  0
    7.9866    7.4135  -53.4079 H   0  0  0  0  0  0
    9.3165    9.4491  -52.8331 H   0  0  0  0  0  0
    8.1825   11.4659  -51.9535 H   0  0  0  0  0  0
    4.0346   11.1034  -53.5560 H   0  0  0  0  0  0
    2.8212   12.5006  -55.1913 H   0  0  0  0  0  0
    2.8369   14.9679  -54.9755 H   0  0  0  0  0  0
    4.0963   16.0381  -53.1334 H   0  0  0  0  0  0
    5.2986   14.6470  -51.4825 H   0  0  0  0  0  0
   14.9895   14.1339  -44.7777 H   0  0  0  0  0  0
  1  2  1  0  0  0
  1 47  1  0  0  0
  1 48  1  0  0  0
  1 49  1  0  0  0
  2  3  1  0  0  0
  2  4  1  0  0  0
  2 50  1  0  0  0
  3 51  1  0  0  0
  3 52  1  0  0  0
  3 53  1  0  0  0
  4  5  2  0  0  0
  4  9  1  0  0  0
  6  7  1  0  0  0
  6  8  1  0  0  0
  6  9  1  0  0  0
  6 11  1  0  0  0
  7 10  2  0  0  0
  7 14  1  0  0  0
  8 13  1  0  0  0
  8 54  1  0  0  0
  8 55  1  0  0  0
  9 56  1  0  0  0
 11 12  1  0  0  0
 11 57  1  0  0  0
 11 58  1  0  0  0
 12 59  1  0  0  0
 12 60  1  0  0  0
 12 61  1  0  0  0
 13 62  1  0  0  0
 13 63  1  0  0  0
 13 64  1  0  0  0
 14 15  1  0  0  0
 14 65  1  0  0  0
 15 16  1  0  0  0
 15 18  1  0  0  0
 15 66  1  0  0  0
 16 17  2  0  0  0
 16 25  1  0  0  0
 18 19  1  0  0  0
 18 67  1  0  0  0
 18 68  1  0  0  0
 19 20  1  0  0  0
 19 69  1  0  0  0
 19 70  1  0  0  0
 20 21  1  0  0  0
 20 71  1  0  0  0
 20 72  1  0  0  0
 21 22  1  0  0  0
 21 73  1  0  0  0
 22 23  2  0  0  0
 22 24  1  0  0  0
 23 74  1  0  0  0
 23 98  1  0  0  0
 24 75  1  0  0  0
 24 76  1  0  0  0
 25 27  1  0  0  0
 25 77  1  0  0  0
 26 28  2  0  0  0
 27 28  1  0  0  0
 27 29  1  0  0  0
 27 30  1  0  0  0
 28 33  1  0  0  0
 29 31  1  0  0  0
 29 78  1  0  0  0
 29 79  1  0  0  0
 30 32  1  0  0  0
 30 80  1  0  0  0
 30 81  1  0  0  0
 31 32  1  0  0  0
 31 82  1  0  0  0
 31 83  1  0  0  0
 32 84  1  0  0  0
 32 85  1  0  0  0
 33 34  1  0  0  0
 33 86  1  0  0  0
 34 35  1  0  0  0
 34 36  1  0  0  0
 34 87  1  0  0  0
 35 42  2  0  0  0
 35 46  1  0  0  0
 36 37  2  0  0  0
 36 41  1  0  0  0
 37 38  1  0  0  0
 37 88  1  0  0  0
 38 39  2  0  0  0
 38 89  1  0  0  0
 39 40  1  0  0  0
 39 90  1  0  0  0
 40 41  2  0  0  0
 40 91  1  0  0  0
 41 92  1  0  0  0
 42 43  1  0  0  0
 42 93  1  0  0  0
 43 44  2  0  0  0
 43 94  1  0  0  0
 44 45  1  0  0  0
 44 95  1  0  0  0
 45 46  2  0  0  0
 45 96  1  0  0  0
 46 97  1  0  0  0
M  CHG  1  23   1
M  END
> <s_m_source_file>
../4gm3_ligand.sdf

> <i_m_source_file_index>
1

> <s_epik_input>
W0NIM11bQ0hdKFtDSDNdKUMoPU8pW05IXUMoW0NIMl1bQ0gzXSkoW0NIMl1bQ0gzXSlDKD1PKVtOSF1bQ0BASF0oW0NIMl1bQ0gyXVtDSDJdW05IXS9DKD1OXFtIXSlbTkgyXSlDKD1PKVtOSF1DMShbQ0gyXVtDSDJdW0NIMl1bQ0gyXTEpQyg9TylbTkhdW0NIXShjMltjSF1bY0hdW2NIXVtjSF1bY0hdMiljM1tjSF1bY0hdW2NIXVtjSF1bY0hdMw==

> <s_epik_cmdline>
J2VwaWtfYXBwJywgJy1pbWFlJywgJ2xpZ2FuZF9wcm8ubWFlJywgJy1vbWFlJywgJ2xpZ2FuZF9wcmVwLm1hZScsICctbXMnLCAnMScsICctcGgnLCAnNycsICctcGh0JywgJzAuNScsICctbnQn

> <r_lp_tautomer_probability>
1

> <r_epik_Ionization_Penalty>
  0.0000

> <r_epik_Ionization_Penalty_Charging>
  0.0000

> <r_epik_Ionization_Penalty_Neutral>
  0.0000

> <r_epik_State_Penalty>
 -0.0000

> <r_epik_Charging_Adjusted_Penalty>
1.5689896295643e-05

> <i_epik_Tot_Q>
1

> <i_epik_Tot_abs_Q>
1

> <s_epik_Chemistry_Notes>
This compound has an imine and may undergo hydrolysis.

$$$$
