4gm8_ligand
                    3D
 Schrodinger Suite 2020-3.
 98100  0  0  1  0            999 V2000
   11.7350  -16.8730   34.4450 C   0  0  0  0  0  0
   11.1110  -16.6020   35.7810 C   0  0  0  0  0  0
   10.7210  -17.8690   36.5170 C   0  0  0  0  0  0
   11.9750  -15.6460   36.6390 C   0  0  0  0  0  0
   11.4910  -14.4070   36.4730 O   0  0  0  0  0  0
   13.9720  -15.3790   38.0480 C   0  0  0  0  0  0
   14.1320  -13.9720   37.3840 C   0  0  0  0  0  0
   13.3920  -15.0970   39.3910 C   0  0  0  0  0  0
   12.9970  -16.2690   37.3390 N   0  0  0  0  0  0
   13.7480  -12.9950   38.2300 O   0  0  0  0  0  0
   15.3010  -16.0680   38.1310 C   0  0  0  0  0  0
   16.1120  -15.3900   39.2060 C   0  0  0  0  0  0
   12.9840  -16.3230   40.1760 C   0  0  0  0  0  0
   14.6350  -14.0690   36.0990 N   0  0  0  0  0  0
   14.9360  -12.8250   35.3180 C   0  0  2  0  0  0
   13.7580  -11.8300   35.1560 C   0  0  0  0  0  0
   14.2240  -10.5780   35.1610 O   0  0  0  0  0  0
   15.5140  -13.2370   33.9930 C   0  0  0  0  0  0
   16.3220  -12.1190   33.4070 C   0  0  0  0  0  0
   16.1910  -12.2530   31.8960 C   0  0  0  0  0  0
   16.9820  -13.4220   31.4410 N   0  0  0  0  0  0
   18.3580  -13.3430   31.5470 C   0  0  0  0  0  0
   18.9570  -12.1060   31.5420 N   0  0  0  0  0  0
   19.5040  -14.0550   31.4820 N   0  3  0  0  0  0
   12.5470  -12.4880   35.0840 N   0  0  0  0  0  0
    9.7810  -10.0890   35.9010 O   0  0  0  0  0  0
   11.2500  -11.7260   34.9630 C   0  0  0  0  0  0
   10.8550  -10.8370   36.2020 C   0  0  0  0  0  0
   11.3400  -10.8800   33.7510 C   0  0  0  0  0  0
   10.2330  -12.7350   34.6660 C   0  0  0  0  0  0
   11.1060  -11.8700   32.6350 C   0  0  0  0  0  0
   10.6160  -13.1480   33.2600 C   0  0  0  0  0  0
   11.6680  -10.9500   37.3420 N   0  0  0  0  0  0
   11.1850  -10.2050   38.5280 C   0  0  0  0  0  0
   10.6010  -11.2820   39.4180 C   0  0  0  0  0  0
   12.2530   -9.3180   39.1850 C   0  0  0  0  0  0
   12.1970   -7.9280   38.9420 C   0  0  0  0  0  0
   13.1380   -7.0530   39.5040 C   0  0  0  0  0  0
   14.1450   -7.5780   40.3110 C   0  0  0  0  0  0
   14.2170   -8.9660   40.5580 C   0  0  0  0  0  0
   13.2650   -9.8440   39.9910 C   0  0  0  0  0  0
    9.4510  -11.1280   40.1840 C   0  0  0  0  0  0
    8.9950  -12.2300   40.9360 C   0  0  0  0  0  0
    9.6810  -13.4570   40.8900 C   0  0  0  0  0  0
   10.8020  -13.5940   40.1050 C   0  0  0  0  0  0
   11.2580  -12.5070   39.3600 C   0  0  0  0  0  0
   15.0380   -6.7430   40.8400 F   0  0  0  0  0  0
    9.2940  -14.5200   41.5890 F   0  0  0  0  0  0
   11.0901  -17.5542   33.8705 H   0  0  0  0  0  0
   12.7221  -17.3366   34.5887 H   0  0  0  0  0  0
   11.8506  -15.9270   33.8957 H   0  0  0  0  0  0
   10.1594  -16.0976   35.5574 H   0  0  0  0  0  0
   10.1111  -18.5034   35.8570 H   0  0  0  0  0  0
   10.1402  -17.6080   37.4140 H   0  0  0  0  0  0
   11.6288  -18.4147   36.8139 H   0  0  0  0  0  0
   14.1307  -14.5597   40.0039 H   0  0  0  0  0  0
   12.4896  -14.4782   39.2781 H   0  0  0  0  0  0
   13.1124  -17.3618   37.3896 H   0  0  0  0  0  0
   15.1493  -17.1282   38.3818 H   0  0  0  0  0  0
   15.8154  -15.9905   37.1618 H   0  0  0  0  0  0
   17.0944  -15.8782   39.2870 H   0  0  0  0  0  0
   15.5836  -15.4674   40.1677 H   0  0  0  0  0  0
   16.2497  -14.3297   38.9476 H   0  0  0  0  0  0
   12.5696  -16.0153   41.1474 H   0  0  0  0  0  0
   13.8633  -16.9635   40.3388 H   0  0  0  0  0  0
   12.2222  -16.8821   39.6129 H   0  0  0  0  0  0
   14.8142  -15.0571   35.6501 H   0  0  0  0  0  0
   15.6858  -12.2749   35.9055 H   0  0  0  0  0  0
   16.1632  -14.1139   34.1329 H   0  0  0  0  0  0
   14.6983  -13.4915   33.3003 H   0  0  0  0  0  0
   15.9224  -11.1556   33.7565 H   0  0  0  0  0  0
   17.3703  -12.2183   33.7252 H   0  0  0  0  0  0
   15.1331  -12.3968   31.6310 H   0  0  0  0  0  0
   16.5692  -11.3401   31.4128 H   0  0  0  0  0  0
   16.4709  -14.3085   31.0375 H   0  0  0  0  0  0
   18.3404  -11.1961   31.5865 H   0  0  0  0  0  0
   20.0530  -12.0258   31.4935 H   0  0  0  0  0  0
   19.4683  -15.1543   31.4638 H   0  0  0  0  0  0
   12.5380  -13.5875   35.1162 H   0  0  0  0  0  0
   10.5688  -10.0967   33.7925 H   0  0  0  0  0  0
   12.3348  -10.4130   33.7028 H   0  0  0  0  0  0
   10.3066  -13.5554   35.3950 H   0  0  0  0  0  0
    9.2342  -12.2782   34.7277 H   0  0  0  0  0  0
   10.3534  -11.4684   31.9405 H   0  0  0  0  0  0
   12.0484  -12.0429   32.0946 H   0  0  0  0  0  0
   11.4003  -13.9180   33.3048 H   0  0  0  0  0  0
    9.7334  -13.5533   32.7436 H   0  0  0  0  0  0
   12.5989  -11.5331   37.4003 H   0  0  0  0  0  0
   10.4212   -9.4665   38.2429 H   0  0  0  0  0  0
   11.4077   -7.5277   38.3058 H   0  0  0  0  0  0
   13.0825   -5.9813   39.3128 H   0  0  0  0  0  0
   15.0115   -9.3632   41.1898 H   0  0  0  0  0  0
   13.3201  -10.9160   40.1802 H   0  0  0  0  0  0
    8.9153  -10.1789   40.2027 H   0  0  0  0  0  0
    8.1049  -12.1304   41.5572 H   0  0  0  0  0  0
   11.3307  -14.5464   40.0655 H   0  0  0  0  0  0
   12.1377  -12.6181   38.7261 H   0  0  0  0  0  0
   20.4730  -13.5356   31.4472 H   0  0  0  0  0  0
  1  2  1  0  0  0
  1 49  1  0  0  0
  1 50  1  0  0  0
  1 51  1  0  0  0
  2  3  1  0  0  0
  2  4  1  0  0  0
  2 52  1  0  0  0
  3 53  1  0  0  0
  3 54  1  0  0  0
  3 55  1  0  0  0
  4  5  2  0  0  0
  4  9  1  0  0  0
  6  7  1  0  0  0
  6  8  1  0  0  0
  6  9  1  0  0  0
  6 11  1  0  0  0
  7 10  2  0  0  0
  7 14  1  0  0  0
  8 13  1  0  0  0
  8 56  1  0  0  0
  8 57  1  0  0  0
  9 58  1  0  0  0
 11 12  1  0  0  0
 11 59  1  0  0  0
 11 60  1  0  0  0
 12 61  1  0  0  0
 12 62  1  0  0  0
 12 63  1  0  0  0
 13 64  1  0  0  0
 13 65  1  0  0  0
 13 66  1  0  0  0
 14 15  1  0  0  0
 14 67  1  0  0  0
 15 16  1  0  0  0
 15 18  1  0  0  0
 15 68  1  0  0  0
 16 17  2  0  0  0
 16 25  1  0  0  0
 18 19  1  0  0  0
 18 69  1  0  0  0
 18 70  1  0  0  0
 19 20  1  0  0  0
 19 71  1  0  0  0
 19 72  1  0  0  0
 20 21  1  0  0  0
 20 73  1  0  0  0
 20 74  1  0  0  0
 21 22  1  0  0  0
 21 75  1  0  0  0
 22 23  1  0  0  0
 22 24  2  0  0  0
 23 76  1  0  0  0
 23 77  1  0  0  0
 24 78  1  0  0  0
 24 98  1  0  0  0
 25 27  1  0  0  0
 25 79  1  0  0  0
 26 28  2  0  0  0
 27 28  1  0  0  0
 27 29  1  0  0  0
 27 30  1  0  0  0
 28 33  1  0  0  0
 29 31  1  0  0  0
 29 80  1  0  0  0
 29 81  1  0  0  0
 30 32  1  0  0  0
 30 82  1  0  0  0
 30 83  1  0  0  0
 31 32  1  0  0  0
 31 84  1  0  0  0
 31 85  1  0  0  0
 32 86  1  0  0  0
 32 87  1  0  0  0
 33 34  1  0  0  0
 33 88  1  0  0  0
 34 35  1  0  0  0
 34 36  1  0  0  0
 34 89  1  0  0  0
 35 42  2  0  0  0
 35 46  1  0  0  0
 36 37  2  0  0  0
 36 41  1  0  0  0
 37 38  1  0  0  0
 37 90  1  0  0  0
 38 39  2  0  0  0
 38 91  1  0  0  0
 39 40  1  0  0  0
 39 47  1  0  0  0
 40 41  2  0  0  0
 40 92  1  0  0  0
 41 93  1  0  0  0
 42 43  1  0  0  0
 42 94  1  0  0  0
 43 44  2  0  0  0
 43 95  1  0  0  0
 44 45  1  0  0  0
 44 48  1  0  0  0
 45 46  2  0  0  0
 45 96  1  0  0  0
 46 97  1  0  0  0
M  CHG  1  24   1
M  END
> <s_m_source_file>
../4gm8_ligand.sdf

> <i_m_source_file_index>
1

> <s_epik_input>
W0NIM11bQ0hdKFtDSDNdKUMoPU8pW05IXUMoW0NIMl1bQ0gzXSkoW0NIMl1bQ0gzXSlDKD1PKVtOSF1bQ0BASF0oW0NIMl1bQ0gyXVtDSDJdW05IXS9DKFtOSDJdKT1OXFtIXSlDKD1PKVtOSF1DMShbQ0gyXVtDSDJdW0NIMl1bQ0gyXTEpQyg9TylbTkhdW0NIXShjMltjSF1bY0hdYyhGKVtjSF1bY0hdMiljM1tjSF1bY0hdYyhGKVtjSF1bY0hdMw==

> <s_epik_cmdline>
J2VwaWtfYXBwJywgJy1pbWFlJywgJ2xpZ2FuZF9wcm8ubWFlJywgJy1vbWFlJywgJ2xpZ2FuZF9wcmVwLm1hZScsICctbXMnLCAnMScsICctcGgnLCAnNycsICctcGh0JywgJzAuNScsICctbnQn

> <r_lp_tautomer_probability>
1

> <r_epik_Ionization_Penalty>
  0.0000

> <r_epik_Ionization_Penalty_Charging>
  0.0000

> <r_epik_Ionization_Penalty_Neutral>
  0.0000

> <r_epik_State_Penalty>
 -0.0000

> <r_epik_Charging_Adjusted_Penalty>
2.82880843743756e-06

> <i_epik_Tot_Q>
1

> <i_epik_Tot_abs_Q>
1

> <s_epik_Chemistry_Notes>
This compound has an imine and may undergo hydrolysis.

$$$$
