4gmc_ligand
                    3D
 Schrodinger Suite 2020-3.
 73 78  0  0  1  0            999 V2000
  -23.7390  -16.9060  -30.4580 C   0  0  0  0  0  0
  -25.1170  -16.4000  -30.3710 C   0  0  0  0  0  0
  -25.4360  -15.2330  -29.5410 C   0  0  0  0  0  0
  -24.3710  -14.5790  -28.8020 C   0  0  0  0  0  0
  -22.9840  -15.0910  -28.8910 C   0  0  0  0  0  0
  -22.6790  -16.2420  -29.7170 C   0  0  0  0  0  0
  -26.6680  -14.5510  -29.2710 N   0  0  0  0  0  0
  -26.3920  -13.4590  -28.3610 C   0  0  0  0  0  0
  -24.9700  -13.4670  -28.0540 C   0  0  0  0  0  0
  -24.1970  -12.4700  -27.1050 C   0  0  0  0  0  0
  -23.6280  -13.2220  -25.8400 C   0  0  0  0  0  0
  -22.8280  -12.2870  -24.8900 C   0  0  0  0  0  0
  -21.7070  -11.5070  -25.6380 C   0  0  0  0  0  0
  -22.1990  -10.7850  -26.9340 C   0  0  0  0  0  0
  -23.0310  -11.7060  -27.8750 C   0  0  0  0  0  0
  -27.4060  -12.5220  -27.8210 C   0  0  0  0  0  0
  -28.3030  -11.6950  -28.5600 C   0  0  0  0  0  0
  -29.0540  -11.0020  -27.6220 C   0  0  0  0  0  0
  -28.6700  -11.3540  -26.3470 O   0  0  0  0  0  0
  -27.6650  -12.2810  -26.4780 C   0  0  0  0  0  0
  -23.4120  -18.1240  -31.3290 C   0  0  0  0  0  0
  -22.3100  -18.7340  -31.3910 O   0  5  0  0  0  0
  -24.6520  -18.4370  -32.1050 N   0  0  0  0  0  0
  -28.0340  -14.9010  -29.8410 C   0  0  0  0  0  0
  -28.1640  -14.8130  -31.4120 C   0  0  0  0  0  0
  -27.1990  -14.3680  -32.0980 O   0  0  0  0  0  0
  -29.4010  -15.2500  -32.0850 N   0  0  0  0  0  0
  -30.5940  -15.7920  -31.2890 C   0  0  0  0  0  0
  -31.9150  -15.0640  -31.6930 C   0  0  0  0  0  0
  -32.0850  -14.9480  -33.2580 O   0  0  0  0  0  0
  -30.8040  -14.4420  -34.0300 C   0  0  0  0  0  0
  -29.5080  -15.1680  -33.5850 C   0  0  0  0  0  0
  -24.6160  -19.6160  -33.0980 S   0  0  0  0  0  0
  -23.9480  -20.6830  -32.5770 O   0  0  0  0  0  0
  -25.9110  -19.9610  -33.3870 O   0  0  0  0  0  0
  -23.7770  -19.0350  -34.6060 C   0  0  0  0  0  0
  -22.3630  -18.7910  -34.5770 C   0  0  0  0  0  0
  -21.6830  -18.3310  -35.7470 C   0  0  0  0  0  0
  -22.4290  -18.1140  -36.9600 C   0  0  0  0  0  0
  -23.8520  -18.3590  -36.9960 C   0  0  0  0  0  0
  -24.5240  -18.8180  -35.8160 C   0  0  0  0  0  0
  -25.9101  -16.8974  -30.9293 H   0  0  0  0  0  0
  -22.1880  -14.5992  -28.3319 H   0  0  0  0  0  0
  -21.6550  -16.6098  -29.7827 H   0  0  0  0  0  0
  -24.9269  -11.7226  -26.7605 H   0  0  0  0  0  0
  -24.4605  -13.6522  -25.2640 H   0  0  0  0  0  0
  -22.9525  -14.0270  -26.1650 H   0  0  0  0  0  0
  -23.5109  -11.5530  -24.4374 H   0  0  0  0  0  0
  -22.3563  -12.8863  -24.0974 H   0  0  0  0  0  0
  -21.2901  -10.7364  -24.9729 H   0  0  0  0  0  0
  -20.9103  -12.2049  -25.9352 H   0  0  0  0  0  0
  -22.8357   -9.9312  -26.6588 H   0  0  0  0  0  0
  -21.3306  -10.4256  -27.5057 H   0  0  0  0  0  0
  -22.3454  -12.4401  -28.3235 H   0  0  0  0  0  0
  -23.4648  -11.0779  -28.6670 H   0  0  0  0  0  0
  -28.3824  -11.6222  -29.6447 H   0  0  0  0  0  0
  -29.8365  -10.2815  -27.8600 H   0  0  0  0  0  0
  -27.1455  -12.7588  -25.6474 H   0  0  0  0  0  0
  -28.2912  -15.9351  -29.5681 H   0  0  0  0  0  0
  -28.7894  -14.2148  -29.4305 H   0  0  0  0  0  0
  -30.7094  -16.8676  -31.4882 H   0  0  0  0  0  0
  -30.4196  -15.6348  -30.2143 H   0  0  0  0  0  0
  -32.7768  -15.6224  -31.2986 H   0  0  0  0  0  0
  -31.9153  -14.0464  -31.2754 H   0  0  0  0  0  0
  -30.9332  -14.6162  -35.1084 H   0  0  0  0  0  0
  -30.6663  -13.3662  -33.8463 H   0  0  0  0  0  0
  -28.6463  -14.6129  -33.9842 H   0  0  0  0  0  0
  -29.5179  -16.1834  -34.0080 H   0  0  0  0  0  0
  -21.8038  -18.9576  -33.6563 H   0  0  0  0  0  0
  -20.6091  -18.1460  -35.7216 H   0  0  0  0  0  0
  -21.9167  -17.7629  -37.8558 H   0  0  0  0  0  0
  -24.4124  -18.1956  -37.9165 H   0  0  0  0  0  0
  -25.5982  -19.0021  -35.8355 H   0  0  0  0  0  0
  1  2  2  0  0  0
  1  6  1  0  0  0
  1 21  1  0  0  0
  2  3  1  0  0  0
  2 42  1  0  0  0
  3  4  2  0  0  0
  3  7  1  0  0  0
  4  5  1  0  0  0
  4  9  1  0  0  0
  5  6  2  0  0  0
  5 43  1  0  0  0
  6 44  1  0  0  0
  7  8  1  0  0  0
  7 24  1  0  0  0
  8  9  2  0  0  0
  8 16  1  0  0  0
  9 10  1  0  0  0
 10 11  1  0  0  0
 10 15  1  0  0  0
 10 45  1  0  0  0
 11 12  1  0  0  0
 11 46  1  0  0  0
 11 47  1  0  0  0
 12 13  1  0  0  0
 12 48  1  0  0  0
 12 49  1  0  0  0
 13 14  1  0  0  0
 13 50  1  0  0  0
 13 51  1  0  0  0
 14 15  1  0  0  0
 14 52  1  0  0  0
 14 53  1  0  0  0
 15 54  1  0  0  0
 15 55  1  0  0  0
 16 17  1  0  0  0
 16 20  2  0  0  0
 17 18  2  0  0  0
 17 56  1  0  0  0
 18 19  1  0  0  0
 18 57  1  0  0  0
 19 20  1  0  0  0
 20 58  1  0  0  0
 21 22  1  0  0  0
 21 23  2  0  0  0
 23 33  1  0  0  0
 24 25  1  0  0  0
 24 59  1  0  0  0
 24 60  1  0  0  0
 25 26  2  0  0  0
 25 27  1  0  0  0
 27 28  1  0  0  0
 27 32  1  0  0  0
 28 29  1  0  0  0
 28 61  1  0  0  0
 28 62  1  0  0  0
 29 30  1  0  0  0
 29 63  1  0  0  0
 29 64  1  0  0  0
 30 31  1  0  0  0
 31 32  1  0  0  0
 31 65  1  0  0  0
 31 66  1  0  0  0
 32 67  1  0  0  0
 32 68  1  0  0  0
 33 34  2  0  0  0
 33 35  2  0  0  0
 33 36  1  0  0  0
 36 37  2  0  0  0
 36 41  1  0  0  0
 37 38  1  0  0  0
 37 69  1  0  0  0
 38 39  2  0  0  0
 38 70  1  0  0  0
 39 40  1  0  0  0
 39 71  1  0  0  0
 40 41  2  0  0  0
 40 72  1  0  0  0
 41 73  1  0  0  0
M  CHG  1  22  -1
M  END
> <s_m_source_file>
../4gmc_ligand.sdf

> <i_m_source_file_index>
1

> <s_epik_input>
W2NIXTFbY0hdW2NIXVtjSF1bY0hdYzFTKD1PKSg9TylbTkhdQyg9TyljKFtjSF0yKVtjSF1bY0hdYyhjMjMpYyhbQ0hdNFtDSDJdW0NIMl1bQ0gyXVtDSDJdW0NIMl00KWMoLWM1W2NIXVtjSF1vW2NIXTUpbjNbQ0gyXUMoPU8pTjZbQ0gyXVtDSDJdT1tDSDJdW0NIMl02

> <s_epik_cmdline>
J2VwaWtfYXBwJywgJy1pbWFlJywgJ2xpZ2FuZF9wcm8ubWFlJywgJy1vbWFlJywgJ2xpZ2FuZF9wcmVwLm1hZScsICctbXMnLCAnMScsICctcGgnLCAnNycsICctcGh0JywgJzAuNScsICctbnQn

> <r_lp_tautomer_probability>
1

> <r_epik_Ionization_Penalty>
  0.0041

> <r_epik_Ionization_Penalty_Charging>
  0.0041

> <r_epik_Ionization_Penalty_Neutral>
  0.0000

> <r_epik_State_Penalty>
 -0.0000

> <r_epik_Charging_Adjusted_Penalty>
0.00413225924845021

> <i_epik_Tot_Q>
-1

> <i_epik_Tot_abs_Q>
1

$$$$
