4gmy_ligand
                    3D
 Schrodinger Suite 2020-3.
 36 38  0  0  1  0            999 V2000
   11.9250  -22.7630    4.8800 C   0  0  0  0  0  0
   11.7070  -21.9000    3.7930 C   0  0  0  0  0  0
   12.2370  -20.6260    3.8140 C   0  0  0  0  0  0
    9.3480  -25.5150    5.1040 C   0  0  0  0  0  0
   11.3780  -24.1440    4.9180 C   0  0  0  0  0  0
    9.9140  -26.7900    5.1580 C   0  0  0  0  0  0
    9.1120  -27.9070    5.2740 C   0  0  0  0  0  0
   12.6700  -22.2890    5.9710 C   0  0  0  0  0  0
   12.9740  -20.1800    4.8910 C   0  0  0  0  0  0
   13.1910  -21.0120    5.9690 C   0  0  0  0  0  0
   10.7840  -22.3710    2.4030 Cl  0  0  0  0  0  0
   12.1390  -25.0940    4.8570 O   0  0  0  0  0  0
   10.0460  -24.3040    5.0250 N   0  0  0  0  0  0
    7.7960  -27.7790    5.3270 N   0  0  0  0  0  0
    7.2090  -26.5890    5.2760 C   0  0  0  0  0  0
    7.9720  -25.4420    5.1870 C   0  0  0  0  0  0
    5.8170  -26.4890    5.3460 N   0  0  0  0  0  0
    5.1060  -25.4200    4.8970 C   0  0  0  0  0  0
    5.5920  -24.4300    4.3790 O   0  0  0  0  0  0
    3.6150  -25.4250    5.0160 C   0  0  0  0  0  0
    2.9590  -24.0660    5.2620 C   0  0  0  0  0  0
    2.8970  -24.7110    3.8800 C   0  0  0  0  0  0
   12.9570  -23.2980    7.3520 Cl  0  0  0  0  0  0
   12.0705  -19.9617    2.9660 H   0  0  0  0  0  0
   10.9969  -26.9040    5.1082 H   0  0  0  0  0  0
    9.5639  -28.8977    5.3221 H   0  0  0  0  0  0
   13.3847  -19.1704    4.8901 H   0  0  0  0  0  0
   13.7745  -20.6603    6.8199 H   0  0  0  0  0  0
    9.4978  -23.3506    5.0483 H   0  0  0  0  0  0
    7.4826  -24.4681    5.1822 H   0  0  0  0  0  0
    5.2282  -27.3076    5.7856 H   0  0  0  0  0  0
    3.5594  -26.4133    5.4959 H   0  0  0  0  0  0
    2.1898  -24.1660    6.0419 H   0  0  0  0  0  0
    3.7219  -23.3445    5.5898 H   0  0  0  0  0  0
    3.6059  -24.5200    3.0608 H   0  0  0  0  0  0
    2.0737  -25.3414    3.5129 H   0  0  0  0  0  0
  1  2  2  0  0  0
  1  5  1  0  0  0
  1  8  1  0  0  0
  2  3  1  0  0  0
  2 11  1  0  0  0
  3  9  2  0  0  0
  3 24  1  0  0  0
  4  6  2  0  0  0
  4 13  1  0  0  0
  4 16  1  0  0  0
  5 12  2  0  0  0
  5 13  1  0  0  0
  6  7  1  0  0  0
  6 25  1  0  0  0
  7 14  2  0  0  0
  7 26  1  0  0  0
  8 10  2  0  0  0
  8 23  1  0  0  0
  9 10  1  0  0  0
  9 27  1  0  0  0
 10 28  1  0  0  0
 13 29  1  0  0  0
 14 15  1  0  0  0
 15 16  2  0  0  0
 15 17  1  0  0  0
 16 30  1  0  0  0
 17 18  1  0  0  0
 17 31  1  0  0  0
 18 19  2  0  0  0
 18 20  1  0  0  0
 20 21  1  0  0  0
 20 22  1  0  0  0
 20 32  1  0  0  0
 21 22  1  0  0  0
 21 33  1  0  0  0
 21 34  1  0  0  0
 22 35  1  0  0  0
 22 36  1  0  0  0
M  END
> <s_m_source_file>
../4gmy_ligand.sdf

> <i_m_source_file_index>
1

> <s_epik_input>
Q2xjMVtjSF1bY0hdW2NIXWMoQ2wpYzFDKD1PKVtOSF1jMltjSF1bY0hdbmMoW2NIXTIpW05IXUMoPU8pW0NIXTNbQ0gyXVtDSDJdMw==

> <s_epik_cmdline>
J2VwaWtfYXBwJywgJy1pbWFlJywgJ2xpZ2FuZF9wcm8ubWFlJywgJy1vbWFlJywgJ2xpZ2FuZF9wcmVwLm1hZScsICctbXMnLCAnMScsICctcGgnLCAnNycsICctcGh0JywgJzAuNScsICctbnQn

> <r_lp_tautomer_probability>
1

> <r_epik_Ionization_Penalty>
  0.0020

> <r_epik_Ionization_Penalty_Charging>
  0.0000

> <r_epik_Ionization_Penalty_Neutral>
  0.0020

> <r_epik_State_Penalty>
 -0.0000

> <r_epik_Charging_Adjusted_Penalty>
0

> <i_epik_Tot_Q>
0

> <i_epik_Tot_abs_Q>
0

$$$$
