4gne_ligand
                    3D
 Schrodinger Suite 2020-3.
104103  0  0  1  0            999 V2000
    8.7300  -30.7640    9.0740 N   0  3  0  0  0  0
    8.3660  -29.4180    8.5400 C   0  0  2  0  0  0
    8.8670  -28.3260    9.4820 C   0  0  0  0  0  0
    8.9730  -28.5400   10.6930 O   0  0  0  0  0  0
    6.8650  -29.3120    8.3630 C   0  0  0  0  0  0
    9.1650  -27.1600    8.9120 N   0  0  0  0  0  0
    9.8190  -26.0550    9.6010 C   0  0  2  0  0  0
    8.8580  -24.9820   10.0500 C   0  0  0  0  0  0
    7.7930  -24.8160    9.4620 O   0  0  0  0  0  0
   10.8050  -25.3920    8.6500 C   0  0  0  0  0  0
   11.8770  -26.3230    8.1230 C   0  0  0  0  0  0
   12.4430  -25.7750    6.8150 C   0  0  0  0  0  0
   11.4060  -25.7590    5.7790 N   0  0  0  0  0  0
   11.3790  -24.9370    4.7370 C   0  0  0  0  0  0
   12.3610  -24.0600    4.5440 N   0  0  0  0  0  0
   10.3700  -25.0090    3.8740 N   0  3  0  0  0  0
    9.2790  -24.2130   11.0490 N   0  0  0  0  0  0
    8.5620  -23.0110   11.4420 C   0  0  2  0  0  0
    9.4070  -21.7410   11.3010 C   0  0  0  0  0  0
   10.6470  -21.7700   11.2430 O   0  0  0  0  0  0
    8.0530  -23.0720   12.8940 C   0  0  2  0  0  0
    9.1690  -23.1600   13.7830 O   0  0  0  0  0  0
    7.1130  -24.2620   13.1020 C   0  0  0  0  0  0
    8.7110  -20.6170   11.2380 N   0  0  0  0  0  0
    9.3420  -19.3220   11.3430 C   0  0  2  0  0  0
    8.5660  -18.5240   12.3870 C   0  0  0  0  0  0
    7.4340  -18.8820   12.7490 O   0  0  0  0  0  0
    9.3450  -18.5930    9.9950 C   0  0  0  0  0  0
    8.0040  -18.4930    9.2970 C   0  0  0  0  0  0
    8.1190  -17.6690    8.0230 C   0  0  0  0  0  0
    8.2830  -16.1910    8.3210 C   0  0  0  0  0  0
    8.5760  -15.4120    7.0860 N   0  3  0  0  0  0
    9.1830  -17.4540   12.8730 N   0  0  0  0  0  0
    8.5850  -16.6080   13.8850 C   0  0  2  0  0  0
    8.5340  -15.1900   13.3560 C   0  0  0  0  0  0
    9.5360  -14.6800   12.8440 O   0  0  0  0  0  0
    9.4270  -16.6510   15.1640 C   0  0  0  0  0  0
    8.8360  -15.8320   16.2950 C   0  0  0  0  0  0
    7.4990  -16.3550   16.7780 C   0  0  0  0  0  0
    6.5570  -15.5810   16.9850 O   0  0  0  0  0  0
    7.4070  -17.6680   16.9710 N   0  0  0  0  0  0
    7.3670  -14.5620   13.4760 N   0  0  0  0  0  0
    7.2010  -13.1530   13.1120 C   0  0  2  0  0  0
    6.6170  -12.3240   14.2540 C   0  0  0  0  0  0
    6.2749  -12.8643   15.3397 O   0  5  0  0  0  0
    6.3130  -13.0050   11.8730 C   0  0  2  0  0  0
    5.0070  -13.5300   12.1560 O   0  0  0  0  0  0
    6.9160  -13.7800   10.7300 C   0  0  0  0  0  0
    6.4752  -11.0805   14.1082 O   0  0  0  0  0  0
    9.8213  -30.8267    9.1973 H   0  0  0  0  0  0
    8.3953  -31.5404    8.3703 H   0  0  0  0  0  0
    8.2416  -30.9165   10.0477 H   0  0  0  0  0  0
    8.8472  -29.3060    7.5572 H   0  0  0  0  0  0
    6.5192  -30.1042    7.6827 H   0  0  0  0  0  0
    6.6144  -28.3287    7.9383 H   0  0  0  0  0  0
    6.3717  -29.4261    9.3395 H   0  0  0  0  0  0
    8.8854  -27.0594    7.8529 H   0  0  0  0  0  0
   10.2842  -26.5217   10.4818 H   0  0  0  0  0  0
   10.2636  -24.9954    7.7784 H   0  0  0  0  0  0
   11.3178  -24.5687    9.1688 H   0  0  0  0  0  0
   12.6869  -26.4056    8.8627 H   0  0  0  0  0  0
   11.4427  -27.3173    7.9423 H   0  0  0  0  0  0
   12.8072  -24.7494    6.9743 H   0  0  0  0  0  0
   13.2752  -26.4118    6.4803 H   0  0  0  0  0  0
   10.5659  -26.4672    5.8307 H   0  0  0  0  0  0
   13.1949  -24.0019    5.2590 H   0  0  0  0  0  0
   12.3389  -23.3932    3.6695 H   0  0  0  0  0  0
    9.5591  -25.7346    4.0352 H   0  0  0  0  0  0
   10.1950  -24.5063   11.5828 H   0  0  0  0  0  0
    7.7329  -23.0165   10.7192 H   0  0  0  0  0  0
    7.5301  -22.1430   13.1650 H   0  0  0  0  0  0
    9.9470  -22.3825   13.7678 H   0  0  0  0  0  0
    6.2602  -24.1806   12.4120 H   0  0  0  0  0  0
    6.7466  -24.2629   14.1392 H   0  0  0  0  0  0
    7.6567  -25.1976   12.9043 H   0  0  0  0  0  0
    7.6219  -20.6887   11.1015 H   0  0  0  0  0  0
   10.3851  -19.4944   11.6469 H   0  0  0  0  0  0
    9.6952  -17.5600   10.1376 H   0  0  0  0  0  0
   10.0166  -19.1148    9.2974 H   0  0  0  0  0  0
    7.6501  -19.5014    9.0366 H   0  0  0  0  0  0
    7.2769  -18.0109    9.9670 H   0  0  0  0  0  0
    8.9942  -18.0043    7.4472 H   0  0  0  0  0  0
    7.2098  -17.8004    7.4180 H   0  0  0  0  0  0
    7.3552  -15.8014    8.7653 H   0  0  0  0  0  0
    9.1150  -16.0493    9.0264 H   0  0  0  0  0  0
    8.6880  -14.3480    7.3416 H   0  0  0  0  0  0
    7.7483  -15.5324    6.3716 H   0  0  0  0  0  0
    9.5081  -15.7803    6.6327 H   0  0  0  0  0  0
   10.1831  -17.2187   12.4802 H   0  0  0  0  0  0
    7.5726  -16.9936   14.0760 H   0  0  0  0  0  0
    9.5093  -17.6906   15.5140 H   0  0  0  0  0  0
   10.4313  -16.2538   14.9554 H   0  0  0  0  0  0
    9.5246  -15.8407   17.1527 H   0  0  0  0  0  0
    8.6842  -14.7962   15.9572 H   0  0  0  0  0  0
    8.2740  -18.3152   16.7724 H   0  0  0  0  0  0
    6.4639  -18.1065   17.3292 H   0  0  0  0  0  0
    6.5111  -15.1348   13.8624 H   0  0  0  0  0  0
    8.2262  -12.8139   12.9024 H   0  0  0  0  0  0
    6.1781  -11.9489   11.5966 H   0  0  0  0  0  0
    4.4018  -13.0931   12.9640 H   0  0  0  0  0  0
    7.9176  -13.3839   10.5065 H   0  0  0  0  0  0
    6.2755  -13.6804    9.8412 H   0  0  0  0  0  0
    6.9950  -14.8414   11.0080 H   0  0  0  0  0  0
   10.3462  -24.3430    2.9989 H   0  0  0  0  0  0
  1  2  1  0  0  0
  1 50  1  0  0  0
  1 51  1  0  0  0
  1 52  1  0  0  0
  2  3  1  0  0  0
  2  5  1  0  0  0
  2 53  1  0  0  0
  3  4  2  0  0  0
  3  6  1  0  0  0
  5 54  1  0  0  0
  5 55  1  0  0  0
  5 56  1  0  0  0
  6  7  1  0  0  0
  6 57  1  0  0  0
  7  8  1  0  0  0
  7 10  1  0  0  0
  7 58  1  0  0  0
  8  9  2  0  0  0
  8 17  1  0  0  0
 10 11  1  0  0  0
 10 59  1  0  0  0
 10 60  1  0  0  0
 11 12  1  0  0  0
 11 61  1  0  0  0
 11 62  1  0  0  0
 12 13  1  0  0  0
 12 63  1  0  0  0
 12 64  1  0  0  0
 13 14  1  0  0  0
 13 65  1  0  0  0
 14 15  1  0  0  0
 14 16  2  0  0  0
 15 66  1  0  0  0
 15 67  1  0  0  0
 16 68  1  0  0  0
 16104  1  0  0  0
 17 18  1  0  0  0
 17 69  1  0  0  0
 18 19  1  0  0  0
 18 21  1  0  0  0
 18 70  1  0  0  0
 19 20  2  0  0  0
 19 24  1  0  0  0
 21 22  1  0  0  0
 21 23  1  0  0  0
 21 71  1  0  0  0
 22 72  1  0  0  0
 23 73  1  0  0  0
 23 74  1  0  0  0
 23 75  1  0  0  0
 24 25  1  0  0  0
 24 76  1  0  0  0
 25 26  1  0  0  0
 25 28  1  0  0  0
 25 77  1  0  0  0
 26 27  2  0  0  0
 26 33  1  0  0  0
 28 29  1  0  0  0
 28 78  1  0  0  0
 28 79  1  0  0  0
 29 30  1  0  0  0
 29 80  1  0  0  0
 29 81  1  0  0  0
 30 31  1  0  0  0
 30 82  1  0  0  0
 30 83  1  0  0  0
 31 32  1  0  0  0
 31 84  1  0  0  0
 31 85  1  0  0  0
 32 86  1  0  0  0
 32 87  1  0  0  0
 32 88  1  0  0  0
 33 34  1  0  0  0
 33 89  1  0  0  0
 34 35  1  0  0  0
 34 37  1  0  0  0
 34 90  1  0  0  0
 35 36  2  0  0  0
 35 42  1  0  0  0
 37 38  1  0  0  0
 37 91  1  0  0  0
 37 92  1  0  0  0
 38 39  1  0  0  0
 38 93  1  0  0  0
 38 94  1  0  0  0
 39 40  2  0  0  0
 39 41  1  0  0  0
 41 95  1  0  0  0
 41 96  1  0  0  0
 42 43  1  0  0  0
 42 97  1  0  0  0
 43 44  1  0  0  0
 43 46  1  0  0  0
 43 98  1  0  0  0
 44 45  1  0  0  0
 44 49  2  0  0  0
 46 47  1  0  0  0
 46 48  1  0  0  0
 46 99  1  0  0  0
 47100  1  0  0  0
 48101  1  0  0  0
 48102  1  0  0  0
 48103  1  0  0  0
M  CHG  4   1   1  16   1  32   1  45  -1
M  END
> <s_m_source_file>
../4gne_ligand.sdf

> <i_m_source_file_index>
1

> <s_epik_input>
W0hdL049QyhbTkgyXSlcW05IXVtDSDJdW0NIMl1bQ0gyXVtDQEhdKFtOSF1DKD1PKVtDQEBIXShbTkgzK10pW0NIM10pQyg9TylbTkhdW0NAQEhdKFtDQEhdKFtPSF0pW0NIM10pQyg9TylbTkhdW0NAQEhdKFtDSDJdW0NIMl1bQ0gyXVtDSDJdW05IMytdKUMoPU8pW05IXVtDQEBIXShbQ0gyXVtDSDJdQyg9TylbTkgyXSlDKD1PKVtOSF1bQ0BIXShDKD1PKVtPSF0pW0NASF0oW09IXSlbQ0gzXQ==

> <s_epik_cmdline>
J2VwaWtfYXBwJywgJy1pbWFlJywgJ2xpZ2FuZF9wcm8ubWFlJywgJy1vbWFlJywgJ2xpZ2FuZF9wcmVwLm1hZScsICctbXMnLCAnMScsICctcGgnLCAnNycsICctcGh0JywgJzAuNScsICctbnQn

> <r_epik_Ionization_Penalty>
  0.1256

> <r_epik_Ionization_Penalty_Charging>
  0.1256

> <r_epik_Ionization_Penalty_Neutral>
  0.0000

> <r_epik_State_Penalty>
  0.1145

> <r_epik_Charging_Adjusted_Penalty>
0.240170305354367

> <i_epik_Tot_Q>
2

> <i_epik_Tot_abs_Q>
4

> <s_epik_Chemistry_Notes>
This compound has an imine and may undergo hydrolysis.

$$$$
