4gnf_ligand
                    3D
 Schrodinger Suite 2020-3.
159158  0  0  1  0            999 V2000
   10.0910   -6.3390   17.6990 N   0  3  0  0  0  0
   10.8640   -5.5740   18.7310 C   0  0  2  0  0  0
   10.0810   -5.4800   20.0350 C   0  0  0  0  0  0
    8.8470   -5.4510   20.0140 O   0  0  0  0  0  0
   11.2110   -4.1900   18.2070 C   0  0  0  0  0  0
   10.7950   -5.4380   21.1620 N   0  0  0  0  0  0
   10.1610   -5.3900   22.4870 C   0  0  2  0  0  0
    9.8980   -3.9460   22.9150 C   0  0  0  0  0  0
   10.6560   -3.0420   22.5640 O   0  0  0  0  0  0
   11.0330   -6.0770   23.5450 C   0  0  0  0  0  0
   11.5770   -7.4430   23.1520 C   0  0  0  0  0  0
   11.9600   -8.2450   24.3850 C   0  0  0  0  0  0
   13.2250   -8.9600   24.2060 N   0  0  0  0  0  0
   13.3510  -10.1800   23.6860 C   0  0  0  0  0  0
   12.2830  -10.8550   23.2750 N   0  0  0  0  0  0
   14.5550  -10.7260   23.5740 N   0  0  0  0  0  0
    8.8250   -3.7370   23.6760 N   0  0  0  0  0  0
    8.5290   -2.4190   24.2140 C   0  0  2  0  0  0
    8.4570   -2.4630   25.7290 C   0  0  0  0  0  0
    8.3360   -3.5340   26.3150 O   0  0  0  0  0  0
    7.2020   -1.8310   23.6780 C   0  0  2  0  0  0
    6.1140   -2.6880   24.0360 O   0  0  0  0  0  0
    7.2290   -1.6580   22.1660 C   0  0  0  0  0  0
    8.5530   -1.2860   26.3430 N   0  0  0  0  0  0
    8.3390   -1.1220   27.7830 C   0  0  2  0  0  0
    7.6640    0.2360   28.0090 C   0  0  0  0  0  0
    7.5900    1.0610   27.0850 O   0  0  0  0  0  0
    9.6560   -1.2270   28.5610 C   0  0  0  0  0  0
   10.7270   -0.2290   28.1350 C   0  0  0  0  0  0
   11.9860   -0.4080   28.9900 C   0  0  0  0  0  0
   13.1280    0.4960   28.5450 C   0  0  0  0  0  0
   14.3570    0.2450   29.3620 N   0  3  0  0  0  0
    7.1530    0.4550   29.2180 N   0  0  0  0  0  0
    6.5080    1.7120   29.5490 C   0  0  2  0  0  0
    7.2280    2.3230   30.7380 C   0  0  0  0  0  0
    7.3010    1.7070   31.8110 O   0  0  0  0  0  0
    5.0280    1.4900   29.9110 C   0  0  0  0  0  0
    4.2570    2.7680   30.2100 C   0  0  0  0  0  0
    3.9040    3.5490   28.9540 C   0  0  0  0  0  0
    3.6610    2.9650   27.8930 O   0  0  0  0  0  0
    3.8720    4.8760   29.0660 N   0  0  0  0  0  0
    7.7450    3.5330   30.5420 N   0  0  0  0  0  0
    8.4920    4.2360   31.5770 C   0  0  2  0  0  0
    7.8140    5.5760   31.8720 C   0  0  0  0  0  0
    6.9340    6.0280   31.1190 O   0  0  0  0  0  0
    9.9510    4.4820   31.1580 C   0  0  2  0  0  0
    9.9800    5.4080   30.0760 O   0  0  0  0  0  0
   10.6370    3.1690   30.7560 C   0  0  0  0  0  0
    8.2030    6.1870   32.9880 N   0  0  0  0  0  0
    7.6270    7.4540   33.4440 C   0  0  2  0  0  0
    8.0030    8.5940   32.5060 C   0  0  0  0  0  0
    9.1490    8.6860   32.0660 O   0  0  0  0  0  0
    8.0810    7.7500   34.8590 C   0  0  0  0  0  0
    7.0260    9.4450   32.1930 N   0  0  0  0  0  0
    7.2120   10.5370   31.2330 C   0  0  2  0  0  0
    7.4450   11.8970   31.9110 C   0  0  0  0  0  0
    6.5010   12.5190   32.4050 O   0  0  0  0  0  0
    6.0250   10.6040   30.2520 C   0  0  0  0  0  0
    6.2550   11.5340   29.0710 C   0  0  0  0  0  0
    5.4710   11.1330   27.8270 C   0  0  0  0  0  0
    6.0380   11.7600   26.6240 N   0  0  0  0  0  0
    5.7250   11.4360   25.3680 C   0  0  0  0  0  0
    4.8340   10.4770   25.1130 N   0  0  0  0  0  0
    6.3120   12.0760   24.3570 N   0  0  0  0  0  0
    8.7110   12.3350   31.9120 N   0  0  0  0  0  0
    9.1510   13.6380   32.4460 C   0  0  2  0  0  0
    8.1640   14.7600   32.1510 C   0  0  0  0  0  0
    8.2202   15.8480   32.7840 O   0  0  0  0  0  0
   10.5090   14.0370   31.8560 C   0  0  0  0  0  0
   11.6880   13.1390   32.1910 C   0  0  0  0  0  0
   12.8440   13.4380   31.2430 C   0  0  0  0  0  0
   14.2000   13.1410   31.8700 C   0  0  0  0  0  0
   15.3020   13.1350   30.8650 N   0  3  0  0  0  0
    7.2826   14.5985   31.2652 O   0  0  0  0  0  0
    9.8463   -7.3376   18.0899 H   0  0  0  0  0  0
   10.6979   -6.4408   16.7872 H   0  0  0  0  0  0
    9.1618   -5.7999   17.4627 H   0  0  0  0  0  0
   11.7966   -6.1240   18.9254 H   0  0  0  0  0  0
   11.7747   -4.2845   17.2672 H   0  0  0  0  0  0
   11.8240   -3.6595   18.9505 H   0  0  0  0  0  0
   10.2854   -3.6245   18.0241 H   0  0  0  0  0  0
   11.8917   -5.4401   21.0768 H   0  0  0  0  0  0
    9.2115   -5.9316   22.3640 H   0  0  0  0  0  0
   11.9058   -5.4454   23.7672 H   0  0  0  0  0  0
   10.4458   -6.2271   24.4630 H   0  0  0  0  0  0
   10.8084   -7.9967   22.5929 H   0  0  0  0  0  0
   12.4686   -7.3148   22.5207 H   0  0  0  0  0  0
   12.0685   -7.5669   25.2443 H   0  0  0  0  0  0
   11.1753   -8.9856   24.5991 H   0  0  0  0  0  0
   14.1710   -8.4891   24.5117 H   0  0  0  0  0  0
   11.2818  -10.4083   23.3649 H   0  0  0  0  0  0
   12.3999  -11.8606   22.8448 H   0  0  0  0  0  0
   15.4435  -10.1727   23.9123 H   0  0  0  0  0  0
    8.1574   -4.5832   23.8954 H   0  0  0  0  0  0
    9.3848   -1.8185   23.8719 H   0  0  0  0  0  0
    6.9987   -0.8586   24.1504 H   0  0  0  0  0  0
    5.9312   -2.9326   25.0928 H   0  0  0  0  0  0
    8.0647   -0.9993   21.8872 H   0  0  0  0  0  0
    6.2817   -1.2102   21.8312 H   0  0  0  0  0  0
    7.3601   -2.6395   21.6869 H   0  0  0  0  0  0
    8.8048   -0.4140   25.7216 H   0  0  0  0  0  0
    7.6906   -1.9469   28.1133 H   0  0  0  0  0  0
    9.4652   -1.0525   29.6302 H   0  0  0  0  0  0
   10.0837   -2.2311   28.4240 H   0  0  0  0  0  0
   10.9827   -0.3945   27.0780 H   0  0  0  0  0  0
   10.3463    0.7949   28.2642 H   0  0  0  0  0  0
   11.7543   -0.1689   30.0384 H   0  0  0  0  0  0
   12.3321   -1.4497   28.9194 H   0  0  0  0  0  0
   13.3600    0.3001   27.4877 H   0  0  0  0  0  0
   12.8314    1.5483   28.6664 H   0  0  0  0  0  0
   15.1654    0.9088   29.0217 H   0  0  0  0  0  0
   14.6687   -0.8032   29.2429 H   0  0  0  0  0  0
   14.1400    0.4449   30.4217 H   0  0  0  0  0  0
    7.2272   -0.3409   29.9737 H   0  0  0  0  0  0
    6.5922    2.3478   28.6553 H   0  0  0  0  0  0
    4.5160    0.9943   29.0731 H   0  0  0  0  0  0
    4.9609    0.8568   30.8080 H   0  0  0  0  0  0
    3.3181    2.5177   30.7256 H   0  0  0  0  0  0
    4.8653    3.4214   30.8527 H   0  0  0  0  0  0
    4.0958    5.3520   30.0321 H   0  0  0  0  0  0
    3.6218    5.4958   28.1924 H   0  0  0  0  0  0
    7.5928    4.0022   29.5588 H   0  0  0  0  0  0
    8.4663    3.5696   32.4518 H   0  0  0  0  0  0
   10.5173    4.9638   31.9686 H   0  0  0  0  0  0
    9.5299    6.4048   30.1930 H   0  0  0  0  0  0
   10.6063    2.4656   31.6011 H   0  0  0  0  0  0
   11.6837    3.3704   30.4844 H   0  0  0  0  0  0
   10.1126    2.7302   29.8944 H   0  0  0  0  0  0
    8.9937    5.6988   33.5767 H   0  0  0  0  0  0
    6.5350    7.3227   33.4277 H   0  0  0  0  0  0
    7.7991    6.9146   35.5168 H   0  0  0  0  0  0
    7.5998    8.6738   35.2128 H   0  0  0  0  0  0
    9.1736    7.8765   34.8746 H   0  0  0  0  0  0
    6.0520    9.3049   32.6847 H   0  0  0  0  0  0
    8.1356   10.2656   30.7007 H   0  0  0  0  0  0
    5.8294    9.6013   29.8441 H   0  0  0  0  0  0
    5.1312   10.9650   30.7820 H   0  0  0  0  0  0
    5.9467   12.5544   29.3424 H   0  0  0  0  0  0
    7.3224   11.5319   28.8051 H   0  0  0  0  0  0
    5.5080   10.0402   27.7067 H   0  0  0  0  0  0
    4.4246   11.4549   27.9334 H   0  0  0  0  0  0
    6.7824   12.5639   26.7217 H   0  0  0  0  0  0
    4.3459    9.9449   25.9429 H   0  0  0  0  0  0
    4.5872   10.2181   24.0728 H   0  0  0  0  0  0
    7.0478   12.8680   24.5605 H   0  0  0  0  0  0
    9.4459   11.6436   31.4740 H   0  0  0  0  0  0
    9.2038   13.4712   33.5320 H   0  0  0  0  0  0
    7.5020   16.6511   32.5622 H   0  0  0  0  0  0
   10.4431   14.0468   30.7580 H   0  0  0  0  0  0
   10.7849   15.0393   32.2157 H   0  0  0  0  0  0
   12.0075   13.3246   33.2271 H   0  0  0  0  0  0
   11.3893   12.0859   32.0825 H   0  0  0  0  0  0
   12.7453   12.8203   30.3382 H   0  0  0  0  0  0
   12.8240   14.5020   30.9645 H   0  0  0  0  0  0
   14.4316   13.9083   32.6234 H   0  0  0  0  0  0
   14.1731   12.1518   32.3504 H   0  0  0  0  0  0
   16.2556   12.9165   31.3679 H   0  0  0  0  0  0
   15.3608   14.1203   30.3795 H   0  0  0  0  0  0
   15.1023   12.3638   30.1065 H   0  0  0  0  0  0
  1  2  1  0  0  0
  1 75  1  0  0  0
  1 76  1  0  0  0
  1 77  1  0  0  0
  2  3  1  0  0  0
  2  5  1  0  0  0
  2 78  1  0  0  0
  3  4  2  0  0  0
  3  6  1  0  0  0
  5 79  1  0  0  0
  5 80  1  0  0  0
  5 81  1  0  0  0
  6  7  1  0  0  0
  6 82  1  0  0  0
  7  8  1  0  0  0
  7 10  1  0  0  0
  7 83  1  0  0  0
  8  9  2  0  0  0
  8 17  1  0  0  0
 10 11  1  0  0  0
 10 84  1  0  0  0
 10 85  1  0  0  0
 11 12  1  0  0  0
 11 86  1  0  0  0
 11 87  1  0  0  0
 12 13  1  0  0  0
 12 88  1  0  0  0
 12 89  1  0  0  0
 13 14  1  0  0  0
 13 90  1  0  0  0
 14 15  1  0  0  0
 14 16  2  0  0  0
 15 91  1  0  0  0
 15 92  1  0  0  0
 16 93  1  0  0  0
 17 18  1  0  0  0
 17 94  1  0  0  0
 18 19  1  0  0  0
 18 21  1  0  0  0
 18 95  1  0  0  0
 19 20  2  0  0  0
 19 24  1  0  0  0
 21 22  1  0  0  0
 21 23  1  0  0  0
 21 96  1  0  0  0
 22 97  1  0  0  0
 23 98  1  0  0  0
 23 99  1  0  0  0
 23100  1  0  0  0
 24 25  1  0  0  0
 24101  1  0  0  0
 25 26  1  0  0  0
 25 28  1  0  0  0
 25102  1  0  0  0
 26 27  2  0  0  0
 26 33  1  0  0  0
 28 29  1  0  0  0
 28103  1  0  0  0
 28104  1  0  0  0
 29 30  1  0  0  0
 29105  1  0  0  0
 29106  1  0  0  0
 30 31  1  0  0  0
 30107  1  0  0  0
 30108  1  0  0  0
 31 32  1  0  0  0
 31109  1  0  0  0
 31110  1  0  0  0
 32111  1  0  0  0
 32112  1  0  0  0
 32113  1  0  0  0
 33 34  1  0  0  0
 33114  1  0  0  0
 34 35  1  0  0  0
 34 37  1  0  0  0
 34115  1  0  0  0
 35 36  2  0  0  0
 35 42  1  0  0  0
 37 38  1  0  0  0
 37116  1  0  0  0
 37117  1  0  0  0
 38 39  1  0  0  0
 38118  1  0  0  0
 38119  1  0  0  0
 39 40  2  0  0  0
 39 41  1  0  0  0
 41120  1  0  0  0
 41121  1  0  0  0
 42 43  1  0  0  0
 42122  1  0  0  0
 43 44  1  0  0  0
 43 46  1  0  0  0
 43123  1  0  0  0
 44 45  2  0  0  0
 44 49  1  0  0  0
 46 47  1  0  0  0
 46 48  1  0  0  0
 46124  1  0  0  0
 47125  1  0  0  0
 48126  1  0  0  0
 48127  1  0  0  0
 48128  1  0  0  0
 49 50  1  0  0  0
 49129  1  0  0  0
 50 51  1  0  0  0
 50 53  1  0  0  0
 50130  1  0  0  0
 51 52  2  0  0  0
 51 54  1  0  0  0
 53131  1  0  0  0
 53132  1  0  0  0
 53133  1  0  0  0
 54 55  1  0  0  0
 54134  1  0  0  0
 55 56  1  0  0  0
 55 58  1  0  0  0
 55135  1  0  0  0
 56 57  2  0  0  0
 56 65  1  0  0  0
 58 59  1  0  0  0
 58136  1  0  0  0
 58137  1  0  0  0
 59 60  1  0  0  0
 59138  1  0  0  0
 59139  1  0  0  0
 60 61  1  0  0  0
 60140  1  0  0  0
 60141  1  0  0  0
 61 62  1  0  0  0
 61142  1  0  0  0
 62 63  1  0  0  0
 62 64  2  0  0  0
 63143  1  0  0  0
 63144  1  0  0  0
 64145  1  0  0  0
 65 66  1  0  0  0
 65146  1  0  0  0
 66 67  1  0  0  0
 66 69  1  0  0  0
 66147  1  0  0  0
 67 68  1  0  0  0
 67 74  2  0  0  0
 68148  1  0  0  0
 69 70  1  0  0  0
 69149  1  0  0  0
 69150  1  0  0  0
 70 71  1  0  0  0
 70151  1  0  0  0
 70152  1  0  0  0
 71 72  1  0  0  0
 71153  1  0  0  0
 71154  1  0  0  0
 72 73  1  0  0  0
 72155  1  0  0  0
 72156  1  0  0  0
 73157  1  0  0  0
 73158  1  0  0  0
 73159  1  0  0  0
M  CHG  3   1   1  32   1  73   1
M  END
> <s_m_source_file>
../4gnf_ligand.sdf

> <i_m_source_file_index>
1

> <s_epik_input>
W0hdL049QyhbTkgyXSlcW05IXVtDSDJdW0NIMl1bQ0gyXVtDQEhdKFtOSF1DKD1PKVtDQEBIXShbTkgzK10pW0NIM10pQyg9TylbTkhdW0NAQEhdKFtDQEhdKFtPSF0pW0NIM10pQyg9TylbTkhdW0NAQEhdKFtDSDJdW0NIMl1bQ0gyXVtDSDJdW05IMytdKUMoPU8pW05IXVtDQEBIXShbQ0gyXVtDSDJdQyg9TylbTkgyXSlDKD1PKVtOSF1bQ0BASF0oW0NASF0oW09IXSlbQ0gzXSlDKD1PKVtOSF1bQ0BASF0oW0NIM10pQyg9TylbTkhdW0NAQEhdKFtDSDJdW0NIMl1bQ0gyXVtOSF0vQyhbTkgyXSk9TlxbSF0pQyg9TylbTkhdW0NASF0oQyg9TylbT0hdKVtDSDJdW0NIMl1bQ0gyXVtDSDJdW05IMytd

> <s_epik_cmdline>
J2VwaWtfYXBwJywgJy1pbWFlJywgJ2xpZ2FuZF9wcm8ubWFlJywgJy1vbWFlJywgJ2xpZ2FuZF9wcmVwLm1hZScsICctbXMnLCAnMScsICctcGgnLCAnNycsICctcGh0JywgJzAuNScsICctbnQn

> <s_epik_pKa_notes>
Molecule size exceeds maximum supported for generating protonation states

> <s_epik_Chemistry_Notes>
This compound has an imine and may undergo hydrolysis.

$$$$
