4gng_ligand
                    3D
 Schrodinger Suite 2020-3.
179178  0  0  1  0            999 V2000
   11.4310   -4.1960   25.9460 N   0  3  0  0  0  0
   12.4390   -3.1060   25.7800 C   0  0  2  0  0  0
   13.2740   -2.9430   27.0310 C   0  0  0  0  0  0
   12.7810   -3.1550   28.1350 O   0  0  0  0  0  0
   11.7670   -1.7820   25.4460 C   0  0  0  0  0  0
   14.5290   -2.5530   26.8520 N   0  0  0  0  0  0
   15.4430   -2.3690   27.9780 C   0  0  2  0  0  0
   15.2890   -0.9570   28.5610 C   0  0  0  0  0  0
   14.9200   -0.0130   27.8480 O   0  0  0  0  0  0
   16.8930   -2.6180   27.5370 C   0  0  0  0  0  0
   17.1440   -3.9750   26.8890 C   0  0  0  0  0  0
   18.3400   -3.9470   25.9370 C   0  0  0  0  0  0
   18.0010   -3.3600   24.6340 N   0  0  0  0  0  0
   18.6260   -2.3250   24.0690 C   0  0  0  0  0  0
   19.6510   -1.7410   24.6820 N   0  0  0  0  0  0
   18.2340   -1.8760   22.8770 N   0  0  0  0  0  0
   15.5290   -0.8100   29.8620 N   0  0  0  0  0  0
   15.6170    0.5180   30.4480 C   0  0  2  0  0  0
   17.0160    0.7190   30.9890 C   0  0  0  0  0  0
   17.7680   -0.2480   31.1810 O   0  0  0  0  0  0
   14.6200    0.7540   31.6030 C   0  0  2  0  0  0
   14.8280   -0.2260   32.6250 O   0  0  0  0  0  0
   13.1920    0.6890   31.1220 C   0  0  0  0  0  0
   17.3630    1.9770   31.2160 N   0  0  0  0  0  0
   18.5590    2.3190   31.9550 C   0  0  2  0  0  0
   18.2660    3.4670   32.9090 C   0  0  0  0  0  0
   17.2460    4.1510   32.7840 O   0  0  0  0  0  0
   19.7120    2.6610   31.0140 C   0  0  0  0  0  0
   19.4940    3.8680   30.1200 C   0  0  0  0  0  0
   20.8450    4.2590   29.5440 C   0  0  0  0  0  0
   20.7620    5.4380   28.6100 C   0  0  0  0  0  0
   22.1180    5.6530   28.0220 N   0  3  0  0  0  0
   19.1840    3.6800   33.8480 N   0  0  0  0  0  0
   19.0370    4.6960   34.8630 C   0  0  2  0  0  0
   20.1230    5.7340   34.6790 C   0  0  0  0  0  0
   21.3060    5.4070   34.7290 O   0  0  0  0  0  0
   19.1780    4.0350   36.2350 C   0  0  0  0  0  0
   18.3780    4.6930   37.3310 C   0  0  0  0  0  0
   16.8830    4.5840   37.1100 C   0  0  0  0  0  0
   16.1810    5.5660   37.2050 O   0  0  0  0  0  0
   16.3960    3.3800   36.8080 N   0  0  0  0  0  0
   19.7410    6.9810   34.4570 N   0  0  0  0  0  0
   20.7320    8.0490   34.3010 C   0  0  2  0  0  0
   20.4530    9.1780   35.2730 C   0  0  0  0  0  0
   19.3590    9.2490   35.8440 O   0  0  0  0  0  0
   20.7720    8.6280   32.8700 C   0  0  2  0  0  0
   19.5530    9.3280   32.6020 O   0  0  0  0  0  0
   20.9810    7.5300   31.8370 C   0  0  0  0  0  0
   21.4270   10.0750   35.4310 N   0  0  0  0  0  0
   21.3210   11.2000   36.3650 C   0  0  2  0  0  0
   20.3650   12.2890   35.8740 C   0  0  0  0  0  0
   20.3540   12.6320   34.6980 O   0  0  0  0  0  0
   22.7020   11.8020   36.6200 C   0  0  0  0  0  0
   19.5600   12.8390   36.7760 N   0  0  0  0  0  0
   18.7290   13.9880   36.4240 C   0  0  2  0  0  0
   19.5410   15.2660   36.4730 C   0  0  0  0  0  0
   20.5520   15.3190   37.1590 O   0  0  0  0  0  0
   17.5490   14.1120   37.3730 C   0  0  0  0  0  0
   16.6110   12.9310   37.3130 C   0  0  0  0  0  0
   15.2030   13.4460   37.2340 C   0  0  0  0  0  0
   14.2560   12.3790   36.9670 N   0  0  0  0  0  0
   13.2060   12.5080   36.1600 C   0  0  0  0  0  0
   12.9990   13.6560   35.5240 N   0  0  0  0  0  0
   12.3880   11.4770   35.9750 N   0  0  0  0  0  0
   19.0780   16.3000   35.7730 N   0  0  0  0  0  0
   19.7840   17.5870   35.7190 C   0  0  1  0  0  0
   19.6870   18.1210   34.2890 C   0  0  0  0  0  0
   20.7730   17.5180   33.3960 C   0  0  0  0  0  0
   21.3460   18.5410   32.4130 C   0  0  0  0  0  0
   20.7380   18.3890   31.0130 C   0  0  0  0  0  0
   21.5590   18.9250   29.9010 N   0  3  0  0  0  0
   19.2130   18.5900   36.6970 C   0  0  0  0  0  0
   18.1280   18.3780   37.2470 O   0  0  0  0  0  0
   20.9420   18.4910   28.6380 C   0  0  0  0  0  0
   22.9420   18.4210   29.9400 C   0  0  0  0  0  0
   21.5690   20.3980   29.9140 C   0  0  0  0  0  0
   19.9440   19.6940   36.9070 N   0  0  0  0  0  0
   19.5360   20.8100   37.7940 C   0  0  2  0  0  0
   19.3660   20.4070   39.2620 C   0  0  0  0  0  0
   20.3646   20.1653   39.9913 O   0  0  0  0  0  0
   18.2690   21.5130   37.2770 C   0  0  0  0  0  0
   17.4720   22.0180   38.3440 O   0  0  0  0  0  0
   18.2074   20.3157   39.7487 O   0  0  0  0  0  0
   11.9458   -5.1380   26.1862 H   0  0  0  0  0  0
   10.8636   -4.3162   25.0113 H   0  0  0  0  0  0
   10.7414   -3.9364   26.7627 H   0  0  0  0  0  0
   13.0891   -3.4114   24.9468 H   0  0  0  0  0  0
   11.1593   -1.8984   24.5365 H   0  0  0  0  0  0
   12.5354   -1.0130   25.2776 H   0  0  0  0  0  0
   11.1207   -1.4776   26.2824 H   0  0  0  0  0  0
   14.8769   -2.3671   25.8252 H   0  0  0  0  0  0
   15.1511   -3.1170   28.7298 H   0  0  0  0  0  0
   17.1878   -1.8569   26.7996 H   0  0  0  0  0  0
   17.5576   -2.5581   28.4115 H   0  0  0  0  0  0
   17.3462   -4.7226   27.6702 H   0  0  0  0  0  0
   16.2561   -4.2766   26.3139 H   0  0  0  0  0  0
   19.1481   -3.3473   26.3811 H   0  0  0  0  0  0
   18.6966   -4.9734   25.7660 H   0  0  0  0  0  0
   17.1721   -3.7758   24.0423 H   0  0  0  0  0  0
   19.9826   -2.1038   25.6661 H   0  0  0  0  0  0
   17.3870   -2.3521   22.3613 H   0  0  0  0  0  0
   18.7574   -1.0293   22.4089 H   0  0  0  0  0  0
   15.6610   -1.7002   30.4946 H   0  0  0  0  0  0
   15.3800    1.1904   29.6103 H   0  0  0  0  0  0
   14.7906    1.7339   32.0727 H   0  0  0  0  0  0
   15.8161   -0.3264   33.0978 H   0  0  0  0  0  0
   13.0349    1.4431   30.3367 H   0  0  0  0  0  0
   12.5122    0.8888   31.9634 H   0  0  0  0  0  0
   12.9874   -0.3123   30.7151 H   0  0  0  0  0  0
   16.7121    2.7726   30.8245 H   0  0  0  0  0  0
   18.8231    1.4165   32.5257 H   0  0  0  0  0  0
   20.6161    2.8727   31.6037 H   0  0  0  0  0  0
   19.9026    1.8102   30.3433 H   0  0  0  0  0  0
   18.7936    3.6052   29.3136 H   0  0  0  0  0  0
   19.0757    4.6937   30.7143 H   0  0  0  0  0  0
   21.5292    4.5264   30.3628 H   0  0  0  0  0  0
   21.2621    3.4119   28.9796 H   0  0  0  0  0  0
   20.0314    5.2257   27.8155 H   0  0  0  0  0  0
   20.4445    6.3290   29.1715 H   0  0  0  0  0  0
   22.0874    6.5105   27.3337 H   0  0  0  0  0  0
   22.4261    4.7518   27.4716 H   0  0  0  0  0  0
   22.8392    5.8551   28.8277 H   0  0  0  0  0  0
   20.0823    3.0453   33.8312 H   0  0  0  0  0  0
   18.0460    5.1569   34.7382 H   0  0  0  0  0  0
   18.8396    2.9901   36.1751 H   0  0  0  0  0  0
   20.2321    4.0616   36.5482 H   0  0  0  0  0  0
   18.6120    4.2146   38.2935 H   0  0  0  0  0  0
   18.6341    5.7616   37.3809 H   0  0  0  0  0  0
   17.0727    2.5161   36.7326 H   0  0  0  0  0  0
   15.3175    3.2507   36.6343 H   0  0  0  0  0  0
   18.6677    7.2125   34.3898 H   0  0  0  0  0  0
   21.6853    7.5530   34.5358 H   0  0  0  0  0  0
   21.5740    9.3743   32.7707 H   0  0  0  0  0  0
   19.2413   10.1586   33.2524 H   0  0  0  0  0  0
   21.9198    6.9985   32.0517 H   0  0  0  0  0  0
   21.0337    7.9764   30.8330 H   0  0  0  0  0  0
   20.1405    6.8216   31.8797 H   0  0  0  0  0  0
   22.3368    9.9460   34.8263 H   0  0  0  0  0  0
   20.9050   10.7566   37.2817 H   0  0  0  0  0  0
   23.3854   11.0155   36.9727 H   0  0  0  0  0  0
   22.6234   12.5892   37.3843 H   0  0  0  0  0  0
   23.0914   12.2347   35.6866 H   0  0  0  0  0  0
   19.5216   12.4237   37.7939 H   0  0  0  0  0  0
   18.3776   13.7960   35.3995 H   0  0  0  0  0  0
   17.9166   14.1920   38.4067 H   0  0  0  0  0  0
   16.9678   15.0110   37.1199 H   0  0  0  0  0  0
   16.8402   12.3256   36.4237 H   0  0  0  0  0  0
   16.7364   12.3168   38.2169 H   0  0  0  0  0  0
   14.9315   13.9191   38.1892 H   0  0  0  0  0  0
   15.1282   14.1863   36.4238 H   0  0  0  0  0  0
   14.3861   11.3961   37.4435 H   0  0  0  0  0  0
   13.6814   14.5039   35.6834 H   0  0  0  0  0  0
   12.5673   10.5305   36.5059 H   0  0  0  0  0  0
   11.5316   11.5702   35.2910 H   0  0  0  0  0  0
   18.1343   16.1669   35.2237 H   0  0  0  0  0  0
   20.8248   17.3976   36.0205 H   0  0  0  0  0  0
   18.7042   17.8635   33.8673 H   0  0  0  0  0  0
   19.8075   19.2144   34.2969 H   0  0  0  0  0  0
   21.5976   17.1461   34.0218 H   0  0  0  0  0  0
   20.3495   16.6855   32.8149 H   0  0  0  0  0  0
   21.1305   19.5573   32.7744 H   0  0  0  0  0  0
   22.4344   18.4033   32.3334 H   0  0  0  0  0  0
   20.5791   17.3224   30.7961 H   0  0  0  0  0  0
   19.7749   18.9189   30.9720 H   0  0  0  0  0  0
   20.9203   17.3919   28.5992 H   0  0  0  0  0  0
   21.5294   18.8763   27.7916 H   0  0  0  0  0  0
   19.9149   18.8803   28.5789 H   0  0  0  0  0  0
   22.9318   17.3211   29.9302 H   0  0  0  0  0  0
   23.4355   18.7750   30.8571 H   0  0  0  0  0  0
   23.4918   18.7904   29.0618 H   0  0  0  0  0  0
   20.5349   20.7719   29.8848 H   0  0  0  0  0  0
   22.1179   20.7687   29.0358 H   0  0  0  0  0  0
   22.0616   20.7532   30.8311 H   0  0  0  0  0  0
   20.9029   19.7406   36.3700 H   0  0  0  0  0  0
   20.3969   21.4927   37.7405 H   0  0  0  0  0  0
   18.5552   22.3559   36.6307 H   0  0  0  0  0  0
   17.6625   20.7987   36.7009 H   0  0  0  0  0  0
   16.5324   22.5468   38.1261 H   0  0  0  0  0  0
   18.0744   20.0270   40.8018 H   0  0  0  0  0  0
  1  2  1  0  0  0
  1 84  1  0  0  0
  1 85  1  0  0  0
  1 86  1  0  0  0
  2  3  1  0  0  0
  2  5  1  0  0  0
  2 87  1  0  0  0
  3  4  2  0  0  0
  3  6  1  0  0  0
  5 88  1  0  0  0
  5 89  1  0  0  0
  5 90  1  0  0  0
  6  7  1  0  0  0
  6 91  1  0  0  0
  7  8  1  0  0  0
  7 10  1  0  0  0
  7 92  1  0  0  0
  8  9  2  0  0  0
  8 17  1  0  0  0
 10 11  1  0  0  0
 10 93  1  0  0  0
 10 94  1  0  0  0
 11 12  1  0  0  0
 11 95  1  0  0  0
 11 96  1  0  0  0
 12 13  1  0  0  0
 12 97  1  0  0  0
 12 98  1  0  0  0
 13 14  1  0  0  0
 13 99  1  0  0  0
 14 15  2  0  0  0
 14 16  1  0  0  0
 15100  1  0  0  0
 16101  1  0  0  0
 16102  1  0  0  0
 17 18  1  0  0  0
 17103  1  0  0  0
 18 19  1  0  0  0
 18 21  1  0  0  0
 18104  1  0  0  0
 19 20  2  0  0  0
 19 24  1  0  0  0
 21 22  1  0  0  0
 21 23  1  0  0  0
 21105  1  0  0  0
 22106  1  0  0  0
 23107  1  0  0  0
 23108  1  0  0  0
 23109  1  0  0  0
 24 25  1  0  0  0
 24110  1  0  0  0
 25 26  1  0  0  0
 25 28  1  0  0  0
 25111  1  0  0  0
 26 27  2  0  0  0
 26 33  1  0  0  0
 28 29  1  0  0  0
 28112  1  0  0  0
 28113  1  0  0  0
 29 30  1  0  0  0
 29114  1  0  0  0
 29115  1  0  0  0
 30 31  1  0  0  0
 30116  1  0  0  0
 30117  1  0  0  0
 31 32  1  0  0  0
 31118  1  0  0  0
 31119  1  0  0  0
 32120  1  0  0  0
 32121  1  0  0  0
 32122  1  0  0  0
 33 34  1  0  0  0
 33123  1  0  0  0
 34 35  1  0  0  0
 34 37  1  0  0  0
 34124  1  0  0  0
 35 36  2  0  0  0
 35 42  1  0  0  0
 37 38  1  0  0  0
 37125  1  0  0  0
 37126  1  0  0  0
 38 39  1  0  0  0
 38127  1  0  0  0
 38128  1  0  0  0
 39 40  2  0  0  0
 39 41  1  0  0  0
 41129  1  0  0  0
 41130  1  0  0  0
 42 43  1  0  0  0
 42131  1  0  0  0
 43 44  1  0  0  0
 43 46  1  0  0  0
 43132  1  0  0  0
 44 45  2  0  0  0
 44 49  1  0  0  0
 46 47  1  0  0  0
 46 48  1  0  0  0
 46133  1  0  0  0
 47134  1  0  0  0
 48135  1  0  0  0
 48136  1  0  0  0
 48137  1  0  0  0
 49 50  1  0  0  0
 49138  1  0  0  0
 50 51  1  0  0  0
 50 53  1  0  0  0
 50139  1  0  0  0
 51 52  2  0  0  0
 51 54  1  0  0  0
 53140  1  0  0  0
 53141  1  0  0  0
 53142  1  0  0  0
 54 55  1  0  0  0
 54143  1  0  0  0
 55 56  1  0  0  0
 55 58  1  0  0  0
 55144  1  0  0  0
 56 57  2  0  0  0
 56 65  1  0  0  0
 58 59  1  0  0  0
 58145  1  0  0  0
 58146  1  0  0  0
 59 60  1  0  0  0
 59147  1  0  0  0
 59148  1  0  0  0
 60 61  1  0  0  0
 60149  1  0  0  0
 60150  1  0  0  0
 61 62  1  0  0  0
 61151  1  0  0  0
 62 63  2  0  0  0
 62 64  1  0  0  0
 63152  1  0  0  0
 64153  1  0  0  0
 64154  1  0  0  0
 65 66  1  0  0  0
 65155  1  0  0  0
 66 67  1  0  0  0
 66 72  1  0  0  0
 66156  1  0  0  0
 67 68  1  0  0  0
 67157  1  0  0  0
 67158  1  0  0  0
 68 69  1  0  0  0
 68159  1  0  0  0
 68160  1  0  0  0
 69 70  1  0  0  0
 69161  1  0  0  0
 69162  1  0  0  0
 70 71  1  0  0  0
 70163  1  0  0  0
 70164  1  0  0  0
 71 74  1  0  0  0
 71 75  1  0  0  0
 71 76  1  0  0  0
 72 73  2  0  0  0
 72 77  1  0  0  0
 74165  1  0  0  0
 74166  1  0  0  0
 74167  1  0  0  0
 75168  1  0  0  0
 75169  1  0  0  0
 75170  1  0  0  0
 76171  1  0  0  0
 76172  1  0  0  0
 76173  1  0  0  0
 77 78  1  0  0  0
 77174  1  0  0  0
 78 79  1  0  0  0
 78 81  1  0  0  0
 78175  1  0  0  0
 79 80  2  0  0  0
 79 83  1  0  0  0
 81 82  1  0  0  0
 81176  1  0  0  0
 81177  1  0  0  0
 82178  1  0  0  0
 83179  1  0  0  0
M  CHG  3   1   1  32   1  71   1
M  END
> <s_m_source_file>
../4gng_ligand.sdf

> <i_m_source_file_index>
1

> <s_epik_input>
W0hdL049QyhbTkgyXSlcW05IXVtDSDJdW0NIMl1bQ0gyXVtDQEhdKFtOSF1DKD1PKVtDQEBIXShbTkgzK10pW0NIM10pQyg9TylbTkhdW0NAQEhdKFtDQEhdKFtPSF0pW0NIM10pQyg9TylbTkhdW0NAQEhdKFtDSDJdW0NIMl1bQ0gyXVtDSDJdW05IMytdKUMoPU8pW05IXVtDQEBIXShbQ0gyXVtDSDJdQyg9TylbTkgyXSlDKD1PKVtOSF1bQ0BASF0oW0NASF0oW09IXSlbQ0gzXSlDKD1PKVtOSF1bQ0BASF0oW0NIM10pQyg9TylbTkhdW0NAQEhdKFtDSDJdW0NIMl1bQ0gyXVtOSF0vQyg9TlxbSF0pW05IMl0pQyg9TylbTkhdW0NASF0oQyg9TylbTkhdW0NASF0oQyg9TylbT0hdKVtDSDJdW09IXSlbQ0gyXVtDSDJdW0NIMl1bQ0gyXVtOK10oW0NIM10pKFtDSDNdKVtDSDNd

> <s_epik_cmdline>
J2VwaWtfYXBwJywgJy1pbWFlJywgJ2xpZ2FuZF9wcm8ubWFlJywgJy1vbWFlJywgJ2xpZ2FuZF9wcmVwLm1hZScsICctbXMnLCAnMScsICctcGgnLCAnNycsICctcGh0JywgJzAuNScsICctbnQn

> <s_epik_pKa_notes>
Molecule size exceeds maximum supported for generating protonation states

> <s_epik_Chemistry_Notes>
This compound has an imine and may undergo hydrolysis.

$$$$
