4gpk_ligand
                    3D
 Schrodinger Suite 2020-3.
115115  0  0  1  0            999 V2000
   86.0240  -65.5570   59.7120 N   0  3  0  0  0  0
   87.1390  -66.3650   60.1920 C   0  0  2  0  0  0
   86.7980  -67.0340   61.5200 C   0  0  0  0  0  0
   85.8030  -66.6970   62.1570 O   0  0  0  0  0  0
   88.3930  -65.5040   60.3490 C   0  0  0  0  0  0
   88.1890  -64.2050   59.8280 O   0  0  0  0  0  0
   87.6310  -67.9820   61.9320 N   0  0  0  0  0  0
   87.4190  -68.6870   63.1870 C   0  0  2  0  0  0
   88.4840  -68.3100   64.2080 C   0  0  0  0  0  0
   89.6740  -68.5080   63.9730 O   0  0  0  0  0  0
   87.4130  -70.1970   62.9550 C   0  0  0  0  0  0
   86.3770  -70.5710   62.0730 O   0  0  0  0  0  0
   88.0470  -67.7670   65.3400 N   0  0  0  0  0  0
   88.9640  -67.3380   66.3880 C   0  0  2  0  0  0
   88.7160  -68.1470   67.6530 C   0  0  0  0  0  0
   87.5680  -68.4360   67.9880 O   0  0  0  0  0  0
   88.7870  -65.8480   66.6780 C   0  0  0  0  0  0
   87.7840  -65.1480   65.7750 C   0  0  0  0  0  0
   88.4040  -64.7040   64.4580 C   0  0  0  0  0  0
   87.3330  -64.1430   63.5330 C   0  0  0  0  0  0
   86.5890  -63.0010   64.1520 N   0  3  0  0  0  0
   89.7950  -68.5150   68.3610 N   0  0  0  0  0  0
   89.7130  -69.3440   69.5690 C   0  0  2  0  0  0
   88.8800  -68.7010   70.6720 C   0  0  0  0  0  0
   88.5420  -67.5210   70.5940 O   0  0  0  0  0  0
   91.1740  -69.4500   70.0200 C   0  0  0  0  0  0
   91.9650  -69.2300   68.7830 C   0  0  0  0  0  0
   91.1910  -68.2220   67.9930 C   0  0  0  0  0  0
   88.5560  -69.4880   71.6910 N   0  0  0  0  0  0
   87.7660  -69.0130   72.8170 C   0  0  2  0  0  0
   88.6600  -68.2590   73.7990 C   0  0  0  0  0  0
   89.8850  -68.3440   73.7210 O   0  0  0  0  0  0
   87.0880  -70.1970   73.5110 C   0  0  0  0  0  0
   85.9380  -69.7760   74.3990 C   0  0  0  0  0  0
   85.2590  -68.7800   74.0680 O   0  5  0  0  0  0
   85.7100  -70.4480   75.4250 O   0  0  0  0  0  0
   88.0430  -67.5230   74.7190 N   0  0  0  0  0  0
   88.7740  -66.7140   75.6930 C   0  0  2  0  0  0
   89.4440  -67.5620   76.7670 C   0  0  0  0  0  0
   89.3790  -68.7910   76.7390 O   0  0  0  0  0  0
   87.8430  -65.7180   76.3950 C   0  0  2  0  0  0
   86.7770  -66.4700   77.1940 C   0  0  0  0  0  0
   87.2060  -64.7740   75.3830 C   0  0  0  0  0  0
   85.7870  -65.5730   77.9010 C   0  0  0  0  0  0
   90.0870  -66.8940   77.7190 N   0  0  0  0  0  0
   90.6930  -67.5730   78.8630 C   0  0  2  0  0  0
   89.7100  -67.5950   80.0300 C   0  0  0  0  0  0
   89.3000  -66.5460   80.5290 O   0  0  0  0  0  0
   91.9990  -66.8830   79.3090 C   0  0  0  0  0  0
   92.5630  -67.5610   80.5500 C   0  0  0  0  0  0
   93.0180  -66.8870   78.1900 C   0  0  0  0  0  0
   89.3200  -68.7930   80.4520 N   0  0  0  0  0  0
   88.3680  -68.9460   81.5380 C   0  0  0  0  0  0
   87.3680  -70.0670   81.2930 C   0  0  0  0  0  0
   86.5500  -69.9970   80.3770 O   0  0  0  0  0  0
   87.3610  -71.0760   82.0000 O   0  5  0  0  0  0
   85.1314  -66.1908   59.6048 H   0  0  0  0  0  0
   86.2819  -65.1188   58.7366 H   0  0  0  0  0  0
   85.8177  -64.7519   60.4326 H   0  0  0  0  0  0
   87.2942  -67.1331   59.4200 H   0  0  0  0  0  0
   88.6479  -65.4186   61.4156 H   0  0  0  0  0  0
   89.2291  -65.9719   59.8086 H   0  0  0  0  0  0
   89.0005  -63.4634   59.8661 H   0  0  0  0  0  0
   88.4971  -68.2305   61.3010 H   0  0  0  0  0  0
   86.4343  -68.3554   63.5480 H   0  0  0  0  0  0
   88.3748  -70.5048   62.5188 H   0  0  0  0  0  0
   87.2629  -70.7147   63.9139 H   0  0  0  0  0  0
   86.2389  -71.6286   61.8038 H   0  0  0  0  0  0
   86.9621  -67.6448   65.4746 H   0  0  0  0  0  0
   89.9775  -67.5283   66.0051 H   0  0  0  0  0  0
   88.4358  -65.7149   67.7119 H   0  0  0  0  0  0
   89.7500  -65.3323   66.5487 H   0  0  0  0  0  0
   86.9548  -65.8339   65.5470 H   0  0  0  0  0  0
   87.3920  -64.2556   66.2849 H   0  0  0  0  0  0
   89.1560  -63.9248   64.6511 H   0  0  0  0  0  0
   88.8848  -65.5649   63.9704 H   0  0  0  0  0  0
   87.8019  -63.7815   62.6059 H   0  0  0  0  0  0
   86.6060  -64.9327   63.2924 H   0  0  0  0  0  0
   85.8296  -62.6328   63.4465 H   0  0  0  0  0  0
   87.2933  -62.1900   64.3889 H   0  0  0  0  0  0
   86.0974  -63.3412   65.0754 H   0  0  0  0  0  0
   89.2180  -70.2963   69.3278 H   0  0  0  0  0  0
   91.3799  -68.6814   70.7795 H   0  0  0  0  0  0
   91.3540  -70.4468   70.4489 H   0  0  0  0  0  0
   92.9639  -68.8536   69.0486 H   0  0  0  0  0  0
   92.0643  -70.1800   68.2375 H   0  0  0  0  0  0
   91.3180  -68.3471   66.9075 H   0  0  0  0  0  0
   91.4347  -67.1867   68.2738 H   0  0  0  0  0  0
   88.9055  -70.5307   71.6653 H   0  0  0  0  0  0
   87.0084  -68.3315   72.4028 H   0  0  0  0  0  0
   86.6913  -70.8883   72.7528 H   0  0  0  0  0  0
   87.8220  -70.7234   74.1389 H   0  0  0  0  0  0
   86.9432  -67.5372   74.7307 H   0  0  0  0  0  0
   89.5335  -66.2079   75.0790 H   0  0  0  0  0  0
   88.4319  -65.1047   77.0929 H   0  0  0  0  0  0
   86.2004  -67.1176   76.5172 H   0  0  0  0  0  0
   87.2631  -67.0858   77.9650 H   0  0  0  0  0  0
   87.9948  -64.2484   74.8248 H   0  0  0  0  0  0
   86.5789  -64.0401   75.9104 H   0  0  0  0  0  0
   86.5845  -65.3519   74.6832 H   0  0  0  0  0  0
   85.0594  -66.1899   78.4487 H   0  0  0  0  0  0
   85.2592  -64.9540   77.1605 H   0  0  0  0  0  0
   86.3220  -64.9223   78.6083 H   0  0  0  0  0  0
   90.1563  -65.7999   77.6289 H   0  0  0  0  0  0
   90.9071  -68.5920   78.5082 H   0  0  0  0  0  0
   91.7869  -65.8325   79.5571 H   0  0  0  0  0  0
   91.8083  -67.5476   81.3501 H   0  0  0  0  0  0
   93.4621  -67.0231   80.8850 H   0  0  0  0  0  0
   92.8261  -68.6021   80.3114 H   0  0  0  0  0  0
   92.5917  -66.3935   77.3042 H   0  0  0  0  0  0
   93.2834  -67.9247   77.9395 H   0  0  0  0  0  0
   93.9195  -66.3457   78.5131 H   0  0  0  0  0  0
   89.7371  -69.6823   79.9569 H   0  0  0  0  0  0
   88.9074  -69.1748   82.4689 H   0  0  0  0  0  0
   87.8010  -68.0117   81.6630 H   0  0  0  0  0  0
  1  2  1  0  0  0
  1 57  1  0  0  0
  1 58  1  0  0  0
  1 59  1  0  0  0
  2  3  1  0  0  0
  2  5  1  0  0  0
  2 60  1  0  0  0
  3  4  2  0  0  0
  3  7  1  0  0  0
  5  6  1  0  0  0
  5 61  1  0  0  0
  5 62  1  0  0  0
  6 63  1  0  0  0
  7  8  1  0  0  0
  7 64  1  0  0  0
  8  9  1  0  0  0
  8 11  1  0  0  0
  8 65  1  0  0  0
  9 10  2  0  0  0
  9 13  1  0  0  0
 11 12  1  0  0  0
 11 66  1  0  0  0
 11 67  1  0  0  0
 12 68  1  0  0  0
 13 14  1  0  0  0
 13 69  1  0  0  0
 14 15  1  0  0  0
 14 17  1  0  0  0
 14 70  1  0  0  0
 15 16  2  0  0  0
 15 22  1  0  0  0
 17 18  1  0  0  0
 17 71  1  0  0  0
 17 72  1  0  0  0
 18 19  1  0  0  0
 18 73  1  0  0  0
 18 74  1  0  0  0
 19 20  1  0  0  0
 19 75  1  0  0  0
 19 76  1  0  0  0
 20 21  1  0  0  0
 20 77  1  0  0  0
 20 78  1  0  0  0
 21 79  1  0  0  0
 21 80  1  0  0  0
 21 81  1  0  0  0
 22 23  1  0  0  0
 22 28  1  0  0  0
 23 24  1  0  0  0
 23 26  1  0  0  0
 23 82  1  0  0  0
 24 25  2  0  0  0
 24 29  1  0  0  0
 26 27  1  0  0  0
 26 83  1  0  0  0
 26 84  1  0  0  0
 27 28  1  0  0  0
 27 85  1  0  0  0
 27 86  1  0  0  0
 28 87  1  0  0  0
 28 88  1  0  0  0
 29 30  1  0  0  0
 29 89  1  0  0  0
 30 31  1  0  0  0
 30 33  1  0  0  0
 30 90  1  0  0  0
 31 32  2  0  0  0
 31 37  1  0  0  0
 33 34  1  0  0  0
 33 91  1  0  0  0
 33 92  1  0  0  0
 34 35  1  0  0  0
 34 36  2  0  0  0
 37 38  1  0  0  0
 37 93  1  0  0  0
 38 39  1  0  0  0
 38 41  1  0  0  0
 38 94  1  0  0  0
 39 40  2  0  0  0
 39 45  1  0  0  0
 41 42  1  0  0  0
 41 43  1  0  0  0
 41 95  1  0  0  0
 42 44  1  0  0  0
 42 96  1  0  0  0
 42 97  1  0  0  0
 43 98  1  0  0  0
 43 99  1  0  0  0
 43100  1  0  0  0
 44101  1  0  0  0
 44102  1  0  0  0
 44103  1  0  0  0
 45 46  1  0  0  0
 45104  1  0  0  0
 46 47  1  0  0  0
 46 49  1  0  0  0
 46105  1  0  0  0
 47 48  2  0  0  0
 47 52  1  0  0  0
 49 50  1  0  0  0
 49 51  1  0  0  0
 49106  1  0  0  0
 50107  1  0  0  0
 50108  1  0  0  0
 50109  1  0  0  0
 51110  1  0  0  0
 51111  1  0  0  0
 51112  1  0  0  0
 52 53  1  0  0  0
 52113  1  0  0  0
 53 54  1  0  0  0
 53114  1  0  0  0
 53115  1  0  0  0
 54 55  2  0  0  0
 54 56  1  0  0  0
M  CHG  4   1   1  21   1  35  -1  56  -1
M  END
> <s_m_source_file>
../4gpk_ligand.sdf

> <i_m_source_file_index>
1

> <s_epik_input>
W09IXVtDSDJdW0NASF0oW05IMytdKUMoPU8pW05IXVtDQEBIXShbQ0gyXVtPSF0pQyg9TylbTkhdW0NAQEhdKFtDSDJdW0NIMl1bQ0gyXVtDSDJdW05IMytdKUMoPU8pTjFbQ0BASF0oW0NIMl1bQ0gyXVtDSDJdMSlDKD1PKVtOSF1bQ0BASF0oW0NIMl1DKD1PKVtPSF0pQyg9TylbTkhdW0NAQEhdKFtDQEBIXShbQ0gzXSlbQ0gyXVtDSDNdKUMoPU8pW05IXVtDQEBIXShbQ0hdKFtDSDNdKVtDSDNdKUMoPU8pW05IXVtDSDJdQyg9TylbT0hd

> <s_epik_cmdline>
J2VwaWtfYXBwJywgJy1pbWFlJywgJ2xpZ2FuZF9wcm8ubWFlJywgJy1vbWFlJywgJ2xpZ2FuZF9wcmVwLm1hZScsICctbXMnLCAnMScsICctcGgnLCAnNycsICctcGh0JywgJzAuNScsICctbnQn

> <r_epik_Ionization_Penalty>
  0.1672

> <r_epik_Ionization_Penalty_Charging>
  0.1672

> <r_epik_Ionization_Penalty_Neutral>
  0.0000

> <r_epik_State_Penalty>
  0.1523

> <r_epik_Charging_Adjusted_Penalty>
0.319485424044638

> <i_epik_Tot_Q>
0

> <i_epik_Tot_abs_Q>
4

$$$$
