4gpl_ligand
                    3D
 Schrodinger Suite 2020-3.
 90 92  0  0  1  0            999 V2000
   58.7040  -41.9200   -4.7940 C   0  0  0  0  0  0
   58.6360  -42.9020   -5.5290 O   0  0  0  0  0  0
   58.8440  -42.0950   -3.2940 C   0  0  0  0  0  0
   58.1870  -40.7710   -5.2340 N   0  0  0  0  0  0
   57.6700  -40.7530   -6.6500 C   0  0  2  0  0  0
   58.7760  -40.3040   -7.5650 C   0  0  0  0  0  0
   59.7200  -39.6440   -7.1450 O   0  0  0  0  0  0
   56.4350  -39.8590   -6.7870 C   0  0  0  0  0  0
   55.3260  -40.3920   -5.8960 C   0  0  0  0  0  0
   54.4700  -41.3820   -6.3590 C   0  0  0  0  0  0
   55.1480  -39.9170   -4.6010 C   0  0  0  0  0  0
   53.4610  -41.8640   -5.5420 C   0  0  0  0  0  0
   54.1410  -40.4240   -3.7750 C   0  0  0  0  0  0
   53.2800  -41.4010   -4.2450 C   0  0  0  0  0  0
   52.2630  -41.9700   -3.4900 O   0  0  0  0  0  0
   51.6920  -41.5610   -2.0300 P   0  0  0  0  0  0
   52.8000  -41.6930   -1.0080 O   0  5  0  0  0  0
   50.6170  -42.5820   -1.8300 O   0  0  0  0  0  0
   51.1730  -40.1600   -2.2850 O   0  5  0  0  0  0
   58.6940  -40.6550   -8.8310 N   0  0  0  0  0  0
   59.7930  -40.3670   -9.7410 C   0  0  2  0  0  0
   59.1630  -39.9020  -11.0520 C   0  0  0  0  0  0
   57.9880  -40.1570  -11.2810 O   0  0  0  0  0  0
   60.7230  -41.6170   -9.9600 C   0  0  2  0  0  0
   59.9440  -42.7190  -10.4240 O   0  0  0  0  0  0
   61.4070  -42.0680   -8.7070 C   0  0  0  0  0  0
   59.9390  -39.2020  -11.9030 N   0  0  0  0  0  0
   59.5010  -38.6880  -13.2210 C   0  0  2  0  0  0
   58.8490  -39.7390  -14.1070 C   0  0  0  0  0  0
   59.2690  -40.8760  -14.0780 O   0  0  0  0  0  0
   60.8170  -38.2630  -13.8630 C   0  0  0  0  0  0
   61.6420  -37.8040  -12.7120 C   0  0  0  0  0  0
   61.3010  -38.7390  -11.5680 C   0  0  0  0  0  0
   57.8340  -39.3670  -14.8890 N   0  0  0  0  0  0
   57.1850  -40.2910  -15.8440 C   0  0  2  0  0  0
   58.2100  -40.9330  -16.7950 C   0  0  0  0  0  0
   59.1420  -40.2650  -17.1700 O   0  0  0  0  0  0
   56.1860  -39.5220  -16.6930 C   0  0  0  0  0  0
   55.1530  -38.7150  -15.9460 C   0  0  0  0  0  0
   53.8730  -38.6250  -16.7480 C   0  0  0  0  0  0
   53.3820  -39.7140  -17.1090 O   0  0  0  0  0  0
   53.3620  -37.5050  -17.0320 O   0  5  0  0  0  0
   58.0360  -42.2080  -17.2100 N   0  0  0  0  0  0
   59.0310  -42.8930  -18.0660 C   0  0  2  0  0  0
   59.2500  -42.2720  -19.4460 C   0  0  0  0  0  0
   58.3220  -42.2250  -20.2450 O   0  0  0  0  0  0
   58.4570  -44.2950  -18.2420 C   0  0  0  0  0  0
   57.6030  -44.4740  -17.0680 C   0  0  0  0  0  0
   56.9910  -43.1390  -16.7730 C   0  0  0  0  0  0
   60.5000  -42.4870  -19.5900 N   0  0  0  0  0  0
   59.2809  -43.0814   -3.0791 H   0  0  0  0  0  0
   57.8529  -42.0223   -2.8223 H   0  0  0  0  0  0
   59.4997  -41.3082   -2.8927 H   0  0  0  0  0  0
   58.1276  -39.8635   -4.6152 H   0  0  0  0  0  0
   57.3711  -41.7738   -6.9304 H   0  0  0  0  0  0
   56.6896  -38.8329   -6.4831 H   0  0  0  0  0  0
   56.0972  -39.8582   -7.8338 H   0  0  0  0  0  0
   54.5921  -41.7802   -7.3663 H   0  0  0  0  0  0
   55.8062  -39.1346   -4.2232 H   0  0  0  0  0  0
   52.7885  -42.6299   -5.9285 H   0  0  0  0  0  0
   54.0331  -40.0489   -2.7573 H   0  0  0  0  0  0
   57.7933  -41.1667   -9.2010 H   0  0  0  0  0  0
   60.3891  -39.5665   -9.2785 H   0  0  0  0  0  0
   61.4904  -41.3901  -10.7147 H   0  0  0  0  0  0
   59.3461  -42.6220  -11.3422 H   0  0  0  0  0  0
   62.0229  -41.2476   -8.3099 H   0  0  0  0  0  0
   62.0486  -42.9331   -8.9305 H   0  0  0  0  0  0
   60.6521  -42.3546   -7.9600 H   0  0  0  0  0  0
   58.7431  -37.9040  -13.0766 H   0  0  0  0  0  0
   61.2670  -39.1230  -14.3807 H   0  0  0  0  0  0
   60.6282  -37.4569  -14.5872 H   0  0  0  0  0  0
   62.7078  -37.8664  -12.9769 H   0  0  0  0  0  0
   61.3850  -36.7624  -12.4689 H   0  0  0  0  0  0
   61.2848  -38.2252  -10.5955 H   0  0  0  0  0  0
   61.9794  -39.6033  -11.5148 H   0  0  0  0  0  0
   57.4825  -38.3282  -14.8035 H   0  0  0  0  0  0
   56.6926  -41.0576  -15.2276 H   0  0  0  0  0  0
   56.7229  -38.8064  -17.3331 H   0  0  0  0  0  0
   55.6217  -40.2256  -17.3228 H   0  0  0  0  0  0
   54.9381  -39.1977  -14.9812 H   0  0  0  0  0  0
   55.5378  -37.6996  -15.7703 H   0  0  0  0  0  0
   60.0056  -42.8237  -17.5607 H   0  0  0  0  0  0
   57.8871  -44.3426  -19.1816 H   0  0  0  0  0  0
   59.2782  -45.0261  -18.2739 H   0  0  0  0  0  0
   56.8259  -45.2201  -17.2902 H   0  0  0  0  0  0
   58.2126  -44.8208  -16.2206 H   0  0  0  0  0  0
   56.7903  -42.9884  -15.7020 H   0  0  0  0  0  0
   56.0715  -42.9542  -17.3478 H   0  0  0  0  0  0
   61.1635  -42.4826  -18.7126 H   0  0  0  0  0  0
   60.9137  -42.6767  -20.5914 H   0  0  0  0  0  0
  1  2  2  0  0  0
  1  3  1  0  0  0
  1  4  1  0  0  0
  3 51  1  0  0  0
  3 52  1  0  0  0
  3 53  1  0  0  0
  4  5  1  0  0  0
  4 54  1  0  0  0
  5  6  1  0  0  0
  5  8  1  0  0  0
  5 55  1  0  0  0
  6  7  2  0  0  0
  6 20  1  0  0  0
  8  9  1  0  0  0
  8 56  1  0  0  0
  8 57  1  0  0  0
  9 10  2  0  0  0
  9 11  1  0  0  0
 10 12  1  0  0  0
 10 58  1  0  0  0
 11 13  2  0  0  0
 11 59  1  0  0  0
 12 14  2  0  0  0
 12 60  1  0  0  0
 13 14  1  0  0  0
 13 61  1  0  0  0
 14 15  1  0  0  0
 15 16  1  0  0  0
 16 17  1  0  0  0
 16 18  2  0  0  0
 16 19  1  0  0  0
 20 21  1  0  0  0
 20 62  1  0  0  0
 21 22  1  0  0  0
 21 24  1  0  0  0
 21 63  1  0  0  0
 22 23  2  0  0  0
 22 27  1  0  0  0
 24 25  1  0  0  0
 24 26  1  0  0  0
 24 64  1  0  0  0
 25 65  1  0  0  0
 26 66  1  0  0  0
 26 67  1  0  0  0
 26 68  1  0  0  0
 27 28  1  0  0  0
 27 33  1  0  0  0
 28 29  1  0  0  0
 28 31  1  0  0  0
 28 69  1  0  0  0
 29 30  2  0  0  0
 29 34  1  0  0  0
 31 32  1  0  0  0
 31 70  1  0  0  0
 31 71  1  0  0  0
 32 33  1  0  0  0
 32 72  1  0  0  0
 32 73  1  0  0  0
 33 74  1  0  0  0
 33 75  1  0  0  0
 34 35  1  0  0  0
 34 76  1  0  0  0
 35 36  1  0  0  0
 35 38  1  0  0  0
 35 77  1  0  0  0
 36 37  2  0  0  0
 36 43  1  0  0  0
 38 39  1  0  0  0
 38 78  1  0  0  0
 38 79  1  0  0  0
 39 40  1  0  0  0
 39 80  1  0  0  0
 39 81  1  0  0  0
 40 41  2  0  0  0
 40 42  1  0  0  0
 43 44  1  0  0  0
 43 49  1  0  0  0
 44 45  1  0  0  0
 44 47  1  0  0  0
 44 82  1  0  0  0
 45 46  2  0  0  0
 45 50  1  0  0  0
 47 48  1  0  0  0
 47 83  1  0  0  0
 47 84  1  0  0  0
 48 49  1  0  0  0
 48 85  1  0  0  0
 48 86  1  0  0  0
 49 87  1  0  0  0
 49 88  1  0  0  0
 50 89  1  0  0  0
 50 90  1  0  0  0
M  CHG  3  17  -1  19  -1  42  -1
M  END
> <s_m_source_file>
../4gpl_ligand.sdf

> <i_m_source_file_index>
1

> <s_epik_input>
W09IXVAoPU8pKFtPSF0pT2MoW2NIXVtjSF0xKVtjSF1bY0hdYzFbQ0gyXVtDQEhdKFtOSF1DKD1PKVtDSDNdKUMoPU8pW05IXVtDQEBIXShbQ0BIXShbT0hdKVtDSDNdKUMoPU8pTjJbQ0BASF0oW0NIMl1bQ0gyXVtDSDJdMilDKD1PKVtOSF1bQ0BASF0oW0NIMl1bQ0gyXUMoPU8pW09IXSlDKD1PKU4zW0NASF0oQyg9TylbTkgyXSlbQ0gyXVtDSDJdW0NIMl0z

> <s_epik_cmdline>
J2VwaWtfYXBwJywgJy1pbWFlJywgJ2xpZ2FuZF9wcm8ubWFlJywgJy1vbWFlJywgJ2xpZ2FuZF9wcmVwLm1hZScsICctbXMnLCAnMScsICctcGgnLCAnNycsICctcGh0JywgJzAuNScsICctbnQn

> <r_epik_Ionization_Penalty>
  0.0856

> <r_epik_Ionization_Penalty_Charging>
  0.0856

> <r_epik_Ionization_Penalty_Neutral>
  0.0000

> <r_epik_State_Penalty>
  0.0749

> <r_epik_Charging_Adjusted_Penalty>
0.160498770405882

> <i_epik_Tot_Q>
-3

> <i_epik_Tot_abs_Q>
3

$$$$
