4gq4_ligand
                    3D
 Schrodinger Suite 2020-3.
 48 51  0  0  1  0            999 V2000
   -6.7250    6.4740   11.9360 F   0  0  0  0  0  0
   -6.3090    7.8100   12.1970 C   0  0  0  0  0  0
   -6.6780    8.2860   10.9120 F   0  0  0  0  0  0
   -5.1690    7.8840   12.3710 F   0  0  0  0  0  0
   -7.3680    8.3500   13.1430 C   0  0  0  0  0  0
   -8.7670    8.2900   12.8530 C   0  0  0  0  0  0
   -9.6990    6.8110   12.9990 S   0  0  0  0  0  0
   -9.6040    9.2380   12.3110 C   0  0  0  0  0  0
  -10.9070    8.9110   12.0560 C   0  0  0  0  0  0
  -11.0540    7.5130   12.3840 C   0  0  0  0  0  0
  -12.2200    6.9060   12.1920 N   0  0  0  0  0  0
  -13.2060    7.5450   11.6540 C   0  0  0  0  0  0
  -13.1800    8.8850   11.3140 N   0  0  0  0  0  0
  -12.0660    9.5380   11.5870 C   0  0  0  0  0  0
  -12.0760   10.9060   11.2930 N   0  0  0  0  0  0
  -11.2120   11.8840   11.9440 C   0  0  0  0  0  0
  -12.0880   12.9190   12.6080 C   0  0  0  0  0  0
  -13.2880   11.4210   10.6250 C   0  0  0  0  0  0
  -13.1780   12.8960   10.2840 C   0  0  0  0  0  0
  -12.9050   13.6350   11.6360 N   0  3  0  0  0  0
  -13.6200   14.7320   11.9520 C   0  0  0  0  0  0
  -13.5210   15.3680   13.5070 S   0  0  0  0  0  0
  -14.3170   16.8820   13.0350 C   0  0  0  0  0  0
  -15.4050   17.1500   14.0430 C   0  0  0  0  0  0
  -13.2810   17.9190   12.8620 C   0  0  0  0  0  0
  -15.0390   16.5660   11.7470 C   0  0  0  0  0  0
  -14.3650   15.4460   11.1260 N   0  0  0  0  0  0
   -7.3019    7.8233   14.1064 H   0  0  0  0  0  0
   -7.2038    9.4261   13.3014 H   0  0  0  0  0  0
   -9.2327   10.2381   12.0875 H   0  0  0  0  0  0
  -14.1220    6.9889   11.4543 H   0  0  0  0  0  0
  -10.5876   11.3788   12.6956 H   0  0  0  0  0  0
  -10.5666   12.3612   11.1919 H   0  0  0  0  0  0
  -12.7578   12.4254   13.3275 H   0  0  0  0  0  0
  -11.4571   13.6493   13.1358 H   0  0  0  0  0  0
  -13.4541   10.8674    9.6891 H   0  0  0  0  0  0
  -14.1560   11.2894   11.2878 H   0  0  0  0  0  0
  -12.3506   13.0477    9.5751 H   0  0  0  0  0  0
  -14.1188   13.2381    9.8281 H   0  0  0  0  0  0
  -14.9521   17.3899   15.0163 H   0  0  0  0  0  0
  -16.0394   16.2570   14.1439 H   0  0  0  0  0  0
  -16.0176   17.9986   13.7044 H   0  0  0  0  0  0
  -12.7884   18.1097   13.8269 H   0  0  0  0  0  0
  -13.7477   18.8465   12.4989 H   0  0  0  0  0  0
  -12.5348   17.5735   12.1313 H   0  0  0  0  0  0
  -16.0854   16.3077   11.9671 H   0  0  0  0  0  0
  -15.0095   17.4441   11.0852 H   0  0  0  0  0  0
  -14.4974   15.2515   10.0515 H   0  0  0  0  0  0
  1  2  1  0  0  0
  2  3  1  0  0  0
  2  4  1  0  0  0
  2  5  1  0  0  0
  5  6  1  0  0  0
  5 28  1  0  0  0
  5 29  1  0  0  0
  6  7  1  0  0  0
  6  8  2  0  0  0
  7 10  1  0  0  0
  8  9  1  0  0  0
  8 30  1  0  0  0
  9 10  2  0  0  0
  9 14  1  0  0  0
 10 11  1  0  0  0
 11 12  2  0  0  0
 12 13  1  0  0  0
 12 31  1  0  0  0
 13 14  2  0  0  0
 14 15  1  0  0  0
 15 16  1  0  0  0
 15 18  1  0  0  0
 16 17  1  0  0  0
 16 32  1  0  0  0
 16 33  1  0  0  0
 17 20  1  0  0  0
 17 34  1  0  0  0
 17 35  1  0  0  0
 18 19  1  0  0  0
 18 36  1  0  0  0
 18 37  1  0  0  0
 19 20  1  0  0  0
 19 38  1  0  0  0
 19 39  1  0  0  0
 20 21  2  0  0  0
 21 22  1  0  0  0
 21 27  1  0  0  0
 22 23  1  0  0  0
 23 24  1  0  0  0
 23 25  1  0  0  0
 23 26  1  0  0  0
 24 40  1  0  0  0
 24 41  1  0  0  0
 24 42  1  0  0  0
 25 43  1  0  0  0
 25 44  1  0  0  0
 25 45  1  0  0  0
 26 27  1  0  0  0
 26 46  1  0  0  0
 26 47  1  0  0  0
 27 48  1  0  0  0
M  CHG  1  20   1
M  END
> <s_m_source_file>
../4gq4_ligand.sdf

> <i_m_source_file_index>
1

> <s_epik_input>
RkMoRikoRilbQ0gyXWMoW2NIXTEpc2MoYzEyKW5bY0hdbmMyTjNbQ0gyXVtDSDJdW04rXShbQ0gyXVtDSDJdMyk9QyhbTkhdW0NIMl00KVNDNChbQ0gzXSlbQ0gzXQ==

> <s_epik_cmdline>
J2VwaWtfYXBwJywgJy1pbWFlJywgJ2xpZ2FuZF9wcm8ubWFlJywgJy1vbWFlJywgJ2xpZ2FuZF9wcmVwLm1hZScsICctbXMnLCAnMScsICctcGgnLCAnNycsICctcGh0JywgJzAuNScsICctbnQn

> <r_lp_tautomer_probability>
1

> <r_epik_Ionization_Penalty>
  0.0094

> <r_epik_Ionization_Penalty_Charging>
  0.0000

> <r_epik_Ionization_Penalty_Neutral>
  0.0094

> <r_epik_State_Penalty>
 -0.0000

> <r_epik_Charging_Adjusted_Penalty>
0

> <i_epik_Tot_Q>
1

> <i_epik_Tot_abs_Q>
1

> <s_epik_Chemistry_Notes>
This compound has an imine and may undergo hydrolysis.

$$$$
