4gq6_ligand
                    3D
 Schrodinger Suite 2020-3.
196200  0  0  1  0            999 V2000
   -7.0750   20.5640   -5.8480 N   0  3  0  0  0  0
   -6.8240   19.0630   -5.7530 C   0  0  2  0  0  0
   -7.3470   18.4670   -4.4360 C   0  0  0  0  0  0
   -7.1700   19.0560   -3.3540 O   0  0  0  0  0  0
   -5.3330   18.7030   -5.9220 C   0  0  0  0  0  0
   -4.8840   18.8860   -7.2700 O   0  0  0  0  0  0
   -7.9850   17.2950   -4.5420 N   0  0  0  0  0  0
   -8.5200   16.5760   -3.3730 C   0  0  2  0  0  0
   -7.3840   16.1920   -2.3630 C   0  0  0  0  0  0
   -6.2660   15.8730   -2.7620 O   0  0  0  0  0  0
   -9.3170   15.3530   -3.8360 C   0  0  0  0  0  0
   -7.6480   16.2460   -1.0640 N   0  0  0  0  0  0
   -6.6010   15.8620   -0.0890 C   0  0  2  0  0  0
   -7.0390   14.7230    0.8510 C   0  0  0  0  0  0
   -8.2100   14.4640    1.0470 O   0  0  0  0  0  0
   -6.1240   17.0210    0.7900 C   0  0  0  0  0  0
   -6.3770   18.4250    0.3040 C   0  0  0  0  0  0
   -6.5740   19.3670    1.4830 C   0  0  0  0  0  0
   -7.1610   20.6410    1.0400 N   0  0  0  0  0  0
   -6.6770   21.8580    1.2870 C   0  0  0  0  0  0
   -5.5860   22.0320    2.0290 N   0  0  0  0  0  0
   -7.3110   22.9260    0.8050 N   0  0  0  0  0  0
   -6.0610   14.0910    1.4620 N   0  0  0  0  0  0
   -6.2880   13.1960    2.6150 C   0  0  2  0  0  0
   -6.7290   13.8750    3.8920 C   0  0  0  0  0  0
   -6.1060   14.8530    4.3340 O   0  0  0  0  0  0
   -4.9280   12.5780    2.9400 C   0  0  0  0  0  0
   -5.0300   11.6280    4.0490 C   0  0  0  0  0  0
   -5.7770   10.4560    4.0470 C   0  0  0  0  0  0
   -4.5080   11.7630    5.4120 C   0  0  0  0  0  0
   -5.7140    9.8210    5.2680 N   0  0  0  0  0  0
   -4.9290   10.5440    6.1240 C   0  0  0  0  0  0
   -3.7590   12.7090    6.0760 C   0  0  0  0  0  0
   -4.6440   10.3250    7.4530 C   0  0  0  0  0  0
   -3.4210   12.4480    7.4190 C   0  0  0  0  0  0
   -3.8530   11.2880    8.0910 C   0  0  0  0  0  0
   -7.6890   13.2620    4.6100 N   0  0  0  0  0  0
   -7.9250   13.5790    6.0520 C   0  0  2  0  0  0
   -8.1200   12.3350    6.8200 C   0  0  0  0  0  0
   -8.6260   11.3700    6.2710 O   0  0  0  0  0  0
   -9.1430   14.4640    6.3450 C   0  0  0  0  0  0
   -8.5740   15.8110    6.7870 C   0  0  0  0  0  0
   -9.4040   16.9930    6.3880 C   0  0  0  0  0  0
  -10.3700   17.3190    7.4340 N   0  0  0  0  0  0
  -10.1880   18.2020    8.4070 C   0  0  0  0  0  0
   -9.0500   18.8780    8.5250 N   0  0  0  0  0  0
  -11.1740   18.4410    9.2450 N   0  0  0  0  0  0
   -7.7370   12.3500    8.0940 N   0  0  0  0  0  0
   -7.8670   11.1650    8.9270 C   0  0  2  0  0  0
   -9.2950   10.6830    8.8760 C   0  0  0  0  0  0
  -10.2350   11.4590    8.9860 O   0  0  0  0  0  0
   -7.4800   11.4620   10.3930 C   0  0  0  0  0  0
   -7.3100   10.2330   11.2640 C   0  0  0  0  0  0
   -8.3410    9.7490   12.0160 C   0  0  0  0  0  0
   -6.1640    9.4980   11.2450 C   0  0  0  0  0  0
   -8.1910    8.6430   12.8070 C   0  0  0  0  0  0
   -6.0050    8.3670   12.0260 C   0  0  0  0  0  0
   -7.0490    7.9190   12.8150 C   0  0  0  0  0  0
   -9.5210    9.3580    8.7560 N   0  0  0  0  0  0
  -10.8930    8.9140    8.5260 C   0  0  2  0  0  0
  -11.8670    9.3200    9.6410 C   0  0  0  0  0  0
  -11.5790    9.0990   10.7810 O   0  0  0  0  0  0
  -10.7540    7.3850    8.4740 C   0  0  0  0  0  0
   -9.3940    7.2210    7.7680 C   0  0  0  0  0  0
   -8.5350    8.3130    8.4100 C   0  0  0  0  0  0
  -12.9710    9.9080    9.2010 N   0  0  0  0  0  0
  -14.0840   10.3230   10.0880 C   0  0  2  0  0  0
  -13.6810   11.4800   11.0330 C   0  0  0  0  0  0
  -14.4370   11.7460   11.9460 O   0  0  0  0  0  0
  -14.6800    9.1590   10.8680 C   0  0  0  0  0  0
  -12.6170   12.1910   10.7220 N   0  0  0  0  0  0
  -12.3650   13.4680   11.4160 C   0  0  2  0  0  0
  -13.4600   14.4520   10.9710 C   0  0  0  0  0  0
  -13.7910   14.5250    9.7710 O   0  0  0  0  0  0
  -10.9840   13.9190   11.0580 C   0  0  0  0  0  0
  -10.5880   15.2590   11.5510 C   0  0  0  0  0  0
   -9.2990   15.6840   10.9210 C   0  0  0  0  0  0
   -8.9260   16.9330   11.5410 N   0  0  0  0  0  0
   -7.7170   17.4110   11.5190 C   0  0  0  0  0  0
   -6.8060   16.7990   10.8230 N   0  0  0  0  0  0
   -7.4460   18.5770   12.1160 N   0  0  0  0  0  0
  -14.0300   15.2060   11.8970 N   0  0  0  0  0  0
  -15.0920   16.1320   11.4880 C   0  0  2  0  0  0
  -14.5740   17.3110   10.6750 C   0  0  0  0  0  0
  -13.3950   17.5760   10.7040 O   0  0  0  0  0  0
  -15.6840   16.6100   12.8310 C   0  0  0  0  0  0
  -14.5020   16.4570   13.7920 C   0  0  0  0  0  0
  -13.8200   15.1940   13.3480 C   0  0  0  0  0  0
  -15.4620   18.0320   10.0050 N   0  0  0  0  0  0
  -15.0380   19.3130    9.3220 C   0  0  0  0  0  0
  -14.4280   19.0320    7.9830 C   0  0  0  0  0  0
  -14.3320   17.8610    7.5710 O   0  0  0  0  0  0
  -13.9640   20.0760    7.2980 N   0  0  0  0  0  0
  -13.4800   19.9310    5.9060 C   0  0  2  0  0  0
  -12.0650   20.4890    5.8040 C   0  0  0  0  0  0
  -11.5386   21.0205    6.8179 O   0  0  0  0  0  0
  -14.4380   20.6420    4.9220 C   0  0  2  0  0  0
  -14.0340   20.3880    3.5650 O   0  0  0  0  0  0
  -14.4870   22.1570    5.2040 C   0  0  0  0  0  0
  -11.4292   20.4195    4.7184 O   0  0  0  0  0  0
   -8.1491   20.7649   -5.7213 H   0  0  0  0  0  0
   -6.7474   20.9289   -6.8326 H   0  0  0  0  0  0
   -6.5096   21.0810   -5.0586 H   0  0  0  0  0  0
   -7.3932   18.6303   -6.5889 H   0  0  0  0  0  0
   -4.7244   19.3449   -5.2681 H   0  0  0  0  0  0
   -5.1771   17.6489   -5.6491 H   0  0  0  0  0  0
   -3.8394   18.6670   -7.5363 H   0  0  0  0  0  0
   -8.1031   16.8708   -5.5500 H   0  0  0  0  0  0
   -9.2104   17.2774   -2.8817 H   0  0  0  0  0  0
  -10.0997   15.6707   -4.5406 H   0  0  0  0  0  0
   -9.7824   14.8676   -2.9655 H   0  0  0  0  0  0
   -8.6414   14.6423   -4.3345 H   0  0  0  0  0  0
   -8.6365   16.5732   -0.7093 H   0  0  0  0  0  0
   -5.7948   15.5389   -0.7640 H   0  0  0  0  0  0
   -6.6174   16.9640    1.7715 H   0  0  0  0  0  0
   -5.0341   16.9557    0.9232 H   0  0  0  0  0  0
   -5.5165   18.7684   -0.2890 H   0  0  0  0  0  0
   -7.2821   18.4392   -0.3210 H   0  0  0  0  0  0
   -7.2491   18.9010    2.2158 H   0  0  0  0  0  0
   -5.6022   19.5697    1.9568 H   0  0  0  0  0  0
   -8.0868   20.6429    0.4460 H   0  0  0  0  0  0
   -5.0515   21.1601    2.4341 H   0  0  0  0  0  0
   -8.2141   22.7985    0.1901 H   0  0  0  0  0  0
   -6.9314   23.9354    1.0220 H   0  0  0  0  0  0
   -5.0411   14.2504    1.0819 H   0  0  0  0  0  0
   -7.0969   12.5212    2.2981 H   0  0  0  0  0  0
   -4.5464   12.0460    2.0561 H   0  0  0  0  0  0
   -4.2221   13.3729    3.2226 H   0  0  0  0  0  0
   -6.3401   10.0868    3.1899 H   0  0  0  0  0  0
   -3.4394   13.6260    5.5809 H   0  0  0  0  0  0
   -5.0152    9.4469    7.9814 H   0  0  0  0  0  0
   -2.8041   13.1685    7.9561 H   0  0  0  0  0  0
   -3.5650   11.1366    9.1313 H   0  0  0  0  0  0
   -8.3093   12.5075    4.1041 H   0  0  0  0  0  0
   -7.0066   14.1065    6.3493 H   0  0  0  0  0  0
   -9.7507   14.5648    5.4337 H   0  0  0  0  0  0
   -9.7480   14.0037    7.1401 H   0  0  0  0  0  0
   -8.4913   15.8320    7.8837 H   0  0  0  0  0  0
   -7.5783   15.9525    6.3414 H   0  0  0  0  0  0
   -8.7497   17.8618    6.2237 H   0  0  0  0  0  0
   -9.9477   16.7628    5.4599 H   0  0  0  0  0  0
  -11.3468   16.8138    7.4574 H   0  0  0  0  0  0
   -8.2206   18.6846    7.8288 H   0  0  0  0  0  0
   -8.9374   19.6310    9.3189 H   0  0  0  0  0  0
  -12.1194   17.8860    9.1545 H   0  0  0  0  0  0
   -7.3173   13.2753    8.5155 H   0  0  0  0  0  0
   -7.1865   10.4180    8.4923 H   0  0  0  0  0  0
   -6.5230   12.0038   10.4170 H   0  0  0  0  0  0
   -8.2619   12.0780   10.8611 H   0  0  0  0  0  0
   -9.3058   10.2552   11.9856 H   0  0  0  0  0  0
   -5.3469    9.8101   10.5946 H   0  0  0  0  0  0
   -9.0163    8.3364   13.4497 H   0  0  0  0  0  0
   -5.0570    7.8291   12.0195 H   0  0  0  0  0  0
   -6.9548    7.0171   13.4199 H   0  0  0  0  0  0
  -11.2726    9.3940    7.6119 H   0  0  0  0  0  0
  -10.7636    6.9810    9.4971 H   0  0  0  0  0  0
  -11.5932    6.9597    7.9040 H   0  0  0  0  0  0
   -9.0022    6.2107    7.9570 H   0  0  0  0  0  0
   -9.5228    7.3677    6.6855 H   0  0  0  0  0  0
   -7.7908    8.7272    7.7138 H   0  0  0  0  0  0
   -8.0298    7.9684    9.3243 H   0  0  0  0  0  0
  -13.0365   10.0842    8.1172 H   0  0  0  0  0  0
  -14.8541   10.6763    9.3865 H   0  0  0  0  0  0
  -14.9561    8.3539   10.1712 H   0  0  0  0  0  0
  -15.5757    9.4998   11.4080 H   0  0  0  0  0  0
  -13.9387    8.7825   11.5882 H   0  0  0  0  0  0
  -11.9181   11.8375    9.9496 H   0  0  0  0  0  0
  -12.3898   13.3526   12.5096 H   0  0  0  0  0  0
  -10.2489   13.2129   11.4716 H   0  0  0  0  0  0
  -10.8822   13.9549    9.9633 H   0  0  0  0  0  0
  -11.3702   15.9893   11.2962 H   0  0  0  0  0  0
  -10.4599   15.2249   12.6430 H   0  0  0  0  0  0
   -8.5329   14.9149   11.0987 H   0  0  0  0  0  0
   -9.4450   15.8129    9.8384 H   0  0  0  0  0  0
   -9.6828   17.5336   12.0668 H   0  0  0  0  0  0
   -7.0377   15.8405   10.3355 H   0  0  0  0  0  0
   -8.2233   19.0880   12.7032 H   0  0  0  0  0  0
   -6.4459   19.0248   12.0198 H   0  0  0  0  0  0
  -15.7947   15.6121   10.8202 H   0  0  0  0  0  0
  -16.0206   17.6526   12.7329 H   0  0  0  0  0  0
  -16.5386   15.9728   13.1025 H   0  0  0  0  0  0
  -13.8424   17.3329   13.7043 H   0  0  0  0  0  0
  -14.8757   16.3813   14.8238 H   0  0  0  0  0  0
  -14.2777   14.2905   13.7772 H   0  0  0  0  0  0
  -12.7411   15.1957   13.5624 H   0  0  0  0  0  0
  -16.5083   17.6976    9.9461 H   0  0  0  0  0  0
  -15.9156   19.9609    9.1804 H   0  0  0  0  0  0
  -14.2955   19.8326    9.9455 H   0  0  0  0  0  0
  -13.9449   21.0611    7.7871 H   0  0  0  0  0  0
  -13.4595   18.8561    5.6734 H   0  0  0  0  0  0
  -15.4505   20.2179    4.9922 H   0  0  0  0  0  0
  -13.9487   19.3535    3.2010 H   0  0  0  0  0  0
  -14.7977   22.3262    6.2456 H   0  0  0  0  0  0
  -15.2087   22.6334    4.5241 H   0  0  0  0  0  0
  -13.4896   22.5923    5.0436 H   0  0  0  0  0  0
  -10.4085   20.8242    4.6519 H   0  0  0  0  0  0
  1  2  1  0  0  0
  1101  1  0  0  0
  1102  1  0  0  0
  1103  1  0  0  0
  2  3  1  0  0  0
  2  5  1  0  0  0
  2104  1  0  0  0
  3  4  2  0  0  0
  3  7  1  0  0  0
  5  6  1  0  0  0
  5105  1  0  0  0
  5106  1  0  0  0
  6107  1  0  0  0
  7  8  1  0  0  0
  7108  1  0  0  0
  8  9  1  0  0  0
  8 11  1  0  0  0
  8109  1  0  0  0
  9 10  2  0  0  0
  9 12  1  0  0  0
 11110  1  0  0  0
 11111  1  0  0  0
 11112  1  0  0  0
 12 13  1  0  0  0
 12113  1  0  0  0
 13 14  1  0  0  0
 13 16  1  0  0  0
 13114  1  0  0  0
 14 15  2  0  0  0
 14 23  1  0  0  0
 16 17  1  0  0  0
 16115  1  0  0  0
 16116  1  0  0  0
 17 18  1  0  0  0
 17117  1  0  0  0
 17118  1  0  0  0
 18 19  1  0  0  0
 18119  1  0  0  0
 18120  1  0  0  0
 19 20  1  0  0  0
 19121  1  0  0  0
 20 21  2  0  0  0
 20 22  1  0  0  0
 21122  1  0  0  0
 22123  1  0  0  0
 22124  1  0  0  0
 23 24  1  0  0  0
 23125  1  0  0  0
 24 25  1  0  0  0
 24 27  1  0  0  0
 24126  1  0  0  0
 25 26  2  0  0  0
 25 37  1  0  0  0
 27 28  1  0  0  0
 27127  1  0  0  0
 27128  1  0  0  0
 28 29  2  0  0  0
 28 30  1  0  0  0
 29 31  1  0  0  0
 29129  1  0  0  0
 30 32  2  0  0  0
 30 33  1  0  0  0
 31 32  1  0  0  0
 32 34  1  0  0  0
 33 35  2  0  0  0
 33130  1  0  0  0
 34 36  2  0  0  0
 34131  1  0  0  0
 35 36  1  0  0  0
 35132  1  0  0  0
 36133  1  0  0  0
 37 38  1  0  0  0
 37134  1  0  0  0
 38 39  1  0  0  0
 38 41  1  0  0  0
 38135  1  0  0  0
 39 40  2  0  0  0
 39 48  1  0  0  0
 41 42  1  0  0  0
 41136  1  0  0  0
 41137  1  0  0  0
 42 43  1  0  0  0
 42138  1  0  0  0
 42139  1  0  0  0
 43 44  1  0  0  0
 43140  1  0  0  0
 43141  1  0  0  0
 44 45  1  0  0  0
 44142  1  0  0  0
 45 46  1  0  0  0
 45 47  2  0  0  0
 46143  1  0  0  0
 46144  1  0  0  0
 47145  1  0  0  0
 48 49  1  0  0  0
 48146  1  0  0  0
 49 50  1  0  0  0
 49 52  1  0  0  0
 49147  1  0  0  0
 50 51  2  0  0  0
 50 59  1  0  0  0
 52 53  1  0  0  0
 52148  1  0  0  0
 52149  1  0  0  0
 53 54  2  0  0  0
 53 55  1  0  0  0
 54 56  1  0  0  0
 54150  1  0  0  0
 55 57  2  0  0  0
 55151  1  0  0  0
 56 58  2  0  0  0
 56152  1  0  0  0
 57 58  1  0  0  0
 57153  1  0  0  0
 58154  1  0  0  0
 59 60  1  0  0  0
 59 65  1  0  0  0
 60 61  1  0  0  0
 60 63  1  0  0  0
 60155  1  0  0  0
 61 62  2  0  0  0
 61 66  1  0  0  0
 63 64  1  0  0  0
 63156  1  0  0  0
 63157  1  0  0  0
 64 65  1  0  0  0
 64158  1  0  0  0
 64159  1  0  0  0
 65160  1  0  0  0
 65161  1  0  0  0
 66 67  1  0  0  0
 66162  1  0  0  0
 67 68  1  0  0  0
 67 70  1  0  0  0
 67163  1  0  0  0
 68 69  2  0  0  0
 68 71  1  0  0  0
 70164  1  0  0  0
 70165  1  0  0  0
 70166  1  0  0  0
 71 72  1  0  0  0
 71167  1  0  0  0
 72 73  1  0  0  0
 72 75  1  0  0  0
 72168  1  0  0  0
 73 74  2  0  0  0
 73 82  1  0  0  0
 75 76  1  0  0  0
 75169  1  0  0  0
 75170  1  0  0  0
 76 77  1  0  0  0
 76171  1  0  0  0
 76172  1  0  0  0
 77 78  1  0  0  0
 77173  1  0  0  0
 77174  1  0  0  0
 78 79  1  0  0  0
 78175  1  0  0  0
 79 80  2  0  0  0
 79 81  1  0  0  0
 80176  1  0  0  0
 81177  1  0  0  0
 81178  1  0  0  0
 82 83  1  0  0  0
 82 88  1  0  0  0
 83 84  1  0  0  0
 83 86  1  0  0  0
 83179  1  0  0  0
 84 85  2  0  0  0
 84 89  1  0  0  0
 86 87  1  0  0  0
 86180  1  0  0  0
 86181  1  0  0  0
 87 88  1  0  0  0
 87182  1  0  0  0
 87183  1  0  0  0
 88184  1  0  0  0
 88185  1  0  0  0
 89 90  1  0  0  0
 89186  1  0  0  0
 90 91  1  0  0  0
 90187  1  0  0  0
 90188  1  0  0  0
 91 92  2  0  0  0
 91 93  1  0  0  0
 93 94  1  0  0  0
 93189  1  0  0  0
 94 95  1  0  0  0
 94 97  1  0  0  0
 94190  1  0  0  0
 95 96  2  0  0  0
 95100  1  0  0  0
 97 98  1  0  0  0
 97 99  1  0  0  0
 97191  1  0  0  0
 98192  1  0  0  0
 99193  1  0  0  0
 99194  1  0  0  0
 99195  1  0  0  0
100196  1  0  0  0
M  CHG  1   1   1
M  END
> <s_m_source_file>
../4gq6_ligand.sdf

> <i_m_source_file_index>
1

> <s_epik_input>
W09IXVtDSDJdW0NASF0oW05IMytdKUMoPU8pW05IXVtDQEBIXShbQ0gzXSlDKD1PKVtOSF1bQ0BASF0oW0NIMl1bQ0gyXVtDSDJdW05IXS9DKD1OXFtIXSlbTkgyXSlDKD1PKVtOSF1bQ0BASF0oW0NIMl1jMVtjSF1bbkhdYyhjMTIpW2NIXVtjSF1bY0hdW2NIXTIpQyg9TylbTkhdW0NAQEhdKFtDSDJdW0NIMl1bQ0gyXVtOSF0vQyhbTkgyXSk9TlxbSF0pQyg9TylbTkhdW0NAQEhdKFtDSDJdYzNbY0hdW2NIXVtjSF1bY0hdW2NIXTMpQyg9TylONFtDQEBIXShbQ0gyXVtDSDJdW0NIMl00KUMoPU8pW05IXVtDQEBIXShbQ0gzXSlDKD1PKVtOSF1bQ0BASF0oW0NIMl1bQ0gyXVtDSDJdW05IXS9DKD1OXFtIXSlbTkgyXSlDKD1PKU41W0NAQEhdKFtDSDJdW0NIMl1bQ0gyXTUpQyg9TylbTkhdW0NIMl1DKD1PKVtOSF1bQ0BIXShDKD1PKVtPSF0pW0NASF0oW09IXSlbQ0gzXQ==

> <s_epik_cmdline>
J2VwaWtfYXBwJywgJy1pbWFlJywgJ2xpZ2FuZF9wcm8ubWFlJywgJy1vbWFlJywgJ2xpZ2FuZF9wcmVwLm1hZScsICctbXMnLCAnMScsICctcGgnLCAnNycsICctcGh0JywgJzAuNScsICctbnQn

> <s_epik_pKa_notes>
Molecule size exceeds maximum supported for generating protonation states

> <s_epik_Chemistry_Notes>
This compound has an imine and may undergo hydrolysis.

$$$$
