4gqp_ligand
                    3D
 Schrodinger Suite 2020-3.
 27 27  0  0  1  0            999 V2000
   -2.2240   -2.0410   15.2970 N   0  3  0  0  0  0
   -2.8150   -3.4030   15.5240 C   0  0  1  0  0  0
   -1.6300   -4.3280   15.3530 C   0  0  0  0  0  0
   -3.3150   -3.6640   17.0270 C   0  0  0  0  0  0
   -4.0300   -4.9260   17.2130 C   0  0  0  0  0  0
   -3.3680   -6.0190   17.7230 C   0  0  0  0  0  0
   -5.4040   -5.0520   16.9880 C   0  0  0  0  0  0
   -4.0710   -7.1960   17.9670 C   0  0  0  0  0  0
   -6.1350   -6.2430   17.1710 C   0  0  0  0  0  0
   -5.4650   -7.3510   17.6720 C   0  0  0  0  0  0
   -3.3880   -1.0880   15.2610 C   0  0  0  0  0  0
   -1.5356   -1.7983   16.1199 H   0  0  0  0  0  0
   -1.6738   -2.0341   14.3445 H   0  0  0  0  0  0
   -3.6421   -3.5171   14.8078 H   0  0  0  0  0  0
   -1.2192   -4.2140   14.3390 H   0  0  0  0  0  0
   -1.9527   -5.3688   15.5031 H   0  0  0  0  0  0
   -0.8566   -4.0736   16.0926 H   0  0  0  0  0  0
   -2.4480   -3.6828   17.7038 H   0  0  0  0  0  0
   -3.9998   -2.8585   17.3307 H   0  0  0  0  0  0
   -2.3002   -5.9640   17.9347 H   0  0  0  0  0  0
   -5.9465   -4.1698   16.6482 H   0  0  0  0  0  0
   -3.5357   -8.0395   18.4030 H   0  0  0  0  0  0
   -7.1960   -6.2928   16.9262 H   0  0  0  0  0  0
   -5.9777   -8.2991   17.8342 H   0  0  0  0  0  0
   -3.0192   -0.0648   15.0963 H   0  0  0  0  0  0
   -3.9287   -1.1333   16.2179 H   0  0  0  0  0  0
   -4.0669   -1.3692   14.4425 H   0  0  0  0  0  0
  1  2  1  0  0  0
  1 11  1  0  0  0
  1 12  1  0  0  0
  1 13  1  0  0  0
  2  3  1  0  0  0
  2  4  1  0  0  0
  2 14  1  0  0  0
  3 15  1  0  0  0
  3 16  1  0  0  0
  3 17  1  0  0  0
  4  5  1  0  0  0
  4 18  1  0  0  0
  4 19  1  0  0  0
  5  6  2  0  0  0
  5  7  1  0  0  0
  6  8  1  0  0  0
  6 20  1  0  0  0
  7  9  2  0  0  0
  7 21  1  0  0  0
  8 10  2  0  0  0
  8 22  1  0  0  0
  9 10  1  0  0  0
  9 23  1  0  0  0
 10 24  1  0  0  0
 11 25  1  0  0  0
 11 26  1  0  0  0
 11 27  1  0  0  0
M  CHG  1   1   1
M  END
> <s_m_source_file>
../4gqp_ligand.sdf

> <i_m_source_file_index>
1

> <s_epik_input>
W0NIM11bTkgyK11bQ0BASF0oW0NIM10pW0NIMl1jMVtjSF1bY0hdW2NIXVtjSF1bY0hdMQ==

> <s_epik_cmdline>
J2VwaWtfYXBwJywgJy1pbWFlJywgJ2xpZ2FuZF9wcm8ubWFlJywgJy1vbWFlJywgJ2xpZ2FuZF9wcmVwLm1hZScsICctbXMnLCAnMScsICctcGgnLCAnNycsICctcGh0JywgJzAuNScsICctbnQn

> <r_lp_tautomer_probability>
1

> <r_epik_Ionization_Penalty>
  0.0005

> <r_epik_Ionization_Penalty_Charging>
  0.0005

> <r_epik_Ionization_Penalty_Neutral>
  0.0000

> <r_epik_State_Penalty>
 -0.0000

> <r_epik_Charging_Adjusted_Penalty>
0.000543098820967012

> <i_epik_Tot_Q>
1

> <i_epik_Tot_abs_Q>
1

$$$$
