4gqr_ligand
                    3D
 Schrodinger Suite 2020-3.
 33 35  0  0  1  0            999 V2000
   14.2640   13.8960   35.1200 C   0  0  0  0  0  0
   15.1520   14.3270   36.0970 C   0  0  0  0  0  0
   14.6650   14.9030   37.2670 C   0  0  0  0  0  0
   13.3060   15.0600   37.4600 C   0  0  0  0  0  0
   12.4130   14.6220   36.4780 C   0  0  0  0  0  0
   12.8910   14.0440   35.3170 C   0  0  0  0  0  0
   15.5370   15.2540   38.2980 C   0  0  0  0  0  0
   14.9800   15.5290   39.5470 C   0  0  0  0  0  0
   13.6000   15.5780   39.6650 C   0  0  0  0  0  0
   12.9770   15.5700   40.9150 C   0  0  0  0  0  0
   13.7160   15.4030   42.0780 C   0  0  0  0  0  0
   13.0720   15.4200   43.3130 C   0  0  0  0  0  0
   11.7040   15.6020   43.3790 C   0  0  0  0  0  0
   10.9640   15.7630   42.2200 C   0  0  0  0  0  0
   11.6020   15.7480   40.9830 C   0  0  0  0  0  0
   12.8130   15.6930   38.5620 O   0  0  0  0  0  0
   16.7430   15.3300   38.1170 O   0  0  0  0  0  0
    9.6120   15.9310   42.2840 O   0  0  0  0  0  0
   11.0770   15.6400   44.5940 O   0  0  0  0  0  0
   13.8030   15.2570   44.4540 O   0  0  0  0  0  0
   15.7950   15.7350   40.6150 O   0  0  0  0  0  0
   12.0170   13.6150   34.3650 O   0  0  0  0  0  0
   16.4900   14.1920   35.9030 O   0  0  0  0  0  0
   14.6388   13.4434   34.2020 H   0  0  0  0  0  0
   11.3394   14.7363   36.6278 H   0  0  0  0  0  0
   14.7952   15.2592   42.0251 H   0  0  0  0  0  0
   11.0225   15.8759   40.0687 H   0  0  0  0  0  0
    9.1049   15.9433   43.2601 H   0  0  0  0  0  0
   11.6601   15.5127   45.5180 H   0  0  0  0  0  0
   14.8918   15.1126   44.3937 H   0  0  0  0  0  0
   16.8870   15.6898   40.4904 H   0  0  0  0  0  0
   12.3939   13.1545   33.4398 H   0  0  0  0  0  0
   16.8681   13.7359   34.9762 H   0  0  0  0  0  0
  1  2  2  0  0  0
  1  6  1  0  0  0
  1 24  1  0  0  0
  2  3  1  0  0  0
  2 23  1  0  0  0
  3  4  2  0  0  0
  3  7  1  0  0  0
  4  5  1  0  0  0
  4 16  1  0  0  0
  5  6  2  0  0  0
  5 25  1  0  0  0
  6 22  1  0  0  0
  7  8  1  0  0  0
  7 17  2  0  0  0
  8  9  2  0  0  0
  8 21  1  0  0  0
  9 10  1  0  0  0
  9 16  1  0  0  0
 10 11  2  0  0  0
 10 15  1  0  0  0
 11 12  1  0  0  0
 11 26  1  0  0  0
 12 13  2  0  0  0
 12 20  1  0  0  0
 13 14  1  0  0  0
 13 19  1  0  0  0
 14 15  2  0  0  0
 14 18  1  0  0  0
 15 27  1  0  0  0
 18 28  1  0  0  0
 19 29  1  0  0  0
 20 30  1  0  0  0
 21 31  1  0  0  0
 22 32  1  0  0  0
 23 33  1  0  0  0
M  END
> <s_m_source_file>
../4gqr_ligand.sdf

> <i_m_source_file_index>
1

> <s_epik_input>
W09IXWMxW2NIXWMoW09IXSlbY0hdYyhjMTIpb2MoYyhjMj1PKVtPSF0pLWMzW2NIXWMoW09IXSljKFtPSF0pYyhbY0hdMylbT0hd

> <s_epik_cmdline>
J2VwaWtfYXBwJywgJy1pbWFlJywgJ2xpZ2FuZF9wcm8ubWFlJywgJy1vbWFlJywgJ2xpZ2FuZF9wcmVwLm1hZScsICctbXMnLCAnMScsICctcGgnLCAnNycsICctcGh0JywgJzAuNScsICctbnQn

> <r_lp_tautomer_probability>
0.999999999957461

> <r_epik_Ionization_Penalty>
  0.0530

> <r_epik_Ionization_Penalty_Charging>
  0.0000

> <r_epik_Ionization_Penalty_Neutral>
  0.0530

> <r_epik_State_Penalty>
  0.0262

> <r_epik_Charging_Adjusted_Penalty>
0.0262048054598102

> <i_epik_Tot_Q>
0

> <i_epik_Tot_abs_Q>
0

$$$$
