4gr3_ligand
                    3D
 Schrodinger Suite 2020-3.
 74 76  0  0  1  0            999 V2000
    9.7030   26.3050    4.6990 O   0  0  0  0  0  0
    6.3090   22.4290    5.7260 N   0  0  0  0  0  0
    7.4530   22.7090    5.1200 O   0  0  0  0  0  0
    8.8210   26.5950    3.8510 C   0  0  0  0  0  0
    8.4300   25.6130    2.7890 C   0  0  2  0  0  0
    8.5310   24.2150    3.3760 C   0  0  0  0  0  0
    6.0270   24.1220    4.2670 C   0  0  0  0  0  0
    5.4020   23.3020    5.2260 C   0  0  0  0  0  0
    3.9750   23.2550    5.6560 C   0  0  0  0  0  0
    2.9750   23.9760    5.0150 C   0  0  0  0  0  0
    1.6490   23.8750    5.4480 C   0  0  0  0  0  0
    1.3220   23.0290    6.5080 C   0  0  0  0  0  0
    2.3230   22.2950    7.1370 C   0  0  0  0  0  0
    3.6430   22.3990    6.7020 C   0  0  0  0  0  0
    7.3640   23.7230    4.2110 C   0  0  0  0  0  0
    9.4750   25.7820    1.6790 C   0  0  0  0  0  0
    9.1250   24.9510    0.1040 P   0  0  1  0  0  0
    9.4710   23.4720    0.1530 O   0  5  0  0  0  0
    7.7220   25.2760   -0.3540 O   0  0  0  0  0  0
   10.1890   25.6630   -1.0960 C   0  0  0  0  0  0
    9.6850   26.1500   -2.3010 C   0  0  0  0  0  0
   10.5550   26.7050   -3.2410 C   0  0  0  0  0  0
   11.9240   26.7560   -2.9870 C   0  0  0  0  0  0
   13.1200   27.5090   -4.2600 Br  0  0  0  0  0  0
   12.4260   26.2610   -1.7860 C   0  0  0  0  0  0
   11.5530   25.7160   -0.8490 C   0  0  0  0  0  0
    8.1910   27.7610    3.8330 N   0  0  0  0  0  0
    8.6000   28.8420    4.7180 C   0  0  2  0  0  0
    7.8140   28.8760    6.0230 C   0  0  0  0  0  0
    6.6560   28.4640    6.0900 O   0  0  0  0  0  0
    8.5050   30.1880    3.9900 C   0  0  0  0  0  0
    9.4130   30.2920    2.7720 C   0  0  0  0  0  0
    9.3730   31.6630    2.1320 C   0  0  0  0  0  0
    8.6490   31.8310    1.1280 O   0  5  0  0  0  0
   10.0700   32.5700    2.6320 O   0  0  0  0  0  0
    8.4610   29.3690    7.0710 N   0  0  0  0  0  0
    7.7900   29.5890    8.3360 C   0  0  2  0  0  0
    6.6770   30.6270    8.1600 C   0  0  0  0  0  0
    5.5210   30.3800    8.5170 O   0  0  0  0  0  0
    8.8050   30.0620    9.3670 C   0  0  0  0  0  0
    8.2900   30.1150   10.7830 C   0  0  0  0  0  0
    9.4240   30.0860   11.7770 C   0  0  0  0  0  0
   10.1280   31.1130   11.9030 O   0  5  0  0  0  0
    9.6300   29.0260   12.4060 O   0  0  0  0  0  0
    7.0260   31.7790    7.5960 N   0  0  0  0  0  0
    7.4037   25.7779    2.4291 H   0  0  0  0  0  0
    8.6370   23.4825    2.5623 H   0  0  0  0  0  0
    9.4079   24.1576    4.0376 H   0  0  0  0  0  0
    5.5586   24.9138    3.6824 H   0  0  0  0  0  0
    3.2245   24.6216    4.1730 H   0  0  0  0  0  0
    0.8701   24.4580    4.9566 H   0  0  0  0  0  0
    0.2879   22.9434    6.8417 H   0  0  0  0  0  0
    2.0745   21.6382    7.9706 H   0  0  0  0  0  0
    4.4203   21.8061    7.1841 H   0  0  0  0  0  0
    9.5842   26.8496    1.4377 H   0  0  0  0  0  0
   10.4412   25.3828    2.0211 H   0  0  0  0  0  0
    8.6162   26.0976   -2.5083 H   0  0  0  0  0  0
   10.1617   27.1001   -4.1776 H   0  0  0  0  0  0
   13.4959   26.3001   -1.5811 H   0  0  0  0  0  0
   11.9458   25.3262    0.0901 H   0  0  0  0  0  0
    7.3502   27.9068    3.1389 H   0  0  0  0  0  0
    9.6437   28.6001    4.9672 H   0  0  0  0  0  0
    7.4731   30.3451    3.6429 H   0  0  0  0  0  0
    8.7875   30.9980    4.6785 H   0  0  0  0  0  0
   10.4520   30.0889    3.0708 H   0  0  0  0  0  0
    9.0985   29.5571    2.0163 H   0  0  0  0  0  0
    9.5286   29.6119    6.9652 H   0  0  0  0  0  0
    7.3614   28.6234    8.6426 H   0  0  0  0  0  0
    9.6695   29.3818    9.3693 H   0  0  0  0  0  0
    9.1392   31.0787    9.1129 H   0  0  0  0  0  0
    7.7177   31.0427   10.9305 H   0  0  0  0  0  0
    7.6382   29.2486   10.9688 H   0  0  0  0  0  0
    8.0702   31.9502    7.2955 H   0  0  0  0  0  0
    6.2706   32.5611    7.4298 H   0  0  0  0  0  0
  1  4  2  0  0  0
  2  3  1  0  0  0
  2  8  2  0  0  0
  3 15  1  0  0  0
  4  5  1  0  0  0
  4 27  1  0  0  0
  5  6  1  0  0  0
  5 16  1  0  0  0
  5 46  1  0  0  0
  6 15  1  0  0  0
  6 47  1  0  0  0
  6 48  1  0  0  0
  7  8  1  0  0  0
  7 15  2  0  0  0
  7 49  1  0  0  0
  8  9  1  0  0  0
  9 10  2  0  0  0
  9 14  1  0  0  0
 10 11  1  0  0  0
 10 50  1  0  0  0
 11 12  2  0  0  0
 11 51  1  0  0  0
 12 13  1  0  0  0
 12 52  1  0  0  0
 13 14  2  0  0  0
 13 53  1  0  0  0
 14 54  1  0  0  0
 16 17  1  0  0  0
 16 55  1  0  0  0
 16 56  1  0  0  0
 17 18  1  0  0  0
 17 19  2  0  0  0
 17 20  1  0  0  0
 20 21  2  0  0  0
 20 26  1  0  0  0
 21 22  1  0  0  0
 21 57  1  0  0  0
 22 23  2  0  0  0
 22 58  1  0  0  0
 23 24  1  0  0  0
 23 25  1  0  0  0
 25 26  2  0  0  0
 25 59  1  0  0  0
 26 60  1  0  0  0
 27 28  1  0  0  0
 27 61  1  0  0  0
 28 29  1  0  0  0
 28 31  1  0  0  0
 28 62  1  0  0  0
 29 30  2  0  0  0
 29 36  1  0  0  0
 31 32  1  0  0  0
 31 63  1  0  0  0
 31 64  1  0  0  0
 32 33  1  0  0  0
 32 65  1  0  0  0
 32 66  1  0  0  0
 33 34  1  0  0  0
 33 35  2  0  0  0
 36 37  1  0  0  0
 36 67  1  0  0  0
 37 38  1  0  0  0
 37 40  1  0  0  0
 37 68  1  0  0  0
 38 39  2  0  0  0
 38 45  1  0  0  0
 40 41  1  0  0  0
 40 69  1  0  0  0
 40 70  1  0  0  0
 41 42  1  0  0  0
 41 71  1  0  0  0
 41 72  1  0  0  0
 42 43  1  0  0  0
 42 44  2  0  0  0
 45 73  1  0  0  0
 45 74  1  0  0  0
M  CHG  3  18  -1  34  -1  43  -1
M  END
> <s_m_source_file>
../4gr3_ligand.sdf

> <i_m_source_file_index>
1

> <s_epik_input>
W09IXUMoPU8pW0NIMl1bQ0gyXVtDQEBIXShDKD1PKVtOSDJdKVtOSF1DKD1PKVtDQEhdKFtDSDJdW0NIMl1DKD1PKVtPSF0pW05IXUMoPU8pW0NAQEhdKFtDSDJdW1BAXSg9TykoW09IXSljMVtjSF1bY0hdYyhCcilbY0hdW2NIXTEpW0NIMl1jKFtjSF0yKW9uYzItYzNbY0hdW2NIXVtjSF1bY0hdW2NIXTM=

> <s_epik_cmdline>
J2VwaWtfYXBwJywgJy1pbWFlJywgJ2xpZ2FuZF9wcm8ubWFlJywgJy1vbWFlJywgJ2xpZ2FuZF9wcmVwLm1hZScsICctbXMnLCAnMScsICctcGgnLCAnNycsICctcGh0JywgJzAuNScsICctbnQn

> <r_lp_tautomer_probability>
1

> <r_epik_Ionization_Penalty>
  0.0035

> <r_epik_Ionization_Penalty_Charging>
  0.0035

> <r_epik_Ionization_Penalty_Neutral>
  0.0000

> <r_epik_State_Penalty>
 -0.0000

> <r_epik_Charging_Adjusted_Penalty>
0.00353491621140535

> <i_epik_Tot_Q>
-3

> <i_epik_Tot_abs_Q>
3

$$$$
