4gr8_ligand
                    3D
 Schrodinger Suite 2020-3.
 64 66  0  0  1  0            999 V2000
   -8.0270   26.1270   -5.3260 O   0  0  0  0  0  0
   -4.4570   22.0830   -6.2640 N   0  0  0  0  0  0
   -5.5910   22.4700   -5.6850 O   0  0  0  0  0  0
   -6.9460   26.3680   -4.7480 C   0  0  0  0  0  0
   -6.4870   25.5080   -3.6090 C   0  0  2  0  0  0
   -6.5900   24.0520   -4.0210 C   0  0  0  0  0  0
   -4.0730   23.7770   -4.8240 C   0  0  0  0  0  0
   -3.5080   22.8990   -5.7700 C   0  0  0  0  0  0
   -2.0850   22.7460   -6.1620 C   0  0  0  0  0  0
   -1.0960   23.4670   -5.5150 C   0  0  0  0  0  0
    0.2330   23.2880   -5.8880 C   0  0  0  0  0  0
    0.5630   22.3930   -6.8960 C   0  0  0  0  0  0
   -0.4290   21.6570   -7.5410 C   0  0  0  0  0  0
   -1.7550   21.8340   -7.1590 C   0  0  0  0  0  0
   -5.4370   23.4870   -4.8030 C   0  0  0  0  0  0
   -7.5180   25.7840   -2.5360 C   0  0  0  0  0  0
   -7.2010   25.0340   -0.9150 P   0  0  2  0  0  0
   -5.7870   25.3240   -0.4330 O   0  5  0  0  0  0
   -7.5830   23.5750   -0.8720 O   0  0  0  0  0  0
   -8.2060   25.9570    0.1660 C   0  0  0  0  0  0
   -9.5840   25.9230    0.0160 C   0  0  0  0  0  0
  -10.3970   26.6540    0.8630 C   0  0  0  0  0  0
   -9.8030   27.4220    1.8560 C   0  0  0  0  0  0
  -10.8680   28.4170    3.0420 Br  0  0  0  0  0  0
   -8.4210   27.4610    2.0070 C   0  0  0  0  0  0
   -7.6130   26.7290    1.1520 C   0  0  0  0  0  0
   -6.1000   27.3340   -5.1060 N   0  0  0  0  0  0
   -6.4460   28.4190   -6.0170 C   0  0  2  0  0  0
   -6.0870   28.1360   -7.4650 C   0  0  0  0  0  0
   -5.0680   27.5120   -7.7480 O   0  0  0  0  0  0
   -5.7550   29.6960   -5.5740 C   0  0  0  0  0  0
   -6.9170   28.6430   -8.3740 N   0  0  0  0  0  0
   -6.6880   28.5160   -9.8110 C   0  0  2  0  0  0
   -5.4320   29.2530  -10.2700 C   0  0  0  0  0  0
   -4.8230   28.8830  -11.2740 O   0  0  0  0  0  0
   -7.9090   29.0040  -10.5860 C   0  0  0  0  0  0
   -5.0580   30.2980   -9.5380 N   0  0  0  0  0  0
   -5.4524   25.7158   -3.2986 H   0  0  0  0  0  0
   -6.6784   23.4223   -3.1234 H   0  0  0  0  0  0
   -7.4775   23.9124   -4.6557 H   0  0  0  0  0  0
   -3.5515   24.5281   -4.2308 H   0  0  0  0  0  0
   -1.3554   24.1678   -4.7215 H   0  0  0  0  0  0
    1.0182   23.8534   -5.3861 H   0  0  0  0  0  0
    1.6060   22.2648   -7.1854 H   0  0  0  0  0  0
   -0.1701   20.9536   -8.3324 H   0  0  0  0  0  0
   -2.5403   21.2543   -7.6441 H   0  0  0  0  0  0
   -7.5853   26.8681   -2.3624 H   0  0  0  0  0  0
   -8.4973   25.4033   -2.8618 H   0  0  0  0  0  0
  -10.0288   25.3171   -0.7734 H   0  0  0  0  0  0
  -11.4812   26.6279    0.7535 H   0  0  0  0  0  0
   -7.9746   28.0660    2.7961 H   0  0  0  0  0  0
   -6.5282   26.7600    1.2534 H   0  0  0  0  0  0
   -5.0907   27.2811   -4.6719 H   0  0  0  0  0  0
   -7.5412   28.4904   -5.9433 H   0  0  0  0  0  0
   -6.0112   29.9067   -4.5252 H   0  0  0  0  0  0
   -6.0874   30.5315   -6.2076 H   0  0  0  0  0  0
   -4.6657   29.5751   -5.6682 H   0  0  0  0  0  0
   -7.8054   29.1754   -8.0036 H   0  0  0  0  0  0
   -6.5335   27.4390   -9.9727 H   0  0  0  0  0  0
   -8.8023   28.4623  -10.2418 H   0  0  0  0  0  0
   -7.7594   28.8194  -11.6600 H   0  0  0  0  0  0
   -8.0452   30.0820  -10.4147 H   0  0  0  0  0  0
   -5.6404   30.5840   -8.6497 H   0  0  0  0  0  0
   -4.1662   30.8766   -9.8206 H   0  0  0  0  0  0
  1  4  2  0  0  0
  2  3  1  0  0  0
  2  8  2  0  0  0
  3 15  1  0  0  0
  4  5  1  0  0  0
  4 27  1  0  0  0
  5  6  1  0  0  0
  5 16  1  0  0  0
  5 38  1  0  0  0
  6 15  1  0  0  0
  6 39  1  0  0  0
  6 40  1  0  0  0
  7  8  1  0  0  0
  7 15  2  0  0  0
  7 41  1  0  0  0
  8  9  1  0  0  0
  9 10  2  0  0  0
  9 14  1  0  0  0
 10 11  1  0  0  0
 10 42  1  0  0  0
 11 12  2  0  0  0
 11 43  1  0  0  0
 12 13  1  0  0  0
 12 44  1  0  0  0
 13 14  2  0  0  0
 13 45  1  0  0  0
 14 46  1  0  0  0
 16 17  1  0  0  0
 16 47  1  0  0  0
 16 48  1  0  0  0
 17 18  1  0  0  0
 17 19  2  0  0  0
 17 20  1  0  0  0
 20 21  2  0  0  0
 20 26  1  0  0  0
 21 22  1  0  0  0
 21 49  1  0  0  0
 22 23  2  0  0  0
 22 50  1  0  0  0
 23 24  1  0  0  0
 23 25  1  0  0  0
 25 26  2  0  0  0
 25 51  1  0  0  0
 26 52  1  0  0  0
 27 28  1  0  0  0
 27 53  1  0  0  0
 28 29  1  0  0  0
 28 31  1  0  0  0
 28 54  1  0  0  0
 29 30  2  0  0  0
 29 32  1  0  0  0
 31 55  1  0  0  0
 31 56  1  0  0  0
 31 57  1  0  0  0
 32 33  1  0  0  0
 32 58  1  0  0  0
 33 34  1  0  0  0
 33 36  1  0  0  0
 33 59  1  0  0  0
 34 35  2  0  0  0
 34 37  1  0  0  0
 36 60  1  0  0  0
 36 61  1  0  0  0
 36 62  1  0  0  0
 37 63  1  0  0  0
 37 64  1  0  0  0
M  CHG  1  18  -1
M  END
> <s_m_source_file>
../4gr8_ligand.sdf

> <i_m_source_file_index>
1

> <s_epik_input>
W2NIXTFbY0hdYyhCcilbY0hdW2NIXWMxW1BAXSg9TykoW09IXSlbQ0gyXVtDQEhdKEMoPU8pW05IXVtDQEBIXShbQ0gzXSlDKD1PKVtOSF1bQ0BASF0oW0NIM10pQyg9TylbTkgyXSlbQ0gyXWMoW2NIXTIpb25jMi1jM1tjSF1bY0hdW2NIXVtjSF1bY0hdMw==

> <s_epik_cmdline>
J2VwaWtfYXBwJywgJy1pbWFlJywgJ2xpZ2FuZF9wcm8ubWFlJywgJy1vbWFlJywgJ2xpZ2FuZF9wcmVwLm1hZScsICctbXMnLCAnMScsICctcGgnLCAnNycsICctcGh0JywgJzAuNScsICctbnQn

> <r_lp_tautomer_probability>
1

> <r_epik_Ionization_Penalty>
  0.0000

> <r_epik_Ionization_Penalty_Charging>
  0.0000

> <r_epik_Ionization_Penalty_Neutral>
  0.0000

> <r_epik_State_Penalty>
 -0.0000

> <r_epik_Charging_Adjusted_Penalty>
1.14966641040752e-05

> <i_epik_Tot_Q>
-1

> <i_epik_Tot_abs_Q>
1

$$$$
