4gs6_ligand
                    3D
 Schrodinger Suite 2020-3.
 52 53  0  0  1  0            999 V2000
   15.0090   18.5770   55.3550 C   0  0  0  0  0  0
   14.4020   17.6370   54.4810 C   0  0  0  0  0  0
   14.2440   19.6720   55.8090 C   0  0  0  0  0  0
   13.0920   17.8480   54.0770 C   0  0  0  0  0  0
   12.3620   18.9370   54.5250 C   0  0  0  0  0  0
   17.1290   17.4400   55.3210 O   0  0  0  0  0  0
   12.9450   19.8400   55.3920 C   0  0  0  0  0  0
   14.7180   15.5760   53.1130 C   0  0  0  0  0  0
   19.3330   16.5290   54.5660 C   0  0  0  0  0  0
   15.1630   16.4920   53.9690 C   0  0  0  0  0  0
   16.3960   14.9490   51.4140 C   0  0  1  0  0  0
   16.4190   18.5020   55.8530 C   0  0  0  0  0  0
   18.5780   17.3700   55.5820 C   0  0  2  0  0  0
   15.5290   14.4800   52.5580 C   0  0  0  0  0  0
   16.8910   19.3470   56.6200 O   0  0  0  0  0  0
   17.7680   14.2850   51.2320 C   0  0  1  0  0  0
   18.7840   14.7650   52.2380 C   0  0  1  0  0  0
   19.1470   13.8340   53.1190 O   0  0  0  0  0  0
   19.2310   16.0190   52.1810 C   0  0  0  0  0  0
   19.4540   16.8980   53.2970 C   0  0  0  0  0  0
   15.6860   14.8940   50.1960 O   0  0  0  0  0  0
   17.6830   12.8680   51.2040 O   0  0  0  0  0  0
   14.7940   20.6070   56.6690 O   0  0  0  0  0  0
   11.0270   19.1980   54.1650 O   0  0  0  0  0  0
   10.3490   18.2530   53.3440 C   0  0  0  0  0  0
   18.7820   16.8750   56.9870 C   0  0  0  0  0  0
   12.6260   17.1406   53.3911 H   0  0  0  0  0  0
   12.3696   20.6941   55.7491 H   0  0  0  0  0  0
   13.6731   15.6051   52.7703 H   0  0  0  0  0  0
   20.3784   16.4151   54.8887 H   0  0  0  0  0  0
   18.8630   15.5375   54.4890 H   0  0  0  0  0  0
   16.1900   16.4285   54.3578 H   0  0  0  0  0  0
   16.5790   16.0093   51.6425 H   0  0  0  0  0  0
   18.9733   18.3913   55.4787 H   0  0  0  0  0  0
   16.1832   14.0738   53.3436 H   0  0  0  0  0  0
   14.8658   13.6852   52.1859 H   0  0  0  0  0  0
   18.1498   14.5213   50.2278 H   0  0  0  0  0  0
   17.9710   15.0819   52.9078 H   0  0  0  0  0  0
   18.7075   12.8269   53.0676 H   0  0  0  0  0  0
   20.2272   16.0323   51.7146 H   0  0  0  0  0  0
   18.5379   16.6285   51.5826 H   0  0  0  0  0  0
   18.7499   17.7160   53.0843 H   0  0  0  0  0  0
   20.4823   17.2418   53.1116 H   0  0  0  0  0  0
   14.6750   15.3222   50.1289 H   0  0  0  0  0  0
   16.9818   12.3726   50.5164 H   0  0  0  0  0  0
   15.8317   20.4923   57.0154 H   0  0  0  0  0  0
    9.3229   18.6013   53.1547 H   0  0  0  0  0  0
   10.3174   17.2794   53.8550 H   0  0  0  0  0  0
   10.8829   18.1482   52.3880 H   0  0  0  0  0  0
   18.2190   17.5116   57.6854 H   0  0  0  0  0  0
   19.8524   16.9133   57.2374 H   0  0  0  0  0  0
   18.4238   15.8379   57.0660 H   0  0  0  0  0  0
  1  2  2  0  0  0
  1  3  1  0  0  0
  1 12  1  0  0  0
  2  4  1  0  0  0
  2 10  1  0  0  0
  3  7  2  0  0  0
  3 23  1  0  0  0
  4  5  2  0  0  0
  4 27  1  0  0  0
  5  7  1  0  0  0
  5 24  1  0  0  0
  6 12  1  0  0  0
  6 13  1  0  0  0
  7 28  1  0  0  0
  8 10  2  0  0  0
  8 14  1  0  0  0
  8 29  1  0  0  0
  9 13  1  0  0  0
  9 20  1  0  0  0
  9 30  1  0  0  0
  9 31  1  0  0  0
 10 32  1  0  0  0
 11 14  1  0  0  0
 11 16  1  0  0  0
 11 21  1  0  0  0
 11 33  1  0  0  0
 12 15  2  0  0  0
 13 26  1  0  0  0
 13 34  1  0  0  0
 14 35  1  0  0  0
 14 36  1  0  0  0
 16 17  1  0  0  0
 16 22  1  0  0  0
 16 37  1  0  0  0
 17 18  1  0  0  0
 17 19  1  0  0  0
 17 38  1  0  0  0
 18 39  1  0  0  0
 19 20  1  0  0  0
 19 40  1  0  0  0
 19 41  1  0  0  0
 20 42  1  0  0  0
 20 43  1  0  0  0
 21 44  1  0  0  0
 22 45  1  0  0  0
 23 46  1  0  0  0
 24 25  1  0  0  0
 25 47  1  0  0  0
 25 48  1  0  0  0
 25 49  1  0  0  0
 26 50  1  0  0  0
 26 51  1  0  0  0
 26 52  1  0  0  0
M  END
> <s_m_source_file>
../4gs6_ligand.sdf

> <i_m_source_file_index>
1

> <s_epik_input>
W09IXWMxW2NIXWMoT1tDSDNdKVtjSF1jKGMxMilcW0NIXT1bQ0hdXFtDSDJdW0NASF0oW09IXSlbQ0BIXShbT0hdKVtDSF0oW09IXSlbQ0gyXVtDSDJdW0NIMl1bQ0BIXShbQ0gzXSlPQzI9Tw==

> <s_epik_cmdline>
J2VwaWtfYXBwJywgJy1pbWFlJywgJ2xpZ2FuZF9wcm8ubWFlJywgJy1vbWFlJywgJ2xpZ2FuZF9wcmVwLm1hZScsICctbXMnLCAnMScsICctcGgnLCAnNycsICctcGh0JywgJzAuNScsICctbnQn

> <r_lp_tautomer_probability>
1

> <r_epik_Ionization_Penalty>
  0.0024

> <r_epik_Ionization_Penalty_Charging>
  0.0000

> <r_epik_Ionization_Penalty_Neutral>
  0.0024

> <r_epik_State_Penalty>
 -0.0000

> <r_epik_Charging_Adjusted_Penalty>
0

> <i_epik_Tot_Q>
0

> <i_epik_Tot_abs_Q>
0

> <s_epik_Chemistry_Notes>
This compound has an ester and may undergo hydrolysis at high or low pH.

$$$$
