4gs8_ligand
                    3D
 Schrodinger Suite 2020-3.
 55 56  0  0  1  0            999 V2000
 -111.6190   60.7990   27.4410 C   0  0  0  0  0  0
 -114.8110   57.2590   27.0600 N   0  0  0  0  0  0
 -113.9040   56.5430   26.3490 C   0  0  0  0  0  0
 -113.1190   55.3720   26.9510 C   0  0  0  0  0  0
 -113.0360   52.9420   27.5700 C   0  0  0  0  0  0
 -110.7460   50.0540   25.9580 C   0  0  0  0  0  0
 -110.9700   49.7030   24.6430 C   0  0  0  0  0  0
 -110.0170   48.8540   23.7830 C   0  0  0  0  0  0
 -108.3510   49.1150   25.6710 C   0  0  0  0  0  0
 -114.9490   53.8900   26.1270 C   0  0  0  0  0  0
 -117.4280   59.5240   25.7620 O   0  0  0  0  0  0
 -116.8960   58.5470   26.2630 C   0  0  0  0  0  0
 -117.6640   57.4570   26.4330 N   0  0  0  0  0  0
 -118.4630   56.8790   25.3530 C   0  0  0  0  0  0
 -115.4090   58.5800   26.6990 C   0  0  2  0  0  0
 -114.5670   59.4230   25.7050 C   0  0  0  0  0  0
 -113.2730   60.0570   26.2020 C   0  0  0  0  0  0
 -112.3330   60.6850   25.3740 C   0  0  0  0  0  0
 -111.3340   61.1340   26.1640 N   0  0  0  0  0  0
 -112.8000   60.1330   27.4760 N   0  0  0  0  0  0
 -113.6610   56.8170   25.1960 O   0  0  0  0  0  0
 -113.8860   54.1350   27.1610 N   0  3  2  0  0  0
 -114.6650   53.8160   24.6160 C   0  0  0  0  0  0
 -113.6300   53.2750   24.1090 O   0  5  0  0  0  0
 -115.5700   54.2930   23.8890 O   0  0  0  0  0  0
 -112.0290   52.2650   26.5990 C   0  0  0  0  0  0
 -111.8570   50.7340   26.7930 C   0  0  0  0  0  0
 -108.6290   48.7060   24.4110 C   0  0  0  0  0  0
 -109.3840   49.7500   26.6160 C   0  0  0  0  0  0
 -110.9266   61.0755   28.2498 H   0  0  0  0  0  0
 -115.1011   56.7617   27.9973 H   0  0  0  0  0  0
 -112.2841   55.1092   26.2848 H   0  0  0  0  0  0
 -112.7246   55.6627   27.9359 H   0  0  0  0  0  0
 -112.3991   53.2206   28.4225 H   0  0  0  0  0  0
 -113.6910   52.1070   27.8592 H   0  0  0  0  0  0
 -111.8914   50.0533   24.1779 H   0  0  0  0  0  0
 -110.2998   48.4066   22.8301 H   0  0  0  0  0  0
 -107.3327   48.9863   26.0380 H   0  0  0  0  0  0
 -115.4295   52.9191   26.3181 H   0  0  0  0  0  0
 -115.7031   54.6890   26.1799 H   0  0  0  0  0  0
 -117.6766   56.9982   27.4327 H   0  0  0  0  0  0
 -119.0041   55.9979   25.7284 H   0  0  0  0  0  0
 -117.8010   56.5785   24.5275 H   0  0  0  0  0  0
 -119.1848   57.6258   24.9908 H   0  0  0  0  0  0
 -115.3654   59.0540   27.6907 H   0  0  0  0  0  0
 -114.8853   59.5679   24.6621 H   0  0  0  0  0  0
 -112.3965   60.7915   24.2911 H   0  0  0  0  0  0
 -114.4823   54.3513   28.0597 H   0  0  0  0  0  0
 -112.3625   52.4152   25.5616 H   0  0  0  0  0  0
 -111.0332   52.7129   26.7325 H   0  0  0  0  0  0
 -112.8302   50.2875   26.5411 H   0  0  0  0  0  0
 -111.6526   50.5874   27.8638 H   0  0  0  0  0  0
 -107.8328   48.2533   23.8201 H   0  0  0  0  0  0
 -109.1720   49.9672   27.6629 H   0  0  0  0  0  0
 -113.1977   59.7685   28.4346 H   0  0  0  0  0  0
  1 19  2  0  0  0
  1 20  1  0  0  0
  1 30  1  0  0  0
  2  3  1  0  0  0
  2 15  1  0  0  0
  2 31  1  0  0  0
  3  4  1  0  0  0
  3 21  2  0  0  0
  4 22  1  0  0  0
  4 32  1  0  0  0
  4 33  1  0  0  0
  5 22  1  0  0  0
  5 26  1  0  0  0
  5 34  1  0  0  0
  5 35  1  0  0  0
  6  7  2  0  0  0
  6 27  1  0  0  0
  6 29  1  0  0  0
  7  8  1  0  0  0
  7 36  1  0  0  0
  8 28  2  0  0  0
  8 37  1  0  0  0
  9 28  1  0  0  0
  9 29  2  0  0  0
  9 38  1  0  0  0
 10 22  1  0  0  0
 10 23  1  0  0  0
 10 39  1  0  0  0
 10 40  1  0  0  0
 11 12  2  0  0  0
 12 13  1  0  0  0
 12 15  1  0  0  0
 13 14  1  0  0  0
 13 41  1  0  0  0
 14 42  1  0  0  0
 14 43  1  0  0  0
 14 44  1  0  0  0
 15 16  1  0  0  0
 15 45  1  0  0  0
 16 17  2  0  0  0
 16 46  1  0  0  0
 17 18  1  0  0  0
 17 20  1  0  0  0
 18 19  1  0  0  0
 18 47  1  0  0  0
 20 55  1  0  0  0
 22 48  1  0  0  0
 23 24  1  0  0  0
 23 25  2  0  0  0
 26 27  1  0  0  0
 26 49  1  0  0  0
 26 50  1  0  0  0
 27 51  1  0  0  0
 27 52  1  0  0  0
 28 53  1  0  0  0
 29 54  1  0  0  0
M  CHG  2  22   1  24  -1
M  END
> <s_m_source_file>
../4gs8_ligand.sdf

> <i_m_source_file_index>
1

> <s_epik_input>
W0NIMl0xTj1bQ0hdTj1DMVtDSDJdW0NAQEhdKEMoPU8pW05IXVtDSDNdKVtOSF1DKD1PKVtDSDJdW05AQEgrXShbQ0gyXUMoPU8pW09IXSlbQ0gyXVtDSDJdW0NIMl1jMltjSF1bY0hdW2NIXVtjSF1bY0hdMg==

> <s_epik_cmdline>
J2VwaWtfYXBwJywgJy1pbWFlJywgJ2xpZ2FuZF9wcm8ubWFlJywgJy1vbWFlJywgJ2xpZ2FuZF9wcmVwLm1hZScsICctbXMnLCAnMScsICctcGgnLCAnNycsICctcGh0JywgJzAuNScsICctbnQn

> <r_epik_Ionization_Penalty>
  0.2695

> <r_epik_Ionization_Penalty_Charging>
  0.2692

> <r_epik_Ionization_Penalty_Neutral>
  0.0003

> <r_epik_State_Penalty>
  0.2612

> <r_epik_Charging_Adjusted_Penalty>
0.530376224377706

> <i_epik_Tot_Q>
0

> <i_epik_Tot_abs_Q>
2

> <s_epik_Chemistry_Notes>
This compound has an imine and may undergo hydrolysis.

$$$$
