4gsc_ligand
                    3D
 Schrodinger Suite 2020-3.
 50 51  0  0  1  0            999 V2000
  111.4690  -61.3410   10.9150 C   0  0  0  0  0  0
  115.1700  -57.4700   11.2490 N   0  0  0  0  0  0
  114.3560  -56.5660   10.6830 C   0  0  0  0  0  0
  114.3140  -55.2240   11.4140 C   0  0  0  0  0  0
  112.7720  -53.3610   11.7410 C   0  0  0  0  0  0
  110.2370  -51.5970   11.9810 C   0  0  0  0  0  0
  109.0650  -50.8060   12.0320 C   0  0  0  0  0  0
  109.1170  -49.4540   11.6420 C   0  0  0  0  0  0
  111.4950  -49.6820   11.1560 C   0  0  0  0  0  0
  113.7640  -53.2080    8.3720 C   0  0  0  0  0  0
  117.2780  -59.9340    9.6900 O   0  0  0  0  0  0
  116.9110  -58.9470   10.3180 C   0  0  0  0  0  0
  117.9100  -57.8900   10.5590 O   0  0  0  0  0  0
  118.3440  -56.9520    9.5640 C   0  0  0  0  0  0
  115.4860  -58.8570   10.8550 C   0  0  2  0  0  0
  114.4060  -59.3640    9.8830 C   0  0  0  0  0  0
  113.1980  -60.0140   10.5560 C   0  0  0  0  0  0
  112.6530  -59.6950   11.7960 C   0  0  0  0  0  0
  111.6040  -60.5250   11.9800 N   0  0  0  0  0  0
  112.4340  -61.0240   10.0300 N   0  0  0  0  0  0
  113.6960  -56.8100    9.6820 O   0  0  0  0  0  0
  113.4740  -54.2220   10.7320 N   0  0  1  0  0  0
  114.3510  -53.5180    9.7560 C   0  0  0  0  0  0
  112.5710  -52.8520    8.2090 O   0  5  0  0  0  0
  114.5360  -53.2960    7.3990 O   0  0  0  0  0  0
  112.7810  -51.8420   11.4800 C   0  0  0  0  0  0
  111.4680  -51.0470   11.5460 C   0  0  0  0  0  0
  110.3340  -48.8910   11.1990 C   0  0  0  0  0  0
  110.6670  -62.0936   10.8969 H   0  0  0  0  0  0
  115.6385  -57.0318   12.1426 H   0  0  0  0  0  0
  113.9056  -55.3698   12.4249 H   0  0  0  0  0  0
  115.3320  -54.8134   11.4855 H   0  0  0  0  0  0
  111.7116  -53.6488   11.7942 H   0  0  0  0  0  0
  113.2389  -53.4974   12.7276 H   0  0  0  0  0  0
  110.1922  -52.6441   12.2806 H   0  0  0  0  0  0
  108.1254  -51.2416   12.3719 H   0  0  0  0  0  0
  108.2166  -48.8410   11.6821 H   0  0  0  0  0  0
  112.4321  -49.2400   10.8175 H   0  0  0  0  0  0
  119.0912  -56.2733   10.0011 H   0  0  0  0  0  0
  117.4816  -56.3685    9.2093 H   0  0  0  0  0  0
  118.7919  -57.4951    8.7188 H   0  0  0  0  0  0
  115.4627  -59.4928   11.7523 H   0  0  0  0  0  0
  114.4507  -59.2895    8.7864 H   0  0  0  0  0  0
  113.0041  -58.9259   12.4839 H   0  0  0  0  0  0
  115.2360  -54.1614    9.6432 H   0  0  0  0  0  0
  114.6410  -52.5789   10.2500 H   0  0  0  0  0  0
  113.4304  -51.3472   12.2172 H   0  0  0  0  0  0
  113.1613  -51.6463   10.4665 H   0  0  0  0  0  0
  110.3728  -47.8461   10.8913 H   0  0  0  0  0  0
  112.4985  -61.5594    9.0713 H   0  0  0  0  0  0
  1 19  2  0  0  0
  1 20  1  0  0  0
  1 29  1  0  0  0
  2  3  1  0  0  0
  2 15  1  0  0  0
  2 30  1  0  0  0
  3  4  1  0  0  0
  3 21  2  0  0  0
  4 22  1  0  0  0
  4 31  1  0  0  0
  4 32  1  0  0  0
  5 22  1  0  0  0
  5 26  1  0  0  0
  5 33  1  0  0  0
  5 34  1  0  0  0
  6  7  2  0  0  0
  6 27  1  0  0  0
  6 35  1  0  0  0
  7  8  1  0  0  0
  7 36  1  0  0  0
  8 28  2  0  0  0
  8 37  1  0  0  0
  9 27  2  0  0  0
  9 28  1  0  0  0
  9 38  1  0  0  0
 10 23  1  0  0  0
 10 24  1  0  0  0
 10 25  2  0  0  0
 11 12  2  0  0  0
 12 13  1  0  0  0
 12 15  1  0  0  0
 13 14  1  0  0  0
 14 39  1  0  0  0
 14 40  1  0  0  0
 14 41  1  0  0  0
 15 16  1  0  0  0
 15 42  1  0  0  0
 16 17  2  0  0  0
 16 43  1  0  0  0
 17 18  1  0  0  0
 17 20  1  0  0  0
 18 19  1  0  0  0
 18 44  1  0  0  0
 20 50  1  0  0  0
 22 23  1  0  0  0
 23 45  1  0  0  0
 23 46  1  0  0  0
 26 27  1  0  0  0
 26 47  1  0  0  0
 26 48  1  0  0  0
 28 49  1  0  0  0
M  CHG  1  24  -1
M  END
> <s_m_source_file>
../4gsc_ligand.sdf

> <i_m_source_file_index>
1

> <s_epik_input>
W0NIMl0xTj1bQ0hdTj1DMVtDSDJdW0NAQEhdKEMoPU8pT1tDSDNdKVtOSF1DKD1PKVtDSDJdW05ASCtdKFtDSDJdQyg9TylbT0hdKVtDSDJdW0NIMl1jMltjSF1bY0hdW2NIXVtjSF1bY0hdMg==

> <s_epik_cmdline>
J2VwaWtfYXBwJywgJy1pbWFlJywgJ2xpZ2FuZF9wcm8ubWFlJywgJy1vbWFlJywgJ2xpZ2FuZF9wcmVwLm1hZScsICctbXMnLCAnMScsICctcGgnLCAnNycsICctcGh0JywgJzAuNScsICctbnQn

> <r_epik_Ionization_Penalty>
  0.3160

> <r_epik_Ionization_Penalty_Charging>
  0.0066

> <r_epik_Ionization_Penalty_Neutral>
  0.3094

> <r_epik_State_Penalty>
  0.3033

> <r_epik_Charging_Adjusted_Penalty>
0.309871168765626

> <i_epik_Tot_Q>
-1

> <i_epik_Tot_abs_Q>
1

> <s_epik_Chemistry_Notes>
This compound has an ester and may undergo hydrolysis at high or low pH. This compound has an imine and may undergo hydrolysis.

$$$$
