4gsy_ligand
                    3D
 Schrodinger Suite 2020-3.
 60 63  0  0  1  0            999 V2000
   10.4360   -1.8490   26.9760 C   0  0  0  0  0  0
    8.5930    1.3120   31.5470 C   0  0  0  0  0  0
   11.4580   -1.7330   26.0560 C   0  0  0  0  0  0
    7.5450    1.9700   30.9520 C   0  0  0  0  0  0
   10.2620   -0.8360   27.9070 C   0  0  0  0  0  0
    8.7880    2.1430   28.9040 C   0  0  0  0  0  0
   12.1160    0.3760   26.9800 C   0  0  0  0  0  0
    9.7440    1.0760   30.8280 C   0  0  0  0  0  0
    7.6270    2.3630   29.6260 C   0  0  0  0  0  0
   12.2990   -0.6310   26.0460 C   0  0  0  0  0  0
   11.0990    0.2680   27.8950 C   0  0  0  0  0  0
    9.8450    1.4950   29.5070 C   0  0  0  0  0  0
    6.0440   -1.1570   25.4220 C   0  0  0  0  0  0
    6.5210   -1.8920   24.4060 C   0  0  0  0  0  0
    6.4170   -1.2840   23.0520 C   0  0  0  0  0  0
    5.4290    0.7530   24.0690 C   0  0  0  0  0  0
   10.8300    0.4440   31.5790 C   0  0  0  0  0  0
    3.5580    0.6920   28.5700 C   0  0  0  0  0  0
    4.0370   -0.0500   27.3240 C   0  0  0  0  0  0
    4.7240    1.3610   29.2750 C   0  0  0  0  0  0
    6.0520    1.4770   27.2550 C   0  0  0  0  0  0
    4.9600    0.8100   26.4490 C   0  0  1  0  0  0
    7.1030   -3.2620   24.5520 C   0  0  0  0  0  0
    6.4640    3.0610   28.9950 C   0  0  0  0  0  0
   13.3780   -0.4880   25.0290 C   0  0  0  0  0  0
    5.8600   -0.0090   23.0080 N   0  0  0  0  0  0
    5.5030    0.1180   25.3030 N   0  0  0  0  0  0
    5.4320    2.2550   28.3390 N   0  3  2  0  0  0
    6.8100   -1.8800   22.0620 O   0  0  0  0  0  0
    5.0370    1.9130   23.9200 O   0  0  0  0  0  0
   11.2560    0.9120   32.6250 O   0  0  0  0  0  0
   11.2710   -0.6930   30.9910 O   0  5  0  0  0  0
   11.0090    1.3360   28.7760 O   0  0  0  0  0  0
   12.9850   -0.8360   23.7730 F   0  0  0  0  0  0
   13.8170    0.7830   24.8620 F   0  0  0  0  0  0
   14.4680   -1.2260   25.3200 F   0  0  0  0  0  0
    9.7791   -2.7188   26.9710 H   0  0  0  0  0  0
    8.5147    0.9785   32.5818 H   0  0  0  0  0  0
   11.6071   -2.5246   25.3217 H   0  0  0  0  0  0
    6.6436    2.1843   31.5261 H   0  0  0  0  0  0
    9.4664   -0.9084   28.6485 H   0  0  0  0  0  0
    8.8654    2.4786   27.8698 H   0  0  0  0  0  0
   12.7734    1.2454   26.9879 H   0  0  0  0  0  0
    6.0838   -1.5942   26.4197 H   0  0  0  0  0  0
    2.8277    1.4619   28.2802 H   0  0  0  0  0  0
    3.0847   -0.0204   29.2617 H   0  0  0  0  0  0
    4.5949   -0.9491   27.6245 H   0  0  0  0  0  0
    3.1689   -0.3435   26.7156 H   0  0  0  0  0  0
    4.3494    1.9498   30.1253 H   0  0  0  0  0  0
    5.4215    0.5927   29.6400 H   0  0  0  0  0  0
    6.7156    0.7091   27.6793 H   0  0  0  0  0  0
    6.6338    2.1445   26.6024 H   0  0  0  0  0  0
    4.3362    1.5854   25.9803 H   0  0  0  0  0  0
    7.1018   -3.5496   25.6137 H   0  0  0  0  0  0
    8.1355   -3.2640   24.1727 H   0  0  0  0  0  0
    6.4997   -3.9799   23.9769 H   0  0  0  0  0  0
    5.9233    3.6375   29.7600 H   0  0  0  0  0  0
    6.8265    3.7420   28.2108 H   0  0  0  0  0  0
    5.7238    0.4987   22.0417 H   0  0  0  0  0  0
    4.6785    2.9462   27.9335 H   0  0  0  0  0  0
  1  3  2  0  0  0
  1  5  1  0  0  0
  1 37  1  0  0  0
  2  4  2  0  0  0
  2  8  1  0  0  0
  2 38  1  0  0  0
  3 10  1  0  0  0
  3 39  1  0  0  0
  4  9  1  0  0  0
  4 40  1  0  0  0
  5 11  2  0  0  0
  5 41  1  0  0  0
  6  9  2  0  0  0
  6 12  1  0  0  0
  6 42  1  0  0  0
  7 10  2  0  0  0
  7 11  1  0  0  0
  7 43  1  0  0  0
  8 12  2  0  0  0
  8 17  1  0  0  0
  9 24  1  0  0  0
 10 25  1  0  0  0
 11 33  1  0  0  0
 12 33  1  0  0  0
 13 14  2  0  0  0
 13 27  1  0  0  0
 13 44  1  0  0  0
 14 15  1  0  0  0
 14 23  1  0  0  0
 15 26  1  0  0  0
 15 29  2  0  0  0
 16 26  1  0  0  0
 16 27  1  0  0  0
 16 30  2  0  0  0
 17 31  2  0  0  0
 17 32  1  0  0  0
 18 19  1  0  0  0
 18 20  1  0  0  0
 18 45  1  0  0  0
 18 46  1  0  0  0
 19 22  1  0  0  0
 19 47  1  0  0  0
 19 48  1  0  0  0
 20 28  1  0  0  0
 20 49  1  0  0  0
 20 50  1  0  0  0
 21 22  1  0  0  0
 21 28  1  0  0  0
 21 51  1  0  0  0
 21 52  1  0  0  0
 22 27  1  0  0  0
 22 53  1  0  0  0
 23 54  1  0  0  0
 23 55  1  0  0  0
 23 56  1  0  0  0
 24 28  1  0  0  0
 24 57  1  0  0  0
 24 58  1  0  0  0
 25 34  1  0  0  0
 25 35  1  0  0  0
 25 36  1  0  0  0
 26 59  1  0  0  0
 28 60  1  0  0  0
M  CHG  2  28   1  32  -1
M  END
> <s_m_source_file>
../4gsy_ligand.sdf

> <i_m_source_file_index>
1

> <s_epik_input>
RkMoRikoRiljMVtjSF1bY0hdW2NIXWMoW2NIXTEpT2MyW2NIXWMoW2NIXVtjSF1jMkMoPU8pW09IXSlbQ0gyXVtOQEBIK10oW0NIMl0zKVtDSDJdW0NIMl1bQ0gyXVtDQEBIXTNuKFtjSF1jNFtDSDNdKWMoPU8pW25IXWM0PU8=

> <s_epik_cmdline>
J2VwaWtfYXBwJywgJy1pbWFlJywgJ2xpZ2FuZF9wcm8ubWFlJywgJy1vbWFlJywgJ2xpZ2FuZF9wcmVwLm1hZScsICctbXMnLCAnMScsICctcGgnLCAnNycsICctcGh0JywgJzAuNScsICctbnQn

> <r_lp_tautomer_probability>
0.999537046341301

> <r_epik_Ionization_Penalty>
  0.1193

> <r_epik_Ionization_Penalty_Charging>
  0.1193

> <r_epik_Ionization_Penalty_Neutral>
  0.0000

> <r_epik_State_Penalty>
  0.1014

> <r_epik_Charging_Adjusted_Penalty>
0.220712512997005

> <i_epik_Tot_Q>
0

> <i_epik_Tot_abs_Q>
2

$$$$
