4gto_ligand
                    3D
 Schrodinger Suite 2020-3.
 75 79  0  0  1  0            999 V2000
  -22.5130   66.9580    3.0170 C   0  0  0  0  0  0
  -21.2820   66.5610    3.6500 O   0  0  0  0  0  0
  -20.6650   67.6250    4.2380 C   0  0  0  0  0  0
  -21.3180   68.8530    4.3200 C   0  0  0  0  0  0
  -20.6870   69.9300    4.9230 C   0  0  0  0  0  0
  -19.3780   67.4880    4.7640 C   0  0  0  0  0  0
  -18.7430   68.5740    5.3720 C   0  0  0  0  0  0
  -19.3970   69.8070    5.4360 C   0  0  0  0  0  0
  -18.6730   71.2380    6.1800 S   0  0  0  0  0  0
  -17.8220   70.8400    7.3510 O   0  0  0  0  0  0
  -19.8010   72.0940    6.6750 O   0  0  0  0  0  0
  -17.7060   72.2360    5.1890 N   0  0  2  0  0  0
  -18.3830   72.8560    4.0240 C   0  0  0  0  0  0
  -18.8780   71.8650    2.9830 C   0  0  0  0  0  0
  -20.1350   72.2100    2.4880 C   0  0  0  0  0  0
  -20.7030   71.4190    1.5120 C   0  0  0  0  0  0
  -21.9840   71.7160    0.9700 C   0  0  0  0  0  0
  -23.0010   71.9300    0.5150 N   0  0  0  0  0  0
  -20.0460   70.2900    1.0450 C   0  0  0  0  0  0
  -18.8040   69.9360    1.5440 C   0  0  0  0  0  0
  -18.2070   70.7340    2.5220 C   0  0  0  0  0  0
  -16.9910   70.3310    2.9170 N   0  0  0  0  0  0
  -16.5540   68.9260    2.7160 C   0  0  0  0  0  0
  -15.7930   68.7940    1.3870 C   0  0  0  0  0  0
  -15.7880   69.6570    0.3640 C   0  0  0  0  0  0
  -15.0140   69.1590   -0.5990 N   0  3  0  0  0  0
  -14.5290   67.9830   -0.1800 C   0  0  0  0  0  0
  -15.0120   67.7750    1.0360 N   0  0  0  0  0  0
  -14.7220   66.5680    1.8860 C   0  0  0  0  0  0
  -16.0040   71.2650    3.4960 C   0  0  0  0  0  0
  -16.3420   71.6850    4.9500 C   0  0  1  0  0  0
  -15.2640   72.6280    5.5570 C   0  0  0  0  0  0
  -15.2590   74.1440    5.2280 C   0  0  0  0  0  0
  -15.9680   75.0860    5.9850 C   0  0  0  0  0  0
  -15.9020   76.4590    5.6690 C   0  0  0  0  0  0
  -14.4610   74.6130    4.1840 C   0  0  0  0  0  0
  -14.3990   75.9810    3.8720 C   0  0  0  0  0  0
  -15.1040   76.9360    4.6130 C   0  0  0  0  0  0
  -15.0440   78.2950    4.2860 O   0  0  0  0  0  0
  -13.8100   79.1240    4.5530 S   0  0  0  0  0  0
  -13.7970   80.3270    3.6630 O   0  0  0  0  0  0
  -12.5160   78.4010    4.3390 O   0  0  0  0  0  0
  -13.8560   79.7780    6.2590 C   0  0  0  0  0  0
  -14.0780   78.7760    7.1200 F   0  0  0  0  0  0
  -12.6980   80.3950    6.5050 F   0  0  0  0  0  0
  -14.8410   80.6680    6.3580 F   0  0  0  0  0  0
  -22.9863   66.0802    2.5528 H   0  0  0  0  0  0
  -22.3015   67.7120    2.2445 H   0  0  0  0  0  0
  -23.1915   67.3850    3.7702 H   0  0  0  0  0  0
  -22.3220   68.9666    3.9112 H   0  0  0  0  0  0
  -21.2065   70.8854    4.9969 H   0  0  0  0  0  0
  -18.8660   66.5279    4.6997 H   0  0  0  0  0  0
  -17.7443   68.4601    5.7935 H   0  0  0  0  0  0
  -19.2602   73.4232    4.3688 H   0  0  0  0  0  0
  -17.6849   73.5353    3.5130 H   0  0  0  0  0  0
  -20.6586   73.0883    2.8655 H   0  0  0  0  0  0
  -20.5130   69.6744    0.2762 H   0  0  0  0  0  0
  -18.2973   69.0434    1.1771 H   0  0  0  0  0  0
  -15.8923   68.6261    3.5420 H   0  0  0  0  0  0
  -17.4349   68.2675    2.6943 H   0  0  0  0  0  0
  -16.3251   70.6047    0.3255 H   0  0  0  0  0  0
  -13.8629   67.3221   -0.7346 H   0  0  0  0  0  0
  -15.2534   66.6586    2.8449 H   0  0  0  0  0  0
  -13.6398   66.5016    2.0714 H   0  0  0  0  0  0
  -15.0608   65.6614    1.3632 H   0  0  0  0  0  0
  -15.0125   70.7888    3.5093 H   0  0  0  0  0  0
  -15.9633   72.1798    2.8865 H   0  0  0  0  0  0
  -16.3883   70.7286    5.4914 H   0  0  0  0  0  0
  -15.3308   72.6027    6.6547 H   0  0  0  0  0  0
  -14.2646   72.2927    5.2427 H   0  0  0  0  0  0
  -16.5765   74.7545    6.8264 H   0  0  0  0  0  0
  -16.4838   77.1683    6.2577 H   0  0  0  0  0  0
  -13.8745   73.9042    3.5994 H   0  0  0  0  0  0
  -13.7863   76.3070    3.0315 H   0  0  0  0  0  0
  -14.8755   69.7168   -1.5369 H   0  0  0  0  0  0
  1  2  1  0  0  0
  1 47  1  0  0  0
  1 48  1  0  0  0
  1 49  1  0  0  0
  2  3  1  0  0  0
  3  4  2  0  0  0
  3  6  1  0  0  0
  4  5  1  0  0  0
  4 50  1  0  0  0
  5  8  2  0  0  0
  5 51  1  0  0  0
  6  7  2  0  0  0
  6 52  1  0  0  0
  7  8  1  0  0  0
  7 53  1  0  0  0
  8  9  1  0  0  0
  9 10  2  0  0  0
  9 11  2  0  0  0
  9 12  1  0  0  0
 12 13  1  0  0  0
 12 31  1  0  0  0
 13 14  1  0  0  0
 13 54  1  0  0  0
 13 55  1  0  0  0
 14 15  2  0  0  0
 14 21  1  0  0  0
 15 16  1  0  0  0
 15 56  1  0  0  0
 16 17  1  0  0  0
 16 19  2  0  0  0
 17 18  3  0  0  0
 19 20  1  0  0  0
 19 57  1  0  0  0
 20 21  2  0  0  0
 20 58  1  0  0  0
 21 22  1  0  0  0
 22 23  1  0  0  0
 22 30  1  0  0  0
 23 24  1  0  0  0
 23 59  1  0  0  0
 23 60  1  0  0  0
 24 25  2  0  0  0
 24 28  1  0  0  0
 25 26  1  0  0  0
 25 61  1  0  0  0
 26 27  2  0  0  0
 26 75  1  0  0  0
 27 28  1  0  0  0
 27 62  1  0  0  0
 28 29  1  0  0  0
 29 63  1  0  0  0
 29 64  1  0  0  0
 29 65  1  0  0  0
 30 31  1  0  0  0
 30 66  1  0  0  0
 30 67  1  0  0  0
 31 32  1  0  0  0
 31 68  1  0  0  0
 32 33  1  0  0  0
 32 69  1  0  0  0
 32 70  1  0  0  0
 33 34  2  0  0  0
 33 36  1  0  0  0
 34 35  1  0  0  0
 34 71  1  0  0  0
 35 38  2  0  0  0
 35 72  1  0  0  0
 36 37  2  0  0  0
 36 73  1  0  0  0
 37 38  1  0  0  0
 37 74  1  0  0  0
 38 39  1  0  0  0
 39 40  1  0  0  0
 40 41  2  0  0  0
 40 42  2  0  0  0
 40 43  1  0  0  0
 43 44  1  0  0  0
 43 45  1  0  0  0
 43 46  1  0  0  0
M  CHG  1  26   1
M  END
> <s_m_source_file>
../4gto_ligand.sdf

> <i_m_source_file_index>
1

> <s_epik_input>
RkMoRikoRilTKD1PKSg9TylPYyhbY0hdW2NIXTEpW2NIXVtjSF1jMVtDSDJdW0NAQEhdKE4oW0NIMl0yKVMoPU8pKD1PKWMoW2NIXVtjSF0zKVtjSF1bY0hdYzNPW0NIM10pW0NIMl1OKGMoYzI0KVtjSF1bY0hdYyhbY0hdNClDI04pW0NIMl1jNVtjSF1uW2NIXW41W0NIM10=

> <s_epik_cmdline>
J2VwaWtfYXBwJywgJy1pbWFlJywgJ2xpZ2FuZF9wcm8ubWFlJywgJy1vbWFlJywgJ2xpZ2FuZF9wcmVwLm1hZScsICctbXMnLCAnMScsICctcGgnLCAnNycsICctcGh0JywgJzAuNScsICctbnQn

> <r_lp_tautomer_probability>
1

> <r_epik_Ionization_Penalty>
  0.0978

> <r_epik_Ionization_Penalty_Charging>
  0.0000

> <r_epik_Ionization_Penalty_Neutral>
  0.0978

> <r_epik_State_Penalty>
  0.0879

> <r_epik_Charging_Adjusted_Penalty>
0.0879386092385751

> <i_epik_Tot_Q>
1

> <i_epik_Tot_abs_Q>
1

$$$$
