4gtp_ligand
                    3D
 Schrodinger Suite 2020-3.
 79 84  0  0  1  0            999 V2000
   45.5410   50.7560   -4.1330 C   0  0  0  0  0  0
   46.1320   52.0790   -3.8240 O   0  0  0  0  0  0
   47.4250   52.0550   -3.2990 C   0  0  0  0  0  0
   48.1640   53.2280   -3.2240 C   0  0  0  0  0  0
   49.4660   53.2550   -2.7060 C   0  0  0  0  0  0
   48.0300   50.8850   -2.8350 C   0  0  0  0  0  0
   49.3370   50.9000   -2.3230 C   0  0  0  0  0  0
   50.0810   52.0900   -2.2510 C   0  0  0  0  0  0
   51.7770   52.0380   -1.6390 S   0  0  0  0  0  0
   51.7880   50.9710   -0.6220 O   0  0  0  0  0  0
   52.3520   53.3670   -1.0790 O   0  0  0  0  0  0
   52.9520   51.6720   -2.7750 N   0  0  2  0  0  0
   52.9190   52.5570   -3.9270 C   0  0  0  0  0  0
   51.7210   52.3690   -4.8120 C   0  0  0  0  0  0
   51.3820   53.5800   -5.2850 C   0  0  0  0  0  0
   50.3150   53.6060   -6.1390 C   0  0  0  0  0  0
   49.9250   54.8340   -6.5490 C   0  0  0  0  0  0
   50.7830   55.8000   -6.8890 O   0  0  0  0  0  0
   48.6660   55.2480   -6.5210 C   0  0  0  0  0  0
   48.6810   56.5080   -6.9190 C   0  0  0  0  0  0
   49.9700   56.8170   -7.1190 C   0  0  0  0  0  0
   50.3950   58.1450   -7.6550 C   0  0  0  0  0  0
   49.9240   58.4300   -8.7740 O   0  0  0  0  0  0
   49.5740   52.5080   -6.5050 C   0  0  0  0  0  0
   49.9110   51.2940   -6.0140 C   0  0  0  0  0  0
   50.9950   51.2430   -5.1590 C   0  0  0  0  0  0
   51.2890   50.0230   -4.7890 N   0  0  0  0  0  0
   50.2940   48.9450   -4.9020 C   0  0  0  0  0  0
   50.6240   48.2100   -6.1920 C   0  0  0  0  0  0
   51.6050   48.5550   -7.0520 C   0  0  0  0  0  0
   51.5930   47.6980   -8.0680 N   0  3  0  0  0  0
   50.6040   46.8210   -7.8470 C   0  0  0  0  0  0
   49.9960   47.1430   -6.6900 N   0  0  0  0  0  0
   48.8020   46.4050   -6.0970 C   0  0  0  0  0  0
   52.6740   49.6810   -4.4190 C   0  0  0  0  0  0
   53.2380   50.2520   -3.1030 C   0  0  1  0  0  0
   54.7970   50.0800   -3.1710 C   0  0  0  0  0  0
   55.4980   50.5500   -1.9100 C   0  0  0  0  0  0
   55.6920   49.6850   -0.8350 C   0  0  0  0  0  0
   56.3020   50.1110    0.3470 C   0  0  0  0  0  0
   56.7110   51.4440    0.4240 C   0  0  0  0  0  0
   57.3310   51.9390    1.5490 O   0  0  0  0  0  0
   56.5080   52.3040   -0.6700 C   0  0  0  0  0  0
   55.8930   51.8610   -1.8370 C   0  0  0  0  0  0
   44.5276   50.8928   -4.5384 H   0  0  0  0  0  0
   45.4901   50.1535   -3.2141 H   0  0  0  0  0  0
   46.1665   50.2395   -4.8760 H   0  0  0  0  0  0
   47.7176   54.1569   -3.5791 H   0  0  0  0  0  0
   50.0055   54.2009   -2.6583 H   0  0  0  0  0  0
   47.4787   49.9454   -2.8710 H   0  0  0  0  0  0
   49.7841   49.9692   -1.9740 H   0  0  0  0  0  0
   52.9078   53.6027   -3.5858 H   0  0  0  0  0  0
   53.8100   52.3836   -4.5483 H   0  0  0  0  0  0
   51.9232   54.4839   -5.0056 H   0  0  0  0  0  0
   47.7926   54.6653   -6.2281 H   0  0  0  0  0  0
   47.8205   57.1627   -7.0566 H   0  0  0  0  0  0
   50.0752   58.9387   -6.9638 H   0  0  0  0  0  0
   51.4901   58.1662   -7.7561 H   0  0  0  0  0  0
   50.1800   59.3877   -9.2508 H   0  0  0  0  0  0
   48.7262   52.6143   -7.1818 H   0  0  0  0  0  0
   49.3528   50.3965   -6.2806 H   0  0  0  0  0  0
   50.3752   48.2783   -4.0309 H   0  0  0  0  0  0
   49.2844   49.3802   -4.9378 H   0  0  0  0  0  0
   52.2908   49.3939   -6.9336 H   0  0  0  0  0  0
   50.3367   45.9867   -8.4955 H   0  0  0  0  0  0
   48.5109   46.8808   -5.1489 H   0  0  0  0  0  0
   49.0746   45.3555   -5.9120 H   0  0  0  0  0  0
   47.9586   46.4460   -6.8020 H   0  0  0  0  0  0
   52.7677   48.5896   -4.3182 H   0  0  0  0  0  0
   53.3610   50.0374   -5.2007 H   0  0  0  0  0  0
   52.6967   49.7352   -2.2968 H   0  0  0  0  0  0
   55.0427   49.0175   -3.3149 H   0  0  0  0  0  0
   55.1941   50.6655   -4.0133 H   0  0  0  0  0  0
   55.3595   48.6503   -0.9186 H   0  0  0  0  0  0
   56.4537   49.4261    1.1812 H   0  0  0  0  0  0
   57.5002   51.2845    2.4167 H   0  0  0  0  0  0
   56.8396   53.3401   -0.6024 H   0  0  0  0  0  0
   55.7291   52.5403   -2.6735 H   0  0  0  0  0  0
   52.3229   47.8025   -8.8843 H   0  0  0  0  0  0
  1  2  1  0  0  0
  1 45  1  0  0  0
  1 46  1  0  0  0
  1 47  1  0  0  0
  2  3  1  0  0  0
  3  4  2  0  0  0
  3  6  1  0  0  0
  4  5  1  0  0  0
  4 48  1  0  0  0
  5  8  2  0  0  0
  5 49  1  0  0  0
  6  7  2  0  0  0
  6 50  1  0  0  0
  7  8  1  0  0  0
  7 51  1  0  0  0
  8  9  1  0  0  0
  9 10  2  0  0  0
  9 11  2  0  0  0
  9 12  1  0  0  0
 12 13  1  0  0  0
 12 36  1  0  0  0
 13 14  1  0  0  0
 13 52  1  0  0  0
 13 53  1  0  0  0
 14 15  2  0  0  0
 14 26  1  0  0  0
 15 16  1  0  0  0
 15 54  1  0  0  0
 16 17  1  0  0  0
 16 24  2  0  0  0
 17 18  1  0  0  0
 17 19  2  0  0  0
 18 21  1  0  0  0
 19 20  1  0  0  0
 19 55  1  0  0  0
 20 21  2  0  0  0
 20 56  1  0  0  0
 21 22  1  0  0  0
 22 23  1  0  0  0
 22 57  1  0  0  0
 22 58  1  0  0  0
 23 59  1  0  0  0
 24 25  1  0  0  0
 24 60  1  0  0  0
 25 26  2  0  0  0
 25 61  1  0  0  0
 26 27  1  0  0  0
 27 28  1  0  0  0
 27 35  1  0  0  0
 28 29  1  0  0  0
 28 62  1  0  0  0
 28 63  1  0  0  0
 29 30  2  0  0  0
 29 33  1  0  0  0
 30 31  1  0  0  0
 30 64  1  0  0  0
 31 32  2  0  0  0
 31 79  1  0  0  0
 32 33  1  0  0  0
 32 65  1  0  0  0
 33 34  1  0  0  0
 34 66  1  0  0  0
 34 67  1  0  0  0
 34 68  1  0  0  0
 35 36  1  0  0  0
 35 69  1  0  0  0
 35 70  1  0  0  0
 36 37  1  0  0  0
 36 71  1  0  0  0
 37 38  1  0  0  0
 37 72  1  0  0  0
 37 73  1  0  0  0
 38 39  2  0  0  0
 38 44  1  0  0  0
 39 40  1  0  0  0
 39 74  1  0  0  0
 40 41  2  0  0  0
 40 75  1  0  0  0
 41 42  1  0  0  0
 41 43  1  0  0  0
 42 76  1  0  0  0
 43 44  2  0  0  0
 43 77  1  0  0  0
 44 78  1  0  0  0
M  CHG  1  31   1
M  END
> <s_m_source_file>
../4gtp_ligand.sdf

> <i_m_source_file_index>
1

> <s_epik_input>
W0NIM11PYzFbY0hdW2NIXWMoW2NIXVtjSF0xKVMoPU8pKD1PKU4oW0NIMl0yKVtDQEhdKFtDSDJdYzNbY0hdW2NIXWMoW09IXSlbY0hdW2NIXTMpW0NIMl1OKFtDSDJdYzRbY0hdbltjSF1uNFtDSDNdKWMoYzI1KVtjSF1bY0hdYyhbY0hdNSktYzZvYyhbY0hdW2NIXTYpW0NIMl1bT0hd

> <s_epik_cmdline>
J2VwaWtfYXBwJywgJy1pbWFlJywgJ2xpZ2FuZF9wcm8ubWFlJywgJy1vbWFlJywgJ2xpZ2FuZF9wcmVwLm1hZScsICctbXMnLCAnMScsICctcGgnLCAnNycsICctcGh0JywgJzAuNScsICctbnQn

> <r_lp_tautomer_probability>
0.999999999997365

> <r_epik_Ionization_Penalty>
  0.0984

> <r_epik_Ionization_Penalty_Charging>
  0.0000

> <r_epik_Ionization_Penalty_Neutral>
  0.0984

> <r_epik_State_Penalty>
  0.0879

> <r_epik_Charging_Adjusted_Penalty>
0.0879386092385751

> <i_epik_Tot_Q>
1

> <i_epik_Tot_abs_Q>
1

$$$$
