4gtr_ligand
                    3D
 Schrodinger Suite 2020-3.
 85 89  0  0  1  0            999 V2000
  -77.0280  -25.2800    1.8230 C   0  0  0  0  0  0
  -76.7850  -25.8070    3.2540 C   0  0  0  0  0  0
  -76.8420  -24.6370    4.1570 N   0  0  0  0  0  0
  -78.1700  -24.2330    4.7120 C   0  0  0  0  0  0
  -78.7220  -22.9150    4.0700 C   0  0  0  0  0  0
  -75.7040  -23.9810    4.4330 C   0  0  0  0  0  0
  -75.6320  -22.9860    5.1660 O   0  0  0  0  0  0
  -74.5720  -24.4890    3.8290 O   0  0  0  0  0  0
  -73.4680  -23.7380    3.5290 C   0  0  0  0  0  0
  -72.2670  -24.0540    4.1560 C   0  0  0  0  0  0
  -71.1090  -23.3580    3.8750 C   0  0  0  0  0  0
  -73.5110  -22.7000    2.6070 C   0  0  0  0  0  0
  -72.3440  -22.0020    2.3290 C   0  0  0  0  0  0
  -71.1510  -22.3070    2.9650 C   0  0  0  0  0  0
  -69.8640  -21.5100    2.6590 C   0  0  0  0  0  0
  -69.7250  -20.1430    3.3730 C   0  0  2  0  0  0
  -69.2130  -20.3190    4.8190 C   0  0  0  0  0  0
  -69.0630  -19.0090    5.5120 N   0  0  0  0  0  0
  -67.6740  -18.6010    5.7660 C   0  0  0  0  0  0
  -67.1630  -19.3450    7.0120 C   0  0  0  0  0  0
  -67.8480  -20.1960    7.7710 C   0  0  0  0  0  0
  -67.0550  -20.6290    8.7620 N   0  3  0  0  0  0
  -65.8630  -20.0400    8.6430 C   0  0  0  0  0  0
  -65.9430  -19.2530    7.5650 N   0  0  0  0  0  0
  -64.8260  -18.4100    7.0600 C   0  0  0  0  0  0
  -70.1140  -18.2720    5.9610 C   0  0  0  0  0  0
  -69.8330  -17.4010    7.0450 C   0  0  0  0  0  0
  -70.8550  -16.6220    7.5960 C   0  0  0  0  0  0
  -72.1700  -16.7130    7.0780 C   0  0  0  0  0  0
  -73.2650  -15.9430    7.6290 C   0  0  0  0  0  0
  -74.1610  -15.3670    8.0320 N   0  0  0  0  0  0
  -72.4600  -17.5800    6.0180 C   0  0  0  0  0  0
  -71.4300  -18.3420    5.4740 C   0  0  0  0  0  0
  -71.9670  -19.1920    4.3400 C   0  0  0  0  0  0
  -71.0140  -19.3990    3.2130 N   0  0  1  0  0  0
  -70.7820  -18.0960    2.2070 S   0  0  0  0  0  0
  -69.9760  -18.5850    1.0200 O   0  0  0  0  0  0
  -72.1090  -17.6190    1.7010 O   0  0  0  0  0  0
  -69.9670  -16.6930    2.9690 C   0  0  0  0  0  0
  -70.7380  -15.6480    3.5060 C   0  0  0  0  0  0
  -70.1270  -14.5730    4.1310 C   0  0  0  0  0  0
  -68.7380  -14.5560    4.1930 C   0  0  0  0  0  0
  -68.1060  -13.5110    4.7860 O   0  0  0  0  0  0
  -67.8030  -13.9110    6.1380 C   0  0  0  0  0  0
  -67.9680  -15.5960    3.6640 C   0  0  0  0  0  0
  -68.5750  -16.6570    3.0350 C   0  0  0  0  0  0
  -76.9945  -26.1192    1.1126 H   0  0  0  0  0  0
  -76.2478  -24.5490    1.5641 H   0  0  0  0  0  0
  -78.0147  -24.7964    1.7730 H   0  0  0  0  0  0
  -77.5652  -26.5380    3.5129 H   0  0  0  0  0  0
  -75.7983  -26.2906    3.3040 H   0  0  0  0  0  0
  -78.9039  -25.0306    4.5242 H   0  0  0  0  0  0
  -78.0792  -24.0660    5.7954 H   0  0  0  0  0  0
  -79.6969  -22.6700    4.5166 H   0  0  0  0  0  0
  -78.8407  -23.0571    2.9857 H   0  0  0  0  0  0
  -78.0160  -22.0925    4.2569 H   0  0  0  0  0  0
  -72.2402  -24.8662    4.8825 H   0  0  0  0  0  0
  -70.1717  -23.6290    4.3609 H   0  0  0  0  0  0
  -74.4452  -22.4381    2.1103 H   0  0  0  0  0  0
  -72.3663  -21.1967    1.5948 H   0  0  0  0  0  0
  -68.9864  -22.1014    2.9591 H   0  0  0  0  0  0
  -69.8118  -21.2977    1.5810 H   0  0  0  0  0  0
  -68.9749  -19.4887    2.9046 H   0  0  0  0  0  0
  -69.9264  -20.9328    5.3884 H   0  0  0  0  0  0
  -68.2323  -20.8170    4.8027 H   0  0  0  0  0  0
  -67.0517  -18.8571    4.8958 H   0  0  0  0  0  0
  -67.6362  -17.5150    5.9369 H   0  0  0  0  0  0
  -68.8848  -20.4930    7.6132 H   0  0  0  0  0  0
  -64.9987  -20.1737    9.2935 H   0  0  0  0  0  0
  -65.1552  -17.8636    6.1638 H   0  0  0  0  0  0
  -63.9693  -19.0510    6.8046 H   0  0  0  0  0  0
  -64.5277  -17.6921    7.8382 H   0  0  0  0  0  0
  -68.8220  -17.3392    7.4477 H   0  0  0  0  0  0
  -70.6399  -15.9455    8.4232 H   0  0  0  0  0  0
  -73.4740  -17.6570    5.6257 H   0  0  0  0  0  0
  -72.2297  -20.1895    4.7221 H   0  0  0  0  0  0
  -72.8625  -18.7143    3.9160 H   0  0  0  0  0  0
  -71.8248  -15.6835    3.4303 H   0  0  0  0  0  0
  -70.7178  -13.7644    4.5614 H   0  0  0  0  0  0
  -67.2879  -13.0891    6.6568 H   0  0  0  0  0  0
  -67.1531  -14.7983    6.1209 H   0  0  0  0  0  0
  -68.7369  -14.1506    6.6675 H   0  0  0  0  0  0
  -66.8819  -15.5655    3.7506 H   0  0  0  0  0  0
  -67.9782  -17.4563    2.5955 H   0  0  0  0  0  0
  -67.4375  -21.3540    9.4956 H   0  0  0  0  0  0
  1  2  1  0  0  0
  1 47  1  0  0  0
  1 48  1  0  0  0
  1 49  1  0  0  0
  2  3  1  0  0  0
  2 50  1  0  0  0
  2 51  1  0  0  0
  3  4  1  0  0  0
  3  6  1  0  0  0
  4  5  1  0  0  0
  4 52  1  0  0  0
  4 53  1  0  0  0
  5 54  1  0  0  0
  5 55  1  0  0  0
  5 56  1  0  0  0
  6  7  2  0  0  0
  6  8  1  0  0  0
  8  9  1  0  0  0
  9 10  2  0  0  0
  9 12  1  0  0  0
 10 11  1  0  0  0
 10 57  1  0  0  0
 11 14  2  0  0  0
 11 58  1  0  0  0
 12 13  2  0  0  0
 12 59  1  0  0  0
 13 14  1  0  0  0
 13 60  1  0  0  0
 14 15  1  0  0  0
 15 16  1  0  0  0
 15 61  1  0  0  0
 15 62  1  0  0  0
 16 17  1  0  0  0
 16 35  1  0  0  0
 16 63  1  0  0  0
 17 18  1  0  0  0
 17 64  1  0  0  0
 17 65  1  0  0  0
 18 19  1  0  0  0
 18 26  1  0  0  0
 19 20  1  0  0  0
 19 66  1  0  0  0
 19 67  1  0  0  0
 20 21  2  0  0  0
 20 24  1  0  0  0
 21 22  1  0  0  0
 21 68  1  0  0  0
 22 23  2  0  0  0
 22 85  1  0  0  0
 23 24  1  0  0  0
 23 69  1  0  0  0
 24 25  1  0  0  0
 25 70  1  0  0  0
 25 71  1  0  0  0
 25 72  1  0  0  0
 26 27  2  0  0  0
 26 33  1  0  0  0
 27 28  1  0  0  0
 27 73  1  0  0  0
 28 29  2  0  0  0
 28 74  1  0  0  0
 29 30  1  0  0  0
 29 32  1  0  0  0
 30 31  3  0  0  0
 32 33  2  0  0  0
 32 75  1  0  0  0
 33 34  1  0  0  0
 34 35  1  0  0  0
 34 76  1  0  0  0
 34 77  1  0  0  0
 35 36  1  0  0  0
 36 37  2  0  0  0
 36 38  2  0  0  0
 36 39  1  0  0  0
 39 40  2  0  0  0
 39 46  1  0  0  0
 40 41  1  0  0  0
 40 78  1  0  0  0
 41 42  2  0  0  0
 41 79  1  0  0  0
 42 43  1  0  0  0
 42 45  1  0  0  0
 43 44  1  0  0  0
 44 80  1  0  0  0
 44 81  1  0  0  0
 44 82  1  0  0  0
 45 46  2  0  0  0
 45 83  1  0  0  0
 46 84  1  0  0  0
M  CHG  1  22   1
M  END
> <s_m_source_file>
../4gtr_ligand.sdf

> <i_m_source_file_index>
1

> <s_epik_input>
W0NIM11bQ0gyXU4oW0NIMl1bQ0gzXSlDKD1PKU9jMVtjSF1bY0hdYyhbY0hdW2NIXTEpW0NIMl1bQ0BASF0oTihbQ0gyXWMoYzIzKVtjSF1jKEMjTilbY0hdW2NIXTMpUyg9TykoPU8pYzRbY0hdW2NIXWMoT1tDSDNdKVtjSF1bY0hdNClbQ0gyXU4yW0NIMl1jNVtjSF1uW2NIXW41W0NIM10=

> <s_epik_cmdline>
J2VwaWtfYXBwJywgJy1pbWFlJywgJ2xpZ2FuZF9wcm8ubWFlJywgJy1vbWFlJywgJ2xpZ2FuZF9wcmVwLm1hZScsICctbXMnLCAnMScsICctcGgnLCAnNycsICctcGh0JywgJzAuNScsICctbnQn

> <r_lp_tautomer_probability>
1

> <r_epik_Ionization_Penalty>
  0.0978

> <r_epik_Ionization_Penalty_Charging>
  0.0000

> <r_epik_Ionization_Penalty_Neutral>
  0.0978

> <r_epik_State_Penalty>
  0.0879

> <r_epik_Charging_Adjusted_Penalty>
0.0879386092385751

> <i_epik_Tot_Q>
1

> <i_epik_Tot_abs_Q>
1

$$$$
