4gtt_ligand
                    3D
 Schrodinger Suite 2020-3.
 86 91  0  0  1  0            999 V2000
    1.0940   18.4320   32.2560 C   0  0  0  0  0  0
    2.4220   17.9240   32.4580 O   0  0  0  0  0  0
    3.3640   18.5170   31.6620 C   0  0  0  0  0  0
    3.4210   19.9070   31.5250 C   0  0  0  0  0  0
    4.3910   20.4940   30.7150 C   0  0  0  0  0  0
    4.2940   17.7250   30.9870 C   0  0  0  0  0  0
    5.2690   18.3130   30.1780 C   0  0  0  0  0  0
    5.3170   19.7020   30.0320 C   0  0  0  0  0  0
    6.5730   20.4770   28.9810 S   0  0  0  0  0  0
    7.6480   19.4480   28.6140 O   0  0  0  0  0  0
    7.2250   21.6310   29.7510 O   0  0  0  0  0  0
    5.8030   21.2360   27.3240 N   0  0  2  0  0  0
    4.6450   22.0950   27.6430 C   0  0  0  0  0  0
    3.4450   21.4260   27.8430 C   0  0  0  0  0  0
    2.5410   22.3650   28.3420 C   0  0  0  0  0  0
    1.2430   22.0140   28.6560 C   0  0  0  0  0  0
    0.3400   23.0130   29.1730 C   0  0  0  0  0  0
   -0.3820   23.8260   29.5850 N   0  0  0  0  0  0
    0.8470   20.6990   28.4610 C   0  0  0  0  0  0
    1.7440   19.7530   27.9590 C   0  0  0  0  0  0
    3.0740   20.0870   27.6220 C   0  0  0  0  0  0
    3.8450   19.0390   27.1720 N   0  0  0  0  0  0
    3.4930   17.6660   27.5710 C   0  0  0  0  0  0
    2.7950   16.9520   26.3970 C   0  0  0  0  0  0
    2.1130   17.5480   25.4240 C   0  0  0  0  0  0
    1.6730   16.5810   24.6200 N   0  3  0  0  0  0
    2.0830   15.4050   25.0970 C   0  0  0  0  0  0
    2.7840   15.6330   26.2070 N   0  0  0  0  0  0
    3.4190   14.5860   27.0520 C   0  0  0  0  0  0
    5.1010   19.0060   26.4200 C   0  0  0  0  0  0
    5.6710   20.3870   26.0950 C   0  0  1  0  0  0
    4.8610   20.9470   24.9310 C   0  0  0  0  0  0
    5.4680   22.0840   24.3410 C   0  0  0  0  0  0
    5.1190   22.3740   23.0150 C   0  0  0  0  0  0
    5.6700   23.4600   22.3410 C   0  0  0  0  0  0
    6.4050   22.9100   24.9810 C   0  0  0  0  0  0
    6.9530   23.9920   24.3100 C   0  0  0  0  0  0
    6.6010   24.2710   22.9950 C   0  0  0  0  0  0
    7.1980   25.3550   22.4210 O   0  0  0  0  0  0
    7.5360   25.3550   21.1000 C   0  0  0  0  0  0
    7.7470   24.3180   20.4690 O   0  0  0  0  0  0
    7.6430   26.5460   20.5200 N   0  0  0  0  0  0
    7.9700   26.7630   19.1280 C   0  0  0  0  0  0
    6.8420   27.4000   18.5770 C   0  0  0  0  0  0
    6.4150   27.0670   17.3030 C   0  0  0  0  0  0
    5.3110   27.7060   16.7520 C   0  0  0  0  0  0
    4.6050   28.6820   17.4530 C   0  0  0  0  0  0
    5.0170   29.0150   18.7270 C   0  0  0  0  0  0
    6.1260   28.3790   19.2730 C   0  0  0  0  0  0
    0.3958   17.9102   32.9270 H   0  0  0  0  0  0
    0.7925   18.2650   31.2114 H   0  0  0  0  0  0
    1.0765   19.5099   32.4749 H   0  0  0  0  0  0
    2.7036   20.5343   32.0541 H   0  0  0  0  0  0
    4.4275   21.5787   30.6136 H   0  0  0  0  0  0
    4.2592   16.6406   31.0918 H   0  0  0  0  0  0
    5.9946   17.6867   29.6590 H   0  0  0  0  0  0
    4.8474   22.6546   28.5681 H   0  0  0  0  0  0
    4.4738   22.8013   26.8172 H   0  0  0  0  0  0
    2.8659   23.3953   28.4866 H   0  0  0  0  0  0
   -0.1735   20.4010   28.7017 H   0  0  0  0  0  0
    1.4069   18.7254   27.8233 H   0  0  0  0  0  0
    4.4070   17.1173   27.8423 H   0  0  0  0  0  0
    2.8142   17.6981   28.4360 H   0  0  0  0  0  0
    1.9463   18.6188   25.3068 H   0  0  0  0  0  0
    1.8803   14.4289   24.6563 H   0  0  0  0  0  0
    3.9307   15.0613   27.9019 H   0  0  0  0  0  0
    4.1496   14.0238   26.4519 H   0  0  0  0  0  0
    2.6461   13.8989   27.4270 H   0  0  0  0  0  0
    5.8640   18.4704   27.0039 H   0  0  0  0  0  0
    4.9417   18.4883   25.4626 H   0  0  0  0  0  0
    6.7207   20.3634   25.7670 H   0  0  0  0  0  0
    4.7579   20.1771   24.1521 H   0  0  0  0  0  0
    3.8636   21.2437   25.2875 H   0  0  0  0  0  0
    4.4008   21.7355   22.5006 H   0  0  0  0  0  0
    5.3781   23.6756   21.3132 H   0  0  0  0  0  0
    6.7025   22.7001   26.0084 H   0  0  0  0  0  0
    7.6707   24.6335   24.8214 H   0  0  0  0  0  0
    7.4617   27.4050   21.1828 H   0  0  0  0  0  0
    8.8664   27.3965   19.0564 H   0  0  0  0  0  0
    8.1649   25.7956   18.6420 H   0  0  0  0  0  0
    6.9445   26.3040   16.7324 H   0  0  0  0  0  0
    4.9889   27.4371   15.7460 H   0  0  0  0  0  0
    3.7426   29.1736   17.0027 H   0  0  0  0  0  0
    4.4780   29.7696   19.2999 H   0  0  0  0  0  0
    6.4484   28.6527   20.2776 H   0  0  0  0  0  0
    1.0747   16.8336   23.7322 H   0  0  0  0  0  0
  1  2  1  0  0  0
  1 50  1  0  0  0
  1 51  1  0  0  0
  1 52  1  0  0  0
  2  3  1  0  0  0
  3  4  2  0  0  0
  3  6  1  0  0  0
  4  5  1  0  0  0
  4 53  1  0  0  0
  5  8  2  0  0  0
  5 54  1  0  0  0
  6  7  2  0  0  0
  6 55  1  0  0  0
  7  8  1  0  0  0
  7 56  1  0  0  0
  8  9  1  0  0  0
  9 10  2  0  0  0
  9 11  2  0  0  0
  9 12  1  0  0  0
 12 13  1  0  0  0
 12 31  1  0  0  0
 13 14  1  0  0  0
 13 57  1  0  0  0
 13 58  1  0  0  0
 14 15  2  0  0  0
 14 21  1  0  0  0
 15 16  1  0  0  0
 15 59  1  0  0  0
 16 17  1  0  0  0
 16 19  2  0  0  0
 17 18  3  0  0  0
 19 20  1  0  0  0
 19 60  1  0  0  0
 20 21  2  0  0  0
 20 61  1  0  0  0
 21 22  1  0  0  0
 22 23  1  0  0  0
 22 30  1  0  0  0
 23 24  1  0  0  0
 23 62  1  0  0  0
 23 63  1  0  0  0
 24 25  2  0  0  0
 24 28  1  0  0  0
 25 26  1  0  0  0
 25 64  1  0  0  0
 26 27  2  0  0  0
 26 86  1  0  0  0
 27 28  1  0  0  0
 27 65  1  0  0  0
 28 29  1  0  0  0
 29 66  1  0  0  0
 29 67  1  0  0  0
 29 68  1  0  0  0
 30 31  1  0  0  0
 30 69  1  0  0  0
 30 70  1  0  0  0
 31 32  1  0  0  0
 31 71  1  0  0  0
 32 33  1  0  0  0
 32 72  1  0  0  0
 32 73  1  0  0  0
 33 34  2  0  0  0
 33 36  1  0  0  0
 34 35  1  0  0  0
 34 74  1  0  0  0
 35 38  2  0  0  0
 35 75  1  0  0  0
 36 37  2  0  0  0
 36 76  1  0  0  0
 37 38  1  0  0  0
 37 77  1  0  0  0
 38 39  1  0  0  0
 39 40  1  0  0  0
 40 41  2  0  0  0
 40 42  1  0  0  0
 42 43  1  0  0  0
 42 78  1  0  0  0
 43 44  1  0  0  0
 43 79  1  0  0  0
 43 80  1  0  0  0
 44 45  2  0  0  0
 44 49  1  0  0  0
 45 46  1  0  0  0
 45 81  1  0  0  0
 46 47  2  0  0  0
 46 82  1  0  0  0
 47 48  1  0  0  0
 47 83  1  0  0  0
 48 49  2  0  0  0
 48 84  1  0  0  0
 49 85  1  0  0  0
M  CHG  1  26   1
M  END
> <s_m_source_file>
../4gtt_ligand.sdf

> <i_m_source_file_index>
1

> <s_epik_input>
W0NIM11uMVtjSF1uW2NIXWMxW0NIMl1OKGMoYzIzKVtjSF1bY0hdYyhbY0hdMylDI04pW0NIMl1bQ0BIXShOKFtDSDJdMilTKD1PKSg9TyljKFtjSF1bY0hdNClbY0hdW2NIXWM0T1tDSDNdKVtDSDJdYzVbY0hdW2NIXWMoW2NIXVtjSF01KU9DKD1PKVtOSF1bQ0gyXWM2W2NIXVtjSF1bY0hdW2NIXVtjSF02

> <s_epik_cmdline>
J2VwaWtfYXBwJywgJy1pbWFlJywgJ2xpZ2FuZF9wcm8ubWFlJywgJy1vbWFlJywgJ2xpZ2FuZF9wcmVwLm1hZScsICctbXMnLCAnMScsICctcGgnLCAnNycsICctcGh0JywgJzAuNScsICctbnQn

> <r_lp_tautomer_probability>
1

> <r_epik_Ionization_Penalty>
  0.0978

> <r_epik_Ionization_Penalty_Charging>
  0.0000

> <r_epik_Ionization_Penalty_Neutral>
  0.0978

> <r_epik_State_Penalty>
  0.0879

> <r_epik_Charging_Adjusted_Penalty>
0.0879386092385751

> <i_epik_Tot_Q>
1

> <i_epik_Tot_abs_Q>
1

$$$$
