4gue_ligand
                    3D
 Schrodinger Suite 2020-3.
 52 55  0  0  1  0            999 V2000
   31.1700    6.3800    4.6540 O   0  0  0  0  0  0
   31.8490    6.2210    5.9150 C   0  0  1  0  0  0
   33.1310    5.4140    5.6380 C   0  0  1  0  0  0
   33.7130    5.8820    4.4160 O   0  0  0  0  0  0
   32.1480    7.6170    6.4970 C   0  0  1  0  0  0
   30.9390    8.2870    6.8410 O   0  0  0  0  0  0
   32.9980    7.4500    7.7670 C   0  0  2  0  0  0
   33.2750    8.8010    8.4500 C   0  0  0  0  0  0
   34.1970    6.8350    7.3360 O   0  0  0  0  0  0
   34.1650    5.5210    6.7870 C   0  0  1  0  0  0
   33.7170    4.5540    7.7330 O   0  0  0  0  0  0
   34.4640    4.4730    8.9470 C   0  0  0  0  0  0
   35.8490    4.3310    8.9300 C   0  0  0  0  0  0
   36.4990    4.3000    7.8560 O   0  0  0  0  0  0
   33.7940    4.5070   10.1780 C   0  0  0  0  0  0
   32.2780    4.6110   10.3070 C   0  0  0  0  0  0
   31.4200    4.2620    9.2530 C   0  0  0  0  0  0
   30.0380    4.3430    9.4420 C   0  0  0  0  0  0
   29.1390    4.0370    8.3810 O   0  0  0  0  0  0
   29.4970    4.7050   10.6720 C   0  0  0  0  0  0
   28.1100    4.7530   10.8110 O   0  0  0  0  0  0
   30.3490    5.0130   11.7440 C   0  0  0  0  0  0
   31.7360    4.9490   11.5620 C   0  0  0  0  0  0
   34.4240    4.4420   11.2550 O   0  0  0  0  0  0
   35.6520    4.2970   11.3260 C   0  0  0  0  0  0
   36.2210    4.2100   12.5970 C   0  0  0  0  0  0
   37.5950    4.0700   12.7220 C   0  0  0  0  0  0
   38.1650    3.9900   14.0120 O   0  0  0  0  0  0
   38.4180    4.0110   11.5910 C   0  0  0  0  0  0
   37.8390    4.1060   10.3210 C   0  0  0  0  0  0
   36.4620    4.2420   10.1860 C   0  0  0  0  0  0
   38.6760    4.0460    9.1800 O   0  0  0  0  0  0
   30.8683    5.4939    4.0762 H   0  0  0  0  0  0
   31.1929    5.6769    6.6104 H   0  0  0  0  0  0
   32.8752    4.3556    5.4818 H   0  0  0  0  0  0
   33.1213    5.8796    3.4887 H   0  0  0  0  0  0
   32.6257    8.2654    5.7477 H   0  0  0  0  0  0
   30.1900    8.5032    6.0649 H   0  0  0  0  0  0
   32.5383    6.7869    8.5146 H   0  0  0  0  0  0
   32.3242    9.2508    8.7719 H   0  0  0  0  0  0
   33.7775    9.4745    7.7402 H   0  0  0  0  0  0
   33.9212    8.6433    9.3261 H   0  0  0  0  0  0
   35.2214    5.3462    6.5349 H   0  0  0  0  0  0
   31.8271    3.9314    8.2974 H   0  0  0  0  0  0
   29.5305    3.7469    7.3948 H   0  0  0  0  0  0
   27.4627    4.5072    9.9562 H   0  0  0  0  0  0
   29.9344    5.2997   12.7104 H   0  0  0  0  0  0
   32.4014    5.1625   12.3985 H   0  0  0  0  0  0
   35.5903    4.2518   13.4850 H   0  0  0  0  0  0
   37.5202    4.0361   14.9020 H   0  0  0  0  0  0
   39.4962    3.8926   11.6986 H   0  0  0  0  0  0
   39.7640    3.9383    9.3011 H   0  0  0  0  0  0
  1  2  1  0  0  0
  1 33  1  0  0  0
  2  3  1  0  0  0
  2  5  1  0  0  0
  2 34  1  0  0  0
  3  4  1  0  0  0
  3 10  1  0  0  0
  3 35  1  0  0  0
  4 36  1  0  0  0
  5  6  1  0  0  0
  5  7  1  0  0  0
  5 37  1  0  0  0
  6 38  1  0  0  0
  7  8  1  0  0  0
  7  9  1  0  0  0
  7 39  1  0  0  0
  8 40  1  0  0  0
  8 41  1  0  0  0
  8 42  1  0  0  0
  9 10  1  0  0  0
 10 11  1  0  0  0
 10 43  1  0  0  0
 11 12  1  0  0  0
 12 13  1  0  0  0
 12 15  2  0  0  0
 13 14  2  0  0  0
 13 31  1  0  0  0
 15 16  1  0  0  0
 15 24  1  0  0  0
 16 17  2  0  0  0
 16 23  1  0  0  0
 17 18  1  0  0  0
 17 44  1  0  0  0
 18 19  1  0  0  0
 18 20  2  0  0  0
 19 45  1  0  0  0
 20 21  1  0  0  0
 20 22  1  0  0  0
 21 46  1  0  0  0
 22 23  2  0  0  0
 22 47  1  0  0  0
 23 48  1  0  0  0
 24 25  1  0  0  0
 25 26  2  0  0  0
 25 31  1  0  0  0
 26 27  1  0  0  0
 26 49  1  0  0  0
 27 28  1  0  0  0
 27 29  2  0  0  0
 28 50  1  0  0  0
 29 30  1  0  0  0
 29 51  1  0  0  0
 30 31  2  0  0  0
 30 32  1  0  0  0
 32 52  1  0  0  0
M  END
> <s_m_source_file>
../4gue_ligand.sdf

> <i_m_source_file_index>
1

> <s_epik_input>
W09IXVtDQEhdMVtDQEhdKFtDSDNdKU9bQ0BIXShbQ0BIXShbT0hdKVtDQEBIXTFbT0hdKU9jKGMoPU8pYyhjMjMpYyhbT0hdKVtjSF1jKFtjSF0zKVtPSF0pYyhvMiktYzRbY0hdYyhbT0hdKWMoW09IXSlbY0hdW2NIXTQ=

> <s_epik_cmdline>
J2VwaWtfYXBwJywgJy1pbWFlJywgJ2xpZ2FuZF9wcm8ubWFlJywgJy1vbWFlJywgJ2xpZ2FuZF9wcmVwLm1hZScsICctbXMnLCAnMScsICctcGgnLCAnNycsICctcGh0JywgJzAuNScsICctbnQn

> <r_lp_tautomer_probability>
0.999999999999776

> <r_epik_Ionization_Penalty>
  0.0381

> <r_epik_Ionization_Penalty_Charging>
  0.0000

> <r_epik_Ionization_Penalty_Neutral>
  0.0381

> <r_epik_State_Penalty>
  0.0238

> <r_epik_Charging_Adjusted_Penalty>
0.0238045343102022

> <i_epik_Tot_Q>
0

> <i_epik_Tot_abs_Q>
0

> <s_epik_Chemistry_Notes>
This compound contains an acetal/aminal-like group ( X-CH(R)-Y where X, Y are N, S, or O) that may be acid/base labile, releasing an aldehyde.

$$$$
