4gui_ligand
                    3D
 Schrodinger Suite 2020-3.
 24 24  0  0  1  0            999 V2000
  -17.1370    1.0480   17.9800 C   0  0  1  0  0  0
  -17.9490    2.2020   17.6980 O   0  0  0  0  0  0
  -16.4760    1.2190   19.3510 C   0  0  0  0  0  0
  -18.2630    2.3370   20.5600 O   0  0  0  0  0  0
  -17.4480    1.1650   20.5140 C   0  0  1  0  0  0
  -19.3710    0.0710   21.4530 O   0  0  0  0  0  0
  -18.3670   -0.0520   20.4480 C   0  0  1  0  0  0
  -19.8030   -1.4050   19.1030 O   0  0  0  0  0  0
  -19.0320   -0.1970   19.0770 C   0  0  2  0  0  0
  -15.7590    2.0320   16.2960 O   0  5  0  0  0  0
  -17.9940   -0.2240   17.9580 C   0  0  0  0  0  0
  -15.3280   -0.0180   16.8600 O   0  0  0  0  0  0
  -16.0140    1.0110   16.9820 C   0  0  0  0  0  0
  -18.8324    2.4175   18.3171 H   0  0  0  0  0  0
  -15.7393    0.4169   19.5055 H   0  0  0  0  0  0
  -15.9702    2.1948   19.3951 H   0  0  0  0  0  0
  -17.7946    3.3310   20.6110 H   0  0  0  0  0  0
  -16.8523    1.1580   21.4387 H   0  0  0  0  0  0
  -19.0819    0.1851   22.5082 H   0  0  0  0  0  0
  -17.7950   -0.9633   20.6768 H   0  0  0  0  0  0
  -20.5940   -1.5365   19.8560 H   0  0  0  0  0  0
  -19.7338    0.6238   18.8677 H   0  0  0  0  0  0
  -18.5153   -0.2982   16.9922 H   0  0  0  0  0  0
  -17.3480   -1.1038   18.0945 H   0  0  0  0  0  0
  1  2  1  0  0  0
  1  3  1  0  0  0
  1 11  1  0  0  0
  1 13  1  0  0  0
  2 14  1  0  0  0
  3  5  1  0  0  0
  3 15  1  0  0  0
  3 16  1  0  0  0
  4  5  1  0  0  0
  4 17  1  0  0  0
  5  7  1  0  0  0
  5 18  1  0  0  0
  6  7  1  0  0  0
  6 19  1  0  0  0
  7  9  1  0  0  0
  7 20  1  0  0  0
  8  9  1  0  0  0
  8 21  1  0  0  0
  9 11  1  0  0  0
  9 22  1  0  0  0
 10 13  1  0  0  0
 11 23  1  0  0  0
 11 24  1  0  0  0
 12 13  2  0  0  0
M  CHG  1  10  -1
M  END
> <s_m_source_file>
../4gui_ligand.sdf

> <i_m_source_file_index>
1

> <s_epik_input>
W09IXUMoPU8pW0NAXTEoW09IXSlbQ0gyXVtDQEBIXShbT0hdKVtDQEBIXShbT0hdKVtDQEhdKFtPSF0pW0NIMl0x

> <s_epik_cmdline>
J2VwaWtfYXBwJywgJy1pbWFlJywgJ2xpZ2FuZF9wcm8ubWFlJywgJy1vbWFlJywgJ2xpZ2FuZF9wcmVwLm1hZScsICctbXMnLCAnMScsICctcGgnLCAnNycsICctcGh0JywgJzAuNScsICctbnQn

> <r_lp_tautomer_probability>
1

> <r_epik_Ionization_Penalty>
  0.0003

> <r_epik_Ionization_Penalty_Charging>
  0.0003

> <r_epik_Ionization_Penalty_Neutral>
  0.0000

> <r_epik_State_Penalty>
 -0.0000

> <r_epik_Charging_Adjusted_Penalty>
0.000332278119309234

> <i_epik_Tot_Q>
-1

> <i_epik_Tot_abs_Q>
1

$$$$
