4guj_ligand
                    3D
 Schrodinger Suite 2020-3.
 21 21  0  0  1  0            999 V2000
   17.1840    0.0100   83.2070 O   0  0  0  0  0  0
   18.2930    0.0720   82.3060 C   0  0  1  0  0  0
   17.9080   -0.3960   80.9170 C   0  0  2  0  0  0
   17.2310   -1.6600   81.0070 O   0  0  0  0  0  0
   19.1700   -0.5100   80.0710 C   0  0  0  0  0  0
   20.0250    0.7540   80.1290 C   0  0  0  0  0  0
   21.0640    0.9290   79.1110 C   0  0  0  0  0  0
   21.6460   -0.1000   78.6980 O   0  0  0  0  0  0
   21.3540    2.0680   78.6710 O   0  5  0  0  0  0
   19.8320    1.6530   81.0970 C   0  0  0  0  0  0
   18.8040    1.4880   82.2020 C   0  0  1  0  0  0
   17.6960    2.3600   81.9550 O   0  0  0  0  0  0
   16.6866   -0.9516   83.4017 H   0  0  0  0  0  0
   19.0389   -0.6003   82.7552 H   0  0  0  0  0  0
   17.1836    0.2836   80.4443 H   0  0  0  0  0  0
   16.2991   -1.7449   81.5853 H   0  0  0  0  0  0
   19.7802   -1.3501   80.4342 H   0  0  0  0  0  0
   18.8930   -0.6851   79.0210 H   0  0  0  0  0  0
   20.4350    2.5726   81.1217 H   0  0  0  0  0  0
   19.2580    1.7791   83.1607 H   0  0  0  0  0  0
   16.8462    2.3808   82.6531 H   0  0  0  0  0  0
  1  2  1  0  0  0
  1 13  1  0  0  0
  2  3  1  0  0  0
  2 11  1  0  0  0
  2 14  1  0  0  0
  3  4  1  0  0  0
  3  5  1  0  0  0
  3 15  1  0  0  0
  4 16  1  0  0  0
  5  6  1  0  0  0
  5 17  1  0  0  0
  5 18  1  0  0  0
  6  7  1  0  0  0
  6 10  2  0  0  0
  7  8  2  0  0  0
  7  9  1  0  0  0
 10 11  1  0  0  0
 10 19  1  0  0  0
 11 12  1  0  0  0
 11 20  1  0  0  0
 12 21  1  0  0  0
M  CHG  1   9  -1
M  END
> <s_m_source_file>
../4guj_ligand.sdf

> <i_m_source_file_index>
1

> <s_epik_input>
W09IXVtDQEhdMVtDQEhdKFtPSF0pW0NIMl1DKEMoPU8pW09IXSk9W0NIXVtDQEhdMVtPSF0=

> <s_epik_cmdline>
J2VwaWtfYXBwJywgJy1pbWFlJywgJ2xpZ2FuZF9wcm8ubWFlJywgJy1vbWFlJywgJ2xpZ2FuZF9wcmVwLm1hZScsICctbXMnLCAnMScsICctcGgnLCAnNycsICctcGh0JywgJzAuNScsICctbnQn

> <r_lp_tautomer_probability>
1

> <r_epik_Ionization_Penalty>
  0.0015

> <r_epik_Ionization_Penalty_Charging>
  0.0015

> <r_epik_Ionization_Penalty_Neutral>
  0.0000

> <r_epik_State_Penalty>
 -0.0000

> <r_epik_Charging_Adjusted_Penalty>
0.00145913088719701

> <i_epik_Tot_Q>
-1

> <i_epik_Tot_abs_Q>
1

$$$$
