4gv1_ligand
                    3D
 Schrodinger Suite 2020-3.
 54 57  0  0  1  0            999 V2000
  -16.1850   -0.4780    9.5900 Cl  0  0  0  0  0  0
  -16.7230    0.6360   10.7890 C   0  0  0  0  0  0
  -18.0150    0.5540   11.2850 C   0  0  0  0  0  0
  -18.4180    1.4630   12.2500 C   0  0  0  0  0  0
  -15.8340    1.6050   11.2380 C   0  0  0  0  0  0
  -16.2390    2.5110   12.2170 C   0  0  0  0  0  0
  -17.5340    2.4390   12.7240 C   0  0  0  0  0  0
  -18.0120    3.4110   13.7970 C   0  0  2  0  0  0
  -18.3850    2.6590   15.0960 C   0  0  0  0  0  0
  -18.7820    3.5840   16.2550 C   0  0  0  0  0  0
  -17.7080    4.4200   16.6410 O   0  0  0  0  0  0
  -19.1830    4.1310   13.2710 N   0  0  0  0  0  0
  -19.0740    5.1350   12.3450 C   0  0  0  0  0  0
  -17.9650    5.4540   11.9130 O   0  0  0  0  0  0
  -20.3800    5.7800   11.8600 C   0  0  0  0  0  0
  -20.0940    6.9710   10.9410 C   0  0  0  0  0  0
  -19.5770    6.5580    9.5390 C   0  0  0  0  0  0
  -21.1720    6.2410   13.0230 N   0  0  0  0  0  0
  -21.1950    4.6930   11.0970 C   0  0  0  0  0  0
  -20.5100    4.3260    9.7760 C   0  0  0  0  0  0
  -20.5900    5.5900    9.0610 N   0  0  0  0  0  0
  -21.6660    6.0240    8.2730 C   0  0  0  0  0  0
  -21.6200    7.3640    7.9470 N   0  0  0  0  0  0
  -22.6390    7.9730    7.2530 C   0  0  0  0  0  0
  -23.7110    7.2450    6.8310 N   0  0  0  0  0  0
  -22.7820    5.2800    7.8780 C   0  0  0  0  0  0
  -23.2330    3.9630    7.9850 C   0  0  0  0  0  0
  -24.4320    3.8200    7.3100 C   0  0  0  0  0  0
  -24.7380    5.0480    6.8510 N   0  0  0  0  0  0
  -23.7630    5.9140    7.1610 C   0  0  0  0  0  0
  -18.7011   -0.2114   10.9225 H   0  0  0  0  0  0
  -19.4334    1.4175   12.6438 H   0  0  0  0  0  0
  -14.8257    1.6564   10.8271 H   0  0  0  0  0  0
  -15.5474    3.2699   12.5828 H   0  0  0  0  0  0
  -17.2275    4.1498   14.0178 H   0  0  0  0  0  0
  -19.2391    1.9936   14.9020 H   0  0  0  0  0  0
  -17.5249    2.0625   15.4342 H   0  0  0  0  0  0
  -19.6244    4.2197   15.9447 H   0  0  0  0  0  0
  -19.0806    2.9773   17.1226 H   0  0  0  0  0  0
  -17.8394    5.1405   17.4617 H   0  0  0  0  0  0
  -20.1925    3.8692   13.6209 H   0  0  0  0  0  0
  -21.0171    7.5510   10.7945 H   0  0  0  0  0  0
  -19.3270    7.6122   11.3997 H   0  0  0  0  0  0
  -19.5143    7.4474    8.8947 H   0  0  0  0  0  0
  -18.5798    6.1038    9.6351 H   0  0  0  0  0  0
  -20.6064    7.0095   13.5703 H   0  0  0  0  0  0
  -22.1241    6.6662   12.6728 H   0  0  0  0  0  0
  -21.2727    3.7891   11.7190 H   0  0  0  0  0  0
  -22.2029    5.0760   10.8792 H   0  0  0  0  0  0
  -19.4788    3.9993    9.9761 H   0  0  0  0  0  0
  -21.0650    3.5105    9.2893 H   0  0  0  0  0  0
  -22.5873    9.0507    7.0387 H   0  0  0  0  0  0
  -22.6439    3.2239    8.5478 H   0  0  0  0  0  0
  -25.0085    2.9044    7.1775 H   0  0  0  0  0  0
  1  2  1  0  0  0
  2  3  2  0  0  0
  2  5  1  0  0  0
  3  4  1  0  0  0
  3 31  1  0  0  0
  4  7  2  0  0  0
  4 32  1  0  0  0
  5  6  2  0  0  0
  5 33  1  0  0  0
  6  7  1  0  0  0
  6 34  1  0  0  0
  7  8  1  0  0  0
  8  9  1  0  0  0
  8 12  1  0  0  0
  8 35  1  0  0  0
  9 10  1  0  0  0
  9 36  1  0  0  0
  9 37  1  0  0  0
 10 11  1  0  0  0
 10 38  1  0  0  0
 10 39  1  0  0  0
 11 40  1  0  0  0
 12 13  1  0  0  0
 12 41  1  0  0  0
 13 14  2  0  0  0
 13 15  1  0  0  0
 15 16  1  0  0  0
 15 18  1  0  0  0
 15 19  1  0  0  0
 16 17  1  0  0  0
 16 42  1  0  0  0
 16 43  1  0  0  0
 17 21  1  0  0  0
 17 44  1  0  0  0
 17 45  1  0  0  0
 18 46  1  0  0  0
 18 47  1  0  0  0
 19 20  1  0  0  0
 19 48  1  0  0  0
 19 49  1  0  0  0
 20 21  1  0  0  0
 20 50  1  0  0  0
 20 51  1  0  0  0
 21 22  1  0  0  0
 22 23  2  0  0  0
 22 26  1  0  0  0
 23 24  1  0  0  0
 24 25  2  0  0  0
 24 52  1  0  0  0
 25 30  1  0  0  0
 26 27  2  0  0  0
 26 30  1  0  0  0
 27 28  1  0  0  0
 27 53  1  0  0  0
 28 29  1  0  0  0
 28 54  1  0  0  0
 29 30  2  0  0  0
M  END
> <s_m_source_file>
../4gv1_ligand.sdf

> <i_m_source_file_index>
1

> <s_epik_input>
Q2xjMVtjSF1bY0hdYyhbY0hdW2NIXTEpW0NASF0oW0NIMl1bQ0gyXVtPSF0pW05IXUMoPU8pQzIoW05IMytdKVtDSDJdW0NIMl1OKFtDSDJdW0NIMl0yKWMzbltjSF1uYyhjMz00KT1OW0NIMl1bQ0hdNA==

> <s_epik_cmdline>
J2VwaWtfYXBwJywgJy1pbWFlJywgJ2xpZ2FuZF9wcm8ubWFlJywgJy1vbWFlJywgJ2xpZ2FuZF9wcmVwLm1hZScsICctbXMnLCAnMScsICctcGgnLCAnNycsICctcGh0JywgJzAuNScsICctbnQn

> <r_epik_Ionization_Penalty>
  0.0624

> <r_epik_Ionization_Penalty_Charging>
  0.0000

> <r_epik_Ionization_Penalty_Neutral>
  0.0624

> <r_epik_State_Penalty>
  0.2060

> <r_epik_Charging_Adjusted_Penalty>
0.206046647593327

> <i_epik_Tot_Q>
0

> <i_epik_Tot_abs_Q>
0

> <s_epik_Chemistry_Notes>
This compound has an imine and may undergo hydrolysis.

$$$$
