4gv8_ligand
                    3D
 Schrodinger Suite 2020-3.
 40 41  0  0  1  0            999 V2000
   35.0770   43.1540   -6.7290 O   0  0  0  0  0  0
   36.1320   43.3510   -7.5810 C   0  0  0  0  0  0
   37.0280   44.3880   -7.3580 C   0  0  0  0  0  0
   38.1200   44.5570   -8.2350 C   0  0  0  0  0  0
   36.2920   42.5790   -8.7070 N   0  0  0  0  0  0
   37.3630   42.7980   -9.5710 C   0  0  0  0  0  0
   37.4960   42.0200  -10.6600 O   0  0  0  0  0  0
   38.2820   43.7530   -9.3240 N   0  0  0  0  0  0
   39.4190   43.9840  -10.2330 C   0  0  1  0  0  0
   39.2790   45.2650  -11.0580 C   0  0  0  0  0  0
   40.2040   46.2610  -10.3690 C   0  0  2  0  0  0
   40.7660   47.2050  -11.2770 O   0  0  0  0  0  0
   40.6110   44.1350   -9.4240 O   0  0  0  0  0  0
   41.2720   45.3900   -9.7340 C   0  0  2  0  0  0
   41.9550   46.0390   -8.5350 C   0  0  0  0  0  0
   41.0220   46.5460   -7.5550 O   0  0  0  0  0  0
   41.5830   46.9520   -6.1270 P   0  0  1  0  0  0
   42.5440   48.0860   -6.4370 O   0  0  0  0  0  0
   40.3170   47.1490   -5.3070 O   0  5  0  0  0  0
   42.3620   45.5670   -5.5620 N   0  0  1  0  0  0
   43.8420   45.5400   -4.7550 P   0  0  1  0  0  0
   44.2550   46.9260   -4.3750 O   0  0  0  0  0  0
   43.7210   44.5610   -3.6140 O   0  5  0  0  0  0
   44.9130   45.0200   -5.8740 O   0  0  0  0  0  0
   45.9570   45.8840   -6.8670 P   0  0  0  0  0  0
   45.9280   44.9910   -8.0780 O   0  0  0  0  0  0
   47.2350   45.9460   -6.0480 O   0  5  0  0  0  0
   45.4150   47.2800   -7.0310 O   0  5  0  0  0  0
   36.8891   45.0642   -6.5144 H   0  0  0  0  0  0
   38.8474   45.3446   -8.0384 H   0  0  0  0  0  0
   35.5709   41.7796   -8.9328 H   0  0  0  0  0  0
   39.4814   43.1027  -10.8883 H   0  0  0  0  0  0
   39.5860   45.0681  -12.0958 H   0  0  0  0  0  0
   38.2308   45.5983  -11.0427 H   0  0  0  0  0  0
   39.6898   46.9342   -9.6673 H   0  0  0  0  0  0
   40.1121   47.9070  -11.8152 H   0  0  0  0  0  0
   42.1006   45.1801  -10.4264 H   0  0  0  0  0  0
   42.5953   45.2988   -8.0328 H   0  0  0  0  0  0
   42.5704   46.8843   -8.8767 H   0  0  0  0  0  0
   41.7160   45.0541   -4.8342 H   0  0  0  0  0  0
  1  2  2  0  0  0
  2  3  1  0  0  0
  2  5  1  0  0  0
  3  4  2  0  0  0
  3 29  1  0  0  0
  4  8  1  0  0  0
  4 30  1  0  0  0
  5  6  1  0  0  0
  5 31  1  0  0  0
  6  7  2  0  0  0
  6  8  1  0  0  0
  8  9  1  0  0  0
  9 10  1  0  0  0
  9 13  1  0  0  0
  9 32  1  0  0  0
 10 11  1  0  0  0
 10 33  1  0  0  0
 10 34  1  0  0  0
 11 12  1  0  0  0
 11 14  1  0  0  0
 11 35  1  0  0  0
 12 36  1  0  0  0
 13 14  1  0  0  0
 14 15  1  0  0  0
 14 37  1  0  0  0
 15 16  1  0  0  0
 15 38  1  0  0  0
 15 39  1  0  0  0
 16 17  1  0  0  0
 17 18  2  0  0  0
 17 19  1  0  0  0
 17 20  1  0  0  0
 20 21  1  0  0  0
 20 40  1  0  0  0
 21 22  2  0  0  0
 21 23  1  0  0  0
 21 24  1  0  0  0
 24 25  1  0  0  0
 25 26  2  0  0  0
 25 27  1  0  0  0
 25 28  1  0  0  0
M  CHG  4  19  -1  23  -1  27  -1  28  -1
M  END
> <s_m_source_file>
../4gv8_ligand.sdf

> <i_m_source_file_index>
1

> <s_epik_input>
Tz1jMVtjSF1bY0hdbihjKD1PKVtuSF0xKVtDQEhdMltDSDJdW0NASF0oW09IXSlbQ0BIXShPMilbQ0gyXU9bUEBAXSg9TykoW09IXSlbTkhdW1BAQF0oPU8pKFtPSF0pT1AoPU8pKFtPSF0pW09IXQ==

> <s_epik_cmdline>
J2VwaWtfYXBwJywgJy1pbWFlJywgJ2xpZ2FuZF9wcm8ubWFlJywgJy1vbWFlJywgJ2xpZ2FuZF9wcmVwLm1hZScsICctbXMnLCAnMScsICctcGgnLCAnNycsICctcGh0JywgJzAuNScsICctbnQn

> <r_lp_tautomer_probability>
0.999537046341301

> <r_epik_Ionization_Penalty>
  0.1180

> <r_epik_Ionization_Penalty_Charging>
  0.1161

> <r_epik_Ionization_Penalty_Neutral>
  0.0020

> <r_epik_State_Penalty>
  0.1037

> <r_epik_Charging_Adjusted_Penalty>
0.219792583007898

> <i_epik_Tot_Q>
-4

> <i_epik_Tot_abs_Q>
4

> <s_epik_Chemistry_Notes>
This compound contains an acetal/aminal-like group ( X-CH(R)-Y where X, Y are N, S, or O) that may be acid/base labile, releasing an aldehyde.

$$$$
