4gvc_ligand
                    3D
 Schrodinger Suite 2020-3.
140141  0  0  1  0            999 V2000
   12.0140    1.0800    3.7110 N   0  3  0  0  0  0
   11.1700    2.0880    4.4090 C   0  0  2  0  0  0
    9.8660    1.4300    4.7950 C   0  0  0  0  0  0
    9.4370    0.4610    4.1660 O   0  0  0  0  0  0
   10.9040    3.2980    3.5080 C   0  0  2  0  0  0
   10.4550    2.8360    2.2270 O   0  0  0  0  0  0
   12.1840    4.1000    3.3290 C   0  0  0  0  0  0
    9.2560    1.9470    5.8490 N   0  0  0  0  0  0
    7.9190    1.5290    6.2330 C   0  0  2  0  0  0
    6.9600    2.6010    5.7550 C   0  0  0  0  0  0
    7.2810    3.7930    5.7700 O   0  0  0  0  0  0
    7.7980    1.3860    7.7430 C   0  0  0  0  0  0
    8.8650    0.5570    8.4320 C   0  0  0  0  0  0
    8.7860    0.8580    9.9220 C   0  0  0  0  0  0
    9.8140    0.1140   10.7080 C   0  0  0  0  0  0
    9.8390    0.6360   12.1100 N   0  3  0  0  0  0
    5.7870    2.1740    5.3070 N   0  0  0  0  0  0
    4.7640    3.1130    4.8710 C   0  0  2  0  0  0
    4.2030    3.8120    6.0930 C   0  0  0  0  0  0
    4.0130    5.0380    6.1080 O   0  0  0  0  0  0
    3.6370    2.3800    4.1540 C   0  0  0  0  0  0
    3.9640    1.8890    2.7590 C   0  0  0  0  0  0
    2.7700    1.2060    2.0900 C   0  0  0  0  0  0
    1.9790    0.5140    2.7490 O   0  0  0  0  0  0
    2.6380    1.3930    0.7750 N   0  0  0  0  0  0
    3.9500    3.0210    7.1270 N   0  0  0  0  0  0
    3.3110    3.5250    8.3280 C   0  0  2  0  0  0
    3.1980    2.4070    9.3270 C   0  0  0  0  0  0
    3.5830    1.2630    9.0650 O   0  0  0  0  0  0
    1.9120    4.0540    8.0240 C   0  0  0  0  0  0
    0.9150    2.9720    7.6240 C   0  0  0  0  0  0
   -0.3420    3.5690    7.0370 C   0  0  0  0  0  0
   -0.9920    2.8810    6.2180 O   0  0  0  0  0  0
   -0.6660    4.7320    7.3780 O   0  5  0  0  0  0
    2.5880    2.7540   10.4480 N   0  0  0  0  0  0
    2.6880    1.9790   11.6390 C   0  0  2  0  0  0
    1.4740    2.2620   12.4930 C   0  0  0  0  0  0
    1.0360    3.4060   12.5870 O   0  0  0  0  0  0
    3.9280    2.4760   12.3520 C   0  0  0  0  0  0
    4.5270    1.5830   13.3350 C   0  0  0  0  0  0
    5.9420    2.0310   13.6320 C   0  0  0  0  0  0
    6.1070    2.7950   14.6020 O   0  0  0  0  0  0
    6.8720    1.6620   12.8720 O   0  5  0  0  0  0
    0.9280    1.2060   13.0980 N   0  0  0  0  0  0
   -0.1570    1.3430   14.0710 C   0  0  2  0  0  0
    0.1640    0.5570   15.3180 C   0  0  0  0  0  0
    0.8320   -0.4680   15.2480 O   0  0  0  0  0  0
   -1.4980    0.8480   13.5000 C   0  0  0  0  0  0
   -2.0630    1.7260   12.4180 C   0  0  0  0  0  0
   -2.9050    2.7940   12.7430 C   0  0  0  0  0  0
   -1.7670    1.4860   11.0810 C   0  0  0  0  0  0
   -3.4470    3.6140   11.7450 C   0  0  0  0  0  0
   -2.2940    2.3040   10.0700 C   0  0  0  0  0  0
   -3.1320    3.3750   10.4080 C   0  0  0  0  0  0
   -0.3470    1.0310   16.4540 N   0  0  0  0  0  0
   -0.2010    0.3440   17.7360 C   0  0  2  0  0  0
   -1.5540    0.2240   18.4160 C   0  0  0  0  0  0
   -2.4230    1.0890   18.2680 O   0  0  0  0  0  0
    0.8200    1.0750   18.6260 C   0  0  0  0  0  0
    0.7040    0.8010   20.1170 C   0  0  0  0  0  0
    1.6410    0.0110   20.7830 C   0  0  0  0  0  0
   -0.3240    1.3740   20.8740 C   0  0  0  0  0  0
    1.5380   -0.2250   22.1540 C   0  0  0  0  0  0
   -0.4380    1.1330   22.2390 C   0  0  0  0  0  0
    0.4990    0.3450   22.8860 C   0  0  0  0  0  0
    0.3860    0.1140   24.1190 O   0  0  0  0  0  0
    0.7270    1.1830   25.2910 P   0  0  0  0  0  0
   -0.0810    2.3990   24.9840 O   0  0  0  0  0  0
    2.2380    1.4570   25.2860 O   0  5  0  0  0  0
    0.1960    0.6070   26.5960 O   0  5  0  0  0  0
   -1.7370   -0.8640   19.1500 N   0  0  0  0  0  0
   -2.9150   -0.9810   20.0080 C   0  0  2  0  0  0
   -2.6500   -1.8670   21.2090 C   0  0  0  0  0  0
   -3.5510   -2.0940   22.0380 O   0  5  0  0  0  0
   -4.1220   -1.4750   19.2100 C   0  0  0  0  0  0
   -1.5270   -2.3710   21.3570 O   0  0  0  0  0  0
   12.1896    0.2234    4.3784 H   0  0  0  0  0  0
   12.9773    1.5349    3.4370 H   0  0  0  0  0  0
   11.4988    0.7368    2.8017 H   0  0  0  0  0  0
   11.7076    2.4257    5.3073 H   0  0  0  0  0  0
   10.1036    3.9328    3.9159 H   0  0  0  0  0  0
    9.5378    2.2337    2.1501 H   0  0  0  0  0  0
   12.5331    4.4570    4.3091 H   0  0  0  0  0  0
   11.9883    4.9613    2.6734 H   0  0  0  0  0  0
   12.9562    3.4616    2.8750 H   0  0  0  0  0  0
    9.7845    2.7099    6.4394 H   0  0  0  0  0  0
    7.7326    0.5521    5.7630 H   0  0  0  0  0  0
    7.8422    2.3809    8.2102 H   0  0  0  0  0  0
    6.8391    0.9071    7.9903 H   0  0  0  0  0  0
    8.6776   -0.5106    8.2448 H   0  0  0  0  0  0
    9.8542    0.8305    8.0363 H   0  0  0  0  0  0
    8.9447    1.9338   10.0876 H   0  0  0  0  0  0
    7.7945    0.5709   10.3020 H   0  0  0  0  0  0
    9.5632   -0.9570   10.7185 H   0  0  0  0  0  0
   10.8020    0.2547   10.2453 H   0  0  0  0  0  0
   10.5960    0.0892   12.6914 H   0  0  0  0  0  0
    8.8503    0.4954   12.5713 H   0  0  0  0  0  0
   10.0891    1.7071   12.0980 H   0  0  0  0  0  0
    5.5930    1.0920    5.2678 H   0  0  0  0  0  0
    5.2490    3.8227    4.1847 H   0  0  0  0  0  0
    3.3483    1.4924    4.7361 H   0  0  0  0  0  0
    2.7703    3.0497    4.0525 H   0  0  0  0  0  0
    4.2649    2.7410    2.1316 H   0  0  0  0  0  0
    4.7880    1.1621    2.8099 H   0  0  0  0  0  0
    3.3647    2.0154    0.2323 H   0  0  0  0  0  0
    1.8025    0.9247    0.2340 H   0  0  0  0  0  0
    4.2361    1.9610    7.0597 H   0  0  0  0  0  0
    3.9566    4.3332    8.7022 H   0  0  0  0  0  0
    1.5077    4.5551    8.9159 H   0  0  0  0  0  0
    1.9641    4.7718    7.1921 H   0  0  0  0  0  0
    1.3720    2.3125    6.8715 H   0  0  0  0  0  0
    0.6395    2.3815    8.5102 H   0  0  0  0  0  0
    1.9877    3.6757   10.4404 H   0  0  0  0  0  0
    2.7388    0.9110   11.3807 H   0  0  0  0  0  0
    4.7189    2.6778   11.6146 H   0  0  0  0  0  0
    3.6911    3.4011   12.8980 H   0  0  0  0  0  0
    3.9340    1.6066   14.2612 H   0  0  0  0  0  0
    4.5441    0.5578   12.9367 H   0  0  0  0  0  0
    1.3178    0.2088   12.8456 H   0  0  0  0  0  0
   -0.2063    2.4186   14.2963 H   0  0  0  0  0  0
   -1.3647   -0.1548   13.0679 H   0  0  0  0  0  0
   -2.2456    0.8037   14.3057 H   0  0  0  0  0  0
   -3.1431    2.9913   13.7882 H   0  0  0  0  0  0
   -1.1175    0.6521   10.8148 H   0  0  0  0  0  0
   -4.1120    4.4352   12.0124 H   0  0  0  0  0  0
   -2.0524    2.1070    9.0255 H   0  0  0  0  0  0
   -3.5366    4.0196    9.6277 H   0  0  0  0  0  0
   -0.8980    1.9815   16.3990 H   0  0  0  0  0  0
    0.1711   -0.6666   17.5118 H   0  0  0  0  0  0
    1.8386    0.7789   18.3347 H   0  0  0  0  0  0
    0.7041    2.1617   18.5006 H   0  0  0  0  0  0
    2.4666   -0.4288   20.2234 H   0  0  0  0  0  0
   -1.0502    2.0224   20.3839 H   0  0  0  0  0  0
    2.2723   -0.8569   22.6536 H   0  0  0  0  0  0
   -1.2663    1.5651   22.8005 H   0  0  0  0  0  0
   -1.0004   -1.6801   19.1128 H   0  0  0  0  0  0
   -3.1055    0.0383   20.3752 H   0  0  0  0  0  0
   -4.2874   -0.8126   18.3475 H   0  0  0  0  0  0
   -5.0142   -1.4690   19.8533 H   0  0  0  0  0  0
   -3.9327   -2.4988   18.8550 H   0  0  0  0  0  0
  1  2  1  0  0  0
  1 77  1  0  0  0
  1 78  1  0  0  0
  1 79  1  0  0  0
  2  3  1  0  0  0
  2  5  1  0  0  0
  2 80  1  0  0  0
  3  4  2  0  0  0
  3  8  1  0  0  0
  5  6  1  0  0  0
  5  7  1  0  0  0
  5 81  1  0  0  0
  6 82  1  0  0  0
  7 83  1  0  0  0
  7 84  1  0  0  0
  7 85  1  0  0  0
  8  9  1  0  0  0
  8 86  1  0  0  0
  9 10  1  0  0  0
  9 12  1  0  0  0
  9 87  1  0  0  0
 10 11  2  0  0  0
 10 17  1  0  0  0
 12 13  1  0  0  0
 12 88  1  0  0  0
 12 89  1  0  0  0
 13 14  1  0  0  0
 13 90  1  0  0  0
 13 91  1  0  0  0
 14 15  1  0  0  0
 14 92  1  0  0  0
 14 93  1  0  0  0
 15 16  1  0  0  0
 15 94  1  0  0  0
 15 95  1  0  0  0
 16 96  1  0  0  0
 16 97  1  0  0  0
 16 98  1  0  0  0
 17 18  1  0  0  0
 17 99  1  0  0  0
 18 19  1  0  0  0
 18 21  1  0  0  0
 18100  1  0  0  0
 19 20  2  0  0  0
 19 26  1  0  0  0
 21 22  1  0  0  0
 21101  1  0  0  0
 21102  1  0  0  0
 22 23  1  0  0  0
 22103  1  0  0  0
 22104  1  0  0  0
 23 24  2  0  0  0
 23 25  1  0  0  0
 25105  1  0  0  0
 25106  1  0  0  0
 26 27  1  0  0  0
 26107  1  0  0  0
 27 28  1  0  0  0
 27 30  1  0  0  0
 27108  1  0  0  0
 28 29  2  0  0  0
 28 35  1  0  0  0
 30 31  1  0  0  0
 30109  1  0  0  0
 30110  1  0  0  0
 31 32  1  0  0  0
 31111  1  0  0  0
 31112  1  0  0  0
 32 33  2  0  0  0
 32 34  1  0  0  0
 35 36  1  0  0  0
 35113  1  0  0  0
 36 37  1  0  0  0
 36 39  1  0  0  0
 36114  1  0  0  0
 37 38  2  0  0  0
 37 44  1  0  0  0
 39 40  1  0  0  0
 39115  1  0  0  0
 39116  1  0  0  0
 40 41  1  0  0  0
 40117  1  0  0  0
 40118  1  0  0  0
 41 42  2  0  0  0
 41 43  1  0  0  0
 44 45  1  0  0  0
 44119  1  0  0  0
 45 46  1  0  0  0
 45 48  1  0  0  0
 45120  1  0  0  0
 46 47  2  0  0  0
 46 55  1  0  0  0
 48 49  1  0  0  0
 48121  1  0  0  0
 48122  1  0  0  0
 49 50  2  0  0  0
 49 51  1  0  0  0
 50 52  1  0  0  0
 50123  1  0  0  0
 51 53  2  0  0  0
 51124  1  0  0  0
 52 54  2  0  0  0
 52125  1  0  0  0
 53 54  1  0  0  0
 53126  1  0  0  0
 54127  1  0  0  0
 55 56  1  0  0  0
 55128  1  0  0  0
 56 57  1  0  0  0
 56 59  1  0  0  0
 56129  1  0  0  0
 57 58  2  0  0  0
 57 71  1  0  0  0
 59 60  1  0  0  0
 59130  1  0  0  0
 59131  1  0  0  0
 60 61  2  0  0  0
 60 62  1  0  0  0
 61 63  1  0  0  0
 61132  1  0  0  0
 62 64  2  0  0  0
 62133  1  0  0  0
 63 65  2  0  0  0
 63134  1  0  0  0
 64 65  1  0  0  0
 64135  1  0  0  0
 65 66  1  0  0  0
 66 67  1  0  0  0
 67 68  2  0  0  0
 67 69  1  0  0  0
 67 70  1  0  0  0
 71 72  1  0  0  0
 71136  1  0  0  0
 72 73  1  0  0  0
 72 75  1  0  0  0
 72137  1  0  0  0
 73 74  1  0  0  0
 73 76  2  0  0  0
 75138  1  0  0  0
 75139  1  0  0  0
 75140  1  0  0  0
M  CHG  7   1   1  16   1  34  -1  43  -1  69  -1  70  -1  74  -1
M  END
> <s_m_source_file>
../4gvc_ligand.sdf

> <i_m_source_file_index>
1

> <s_epik_input>
W09IXVtDQEhdKFtDSDNdKVtDQEhdKFtOSDMrXSlDKD1PKVtOSF1bQ0BASF0oW0NIMl1bQ0gyXVtDSDJdW0NIMl1bTkgzK10pQyg9TylbTkhdW0NAQEhdKFtDSDJdW0NIMl1DKD1PKVtOSDJdKUMoPU8pW05IXVtDQEBIXShbQ0gyXVtDSDJdQyg9TylbT0hdKUMoPU8pW05IXVtDQEBIXShbQ0gyXVtDSDJdQyg9TylbT0hdKUMoPU8pW05IXVtDQEBIXShbQ0gyXWMxW2NIXVtjSF1bY0hdW2NIXVtjSF0xKUMoPU8pW05IXVtDQEhdKEMoPU8pW05IXVtDQEBIXShbQ0gzXSlDKD1PKVtPSF0pW0NIMl1jMltjSF1bY0hdYyhbY0hdW2NIXTIpT1AoPU8pKFtPSF0pW09IXQ==

> <s_epik_cmdline>
J2VwaWtfYXBwJywgJy1pbWFlJywgJ2xpZ2FuZF9wcm8ubWFlJywgJy1vbWFlJywgJ2xpZ2FuZF9wcmVwLm1hZScsICctbXMnLCAnMScsICctcGgnLCAnNycsICctcGh0JywgJzAuNScsICctbnQn

> <r_epik_Ionization_Penalty>
  0.1689

> <r_epik_Ionization_Penalty_Charging>
  0.1689

> <r_epik_Ionization_Penalty_Neutral>
  0.0000

> <r_epik_State_Penalty>
  0.1383

> <r_epik_Charging_Adjusted_Penalty>
0.307200104808615

> <i_epik_Tot_Q>
-3

> <i_epik_Tot_abs_Q>
7

$$$$
