4gvd_ligand
                    3D
 Schrodinger Suite 2020-3.
120121  0  0  1  0            999 V2000
  -18.1580  -22.2870   -0.1290 N   0  3  0  0  0  0
  -17.3710  -22.2150    1.1230 C   0  0  2  0  0  0
  -16.1590  -21.2580    0.9870 C   0  0  0  0  0  0
  -15.2250  -21.5150    0.2340 O   0  0  0  0  0  0
  -16.9600  -23.6450    1.5090 C   0  0  2  0  0  0
  -16.9590  -23.7620    2.9350 O   0  0  0  0  0  0
  -15.5990  -24.0840    0.8460 C   0  0  0  0  0  0
  -16.1880  -20.1310    1.6740 N   0  0  0  0  0  0
  -15.1090  -19.1580    1.5390 C   0  0  2  0  0  0
  -14.0220  -19.4290    2.5750 C   0  0  0  0  0  0
  -14.2750  -19.3690    3.7530 O   0  0  0  0  0  0
  -15.6910  -17.7640    1.7070 C   0  0  0  0  0  0
  -14.8070  -16.5870    1.3290 C   0  0  0  0  0  0
  -15.7020  -15.6800    0.5400 C   0  0  0  0  0  0
  -15.3970  -14.2090    0.6460 C   0  0  0  0  0  0
  -16.4350  -13.6120   -0.2490 N   0  3  0  0  0  0
  -12.8060  -19.7170    2.1570 N   0  0  0  0  0  0
  -11.7300  -19.9780    3.1210 C   0  0  2  0  0  0
  -11.0130  -18.6910    3.6770 C   0  0  0  0  0  0
  -10.6910  -18.6030    4.8640 O   0  0  0  0  0  0
  -10.7300  -21.0040    2.5460 C   0  0  0  0  0  0
  -10.7870  -17.6820    2.8460 N   0  0  0  0  0  0
   -9.8920  -16.5630    3.2420 C   0  0  2  0  0  0
  -10.2450  -15.4420    2.3150 C   0  0  0  0  0  0
  -10.7570  -15.7390    1.2520 O   0  0  0  0  0  0
   -8.4090  -16.9630    2.9980 C   0  0  0  0  0  0
  -10.0710  -14.1830    2.7160 N   0  0  0  0  0  0
  -10.2260  -13.0500    1.7660 C   0  0  2  0  0  0
   -8.9440  -12.2790    1.9620 C   0  0  0  0  0  0
   -8.5000  -12.1020    3.0980 O   0  0  0  0  0  0
  -11.5060  -12.1800    2.0330 C   0  0  0  0  0  0
   -8.3080  -11.8920    0.8630 N   0  0  0  0  0  0
   -7.1020  -11.0930    0.8790 C   0  0  2  0  0  0
   -7.4400   -9.7080    0.3310 C   0  0  0  0  0  0
   -8.1790   -9.5740   -0.6880 O   0  0  0  0  0  0
   -5.9600  -11.7520    0.1030 C   0  0  0  0  0  0
   -5.5430  -13.0950    0.6440 C   0  0  0  0  0  0
   -6.2320  -14.2630    0.2600 C   0  0  0  0  0  0
   -4.4300  -13.2220    1.4760 C   0  0  0  0  0  0
   -5.8390  -15.5280    0.7230 C   0  0  0  0  0  0
   -4.0290  -14.4770    1.9460 C   0  0  0  0  0  0
   -4.7500  -15.6300    1.5750 C   0  0  0  0  0  0
   -6.9560   -8.6590    1.0180 N   0  0  0  0  0  0
   -7.1600   -7.2510    0.6380 C   0  0  2  0  0  0
   -5.8070   -6.6950    0.1550 C   0  0  0  0  0  0
   -4.9620   -6.3180    0.9620 O   0  0  0  0  0  0
   -7.7870   -6.4540    1.8050 C   0  0  0  0  0  0
   -9.1240   -6.9970    2.1940 C   0  0  0  0  0  0
  -10.2640   -6.6030    1.5310 C   0  0  0  0  0  0
   -9.2330   -8.0050    3.1440 C   0  0  0  0  0  0
  -11.5010   -7.1040    1.8580 C   0  0  0  0  0  0
  -10.4690   -8.5530    3.4740 C   0  0  0  0  0  0
  -11.5970   -8.0890    2.8260 C   0  0  0  0  0  0
  -12.8110   -8.6120    3.1300 O   0  0  0  0  0  0
   -5.6080   -6.7540   -1.1630 N   0  0  0  0  0  0
   -4.3180   -6.5890   -1.7960 C   0  0  2  0  0  0
   -4.0990   -5.1620   -2.3490 C   0  0  0  0  0  0
   -5.0790   -4.3810   -2.5300 O   0  5  0  0  0  0
   -4.1540   -7.6360   -2.8920 C   0  0  0  0  0  0
   -2.9180   -4.7810   -2.5780 O   0  0  0  0  0  0
  -18.4652  -21.2739   -0.4277 H   0  0  0  0  0  0
  -19.0512  -22.9078    0.0346 H   0  0  0  0  0  0
  -17.5422  -22.7328   -0.9240 H   0  0  0  0  0  0
  -18.0213  -21.7911    1.9024 H   0  0  0  0  0  0
  -17.7375  -24.3595    1.2008 H   0  0  0  0  0  0
  -17.8546  -23.4845    3.5102 H   0  0  0  0  0  0
  -15.6692  -23.9693   -0.2457 H   0  0  0  0  0  0
  -15.3942  -25.1365    1.0917 H   0  0  0  0  0  0
  -14.7839  -23.4526    1.2294 H   0  0  0  0  0  0
  -17.0309  -19.9272    2.3507 H   0  0  0  0  0  0
  -14.6779  -19.2707    0.5333 H   0  0  0  0  0  0
  -16.5913  -17.6649    1.0829 H   0  0  0  0  0  0
  -15.9567  -17.6023    2.7621 H   0  0  0  0  0  0
  -14.4338  -16.1006    2.2423 H   0  0  0  0  0  0
  -13.9563  -16.9447    0.7303 H   0  0  0  0  0  0
  -15.6314  -15.9336   -0.5280 H   0  0  0  0  0  0
  -16.7411  -15.8049    0.8786 H   0  0  0  0  0  0
  -15.4951  -13.8888    1.6938 H   0  0  0  0  0  0
  -14.3698  -14.0216    0.3000 H   0  0  0  0  0  0
  -16.3223  -12.5179   -0.2623 H   0  0  0  0  0  0
  -17.4359  -13.8730    0.1253 H   0  0  0  0  0  0
  -16.3105  -14.0059   -1.2685 H   0  0  0  0  0  0
  -12.5999  -19.7612    1.0774 H   0  0  0  0  0  0
  -12.2790  -20.4251    3.9629 H   0  0  0  0  0  0
  -11.2787  -21.8810    2.1722 H   0  0  0  0  0  0
  -10.0317  -21.3177    3.3359 H   0  0  0  0  0  0
  -10.1671  -20.5443    1.7203 H   0  0  0  0  0  0
  -11.2681  -17.6778    1.8568 H   0  0  0  0  0  0
  -10.0502  -16.2950    4.2971 H   0  0  0  0  0  0
   -8.1356  -17.7870    3.6735 H   0  0  0  0  0  0
   -7.7589  -16.0975    3.1935 H   0  0  0  0  0  0
   -8.2837  -17.2874    1.9544 H   0  0  0  0  0  0
   -9.8091  -13.9881    3.7664 H   0  0  0  0  0  0
  -10.3404  -13.4201    0.7365 H   0  0  0  0  0  0
  -12.4055  -12.7931    1.8751 H   0  0  0  0  0  0
  -11.5190  -11.3249    1.3412 H   0  0  0  0  0  0
  -11.4899  -11.8127    3.0697 H   0  0  0  0  0  0
   -8.7441  -12.2105   -0.0953 H   0  0  0  0  0  0
   -6.7863  -11.0357    1.9312 H   0  0  0  0  0  0
   -6.2674  -11.9054   -0.9420 H   0  0  0  0  0  0
   -5.0733  -11.1017    0.1327 H   0  0  0  0  0  0
   -7.0877  -14.1820   -0.4104 H   0  0  0  0  0  0
   -3.8670  -12.3338    1.7627 H   0  0  0  0  0  0
   -6.3840  -16.4207    0.4162 H   0  0  0  0  0  0
   -3.1600  -14.5632    2.5983 H   0  0  0  0  0  0
   -4.4504  -16.6050    1.9592 H   0  0  0  0  0  0
   -6.3740   -8.9070    1.9179 H   0  0  0  0  0  0
   -7.8834   -7.2082   -0.1896 H   0  0  0  0  0  0
   -7.1250   -6.5061    2.6820 H   0  0  0  0  0  0
   -7.9154   -5.4037    1.5045 H   0  0  0  0  0  0
  -10.1834   -5.8739    0.7248 H   0  0  0  0  0  0
   -8.3346   -8.3731    3.6396 H   0  0  0  0  0  0
  -12.3962   -6.7302    1.3610 H   0  0  0  0  0  0
  -10.5454   -9.3343    4.2302 H   0  0  0  0  0  0
  -13.7120   -8.2455    2.6164 H   0  0  0  0  0  0
   -6.5017   -6.9411   -1.7764 H   0  0  0  0  0  0
   -3.5944   -6.7605   -0.9854 H   0  0  0  0  0  0
   -4.3154   -8.6384   -2.4686 H   0  0  0  0  0  0
   -3.1383   -7.5735   -3.3097 H   0  0  0  0  0  0
   -4.8900   -7.4515   -3.6884 H   0  0  0  0  0  0
  1  2  1  0  0  0
  1 61  1  0  0  0
  1 62  1  0  0  0
  1 63  1  0  0  0
  2  3  1  0  0  0
  2  5  1  0  0  0
  2 64  1  0  0  0
  3  4  2  0  0  0
  3  8  1  0  0  0
  5  6  1  0  0  0
  5  7  1  0  0  0
  5 65  1  0  0  0
  6 66  1  0  0  0
  7 67  1  0  0  0
  7 68  1  0  0  0
  7 69  1  0  0  0
  8  9  1  0  0  0
  8 70  1  0  0  0
  9 10  1  0  0  0
  9 12  1  0  0  0
  9 71  1  0  0  0
 10 11  2  0  0  0
 10 17  1  0  0  0
 12 13  1  0  0  0
 12 72  1  0  0  0
 12 73  1  0  0  0
 13 14  1  0  0  0
 13 74  1  0  0  0
 13 75  1  0  0  0
 14 15  1  0  0  0
 14 76  1  0  0  0
 14 77  1  0  0  0
 15 16  1  0  0  0
 15 78  1  0  0  0
 15 79  1  0  0  0
 16 80  1  0  0  0
 16 81  1  0  0  0
 16 82  1  0  0  0
 17 18  1  0  0  0
 17 83  1  0  0  0
 18 19  1  0  0  0
 18 21  1  0  0  0
 18 84  1  0  0  0
 19 20  2  0  0  0
 19 22  1  0  0  0
 21 85  1  0  0  0
 21 86  1  0  0  0
 21 87  1  0  0  0
 22 23  1  0  0  0
 22 88  1  0  0  0
 23 24  1  0  0  0
 23 26  1  0  0  0
 23 89  1  0  0  0
 24 25  2  0  0  0
 24 27  1  0  0  0
 26 90  1  0  0  0
 26 91  1  0  0  0
 26 92  1  0  0  0
 27 28  1  0  0  0
 27 93  1  0  0  0
 28 29  1  0  0  0
 28 31  1  0  0  0
 28 94  1  0  0  0
 29 30  2  0  0  0
 29 32  1  0  0  0
 31 95  1  0  0  0
 31 96  1  0  0  0
 31 97  1  0  0  0
 32 33  1  0  0  0
 32 98  1  0  0  0
 33 34  1  0  0  0
 33 36  1  0  0  0
 33 99  1  0  0  0
 34 35  2  0  0  0
 34 43  1  0  0  0
 36 37  1  0  0  0
 36100  1  0  0  0
 36101  1  0  0  0
 37 38  2  0  0  0
 37 39  1  0  0  0
 38 40  1  0  0  0
 38102  1  0  0  0
 39 41  2  0  0  0
 39103  1  0  0  0
 40 42  2  0  0  0
 40104  1  0  0  0
 41 42  1  0  0  0
 41105  1  0  0  0
 42106  1  0  0  0
 43 44  1  0  0  0
 43107  1  0  0  0
 44 45  1  0  0  0
 44 47  1  0  0  0
 44108  1  0  0  0
 45 46  2  0  0  0
 45 55  1  0  0  0
 47 48  1  0  0  0
 47109  1  0  0  0
 47110  1  0  0  0
 48 49  2  0  0  0
 48 50  1  0  0  0
 49 51  1  0  0  0
 49111  1  0  0  0
 50 52  2  0  0  0
 50112  1  0  0  0
 51 53  2  0  0  0
 51113  1  0  0  0
 52 53  1  0  0  0
 52114  1  0  0  0
 53 54  1  0  0  0
 54115  1  0  0  0
 55 56  1  0  0  0
 55116  1  0  0  0
 56 57  1  0  0  0
 56 59  1  0  0  0
 56117  1  0  0  0
 57 58  1  0  0  0
 57 60  2  0  0  0
 59118  1  0  0  0
 59119  1  0  0  0
 59120  1  0  0  0
M  CHG  3   1   1  16   1  58  -1
M  END
> <s_m_source_file>
../4gvd_ligand.sdf

> <i_m_source_file_index>
1

> <s_epik_input>
W09IXVtDQEhdKFtDSDNdKVtDQEhdKFtOSDMrXSlDKD1PKVtOSF1bQ0BASF0oW0NIMl1bQ0gyXVtDSDJdW0NIMl1bTkgzK10pQyg9TylbTkhdW0NAQEhdKFtDSDNdKUMoPU8pW05IXVtDQEBIXShbQ0gzXSlDKD1PKVtOSF1bQ0BASF0oW0NIM10pQyg9TylbTkhdW0NAQEhdKFtDSDJdYzFbY0hdW2NIXVtjSF1bY0hdW2NIXTEpQyg9TylbTkhdW0NASF0oQyg9TylbTkhdW0NAQEhdKFtDSDNdKUMoPU8pW09IXSlbQ0gyXWMyW2NIXVtjSF1jKFtPSF0pW2NIXVtjSF0y

> <s_epik_cmdline>
J2VwaWtfYXBwJywgJy1pbWFlJywgJ2xpZ2FuZF9wcm8ubWFlJywgJy1vbWFlJywgJ2xpZ2FuZF9wcmVwLm1hZScsICctbXMnLCAnMScsICctcGgnLCAnNycsICctcGh0JywgJzAuNScsICctbnQn

> <r_lp_tautomer_probability>
0.999999999997365

> <r_epik_Ionization_Penalty>
  0.0821

> <r_epik_Ionization_Penalty_Charging>
  0.0812

> <r_epik_Ionization_Penalty_Neutral>
  0.0008

> <r_epik_State_Penalty>
  0.0714

> <r_epik_Charging_Adjusted_Penalty>
0.15269276644444

> <i_epik_Tot_Q>
1

> <i_epik_Tot_abs_Q>
3

$$$$
