4gvu_ligand
                    3D
 Schrodinger Suite 2020-3.
142145  0  0  1  0            999 V2000
   17.6140   10.7720    2.6350 C   0  0  0  0  0  0
   16.6570   10.9530    1.4800 C   0  0  0  0  0  0
   16.6200   12.1040    0.8330 O   0  0  0  0  0  0
   17.7940   12.0220    3.4490 C   0  0  0  0  0  0
   16.4860   12.3240    4.1240 C   0  0  0  0  0  0
   16.6160   13.4070    5.1630 C   0  0  0  0  0  0
   17.2360   14.6680    4.5860 C   0  0  0  0  0  0
   15.9460    9.9590    1.1600 N   0  0  0  0  0  0
   14.9660    9.9840    0.0740 C   0  0  2  0  0  0
   13.7680    9.2070    0.5240 C   0  0  0  0  0  0
   13.8690    8.0460    0.8710 O   0  0  0  0  0  0
   15.5680    9.3520   -1.1730 C   0  0  0  0  0  0
   14.5820    9.3630   -2.3280 C   0  0  0  0  0  0
   15.0320    9.0870   -3.5630 C   0  0  0  0  0  0
   16.2130    8.8310   -3.7060 O   0  0  0  0  0  0
   14.2080    9.0520   -4.6070 N   0  0  0  0  0  0
   12.6190    9.8900    0.5000 N   0  0  0  0  0  0
   11.4490    9.1140    0.9120 C   0  0  2  0  0  0
   11.2270    7.9380   -0.0210 C   0  0  0  0  0  0
   11.6350    7.9290   -1.1850 O   0  0  0  0  0  0
   10.2070   10.0510    0.9230 C   0  0  2  0  0  0
   10.2150   10.9370   -0.2140 O   0  0  0  0  0  0
   10.1760   11.0000    2.1000 C   0  0  0  0  0  0
   10.5270    6.8830    0.4740 N   0  0  0  0  0  0
   10.2830    5.6920   -0.1460 C   0  0  0  0  0  0
   10.8930    4.5320    0.2270 C   0  0  0  0  0  0
   11.9200    4.4580    1.3140 C   0  0  0  0  0  0
    9.3300    5.5780   -1.2500 C   0  0  0  0  0  0
    8.9930    4.4440   -1.6110 O   0  0  0  0  0  0
    8.7730    6.6800   -1.7690 N   0  0  0  0  0  0
    7.6350    6.5460   -2.7020 C   0  0  2  0  0  0
    8.0060    6.7320   -4.1830 C   0  0  2  0  0  0
    9.3800    6.7450   -4.4470 O   0  5  0  0  0  0
    6.4900    7.4370   -2.2170 C   0  0  0  0  0  0
    5.5050    7.5200   -3.3750 C   0  0  0  0  0  0
    6.1010    8.3190   -4.5560 C   0  0  1  0  0  0
    6.3940    9.6390   -4.1740 O   0  0  0  0  0  0
    7.3300    7.6750   -5.0190 N   0  3  2  0  0  0
    7.8650    7.8940   -6.3890 C   0  0  2  0  0  0
    7.6810    9.4140   -6.5210 C   0  0  2  0  0  0
    6.7340    9.8060   -7.4750 O   0  0  0  0  0  0
    6.9470    7.0820   -7.3480 C   0  0  0  0  0  0
    7.0360    5.5980   -7.0890 C   0  0  0  0  0  0
    6.0470    4.9380   -6.3410 C   0  0  0  0  0  0
    8.1150    4.8800   -7.5880 C   0  0  0  0  0  0
    6.1900    3.5620   -6.1050 C   0  0  0  0  0  0
    8.2220    3.4980   -7.3740 C   0  0  0  0  0  0
    7.2590    2.8380   -6.6270 C   0  0  0  0  0  0
    8.8030   10.3070   -6.3660 N   0  0  3  0  0  0
   10.0180    9.7520   -5.7770 C   0  0  2  0  0  0
   10.3020   10.4080   -4.4310 C   0  0  1  0  0  0
   11.3830   11.3180   -4.3400 O   0  5  0  0  0  0
   11.1890    9.8990   -6.7830 C   0  0  0  0  0  0
   10.9740    8.8210   -7.8210 C   0  0  0  0  0  0
   11.5190    7.5520   -7.6240 C   0  0  0  0  0  0
   10.2390    9.0840   -8.9850 C   0  0  0  0  0  0
   11.3420    6.5320   -8.5710 C   0  0  0  0  0  0
   10.0430    8.0620   -9.9190 C   0  0  0  0  0  0
   10.4270    5.7990  -10.6180 O   0  0  0  0  0  0
   10.5950    6.7950   -9.7080 C   0  0  0  0  0  0
    8.6310   11.7100   -6.7060 C   0  0  0  0  0  0
    9.1760   10.8710   -3.6610 N   0  3  0  0  0  0
    9.4770   11.5510   -2.4470 C   0  0  2  0  0  0
    9.8160   10.4700   -1.4340 C   0  0  2  0  0  0
    8.8910    9.4250   -1.3770 O   0  0  0  0  0  0
    8.4180   12.5760   -2.0640 C   0  0  0  0  0  0
    8.4890   13.6660   -3.1390 C   0  0  0  0  0  0
    7.0010   12.0430   -1.8610 C   0  0  0  0  0  0
   17.2343    9.9877    3.3063 H   0  0  0  0  0  0
   18.6018   10.4786    2.2502 H   0  0  0  0  0  0
   18.5820   11.8606    4.1993 H   0  0  0  0  0  0
   18.0823   12.8521    2.7873 H   0  0  0  0  0  0
   15.7545   12.6579    3.3734 H   0  0  0  0  0  0
   16.1123   11.4171    4.6220 H   0  0  0  0  0  0
   15.6201   13.6596    5.5559 H   0  0  0  0  0  0
   17.2552   13.0519    5.9848 H   0  0  0  0  0  0
   17.3134   15.4320    5.3736 H   0  0  0  0  0  0
   16.6042   15.0464    3.7689 H   0  0  0  0  0  0
   18.2393   14.4387    4.1977 H   0  0  0  0  0  0
   16.0936    9.0402    1.7466 H   0  0  0  0  0  0
   14.6867   11.0270   -0.1362 H   0  0  0  0  0  0
   16.4645    9.9145   -1.4728 H   0  0  0  0  0  0
   15.8442    8.3090   -0.9586 H   0  0  0  0  0  0
   13.7946    8.6169   -2.1450 H   0  0  0  0  0  0
   14.1283   10.3614   -2.4133 H   0  0  0  0  0  0
   13.1411    9.2841   -4.4736 H   0  0  0  0  0  0
   14.5937    8.7910   -5.6036 H   0  0  0  0  0  0
   12.5043   10.9436    0.2053 H   0  0  0  0  0  0
   11.6693    8.7116    1.9117 H   0  0  0  0  0  0
    9.3215    9.3987    0.9019 H   0  0  0  0  0  0
   10.1676   10.4227    3.0363 H   0  0  0  0  0  0
    9.2710   11.6228    2.0451 H   0  0  0  0  0  0
   11.0669   11.6447    2.0747 H   0  0  0  0  0  0
   10.0858    6.9391    1.4801 H   0  0  0  0  0  0
   10.6374    3.5890   -0.2784 H   0  0  0  0  0  0
   12.2606    3.4181    1.4264 H   0  0  0  0  0  0
   11.4779    4.8034    2.2602 H   0  0  0  0  0  0
   12.7759    5.0981    1.0539 H   0  0  0  0  0  0
    9.1548    7.6778   -1.5069 H   0  0  0  0  0  0
    7.3188    5.4939   -2.6473 H   0  0  0  0  0  0
    7.6147    5.8106   -4.6389 H   0  0  0  0  0  0
    6.0236    6.9841   -1.3297 H   0  0  0  0  0  0
    6.8835    8.4309   -1.9574 H   0  0  0  0  0  0
    5.2625    6.5052   -3.7235 H   0  0  0  0  0  0
    4.5856    8.0218   -3.0391 H   0  0  0  0  0  0
    5.3952    8.4128   -5.3945 H   0  0  0  0  0  0
    5.5944   10.2921   -3.7945 H   0  0  0  0  0  0
    7.5125    8.4863   -4.2990 H   0  0  0  0  0  0
    8.9052    7.5833   -6.5663 H   0  0  0  0  0  0
    7.1831    9.7399   -5.5959 H   0  0  0  0  0  0
    5.8463    9.1825   -7.6573 H   0  0  0  0  0  0
    5.9018    7.3944   -7.2069 H   0  0  0  0  0  0
    7.2481    7.2687   -8.3894 H   0  0  0  0  0  0
    5.1868    5.4830   -5.9522 H   0  0  0  0  0  0
    8.8895    5.3977   -8.1539 H   0  0  0  0  0  0
    5.4456    3.0470   -5.4978 H   0  0  0  0  0  0
    9.0612    2.9439   -7.7945 H   0  0  0  0  0  0
    7.3374    1.7653   -6.4502 H   0  0  0  0  0  0
    9.8296    8.6860   -5.5815 H   0  0  0  0  0  0
   10.6928    9.5563   -3.8549 H   0  0  0  0  0  0
   11.1602   10.9013   -7.2352 H   0  0  0  0  0  0
   12.1447    9.7619   -6.2559 H   0  0  0  0  0  0
   12.0920    7.3495   -6.7191 H   0  0  0  0  0  0
    9.8238   10.0764   -9.1606 H   0  0  0  0  0  0
   11.7850    5.5484   -8.4148 H   0  0  0  0  0  0
    9.4562    8.2544  -10.8172 H   0  0  0  0  0  0
   10.8681    4.8078  -10.4363 H   0  0  0  0  0  0
    7.6289   11.8636   -7.1329 H   0  0  0  0  0  0
    9.3926   12.0047   -7.4429 H   0  0  0  0  0  0
    8.7413   12.3231   -5.7994 H   0  0  0  0  0  0
    8.5850   11.5764   -4.2635 H   0  0  0  0  0  0
    8.5473   10.0136   -3.3788 H   0  0  0  0  0  0
   10.3601   12.1876   -2.6044 H   0  0  0  0  0  0
   10.7355    9.9353   -1.7146 H   0  0  0  0  0  0
    9.0449    8.5919   -0.6754 H   0  0  0  0  0  0
    8.6485   12.9518   -1.0562 H   0  0  0  0  0  0
    9.5281   14.0117   -3.2426 H   0  0  0  0  0  0
    7.8487   14.5114   -2.8468 H   0  0  0  0  0  0
    8.1411   13.2572   -4.0991 H   0  0  0  0  0  0
    7.0094   11.2667   -1.0817 H   0  0  0  0  0  0
    6.6328   11.6121   -2.8037 H   0  0  0  0  0  0
    6.3404   12.8663   -1.5514 H   0  0  0  0  0  0
  1  2  1  0  0  0
  1  4  1  0  0  0
  1 69  1  0  0  0
  1 70  1  0  0  0
  2  3  2  0  0  0
  2  8  1  0  0  0
  4  5  1  0  0  0
  4 71  1  0  0  0
  4 72  1  0  0  0
  5  6  1  0  0  0
  5 73  1  0  0  0
  5 74  1  0  0  0
  6  7  1  0  0  0
  6 75  1  0  0  0
  6 76  1  0  0  0
  7 77  1  0  0  0
  7 78  1  0  0  0
  7 79  1  0  0  0
  8  9  1  0  0  0
  8 80  1  0  0  0
  9 10  1  0  0  0
  9 12  1  0  0  0
  9 81  1  0  0  0
 10 11  2  0  0  0
 10 17  1  0  0  0
 12 13  1  0  0  0
 12 82  1  0  0  0
 12 83  1  0  0  0
 13 14  1  0  0  0
 13 84  1  0  0  0
 13 85  1  0  0  0
 14 15  2  0  0  0
 14 16  1  0  0  0
 16 86  1  0  0  0
 16 87  1  0  0  0
 17 18  1  0  0  0
 17 88  1  0  0  0
 18 19  1  0  0  0
 18 21  1  0  0  0
 18 89  1  0  0  0
 19 20  2  0  0  0
 19 24  1  0  0  0
 21 22  1  0  0  0
 21 23  1  0  0  0
 21 90  1  0  0  0
 22 64  1  0  0  0
 23 91  1  0  0  0
 23 92  1  0  0  0
 23 93  1  0  0  0
 24 25  1  0  0  0
 24 94  1  0  0  0
 25 26  2  0  0  0
 25 28  1  0  0  0
 26 27  1  0  0  0
 26 95  1  0  0  0
 27 96  1  0  0  0
 27 97  1  0  0  0
 27 98  1  0  0  0
 28 29  2  0  0  0
 28 30  1  0  0  0
 30 31  1  0  0  0
 30 99  1  0  0  0
 31 32  1  0  0  0
 31 34  1  0  0  0
 31100  1  0  0  0
 32 33  1  0  0  0
 32 38  1  0  0  0
 32101  1  0  0  0
 34 35  1  0  0  0
 34102  1  0  0  0
 34103  1  0  0  0
 35 36  1  0  0  0
 35104  1  0  0  0
 35105  1  0  0  0
 36 37  1  0  0  0
 36 38  1  0  0  0
 36106  1  0  0  0
 37107  1  0  0  0
 38 39  1  0  0  0
 38108  1  0  0  0
 39 40  1  0  0  0
 39 42  1  0  0  0
 39109  1  0  0  0
 40 41  1  0  0  0
 40 49  1  0  0  0
 40110  1  0  0  0
 41111  1  0  0  0
 42 43  1  0  0  0
 42112  1  0  0  0
 42113  1  0  0  0
 43 44  2  0  0  0
 43 45  1  0  0  0
 44 46  1  0  0  0
 44114  1  0  0  0
 45 47  2  0  0  0
 45115  1  0  0  0
 46 48  2  0  0  0
 46116  1  0  0  0
 47 48  1  0  0  0
 47117  1  0  0  0
 48118  1  0  0  0
 49 50  1  0  0  0
 49 61  1  0  0  0
 50 51  1  0  0  0
 50 53  1  0  0  0
 50119  1  0  0  0
 51 52  1  0  0  0
 51 62  1  0  0  0
 51120  1  0  0  0
 53 54  1  0  0  0
 53121  1  0  0  0
 53122  1  0  0  0
 54 55  2  0  0  0
 54 56  1  0  0  0
 55 57  1  0  0  0
 55123  1  0  0  0
 56 58  2  0  0  0
 56124  1  0  0  0
 57 60  2  0  0  0
 57125  1  0  0  0
 58 60  1  0  0  0
 58126  1  0  0  0
 59 60  1  0  0  0
 59127  1  0  0  0
 61128  1  0  0  0
 61129  1  0  0  0
 61130  1  0  0  0
 62 63  1  0  0  0
 62131  1  0  0  0
 62132  1  0  0  0
 63 64  1  0  0  0
 63 66  1  0  0  0
 63133  1  0  0  0
 64 65  1  0  0  0
 64134  1  0  0  0
 65135  1  0  0  0
 66 67  1  0  0  0
 66 68  1  0  0  0
 66136  1  0  0  0
 67137  1  0  0  0
 67138  1  0  0  0
 67139  1  0  0  0
 68140  1  0  0  0
 68141  1  0  0  0
 68142  1  0  0  0
M  CHG  4  33  -1  38   1  52  -1  62   1
M  END
> <s_m_source_file>
../4gvu_ligand.sdf

> <i_m_source_file_index>
1

> <s_epik_input>
W0NIM11bQ0gyXVtDSDJdW0NIMl1bQ0gyXUMoPU8pW05IXVtDQEBIXShbQ0gyXVtDSDJdQyg9TylbTkgyXSlDKD1PKVtOSF1bQ0BIXShDKD1PKVtOSF0vQyg9W0NIXVxbQ0gzXSlDKD1PKVtOSF1bQ0BIXTEyKVtDQEBIXShbQ0gzXSlPW0NAQEhdKFtPSF0pW0NASF0oW0NIXShbQ0gzXSlbQ0gzXSlbTkgyK11bQ0BIXShbT0hdKVtDQEhdKFtDSDJdYzNbY0hdW2NIXWMoW09IXSlbY0hdW2NIXTMpW05ASCtdKFtDSDNdKVtDQEBIXShbT0hdKVtDQEBIXShbTkBIK10oW0NASF0xW09IXSlbQ0BIXShbT0hdKVtDSDJdW0NIMl0yKVtDSDJdYzRbY0hdW2NIXVtjSF1bY0hdW2NIXTQ=

> <s_epik_cmdline>
J2VwaWtfYXBwJywgJy1pbWFlJywgJ2xpZ2FuZF9wcm8ubWFlJywgJy1vbWFlJywgJ2xpZ2FuZF9wcmVwLm1hZScsICctbXMnLCAnMScsICctcGgnLCAnNycsICctcGh0JywgJzAuNScsICctbnQn

> <r_lp_tautomer_probability>
1

> <r_epik_Ionization_Penalty>
  0.2771

> <r_epik_Ionization_Penalty_Charging>
  0.0970

> <r_epik_Ionization_Penalty_Neutral>
  0.1801

> <r_epik_State_Penalty>
 -0.0000

> <r_epik_Charging_Adjusted_Penalty>
0.0969815770285429

> <i_epik_Tot_Q>
0

> <i_epik_Tot_abs_Q>
4

> <s_epik_Chemistry_Notes>
This compound contains an acetal/aminal-like group ( X-CH(R)-Y where X, Y are N, S, or O) that may be acid/base labile, releasing an aldehyde.

$$$$
