4gw1_ligand
                    3D
 Schrodinger Suite 2020-3.
205206  0  0  1  0            999 V2000
   15.2700    9.6650   30.6650 N   0  3  0  0  0  0
   16.0680    8.4770   30.3960 C   0  0  2  0  0  0
   15.3250    7.5270   29.4650 C   0  0  0  0  0  0
   15.2860    7.7390   28.2550 O   0  0  0  0  0  0
   16.4240    7.7670   31.7030 C   0  0  0  0  0  0
   17.2890    8.8070   32.9060 S   0  0  0  0  0  0
   14.7350    6.4800   30.0320 N   0  0  0  0  0  0
   13.9930    5.5070   29.2400 C   0  0  2  0  0  0
   12.4890    5.6780   29.4090 C   0  0  0  0  0  0
   12.0290    6.5050   30.1960 O   0  0  0  0  0  0
   14.3970    4.0780   29.6130 C   0  0  0  0  0  0
   15.7930    3.6780   29.1530 C   0  0  0  0  0  0
   16.1000    2.2110   29.4040 C   0  0  0  0  0  0
   17.0440    1.6560   28.8390 O   0  0  0  0  0  0
   15.3030    1.5740   30.2550 N   0  0  0  0  0  0
   11.7340    4.8770   28.6670 N   0  0  0  0  0  0
   10.2790    4.9110   28.7130 C   0  0  2  0  0  0
    9.7580    4.1800   29.9450 C   0  0  0  0  0  0
   10.2010    3.0740   30.2560 O   0  0  0  0  0  0
    9.7050    4.2870   27.4400 C   0  0  0  0  0  0
    8.2090    4.1670   27.4440 C   0  0  0  0  0  0
    7.4120    5.2730   27.2110 C   0  0  0  0  0  0
    7.5990    2.9460   27.6710 C   0  0  0  0  0  0
    6.0340    5.1640   27.2110 C   0  0  0  0  0  0
    6.2190    2.8320   27.6730 C   0  0  0  0  0  0
    5.4380    3.9410   27.4420 C   0  0  0  0  0  0
    8.8150    4.8060   30.6430 N   0  0  0  0  0  0
    8.2500    4.2290   31.8580 C   0  0  2  0  0  0
    6.8970    3.5780   31.5830 C   0  0  0  0  0  0
    5.9530    4.2440   31.1610 O   0  0  0  0  0  0
    8.1150    5.2990   32.9440 C   0  0  0  0  0  0
    7.5870    4.7420   34.2540 C   0  0  0  0  0  0
    7.7840    3.5370   34.5180 O   0  0  0  0  0  0
    6.9770    5.5130   35.0240 O   0  0  0  0  0  0
    6.8120    2.2770   31.8340 N   0  0  0  0  0  0
    5.5990    1.5100   31.5650 C   0  0  2  0  0  0
    4.4420    1.8920   32.4860 C   0  0  0  0  0  0
    3.2760    1.6950   32.1460 O   0  0  0  0  0  0
    5.8870    0.0120   31.6860 C   0  0  0  0  0  0
    6.8600   -0.5680   30.6580 C   0  0  0  0  0  0
    7.2960   -1.9650   31.0600 C   0  0  0  0  0  0
    6.2220   -0.5810   29.2780 C   0  0  0  0  0  0
    4.7700    2.4380   33.6540 N   0  0  0  0  0  0
    3.7590    2.7980   34.6430 C   0  0  2  0  0  0
    2.9920    4.0600   34.2530 C   0  0  0  0  0  0
    1.7740    4.1350   34.4180 O   0  0  0  0  0  0
    4.4020    2.9900   36.0200 C   0  0  0  0  0  0
    5.0870    1.8220   36.4330 O   0  0  0  0  0  0
    3.7120    5.0490   33.7330 N   0  0  0  0  0  0
    3.1240    6.3520   33.4410 C   0  0  2  0  0  0
    2.9710    6.6060   31.9460 C   0  0  0  0  0  0
    2.3720    7.6020   31.5370 O   0  0  0  0  0  0
    3.9800    7.4850   34.0280 C   0  0  2  0  0  0
    5.2680    7.4880   33.3970 O   0  0  0  0  0  0
    4.1550    7.2970   35.5220 C   0  0  0  0  0  0
    3.5180    5.6990   31.1410 N   0  0  0  0  0  0
    3.5810    5.8670   29.6900 C   0  0  2  0  0  0
    4.2990    7.1600   29.3120 C   0  0  0  0  0  0
    3.9520    7.8120   28.3280 O   0  0  0  0  0  0
    2.1880    5.8110   29.0530 C   0  0  0  0  0  0
    1.4240    4.5350   29.3600 C   0  0  0  0  0  0
    0.2580    4.3360   28.4050 C   0  0  0  0  0  0
   -0.4510    3.0870   28.6690 N   0  0  0  0  0  0
   -1.4540    2.6260   27.9290 C   0  0  0  0  0  0
   -1.8690    3.3090   26.8700 N   0  0  0  0  0  0
   -2.0400    1.4800   28.2480 N   0  0  0  0  0  0
    5.3050    7.5160   30.1030 N   0  0  0  0  0  0
    6.0670    8.7390   29.8830 C   0  0  2  0  0  0
    7.5630    8.4630   29.9520 C   0  0  0  0  0  0
    7.9940    7.4870   30.5620 O   0  0  0  0  0  0
    5.6880    9.7970   30.9210 C   0  0  0  0  0  0
    4.2610   10.3040   30.8130 C   0  0  0  0  0  0
    4.0240   11.0100   29.4850 C   0  0  0  0  0  0
    5.0530   12.0060   29.1970 N   0  0  0  0  0  0
    5.0980   13.2200   29.7380 C   0  0  0  0  0  0
    4.1720   13.5980   30.6100 N   0  0  0  0  0  0
    6.0740   14.0570   29.4110 N   0  0  0  0  0  0
    8.3550    9.3270   29.3220 N   0  0  0  0  0  0
    9.8060    9.2050   29.3870 C   0  0  2  0  0  0
   10.3070    9.7220   30.7260 C   0  0  0  0  0  0
    9.8500   10.7550   31.2120 O   0  0  0  0  0  0
   10.4650    9.9810   28.2470 C   0  0  0  0  0  0
   10.1040    9.5190   26.8360 C   0  0  0  0  0  0
   10.7430   10.4260   25.7950 C   0  0  0  0  0  0
   10.5270    8.0750   26.6280 C   0  0  0  0  0  0
   11.2490    8.9960   31.3250 N   0  0  0  0  0  0
   11.7830    9.3750   32.6270 C   0  0  2  0  0  0
   12.7590   10.5420   32.5410 C   0  0  0  0  0  0
   13.0710   11.0330   31.4550 O   0  0  0  0  0  0
   12.4690    8.1860   33.3060 C   0  0  0  0  0  0
   11.5340    7.0530   33.7030 C   0  0  0  0  0  0
   12.2870    5.9830   34.4800 C   0  0  0  0  0  0
   11.3550    4.8930   34.9860 C   0  0  0  0  0  0
   12.0530    3.8580   35.8080 N   0  3  0  0  0  0
   13.2390   10.9690   33.7070 N   0  0  0  0  0  0
   14.1850   12.0760   33.8240 C   0  0  2  0  0  0
   13.6730   13.3610   33.1740 C   0  0  0  0  0  0
   13.9809   14.4873   33.6476 O   0  0  0  0  0  0
   15.5520   11.6920   33.2520 C   0  0  0  0  0  0
   16.2480   10.1910   33.9660 S   0  0  0  0  0  0
   12.9357   13.2935   32.1545 O   0  0  0  0  0  0
   15.0228   10.1633   29.7160 H   0  0  0  0  0  0
   15.8424   10.3545   31.3029 H   0  0  0  0  0  0
   14.3420    9.3746   31.1793 H   0  0  0  0  0  0
   16.9800    8.8402   29.8996 H   0  0  0  0  0  0
   15.5038    7.4109   32.1892 H   0  0  0  0  0  0
   17.0802    6.9107   31.4882 H   0  0  0  0  0  0
   14.8151    6.3556   31.1220 H   0  0  0  0  0  0
   14.2722    5.7293   28.1995 H   0  0  0  0  0  0
   14.3750    3.9645   30.7069 H   0  0  0  0  0  0
   13.6929    3.3669   29.1564 H   0  0  0  0  0  0
   15.8894    3.8606   28.0725 H   0  0  0  0  0  0
   16.5423    4.2746   29.6939 H   0  0  0  0  0  0
   14.4718    2.1100   30.7365 H   0  0  0  0  0  0
   15.4743    0.5106   30.4781 H   0  0  0  0  0  0
   12.2468    4.1688   27.9995 H   0  0  0  0  0  0
   10.0035    5.9739   28.7796 H   0  0  0  0  0  0
    9.9801    4.9049   26.5725 H   0  0  0  0  0  0
   10.1129    3.2735   27.3123 H   0  0  0  0  0  0
    7.8758    6.2418   27.0252 H   0  0  0  0  0  0
    8.2123    2.0630   27.8505 H   0  0  0  0  0  0
    5.4179    6.0444   27.0285 H   0  0  0  0  0  0
    5.7518    1.8646   27.8574 H   0  0  0  0  0  0
    4.3515    3.8538   27.4415 H   0  0  0  0  0  0
    8.4619    5.7834   30.2826 H   0  0  0  0  0  0
    8.9666    3.4557   32.1717 H   0  0  0  0  0  0
    9.0999    5.7473   33.1415 H   0  0  0  0  0  0
    7.4182    6.0797   32.6050 H   0  0  0  0  0  0
    7.4103    3.1124   35.4614 H   0  0  0  0  0  0
    7.6955    1.7779   32.2588 H   0  0  0  0  0  0
    5.3286    1.7843   30.5346 H   0  0  0  0  0  0
    6.3238   -0.1988   32.6733 H   0  0  0  0  0  0
    4.9495   -0.5520   31.5718 H   0  0  0  0  0  0
    7.7579    0.0663   30.6198 H   0  0  0  0  0  0
    7.7540   -1.9327   32.0596 H   0  0  0  0  0  0
    8.0292   -2.3438   30.3327 H   0  0  0  0  0  0
    6.4207   -2.6310   31.0791 H   0  0  0  0  0  0
    5.9139    0.4396   29.0069 H   0  0  0  0  0  0
    5.3410   -1.2396   29.2876 H   0  0  0  0  0  0
    6.9495   -0.9524   28.5412 H   0  0  0  0  0  0
    5.8346    2.6167   33.8656 H   0  0  0  0  0  0
    3.0662    1.9436   34.6446 H   0  0  0  0  0  0
    5.1211    3.8213   35.9762 H   0  0  0  0  0  0
    3.6215    3.2191   36.7605 H   0  0  0  0  0  0
    5.6031    1.8015   37.4042 H   0  0  0  0  0  0
    4.7762    4.8662   33.5228 H   0  0  0  0  0  0
    2.1329    6.2875   33.9139 H   0  0  0  0  0  0
    3.5280    8.4665   33.8225 H   0  0  0  0  0  0
    5.3462    7.6136   32.3070 H   0  0  0  0  0  0
    3.1688    7.2942   36.0092 H   0  0  0  0  0  0
    4.7616    8.1206   35.9266 H   0  0  0  0  0  0
    4.6616    6.3397   35.7142 H   0  0  0  0  0  0
    3.9333    4.7940   31.6084 H   0  0  0  0  0  0
    4.1735    5.0088   29.3400 H   0  0  0  0  0  0
    1.5818    6.6512   29.4226 H   0  0  0  0  0  0
    2.2819    5.8799   27.9592 H   0  0  0  0  0  0
    2.0995    3.6718   29.2671 H   0  0  0  0  0  0
    1.0283    4.5822   30.3853 H   0  0  0  0  0  0
   -0.4534    5.1675   28.5166 H   0  0  0  0  0  0
    0.6316    4.3094   27.3707 H   0  0  0  0  0  0
   -0.1631    2.4619   29.5272 H   0  0  0  0  0  0
   -1.3839    4.2598   26.6041 H   0  0  0  0  0  0
   -2.6981    2.9245   26.2579 H   0  0  0  0  0  0
   -1.6971    0.9125   29.1257 H   0  0  0  0  0  0
    5.5569    6.8551   30.9455 H   0  0  0  0  0  0
    5.7963    9.0752   28.8712 H   0  0  0  0  0  0
    5.8020    9.3769   31.9312 H   0  0  0  0  0  0
    6.3466   10.6711   30.8109 H   0  0  0  0  0  0
    3.5641    9.4563   30.8880 H   0  0  0  0  0  0
    4.0620   11.0155   31.6280 H   0  0  0  0  0  0
    4.0276   10.2704   28.6708 H   0  0  0  0  0  0
    3.0509   11.5223   29.5106 H   0  0  0  0  0  0
    5.8621   11.7721   28.4895 H   0  0  0  0  0  0
    3.3607   12.9078   30.8845 H   0  0  0  0  0  0
    4.2157   14.6015   31.0583 H   0  0  0  0  0  0
    6.8441   13.7486   28.6886 H   0  0  0  0  0  0
    7.8970   10.1438   28.7449 H   0  0  0  0  0  0
   10.0266    8.1322   29.2854 H   0  0  0  0  0  0
   10.1745   11.0402   28.3085 H   0  0  0  0  0  0
   11.5586    9.8954   28.3292 H   0  0  0  0  0  0
    9.0126    9.5765   26.7117 H   0  0  0  0  0  0
   10.4220   11.4640   25.9665 H   0  0  0  0  0  0
   10.4309   10.1070   24.7896 H   0  0  0  0  0  0
   11.8382   10.3627   25.8763 H   0  0  0  0  0  0
   10.0529    7.4405   27.3913 H   0  0  0  0  0  0
   11.6208    7.9973   26.7144 H   0  0  0  0  0  0
   10.2135    7.7416   25.6277 H   0  0  0  0  0  0
   11.6239    8.0947   30.8179 H   0  0  0  0  0  0
   10.8912    9.6920   33.1875 H   0  0  0  0  0  0
   13.2172    7.7560   32.6239 H   0  0  0  0  0  0
   12.9650    8.5259   34.2271 H   0  0  0  0  0  0
   10.7256    7.4492   34.3350 H   0  0  0  0  0  0
   11.1032    6.5991   32.7984 H   0  0  0  0  0  0
   13.0406    5.5180   33.8274 H   0  0  0  0  0  0
   12.7853    6.4416   35.3468 H   0  0  0  0  0  0
   10.5711    5.3428   35.6131 H   0  0  0  0  0  0
   10.8910    4.3808   34.1302 H   0  0  0  0  0  0
   11.3259    3.1027   36.1411 H   0  0  0  0  0  0
   12.5134    4.3358   36.6854 H   0  0  0  0  0  0
   12.8333    3.3738   35.2025 H   0  0  0  0  0  0
   12.8903   10.4458   34.6096 H   0  0  0  0  0  0
   14.2587   12.2429   34.9088 H   0  0  0  0  0  0
   13.6064   15.4053   33.1712 H   0  0  0  0  0  0
   15.4623   11.5253   32.1684 H   0  0  0  0  0  0
   16.2694   12.5044   33.4399 H   0  0  0  0  0  0
  1  2  1  0  0  0
  1102  1  0  0  0
  1103  1  0  0  0
  1104  1  0  0  0
  2  3  1  0  0  0
  2  5  1  0  0  0
  2105  1  0  0  0
  3  4  2  0  0  0
  3  7  1  0  0  0
  5  6  1  0  0  0
  5106  1  0  0  0
  5107  1  0  0  0
  6100  1  0  0  0
  7  8  1  0  0  0
  7108  1  0  0  0
  8  9  1  0  0  0
  8 11  1  0  0  0
  8109  1  0  0  0
  9 10  2  0  0  0
  9 16  1  0  0  0
 11 12  1  0  0  0
 11110  1  0  0  0
 11111  1  0  0  0
 12 13  1  0  0  0
 12112  1  0  0  0
 12113  1  0  0  0
 13 14  2  0  0  0
 13 15  1  0  0  0
 15114  1  0  0  0
 15115  1  0  0  0
 16 17  1  0  0  0
 16116  1  0  0  0
 17 18  1  0  0  0
 17 20  1  0  0  0
 17117  1  0  0  0
 18 19  2  0  0  0
 18 27  1  0  0  0
 20 21  1  0  0  0
 20118  1  0  0  0
 20119  1  0  0  0
 21 22  2  0  0  0
 21 23  1  0  0  0
 22 24  1  0  0  0
 22120  1  0  0  0
 23 25  2  0  0  0
 23121  1  0  0  0
 24 26  2  0  0  0
 24122  1  0  0  0
 25 26  1  0  0  0
 25123  1  0  0  0
 26124  1  0  0  0
 27 28  1  0  0  0
 27125  1  0  0  0
 28 29  1  0  0  0
 28 31  1  0  0  0
 28126  1  0  0  0
 29 30  2  0  0  0
 29 35  1  0  0  0
 31 32  1  0  0  0
 31127  1  0  0  0
 31128  1  0  0  0
 32 33  1  0  0  0
 32 34  2  0  0  0
 33129  1  0  0  0
 35 36  1  0  0  0
 35130  1  0  0  0
 36 37  1  0  0  0
 36 39  1  0  0  0
 36131  1  0  0  0
 37 38  2  0  0  0
 37 43  1  0  0  0
 39 40  1  0  0  0
 39132  1  0  0  0
 39133  1  0  0  0
 40 41  1  0  0  0
 40 42  1  0  0  0
 40134  1  0  0  0
 41135  1  0  0  0
 41136  1  0  0  0
 41137  1  0  0  0
 42138  1  0  0  0
 42139  1  0  0  0
 42140  1  0  0  0
 43 44  1  0  0  0
 43141  1  0  0  0
 44 45  1  0  0  0
 44 47  1  0  0  0
 44142  1  0  0  0
 45 46  2  0  0  0
 45 49  1  0  0  0
 47 48  1  0  0  0
 47143  1  0  0  0
 47144  1  0  0  0
 48145  1  0  0  0
 49 50  1  0  0  0
 49146  1  0  0  0
 50 51  1  0  0  0
 50 53  1  0  0  0
 50147  1  0  0  0
 51 52  2  0  0  0
 51 56  1  0  0  0
 53 54  1  0  0  0
 53 55  1  0  0  0
 53148  1  0  0  0
 54149  1  0  0  0
 55150  1  0  0  0
 55151  1  0  0  0
 55152  1  0  0  0
 56 57  1  0  0  0
 56153  1  0  0  0
 57 58  1  0  0  0
 57 60  1  0  0  0
 57154  1  0  0  0
 58 59  2  0  0  0
 58 67  1  0  0  0
 60 61  1  0  0  0
 60155  1  0  0  0
 60156  1  0  0  0
 61 62  1  0  0  0
 61157  1  0  0  0
 61158  1  0  0  0
 62 63  1  0  0  0
 62159  1  0  0  0
 62160  1  0  0  0
 63 64  1  0  0  0
 63161  1  0  0  0
 64 65  1  0  0  0
 64 66  2  0  0  0
 65162  1  0  0  0
 65163  1  0  0  0
 66164  1  0  0  0
 67 68  1  0  0  0
 67165  1  0  0  0
 68 69  1  0  0  0
 68 71  1  0  0  0
 68166  1  0  0  0
 69 70  2  0  0  0
 69 78  1  0  0  0
 71 72  1  0  0  0
 71167  1  0  0  0
 71168  1  0  0  0
 72 73  1  0  0  0
 72169  1  0  0  0
 72170  1  0  0  0
 73 74  1  0  0  0
 73171  1  0  0  0
 73172  1  0  0  0
 74 75  1  0  0  0
 74173  1  0  0  0
 75 76  1  0  0  0
 75 77  2  0  0  0
 76174  1  0  0  0
 76175  1  0  0  0
 77176  1  0  0  0
 78 79  1  0  0  0
 78177  1  0  0  0
 79 80  1  0  0  0
 79 82  1  0  0  0
 79178  1  0  0  0
 80 81  2  0  0  0
 80 86  1  0  0  0
 82 83  1  0  0  0
 82179  1  0  0  0
 82180  1  0  0  0
 83 84  1  0  0  0
 83 85  1  0  0  0
 83181  1  0  0  0
 84182  1  0  0  0
 84183  1  0  0  0
 84184  1  0  0  0
 85185  1  0  0  0
 85186  1  0  0  0
 85187  1  0  0  0
 86 87  1  0  0  0
 86188  1  0  0  0
 87 88  1  0  0  0
 87 90  1  0  0  0
 87189  1  0  0  0
 88 89  2  0  0  0
 88 95  1  0  0  0
 90 91  1  0  0  0
 90190  1  0  0  0
 90191  1  0  0  0
 91 92  1  0  0  0
 91192  1  0  0  0
 91193  1  0  0  0
 92 93  1  0  0  0
 92194  1  0  0  0
 92195  1  0  0  0
 93 94  1  0  0  0
 93196  1  0  0  0
 93197  1  0  0  0
 94198  1  0  0  0
 94199  1  0  0  0
 94200  1  0  0  0
 95 96  1  0  0  0
 95201  1  0  0  0
 96 97  1  0  0  0
 96 99  1  0  0  0
 96202  1  0  0  0
 97 98  1  0  0  0
 97101  2  0  0  0
 98203  1  0  0  0
 99100  1  0  0  0
 99204  1  0  0  0
 99205  1  0  0  0
M  CHG  2   1   1  94   1
M  END
> <s_m_source_file>
../4gw1_ligand.sdf

> <i_m_source_file_index>
1

> <s_epik_input>
W05IMytdW0NAQEhdMUMoPU8pW05IXVtDQEBIXShbQ0gyXVtDSDJdQyg9TylbTkgyXSlDKD1PKVtOSF1bQ0BASF0oW0NIMl1jMltjSF1bY0hdW2NIXVtjSF1bY0hdMilDKD1PKVtOSF1bQ0BASF0oW0NIMl1DKD1PKVtPSF0pQyg9TylbTkhdW0NAQEhdKFtDSDJdW0NIXShbQ0gzXSlbQ0gzXSlDKD1PKVtOSF1bQ0BASF0oW0NIMl1bT0hdKUMoPU8pW05IXVtDQEBIXShbQ0BIXShbT0hdKVtDSDNdKUMoPU8pW05IXVtDQEBIXShbQ0gyXVtDSDJdW0NIMl1bTkhdL0MoW05IMl0pPU5cW0hdKUMoPU8pW05IXVtDQEBIXShbQ0gyXVtDSDJdW0NIMl1bTkhdL0MoW05IMl0pPU5cW0hdKUMoPU8pW05IXVtDQEBIXShbQ0gyXVtDSF0oW0NIM10pW0NIM10pQyg9TylbTkhdW0NAQEhdKFtDSDJdW0NIMl1bQ0gyXVtDSDJdW05IMytdKUMoPU8pW05IXVtDQEhdKEMoPU8pW09IXSlbQ0gyXVNTW0NIMl0x

> <s_epik_cmdline>
J2VwaWtfYXBwJywgJy1pbWFlJywgJ2xpZ2FuZF9wcm8ubWFlJywgJy1vbWFlJywgJ2xpZ2FuZF9wcmVwLm1hZScsICctbXMnLCAnMScsICctcGgnLCAnNycsICctcGh0JywgJzAuNScsICctbnQn

> <s_epik_pKa_notes>
Molecule size exceeds maximum supported for generating protonation states

> <s_epik_Chemistry_Notes>
This compound has an imine and may undergo hydrolysis.

$$$$
