4gw5_ligand
                    3D
 Schrodinger Suite 2020-3.
191192  0  0  1  0            999 V2000
   17.3600    7.9810   27.9330 N   0  3  0  0  0  0
   15.9550    8.3060   28.1620 C   0  0  2  0  0  0
   15.0370    7.2700   27.5180 C   0  0  0  0  0  0
   15.1090    7.0220   26.3110 O   0  0  0  0  0  0
   15.6350    9.7020   27.6250 C   0  0  0  0  0  0
   13.9560   10.2950   27.9700 S   0  0  0  0  0  0
   14.1660    6.6710   28.3220 N   0  0  0  0  0  0
   13.3220    5.5910   27.8280 C   0  0  2  0  0  0
   11.9100    5.5840   28.4090 C   0  0  0  0  0  0
   11.6370    6.2000   29.4430 O   0  0  0  0  0  0
   14.0020    4.2410   28.0640 C   0  0  0  0  0  0
   14.2100    3.8800   29.5230 C   0  0  0  0  0  0
   15.0780    2.6450   29.6890 C   0  0  0  0  0  0
   16.0600    2.4600   28.9650 O   0  0  0  0  0  0
   14.7150    1.7870   30.6390 N   0  0  0  0  0  0
   11.0160    4.8730   27.7290 N   0  0  0  0  0  0
    9.6280    4.7770   28.1540 C   0  0  2  0  0  0
    9.5030    3.9510   29.4330 C   0  0  0  0  0  0
   10.1050    2.8810   29.5560 O   0  0  0  0  0  0
    8.7760    4.1720   27.0420 C   0  0  0  0  0  0
    7.2890    4.2560   27.2990 C   0  0  0  0  0  0
    6.5900    5.4300   27.0500 C   0  0  0  0  0  0
    6.5830    3.1600   27.7880 C   0  0  0  0  0  0
    5.2250    5.5110   27.2800 C   0  0  0  0  0  0
    5.2190    3.2300   28.0200 C   0  0  0  0  0  0
    4.5460    4.4080   27.7640 C   0  0  0  0  0  0
    3.1930    4.4920   27.9900 O   0  0  0  0  0  0
    8.7250    4.4630   30.3830 N   0  0  0  0  0  0
    8.5580    3.8280   31.6910 C   0  0  2  0  0  0
    7.1450    3.2660   31.8250 C   0  0  0  0  0  0
    6.1700    3.9840   31.6150 O   0  0  0  0  0  0
    8.8340    4.8430   32.8020 C   0  0  0  0  0  0
    8.8610    4.2140   34.1820 C   0  0  0  0  0  0
    7.8320    3.7930   34.7000 O   0  0  0  0  0  0
   10.0420    4.1670   34.7920 N   0  0  0  0  0  0
    7.0330    1.9880   32.1770 N   0  0  0  0  0  0
    5.7350    1.3070   32.1390 C   0  0  2  0  0  0
    4.8110    1.6300   33.3220 C   0  0  0  0  0  0
    3.5940    1.4580   33.2220 O   0  0  0  0  0  0
    5.9200   -0.2060   31.9820 C   0  0  0  0  0  0
    6.6600   -0.6620   30.7140 C   0  0  0  0  0  0
    6.8860   -2.1630   30.7470 C   0  0  0  0  0  0
    5.9190   -0.2560   29.4390 C   0  0  0  0  0  0
    5.3900    2.0980   34.4300 N   0  0  0  0  0  0
    4.6260    2.4820   35.6210 C   0  0  2  0  0  0
    4.0650    3.9040   35.5130 C   0  0  0  0  0  0
    2.8970    4.1510   35.8230 O   0  0  0  0  0  0
    5.4930    2.3650   36.8830 C   0  0  0  0  0  0
    5.8850    1.0230   37.1110 O   0  0  0  0  0  0
    4.9100    4.8380   35.0830 N   0  0  0  0  0  0
    4.4920    6.2230   34.9010 C   0  0  2  0  0  0
    3.8360    6.4490   33.5280 C   0  0  0  0  0  0
    3.1260    7.4370   33.3340 O   0  0  0  0  0  0
    5.6750    7.1820   35.1180 C   0  0  0  0  0  0
    6.6340    7.0720   34.0790 O   0  0  0  0  0  0
    4.0740    5.5260   32.5910 N   0  0  0  0  0  0
    3.5330    5.6090   31.2200 C   0  0  2  0  0  0
    3.9110    6.8950   30.4850 C   0  0  0  0  0  0
    3.0570    7.5730   29.9150 O   0  0  0  0  0  0
    2.0170    5.4460   31.2180 C   0  0  0  0  0  0
    1.5330    4.1320   31.7810 C   0  0  0  0  0  0
    1.7470    3.0150   30.7980 C   0  0  0  0  0  0
    1.0310    1.8180   31.2140 N   0  0  0  0  0  0
   -0.2180    1.5300   30.8580 C   0  0  0  0  0  0
   -0.8940    2.3510   30.0600 N   0  0  0  0  0  0
   -0.7880    0.4170   31.3000 N   0  0  0  0  0  0
    5.2020    7.2100   30.5210 N   0  0  0  0  0  0
    5.7610    8.4030   29.9100 C   0  0  2  0  0  0
    7.2680    8.1770   29.8240 C   0  0  0  0  0  0
    7.7940    7.2650   30.4720 O   0  0  0  0  0  0
    5.4470    9.6310   30.7630 C   0  0  0  0  0  0
    7.9640    8.9850   29.0290 N   0  0  0  0  0  0
    9.4200    8.8790   28.9700 C   0  0  2  0  0  0
   10.0330    9.1930   30.3410 C   0  0  0  0  0  0
    9.5520   10.0730   31.0610 O   0  0  0  0  0  0
   10.0080    9.7640   27.8640 C   0  0  0  0  0  0
    9.7280    9.2880   26.4280 C   0  0  0  0  0  0
   10.1810   10.3130   25.3780 C   0  0  0  0  0  0
   10.3660    7.9290   26.1670 C   0  0  0  0  0  0
   11.0760    8.4460   30.6980 N   0  0  0  0  0  0
   11.7110    8.5430   32.0130 C   0  0  2  0  0  0
   13.2010    8.8350   31.8750 C   0  0  0  0  0  0
   14.0230    7.9240   31.9260 O   0  0  0  0  0  0
   11.5250    7.2280   32.7760 C   0  0  0  0  0  0
   11.0300    7.3630   34.2100 C   0  0  0  0  0  0
   12.0990    7.9190   35.1340 C   0  0  0  0  0  0
   11.5990    7.9620   36.5670 C   0  0  0  0  0  0
   12.5390    8.6680   37.4850 N   0  3  0  0  0  0
   13.5500   10.1050   31.7100 N   0  0  0  0  0  0
   14.9420   10.4860   31.4890 C   0  0  2  0  0  0
   15.7560   10.5450   32.7840 C   0  0  0  0  0  0
   15.3434   11.1971   33.7801 O   0  0  0  0  0  0
   15.0100   11.8260   30.7590 C   0  0  0  0  0  0
   14.0490   11.8960   29.2270 S   0  0  0  0  0  0
   16.8548    9.9324   32.8550 O   0  0  0  0  0  0
   17.5722    6.9753   28.3247 H   0  0  0  0  0  0
   17.9952    8.7167   28.4480 H   0  0  0  0  0  0
   17.5710    8.0062   26.8537 H   0  0  0  0  0  0
   15.8257    8.2789   29.2540 H   0  0  0  0  0  0
   16.3239   10.4337   28.0723 H   0  0  0  0  0  0
   15.7515    9.7097   26.5312 H   0  0  0  0  0  0
   14.0851    6.9971   29.3694 H   0  0  0  0  0  0
   13.2304    5.8176   26.7555 H   0  0  0  0  0  0
   13.3900    3.4402   27.6233 H   0  0  0  0  0  0
   14.9962    4.2439   27.5932 H   0  0  0  0  0  0
   14.7023    4.7163   30.0410 H   0  0  0  0  0  0
   13.2362    3.6795   29.9936 H   0  0  0  0  0  0
   13.8312    1.9954   31.2598 H   0  0  0  0  0  0
   15.2988    0.8693   30.8036 H   0  0  0  0  0  0
   11.3510    4.3486   26.8219 H   0  0  0  0  0  0
    9.3097    5.8108   28.3538 H   0  0  0  0  0  0
    8.9748    4.7014   26.0985 H   0  0  0  0  0  0
    9.0276    3.1076   26.9252 H   0  0  0  0  0  0
    7.1225    6.3010   26.6680 H   0  0  0  0  0  0
    7.1133    2.2298   27.9920 H   0  0  0  0  0  0
    4.6900    6.4394   27.0803 H   0  0  0  0  0  0
    4.6814    2.3620   28.4016 H   0  0  0  0  0  0
    2.6585    5.4314   27.7854 H   0  0  0  0  0  0
    8.1963    5.4003   30.1551 H   0  0  0  0  0  0
    9.2893    3.0077   31.7385 H   0  0  0  0  0  0
    9.8115    5.3174   32.6306 H   0  0  0  0  0  0
    8.0477    5.6122   32.7995 H   0  0  0  0  0  0
   10.9378    4.5573   34.2869 H   0  0  0  0  0  0
   10.1229    3.7378   35.8016 H   0  0  0  0  0  0
    7.9315    1.4417   32.4999 H   0  0  0  0  0  0
    5.2639    1.7360   31.2423 H   0  0  0  0  0  0
    6.4995   -0.5947   32.8323 H   0  0  0  0  0  0
    4.9351   -0.6950   31.9554 H   0  0  0  0  0  0
    7.6401   -0.1630   30.6937 H   0  0  0  0  0  0
    7.4193   -2.4333   31.6703 H   0  0  0  0  0  0
    7.4866   -2.4626   29.8755 H   0  0  0  0  0  0
    5.9158   -2.6806   30.7191 H   0  0  0  0  0  0
    5.7657    0.8333   29.4351 H   0  0  0  0  0  0
    4.9438   -0.7636   29.4043 H   0  0  0  0  0  0
    6.5146   -0.5457   28.5608 H   0  0  0  0  0  0
    6.4861    2.1907   34.4262 H   0  0  0  0  0  0
    3.7926    1.7646   35.6498 H   0  0  0  0  0  0
    6.3973    2.9800   36.7649 H   0  0  0  0  0  0
    4.9215    2.7170   37.7545 H   0  0  0  0  0  0
    6.5119    0.7732   37.9796 H   0  0  0  0  0  0
    5.9467    4.5430   34.8634 H   0  0  0  0  0  0
    3.7342    6.3834   35.6820 H   0  0  0  0  0  0
    5.3071    8.2184   35.1424 H   0  0  0  0  0  0
    6.1685    6.9455   36.0722 H   0  0  0  0  0  0
    7.5387    7.6974   34.0971 H   0  0  0  0  0  0
    4.7063    4.6743   32.8821 H   0  0  0  0  0  0
    4.0171    4.7656   30.7059 H   0  0  0  0  0  0
    1.5617    6.2430   31.8242 H   0  0  0  0  0  0
    1.6425    5.5112   30.1858 H   0  0  0  0  0  0
    2.0868    3.9020   32.7032 H   0  0  0  0  0  0
    0.4587    4.2032   32.0065 H   0  0  0  0  0  0
    1.3795    3.3225   29.8079 H   0  0  0  0  0  0
    2.8203    2.7828   30.7348 H   0  0  0  0  0  0
    1.5235    1.0810   31.8654 H   0  0  0  0  0  0
   -0.4216    3.2742   29.6932 H   0  0  0  0  0  0
   -1.9257    2.1070   29.7666 H   0  0  0  0  0  0
   -0.2290   -0.2625   31.9602 H   0  0  0  0  0  0
    5.8583    6.5051   31.0523 H   0  0  0  0  0  0
    5.3048    8.5404   28.9185 H   0  0  0  0  0  0
    4.3575    9.7749   30.8114 H   0  0  0  0  0  0
    5.9146   10.5192   30.3131 H   0  0  0  0  0  0
    5.8428    9.4829   31.7786 H   0  0  0  0  0  0
    7.4417    9.7338   28.4154 H   0  0  0  0  0  0
    9.6250    7.8301   28.7096 H   0  0  0  0  0  0
    9.5904   10.7784   27.9453 H   0  0  0  0  0  0
   11.1018    9.8080   27.9722 H   0  0  0  0  0  0
    8.6383    9.1751   26.3286 H   0  0  0  0  0  0
    9.7087   11.2844   25.5863 H   0  0  0  0  0  0
    9.8838    9.9679   24.3767 H   0  0  0  0  0  0
   11.2749   10.4208   25.4190 H   0  0  0  0  0  0
   10.0276    7.2125   26.9300 H   0  0  0  0  0  0
   11.4610    8.0232   26.2125 H   0  0  0  0  0  0
   10.0699    7.5703   25.1702 H   0  0  0  0  0  0
   11.4586    7.7320   29.9538 H   0  0  0  0  0  0
   11.2124    9.3778   32.5273 H   0  0  0  0  0  0
   10.7880    6.6014   32.2524 H   0  0  0  0  0  0
   12.4863    6.6961   32.8297 H   0  0  0  0  0  0
   10.1663    8.0436   34.2372 H   0  0  0  0  0  0
   10.7302    6.3748   34.5890 H   0  0  0  0  0  0
   12.9925    7.2790   35.0879 H   0  0  0  0  0  0
   12.3622    8.9393   34.8182 H   0  0  0  0  0  0
   10.6342    8.4891   36.6030 H   0  0  0  0  0  0
   11.4703    6.9357   36.9414 H   0  0  0  0  0  0
   12.1256    8.6675   38.5044 H   0  0  0  0  0  0
   12.6742    9.7052   37.1446 H   0  0  0  0  0  0
   13.5104    8.1519   37.4830 H   0  0  0  0  0  0
   12.7670   10.8769   31.7423 H   0  0  0  0  0  0
   15.3475    9.6766   30.8641 H   0  0  0  0  0  0
   15.9413   11.2287   34.7028 H   0  0  0  0  0  0
   14.6247   12.6207   31.4147 H   0  0  0  0  0  0
   16.0542   12.0454   30.4917 H   0  0  0  0  0  0
  1  2  1  0  0  0
  1 96  1  0  0  0
  1 97  1  0  0  0
  1 98  1  0  0  0
  2  3  1  0  0  0
  2  5  1  0  0  0
  2 99  1  0  0  0
  3  4  2  0  0  0
  3  7  1  0  0  0
  5  6  1  0  0  0
  5100  1  0  0  0
  5101  1  0  0  0
  6 94  1  0  0  0
  7  8  1  0  0  0
  7102  1  0  0  0
  8  9  1  0  0  0
  8 11  1  0  0  0
  8103  1  0  0  0
  9 10  2  0  0  0
  9 16  1  0  0  0
 11 12  1  0  0  0
 11104  1  0  0  0
 11105  1  0  0  0
 12 13  1  0  0  0
 12106  1  0  0  0
 12107  1  0  0  0
 13 14  2  0  0  0
 13 15  1  0  0  0
 15108  1  0  0  0
 15109  1  0  0  0
 16 17  1  0  0  0
 16110  1  0  0  0
 17 18  1  0  0  0
 17 20  1  0  0  0
 17111  1  0  0  0
 18 19  2  0  0  0
 18 28  1  0  0  0
 20 21  1  0  0  0
 20112  1  0  0  0
 20113  1  0  0  0
 21 22  2  0  0  0
 21 23  1  0  0  0
 22 24  1  0  0  0
 22114  1  0  0  0
 23 25  2  0  0  0
 23115  1  0  0  0
 24 26  2  0  0  0
 24116  1  0  0  0
 25 26  1  0  0  0
 25117  1  0  0  0
 26 27  1  0  0  0
 27118  1  0  0  0
 28 29  1  0  0  0
 28119  1  0  0  0
 29 30  1  0  0  0
 29 32  1  0  0  0
 29120  1  0  0  0
 30 31  2  0  0  0
 30 36  1  0  0  0
 32 33  1  0  0  0
 32121  1  0  0  0
 32122  1  0  0  0
 33 34  2  0  0  0
 33 35  1  0  0  0
 35123  1  0  0  0
 35124  1  0  0  0
 36 37  1  0  0  0
 36125  1  0  0  0
 37 38  1  0  0  0
 37 40  1  0  0  0
 37126  1  0  0  0
 38 39  2  0  0  0
 38 44  1  0  0  0
 40 41  1  0  0  0
 40127  1  0  0  0
 40128  1  0  0  0
 41 42  1  0  0  0
 41 43  1  0  0  0
 41129  1  0  0  0
 42130  1  0  0  0
 42131  1  0  0  0
 42132  1  0  0  0
 43133  1  0  0  0
 43134  1  0  0  0
 43135  1  0  0  0
 44 45  1  0  0  0
 44136  1  0  0  0
 45 46  1  0  0  0
 45 48  1  0  0  0
 45137  1  0  0  0
 46 47  2  0  0  0
 46 50  1  0  0  0
 48 49  1  0  0  0
 48138  1  0  0  0
 48139  1  0  0  0
 49140  1  0  0  0
 50 51  1  0  0  0
 50141  1  0  0  0
 51 52  1  0  0  0
 51 54  1  0  0  0
 51142  1  0  0  0
 52 53  2  0  0  0
 52 56  1  0  0  0
 54 55  1  0  0  0
 54143  1  0  0  0
 54144  1  0  0  0
 55145  1  0  0  0
 56 57  1  0  0  0
 56146  1  0  0  0
 57 58  1  0  0  0
 57 60  1  0  0  0
 57147  1  0  0  0
 58 59  2  0  0  0
 58 67  1  0  0  0
 60 61  1  0  0  0
 60148  1  0  0  0
 60149  1  0  0  0
 61 62  1  0  0  0
 61150  1  0  0  0
 61151  1  0  0  0
 62 63  1  0  0  0
 62152  1  0  0  0
 62153  1  0  0  0
 63 64  1  0  0  0
 63154  1  0  0  0
 64 65  1  0  0  0
 64 66  2  0  0  0
 65155  1  0  0  0
 65156  1  0  0  0
 66157  1  0  0  0
 67 68  1  0  0  0
 67158  1  0  0  0
 68 69  1  0  0  0
 68 71  1  0  0  0
 68159  1  0  0  0
 69 70  2  0  0  0
 69 72  1  0  0  0
 71160  1  0  0  0
 71161  1  0  0  0
 71162  1  0  0  0
 72 73  1  0  0  0
 72163  1  0  0  0
 73 74  1  0  0  0
 73 76  1  0  0  0
 73164  1  0  0  0
 74 75  2  0  0  0
 74 80  1  0  0  0
 76 77  1  0  0  0
 76165  1  0  0  0
 76166  1  0  0  0
 77 78  1  0  0  0
 77 79  1  0  0  0
 77167  1  0  0  0
 78168  1  0  0  0
 78169  1  0  0  0
 78170  1  0  0  0
 79171  1  0  0  0
 79172  1  0  0  0
 79173  1  0  0  0
 80 81  1  0  0  0
 80174  1  0  0  0
 81 82  1  0  0  0
 81 84  1  0  0  0
 81175  1  0  0  0
 82 83  2  0  0  0
 82 89  1  0  0  0
 84 85  1  0  0  0
 84176  1  0  0  0
 84177  1  0  0  0
 85 86  1  0  0  0
 85178  1  0  0  0
 85179  1  0  0  0
 86 87  1  0  0  0
 86180  1  0  0  0
 86181  1  0  0  0
 87 88  1  0  0  0
 87182  1  0  0  0
 87183  1  0  0  0
 88184  1  0  0  0
 88185  1  0  0  0
 88186  1  0  0  0
 89 90  1  0  0  0
 89187  1  0  0  0
 90 91  1  0  0  0
 90 93  1  0  0  0
 90188  1  0  0  0
 91 92  1  0  0  0
 91 95  2  0  0  0
 92189  1  0  0  0
 93 94  1  0  0  0
 93190  1  0  0  0
 93191  1  0  0  0
M  CHG  2   1   1  88   1
M  END
> <s_m_source_file>
../4gw5_ligand.sdf

> <i_m_source_file_index>
1

> <s_epik_input>
W05IMytdW0NAQEhdMUMoPU8pW05IXVtDQEBIXShbQ0gyXVtDSDJdQyg9TylbTkgyXSlDKD1PKVtOSF1bQ0BASF0oW0NIMl1jMltjSF1bY0hdYyhbT0hdKVtjSF1bY0hdMilDKD1PKVtOSF1bQ0BASF0oW0NIMl1DKD1PKVtOSDJdKUMoPU8pW05IXVtDQEBIXShbQ0gyXVtDSF0oW0NIM10pW0NIM10pQyg9TylbTkhdW0NAQEhdKFtDSDJdW09IXSlDKD1PKVtOSF1bQ0BASF0oW0NIMl1bT0hdKUMoPU8pW05IXVtDQEBIXShbQ0gyXVtDSDJdW0NIMl1bTkhdL0MoW05IMl0pPU5cW0hdKUMoPU8pW05IXVtDQEBIXShbQ0gzXSlDKD1PKVtOSF1bQ0BASF0oW0NIMl1bQ0hdKFtDSDNdKVtDSDNdKUMoPU8pW05IXVtDQEBIXShbQ0gyXVtDSDJdW0NIMl1bQ0gyXVtOSDMrXSlDKD1PKVtOSF1bQ0BIXShDKD1PKVtPSF0pW0NIMl1TU1tDSDJdMQ==

> <s_epik_cmdline>
J2VwaWtfYXBwJywgJy1pbWFlJywgJ2xpZ2FuZF9wcm8ubWFlJywgJy1vbWFlJywgJ2xpZ2FuZF9wcmVwLm1hZScsICctbXMnLCAnMScsICctcGgnLCAnNycsICctcGh0JywgJzAuNScsICctbnQn

> <s_epik_pKa_notes>
Molecule size exceeds maximum supported for generating protonation states

> <s_epik_Chemistry_Notes>
This compound has an imine and may undergo hydrolysis.

$$$$
