4gw6_ligand
                    3D
 Schrodinger Suite 2020-3.
 48 50  0  0  1  0            999 V2000
   29.9590  -14.0370   17.2160 C   0  0  0  0  0  0
   29.0490  -15.0860   17.3800 C   0  0  0  0  0  0
   27.6890  -14.8950   17.2090 C   0  0  0  0  0  0
   27.2200  -13.6320   16.8690 C   0  0  0  0  0  0
   28.1200  -12.5600   16.7020 C   0  0  0  0  0  0
   29.4960  -12.7650   16.8820 C   0  0  0  0  0  0
   26.7930  -15.9520   17.3670 C   0  0  0  0  0  0
   25.4310  -15.7500   17.1650 C   0  0  0  0  0  0
   24.9790  -14.4490   16.8440 C   0  0  0  0  0  0
   25.8840  -13.4440   16.6940 N   0  0  0  0  0  0
   31.7970  -14.3990   17.5320 Br  0  0  0  0  0  0
   24.5310  -16.9220   17.4000 C   0  0  1  0  0  0
   23.9840  -16.7660   18.8210 C   0  0  0  0  0  0
   23.4520  -17.0680   16.4610 O   0  0  0  0  0  0
   23.5900  -17.9210   15.3210 C   0  0  0  0  0  0
   24.3170  -19.2740   15.5340 C   0  0  0  0  0  0
   22.1830  -18.2030   14.8100 C   0  0  0  0  0  0
   24.2710  -16.9830   14.3430 C   0  0  0  0  0  0
   22.8160  -17.1370   19.1050 O   0  0  0  0  0  0
   24.7380  -16.2790   19.7040 O   0  5  0  0  0  0
   27.2740  -17.3130   17.7010 C   0  0  0  0  0  0
   27.1580  -17.8560   18.9580 C   0  0  0  0  0  0
   27.6420  -19.1440   19.1570 C   0  0  0  0  0  0
   28.2470  -19.8720   18.1370 C   0  0  0  0  0  0
   28.3610  -19.3360   16.8800 C   0  0  0  0  0  0
   27.8670  -18.0490   16.6700 C   0  0  0  0  0  0
   23.5280  -14.0790   16.6300 C   0  0  0  0  0  0
   28.8200  -21.5310   18.4490 Cl  0  0  0  0  0  0
   29.4188  -16.0756   17.6483 H   0  0  0  0  0  0
   27.7468  -11.5718   16.4330 H   0  0  0  0  0  0
   30.1961  -11.9382   16.7620 H   0  0  0  0  0  0
   25.0978  -17.8448   17.2072 H   0  0  0  0  0  0
   23.7528  -19.8839   16.2549 H   0  0  0  0  0  0
   25.3292  -19.0891   15.9230 H   0  0  0  0  0  0
   24.3847  -19.8088   14.5751 H   0  0  0  0  0  0
   21.6696  -18.8830   15.5058 H   0  0  0  0  0  0
   22.2408  -18.6706   13.8160 H   0  0  0  0  0  0
   21.6226  -17.2591   14.7392 H   0  0  0  0  0  0
   25.2908  -16.7654   14.6932 H   0  0  0  0  0  0
   23.6989  -16.0459   14.2749 H   0  0  0  0  0  0
   24.3171  -17.4574   13.3516 H   0  0  0  0  0  0
   26.7011  -17.2948   19.7731 H   0  0  0  0  0  0
   27.5445  -19.5979   20.1432 H   0  0  0  0  0  0
   28.8238  -19.8990   16.0694 H   0  0  0  0  0  0
   27.9449  -17.6054   15.6774 H   0  0  0  0  0  0
   22.8973  -14.9680   16.7778 H   0  0  0  0  0  0
   23.3934  -13.7000   15.6062 H   0  0  0  0  0  0
   23.2382  -13.2999   17.3504 H   0  0  0  0  0  0
  1  2  2  0  0  0
  1  6  1  0  0  0
  1 11  1  0  0  0
  2  3  1  0  0  0
  2 29  1  0  0  0
  3  4  2  0  0  0
  3  7  1  0  0  0
  4  5  1  0  0  0
  4 10  1  0  0  0
  5  6  2  0  0  0
  5 30  1  0  0  0
  6 31  1  0  0  0
  7  8  2  0  0  0
  7 21  1  0  0  0
  8  9  1  0  0  0
  8 12  1  0  0  0
  9 10  2  0  0  0
  9 27  1  0  0  0
 12 13  1  0  0  0
 12 14  1  0  0  0
 12 32  1  0  0  0
 13 19  2  0  0  0
 13 20  1  0  0  0
 14 15  1  0  0  0
 15 16  1  0  0  0
 15 17  1  0  0  0
 15 18  1  0  0  0
 16 33  1  0  0  0
 16 34  1  0  0  0
 16 35  1  0  0  0
 17 36  1  0  0  0
 17 37  1  0  0  0
 17 38  1  0  0  0
 18 39  1  0  0  0
 18 40  1  0  0  0
 18 41  1  0  0  0
 21 22  2  0  0  0
 21 26  1  0  0  0
 22 23  1  0  0  0
 22 42  1  0  0  0
 23 24  2  0  0  0
 23 43  1  0  0  0
 24 25  1  0  0  0
 24 28  1  0  0  0
 25 26  2  0  0  0
 25 44  1  0  0  0
 26 45  1  0  0  0
 27 46  1  0  0  0
 27 47  1  0  0  0
 27 48  1  0  0  0
M  CHG  1  20  -1
M  END
> <s_m_source_file>
../4gw6_ligand.sdf

> <i_m_source_file_index>
1

> <s_epik_input>
W2NIXTFjKEJyKVtjSF1bY0hdYyhjMTIpbmMoW0NIM10pYyhbQ0BASF0oQyg9TylbT0hdKU9DKFtDSDNdKShbQ0gzXSlbQ0gzXSljMi1jM1tjSF1bY0hdYyhDbClbY0hdW2NIXTM=

> <s_epik_cmdline>
J2VwaWtfYXBwJywgJy1pbWFlJywgJ2xpZ2FuZF9wcm8ubWFlJywgJy1vbWFlJywgJ2xpZ2FuZF9wcmVwLm1hZScsICctbXMnLCAnMScsICctcGgnLCAnNycsICctcGh0JywgJzAuNScsICctbnQn

> <r_lp_tautomer_probability>
1

> <r_epik_Ionization_Penalty>
  0.0028

> <r_epik_Ionization_Penalty_Charging>
  0.0000

> <r_epik_Ionization_Penalty_Neutral>
  0.0028

> <r_epik_State_Penalty>
 -0.0000

> <r_epik_Charging_Adjusted_Penalty>
4.19501592382001e-05

> <i_epik_Tot_Q>
-1

> <i_epik_Tot_abs_Q>
1

$$$$
