4gwi_ligand
                    3D
 Schrodinger Suite 2020-3.
 91 94  0  0  1  0            999 V2000
   -5.2570   -3.5940  -18.9270 C   0  0  1  0  0  0
   -4.3260   -4.1190  -19.8100 O   0  0  0  0  0  0
   -4.8310   -4.1250  -17.5760 C   0  0  2  0  0  0
   -5.2370   -5.4380  -17.5150 O   0  0  0  0  0  0
   -5.5610   -3.3590  -16.4800 C   0  0  1  0  0  0
   -5.0440   -3.6550  -15.2090 O   0  0  0  0  0  0
   -5.4650   -1.8660  -16.6860 C   0  0  1  0  0  0
   -4.1450   -1.4590  -16.5330 O   0  0  0  0  0  0
   -5.9040   -1.5420  -18.0880 C   0  0  2  0  0  0
   -5.1080   -2.2240  -19.0300 O   0  0  0  0  0  0
   -5.7750   -0.0900  -18.3570 C   0  0  0  0  0  0
   -6.3680    0.1140  -19.6030 O   0  0  0  0  0  0
   -4.3730   -6.2610  -16.7320 C   0  0  1  0  0  0
   -5.0400   -7.6040  -16.5000 C   0  0  2  0  0  0
   -5.1710   -8.3720  -17.7790 C   0  0  1  0  0  0
   -3.7840   -8.5640  -18.3550 C   0  0  1  0  0  0
   -3.1940   -7.1840  -18.5510 C   0  0  2  0  0  0
   -1.8120   -7.2400  -19.1590 C   0  0  0  0  0  0
   -6.3260   -7.3860  -15.9430 O   0  0  0  0  0  0
   -5.7540   -9.5820  -17.5100 O   0  0  0  0  0  0
   -3.0320   -9.3390  -17.4600 O   0  0  0  0  0  0
   -3.1310   -6.4820  -17.3440 O   0  0  0  0  0  0
   -4.2180   -4.3300  -23.8990 C   0  0  2  0  0  0
   -3.5850   -3.1260  -23.2060 C   0  0  1  0  0  0
   -3.1810   -3.3580  -21.7830 C   0  0  2  0  0  0
   -4.4480   -3.8040  -21.1770 C   0  0  1  0  0  0
   -4.8140   -5.0710  -21.8470 C   0  0  1  0  0  0
   -5.9780   -5.2590  -20.9570 C   0  0  0  0  0  0
   -2.4030   -1.7900  -24.7840 C   0  0  0  0  0  0
   -3.7380   -1.0550  -24.8510 C   0  0  0  0  0  0
   -2.3930   -2.7820  -23.9290 N   0  0  0  0  0  0
   -4.7380   -3.7370  -25.0670 O   0  0  0  0  0  0
   -2.9190   -2.0800  -21.3630 O   0  0  0  0  0  0
   -5.2610   -4.8720  -23.1600 O   0  0  0  0  0  0
   -6.7780   -6.3030  -21.4430 O   0  0  0  0  0  0
   -1.4200   -1.4450  -25.4330 O   0  0  0  0  0  0
   -1.5650   -1.7620  -21.3050 C   0  0  1  0  0  0
   -1.5070   -0.2560  -21.0730 C   0  0  2  0  0  0
   -2.0540    0.0930  -19.7000 C   0  0  1  0  0  0
   -1.3810   -0.7440  -18.6280 C   0  0  1  0  0  0
   -1.5760   -2.1940  -18.9900 C   0  0  2  0  0  0
   -1.0050   -3.0440  -17.8830 C   0  0  0  0  0  0
   -2.3130    0.4140  -22.0370 O   0  0  0  0  0  0
   -1.8900    1.4630  -19.4290 O   0  0  0  0  0  0
   -0.0070   -0.4650  -18.5800 O   0  0  0  0  0  0
   -0.9140   -2.4140  -20.2130 O   0  0  0  0  0  0
   -6.3048   -3.8125  -19.1809 H   0  0  0  0  0  0
   -3.7394   -4.1138  -17.4404 H   0  0  0  0  0  0
   -6.6081   -3.6950  -16.4558 H   0  0  0  0  0  0
   -5.0189   -4.6959  -14.8542 H   0  0  0  0  0  0
   -6.0363   -1.3115  -15.9270 H   0  0  0  0  0  0
   -3.6316   -1.6074  -15.5715 H   0  0  0  0  0  0
   -6.9404   -1.8809  -18.2331 H   0  0  0  0  0  0
   -6.2927    0.4763  -17.5688 H   0  0  0  0  0  0
   -4.7107    0.1876  -18.3690 H   0  0  0  0  0  0
   -6.4029    1.1243  -20.0367 H   0  0  0  0  0  0
   -4.1474   -5.6825  -15.8240 H   0  0  0  0  0  0
   -4.4709   -8.2057  -15.7761 H   0  0  0  0  0  0
   -5.8611   -7.9040  -18.4964 H   0  0  0  0  0  0
   -3.7511   -9.1468  -19.2873 H   0  0  0  0  0  0
   -3.8760   -6.5985  -19.1851 H   0  0  0  0  0  0
   -1.8519   -7.7911  -20.1101 H   0  0  0  0  0  0
   -1.1274   -7.7522  -18.4669 H   0  0  0  0  0  0
   -1.4505   -6.2174  -19.3426 H   0  0  0  0  0  0
   -6.4292   -6.8350  -14.9965 H   0  0  0  0  0  0
   -6.7679   -9.6217  -17.0852 H   0  0  0  0  0  0
   -3.3463  -10.3663  -17.2236 H   0  0  0  0  0  0
   -3.5722   -5.2014  -24.0823 H   0  0  0  0  0  0
   -4.3125   -2.3010  -23.2113 H   0  0  0  0  0  0
   -2.3246   -4.0047  -21.5417 H   0  0  0  0  0  0
   -5.1828   -2.9880  -21.2424 H   0  0  0  0  0  0
   -4.0537   -5.8515  -21.9978 H   0  0  0  0  0  0
   -5.6286   -5.5074  -19.9440 H   0  0  0  0  0  0
   -6.5681   -4.3312  -20.9241 H   0  0  0  0  0  0
   -4.4617   -1.5478  -24.1851 H   0  0  0  0  0  0
   -4.1166   -1.0759  -25.8836 H   0  0  0  0  0  0
   -3.5983   -0.0114  -24.5327 H   0  0  0  0  0  0
   -1.4668   -3.3525  -23.7657 H   0  0  0  0  0  0
   -4.0612   -3.2512  -25.7853 H   0  0  0  0  0  0
   -7.6950   -6.5886  -20.9068 H   0  0  0  0  0  0
   -1.0978   -2.1503  -22.2220 H   0  0  0  0  0  0
   -0.4744    0.1004  -21.2025 H   0  0  0  0  0  0
   -3.1442   -0.0519  -19.6764 H   0  0  0  0  0  0
   -1.7489   -0.5011  -17.6202 H   0  0  0  0  0  0
   -2.6246   -2.4730  -19.1706 H   0  0  0  0  0  0
   -1.5485   -2.8422  -16.9482 H   0  0  0  0  0  0
    0.0596   -2.8028  -17.7475 H   0  0  0  0  0  0
   -1.1096   -4.1070  -18.1458 H   0  0  0  0  0  0
   -2.0950    0.3023  -23.1094 H   0  0  0  0  0  0
   -2.3182    2.2134  -20.1098 H   0  0  0  0  0  0
    0.3400    0.5485  -18.3304 H   0  0  0  0  0  0
  1  2  1  0  0  0
  1  3  1  0  0  0
  1 10  1  0  0  0
  1 47  1  0  0  0
  2 26  1  0  0  0
  3  4  1  0  0  0
  3  5  1  0  0  0
  3 48  1  0  0  0
  4 13  1  0  0  0
  5  6  1  0  0  0
  5  7  1  0  0  0
  5 49  1  0  0  0
  6 50  1  0  0  0
  7  8  1  0  0  0
  7  9  1  0  0  0
  7 51  1  0  0  0
  8 52  1  0  0  0
  9 10  1  0  0  0
  9 11  1  0  0  0
  9 53  1  0  0  0
 11 12  1  0  0  0
 11 54  1  0  0  0
 11 55  1  0  0  0
 12 56  1  0  0  0
 13 14  1  0  0  0
 13 22  1  0  0  0
 13 57  1  0  0  0
 14 15  1  0  0  0
 14 19  1  0  0  0
 14 58  1  0  0  0
 15 16  1  0  0  0
 15 20  1  0  0  0
 15 59  1  0  0  0
 16 17  1  0  0  0
 16 21  1  0  0  0
 16 60  1  0  0  0
 17 18  1  0  0  0
 17 22  1  0  0  0
 17 61  1  0  0  0
 18 62  1  0  0  0
 18 63  1  0  0  0
 18 64  1  0  0  0
 19 65  1  0  0  0
 20 66  1  0  0  0
 21 67  1  0  0  0
 23 24  1  0  0  0
 23 32  1  0  0  0
 23 34  1  0  0  0
 23 68  1  0  0  0
 24 25  1  0  0  0
 24 31  1  0  0  0
 24 69  1  0  0  0
 25 26  1  0  0  0
 25 33  1  0  0  0
 25 70  1  0  0  0
 26 27  1  0  0  0
 26 71  1  0  0  0
 27 28  1  0  0  0
 27 34  1  0  0  0
 27 72  1  0  0  0
 28 35  1  0  0  0
 28 73  1  0  0  0
 28 74  1  0  0  0
 29 30  1  0  0  0
 29 31  1  0  0  0
 29 36  2  0  0  0
 30 75  1  0  0  0
 30 76  1  0  0  0
 30 77  1  0  0  0
 31 78  1  0  0  0
 32 79  1  0  0  0
 33 37  1  0  0  0
 35 80  1  0  0  0
 37 38  1  0  0  0
 37 46  1  0  0  0
 37 81  1  0  0  0
 38 39  1  0  0  0
 38 43  1  0  0  0
 38 82  1  0  0  0
 39 40  1  0  0  0
 39 44  1  0  0  0
 39 83  1  0  0  0
 40 41  1  0  0  0
 40 45  1  0  0  0
 40 84  1  0  0  0
 41 42  1  0  0  0
 41 46  1  0  0  0
 41 85  1  0  0  0
 42 86  1  0  0  0
 42 87  1  0  0  0
 42 88  1  0  0  0
 43 89  1  0  0  0
 44 90  1  0  0  0
 45 91  1  0  0  0
M  END
> <s_m_source_file>
../4gwi_ligand.sdf

> <i_m_source_file_index>
1

> <s_epik_input>
W0NIM11bQ0BIXShPMSlbQ0BASF0oW09IXSlbQ0BASF0oW09IXSlbQ0BIXShbT0hdKVtDQEBIXTFPW0NASF0oW0NAQEhdKFtPSF0pW0NAQEhdKFtPSF0pW0NASF0oTzIpW0NIMl1bT0hdKVtDQEBIXTJPW0NASF0oW0NASF0oTzMpW0NIMl1bT0hdKVtDQEBIXShbQ0BIXShbQ0BASF0zW09IXSlbTkhdQyg9TylbQ0gzXSlPW0NASF00W0NAQEhdKFtPSF0pW0NASF0oW09IXSlbQ0BIXShbT0hdKVtDQEBIXShPNClbQ0gzXQ==

> <s_epik_cmdline>
J2VwaWtfYXBwJywgJy1pbWFlJywgJ2xpZ2FuZF9wcm8ubWFlJywgJy1vbWFlJywgJ2xpZ2FuZF9wcmVwLm1hZScsICctbXMnLCAnMScsICctcGgnLCAnNycsICctcGh0JywgJzAuNScsICctbnQn

> <r_lp_tautomer_probability>
1

> <r_epik_Ionization_Penalty>
  0.0000

> <r_epik_Ionization_Penalty_Charging>
  0.0000

> <r_epik_Ionization_Penalty_Neutral>
  0.0000

> <r_epik_State_Penalty>
 -0.0000

> <r_epik_Charging_Adjusted_Penalty>
0

> <i_epik_Tot_Q>
0

> <i_epik_Tot_abs_Q>
0

> <s_epik_Chemistry_Notes>
This compound contains an acetal/aminal-like group ( X-CH(R)-Y where X, Y are N, S, or O) that may be acid/base labile, releasing an aldehyde.

$$$$
