4gxl_ligand
                    3D
 Schrodinger Suite 2020-3.
156159  0  0  1  0            999 V2000
   -2.4320   25.5710    4.5280 N   0  3  0  0  0  0
   -2.6260   24.3130    5.2460 C   0  0  2  0  0  0
   -1.4190   23.3880    5.0720 C   0  0  0  0  0  0
   -1.0470   23.0630    3.9470 O   0  0  0  0  0  0
   -3.9150   23.6200    4.7770 C   0  0  0  0  0  0
   -4.4070   22.5600    5.7600 C   0  0  0  0  0  0
   -3.6150   21.7960    6.3180 O   0  0  0  0  0  0
   -5.7240   22.5140    5.9770 N   0  0  0  0  0  0
   -0.7910   22.9840    6.1910 N   0  0  0  0  0  0
    0.3490   22.0590    6.1570 C   0  0  2  0  0  0
   -0.0700   20.6080    5.9030 C   0  0  0  0  0  0
    0.8050   19.7530    5.7450 O   0  0  0  0  0  0
    0.9450   22.1880    7.5610 C   0  0  0  0  0  0
   -0.2060   22.6100    8.4250 C   0  0  0  0  0  0
   -1.0430   23.5050    7.5480 C   0  0  0  0  0  0
   -1.3780   20.3340    5.8770 N   0  0  0  0  0  0
   -1.8720   18.9950    5.5930 C   0  0  0  0  0  0
   -1.3990   17.9410    6.5810 C   0  0  0  0  0  0
   -0.8150   16.9250    6.1940 O   0  0  0  0  0  0
   -1.6580   18.1840    7.8590 N   0  0  0  0  0  0
   -1.2210   17.3010    8.9320 C   0  0  2  0  0  0
   -2.3920   16.4840    9.4450 C   0  0  0  0  0  0
   -3.2820   17.0040   10.1110 O   0  0  0  0  0  0
   -0.6350   18.1210   10.0900 C   0  0  0  0  0  0
    0.5980   18.9670    9.7760 C   0  0  0  0  0  0
    0.9750   19.8370   10.9640 C   0  0  0  0  0  0
    1.7530   18.0690    9.4100 C   0  0  0  0  0  0
   -2.3890   15.1940    9.1510 N   0  0  0  0  0  0
   -3.4830   14.3400    9.5910 C   0  0  2  0  0  0
   -3.5290   14.2840   11.1240 C   0  0  0  0  0  0
   -4.5980   14.1330   11.7210 O   0  0  0  0  0  0
   -3.3340   12.9480    8.9760 C   0  0  0  0  0  0
   -2.3710   14.4440   11.7660 N   0  0  0  0  0  0
   -2.2920   14.3280   13.2260 C   0  0  2  0  0  0
   -2.1680   15.6500   13.9860 C   0  0  0  0  0  0
   -2.0680   15.6550   15.2110 O   0  0  0  0  0  0
   -1.1260   13.4180   13.6090 C   0  0  0  0  0  0
   -1.3440   11.9720   13.2410 C   0  0  0  0  0  0
   -2.2320   11.1790   13.9660 C   0  0  0  0  0  0
   -0.6660   11.3970   12.1760 C   0  0  0  0  0  0
   -2.4330    9.8470   13.6420 C   0  0  0  0  0  0
   -0.8660   10.0710   11.8410 C   0  0  0  0  0  0
   -1.7480    9.3030   12.5800 C   0  0  0  0  0  0
   -1.9460    7.9810   12.2470 O   0  0  0  0  0  0
   -2.1710   16.7660   13.2660 N   0  0  0  0  0  0
   -1.9860   18.0640   13.8860 C   0  0  0  0  0  0
   -0.5470   18.3730   14.2700 C   0  0  0  0  0  0
    0.3770   17.5810   14.0200 O   0  0  0  0  0  0
   -0.3610   19.5360   14.8880 N   0  0  0  0  0  0
    0.9650   20.0260   15.2410 C   0  0  2  0  0  0
    0.9800   20.4320   16.7140 C   0  0  0  0  0  0
    0.4020   21.4540   17.0720 O   0  0  0  0  0  0
    1.3180   21.2220   14.3450 C   0  0  0  0  0  0
    2.7060   21.7930   14.6280 C   0  0  0  0  0  0
    3.4090   21.3480   15.5400 O   0  0  0  0  0  0
    3.1060   22.7840   13.8370 N   0  0  0  0  0  0
    1.6560   19.6400   17.5670 N   0  0  0  0  0  0
    1.7090   19.9040   19.0140 C   0  0  2  0  0  0
    2.5160   21.1500   19.3470 C   0  0  0  0  0  0
    2.5280   21.5770   20.5010 O   0  0  0  0  0  0
    2.4350   18.6790   19.5670 C   0  0  0  0  0  0
    3.3210   18.2260   18.4200 C   0  0  0  0  0  0
    2.5030   18.4930   17.1790 C   0  0  0  0  0  0
    3.1880   21.7260   18.3540 N   0  0  0  0  0  0
    4.0220   22.8960   18.6050 C   0  0  2  0  0  0
    3.3480   24.1950   18.1540 C   0  0  0  0  0  0
    3.9190   25.2770   18.3040 O   0  0  0  0  0  0
    5.3870   22.7250   17.9340 C   0  0  0  0  0  0
    6.0760   21.4200   18.3090 C   0  0  0  0  0  0
    6.5290   20.5450   17.3250 C   0  0  0  0  0  0
    6.2660   21.0670   19.6400 C   0  0  0  0  0  0
    7.1540   19.3550   17.6540 C   0  0  0  0  0  0
    6.8890   19.8730   19.9850 C   0  0  0  0  0  0
    7.3300   19.0250   18.9820 C   0  0  0  0  0  0
    7.9510   17.8360   19.3060 O   0  0  0  0  0  0
    2.1380   24.0960   17.6060 N   0  0  0  0  0  0
    1.4170   25.2990   17.1770 C   0  0  2  0  0  0
    0.6820   25.9280   18.3570 C   0  0  0  0  0  0
    0.1389   25.2036   19.2333 O   0  0  0  0  0  0
    0.4250   24.9900   16.0510 C   0  0  0  0  0  0
   -0.6350   24.1770   16.5280 O   0  0  0  0  0  0
    0.6176   27.1825   18.4560 O   0  0  0  0  0  0
   -1.5062   26.0527    4.8758 H   0  0  0  0  0  0
   -3.2861   26.2375    4.7187 H   0  0  0  0  0  0
   -2.3577   25.3697    3.4491 H   0  0  0  0  0  0
   -2.7132   24.5934    6.3061 H   0  0  0  0  0  0
   -4.7128   24.3685    4.6623 H   0  0  0  0  0  0
   -3.7348   23.1253    3.8112 H   0  0  0  0  0  0
   -6.3920   23.2159    5.4564 H   0  0  0  0  0  0
   -6.1407   21.7742    6.6764 H   0  0  0  0  0  0
    1.0207   22.3359    5.3311 H   0  0  0  0  0  0
    1.3575   21.2177    7.8748 H   0  0  0  0  0  0
    1.7466   22.9413    7.5513 H   0  0  0  0  0  0
   -0.7659   21.7207    8.7500 H   0  0  0  0  0  0
    0.1747   23.1460    9.3069 H   0  0  0  0  0  0
   -0.7286   24.5578    7.6008 H   0  0  0  0  0  0
   -2.1166   23.4311    7.7756 H   0  0  0  0  0  0
   -2.0870   21.1509    6.0771 H   0  0  0  0  0  0
   -2.9717   18.9964    5.6204 H   0  0  0  0  0  0
   -1.5305   18.6821    4.5952 H   0  0  0  0  0  0
   -2.2274   19.0953    8.0942 H   0  0  0  0  0  0
   -0.4608   16.6420    8.4872 H   0  0  0  0  0  0
   -1.3940   18.8253   10.4614 H   0  0  0  0  0  0
   -0.3338   17.4441   10.9031 H   0  0  0  0  0  0
    0.3734   19.6236    8.9225 H   0  0  0  0  0  0
    0.1280   20.4887   11.2247 H   0  0  0  0  0  0
    1.8468   20.4553   10.7037 H   0  0  0  0  0  0
    1.2230   19.1967   11.8233 H   0  0  0  0  0  0
    1.4725   17.4430    8.5501 H   0  0  0  0  0  0
    2.0026   17.4252   10.2663 H   0  0  0  0  0  0
    2.6263   18.6838    9.1467 H   0  0  0  0  0  0
   -1.5566   14.7672    8.5723 H   0  0  0  0  0  0
   -4.4108   14.8004    9.2205 H   0  0  0  0  0  0
   -3.3052   13.0327    7.8796 H   0  0  0  0  0  0
   -4.1887   12.3225    9.2731 H   0  0  0  0  0  0
   -2.4009   12.4875    9.3328 H   0  0  0  0  0  0
   -1.4657   14.6664   11.1821 H   0  0  0  0  0  0
   -3.2725   13.9005   13.4827 H   0  0  0  0  0  0
   -0.2139   13.7544   13.0942 H   0  0  0  0  0  0
   -0.9698   13.4604   14.6970 H   0  0  0  0  0  0
   -2.7780   11.6146   14.8028 H   0  0  0  0  0  0
    0.0336   11.9987   11.5958 H   0  0  0  0  0  0
   -3.1258    9.2371   14.2218 H   0  0  0  0  0  0
   -0.3313    9.6325   10.9985 H   0  0  0  0  0  0
   -2.6461    7.3656   12.8311 H   0  0  0  0  0  0
   -2.3177   16.6919   12.1783 H   0  0  0  0  0  0
   -2.3104   18.8521   13.1905 H   0  0  0  0  0  0
   -2.5844   18.1189   14.8073 H   0  0  0  0  0  0
   -1.2514   20.1339   15.1325 H   0  0  0  0  0  0
    1.6747   19.2022   15.0750 H   0  0  0  0  0  0
    1.2947   20.9096   13.2905 H   0  0  0  0  0  0
    0.5870   22.0283   14.5048 H   0  0  0  0  0  0
    2.4461   23.1491   13.0363 H   0  0  0  0  0  0
    4.0969   23.2388   13.9833 H   0  0  0  0  0  0
    0.6923   20.0709   19.3994 H   0  0  0  0  0  0
    3.0200   18.9682   20.4525 H   0  0  0  0  0  0
    1.6983   17.9123   19.8486 H   0  0  0  0  0  0
    4.2554   18.8064   18.4272 H   0  0  0  0  0  0
    3.5525   17.1569   18.5356 H   0  0  0  0  0  0
    1.8634   17.6404   16.9068 H   0  0  0  0  0  0
    3.1271   18.7729   16.3175 H   0  0  0  0  0  0
    3.1111   21.3133   17.3373 H   0  0  0  0  0  0
    4.1359   22.9295   19.6986 H   0  0  0  0  0  0
    5.2621   22.7344   16.8412 H   0  0  0  0  0  0
    6.0492   23.5503   18.2344 H   0  0  0  0  0  0
    6.3886   20.8024   16.2752 H   0  0  0  0  0  0
    5.9206   21.7378   20.4267 H   0  0  0  0  0  0
    7.5045   18.6836   16.8701 H   0  0  0  0  0  0
    7.0289   19.6070   21.0327 H   0  0  0  0  0  0
    8.3009   17.1632   18.5091 H   0  0  0  0  0  0
    1.6798   23.1045   17.4759 H   0  0  0  0  0  0
    2.1946   25.9816   16.8036 H   0  0  0  0  0  0
    0.0060   25.9302   15.6633 H   0  0  0  0  0  0
    0.9446   24.4583   15.2402 H   0  0  0  0  0  0
   -1.4371   23.8620   15.8443 H   0  0  0  0  0  0
    0.0889   27.6408   19.3048 H   0  0  0  0  0  0
  1  2  1  0  0  0
  1 83  1  0  0  0
  1 84  1  0  0  0
  1 85  1  0  0  0
  2  3  1  0  0  0
  2  5  1  0  0  0
  2 86  1  0  0  0
  3  4  2  0  0  0
  3  9  1  0  0  0
  5  6  1  0  0  0
  5 87  1  0  0  0
  5 88  1  0  0  0
  6  7  2  0  0  0
  6  8  1  0  0  0
  8 89  1  0  0  0
  8 90  1  0  0  0
  9 10  1  0  0  0
  9 15  1  0  0  0
 10 11  1  0  0  0
 10 13  1  0  0  0
 10 91  1  0  0  0
 11 12  2  0  0  0
 11 16  1  0  0  0
 13 14  1  0  0  0
 13 92  1  0  0  0
 13 93  1  0  0  0
 14 15  1  0  0  0
 14 94  1  0  0  0
 14 95  1  0  0  0
 15 96  1  0  0  0
 15 97  1  0  0  0
 16 17  1  0  0  0
 16 98  1  0  0  0
 17 18  1  0  0  0
 17 99  1  0  0  0
 17100  1  0  0  0
 18 19  2  0  0  0
 18 20  1  0  0  0
 20 21  1  0  0  0
 20101  1  0  0  0
 21 22  1  0  0  0
 21 24  1  0  0  0
 21102  1  0  0  0
 22 23  2  0  0  0
 22 28  1  0  0  0
 24 25  1  0  0  0
 24103  1  0  0  0
 24104  1  0  0  0
 25 26  1  0  0  0
 25 27  1  0  0  0
 25105  1  0  0  0
 26106  1  0  0  0
 26107  1  0  0  0
 26108  1  0  0  0
 27109  1  0  0  0
 27110  1  0  0  0
 27111  1  0  0  0
 28 29  1  0  0  0
 28112  1  0  0  0
 29 30  1  0  0  0
 29 32  1  0  0  0
 29113  1  0  0  0
 30 31  2  0  0  0
 30 33  1  0  0  0
 32114  1  0  0  0
 32115  1  0  0  0
 32116  1  0  0  0
 33 34  1  0  0  0
 33117  1  0  0  0
 34 35  1  0  0  0
 34 37  1  0  0  0
 34118  1  0  0  0
 35 36  2  0  0  0
 35 45  1  0  0  0
 37 38  1  0  0  0
 37119  1  0  0  0
 37120  1  0  0  0
 38 39  2  0  0  0
 38 40  1  0  0  0
 39 41  1  0  0  0
 39121  1  0  0  0
 40 42  2  0  0  0
 40122  1  0  0  0
 41 43  2  0  0  0
 41123  1  0  0  0
 42 43  1  0  0  0
 42124  1  0  0  0
 43 44  1  0  0  0
 44125  1  0  0  0
 45 46  1  0  0  0
 45126  1  0  0  0
 46 47  1  0  0  0
 46127  1  0  0  0
 46128  1  0  0  0
 47 48  2  0  0  0
 47 49  1  0  0  0
 49 50  1  0  0  0
 49129  1  0  0  0
 50 51  1  0  0  0
 50 53  1  0  0  0
 50130  1  0  0  0
 51 52  2  0  0  0
 51 57  1  0  0  0
 53 54  1  0  0  0
 53131  1  0  0  0
 53132  1  0  0  0
 54 55  2  0  0  0
 54 56  1  0  0  0
 56133  1  0  0  0
 56134  1  0  0  0
 57 58  1  0  0  0
 57 63  1  0  0  0
 58 59  1  0  0  0
 58 61  1  0  0  0
 58135  1  0  0  0
 59 60  2  0  0  0
 59 64  1  0  0  0
 61 62  1  0  0  0
 61136  1  0  0  0
 61137  1  0  0  0
 62 63  1  0  0  0
 62138  1  0  0  0
 62139  1  0  0  0
 63140  1  0  0  0
 63141  1  0  0  0
 64 65  1  0  0  0
 64142  1  0  0  0
 65 66  1  0  0  0
 65 68  1  0  0  0
 65143  1  0  0  0
 66 67  2  0  0  0
 66 76  1  0  0  0
 68 69  1  0  0  0
 68144  1  0  0  0
 68145  1  0  0  0
 69 70  2  0  0  0
 69 71  1  0  0  0
 70 72  1  0  0  0
 70146  1  0  0  0
 71 73  2  0  0  0
 71147  1  0  0  0
 72 74  2  0  0  0
 72148  1  0  0  0
 73 74  1  0  0  0
 73149  1  0  0  0
 74 75  1  0  0  0
 75150  1  0  0  0
 76 77  1  0  0  0
 76151  1  0  0  0
 77 78  1  0  0  0
 77 80  1  0  0  0
 77152  1  0  0  0
 78 79  2  0  0  0
 78 82  1  0  0  0
 80 81  1  0  0  0
 80153  1  0  0  0
 80154  1  0  0  0
 81155  1  0  0  0
 82156  1  0  0  0
M  CHG  1   1   1
M  END
> <s_m_source_file>
../4gxl_ligand.sdf

> <i_m_source_file_index>
1

> <s_epik_input>
Tz1DKFtOSDJdKVtDSDJdW0NASF0oW05IMytdKUMoPU8pTjFbQ0BASF0oW0NIMl1bQ0gyXVtDSDJdMSlDKD1PKVtOSF1bQ0gyXUMoPU8pW05IXVtDQEBIXShbQ0gyXVtDSF0oW0NIM10pW0NIM10pQyg9TylbTkhdW0NAQEhdKFtDSDNdKUMoPU8pW05IXVtDQEBIXShbQ0gyXWMyW2NIXVtjSF1jKFtPSF0pW2NIXVtjSF0yKUMoPU8pW05IXVtDSDJdQyg9TylbTkhdW0NAQEhdKFtDSDJdQyg9TylbTkgyXSlDKD1PKU4zW0NAQEhdKFtDSDJdW0NIMl1bQ0gyXTMpQyg9TylbTkhdW0NASF0oQyg9TylbTkhdW0NASF0oQyg9TylbT0hdKVtDSDJdW09IXSlbQ0gyXWM0W2NIXVtjSF1jKFtPSF0pW2NIXVtjSF00

> <s_epik_cmdline>
J2VwaWtfYXBwJywgJy1pbWFlJywgJ2xpZ2FuZF9wcm8ubWFlJywgJy1vbWFlJywgJ2xpZ2FuZF9wcmVwLm1hZScsICctbXMnLCAnMScsICctcGgnLCAnNycsICctcGh0JywgJzAuNScsICctbnQn

> <s_epik_pKa_notes>
Molecule size exceeds maximum supported for generating protonation states

$$$$
