4gxs_ligand
                    3D
 Schrodinger Suite 2020-3.
 51 52  0  0  1  0            999 V2000
  -17.7900   12.2760    3.0850 O   0  0  0  0  0  0
  -17.9920   11.3980    2.3030 C   0  0  0  0  0  0
  -17.0530   10.3370    2.1600 O   0  5  0  0  0  0
  -18.9860   11.6930    1.1660 C   0  0  1  0  0  0
  -19.4410   13.0930    1.3370 N   0  0  0  0  0  0
  -20.7480   13.4830    0.8270 C   0  0  0  0  0  0
  -21.1030   14.9830    0.7780 C   0  0  0  0  0  0
  -20.0100   15.9170    0.8460 C   0  0  0  0  0  0
  -20.2510   17.3300    0.7680 C   0  0  0  0  0  0
  -18.8670   18.4710    0.8370 Cl  0  0  0  0  0  0
  -21.6400   17.8350    0.6020 C   0  0  0  0  0  0
  -21.8840   19.2100    0.4790 O   0  5  0  0  0  0
  -22.7290   16.8960    0.5370 C   0  0  0  0  0  0
  -24.3840   17.5470    0.3480 Cl  0  0  0  0  0  0
  -22.5050   15.4700    0.6190 C   0  0  0  0  0  0
  -21.4530   12.6350    0.3960 O   0  0  0  0  0  0
  -18.4000   11.5550   -0.2850 C   0  0  0  0  0  0
  -17.1500   12.4600   -0.6030 C   0  0  1  0  0  0
  -16.1860   12.0460   -1.7060 C   0  0  0  0  0  0
  -15.7320   13.3330   -2.3790 C   0  0  0  0  0  0
  -17.4000   13.9280   -0.8700 N   0  3  0  0  0  0
  -16.7420   14.3190   -2.0900 C   0  0  2  0  0  0
  -17.7140   14.5310   -3.1290 C   0  0  0  0  0  0
  -18.8690   14.3990   -2.8600 O   0  0  0  0  0  0
  -17.3810   15.2560   -4.2950 O   0  5  0  0  0  0
  -16.0170   15.6880   -1.8340 C   0  0  1  0  0  0
  -16.8710   16.7960   -1.7790 O   0  0  0  0  0  0
  -14.9790   15.6910   -0.6810 C   0  0  1  0  0  0
  -13.9280   16.6510   -0.9700 N   0  3  0  0  0  0
  -15.6390   16.0410    0.6800 C   0  0  0  0  0  0
  -16.4440   15.3100    1.1800 O   0  0  0  0  0  0
  -14.9050   16.8750    1.5290 O   0  5  0  0  0  0
  -19.8163   10.9793    1.2715 H   0  0  0  0  0  0
  -18.7938   13.8236    1.8442 H   0  0  0  0  0  0
  -18.9904   15.5482    0.9577 H   0  0  0  0  0  0
  -23.3380   14.7690    0.5661 H   0  0  0  0  0  0
  -18.0808   10.5160   -0.4542 H   0  0  0  0  0  0
  -19.1726   11.8254   -1.0198 H   0  0  0  0  0  0
  -16.6546   12.3223    0.3694 H   0  0  0  0  0  0
  -15.3336   11.5082   -1.2652 H   0  0  0  0  0  0
  -16.7051   11.3887   -2.4191 H   0  0  0  0  0  0
  -14.7565   13.6359   -1.9707 H   0  0  0  0  0  0
  -15.6405   13.1676   -3.4626 H   0  0  0  0  0  0
  -18.4815   14.1041   -0.9667 H   0  0  0  0  0  0
  -17.0045   14.5251   -0.0351 H   0  0  0  0  0  0
  -15.4880   15.9403   -2.7649 H   0  0  0  0  0  0
  -17.6579   16.9220   -2.5372 H   0  0  0  0  0  0
  -14.4917   14.7067   -0.6200 H   0  0  0  0  0  0
  -13.4602   16.4033   -1.9342 H   0  0  0  0  0  0
  -13.1694   16.6147   -0.1743 H   0  0  0  0  0  0
  -14.3586   17.6620   -1.0203 H   0  0  0  0  0  0
  1  2  2  0  0  0
  2  3  1  0  0  0
  2  4  1  0  0  0
  4  5  1  0  0  0
  4 17  1  0  0  0
  4 33  1  0  0  0
  5  6  1  0  0  0
  5 34  1  0  0  0
  6  7  1  0  0  0
  6 16  2  0  0  0
  7  8  2  0  0  0
  7 15  1  0  0  0
  8  9  1  0  0  0
  8 35  1  0  0  0
  9 10  1  0  0  0
  9 11  2  0  0  0
 11 12  1  0  0  0
 11 13  1  0  0  0
 13 14  1  0  0  0
 13 15  2  0  0  0
 15 36  1  0  0  0
 17 18  1  0  0  0
 17 37  1  0  0  0
 17 38  1  0  0  0
 18 19  1  0  0  0
 18 21  1  0  0  0
 18 39  1  0  0  0
 19 20  1  0  0  0
 19 40  1  0  0  0
 19 41  1  0  0  0
 20 22  1  0  0  0
 20 42  1  0  0  0
 20 43  1  0  0  0
 21 22  1  0  0  0
 21 44  1  0  0  0
 21 45  1  0  0  0
 22 23  1  0  0  0
 22 26  1  0  0  0
 23 24  2  0  0  0
 23 25  1  0  0  0
 26 27  1  0  0  0
 26 28  1  0  0  0
 26 46  1  0  0  0
 27 47  1  0  0  0
 28 29  1  0  0  0
 28 30  1  0  0  0
 28 48  1  0  0  0
 29 49  1  0  0  0
 29 50  1  0  0  0
 29 51  1  0  0  0
 30 31  2  0  0  0
 30 32  1  0  0  0
M  CHG  6   3  -1  12  -1  21   1  25  -1  29   1  32  -1
M  END
> <s_m_source_file>
../4gxs_ligand.sdf

> <i_m_source_file_index>
1

> <s_epik_input>
Q2xjKFtjSF0xKWMoW09IXSljKENsKVtjSF1jMUMoPU8pW05IXVtDQEhdKEMoPU8pW09IXSlbQ0gyXVtDQEhdKFtOSDIrXTIpW0NIMl1bQ0gyXVtDQF0yKEMoPU8pW09IXSlbQ0BASF0oW09IXSlbQ0BASF0oW05IMytdKUMoPU8pW09IXQ==

> <s_epik_cmdline>
J2VwaWtfYXBwJywgJy1pbWFlJywgJ2xpZ2FuZF9wcm8ubWFlJywgJy1vbWFlJywgJ2xpZ2FuZF9wcmVwLm1hZScsICctbXMnLCAnMScsICctcGgnLCAnNycsICctcGh0JywgJzAuNScsICctbnQn

> <r_epik_Ionization_Penalty>
  0.0967

> <r_epik_Ionization_Penalty_Charging>
  0.0967

> <r_epik_Ionization_Penalty_Neutral>
  0.0000

> <r_epik_State_Penalty>
  0.0840

> <r_epik_Charging_Adjusted_Penalty>
0.18073296737105

> <i_epik_Tot_Q>
-2

> <i_epik_Tot_abs_Q>
6

$$$$
