4gy5_ligand
                    3D
 Schrodinger Suite 2020-3.
179178  0  0  1  0            999 V2000
   28.1990   31.2740    6.7730 N   0  3  0  0  0  0
   27.5710   32.5880    6.8390 C   0  0  2  0  0  0
   26.5320   32.7600    5.7380 C   0  0  0  0  0  0
   26.7840   32.4400    4.5770 O   0  0  0  0  0  0
   28.6220   33.6810    6.7520 C   0  0  0  0  0  0
   25.3650   33.2690    6.1120 N   0  0  0  0  0  0
   24.2780   33.4760    5.1640 C   0  0  2  0  0  0
   24.0850   34.9520    4.8400 C   0  0  0  0  0  0
   23.7510   35.7480    5.7140 O   0  0  0  0  0  0
   22.9740   32.9000    5.7210 C   0  0  0  0  0  0
   22.8700   31.3870    5.6510 C   0  0  0  0  0  0
   21.8390   30.8770    6.6420 C   0  0  0  0  0  0
   20.6680   31.7470    6.7030 N   0  0  0  0  0  0
   19.9550   31.9600    7.8040 C   0  0  0  0  0  0
   20.2950   31.3660    8.9400 N   0  0  0  0  0  0
   18.9050   32.7690    7.7730 N   0  0  0  0  0  0
   24.3020   35.3120    3.5800 N   0  0  0  0  0  0
   24.0000   36.6570    3.1080 C   0  0  2  0  0  0
   22.6490   36.6360    2.4060 C   0  0  0  0  0  0
   22.1940   35.5810    1.9640 O   0  0  0  0  0  0
   25.0730   37.1770    2.1370 C   0  0  2  0  0  0
   25.1940   36.2770    1.0280 O   0  0  0  0  0  0
   26.4170   37.2920    2.8390 C   0  0  0  0  0  0
   22.0040   37.7940    2.3070 N   0  0  0  0  0  0
   20.6870   37.8620    1.6840 C   0  0  2  0  0  0
   20.7260   37.3650    0.2430 C   0  0  0  0  0  0
   19.7220   36.8880   -0.2830 O   0  0  0  0  0  0
   20.1160   39.2810    1.7430 C   0  0  0  0  0  0
   18.6680   39.3680    1.2820 C   0  0  0  0  0  0
   18.1650   40.8010    1.2490 C   0  0  0  0  0  0
   16.7350   40.8630    0.7330 C   0  0  0  0  0  0
   16.2540   42.2630    0.5780 N   0  3  0  0  0  0
   21.8900   37.4760   -0.3910 N   0  0  0  0  0  0
   22.0610   36.9930   -1.7570 C   0  0  2  0  0  0
   22.1540   35.4730   -1.8110 C   0  0  0  0  0  0
   21.8310   34.8580   -2.8270 O   0  0  0  0  0  0
   23.3000   37.6130   -2.4060 C   0  0  0  0  0  0
   23.0810   39.0110   -2.9520 C   0  0  0  0  0  0
   23.9640   39.3100   -4.1470 C   0  0  0  0  0  0
   25.0140   38.6920   -4.3280 O   0  0  0  0  0  0
   23.5360   40.2510   -4.9780 N   0  0  0  0  0  0
   22.5970   34.8710   -0.7130 N   0  0  0  0  0  0
   22.7500   33.4240   -0.6440 C   0  0  2  0  0  0
   21.4370   32.7430   -0.2680 C   0  0  0  0  0  0
   21.0780   31.7120   -0.8350 O   0  0  0  0  0  0
   23.8350   33.0220    0.3740 C   0  0  2  0  0  0
   25.0790   33.6380    0.0190 O   0  0  0  0  0  0
   24.0110   31.5120    0.4000 C   0  0  0  0  0  0
   20.7220   33.3320    0.6850 N   0  0  0  0  0  0
   19.4850   32.7460    1.1920 C   0  0  2  0  0  0
   18.2940   32.9790    0.2650 C   0  0  0  0  0  0
   17.1640   32.6090    0.5890 O   0  0  0  0  0  0
   19.1820   33.2790    2.5870 C   0  0  0  0  0  0
   18.5520   33.5880   -0.8890 N   0  0  0  0  0  0
   17.4940   33.8890   -1.8530 C   0  0  2  0  0  0
   16.7100   32.6470   -2.2640 C   0  0  0  0  0  0
   15.4820   32.6410   -2.2420 O   0  0  0  0  0  0
   18.0770   34.5690   -3.0950 C   0  0  0  0  0  0
   18.5250   36.0010   -2.8590 C   0  0  0  0  0  0
   17.7440   36.9670   -3.7340 C   0  0  0  0  0  0
   18.3200   37.0960   -5.0690 N   0  0  0  0  0  0
   17.6430   37.5020   -6.1370 C   0  0  0  0  0  0
   16.3560   37.8080   -6.0330 N   0  0  0  0  0  0
   18.2480   37.5930   -7.3130 N   0  0  0  0  0  0
   17.4290   31.5950   -2.6380 N   0  0  0  0  0  0
   16.8140   30.3810   -3.0690 C   0  0  1  0  0  0
   17.7290   29.6470   -4.0350 C   0  0  0  0  0  0
   17.3510   29.6890   -5.5320 C   0  0  0  0  0  0
   18.4770   29.5150   -6.5530 C   0  0  0  0  0  0
   18.2940   30.1740   -7.9230 C   0  0  0  0  0  0
   19.3250   29.8870   -8.9850 N   0  3  0  0  0  0
   16.5170   29.5280   -1.8770 C   0  0  0  0  0  0
   16.8450   28.3470   -1.8670 O   0  0  0  0  0  0
   19.2260   30.5750  -10.2750 C   0  0  0  0  0  0
   20.6320   30.2380   -8.4160 C   0  0  0  0  0  0
   19.2510   28.4650   -9.2670 C   0  0  0  0  0  0
   15.8920   30.1300   -0.8670 N   0  0  0  0  0  0
   15.4970   29.4370    0.3570 C   0  0  2  0  0  0
   16.2920   28.1580    0.6080 C   0  0  0  0  0  0
   17.2880   28.1570    1.3798 O   0  0  0  0  0  0
   13.9980   29.1300    0.3350 C   0  0  0  0  0  0
   13.5800   28.5420    1.5550 O   0  0  0  0  0  0
   15.9476   27.0895    0.0359 O   0  0  0  0  0  0
   27.4256   30.4944    6.8372 H   0  0  0  0  0  0
   28.9033   31.1617    7.6105 H   0  0  0  0  0  0
   28.7419   31.1745    5.8215 H   0  0  0  0  0  0
   27.0713   32.6263    7.8182 H   0  0  0  0  0  0
   29.3630   33.5417    7.5530 H   0  0  0  0  0  0
   28.1398   34.6632    6.8653 H   0  0  0  0  0  0
   29.1243   33.6297    5.7747 H   0  0  0  0  0  0
   25.2303   33.5369    7.1703 H   0  0  0  0  0  0
   24.5935   32.9427    4.2551 H   0  0  0  0  0  0
   22.8737   33.1776    6.7807 H   0  0  0  0  0  0
   22.1227   33.3045    5.1538 H   0  0  0  0  0  0
   22.5688   31.0867    4.6365 H   0  0  0  0  0  0
   23.8465   30.9408    5.8907 H   0  0  0  0  0  0
   21.5072   29.8723    6.3414 H   0  0  0  0  0  0
   22.2868   30.8302    7.6456 H   0  0  0  0  0  0
   20.3271   32.2745    5.7999 H   0  0  0  0  0  0
   21.1654   30.6940    8.9703 H   0  0  0  0  0  0
   19.7066   31.5453    9.8520 H   0  0  0  0  0  0
   18.6194   33.2637    6.8330 H   0  0  0  0  0  0
   24.7200   34.5669    2.8871 H   0  0  0  0  0  0
   23.9820   37.2904    4.0072 H   0  0  0  0  0  0
   24.7806   38.1504    1.7163 H   0  0  0  0  0  0
   24.3204   36.0645    0.3943 H   0  0  0  0  0  0
   26.3278   37.9821    3.6909 H   0  0  0  0  0  0
   27.1678   37.6762    2.1328 H   0  0  0  0  0  0
   26.7275   36.3008    3.2010 H   0  0  0  0  0  0
   22.4738   38.7072    2.7011 H   0  0  0  0  0  0
   20.0641   37.1843    2.2863 H   0  0  0  0  0  0
   20.1562   39.6496    2.7786 H   0  0  0  0  0  0
   20.7098   39.9425    1.0950 H   0  0  0  0  0  0
   18.5803   38.9503    0.2682 H   0  0  0  0  0  0
   18.0289   38.7960    1.9708 H   0  0  0  0  0  0
   18.1930   41.2229    2.2645 H   0  0  0  0  0  0
   18.8065   41.3996    0.5855 H   0  0  0  0  0  0
   16.6780   40.3712   -0.2493 H   0  0  0  0  0  0
   16.0675   40.3485    1.4399 H   0  0  0  0  0  0
   15.2195   42.2560    0.2040 H   0  0  0  0  0  0
   16.8988   42.7952   -0.1369 H   0  0  0  0  0  0
   16.2882   42.7724    1.5523 H   0  0  0  0  0  0
   22.7342   37.9439    0.1367 H   0  0  0  0  0  0
   21.1491   37.3205   -2.2777 H   0  0  0  0  0  0
   24.1086   37.6793   -1.6632 H   0  0  0  0  0  0
   23.6261   36.9848   -3.2480 H   0  0  0  0  0  0
   22.0332   39.1212   -3.2682 H   0  0  0  0  0  0
   23.3074   39.7500   -2.1693 H   0  0  0  0  0  0
   22.5911   40.7762   -4.7745 H   0  0  0  0  0  0
   24.1259   40.5062   -5.8707 H   0  0  0  0  0  0
   22.8508   35.4931    0.1580 H   0  0  0  0  0  0
   23.0439   33.1432   -1.6661 H   0  0  0  0  0  0
   23.5848   33.3895    1.3801 H   0  0  0  0  0  0
   25.1498   34.7334   -0.0518 H   0  0  0  0  0  0
   23.0573   31.0363    0.6723 H   0  0  0  0  0  0
   24.7787   31.2451    1.1412 H   0  0  0  0  0  0
   24.3243   31.1622   -0.5947 H   0  0  0  0  0  0
   21.0857   34.2868    1.0925 H   0  0  0  0  0  0
   19.6903   31.6658    1.2232 H   0  0  0  0  0  0
   20.0480   33.1042    3.2424 H   0  0  0  0  0  0
   18.3025   32.7594    2.9950 H   0  0  0  0  0  0
   18.9768   34.3582    2.5306 H   0  0  0  0  0  0
   19.5930   33.8664   -1.1101 H   0  0  0  0  0  0
   16.8196   34.5681   -1.3108 H   0  0  0  0  0  0
   18.9557   34.0060   -3.4428 H   0  0  0  0  0  0
   17.3179   34.5922   -3.8907 H   0  0  0  0  0  0
   18.3600   36.2678   -1.8047 H   0  0  0  0  0  0
   19.5947   36.0947   -3.0978 H   0  0  0  0  0  0
   16.7096   36.6089   -3.8428 H   0  0  0  0  0  0
   17.7399   37.9631   -3.2674 H   0  0  0  0  0  0
   19.3788   36.8498   -5.2373 H   0  0  0  0  0  0
   15.8500   37.7339   -5.0591 H   0  0  0  0  0  0
   15.7951   38.1358   -6.9207 H   0  0  0  0  0  0
   19.3147   37.3403   -7.4037 H   0  0  0  0  0  0
   18.5256   31.6761   -2.6096 H   0  0  0  0  0  0
   15.8761   30.6647   -3.5688 H   0  0  0  0  0  0
   18.7419   30.0717   -3.9750 H   0  0  0  0  0  0
   17.7624   28.5800   -3.7695 H   0  0  0  0  0  0
   16.6340   28.8843   -5.7518 H   0  0  0  0  0  0
   16.8942   30.6615   -5.7677 H   0  0  0  0  0  0
   19.4080   29.9382   -6.1478 H   0  0  0  0  0  0
   18.6210   28.4445   -6.7612 H   0  0  0  0  0  0
   17.3358   29.8544   -8.3586 H   0  0  0  0  0  0
   18.2973   31.2679   -7.8071 H   0  0  0  0  0  0
   19.2773   31.6622  -10.1156 H   0  0  0  0  0  0
   18.2695   30.3194  -10.7544 H   0  0  0  0  0  0
   20.0569   30.2599  -10.9233 H   0  0  0  0  0  0
   20.6645   31.3182   -8.2110 H   0  0  0  0  0  0
   21.4255   29.9765   -9.1315 H   0  0  0  0  0  0
   20.7853   29.6822   -7.4792 H   0  0  0  0  0  0
   18.2648   28.2263   -9.6917 H   0  0  0  0  0  0
   19.3959   27.8984   -8.3353 H   0  0  0  0  0  0
   20.0362   28.1928   -9.9876 H   0  0  0  0  0  0
   15.6749   31.2017   -0.9868 H   0  0  0  0  0  0
   15.7447   30.1529    1.1546 H   0  0  0  0  0  0
   17.8506   27.2273    1.5504 H   0  0  0  0  0  0
   13.4349   30.0626    0.1827 H   0  0  0  0  0  0
   13.7788   28.4312   -0.4858 H   0  0  0  0  0  0
   12.5260   28.2614    1.6976 H   0  0  0  0  0  0
  1  2  1  0  0  0
  1 84  1  0  0  0
  1 85  1  0  0  0
  1 86  1  0  0  0
  2  3  1  0  0  0
  2  5  1  0  0  0
  2 87  1  0  0  0
  3  4  2  0  0  0
  3  6  1  0  0  0
  5 88  1  0  0  0
  5 89  1  0  0  0
  5 90  1  0  0  0
  6  7  1  0  0  0
  6 91  1  0  0  0
  7  8  1  0  0  0
  7 10  1  0  0  0
  7 92  1  0  0  0
  8  9  2  0  0  0
  8 17  1  0  0  0
 10 11  1  0  0  0
 10 93  1  0  0  0
 10 94  1  0  0  0
 11 12  1  0  0  0
 11 95  1  0  0  0
 11 96  1  0  0  0
 12 13  1  0  0  0
 12 97  1  0  0  0
 12 98  1  0  0  0
 13 14  1  0  0  0
 13 99  1  0  0  0
 14 15  1  0  0  0
 14 16  2  0  0  0
 15100  1  0  0  0
 15101  1  0  0  0
 16102  1  0  0  0
 17 18  1  0  0  0
 17103  1  0  0  0
 18 19  1  0  0  0
 18 21  1  0  0  0
 18104  1  0  0  0
 19 20  2  0  0  0
 19 24  1  0  0  0
 21 22  1  0  0  0
 21 23  1  0  0  0
 21105  1  0  0  0
 22106  1  0  0  0
 23107  1  0  0  0
 23108  1  0  0  0
 23109  1  0  0  0
 24 25  1  0  0  0
 24110  1  0  0  0
 25 26  1  0  0  0
 25 28  1  0  0  0
 25111  1  0  0  0
 26 27  2  0  0  0
 26 33  1  0  0  0
 28 29  1  0  0  0
 28112  1  0  0  0
 28113  1  0  0  0
 29 30  1  0  0  0
 29114  1  0  0  0
 29115  1  0  0  0
 30 31  1  0  0  0
 30116  1  0  0  0
 30117  1  0  0  0
 31 32  1  0  0  0
 31118  1  0  0  0
 31119  1  0  0  0
 32120  1  0  0  0
 32121  1  0  0  0
 32122  1  0  0  0
 33 34  1  0  0  0
 33123  1  0  0  0
 34 35  1  0  0  0
 34 37  1  0  0  0
 34124  1  0  0  0
 35 36  2  0  0  0
 35 42  1  0  0  0
 37 38  1  0  0  0
 37125  1  0  0  0
 37126  1  0  0  0
 38 39  1  0  0  0
 38127  1  0  0  0
 38128  1  0  0  0
 39 40  2  0  0  0
 39 41  1  0  0  0
 41129  1  0  0  0
 41130  1  0  0  0
 42 43  1  0  0  0
 42131  1  0  0  0
 43 44  1  0  0  0
 43 46  1  0  0  0
 43132  1  0  0  0
 44 45  2  0  0  0
 44 49  1  0  0  0
 46 47  1  0  0  0
 46 48  1  0  0  0
 46133  1  0  0  0
 47134  1  0  0  0
 48135  1  0  0  0
 48136  1  0  0  0
 48137  1  0  0  0
 49 50  1  0  0  0
 49138  1  0  0  0
 50 51  1  0  0  0
 50 53  1  0  0  0
 50139  1  0  0  0
 51 52  2  0  0  0
 51 54  1  0  0  0
 53140  1  0  0  0
 53141  1  0  0  0
 53142  1  0  0  0
 54 55  1  0  0  0
 54143  1  0  0  0
 55 56  1  0  0  0
 55 58  1  0  0  0
 55144  1  0  0  0
 56 57  2  0  0  0
 56 65  1  0  0  0
 58 59  1  0  0  0
 58145  1  0  0  0
 58146  1  0  0  0
 59 60  1  0  0  0
 59147  1  0  0  0
 59148  1  0  0  0
 60 61  1  0  0  0
 60149  1  0  0  0
 60150  1  0  0  0
 61 62  1  0  0  0
 61151  1  0  0  0
 62 63  1  0  0  0
 62 64  2  0  0  0
 63152  1  0  0  0
 63153  1  0  0  0
 64154  1  0  0  0
 65 66  1  0  0  0
 65155  1  0  0  0
 66 67  1  0  0  0
 66 72  1  0  0  0
 66156  1  0  0  0
 67 68  1  0  0  0
 67157  1  0  0  0
 67158  1  0  0  0
 68 69  1  0  0  0
 68159  1  0  0  0
 68160  1  0  0  0
 69 70  1  0  0  0
 69161  1  0  0  0
 69162  1  0  0  0
 70 71  1  0  0  0
 70163  1  0  0  0
 70164  1  0  0  0
 71 74  1  0  0  0
 71 75  1  0  0  0
 71 76  1  0  0  0
 72 73  2  0  0  0
 72 77  1  0  0  0
 74165  1  0  0  0
 74166  1  0  0  0
 74167  1  0  0  0
 75168  1  0  0  0
 75169  1  0  0  0
 75170  1  0  0  0
 76171  1  0  0  0
 76172  1  0  0  0
 76173  1  0  0  0
 77 78  1  0  0  0
 77174  1  0  0  0
 78 79  1  0  0  0
 78 81  1  0  0  0
 78175  1  0  0  0
 79 80  1  0  0  0
 79 83  2  0  0  0
 80176  1  0  0  0
 81 82  1  0  0  0
 81177  1  0  0  0
 81178  1  0  0  0
 82179  1  0  0  0
M  CHG  3   1   1  32   1  71   1
M  END
> <s_m_source_file>
../4gy5_ligand.sdf

> <i_m_source_file_index>
1

> <s_epik_input>
W0hdL049QyhbTkgyXSlcW05IXVtDSDJdW0NIMl1bQ0gyXVtDQEhdKFtOSF1DKD1PKVtDQEBIXShbTkgzK10pW0NIM10pQyg9TylbTkhdW0NAQEhdKFtDQEhdKFtPSF0pW0NIM10pQyg9TylbTkhdW0NAQEhdKFtDSDJdW0NIMl1bQ0gyXVtDSDJdW05IMytdKUMoPU8pW05IXVtDQEBIXShbQ0gyXVtDSDJdQyg9TylbTkgyXSlDKD1PKVtOSF1bQ0BASF0oW0NASF0oW09IXSlbQ0gzXSlDKD1PKVtOSF1bQ0BASF0oW0NIM10pQyg9TylbTkhdW0NAQEhdKFtDSDJdW0NIMl1bQ0gyXVtOSF0vQyhbTkgyXSk9TlxbSF0pQyg9TylbTkhdW0NASF0oQyg9TylbTkhdW0NASF0oQyg9TylbT0hdKVtDSDJdW09IXSlbQ0gyXVtDSDJdW0NIMl1bQ0gyXVtOK10oW0NIM10pKFtDSDNdKVtDSDNd

> <s_epik_cmdline>
J2VwaWtfYXBwJywgJy1pbWFlJywgJ2xpZ2FuZF9wcm8ubWFlJywgJy1vbWFlJywgJ2xpZ2FuZF9wcmVwLm1hZScsICctbXMnLCAnMScsICctcGgnLCAnNycsICctcGh0JywgJzAuNScsICctbnQn

> <s_epik_pKa_notes>
Molecule size exceeds maximum supported for generating protonation states

> <s_epik_Chemistry_Notes>
This compound has an imine and may undergo hydrolysis.

$$$$
