4gye_ligand
                    3D
 Schrodinger Suite 2020-3.
130131  0  0  1  0            999 V2000
  -13.3770   12.3090    6.2390 N   0  3  0  0  0  0
  -12.7960   13.5870    6.6510 C   0  0  1  0  0  0
  -12.7930   13.6240    8.1780 C   0  0  0  0  0  0
  -13.8580   12.7570    8.8390 C   0  0  0  0  0  0
  -13.4850   12.3820   10.2710 C   0  0  0  0  0  0
  -13.0150   11.0040   10.3030 N   0  0  0  0  0  0
  -11.8390   10.6690   10.7780 C   0  0  0  0  0  0
  -10.9290   11.7310   11.3340 C   0  0  0  0  0  0
  -11.4930    9.4630   10.7790 N   0  3  0  0  0  0
  -11.3490   13.5090    6.3800 C   0  0  0  0  0  0
  -10.8870   12.5880    7.0100 O   0  0  0  0  0  0
  -10.4800   14.2000    5.6200 N   0  0  0  0  0  0
  -10.2840   15.3140    4.7270 C   0  0  2  0  0  0
  -10.0360   14.9960    3.2530 C   0  0  0  0  0  0
   -9.1260   14.3200    2.7570 O   0  0  0  0  0  0
   -9.1530   16.1260    5.3820 C   0  0  0  0  0  0
   -8.3820   15.4300    6.4920 C   0  0  0  0  0  0
   -8.1370   16.7910    4.4610 C   0  0  0  0  0  0
  -10.9160   15.5300    2.4350 N   0  0  0  0  0  0
  -10.8880   15.3300    0.9900 C   0  0  2  0  0  0
  -10.4690   16.6110    0.2900 C   0  0  0  0  0  0
  -12.2720   14.8840    0.5400 C   0  0  0  0  0  0
  -12.8390   13.8000    1.4680 C   0  0  0  0  0  0
  -12.3770   12.4750    1.4300 C   0  0  0  0  0  0
  -13.8590   14.0990    2.3920 C   0  0  0  0  0  0
  -12.9090   11.4960    2.2860 C   0  0  0  0  0  0
  -14.3820   13.1110    3.2670 C   0  0  0  0  0  0
  -13.9230   11.7850    3.2090 C   0  0  0  0  0  0
   -9.0850   16.9290    0.6320 N   0  3  0  0  0  0
   -8.1380   17.4030   -0.3690 C   0  0  2  0  0  0
   -7.9920   16.4780   -1.5590 C   0  0  0  0  0  0
   -7.9500   15.2480   -1.4950 O   0  0  0  0  0  0
   -6.8450   17.6760    0.3850 C   0  0  0  0  0  0
   -5.6440   17.9270   -0.5010 C   0  0  0  0  0  0
   -5.4540   19.1600   -1.1320 C   0  0  0  0  0  0
   -4.6760   16.9190   -0.6870 C   0  0  0  0  0  0
   -4.3300   19.3280   -1.9580 C   0  0  0  0  0  0
   -3.5480   17.0940   -1.4950 C   0  0  0  0  0  0
   -3.3760   18.3080   -2.1440 C   0  0  0  0  0  0
   -7.8970   17.0370   -2.7490 N   0  0  0  0  0  0
   -7.7260   16.2740   -3.9850 C   0  0  2  0  0  0
   -7.0430   17.1550   -4.9900 C   0  0  0  0  0  0
   -7.4840   18.2780   -5.2170 O   0  0  0  0  0  0
   -9.0900   15.7820   -4.4720 C   0  0  0  0  0  0
   -9.1310   14.9790   -5.7870 C   0  0  0  0  0  0
   -8.8230   15.8590   -6.9950 C   0  0  0  0  0  0
   -8.0360   15.4420   -8.0090 O   0  5  0  0  0  0
   -9.2570   17.0130   -7.0600 O   0  0  0  0  0  0
   -5.9680   16.6730   -5.6080 N   0  0  0  0  0  0
   -5.2010   17.3390   -6.6480 C   0  0  2  0  0  0
   -4.7210   16.2940   -7.6630 C   0  0  0  0  0  0
   -4.7170   15.0920   -7.3730 O   0  0  0  0  0  0
   -4.0020   17.9520   -5.9510 C   0  0  0  0  0  0
   -4.2660   16.6540   -8.8770 N   0  0  0  0  0  0
   -3.7760   15.6340   -9.7800 C   0  0  2  0  0  0
   -2.3230   15.5060   -9.4950 C   0  0  0  0  0  0
   -1.6320   14.3770   -9.7490 O   0  5  0  0  0  0
   -1.7540   16.4700   -9.0170 O   0  0  0  0  0  0
   -3.9340   16.0240  -11.2390 C   0  0  0  0  0  0
   -5.3220   15.6460  -11.7480 C   0  0  0  0  0  0
   -5.2220   15.0740  -13.1660 C   0  0  0  0  0  0
   -6.5770   14.6930  -13.7080 C   0  0  0  0  0  0
  -14.4612   12.3225    6.4242 H   0  0  0  0  0  0
  -12.9165   11.4938    6.8164 H   0  0  0  0  0  0
  -13.1901   12.1500    5.1667 H   0  0  0  0  0  0
  -13.3298   14.3972    6.1326 H   0  0  0  0  0  0
  -11.8201   13.2718    8.5514 H   0  0  0  0  0  0
  -12.9656   14.6551    8.5202 H   0  0  0  0  0  0
  -14.8118   13.3043    8.8654 H   0  0  0  0  0  0
  -13.9840   11.8282    8.2632 H   0  0  0  0  0  0
  -12.6883   13.0504   10.6294 H   0  0  0  0  0  0
  -14.3682   12.4841   10.9187 H   0  0  0  0  0  0
  -13.6546   10.1957    9.9190 H   0  0  0  0  0  0
  -11.4131   12.7143   11.2406 H   0  0  0  0  0  0
   -9.9827   11.7334   10.7731 H   0  0  0  0  0  0
  -10.7261   11.5215   12.3946 H   0  0  0  0  0  0
  -12.1678    8.6969   10.3695 H   0  0  0  0  0  0
   -9.6335   13.5468    5.8785 H   0  0  0  0  0  0
  -11.2568   15.8238    4.6661 H   0  0  0  0  0  0
   -9.7722   16.9217    5.8219 H   0  0  0  0  0  0
   -9.0887   14.9382    7.1766 H   0  0  0  0  0  0
   -7.7892   16.1717    7.0475 H   0  0  0  0  0  0
   -7.7102   14.6765    6.0550 H   0  0  0  0  0  0
   -8.6643   17.3054    3.6440 H   0  0  0  0  0  0
   -7.4672   16.0262    4.0409 H   0  0  0  0  0  0
   -7.5462   17.5214    5.0333 H   0  0  0  0  0  0
  -11.7006   16.1533    2.8889 H   0  0  0  0  0  0
  -10.1421   14.5525    0.7684 H   0  0  0  0  0  0
  -10.5544   16.4787   -0.7987 H   0  0  0  0  0  0
  -11.1226   17.4352    0.6116 H   0  0  0  0  0  0
  -12.9560   15.7454    0.5499 H   0  0  0  0  0  0
  -12.2121   14.4751   -0.4794 H   0  0  0  0  0  0
  -11.5924   12.2010    0.7247 H   0  0  0  0  0  0
  -14.2563   15.1131    2.4363 H   0  0  0  0  0  0
  -12.5205   10.4791    2.2303 H   0  0  0  0  0  0
  -15.1485   13.3847    3.9921 H   0  0  0  0  0  0
  -14.3386   11.0121    3.8556 H   0  0  0  0  0  0
   -9.0684   17.7282    1.3877 H   0  0  0  0  0  0
   -8.5917   16.0325    1.0356 H   0  0  0  0  0  0
   -8.5382   18.3188   -0.8285 H   0  0  0  0  0  0
   -6.9698   18.5686    1.0157 H   0  0  0  0  0  0
   -6.6003   16.8107    1.0186 H   0  0  0  0  0  0
   -6.1635   19.9745   -0.9861 H   0  0  0  0  0  0
   -4.8124   15.9637   -0.1801 H   0  0  0  0  0  0
   -4.1914   20.2791   -2.4721 H   0  0  0  0  0  0
   -2.8186   16.2926   -1.6125 H   0  0  0  0  0  0
   -2.5133   18.4708   -2.7900 H   0  0  0  0  0  0
   -7.9525   18.1351   -2.7837 H   0  0  0  0  0  0
   -7.0821   15.4034   -3.7915 H   0  0  0  0  0  0
   -9.5329   15.1194   -3.7138 H   0  0  0  0  0  0
   -9.7529   16.6440   -4.6379 H   0  0  0  0  0  0
   -8.3847   14.1719   -5.7472 H   0  0  0  0  0  0
  -10.1331   14.5455   -5.9208 H   0  0  0  0  0  0
   -5.6723   15.6714   -5.2625 H   0  0  0  0  0  0
   -5.8282   18.0941   -7.1445 H   0  0  0  0  0  0
   -4.3450   18.7017   -5.2227 H   0  0  0  0  0  0
   -3.3522   18.4347   -6.6958 H   0  0  0  0  0  0
   -3.4391   17.1643   -5.4289 H   0  0  0  0  0  0
   -4.2635   17.7096   -9.1863 H   0  0  0  0  0  0
   -4.3518   14.7170   -9.5862 H   0  0  0  0  0  0
   -3.7991   17.1106  -11.3447 H   0  0  0  0  0  0
   -3.1780   15.5002  -11.8425 H   0  0  0  0  0  0
   -5.7630   14.8892  -11.0826 H   0  0  0  0  0  0
   -5.9632   16.5397  -11.7625 H   0  0  0  0  0  0
   -4.7799   15.8271  -13.8348 H   0  0  0  0  0  0
   -4.5874   14.1756  -13.1551 H   0  0  0  0  0  0
   -6.4646   14.2877  -14.7244 H   0  0  0  0  0  0
   -7.2235   15.5825  -13.7373 H   0  0  0  0  0  0
   -7.0310   13.9309  -13.0575 H   0  0  0  0  0  0
  -10.5148    9.1718   11.1894 H   0  0  0  0  0  0
  1  2  1  0  0  0
  1 63  1  0  0  0
  1 64  1  0  0  0
  1 65  1  0  0  0
  2  3  1  0  0  0
  2 10  1  0  0  0
  2 66  1  0  0  0
  3  4  1  0  0  0
  3 67  1  0  0  0
  3 68  1  0  0  0
  4  5  1  0  0  0
  4 69  1  0  0  0
  4 70  1  0  0  0
  5  6  1  0  0  0
  5 71  1  0  0  0
  5 72  1  0  0  0
  6  7  1  0  0  0
  6 73  1  0  0  0
  7  8  1  0  0  0
  7  9  2  0  0  0
  8 74  1  0  0  0
  8 75  1  0  0  0
  8 76  1  0  0  0
  9 77  1  0  0  0
  9130  1  0  0  0
 10 11  2  0  0  0
 10 12  1  0  0  0
 12 13  1  0  0  0
 12 78  1  0  0  0
 13 14  1  0  0  0
 13 16  1  0  0  0
 13 79  1  0  0  0
 14 15  2  0  0  0
 14 19  1  0  0  0
 16 17  1  0  0  0
 16 18  1  0  0  0
 16 80  1  0  0  0
 17 81  1  0  0  0
 17 82  1  0  0  0
 17 83  1  0  0  0
 18 84  1  0  0  0
 18 85  1  0  0  0
 18 86  1  0  0  0
 19 20  1  0  0  0
 19 87  1  0  0  0
 20 21  1  0  0  0
 20 22  1  0  0  0
 20 88  1  0  0  0
 21 29  1  0  0  0
 21 89  1  0  0  0
 21 90  1  0  0  0
 22 23  1  0  0  0
 22 91  1  0  0  0
 22 92  1  0  0  0
 23 24  2  0  0  0
 23 25  1  0  0  0
 24 26  1  0  0  0
 24 93  1  0  0  0
 25 27  2  0  0  0
 25 94  1  0  0  0
 26 28  2  0  0  0
 26 95  1  0  0  0
 27 28  1  0  0  0
 27 96  1  0  0  0
 28 97  1  0  0  0
 29 30  1  0  0  0
 29 98  1  0  0  0
 29 99  1  0  0  0
 30 31  1  0  0  0
 30 33  1  0  0  0
 30100  1  0  0  0
 31 32  2  0  0  0
 31 40  1  0  0  0
 33 34  1  0  0  0
 33101  1  0  0  0
 33102  1  0  0  0
 34 35  2  0  0  0
 34 36  1  0  0  0
 35 37  1  0  0  0
 35103  1  0  0  0
 36 38  2  0  0  0
 36104  1  0  0  0
 37 39  2  0  0  0
 37105  1  0  0  0
 38 39  1  0  0  0
 38106  1  0  0  0
 39107  1  0  0  0
 40 41  1  0  0  0
 40108  1  0  0  0
 41 42  1  0  0  0
 41 44  1  0  0  0
 41109  1  0  0  0
 42 43  2  0  0  0
 42 49  1  0  0  0
 44 45  1  0  0  0
 44110  1  0  0  0
 44111  1  0  0  0
 45 46  1  0  0  0
 45112  1  0  0  0
 45113  1  0  0  0
 46 47  1  0  0  0
 46 48  2  0  0  0
 49 50  1  0  0  0
 49114  1  0  0  0
 50 51  1  0  0  0
 50 53  1  0  0  0
 50115  1  0  0  0
 51 52  2  0  0  0
 51 54  1  0  0  0
 53116  1  0  0  0
 53117  1  0  0  0
 53118  1  0  0  0
 54 55  1  0  0  0
 54119  1  0  0  0
 55 56  1  0  0  0
 55 59  1  0  0  0
 55120  1  0  0  0
 56 57  1  0  0  0
 56 58  2  0  0  0
 59 60  1  0  0  0
 59121  1  0  0  0
 59122  1  0  0  0
 60 61  1  0  0  0
 60123  1  0  0  0
 60124  1  0  0  0
 61 62  1  0  0  0
 61125  1  0  0  0
 61126  1  0  0  0
 62127  1  0  0  0
 62128  1  0  0  0
 62129  1  0  0  0
M  CHG  5   1   1   9   1  29   1  47  -1  57  -1
M  END
> <s_m_source_file>
../4gye_ligand.sdf

> <i_m_source_file_index>
1

> <s_epik_input>
W0hdXE49QyhbQ0gzXSlcW05IXVtDSDJdW0NIMl1bQ0gyXVtDQEhdKFtOSDMrXSlDKD1PKVtOSF1bQ0BASF0oW0NIXShbQ0gzXSlbQ0gzXSlDKD1PKVtOSF1bQ0BASF0oW0NIMl1jMVtjSF1bY0hdW2NIXVtjSF1bY0hdMSlbQ0gyXVtOSDIrXVtDQEBIXShbQ0gyXWMyW2NIXVtjSF1bY0hdW2NIXVtjSF0yKUMoPU8pW05IXVtDQEBIXShbQ0gyXVtDSDJdQyg9TylbT0hdKUMoPU8pW05IXVtDQEBIXShbQ0gzXSlDKD1PKVtOSF1bQ0BIXShDKD1PKVtPSF0pW0NIMl1bQ0gyXVtDSDJdW0NIM10=

> <s_epik_cmdline>
J2VwaWtfYXBwJywgJy1pbWFlJywgJ2xpZ2FuZF9wcm8ubWFlJywgJy1vbWFlJywgJ2xpZ2FuZF9wcmVwLm1hZScsICctbXMnLCAnMScsICctcGgnLCAnNycsICctcGh0JywgJzAuNScsICctbnQn

> <r_epik_Ionization_Penalty>
  0.5398

> <r_epik_Ionization_Penalty_Charging>
  0.5398

> <r_epik_Ionization_Penalty_Neutral>
  0.0000

> <r_epik_State_Penalty>
  0.4059

> <r_epik_Charging_Adjusted_Penalty>
0.945645045435898

> <i_epik_Tot_Q>
1

> <i_epik_Tot_abs_Q>
5

> <s_epik_Chemistry_Notes>
This compound has an imine and may undergo hydrolysis.

$$$$
