4gz3_ligand
                    3D
 Schrodinger Suite 2020-3.
 36 37  0  0  1  0            999 V2000
  -15.2680   27.6930   14.4530 N   0  0  0  0  0  0
  -14.1350   27.2220   15.0720 C   0  0  0  0  0  0
  -13.5570   27.9670   16.0730 N   0  0  0  0  0  0
  -14.1050   29.1840   16.4430 C   0  0  0  0  0  0
  -15.2410   29.6690   15.8010 C   0  0  0  0  0  0
  -15.8380   28.8860   14.8170 C   0  0  0  0  0  0
  -13.6560   26.1330   14.7330 O   0  0  0  0  0  0
  -13.5770   29.8440   17.3340 O   0  0  0  0  0  0
  -15.8350   26.9120   13.3490 C   0  0  1  0  0  0
  -17.3050   26.5680   13.4620 C   0  0  2  0  0  0
  -17.5280   25.3740   14.1880 O   0  0  0  0  0  0
  -17.6570   26.4320   11.9900 C   0  0  1  0  0  0
  -16.7670   27.4570   11.3060 C   0  0  2  0  0  0
  -15.7190   27.7370   12.1990 O   0  0  0  0  0  0
  -17.3120   25.1560   11.5040 O   0  0  0  0  0  0
  -17.5290   28.7390   10.9970 C   0  0  0  0  0  0
  -18.0120   28.6690    9.6800 O   0  0  0  0  0  0
  -19.2280   29.6030    9.1830 P   0  0  2  0  0  0
  -19.4100   29.4290    7.7300 O   0  0  0  0  0  0
  -19.0060   31.0030    9.5910 O   0  5  0  0  0  0
  -20.4110   28.9260   10.0480 O   0  0  0  0  0  0
  -21.9950   29.0240    9.7840 P   0  0  0  0  0  0
  -22.3730   30.1090    8.8400 O   0  5  0  0  0  0
  -22.4530   27.7350    9.2390 O   0  0  0  0  0  0
  -22.5950   29.2790   11.1110 O   0  5  0  0  0  0
  -12.6556   27.5970   16.5835 H   0  0  0  0  0  0
  -15.6548   30.6426   16.0636 H   0  0  0  0  0  0
  -16.7573   29.2207   14.3364 H   0  0  0  0  0  0
  -15.2535   25.9796   13.2995 H   0  0  0  0  0  0
  -17.9263   27.2524   14.0583 H   0  0  0  0  0  0
  -17.3130   25.3376   15.2662 H   0  0  0  0  0  0
  -18.7349   26.5101   11.7849 H   0  0  0  0  0  0
  -16.3251   27.0642   10.3784 H   0  0  0  0  0  0
  -17.8411   24.2652   11.8735 H   0  0  0  0  0  0
  -18.3698   28.8439   11.6984 H   0  0  0  0  0  0
  -16.8540   29.6012   11.1022 H   0  0  0  0  0  0
  1  2  1  0  0  0
  1  6  1  0  0  0
  1  9  1  0  0  0
  2  3  1  0  0  0
  2  7  2  0  0  0
  3  4  1  0  0  0
  3 26  1  0  0  0
  4  5  1  0  0  0
  4  8  2  0  0  0
  5  6  2  0  0  0
  5 27  1  0  0  0
  6 28  1  0  0  0
  9 10  1  0  0  0
  9 14  1  0  0  0
  9 29  1  0  0  0
 10 11  1  0  0  0
 10 12  1  0  0  0
 10 30  1  0  0  0
 11 31  1  0  0  0
 12 13  1  0  0  0
 12 15  1  0  0  0
 12 32  1  0  0  0
 13 14  1  0  0  0
 13 16  1  0  0  0
 13 33  1  0  0  0
 15 34  1  0  0  0
 16 17  1  0  0  0
 16 35  1  0  0  0
 16 36  1  0  0  0
 17 18  1  0  0  0
 18 19  2  0  0  0
 18 20  1  0  0  0
 18 21  1  0  0  0
 21 22  1  0  0  0
 22 23  1  0  0  0
 22 24  2  0  0  0
 22 25  1  0  0  0
M  CHG  3  20  -1  23  -1  25  -1
M  END
> <s_m_source_file>
../4gz3_ligand.sdf

> <i_m_source_file_index>
1

> <s_epik_input>
W2NIXTFbY0hdYyg9TylbbkhdYyg9TyluMVtDQEhdMltDQEhdKFtPSF0pW0NASF0oW09IXSlbQ0BIXShPMilbQ0gyXU9bUEBdKD1PKShbT0hdKU9QKD1PKShbT0hdKVtPSF0=

> <s_epik_cmdline>
J2VwaWtfYXBwJywgJy1pbWFlJywgJ2xpZ2FuZF9wcm8ubWFlJywgJy1vbWFlJywgJ2xpZ2FuZF9wcmVwLm1hZScsICctbXMnLCAnMScsICctcGgnLCAnNycsICctcGh0JywgJzAuNScsICctbnQn

> <r_lp_tautomer_probability>
0.999537046341301

> <r_epik_Ionization_Penalty>
  0.1061

> <r_epik_Ionization_Penalty_Charging>
  0.1061

> <r_epik_Ionization_Penalty_Neutral>
  0.0000

> <r_epik_State_Penalty>
  0.0923

> <r_epik_Charging_Adjusted_Penalty>
0.198376686346359

> <i_epik_Tot_Q>
-3

> <i_epik_Tot_abs_Q>
3

> <s_epik_Chemistry_Notes>
This compound contains an acetal/aminal-like group ( X-CH(R)-Y where X, Y are N, S, or O) that may be acid/base labile, releasing an aldehyde.

$$$$
