4gzf_ligand
                    3D
 Schrodinger Suite 2020-3.
129129  0  0  1  0            999 V2000
   -4.1960   17.3050   -4.7760 N   0  3  0  0  0  0
   -5.1840   17.5310   -5.8100 C   0  0  1  0  0  0
   -5.1250   16.5710   -6.9860 C   0  0  0  0  0  0
   -3.7600   15.9580   -7.3780 C   0  0  0  0  0  0
   -3.3560   16.3040   -8.8270 C   0  0  0  0  0  0
   -1.8950   16.2970   -9.0130 N   0  0  0  0  0  0
   -1.1450   15.2650   -9.5000 C   0  0  0  0  0  0
    0.3660   15.3140   -9.4420 C   0  0  0  0  0  0
   -1.6260   14.2170  -10.0190 N   0  3  0  0  0  0
   -6.5220   17.5040   -5.1060 C   0  0  0  0  0  0
   -7.2390   18.4880   -5.1870 O   0  0  0  0  0  0
   -6.9030   16.4350   -4.4190 N   0  0  0  0  0  0
   -8.2320   16.2870   -3.8680 C   0  0  2  0  0  0
   -8.1660   15.9890   -2.3490 C   0  0  0  0  0  0
   -8.1440   14.8360   -1.9160 O   0  0  0  0  0  0
   -9.0310   15.2740   -4.7180 C   0  0  0  0  0  0
  -10.4770   15.0140   -4.2170 C   0  0  0  0  0  0
   -9.0980   15.6690   -6.2010 C   0  0  0  0  0  0
   -8.1620   17.0490   -1.5230 N   0  0  0  0  0  0
   -7.9220   17.0350   -0.0790 C   0  0  2  0  0  0
   -9.1890   17.2630    0.7190 C   0  0  0  0  0  0
   -7.0490   18.2040    0.2780 C   0  0  0  0  0  0
   -5.7730   18.1470   -0.5370 C   0  0  0  0  0  0
   -4.9180   19.3880   -0.2940 C   0  0  0  0  0  0
   -4.9460   16.8970   -0.2900 C   0  0  0  0  0  0
  -10.1510   16.2130    0.4390 N   0  3  0  0  0  0
  -11.1210   15.8600    1.4490 C   0  0  2  0  0  0
  -10.4740   15.1410    2.6160 C   0  0  0  0  0  0
   -9.4380   14.5450    2.4870 O   0  0  0  0  0  0
  -12.2480   15.1360    0.7250 C   0  0  0  0  0  0
  -12.7470   13.8920    1.4010 C   0  0  0  0  0  0
  -12.1280   12.6700    1.2060 C   0  0  0  0  0  0
  -13.8840   13.9710    2.2270 C   0  0  0  0  0  0
  -12.6140   11.5180    1.8520 C   0  0  0  0  0  0
  -14.3400   12.8110    2.8930 C   0  0  0  0  0  0
  -13.7290   11.5730    2.7060 C   0  0  0  0  0  0
  -11.0900   15.1170    3.8180 N   0  0  0  0  0  0
  -10.4720   14.5750    5.0380 C   0  0  2  0  0  0
  -11.5550   14.4440    6.0680 C   0  0  0  0  0  0
  -12.3490   15.3410    6.2570 O   0  0  0  0  0  0
   -9.4400   15.6080    5.4910 C   0  0  0  0  0  0
   -8.6900   15.3110    6.7800 C   0  0  0  0  0  0
   -9.6250   15.6050    7.9480 C   0  0  0  0  0  0
  -10.4300   16.6800    7.9070 O   0  5  0  0  0  0
   -9.6930   14.8490    8.9300 O   0  0  0  0  0  0
  -11.6030   13.3200    6.7670 N   0  0  0  0  0  0
  -12.6300   13.0300    7.7250 C   0  0  2  0  0  0
  -12.1960   11.8170    8.5230 C   0  0  0  0  0  0
  -11.1810   11.1770    8.2000 O   0  0  0  0  0  0
  -13.8920   12.7040    6.9190 C   0  0  0  0  0  0
  -13.0060   11.4690    9.5590 N   0  0  0  0  0  0
  -12.7380   10.3980   10.4950 C   0  0  2  0  0  0
  -11.4230   10.7220   11.1380 C   0  0  0  0  0  0
  -10.3000   10.3930   10.5060 O   0  5  0  0  0  0
  -11.3550   11.3270   12.2160 O   0  0  0  0  0  0
  -12.7960    9.0230    9.8110 C   0  0  0  0  0  0
  -13.9820    8.1930   10.3130 C   0  0  0  0  0  0
  -13.8680    6.7050    9.9560 C   0  0  0  0  0  0
  -13.1330    5.9330   11.0390 C   0  0  0  0  0  0
   -3.1904   17.3121   -5.2219 H   0  0  0  0  0  0
   -4.3794   16.3302   -4.3004 H   0  0  0  0  0  0
   -4.2676   18.1010   -4.0202 H   0  0  0  0  0  0
   -4.9500   18.5062   -6.2618 H   0  0  0  0  0  0
   -5.7718   15.7043   -6.7846 H   0  0  0  0  0  0
   -5.4714   17.0836   -7.8955 H   0  0  0  0  0  0
   -2.9788   16.3426   -6.7058 H   0  0  0  0  0  0
   -3.8115   14.8626   -7.2914 H   0  0  0  0  0  0
   -3.7920   15.5652   -9.5155 H   0  0  0  0  0  0
   -3.7284   17.3072   -9.0819 H   0  0  0  0  0  0
   -1.3027   17.1855   -8.7491 H   0  0  0  0  0  0
    0.6846   16.2585   -8.9769 H   0  0  0  0  0  0
    0.7743   15.2513  -10.4615 H   0  0  0  0  0  0
    0.7377   14.4678   -8.8455 H   0  0  0  0  0  0
   -2.7160   14.0951  -10.1028 H   0  0  0  0  0  0
   -6.1566   15.6398   -4.2758 H   0  0  0  0  0  0
   -8.7316   17.2620   -3.9669 H   0  0  0  0  0  0
   -8.4528   14.3443   -4.6111 H   0  0  0  0  0  0
  -10.4514   14.7292   -3.1548 H   0  0  0  0  0  0
  -10.9277   14.2002   -4.8041 H   0  0  0  0  0  0
  -11.0766   15.9284   -4.3371 H   0  0  0  0  0  0
   -8.0815   15.8580   -6.5764 H   0  0  0  0  0  0
   -9.7047   16.5800   -6.3107 H   0  0  0  0  0  0
   -9.5558   14.8518   -6.7778 H   0  0  0  0  0  0
   -8.3655   17.9997   -2.0375 H   0  0  0  0  0  0
   -7.4788   16.0487    0.1230 H   0  0  0  0  0  0
   -8.9517   17.2579    1.7931 H   0  0  0  0  0  0
   -9.6254   18.2347    0.4445 H   0  0  0  0  0  0
   -7.5829   19.1406    0.0593 H   0  0  0  0  0  0
   -6.8026   18.1640    1.3493 H   0  0  0  0  0  0
   -6.0996   18.1084   -1.5867 H   0  0  0  0  0  0
   -5.5213   20.2899   -0.4742 H   0  0  0  0  0  0
   -4.0571   19.3799   -0.9787 H   0  0  0  0  0  0
   -4.5595   19.3883    0.7459 H   0  0  0  0  0  0
   -5.5665   16.0060   -0.4664 H   0  0  0  0  0  0
   -4.5875   16.8941    0.7499 H   0  0  0  0  0  0
   -4.0851   16.8857   -0.9747 H   0  0  0  0  0  0
  -10.7558   16.4936   -0.4359 H   0  0  0  0  0  0
   -9.6181   15.2736    0.2303 H   0  0  0  0  0  0
  -11.5285   16.7664    1.9205 H   0  0  0  0  0  0
  -13.1133   15.8083    0.6285 H   0  0  0  0  0  0
  -11.9059   14.8328   -0.2755 H   0  0  0  0  0  0
  -11.2607   12.5993    0.5496 H   0  0  0  0  0  0
  -14.4081   14.9185    2.3518 H   0  0  0  0  0  0
  -12.1152   10.5630    1.6866 H   0  0  0  0  0  0
  -15.1910   12.8868    3.5699 H   0  0  0  0  0  0
  -14.1025   10.6785    3.2045 H   0  0  0  0  0  0
  -12.1080   15.5322    3.8549 H   0  0  0  0  0  0
  -10.0158   13.5903    4.8586 H   0  0  0  0  0  0
   -8.6668   15.7179    4.7164 H   0  0  0  0  0  0
   -9.9368   16.5760    5.6530 H   0  0  0  0  0  0
   -8.3873   14.2535    6.7927 H   0  0  0  0  0  0
   -7.7959   15.9490    6.8394 H   0  0  0  0  0  0
  -10.8011   12.5901    6.5824 H   0  0  0  0  0  0
  -12.7675   13.8933    8.3927 H   0  0  0  0  0  0
  -14.1987   13.5900    6.3437 H   0  0  0  0  0  0
  -14.7011   12.4146    7.6058 H   0  0  0  0  0  0
  -13.6820   11.8734    6.2290 H   0  0  0  0  0  0
  -13.9220   12.0699    9.6584 H   0  0  0  0  0  0
  -13.5205   10.3822   11.2680 H   0  0  0  0  0  0
  -12.9019    9.1582    8.7245 H   0  0  0  0  0  0
  -11.8698    8.4687   10.0229 H   0  0  0  0  0  0
  -14.0453    8.2693   11.4085 H   0  0  0  0  0  0
  -14.9117    8.5733    9.8646 H   0  0  0  0  0  0
  -14.8749    6.2769    9.8428 H   0  0  0  0  0  0
  -13.3149    6.5959    9.0114 H   0  0  0  0  0  0
  -13.0683    4.8726   10.7536 H   0  0  0  0  0  0
  -13.6794    6.0243   11.9893 H   0  0  0  0  0  0
  -12.1193    6.3433   11.1580 H   0  0  0  0  0  0
   -0.9544   13.4272  -10.3867 H   0  0  0  0  0  0
  1  2  1  0  0  0
  1 60  1  0  0  0
  1 61  1  0  0  0
  1 62  1  0  0  0
  2  3  1  0  0  0
  2 10  1  0  0  0
  2 63  1  0  0  0
  3  4  1  0  0  0
  3 64  1  0  0  0
  3 65  1  0  0  0
  4  5  1  0  0  0
  4 66  1  0  0  0
  4 67  1  0  0  0
  5  6  1  0  0  0
  5 68  1  0  0  0
  5 69  1  0  0  0
  6  7  1  0  0  0
  6 70  1  0  0  0
  7  8  1  0  0  0
  7  9  2  0  0  0
  8 71  1  0  0  0
  8 72  1  0  0  0
  8 73  1  0  0  0
  9 74  1  0  0  0
  9129  1  0  0  0
 10 11  2  0  0  0
 10 12  1  0  0  0
 12 13  1  0  0  0
 12 75  1  0  0  0
 13 14  1  0  0  0
 13 16  1  0  0  0
 13 76  1  0  0  0
 14 15  2  0  0  0
 14 19  1  0  0  0
 16 17  1  0  0  0
 16 18  1  0  0  0
 16 77  1  0  0  0
 17 78  1  0  0  0
 17 79  1  0  0  0
 17 80  1  0  0  0
 18 81  1  0  0  0
 18 82  1  0  0  0
 18 83  1  0  0  0
 19 20  1  0  0  0
 19 84  1  0  0  0
 20 21  1  0  0  0
 20 22  1  0  0  0
 20 85  1  0  0  0
 21 26  1  0  0  0
 21 86  1  0  0  0
 21 87  1  0  0  0
 22 23  1  0  0  0
 22 88  1  0  0  0
 22 89  1  0  0  0
 23 24  1  0  0  0
 23 25  1  0  0  0
 23 90  1  0  0  0
 24 91  1  0  0  0
 24 92  1  0  0  0
 24 93  1  0  0  0
 25 94  1  0  0  0
 25 95  1  0  0  0
 25 96  1  0  0  0
 26 27  1  0  0  0
 26 97  1  0  0  0
 26 98  1  0  0  0
 27 28  1  0  0  0
 27 30  1  0  0  0
 27 99  1  0  0  0
 28 29  2  0  0  0
 28 37  1  0  0  0
 30 31  1  0  0  0
 30100  1  0  0  0
 30101  1  0  0  0
 31 32  2  0  0  0
 31 33  1  0  0  0
 32 34  1  0  0  0
 32102  1  0  0  0
 33 35  2  0  0  0
 33103  1  0  0  0
 34 36  2  0  0  0
 34104  1  0  0  0
 35 36  1  0  0  0
 35105  1  0  0  0
 36106  1  0  0  0
 37 38  1  0  0  0
 37107  1  0  0  0
 38 39  1  0  0  0
 38 41  1  0  0  0
 38108  1  0  0  0
 39 40  2  0  0  0
 39 46  1  0  0  0
 41 42  1  0  0  0
 41109  1  0  0  0
 41110  1  0  0  0
 42 43  1  0  0  0
 42111  1  0  0  0
 42112  1  0  0  0
 43 44  1  0  0  0
 43 45  2  0  0  0
 46 47  1  0  0  0
 46113  1  0  0  0
 47 48  1  0  0  0
 47 50  1  0  0  0
 47114  1  0  0  0
 48 49  2  0  0  0
 48 51  1  0  0  0
 50115  1  0  0  0
 50116  1  0  0  0
 50117  1  0  0  0
 51 52  1  0  0  0
 51118  1  0  0  0
 52 53  1  0  0  0
 52 56  1  0  0  0
 52119  1  0  0  0
 53 54  1  0  0  0
 53 55  2  0  0  0
 56 57  1  0  0  0
 56120  1  0  0  0
 56121  1  0  0  0
 57 58  1  0  0  0
 57122  1  0  0  0
 57123  1  0  0  0
 58 59  1  0  0  0
 58124  1  0  0  0
 58125  1  0  0  0
 59126  1  0  0  0
 59127  1  0  0  0
 59128  1  0  0  0
M  CHG  5   1   1   9   1  26   1  44  -1  54  -1
M  END
> <s_m_source_file>
../4gzf_ligand.sdf

> <i_m_source_file_index>
1

> <s_epik_input>
W0hdXE49QyhbQ0gzXSlcW05IXVtDSDJdW0NIMl1bQ0gyXVtDQEhdKFtOSDMrXSlDKD1PKVtOSF1bQ0BASF0oW0NIXShbQ0gzXSlbQ0gzXSlDKD1PKVtOSF1bQ0BASF0oW0NIMl1bQ0hdKFtDSDNdKVtDSDNdKVtDSDJdW05IMitdW0NAQEhdKFtDSDJdYzFbY0hdW2NIXVtjSF1bY0hdW2NIXTEpQyg9TylbTkhdW0NAQEhdKFtDSDJdW0NIMl1DKD1PKVtPSF0pQyg9TylbTkhdW0NAQEhdKFtDSDNdKUMoPU8pW05IXVtDQEhdKEMoPU8pW09IXSlbQ0gyXVtDSDJdW0NIMl1bQ0gzXQ==

> <s_epik_cmdline>
J2VwaWtfYXBwJywgJy1pbWFlJywgJ2xpZ2FuZF9wcm8ubWFlJywgJy1vbWFlJywgJ2xpZ2FuZF9wcmVwLm1hZScsICctbXMnLCAnMScsICctcGgnLCAnNycsICctcGh0JywgJzAuNScsICctbnQn

> <r_epik_Ionization_Penalty>
  0.4444

> <r_epik_Ionization_Penalty_Charging>
  0.4444

> <r_epik_Ionization_Penalty_Neutral>
  0.0000

> <r_epik_State_Penalty>
  0.3048

> <r_epik_Charging_Adjusted_Penalty>
0.749264666138363

> <i_epik_Tot_Q>
1

> <i_epik_Tot_abs_Q>
5

> <s_epik_Chemistry_Notes>
This compound has an imine and may undergo hydrolysis.

$$$$
