4gzp_ligand
                    3D
 Schrodinger Suite 2020-3.
 44 44  0  0  1  0            999 V2000
   24.2680   -5.8850   12.7270 C   0  0  0  0  0  0
   23.0010   -5.6930   12.7970 O   0  5  0  0  0  0
   25.1050   -5.0540   12.3450 O   0  0  0  0  0  0
   24.8930   -7.1060   13.1720 C   0  0  0  0  0  0
   26.4160   -7.2310   13.0840 C   0  0  0  0  0  0
   26.8920   -8.0330   14.3250 C   0  0  1  0  0  0
   26.1200   -9.3260   14.3940 C   0  0  1  0  0  0
   26.7090  -10.2540   15.3540 N   0  0  0  0  0  0
   26.9190  -11.5210   14.9690 C   0  0  0  0  0  0
   26.5570  -11.9550   13.8750 O   0  0  0  0  0  0
   27.5900  -12.4100   15.9290 C   0  0  0  0  0  0
   24.6830   -9.0240   14.7390 C   0  0  1  0  0  0
   24.1240   -8.0540   13.7260 C   0  0  0  0  0  0
   23.9780  -10.2690   14.5770 O   0  0  0  0  0  0
   22.9180  -10.5040   15.5450 C   0  0  0  0  0  0
   21.8350   -9.4500   15.3290 C   0  0  0  0  0  0
   22.2580  -11.8710   15.3000 C   0  0  0  0  0  0
   23.3020  -12.9710   15.1950 C   0  0  0  0  0  0
   21.1140   -9.0960   16.6150 C   0  0  0  0  0  0
   28.2520   -8.4820   14.1850 N   0  3  0  0  0  0
   26.6876   -7.7592   12.1581 H   0  0  0  0  0  0
   26.8666   -6.2275   13.0793 H   0  0  0  0  0  0
   26.8159   -7.3939   15.2170 H   0  0  0  0  0  0
   26.1794   -9.8476   13.4274 H   0  0  0  0  0  0
   26.9691   -9.9078   16.3652 H   0  0  0  0  0  0
   27.8356  -11.8462   16.8410 H   0  0  0  0  0  0
   28.5145  -12.8028   15.4806 H   0  0  0  0  0  0
   26.9219  -13.2460   16.1834 H   0  0  0  0  0  0
   24.5666   -8.6358   15.7616 H   0  0  0  0  0  0
   23.0638   -8.1361   13.4446 H   0  0  0  0  0  0
   23.3918  -10.4499   16.5363 H   0  0  0  0  0  0
   22.2911   -8.5321   14.9298 H   0  0  0  0  0  0
   21.0905   -9.8303   14.6141 H   0  0  0  0  0  0
   21.5814  -12.1063   16.1347 H   0  0  0  0  0  0
   21.6851  -11.8386   14.3615 H   0  0  0  0  0  0
   22.8023  -13.9352   15.0202 H   0  0  0  0  0  0
   23.8777  -13.0207   16.1310 H   0  0  0  0  0  0
   23.9814  -12.7530   14.3578 H   0  0  0  0  0  0
   20.3464   -8.3358   16.4077 H   0  0  0  0  0  0
   21.8365   -8.6985   17.3430 H   0  0  0  0  0  0
   20.6360   -9.9969   17.0273 H   0  0  0  0  0  0
   28.9211   -7.6111   14.1235 H   0  0  0  0  0  0
   28.3472   -9.0830   13.2686 H   0  0  0  0  0  0
   28.5272   -9.0951   15.0559 H   0  0  0  0  0  0
  1  2  1  0  0  0
  1  3  2  0  0  0
  1  4  1  0  0  0
  4  5  1  0  0  0
  4 13  2  0  0  0
  5  6  1  0  0  0
  5 21  1  0  0  0
  5 22  1  0  0  0
  6  7  1  0  0  0
  6 20  1  0  0  0
  6 23  1  0  0  0
  7  8  1  0  0  0
  7 12  1  0  0  0
  7 24  1  0  0  0
  8  9  1  0  0  0
  8 25  1  0  0  0
  9 10  2  0  0  0
  9 11  1  0  0  0
 11 26  1  0  0  0
 11 27  1  0  0  0
 11 28  1  0  0  0
 12 13  1  0  0  0
 12 14  1  0  0  0
 12 29  1  0  0  0
 13 30  1  0  0  0
 14 15  1  0  0  0
 15 16  1  0  0  0
 15 17  1  0  0  0
 15 31  1  0  0  0
 16 19  1  0  0  0
 16 32  1  0  0  0
 16 33  1  0  0  0
 17 18  1  0  0  0
 17 34  1  0  0  0
 17 35  1  0  0  0
 18 36  1  0  0  0
 18 37  1  0  0  0
 18 38  1  0  0  0
 19 39  1  0  0  0
 19 40  1  0  0  0
 19 41  1  0  0  0
 20 42  1  0  0  0
 20 43  1  0  0  0
 20 44  1  0  0  0
M  CHG  2   2  -1  20   1
M  END
> <s_m_source_file>
../4gzp_ligand.sdf

> <i_m_source_file_index>
1

> <s_epik_input>
W09IXUMoPU8pQzE9W0NIXVtDQEhdKFtDQEBIXShbQ0BIXShbQ0gyXTEpW05IMytdKVtOSF1DKD1PKVtDSDNdKU9bQ0hdKFtDSDJdW0NIM10pW0NIMl1bQ0gzXQ==

> <s_epik_cmdline>
J2VwaWtfYXBwJywgJy1pbWFlJywgJ2xpZ2FuZF9wcm8ubWFlJywgJy1vbWFlJywgJ2xpZ2FuZF9wcmVwLm1hZScsICctbXMnLCAnMScsICctcGgnLCAnNycsICctcGh0JywgJzAuNScsICctbnQn

> <r_lp_tautomer_probability>
1

> <r_epik_Ionization_Penalty>
  0.0028

> <r_epik_Ionization_Penalty_Charging>
  0.0028

> <r_epik_Ionization_Penalty_Neutral>
  0.0000

> <r_epik_State_Penalty>
 -0.0000

> <r_epik_Charging_Adjusted_Penalty>
0.00284468522204639

> <i_epik_Tot_Q>
0

> <i_epik_Tot_abs_Q>
2

$$$$
