4gzx_ligand
                    3D
 Schrodinger Suite 2020-3.
 60 61  0  0  1  0            999 V2000
   10.0520   85.3280   29.7040 C   0  0  0  0  0  0
    9.8930   84.7280   31.0980 C   0  0  1  0  0  0
   10.5620   83.3360   31.0910 C   0  0  0  0  0  0
   11.4180   82.9230   32.2880 C   0  0  1  0  0  0
   11.2880   83.8750   33.4560 C   0  0  2  0  0  0
   11.4560   85.3060   32.9600 C   0  0  2  0  0  0
   11.5320   86.3500   34.1070 C   0  0  1  0  0  0
   12.2070   87.6300   33.5980 C   0  0  1  0  0  0
   11.8740   88.8970   34.3860 C   0  0  0  0  0  0
   11.9980   82.9990   35.6410 C   0  0  0  0  0  0
   13.2050   82.7170   36.4980 C   0  0  0  0  0  0
   12.2930   83.5280   34.4490 N   0  0  0  0  0  0
    9.9020   84.5700   28.7170 O   0  0  0  0  0  0
   10.3190   86.5490   29.5740 O   0  5  0  0  0  0
   11.0170   81.6390   32.7660 O   0  0  0  0  0  0
   10.3840   85.6670   32.0850 O   0  0  0  0  0  0
   10.2000   86.5560   34.6140 O   0  0  0  0  0  0
   13.6200   87.4280   33.6470 O   0  0  0  0  0  0
   12.3420   88.7980   35.7310 O   0  0  0  0  0  0
   10.8530   82.7530   36.0170 O   0  0  0  0  0  0
    4.7880   85.3710   33.2510 C   0  0  2  0  0  0
    3.8210   86.2910   32.4850 C   0  0  1  0  0  0
    4.0040   86.1640   30.9630 C   0  0  2  0  0  0
    4.7390   84.8810   30.5370 C   0  0  2  0  0  0
    6.0120   84.5840   31.3690 C   0  0  1  0  0  0
    7.3170   84.8580   30.5950 C   0  0  0  0  0  0
    5.0020   85.8500   34.5640 O   0  0  0  0  0  0
    2.4680   86.0550   32.8470 O   0  0  0  0  0  0
    4.7020   87.3010   30.4870 O   0  0  0  0  0  0
    5.0210   84.9320   29.1440 O   0  0  0  0  0  0
    6.0310   85.3380   32.5710 O   0  0  0  0  0  0
    8.4760   84.6330   31.4130 O   0  0  0  0  0  0
    9.7879   82.5575   31.0220 H   0  0  0  0  0  0
   11.2381   83.2584   30.2268 H   0  0  0  0  0  0
   12.4629   82.8620   31.9497 H   0  0  0  0  0  0
   10.3140   83.7763   33.9576 H   0  0  0  0  0  0
   12.3740   85.3265   32.3543 H   0  0  0  0  0  0
   12.0948   86.0107   34.9891 H   0  0  0  0  0  0
   11.8937   87.7963   32.5568 H   0  0  0  0  0  0
   12.3541   89.7633   33.9074 H   0  0  0  0  0  0
   10.7839   89.0438   34.4008 H   0  0  0  0  0  0
   14.1157   83.0165   35.9586 H   0  0  0  0  0  0
   13.2502   81.6417   36.7252 H   0  0  0  0  0  0
   13.1301   83.2870   37.4358 H   0  0  0  0  0  0
   13.3586   83.6985   34.2359 H   0  0  0  0  0  0
   11.0270   80.7723   32.0887 H   0  0  0  0  0  0
    9.6226   85.7052   35.0049 H   0  0  0  0  0  0
   14.0699   86.5631   33.1376 H   0  0  0  0  0  0
   12.1809   89.6302   36.4321 H   0  0  0  0  0  0
    4.4181   84.3399   33.3514 H   0  0  0  0  0  0
    3.9855   87.3307   32.8043 H   0  0  0  0  0  0
    3.0187   86.1790   30.4743 H   0  0  0  0  0  0
    4.0602   84.0226   30.6487 H   0  0  0  0  0  0
    5.9715   83.5325   31.6896 H   0  0  0  0  0  0
    7.3733   84.1898   29.7230 H   0  0  0  0  0  0
    7.3297   85.9045   30.2564 H   0  0  0  0  0  0
    4.1543   85.9505   35.2578 H   0  0  0  0  0  0
    2.1640   86.1071   33.9029 H   0  0  0  0  0  0
    4.3188   88.3101   30.6988 H   0  0  0  0  0  0
    4.2125   85.1347   28.4262 H   0  0  0  0  0  0
  1  2  1  0  0  0
  1 13  2  0  0  0
  1 14  1  0  0  0
  2  3  1  0  0  0
  2 16  1  0  0  0
  2 32  1  0  0  0
  3  4  1  0  0  0
  3 33  1  0  0  0
  3 34  1  0  0  0
  4  5  1  0  0  0
  4 15  1  0  0  0
  4 35  1  0  0  0
  5  6  1  0  0  0
  5 12  1  0  0  0
  5 36  1  0  0  0
  6  7  1  0  0  0
  6 16  1  0  0  0
  6 37  1  0  0  0
  7  8  1  0  0  0
  7 17  1  0  0  0
  7 38  1  0  0  0
  8  9  1  0  0  0
  8 18  1  0  0  0
  8 39  1  0  0  0
  9 19  1  0  0  0
  9 40  1  0  0  0
  9 41  1  0  0  0
 10 11  1  0  0  0
 10 12  1  0  0  0
 10 20  2  0  0  0
 11 42  1  0  0  0
 11 43  1  0  0  0
 11 44  1  0  0  0
 12 45  1  0  0  0
 15 46  1  0  0  0
 17 47  1  0  0  0
 18 48  1  0  0  0
 19 49  1  0  0  0
 21 22  1  0  0  0
 21 27  1  0  0  0
 21 31  1  0  0  0
 21 50  1  0  0  0
 22 23  1  0  0  0
 22 28  1  0  0  0
 22 51  1  0  0  0
 23 24  1  0  0  0
 23 29  1  0  0  0
 23 52  1  0  0  0
 24 25  1  0  0  0
 24 30  1  0  0  0
 24 53  1  0  0  0
 25 26  1  0  0  0
 25 31  1  0  0  0
 25 54  1  0  0  0
 26 32  1  0  0  0
 26 55  1  0  0  0
 26 56  1  0  0  0
 27 57  1  0  0  0
 28 58  1  0  0  0
 29 59  1  0  0  0
 30 60  1  0  0  0
M  CHG  1  14  -1
M  END
> <s_m_source_file>
../4gzx_ligand.sdf

> <i_m_source_file_index>
1

> <s_epik_input>
W09IXVtDQEhdMVtDQEhdKFtPSF0pW0NAQEhdKFtPSF0pW0NAQEhdKFtPSF0pW0NASF0oTzEpW0NIMl1PW0NAXTIoQyg9TylbT0hdKVtDSDJdW0NASF0oW09IXSlbQ0BASF0oW05IXUMoPU8pW0NIM10pW0NAQEhdKE8yKVtDQEhdKFtPSF0pW0NASF0oW09IXSlbQ0gyXVtPSF0=

> <s_epik_cmdline>
J2VwaWtfYXBwJywgJy1pbWFlJywgJ2xpZ2FuZF9wcm8ubWFlJywgJy1vbWFlJywgJ2xpZ2FuZF9wcmVwLm1hZScsICctbXMnLCAnMScsICctcGgnLCAnNycsICctcGh0JywgJzAuNScsICctbnQn

> <r_lp_tautomer_probability>
1

> <r_epik_Ionization_Penalty>
  0.0000

> <r_epik_Ionization_Penalty_Charging>
  0.0000

> <r_epik_Ionization_Penalty_Neutral>
  0.0000

> <r_epik_State_Penalty>
 -0.0000

> <r_epik_Charging_Adjusted_Penalty>
3.56892623120892e-05

> <i_epik_Tot_Q>
-1

> <i_epik_Tot_abs_Q>
1

> <s_epik_Chemistry_Notes>
This compound contains an acetal/aminal-like group ( X-CH(R)-Y where X, Y are N, S, or O) that may be acid/base labile, releasing an aldehyde.

$$$$
