4h1j_ligand
                    3D
 Schrodinger Suite 2020-3.
 63 66  0  0  1  0            999 V2000
   -9.4640    0.9050   17.0560 C   0  0  0  0  0  0
   -0.1920   -7.4860   11.7500 C   0  0  0  0  0  0
   -7.4180    2.3900    8.0780 C   0  0  0  0  0  0
   -4.9570    1.9950    7.8880 C   0  0  0  0  0  0
   -5.8120    3.7630    9.4080 C   0  0  0  0  0  0
    0.9480  -10.5010    7.7840 C   0  0  0  0  0  0
   -7.5360    0.1640   15.6210 C   0  0  0  0  0  0
   -9.3820    1.3300   14.5790 C   0  0  0  0  0  0
   -6.8730    0.0930   14.3920 C   0  0  0  0  0  0
   -8.7470    1.2270   13.3460 C   0  0  0  0  0  0
   -2.3060   -8.7890    8.2250 C   0  0  0  0  0  0
   -2.9340   -7.8970    9.0800 C   0  0  0  0  0  0
   -0.3630   -8.7860    9.6590 C   0  0  0  0  0  0
   -3.8690   -5.4380   10.7500 C   0  0  0  0  0  0
   -5.9210    0.0370   10.0700 C   0  0  0  0  0  0
   -8.7710    0.7980   15.7150 C   0  0  0  0  0  0
   -0.9840   -7.9080   10.5380 C   0  0  0  0  0  0
   -7.4850    0.6130   13.2460 C   0  0  0  0  0  0
   -1.0140   -9.2380    8.4990 C   0  0  0  0  0  0
   -2.2870   -7.4430   10.2410 C   0  0  0  0  0  0
   -3.0530   -6.5310   11.1350 C   0  0  0  0  0  0
   -6.2760    1.3910   10.0010 C   0  0  0  0  0  0
   -4.3900   -4.9100   11.8920 C   0  0  0  0  0  0
   -6.2990   -0.4470   11.3010 C   0  0  0  0  0  0
   -5.2340   -2.6570   11.4270 C   0  0  0  0  0  0
   -6.0970    2.3650    8.8530 C   0  0  0  0  0  0
   -3.9400   -5.6460   12.9360 N   0  0  0  0  0  0
   -3.1300   -6.6560   12.4360 N   0  0  0  0  0  0
   -6.8510    1.7060   11.1360 N   0  0  0  0  0  0
   -5.2730   -3.8470   12.0580 N   0  0  0  0  0  0
   -6.1630   -1.7520   11.8010 N   0  0  0  0  0  0
   -6.8700    0.5960   11.9850 N   0  0  0  0  0  0
   -4.4050   -2.4250   10.5670 O   0  0  0  0  0  0
   -0.4230  -10.1010    7.6150 O   0  0  0  0  0  0
   -8.8397    0.4345   17.8299 H   0  0  0  0  0  0
  -10.4365    0.3932   17.0080 H   0  0  0  0  0  0
   -9.6195    1.9652   17.3048 H   0  0  0  0  0  0
    0.7851   -7.9912   11.7436 H   0  0  0  0  0  0
   -0.7418   -7.7625   12.6617 H   0  0  0  0  0  0
   -0.0416   -6.3965   11.7286 H   0  0  0  0  0  0
   -7.3334    3.0874    7.2315 H   0  0  0  0  0  0
   -8.2282    2.7196    8.7450 H   0  0  0  0  0  0
   -7.6410    1.3810    7.7009 H   0  0  0  0  0  0
   -4.8945    2.7479    7.0885 H   0  0  0  0  0  0
   -5.1562    1.0073    7.4467 H   0  0  0  0  0  0
   -4.0054    1.9653    8.4390 H   0  0  0  0  0  0
   -5.6823    4.4690    8.5745 H   0  0  0  0  0  0
   -4.8936    3.7371   10.0129 H   0  0  0  0  0  0
   -6.6553    4.0874   10.0354 H   0  0  0  0  0  0
    1.2307  -11.1918    6.9760 H   0  0  0  0  0  0
    1.0660  -11.0045    8.7549 H   0  0  0  0  0  0
    1.5959   -9.6127    7.7504 H   0  0  0  0  0  0
   -7.0838   -0.2788   16.5084 H   0  0  0  0  0  0
  -10.3509    1.8232   14.6574 H   0  0  0  0  0  0
   -5.8858   -0.3645   14.3270 H   0  0  0  0  0  0
   -9.2293    1.6239   12.4527 H   0  0  0  0  0  0
   -2.8246   -9.1416    7.3335 H   0  0  0  0  0  0
   -3.9393   -7.5446    8.8492 H   0  0  0  0  0  0
    0.6486   -9.1309    9.8732 H   0  0  0  0  0  0
   -4.0459   -5.0869    9.7334 H   0  0  0  0  0  0
   -5.4295   -0.5348    9.2829 H   0  0  0  0  0  0
   -6.8550   -2.1202   12.5727 H   0  0  0  0  0  0
   -4.2385   -5.3851   13.9621 H   0  0  0  0  0  0
  1 16  1  0  0  0
  1 35  1  0  0  0
  1 36  1  0  0  0
  1 37  1  0  0  0
  2 17  1  0  0  0
  2 38  1  0  0  0
  2 39  1  0  0  0
  2 40  1  0  0  0
  3 26  1  0  0  0
  3 41  1  0  0  0
  3 42  1  0  0  0
  3 43  1  0  0  0
  4 26  1  0  0  0
  4 44  1  0  0  0
  4 45  1  0  0  0
  4 46  1  0  0  0
  5 26  1  0  0  0
  5 47  1  0  0  0
  5 48  1  0  0  0
  5 49  1  0  0  0
  6 34  1  0  0  0
  6 50  1  0  0  0
  6 51  1  0  0  0
  6 52  1  0  0  0
  7  9  2  0  0  0
  7 16  1  0  0  0
  7 53  1  0  0  0
  8 10  1  0  0  0
  8 16  2  0  0  0
  8 54  1  0  0  0
  9 18  1  0  0  0
  9 55  1  0  0  0
 10 18  2  0  0  0
 10 56  1  0  0  0
 11 12  2  0  0  0
 11 19  1  0  0  0
 11 57  1  0  0  0
 12 20  1  0  0  0
 12 58  1  0  0  0
 13 17  1  0  0  0
 13 19  2  0  0  0
 13 59  1  0  0  0
 14 21  2  0  0  0
 14 23  1  0  0  0
 14 60  1  0  0  0
 15 22  1  0  0  0
 15 24  2  0  0  0
 15 61  1  0  0  0
 17 20  2  0  0  0
 18 32  1  0  0  0
 19 34  1  0  0  0
 20 21  1  0  0  0
 21 28  1  0  0  0
 22 26  1  0  0  0
 22 29  2  0  0  0
 23 27  1  0  0  0
 23 30  2  0  0  0
 24 31  1  0  0  0
 24 32  1  0  0  0
 25 30  1  0  0  0
 25 31  1  0  0  0
 25 33  2  0  0  0
 27 28  1  0  0  0
 27 63  1  0  0  0
 29 32  1  0  0  0
 31 62  1  0  0  0
M  END
> <s_m_source_file>
../4h1j_ligand.sdf

> <i_m_source_file_index>
1

> <s_epik_input>
W0NIM11jMVtjSF1bY0hdYyhbY0hdW2NIXTEpLW4objIpYyhbY0hdYzJDKFtDSDNdKShbQ0gzXSlbQ0gzXSlbTkhdQyg9TylbTkhdYyhuW25IXTMpW2NIXWMzLWM0W2NIXVtjSF1jKE9bQ0gzXSlbY0hdYzRbQ0gzXQ==

> <s_epik_cmdline>
J2VwaWtfYXBwJywgJy1pbWFlJywgJ2xpZ2FuZF9wcm8ubWFlJywgJy1vbWFlJywgJ2xpZ2FuZF9wcmVwLm1hZScsICctbXMnLCAnMScsICctcGgnLCAnNycsICctcGh0JywgJzAuNScsICctbnQn

> <r_lp_tautomer_probability>
1

> <r_epik_Ionization_Penalty>
  0.0045

> <r_epik_Ionization_Penalty_Charging>
  0.0000

> <r_epik_Ionization_Penalty_Neutral>
  0.0045

> <r_epik_State_Penalty>
 -0.0000

> <r_epik_Charging_Adjusted_Penalty>
2.05973914605436e-05

> <i_epik_Tot_Q>
0

> <i_epik_Tot_abs_Q>
0

$$$$
