4h1m_ligand
                    3D
 Schrodinger Suite 2020-3.
 66 69  0  0  1  0            999 V2000
   -7.6650    0.4220   18.0770 C   0  0  0  0  0  0
    1.4650   -5.5380   17.8870 C   0  0  0  0  0  0
    1.5140   -8.0420   17.6230 C   0  0  0  0  0  0
   -7.0130    2.6060    9.0150 C   0  0  0  0  0  0
   -4.9140    1.6070    8.2010 C   0  0  0  0  0  0
   -4.8720    3.4050    9.9310 C   0  0  0  0  0  0
   -3.2640   -6.9730   10.4550 C   0  0  0  0  0  0
   -2.3840   -7.4880   11.3770 C   0  0  0  0  0  0
   -4.0580   -5.8630   10.7630 C   0  0  0  0  0  0
   -6.0170   -0.1210   16.2730 C   0  0  0  0  0  0
   -8.1360    0.8760   15.6480 C   0  0  0  0  0  0
   -5.6310   -0.1660   14.9410 C   0  0  0  0  0  0
   -7.7580    0.8180   14.3170 C   0  0  0  0  0  0
   -1.5180   -7.1850   13.8080 C   0  0  0  0  0  0
   -5.3900   -0.1930   10.5990 C   0  0  0  0  0  0
   -7.2640    0.3940   16.6210 C   0  0  0  0  0  0
   -6.5010    0.3030   13.9580 C   0  0  0  0  0  0
   -2.2870   -6.9030   12.6550 C   0  0  0  0  0  0
   -3.9630   -5.2630   12.0160 C   0  0  0  0  0  0
   -1.8360   -6.2690   14.7570 C   0  0  0  0  0  0
   -5.7190    1.1650   10.5890 C   0  0  0  0  0  0
   -5.6200   -0.6860   11.8530 C   0  0  0  0  0  0
   -3.0850   -5.7880   12.9720 C   0  0  3  0  0  0
    0.6380   -6.7910   17.5970 C   0  0  0  0  0  0
   -1.2620   -6.1940   16.0970 C   0  0  0  0  0  0
   -4.7090   -2.9470   11.7730 C   0  0  0  0  0  0
   -5.6180    2.1610    9.4430 C   0  0  0  0  0  0
   -2.7990   -5.4200   14.2620 N   0  0  0  0  0  0
   -6.1220    1.4620   11.7920 N   0  0  0  0  0  0
   -4.7250   -4.1530   12.3950 N   0  0  0  0  0  0
   -5.4800   -1.9940   12.3210 N   0  0  0  0  0  0
   -0.0410   -6.7470   16.2990 N   0  0  0  0  0  0
   -6.1050    0.3320   12.6040 N   0  0  0  0  0  0
   -1.8650   -5.5980   16.9800 O   0  0  0  0  0  0
   -4.0460   -2.7260   10.7650 O   0  0  0  0  0  0
   -6.8528    0.0030   18.6891 H   0  0  0  0  0  0
   -8.5768   -0.1771   18.2178 H   0  0  0  0  0  0
   -7.8575    1.4605   18.3844 H   0  0  0  0  0  0
    1.9457   -5.6357   18.8716 H   0  0  0  0  0  0
    0.8073   -4.6562   17.8859 H   0  0  0  0  0  0
    2.2369   -5.4207   17.1121 H   0  0  0  0  0  0
    2.0381   -8.1026   18.5882 H   0  0  0  0  0  0
    2.2511   -7.9905   16.8081 H   0  0  0  0  0  0
    0.8836   -8.9338   17.4914 H   0  0  0  0  0  0
   -6.9304    3.3253    8.1868 H   0  0  0  0  0  0
   -7.5228    3.0827    9.8652 H   0  0  0  0  0  0
   -7.5916    1.7309    8.6843 H   0  0  0  0  0  0
   -4.8811    2.3826    7.4216 H   0  0  0  0  0  0
   -5.4666    0.7331    7.8255 H   0  0  0  0  0  0
   -3.8887    1.3074    8.4637 H   0  0  0  0  0  0
   -4.7938    4.1317    9.1089 H   0  0  0  0  0  0
   -3.8636    3.1201   10.2657 H   0  0  0  0  0  0
   -5.4224    3.8573   10.7691 H   0  0  0  0  0  0
   -3.3506   -7.4341    9.4601 H   0  0  0  0  0  0
   -1.7583   -8.3542   11.1160 H   0  0  0  0  0  0
   -4.7580   -5.4643   10.0139 H   0  0  0  0  0  0
   -5.3442   -0.4888   17.0477 H   0  0  0  0  0  0
   -9.1027    1.2931   15.9302 H   0  0  0  0  0  0
   -4.6549   -0.5651   14.6654 H   0  0  0  0  0  0
   -8.4391    1.1737   13.5439 H   0  0  0  0  0  0
   -0.8165   -8.0323   13.8075 H   0  0  0  0  0  0
   -5.0134   -0.7632    9.7498 H   0  0  0  0  0  0
   -0.1555   -6.8266   18.3580 H   0  0  0  0  0  0
   -5.4028   -4.2202   13.2588 H   0  0  0  0  0  0
   -6.0307   -2.3199   13.2157 H   0  0  0  0  0  0
    0.4417   -7.1808   15.4108 H   0  0  0  0  0  0
  1 16  1  0  0  0
  1 36  1  0  0  0
  1 37  1  0  0  0
  1 38  1  0  0  0
  2 24  1  0  0  0
  2 39  1  0  0  0
  2 40  1  0  0  0
  2 41  1  0  0  0
  3 24  1  0  0  0
  3 42  1  0  0  0
  3 43  1  0  0  0
  3 44  1  0  0  0
  4 27  1  0  0  0
  4 45  1  0  0  0
  4 46  1  0  0  0
  4 47  1  0  0  0
  5 27  1  0  0  0
  5 48  1  0  0  0
  5 49  1  0  0  0
  5 50  1  0  0  0
  6 27  1  0  0  0
  6 51  1  0  0  0
  6 52  1  0  0  0
  6 53  1  0  0  0
  7  8  2  0  0  0
  7  9  1  0  0  0
  7 54  1  0  0  0
  8 18  1  0  0  0
  8 55  1  0  0  0
  9 19  2  0  0  0
  9 56  1  0  0  0
 10 12  2  0  0  0
 10 16  1  0  0  0
 10 57  1  0  0  0
 11 13  1  0  0  0
 11 16  2  0  0  0
 11 58  1  0  0  0
 12 17  1  0  0  0
 12 59  1  0  0  0
 13 17  2  0  0  0
 13 60  1  0  0  0
 14 18  2  0  0  0
 14 20  1  0  0  0
 14 61  1  0  0  0
 15 21  1  0  0  0
 15 22  2  0  0  0
 15 62  1  0  0  0
 17 33  1  0  0  0
 18 23  1  0  0  0
 19 23  1  0  0  0
 19 30  1  0  0  0
 20 25  1  0  0  0
 20 28  2  0  0  0
 21 27  1  0  0  0
 21 29  2  0  0  0
 22 31  1  0  0  0
 22 33  1  0  0  0
 23 28  1  0  0  0
 24 32  1  0  0  0
 24 63  1  0  0  0
 25 32  1  0  0  0
 25 34  2  0  0  0
 26 30  1  0  0  0
 26 31  1  0  0  0
 26 35  2  0  0  0
 29 33  1  0  0  0
 30 64  1  0  0  0
 31 65  1  0  0  0
 32 66  1  0  0  0
M  END
> <s_m_source_file>
../4h1m_ligand.sdf

> <i_m_source_file_index>
1

> <s_epik_input>
W0NIM11jMVtjSF1bY0hdYyhbY0hdW2NIXTEpLW4objIpYyhbY0hdYzJDKFtDSDNdKShbQ0gzXSlbQ0gzXSlbTkhdQyg9TylbTkhdQyg9W0NIXVtDSF09W0NIXTMpW0NIXShDMzQpTj1DKFtDSF09NClDKD1PKVtOSF1bQ0hdKFtDSDNdKVtDSDNd

> <s_epik_cmdline>
J2VwaWtfYXBwJywgJy1pbWFlJywgJ2xpZ2FuZF9wcm8ubWFlJywgJy1vbWFlJywgJ2xpZ2FuZF9wcmVwLm1hZScsICctbXMnLCAnMScsICctcGgnLCAnNycsICctcGh0JywgJzAuNScsICctbnQn

> <r_lp_tautomer_probability>
1

> <r_epik_Ionization_Penalty>
  0.0156

> <r_epik_Ionization_Penalty_Charging>
  0.0000

> <r_epik_Ionization_Penalty_Neutral>
  0.0156

> <r_epik_State_Penalty>
 -0.0000

> <r_epik_Charging_Adjusted_Penalty>
0

> <i_epik_Tot_Q>
0

> <i_epik_Tot_abs_Q>
0

> <s_epik_Chemistry_Notes>
This compound has an imine and may undergo hydrolysis.

$$$$
