4h2j_ligand
                    3D
 Schrodinger Suite 2020-3.
 62 67  0  0  1  0            999 V2000
   41.8560   21.4980   62.8040 N   0  3  0  0  0  0
   42.0720   20.3850   63.7280 C   0  0  0  0  0  0
   43.5050   20.0830   63.4990 C   0  0  0  0  0  0
   44.0180   21.2690   62.9310 N   0  0  0  0  0  0
   43.0340   22.0380   62.4790 C   0  0  0  0  0  0
   43.2770   23.2320   61.9250 C   0  0  0  0  0  0
   42.3930   23.8890   61.1040 C   0  0  0  0  0  0
   42.6960   25.1430   60.5800 C   0  0  0  0  0  0
   44.4500   23.8970   62.2120 C   0  0  0  0  0  0
   44.7670   25.1450   61.7010 C   0  0  0  0  0  0
   43.8930   25.7960   60.8380 C   0  0  0  0  0  0
   44.1950   27.0370   60.4560 N   0  0  0  0  0  0
   43.4980   27.7570   59.5740 C   0  0  0  0  0  0
   42.6240   27.2830   58.9090 O   0  0  0  0  0  0
   43.7140   29.1500   59.5200 C   0  0  0  0  0  0
   43.7220   29.8980   58.3640 C   0  0  0  0  0  0
   43.8480   31.2770   58.3160 C   0  0  0  0  0  0
   43.6350   29.2370   57.2720 N   0  0  0  0  0  0
   43.7870   28.4490   57.3050 O   0  0  0  0  0  0
   43.4260   29.7620   56.3440 O   0  0  0  0  0  0
   43.7720   29.9020   60.6840 C   0  0  0  0  0  0
   43.8940   31.2920   60.6620 C   0  0  0  0  0  0
   43.9440   31.9890   59.4740 C   0  0  0  0  0  0
   44.0480   33.3750   59.4100 C   0  0  0  0  0  0
   43.3430   33.9790   58.6170 O   0  0  0  0  0  0
   44.8950   33.9540   60.2610 N   0  0  0  0  0  0
   45.0040   35.2950   60.3580 C   0  0  0  0  0  0
   44.6300   36.1800   59.3770 C   0  0  0  0  0  0
   44.7650   37.5460   59.5690 C   0  0  0  0  0  0
   45.5000   35.8270   61.5280 C   0  0  0  0  0  0
   45.6320   37.1770   61.7340 C   0  0  0  0  0  0
   45.2590   38.0420   60.7550 C   0  0  0  0  0  0
   45.4130   39.3500   60.9690 C   0  0  0  0  0  0
   45.2750   40.2200   59.9790 N   0  3  0  0  0  0
   45.5320   41.5230   60.4900 C   0  0  0  0  0  0
   45.5720   41.3260   61.9850 C   0  0  0  0  0  0
   45.7950   39.9050   62.1230 N   0  0  0  0  0  0
   41.8559   20.7140   64.7552 H   0  0  0  0  0  0
   41.4044   19.5524   63.4616 H   0  0  0  0  0  0
   43.9865   19.8410   64.4580 H   0  0  0  0  0  0
   43.5944   19.2246   62.8169 H   0  0  0  0  0  0
   45.1037   21.4445   62.9112 H   0  0  0  0  0  0
   41.4394   23.4213   60.8589 H   0  0  0  0  0  0
   41.9619   25.6325   59.9400 H   0  0  0  0  0  0
   45.1667   23.4148   62.8768 H   0  0  0  0  0  0
   45.7083   25.6198   61.9776 H   0  0  0  0  0  0
   45.0775   27.5422   60.8755 H   0  0  0  0  0  0
   43.8703   31.7908   57.3549 H   0  0  0  0  0  0
   43.7207   29.3915   61.6457 H   0  0  0  0  0  0
   43.9509   31.8378   61.6038 H   0  0  0  0  0  0
   45.5312   33.3349   60.9106 H   0  0  0  0  0  0
   44.2230   35.8046   58.4381 H   0  0  0  0  0  0
   44.4775   38.2340   58.7740 H   0  0  0  0  0  0
   45.8005   35.1461   62.3243 H   0  0  0  0  0  0
   46.0329   37.5525   62.6755 H   0  0  0  0  0  0
   46.4906   41.8896   60.0941 H   0  0  0  0  0  0
   44.7241   42.2033   60.1827 H   0  0  0  0  0  0
   46.3901   41.9247   62.4119 H   0  0  0  0  0  0
   44.6154   41.6472   62.4229 H   0  0  0  0  0  0
   46.2069   39.5013   63.0597 H   0  0  0  0  0  0
   40.9273   21.9089   62.3813 H   0  0  0  0  0  0
   45.0037   39.8692   58.9724 H   0  0  0  0  0  0
  1  2  1  0  0  0
  1  5  2  0  0  0
  1 61  1  0  0  0
  2  3  1  0  0  0
  2 38  1  0  0  0
  2 39  1  0  0  0
  3  4  1  0  0  0
  3 40  1  0  0  0
  3 41  1  0  0  0
  4  5  1  0  0  0
  4 42  1  0  0  0
  5  6  1  0  0  0
  6  7  2  0  0  0
  6  9  1  0  0  0
  7  8  1  0  0  0
  7 43  1  0  0  0
  8 11  2  0  0  0
  8 44  1  0  0  0
  9 10  2  0  0  0
  9 45  1  0  0  0
 10 11  1  0  0  0
 10 46  1  0  0  0
 11 12  1  0  0  0
 12 13  1  0  0  0
 12 47  1  0  0  0
 13 14  2  0  0  0
 13 15  1  0  0  0
 15 16  2  0  0  0
 15 21  1  0  0  0
 16 17  1  0  0  0
 16 18  1  0  0  0
 17 23  2  0  0  0
 17 48  1  0  0  0
 18 19  1  0  0  0
 18 20  1  0  0  0
 19 20  1  0  0  0
 21 22  2  0  0  0
 21 49  1  0  0  0
 22 23  1  0  0  0
 22 50  1  0  0  0
 23 24  1  0  0  0
 24 25  2  0  0  0
 24 26  1  0  0  0
 26 27  1  0  0  0
 26 51  1  0  0  0
 27 28  2  0  0  0
 27 30  1  0  0  0
 28 29  1  0  0  0
 28 52  1  0  0  0
 29 32  2  0  0  0
 29 53  1  0  0  0
 30 31  2  0  0  0
 30 54  1  0  0  0
 31 32  1  0  0  0
 31 55  1  0  0  0
 32 33  1  0  0  0
 33 34  2  0  0  0
 33 37  1  0  0  0
 34 35  1  0  0  0
 34 62  1  0  0  0
 35 36  1  0  0  0
 35 56  1  0  0  0
 35 57  1  0  0  0
 36 37  1  0  0  0
 36 58  1  0  0  0
 36 59  1  0  0  0
 37 60  1  0  0  0
M  CHG  2   1   1  34   1
M  END
> <s_m_source_file>
../4h2j_ligand.sdf

> <i_m_source_file_index>
1

> <s_epik_input>
W05IXTFbQ0gyXVtDSDJdTj1DMWMyW2NIXVtjSF1jKFtjSF1bY0hdMilbTkhdQyg9TyljM2MoLW40b280KVtjSF1jKFtjSF1bY0hdMylDKD1PKVtOSF1jNVtjSF1bY0hdYyhbY0hdW2NIXTUpQzY9TltDSDJdW0NIMl1bTkhdNg==

> <s_epik_cmdline>
J2VwaWtfYXBwJywgJy1pbWFlJywgJ2xpZ2FuZF9wcm8ubWFlJywgJy1vbWFlJywgJ2xpZ2FuZF9wcmVwLm1hZScsICctbXMnLCAnMScsICctcGgnLCAnNycsICctcGh0JywgJzAuNScsICctbnQn

> <r_lp_tautomer_probability>
1

> <r_epik_Ionization_Penalty>
  0.0003

> <r_epik_Ionization_Penalty_Charging>
  0.0003

> <r_epik_Ionization_Penalty_Neutral>
  0.0000

> <r_epik_State_Penalty>
 -0.0000

> <r_epik_Charging_Adjusted_Penalty>
0.000262838964127149

> <i_epik_Tot_Q>
2

> <i_epik_Tot_abs_Q>
2

> <s_epik_Chemistry_Notes>
This compound has an imine and may undergo hydrolysis. This compound has a N-S or N-O group and may undergo hydrolysis at high or low pH.

$$$$
