4h2o_ligand
                    3D
 Schrodinger Suite 2020-3.
 61 62  0  0  1  0            999 V2000
  -12.0690  -12.8400   -8.4280 O   0  0  0  0  0  0
  -11.4320  -12.9920   -9.4740 C   0  0  0  0  0  0
  -11.6620  -12.2260  -10.4160 O   0  5  0  0  0  0
  -10.4400  -13.9700   -9.5570 C   0  0  0  0  0  0
  -10.2070  -14.6700  -10.7540 C   0  0  0  0  0  0
   -9.1890  -15.6260  -10.8150 C   0  0  0  0  0  0
   -8.9460  -16.3090  -11.9410 N   0  3  0  0  0  0
   -9.1170  -17.5530  -11.9280 O   0  0  0  0  0  0
   -8.5000  -15.6520  -13.1190 O   0  5  0  0  0  0
   -8.4340  -15.8850   -9.6650 C   0  0  0  0  0  0
   -8.6740  -15.2090   -8.4760 C   0  0  0  0  0  0
   -9.6640  -14.2350   -8.4290 C   0  0  0  0  0  0
  -10.0070  -13.5280   -7.3650 N   0  0  0  0  0  0
  -10.0730  -14.0850   -6.1640 C   0  0  0  0  0  0
   -9.7780  -15.2360   -5.8880 O   0  0  0  0  0  0
  -10.6360  -13.2600   -5.2180 C   0  0  0  0  0  0
  -11.2110  -12.0630   -5.5870 C   0  0  0  0  0  0
  -10.6970  -13.6640   -3.9170 C   0  0  0  0  0  0
  -11.2950  -12.8550   -2.9980 C   0  0  0  0  0  0
  -11.8550  -11.6500   -3.3660 C   0  0  0  0  0  0
  -11.8190  -11.2350   -4.6670 C   0  0  0  0  0  0
  -12.3470  -10.0480   -5.0440 O   0  0  0  0  0  0
  -13.1140   -9.3780   -4.0880 C   0  0  0  0  0  0
  -12.7550   -7.9190   -4.1120 C   0  0  0  0  0  0
  -12.6900   -7.3800   -2.7000 C   0  0  0  0  0  0
  -12.9320   -5.9050   -2.7380 C   0  0  0  0  0  0
  -12.8410   -5.2910   -1.3630 C   0  0  0  0  0  0
  -14.2470   -4.9340   -0.9780 C   0  0  0  0  0  0
  -14.2460   -3.8570    0.0750 C   0  0  0  0  0  0
  -15.1480   -4.2920    1.1790 C   0  0  0  0  0  0
  -16.3370   -3.4110    1.1590 C   0  0  0  0  0  0
  -16.5160   -2.8520    2.5310 C   0  0  0  0  0  0
  -10.8191  -14.4675  -11.6329 H   0  0  0  0  0  0
   -7.6416  -16.6325   -9.7036 H   0  0  0  0  0  0
   -8.0897  -15.4408   -7.5855 H   0  0  0  0  0  0
  -10.2435  -12.4587   -7.4680 H   0  0  0  0  0  0
  -11.1844  -11.7627   -6.6345 H   0  0  0  0  0  0
  -10.2728  -14.6219   -3.6161 H   0  0  0  0  0  0
  -11.3313  -13.1658   -1.9539 H   0  0  0  0  0  0
  -12.3307  -11.0229   -2.6120 H   0  0  0  0  0  0
  -14.1817   -9.5023   -4.3218 H   0  0  0  0  0  0
  -12.9056   -9.7960   -3.0921 H   0  0  0  0  0  0
  -11.7748   -7.7905   -4.5943 H   0  0  0  0  0  0
  -13.5175   -7.3630   -4.6773 H   0  0  0  0  0  0
  -13.4598   -7.8691   -2.0850 H   0  0  0  0  0  0
  -11.6964   -7.5847   -2.2748 H   0  0  0  0  0  0
  -12.1796   -5.4265   -3.3821 H   0  0  0  0  0  0
  -13.9369   -5.7085   -3.1398 H   0  0  0  0  0  0
  -12.4098   -6.0218   -0.6630 H   0  0  0  0  0  0
  -12.1999   -4.3980   -1.4019 H   0  0  0  0  0  0
  -14.7881   -4.5687   -1.8633 H   0  0  0  0  0  0
  -14.7553   -5.8243   -0.5792 H   0  0  0  0  0  0
  -13.2230   -3.7153    0.4536 H   0  0  0  0  0  0
  -14.6085   -2.9154   -0.3632 H   0  0  0  0  0  0
  -15.4441   -5.3393    1.0194 H   0  0  0  0  0  0
  -14.6207   -4.2025    2.1402 H   0  0  0  0  0  0
  -16.1793   -2.5987    0.4342 H   0  0  0  0  0  0
  -17.2219   -3.9958    0.8675 H   0  0  0  0  0  0
  -17.3953   -2.1913    2.5459 H   0  0  0  0  0  0
  -15.6210   -2.2778    2.8126 H   0  0  0  0  0  0
  -16.6636   -3.6749    3.2458 H   0  0  0  0  0  0
  1  2  2  0  0  0
  2  3  1  0  0  0
  2  4  1  0  0  0
  4  5  2  0  0  0
  4 12  1  0  0  0
  5  6  1  0  0  0
  5 33  1  0  0  0
  6  7  1  0  0  0
  6 10  2  0  0  0
  7  8  2  0  0  0
  7  9  1  0  0  0
 10 11  1  0  0  0
 10 34  1  0  0  0
 11 12  2  0  0  0
 11 35  1  0  0  0
 12 13  1  0  0  0
 13 14  1  0  0  0
 13 36  1  0  0  0
 14 15  2  0  0  0
 14 16  1  0  0  0
 16 17  2  0  0  0
 16 18  1  0  0  0
 17 21  1  0  0  0
 17 37  1  0  0  0
 18 19  2  0  0  0
 18 38  1  0  0  0
 19 20  1  0  0  0
 19 39  1  0  0  0
 20 21  2  0  0  0
 20 40  1  0  0  0
 21 22  1  0  0  0
 22 23  1  0  0  0
 23 24  1  0  0  0
 23 41  1  0  0  0
 23 42  1  0  0  0
 24 25  1  0  0  0
 24 43  1  0  0  0
 24 44  1  0  0  0
 25 26  1  0  0  0
 25 45  1  0  0  0
 25 46  1  0  0  0
 26 27  1  0  0  0
 26 47  1  0  0  0
 26 48  1  0  0  0
 27 28  1  0  0  0
 27 49  1  0  0  0
 27 50  1  0  0  0
 28 29  1  0  0  0
 28 51  1  0  0  0
 28 52  1  0  0  0
 29 30  1  0  0  0
 29 53  1  0  0  0
 29 54  1  0  0  0
 30 31  1  0  0  0
 30 55  1  0  0  0
 30 56  1  0  0  0
 31 32  1  0  0  0
 31 57  1  0  0  0
 31 58  1  0  0  0
 32 59  1  0  0  0
 32 60  1  0  0  0
 32 61  1  0  0  0
M  CHG  3   3  -1   7   1   9  -1
M  END
> <s_m_source_file>
../4h2o_ligand.sdf

> <i_m_source_file_index>
1

> <s_epik_input>
Tz1DKFtPSF0pYzFbY0hdYyhbTitdKD1PKVtPLV0pW2NIXVtjSF1jMVtOSF1DKD1PKWMyW2NIXWMoW2NIXVtjSF1bY0hdMilPW0NIMl1bQ0gyXVtDSDJdW0NIMl1bQ0gyXVtDSDJdW0NIMl1bQ0gyXVtDSDJdW0NIM10=

> <s_epik_cmdline>
J2VwaWtfYXBwJywgJy1pbWFlJywgJ2xpZ2FuZF9wcm8ubWFlJywgJy1vbWFlJywgJ2xpZ2FuZF9wcmVwLm1hZScsICctbXMnLCAnMScsICctcGgnLCAnNycsICctcGh0JywgJzAuNScsICctbnQn

> <r_lp_tautomer_probability>
1

> <r_epik_Ionization_Penalty>
  0.0001

> <r_epik_Ionization_Penalty_Charging>
  0.0001

> <r_epik_Ionization_Penalty_Neutral>
  0.0000

> <r_epik_State_Penalty>
 -0.0000

> <r_epik_Charging_Adjusted_Penalty>
0.00010048830098923

> <i_epik_Tot_Q>
-1

> <i_epik_Tot_abs_Q>
3

$$$$
