4h36_ligand
                    3D
 Schrodinger Suite 2020-3.
136137  0  0  1  0            999 V2000
  -11.6070   32.9140  -23.3250 N   0  3  0  0  0  0
  -12.6400   32.8280  -24.3520 C   0  0  2  0  0  0
  -14.0460   32.7780  -23.7560 C   0  0  0  0  0  0
  -14.9180   33.5480  -24.1650 O   0  0  0  0  0  0
  -12.3980   31.6150  -25.2560 C   0  0  0  0  0  0
  -11.4940   30.5590  -24.6420 C   0  0  0  0  0  0
  -11.2700   29.3850  -25.5830 C   0  0  0  0  0  0
  -12.5430   28.5780  -25.7780 C   0  0  0  0  0  0
  -12.2530   27.2120  -26.2980 N   0  3  0  0  0  0
  -14.2380   31.8620  -22.8020 N   0  0  0  0  0  0
  -15.4980   31.6340  -22.0690 C   0  0  2  0  0  0
  -16.4890   30.6720  -22.7320 C   0  0  0  0  0  0
  -17.4910   30.2990  -22.1220 O   0  0  0  0  0  0
  -16.2070   32.9390  -21.6730 C   0  0  0  0  0  0
  -15.7050   33.5410  -20.3990 C   0  0  0  0  0  0
  -14.4280   34.0420  -20.2640 N   0  0  0  0  0  0
  -16.3100   33.7260  -19.2030 C   0  0  0  0  0  0
  -14.2690   34.5080  -19.0380 C   0  0  0  0  0  0
  -15.3960   34.3290  -18.3740 N   0  0  0  0  0  0
  -16.2150   30.2670  -23.9670 N   0  0  0  0  0  0
  -17.1050   29.3370  -24.6580 C   0  0  2  0  0  0
  -16.5660   27.9100  -24.6640 C   0  0  0  0  0  0
  -16.3600   27.3120  -25.7210 O   0  0  0  0  0  0
  -17.4040   29.8190  -26.0800 C   0  0  0  0  0  0
  -18.2910   31.0530  -26.1230 C   0  0  0  0  0  0
  -18.6030   31.5040  -27.5350 C   0  0  0  0  0  0
  -17.9930   30.9670  -28.4830 O   0  0  0  0  0  0
  -19.4620   32.3970  -27.6960 O   0  5  0  0  0  0
  -16.3460   27.3720  -23.4690 N   0  0  0  0  0  0
  -15.8810   26.0000  -23.3130 C   0  0  2  0  0  0
  -17.0440   25.0580  -23.0220 C   0  0  0  0  0  0
  -18.1540   25.5000  -22.7230 O   0  0  0  0  0  0
  -14.8260   25.9140  -22.2080 C   0  0  0  0  0  0
  -14.6740   27.1930  -21.4000 C   0  0  0  0  0  0
  -13.0570   27.3160  -20.6130 S   0  0  0  0  0  0
  -11.9850   27.2160  -22.0450 C   0  0  0  0  0  0
  -16.7810   23.7590  -23.1130 N   0  0  0  0  0  0
  -17.8160   22.7480  -22.9430 C   0  0  2  0  0  0
  -17.3330   21.6850  -21.9630 C   0  0  0  0  0  0
  -16.1750   21.6990  -21.5520 O   0  0  0  0  0  0
  -18.1460   22.0730  -24.2950 C   0  0  2  0  0  0
  -17.9790   23.0180  -25.3590 O   0  0  0  0  0  0
  -19.5750   21.5420  -24.3150 C   0  0  0  0  0  0
  -18.2310   20.7840  -21.5740 N   0  0  0  0  0  0
  -17.8660   19.5680  -20.8520 C   0  0  2  0  0  0
  -18.9990   18.5470  -20.9290 C   0  0  0  0  0  0
  -20.1610   18.8740  -20.6870 O   0  0  0  0  0  0
  -17.4540   19.8590  -19.4010 C   0  0  0  0  0  0
  -18.2560   20.8320  -18.5340 C   0  0  0  0  0  0
  -19.4200   20.1390  -17.8610 C   0  0  0  0  0  0
  -17.3480   21.4690  -17.4960 C   0  0  0  0  0  0
  -18.6550   17.3140  -21.2860 N   0  0  0  0  0  0
  -19.6570   16.2850  -21.5420 C   0  0  2  0  0  0
  -19.7380   15.2510  -20.4250 C   0  0  0  0  0  0
  -18.7430   14.9540  -19.7630 O   0  0  0  0  0  0
  -19.3740   15.5880  -22.8760 C   0  0  0  0  0  0
  -20.9330   14.7040  -20.2240 N   0  0  0  0  0  0
  -21.1470   13.6680  -19.2220 C   0  0  2  0  0  0
  -21.5220   12.3510  -19.8940 C   0  0  0  0  0  0
  -21.1830   11.2480  -19.3881 O   0  0  0  0  0  0
  -22.2460   14.0850  -18.2450 C   0  0  0  0  0  0
  -22.1630   15.5220  -17.8170 C   0  0  0  0  0  0
  -21.2600   15.9190  -16.8460 C   0  0  0  0  0  0
  -22.9920   16.4740  -18.3860 C   0  0  0  0  0  0
  -21.1820   17.2410  -16.4540 C   0  0  0  0  0  0
  -22.9200   17.7960  -17.9970 C   0  0  0  0  0  0
  -22.0180   18.1780  -17.0280 C   0  0  0  0  0  0
  -22.1793   12.3664  -20.9689 O   0  5  0  0  0  0
  -11.7968   33.7894  -22.6865 H   0  0  0  0  0  0
  -10.6218   33.0159  -23.8035 H   0  0  0  0  0  0
  -11.6238   32.0016  -22.7108 H   0  0  0  0  0  0
  -12.5360   33.7625  -24.9229 H   0  0  0  0  0  0
  -13.3585   31.1290  -25.4824 H   0  0  0  0  0  0
  -11.9240   31.9443  -26.1924 H   0  0  0  0  0  0
  -10.5156   31.0044  -24.4090 H   0  0  0  0  0  0
  -11.9521   30.1764  -23.7180 H   0  0  0  0  0  0
  -10.9407   29.7588  -26.5637 H   0  0  0  0  0  0
  -10.4979   28.7223  -25.1651 H   0  0  0  0  0  0
  -13.0655   28.4790  -24.8151 H   0  0  0  0  0  0
  -13.1963   29.0920  -26.4984 H   0  0  0  0  0  0
  -13.1961   26.6604  -26.4256 H   0  0  0  0  0  0
  -11.6090   26.6771  -25.5844 H   0  0  0  0  0  0
  -11.7398   27.2902  -27.2678 H   0  0  0  0  0  0
  -13.3526   31.2489  -22.5779 H   0  0  0  0  0  0
  -15.1054   31.1245  -21.1767 H   0  0  0  0  0  0
  -17.0147   33.4323  -22.2336 H   0  0  0  0  0  0
  -17.3184   33.4913  -18.8316 H   0  0  0  0  0  0
  -13.3612   34.9631  -18.6419 H   0  0  0  0  0  0
  -15.3094   30.6377  -24.4694 H   0  0  0  0  0  0
  -18.0263   29.3492  -24.0571 H   0  0  0  0  0  0
  -16.4612   30.0711  -26.5875 H   0  0  0  0  0  0
  -17.9184   29.0219  -26.6368 H   0  0  0  0  0  0
  -19.2456   30.8360  -25.6214 H   0  0  0  0  0  0
  -17.7873   31.8847  -25.6087 H   0  0  0  0  0  0
  -16.5257   27.9961  -22.5812 H   0  0  0  0  0  0
  -15.4335   25.7314  -24.2813 H   0  0  0  0  0  0
  -15.0975   25.1142  -21.5033 H   0  0  0  0  0  0
  -13.8452   25.6923  -22.6539 H   0  0  0  0  0  0
  -14.7975   28.0622  -22.0627 H   0  0  0  0  0  0
  -15.4401   27.2216  -20.6111 H   0  0  0  0  0  0
  -10.9353   27.2784  -21.7222 H   0  0  0  0  0  0
  -12.2084   28.0480  -22.7290 H   0  0  0  0  0  0
  -12.1532   26.2602  -22.5629 H   0  0  0  0  0  0
  -15.7449   23.4554  -23.3236 H   0  0  0  0  0  0
  -18.6904   23.2831  -22.5441 H   0  0  0  0  0  0
  -17.4429   21.2515  -24.4972 H   0  0  0  0  0  0
  -17.0080   23.5131  -25.5076 H   0  0  0  0  0  0
  -19.7078   20.8159  -23.4995 H   0  0  0  0  0  0
  -19.7699   21.0500  -25.2794 H   0  0  0  0  0  0
  -20.2783   22.3770  -24.1806 H   0  0  0  0  0  0
  -19.2850   20.9840  -21.8169 H   0  0  0  0  0  0
  -16.9855   19.1740  -21.3806 H   0  0  0  0  0  0
  -17.4719   18.9249  -18.8204 H   0  0  0  0  0  0
  -16.4382   20.2807  -19.3858 H   0  0  0  0  0  0
  -18.6735   21.6189  -19.1794 H   0  0  0  0  0  0
  -20.0671   19.6835  -18.6251 H   0  0  0  0  0  0
  -19.9983   20.8733  -17.2811 H   0  0  0  0  0  0
  -19.0410   19.3562  -17.1875 H   0  0  0  0  0  0
  -16.5077   21.9681  -18.0008 H   0  0  0  0  0  0
  -16.9608   20.6915  -16.8210 H   0  0  0  0  0  0
  -17.9181   22.2086  -16.9146 H   0  0  0  0  0  0
  -17.5855   17.0775  -21.3871 H   0  0  0  0  0  0
  -20.6069   16.8388  -21.5728 H   0  0  0  0  0  0
  -19.3168   16.3394  -23.6774 H   0  0  0  0  0  0
  -20.1836   14.8769  -23.0971 H   0  0  0  0  0  0
  -18.4183   15.0471  -22.8116 H   0  0  0  0  0  0
  -21.7737   15.0550  -20.8404 H   0  0  0  0  0  0
  -20.1887   13.5646  -18.6919 H   0  0  0  0  0  0
  -23.2295   13.9409  -18.7162 H   0  0  0  0  0  0
  -22.1813   13.4693  -17.3358 H   0  0  0  0  0  0
  -20.6035   15.1805  -16.3859 H   0  0  0  0  0  0
  -23.7098   16.1757  -19.1501 H   0  0  0  0  0  0
  -20.4623   17.5439  -15.6934 H   0  0  0  0  0  0
  -23.5754   18.5366  -18.4554 H   0  0  0  0  0  0
  -21.9644   19.2205  -16.7144 H   0  0  0  0  0  0
  -13.7308   34.0072  -21.1141 H   0  0  0  0  0  0
  1  2  1  0  0  0
  1 69  1  0  0  0
  1 70  1  0  0  0
  1 71  1  0  0  0
  2  3  1  0  0  0
  2  5  1  0  0  0
  2 72  1  0  0  0
  3  4  2  0  0  0
  3 10  1  0  0  0
  5  6  1  0  0  0
  5 73  1  0  0  0
  5 74  1  0  0  0
  6  7  1  0  0  0
  6 75  1  0  0  0
  6 76  1  0  0  0
  7  8  1  0  0  0
  7 77  1  0  0  0
  7 78  1  0  0  0
  8  9  1  0  0  0
  8 79  1  0  0  0
  8 80  1  0  0  0
  9 81  1  0  0  0
  9 82  1  0  0  0
  9 83  1  0  0  0
 10 11  1  0  0  0
 10 84  1  0  0  0
 11 12  1  0  0  0
 11 14  1  0  0  0
 11 85  1  0  0  0
 12 13  2  0  0  0
 12 20  1  0  0  0
 14 15  2  0  0  0
 14 86  1  0  0  0
 15 16  1  0  0  0
 15 17  1  0  0  0
 16 18  1  0  0  0
 16136  1  0  0  0
 17 19  2  0  0  0
 17 87  1  0  0  0
 18 19  1  0  0  0
 18 88  1  0  0  0
 20 21  1  0  0  0
 20 89  1  0  0  0
 21 22  1  0  0  0
 21 24  1  0  0  0
 21 90  1  0  0  0
 22 23  2  0  0  0
 22 29  1  0  0  0
 24 25  1  0  0  0
 24 91  1  0  0  0
 24 92  1  0  0  0
 25 26  1  0  0  0
 25 93  1  0  0  0
 25 94  1  0  0  0
 26 27  2  0  0  0
 26 28  1  0  0  0
 29 30  1  0  0  0
 29 95  1  0  0  0
 30 31  1  0  0  0
 30 33  1  0  0  0
 30 96  1  0  0  0
 31 32  2  0  0  0
 31 37  1  0  0  0
 33 34  1  0  0  0
 33 97  1  0  0  0
 33 98  1  0  0  0
 34 35  1  0  0  0
 34 99  1  0  0  0
 34100  1  0  0  0
 35 36  1  0  0  0
 36101  1  0  0  0
 36102  1  0  0  0
 36103  1  0  0  0
 37 38  1  0  0  0
 37104  1  0  0  0
 38 39  1  0  0  0
 38 41  1  0  0  0
 38105  1  0  0  0
 39 40  2  0  0  0
 39 44  1  0  0  0
 41 42  1  0  0  0
 41 43  1  0  0  0
 41106  1  0  0  0
 42107  1  0  0  0
 43108  1  0  0  0
 43109  1  0  0  0
 43110  1  0  0  0
 44 45  1  0  0  0
 44111  1  0  0  0
 45 46  1  0  0  0
 45 48  1  0  0  0
 45112  1  0  0  0
 46 47  2  0  0  0
 46 52  1  0  0  0
 48 49  1  0  0  0
 48113  1  0  0  0
 48114  1  0  0  0
 49 50  1  0  0  0
 49 51  1  0  0  0
 49115  1  0  0  0
 50116  1  0  0  0
 50117  1  0  0  0
 50118  1  0  0  0
 51119  1  0  0  0
 51120  1  0  0  0
 51121  1  0  0  0
 52 53  1  0  0  0
 52122  1  0  0  0
 53 54  1  0  0  0
 53 56  1  0  0  0
 53123  1  0  0  0
 54 55  2  0  0  0
 54 57  1  0  0  0
 56124  1  0  0  0
 56125  1  0  0  0
 56126  1  0  0  0
 57 58  1  0  0  0
 57127  1  0  0  0
 58 59  1  0  0  0
 58 61  1  0  0  0
 58128  1  0  0  0
 59 60  2  0  0  0
 59 68  1  0  0  0
 61 62  1  0  0  0
 61129  1  0  0  0
 61130  1  0  0  0
 62 63  2  0  0  0
 62 64  1  0  0  0
 63 65  1  0  0  0
 63131  1  0  0  0
 64 66  2  0  0  0
 64132  1  0  0  0
 65 67  2  0  0  0
 65133  1  0  0  0
 66 67  1  0  0  0
 66134  1  0  0  0
 67135  1  0  0  0
M  CHG  4   1   1   9   1  28  -1  68  -1
M  END
> <s_m_source_file>
../4h36_ligand.sdf

> <i_m_source_file_index>
1

> <s_epik_input>
W05IMytdW0NIMl1bQ0gyXVtDSDJdW0NIMl1bQ0BIXShbTkgzK10pQyg9TylbTkhdW0NAQEhdKFtDSDJdQzE9TltDSDJdTj1bQ0hdMSlDKD1PKVtOSF1bQ0BASF0oW0NIMl1bQ0gyXUMoPU8pW09IXSlDKD1PKVtOSF1bQ0BASF0oW0NIMl1bQ0gyXVNbQ0gzXSlDKD1PKVtOSF1bQ0BASF0oW0NASF0oW09IXSlbQ0gzXSlDKD1PKVtOSF1bQ0BASF0oW0NIMl1bQ0hdKFtDSDNdKVtDSDNdKUMoPU8pW05IXVtDQEBIXShbQ0gzXSlDKD1PKVtOSF1bQ0BIXShDKD1PKVtPSF0pW0NIMl1jMltjSF1bY0hdW2NIXVtjSF1bY0hdMg==

> <s_epik_cmdline>
J2VwaWtfYXBwJywgJy1pbWFlJywgJ2xpZ2FuZF9wcm8ubWFlJywgJy1vbWFlJywgJ2xpZ2FuZF9wcmVwLm1hZScsICctbXMnLCAnMScsICctcGgnLCAnNycsICctcGh0JywgJzAuNScsICctbnQn

> <r_epik_Ionization_Penalty>
  0.1582

> <r_epik_Ionization_Penalty_Charging>
  0.1582

> <r_epik_Ionization_Penalty_Neutral>
  0.0000

> <r_epik_State_Penalty>
  0.1451

> <r_epik_Charging_Adjusted_Penalty>
0.303255841653906

> <i_epik_Tot_Q>
0

> <i_epik_Tot_abs_Q>
4

> <s_epik_Chemistry_Notes>
This compound has an imine and may undergo hydrolysis.

$$$$
