4h38_ligand
                    3D
 Schrodinger Suite 2020-3.
 54 55  0  0  1  0            999 V2000
   44.7130   27.9760   63.8040 O   0  5  0  0  0  0
   45.4000   26.4670   63.7260 P   0  0  0  0  0  0
   44.8920   25.9040   65.0990 O   0  5  0  0  0  0
   46.8720   26.4800   63.7980 O   0  0  0  0  0  0
   44.4630   25.4140   62.3870 C   0  0  0  0  0  0
   44.3390   24.1310   62.8120 C   0  0  0  0  0  0
   43.6790   23.1550   62.1260 C   0  0  0  0  0  0
   43.7400   21.4610   62.9880 Br  0  0  0  0  0  0
   43.0730   23.4490   60.9360 C   0  0  0  0  0  0
   43.1590   24.7450   60.4630 C   0  0  0  0  0  0
   43.8470   25.7300   61.1390 C   0  0  0  0  0  0
   43.8990   26.9990   60.6680 O   0  0  0  0  0  0
   43.4720   27.1230   59.3320 C   0  0  0  0  0  0
   43.6210   28.3980   58.8860 C   0  0  0  0  0  0
   43.7050   29.4380   59.7670 C   0  0  0  0  0  0
   43.6830   28.6360   57.5310 C   0  0  0  0  0  0
   43.8420   29.9110   57.0380 C   0  0  0  0  0  0
   43.9150   30.9760   57.9270 C   0  0  0  0  0  0
   43.8450   30.7220   59.2830 C   0  0  0  0  0  0
   43.9320   31.7510   60.1060 O   0  0  0  0  0  0
   43.4740   32.7870   59.2770 C   0  0  0  0  0  0
   44.5950   33.7400   58.9380 C   0  0  0  0  0  0
   45.0490   34.5060   60.1640 C   0  0  0  0  0  0
   44.8940   36.0060   59.8980 C   0  0  0  0  0  0
   45.6260   36.8770   60.9180 C   0  0  0  0  0  0
   44.8440   38.1630   61.0150 C   0  0  0  0  0  0
   45.6000   39.4350   60.6860 C   0  0  0  0  0  0
   45.5610   40.3470   61.9030 C   0  0  0  0  0  0
   44.7971   23.8634   63.7642 H   0  0  0  0  0  0
   42.5370   22.6827   60.3760 H   0  0  0  0  0  0
   42.6662   24.9966   59.5239 H   0  0  0  0  0  0
   44.0685   26.4553   58.6930 H   0  0  0  0  0  0
   42.4096   26.8473   59.2595 H   0  0  0  0  0  0
   43.6619   29.2555   60.8407 H   0  0  0  0  0  0
   43.6047   27.7995   56.8365 H   0  0  0  0  0  0
   43.9098   30.0830   55.9638 H   0  0  0  0  0  0
   44.0258   31.9964   57.5602 H   0  0  0  0  0  0
   43.0769   32.3614   58.3437 H   0  0  0  0  0  0
   42.6788   33.3451   59.7929 H   0  0  0  0  0  0
   45.4501   33.1737   58.5403 H   0  0  0  0  0  0
   44.2484   34.4597   58.1818 H   0  0  0  0  0  0
   44.4317   34.2159   61.0270 H   0  0  0  0  0  0
   46.1035   34.2726   60.3725 H   0  0  0  0  0  0
   45.2999   36.2460   58.9042 H   0  0  0  0  0  0
   43.8284   36.2766   59.9340 H   0  0  0  0  0  0
   45.6561   36.3591   61.8880 H   0  0  0  0  0  0
   46.6527   37.0644   60.5705 H   0  0  0  0  0  0
   43.9931   38.1281   60.3187 H   0  0  0  0  0  0
   44.4720   38.2894   62.0425 H   0  0  0  0  0  0
   46.6420   39.1877   60.4350 H   0  0  0  0  0  0
   45.1244   39.9327   59.8280 H   0  0  0  0  0  0
   46.1058   41.2767   61.6820 H   0  0  0  0  0  0
   46.0333   39.8393   62.7569 H   0  0  0  0  0  0
   44.5157   40.5843   62.1500 H   0  0  0  0  0  0
  1  2  1  0  0  0
  2  3  1  0  0  0
  2  4  2  0  0  0
  2  5  1  0  0  0
  5  6  2  0  0  0
  5 11  1  0  0  0
  6  7  1  0  0  0
  6 29  1  0  0  0
  7  8  1  0  0  0
  7  9  2  0  0  0
  9 10  1  0  0  0
  9 30  1  0  0  0
 10 11  2  0  0  0
 10 31  1  0  0  0
 11 12  1  0  0  0
 12 13  1  0  0  0
 13 14  1  0  0  0
 13 32  1  0  0  0
 13 33  1  0  0  0
 14 15  2  0  0  0
 14 16  1  0  0  0
 15 19  1  0  0  0
 15 34  1  0  0  0
 16 17  2  0  0  0
 16 35  1  0  0  0
 17 18  1  0  0  0
 17 36  1  0  0  0
 18 19  2  0  0  0
 18 37  1  0  0  0
 19 20  1  0  0  0
 20 21  1  0  0  0
 21 22  1  0  0  0
 21 38  1  0  0  0
 21 39  1  0  0  0
 22 23  1  0  0  0
 22 40  1  0  0  0
 22 41  1  0  0  0
 23 24  1  0  0  0
 23 42  1  0  0  0
 23 43  1  0  0  0
 24 25  1  0  0  0
 24 44  1  0  0  0
 24 45  1  0  0  0
 25 26  1  0  0  0
 25 46  1  0  0  0
 25 47  1  0  0  0
 26 27  1  0  0  0
 26 48  1  0  0  0
 26 49  1  0  0  0
 27 28  1  0  0  0
 27 50  1  0  0  0
 27 51  1  0  0  0
 28 52  1  0  0  0
 28 53  1  0  0  0
 28 54  1  0  0  0
M  CHG  2   1  -1   3  -1
M  END
> <s_m_source_file>
../4h38_ligand.sdf

> <i_m_source_file_index>
1

> <s_epik_input>
W09IXVAoPU8pKFtPSF0pYzFbY0hdYyhCcilbY0hdW2NIXWMxT1tDSDJdYzJbY0hdYyhbY0hdW2NIXVtjSF0yKU9bQ0gyXVtDSDJdW0NIMl1bQ0gyXVtDSDJdW0NIMl1bQ0gyXVtDSDNd

> <s_epik_cmdline>
J2VwaWtfYXBwJywgJy1pbWFlJywgJ2xpZ2FuZF9wcm8ubWFlJywgJy1vbWFlJywgJ2xpZ2FuZF9wcmVwLm1hZScsICctbXMnLCAnMScsICctcGgnLCAnNycsICctcGh0JywgJzAuNScsICctbnQn

> <r_lp_tautomer_probability>
1

> <r_epik_Ionization_Penalty>
  0.3192

> <r_epik_Ionization_Penalty_Charging>
  0.3192

> <r_epik_Ionization_Penalty_Neutral>
  0.0000

> <r_epik_State_Penalty>
  0.3136

> <r_epik_Charging_Adjusted_Penalty>
0.632831951831231

> <i_epik_Tot_Q>
-2

> <i_epik_Tot_abs_Q>
2

$$$$
