4h39_ligand
                    3D
 Schrodinger Suite 2020-3.
155156  0  0  1  0            999 V2000
  -19.6700   24.2000   -3.1390 N   0  3  0  0  0  0
  -19.7240   22.9360   -2.3960 C   0  0  2  0  0  0
  -18.3390   22.3370   -2.1780 C   0  0  0  0  0  0
  -17.3920   22.6990   -2.8740 O   0  0  0  0  0  0
  -20.5410   22.0300   -3.3210 C   0  0  0  0  0  0
  -20.2880   22.5690   -4.6860 C   0  0  0  0  0  0
  -20.1960   24.0580   -4.5080 C   0  0  0  0  0  0
  -18.2260   21.4330   -1.2120 N   0  0  0  0  0  0
  -16.9790   20.7190   -0.9770 C   0  0  2  0  0  0
  -16.9070   19.5380   -1.9320 C   0  0  0  0  0  0
  -17.9370   19.0430   -2.3870 O   0  0  0  0  0  0
  -16.8770   20.2490    0.4750 C   0  0  0  0  0  0
  -15.6930   19.0890   -2.2300 N   0  0  0  0  0  0
  -15.4930   17.9910   -3.1740 C   0  0  2  0  0  0
  -15.7680   16.6350   -2.5340 C   0  0  0  0  0  0
  -15.4720   16.4300   -1.3600 O   0  0  0  0  0  0
  -14.0670   18.0130   -3.7210 C   0  0  0  0  0  0
  -13.7300   19.2540   -4.5160 C   0  0  0  0  0  0
  -12.2740   19.2400   -4.9290 C   0  0  0  0  0  0
  -11.9710   20.2820   -5.9030 N   0  0  0  0  0  0
  -10.7630   20.4860   -6.4140 C   0  0  0  0  0  0
   -9.7490   19.7170   -6.0390 N   0  0  0  0  0  0
  -10.5680   21.4550   -7.2980 N   0  0  0  0  0  0
  -16.3310   15.7010   -3.3140 N   0  0  0  0  0  0
  -16.5860   14.3500   -2.8100 C   0  0  2  0  0  0
  -15.2900   13.7090   -2.3360 C   0  0  0  0  0  0
  -14.2490   13.8810   -2.9730 O   0  0  0  0  0  0
  -17.1160   13.6120   -4.0430 C   0  0  0  0  0  0
  -17.6750   14.6840   -4.9170 C   0  0  0  0  0  0
  -16.7750   15.8650   -4.7090 C   0  0  0  0  0  0
  -15.3540   12.9800   -1.2290 N   0  0  0  0  0  0
  -14.1760   12.3270   -0.6780 C   0  0  2  0  0  0
  -14.3320   10.8140   -0.6750 C   0  0  0  0  0  0
  -13.4050   10.0890   -0.3190 O   0  0  0  0  0  0
  -13.8920   12.8020    0.7580 C   0  0  2  0  0  0
  -15.0650   12.6210    1.5610 O   0  0  0  0  0  0
  -13.5040   14.2760    0.7610 C   0  0  0  0  0  0
  -15.5110   10.3410   -1.0660 N   0  0  0  0  0  0
  -15.7740    8.9080   -1.1230 C   0  0  2  0  0  0
  -16.3290    8.4870   -2.4760 C   0  0  0  0  0  0
  -17.0900    9.2220   -3.1090 O   0  0  0  0  0  0
  -16.7730    8.4670   -0.0420 C   0  0  2  0  0  0
  -18.0360    9.1040   -0.2690 O   0  0  0  0  0  0
  -16.2620    8.8260    1.3460 C   0  0  0  0  0  0
  -15.9430    7.2920   -2.9060 N   0  0  0  0  0  0
  -16.4550    6.7090   -4.1370 C   0  0  2  0  0  0
  -16.6310    5.2100   -3.9420 C   0  0  0  0  0  0
  -15.6540    4.4790   -3.7930 O   0  0  0  0  0  0
  -15.5010    6.9850   -5.3010 C   0  0  0  0  0  0
  -15.9370    6.4660   -6.6760 C   0  0  0  0  0  0
  -17.3070    7.0130   -7.0440 C   0  0  0  0  0  0
  -14.9130    6.8180   -7.7460 C   0  0  0  0  0  0
  -17.8760    4.7520   -3.9540 N   0  0  0  0  0  0
  -18.1640    3.3430   -3.7080 C   0  0  2  0  0  0
  -17.9830    2.4760   -4.9470 C   0  0  0  0  0  0
  -18.8180    2.4790   -5.8460 O   0  0  0  0  0  0
  -19.5700    3.1720   -3.1260 C   0  0  0  0  0  0
  -19.8570    1.7420   -2.6930 C   0  0  0  0  0  0
  -19.0120    0.8570   -2.8210 O   0  0  0  0  0  0
  -21.0530    1.5140   -2.1650 N   0  0  0  0  0  0
  -16.8830    1.7340   -4.9790 N   0  0  0  0  0  0
  -16.5700    0.8530   -6.0960 C   0  0  2  0  0  0
  -17.3860   -0.4330   -6.0270 C   0  0  0  0  0  0
  -17.4360   -1.2000   -6.9890 O   0  0  0  0  0  0
  -15.0820    0.5150   -6.0790 C   0  0  0  0  0  0
  -14.1620    1.6840   -5.7290 C   0  0  0  0  0  0
  -12.7530    1.1960   -5.4480 C   0  0  0  0  0  0
  -14.1730    2.7340   -6.8350 C   0  0  0  0  0  0
  -18.0190   -0.6600   -4.8800 N   0  0  0  0  0  0
  -18.7770   -1.8830   -4.6310 C   0  0  2  0  0  0
  -17.8540   -3.0950   -4.5480 C   0  0  0  0  0  0
  -16.8658   -3.0991   -3.7663 O   0  0  0  0  0  0
  -19.8460   -2.0970   -5.7070 C   0  0  0  0  0  0
  -18.0824   -4.1028   -5.2690 O   0  0  0  0  0  0
  -20.2717   24.9583   -2.6167 H   0  0  0  0  0  0
  -18.6266   24.5419   -3.2056 H   0  0  0  0  0  0
  -20.1527   23.1021   -1.3967 H   0  0  0  0  0  0
  -20.1929   20.9916   -3.2182 H   0  0  0  0  0  0
  -21.6045   22.0891   -3.0464 H   0  0  0  0  0  0
  -19.3499   22.1491   -5.0779 H   0  0  0  0  0  0
  -21.1198   22.2910   -5.3500 H   0  0  0  0  0  0
  -21.1763   24.5522   -4.5772 H   0  0  0  0  0  0
  -19.4988   24.5253   -5.2190 H   0  0  0  0  0  0
  -19.1040   21.2287   -0.5816 H   0  0  0  0  0  0
  -16.1641   21.4306   -1.1760 H   0  0  0  0  0  0
  -16.9313   21.1186    1.1465 H   0  0  0  0  0  0
  -15.9196   19.7286    0.6255 H   0  0  0  0  0  0
  -17.7067   19.5618    0.6971 H   0  0  0  0  0  0
  -14.8262   19.5642   -1.7474 H   0  0  0  0  0  0
  -16.2262   18.1730   -3.9735 H   0  0  0  0  0  0
  -13.3531   17.9598   -2.8858 H   0  0  0  0  0  0
  -13.9166   17.1509   -4.3874 H   0  0  0  0  0  0
  -14.3571   19.2925   -5.4189 H   0  0  0  0  0  0
  -13.9182   20.1461   -3.9006 H   0  0  0  0  0  0
  -11.6404   19.4026   -4.0446 H   0  0  0  0  0  0
  -12.0303   18.2671   -5.3807 H   0  0  0  0  0  0
  -12.7673   20.9543   -6.2549 H   0  0  0  0  0  0
   -9.9103   18.9131   -5.3057 H   0  0  0  0  0  0
   -8.7470   19.8834   -6.4614 H   0  0  0  0  0  0
  -11.4084   22.0929   -7.6092 H   0  0  0  0  0  0
  -17.2774   14.3690   -1.9547 H   0  0  0  0  0  0
  -16.2897   13.0759   -4.5328 H   0  0  0  0  0  0
  -17.8888   12.8921   -3.7354 H   0  0  0  0  0  0
  -17.6651   14.3460   -5.9637 H   0  0  0  0  0  0
  -18.7089   14.9035   -4.6124 H   0  0  0  0  0  0
  -17.3038   16.8237   -4.8151 H   0  0  0  0  0  0
  -15.9004   15.8529   -5.3760 H   0  0  0  0  0  0
  -16.3267   12.8752   -0.7262 H   0  0  0  0  0  0
  -13.3672   12.6236   -1.3620 H   0  0  0  0  0  0
  -13.1008   12.1966    1.2243 H   0  0  0  0  0  0
  -15.5000   11.6178    1.6810 H   0  0  0  0  0  0
  -12.6037   14.4194    0.1455 H   0  0  0  0  0  0
  -13.2985   14.5989    1.7922 H   0  0  0  0  0  0
  -14.3299   14.8734    0.3474 H   0  0  0  0  0  0
  -16.2970   11.0562   -1.3501 H   0  0  0  0  0  0
  -14.7795    8.4681   -0.9574 H   0  0  0  0  0  0
  -16.9591    7.3845   -0.1023 H   0  0  0  0  0  0
  -18.5612    8.9591   -1.2246 H   0  0  0  0  0  0
  -15.2924    8.3358    1.5179 H   0  0  0  0  0  0
  -16.9844    8.4850    2.1022 H   0  0  0  0  0  0
  -16.1399    9.9166    1.4210 H   0  0  0  0  0  0
  -15.2114    6.7393   -2.2984 H   0  0  0  0  0  0
  -17.4245    7.1900   -4.3339 H   0  0  0  0  0  0
  -15.3680    8.0708   -5.4165 H   0  0  0  0  0  0
  -14.5273    6.5160   -5.0962 H   0  0  0  0  0  0
  -16.0066    5.3693   -6.6273 H   0  0  0  0  0  0
  -18.0306    6.7479   -6.2590 H   0  0  0  0  0  0
  -17.6298    6.5792   -8.0019 H   0  0  0  0  0  0
  -17.2518    8.1076   -7.1373 H   0  0  0  0  0  0
  -13.9307    6.4136   -7.4606 H   0  0  0  0  0  0
  -14.8452    7.9116   -7.8430 H   0  0  0  0  0  0
  -15.2232    6.3831   -8.7076 H   0  0  0  0  0  0
  -18.6983    5.4547   -4.1538 H   0  0  0  0  0  0
  -17.4023    3.0414   -2.9739 H   0  0  0  0  0  0
  -19.6831    3.8199   -2.2442 H   0  0  0  0  0  0
  -20.3170    3.4506   -3.8839 H   0  0  0  0  0  0
  -21.7779    2.3358   -2.0698 H   0  0  0  0  0  0
  -21.3194    0.5032   -1.8225 H   0  0  0  0  0  0
  -16.1964    1.8010   -4.1222 H   0  0  0  0  0  0
  -16.8407    1.4132   -7.0031 H   0  0  0  0  0  0
  -14.8930   -0.2709   -5.3329 H   0  0  0  0  0  0
  -14.7757    0.1579   -7.0733 H   0  0  0  0  0  0
  -14.5359    2.1588   -4.8099 H   0  0  0  0  0  0
  -12.7790    0.4417   -4.6478 H   0  0  0  0  0  0
  -12.1274    2.0440   -5.1324 H   0  0  0  0  0  0
  -12.3312    0.7486   -6.3601 H   0  0  0  0  0  0
  -15.2060    3.0666   -7.0145 H   0  0  0  0  0  0
  -13.7623    2.2987   -7.7580 H   0  0  0  0  0  0
  -13.5586    3.5940   -6.5302 H   0  0  0  0  0  0
  -17.9562    0.1160   -4.1029 H   0  0  0  0  0  0
  -19.2581   -1.7234   -3.6547 H   0  0  0  0  0  0
  -20.5016   -1.2149   -5.7531 H   0  0  0  0  0  0
  -20.4442   -2.9859   -5.4578 H   0  0  0  0  0  0
  -19.3598   -2.2439   -6.6827 H   0  0  0  0  0  0
  -17.4207   -4.9798   -5.2139 H   0  0  0  0  0  0
  1  2  1  0  0  0
  1  7  1  0  0  0
  1 75  1  0  0  0
  1 76  1  0  0  0
  2  3  1  0  0  0
  2  5  1  0  0  0
  2 77  1  0  0  0
  3  4  2  0  0  0
  3  8  1  0  0  0
  5  6  1  0  0  0
  5 78  1  0  0  0
  5 79  1  0  0  0
  6  7  1  0  0  0
  6 80  1  0  0  0
  6 81  1  0  0  0
  7 82  1  0  0  0
  7 83  1  0  0  0
  8  9  1  0  0  0
  8 84  1  0  0  0
  9 10  1  0  0  0
  9 12  1  0  0  0
  9 85  1  0  0  0
 10 11  2  0  0  0
 10 13  1  0  0  0
 12 86  1  0  0  0
 12 87  1  0  0  0
 12 88  1  0  0  0
 13 14  1  0  0  0
 13 89  1  0  0  0
 14 15  1  0  0  0
 14 17  1  0  0  0
 14 90  1  0  0  0
 15 16  2  0  0  0
 15 24  1  0  0  0
 17 18  1  0  0  0
 17 91  1  0  0  0
 17 92  1  0  0  0
 18 19  1  0  0  0
 18 93  1  0  0  0
 18 94  1  0  0  0
 19 20  1  0  0  0
 19 95  1  0  0  0
 19 96  1  0  0  0
 20 21  1  0  0  0
 20 97  1  0  0  0
 21 22  1  0  0  0
 21 23  2  0  0  0
 22 98  1  0  0  0
 22 99  1  0  0  0
 23100  1  0  0  0
 24 25  1  0  0  0
 24 30  1  0  0  0
 25 26  1  0  0  0
 25 28  1  0  0  0
 25101  1  0  0  0
 26 27  2  0  0  0
 26 31  1  0  0  0
 28 29  1  0  0  0
 28102  1  0  0  0
 28103  1  0  0  0
 29 30  1  0  0  0
 29104  1  0  0  0
 29105  1  0  0  0
 30106  1  0  0  0
 30107  1  0  0  0
 31 32  1  0  0  0
 31108  1  0  0  0
 32 33  1  0  0  0
 32 35  1  0  0  0
 32109  1  0  0  0
 33 34  2  0  0  0
 33 38  1  0  0  0
 35 36  1  0  0  0
 35 37  1  0  0  0
 35110  1  0  0  0
 36111  1  0  0  0
 37112  1  0  0  0
 37113  1  0  0  0
 37114  1  0  0  0
 38 39  1  0  0  0
 38115  1  0  0  0
 39 40  1  0  0  0
 39 42  1  0  0  0
 39116  1  0  0  0
 40 41  2  0  0  0
 40 45  1  0  0  0
 42 43  1  0  0  0
 42 44  1  0  0  0
 42117  1  0  0  0
 43118  1  0  0  0
 44119  1  0  0  0
 44120  1  0  0  0
 44121  1  0  0  0
 45 46  1  0  0  0
 45122  1  0  0  0
 46 47  1  0  0  0
 46 49  1  0  0  0
 46123  1  0  0  0
 47 48  2  0  0  0
 47 53  1  0  0  0
 49 50  1  0  0  0
 49124  1  0  0  0
 49125  1  0  0  0
 50 51  1  0  0  0
 50 52  1  0  0  0
 50126  1  0  0  0
 51127  1  0  0  0
 51128  1  0  0  0
 51129  1  0  0  0
 52130  1  0  0  0
 52131  1  0  0  0
 52132  1  0  0  0
 53 54  1  0  0  0
 53133  1  0  0  0
 54 55  1  0  0  0
 54 57  1  0  0  0
 54134  1  0  0  0
 55 56  2  0  0  0
 55 61  1  0  0  0
 57 58  1  0  0  0
 57135  1  0  0  0
 57136  1  0  0  0
 58 59  2  0  0  0
 58 60  1  0  0  0
 60137  1  0  0  0
 60138  1  0  0  0
 61 62  1  0  0  0
 61139  1  0  0  0
 62 63  1  0  0  0
 62 65  1  0  0  0
 62140  1  0  0  0
 63 64  2  0  0  0
 63 69  1  0  0  0
 65 66  1  0  0  0
 65141  1  0  0  0
 65142  1  0  0  0
 66 67  1  0  0  0
 66 68  1  0  0  0
 66143  1  0  0  0
 67144  1  0  0  0
 67145  1  0  0  0
 67146  1  0  0  0
 68147  1  0  0  0
 68148  1  0  0  0
 68149  1  0  0  0
 69 70  1  0  0  0
 69150  1  0  0  0
 70 71  1  0  0  0
 70 73  1  0  0  0
 70151  1  0  0  0
 71 72  2  0  0  0
 71 74  1  0  0  0
 73152  1  0  0  0
 73153  1  0  0  0
 73154  1  0  0  0
 74155  1  0  0  0
M  CHG  1   1   1
M  END
> <s_m_source_file>
../4h39_ligand.sdf

> <i_m_source_file_index>
1

> <s_epik_input>
W0NIMl0xW0NIMl1bQ0gyXVtOSDIrXVtDQEBIXTFDKD1PKVtOSF1bQ0BASF0oW0NIM10pQyg9TylbTkhdW0NAQEhdKFtDSDJdW0NIMl1bQ0gyXVtOSF0vQyhbTkgyXSk9TlxbSF0pQyg9TylOMltDQEBIXShbQ0gyXVtDSDJdW0NIMl0yKUMoPU8pW05IXVtDQEBIXShbQ0BIXShbT0hdKVtDSDNdKUMoPU8pW05IXVtDQEBIXShbQ0BIXShbT0hdKVtDSDNdKUMoPU8pW05IXVtDQEBIXShbQ0gyXVtDSF0oW0NIM10pW0NIM10pQyg9TylbTkhdW0NAQEhdKFtDSDJdQyg9TylbTkgyXSlDKD1PKVtOSF1bQ0BASF0oW0NIMl1bQ0hdKFtDSDNdKVtDSDNdKUMoPU8pW05IXVtDQEBIXShbQ0gzXSlDKD1PKVtPSF0=

> <s_epik_cmdline>
J2VwaWtfYXBwJywgJy1pbWFlJywgJ2xpZ2FuZF9wcm8ubWFlJywgJy1vbWFlJywgJ2xpZ2FuZF9wcmVwLm1hZScsICctbXMnLCAnMScsICctcGgnLCAnNycsICctcGh0JywgJzAuNScsICctbnQn

> <s_epik_pKa_notes>
Molecule size exceeds maximum supported for generating protonation states

> <s_epik_Chemistry_Notes>
This compound has an imine and may undergo hydrolysis.

$$$$
