4h3a_ligand
                    3D
 Schrodinger Suite 2020-3.
 48 48  0  0  1  0            999 V2000
   45.2250   26.2840   67.1370 O   0  5  0  0  0  0
   45.0050   25.1920   67.6750 C   0  0  0  0  0  0
   45.2280   25.0200   68.8780 O   0  0  0  0  0  0
   44.4470   24.0700   66.8360 C   0  0  3  0  0  0
   44.2150   22.8520   67.4010 O   0  0  0  0  0  0
   44.2130   24.4140   65.3650 C   0  0  0  0  0  0
   43.6950   23.4430   64.2970 C   0  0  0  0  0  0
   43.3130   22.3050   64.5460 O   0  0  0  0  0  0
   43.5490   24.1150   63.0820 C   0  0  0  0  0  0
   44.4650   25.1180   62.7980 C   0  0  0  0  0  0
   44.3990   25.8930   61.6530 C   0  0  0  0  0  0
   42.4950   23.9230   62.2070 C   0  0  0  0  0  0
   42.4200   24.7080   61.0670 C   0  0  0  0  0  0
   43.3600   25.6750   60.8020 C   0  0  0  0  0  0
   43.2650   26.4130   59.7140 O   0  0  0  0  0  0
   44.1650   27.4570   59.7580 C   0  0  0  0  0  0
   43.9970   28.2520   58.4850 C   0  0  0  0  0  0
   44.4280   29.6870   58.7250 C   0  0  0  0  0  0
   43.8200   30.2060   60.0300 C   0  0  0  0  0  0
   44.2170   31.6480   60.3110 C   0  0  0  0  0  0
   43.2950   32.6410   59.6370 C   0  0  0  0  0  0
   44.0910   33.8000   59.0560 C   0  0  0  0  0  0
   45.2430   34.1560   59.9870 C   0  0  0  0  0  0
   44.0761   23.0703   67.1061 H   0  0  0  0  0  0
   44.4132   22.6956   68.4716 H   0  0  0  0  0  0
   43.4713   25.2230   65.2911 H   0  0  0  0  0  0
   45.1594   24.7416   64.9100 H   0  0  0  0  0  0
   45.2715   25.3036   63.5074 H   0  0  0  0  0  0
   45.1528   26.6512   61.4406 H   0  0  0  0  0  0
   41.7363   23.1673   62.4105 H   0  0  0  0  0  0
   41.5989   24.5553   60.3666 H   0  0  0  0  0  0
   43.9544   28.0859   60.6355 H   0  0  0  0  0  0
   45.1872   27.0571   59.8304 H   0  0  0  0  0  0
   44.6182   27.8100   57.6920 H   0  0  0  0  0  0
   42.9411   28.2326   58.1772 H   0  0  0  0  0  0
   45.5249   29.7338   58.7935 H   0  0  0  0  0  0
   44.0855   30.3171   57.8909 H   0  0  0  0  0  0
   42.7228   30.1581   59.9678 H   0  0  0  0  0  0
   44.1672   29.5848   60.8688 H   0  0  0  0  0  0
   44.1824   31.8333   61.3947 H   0  0  0  0  0  0
   45.2375   31.8261   59.9410 H   0  0  0  0  0  0
   42.7485   32.1406   58.8241 H   0  0  0  0  0  0
   42.5782   33.0340   60.3731 H   0  0  0  0  0  0
   44.4940   33.5121   58.0738 H   0  0  0  0  0  0
   43.4341   34.6747   58.9407 H   0  0  0  0  0  0
   45.8135   34.9942   59.5605 H   0  0  0  0  0  0
   45.9036   33.2841   60.1029 H   0  0  0  0  0  0
   44.8437   34.4467   60.9699 H   0  0  0  0  0  0
  1  2  1  0  0  0
  2  3  2  0  0  0
  2  4  1  0  0  0
  4  5  1  0  0  0
  4  6  1  0  0  0
  4 24  1  0  0  0
  5 25  1  0  0  0
  6  7  1  0  0  0
  6 26  1  0  0  0
  6 27  1  0  0  0
  7  8  2  0  0  0
  7  9  1  0  0  0
  9 10  2  0  0  0
  9 12  1  0  0  0
 10 11  1  0  0  0
 10 28  1  0  0  0
 11 14  2  0  0  0
 11 29  1  0  0  0
 12 13  2  0  0  0
 12 30  1  0  0  0
 13 14  1  0  0  0
 13 31  1  0  0  0
 14 15  1  0  0  0
 15 16  1  0  0  0
 16 17  1  0  0  0
 16 32  1  0  0  0
 16 33  1  0  0  0
 17 18  1  0  0  0
 17 34  1  0  0  0
 17 35  1  0  0  0
 18 19  1  0  0  0
 18 36  1  0  0  0
 18 37  1  0  0  0
 19 20  1  0  0  0
 19 38  1  0  0  0
 19 39  1  0  0  0
 20 21  1  0  0  0
 20 40  1  0  0  0
 20 41  1  0  0  0
 21 22  1  0  0  0
 21 42  1  0  0  0
 21 43  1  0  0  0
 22 23  1  0  0  0
 22 44  1  0  0  0
 22 45  1  0  0  0
 23 46  1  0  0  0
 23 47  1  0  0  0
 23 48  1  0  0  0
M  CHG  1   1  -1
M  END
> <s_m_source_file>
../4h3a_ligand.sdf

> <i_m_source_file_index>
1

> <s_epik_input>
W09IXUMoPU8pW0NIXShbT0hdKVtDSDJdQyg9TyljMVtjSF1bY0hdYyhbY0hdW2NIXTEpT1tDSDJdW0NIMl1bQ0gyXVtDSDJdW0NIMl1bQ0gyXVtDSDJdW0NIM10=

> <s_epik_cmdline>
J2VwaWtfYXBwJywgJy1pbWFlJywgJ2xpZ2FuZF9wcm8ubWFlJywgJy1vbWFlJywgJ2xpZ2FuZF9wcmVwLm1hZScsICctbXMnLCAnMScsICctcGgnLCAnNycsICctcGh0JywgJzAuNScsICctbnQn

> <r_lp_tautomer_probability>
1

> <r_epik_Ionization_Penalty>
  0.0003

> <r_epik_Ionization_Penalty_Charging>
  0.0003

> <r_epik_Ionization_Penalty_Neutral>
  0.0000

> <r_epik_State_Penalty>
 -0.0000

> <r_epik_Charging_Adjusted_Penalty>
0.000278109606301569

> <i_epik_Tot_Q>
-1

> <i_epik_Tot_abs_Q>
1

$$$$
