4h3b_ligand
                    3D
 Schrodinger Suite 2020-3.
156157  0  0  1  0            999 V2000
   -6.5020   34.9130   22.9400 N   0  3  0  0  0  0
   -7.6290   34.1380   23.4510 C   0  0  2  0  0  0
   -7.2440   32.6650   23.4970 C   0  0  0  0  0  0
   -6.2780   32.2520   22.8520 O   0  0  0  0  0  0
   -8.8890   34.3200   22.5660 C   0  0  0  0  0  0
  -10.1530   33.8930   23.3120 C   0  0  0  0  0  0
   -9.0160   35.7650   22.1120 C   0  0  0  0  0  0
   -7.9860   31.8760   24.2690 N   0  0  0  0  0  0
   -7.7550   30.4390   24.3080 C   0  0  2  0  0  0
   -8.4840   29.7490   23.1540 C   0  0  0  0  0  0
   -9.6400   30.0600   22.8440 O   0  0  0  0  0  0
   -8.1300   29.8090   25.6860 C   0  0  0  0  0  0
   -9.6460   29.6050   25.8240 C   0  0  0  0  0  0
   -7.3960   28.4970   25.8840 C   0  0  0  0  0  0
   -7.7850   28.8350   22.4930 N   0  0  0  0  0  0
   -8.3950   28.0560   21.4290 C   0  0  2  0  0  0
   -9.2020   26.9460   22.0580 C   0  0  0  0  0  0
   -8.7980   26.3820   23.0690 O   0  0  0  0  0  0
   -7.3300   27.4950   20.4890 C   0  0  0  0  0  0
   -6.6800   28.5790   19.6570 C   0  0  0  0  0  0
   -5.3150   28.1800   19.1560 C   0  0  0  0  0  0
   -4.8160   29.1570   18.1960 N   0  0  0  0  0  0
   -3.9480   28.8670   17.2370 C   0  0  0  0  0  0
   -3.4790   27.6310   17.1330 N   0  0  0  0  0  0
   -3.5470   29.8090   16.3890 N   0  0  0  0  0  0
  -10.3680   26.6510   21.4770 N   0  0  0  0  0  0
  -11.1800   25.5570   21.9990 C   0  0  2  0  0  0
  -10.3290   24.3030   21.9850 C   0  0  0  0  0  0
   -9.5620   24.0980   21.0380 O   0  0  0  0  0  0
  -12.3170   25.4480   20.9800 C   0  0  0  0  0  0
  -12.3900   26.8060   20.3410 C   0  0  0  0  0  0
  -10.9850   27.3110   20.3130 C   0  0  0  0  0  0
  -10.4310   23.4990   23.0330 N   0  0  0  0  0  0
   -9.5840   22.3300   23.1570 C   0  0  0  0  0  0
  -10.4320   21.0890   23.1750 C   0  0  0  0  0  0
   -9.9340   19.9960   23.4400 O   0  0  0  0  0  0
  -11.7240   21.2570   22.8960 N   0  0  0  0  0  0
  -12.6350   20.1110   22.8480 C   0  0  2  0  0  0
  -13.7150   20.2620   21.7860 C   0  0  0  0  0  0
  -14.1060   21.3740   21.4330 O   0  0  0  0  0  0
  -13.2930   19.8870   24.2110 C   0  0  0  0  0  0
  -13.9190   21.0780   24.6500 O   0  0  0  0  0  0
  -14.2100   19.1290   21.3040 N   0  0  0  0  0  0
  -15.2600   19.1110   20.2970 C   0  0  2  0  0  0
  -16.1630   17.9190   20.5570 C   0  0  0  0  0  0
  -15.7360   16.7580   20.5050 O   0  0  0  0  0  0
  -14.6620   19.0410   18.8860 C   0  0  0  0  0  0
  -15.6580   19.0790   17.7190 C   0  0  0  0  0  0
  -16.3440   20.4350   17.6300 C   0  0  0  0  0  0
  -14.9610   18.7350   16.3990 C   0  0  0  0  0  0
  -17.4220   18.2200   20.8360 N   0  0  0  0  0  0
  -18.3520   17.2400   21.3750 C   0  0  2  0  0  0
  -18.8840   16.2950   20.2990 C   0  0  0  0  0  0
  -20.0590   16.3470   19.9300 O   0  0  0  0  0  0
  -19.4950   17.9730   22.0870 C   0  0  0  0  0  0
  -20.3100   17.0640   22.9830 C   0  0  0  0  0  0
  -21.4430   17.4600   23.3420 O   0  0  0  0  0  0
  -19.8240   15.9610   23.3250 O   0  0  0  0  0  0
  -18.0130   15.4250   19.8030 N   0  0  0  0  0  0
  -18.3850   14.5130   18.7260 C   0  0  2  0  0  0
  -19.1370   13.3060   19.2670 C   0  0  0  0  0  0
  -18.8280   12.8190   20.3540 O   0  0  0  0  0  0
  -17.1430   14.0280   17.9640 C   0  0  0  0  0  0
  -16.2350   15.0630   17.2980 C   0  0  0  0  0  0
  -14.9160   14.4150   16.9210 C   0  0  0  0  0  0
  -16.9100   15.6590   16.0750 C   0  0  0  0  0  0
  -20.1280   12.8210   18.5020 N   0  0  0  0  0  0
  -20.8090   11.5560   18.7970 C   0  0  2  0  0  0
  -19.9770   10.3620   18.3420 C   0  0  0  0  0  0
  -19.1775    9.8194   19.1507 O   0  0  0  0  0  0
  -22.0830   11.6480   17.9600 C   0  0  0  0  0  0
  -21.7000   12.5220   16.8060 C   0  0  0  0  0  0
  -20.7540   13.5390   17.3750 C   0  0  0  0  0  0
  -20.0881    9.9215   17.1668 O   0  0  0  0  0  0
   -5.6277   34.7609   23.5900 H   0  0  0  0  0  0
   -6.7673   35.9804   22.9261 H   0  0  0  0  0  0
   -6.2620   34.5815   21.9190 H   0  0  0  0  0  0
   -7.8179   34.5249   24.4632 H   0  0  0  0  0  0
   -8.7896   33.6856   21.6729 H   0  0  0  0  0  0
  -10.0516   32.8468   23.6363 H   0  0  0  0  0  0
  -11.0222   33.9874   22.6445 H   0  0  0  0  0  0
  -10.2947   34.5376   24.1920 H   0  0  0  0  0  0
   -8.1024   36.0628   21.5766 H   0  0  0  0  0  0
   -9.1550   36.4140   22.9892 H   0  0  0  0  0  0
   -9.8825   35.8639   21.4416 H   0  0  0  0  0  0
   -8.7824   32.3219   24.8830 H   0  0  0  0  0  0
   -6.6695   30.3439   24.1576 H   0  0  0  0  0  0
   -7.8163   30.4920   26.4892 H   0  0  0  0  0  0
  -10.1602   30.5663   25.6774 H   0  0  0  0  0  0
   -9.8738   29.2166   26.8276 H   0  0  0  0  0  0
   -9.9897   28.8859   25.0658 H   0  0  0  0  0  0
   -6.3135   28.6634   25.7816 H   0  0  0  0  0  0
   -7.7290   27.7726   25.1261 H   0  0  0  0  0  0
   -7.6131   28.1033   26.8879 H   0  0  0  0  0  0
   -6.7306   28.6707   22.7598 H   0  0  0  0  0  0
   -9.0514   28.7305   20.8596 H   0  0  0  0  0  0
   -6.5456   26.9980   21.0786 H   0  0  0  0  0  0
   -7.7912   26.7673   19.8050 H   0  0  0  0  0  0
   -7.3111   28.7986   18.7833 H   0  0  0  0  0  0
   -6.5657   29.4887   20.2647 H   0  0  0  0  0  0
   -4.6157   28.1231   20.0032 H   0  0  0  0  0  0
   -5.3772   27.1975   18.6653 H   0  0  0  0  0  0
   -5.1600   30.2007   18.2442 H   0  0  0  0  0  0
   -3.8136   26.8547   17.8369 H   0  0  0  0  0  0
   -3.9387   30.8330   16.4790 H   0  0  0  0  0  0
   -2.8235   29.5645   15.5973 H   0  0  0  0  0  0
  -11.5278   25.7349   23.0273 H   0  0  0  0  0  0
  -12.0779   24.6642   20.2462 H   0  0  0  0  0  0
  -13.2518   25.1908   21.4997 H   0  0  0  0  0  0
  -12.8030   26.7118   19.3258 H   0  0  0  0  0  0
  -13.0395   27.4595   20.9418 H   0  0  0  0  0  0
  -10.9269   28.4025   20.4369 H   0  0  0  0  0  0
  -10.4496   27.0169   19.3982 H   0  0  0  0  0  0
  -11.1701   23.7281   23.8148 H   0  0  0  0  0  0
   -8.8921   22.2863   22.3030 H   0  0  0  0  0  0
   -9.0084   22.3917   24.0924 H   0  0  0  0  0  0
  -12.1043   22.2705   22.7005 H   0  0  0  0  0  0
  -11.9847   19.2673   22.5736 H   0  0  0  0  0  0
  -14.0483   19.0917   24.1272 H   0  0  0  0  0  0
  -12.5277   19.5902   24.9433 H   0  0  0  0  0  0
  -14.4444   21.0993   25.6162 H   0  0  0  0  0  0
  -13.8015   18.1833   21.6896 H   0  0  0  0  0  0
  -15.8224   20.0501   20.4057 H   0  0  0  0  0  0
  -13.9851   19.8942   18.7319 H   0  0  0  0  0  0
  -14.1003   18.1021   18.7719 H   0  0  0  0  0  0
  -16.4371   18.3254   17.9062 H   0  0  0  0  0  0
  -16.8366   20.6602   18.5874 H   0  0  0  0  0  0
  -17.0955   20.4137   16.8270 H   0  0  0  0  0  0
  -15.5956   21.2109   17.4113 H   0  0  0  0  0  0
  -14.4733   17.7529   16.4870 H   0  0  0  0  0  0
  -14.2046   19.5011   16.1733 H   0  0  0  0  0  0
  -15.7046   18.7039   15.5890 H   0  0  0  0  0  0
  -17.7572   19.2505   20.6471 H   0  0  0  0  0  0
  -17.7667   16.6366   22.0845 H   0  0  0  0  0  0
  -19.0811   18.7772   22.7130 H   0  0  0  0  0  0
  -20.1762   18.4045   21.3388 H   0  0  0  0  0  0
  -20.3983   15.2848   23.9754 H   0  0  0  0  0  0
  -16.9948   15.3992   20.2185 H   0  0  0  0  0  0
  -19.0418   15.1073   18.0738 H   0  0  0  0  0  0
  -16.4816   13.4804   18.6516 H   0  0  0  0  0  0
  -17.4522   13.3623   17.1447 H   0  0  0  0  0  0
  -16.0357   15.8835   18.0030 H   0  0  0  0  0  0
  -14.4456   13.9909   17.8203 H   0  0  0  0  0  0
  -14.2491   15.1705   16.4800 H   0  0  0  0  0  0
  -15.0970   13.6138   16.1893 H   0  0  0  0  0  0
  -17.8626   16.1225   16.3713 H   0  0  0  0  0  0
  -17.1021   14.8647   15.3386 H   0  0  0  0  0  0
  -16.2542   16.4214   15.6293 H   0  0  0  0  0  0
  -20.9720   11.4449   19.8792 H   0  0  0  0  0  0
  -18.5730    8.9575   18.8317 H   0  0  0  0  0  0
  -22.3813   10.6405   17.6343 H   0  0  0  0  0  0
  -22.8879   12.0911   18.5648 H   0  0  0  0  0  0
  -21.2164   11.9120   16.0288 H   0  0  0  0  0  0
  -22.6011   12.9974   16.3911 H   0  0  0  0  0  0
  -21.2726   14.4327   17.7523 H   0  0  0  0  0  0
  -19.9779   13.8415   16.6565 H   0  0  0  0  0  0
  1  2  1  0  0  0
  1 75  1  0  0  0
  1 76  1  0  0  0
  1 77  1  0  0  0
  2  3  1  0  0  0
  2  5  1  0  0  0
  2 78  1  0  0  0
  3  4  2  0  0  0
  3  8  1  0  0  0
  5  6  1  0  0  0
  5  7  1  0  0  0
  5 79  1  0  0  0
  6 80  1  0  0  0
  6 81  1  0  0  0
  6 82  1  0  0  0
  7 83  1  0  0  0
  7 84  1  0  0  0
  7 85  1  0  0  0
  8  9  1  0  0  0
  8 86  1  0  0  0
  9 10  1  0  0  0
  9 12  1  0  0  0
  9 87  1  0  0  0
 10 11  2  0  0  0
 10 15  1  0  0  0
 12 13  1  0  0  0
 12 14  1  0  0  0
 12 88  1  0  0  0
 13 89  1  0  0  0
 13 90  1  0  0  0
 13 91  1  0  0  0
 14 92  1  0  0  0
 14 93  1  0  0  0
 14 94  1  0  0  0
 15 16  1  0  0  0
 15 95  1  0  0  0
 16 17  1  0  0  0
 16 19  1  0  0  0
 16 96  1  0  0  0
 17 18  2  0  0  0
 17 26  1  0  0  0
 19 20  1  0  0  0
 19 97  1  0  0  0
 19 98  1  0  0  0
 20 21  1  0  0  0
 20 99  1  0  0  0
 20100  1  0  0  0
 21 22  1  0  0  0
 21101  1  0  0  0
 21102  1  0  0  0
 22 23  1  0  0  0
 22103  1  0  0  0
 23 24  2  0  0  0
 23 25  1  0  0  0
 24104  1  0  0  0
 25105  1  0  0  0
 25106  1  0  0  0
 26 27  1  0  0  0
 26 32  1  0  0  0
 27 28  1  0  0  0
 27 30  1  0  0  0
 27107  1  0  0  0
 28 29  2  0  0  0
 28 33  1  0  0  0
 30 31  1  0  0  0
 30108  1  0  0  0
 30109  1  0  0  0
 31 32  1  0  0  0
 31110  1  0  0  0
 31111  1  0  0  0
 32112  1  0  0  0
 32113  1  0  0  0
 33 34  1  0  0  0
 33114  1  0  0  0
 34 35  1  0  0  0
 34115  1  0  0  0
 34116  1  0  0  0
 35 36  2  0  0  0
 35 37  1  0  0  0
 37 38  1  0  0  0
 37117  1  0  0  0
 38 39  1  0  0  0
 38 41  1  0  0  0
 38118  1  0  0  0
 39 40  2  0  0  0
 39 43  1  0  0  0
 41 42  1  0  0  0
 41119  1  0  0  0
 41120  1  0  0  0
 42121  1  0  0  0
 43 44  1  0  0  0
 43122  1  0  0  0
 44 45  1  0  0  0
 44 47  1  0  0  0
 44123  1  0  0  0
 45 46  2  0  0  0
 45 51  1  0  0  0
 47 48  1  0  0  0
 47124  1  0  0  0
 47125  1  0  0  0
 48 49  1  0  0  0
 48 50  1  0  0  0
 48126  1  0  0  0
 49127  1  0  0  0
 49128  1  0  0  0
 49129  1  0  0  0
 50130  1  0  0  0
 50131  1  0  0  0
 50132  1  0  0  0
 51 52  1  0  0  0
 51133  1  0  0  0
 52 53  1  0  0  0
 52 55  1  0  0  0
 52134  1  0  0  0
 53 54  2  0  0  0
 53 59  1  0  0  0
 55 56  1  0  0  0
 55135  1  0  0  0
 55136  1  0  0  0
 56 57  2  0  0  0
 56 58  1  0  0  0
 58137  1  0  0  0
 59 60  1  0  0  0
 59138  1  0  0  0
 60 61  1  0  0  0
 60 63  1  0  0  0
 60139  1  0  0  0
 61 62  2  0  0  0
 61 67  1  0  0  0
 63 64  1  0  0  0
 63140  1  0  0  0
 63141  1  0  0  0
 64 65  1  0  0  0
 64 66  1  0  0  0
 64142  1  0  0  0
 65143  1  0  0  0
 65144  1  0  0  0
 65145  1  0  0  0
 66146  1  0  0  0
 66147  1  0  0  0
 66148  1  0  0  0
 67 68  1  0  0  0
 67 73  1  0  0  0
 68 69  1  0  0  0
 68 71  1  0  0  0
 68149  1  0  0  0
 69 70  1  0  0  0
 69 74  2  0  0  0
 70150  1  0  0  0
 71 72  1  0  0  0
 71151  1  0  0  0
 71152  1  0  0  0
 72 73  1  0  0  0
 72153  1  0  0  0
 72154  1  0  0  0
 73155  1  0  0  0
 73156  1  0  0  0
M  CHG  1   1   1
M  END
> <s_m_source_file>
../4h3b_ligand.sdf

> <i_m_source_file_index>
1

> <s_epik_input>
W0NIM11bQ0hdKFtDSDNdKVtDQEhdKFtOSDMrXSlDKD1PKVtOSF1bQ0BASF0oW0NIXShbQ0gzXSlbQ0gzXSlDKD1PKVtOSF1bQ0BASF0oW0NIMl1bQ0gyXVtDSDJdW05IXS9DKD1OXFtIXSlbTkgyXSlDKD1PKU4xW0NAQEhdKFtDSDJdW0NIMl1bQ0gyXTEpQyg9TylbTkhdW0NIMl1DKD1PKVtOSF1bQ0BASF0oW0NIMl1bT0hdKUMoPU8pW05IXVtDQEBIXShbQ0gyXVtDSF0oW0NIM10pW0NIM10pQyg9TylbTkhdW0NAQEhdKFtDSDJdQyg9TylbT0hdKUMoPU8pW05IXVtDQEBIXShbQ0gyXVtDSF0oW0NIM10pW0NIM10pQyg9TylOMltDQEhdKEMoPU8pW09IXSlbQ0gyXVtDSDJdW0NIMl0y

> <s_epik_cmdline>
J2VwaWtfYXBwJywgJy1pbWFlJywgJ2xpZ2FuZF9wcm8ubWFlJywgJy1vbWFlJywgJ2xpZ2FuZF9wcmVwLm1hZScsICctbXMnLCAnMScsICctcGgnLCAnNycsICctcGh0JywgJzAuNScsICctbnQn

> <s_epik_pKa_notes>
Molecule size exceeds maximum supported for generating protonation states

> <s_epik_Chemistry_Notes>
This compound has an imine and may undergo hydrolysis.

$$$$
