4h3c_ligand
                    3D
 Schrodinger Suite 2020-3.
 54 54  0  0  1  0            999 V2000
   43.6830   20.4740   66.3350 O   0  5  0  0  0  0
   42.6770   19.7970   66.6280 C   0  0  0  0  0  0
   42.5280   19.3790   67.7810 O   0  0  0  0  0  0
   41.6050   19.5150   65.5700 C   0  0  3  0  0  0
   40.4940   18.7410   65.7990 O   0  0  0  0  0  0
   41.9010   20.0800   64.2100 C   0  0  0  0  0  0
   40.9090   19.8850   63.1320 C   0  0  0  0  0  0
   39.9280   19.1950   63.3140 O   0  0  0  0  0  0
   41.3030   20.4400   61.9370 C   0  0  0  0  0  0
   42.0540   21.5930   61.9350 C   0  0  0  0  0  0
   41.0030   19.8130   60.7610 C   0  0  0  0  0  0
   41.4290   20.3640   59.5830 C   0  0  0  0  0  0
   42.1800   21.4970   59.5750 C   0  0  0  0  0  0
   42.4740   22.1340   60.7410 C   0  0  0  0  0  0
   43.2100   23.2430   60.6060 O   0  0  0  0  0  0
   43.2670   24.2760   61.5180 C   0  0  0  0  0  0
   44.2270   25.3180   60.9270 C   0  0  0  0  0  0
   43.5100   26.2040   59.9430 C   0  0  0  0  0  0
   44.3410   27.4100   59.6110 C   0  0  0  0  0  0
   43.8490   28.1040   58.3850 C   0  0  0  0  0  0
   44.9010   29.1130   58.0510 C   0  0  0  0  0  0
   44.9940   29.4090   56.5850 C   0  0  0  0  0  0
   46.2790   30.1530   56.4750 C   0  0  0  0  0  0
   46.8820   30.0560   55.1250 C   0  0  0  0  0  0
   47.5590   31.3570   54.8470 C   0  0  0  0  0  0
   40.5843   19.2251   65.8599 H   0  0  0  0  0  0
   40.3010   18.3397   66.8049 H   0  0  0  0  0  0
   42.0225   21.1707   64.2846 H   0  0  0  0  0  0
   42.8281   19.6335   63.8213 H   0  0  0  0  0  0
   42.3156   22.0765   62.8762 H   0  0  0  0  0  0
   40.4312   18.8850   60.7609 H   0  0  0  0  0  0
   41.1627   19.8883   58.6391 H   0  0  0  0  0  0
   42.5484   21.8971   58.6304 H   0  0  0  0  0  0
   42.2610   24.6989   61.6563 H   0  0  0  0  0  0
   43.6403   23.8955   62.4802 H   0  0  0  0  0  0
   44.6343   25.9419   61.7362 H   0  0  0  0  0  0
   45.0510   24.8053   60.4092 H   0  0  0  0  0  0
   43.3143   25.6416   59.0181 H   0  0  0  0  0  0
   42.5564   26.5381   60.3776 H   0  0  0  0  0  0
   44.3043   28.1224   60.4484 H   0  0  0  0  0  0
   45.3825   27.1013   59.4377 H   0  0  0  0  0  0
   43.7223   27.3710   57.5746 H   0  0  0  0  0  0
   42.8831   28.5850   58.5986 H   0  0  0  0  0  0
   44.6786   30.0589   58.5665 H   0  0  0  0  0  0
   45.8833   28.7401   58.3767 H   0  0  0  0  0  0
   45.0020   28.4651   56.0202 H   0  0  0  0  0  0
   44.1278   30.0131   56.2772 H   0  0  0  0  0  0
   46.1059   31.2176   56.6910 H   0  0  0  0  0  0
   47.0018   29.7452   57.1970 H   0  0  0  0  0  0
   47.6090   29.2307   55.1066 H   0  0  0  0  0  0
   46.0922   29.8655   54.3834 H   0  0  0  0  0  0
   48.0209   31.3241   53.8492 H   0  0  0  0  0  0
   48.3359   31.5354   55.6050 H   0  0  0  0  0  0
   46.8191   32.1702   54.8819 H   0  0  0  0  0  0
  1  2  1  0  0  0
  2  3  2  0  0  0
  2  4  1  0  0  0
  4  5  1  0  0  0
  4  6  1  0  0  0
  4 26  1  0  0  0
  5 27  1  0  0  0
  6  7  1  0  0  0
  6 28  1  0  0  0
  6 29  1  0  0  0
  7  8  2  0  0  0
  7  9  1  0  0  0
  9 10  2  0  0  0
  9 11  1  0  0  0
 10 14  1  0  0  0
 10 30  1  0  0  0
 11 12  2  0  0  0
 11 31  1  0  0  0
 12 13  1  0  0  0
 12 32  1  0  0  0
 13 14  2  0  0  0
 13 33  1  0  0  0
 14 15  1  0  0  0
 15 16  1  0  0  0
 16 17  1  0  0  0
 16 34  1  0  0  0
 16 35  1  0  0  0
 17 18  1  0  0  0
 17 36  1  0  0  0
 17 37  1  0  0  0
 18 19  1  0  0  0
 18 38  1  0  0  0
 18 39  1  0  0  0
 19 20  1  0  0  0
 19 40  1  0  0  0
 19 41  1  0  0  0
 20 21  1  0  0  0
 20 42  1  0  0  0
 20 43  1  0  0  0
 21 22  1  0  0  0
 21 44  1  0  0  0
 21 45  1  0  0  0
 22 23  1  0  0  0
 22 46  1  0  0  0
 22 47  1  0  0  0
 23 24  1  0  0  0
 23 48  1  0  0  0
 23 49  1  0  0  0
 24 25  1  0  0  0
 24 50  1  0  0  0
 24 51  1  0  0  0
 25 52  1  0  0  0
 25 53  1  0  0  0
 25 54  1  0  0  0
M  CHG  1   1  -1
M  END
> <s_m_source_file>
../4h3c_ligand.sdf

> <i_m_source_file_index>
1

> <s_epik_input>
W09IXUMoPU8pW0NIXShbT0hdKVtDSDJdQyg9TyljMVtjSF1jKFtjSF1bY0hdW2NIXTEpT1tDSDJdW0NIMl1bQ0gyXVtDSDJdW0NIMl1bQ0gyXVtDSDJdW0NIMl1bQ0gyXVtDSDNd

> <s_epik_cmdline>
J2VwaWtfYXBwJywgJy1pbWFlJywgJ2xpZ2FuZF9wcm8ubWFlJywgJy1vbWFlJywgJ2xpZ2FuZF9wcmVwLm1hZScsICctbXMnLCAnMScsICctcGgnLCAnNycsICctcGh0JywgJzAuNScsICctbnQn

> <r_lp_tautomer_probability>
1

> <r_epik_Ionization_Penalty>
  0.0002

> <r_epik_Ionization_Penalty_Charging>
  0.0002

> <r_epik_Ionization_Penalty_Neutral>
  0.0000

> <r_epik_State_Penalty>
 -0.0000

> <r_epik_Charging_Adjusted_Penalty>
0.000170614284820095

> <i_epik_Tot_Q>
-1

> <i_epik_Tot_abs_Q>
1

$$$$
