4h3i_ligand
                    3D
 Schrodinger Suite 2020-3.
 56 60  0  0  1  0            999 V2000
   28.3940   10.9150   18.2840 C   0  0  0  0  0  0
   29.0800   10.5530   19.4740 C   0  0  0  0  0  0
   28.3190   10.3150   20.6500 C   0  0  0  0  0  0
   26.9150   10.4360   20.6350 C   0  0  0  0  0  0
   26.2070   10.7940   19.4600 C   0  0  0  0  0  0
   26.9740   11.0330   18.2820 C   0  0  0  0  0  0
   24.7030   10.9150   19.4840 C   0  0  0  0  0  0
   23.8900   10.4700   20.5640 C   0  0  0  0  0  0
   22.4680   10.6900   20.3660 C   0  0  0  0  0  0
   22.2430   11.4320   18.8520 S   0  0  0  0  0  0
   23.9120   11.4710   18.4590 C   0  0  0  0  0  0
   21.3480   10.3360   21.3170 C   0  0  2  0  0  0
   20.7340   11.6290   21.8870 C   0  0  2  0  0  0
   21.5060   12.2330   23.1010 C   0  0  0  0  0  0
   22.2770   11.3440   23.8600 N   0  0  0  0  0  0
   22.3160    9.9770   23.6180 C   0  0  0  0  0  0
   21.8350    9.4830   22.4300 N   0  3  0  0  0  0
   22.8060    9.1340   24.5260 N   0  0  0  0  0  0
   20.1640    9.6030   20.6520 C   0  0  0  0  0  0
   23.0710   11.9480   24.9740 C   0  0  0  0  0  0
   21.4180   13.4350   23.3480 O   0  0  0  0  0  0
   28.9630    9.9470   21.8800 C   0  0  0  0  0  0
   29.4520    9.6480   22.8880 N   0  0  0  0  0  0
   19.3020   11.2590   22.2360 C   0  0  0  0  0  0
   18.9810   10.1530   21.3180 N   0  0  0  0  0  0
   15.3710    9.1180   21.6510 C   0  0  0  0  0  0
   16.6400    9.6270   22.0600 C   0  0  0  0  0  0
   17.6840    9.6770   21.0620 C   0  0  0  0  0  0
   16.2280    8.7630   19.4300 C   0  0  0  0  0  0
   15.1600    8.6830   20.3310 C   0  0  0  0  0  0
   16.0550    9.6820   24.4530 C   0  0  0  0  0  0
   16.8920   10.0720   23.3770 O   0  0  0  0  0  0
   17.4470    9.2450   19.7850 N   0  0  0  0  0  0
   28.9559   11.1032   17.3691 H   0  0  0  0  0  0
   30.1660   10.4599   19.4847 H   0  0  0  0  0  0
   26.3576   10.2490   21.5528 H   0  0  0  0  0  0
   26.4632   11.3119   17.3604 H   0  0  0  0  0  0
   24.2986   10.0049   21.4611 H   0  0  0  0  0  0
   24.3120   11.8764   17.5297 H   0  0  0  0  0  0
   20.7688   12.4310   21.1350 H   0  0  0  0  0  0
   21.7951    8.3966   22.2620 H   0  0  0  0  0  0
   23.1938    9.5186   25.4808 H   0  0  0  0  0  0
   20.1638    9.8113   19.5719 H   0  0  0  0  0  0
   20.2642    8.5200   20.8165 H   0  0  0  0  0  0
   22.9031   13.0349   24.9965 H   0  0  0  0  0  0
   24.1403   11.7453   24.8139 H   0  0  0  0  0  0
   22.7536   11.5080   25.9309 H   0  0  0  0  0  0
   19.2499   10.9490   23.2901 H   0  0  0  0  0  0
   18.6492   12.1300   22.0773 H   0  0  0  0  0  0
   14.5548    9.0659   22.3715 H   0  0  0  0  0  0
   16.0756    8.4257   18.4047 H   0  0  0  0  0  0
   14.1911    8.2940   20.0178 H   0  0  0  0  0  0
   16.4227   10.1340   25.3860 H   0  0  0  0  0  0
   16.0658    8.5861   24.5473 H   0  0  0  0  0  0
   15.0272   10.0234   24.2604 H   0  0  0  0  0  0
   22.8227    8.0534   24.3208 H   0  0  0  0  0  0
  1  2  2  0  0  0
  1  6  1  0  0  0
  1 34  1  0  0  0
  2  3  1  0  0  0
  2 35  1  0  0  0
  3  4  2  0  0  0
  3 22  1  0  0  0
  4  5  1  0  0  0
  4 36  1  0  0  0
  5  6  2  0  0  0
  5  7  1  0  0  0
  6 37  1  0  0  0
  7  8  1  0  0  0
  7 11  2  0  0  0
  8  9  2  0  0  0
  8 38  1  0  0  0
  9 10  1  0  0  0
  9 12  1  0  0  0
 10 11  1  0  0  0
 11 39  1  0  0  0
 12 13  1  0  0  0
 12 17  1  0  0  0
 12 19  1  0  0  0
 13 14  1  0  0  0
 13 24  1  0  0  0
 13 40  1  0  0  0
 14 15  1  0  0  0
 14 21  2  0  0  0
 15 16  1  0  0  0
 15 20  1  0  0  0
 16 17  2  0  0  0
 16 18  1  0  0  0
 17 41  1  0  0  0
 18 42  1  0  0  0
 18 56  1  0  0  0
 19 25  1  0  0  0
 19 43  1  0  0  0
 19 44  1  0  0  0
 20 45  1  0  0  0
 20 46  1  0  0  0
 20 47  1  0  0  0
 22 23  3  0  0  0
 24 25  1  0  0  0
 24 48  1  0  0  0
 24 49  1  0  0  0
 25 28  1  0  0  0
 26 27  2  0  0  0
 26 30  1  0  0  0
 26 50  1  0  0  0
 27 28  1  0  0  0
 27 32  1  0  0  0
 28 33  2  0  0  0
 29 30  2  0  0  0
 29 33  1  0  0  0
 29 51  1  0  0  0
 30 52  1  0  0  0
 31 32  1  0  0  0
 31 53  1  0  0  0
 31 54  1  0  0  0
 31 55  1  0  0  0
M  CHG  1  17   1
M  END
> <s_m_source_file>
../4h3i_ligand.sdf

> <i_m_source_file_index>
1

> <s_epik_input>
TiNDYzFbY0hdW2NIXVtjSF1jKFtjSF0xKS1jMltjSF1jKHNbY0hdMilbQ0BdMzRbQ0BIXShDKD1PKU4oW0NIM10pL0MoW05IXTMpPU5cW0hdKVtDSDJdTihbQ0gyXTQpYzVuW2NIXVtjSF1bY0hdYzVPW0NIM10=

> <s_epik_cmdline>
J2VwaWtfYXBwJywgJy1pbWFlJywgJ2xpZ2FuZF9wcm8ubWFlJywgJy1vbWFlJywgJ2xpZ2FuZF9wcmVwLm1hZScsICctbXMnLCAnMScsICctcGgnLCAnNycsICctcGh0JywgJzAuNScsICctbnQn

> <r_lp_tautomer_probability>
1

> <r_epik_Ionization_Penalty>
  0.0320

> <r_epik_Ionization_Penalty_Charging>
  0.0066

> <r_epik_Ionization_Penalty_Neutral>
  0.0254

> <r_epik_State_Penalty>
 -0.0000

> <r_epik_Charging_Adjusted_Penalty>
0.00661190421076093

> <i_epik_Tot_Q>
1

> <i_epik_Tot_abs_Q>
1

> <s_epik_Chemistry_Notes>
This compound has an imine and may undergo hydrolysis.

$$$$
