4h3q_ligand
                    3D
 Schrodinger Suite 2020-3.
194195  0  0  1  0            999 V2000
  -18.9070   19.8850   27.7160 N   0  3  0  0  0  0
  -17.7090   19.9440   28.5510 C   0  0  2  0  0  0
  -16.8970   18.7040   28.1780 C   0  0  0  0  0  0
  -15.7850   18.4480   28.6570 O   0  0  0  0  0  0
  -18.1310   19.9490   30.0220 C   0  0  0  0  0  0
  -17.5190   17.9780   27.2610 N   0  0  0  0  0  0
  -17.0630   16.7600   26.5860 C   0  0  2  0  0  0
  -15.5910   16.2530   26.4910 C   0  0  0  0  0  0
  -15.3480   15.1310   26.9240 O   0  0  0  0  0  0
  -17.6480   16.7720   25.1630 C   0  0  0  0  0  0
  -17.4760   15.4440   24.4560 C   0  0  0  0  0  0
  -16.6810   15.6190   23.1800 C   0  0  0  0  0  0
  -17.5390   15.4230   22.0200 N   0  0  0  0  0  0
  -17.6570   14.2650   21.3900 C   0  0  0  0  0  0
  -18.4700   14.1470   20.3480 N   0  0  0  0  0  0
  -16.9440   13.2240   21.8000 N   0  0  0  0  0  0
  -14.6510   17.0100   25.9000 N   0  0  0  0  0  0
  -13.2930   16.4920   25.6060 C   0  0  2  0  0  0
  -12.2910   16.7540   26.7580 C   0  0  0  0  0  0
  -12.0710   17.8900   27.1460 O   0  0  0  0  0  0
  -12.7530   17.0680   24.2870 C   0  0  0  0  0  0
  -11.9200   16.0900   23.4010 C   0  0  0  0  0  0
  -12.5480   15.8410   22.0220 C   0  0  0  0  0  0
  -11.9520   16.7500   20.9560 C   0  0  0  0  0  0
  -11.0950   16.0140   19.9870 N   0  3  0  0  0  0
  -11.6310   15.6990   27.2900 N   0  0  0  0  0  0
  -10.7310   15.9210   28.4390 C   0  0  2  0  0  0
   -9.3030   16.2670   28.0380 C   0  0  0  0  0  0
   -8.6540   15.4960   27.3280 O   0  0  0  0  0  0
  -10.7300   14.5610   29.1300 C   0  0  0  0  0  0
  -10.8370   13.6120   27.9830 C   0  0  0  0  0  0
  -11.7310   14.2650   26.9580 C   0  0  0  0  0  0
   -8.8160   17.4210   28.4810 N   0  0  0  0  0  0
   -7.4010   17.7390   28.3000 C   0  0  2  0  0  0
   -6.7100   18.0270   29.6570 C   0  0  0  0  0  0
   -7.2270   18.8470   30.4210 O   0  0  0  0  0  0
   -7.1740   18.8220   27.1680 C   0  0  0  0  0  0
   -8.3820   18.8720   26.2170 C   0  0  0  0  0  0
   -6.8590   20.2090   27.7260 C   0  0  0  0  0  0
   -5.6030   17.3610   30.0370 N   0  0  0  0  0  0
   -4.7250   16.3910   29.3190 C   0  0  2  0  0  0
   -3.5710   17.0190   28.5350 C   0  0  0  0  0  0
   -3.7750   17.5660   27.4550 O   0  0  0  0  0  0
   -5.4460   15.3070   28.4870 C   0  0  0  0  0  0
   -5.3420   13.8310   28.8920 C   0  0  0  0  0  0
   -3.8930   13.4310   29.0310 C   0  0  0  0  0  0
   -6.1080   13.5450   30.1690 C   0  0  0  0  0  0
   -2.3500   16.9330   29.0920 N   0  0  0  0  0  0
   -1.1230   17.4260   28.4570 C   0  0  2  0  0  0
   -0.8420   16.7760   27.1050 C   0  0  0  0  0  0
   -1.1730   15.6060   26.9040 O   0  0  0  0  0  0
   -0.0300   17.0440   29.4630 C   0  0  0  0  0  0
   -0.6560   16.0380   30.3760 C   0  0  0  0  0  0
   -2.0890   16.4270   30.4490 C   0  0  0  0  0  0
   -0.2240   17.5350   26.2010 N   0  0  0  0  0  0
    0.0880   17.0570   24.8540 C   0  0  2  0  0  0
    1.1920   16.0010   24.8530 C   0  0  0  0  0  0
    2.1480   16.0960   25.6170 O   0  0  0  0  0  0
    0.4800   18.2270   23.9630 C   0  0  0  0  0  0
    1.0550   14.9950   23.9960 N   0  0  0  0  0  0
    2.0940   13.9820   23.8270 C   0  0  2  0  0  0
    3.1010   14.4840   22.8080 C   0  0  0  0  0  0
    2.7800   15.3570   22.0030 O   0  0  0  0  0  0
    1.4860   12.6700   23.3340 C   0  0  0  0  0  0
    0.5660   11.9100   24.2850 C   0  0  0  0  0  0
   -0.4840   11.1250   23.5180 C   0  0  0  0  0  0
    1.3830   11.0020   25.1710 C   0  0  0  0  0  0
    4.3180   13.9460   22.8430 N   0  0  0  0  0  0
    5.3160   14.3000   21.8370 C   0  0  2  0  0  0
    5.5560   13.1160   20.9340 C   0  0  0  0  0  0
    5.8690   12.0260   21.4040 O   0  0  0  0  0  0
    6.6620   14.7340   22.4440 C   0  0  2  0  0  0
    6.4610   15.8580   23.3100 O   0  0  0  0  0  0
    7.6320   15.1370   21.3350 C   0  0  0  0  0  0
    5.4170   13.3380   19.6330 N   0  0  0  0  0  0
    5.5190   12.2560   18.6650 C   0  0  2  0  0  0
    6.7160   12.3920   17.7360 C   0  0  0  0  0  0
    6.8200   13.3550   16.9770 O   0  0  0  0  0  0
    4.2520   12.1670   17.8070 C   0  0  2  0  0  0
    3.0260   12.0190   18.7060 C   0  0  0  0  0  0
    4.3600   11.0070   16.8370 C   0  0  0  0  0  0
    1.7250   12.2620   18.0010 C   0  0  0  0  0  0
    7.6030   11.4060   17.8050 N   0  0  0  0  0  0
    8.7740   11.3240   16.9460 C   0  0  2  0  0  0
    8.4720   11.5750   15.4720 C   0  0  0  0  0  0
    8.5899   12.7254   14.9717 O   0  0  0  0  0  0
    9.4240    9.9510   17.1080 C   0  0  0  0  0  0
    8.0989   10.6171   14.7435 O   0  0  0  0  0  0
  -18.6149   19.8809   26.6555 H   0  0  0  0  0  0
  -19.5389   20.7622   27.9189 H   0  0  0  0  0  0
  -19.4688   18.9675   27.9451 H   0  0  0  0  0  0
  -17.1349   20.8635   28.3641 H   0  0  0  0  0  0
  -18.7099   20.8599   30.2343 H   0  0  0  0  0  0
  -17.2355   19.9266   30.6604 H   0  0  0  0  0  0
  -18.7509   19.0641   30.2286 H   0  0  0  0  0  0
  -18.5046   18.4036   27.0211 H   0  0  0  0  0  0
  -17.4610   16.0924   27.3644 H   0  0  0  0  0  0
  -18.7243   16.9940   25.2109 H   0  0  0  0  0  0
  -17.1409   17.5432   24.5645 H   0  0  0  0  0  0
  -16.9420   14.7440   25.1154 H   0  0  0  0  0  0
  -18.4644   15.0308   24.2062 H   0  0  0  0  0  0
  -16.2589   16.6343   23.1473 H   0  0  0  0  0  0
  -15.8652   14.8817   23.1522 H   0  0  0  0  0  0
  -18.1306   16.2622   21.6254 H   0  0  0  0  0  0
  -19.0601   15.0117   20.0101 H   0  0  0  0  0  0
  -18.5539   13.1845   19.8221 H   0  0  0  0  0  0
  -16.2708   13.3245   22.6641 H   0  0  0  0  0  0
  -14.9150   18.0439   25.6330 H   0  0  0  0  0  0
  -13.4403   15.4067   25.5043 H   0  0  0  0  0  0
  -13.5937   17.4038   23.6621 H   0  0  0  0  0  0
  -12.0927   17.9210   24.5025 H   0  0  0  0  0  0
  -10.9155   16.5078   23.2385 H   0  0  0  0  0  0
  -11.8351   15.1177   23.9083 H   0  0  0  0  0  0
  -12.3730   14.7971   21.7225 H   0  0  0  0  0  0
  -13.6302   16.0315   22.0721 H   0  0  0  0  0  0
  -12.7628   17.2321   20.3901 H   0  0  0  0  0  0
  -11.3316   17.5209   21.4365 H   0  0  0  0  0  0
  -10.6937   16.7185   19.2437 H   0  0  0  0  0  0
  -11.6946   15.2454   19.4774 H   0  0  0  0  0  0
  -10.2634   15.5341   20.5238 H   0  0  0  0  0  0
  -11.0957   16.7732   29.0313 H   0  0  0  0  0  0
   -9.7959   14.4390   29.6979 H   0  0  0  0  0  0
  -11.5873   14.4978   29.8164 H   0  0  0  0  0  0
   -9.8361   13.4263   27.5662 H   0  0  0  0  0  0
  -11.2709   12.6631   28.3314 H   0  0  0  0  0  0
  -12.7785   13.9408   27.0447 H   0  0  0  0  0  0
  -11.3807   14.1018   25.9281 H   0  0  0  0  0  0
   -9.4807   18.1379   28.9851 H   0  0  0  0  0  0
   -6.9577   16.7997   27.9378 H   0  0  0  0  0  0
   -6.2862   18.5414   26.5822 H   0  0  0  0  0  0
   -8.5865   17.8626   25.8306 H   0  0  0  0  0  0
   -8.1603   19.5479   25.3779 H   0  0  0  0  0  0
   -9.2630   19.2413   26.7624 H   0  0  0  0  0  0
   -5.9931   20.1445   28.4013 H   0  0  0  0  0  0
   -7.7299   20.5872   28.2814 H   0  0  0  0  0  0
   -6.6272   20.8938   26.8969 H   0  0  0  0  0  0
   -5.3774   17.6421   31.0763 H   0  0  0  0  0  0
   -4.2904   15.8890   30.1960 H   0  0  0  0  0  0
   -6.5279   15.5056   28.4850 H   0  0  0  0  0  0
   -5.0679   15.3256   27.4542 H   0  0  0  0  0  0
   -5.7945   13.2137   28.1020 H   0  0  0  0  0  0
   -3.3610   13.6484   28.0931 H   0  0  0  0  0  0
   -3.8290   12.3545   29.2478 H   0  0  0  0  0  0
   -3.4332   13.9986   29.8534 H   0  0  0  0  0  0
   -7.1586   13.8449   30.0413 H   0  0  0  0  0  0
   -5.6626   14.1134   30.9988 H   0  0  0  0  0  0
   -6.0584   12.4692   30.3932 H   0  0  0  0  0  0
   -1.2267   18.5020   28.2531 H   0  0  0  0  0  0
    0.8297   16.6170   28.9258 H   0  0  0  0  0  0
    0.2905   17.9403   30.0142 H   0  0  0  0  0  0
   -0.5291   15.0304   29.9534 H   0  0  0  0  0  0
   -0.1709   16.0858   31.3621 H   0  0  0  0  0  0
   -2.2781   17.2261   31.1809 H   0  0  0  0  0  0
   -2.7530   15.5750   30.6567 H   0  0  0  0  0  0
    0.0532   18.5566   26.5000 H   0  0  0  0  0  0
   -0.8424   16.5918   24.4964 H   0  0  0  0  0  0
   -0.3221   18.9797   23.9721 H   0  0  0  0  0  0
    0.6350   17.8688   22.9346 H   0  0  0  0  0  0
    1.4104   18.6781   24.3384 H   0  0  0  0  0  0
    0.1290   14.9369   23.4052 H   0  0  0  0  0  0
    2.5629   13.8333   24.8109 H   0  0  0  0  0  0
    0.8780   12.8617   22.4375 H   0  0  0  0  0  0
    2.2914   11.9628   23.0865 H   0  0  0  0  0  0
    0.0362   12.6295   24.9266 H   0  0  0  0  0  0
   -1.0628   11.8111   22.8822 H   0  0  0  0  0  0
   -1.1594   10.6253   24.2280 H   0  0  0  0  0  0
    0.0098   10.3702   22.8884 H   0  0  0  0  0  0
    2.1334   11.5965   25.7128 H   0  0  0  0  0  0
    1.8902   10.2463   24.5532 H   0  0  0  0  0  0
    0.7210   10.5014   25.8928 H   0  0  0  0  0  0
    4.5693   13.2291   23.6385 H   0  0  0  0  0  0
    4.8663   15.1443   21.2940 H   0  0  0  0  0  0
    7.0851   13.9325   23.0673 H   0  0  0  0  0  0
    5.7904   15.7709   24.1776 H   0  0  0  0  0  0
    7.7953   14.2822   20.6622 H   0  0  0  0  0  0
    8.5908   15.4422   21.7795 H   0  0  0  0  0  0
    7.2084   15.9768   20.7647 H   0  0  0  0  0  0
    5.2209   14.3650   19.2913 H   0  0  0  0  0  0
    5.6536   11.3723   19.3061 H   0  0  0  0  0  0
    4.1396   13.0863   17.2135 H   0  0  0  0  0  0
    2.9908   10.9976   19.1128 H   0  0  0  0  0  0
    3.0886   12.7412   19.5333 H   0  0  0  0  0  0
    5.2497   11.1400   16.2040 H   0  0  0  0  0  0
    3.4611   10.9737   16.2038 H   0  0  0  0  0  0
    4.4475   10.0657   17.3994 H   0  0  0  0  0  0
    0.8943   12.1374   18.7112 H   0  0  0  0  0  0
    1.6143   11.5416   17.1771 H   0  0  0  0  0  0
    1.7121   13.2853   17.5976 H   0  0  0  0  0  0
    7.4178   10.6262   18.5584 H   0  0  0  0  0  0
    9.4200   12.1403   17.3016 H   0  0  0  0  0  0
    8.3677   12.8874   13.9066 H   0  0  0  0  0  0
    9.6412    9.7713   18.1713 H   0  0  0  0  0  0
   10.3605    9.9184   16.5318 H   0  0  0  0  0  0
    8.7383    9.1747   16.7375 H   0  0  0  0  0  0
  1  2  1  0  0  0
  1 89  1  0  0  0
  1 90  1  0  0  0
  1 91  1  0  0  0
  2  3  1  0  0  0
  2  5  1  0  0  0
  2 92  1  0  0  0
  3  4  2  0  0  0
  3  6  1  0  0  0
  5 93  1  0  0  0
  5 94  1  0  0  0
  5 95  1  0  0  0
  6  7  1  0  0  0
  6 96  1  0  0  0
  7  8  1  0  0  0
  7 10  1  0  0  0
  7 97  1  0  0  0
  8  9  2  0  0  0
  8 17  1  0  0  0
 10 11  1  0  0  0
 10 98  1  0  0  0
 10 99  1  0  0  0
 11 12  1  0  0  0
 11100  1  0  0  0
 11101  1  0  0  0
 12 13  1  0  0  0
 12102  1  0  0  0
 12103  1  0  0  0
 13 14  1  0  0  0
 13104  1  0  0  0
 14 15  1  0  0  0
 14 16  2  0  0  0
 15105  1  0  0  0
 15106  1  0  0  0
 16107  1  0  0  0
 17 18  1  0  0  0
 17108  1  0  0  0
 18 19  1  0  0  0
 18 21  1  0  0  0
 18109  1  0  0  0
 19 20  2  0  0  0
 19 26  1  0  0  0
 21 22  1  0  0  0
 21110  1  0  0  0
 21111  1  0  0  0
 22 23  1  0  0  0
 22112  1  0  0  0
 22113  1  0  0  0
 23 24  1  0  0  0
 23114  1  0  0  0
 23115  1  0  0  0
 24 25  1  0  0  0
 24116  1  0  0  0
 24117  1  0  0  0
 25118  1  0  0  0
 25119  1  0  0  0
 25120  1  0  0  0
 26 27  1  0  0  0
 26 32  1  0  0  0
 27 28  1  0  0  0
 27 30  1  0  0  0
 27121  1  0  0  0
 28 29  2  0  0  0
 28 33  1  0  0  0
 30 31  1  0  0  0
 30122  1  0  0  0
 30123  1  0  0  0
 31 32  1  0  0  0
 31124  1  0  0  0
 31125  1  0  0  0
 32126  1  0  0  0
 32127  1  0  0  0
 33 34  1  0  0  0
 33128  1  0  0  0
 34 35  1  0  0  0
 34 37  1  0  0  0
 34129  1  0  0  0
 35 36  2  0  0  0
 35 40  1  0  0  0
 37 38  1  0  0  0
 37 39  1  0  0  0
 37130  1  0  0  0
 38131  1  0  0  0
 38132  1  0  0  0
 38133  1  0  0  0
 39134  1  0  0  0
 39135  1  0  0  0
 39136  1  0  0  0
 40 41  1  0  0  0
 40137  1  0  0  0
 41 42  1  0  0  0
 41 44  1  0  0  0
 41138  1  0  0  0
 42 43  2  0  0  0
 42 48  1  0  0  0
 44 45  1  0  0  0
 44139  1  0  0  0
 44140  1  0  0  0
 45 46  1  0  0  0
 45 47  1  0  0  0
 45141  1  0  0  0
 46142  1  0  0  0
 46143  1  0  0  0
 46144  1  0  0  0
 47145  1  0  0  0
 47146  1  0  0  0
 47147  1  0  0  0
 48 49  1  0  0  0
 48 54  1  0  0  0
 49 50  1  0  0  0
 49 52  1  0  0  0
 49148  1  0  0  0
 50 51  2  0  0  0
 50 55  1  0  0  0
 52 53  1  0  0  0
 52149  1  0  0  0
 52150  1  0  0  0
 53 54  1  0  0  0
 53151  1  0  0  0
 53152  1  0  0  0
 54153  1  0  0  0
 54154  1  0  0  0
 55 56  1  0  0  0
 55155  1  0  0  0
 56 57  1  0  0  0
 56 59  1  0  0  0
 56156  1  0  0  0
 57 58  2  0  0  0
 57 60  1  0  0  0
 59157  1  0  0  0
 59158  1  0  0  0
 59159  1  0  0  0
 60 61  1  0  0  0
 60160  1  0  0  0
 61 62  1  0  0  0
 61 64  1  0  0  0
 61161  1  0  0  0
 62 63  2  0  0  0
 62 68  1  0  0  0
 64 65  1  0  0  0
 64162  1  0  0  0
 64163  1  0  0  0
 65 66  1  0  0  0
 65 67  1  0  0  0
 65164  1  0  0  0
 66165  1  0  0  0
 66166  1  0  0  0
 66167  1  0  0  0
 67168  1  0  0  0
 67169  1  0  0  0
 67170  1  0  0  0
 68 69  1  0  0  0
 68171  1  0  0  0
 69 70  1  0  0  0
 69 72  1  0  0  0
 69172  1  0  0  0
 70 71  2  0  0  0
 70 75  1  0  0  0
 72 73  1  0  0  0
 72 74  1  0  0  0
 72173  1  0  0  0
 73174  1  0  0  0
 74175  1  0  0  0
 74176  1  0  0  0
 74177  1  0  0  0
 75 76  1  0  0  0
 75178  1  0  0  0
 76 77  1  0  0  0
 76 79  1  0  0  0
 76179  1  0  0  0
 77 78  2  0  0  0
 77 83  1  0  0  0
 79 80  1  0  0  0
 79 81  1  0  0  0
 79180  1  0  0  0
 80 82  1  0  0  0
 80181  1  0  0  0
 80182  1  0  0  0
 81183  1  0  0  0
 81184  1  0  0  0
 81185  1  0  0  0
 82186  1  0  0  0
 82187  1  0  0  0
 82188  1  0  0  0
 83 84  1  0  0  0
 83189  1  0  0  0
 84 85  1  0  0  0
 84 87  1  0  0  0
 84190  1  0  0  0
 85 86  1  0  0  0
 85 88  2  0  0  0
 86191  1  0  0  0
 87192  1  0  0  0
 87193  1  0  0  0
 87194  1  0  0  0
M  CHG  2   1   1  25   1
M  END
> <s_m_source_file>
../4h3q_ligand.sdf

> <i_m_source_file_index>
1

> <s_epik_input>
W0hdL049QyhbTkgyXSlcW05IXVtDSDJdW0NIMl1bQ0gyXVtDQEhdKFtOSF1DKD1PKVtDQEBIXShbTkgzK10pW0NIM10pQyg9TylbTkhdW0NAQEhdKFtDSDJdW0NIMl1bQ0gyXVtDSDJdW05IMytdKUMoPU8pTjFbQ0BASF0oW0NIMl1bQ0gyXVtDSDJdMSlDKD1PKVtOSF1bQ0BASF0oW0NIXShbQ0gzXSlbQ0gzXSlDKD1PKVtOSF1bQ0BASF0oW0NIMl1bQ0hdKFtDSDNdKVtDSDNdKUMoPU8pTjJbQ0BASF0oW0NIMl1bQ0gyXVtDSDJdMilDKD1PKVtOSF1bQ0BASF0oW0NIM10pQyg9TylbTkhdW0NAQEhdKFtDSDJdW0NIXShbQ0gzXSlbQ0gzXSlDKD1PKVtOSF1bQ0BASF0oW0NASF0oW09IXSlbQ0gzXSlDKD1PKVtOSF1bQ0BASF0oW0NAQEhdKFtDSDNdKVtDSDJdW0NIM10pQyg9TylbTkhdW0NAQEhdKFtDSDNdKUMoPU8pW09IXQ==

> <s_epik_cmdline>
J2VwaWtfYXBwJywgJy1pbWFlJywgJ2xpZ2FuZF9wcm8ubWFlJywgJy1vbWFlJywgJ2xpZ2FuZF9wcmVwLm1hZScsICctbXMnLCAnMScsICctcGgnLCAnNycsICctcGh0JywgJzAuNScsICctbnQn

> <s_epik_pKa_notes>
Molecule size exceeds maximum supported for generating protonation states

> <s_epik_Chemistry_Notes>
This compound has an imine and may undergo hydrolysis.

$$$$
