4h42_ligand
                    3D
 Schrodinger Suite 2020-3.
 25 26  0  0  1  0            999 V2000
  -23.5650  -15.9680    9.1480 O   0  5  0  0  0  0
  -24.3240  -15.1780    9.6200 C   0  0  0  0  0  0
  -25.0700  -14.6010    8.9600 O   0  0  0  0  0  0
  -24.4460  -14.9430   11.0440 C   0  0  0  0  0  0
  -25.6190  -15.7320   11.1910 N   0  0  0  0  0  0
  -26.4340  -15.7090   12.2300 C   0  0  0  0  0  0
  -26.2440  -15.0580   13.2400 O   0  0  0  0  0  0
  -27.5740  -16.6390   12.1050 C   0  0  0  0  0  0
  -27.9810  -17.3680   13.2430 C   0  0  0  0  0  0
  -28.1800  -16.8160   10.8600 C   0  0  0  0  0  0
  -29.2050  -17.7470   10.8010 C   0  0  0  0  0  0
  -30.0380  -18.0530    9.3970 S   0  0  0  0  0  0
  -29.6540  -18.4840   11.9250 C   0  0  0  0  0  0
  -29.0370  -18.2720   13.1610 C   0  0  0  0  0  0
  -30.6930  -19.3230   11.5740 N   0  0  0  0  0  0
  -31.0140  -19.1960   10.2630 C   0  0  0  0  0  0
  -32.0080  -19.9160    9.7120 N   0  0  0  0  0  0
  -23.5441  -15.3112   11.5550 H   0  0  0  0  0  0
  -24.5580  -13.8645   11.2294 H   0  0  0  0  0  0
  -25.9119  -16.4352   10.3974 H   0  0  0  0  0  0
  -27.4654  -17.2224   14.1922 H   0  0  0  0  0  0
  -27.8642  -16.2526    9.9819 H   0  0  0  0  0  0
  -29.3774  -18.8065   14.0479 H   0  0  0  0  0  0
  -32.2491  -19.7947    8.6456 H   0  0  0  0  0  0
  -32.5796  -20.6259   10.3279 H   0  0  0  0  0  0
  1  2  1  0  0  0
  2  3  2  0  0  0
  2  4  1  0  0  0
  4  5  1  0  0  0
  4 18  1  0  0  0
  4 19  1  0  0  0
  5  6  1  0  0  0
  5 20  1  0  0  0
  6  7  2  0  0  0
  6  8  1  0  0  0
  8  9  1  0  0  0
  8 10  2  0  0  0
  9 14  2  0  0  0
  9 21  1  0  0  0
 10 11  1  0  0  0
 10 22  1  0  0  0
 11 12  1  0  0  0
 11 13  2  0  0  0
 12 16  1  0  0  0
 13 14  1  0  0  0
 13 15  1  0  0  0
 14 23  1  0  0  0
 15 16  2  0  0  0
 16 17  1  0  0  0
 17 24  1  0  0  0
 17 25  1  0  0  0
M  CHG  1   1  -1
M  END
> <s_m_source_file>
../4h42_ligand.sdf

> <i_m_source_file_index>
1

> <s_epik_input>
W09IXUMoPU8pW0NIMl1bTkhdQyg9TyljKFtjSF0xKVtjSF1bY0hdYyhjMTIpbmMoczIpW05IMl0=

> <s_epik_cmdline>
J2VwaWtfYXBwJywgJy1pbWFlJywgJ2xpZ2FuZF9wcm8ubWFlJywgJy1vbWFlJywgJ2xpZ2FuZF9wcmVwLm1hZScsICctbXMnLCAnMScsICctcGgnLCAnNycsICctcGh0JywgJzAuNScsICctbnQn

> <r_lp_tautomer_probability>
1

> <r_epik_Ionization_Penalty>
  0.0004

> <r_epik_Ionization_Penalty_Charging>
  0.0003

> <r_epik_Ionization_Penalty_Neutral>
  0.0001

> <r_epik_State_Penalty>
 -0.0000

> <r_epik_Charging_Adjusted_Penalty>
0.000299894157892998

> <i_epik_Tot_Q>
-1

> <i_epik_Tot_abs_Q>
1

$$$$
