4h4b_ligand
                    3D
 Schrodinger Suite 2020-3.
 30 32  0  0  1  0            999 V2000
   -2.3510   20.3060   57.6760 O   0  5  0  0  0  0
   -3.5400   19.5800   57.2180 S   0  0  0  0  0  0
   -4.1640   20.3730   56.1920 O   0  0  0  0  0  0
   -4.4660   19.5220   58.3240 O   0  0  0  0  0  0
   -2.9020   18.0370   56.6680 C   0  0  0  0  0  0
   -2.8830   16.8990   57.4980 C   0  0  0  0  0  0
   -2.3000   15.7170   57.0370 C   0  0  0  0  0  0
   -1.7240   15.6910   55.7310 C   0  0  0  0  0  0
   -1.0780   14.4220   55.2090 C   0  0  0  0  0  0
   -1.0520   13.4160   55.9060 O   0  0  0  0  0  0
   -0.4630   14.4190   53.8170 C   0  0  0  0  0  0
   -0.4800   15.5510   53.0120 C   0  0  0  0  0  0
    0.1040   15.5230   51.7140 C   0  0  0  0  0  0
    0.6980   14.3520   51.2390 C   0  0  0  0  0  0
    0.7100   13.2050   52.0560 C   0  0  0  0  0  0
    0.1420   13.2330   53.3330 C   0  0  0  0  0  0
    1.4760   11.6930   51.5500 S   0  0  0  0  0  0
    0.4900   10.7190   51.0420 O   0  5  0  0  0  0
    2.2220   11.2020   52.6950 O   0  0  0  0  0  0
    2.5420   11.9560   50.5980 O   0  0  0  0  0  0
   -1.1320   16.8180   53.5320 C   0  0  0  0  0  0
   -1.1610   17.8280   52.8480 O   0  0  0  0  0  0
   -1.7420   16.8250   54.9230 C   0  0  0  0  0  0
   -2.3350   18.0140   55.4010 C   0  0  0  0  0  0
   -3.3212   16.9410   58.4951 H   0  0  0  0  0  0
   -2.2849   14.8266   57.6655 H   0  0  0  0  0  0
    0.0874   16.4167   51.0902 H   0  0  0  0  0  0
    1.1476   14.3259   50.2464 H   0  0  0  0  0  0
    0.1647   12.3402   53.9578 H   0  0  0  0  0  0
   -2.3475   18.9088   54.7787 H   0  0  0  0  0  0
  1  2  1  0  0  0
  2  3  2  0  0  0
  2  4  2  0  0  0
  2  5  1  0  0  0
  5  6  2  0  0  0
  5 24  1  0  0  0
  6  7  1  0  0  0
  6 25  1  0  0  0
  7  8  2  0  0  0
  7 26  1  0  0  0
  8  9  1  0  0  0
  8 23  1  0  0  0
  9 10  2  0  0  0
  9 11  1  0  0  0
 11 12  2  0  0  0
 11 16  1  0  0  0
 12 13  1  0  0  0
 12 21  1  0  0  0
 13 14  2  0  0  0
 13 27  1  0  0  0
 14 15  1  0  0  0
 14 28  1  0  0  0
 15 16  2  0  0  0
 15 17  1  0  0  0
 16 29  1  0  0  0
 17 18  1  0  0  0
 17 19  2  0  0  0
 17 20  2  0  0  0
 21 22  2  0  0  0
 21 23  1  0  0  0
 23 24  2  0  0  0
 24 30  1  0  0  0
M  CHG  2   1  -1  18  -1
M  END
> <s_m_source_file>
../4h4b_ligand.sdf

> <i_m_source_file_index>
1

> <s_epik_input>
W09IXVMoPU8pKD1PKWMoW2NIXVtjSF0xKVtjSF1jKGMxMilDKD1PKWMzYyhDMj1PKVtjSF1jKFtjSF1bY0hdMylTKD1PKSg9TylbT0hd

> <s_epik_cmdline>
J2VwaWtfYXBwJywgJy1pbWFlJywgJ2xpZ2FuZF9wcm8ubWFlJywgJy1vbWFlJywgJ2xpZ2FuZF9wcmVwLm1hZScsICctbXMnLCAnMScsICctcGgnLCAnNycsICctcGh0JywgJzAuNScsICctbnQn

> <r_lp_tautomer_probability>
1

> <r_epik_Ionization_Penalty>
  0.0000

> <r_epik_Ionization_Penalty_Charging>
  0.0000

> <r_epik_Ionization_Penalty_Neutral>
  0.0000

> <r_epik_State_Penalty>
 -0.0000

> <r_epik_Charging_Adjusted_Penalty>
1.06098128496407e-06

> <i_epik_Tot_Q>
-2

> <i_epik_Tot_abs_Q>
2

$$$$
