4h4d_ligand
                    3D
 Schrodinger Suite 2020-3.
 26 25  0  0  1  0            999 V2000
  -25.8170    1.0630  -18.5820 O   0  0  0  0  0  0
  -26.1890    0.8560  -17.1130 P   0  0  0  0  0  0
  -27.4030    1.7270  -16.7010 O   0  5  0  0  0  0
  -25.0090    0.8920  -16.1150 O   0  5  0  0  0  0
  -26.7750   -0.6190  -17.0720 O   0  0  0  0  0  0
  -26.3140   -2.0800  -16.7740 P   0  0  1  0  0  0
  -27.3730   -3.0020  -17.2600 O   0  5  0  0  0  0
  -24.9240   -2.3000  -17.2350 O   0  0  0  0  0  0
  -26.1610   -2.1630  -15.1820 O   0  0  0  0  0  0
  -27.3310   -2.1640  -14.2180 C   0  0  0  0  0  0
  -27.8940   -0.8160  -14.2020 C   0  0  0  0  0  0
  -29.1350   -0.4530  -14.5040 C   0  0  0  0  0  0
  -30.2280   -1.3440  -14.7410 C   0  0  0  0  0  0
  -29.5280    1.0130  -14.3640 C   0  0  0  0  0  0
  -29.8360    1.2310  -12.9420 N   0  3  0  0  0  0
  -28.0849   -2.8896  -14.5572 H   0  0  0  0  0  0
  -26.9788   -2.4435  -13.2141 H   0  0  0  0  0  0
  -27.1579   -0.0576  -13.8970 H   0  0  0  0  0  0
  -29.8498   -2.3733  -14.8276 H   0  0  0  0  0  0
  -30.7365   -1.0604  -15.6743 H   0  0  0  0  0  0
  -30.9385   -1.2837  -13.9034 H   0  0  0  0  0  0
  -28.6907    1.6494  -14.6862 H   0  0  0  0  0  0
  -30.4075    1.2185  -14.9920 H   0  0  0  0  0  0
  -30.1271    2.2803  -12.7866 H   0  0  0  0  0  0
  -28.9472    1.0033  -12.3352 H   0  0  0  0  0  0
  -30.6640    0.5723  -12.6410 H   0  0  0  0  0  0
  1  2  2  0  0  0
  2  3  1  0  0  0
  2  4  1  0  0  0
  2  5  1  0  0  0
  5  6  1  0  0  0
  6  7  1  0  0  0
  6  8  2  0  0  0
  6  9  1  0  0  0
  9 10  1  0  0  0
 10 11  1  0  0  0
 10 16  1  0  0  0
 10 17  1  0  0  0
 11 12  2  0  0  0
 11 18  1  0  0  0
 12 13  1  0  0  0
 12 14  1  0  0  0
 13 19  1  0  0  0
 13 20  1  0  0  0
 13 21  1  0  0  0
 14 15  1  0  0  0
 14 22  1  0  0  0
 14 23  1  0  0  0
 15 24  1  0  0  0
 15 25  1  0  0  0
 15 26  1  0  0  0
M  CHG  4   3  -1   4  -1   7  -1  15   1
M  END
> <s_m_source_file>
../4h4d_ligand.sdf

> <i_m_source_file_index>
1

> <s_epik_input>
Tz1QKFtPSF0pKFtPSF0pT1tQQF0oPU8pKFtPSF0pT1tDSDJdL1tDSF09QyhcW0NIM10pW0NIMl1bTkgzK10=

> <s_epik_cmdline>
J2VwaWtfYXBwJywgJy1pbWFlJywgJ2xpZ2FuZF9wcm8ubWFlJywgJy1vbWFlJywgJ2xpZ2FuZF9wcmVwLm1hZScsICctbXMnLCAnMScsICctcGgnLCAnNycsICctcGh0JywgJzAuNScsICctbnQn

> <r_epik_Ionization_Penalty>
  0.0912

> <r_epik_Ionization_Penalty_Charging>
  0.0912

> <r_epik_Ionization_Penalty_Neutral>
  0.0000

> <r_epik_State_Penalty>
  0.0755

> <r_epik_Charging_Adjusted_Penalty>
0.166741709780433

> <i_epik_Tot_Q>
-2

> <i_epik_Tot_abs_Q>
4

$$$$
