4h58_ligand
                    3D
 Schrodinger Suite 2020-3.
 53 56  0  0  1  0            999 V2000
   37.5430  121.6730   78.4140 C   0  0  0  0  0  0
   36.5040  122.4850   77.8550 O   0  0  0  0  0  0
   35.3350  121.7710   77.4210 C   0  0  0  0  0  0
   34.2500  122.7160   76.8650 C   0  0  0  0  0  0
   32.9020  122.5300   77.4650 N   0  3  0  0  0  0
   31.8430  122.0980   76.5050 C   0  0  0  0  0  0
   30.4250  122.0890   77.0820 C   0  0  0  0  0  0
   29.7180  120.8950   77.2650 C   0  0  0  0  0  0
   28.4250  120.8970   77.8030 C   0  0  0  0  0  0
   27.8290  122.1060   78.1530 C   0  0  0  0  0  0
   28.5420  123.2850   77.9640 C   0  0  0  0  0  0
   29.8210  123.2800   77.4350 C   0  0  0  0  0  0
   26.5390  122.3010   78.7300 N   0  0  0  0  0  0
   25.4960  121.4480   79.1950 C   0  0  0  0  0  0
   25.5940  120.0660   79.1540 N   0  0  0  0  0  0
   24.5520  119.2690   79.6100 C   0  0  0  0  0  0
   24.6670  117.8950   79.5550 C   0  0  0  0  0  0
   23.6390  117.0780   80.0020 C   0  0  0  0  0  0
   22.4710  117.6180   80.5240 C   0  0  0  0  0  0
   22.3410  119.0060   80.5700 C   0  0  0  0  0  0
   23.3820  119.8200   80.1200 C   0  0  0  0  0  0
   23.2810  121.1960   80.1640 C   0  0  0  0  0  0
   24.3290  121.9950   79.7070 N   0  0  0  0  0  0
   21.3980  116.6920   80.9550 C   0  0  0  0  0  0
   21.6880  115.4720   81.5490 C   0  0  0  0  0  0
   20.6500  114.6250   81.9130 C   0  0  0  0  0  0
   19.3240  114.9770   81.6830 N   0  0  0  0  0  0
   19.0360  116.1830   81.0800 C   0  0  0  0  0  0
   20.0700  117.0300   80.7120 C   0  0  0  0  0  0
   38.3871  122.3120   78.7126 H   0  0  0  0  0  0
   37.8825  120.9440   77.6635 H   0  0  0  0  0  0
   37.1573  121.1394   79.2952 H   0  0  0  0  0  0
   35.6120  121.0628   76.6262 H   0  0  0  0  0  0
   34.9058  121.2194   78.2704 H   0  0  0  0  0  0
   34.5418  123.7599   77.0526 H   0  0  0  0  0  0
   34.1427  122.5543   75.7823 H   0  0  0  0  0  0
   32.9526  121.7597   78.2486 H   0  0  0  0  0  0
   32.5624  123.4791   77.9053 H   0  0  0  0  0  0
   31.8314  122.7789   75.6411 H   0  0  0  0  0  0
   32.0543  121.0743   76.1622 H   0  0  0  0  0  0
   30.1809  119.9489   76.9844 H   0  0  0  0  0  0
   27.8889  119.9589   77.9468 H   0  0  0  0  0  0
   28.0831  124.2347   78.2388 H   0  0  0  0  0  0
   30.3542  124.2205   77.2963 H   0  0  0  0  0  0
   26.1611  123.3199   78.9005 H   0  0  0  0  0  0
   25.5765  117.4463   79.1555 H   0  0  0  0  0  0
   23.7497  115.9953   79.9426 H   0  0  0  0  0  0
   21.4265  119.4551   80.9574 H   0  0  0  0  0  0
   22.3772  121.6607   80.5581 H   0  0  0  0  0  0
   22.7229  115.1808   81.7285 H   0  0  0  0  0  0
   20.8775  113.6698   82.3862 H   0  0  0  0  0  0
   18.0008  116.4690   80.8936 H   0  0  0  0  0  0
   19.8389  117.9769   80.2240 H   0  0  0  0  0  0
  1  2  1  0  0  0
  1 30  1  0  0  0
  1 31  1  0  0  0
  1 32  1  0  0  0
  2  3  1  0  0  0
  3  4  1  0  0  0
  3 33  1  0  0  0
  3 34  1  0  0  0
  4  5  1  0  0  0
  4 35  1  0  0  0
  4 36  1  0  0  0
  5  6  1  0  0  0
  5 37  1  0  0  0
  5 38  1  0  0  0
  6  7  1  0  0  0
  6 39  1  0  0  0
  6 40  1  0  0  0
  7  8  2  0  0  0
  7 12  1  0  0  0
  8  9  1  0  0  0
  8 41  1  0  0  0
  9 10  2  0  0  0
  9 42  1  0  0  0
 10 11  1  0  0  0
 10 13  1  0  0  0
 11 12  2  0  0  0
 11 43  1  0  0  0
 12 44  1  0  0  0
 13 14  1  0  0  0
 13 45  1  0  0  0
 14 15  2  0  0  0
 14 23  1  0  0  0
 15 16  1  0  0  0
 16 17  2  0  0  0
 16 21  1  0  0  0
 17 18  1  0  0  0
 17 46  1  0  0  0
 18 19  2  0  0  0
 18 47  1  0  0  0
 19 20  1  0  0  0
 19 24  1  0  0  0
 20 21  2  0  0  0
 20 48  1  0  0  0
 21 22  1  0  0  0
 22 23  2  0  0  0
 22 49  1  0  0  0
 24 25  2  0  0  0
 24 29  1  0  0  0
 25 26  1  0  0  0
 25 50  1  0  0  0
 26 27  2  0  0  0
 26 51  1  0  0  0
 27 28  1  0  0  0
 28 29  2  0  0  0
 28 52  1  0  0  0
 29 53  1  0  0  0
M  CHG  1   5   1
M  END
> <s_m_source_file>
../4h58_ligand.sdf

> <i_m_source_file_index>
1

> <s_epik_input>
W0NIM11PW0NIMl1bQ0gyXVtOSDIrXVtDSDJdYzFbY0hdW2NIXWMoW2NIXVtjSF0xKVtOSF1jKG4yKW5bY0hdYyhjMjMpW2NIXWMoW2NIXVtjSF0zKS1jNFtjSF1bY0hdbltjSF1bY0hdNA==

> <s_epik_cmdline>
J2VwaWtfYXBwJywgJy1pbWFlJywgJ2xpZ2FuZF9wcm8ubWFlJywgJy1vbWFlJywgJ2xpZ2FuZF9wcmVwLm1hZScsICctbXMnLCAnMScsICctcGgnLCAnNycsICctcGh0JywgJzAuNScsICctbnQn

> <r_epik_Ionization_Penalty>
  0.0379

> <r_epik_Ionization_Penalty_Charging>
  0.0323

> <r_epik_Ionization_Penalty_Neutral>
  0.0055

> <r_epik_State_Penalty>
  0.0268

> <r_epik_Charging_Adjusted_Penalty>
0.0591213353423805

> <i_epik_Tot_Q>
1

> <i_epik_Tot_abs_Q>
1

$$$$
