4h5c_ligand
                    3D
 Schrodinger Suite 2020-3.
 44 45  0  0  1  0            999 V2000
   14.7700   36.4560   -8.0540 O   0  5  0  0  0  0
   14.9980   35.2520   -7.1580 P   0  0  0  0  0  0
   16.4280   35.2730   -6.6610 O   0  0  0  0  0  0
   14.0320   35.1990   -5.9720 O   0  5  0  0  0  0
   14.8340   33.7220   -8.1170 C   0  0  1  0  0  0
   16.0600   33.7480   -9.5160 P   0  0  0  0  0  0
   17.5490   33.5580   -8.9190 O   0  5  0  0  0  0
   15.9280   32.4540  -10.4190 O   0  0  0  0  0  0
   15.9610   35.0180  -10.3530 O   0  0  0  0  0  0
   15.0610   32.5500   -7.1930 N   0  0  0  0  0  0
   14.7930   31.3010   -7.6180 C   0  0  0  0  0  0
   15.5450   30.2390   -7.0720 C   0  0  0  0  0  0
   13.8360   31.0770   -8.5700 N   0  3  0  0  0  0
   13.5640   29.7890   -9.0390 C   0  0  0  0  0  0
   14.3210   28.7470   -8.4990 C   0  0  0  0  0  0
   15.3400   28.9380   -7.5200 C   0  0  0  0  0  0
   16.1300   27.8560   -6.9870 C   0  0  0  0  0  0
   16.1870   26.6340   -7.6790 C   0  0  0  0  0  0
   16.9260   25.5040   -7.2060 C   0  0  0  0  0  0
   16.8620   27.9350   -5.7640 C   0  0  0  0  0  0
   17.6170   26.8340   -5.2880 C   0  0  0  0  0  0
   17.6610   25.5990   -5.9970 C   0  0  0  0  0  0
   18.3300   24.4430   -5.5730 O   0  0  0  0  0  0
   19.1900   24.4860   -4.4200 C   0  0  0  0  0  0
   20.5410   24.9860   -4.8400 C   0  0  0  0  0  0
   19.4140   23.0650   -3.9290 C   0  0  0  0  0  0
   13.8065   33.4780   -8.4246 H   0  0  0  0  0  0
   15.9794   31.4556   -9.9602 H   0  0  0  0  0  0
   15.4443   32.7178   -6.1757 H   0  0  0  0  0  0
   16.2870   30.4382   -6.2987 H   0  0  0  0  0  0
   12.7967   29.6061   -9.7913 H   0  0  0  0  0  0
   14.1221   27.7326   -8.8447 H   0  0  0  0  0  0
   15.6432   26.5431   -8.6193 H   0  0  0  0  0  0
   16.9241   24.5731   -7.7730 H   0  0  0  0  0  0
   16.8399   28.8587   -5.1858 H   0  0  0  0  0  0
   18.1768   26.9344   -4.3582 H   0  0  0  0  0  0
   18.7033   25.1422   -3.6835 H   0  0  0  0  0  0
   20.4514   26.0183   -5.2093 H   0  0  0  0  0  0
   20.9373   24.3434   -5.6400 H   0  0  0  0  0  0
   21.2246   24.9628   -3.9785 H   0  0  0  0  0  0
   18.4558   22.6345   -3.6028 H   0  0  0  0  0  0
   20.1178   23.0758   -3.0837 H   0  0  0  0  0  0
   19.8305   22.4564   -4.7452 H   0  0  0  0  0  0
   13.2623   31.9202   -8.9823 H   0  0  0  0  0  0
  1  2  1  0  0  0
  2  3  2  0  0  0
  2  4  1  0  0  0
  2  5  1  0  0  0
  5  6  1  0  0  0
  5 10  1  0  0  0
  5 27  1  0  0  0
  6  7  1  0  0  0
  6  8  1  0  0  0
  6  9  2  0  0  0
  8 28  1  0  0  0
 10 11  1  0  0  0
 10 29  1  0  0  0
 11 12  2  0  0  0
 11 13  1  0  0  0
 12 16  1  0  0  0
 12 30  1  0  0  0
 13 14  2  0  0  0
 13 44  1  0  0  0
 14 15  1  0  0  0
 14 31  1  0  0  0
 15 16  2  0  0  0
 15 32  1  0  0  0
 16 17  1  0  0  0
 17 18  2  0  0  0
 17 20  1  0  0  0
 18 19  1  0  0  0
 18 33  1  0  0  0
 19 22  2  0  0  0
 19 34  1  0  0  0
 20 21  2  0  0  0
 20 35  1  0  0  0
 21 22  1  0  0  0
 21 36  1  0  0  0
 22 23  1  0  0  0
 23 24  1  0  0  0
 24 25  1  0  0  0
 24 26  1  0  0  0
 24 37  1  0  0  0
 25 38  1  0  0  0
 25 39  1  0  0  0
 25 40  1  0  0  0
 26 41  1  0  0  0
 26 42  1  0  0  0
 26 43  1  0  0  0
M  CHG  4   1  -1   4  -1   7  -1  13   1
M  END
> <s_m_source_file>
../4h5c_ligand.sdf

> <i_m_source_file_index>
1

> <s_epik_input>
W09IXVAoPU8pKFtPSF0pW0NIXShQKD1PKShbT0hdKVtPSF0pW05IXWMxW2NIXWMoW2NIXVtjSF1uMSktYzJbY0hdW2NIXWMoW2NIXVtjSF0yKU9bQ0hdKFtDSDNdKVtDSDNd

> <s_epik_cmdline>
J2VwaWtfYXBwJywgJy1pbWFlJywgJ2xpZ2FuZF9wcm8ubWFlJywgJy1vbWFlJywgJ2xpZ2FuZF9wcmVwLm1hZScsICctbXMnLCAnMScsICctcGgnLCAnNycsICctcGh0JywgJzAuNScsICctbnQn

> <r_lp_tautomer_probability>
0.999993852037798

> <r_epik_Ionization_Penalty>
  0.4686

> <r_epik_Ionization_Penalty_Charging>
  0.4686

> <r_epik_Ionization_Penalty_Neutral>
  0.0000

> <r_epik_State_Penalty>
  0.3302

> <r_epik_Charging_Adjusted_Penalty>
0.798846926630724

> <i_epik_Tot_Q>
-2

> <i_epik_Tot_abs_Q>
4

$$$$
