4h5d_ligand
                    3D
 Schrodinger Suite 2020-3.
 44 45  0  0  1  0            999 V2000
   16.3650   35.5510   -6.3130 O   0  5  0  0  0  0
   15.0430   35.3670   -7.1130 P   0  0  0  0  0  0
   14.1070   35.4140   -5.7750 O   0  5  0  0  0  0
   14.8300   36.5910   -7.9870 O   0  0  0  0  0  0
   14.9480   33.8760   -8.0240 C   0  0  1  0  0  0
   16.1750   33.8580   -9.4350 P   0  0  0  0  0  0
   17.6620   33.8150   -8.6430 O   0  5  0  0  0  0
   15.9070   32.6040  -10.2510 O   0  0  0  0  0  0
   15.9510   35.0910  -10.2700 O   0  0  0  0  0  0
   15.1910   32.7110   -7.1180 N   0  0  0  0  0  0
   14.8900   31.4740   -7.5260 C   0  0  0  0  0  0
   15.5890   30.3400   -7.0090 C   0  0  0  0  0  0
   13.8920   31.2860   -8.3660 N   0  3  0  0  0  0
   13.5680   30.0140   -8.8490 C   0  0  0  0  0  0
   14.2740   28.8950   -8.3800 C   0  0  0  0  0  0
   15.3370   29.0770   -7.4430 C   0  0  0  0  0  0
   16.1170   27.9730   -6.9470 C   0  0  0  0  0  0
   16.1590   26.7710   -7.6780 C   0  0  0  0  0  0
   16.8680   25.6350   -7.2000 C   0  0  0  0  0  0
   16.8250   28.0300   -5.7080 C   0  0  0  0  0  0
   17.5650   26.9330   -5.2350 C   0  0  0  0  0  0
   17.5860   25.7320   -5.9920 C   0  0  0  0  0  0
   18.3190   24.6040   -5.6210 O   0  0  0  0  0  0
   19.1460   24.6360   -4.4220 C   0  0  0  0  0  0
   20.4640   25.2510   -4.7680 C   0  0  0  0  0  0
   19.4810   23.1840   -4.2110 C   0  0  0  0  0  0
   13.9021   33.6702   -8.2953 H   0  0  0  0  0  0
   16.0245   31.6122   -9.7899 H   0  0  0  0  0  0
   15.6171   32.8724   -6.1168 H   0  0  0  0  0  0
   16.3484   30.4928   -6.2422 H   0  0  0  0  0  0
   12.7728   29.8924   -9.5845 H   0  0  0  0  0  0
   14.0133   27.8954   -8.7279 H   0  0  0  0  0  0
   15.6360   26.7096   -8.6324 H   0  0  0  0  0  0
   16.8561   24.7007   -7.7613 H   0  0  0  0  0  0
   16.7906   28.9447   -5.1161 H   0  0  0  0  0  0
   18.1166   27.0033   -4.2975 H   0  0  0  0  0  0
   18.6394   25.1690   -3.6039 H   0  0  0  0  0  0
   20.3307   26.3285   -4.9448 H   0  0  0  0  0  0
   20.8625   24.7768   -5.6770 H   0  0  0  0  0  0
   21.1685   25.1002   -3.9367 H   0  0  0  0  0  0
   18.5671   22.6314   -3.9476 H   0  0  0  0  0  0
   20.2133   23.0914   -3.3955 H   0  0  0  0  0  0
   19.9074   22.7680   -5.1357 H   0  0  0  0  0  0
   13.2896   32.1418   -8.7047 H   0  0  0  0  0  0
  1  2  1  0  0  0
  2  3  1  0  0  0
  2  4  2  0  0  0
  2  5  1  0  0  0
  5  6  1  0  0  0
  5 10  1  0  0  0
  5 27  1  0  0  0
  6  7  1  0  0  0
  6  8  1  0  0  0
  6  9  2  0  0  0
  8 28  1  0  0  0
 10 11  1  0  0  0
 10 29  1  0  0  0
 11 12  2  0  0  0
 11 13  1  0  0  0
 12 16  1  0  0  0
 12 30  1  0  0  0
 13 14  2  0  0  0
 13 44  1  0  0  0
 14 15  1  0  0  0
 14 31  1  0  0  0
 15 16  2  0  0  0
 15 32  1  0  0  0
 16 17  1  0  0  0
 17 18  2  0  0  0
 17 20  1  0  0  0
 18 19  1  0  0  0
 18 33  1  0  0  0
 19 22  2  0  0  0
 19 34  1  0  0  0
 20 21  2  0  0  0
 20 35  1  0  0  0
 21 22  1  0  0  0
 21 36  1  0  0  0
 22 23  1  0  0  0
 23 24  1  0  0  0
 24 25  1  0  0  0
 24 26  1  0  0  0
 24 37  1  0  0  0
 25 38  1  0  0  0
 25 39  1  0  0  0
 25 40  1  0  0  0
 26 41  1  0  0  0
 26 42  1  0  0  0
 26 43  1  0  0  0
M  CHG  4   1  -1   3  -1   7  -1  13   1
M  END
> <s_m_source_file>
../4h5d_ligand.sdf

> <i_m_source_file_index>
1

> <s_epik_input>
W09IXVAoPU8pKFtPSF0pW0NIXShQKD1PKShbT0hdKVtPSF0pW05IXWMxW2NIXWMoW2NIXVtjSF1uMSktYzJbY0hdW2NIXWMoW2NIXVtjSF0yKU9bQ0hdKFtDSDNdKVtDSDNd

> <s_epik_cmdline>
J2VwaWtfYXBwJywgJy1pbWFlJywgJ2xpZ2FuZF9wcm8ubWFlJywgJy1vbWFlJywgJ2xpZ2FuZF9wcmVwLm1hZScsICctbXMnLCAnMScsICctcGgnLCAnNycsICctcGh0JywgJzAuNScsICctbnQn

> <r_lp_tautomer_probability>
0.999993852037798

> <r_epik_Ionization_Penalty>
  0.4686

> <r_epik_Ionization_Penalty_Charging>
  0.4686

> <r_epik_Ionization_Penalty_Neutral>
  0.0000

> <r_epik_State_Penalty>
  0.3302

> <r_epik_Charging_Adjusted_Penalty>
0.798846926630724

> <i_epik_Tot_Q>
-2

> <i_epik_Tot_abs_Q>
4

$$$$
