4h5e_ligand
                    3D
 Schrodinger Suite 2020-3.
 25 24  0  0  1  0            999 V2000
    8.0710   34.9140   -1.9750 P   0  0  0  0  0  0
    6.7420   35.4970   -2.3550 O   0  5  0  0  0  0
    9.0050   35.7950   -1.2870 O   0  0  0  0  0  0
    8.0620   33.4930   -1.5860 O   0  5  0  0  0  0
    8.8470   34.8560   -3.4290 O   0  0  0  0  0  0
    8.2690   34.7350   -4.8620 P   0  0  2  0  0  0
    8.5680   35.8470   -5.7450 O   0  0  0  0  0  0
    7.1710   33.7430   -5.0930 O   0  5  0  0  0  0
    9.3320   33.7040   -5.5150 O   0  0  0  0  0  0
   10.8060   33.9930   -5.6380 C   0  0  0  0  0  0
   11.5710   32.8420   -6.3810 C   0  0  0  0  0  0
   11.0770   32.8620   -7.7910 C   0  0  0  0  0  0
   10.6880   31.6030   -8.4610 C   0  0  0  0  0  0
   10.8470   34.2070   -8.4890 C   0  0  0  0  0  0
   10.9510   34.9239   -6.2058 H   0  0  0  0  0  0
   11.2429   34.1037   -4.6346 H   0  0  0  0  0  0
   12.6534   33.0329   -6.3365 H   0  0  0  0  0  0
   11.3480   31.8805   -5.8955 H   0  0  0  0  0  0
   12.0094   32.3697   -8.1043 H   0  0  0  0  0  0
   10.9296   30.7508   -7.8088 H   0  0  0  0  0  0
   11.2380   31.5069   -9.4088 H   0  0  0  0  0  0
    9.6069   31.6145   -8.6640 H   0  0  0  0  0  0
   11.1976   35.0221   -7.8389 H   0  0  0  0  0  0
    9.7736   34.3359   -8.6921 H   0  0  0  0  0  0
   11.4047   34.2283   -9.4369 H   0  0  0  0  0  0
  1  2  1  0  0  0
  1  3  2  0  0  0
  1  4  1  0  0  0
  1  5  1  0  0  0
  5  6  1  0  0  0
  6  7  2  0  0  0
  6  8  1  0  0  0
  6  9  1  0  0  0
  9 10  1  0  0  0
 10 11  1  0  0  0
 10 15  1  0  0  0
 10 16  1  0  0  0
 11 12  1  0  0  0
 11 17  1  0  0  0
 11 18  1  0  0  0
 12 13  1  0  0  0
 12 14  1  0  0  0
 12 19  1  0  0  0
 13 20  1  0  0  0
 13 21  1  0  0  0
 13 22  1  0  0  0
 14 23  1  0  0  0
 14 24  1  0  0  0
 14 25  1  0  0  0
M  CHG  3   2  -1   4  -1   8  -1
M  END
> <s_m_source_file>
../4h5e_ligand.sdf

> <i_m_source_file_index>
1

> <s_epik_input>
W09IXVAoPU8pKFtPSF0pT1tQQF0oPU8pKFtPSF0pT1tDSDJdW0NIMl1bQ0hdKFtDSDNdKVtDSDNd

> <s_epik_cmdline>
J2VwaWtfYXBwJywgJy1pbWFlJywgJ2xpZ2FuZF9wcm8ubWFlJywgJy1vbWFlJywgJ2xpZ2FuZF9wcmVwLm1hZScsICctbXMnLCAnMScsICctcGgnLCAnNycsICctcGh0JywgJzAuNScsICctbnQn

> <r_epik_Ionization_Penalty>
  0.0881

> <r_epik_Ionization_Penalty_Charging>
  0.0881

> <r_epik_Ionization_Penalty_Neutral>
  0.0000

> <r_epik_State_Penalty>
  0.0770

> <r_epik_Charging_Adjusted_Penalty>
0.165057256995799

> <i_epik_Tot_Q>
-3

> <i_epik_Tot_abs_Q>
3

$$$$
