4h75_ligand
                    3D
 Schrodinger Suite 2020-3.
147146  0  0  1  0            999 V2000
    7.2660    9.7800   -6.1910 N   0  3  0  0  0  0
    7.6850    9.4970   -4.8200 C   0  0  2  0  0  0
    9.1550    9.0930   -4.7930 C   0  0  0  0  0  0
    9.7340    8.7830   -5.8350 O   0  0  0  0  0  0
    6.8210    8.3980   -4.2170 C   0  0  0  0  0  0
    9.7550    9.0990   -3.6050 N   0  0  0  0  0  0
   11.1550    8.7260   -3.4610 C   0  0  2  0  0  0
   11.3330    7.2730   -3.7930 C   0  0  0  0  0  0
   10.4280    6.4590   -3.6000 O   0  0  0  0  0  0
   11.6440    8.9280   -2.0290 C   0  0  0  0  0  0
   11.7420   10.3520   -1.6250 C   0  0  0  0  0  0
   12.0970   10.5050   -0.1510 C   0  0  0  0  0  0
   11.8270   11.8890    0.2080 N   0  0  0  0  0  0
   12.6560   12.8890   -0.0550 C   0  0  0  0  0  0
   13.8240   12.6360   -0.6350 N   0  0  0  0  0  0
   12.3320   14.1320    0.2800 N   0  3  0  0  0  0
   12.5170    6.9490   -4.2840 N   0  0  0  0  0  0
   12.8820    5.5650   -4.4820 C   0  0  2  0  0  0
   13.5560    5.0880   -3.2130 C   0  0  0  0  0  0
   14.4630    5.7500   -2.6870 O   0  0  0  0  0  0
   13.8260    5.3990   -5.6760 C   0  0  2  0  0  0
   13.3130    6.1400   -6.7920 O   0  0  0  0  0  0
   13.9420    3.9290   -6.0560 C   0  0  0  0  0  0
   13.0880    3.9530   -2.7070 N   0  0  0  0  0  0
   13.6820    3.3210   -1.5000 C   0  0  1  0  0  0
   12.7270    2.2170   -1.0480 C   0  0  0  0  0  0
   12.9920    1.6940    0.3560 C   0  0  0  0  0  0
   12.6330    2.6950    1.4550 C   0  0  0  0  0  0
   12.9680    2.0770    2.8090 C   0  0  0  0  0  0
   12.7530    2.9800    3.9540 N   0  3  0  0  0  0
   15.0190    2.7380   -1.8460 C   0  0  0  0  0  0
   15.1500    2.0210   -2.8450 O   0  0  0  0  0  0
   13.0960    2.2260    5.1750 C   0  0  0  0  0  0
   11.3600    3.4300    4.0390 C   0  0  0  0  0  0
   13.6000    4.1740    3.8510 C   0  0  0  0  0  0
   16.0360    3.0600   -1.0490 N   0  0  0  0  0  0
   17.3330    2.4090   -1.1890 C   0  0  2  0  0  0
   17.2600    1.0530   -0.4800 C   0  0  0  0  0  0
   16.9870    0.9880    0.7180 O   0  0  0  0  0  0
   18.4360    3.2750   -0.5770 C   0  0  0  0  0  0
   18.5080    4.6890   -1.1630 C   0  0  0  0  0  0
   19.6580    5.5020   -0.5820 C   0  0  0  0  0  0
   19.9340    5.4570    0.6250 O   0  0  0  0  0  0
   20.3360    6.2420   -1.4400 N   0  0  0  0  0  0
   17.4910   -0.0270   -1.2160 N   0  0  0  0  0  0
   17.2930   -1.3710   -0.6660 C   0  0  2  0  0  0
   18.3910   -1.7600    0.3170 C   0  0  0  0  0  0
   18.1920   -2.6150    1.1840 O   0  0  0  0  0  0
   17.2040   -2.4420   -1.7750 C   0  0  2  0  0  0
   18.2910   -2.2640   -2.6900 O   0  0  0  0  0  0
   15.8760   -2.3340   -2.5310 C   0  0  0  0  0  0
   19.5550   -1.1380    0.1690 N   0  0  0  0  0  0
   20.6600   -1.3720    1.0870 C   0  0  2  0  0  0
   20.9800   -0.0970    1.8540 C   0  0  0  0  0  0
   20.6760    1.0070    1.3950 O   0  0  0  0  0  0
   21.8800   -1.8690    0.3380 C   0  0  0  0  0  0
   21.5990   -0.2510    3.0190 N   0  0  0  0  0  0
   21.8700    0.8920    3.8810 C   0  0  2  0  0  0
   22.8140    0.5440    5.0340 C   0  0  0  0  0  0
   23.0500   -0.6270    5.3450 O   0  5  0  0  0  0
   20.5590    1.4290    4.4460 C   0  0  0  0  0  0
   20.1430    0.7630    5.7480 C   0  0  0  0  0  0
   19.0500   -0.2590    5.5760 C   0  0  0  0  0  0
   18.4230   -0.5600    6.8600 N   0  0  0  0  0  0
   19.0190   -1.2250    7.8410 C   0  0  0  0  0  0
   18.3720   -1.4540    8.9780 N   0  0  0  0  0  0
   20.2620   -1.6630    7.6860 N   0  3  0  0  0  0
   23.3560    1.4350    5.6920 O   0  0  0  0  0  0
    7.8995   10.5750   -6.6113 H   0  0  0  0  0  0
    6.2161   10.1081   -6.1932 H   0  0  0  0  0  0
    7.3671    8.8699   -6.8005 H   0  0  0  0  0  0
    7.5421   10.4292   -4.2538 H   0  0  0  0  0  0
    5.7651    8.7052   -4.2443 H   0  0  0  0  0  0
    7.1252    8.2230   -3.1745 H   0  0  0  0  0  0
    6.9485    7.4718   -4.7966 H   0  0  0  0  0  0
    9.1706    9.3937   -2.7209 H   0  0  0  0  0  0
   11.6959    9.3739   -4.1665 H   0  0  0  0  0  0
   10.9487    8.4379   -1.3316 H   0  0  0  0  0  0
   12.6458    8.4875   -1.9181 H   0  0  0  0  0  0
   12.5230   10.8488   -2.2194 H   0  0  0  0  0  0
   10.7766   10.8498   -1.7989 H   0  0  0  0  0  0
   11.4793    9.8197    0.4480 H   0  0  0  0  0  0
   13.1601   10.2646   -0.0030 H   0  0  0  0  0  0
   10.8927   12.1505    0.7264 H   0  0  0  0  0  0
   14.0890   11.6047   -0.9112 H   0  0  0  0  0  0
   14.5262   13.4578   -0.8391 H   0  0  0  0  0  0
   11.3639   14.3376    0.7601 H   0  0  0  0  0  0
   13.2278    7.7477   -4.5427 H   0  0  0  0  0  0
   11.9514    5.0147   -4.6848 H   0  0  0  0  0  0
   14.8191    5.8159   -5.4524 H   0  0  0  0  0  0
   13.1592    7.2259   -6.7072 H   0  0  0  0  0  0
   14.3353    3.3593   -5.2012 H   0  0  0  0  0  0
   14.6250    3.8243   -6.9119 H   0  0  0  0  0  0
   12.9495    3.5416   -6.3294 H   0  0  0  0  0  0
   12.2324    3.4797   -3.2110 H   0  0  0  0  0  0
   13.8335    4.0748   -0.7133 H   0  0  0  0  0  0
   11.6950    2.5975   -1.0595 H   0  0  0  0  0  0
   12.8090    1.3588   -1.7312 H   0  0  0  0  0  0
   12.3947    0.7864    0.5280 H   0  0  0  0  0  0
   14.0605    1.4554    0.4628 H   0  0  0  0  0  0
   13.2124    3.6191    1.3128 H   0  0  0  0  0  0
   11.5584    2.9247    1.4050 H   0  0  0  0  0  0
   12.3375    1.1908    2.9736 H   0  0  0  0  0  0
   14.0274    1.7814    2.8251 H   0  0  0  0  0  0
   12.4577    1.3329    5.2458 H   0  0  0  0  0  0
   12.9343    2.8632    6.0570 H   0  0  0  0  0  0
   14.1517    1.9198    5.1324 H   0  0  0  0  0  0
   10.6965    2.5561    4.1175 H   0  0  0  0  0  0
   11.1045    4.0044    3.1363 H   0  0  0  0  0  0
   11.2340    4.0670    4.9269 H   0  0  0  0  0  0
   14.6552    3.8704    3.7853 H   0  0  0  0  0  0
   13.4545    4.8046    4.7405 H   0  0  0  0  0  0
   13.3251    4.7420    2.9500 H   0  0  0  0  0  0
   15.8871    3.8290   -0.2767 H   0  0  0  0  0  0
   17.5296    2.2905   -2.2648 H   0  0  0  0  0  0
   18.2637    3.3780    0.5045 H   0  0  0  0  0  0
   19.4131    2.7999   -0.7490 H   0  0  0  0  0  0
   18.6521    4.6278   -2.2518 H   0  0  0  0  0  0
   17.5714    5.2237   -0.9466 H   0  0  0  0  0  0
   20.0535    6.2497   -2.5031 H   0  0  0  0  0  0
   21.1834    6.8508   -1.0917 H   0  0  0  0  0  0
   17.8359    0.0976   -2.2531 H   0  0  0  0  0  0
   16.3366   -1.2791   -0.1304 H   0  0  0  0  0  0
   17.3172   -3.4529   -1.3563 H   0  0  0  0  0  0
   19.3284   -2.3088   -2.3270 H   0  0  0  0  0  0
   15.0415   -2.4708   -1.8276 H   0  0  0  0  0  0
   15.8320   -3.1116   -3.3078 H   0  0  0  0  0  0
   15.8010   -1.3420   -3.0005 H   0  0  0  0  0  0
   19.6748   -0.4341   -0.6678 H   0  0  0  0  0  0
   20.3236   -2.1546    1.7830 H   0  0  0  0  0  0
   21.6254   -2.7895   -0.2078 H   0  0  0  0  0  0
   22.6891   -2.0787    1.0532 H   0  0  0  0  0  0
   22.2111   -1.0996   -0.3750 H   0  0  0  0  0  0
   21.9082   -1.2599    3.3299 H   0  0  0  0  0  0
   22.3602    1.6250    3.2233 H   0  0  0  0  0  0
   20.6591    2.5064    4.6441 H   0  0  0  0  0  0
   19.7510    1.2636    3.7182 H   0  0  0  0  0  0
   21.0091    0.2485    6.1897 H   0  0  0  0  0  0
   19.7735    1.5263    6.4486 H   0  0  0  0  0  0
   18.2858    0.1335    4.8890 H   0  0  0  0  0  0
   19.4755   -1.1846    5.1609 H   0  0  0  0  0  0
   17.3930   -0.2296    7.0600 H   0  0  0  0  0  0
   17.3416   -1.0912    9.1072 H   0  0  0  0  0  0
   18.8665   -2.0065    9.7906 H   0  0  0  0  0  0
   20.7985   -1.4737    6.7445 H   0  0  0  0  0  0
   13.0316   14.9563    0.0775 H   0  0  0  0  0  0
   20.7559   -2.2154    8.4990 H   0  0  0  0  0  0
  1  2  1  0  0  0
  1 69  1  0  0  0
  1 70  1  0  0  0
  1 71  1  0  0  0
  2  3  1  0  0  0
  2  5  1  0  0  0
  2 72  1  0  0  0
  3  4  2  0  0  0
  3  6  1  0  0  0
  5 73  1  0  0  0
  5 74  1  0  0  0
  5 75  1  0  0  0
  6  7  1  0  0  0
  6 76  1  0  0  0
  7  8  1  0  0  0
  7 10  1  0  0  0
  7 77  1  0  0  0
  8  9  2  0  0  0
  8 17  1  0  0  0
 10 11  1  0  0  0
 10 78  1  0  0  0
 10 79  1  0  0  0
 11 12  1  0  0  0
 11 80  1  0  0  0
 11 81  1  0  0  0
 12 13  1  0  0  0
 12 82  1  0  0  0
 12 83  1  0  0  0
 13 14  1  0  0  0
 13 84  1  0  0  0
 14 15  1  0  0  0
 14 16  2  0  0  0
 15 85  1  0  0  0
 15 86  1  0  0  0
 16 87  1  0  0  0
 16146  1  0  0  0
 17 18  1  0  0  0
 17 88  1  0  0  0
 18 19  1  0  0  0
 18 21  1  0  0  0
 18 89  1  0  0  0
 19 20  2  0  0  0
 19 24  1  0  0  0
 21 22  1  0  0  0
 21 23  1  0  0  0
 21 90  1  0  0  0
 22 91  1  0  0  0
 23 92  1  0  0  0
 23 93  1  0  0  0
 23 94  1  0  0  0
 24 25  1  0  0  0
 24 95  1  0  0  0
 25 26  1  0  0  0
 25 31  1  0  0  0
 25 96  1  0  0  0
 26 27  1  0  0  0
 26 97  1  0  0  0
 26 98  1  0  0  0
 27 28  1  0  0  0
 27 99  1  0  0  0
 27100  1  0  0  0
 28 29  1  0  0  0
 28101  1  0  0  0
 28102  1  0  0  0
 29 30  1  0  0  0
 29103  1  0  0  0
 29104  1  0  0  0
 30 33  1  0  0  0
 30 34  1  0  0  0
 30 35  1  0  0  0
 31 32  2  0  0  0
 31 36  1  0  0  0
 33105  1  0  0  0
 33106  1  0  0  0
 33107  1  0  0  0
 34108  1  0  0  0
 34109  1  0  0  0
 34110  1  0  0  0
 35111  1  0  0  0
 35112  1  0  0  0
 35113  1  0  0  0
 36 37  1  0  0  0
 36114  1  0  0  0
 37 38  1  0  0  0
 37 40  1  0  0  0
 37115  1  0  0  0
 38 39  2  0  0  0
 38 45  1  0  0  0
 40 41  1  0  0  0
 40116  1  0  0  0
 40117  1  0  0  0
 41 42  1  0  0  0
 41118  1  0  0  0
 41119  1  0  0  0
 42 43  2  0  0  0
 42 44  1  0  0  0
 44120  1  0  0  0
 44121  1  0  0  0
 45 46  1  0  0  0
 45122  1  0  0  0
 46 47  1  0  0  0
 46 49  1  0  0  0
 46123  1  0  0  0
 47 48  2  0  0  0
 47 52  1  0  0  0
 49 50  1  0  0  0
 49 51  1  0  0  0
 49124  1  0  0  0
 50125  1  0  0  0
 51126  1  0  0  0
 51127  1  0  0  0
 51128  1  0  0  0
 52 53  1  0  0  0
 52129  1  0  0  0
 53 54  1  0  0  0
 53 56  1  0  0  0
 53130  1  0  0  0
 54 55  2  0  0  0
 54 57  1  0  0  0
 56131  1  0  0  0
 56132  1  0  0  0
 56133  1  0  0  0
 57 58  1  0  0  0
 57134  1  0  0  0
 58 59  1  0  0  0
 58 61  1  0  0  0
 58135  1  0  0  0
 59 60  1  0  0  0
 59 68  2  0  0  0
 61 62  1  0  0  0
 61136  1  0  0  0
 61137  1  0  0  0
 62 63  1  0  0  0
 62138  1  0  0  0
 62139  1  0  0  0
 63 64  1  0  0  0
 63140  1  0  0  0
 63141  1  0  0  0
 64 65  1  0  0  0
 64142  1  0  0  0
 65 66  1  0  0  0
 65 67  2  0  0  0
 66143  1  0  0  0
 66144  1  0  0  0
 67145  1  0  0  0
 67147  1  0  0  0
M  CHG  5   1   1  16   1  30   1  60  -1  67   1
M  END
> <s_m_source_file>
../4h75_ligand.sdf

> <i_m_source_file_index>
1

> <s_epik_input>
W0hdL049QyhbTkgyXSlcW05IXVtDSDJdW0NIMl1bQ0gyXVtDQEhdKFtOSF1DKD1PKVtDQEBIXShbTkgzK10pW0NIM10pQyg9TylbTkhdW0NAQEhdKFtDQEhdKFtPSF0pW0NIM10pQyg9TylbTkhdW0NAQEhdKFtDSDJdW0NIMl1bQ0gyXVtDSDJdW04rXShbQ0gzXSkoW0NIM10pW0NIM10pQyg9TylbTkhdW0NAQEhdKFtDSDJdW0NIMl1DKD1PKVtOSDJdKUMoPU8pW05IXVtDQEBIXShbQ0BIXShbT0hdKVtDSDNdKUMoPU8pW05IXVtDQEBIXShbQ0gzXSlDKD1PKVtOSF1bQ0BIXShDKD1PKVtPSF0pW0NIMl1bQ0gyXVtDSDJdW05IXS9DKFtOSDJdKT1OXFtIXQ==

> <s_epik_cmdline>
J2VwaWtfYXBwJywgJy1pbWFlJywgJ2xpZ2FuZF9wcm8ubWFlJywgJy1vbWFlJywgJ2xpZ2FuZF9wcmVwLm1hZScsICctbXMnLCAnMScsICctcGgnLCAnNycsICctcGh0JywgJzAuNScsICctbnQn

> <r_epik_Ionization_Penalty>
  0.1252

> <r_epik_Ionization_Penalty_Charging>
  0.1252

> <r_epik_Ionization_Penalty_Neutral>
  0.0000

> <r_epik_State_Penalty>
  0.1145

> <r_epik_Charging_Adjusted_Penalty>
0.239738726244163

> <i_epik_Tot_Q>
3

> <i_epik_Tot_abs_Q>
5

> <s_epik_Chemistry_Notes>
This compound has an imine and may undergo hydrolysis.

$$$$
