4h7q_ligand
                    3D
 Schrodinger Suite 2020-3.
 18 17  0  0  1  0            999 V2000
   -7.9860  -31.9420   13.3750 C   0  0  0  0  0  0
   -8.5890  -31.4780   12.3760 O   0  0  0  0  0  0
   -7.0650  -32.7950   13.2360 O   0  5  0  0  0  0
   -8.3370  -31.5300   14.7470 C   0  0  0  0  0  0
   -8.6680  -30.3950   14.9730 O   0  0  0  0  0  0
   -8.2570  -32.5840   15.8360 C   0  0  0  0  0  0
   -9.3530  -32.6670   16.9020 C   0  0  0  0  0  0
   -8.9890  -32.1430   18.2000 C   0  0  0  0  0  0
  -10.6970  -32.2660   16.4240 C   0  0  0  0  0  0
   -8.2544  -33.5844   15.3786 H   0  0  0  0  0  0
   -7.3325  -32.4433   16.4153 H   0  0  0  0  0  0
   -9.4752  -33.7290   17.1612 H   0  0  0  0  0  0
   -7.9810  -32.4931   18.4672 H   0  0  0  0  0  0
   -9.7105  -32.4938   18.9525 H   0  0  0  0  0  0
   -8.9986  -31.0435   18.1674 H   0  0  0  0  0  0
  -10.8821  -32.7105   15.4350 H   0  0  0  0  0  0
  -10.7473  -31.1697   16.3485 H   0  0  0  0  0  0
  -11.4593  -32.6201   17.1337 H   0  0  0  0  0  0
  1  2  2  0  0  0
  1  3  1  0  0  0
  1  4  1  0  0  0
  4  5  2  0  0  0
  4  6  1  0  0  0
  6  7  1  0  0  0
  6 10  1  0  0  0
  6 11  1  0  0  0
  7  8  1  0  0  0
  7  9  1  0  0  0
  7 12  1  0  0  0
  8 13  1  0  0  0
  8 14  1  0  0  0
  8 15  1  0  0  0
  9 16  1  0  0  0
  9 17  1  0  0  0
  9 18  1  0  0  0
M  CHG  1   3  -1
M  END
> <s_m_source_file>
../4h7q_ligand.sdf

> <i_m_source_file_index>
1

> <s_epik_input>
Tz1DKFtPSF0pQyg9TylbQ0gyXVtDSF0oW0NIM10pW0NIM10=

> <s_epik_cmdline>
J2VwaWtfYXBwJywgJy1pbWFlJywgJ2xpZ2FuZF9wcm8ubWFlJywgJy1vbWFlJywgJ2xpZ2FuZF9wcmVwLm1hZScsICctbXMnLCAnMScsICctcGgnLCAnNycsICctcGh0JywgJzAuNScsICctbnQn

> <r_lp_tautomer_probability>
1

> <r_epik_Ionization_Penalty>
  0.0001

> <r_epik_Ionization_Penalty_Charging>
  0.0001

> <r_epik_Ionization_Penalty_Neutral>
  0.0000

> <r_epik_State_Penalty>
 -0.0000

> <r_epik_Charging_Adjusted_Penalty>
0.000132016901864659

> <i_epik_Tot_Q>
-1

> <i_epik_Tot_abs_Q>
1

$$$$
