4h81_ligand
                    3D
 Schrodinger Suite 2020-3.
 20 20  0  0  1  0            999 V2000
   -8.0110  -30.2200   15.0790 Cl  0  0  0  0  0  0
   -8.7870  -31.6470   14.4940 C   0  0  1  0  0  0
   -8.1370  -32.0140   13.2040 C   0  0  0  0  0  0
   -7.1240  -32.7590   13.2160 O   0  0  0  0  0  0
   -8.6180  -31.5700   12.1160 O   0  5  0  0  0  0
   -8.7110  -32.7540   15.5020 C   0  0  0  0  0  0
   -9.1550  -32.4170   16.8930 C   0  0  0  0  0  0
   -8.3500  -32.7150   17.9810 C   0  0  0  0  0  0
   -8.7460  -32.4010   19.2740 C   0  0  0  0  0  0
   -9.9600  -31.7690   19.4810 C   0  0  0  0  0  0
  -10.7670  -31.4700   18.3930 C   0  0  0  0  0  0
  -10.3680  -31.7870   17.1000 C   0  0  0  0  0  0
   -9.8648  -31.6133   14.2766 H   0  0  0  0  0  0
   -9.3463  -33.5908   15.1762 H   0  0  0  0  0  0
   -7.6698  -33.0974   15.5917 H   0  0  0  0  0  0
   -7.3896  -33.2043   17.8188 H   0  0  0  0  0  0
   -8.1056  -32.6503   20.1201 H   0  0  0  0  0  0
  -10.2791  -31.5085   20.4902 H   0  0  0  0  0  0
  -11.7271  -30.9798   18.5544 H   0  0  0  0  0  0
  -11.0084  -31.5401   16.2532 H   0  0  0  0  0  0
  1  2  1  0  0  0
  2  3  1  0  0  0
  2  6  1  0  0  0
  2 13  1  0  0  0
  3  4  2  0  0  0
  3  5  1  0  0  0
  6  7  1  0  0  0
  6 14  1  0  0  0
  6 15  1  0  0  0
  7  8  2  0  0  0
  7 12  1  0  0  0
  8  9  1  0  0  0
  8 16  1  0  0  0
  9 10  2  0  0  0
  9 17  1  0  0  0
 10 11  1  0  0  0
 10 18  1  0  0  0
 11 12  2  0  0  0
 11 19  1  0  0  0
 12 20  1  0  0  0
M  CHG  1   5  -1
M  END
> <s_m_source_file>
../4h81_ligand.sdf

> <i_m_source_file_index>
1

> <s_epik_input>
Tz1DKFtPSF0pW0NASF0oQ2wpW0NIMl1jMVtjSF1bY0hdW2NIXVtjSF1bY0hdMQ==

> <s_epik_cmdline>
J2VwaWtfYXBwJywgJy1pbWFlJywgJ2xpZ2FuZF9wcm8ubWFlJywgJy1vbWFlJywgJ2xpZ2FuZF9wcmVwLm1hZScsICctbXMnLCAnMScsICctcGgnLCAnNycsICctcGh0JywgJzAuNScsICctbnQn

> <r_lp_tautomer_probability>
1

> <r_epik_Ionization_Penalty>
  0.0000

> <r_epik_Ionization_Penalty_Charging>
  0.0000

> <r_epik_Ionization_Penalty_Neutral>
  0.0000

> <r_epik_State_Penalty>
 -0.0000

> <r_epik_Charging_Adjusted_Penalty>
4.74526565239697e-05

> <i_epik_Tot_Q>
-1

> <i_epik_Tot_abs_Q>
1

$$$$
