4hai_ligand
                    3D
 Schrodinger Suite 2020-3.
 62 64  0  0  1  0            999 V2000
   16.8890   10.7120   17.2100 O   0  0  0  0  0  0
   16.1000   10.7500   16.2920 C   0  0  0  0  0  0
   14.8020   11.0980   16.4820 N   0  0  0  0  0  0
   14.0860   11.3790   17.7560 C   0  0  0  0  0  0
   14.8690   12.0960   18.8600 C   0  0  0  0  0  0
   13.9400   12.9710   19.7110 C   0  0  0  0  0  0
   13.1740   12.2420   20.8210 C   0  0  0  0  0  0
   12.1990   11.2250   20.2580 C   0  0  0  0  0  0
   12.9780   10.0060   19.7660 C   0  0  0  0  0  0
   13.4830   10.0690   18.3050 C   0  0  0  0  0  0
   16.6490   10.3150   14.9270 C   0  0  0  0  0  0
   17.7060   11.2580   14.3650 C   0  0  0  0  0  0
   18.5310   10.5850   13.2630 C   0  0  0  0  0  0
   17.7130    9.6790   12.4400 N   0  0  3  0  0  0
   16.2360    9.7630   12.4360 C   0  0  0  0  0  0
   15.6270   10.1590   13.7950 C   0  0  0  0  0  0
   18.4840    8.6530   11.5570 S   0  0  0  0  0  0
   19.5060    9.3800   10.8510 O   0  0  0  0  0  0
   19.1540    7.7190   12.4310 O   0  0  0  0  0  0
   17.6280    7.8470   10.4300 C   0  0  0  0  0  0
   17.4950    6.3430   10.4030 C   0  0  0  0  0  0
   18.1290    5.4350   11.4290 C   0  0  0  0  0  0
   16.7450    5.7330    9.3960 C   0  0  0  0  0  0
   16.1150    6.4730    8.3910 C   0  0  0  0  0  0
   15.3190    5.7600    7.3240 C   0  0  0  0  0  0
   16.2090    7.8660    8.3540 C   0  0  0  0  0  0
   16.9330    8.5770    9.3150 C   0  0  0  0  0  0
   16.9810   10.0800    9.1960 C   0  0  0  0  0  0
   14.2657   11.1628   15.5238 H   0  0  0  0  0  0
   13.3324   12.1141   17.4372 H   0  0  0  0  0  0
   15.3485   11.3513   19.5123 H   0  0  0  0  0  0
   15.6398   12.7363   18.4062 H   0  0  0  0  0  0
   14.5289   13.7566   20.2071 H   0  0  0  0  0  0
   13.1801   13.4351   19.0652 H   0  0  0  0  0  0
   13.8862   11.7140   21.4721 H   0  0  0  0  0  0
   12.6060   12.9728   21.4154 H   0  0  0  0  0  0
   11.4923   10.9204   21.0440 H   0  0  0  0  0  0
   11.6447   11.6732   19.4202 H   0  0  0  0  0  0
   13.8712    9.8645   20.3922 H   0  0  0  0  0  0
   12.3397    9.1125   19.8304 H   0  0  0  0  0  0
   12.6031    9.7912   17.7061 H   0  0  0  0  0  0
   14.2339    9.2672   18.2472 H   0  0  0  0  0  0
   17.0629    9.3309   15.1920 H   0  0  0  0  0  0
   17.2160   12.1462   13.9395 H   0  0  0  0  0  0
   18.3881   11.5664   15.1710 H   0  0  0  0  0  0
   18.9605   11.3546   12.6047 H   0  0  0  0  0  0
   19.3421    9.9981   13.7188 H   0  0  0  0  0  0
   15.9137   10.5178   11.7036 H   0  0  0  0  0  0
   15.8138    8.7844   12.1639 H   0  0  0  0  0  0
   14.9016    9.3761   14.0612 H   0  0  0  0  0  0
   15.0989   11.1120   13.6438 H   0  0  0  0  0  0
   18.6867    6.0399   12.1592 H   0  0  0  0  0  0
   18.8175    4.7391   10.9272 H   0  0  0  0  0  0
   17.3448    4.8644   11.9481 H   0  0  0  0  0  0
   16.6477    4.6474    9.3932 H   0  0  0  0  0  0
   15.3511    4.6756    7.5057 H   0  0  0  0  0  0
   15.7509    5.9793    6.3364 H   0  0  0  0  0  0
   14.2752    6.1058    7.3527 H   0  0  0  0  0  0
   15.7054    8.4119    7.5562 H   0  0  0  0  0  0
   17.5835   10.4938   10.0180 H   0  0  0  0  0  0
   15.9597   10.4849    9.2501 H   0  0  0  0  0  0
   17.4349   10.3572    8.2331 H   0  0  0  0  0  0
  1  2  2  0  0  0
  2  3  1  0  0  0
  2 11  1  0  0  0
  3  4  1  0  0  0
  3 29  1  0  0  0
  4  5  1  0  0  0
  4 10  1  0  0  0
  4 30  1  0  0  0
  5  6  1  0  0  0
  5 31  1  0  0  0
  5 32  1  0  0  0
  6  7  1  0  0  0
  6 33  1  0  0  0
  6 34  1  0  0  0
  7  8  1  0  0  0
  7 35  1  0  0  0
  7 36  1  0  0  0
  8  9  1  0  0  0
  8 37  1  0  0  0
  8 38  1  0  0  0
  9 10  1  0  0  0
  9 39  1  0  0  0
  9 40  1  0  0  0
 10 41  1  0  0  0
 10 42  1  0  0  0
 11 12  1  0  0  0
 11 16  1  0  0  0
 11 43  1  0  0  0
 12 13  1  0  0  0
 12 44  1  0  0  0
 12 45  1  0  0  0
 13 14  1  0  0  0
 13 46  1  0  0  0
 13 47  1  0  0  0
 14 15  1  0  0  0
 14 17  1  0  0  0
 15 16  1  0  0  0
 15 48  1  0  0  0
 15 49  1  0  0  0
 16 50  1  0  0  0
 16 51  1  0  0  0
 17 18  2  0  0  0
 17 19  2  0  0  0
 17 20  1  0  0  0
 20 21  2  0  0  0
 20 27  1  0  0  0
 21 22  1  0  0  0
 21 23  1  0  0  0
 22 52  1  0  0  0
 22 53  1  0  0  0
 22 54  1  0  0  0
 23 24  2  0  0  0
 23 55  1  0  0  0
 24 25  1  0  0  0
 24 26  1  0  0  0
 25 56  1  0  0  0
 25 57  1  0  0  0
 25 58  1  0  0  0
 26 27  2  0  0  0
 26 59  1  0  0  0
 27 28  1  0  0  0
 28 60  1  0  0  0
 28 61  1  0  0  0
 28 62  1  0  0  0
M  END
> <s_m_source_file>
../4hai_ligand.sdf

> <i_m_source_file_index>
1

> <s_epik_input>
W0NIMl0xW0NIMl1bQ0gyXVtDSDJdW0NIMl1bQ0gyXVtDSF0xW05IXUMoPU8pW0NIXTJbQ0gyXVtDSDJdTihbQ0gyXVtDSDJdMilTKD1PKSg9TyljM2MoW0NIM10pW2NIXWMoW0NIM10pW2NIXWMzW0NIM10=

> <s_epik_cmdline>
J2VwaWtfYXBwJywgJy1pbWFlJywgJ2xpZ2FuZF9wcm8ubWFlJywgJy1vbWFlJywgJ2xpZ2FuZF9wcmVwLm1hZScsICctbXMnLCAnMScsICctcGgnLCAnNycsICctcGh0JywgJzAuNScsICctbnQn

> <r_lp_tautomer_probability>
1

> <r_epik_Ionization_Penalty>
  0.0000

> <r_epik_Ionization_Penalty_Charging>
  0.0000

> <r_epik_Ionization_Penalty_Neutral>
  0.0000

> <r_epik_State_Penalty>
 -0.0000

> <r_epik_Charging_Adjusted_Penalty>
0

> <i_epik_Tot_Q>
0

> <i_epik_Tot_abs_Q>
0

$$$$
