4hbn_ligand
                    3D
 Schrodinger Suite 2020-3.
 33 36  0  0  1  0            999 V2000
  -26.2400   -4.7880   44.7490 P   0  0  1  0  0  0
  -26.3260   -5.3780   46.1410 O   0  5  0  0  0  0
  -24.8340   -4.3430   44.4090 O   0  0  0  0  0  0
  -26.7390   -5.8510   43.6510 O   0  0  0  0  0  0
  -28.1170   -6.0420   43.3580 C   0  0  0  0  0  0
  -28.6530   -4.6390   43.1590 C   0  0  1  0  0  0
  -30.0320   -4.6220   42.8360 O   0  0  0  0  0  0
  -28.5980   -3.8790   44.4650 C   0  0  1  0  0  0
  -27.2450   -3.5320   44.6750 O   0  0  0  0  0  0
  -29.5370   -2.7220   44.2140 C   0  0  1  0  0  0
  -28.8350   -1.6760   43.5420 O   0  0  0  0  0  0
  -30.5390   -3.3660   43.2670 C   0  0  2  0  0  0
  -31.7600   -3.6720   44.0250 N   0  0  0  0  0  0
  -31.8650   -4.5560   45.0250 C   0  0  0  0  0  0
  -33.1330   -4.5890   45.5020 N   0  0  0  0  0  0
  -33.8590   -3.7110   44.7820 C   0  0  0  0  0  0
  -35.2700   -3.2470   44.7620 C   0  0  0  0  0  0
  -36.1780   -3.7590   45.6300 N   0  0  0  0  0  0
  -35.6130   -2.3210   43.8360 N   0  0  0  0  0  0
  -34.7030   -1.8440   42.9580 C   0  0  0  0  0  0
  -33.4090   -2.2140   42.9100 N   0  0  0  0  0  0
  -32.9420   -3.1200   43.7940 C   0  0  0  0  0  0
  -28.2173   -6.6547   42.4499 H   0  0  0  0  0  0
  -28.6037   -6.5539   44.2013 H   0  0  0  0  0  0
  -28.0946   -4.1954   42.3215 H   0  0  0  0  0  0
  -28.8479   -4.3969   45.4027 H   0  0  0  0  0  0
  -29.9534   -2.2300   45.1054 H   0  0  0  0  0  0
  -28.0672   -1.0973   44.0763 H   0  0  0  0  0  0
  -30.7374   -2.7335   42.3892 H   0  0  0  0  0  0
  -31.0440   -5.1650   45.4032 H   0  0  0  0  0  0
  -35.8676   -4.5104   46.3710 H   0  0  0  0  0  0
  -37.2247   -3.4228   45.5929 H   0  0  0  0  0  0
  -35.0422   -1.1035   42.2336 H   0  0  0  0  0  0
  1  2  1  0  0  0
  1  3  2  0  0  0
  1  4  1  0  0  0
  1  9  1  0  0  0
  4  5  1  0  0  0
  5  6  1  0  0  0
  5 23  1  0  0  0
  5 24  1  0  0  0
  6  7  1  0  0  0
  6  8  1  0  0  0
  6 25  1  0  0  0
  7 12  1  0  0  0
  8  9  1  0  0  0
  8 10  1  0  0  0
  8 26  1  0  0  0
 10 11  1  0  0  0
 10 12  1  0  0  0
 10 27  1  0  0  0
 11 28  1  0  0  0
 12 13  1  0  0  0
 12 29  1  0  0  0
 13 14  1  0  0  0
 13 22  1  0  0  0
 14 15  2  0  0  0
 14 30  1  0  0  0
 15 16  1  0  0  0
 16 17  2  0  0  0
 16 22  1  0  0  0
 17 18  1  0  0  0
 17 19  1  0  0  0
 18 31  1  0  0  0
 18 32  1  0  0  0
 19 20  2  0  0  0
 20 21  1  0  0  0
 20 33  1  0  0  0
 21 22  2  0  0  0
M  CHG  1   2  -1
M  END
> <s_m_source_file>
../4hbn_ligand.sdf

> <i_m_source_file_index>
1

> <s_epik_input>
W0NIMl0xT1tQQF0oPU8pKFtPSF0pT1tDQEhdKFtDQEBIXTEyKVtDQEBIXShbT0hdKVtDQEBIXShPMiluKFtjSF1uMyljKGMzNCluW2NIXW5jNFtOSDJd

> <s_epik_cmdline>
J2VwaWtfYXBwJywgJy1pbWFlJywgJ2xpZ2FuZF9wcm8ubWFlJywgJy1vbWFlJywgJ2xpZ2FuZF9wcmVwLm1hZScsICctbXMnLCAnMScsICctcGgnLCAnNycsICctcGh0JywgJzAuNScsICctbnQn

> <r_lp_tautomer_probability>
1

> <r_epik_Ionization_Penalty>
  0.0008

> <r_epik_Ionization_Penalty_Charging>
  0.0002

> <r_epik_Ionization_Penalty_Neutral>
  0.0005

> <r_epik_State_Penalty>
 -0.0000

> <r_epik_Charging_Adjusted_Penalty>
0.000248221998699987

> <i_epik_Tot_Q>
-1

> <i_epik_Tot_abs_Q>
1

> <s_epik_Chemistry_Notes>
This compound contains an acetal/aminal-like group ( X-CH(R)-Y where X, Y are N, S, or O) that may be acid/base labile, releasing an aldehyde.

$$$$
