4hbp_ligand
                    3D
 Schrodinger Suite 2020-3.
 33 35  0  0  1  0            999 V2000
  -26.1470  -44.9310  -42.8750 C   0  0  0  0  0  0
  -25.5420  -44.5910  -43.9180 O   0  0  0  0  0  0
  -27.3390  -45.5130  -42.9540 N   0  0  0  0  0  0
  -27.9390  -45.8040  -44.2600 C   0  0  0  0  0  0
  -29.2840  -45.0940  -44.2690 C   0  0  0  0  0  0
  -29.8980  -45.7780  -43.1500 N   0  0  0  0  0  0
  -29.4640  -45.2720  -41.8570 C   0  0  0  0  0  0
  -28.0780  -45.9120  -41.7490 C   0  0  0  0  0  0
  -31.1960  -46.1620  -43.3110 C   0  0  0  0  0  0
  -32.3280  -46.3020  -42.0290 S   0  0  0  0  0  0
  -33.5380  -46.8220  -43.0980 N   0  0  0  0  0  0
  -33.0420  -46.8830  -44.3750 C   0  0  0  0  0  0
  -31.7250  -46.5160  -44.5000 N   0  0  0  0  0  0
  -33.8800  -47.2970  -45.5340 C   0  0  0  0  0  0
  -34.8980  -48.2380  -45.3620 C   0  0  0  0  0  0
  -35.6880  -48.6090  -46.4530 C   0  0  0  0  0  0
  -35.4550  -48.0380  -47.7080 C   0  0  0  0  0  0
  -34.4380  -47.0970  -47.8790 C   0  0  0  0  0  0
  -33.6520  -46.7250  -46.7890 C   0  0  0  0  0  0
  -25.6916  -44.7480  -41.8906 H   0  0  0  0  0  0
  -27.2833  -45.4245  -45.0575 H   0  0  0  0  0  0
  -28.0621  -46.8912  -44.3729 H   0  0  0  0  0  0
  -29.1302  -44.0154  -44.1177 H   0  0  0  0  0  0
  -29.7806  -45.2614  -45.2362 H   0  0  0  0  0  0
  -29.4409  -44.1725  -41.8825 H   0  0  0  0  0  0
  -30.1655  -45.6060  -41.0783 H   0  0  0  0  0  0
  -28.1534  -47.0088  -41.7115 H   0  0  0  0  0  0
  -27.5466  -45.5503  -40.8564 H   0  0  0  0  0  0
  -35.0751  -48.6805  -44.3817 H   0  0  0  0  0  0
  -36.4845  -49.3422  -46.3261 H   0  0  0  0  0  0
  -36.0715  -48.3295  -48.5583 H   0  0  0  0  0  0
  -34.2593  -46.6554  -48.8594 H   0  0  0  0  0  0
  -32.8592  -45.9877  -46.9156 H   0  0  0  0  0  0
  1  2  2  0  0  0
  1  3  1  0  0  0
  1 20  1  0  0  0
  3  4  1  0  0  0
  3  8  1  0  0  0
  4  5  1  0  0  0
  4 21  1  0  0  0
  4 22  1  0  0  0
  5  6  1  0  0  0
  5 23  1  0  0  0
  5 24  1  0  0  0
  6  7  1  0  0  0
  6  9  1  0  0  0
  7  8  1  0  0  0
  7 25  1  0  0  0
  7 26  1  0  0  0
  8 27  1  0  0  0
  8 28  1  0  0  0
  9 10  1  0  0  0
  9 13  2  0  0  0
 10 11  1  0  0  0
 11 12  2  0  0  0
 12 13  1  0  0  0
 12 14  1  0  0  0
 14 15  2  0  0  0
 14 19  1  0  0  0
 15 16  1  0  0  0
 15 29  1  0  0  0
 16 17  2  0  0  0
 16 30  1  0  0  0
 17 18  1  0  0  0
 17 31  1  0  0  0
 18 19  2  0  0  0
 18 32  1  0  0  0
 19 33  1  0  0  0
M  END
> <s_m_source_file>
../4hbp_ligand.sdf

> <i_m_source_file_index>
1

> <s_epik_input>
Tz1bQ0hdTjFbQ0gyXVtDSDJdTihbQ0gyXVtDSDJdMSljMnNuYyhuMiktYzNbY0hdW2NIXVtjSF1bY0hdW2NIXTM=

> <s_epik_cmdline>
J2VwaWtfYXBwJywgJy1pbWFlJywgJ2xpZ2FuZF9wcm8ubWFlJywgJy1vbWFlJywgJ2xpZ2FuZF9wcmVwLm1hZScsICctbXMnLCAnMScsICctcGgnLCAnNycsICctcGh0JywgJzAuNScsICctbnQn

> <r_lp_tautomer_probability>
1

> <r_epik_Ionization_Penalty>
  0.0000

> <r_epik_Ionization_Penalty_Charging>
  0.0000

> <r_epik_Ionization_Penalty_Neutral>
  0.0000

> <r_epik_State_Penalty>
 -0.0000

> <r_epik_Charging_Adjusted_Penalty>
0

> <i_epik_Tot_Q>
0

> <i_epik_Tot_abs_Q>
0

$$$$
