4hbv_ligand
                    3D
 Schrodinger Suite 2020-3.
 22 23  0  0  1  0            999 V2000
   32.2140   18.2990    0.0580 O   0  0  0  0  0  0
   31.1030   17.6980    0.0150 C   0  0  0  0  0  0
   30.9510   16.4600   -0.6940 N   0  0  0  0  0  0
   29.6770   15.9760   -1.0640 C   0  0  0  0  0  0
   29.5280   15.0690   -2.1340 C   0  0  0  0  0  0
   28.2900   14.6180   -2.5110 C   0  0  0  0  0  0
   27.1600   15.0390   -1.8350 C   0  0  0  0  0  0
   25.4250   14.3310   -2.3220 Br  0  0  0  0  0  0
   27.2970   15.8890   -0.7340 C   0  0  0  0  0  0
   28.5490   16.4040   -0.3640 C   0  0  0  0  0  0
   28.7460   17.2740    0.7570 C   0  0  0  0  0  0
   29.9930   18.1530    0.6470 N   0  0  0  0  0  0
   30.0350   19.3400    1.5120 C   0  0  0  0  0  0
   31.8379   15.8664   -0.9606 H   0  0  0  0  0  0
   30.4115   14.7213   -2.6694 H   0  0  0  0  0  0
   28.1960   13.9248   -3.3469 H   0  0  0  0  0  0
   26.4152   16.1569   -0.1520 H   0  0  0  0  0  0
   27.8811   17.9465    0.8556 H   0  0  0  0  0  0
   28.8502   16.6739    1.6730 H   0  0  0  0  0  0
   30.9750   19.8852    1.3410 H   0  0  0  0  0  0
   29.9783   19.0282    2.5654 H   0  0  0  0  0  0
   29.1831   19.9951    1.2772 H   0  0  0  0  0  0
  1  2  2  0  0  0
  2  3  1  0  0  0
  2 12  1  0  0  0
  3  4  1  0  0  0
  3 14  1  0  0  0
  4  5  2  0  0  0
  4 10  1  0  0  0
  5  6  1  0  0  0
  5 15  1  0  0  0
  6  7  2  0  0  0
  6 16  1  0  0  0
  7  8  1  0  0  0
  7  9  1  0  0  0
  9 10  2  0  0  0
  9 17  1  0  0  0
 10 11  1  0  0  0
 11 12  1  0  0  0
 11 18  1  0  0  0
 11 19  1  0  0  0
 12 13  1  0  0  0
 13 20  1  0  0  0
 13 21  1  0  0  0
 13 22  1  0  0  0
M  END
> <s_m_source_file>
../4hbv_ligand.sdf

> <i_m_source_file_index>
1

> <s_epik_input>
Tz1DKFtOSF0xKU4oW0NIM10pW0NIMl1jKGMxMilbY0hdYyhCcilbY0hdW2NIXTI=

> <s_epik_cmdline>
J2VwaWtfYXBwJywgJy1pbWFlJywgJ2xpZ2FuZF9wcm8ubWFlJywgJy1vbWFlJywgJ2xpZ2FuZF9wcmVwLm1hZScsICctbXMnLCAnMScsICctcGgnLCAnNycsICctcGh0JywgJzAuNScsICctbnQn

> <r_lp_tautomer_probability>
1

> <r_epik_Ionization_Penalty>
  0.0000

> <r_epik_Ionization_Penalty_Charging>
  0.0000

> <r_epik_Ionization_Penalty_Neutral>
  0.0000

> <r_epik_State_Penalty>
 -0.0000

> <r_epik_Charging_Adjusted_Penalty>
0

> <i_epik_Tot_Q>
0

> <i_epik_Tot_abs_Q>
0

$$$$
