4hbw_ligand
                    3D
 Schrodinger Suite 2020-3.
 33 34  0  0  1  0            999 V2000
   26.9350   17.8170   -5.1240 C   0  0  0  0  0  0
   26.9900   17.0030   -3.8260 C   0  0  0  0  0  0
   27.2240   15.5870   -4.1500 N   0  0  3  0  0  0
   27.3170   14.6020   -2.9210 S   0  0  0  0  0  0
   27.7270   13.2090   -3.2990 O   0  0  0  0  0  0
   26.4640   14.8550   -1.7890 O   0  0  0  0  0  0
   28.8730   15.1950   -2.2720 C   0  0  0  0  0  0
   28.8680   15.9120   -1.0470 C   0  0  0  0  0  0
   30.0920   16.3850   -0.5530 C   0  0  0  0  0  0
   30.0320   17.2050    0.7520 C   0  0  0  0  0  0
   31.2510   18.0710    0.8450 N   0  0  0  0  0  0
   31.1540   19.1450    1.9100 C   0  0  0  0  0  0
   32.4470   17.7690    0.1800 C   0  0  0  0  0  0
   33.4400   18.4760    0.3330 O   0  0  0  0  0  0
   32.4940   16.7420   -0.7730 N   0  0  0  0  0  0
   31.2950   16.1520   -1.2020 C   0  0  0  0  0  0
   31.2730   15.5220   -2.4410 C   0  0  0  0  0  0
   30.0800   15.0130   -2.9360 C   0  0  0  0  0  0
   26.7601   18.8764   -4.8853 H   0  0  0  0  0  0
   26.1161   17.4436   -5.7565 H   0  0  0  0  0  0
   27.8893   17.7149   -5.6615 H   0  0  0  0  0  0
   27.8089   17.3764   -3.1935 H   0  0  0  0  0  0
   26.0357   17.1051   -3.2884 H   0  0  0  0  0  0
   27.1595   15.2435   -5.1930 H   0  0  0  0  0  0
   27.9388   16.0899   -0.5056 H   0  0  0  0  0  0
   29.1304   17.8352    0.7479 H   0  0  0  0  0  0
   29.9977   16.5216    1.6133 H   0  0  0  0  0  0
   30.1210   19.1980    2.2842 H   0  0  0  0  0  0
   31.4380   20.1161    1.4783 H   0  0  0  0  0  0
   31.8327   18.9003    2.7404 H   0  0  0  0  0  0
   33.4621   16.4083   -1.1747 H   0  0  0  0  0  0
   32.1902   15.4279   -3.0224 H   0  0  0  0  0  0
   30.0904   14.4547   -3.8721 H   0  0  0  0  0  0
  1  2  1  0  0  0
  1 19  1  0  0  0
  1 20  1  0  0  0
  1 21  1  0  0  0
  2  3  1  0  0  0
  2 22  1  0  0  0
  2 23  1  0  0  0
  3  4  1  0  0  0
  3 24  1  0  0  0
  4  5  2  0  0  0
  4  6  2  0  0  0
  4  7  1  0  0  0
  7  8  2  0  0  0
  7 18  1  0  0  0
  8  9  1  0  0  0
  8 25  1  0  0  0
  9 10  1  0  0  0
  9 16  2  0  0  0
 10 11  1  0  0  0
 10 26  1  0  0  0
 10 27  1  0  0  0
 11 12  1  0  0  0
 11 13  1  0  0  0
 12 28  1  0  0  0
 12 29  1  0  0  0
 12 30  1  0  0  0
 13 14  2  0  0  0
 13 15  1  0  0  0
 15 16  1  0  0  0
 15 31  1  0  0  0
 16 17  1  0  0  0
 17 18  2  0  0  0
 17 32  1  0  0  0
 18 33  1  0  0  0
M  END
> <s_m_source_file>
../4hbw_ligand.sdf

> <i_m_source_file_index>
1

> <s_epik_input>
W0NIM11bQ0gyXVtOSF1TKD1PKSg9TyljKFtjSF0xKVtjSF1bY0hdYyhjMTIpW05IXUMoPU8pTihbQ0gyXTIpW0NIM10=

> <s_epik_cmdline>
J2VwaWtfYXBwJywgJy1pbWFlJywgJ2xpZ2FuZF9wcm8ubWFlJywgJy1vbWFlJywgJ2xpZ2FuZF9wcmVwLm1hZScsICctbXMnLCAnMScsICctcGgnLCAnNycsICctcGh0JywgJzAuNScsICctbnQn

> <r_lp_tautomer_probability>
1

> <r_epik_Ionization_Penalty>
  0.0000

> <r_epik_Ionization_Penalty_Charging>
  0.0000

> <r_epik_Ionization_Penalty_Neutral>
  0.0000

> <r_epik_State_Penalty>
 -0.0000

> <r_epik_Charging_Adjusted_Penalty>
0

> <i_epik_Tot_Q>
0

> <i_epik_Tot_abs_Q>
0

$$$$
