4hbx_ligand
                    3D
 Schrodinger Suite 2020-3.
 37 39  0  0  1  0            999 V2000
   50.3320    2.2940   21.5860 C   0  0  0  0  0  0
   50.1300    3.4580   22.3570 C   0  0  0  0  0  0
   50.5800    4.6970   21.9600 C   0  0  0  0  0  0
   53.0150    0.4690   24.3790 C   0  0  0  0  0  0
   51.3020    4.7550   20.7690 C   0  0  0  0  0  0
   52.8870    6.1330   19.3740 C   0  0  0  0  0  0
   52.3450   -0.2860   22.2360 C   0  0  0  0  0  0
   53.2710   -0.6420   23.3610 C   0  0  0  0  0  0
   51.5260    0.5500   24.3800 C   0  0  0  0  0  0
   51.9750    5.9960   20.4340 N   0  0  0  0  0  0
   51.1570    0.2970   22.9530 N   0  0  0  0  0  0
   50.9900    2.3900   20.3560 C   0  0  0  0  0  0
   48.8200    1.0770   23.1520 O   0  0  0  0  0  0
   49.8160    0.7520   22.1620 S   0  0  0  0  0  0
   49.8120   -0.1010   21.0900 O   0  0  0  0  0  0
   51.4560    3.6350   19.9530 C   0  0  0  0  0  0
   52.0740    3.9020   18.5960 C   0  0  0  0  0  0
   53.5650    7.1410   19.4030 O   0  0  0  0  0  0
   53.0590    5.0500   18.6020 N   0  0  0  0  0  0
   54.1920    5.0510   17.6010 C   0  0  0  0  0  0
   49.5969    3.3731   23.3039 H   0  0  0  0  0  0
   50.3809    5.5917   22.5499 H   0  0  0  0  0  0
   53.4317    0.1761   25.3540 H   0  0  0  0  0  0
   53.4972    1.3970   24.0380 H   0  0  0  0  0  0
   52.8373    0.4392   21.5714 H   0  0  0  0  0  0
   52.0938   -1.1931   21.6668 H   0  0  0  0  0  0
   54.3288   -0.6266   23.0597 H   0  0  0  0  0  0
   53.0328   -1.6159   23.8134 H   0  0  0  0  0  0
   51.1177   -0.2138   25.0581 H   0  0  0  0  0  0
   51.2133    1.5479   24.7211 H   0  0  0  0  0  0
   51.7822    6.9032   21.0254 H   0  0  0  0  0  0
   51.1337    1.5100   19.7291 H   0  0  0  0  0  0
   52.6127    3.0054   18.2556 H   0  0  0  0  0  0
   51.2815    4.1496   17.8745 H   0  0  0  0  0  0
   54.8074    5.9514   17.7447 H   0  0  0  0  0  0
   53.7801    5.0473   16.5810 H   0  0  0  0  0  0
   54.8128    4.1551   17.7490 H   0  0  0  0  0  0
  1  2  2  0  0  0
  1 12  1  0  0  0
  1 14  1  0  0  0
  2  3  1  0  0  0
  2 21  1  0  0  0
  3  5  2  0  0  0
  3 22  1  0  0  0
  4  8  1  0  0  0
  4  9  1  0  0  0
  4 23  1  0  0  0
  4 24  1  0  0  0
  5 10  1  0  0  0
  5 16  1  0  0  0
  6 10  1  0  0  0
  6 18  2  0  0  0
  6 19  1  0  0  0
  7  8  1  0  0  0
  7 11  1  0  0  0
  7 25  1  0  0  0
  7 26  1  0  0  0
  8 27  1  0  0  0
  8 28  1  0  0  0
  9 11  1  0  0  0
  9 29  1  0  0  0
  9 30  1  0  0  0
 10 31  1  0  0  0
 11 14  1  0  0  0
 12 16  2  0  0  0
 12 32  1  0  0  0
 13 14  2  0  0  0
 14 15  2  0  0  0
 16 17  1  0  0  0
 17 19  1  0  0  0
 17 33  1  0  0  0
 17 34  1  0  0  0
 19 20  1  0  0  0
 20 35  1  0  0  0
 20 36  1  0  0  0
 20 37  1  0  0  0
M  END
> <s_m_source_file>
../4hbx_ligand.sdf

> <i_m_source_file_index>
1

> <s_epik_input>
W05IXTFDKD1PKU4oW0NIM10pW0NIMl1jKGMxMilbY0hdYyhbY0hdW2NIXTIpUyg9TykoPU8pTjNbQ0gyXVtDSDJdW0NIMl1bQ0gyXTM=

> <s_epik_cmdline>
J2VwaWtfYXBwJywgJy1pbWFlJywgJ2xpZ2FuZF9wcm8ubWFlJywgJy1vbWFlJywgJ2xpZ2FuZF9wcmVwLm1hZScsICctbXMnLCAnMScsICctcGgnLCAnNycsICctcGh0JywgJzAuNScsICctbnQn

> <r_lp_tautomer_probability>
1

> <r_epik_Ionization_Penalty>
  0.0000

> <r_epik_Ionization_Penalty_Charging>
  0.0000

> <r_epik_Ionization_Penalty_Neutral>
  0.0000

> <r_epik_State_Penalty>
 -0.0000

> <r_epik_Charging_Adjusted_Penalty>
0

> <i_epik_Tot_Q>
0

> <i_epik_Tot_abs_Q>
0

$$$$
