4hco_ligand
                    3D
 Schrodinger Suite 2020-3.
 24 24  0  0  1  0            999 V2000
   -3.0530  -12.8610   -2.1730 C   0  0  0  0  0  0
   -4.1960  -12.4230   -2.6760 C   0  0  0  0  0  0
   -4.2320  -11.9330   -3.9060 C   0  0  0  0  0  0
   -3.0280  -11.8110   -4.6920 C   0  0  0  0  0  0
   -1.8650  -12.2230   -4.1930 C   0  0  0  0  0  0
   -1.8270  -12.7490   -2.9700 C   0  0  0  0  0  0
   -3.1400  -13.4360   -0.7900 C   0  0  0  0  0  0
   -2.9760  -11.2670   -6.0180 C   0  0  0  0  0  0
   -3.3110   -9.8040   -5.9610 C   0  0  0  0  0  0
   -0.7110  -13.0980   -2.5630 O   0  0  0  0  0  0
   -5.3120  -11.5790   -4.3070 O   0  0  0  0  0  0
   -3.9330  -12.0680   -6.8210 C   0  0  0  0  0  0
   -5.1148  -12.4661   -2.0727 H   0  0  0  0  0  0
   -0.9458  -12.1277   -4.7897 H   0  0  0  0  0  0
   -4.1817  -13.3916   -0.4393 H   0  0  0  0  0  0
   -2.4992  -12.8550   -0.1104 H   0  0  0  0  0  0
   -2.8029  -14.4830   -0.8063 H   0  0  0  0  0  0
   -1.9693  -11.3554   -6.4524 H   0  0  0  0  0  0
   -2.5605   -9.2795   -5.3514 H   0  0  0  0  0  0
   -4.3059   -9.6730   -5.5105 H   0  0  0  0  0  0
   -3.3119   -9.3881   -6.9794 H   0  0  0  0  0  0
   -3.6227  -13.1233   -6.8157 H   0  0  0  0  0  0
   -3.9458  -11.6948   -7.8557 H   0  0  0  0  0  0
   -4.9398  -11.9796   -6.3868 H   0  0  0  0  0  0
  1  2  2  0  0  0
  1  6  1  0  0  0
  1  7  1  0  0  0
  2  3  1  0  0  0
  2 13  1  0  0  0
  3  4  1  0  0  0
  3 11  2  0  0  0
  4  5  2  0  0  0
  4  8  1  0  0  0
  5  6  1  0  0  0
  5 14  1  0  0  0
  6 10  2  0  0  0
  7 15  1  0  0  0
  7 16  1  0  0  0
  7 17  1  0  0  0
  8  9  1  0  0  0
  8 12  1  0  0  0
  8 18  1  0  0  0
  9 19  1  0  0  0
  9 20  1  0  0  0
  9 21  1  0  0  0
 12 22  1  0  0  0
 12 23  1  0  0  0
 12 24  1  0  0  0
M  END
> <s_m_source_file>
../4hco_ligand.sdf

> <i_m_source_file_index>
1

> <s_epik_input>
W0NIM11DMT1bQ0hdQyg9TylDKD1bQ0hdQzE9TylbQ0hdKFtDSDNdKVtDSDNd

> <s_epik_cmdline>
J2VwaWtfYXBwJywgJy1pbWFlJywgJ2xpZ2FuZF9wcm8ubWFlJywgJy1vbWFlJywgJ2xpZ2FuZF9wcmVwLm1hZScsICctbXMnLCAnMScsICctcGgnLCAnNycsICctcGh0JywgJzAuNScsICctbnQn

> <r_lp_tautomer_probability>
1

> <r_epik_Ionization_Penalty>
  0.0000

> <r_epik_Ionization_Penalty_Charging>
  0.0000

> <r_epik_Ionization_Penalty_Neutral>
  0.0000

> <r_epik_State_Penalty>
 -0.0000

> <r_epik_Charging_Adjusted_Penalty>
0

> <i_epik_Tot_Q>
0

> <i_epik_Tot_abs_Q>
0

$$$$
