4hct_ligand
                    3D
 Schrodinger Suite 2020-3.
 72 76  0  0  1  0            999 V2000
    1.5640   10.0490   18.3050 C   0  0  0  0  0  0
    1.2040   10.4710   17.0690 N   0  0  0  0  0  0
    1.8890   10.8260   19.1990 O   0  0  0  0  0  0
    8.1800    5.1210   21.8490 N   0  0  0  0  0  0
    8.8560    4.0280   22.2600 C   0  0  0  0  0  0
    8.2570    3.0420   22.7080 O   0  0  0  0  0  0
    6.0760    5.9730   22.5970 C   0  0  2  0  0  0
    6.6020    7.4120   22.5920 C   0  0  0  0  0  0
    8.1340    7.4470   22.6120 C   0  0  0  0  0  0
    8.7090    6.4660   21.5870 C   0  0  0  0  0  0
    6.7480    5.1060   21.5570 C   0  0  0  0  0  0
    1.6560    3.6670   23.7580 N   0  0  0  0  0  0
    2.8920    3.5690   24.2650 C   0  0  0  0  0  0
    3.9830    4.2620   23.9220 N   0  0  0  0  0  0
    1.4410    4.5330   22.7430 C   0  0  0  0  0  0
    4.6340    5.9180   22.2700 N   0  0  0  0  0  0
    4.1020    6.6440   21.2400 N   0  0  0  0  0  0
    2.7890    6.2630   21.1950 C   0  0  0  0  0  0
    2.5300    5.3270   22.2300 C   0  0  0  0  0  0
    3.7460    5.1100   22.9070 C   0  0  0  0  0  0
    0.1970    4.6510   22.2500 N   0  0  0  0  0  0
    1.8870    6.7900   20.1340 C   0  0  0  0  0  0
    1.9960    8.1250   19.7630 C   0  0  0  0  0  0
    1.3790    8.5990   18.6080 C   0  0  0  0  0  0
    0.5260    7.7530   17.9010 C   0  0  0  0  0  0
    0.3260    6.4460   18.3280 C   0  0  0  0  0  0
    1.0360    5.9480   19.4140 C   0  0  0  0  0  0
   10.3410    4.0570   22.2370 C   0  0  0  0  0  0
   11.0070    3.6020   21.1970 C   0  0  0  0  0  0
    1.8390   13.5460   15.0090 C   0  0  0  0  0  0
    1.9080   12.2240   15.4630 C   0  0  0  0  0  0
    1.0480   14.4500   15.7160 C   0  0  0  0  0  0
    2.5870   14.0110   13.7470 C   0  0  0  0  0  0
    1.2020   11.8160   16.5960 C   0  0  0  0  0  0
    0.3410   14.0480   16.8420 C   0  0  0  0  0  0
    3.7260   14.9750   14.1100 C   0  0  0  0  0  0
    3.1960   12.8440   12.9650 C   0  0  0  0  0  0
    1.6380   14.7640   12.7890 C   0  0  0  0  0  0
    0.4180   12.7350   17.2850 C   0  0  0  0  0  0
    0.8712    9.7430   16.3145 H   0  0  0  0  0  0
    6.2566    5.5904   23.6124 H   0  0  0  0  0  0
    6.2528    7.9269   21.6848 H   0  0  0  0  0  0
    6.2290    7.9419   23.4809 H   0  0  0  0  0  0
    8.4808    8.4618   22.3673 H   0  0  0  0  0  0
    8.4941    7.1679   23.6132 H   0  0  0  0  0  0
    9.8059    6.4508   21.6682 H   0  0  0  0  0  0
    8.4207    6.7825   20.5737 H   0  0  0  0  0  0
    6.5756    5.5061   20.5470 H   0  0  0  0  0  0
    6.3735    4.0731   21.6111 H   0  0  0  0  0  0
    3.0252    2.8317   25.0567 H   0  0  0  0  0  0
   -0.6172    4.0341   22.6581 H   0  0  0  0  0  0
   -0.0075    5.3646   21.4382 H   0  0  0  0  0  0
    2.5723    8.8103   20.3846 H   0  0  0  0  0  0
    0.0143    8.1179   17.0104 H   0  0  0  0  0  0
   -0.3904    5.8089   17.8093 H   0  0  0  0  0  0
    0.9291    4.9026   19.7034 H   0  0  0  0  0  0
   10.8840    4.4648   23.1024 H   0  0  0  0  0  0
   10.4640    3.1942   20.3316 H   0  0  0  0  0  0
   12.1067    3.6295   21.1932 H   0  0  0  0  0  0
    2.5220   11.5024   14.9240 H   0  0  0  0  0  0
    0.9834   15.4853   15.3811 H   0  0  0  0  0  0
   -0.2770   14.7669   17.3800 H   0  0  0  0  0  0
    4.4265   14.4738   14.7942 H   0  0  0  0  0  0
    3.3091   15.8669   14.6007 H   0  0  0  0  0  0
    4.2582   15.2748   13.1952 H   0  0  0  0  0  0
    3.8803   12.2825   13.6180 H   0  0  0  0  0  0
    3.7520   13.2332   12.0993 H   0  0  0  0  0  0
    2.3932   12.1779   12.6159 H   0  0  0  0  0  0
    1.1802   15.6126   13.3184 H   0  0  0  0  0  0
    0.8496   14.0802   12.4415 H   0  0  0  0  0  0
    2.2084   15.1354   11.9249 H   0  0  0  0  0  0
   -0.1351   12.4246   18.1715 H   0  0  0  0  0  0
  1  2  1  0  0  0
  1  3  2  0  0  0
  1 24  1  0  0  0
  2 34  1  0  0  0
  2 40  1  0  0  0
  4  5  1  0  0  0
  4 10  1  0  0  0
  4 11  1  0  0  0
  5  6  2  0  0  0
  5 28  1  0  0  0
  7  8  1  0  0  0
  7 11  1  0  0  0
  7 16  1  0  0  0
  7 41  1  0  0  0
  8  9  1  0  0  0
  8 42  1  0  0  0
  8 43  1  0  0  0
  9 10  1  0  0  0
  9 44  1  0  0  0
  9 45  1  0  0  0
 10 46  1  0  0  0
 10 47  1  0  0  0
 11 48  1  0  0  0
 11 49  1  0  0  0
 12 13  2  0  0  0
 12 15  1  0  0  0
 13 14  1  0  0  0
 13 50  1  0  0  0
 14 20  2  0  0  0
 15 19  2  0  0  0
 15 21  1  0  0  0
 16 17  1  0  0  0
 16 20  1  0  0  0
 17 18  2  0  0  0
 18 19  1  0  0  0
 18 22  1  0  0  0
 19 20  1  0  0  0
 21 51  1  0  0  0
 21 52  1  0  0  0
 22 23  2  0  0  0
 22 27  1  0  0  0
 23 24  1  0  0  0
 23 53  1  0  0  0
 24 25  2  0  0  0
 25 26  1  0  0  0
 25 54  1  0  0  0
 26 27  2  0  0  0
 26 55  1  0  0  0
 27 56  1  0  0  0
 28 29  2  0  0  0
 28 57  1  0  0  0
 29 58  1  0  0  0
 29 59  1  0  0  0
 30 31  2  0  0  0
 30 32  1  0  0  0
 30 33  1  0  0  0
 31 34  1  0  0  0
 31 60  1  0  0  0
 32 35  2  0  0  0
 32 61  1  0  0  0
 33 36  1  0  0  0
 33 37  1  0  0  0
 33 38  1  0  0  0
 34 39  2  0  0  0
 35 39  1  0  0  0
 35 62  1  0  0  0
 36 63  1  0  0  0
 36 64  1  0  0  0
 36 65  1  0  0  0
 37 66  1  0  0  0
 37 67  1  0  0  0
 37 68  1  0  0  0
 38 69  1  0  0  0
 38 70  1  0  0  0
 38 71  1  0  0  0
 39 72  1  0  0  0
M  END
> <s_m_source_file>
../4hct_ligand.sdf

> <i_m_source_file_index>
1

> <s_epik_input>
W0NIM11DKFtDSDNdKShbQ0gzXSljMVtjSF1jKFtjSF1bY0hdW2NIXTEpW05IXUMoPU8pYyhbY0hdW2NIXVtjSF0yKVtjSF1jMi1jM25uKGMoYzM0KW5bY0hdbmM0W05IMl0pW0NAQEhdKFtDSDJdNSlbQ0gyXVtDSDJdW0NIMl1ONUMoPU8pW0NIXT1bQ0gyXQ==

> <s_epik_cmdline>
J2VwaWtfYXBwJywgJy1pbWFlJywgJ2xpZ2FuZF9wcm8ubWFlJywgJy1vbWFlJywgJ2xpZ2FuZF9wcmVwLm1hZScsICctbXMnLCAnMScsICctcGgnLCAnNycsICctcGh0JywgJzAuNScsICctbnQn

> <r_lp_tautomer_probability>
1

> <r_epik_Ionization_Penalty>
  0.0006

> <r_epik_Ionization_Penalty_Charging>
  0.0000

> <r_epik_Ionization_Penalty_Neutral>
  0.0006

> <r_epik_State_Penalty>
 -0.0000

> <r_epik_Charging_Adjusted_Penalty>
0

> <i_epik_Tot_Q>
0

> <i_epik_Tot_abs_Q>
0

$$$$
