4hcu_ligand
                    3D
 Schrodinger Suite 2020-3.
 71 75  0  0  1  0            999 V2000
    2.5820   12.7000   14.5140 C   0  0  0  0  0  0
    1.1250   12.6940   16.8370 C   0  0  0  0  0  0
    2.3680   11.5080   15.1830 C   0  0  0  0  0  0
    2.9790    3.6170   24.3990 C   0  0  0  0  0  0
    2.0650   13.8890   14.9860 C   0  0  0  0  0  0
    8.2330    7.4920   22.5780 C   0  0  0  0  0  0
    6.6990    7.4800   22.5790 C   0  0  0  0  0  0
    2.1510    8.1210   19.8590 C   0  0  0  0  0  0
    1.6180   10.0100   18.3510 C   0  0  0  0  0  0
    3.8290    5.1350   23.0170 C   0  0  0  0  0  0
    8.9070    4.1390   22.3990 C   0  0  0  0  0  0
    2.5360   16.3920   14.9790 C   0  0  0  0  0  0
    0.3590    6.4760   18.5380 C   0  0  0  0  0  0
    1.1050    5.9950   19.6010 C   0  0  0  0  0  0
    0.5240    7.7810   18.1090 C   0  0  0  0  0  0
    1.3330   13.8820   16.1580 C   0  0  0  0  0  0
    2.6080    5.3440   22.3970 C   0  0  0  0  0  0
    1.9990    6.8140   20.2930 C   0  0  0  0  0  0
    1.4130    8.6100   18.7890 C   0  0  0  0  0  0
    1.6380   11.5080   16.3540 C   0  0  0  0  0  0
    2.8580    6.2970   21.3630 C   0  0  0  0  0  0
    1.5300    4.5970   22.8880 C   0  0  0  0  0  0
    8.7700    6.5140   21.5360 C   0  0  0  0  0  0
    6.7930    5.1050   21.6630 C   0  0  0  0  0  0
    6.1440    6.0600   22.6670 C   0  0  2  0  0  0
   10.9520    3.6560   21.0660 C   0  0  0  0  0  0
    1.3150   15.3300   13.0660 C   0  0  0  0  0  0
   10.4080    4.2280   22.3560 C   0  0  0  0  0  0
    2.3480   15.1300   14.1720 C   0  0  0  0  0  0
    4.0760    4.3110   24.0410 N   0  0  0  0  0  0
    1.7360    3.7340   23.8980 N   0  0  0  0  0  0
    4.1440    6.6910   21.3960 N   0  0  0  0  0  0
    4.7040    5.9980   22.4160 N   0  0  0  0  0  0
    8.2330    5.1820   21.7840 N   0  0  0  0  0  0
    0.2480    4.7100   22.3490 N   0  0  0  0  0  0
    1.4170   10.2640   17.0190 N   0  0  0  0  0  0
    1.9650   10.8780   19.1400 O   0  0  0  0  0  0
    8.3780    3.1790   22.9650 O   0  0  0  0  0  0
    3.1703   12.6998   13.5964 H   0  0  0  0  0  0
    0.5499   12.6955   17.7629 H   0  0  0  0  0  0
    2.7729   10.5762   14.7882 H   0  0  0  0  0  0
    3.1137    2.8746   25.1857 H   0  0  0  0  0  0
    8.5916    8.5040   22.3389 H   0  0  0  0  0  0
    8.6027    7.1972   23.5712 H   0  0  0  0  0  0
    6.3284    8.0502   23.4436 H   0  0  0  0  0  0
    6.3281    7.9392   21.6508 H   0  0  0  0  0  0
    2.8607    8.7754   20.3651 H   0  0  0  0  0  0
    3.2844   16.2160   15.7658 H   0  0  0  0  0  0
    1.5793   16.6781   15.4403 H   0  0  0  0  0  0
    2.8813   17.2013   14.3189 H   0  0  0  0  0  0
   -0.3591    5.8256   18.0386 H   0  0  0  0  0  0
    0.9916    4.9541   19.9040 H   0  0  0  0  0  0
   -0.0340    8.1552   17.2507 H   0  0  0  0  0  0
    0.9194   14.8121   16.5478 H   0  0  0  0  0  0
    8.4682    6.8460   20.5317 H   0  0  0  0  0  0
    9.8678    6.4800   21.5964 H   0  0  0  0  0  0
    6.4626    4.0763   21.8692 H   0  0  0  0  0  0
    6.4955    5.3881   20.6425 H   0  0  0  0  0  0
    6.3266    5.7482   23.7060 H   0  0  0  0  0  0
   12.0492    3.7349   21.0638 H   0  0  0  0  0  0
   10.5422    4.2183   20.2140 H   0  0  0  0  0  0
   10.6603    2.5987   20.9819 H   0  0  0  0  0  0
    1.2009   14.3952   12.4975 H   0  0  0  0  0  0
    1.6509   16.1310   12.3911 H   0  0  0  0  0  0
    0.3489   15.6078   13.5125 H   0  0  0  0  0  0
   10.7151    5.2817   22.4301 H   0  0  0  0  0  0
   10.8332    3.6621   23.1980 H   0  0  0  0  0  0
    3.3331   14.9370   13.7222 H   0  0  0  0  0  0
    0.0588    5.4104   21.5222 H   0  0  0  0  0  0
   -0.5735    4.0987   22.7509 H   0  0  0  0  0  0
    1.0511    9.4661   16.3560 H   0  0  0  0  0  0
  1  3  2  0  0  0
  1  5  1  0  0  0
  1 39  1  0  0  0
  2 16  1  0  0  0
  2 20  2  0  0  0
  2 40  1  0  0  0
  3 20  1  0  0  0
  3 41  1  0  0  0
  4 30  2  0  0  0
  4 31  1  0  0  0
  4 42  1  0  0  0
  5 16  2  0  0  0
  5 29  1  0  0  0
  6  7  1  0  0  0
  6 23  1  0  0  0
  6 43  1  0  0  0
  6 44  1  0  0  0
  7 25  1  0  0  0
  7 45  1  0  0  0
  7 46  1  0  0  0
  8 18  2  0  0  0
  8 19  1  0  0  0
  8 47  1  0  0  0
  9 19  1  0  0  0
  9 36  1  0  0  0
  9 37  2  0  0  0
 10 17  2  0  0  0
 10 30  1  0  0  0
 10 33  1  0  0  0
 11 28  1  0  0  0
 11 34  1  0  0  0
 11 38  2  0  0  0
 12 29  1  0  0  0
 12 48  1  0  0  0
 12 49  1  0  0  0
 12 50  1  0  0  0
 13 14  2  0  0  0
 13 15  1  0  0  0
 13 51  1  0  0  0
 14 18  1  0  0  0
 14 52  1  0  0  0
 15 19  2  0  0  0
 15 53  1  0  0  0
 16 54  1  0  0  0
 17 21  1  0  0  0
 17 22  1  0  0  0
 18 21  1  0  0  0
 20 36  1  0  0  0
 21 32  2  0  0  0
 22 31  2  0  0  0
 22 35  1  0  0  0
 23 34  1  0  0  0
 23 55  1  0  0  0
 23 56  1  0  0  0
 24 25  1  0  0  0
 24 34  1  0  0  0
 24 57  1  0  0  0
 24 58  1  0  0  0
 25 33  1  0  0  0
 25 59  1  0  0  0
 26 28  1  0  0  0
 26 60  1  0  0  0
 26 61  1  0  0  0
 26 62  1  0  0  0
 27 29  1  0  0  0
 27 63  1  0  0  0
 27 64  1  0  0  0
 27 65  1  0  0  0
 28 66  1  0  0  0
 28 67  1  0  0  0
 29 68  1  0  0  0
 32 33  1  0  0  0
 35 69  1  0  0  0
 35 70  1  0  0  0
 36 71  1  0  0  0
M  END
> <s_m_source_file>
../4hcu_ligand.sdf

> <i_m_source_file_index>
1

> <s_epik_input>
W0NIM11bQ0hdKFtDSDNdKWMxW2NIXVtjSF1jKFtjSF1bY0hdMSlbTkhdQyg9TyljKFtjSF1bY0hdW2NIXTIpW2NIXWMyLWMoYyhjMzQpYyhbTkgyXSluW2NIXW4zKW5uNFtDQEBIXTVbQ0gyXVtDSDJdW0NIMl1OKFtDSDJdNSlDKD1PKVtDSDJdW0NIM10=

> <s_epik_cmdline>
J2VwaWtfYXBwJywgJy1pbWFlJywgJ2xpZ2FuZF9wcm8ubWFlJywgJy1vbWFlJywgJ2xpZ2FuZF9wcmVwLm1hZScsICctbXMnLCAnMScsICctcGgnLCAnNycsICctcGh0JywgJzAuNScsICctbnQn

> <r_lp_tautomer_probability>
1

> <r_epik_Ionization_Penalty>
  0.0009

> <r_epik_Ionization_Penalty_Charging>
  0.0000

> <r_epik_Ionization_Penalty_Neutral>
  0.0009

> <r_epik_State_Penalty>
 -0.0000

> <r_epik_Charging_Adjusted_Penalty>
0

> <i_epik_Tot_Q>
0

> <i_epik_Tot_abs_Q>
0

$$$$
