4hcv_ligand
                    3D
 Schrodinger Suite 2020-3.
 71 75  0  0  1  0            999 V2000
    1.4130   13.3960   15.8870 C   0  0  0  0  0  0
    2.6330   11.1520   14.8420 C   0  0  0  0  0  0
    1.2940   12.1960   16.5490 C   0  0  0  0  0  0
    4.3160    3.5200   24.0750 C   0  0  0  0  0  0
    2.1220   13.4840   14.7090 C   0  0  0  0  0  0
    9.1760    6.5190   23.3530 C   0  0  0  0  0  0
    7.6620    6.3900   23.3190 C   0  0  0  0  0  0
    2.8670    7.8350   19.5020 C   0  0  0  0  0  0
    2.1310    9.6470   18.0060 C   0  0  0  0  0  0
    4.9300    5.0080   22.5590 C   0  0  0  0  0  0
   10.2790    5.4980   20.4080 C   0  0  0  0  0  0
    1.4850   14.8310   12.6790 C   0  0  0  0  0  0
    1.0250    6.1000   18.3830 C   0  0  0  0  0  0
    1.8970    5.6660   19.3660 C   0  0  0  0  0  0
    1.0950    7.4010   17.9170 C   0  0  0  0  0  0
    2.7330   12.3610   14.1700 C   0  0  0  0  0  0
    3.6570    5.1100   22.0280 C   0  0  0  0  0  0
    2.8220    6.5170   19.9510 C   0  0  0  0  0  0
    2.0120    8.2680   18.4960 C   0  0  0  0  0  0
    1.9200   11.0780   16.0250 C   0  0  0  0  0  0
    3.7650    6.0390   20.9490 C   0  0  0  0  0  0
    2.6870    4.3130   22.6240 C   0  0  0  0  0  0
    9.8270    5.2880   22.7580 C   0  0  0  0  0  0
    7.9340    4.9380   21.2440 C   0  0  0  0  0  0
    7.1560    6.0800   21.9110 C   0  0  1  0  0  0
   10.8060    4.2690   18.4420 C   0  0  0  0  0  0
    3.3510   15.6550   14.1860 C   0  0  0  0  0  0
    9.8170    5.2880   19.0050 C   0  0  0  0  0  0
    2.1020   14.8330   14.0620 C   0  0  0  0  0  0
    5.3350    4.2210   23.5710 N   0  0  0  0  0  0
    3.0380    3.5230   23.6600 N   0  0  0  0  0  0
    5.0280    6.4630   20.8630 N   0  0  0  0  0  0
    5.7220    5.8540   21.8370 N   0  0  0  0  0  0
    9.3770    5.1410   21.3980 N   0  0  0  0  0  0
    1.3510    4.3400   22.2320 N   0  0  0  0  0  0
    1.7860    9.8410   16.6920 N   0  0  0  0  0  0
    2.5370   10.5290   18.7500 O   0  0  0  0  0  0
   11.4210    5.9110   20.6140 O   0  0  0  0  0  0
    0.9408   14.2877   16.2993 H   0  0  0  0  0  0
    3.1154   10.2617   14.4387 H   0  0  0  0  0  0
    0.7164   12.1266   17.4708 H   0  0  0  0  0  0
    4.5476    2.8712   24.9197 H   0  0  0  0  0  0
    9.4820    7.4012   22.7716 H   0  0  0  0  0  0
    9.5111    6.6321   24.3946 H   0  0  0  0  0  0
    7.3483    5.5752   23.9881 H   0  0  0  0  0  0
    7.2060    7.3340   23.6520 H   0  0  0  0  0  0
    3.5789    8.5324   19.9436 H   0  0  0  0  0  0
    0.5795   14.2065   12.6824 H   0  0  0  0  0  0
    2.2076   14.4251   11.9557 H   0  0  0  0  0  0
    1.2198   15.8599   12.3943 H   0  0  0  0  0  0
    0.2814    5.4155   17.9749 H   0  0  0  0  0  0
    1.8554    4.6259   19.6894 H   0  0  0  0  0  0
    0.4431    7.7386   17.1113 H   0  0  0  0  0  0
    3.2838   12.4280   13.2318 H   0  0  0  0  0  0
   10.9206    5.4048   22.7797 H   0  0  0  0  0  0
    9.5412    4.4023   23.3444 H   0  0  0  0  0  0
    7.6558    3.9823   21.7123 H   0  0  0  0  0  0
    7.6903    4.9055   20.1718 H   0  0  0  0  0  0
    7.2870    7.0039   21.3285 H   0  0  0  0  0  0
   10.5466    4.0451   17.3967 H   0  0  0  0  0  0
   10.7594    3.3452   19.0374 H   0  0  0  0  0  0
   11.8242    4.6830   18.4865 H   0  0  0  0  0  0
    3.7265   15.5979   15.2183 H   0  0  0  0  0  0
    3.1272   16.7022   13.9346 H   0  0  0  0  0  0
    4.1150   15.2675   13.4960 H   0  0  0  0  0  0
    8.7856    4.9058   19.0120 H   0  0  0  0  0  0
    9.8503    6.2435   18.4611 H   0  0  0  0  0  0
    1.4117   15.3931   14.7099 H   0  0  0  0  0  0
    1.0375    4.9753   21.3905 H   0  0  0  0  0  0
    0.6092    3.7261   22.7639 H   0  0  0  0  0  0
    1.3806    9.0066   16.1009 H   0  0  0  0  0  0
  1  3  2  0  0  0
  1  5  1  0  0  0
  1 39  1  0  0  0
  2 16  1  0  0  0
  2 20  2  0  0  0
  2 40  1  0  0  0
  3 20  1  0  0  0
  3 41  1  0  0  0
  4 30  2  0  0  0
  4 31  1  0  0  0
  4 42  1  0  0  0
  5 16  2  0  0  0
  5 29  1  0  0  0
  6  7  1  0  0  0
  6 23  1  0  0  0
  6 43  1  0  0  0
  6 44  1  0  0  0
  7 25  1  0  0  0
  7 45  1  0  0  0
  7 46  1  0  0  0
  8 18  2  0  0  0
  8 19  1  0  0  0
  8 47  1  0  0  0
  9 19  1  0  0  0
  9 36  1  0  0  0
  9 37  2  0  0  0
 10 17  2  0  0  0
 10 30  1  0  0  0
 10 33  1  0  0  0
 11 28  1  0  0  0
 11 34  1  0  0  0
 11 38  2  0  0  0
 12 29  1  0  0  0
 12 48  1  0  0  0
 12 49  1  0  0  0
 12 50  1  0  0  0
 13 14  2  0  0  0
 13 15  1  0  0  0
 13 51  1  0  0  0
 14 18  1  0  0  0
 14 52  1  0  0  0
 15 19  2  0  0  0
 15 53  1  0  0  0
 16 54  1  0  0  0
 17 21  1  0  0  0
 17 22  1  0  0  0
 18 21  1  0  0  0
 20 36  1  0  0  0
 21 32  2  0  0  0
 22 31  2  0  0  0
 22 35  1  0  0  0
 23 34  1  0  0  0
 23 55  1  0  0  0
 23 56  1  0  0  0
 24 25  1  0  0  0
 24 34  1  0  0  0
 24 57  1  0  0  0
 24 58  1  0  0  0
 25 33  1  0  0  0
 25 59  1  0  0  0
 26 28  1  0  0  0
 26 60  1  0  0  0
 26 61  1  0  0  0
 26 62  1  0  0  0
 27 29  1  0  0  0
 27 63  1  0  0  0
 27 64  1  0  0  0
 27 65  1  0  0  0
 28 66  1  0  0  0
 28 67  1  0  0  0
 29 68  1  0  0  0
 32 33  1  0  0  0
 35 69  1  0  0  0
 35 70  1  0  0  0
 36 71  1  0  0  0
M  END
> <s_m_source_file>
../4hcv_ligand.sdf

> <i_m_source_file_index>
1

> <s_epik_input>
W0NIM11bQ0hdKFtDSDNdKWMxW2NIXVtjSF1jKFtjSF1bY0hdMSlbTkhdQyg9TyljKFtjSF1bY0hdW2NIXTIpW2NIXWMyLWMoYyhjMzQpYyhbTkgyXSluW2NIXW4zKW5uNFtDQEhdNVtDSDJdW0NIMl1bQ0gyXU4oW0NIMl01KUMoPU8pW0NIMl1bQ0gzXQ==

> <s_epik_cmdline>
J2VwaWtfYXBwJywgJy1pbWFlJywgJ2xpZ2FuZF9wcm8ubWFlJywgJy1vbWFlJywgJ2xpZ2FuZF9wcmVwLm1hZScsICctbXMnLCAnMScsICctcGgnLCAnNycsICctcGh0JywgJzAuNScsICctbnQn

> <r_lp_tautomer_probability>
1

> <r_epik_Ionization_Penalty>
  0.0009

> <r_epik_Ionization_Penalty_Charging>
  0.0000

> <r_epik_Ionization_Penalty_Neutral>
  0.0009

> <r_epik_State_Penalty>
 -0.0000

> <r_epik_Charging_Adjusted_Penalty>
0

> <i_epik_Tot_Q>
0

> <i_epik_Tot_abs_Q>
0

$$$$
