4hcz_ligand
                    3D
 Schrodinger Suite 2020-3.
165166  0  0  1  0            999 V2000
    1.3910   -5.6560    9.8420 N   0  3  0  0  0  0
    1.9450   -5.7380    8.4920 C   0  0  2  0  0  0
    2.9470   -6.8700    8.3580 C   0  0  0  0  0  0
    3.9340   -6.9060    9.0790 O   0  0  0  0  0  0
    2.6250   -4.4170    8.1200 C   0  0  0  0  0  0
    3.6340   -4.6210    7.1380 O   0  0  0  0  0  0
    2.7210   -7.7880    7.4290 N   0  0  0  0  0  0
    3.6890   -8.8820    7.2460 C   0  0  2  0  0  0
    4.9690   -8.4180    6.5380 C   0  0  0  0  0  0
    4.9200   -7.7360    5.5130 O   0  0  0  0  0  0
    3.0690  -10.0940    6.5390 C   0  0  2  0  0  0
    3.1790   -9.9430    5.1200 O   0  0  0  0  0  0
    1.6110  -10.2290    6.9400 C   0  0  0  0  0  0
    6.1120   -8.7770    7.1190 N   0  0  0  0  0  0
    7.4060   -8.3340    6.6300 C   0  0  0  0  0  0
    7.7690   -6.9510    7.1510 C   0  0  0  0  0  0
    8.8220   -6.4150    6.8150 O   0  0  0  0  0  0
    6.8950   -6.3700    7.9730 N   0  0  0  0  0  0
    7.1340   -5.0500    8.5460 C   0  0  0  0  0  0
    8.3070   -5.0720    9.5140 C   0  0  0  0  0  0
    8.7530   -6.1330    9.9310 O   0  0  0  0  0  0
    8.8090   -3.8980    9.8760 N   0  0  0  0  0  0
    9.9450   -3.8040   10.7850 C   0  0  2  0  0  0
    9.6370   -2.8030   11.9030 C   0  0  0  0  0  0
    9.1510   -1.7030   11.6440 O   0  0  0  0  0  0
   11.2340   -3.3890   10.0200 C   0  0  0  0  0  0
   11.0230   -2.0710    9.2870 C   0  0  0  0  0  0
   12.4420   -3.3110   10.9590 C   0  0  0  0  0  0
    9.8970   -3.2000   13.1450 N   0  0  0  0  0  0
    9.6520   -2.3330   14.2940 C   0  0  1  0  0  0
    9.4770   -3.1130   15.5940 C   0  0  0  0  0  0
    8.3060   -4.0580   15.7200 C   0  0  0  0  0  0
    8.2910   -4.9250   16.9930 C   0  0  0  0  0  0
    8.3690   -4.1850   18.3250 C   0  0  0  0  0  0
    8.6550   -4.9700   19.5200 N   0  3  0  0  0  0
   10.7840   -1.3830   14.4670 C   0  0  0  0  0  0
   11.9720   -1.7710   14.3480 O   0  0  0  0  0  0
    8.1450   -4.1770   20.6760 C   0  0  0  0  0  0
   10.0810   -5.1320   19.6980 C   0  0  0  0  0  0
    8.0920   -6.3280   19.3080 C   0  0  0  0  0  0
   10.4540   -0.1310   14.7520 N   0  0  0  0  0  0
   11.4640    0.8350   15.1570 C   0  0  2  0  0  0
   10.9870    1.5770   16.3930 C   0  0  0  0  0  0
    9.7870    1.7990   16.5640 O   0  0  0  0  0  0
   11.8110    1.8130   14.0230 C   0  0  0  0  0  0
   10.7010    2.0700   13.0160 C   0  0  0  0  0  0
    9.6470    3.0210   13.5450 C   0  0  0  0  0  0
    8.7570    3.5210   12.4140 C   0  0  0  0  0  0
    8.3000    2.4120   11.5230 N   0  3  0  0  0  0
   11.9290    1.9460   17.2680 N   0  0  0  0  0  0
   11.5970    2.7130   18.4700 C   0  0  2  0  0  0
   10.9060    4.0250   18.0980 C   0  0  0  0  0  0
   11.3330    4.7050   17.1700 O   0  0  0  0  0  0
   12.9650    2.9860   19.0960 C   0  0  0  0  0  0
   13.8290    1.8670   18.6150 C   0  0  0  0  0  0
   13.3470    1.5450   17.2320 C   0  0  0  0  0  0
    9.8330    4.3530   18.8030 N   0  0  0  0  0  0
    9.0500    5.5440   18.4910 C   0  0  2  0  0  0
    9.9160    6.7920   18.5690 C   0  0  0  0  0  0
   10.7120    6.9480   19.4980 O   0  0  0  0  0  0
    7.8690    5.6610   19.4540 C   0  0  0  0  0  0
    6.8810    6.7250   19.0810 C   0  0  0  0  0  0
    6.1030    6.6540   17.9470 N   0  0  0  0  0  0
    6.5360    7.8740   19.7090 C   0  0  0  0  0  0
    5.3190    7.7200   17.8860 C   0  0  0  0  0  0
    5.5600    8.4710   18.9430 N   0  0  0  0  0  0
    9.7520    7.6710   17.5840 N   0  0  0  0  0  0
   10.5000    8.9190   17.5030 C   0  0  2  0  0  0
   11.9790    8.7060   17.7400 C   0  0  0  0  0  0
   12.7363    9.6911   17.9493 O   0  0  0  0  0  0
    9.9380    9.9620   18.4760 C   0  0  0  0  0  0
    8.4660   10.2780   18.2380 C   0  0  0  0  0  0
    7.8500   11.0780   19.3790 C   0  0  0  0  0  0
    8.6210   12.2850   19.6630 N   0  0  0  0  0  0
    9.0540   12.6280   20.8700 C   0  0  0  0  0  0
    8.7720   11.8620   21.9220 N   0  0  0  0  0  0
    9.7630   13.7420   21.0230 N   0  0  0  0  0  0
   12.4552    7.5395   17.7280 O   0  0  0  0  0  0
    0.9057   -6.6095   10.0977 H   0  0  0  0  0  0
    0.6500   -4.8442    9.8856 H   0  0  0  0  0  0
    2.2003   -5.4526   10.5587 H   0  0  0  0  0  0
    1.0801   -5.9458    7.8449 H   0  0  0  0  0  0
    1.8759   -3.7200    7.7161 H   0  0  0  0  0  0
    3.0886   -3.9782    9.0158 H   0  0  0  0  0  0
    4.2174   -3.7671    6.7633 H   0  0  0  0  0  0
    1.8213   -7.7384    6.7981 H   0  0  0  0  0  0
    3.9464   -9.1712    8.2756 H   0  0  0  0  0  0
    3.6171  -11.0185    6.7731 H   0  0  0  0  0  0
    4.1691   -9.8317    4.6539 H   0  0  0  0  0  0
    1.5401  -10.3443    8.0316 H   0  0  0  0  0  0
    1.1760  -11.1120    6.4490 H   0  0  0  0  0  0
    1.0606   -9.3285    6.6299 H   0  0  0  0  0  0
    6.0521   -9.4332    7.9998 H   0  0  0  0  0  0
    8.1833   -9.0397    6.9584 H   0  0  0  0  0  0
    7.3883   -8.2933    5.5309 H   0  0  0  0  0  0
    5.9715   -6.9160    8.2159 H   0  0  0  0  0  0
    7.3586   -4.3357    7.7402 H   0  0  0  0  0  0
    6.2373   -4.7187    9.0902 H   0  0  0  0  0  0
    8.3488   -2.9832    9.4744 H   0  0  0  0  0  0
   10.0632   -4.8121   11.2090 H   0  0  0  0  0  0
   11.4617   -4.1539    9.2629 H   0  0  0  0  0  0
   10.1511   -2.1569    8.6219 H   0  0  0  0  0  0
   11.9171   -1.8357    8.6910 H   0  0  0  0  0  0
   10.8484   -1.2684   10.0187 H   0  0  0  0  0  0
   12.5694   -4.2749   11.4734 H   0  0  0  0  0  0
   12.2776   -2.5174   11.7027 H   0  0  0  0  0  0
   13.3463   -3.0847   10.3750 H   0  0  0  0  0  0
   10.3068   -4.2097   13.2953 H   0  0  0  0  0  0
    8.7253   -1.7956   14.0442 H   0  0  0  0  0  0
   10.3629   -3.7419   15.7663 H   0  0  0  0  0  0
    9.3587   -2.4090   16.4309 H   0  0  0  0  0  0
    7.3689   -3.4820   15.7247 H   0  0  0  0  0  0
    8.3039   -4.7548   14.8688 H   0  0  0  0  0  0
    7.3589   -5.5080   17.0286 H   0  0  0  0  0  0
    9.1516   -5.6100   16.9803 H   0  0  0  0  0  0
    9.1666   -3.4289   18.2782 H   0  0  0  0  0  0
    7.4071   -3.6912   18.5270 H   0  0  0  0  0  0
    8.6515   -3.2009   20.7030 H   0  0  0  0  0  0
    8.3463   -4.7206   21.6109 H   0  0  0  0  0  0
    7.0611   -4.0247   20.5665 H   0  0  0  0  0  0
   10.5445   -4.1476   19.8592 H   0  0  0  0  0  0
   10.5121   -5.5976   18.7994 H   0  0  0  0  0  0
   10.2709   -5.7741   20.5707 H   0  0  0  0  0  0
    7.0035   -6.2557   19.1670 H   0  0  0  0  0  0
    8.3072   -6.9552   20.1856 H   0  0  0  0  0  0
    8.5484   -6.7787   18.4144 H   0  0  0  0  0  0
    9.3996    0.1737   14.6788 H   0  0  0  0  0  0
   12.3597    0.2426   15.3951 H   0  0  0  0  0  0
   12.0740    2.7918   14.4506 H   0  0  0  0  0  0
   12.6646    1.4220   13.4499 H   0  0  0  0  0  0
   11.1286    2.5117   12.1038 H   0  0  0  0  0  0
   10.2055    1.1202   12.7661 H   0  0  0  0  0  0
    9.0221    2.5005   14.2857 H   0  0  0  0  0  0
   10.1368    3.8838   14.0200 H   0  0  0  0  0  0
    7.8662    4.0088   12.8367 H   0  0  0  0  0  0
    9.3148    4.2441   11.8008 H   0  0  0  0  0  0
    7.6630    2.8215   10.7252 H   0  0  0  0  0  0
    7.7260    1.6814   12.1119 H   0  0  0  0  0  0
    9.1746    1.9167   11.0760 H   0  0  0  0  0  0
   10.9068    2.1534   19.1185 H   0  0  0  0  0  0
   13.3352    3.9644   18.7559 H   0  0  0  0  0  0
   12.8725    2.9898   20.1921 H   0  0  0  0  0  0
   14.8796    2.1928   18.6059 H   0  0  0  0  0  0
   13.7187    1.0035   19.2874 H   0  0  0  0  0  0
   13.4188    0.4721   17.0001 H   0  0  0  0  0  0
   13.8721    2.1235   16.4576 H   0  0  0  0  0  0
    9.5368    3.7038   19.6401 H   0  0  0  0  0  0
    8.6930    5.4113   17.4590 H   0  0  0  0  0  0
    7.3229    4.7065   19.4821 H   0  0  0  0  0  0
    8.2397    5.9012   20.4614 H   0  0  0  0  0  0
    6.8772    8.3549   20.6376 H   0  0  0  0  0  0
    4.5986    7.9388   17.0978 H   0  0  0  0  0  0
    9.0129    7.4214   16.8084 H   0  0  0  0  0  0
   10.3641    9.2552   16.4645 H   0  0  0  0  0  0
   13.8111    9.5319   18.1212 H   0  0  0  0  0  0
   10.0344    9.5910   19.5071 H   0  0  0  0  0  0
   10.4996   10.9020   18.3706 H   0  0  0  0  0  0
    8.3622   10.8682   17.3156 H   0  0  0  0  0  0
    7.9009    9.3395   18.1384 H   0  0  0  0  0  0
    6.8260   11.3746   19.1078 H   0  0  0  0  0  0
    7.8239   10.4595   20.2882 H   0  0  0  0  0  0
    8.8779   12.9779   18.8482 H   0  0  0  0  0  0
    8.1850   10.9411   21.7903 H   0  0  0  0  0  0
    9.1261   12.1501   22.9228 H   0  0  0  0  0  0
    9.9934   14.3715   20.1508 H   0  0  0  0  0  0
  1  2  1  0  0  0
  1 79  1  0  0  0
  1 80  1  0  0  0
  1 81  1  0  0  0
  2  3  1  0  0  0
  2  5  1  0  0  0
  2 82  1  0  0  0
  3  4  2  0  0  0
  3  7  1  0  0  0
  5  6  1  0  0  0
  5 83  1  0  0  0
  5 84  1  0  0  0
  6 85  1  0  0  0
  7  8  1  0  0  0
  7 86  1  0  0  0
  8  9  1  0  0  0
  8 11  1  0  0  0
  8 87  1  0  0  0
  9 10  2  0  0  0
  9 14  1  0  0  0
 11 12  1  0  0  0
 11 13  1  0  0  0
 11 88  1  0  0  0
 12 89  1  0  0  0
 13 90  1  0  0  0
 13 91  1  0  0  0
 13 92  1  0  0  0
 14 15  1  0  0  0
 14 93  1  0  0  0
 15 16  1  0  0  0
 15 94  1  0  0  0
 15 95  1  0  0  0
 16 17  2  0  0  0
 16 18  1  0  0  0
 18 19  1  0  0  0
 18 96  1  0  0  0
 19 20  1  0  0  0
 19 97  1  0  0  0
 19 98  1  0  0  0
 20 21  2  0  0  0
 20 22  1  0  0  0
 22 23  1  0  0  0
 22 99  1  0  0  0
 23 24  1  0  0  0
 23 26  1  0  0  0
 23100  1  0  0  0
 24 25  2  0  0  0
 24 29  1  0  0  0
 26 27  1  0  0  0
 26 28  1  0  0  0
 26101  1  0  0  0
 27102  1  0  0  0
 27103  1  0  0  0
 27104  1  0  0  0
 28105  1  0  0  0
 28106  1  0  0  0
 28107  1  0  0  0
 29 30  1  0  0  0
 29108  1  0  0  0
 30 31  1  0  0  0
 30 36  1  0  0  0
 30109  1  0  0  0
 31 32  1  0  0  0
 31110  1  0  0  0
 31111  1  0  0  0
 32 33  1  0  0  0
 32112  1  0  0  0
 32113  1  0  0  0
 33 34  1  0  0  0
 33114  1  0  0  0
 33115  1  0  0  0
 34 35  1  0  0  0
 34116  1  0  0  0
 34117  1  0  0  0
 35 38  1  0  0  0
 35 39  1  0  0  0
 35 40  1  0  0  0
 36 37  2  0  0  0
 36 41  1  0  0  0
 38118  1  0  0  0
 38119  1  0  0  0
 38120  1  0  0  0
 39121  1  0  0  0
 39122  1  0  0  0
 39123  1  0  0  0
 40124  1  0  0  0
 40125  1  0  0  0
 40126  1  0  0  0
 41 42  1  0  0  0
 41127  1  0  0  0
 42 43  1  0  0  0
 42 45  1  0  0  0
 42128  1  0  0  0
 43 44  2  0  0  0
 43 50  1  0  0  0
 45 46  1  0  0  0
 45129  1  0  0  0
 45130  1  0  0  0
 46 47  1  0  0  0
 46131  1  0  0  0
 46132  1  0  0  0
 47 48  1  0  0  0
 47133  1  0  0  0
 47134  1  0  0  0
 48 49  1  0  0  0
 48135  1  0  0  0
 48136  1  0  0  0
 49137  1  0  0  0
 49138  1  0  0  0
 49139  1  0  0  0
 50 51  1  0  0  0
 50 56  1  0  0  0
 51 52  1  0  0  0
 51 54  1  0  0  0
 51140  1  0  0  0
 52 53  2  0  0  0
 52 57  1  0  0  0
 54 55  1  0  0  0
 54141  1  0  0  0
 54142  1  0  0  0
 55 56  1  0  0  0
 55143  1  0  0  0
 55144  1  0  0  0
 56145  1  0  0  0
 56146  1  0  0  0
 57 58  1  0  0  0
 57147  1  0  0  0
 58 59  1  0  0  0
 58 61  1  0  0  0
 58148  1  0  0  0
 59 60  2  0  0  0
 59 67  1  0  0  0
 61 62  1  0  0  0
 61149  1  0  0  0
 61150  1  0  0  0
 62 63  2  0  0  0
 62 64  1  0  0  0
 63 65  1  0  0  0
 64 66  2  0  0  0
 64151  1  0  0  0
 65 66  1  0  0  0
 65152  1  0  0  0
 67 68  1  0  0  0
 67153  1  0  0  0
 68 69  1  0  0  0
 68 71  1  0  0  0
 68154  1  0  0  0
 69 70  1  0  0  0
 69 78  2  0  0  0
 70155  1  0  0  0
 71 72  1  0  0  0
 71156  1  0  0  0
 71157  1  0  0  0
 72 73  1  0  0  0
 72158  1  0  0  0
 72159  1  0  0  0
 73 74  1  0  0  0
 73160  1  0  0  0
 73161  1  0  0  0
 74 75  1  0  0  0
 74162  1  0  0  0
 75 76  1  0  0  0
 75 77  2  0  0  0
 76163  1  0  0  0
 76164  1  0  0  0
 77165  1  0  0  0
M  CHG  3   1   1  35   1  49   1
M  END
> <s_m_source_file>
../4hcz_ligand.sdf

> <i_m_source_file_index>
1

> <s_epik_input>
W09IXVtDSDJdW0NASF0oW05IMytdKUMoPU8pW05IXVtDQEBIXShbQ0BIXShbT0hdKVtDSDNdKUMoPU8pW05IXVtDSDJdQyg9TylbTkhdW0NIMl1DKD1PKVtOSF1bQ0BASF0oW0NIXShbQ0gzXSlbQ0gzXSlDKD1PKVtOSF1bQ0BASF0oW0NIMl1bQ0gyXVtDSDJdW0NIMl1bTitdKFtDSDNdKShbQ0gzXSlbQ0gzXSlDKD1PKVtOSF1bQ0BASF0oW0NIMl1bQ0gyXVtDSDJdW0NIMl1bTkgzK10pQyg9TylOMVtDQEBIXShbQ0gyXVtDSDJdW0NIMl0xKUMoPU8pW05IXVtDQEBIXShbQ0gyXUMyPU5bQ0gyXU49W0NIXTIpQyg9TylbTkhdW0NASF0oQyg9TylbT0hdKVtDSDJdW0NIMl1bQ0gyXVtOSF0vQyhbTkgyXSk9TlxbSF0=

> <s_epik_cmdline>
J2VwaWtfYXBwJywgJy1pbWFlJywgJ2xpZ2FuZF9wcm8ubWFlJywgJy1vbWFlJywgJ2xpZ2FuZF9wcmVwLm1hZScsICctbXMnLCAnMScsICctcGgnLCAnNycsICctcGh0JywgJzAuNScsICctbnQn

> <s_epik_pKa_notes>
Molecule size exceeds maximum supported for generating protonation states

> <s_epik_Chemistry_Notes>
This compound has an imine and may undergo hydrolysis.

$$$$
