4hdb_ligand
                    3D
 Schrodinger Suite 2020-3.
 82 86  0  0  1  0            999 V2000
   21.0300   27.6650   14.9000 C   0  0  0  0  0  0
   19.6840   27.5730   14.5350 C   0  0  0  0  0  0
   18.9260   26.4450   14.8310 C   0  0  0  0  0  0
   19.5160   25.3650   15.4860 C   0  0  0  0  0  0
   20.8560   25.4570   15.8230 C   0  0  0  0  0  0
   21.6360   26.5720   15.5270 C   0  0  0  0  0  0
   18.5630   23.9480   15.9080 S   0  0  0  0  0  0
   17.4960   23.7720   14.8800 O   0  0  0  0  0  0
   19.4570   22.7590   16.0020 O   0  0  0  0  0  0
   17.8480   24.1840   17.3650 N   0  0  1  0  0  0
   18.7450   24.5520   18.4410 C   0  0  0  0  0  0
   18.4390   23.8320   19.7640 C   0  0  0  0  0  0
   18.6640   22.3150   19.6690 C   0  0  0  0  0  0
   19.3600   24.3830   20.8690 C   0  0  0  0  0  0
   16.5980   24.9440   17.3420 C   0  0  0  0  0  0
   15.4440   24.0910   17.8700 C   0  0  1  0  0  0
   14.2780   24.8730   18.1490 O   0  0  0  0  0  0
   15.1030   22.9320   16.9310 C   0  0  1  0  0  0
   14.1910   22.0130   17.6170 N   0  0  0  0  0  0
   14.4620   20.7510   17.9680 C   0  0  0  0  0  0
   15.5690   20.2320   17.7750 O   0  0  0  0  0  0
   13.4200   20.0860   18.5320 O   0  0  0  0  0  0
   13.6860   18.7060   18.8020 C   0  0  1  0  0  0
   13.2260   18.4400   20.2390 C   0  0  0  0  0  0
   11.7990   18.2870   20.1790 O   0  0  0  0  0  0
   11.4400   17.9360   18.8510 C   0  0  1  0  0  0
   10.6480   18.9880   18.3130 O   0  0  0  0  0  0
   11.1070   19.4040   17.0490 C   0  0  1  0  0  0
   12.2810   18.5060   16.6670 C   0  0  1  0  0  0
   12.6860   17.8570   17.9990 C   0  0  1  0  0  0
   14.3960   23.4360   15.6700 C   0  0  0  0  0  0
   12.7630   21.8300   14.5840 C   0  0  0  0  0  0
   12.4740   20.7440   13.7590 C   0  0  0  0  0  0
   13.4950   20.0750   13.0810 C   0  0  0  0  0  0
   14.8010   20.5450   13.2060 C   0  0  0  0  0  0
   15.0930   21.6200   14.0500 C   0  0  0  0  0  0
   14.0750   22.2560   14.7450 C   0  0  0  0  0  0
   21.6940   28.8250   14.6730 O   0  0  0  0  0  0
   23.0730   28.7310   15.0370 C   0  0  0  0  0  0
   10.0890   19.1310   16.0790 O   0  0  0  0  0  0
   10.1530   17.7140   15.8480 C   0  0  0  0  0  0
   11.6560   17.4990   15.7010 C   0  0  0  0  0  0
   19.2176   28.4043   14.0063 H   0  0  0  0  0  0
   17.8732   26.4055   14.5515 H   0  0  0  0  0  0
   21.3209   24.6194   16.3431 H   0  0  0  0  0  0
   22.6963   26.5922   15.7787 H   0  0  0  0  0  0
   19.7781   24.3004   18.1593 H   0  0  0  0  0  0
   18.6690   25.6333   18.6282 H   0  0  0  0  0  0
   17.3782   24.0117   19.9927 H   0  0  0  0  0  0
   18.0160   21.8966   18.8847 H   0  0  0  0  0  0
   18.4204   21.8471   20.6342 H   0  0  0  0  0  0
   19.7167   22.1154   19.4200 H   0  0  0  0  0  0
   19.2173   25.4702   20.9569 H   0  0  0  0  0  0
   20.4083   24.1703   20.6124 H   0  0  0  0  0  0
   19.1120   23.9020   21.8267 H   0  0  0  0  0  0
   16.7007   25.8379   17.9748 H   0  0  0  0  0  0
   16.3736   25.2496   16.3094 H   0  0  0  0  0  0
   15.7365   23.6966   18.8543 H   0  0  0  0  0  0
   14.3485   25.7487   18.8109 H   0  0  0  0  0  0
   16.0261   22.3946   16.6681 H   0  0  0  0  0  0
   13.1784   22.3448   17.8900 H   0  0  0  0  0  0
   14.7504   18.5426   18.5775 H   0  0  0  0  0  0
   13.7073   17.5250   20.6146 H   0  0  0  0  0  0
   13.5070   19.2906   20.8774 H   0  0  0  0  0  0
   10.8649   16.9994   18.8949 H   0  0  0  0  0  0
   11.3130   20.4829   17.1088 H   0  0  0  0  0  0
   13.1551   18.9813   16.1980 H   0  0  0  0  0  0
   13.0984   16.8580   17.7944 H   0  0  0  0  0  0
   13.4604   23.9414   15.9514 H   0  0  0  0  0  0
   15.0505   24.1442   15.1409 H   0  0  0  0  0  0
   11.9565   22.3465   15.1044 H   0  0  0  0  0  0
   11.4417   20.4142   13.6422 H   0  0  0  0  0  0
   13.2749   19.2023   12.4661 H   0  0  0  0  0  0
   15.6023   20.0697   12.6402 H   0  0  0  0  0  0
   16.1227   21.9593   14.1623 H   0  0  0  0  0  0
   23.5713   29.6910   14.8368 H   0  0  0  0  0  0
   23.5548   27.9376   14.4467 H   0  0  0  0  0  0
   23.1541   28.4920   16.1077 H   0  0  0  0  0  0
    9.7190   17.1824   16.7077 H   0  0  0  0  0  0
    9.5864   17.4647   14.9387 H   0  0  0  0  0  0
   12.0029   17.7081   14.6783 H   0  0  0  0  0  0
   11.9555   16.4804   15.9887 H   0  0  0  0  0  0
  1  2  2  0  0  0
  1  6  1  0  0  0
  1 38  1  0  0  0
  2  3  1  0  0  0
  2 43  1  0  0  0
  3  4  2  0  0  0
  3 44  1  0  0  0
  4  5  1  0  0  0
  4  7  1  0  0  0
  5  6  2  0  0  0
  5 45  1  0  0  0
  6 46  1  0  0  0
  7  8  2  0  0  0
  7  9  2  0  0  0
  7 10  1  0  0  0
 10 11  1  0  0  0
 10 15  1  0  0  0
 11 12  1  0  0  0
 11 47  1  0  0  0
 11 48  1  0  0  0
 12 13  1  0  0  0
 12 14  1  0  0  0
 12 49  1  0  0  0
 13 50  1  0  0  0
 13 51  1  0  0  0
 13 52  1  0  0  0
 14 53  1  0  0  0
 14 54  1  0  0  0
 14 55  1  0  0  0
 15 16  1  0  0  0
 15 56  1  0  0  0
 15 57  1  0  0  0
 16 17  1  0  0  0
 16 18  1  0  0  0
 16 58  1  0  0  0
 17 59  1  0  0  0
 18 19  1  0  0  0
 18 31  1  0  0  0
 18 60  1  0  0  0
 19 20  1  0  0  0
 19 61  1  0  0  0
 20 21  2  0  0  0
 20 22  1  0  0  0
 22 23  1  0  0  0
 23 24  1  0  0  0
 23 30  1  0  0  0
 23 62  1  0  0  0
 24 25  1  0  0  0
 24 63  1  0  0  0
 24 64  1  0  0  0
 25 26  1  0  0  0
 26 27  1  0  0  0
 26 30  1  0  0  0
 26 65  1  0  0  0
 27 28  1  0  0  0
 28 29  1  0  0  0
 28 40  1  0  0  0
 28 66  1  0  0  0
 29 30  1  0  0  0
 29 42  1  0  0  0
 29 67  1  0  0  0
 30 68  1  0  0  0
 31 37  1  0  0  0
 31 69  1  0  0  0
 31 70  1  0  0  0
 32 33  2  0  0  0
 32 37  1  0  0  0
 32 71  1  0  0  0
 33 34  1  0  0  0
 33 72  1  0  0  0
 34 35  2  0  0  0
 34 73  1  0  0  0
 35 36  1  0  0  0
 35 74  1  0  0  0
 36 37  2  0  0  0
 36 75  1  0  0  0
 38 39  1  0  0  0
 39 76  1  0  0  0
 39 77  1  0  0  0
 39 78  1  0  0  0
 40 41  1  0  0  0
 41 42  1  0  0  0
 41 79  1  0  0  0
 41 80  1  0  0  0
 42 81  1  0  0  0
 42 82  1  0  0  0
M  END
> <s_m_source_file>
../4hdb_ligand.sdf

> <i_m_source_file_index>
1

> <s_epik_input>
W0NIM11PYzFbY0hdW2NIXWMoW2NIXVtjSF0xKVMoPU8pKD1PKU4oW0NIMl1bQ0hdKFtDSDNdKVtDSDNdKVtDSDJdW0NAQEhdKFtPSF0pW0NASF0oW0NIMl1jMltjSF1bY0hdW2NIXVtjSF1bY0hdMilbTkhdQyg9TylPW0NAQEhdKFtDSDJdTzMpW0NAQEhdKFtDQEBIXTM0KVtDQEBIXTVbQ0BIXShPNClPW0NIMl1bQ0gyXTU=

> <s_epik_cmdline>
J2VwaWtfYXBwJywgJy1pbWFlJywgJ2xpZ2FuZF9wcm8ubWFlJywgJy1vbWFlJywgJ2xpZ2FuZF9wcmVwLm1hZScsICctbXMnLCAnMScsICctcGgnLCAnNycsICctcGh0JywgJzAuNScsICctbnQn

> <r_lp_tautomer_probability>
1

> <r_epik_Ionization_Penalty>
  0.0000

> <r_epik_Ionization_Penalty_Charging>
  0.0000

> <r_epik_Ionization_Penalty_Neutral>
  0.0000

> <r_epik_State_Penalty>
 -0.0000

> <r_epik_Charging_Adjusted_Penalty>
0

> <i_epik_Tot_Q>
0

> <i_epik_Tot_abs_Q>
0

> <s_epik_Chemistry_Notes>
This compound has an ester and may undergo hydrolysis at high or low pH. This compound contains an acetal/aminal-like group ( X-CH(R)-Y where X, Y are N, S, or O) that may be acid/base labile, releasing an aldehyde.

$$$$
