4he9_ligand
                    3D
 Schrodinger Suite 2020-3.
 82 86  0  0  1  0            999 V2000
    8.3080   15.3370   14.9380 C   0  0  0  0  0  0
    9.6530   15.3950   14.5540 C   0  0  0  0  0  0
   10.4320   16.5000   14.8660 C   0  0  0  0  0  0
    9.8430   17.5880   15.5070 C   0  0  0  0  0  0
    8.4970   17.5560   15.8200 C   0  0  0  0  0  0
    7.7060   16.4640   15.4950 C   0  0  0  0  0  0
   10.8020   18.9720   16.0090 S   0  0  0  0  0  0
   11.8750   19.0450   14.9890 O   0  0  0  0  0  0
    9.9150   20.0830   16.1790 O   0  0  0  0  0  0
   11.5020   18.6420   17.4340 N   0  0  1  0  0  0
   10.5790   18.3540   18.5290 C   0  0  0  0  0  0
   11.0160   18.9810   19.8740 C   0  0  0  0  0  0
   11.0730   20.5050   19.7550 C   0  0  0  0  0  0
    9.9660   18.5810   20.9330 C   0  0  0  0  0  0
   12.7840   17.9610   17.4770 C   0  0  0  0  0  0
   13.9540   18.8180   17.9070 C   0  0  1  0  0  0
   15.0880   18.0310   18.2470 O   0  0  0  0  0  0
   14.3530   19.9380   16.9840 C   0  0  1  0  0  0
   15.2330   20.8720   17.6470 N   0  0  0  0  0  0
   14.9560   22.1310   17.9930 C   0  0  0  0  0  0
   13.8730   22.7250   17.7450 O   0  0  0  0  0  0
   15.9820   22.7100   18.6510 O   0  0  0  0  0  0
   15.8370   24.1290   18.9750 C   0  0  1  0  0  0
   16.4180   24.2980   20.3790 C   0  0  0  0  0  0
   17.8260   24.3740   20.1950 O   0  0  0  0  0  0
   18.1400   24.7690   18.9080 C   0  0  1  0  0  0
   18.8490   23.7650   18.2340 O   0  0  0  0  0  0
   18.2880   23.4430   16.9810 C   0  0  1  0  0  0
   17.1180   24.3830   16.7600 C   0  0  1  0  0  0
   16.8510   24.9520   18.1400 C   0  0  1  0  0  0
   15.0180   19.4710   15.6940 C   0  0  0  0  0  0
   16.5750   21.1730   14.6210 C   0  0  0  0  0  0
   16.7800   22.2650   13.8220 C   0  0  0  0  0  0
   15.7180   22.8620   13.1840 C   0  0  0  0  0  0
   14.4140   22.3640   13.2670 C   0  0  0  0  0  0
   14.2170   21.2840   14.0870 C   0  0  0  0  0  0
   15.2730   20.6830   14.7850 C   0  0  0  0  0  0
    7.6770   14.1580   14.7410 O   0  0  0  0  0  0
    6.2950   14.1360   15.0080 C   0  0  0  0  0  0
   19.2580   23.6630   15.9620 O   0  0  0  0  0  0
   19.2020   25.0940   15.8560 C   0  0  0  0  0  0
   17.7130   25.4100   15.7750 C   0  0  0  0  0  0
   10.0930   14.5631   14.0040 H   0  0  0  0  0  0
   11.4920   16.5168   14.6127 H   0  0  0  0  0  0
    8.0479   18.4065   16.3328 H   0  0  0  0  0  0
    6.6308   16.4868   15.6723 H   0  0  0  0  0  0
    9.5836   18.7529   18.2840 H   0  0  0  0  0  0
   10.5120   17.2659   18.6755 H   0  0  0  0  0  0
   12.0197   18.6321   20.1583 H   0  0  0  0  0  0
   11.8219   20.7860   18.9999 H   0  0  0  0  0  0
   11.3516   20.9385   20.7268 H   0  0  0  0  0  0
   10.0865   20.8863   19.4527 H   0  0  0  0  0  0
    9.9279   17.4848   21.0157 H   0  0  0  0  0  0
    8.9785   18.9606   20.6318 H   0  0  0  0  0  0
   10.2436   19.0127   21.9059 H   0  0  0  0  0  0
   12.7308   17.1238   18.1885 H   0  0  0  0  0  0
   13.0287   17.5764   16.4759 H   0  0  0  0  0  0
   13.6204   19.2996   18.8380 H   0  0  0  0  0  0
   14.9762   17.1659   18.9171 H   0  0  0  0  0  0
   13.4205   20.4694   16.7431 H   0  0  0  0  0  0
   16.2539   20.5668   17.9201 H   0  0  0  0  0  0
   14.7785   24.3887   18.8260 H   0  0  0  0  0  0
   16.0199   25.2178   20.8323 H   0  0  0  0  0  0
   16.1379   23.4331   20.9983 H   0  0  0  0  0  0
   18.7882   25.6506   19.0204 H   0  0  0  0  0  0
   18.0277   22.3743   16.9716 H   0  0  0  0  0  0
   16.1751   23.9701   16.3722 H   0  0  0  0  0  0
   16.4962   25.9829   17.9940 H   0  0  0  0  0  0
   15.9741   18.9813   15.9308 H   0  0  0  0  0  0
   14.3582   18.7573   15.1789 H   0  0  0  0  0  0
   17.4138   20.6909   15.1231 H   0  0  0  0  0  0
   17.7866   22.6622   13.6911 H   0  0  0  0  0  0
   15.8998   23.7581   12.5906 H   0  0  0  0  0  0
   13.5940   22.8131   12.7066 H   0  0  0  0  0  0
   13.2105   20.8810   14.1995 H   0  0  0  0  0  0
    5.8996   13.1286   14.8113 H   0  0  0  0  0  0
    5.7847   14.8633   14.3595 H   0  0  0  0  0  0
    6.1209   14.3989   16.0618 H   0  0  0  0  0  0
   19.6706   25.5459   16.7427 H   0  0  0  0  0  0
   19.7404   25.4161   14.9525 H   0  0  0  0  0  0
   17.2898   25.2450   14.7732 H   0  0  0  0  0  0
   17.4678   26.4275   16.1136 H   0  0  0  0  0  0
  1  2  2  0  0  0
  1  6  1  0  0  0
  1 38  1  0  0  0
  2  3  1  0  0  0
  2 43  1  0  0  0
  3  4  2  0  0  0
  3 44  1  0  0  0
  4  5  1  0  0  0
  4  7  1  0  0  0
  5  6  2  0  0  0
  5 45  1  0  0  0
  6 46  1  0  0  0
  7  8  2  0  0  0
  7  9  2  0  0  0
  7 10  1  0  0  0
 10 11  1  0  0  0
 10 15  1  0  0  0
 11 12  1  0  0  0
 11 47  1  0  0  0
 11 48  1  0  0  0
 12 13  1  0  0  0
 12 14  1  0  0  0
 12 49  1  0  0  0
 13 50  1  0  0  0
 13 51  1  0  0  0
 13 52  1  0  0  0
 14 53  1  0  0  0
 14 54  1  0  0  0
 14 55  1  0  0  0
 15 16  1  0  0  0
 15 56  1  0  0  0
 15 57  1  0  0  0
 16 17  1  0  0  0
 16 18  1  0  0  0
 16 58  1  0  0  0
 17 59  1  0  0  0
 18 19  1  0  0  0
 18 31  1  0  0  0
 18 60  1  0  0  0
 19 20  1  0  0  0
 19 61  1  0  0  0
 20 21  2  0  0  0
 20 22  1  0  0  0
 22 23  1  0  0  0
 23 24  1  0  0  0
 23 30  1  0  0  0
 23 62  1  0  0  0
 24 25  1  0  0  0
 24 63  1  0  0  0
 24 64  1  0  0  0
 25 26  1  0  0  0
 26 27  1  0  0  0
 26 30  1  0  0  0
 26 65  1  0  0  0
 27 28  1  0  0  0
 28 29  1  0  0  0
 28 40  1  0  0  0
 28 66  1  0  0  0
 29 30  1  0  0  0
 29 42  1  0  0  0
 29 67  1  0  0  0
 30 68  1  0  0  0
 31 37  1  0  0  0
 31 69  1  0  0  0
 31 70  1  0  0  0
 32 33  2  0  0  0
 32 37  1  0  0  0
 32 71  1  0  0  0
 33 34  1  0  0  0
 33 72  1  0  0  0
 34 35  2  0  0  0
 34 73  1  0  0  0
 35 36  1  0  0  0
 35 74  1  0  0  0
 36 37  2  0  0  0
 36 75  1  0  0  0
 38 39  1  0  0  0
 39 76  1  0  0  0
 39 77  1  0  0  0
 39 78  1  0  0  0
 40 41  1  0  0  0
 41 42  1  0  0  0
 41 79  1  0  0  0
 41 80  1  0  0  0
 42 81  1  0  0  0
 42 82  1  0  0  0
M  END
> <s_m_source_file>
../4he9_ligand.sdf

> <i_m_source_file_index>
1

> <s_epik_input>
W0NIM11PYzFbY0hdW2NIXWMoW2NIXVtjSF0xKVMoPU8pKD1PKU4oW0NIMl1bQ0hdKFtDSDNdKVtDSDNdKVtDSDJdW0NAQEhdKFtPSF0pW0NASF0oW0NIMl1jMltjSF1bY0hdW2NIXVtjSF1bY0hdMilbTkhdQyg9TylPW0NAQEhdKFtDSDJdTzMpW0NAQEhdKFtDQEBIXTM0KVtDQEBIXTVbQ0BIXShPNClPW0NIMl1bQ0gyXTU=

> <s_epik_cmdline>
J2VwaWtfYXBwJywgJy1pbWFlJywgJ2xpZ2FuZF9wcm8ubWFlJywgJy1vbWFlJywgJ2xpZ2FuZF9wcmVwLm1hZScsICctbXMnLCAnMScsICctcGgnLCAnNycsICctcGh0JywgJzAuNScsICctbnQn

> <r_lp_tautomer_probability>
1

> <r_epik_Ionization_Penalty>
  0.0000

> <r_epik_Ionization_Penalty_Charging>
  0.0000

> <r_epik_Ionization_Penalty_Neutral>
  0.0000

> <r_epik_State_Penalty>
 -0.0000

> <r_epik_Charging_Adjusted_Penalty>
0

> <i_epik_Tot_Q>
0

> <i_epik_Tot_abs_Q>
0

> <s_epik_Chemistry_Notes>
This compound has an ester and may undergo hydrolysis at high or low pH. This compound contains an acetal/aminal-like group ( X-CH(R)-Y where X, Y are N, S, or O) that may be acid/base labile, releasing an aldehyde.

$$$$
