4heg_ligand
                    3D
 Schrodinger Suite 2020-3.
 82 86  0  0  1  0            999 V2000
  -17.1880  -24.9920   20.0570 C   0  0  0  0  0  0
  -16.4290  -24.1480   20.8690 C   0  0  0  0  0  0
  -15.3570  -23.4220   20.3750 C   0  0  0  0  0  0
  -14.9840  -23.5920   19.0640 C   0  0  0  0  0  0
  -15.6740  -24.4960   18.2730 C   0  0  0  0  0  0
  -16.7490  -25.2360   18.7670 C   0  0  0  0  0  0
  -13.6540  -22.6550   18.4150 S   0  0  0  0  0  0
  -12.6980  -22.2680   19.5030 O   0  0  0  0  0  0
  -13.0050  -23.3820   17.3170 O   0  0  0  0  0  0
  -14.2430  -21.2570   17.7800 N   0  0  1  0  0  0
  -15.3470  -21.4120   16.8590 C   0  0  0  0  0  0
  -15.2960  -20.4400   15.6730 C   0  0  0  0  0  0
  -13.9670  -20.5070   14.9160 C   0  0  0  0  0  0
  -16.3980  -20.8070   14.6510 C   0  0  0  0  0  0
  -14.4210  -20.2080   18.7820 C   0  0  0  0  0  0
  -13.5890  -19.0000   18.3810 C   0  0  1  0  0  0
  -14.0640  -17.8150   19.0290 O   0  0  0  0  0  0
  -12.1010  -19.2340   18.6100 C   0  0  1  0  0  0
  -11.3190  -18.1920   17.9620 N   0  0  0  0  0  0
  -10.5230  -18.2750   16.8970 C   0  0  0  0  0  0
  -10.3330  -19.2820   16.1980 O   0  0  0  0  0  0
   -9.8900  -17.1060   16.6150 O   0  0  0  0  0  0
   -8.9320  -17.1460   15.5560 C   0  0  1  0  0  0
   -9.1640  -15.8920   14.7100 C   0  0  0  0  0  0
   -8.5050  -14.8250   15.3920 O   0  0  0  0  0  0
   -7.4510  -15.3400   16.2080 C   0  0  1  0  0  0
   -7.7430  -15.0080   17.5700 O   0  0  0  0  0  0
   -7.7160  -16.1470   18.4040 C   0  0  1  0  0  0
   -7.3000  -17.3290   17.5290 C   0  0  1  0  0  0
   -7.5230  -16.8530   16.1010 C   0  0  1  0  0  0
  -11.7530  -19.2700   20.1010 C   0  0  0  0  0  0
   -9.4430  -18.5220   20.7390 C   0  0  0  0  0  0
   -8.0870  -18.7650   20.8140 C   0  0  0  0  0  0
   -7.5780  -19.9990   20.4380 C   0  0  0  0  0  0
   -8.4250  -21.0540   20.1250 C   0  0  0  0  0  0
   -9.7810  -20.8160   20.0130 C   0  0  0  0  0  0
  -10.2700  -19.5520   20.2990 C   0  0  0  0  0  0
  -18.2190  -25.6270   20.6540 O   0  0  0  0  0  0
  -19.0440  -26.3760   19.7690 C   0  0  0  0  0  0
   -6.7030  -16.0380   19.4070 O   0  0  0  0  0  0
   -5.4810  -16.2230   18.7000 C   0  0  0  0  0  0
   -5.8010  -17.4430   17.8570 C   0  0  0  0  0  0
  -16.6873  -24.0571   21.9240 H   0  0  0  0  0  0
  -14.8176  -22.7261   21.0175 H   0  0  0  0  0  0
  -15.3687  -24.6331   17.2357 H   0  0  0  0  0  0
  -17.2338  -25.9917   18.1489 H   0  0  0  0  0  0
  -15.3416  -22.4326   16.4486 H   0  0  0  0  0  0
  -16.2944  -21.2350   17.3891 H   0  0  0  0  0  0
  -15.4220  -19.4331   16.0977 H   0  0  0  0  0  0
  -13.1428  -20.2534   15.5990 H   0  0  0  0  0  0
  -13.9844  -19.7915   14.0807 H   0  0  0  0  0  0
  -13.8189  -21.5242   14.5245 H   0  0  0  0  0  0
  -17.3808  -20.7746   15.1440 H   0  0  0  0  0  0
  -16.2156  -21.8200   14.2631 H   0  0  0  0  0  0
  -16.3811  -20.0873   13.8193 H   0  0  0  0  0  0
  -15.4834  -19.9277   18.8346 H   0  0  0  0  0  0
  -14.0906  -20.5786   19.7636 H   0  0  0  0  0  0
  -13.7403  -18.7852   17.3128 H   0  0  0  0  0  0
  -15.1226  -17.5284   18.9441 H   0  0  0  0  0  0
  -11.8255  -20.1883   18.1374 H   0  0  0  0  0  0
  -11.3402  -17.1644   18.3539 H   0  0  0  0  0  0
   -9.0679  -18.1310   15.0855 H   0  0  0  0  0  0
   -8.7392  -16.0429   13.7066 H   0  0  0  0  0  0
  -10.2440  -15.7010   14.6259 H   0  0  0  0  0  0
   -6.4923  -14.8897   15.9112 H   0  0  0  0  0  0
   -8.6976  -16.1932   18.8983 H   0  0  0  0  0  0
   -7.8310  -18.2823   17.6679 H   0  0  0  0  0  0
   -6.7873  -17.3443   15.4472 H   0  0  0  0  0  0
  -11.9949  -18.2989   20.5575 H   0  0  0  0  0  0
  -12.3351  -20.0623   20.5944 H   0  0  0  0  0  0
   -9.8550  -17.5517   21.0162 H   0  0  0  0  0  0
   -7.4139  -17.9850   21.1698 H   0  0  0  0  0  0
   -6.4987  -20.1427   20.3875 H   0  0  0  0  0  0
   -8.0253  -22.0561   19.9698 H   0  0  0  0  0  0
  -10.4576  -21.6126   19.7035 H   0  0  0  0  0  0
  -19.8527  -26.8560   20.3396 H   0  0  0  0  0  0
  -18.4399  -27.1476   19.2693 H   0  0  0  0  0  0
  -19.4771  -25.7034   19.0140 H   0  0  0  0  0  0
   -5.2640  -15.3257   18.1019 H   0  0  0  0  0  0
   -4.6643  -16.3919   19.4173 H   0  0  0  0  0  0
   -5.6167  -18.3754   18.4108 H   0  0  0  0  0  0
   -5.2207  -17.4508   16.9225 H   0  0  0  0  0  0
  1  2  2  0  0  0
  1  6  1  0  0  0
  1 38  1  0  0  0
  2  3  1  0  0  0
  2 43  1  0  0  0
  3  4  2  0  0  0
  3 44  1  0  0  0
  4  5  1  0  0  0
  4  7  1  0  0  0
  5  6  2  0  0  0
  5 45  1  0  0  0
  6 46  1  0  0  0
  7  8  2  0  0  0
  7  9  2  0  0  0
  7 10  1  0  0  0
 10 11  1  0  0  0
 10 15  1  0  0  0
 11 12  1  0  0  0
 11 47  1  0  0  0
 11 48  1  0  0  0
 12 13  1  0  0  0
 12 14  1  0  0  0
 12 49  1  0  0  0
 13 50  1  0  0  0
 13 51  1  0  0  0
 13 52  1  0  0  0
 14 53  1  0  0  0
 14 54  1  0  0  0
 14 55  1  0  0  0
 15 16  1  0  0  0
 15 56  1  0  0  0
 15 57  1  0  0  0
 16 17  1  0  0  0
 16 18  1  0  0  0
 16 58  1  0  0  0
 17 59  1  0  0  0
 18 19  1  0  0  0
 18 31  1  0  0  0
 18 60  1  0  0  0
 19 20  1  0  0  0
 19 61  1  0  0  0
 20 21  2  0  0  0
 20 22  1  0  0  0
 22 23  1  0  0  0
 23 24  1  0  0  0
 23 30  1  0  0  0
 23 62  1  0  0  0
 24 25  1  0  0  0
 24 63  1  0  0  0
 24 64  1  0  0  0
 25 26  1  0  0  0
 26 27  1  0  0  0
 26 30  1  0  0  0
 26 65  1  0  0  0
 27 28  1  0  0  0
 28 29  1  0  0  0
 28 40  1  0  0  0
 28 66  1  0  0  0
 29 30  1  0  0  0
 29 42  1  0  0  0
 29 67  1  0  0  0
 30 68  1  0  0  0
 31 37  1  0  0  0
 31 69  1  0  0  0
 31 70  1  0  0  0
 32 33  2  0  0  0
 32 37  1  0  0  0
 32 71  1  0  0  0
 33 34  1  0  0  0
 33 72  1  0  0  0
 34 35  2  0  0  0
 34 73  1  0  0  0
 35 36  1  0  0  0
 35 74  1  0  0  0
 36 37  2  0  0  0
 36 75  1  0  0  0
 38 39  1  0  0  0
 39 76  1  0  0  0
 39 77  1  0  0  0
 39 78  1  0  0  0
 40 41  1  0  0  0
 41 42  1  0  0  0
 41 79  1  0  0  0
 41 80  1  0  0  0
 42 81  1  0  0  0
 42 82  1  0  0  0
M  END
> <s_m_source_file>
../4heg_ligand.sdf

> <i_m_source_file_index>
1

> <s_epik_input>
W0NIM11PYzFbY0hdW2NIXWMoW2NIXVtjSF0xKVMoPU8pKD1PKU4oW0NIMl1bQ0hdKFtDSDNdKVtDSDNdKVtDSDJdW0NAQEhdKFtPSF0pW0NASF0oW0NIMl1jMltjSF1bY0hdW2NIXVtjSF1bY0hdMilbTkhdQyg9TylPW0NAQEhdKFtDSDJdTzMpW0NAQEhdKFtDQEBIXTM0KVtDQEBIXTVbQ0BIXShPNClPW0NIMl1bQ0gyXTU=

> <s_epik_cmdline>
J2VwaWtfYXBwJywgJy1pbWFlJywgJ2xpZ2FuZF9wcm8ubWFlJywgJy1vbWFlJywgJ2xpZ2FuZF9wcmVwLm1hZScsICctbXMnLCAnMScsICctcGgnLCAnNycsICctcGh0JywgJzAuNScsICctbnQn

> <r_lp_tautomer_probability>
1

> <r_epik_Ionization_Penalty>
  0.0000

> <r_epik_Ionization_Penalty_Charging>
  0.0000

> <r_epik_Ionization_Penalty_Neutral>
  0.0000

> <r_epik_State_Penalty>
 -0.0000

> <r_epik_Charging_Adjusted_Penalty>
0

> <i_epik_Tot_Q>
0

> <i_epik_Tot_abs_Q>
0

> <s_epik_Chemistry_Notes>
This compound has an ester and may undergo hydrolysis at high or low pH. This compound contains an acetal/aminal-like group ( X-CH(R)-Y where X, Y are N, S, or O) that may be acid/base labile, releasing an aldehyde.

$$$$
