4heu_ligand
                    3D
 Schrodinger Suite 2020-3.
 56 60  0  0  1  0            999 V2000
   15.0720   84.5850   33.9290 O   0  0  0  0  0  0
   14.6680   85.9170   33.5850 C   0  0  0  0  0  0
   13.4430   86.3640   34.3940 C   0  0  0  0  0  0
   13.7500   86.3400   35.8990 C   0  0  0  0  0  0
   12.5340   86.7960   36.7190 C   0  0  0  0  0  0
   13.0880   87.7980   33.9680 C   0  0  0  0  0  0
   11.9320   88.4100   34.7750 C   0  0  0  0  0  0
   12.0050   88.1120   36.2330 N   0  0  0  0  0  0
   11.4140   89.0080   37.1510 C   0  0  0  0  0  0
   10.1770   89.4790   36.8830 N   0  0  0  0  0  0
    9.5440   90.3120   37.7000 C   0  0  0  0  0  0
   10.1440   90.7350   38.8840 C   0  0  0  0  0  0
   11.4210   90.2730   39.1980 C   0  0  0  0  0  0
   12.0660   89.3910   38.3280 C   0  0  0  0  0  0
   13.3280   88.9150   38.5750 O   0  0  0  0  0  0
   13.7940   88.7100   39.8450 C   0  0  0  0  0  0
   15.0560   89.1930   40.1940 C   0  0  0  0  0  0
   15.5620   88.9840   41.4800 C   0  0  0  0  0  0
   13.0510   87.9940   40.7830 C   0  0  0  0  0  0
   13.5580   87.7890   42.0650 C   0  0  0  0  0  0
   14.8140   88.2720   42.4270 C   0  0  0  0  0  0
   15.2300   88.0270   43.6820 N   0  0  0  0  0  0
   16.4680   88.1670   44.1810 C   0  0  0  0  0  0
   17.6030   88.2900   43.4920 N   0  0  0  0  0  0
   18.5950   88.4070   44.3760 C   0  0  0  0  0  0
   19.9740   88.5690   44.2330 C   0  0  0  0  0  0
   20.7870   88.6600   45.3660 C   0  0  0  0  0  0
   20.2170   88.5920   46.6420 C   0  0  0  0  0  0
   18.8370   88.4350   46.7830 C   0  0  0  0  0  0
   18.0280   88.3430   45.6480 C   0  0  0  0  0  0
   16.7150   88.1920   45.4900 N   0  3  0  0  0  0
   15.9386   84.1269   33.4299 H   0  0  0  0  0  0
   15.4929   86.6150   33.7908 H   0  0  0  0  0  0
   14.4113   85.9578   32.5162 H   0  0  0  0  0  0
   12.6048   85.6782   34.2017 H   0  0  0  0  0  0
   14.0153   85.3166   36.2028 H   0  0  0  0  0  0
   14.5915   87.0156   36.1124 H   0  0  0  0  0  0
   11.7331   86.0467   36.6348 H   0  0  0  0  0  0
   12.8238   86.9059   37.7744 H   0  0  0  0  0  0
   13.9645   88.4485   34.1040 H   0  0  0  0  0  0
   12.7887   87.8026   32.9095 H   0  0  0  0  0  0
   11.9438   89.5040   34.6606 H   0  0  0  0  0  0
   10.9755   88.0129   34.4043 H   0  0  0  0  0  0
    8.5465   90.6680   37.4424 H   0  0  0  0  0  0
    9.6224   91.4174   39.5551 H   0  0  0  0  0  0
   11.9124   90.5975   40.1153 H   0  0  0  0  0  0
   15.6504   89.7363   39.4595 H   0  0  0  0  0  0
   16.5430   89.3767   41.7474 H   0  0  0  0  0  0
   12.0733   87.5945   40.5135 H   0  0  0  0  0  0
   12.9626   87.2422   42.7961 H   0  0  0  0  0  0
   14.5164   87.6662   44.4374 H   0  0  0  0  0  0
   20.4200   88.6249   43.2290 H   0  0  0  0  0  0
   21.8742   88.7850   45.2552 H   0  0  0  0  0  0
   20.8563   88.6623   47.5344 H   0  0  0  0  0  0
   18.3918   88.3843   47.7766 H   0  0  0  0  0  0
   16.0604   88.1142   46.3706 H   0  0  0  0  0  0
  1  2  1  0  0  0
  1 32  1  0  0  0
  2  3  1  0  0  0
  2 33  1  0  0  0
  2 34  1  0  0  0
  3  4  1  0  0  0
  3  6  1  0  0  0
  3 35  1  0  0  0
  4  5  1  0  0  0
  4 36  1  0  0  0
  4 37  1  0  0  0
  5  8  1  0  0  0
  5 38  1  0  0  0
  5 39  1  0  0  0
  6  7  1  0  0  0
  6 40  1  0  0  0
  6 41  1  0  0  0
  7  8  1  0  0  0
  7 42  1  0  0  0
  7 43  1  0  0  0
  8  9  1  0  0  0
  9 10  2  0  0  0
  9 14  1  0  0  0
 10 11  1  0  0  0
 11 12  2  0  0  0
 11 44  1  0  0  0
 12 13  1  0  0  0
 12 45  1  0  0  0
 13 14  2  0  0  0
 13 46  1  0  0  0
 14 15  1  0  0  0
 15 16  1  0  0  0
 16 17  2  0  0  0
 16 19  1  0  0  0
 17 18  1  0  0  0
 17 47  1  0  0  0
 18 21  2  0  0  0
 18 48  1  0  0  0
 19 20  2  0  0  0
 19 49  1  0  0  0
 20 21  1  0  0  0
 20 50  1  0  0  0
 21 22  1  0  0  0
 22 23  1  0  0  0
 22 51  1  0  0  0
 23 24  2  0  0  0
 23 31  1  0  0  0
 24 25  1  0  0  0
 25 26  2  0  0  0
 25 30  1  0  0  0
 26 27  1  0  0  0
 26 52  1  0  0  0
 27 28  2  0  0  0
 27 53  1  0  0  0
 28 29  1  0  0  0
 28 54  1  0  0  0
 29 30  1  0  0  0
 29 55  1  0  0  0
 30 31  2  0  0  0
 31 56  1  0  0  0
M  CHG  1  31   1
M  END
> <s_m_source_file>
../4heu_ligand.sdf

> <i_m_source_file_index>
1

> <s_epik_input>
W09IXVtDSDJdW0NIXTFbQ0gyXVtDSDJdTihbQ0gyXVtDSDJdMSljMm5bY0hdW2NIXVtjSF1jMk9jM1tjSF1bY0hdYyhbY0hdW2NIXTMpW05IXUMoPU40KU49QyhDND01KVtDSDJdW0NIXT1bQ0hdW0NIXTU=

> <s_epik_cmdline>
J2VwaWtfYXBwJywgJy1pbWFlJywgJ2xpZ2FuZF9wcm8ubWFlJywgJy1vbWFlJywgJ2xpZ2FuZF9wcmVwLm1hZScsICctbXMnLCAnMScsICctcGgnLCAnNycsICctcGh0JywgJzAuNScsICctbnQn

> <r_lp_tautomer_probability>
1

> <r_epik_Ionization_Penalty>
  0.0097

> <r_epik_Ionization_Penalty_Charging>
  0.0000

> <r_epik_Ionization_Penalty_Neutral>
  0.0097

> <r_epik_State_Penalty>
 -0.0000

> <r_epik_Charging_Adjusted_Penalty>
4.5231294179547e-06

> <i_epik_Tot_Q>
1

> <i_epik_Tot_abs_Q>
1

> <s_epik_Chemistry_Notes>
This compound has an imine and may undergo hydrolysis.

$$$$
