4hev_ligand
                    3D
 Schrodinger Suite 2020-3.
 34 36  0  0  1  0            999 V2000
   -4.7640   -4.4020   21.8480 O   0  0  0  0  0  0
   -4.5100   -5.1650   22.7670 C   0  0  0  0  0  0
   -3.9400   -4.7570   23.8960 N   0  0  0  0  0  0
   -3.8220   -3.3930   24.1520 O   0  0  0  0  0  0
   -4.8460   -6.6350   22.6570 C   0  0  0  0  0  0
   -3.9580   -7.3250   21.6240 C   0  0  0  0  0  0
   -2.5790   -6.6760   21.5820 C   0  0  0  0  0  0
   -1.7140   -7.3700   20.5360 C   0  0  1  0  0  0
   -3.8030   -8.7920   22.0010 C   0  0  0  0  0  0
   -2.9420   -9.5080   20.9630 C   0  0  1  0  0  0
   -3.6020   -9.3930   19.5940 C   0  0  0  0  0  0
   -1.5700   -8.8430   20.9030 C   0  0  0  0  0  0
   -4.6320   -7.2370   20.2620 C   0  0  0  0  0  0
   -3.7680   -7.9250   19.2120 C   0  0  1  0  0  0
   -2.3980   -7.2530   19.1780 C   0  0  0  0  0  0
   -3.5627   -5.4883   24.6260 H   0  0  0  0  0  0
   -3.3515   -3.0470   25.0842 H   0  0  0  0  0  0
   -4.6936   -7.1199   23.6325 H   0  0  0  0  0  0
   -5.8964   -6.7492   22.3509 H   0  0  0  0  0  0
   -2.6822   -5.6123   21.3213 H   0  0  0  0  0  0
   -2.1007   -6.7671   22.5684 H   0  0  0  0  0  0
   -0.7195   -6.9014   20.4971 H   0  0  0  0  0  0
   -3.3209   -8.8683   22.9868 H   0  0  0  0  0  0
   -4.7942   -9.2673   22.0399 H   0  0  0  0  0  0
   -2.8365  -10.5673   21.2399 H   0  0  0  0  0  0
   -2.9744   -9.8926   18.8413 H   0  0  0  0  0  0
   -4.5917   -9.8722   19.6227 H   0  0  0  0  0  0
   -0.9564   -9.3515   20.1447 H   0  0  0  0  0  0
   -1.0845   -8.9302   21.8862 H   0  0  0  0  0  0
   -5.6135   -7.7318   20.3059 H   0  0  0  0  0  0
   -4.7660   -6.1805   19.9868 H   0  0  0  0  0  0
   -4.2434   -7.8486   18.2230 H   0  0  0  0  0  0
   -2.5265   -6.1908   18.9225 H   0  0  0  0  0  0
   -1.7783   -7.7420   18.4119 H   0  0  0  0  0  0
  1  2  2  0  0  0
  2  3  1  0  0  0
  2  5  1  0  0  0
  3  4  1  0  0  0
  3 16  1  0  0  0
  4 17  1  0  0  0
  5  6  1  0  0  0
  5 18  1  0  0  0
  5 19  1  0  0  0
  6  7  1  0  0  0
  6  9  1  0  0  0
  6 13  1  0  0  0
  7  8  1  0  0  0
  7 20  1  0  0  0
  7 21  1  0  0  0
  8 12  1  0  0  0
  8 15  1  0  0  0
  8 22  1  0  0  0
  9 10  1  0  0  0
  9 23  1  0  0  0
  9 24  1  0  0  0
 10 11  1  0  0  0
 10 12  1  0  0  0
 10 25  1  0  0  0
 11 14  1  0  0  0
 11 26  1  0  0  0
 11 27  1  0  0  0
 12 28  1  0  0  0
 12 29  1  0  0  0
 13 14  1  0  0  0
 13 30  1  0  0  0
 13 31  1  0  0  0
 14 15  1  0  0  0
 14 32  1  0  0  0
 15 33  1  0  0  0
 15 34  1  0  0  0
M  END
> <s_m_source_file>
../4hev_ligand.sdf

> <i_m_source_file_index>
1

> <s_epik_input>
W09IXVtOSF1DKD1PKVtDSDJdQzEyW0NIMl1bQ0BIXTNbQ0gyXVtDQEBIXShbQ0gyXTEpW0NIMl1bQ0BASF0oW0NIMl0yKVtDSDJdMw==

> <s_epik_cmdline>
J2VwaWtfYXBwJywgJy1pbWFlJywgJ2xpZ2FuZF9wcm8ubWFlJywgJy1vbWFlJywgJ2xpZ2FuZF9wcmVwLm1hZScsICctbXMnLCAnMScsICctcGgnLCAnNycsICctcGh0JywgJzAuNScsICctbnQn

> <r_lp_tautomer_probability>
1

> <r_epik_Ionization_Penalty>
  0.0035

> <r_epik_Ionization_Penalty_Charging>
  0.0000

> <r_epik_Ionization_Penalty_Neutral>
  0.0035

> <r_epik_State_Penalty>
 -0.0000

> <r_epik_Charging_Adjusted_Penalty>
0

> <i_epik_Tot_Q>
0

> <i_epik_Tot_abs_Q>
0

> <s_epik_Chemistry_Notes>
This compound has a N-S or N-O group and may undergo hydrolysis at high or low pH.

$$$$
