4hf4_ligand
                    3D
 Schrodinger Suite 2020-3.
 57 61  0  0  1  0            999 V2000
   17.7530   88.0950   43.9750 N   0  0  0  0  0  0
   18.8410   88.3170   44.7490 C   0  0  0  0  0  0
   20.1620   88.5320   44.3500 C   0  0  0  0  0  0
   21.1710   88.7460   45.2900 C   0  0  0  0  0  0
   20.8700   88.7520   46.6520 C   0  0  0  0  0  0
   19.5590   88.5400   47.0720 C   0  0  0  0  0  0
   18.5540   88.3250   46.1280 C   0  0  0  0  0  0
   16.9040   88.0450   46.2850 S   0  0  0  0  0  0
   16.6010   87.9290   44.6400 C   0  0  0  0  0  0
   15.3920   87.6860   44.1210 N   0  0  0  0  0  0
   14.9290   88.0840   42.9270 C   0  0  0  0  0  0
   13.5550   87.9970   42.7000 C   0  0  0  0  0  0
   13.0130   88.3900   41.4770 C   0  0  0  0  0  0
   15.7590   88.5670   41.9110 C   0  0  0  0  0  0
   15.2210   88.9620   40.6870 C   0  0  0  0  0  0
   13.8450   88.8700   40.4670 C   0  0  0  0  0  0
   13.3140   89.2570   39.2700 O   0  0  0  0  0  0
   13.1090   88.2280   38.3940 C   0  0  0  0  0  0
   13.9580   87.1820   38.3630 N   0  0  0  0  0  0
   13.7740   86.1800   37.5190 C   0  0  0  0  0  0
   12.6910   86.2030   36.6450 C   0  0  0  0  0  0
   11.8480   87.2220   36.6620 N   0  0  0  0  0  0
   12.0200   88.2450   37.5160 C   0  0  0  0  0  0
   11.0960   89.3050   37.4830 N   0  0  0  0  0  0
   10.1670   89.5360   38.6390 C   0  0  0  0  0  0
    9.6980   91.0030   38.7520 C   0  0  0  0  0  0
   11.0350   90.1120   36.2280 C   0  0  0  0  0  0
   10.6360   91.5630   36.5080 C   0  0  0  0  0  0
    9.3710   91.6050   37.3710 C   0  0  0  0  0  0
    8.7550   93.0210   37.4210 C   0  0  2  0  0  0
    9.3740   93.9210   38.5000 C   0  0  0  0  0  0
    7.3330   92.9180   37.5850 O   0  0  0  0  0  0
   20.4086   88.5327   43.2883 H   0  0  0  0  0  0
   22.1967   88.9088   44.9591 H   0  0  0  0  0  0
   21.6583   88.9221   47.3854 H   0  0  0  0  0  0
   19.3187   88.5420   48.1352 H   0  0  0  0  0  0
   14.6560   87.1006   44.6917 H   0  0  0  0  0  0
   12.9002   87.6188   43.4850 H   0  0  0  0  0  0
   11.9379   88.3218   41.3106 H   0  0  0  0  0  0
   16.8341   88.6352   42.0770 H   0  0  0  0  0  0
   15.8743   89.3426   39.9018 H   0  0  0  0  0  0
   14.4680   85.3395   37.5081 H   0  0  0  0  0  0
   12.5375   85.3807   35.9461 H   0  0  0  0  0  0
    9.2721   88.9072   38.5216 H   0  0  0  0  0  0
   10.6778   89.2752   39.5777 H   0  0  0  0  0  0
    8.7921   91.0514   39.3741 H   0  0  0  0  0  0
   10.4926   91.6075   39.2138 H   0  0  0  0  0  0
   12.0225   90.1115   35.7434 H   0  0  0  0  0  0
   10.2916   89.6736   35.5459 H   0  0  0  0  0  0
   11.4530   92.0716   37.0407 H   0  0  0  0  0  0
   10.4409   92.0797   35.5567 H   0  0  0  0  0  0
    8.5862   90.9842   36.9142 H   0  0  0  0  0  0
    8.9066   93.5228   36.4539 H   0  0  0  0  0  0
   10.4619   93.9802   38.3482 H   0  0  0  0  0  0
    9.1649   93.4987   39.4939 H   0  0  0  0  0  0
    8.9387   94.9288   38.4308 H   0  0  0  0  0  0
    6.7418   92.3062   36.8877 H   0  0  0  0  0  0
  1  2  1  0  0  0
  1  9  2  0  0  0
  2  3  2  0  0  0
  2  7  1  0  0  0
  3  4  1  0  0  0
  3 33  1  0  0  0
  4  5  2  0  0  0
  4 34  1  0  0  0
  5  6  1  0  0  0
  5 35  1  0  0  0
  6  7  2  0  0  0
  6 36  1  0  0  0
  7  8  1  0  0  0
  8  9  1  0  0  0
  9 10  1  0  0  0
 10 11  1  0  0  0
 10 37  1  0  0  0
 11 12  2  0  0  0
 11 14  1  0  0  0
 12 13  1  0  0  0
 12 38  1  0  0  0
 13 16  2  0  0  0
 13 39  1  0  0  0
 14 15  2  0  0  0
 14 40  1  0  0  0
 15 16  1  0  0  0
 15 41  1  0  0  0
 16 17  1  0  0  0
 17 18  1  0  0  0
 18 19  2  0  0  0
 18 23  1  0  0  0
 19 20  1  0  0  0
 20 21  2  0  0  0
 20 42  1  0  0  0
 21 22  1  0  0  0
 21 43  1  0  0  0
 22 23  2  0  0  0
 23 24  1  0  0  0
 24 25  1  0  0  0
 24 27  1  0  0  0
 25 26  1  0  0  0
 25 44  1  0  0  0
 25 45  1  0  0  0
 26 29  1  0  0  0
 26 46  1  0  0  0
 26 47  1  0  0  0
 27 28  1  0  0  0
 27 48  1  0  0  0
 27 49  1  0  0  0
 28 29  1  0  0  0
 28 50  1  0  0  0
 28 51  1  0  0  0
 29 30  1  0  0  0
 29 52  1  0  0  0
 30 31  1  0  0  0
 30 32  1  0  0  0
 30 53  1  0  0  0
 31 54  1  0  0  0
 31 55  1  0  0  0
 31 56  1  0  0  0
 32 57  1  0  0  0
M  END
> <s_m_source_file>
../4hf4_ligand.sdf

> <i_m_source_file_index>
1

> <s_epik_input>
W2NIXTFbY0hdW2NIXVtjSF1jKGMxMilzYyhuMilbTkhdYzNbY0hdW2NIXWMoW2NIXVtjSF0zKU9jNG5bY0hdW2NIXW5jNE41W0NIMl1bQ0gyXVtDSF0oW0NIMl1bQ0gyXTUpW0NASF0oW0NIM10pW09IXQ==

> <s_epik_cmdline>
J2VwaWtfYXBwJywgJy1pbWFlJywgJ2xpZ2FuZF9wcm8ubWFlJywgJy1vbWFlJywgJ2xpZ2FuZF9wcmVwLm1hZScsICctbXMnLCAnMScsICctcGgnLCAnNycsICctcGh0JywgJzAuNScsICctbnQn

> <r_lp_tautomer_probability>
1

> <r_epik_Ionization_Penalty>
  0.0002

> <r_epik_Ionization_Penalty_Charging>
  0.0000

> <r_epik_Ionization_Penalty_Neutral>
  0.0002

> <r_epik_State_Penalty>
 -0.0000

> <r_epik_Charging_Adjusted_Penalty>
0

> <i_epik_Tot_Q>
0

> <i_epik_Tot_abs_Q>
0

$$$$
