4hfp_ligand
                    3D
 Schrodinger Suite 2020-3.
 71 73  0  0  1  0            999 V2000
    2.6270   13.7560    0.1060 S   0  0  0  0  0  0
    1.7960   12.5870    0.1880 O   0  0  0  0  0  0
    2.5190   14.4990    1.3360 O   0  0  0  0  0  0
    2.8590   12.5350   -4.2320 C   0  0  0  0  0  0
    3.2060   13.6560   -5.2110 C   0  0  2  0  0  0
    2.1800   14.7790   -5.0950 C   0  0  0  0  0  0
    2.0180   15.1820   -3.6410 C   0  0  0  0  0  0
    1.5040   16.4350   -3.3080 C   0  0  0  0  0  0
    1.3570   16.8100   -1.9700 C   0  0  0  0  0  0
    1.7090   15.9640   -0.9140 C   0  0  0  0  0  0
    2.2270   14.6900   -1.1370 C   0  0  0  0  0  0
    2.4100   14.2440   -2.5480 C   0  0  0  0  0  0
    3.3040   13.1300   -6.6400 C   0  0  0  0  0  0
    2.9100   13.0240   -2.8610 N   0  0  0  0  0  0
    4.1460   13.2890   -0.0920 N   0  0  3  0  0  0
    5.2210   14.2650   -0.0310 C   0  0  2  0  0  0
    5.7820   14.5690   -1.4020 C   0  0  0  0  0  0
    5.7190   13.7090   -2.2640 O   0  0  0  0  0  0
    6.2860   13.7810    0.9590 C   0  0  0  0  0  0
    7.1590   12.6580    0.4110 C   0  0  0  0  0  0
    8.4110   12.4950    1.2560 C   0  0  0  0  0  0
    8.7070   11.0930    1.4730 N   0  0  0  0  0  0
    9.5120   10.3780    0.6840 C   0  0  0  0  0  0
    9.6370    9.0720    0.9240 N   0  0  0  0  0  0
   10.1490   10.9120   -0.2740 N   0  3  0  0  0  0
    6.3330   15.7650   -1.6510 N   0  0  0  0  0  0
    6.4210   16.7960   -0.5970 C   0  0  2  0  0  0
    5.8550   18.1290   -1.1100 C   0  0  0  0  0  0
    6.3960   18.5200   -2.4840 C   0  0  1  0  0  0
    6.1450   17.3690   -3.4520 C   0  0  0  0  0  0
    6.9180   16.1530   -2.9460 C   0  0  0  0  0  0
    7.8280   16.9050   -0.0600 C   0  0  0  0  0  0
    8.6020   15.9360   -0.2160 O   0  0  0  0  0  0
    8.1780   17.9510    0.5300 O   0  5  0  0  0  0
    5.8050   19.8330   -2.9860 C   0  0  0  0  0  0
    1.8447   12.1651   -4.4428 H   0  0  0  0  0  0
    3.5803   11.7124   -4.3459 H   0  0  0  0  0  0
    4.1948   14.0624   -4.9520 H   0  0  0  0  0  0
    2.5205   15.6483   -5.6768 H   0  0  0  0  0  0
    1.2117   14.4329   -5.4857 H   0  0  0  0  0  0
    1.2145   17.1277   -4.0982 H   0  0  0  0  0  0
    0.9538   17.7966   -1.7416 H   0  0  0  0  0  0
    1.5746   16.3103    0.1108 H   0  0  0  0  0  0
    4.0514   12.3241   -6.6836 H   0  0  0  0  0  0
    3.6063   13.9471   -7.3115 H   0  0  0  0  0  0
    2.3250   12.7397   -6.9550 H   0  0  0  0  0  0
    3.3566   12.4018   -2.0714 H   0  0  0  0  0  0
    4.3522   12.2643   -0.4348 H   0  0  0  0  0  0
    4.7736   15.2036    0.3279 H   0  0  0  0  0  0
    6.9508   14.6175    1.2204 H   0  0  0  0  0  0
    5.7964   13.4037    1.8689 H   0  0  0  0  0  0
    6.5939   11.7143    0.4247 H   0  0  0  0  0  0
    7.4540   12.8937   -0.6222 H   0  0  0  0  0  0
    9.2639   12.9618    0.7415 H   0  0  0  0  0  0
    8.2608   12.9806    2.2315 H   0  0  0  0  0  0
    8.2590   10.5619    2.3257 H   0  0  0  0  0  0
    9.0840    8.6101    1.7552 H   0  0  0  0  0  0
   10.2931    8.4567    0.2908 H   0  0  0  0  0  0
   10.0450   11.9892   -0.4709 H   0  0  0  0  0  0
    5.8031   16.4587    0.2482 H   0  0  0  0  0  0
    4.7605   18.0556   -1.1913 H   0  0  0  0  0  0
    6.1173   18.9335   -0.4072 H   0  0  0  0  0  0
    7.4787   18.6993   -2.4088 H   0  0  0  0  0  0
    5.0680   17.1479   -3.4873 H   0  0  0  0  0  0
    6.4944   17.6515   -4.4561 H   0  0  0  0  0  0
    7.9804   16.4026   -2.8083 H   0  0  0  0  0  0
    6.8267   15.3169   -3.6549 H   0  0  0  0  0  0
    6.0109   20.6303   -2.2567 H   0  0  0  0  0  0
    4.7177   19.7218   -3.1105 H   0  0  0  0  0  0
    6.2600   20.0939   -3.9529 H   0  0  0  0  0  0
   10.8054   10.2979   -0.9080 H   0  0  0  0  0  0
  1  2  2  0  0  0
  1  3  2  0  0  0
  1 11  1  0  0  0
  1 15  1  0  0  0
  4  5  1  0  0  0
  4 14  1  0  0  0
  4 36  1  0  0  0
  4 37  1  0  0  0
  5  6  1  0  0  0
  5 13  1  0  0  0
  5 38  1  0  0  0
  6  7  1  0  0  0
  6 39  1  0  0  0
  6 40  1  0  0  0
  7  8  2  0  0  0
  7 12  1  0  0  0
  8  9  1  0  0  0
  8 41  1  0  0  0
  9 10  2  0  0  0
  9 42  1  0  0  0
 10 11  1  0  0  0
 10 43  1  0  0  0
 11 12  2  0  0  0
 12 14  1  0  0  0
 13 44  1  0  0  0
 13 45  1  0  0  0
 13 46  1  0  0  0
 14 47  1  0  0  0
 15 16  1  0  0  0
 15 48  1  0  0  0
 16 17  1  0  0  0
 16 19  1  0  0  0
 16 49  1  0  0  0
 17 18  2  0  0  0
 17 26  1  0  0  0
 19 20  1  0  0  0
 19 50  1  0  0  0
 19 51  1  0  0  0
 20 21  1  0  0  0
 20 52  1  0  0  0
 20 53  1  0  0  0
 21 22  1  0  0  0
 21 54  1  0  0  0
 21 55  1  0  0  0
 22 23  1  0  0  0
 22 56  1  0  0  0
 23 24  1  0  0  0
 23 25  2  0  0  0
 24 57  1  0  0  0
 24 58  1  0  0  0
 25 59  1  0  0  0
 25 71  1  0  0  0
 26 27  1  0  0  0
 26 31  1  0  0  0
 27 28  1  0  0  0
 27 32  1  0  0  0
 27 60  1  0  0  0
 28 29  1  0  0  0
 28 61  1  0  0  0
 28 62  1  0  0  0
 29 30  1  0  0  0
 29 35  1  0  0  0
 29 63  1  0  0  0
 30 31  1  0  0  0
 30 64  1  0  0  0
 30 65  1  0  0  0
 31 66  1  0  0  0
 31 67  1  0  0  0
 32 33  2  0  0  0
 32 34  1  0  0  0
 35 68  1  0  0  0
 35 69  1  0  0  0
 35 70  1  0  0  0
M  CHG  2  25   1  34  -1
M  END
> <s_m_source_file>
../4hfp_ligand.sdf

> <i_m_source_file_index>
1

> <s_epik_input>
W0NIMl0xW0NASF0oW0NIM10pW0NIMl1bTkhdYyhjMTIpYyhbY0hdW2NIXVtjSF0yKVMoPU8pKD1PKVtOSF1bQ0BASF0oW0NIMl1bQ0gyXVtDSDJdW05IXS9DKFtOSDJdKT1OXFtIXSlDKD1PKU4zW0NAQEhdKEMoPU8pW09IXSlbQ0gyXVtDQEhdKFtDSDNdKVtDSDJdW0NIMl0z

> <s_epik_cmdline>
J2VwaWtfYXBwJywgJy1pbWFlJywgJ2xpZ2FuZF9wcm8ubWFlJywgJy1vbWFlJywgJ2xpZ2FuZF9wcmVwLm1hZScsICctbXMnLCAnMScsICctcGgnLCAnNycsICctcGh0JywgJzAuNScsICctbnQn

> <r_lp_tautomer_probability>
1

> <r_epik_Ionization_Penalty>
  0.0004

> <r_epik_Ionization_Penalty_Charging>
  0.0002

> <r_epik_Ionization_Penalty_Neutral>
  0.0002

> <r_epik_State_Penalty>
 -0.0000

> <r_epik_Charging_Adjusted_Penalty>
0.000187931198407019

> <i_epik_Tot_Q>
0

> <i_epik_Tot_abs_Q>
2

> <s_epik_Chemistry_Notes>
This compound has an imine and may undergo hydrolysis.

$$$$
